4hfz_ligand
                    3D
 Schrodinger Suite 2020-3.
194197  0  0  1  0            999 V2000
  -11.8500  -13.0370    5.2590 N   0  3  0  0  0  0
  -10.4280  -13.3780    5.6160 C   0  0  2  0  0  0
  -10.2770  -14.9100    5.8720 C   0  0  0  0  0  0
  -10.8150  -15.4350    6.8640 O   0  0  0  0  0  0
   -9.9490  -12.5280    6.8320 C   0  0  0  0  0  0
  -10.8310  -12.5980    8.0890 C   0  0  0  0  0  0
  -10.0750  -12.4040    9.4050 C   0  0  0  0  0  0
   -9.0030  -11.7610    9.3920 O   0  0  0  0  0  0
  -10.5760  -12.8790   10.4630 O   0  0  0  0  0  0
   -9.6100  -15.6370    4.9710 N   0  0  0  0  0  0
   -9.3870  -17.0850    5.2020 C   0  0  2  0  0  0
   -7.9740  -17.3330    5.7190 C   0  0  0  0  0  0
   -7.0680  -16.5320    5.4340 O   0  0  0  0  0  0
   -9.5650  -17.9740    3.9580 C   0  0  2  0  0  0
   -8.5750  -17.6220    2.9800 O   0  0  0  0  0  0
  -10.9640  -17.8550    3.3960 C   0  0  0  0  0  0
   -7.7750  -18.4340    6.4580 N   0  0  0  0  0  0
   -6.4660  -18.7280    7.0020 C   0  0  2  0  0  0
   -5.3910  -18.7950    5.8980 C   0  0  0  0  0  0
   -4.3270  -18.1560    6.0110 O   0  0  0  0  0  0
   -6.4660  -20.0000    7.8350 C   0  0  0  0  0  0
   -5.1070  -20.3580    8.3080 C   0  0  0  0  0  0
   -4.5450  -19.6790    9.3820 C   0  0  0  0  0  0
   -4.3460  -21.2840    7.6160 C   0  0  0  0  0  0
   -3.2740  -19.9690    9.8030 C   0  0  0  0  0  0
   -3.0630  -21.5640    7.9950 C   0  0  0  0  0  0
   -2.5290  -20.8970    9.0990 C   0  0  0  0  0  0
   -5.6890  -19.5410    4.8270 N   0  0  0  0  0  0
   -4.7900  -19.7320    3.6940 C   0  0  2  0  0  0
   -4.3780  -18.4370    3.0380 C   0  0  0  0  0  0
   -3.2030  -18.2720    2.7480 O   0  0  0  0  0  0
   -5.4230  -20.6640    2.6640 C   0  0  0  0  0  0
   -5.7080  -21.9070    3.2900 O   0  0  0  0  0  0
   -5.3100  -17.5450    2.8190 N   0  0  0  0  0  0
   -5.0040  -16.2750    2.2590 C   0  0  2  0  0  0
   -4.1650  -15.4560    3.1560 C   0  0  0  0  0  0
   -3.2460  -14.8430    2.7260 O   0  0  0  0  0  0
   -6.2820  -15.5110    2.0180 C   0  0  0  0  0  0
   -7.0480  -16.0240    0.8470 C   0  0  0  0  0  0
   -6.4360  -16.5360   -0.1090 O   0  0  0  0  0  0
   -8.2780  -15.9190    0.8820 O   0  0  0  0  0  0
   -4.5160  -15.4230    4.4130 N   0  0  0  0  0  0
   -3.8580  -14.6200    5.3970 C   0  0  2  0  0  0
   -2.4640  -15.0890    5.7580 C   0  0  0  0  0  0
   -1.6240  -14.3030    6.0890 O   0  0  0  0  0  0
   -4.7150  -14.6660    6.6320 C   0  0  0  0  0  0
   -5.2270  -13.4970    7.4270 C   0  0  0  0  0  0
   -5.2900  -12.2750    6.6670 C   0  0  0  0  0  0
   -6.5380  -13.8840    7.8590 C   0  0  0  0  0  0
   -2.2470  -16.3880    5.7320 N   0  0  0  0  0  0
   -0.9570  -16.9810    6.0080 C   0  0  2  0  0  0
    0.0210  -16.7020    4.9050 C   0  0  0  0  0  0
    1.1680  -16.5250    5.1470 O   0  0  0  0  0  0
   -1.0950  -18.4840    6.2150 C   0  0  0  0  0  0
    0.1200  -19.1430    6.7420 C   0  0  0  0  0  0
    1.0080  -19.8540    6.0510 C   0  0  0  0  0  0
    0.5710  -19.1450    8.0870 C   0  0  0  0  0  0
    1.9950  -20.2950    6.8580 N   0  0  0  0  0  0
    1.7500  -19.8670    8.1240 C   0  0  0  0  0  0
    0.0930  -18.5950    9.2600 C   0  0  0  0  0  0
    2.4470  -20.0690    9.2790 C   0  0  0  0  0  0
    0.7870  -18.7950   10.3890 C   0  0  0  0  0  0
    1.9470  -19.5220   10.4000 C   0  0  0  0  0  0
   -0.4550  -16.6730    3.6830 N   0  0  0  0  0  0
    0.3500  -16.3390    2.5200 C   0  0  2  0  0  0
    0.8740  -14.8840    2.5230 C   0  0  0  0  0  0
    1.7590  -14.5380    1.7460 O   0  0  0  0  0  0
   -0.4150  -16.6770    1.2350 C   0  0  0  0  0  0
   -0.4620  -18.1690    0.9340 C   0  0  0  0  0  0
   -1.4390  -18.5010   -0.2010 C   0  0  0  0  0  0
   -1.7020  -20.0000   -0.3840 C   0  0  0  0  0  0
   -2.2920  -20.6470    0.8320 N   0  3  0  0  0  0
    0.3820  -14.0750    3.4480 N   0  0  0  0  0  0
    0.8060  -12.6870    3.5560 C   0  0  2  0  0  0
    1.9460  -12.4700    4.5370 C   0  0  0  0  0  0
    2.3280  -11.3410    4.7950 O   0  0  0  0  0  0
   -0.3640  -11.8180    3.9930 C   0  0  0  0  0  0
   -1.4360  -11.5470    2.9510 C   0  0  0  0  0  0
   -2.6350  -10.9240    3.6180 C   0  0  0  0  0  0
   -0.8860  -10.6420    1.8800 C   0  0  0  0  0  0
    2.4810  -13.5460    5.0920 N   0  0  0  0  0  0
    3.4820  -13.4340    6.1390 C   0  0  2  0  0  0
    4.8270  -12.9130    5.6460 C   0  0  0  0  0  0
    5.3240  -11.9000    6.1350 O   0  0  0  0  0  0
    3.6610  -14.7720    6.8470 C   0  0  0  0  0  0
    3.1210  -14.8120    8.2720 C   0  0  0  0  0  0
    1.6220  -14.7810    8.2460 C   0  0  0  0  0  0
    3.5970  -16.0370    8.9760 C   0  0  0  0  0  0
    5.4190  -13.6080    4.6850 N   0  0  0  0  0  0
    6.7320  -13.2130    4.1720 C   0  0  2  0  0  0
    6.7400  -11.7720    3.6810 C   0  0  0  0  0  0
    6.5559  -10.8443    4.5135 O   0  0  0  0  0  0
    6.9460  -14.1750    3.0110 C   0  0  0  0  0  0
    6.1760  -15.3830    3.3940 C   0  0  0  0  0  0
    4.9630  -14.8800    4.1010 C   0  0  0  0  0  0
    6.9276  -11.5114    2.4626 O   0  0  0  0  0  0
  -12.1686  -13.6462    4.4003 H   0  0  0  0  0  0
  -11.9166  -11.9708    4.9969 H   0  0  0  0  0  0
  -12.5038  -13.2448    6.1188 H   0  0  0  0  0  0
   -9.8099  -13.1119    4.7459 H   0  0  0  0  0  0
   -8.9477  -12.8623    7.1413 H   0  0  0  0  0  0
   -9.9088  -11.4670    6.5446 H   0  0  0  0  0  0
  -11.5992  -11.8120    8.0421 H   0  0  0  0  0  0
  -11.3173  -13.5833    8.1413 H   0  0  0  0  0  0
  -10.0538  -12.7542   11.4231 H   0  0  0  0  0  0
   -9.2261  -15.1603    4.0570 H   0  0  0  0  0  0
  -10.1667  -17.3246    5.9401 H   0  0  0  0  0  0
   -9.3849  -19.0343    4.1888 H   0  0  0  0  0  0
   -7.5069  -17.6594    3.2405 H   0  0  0  0  0  0
  -11.6949  -18.1314    4.1702 H   0  0  0  0  0  0
  -11.0711  -18.5290    2.5333 H   0  0  0  0  0  0
  -11.1435  -16.8181    3.0758 H   0  0  0  0  0  0
   -8.6162  -19.1163    6.6497 H   0  0  0  0  0  0
   -6.2747  -17.8738    7.6682 H   0  0  0  0  0  0
   -7.1095  -19.8612    8.7162 H   0  0  0  0  0  0
   -6.8486  -20.8349    7.2295 H   0  0  0  0  0  0
   -5.1208  -18.9083    9.8944 H   0  0  0  0  0  0
   -4.7761  -21.7975    6.7561 H   0  0  0  0  0  0
   -2.8561  -19.4753   10.6803 H   0  0  0  0  0  0
   -2.4683  -22.2940    7.4459 H   0  0  0  0  0  0
   -1.5070  -21.1115    9.4114 H   0  0  0  0  0  0
   -6.6770  -20.0245    4.8328 H   0  0  0  0  0  0
   -3.8884  -20.1780    4.1392 H   0  0  0  0  0  0
   -6.3526  -20.2143    2.2851 H   0  0  0  0  0  0
   -4.7232  -20.8175    1.8293 H   0  0  0  0  0  0
   -6.1707  -22.7206    2.7121 H   0  0  0  0  0  0
   -6.3492  -17.7958    3.0783 H   0  0  0  0  0  0
   -4.4427  -16.5108    1.3428 H   0  0  0  0  0  0
   -6.9290  -15.5900    2.9041 H   0  0  0  0  0  0
   -6.0468  -14.4532    1.8289 H   0  0  0  0  0  0
   -6.9928  -16.9174   -0.9776 H   0  0  0  0  0  0
   -5.3671  -16.0577    4.7006 H   0  0  0  0  0  0
   -3.7667  -13.6258    4.9353 H   0  0  0  0  0  0
   -5.6645  -15.1709    6.4008 H   0  0  0  0  0  0
   -4.1885  -15.2198    7.4233 H   0  0  0  0  0  0
   -4.5751  -13.2444    8.2763 H   0  0  0  0  0  0
   -4.2775  -11.9919    6.3433 H   0  0  0  0  0  0
   -5.7118  -11.4751    7.2933 H   0  0  0  0  0  0
   -5.9288  -12.4249    5.7841 H   0  0  0  0  0  0
   -6.4728  -14.8175    8.4371 H   0  0  0  0  0  0
   -7.1820  -14.0406    6.9811 H   0  0  0  0  0  0
   -6.9651  -13.0908    8.4902 H   0  0  0  0  0  0
   -3.1059  -17.0296    5.4856 H   0  0  0  0  0  0
   -0.6047  -16.4870    6.9255 H   0  0  0  0  0  0
   -1.9043  -18.6824    6.9331 H   0  0  0  0  0  0
   -1.3304  -18.9663    5.2548 H   0  0  0  0  0  0
    0.9463  -20.0525    4.9810 H   0  0  0  0  0  0
   -0.8277  -18.0115    9.2675 H   0  0  0  0  0  0
    3.3697  -20.6491    9.2921 H   0  0  0  0  0  0
    0.4186  -18.3681   11.3218 H   0  0  0  0  0  0
    2.4783  -19.6606   11.3416 H   0  0  0  0  0  0
   -1.5205  -16.9182    3.5624 H   0  0  0  0  0  0
    1.2270  -16.9955    2.6198 H   0  0  0  0  0  0
   -1.4534  -16.3249    1.3231 H   0  0  0  0  0  0
    0.0685  -16.1825    0.3796 H   0  0  0  0  0  0
    0.5387  -18.5145    0.6352 H   0  0  0  0  0  0
   -0.7849  -18.7145    1.8330 H   0  0  0  0  0  0
   -2.4100  -18.0248    0.0000 H   0  0  0  0  0  0
   -1.0364  -18.1250   -1.1531 H   0  0  0  0  0  0
   -2.4063  -20.1498   -1.2155 H   0  0  0  0  0  0
   -0.7555  -20.5137   -0.6081 H   0  0  0  0  0  0
   -2.4554  -21.7169    0.6353 H   0  0  0  0  0  0
   -3.2523  -20.1676    1.0729 H   0  0  0  0  0  0
   -1.6014  -20.5314    1.6804 H   0  0  0  0  0  0
   -0.3666  -14.4774    4.1464 H   0  0  0  0  0  0
    1.1580  -12.4529    2.5405 H   0  0  0  0  0  0
   -0.8812  -12.2970    4.8374 H   0  0  0  0  0  0
    0.0085  -10.8307    4.3036 H   0  0  0  0  0  0
   -1.7522  -12.4865    2.4741 H   0  0  0  0  0  0
   -3.0169  -11.6033    4.3943 H   0  0  0  0  0  0
   -3.4200  -10.7456    2.8684 H   0  0  0  0  0  0
   -2.3433   -9.9684    4.0781 H   0  0  0  0  0  0
   -0.0134  -11.1188    1.4096 H   0  0  0  0  0  0
   -0.5831   -9.6846    2.3290 H   0  0  0  0  0  0
   -1.6598  -10.4617    1.1193 H   0  0  0  0  0  0
    2.1547  -14.5382    4.7469 H   0  0  0  0  0  0
    3.0566  -12.6783    6.8158 H   0  0  0  0  0  0
    3.1356  -15.5577    6.2843 H   0  0  0  0  0  0
    4.7320  -15.0160    6.9045 H   0  0  0  0  0  0
    3.4856  -13.9408    8.8359 H   0  0  0  0  0  0
    1.2830  -13.8737    7.7246 H   0  0  0  0  0  0
    1.2374  -14.7770    9.2766 H   0  0  0  0  0  0
    1.2460  -15.6696    7.7177 H   0  0  0  0  0  0
    4.6969  -16.0486    8.9887 H   0  0  0  0  0  0
    3.2269  -16.9294    8.4499 H   0  0  0  0  0  0
    3.2184  -16.0368   10.0088 H   0  0  0  0  0  0
    7.4918  -13.2715    4.9653 H   0  0  0  0  0  0
    6.5672  -13.7205    2.0837 H   0  0  0  0  0  0
    8.0201  -14.3867    2.9034 H   0  0  0  0  0  0
    5.9066  -15.9481    2.4895 H   0  0  0  0  0  0
    6.7896  -16.0155    4.0524 H   0  0  0  0  0  0
    4.6332  -15.5550    4.9045 H   0  0  0  0  0  0
    4.1243  -14.6889    3.4153 H   0  0  0  0  0  0
    6.9316  -10.4668    2.1178 H   0  0  0  0  0  0
  1  2  1  0  0  0
  1 97  1  0  0  0
  1 98  1  0  0  0
  1 99  1  0  0  0
  2  3  1  0  0  0
  2  5  1  0  0  0
  2100  1  0  0  0
  3  4  2  0  0  0
  3 10  1  0  0  0
  5  6  1  0  0  0
  5101  1  0  0  0
  5102  1  0  0  0
  6  7  1  0  0  0
  6103  1  0  0  0
  6104  1  0  0  0
  7  8  2  0  0  0
  7  9  1  0  0  0
  9105  1  0  0  0
 10 11  1  0  0  0
 10106  1  0  0  0
 11 12  1  0  0  0
 11 14  1  0  0  0
 11107  1  0  0  0
 12 13  2  0  0  0
 12 17  1  0  0  0
 14 15  1  0  0  0
 14 16  1  0  0  0
 14108  1  0  0  0
 15109  1  0  0  0
 16110  1  0  0  0
 16111  1  0  0  0
 16112  1  0  0  0
 17 18  1  0  0  0
 17113  1  0  0  0
 18 19  1  0  0  0
 18 21  1  0  0  0
 18114  1  0  0  0
 19 20  2  0  0  0
 19 28  1  0  0  0
 21 22  1  0  0  0
 21115  1  0  0  0
 21116  1  0  0  0
 22 23  2  0  0  0
 22 24  1  0  0  0
 23 25  1  0  0  0
 23117  1  0  0  0
 24 26  2  0  0  0
 24118  1  0  0  0
 25 27  2  0  0  0
 25119  1  0  0  0
 26 27  1  0  0  0
 26120  1  0  0  0
 27121  1  0  0  0
 28 29  1  0  0  0
 28122  1  0  0  0
 29 30  1  0  0  0
 29 32  1  0  0  0
 29123  1  0  0  0
 30 31  2  0  0  0
 30 34  1  0  0  0
 32 33  1  0  0  0
 32124  1  0  0  0
 32125  1  0  0  0
 33126  1  0  0  0
 34 35  1  0  0  0
 34127  1  0  0  0
 35 36  1  0  0  0
 35 38  1  0  0  0
 35128  1  0  0  0
 36 37  2  0  0  0
 36 42  1  0  0  0
 38 39  1  0  0  0
 38129  1  0  0  0
 38130  1  0  0  0
 39 40  1  0  0  0
 39 41  2  0  0  0
 40131  1  0  0  0
 42 43  1  0  0  0
 42132  1  0  0  0
 43 44  1  0  0  0
 43 46  1  0  0  0
 43133  1  0  0  0
 44 45  2  0  0  0
 44 50  1  0  0  0
 46 47  1  0  0  0
 46134  1  0  0  0
 46135  1  0  0  0
 47 48  1  0  0  0
 47 49  1  0  0  0
 47136  1  0  0  0
 48137  1  0  0  0
 48138  1  0  0  0
 48139  1  0  0  0
 49140  1  0  0  0
 49141  1  0  0  0
 49142  1  0  0  0
 50 51  1  0  0  0
 50143  1  0  0  0
 51 52  1  0  0  0
 51 54  1  0  0  0
 51144  1  0  0  0
 52 53  2  0  0  0
 52 64  1  0  0  0
 54 55  1  0  0  0
 54145  1  0  0  0
 54146  1  0  0  0
 55 56  2  0  0  0
 55 57  1  0  0  0
 56 58  1  0  0  0
 56147  1  0  0  0
 57 59  2  0  0  0
 57 60  1  0  0  0
 58 59  1  0  0  0
 59 61  1  0  0  0
 60 62  2  0  0  0
 60148  1  0  0  0
 61 63  2  0  0  0
 61149  1  0  0  0
 62 63  1  0  0  0
 62150  1  0  0  0
 63151  1  0  0  0
 64 65  1  0  0  0
 64152  1  0  0  0
 65 66  1  0  0  0
 65 68  1  0  0  0
 65153  1  0  0  0
 66 67  2  0  0  0
 66 73  1  0  0  0
 68 69  1  0  0  0
 68154  1  0  0  0
 68155  1  0  0  0
 69 70  1  0  0  0
 69156  1  0  0  0
 69157  1  0  0  0
 70 71  1  0  0  0
 70158  1  0  0  0
 70159  1  0  0  0
 71 72  1  0  0  0
 71160  1  0  0  0
 71161  1  0  0  0
 72162  1  0  0  0
 72163  1  0  0  0
 72164  1  0  0  0
 73 74  1  0  0  0
 73165  1  0  0  0
 74 75  1  0  0  0
 74 77  1  0  0  0
 74166  1  0  0  0
 75 76  2  0  0  0
 75 81  1  0  0  0
 77 78  1  0  0  0
 77167  1  0  0  0
 77168  1  0  0  0
 78 79  1  0  0  0
 78 80  1  0  0  0
 78169  1  0  0  0
 79170  1  0  0  0
 79171  1  0  0  0
 79172  1  0  0  0
 80173  1  0  0  0
 80174  1  0  0  0
 80175  1  0  0  0
 81 82  1  0  0  0
 81176  1  0  0  0
 82 83  1  0  0  0
 82 85  1  0  0  0
 82177  1  0  0  0
 83 84  2  0  0  0
 83 89  1  0  0  0
 85 86  1  0  0  0
 85178  1  0  0  0
 85179  1  0  0  0
 86 87  1  0  0  0
 86 88  1  0  0  0
 86180  1  0  0  0
 87181  1  0  0  0
 87182  1  0  0  0
 87183  1  0  0  0
 88184  1  0  0  0
 88185  1  0  0  0
 88186  1  0  0  0
 89 90  1  0  0  0
 89 95  1  0  0  0
 90 91  1  0  0  0
 90 93  1  0  0  0
 90187  1  0  0  0
 91 92  2  0  0  0
 91 96  1  0  0  0
 93 94  1  0  0  0
 93188  1  0  0  0
 93189  1  0  0  0
 94 95  1  0  0  0
 94190  1  0  0  0
 94191  1  0  0  0
 95192  1  0  0  0
 95193  1  0  0  0
 96194  1  0  0  0
M  CHG  2   1   1  72   1
M  END
> <s_m_source_file>
../4hfz_ligand.sdf

> <i_m_source_file_index>
1

> <s_epik_input>
Tz1DKFtPSF0pW0NIMl1bQ0gyXVtDQEhdKFtOSDMrXSlDKD1PKVtOSF1bQ0BASF0oW0NASF0oW09IXSlbQ0gzXSlDKD1PKVtOSF1bQ0BASF0oW0NIMl1jMVtjSF1bY0hdW2NIXVtjSF1bY0hdMSlDKD1PKVtOSF1bQ0BASF0oW0NIMl1bT0hdKUMoPU8pW05IXVtDQEBIXShbQ0gyXUMoPU8pW09IXSlDKD1PKVtOSF1bQ0BASF0oW0NIMl1bQ0hdKFtDSDNdKVtDSDNdKUMoPU8pW05IXVtDQEBIXShbQ0gyXWMyW2NIXVtuSF1jKGMyMylbY0hdW2NIXVtjSF1bY0hdMylDKD1PKVtOSF1bQ0BASF0oW0NIMl1bQ0gyXVtDSDJdW0NIMl1bTkgzK10pQyg9TylbTkhdW0NAQEhdKFtDSDJdW0NIXShbQ0gzXSlbQ0gzXSlDKD1PKVtOSF1bQ0BASF0oW0NIMl1bQ0hdKFtDSDNdKVtDSDNdKUMoPU8pTjRbQ0BIXShDKD1PKVtPSF0pW0NIMl1bQ0gyXVtDSDJdNA==

> <s_epik_cmdline>
J2VwaWtfYXBwJywgJy1pbWFlJywgJ2xpZ2FuZF9wcm8ubWFlJywgJy1vbWFlJywgJ2xpZ2FuZF9wcmVwLm1hZScsICctbXMnLCAnMScsICctcGgnLCAnNycsICctcGh0JywgJzAuNScsICctbnQn

> <s_epik_pKa_notes>
Molecule size exceeds maximum supported for generating protonation states

$$$$
