4hgc_ligand
                    3D
 Schrodinger Suite 2020-3.
187190  0  0  1  0            999 V2000
   26.1060   -8.6600   11.7050 N   0  3  0  0  0  0
   25.3470   -9.9450   11.6860 C   0  0  0  0  0  0
   23.9600   -9.7690   11.1150 C   0  0  0  0  0  0
   23.5450   -8.6190   10.8300 O   0  0  0  0  0  0
   23.2240  -10.8870   10.9880 N   0  0  0  0  0  0
   21.8070  -10.8050   10.5640 C   0  0  2  0  0  0
   20.9360  -10.2140   11.7180 C   0  0  0  0  0  0
   20.7230  -10.8070   12.7890 O   0  0  0  0  0  0
   21.3010  -12.1480   10.0880 C   0  0  0  0  0  0
   19.8000  -12.2190    9.9500 C   0  0  0  0  0  0
   19.3620  -13.5060    9.2540 C   0  0  0  0  0  0
   18.4690  -14.2540   10.1320 N   0  0  0  0  0  0
   17.1360  -14.1610   10.1600 C   0  0  0  0  0  0
   16.4470  -13.3780    9.3280 N   0  0  0  0  0  0
   16.4890  -14.8870   11.0330 N   0  0  0  0  0  0
   20.4800   -9.0010   11.5370 N   0  0  0  0  0  0
   19.7810   -8.2800   12.5960 C   0  0  2  0  0  0
   18.6330   -7.4390   12.0520 C   0  0  0  0  0  0
   18.5910   -7.0320   10.9110 O   0  0  0  0  0  0
   20.7570   -7.3180   13.3080 C   0  0  0  0  0  0
   22.2620   -7.9670   14.1010 S   0  0  0  0  0  0
   17.7020   -7.1160   12.9380 N   0  0  0  0  0  0
   16.6310   -6.1880   12.6310 C   0  0  2  0  0  0
   17.1720   -4.7810   13.0100 C   0  0  0  0  0  0
   17.8540   -4.5720   14.0370 O   0  0  0  0  0  0
   15.3750   -6.5040   13.4800 C   0  0  2  0  0  0
   15.7050   -6.3960   14.8650 O   0  0  0  0  0  0
   14.8000   -7.8820   13.1840 C   0  0  0  0  0  0
   16.6640   -3.6760   12.2920 N   0  0  0  0  0  0
   16.0810   -3.8150   10.9600 C   0  0  0  0  0  0
   17.2910   -3.8480   10.0190 C   0  0  0  0  0  0
   17.0650   -3.3360    8.6940 C   0  0  0  0  0  0
   18.3400   -3.4950    7.8570 C   0  0  0  0  0  0
   18.0560   -3.0780    6.5110 N   0  3  0  0  0  0
   16.9830   -2.3370   12.7460 C   0  0  0  0  0  0
   16.0320   -1.8120   13.7950 C   0  0  0  0  0  0
   15.4620   -0.7200   13.6420 O   0  0  0  0  0  0
   15.8500   -2.5860   14.9230 N   0  0  0  0  0  0
   15.0780   -2.0540   16.0040 C   0  0  2  0  0  0
   15.9840   -1.4860   17.0780 C   0  0  0  0  0  0
   17.2160   -1.6290   17.0030 O   0  0  0  0  0  0
   14.1810   -3.1700   16.5060 C   0  0  0  0  0  0
   14.9400   -4.3510   16.7250 O   0  0  0  0  0  0
   15.4020   -0.7950   18.0570 N   0  0  0  0  0  0
   16.1920   -0.2690   19.2160 C   0  0  2  0  0  0
   15.7060   -0.9930   20.4280 C   0  0  0  0  0  0
   14.5890   -0.7300   20.8970 O   0  0  0  0  0  0
   16.0860    1.2490   19.3850 C   0  0  2  0  0  0
   16.6520    1.9390   18.1180 C   0  0  0  0  0  0
   16.8010    1.6540   20.6870 C   0  0  0  0  0  0
   16.3840    3.4350   18.0480 C   0  0  0  0  0  0
   16.4900   -1.9720   20.9160 N   0  0  0  0  0  0
   17.7590   -2.5000   20.4390 C   0  0  2  0  0  0
   17.5800   -3.4550   19.2570 C   0  0  0  0  0  0
   16.4690   -4.0710   19.0550 O   0  0  0  0  0  0
   18.3380   -3.2160   21.6630 C   0  0  0  0  0  0
   17.1510   -3.5620   22.4910 C   0  0  0  0  0  0
   16.0440   -2.6170   22.1520 C   0  0  0  0  0  0
   18.6520   -3.6210   18.4660 N   0  0  0  0  0  0
   18.5410   -4.6140   17.4270 C   0  0  2  0  0  0
   18.2630   -6.0380   17.9200 C   0  0  0  0  0  0
   18.7020   -6.4460   19.0350 O   0  0  0  0  0  0
   19.9160   -4.6020   16.7520 C   0  0  0  0  0  0
   20.6290   -3.4050   17.2240 C   0  0  0  0  0  0
   19.9940   -3.0060   18.5250 C   0  0  0  0  0  0
   17.5830   -6.8010   17.0730 N   0  0  0  0  0  0
   17.3930   -8.2260   17.3440 C   0  0  2  0  0  0
   18.2760   -8.9260   16.3430 C   0  0  0  0  0  0
   18.0640   -8.8210   15.1040 O   0  0  0  0  0  0
   15.9460   -8.7100   17.1960 C   0  0  2  0  0  0
   15.0250   -7.9780   18.1780 C   0  0  0  0  0  0
   15.8910  -10.2060   17.4420 C   0  0  0  0  0  0
   13.5250   -8.0120   17.8570 C   0  0  0  0  0  0
   19.2890   -9.6310   16.8350 N   0  0  0  0  0  0
   20.2410  -10.2480   15.9330 C   0  0  2  0  0  0
   20.2920  -11.7480   16.1260 C   0  0  0  0  0  0
   19.8300  -12.2990   17.1440 O   0  0  0  0  0  0
   21.6040   -9.6960   16.1350 C   0  0  0  0  0  0
   21.8540   -7.9560   16.0730 S   0  0  0  0  0  0
   20.8710  -12.4050   15.1380 N   0  0  0  0  0  0
   20.8010  -13.8630   14.9950 C   0  0  2  0  0  0
   22.1540  -14.3930   14.5320 C   0  0  0  0  0  0
   22.6686  -13.9366   13.4763 O   0  0  0  0  0  0
   19.7450  -14.2120   13.9440 C   0  0  0  0  0  0
   18.4100  -13.5710   14.1880 C   0  0  0  0  0  0
   17.4430  -14.2090   14.9470 C   0  0  0  0  0  0
   18.0930  -12.3280   13.6070 C   0  0  0  0  0  0
   16.1930  -13.6160   15.1360 C   0  0  0  0  0  0
   16.8520  -11.7290   13.7810 C   0  0  0  0  0  0
   15.9050  -12.3750   14.5680 C   0  0  0  0  0  0
   22.7517  -15.2792   15.1991 O   0  0  0  0  0  0
   27.1073   -8.8318   12.1267 H   0  0  0  0  0  0
   25.5687   -7.9259   12.3234 H   0  0  0  0  0  0
   26.2014   -8.2753   10.6789 H   0  0  0  0  0  0
   25.8843  -10.6791   11.0676 H   0  0  0  0  0  0
   25.2516  -10.3298   12.7121 H   0  0  0  0  0  0
   23.6787  -11.8658   11.2006 H   0  0  0  0  0  0
   21.7752  -10.1415    9.6872 H   0  0  0  0  0  0
   21.7307  -12.3727    9.1007 H   0  0  0  0  0  0
   21.6003  -12.9274   10.8042 H   0  0  0  0  0  0
   19.3382  -12.1885   10.9479 H   0  0  0  0  0  0
   19.4456  -11.3639    9.3557 H   0  0  0  0  0  0
   18.8352  -13.2572    8.3210 H   0  0  0  0  0  0
   20.2468  -14.1177    9.0236 H   0  0  0  0  0  0
   18.8830  -14.9726   10.8547 H   0  0  0  0  0  0
   16.9772  -12.7610    8.5876 H   0  0  0  0  0  0
   15.3487  -13.3494    9.3824 H   0  0  0  0  0  0
   17.0429  -15.5376   11.7258 H   0  0  0  0  0  0
   20.6346   -8.5254   10.5573 H   0  0  0  0  0  0
   19.3939   -9.0748   13.2505 H   0  0  0  0  0  0
   21.1353   -6.5791   12.5863 H   0  0  0  0  0  0
   20.2311   -6.7987   14.1227 H   0  0  0  0  0  0
   17.7607   -7.5779   13.9346 H   0  0  0  0  0  0
   16.3838   -6.3012   11.5651 H   0  0  0  0  0  0
   14.5866   -5.7601   13.2928 H   0  0  0  0  0  0
   16.1346   -5.4623   15.2568 H   0  0  0  0  0  0
   14.5499   -7.9531   12.1152 H   0  0  0  0  0  0
   13.8913   -8.0368   13.7843 H   0  0  0  0  0  0
   15.5433   -8.6519   13.4387 H   0  0  0  0  0  0
   15.4956   -4.7450   10.9112 H   0  0  0  0  0  0
   15.4237   -2.9569   10.7561 H   0  0  0  0  0  0
   18.1053   -3.2453   10.4476 H   0  0  0  0  0  0
   17.6303   -4.8869    9.8943 H   0  0  0  0  0  0
   16.2445   -3.8947    8.2201 H   0  0  0  0  0  0
   16.7970   -2.2708    8.7533 H   0  0  0  0  0  0
   19.1387   -2.8702    8.2833 H   0  0  0  0  0  0
   18.6550   -4.5489    7.8653 H   0  0  0  0  0  0
   18.9611   -3.1855    5.8952 H   0  0  0  0  0  0
   17.7367   -2.0254    6.5129 H   0  0  0  0  0  0
   17.2529   -3.7041    6.0949 H   0  0  0  0  0  0
   17.9921   -2.3290   13.1839 H   0  0  0  0  0  0
   16.9477   -1.6426   11.8936 H   0  0  0  0  0  0
   16.2848   -3.5934   15.0012 H   0  0  0  0  0  0
   14.4737   -1.2184   15.6210 H   0  0  0  0  0  0
   13.7104   -2.8646   17.4522 H   0  0  0  0  0  0
   13.4009   -3.3776   15.7588 H   0  0  0  0  0  0
   14.4454   -5.2626   17.0915 H   0  0  0  0  0  0
   14.3185   -0.6133   18.0022 H   0  0  0  0  0  0
   17.2587   -0.4759   19.0446 H   0  0  0  0  0  0
   15.0383    1.5685   19.4862 H   0  0  0  0  0  0
   17.7433    1.8055   18.0843 H   0  0  0  0  0  0
   16.1997    1.4886   17.2221 H   0  0  0  0  0  0
   16.3440    1.1248   21.5362 H   0  0  0  0  0  0
   16.7039    2.7395   20.8362 H   0  0  0  0  0  0
   17.8659    1.3870   20.6188 H   0  0  0  0  0  0
   16.8173    3.8422   17.1226 H   0  0  0  0  0  0
   16.8423    3.9306   18.9165 H   0  0  0  0  0  0
   15.2986    3.6137   18.0543 H   0  0  0  0  0  0
   18.3851   -1.6765   20.0651 H   0  0  0  0  0  0
   18.8861   -4.1127   21.3380 H   0  0  0  0  0  0
   19.0240   -2.5391   22.1933 H   0  0  0  0  0  0
   16.8417   -4.5953   22.2748 H   0  0  0  0  0  0
   17.4083   -3.4717   23.5567 H   0  0  0  0  0  0
   15.8983   -1.8546   22.9315 H   0  0  0  0  0  0
   15.0943   -3.1414   21.9699 H   0  0  0  0  0  0
   17.6777   -4.3146   16.8146 H   0  0  0  0  0  0
   20.4680   -5.5125   17.0283 H   0  0  0  0  0  0
   19.7881   -4.5679   15.6600 H   0  0  0  0  0  0
   21.6932   -3.6444   17.3663 H   0  0  0  0  0  0
   20.5303   -2.6018   16.4789 H   0  0  0  0  0  0
   19.8934   -1.9149   18.6213 H   0  0  0  0  0  0
   20.5409   -3.4019   19.3934 H   0  0  0  0  0  0
   17.1608   -6.3535   16.1612 H   0  0  0  0  0  0
   17.6695   -8.4041   18.3937 H   0  0  0  0  0  0
   15.5962   -8.5020   16.1740 H   0  0  0  0  0  0
   15.1302   -8.4212   19.1792 H   0  0  0  0  0  0
   15.3020   -6.9142   18.2170 H   0  0  0  0  0  0
   16.5557  -10.7191   16.7314 H   0  0  0  0  0  0
   14.8598  -10.5628   17.3027 H   0  0  0  0  0  0
   16.2176  -10.4207   18.4702 H   0  0  0  0  0  0
   12.9722   -7.4562   18.6287 H   0  0  0  0  0  0
   13.1778   -9.0556   17.8372 H   0  0  0  0  0  0
   13.3496   -7.5485   16.8749 H   0  0  0  0  0  0
   19.4067   -9.7473   17.9225 H   0  0  0  0  0  0
   19.8821   -9.9909   14.9255 H   0  0  0  0  0  0
   21.9736   -9.9866   17.1294 H   0  0  0  0  0  0
   22.2788  -10.0934   15.3625 H   0  0  0  0  0  0
   21.4259  -11.8061   14.4009 H   0  0  0  0  0  0
   20.5376  -14.2785   15.9789 H   0  0  0  0  0  0
   20.0897  -13.8799   12.9536 H   0  0  0  0  0  0
   19.5863  -15.3004   13.9310 H   0  0  0  0  0  0
   17.6585  -15.1775   15.3984 H   0  0  0  0  0  0
   18.8445  -11.8204   13.0023 H   0  0  0  0  0  0
   15.4366  -14.1267   15.7319 H   0  0  0  0  0  0
   16.6251  -10.7724   13.3104 H   0  0  0  0  0  0
   14.9345  -11.9101   14.7416 H   0  0  0  0  0  0
   23.7274  -15.6579   14.8606 H   0  0  0  0  0  0
  1  2  1  0  0  0
  1 92  1  0  0  0
  1 93  1  0  0  0
  1 94  1  0  0  0
  2  3  1  0  0  0
  2 95  1  0  0  0
  2 96  1  0  0  0
  3  4  2  0  0  0
  3  5  1  0  0  0
  5  6  1  0  0  0
  5 97  1  0  0  0
  6  7  1  0  0  0
  6  9  1  0  0  0
  6 98  1  0  0  0
  7  8  2  0  0  0
  7 16  1  0  0  0
  9 10  1  0  0  0
  9 99  1  0  0  0
  9100  1  0  0  0
 10 11  1  0  0  0
 10101  1  0  0  0
 10102  1  0  0  0
 11 12  1  0  0  0
 11103  1  0  0  0
 11104  1  0  0  0
 12 13  1  0  0  0
 12105  1  0  0  0
 13 14  1  0  0  0
 13 15  2  0  0  0
 14106  1  0  0  0
 14107  1  0  0  0
 15108  1  0  0  0
 16 17  1  0  0  0
 16109  1  0  0  0
 17 18  1  0  0  0
 17 20  1  0  0  0
 17110  1  0  0  0
 18 19  2  0  0  0
 18 22  1  0  0  0
 20 21  1  0  0  0
 20111  1  0  0  0
 20112  1  0  0  0
 21 79  1  0  0  0
 22 23  1  0  0  0
 22113  1  0  0  0
 23 24  1  0  0  0
 23 26  1  0  0  0
 23114  1  0  0  0
 24 25  2  0  0  0
 24 29  1  0  0  0
 26 27  1  0  0  0
 26 28  1  0  0  0
 26115  1  0  0  0
 27116  1  0  0  0
 28117  1  0  0  0
 28118  1  0  0  0
 28119  1  0  0  0
 29 30  1  0  0  0
 29 35  1  0  0  0
 30 31  1  0  0  0
 30120  1  0  0  0
 30121  1  0  0  0
 31 32  1  0  0  0
 31122  1  0  0  0
 31123  1  0  0  0
 32 33  1  0  0  0
 32124  1  0  0  0
 32125  1  0  0  0
 33 34  1  0  0  0
 33126  1  0  0  0
 33127  1  0  0  0
 34128  1  0  0  0
 34129  1  0  0  0
 34130  1  0  0  0
 35 36  1  0  0  0
 35131  1  0  0  0
 35132  1  0  0  0
 36 37  2  0  0  0
 36 38  1  0  0  0
 38 39  1  0  0  0
 38133  1  0  0  0
 39 40  1  0  0  0
 39 42  1  0  0  0
 39134  1  0  0  0
 40 41  2  0  0  0
 40 44  1  0  0  0
 42 43  1  0  0  0
 42135  1  0  0  0
 42136  1  0  0  0
 43137  1  0  0  0
 44 45  1  0  0  0
 44138  1  0  0  0
 45 46  1  0  0  0
 45 48  1  0  0  0
 45139  1  0  0  0
 46 47  2  0  0  0
 46 52  1  0  0  0
 48 49  1  0  0  0
 48 50  1  0  0  0
 48140  1  0  0  0
 49 51  1  0  0  0
 49141  1  0  0  0
 49142  1  0  0  0
 50143  1  0  0  0
 50144  1  0  0  0
 50145  1  0  0  0
 51146  1  0  0  0
 51147  1  0  0  0
 51148  1  0  0  0
 52 53  1  0  0  0
 52 58  1  0  0  0
 53 54  1  0  0  0
 53 56  1  0  0  0
 53149  1  0  0  0
 54 55  2  0  0  0
 54 59  1  0  0  0
 56 57  1  0  0  0
 56150  1  0  0  0
 56151  1  0  0  0
 57 58  1  0  0  0
 57152  1  0  0  0
 57153  1  0  0  0
 58154  1  0  0  0
 58155  1  0  0  0
 59 60  1  0  0  0
 59 65  1  0  0  0
 60 61  1  0  0  0
 60 63  1  0  0  0
 60156  1  0  0  0
 61 62  2  0  0  0
 61 66  1  0  0  0
 63 64  1  0  0  0
 63157  1  0  0  0
 63158  1  0  0  0
 64 65  1  0  0  0
 64159  1  0  0  0
 64160  1  0  0  0
 65161  1  0  0  0
 65162  1  0  0  0
 66 67  1  0  0  0
 66163  1  0  0  0
 67 68  1  0  0  0
 67 70  1  0  0  0
 67164  1  0  0  0
 68 69  2  0  0  0
 68 74  1  0  0  0
 70 71  1  0  0  0
 70 72  1  0  0  0
 70165  1  0  0  0
 71 73  1  0  0  0
 71166  1  0  0  0
 71167  1  0  0  0
 72168  1  0  0  0
 72169  1  0  0  0
 72170  1  0  0  0
 73171  1  0  0  0
 73172  1  0  0  0
 73173  1  0  0  0
 74 75  1  0  0  0
 74174  1  0  0  0
 75 76  1  0  0  0
 75 78  1  0  0  0
 75175  1  0  0  0
 76 77  2  0  0  0
 76 80  1  0  0  0
 78 79  1  0  0  0
 78176  1  0  0  0
 78177  1  0  0  0
 80 81  1  0  0  0
 80178  1  0  0  0
 81 82  1  0  0  0
 81 84  1  0  0  0
 81179  1  0  0  0
 82 83  2  0  0  0
 82 91  1  0  0  0
 84 85  1  0  0  0
 84180  1  0  0  0
 84181  1  0  0  0
 85 86  2  0  0  0
 85 87  1  0  0  0
 86 88  1  0  0  0
 86182  1  0  0  0
 87 89  2  0  0  0
 87183  1  0  0  0
 88 90  2  0  0  0
 88184  1  0  0  0
 89 90  1  0  0  0
 89185  1  0  0  0
 90186  1  0  0  0
 91187  1  0  0  0
M  CHG  2   1   1  34   1
M  END
> <s_m_source_file>
../4hgc_ligand.sdf

> <i_m_source_file_index>
1

> <s_epik_input>
W0NIM11bQ0gyXVtDQEhdKFtDSDNdKVtDQEBIXShDMT1PKVtOSF1DKD1PKVtDQEhdKFtDSDJdW09IXSlbTkhdQyg9TylbQ0gyXU4oW0NIMl1bQ0gyXVtDSDJdW0NIMl1bTkgzK10pQyg9TylbQ0BIXShbQ0BIXShbT0hdKVtDSDNdKVtOSF1DKD1PKVtDQEBIXShbTkhdQyg9TylbQ0BASF0oW05IXUMoPU8pW0NIMl1bTkgzK10pW0NIMl1bQ0gyXVtDSDJdW05IXS9DKFtOSDJdKT1OXFtIXSlbQ0gyXVNTW0NIMl1bQ0BASF0oQyg9TylbTkhdW0NASF0oQyg9TylbT0hdKVtDSDJdYzJbY0hdW2NIXVtjSF1bY0hdW2NIXTIpW05IXUMoPU8pW0NASF0oW0NAQEhdKFtDSDNdKVtDSDJdW0NIM10pW05IXUMoPU8pW0NASF0oW0NIMl1bQ0gyXVtDSDJdMylOM0MoPU8pW0NAQEhdKE4xNClbQ0gyXVtDSDJdW0NIMl00

> <s_epik_cmdline>
J2VwaWtfYXBwJywgJy1pbWFlJywgJ2xpZ2FuZF9wcm8ubWFlJywgJy1vbWFlJywgJ2xpZ2FuZF9wcmVwLm1hZScsICctbXMnLCAnMScsICctcGgnLCAnNycsICctcGh0JywgJzAuNScsICctbnQn

> <s_epik_pKa_notes>
Molecule size exceeds maximum supported for generating protonation states

> <s_epik_Chemistry_Notes>
This compound has an imine and may undergo hydrolysis.

$$$$
