4hgs_ligand
                    3D
 Schrodinger Suite 2020-3.
 44 47  0  0  1  0            999 V2000
   34.1660  -21.0210   28.1160 C   0  0  0  0  0  0
   35.4500  -20.9500   27.4130 C   0  0  0  0  0  0
   36.1820  -19.6970   27.5760 C   0  0  0  0  0  0
   37.6410  -10.3210   27.9430 C   0  0  0  0  0  0
   38.3890  -12.2310   24.7490 C   0  0  0  0  0  0
   38.5870  -12.5050   23.3940 C   0  0  0  0  0  0
   39.1700  -11.6900   22.4480 C   0  0  0  0  0  0
   38.3700  -13.2660   20.7700 C   0  0  0  0  0  0
   38.1230  -14.3950   21.7660 C   0  0  0  0  0  0
   38.0790  -13.7710   23.1420 C   0  0  3  0  0  0
   37.7630  -13.3850   25.2070 C   0  0  0  0  0  0
   37.3400  -13.6150   26.6320 C   0  0  0  0  0  0
   36.6440  -14.8680   26.9530 C   0  0  0  0  0  0
   36.2970  -15.0460   28.3180 C   0  0  0  0  0  0
   35.5510  -16.2660   28.6430 C   0  0  0  0  0  0
   39.6840  -10.6100   22.7060 O   0  0  0  0  0  0
   39.1570  -12.1270   21.2490 N   0  0  0  0  0  0
   37.5720  -14.3120   24.2540 N   0  0  0  0  0  0
   37.6100  -12.6880   27.7260 C   0  0  0  0  0  0
   37.2010  -13.0030   29.1040 C   0  0  0  0  0  0
   36.5670  -14.1620   29.3620 N   0  0  0  0  0  0
   38.2750  -11.4370   27.6040 O   0  0  0  0  0  0
   36.3100  -17.4170   28.5540 O   0  0  0  0  0  0
   35.6000  -18.6190   28.4090 C   0  0  0  0  0  0
   34.3130  -18.7310   29.1000 C   0  0  0  0  0  0
   33.6150  -19.9420   28.9340 C   0  0  0  0  0  0
   33.4620  -22.1380   28.0060 F   0  0  0  0  0  0
   32.4690  -20.1030   29.4970 F   0  0  0  0  0  0
   35.8317  -21.7745   26.8108 H   0  0  0  0  0  0
   37.1472  -19.5562   27.0895 H   0  0  0  0  0  0
   38.3055   -9.4590   27.7837 H   0  0  0  0  0  0
   37.3527  -10.3707   29.0034 H   0  0  0  0  0  0
   36.7395  -10.2086   27.3228 H   0  0  0  0  0  0
   38.7202  -11.2702   25.1700 H   0  0  0  0  0  0
   38.9131  -13.6588   19.8978 H   0  0  0  0  0  0
   37.4065  -12.8474   20.4439 H   0  0  0  0  0  0
   37.1675  -14.8875   21.5325 H   0  0  0  0  0  0
   38.9398  -15.1287   21.6985 H   0  0  0  0  0  0
   36.4092  -15.6128   26.1926 H   0  0  0  0  0  0
   35.1722  -16.2006   29.6737 H   0  0  0  0  0  0
   34.7055  -16.3749   27.9479 H   0  0  0  0  0  0
   39.8039  -11.5736   20.5524 H   0  0  0  0  0  0
   37.4103  -12.3015   29.9115 H   0  0  0  0  0  0
   33.9169  -17.9194   29.7104 H   0  0  0  0  0  0
  1  2  2  0  0  0
  1 26  1  0  0  0
  1 27  1  0  0  0
  2  3  1  0  0  0
  2 29  1  0  0  0
  3 24  2  0  0  0
  3 30  1  0  0  0
  4 22  1  0  0  0
  4 31  1  0  0  0
  4 32  1  0  0  0
  4 33  1  0  0  0
  5  6  2  0  0  0
  5 11  1  0  0  0
  5 34  1  0  0  0
  6  7  1  0  0  0
  6 10  1  0  0  0
  7 16  2  0  0  0
  7 17  1  0  0  0
  8  9  1  0  0  0
  8 17  1  0  0  0
  8 35  1  0  0  0
  8 36  1  0  0  0
  9 10  1  0  0  0
  9 37  1  0  0  0
  9 38  1  0  0  0
 10 18  1  0  0  0
 11 12  1  0  0  0
 11 18  2  0  0  0
 12 13  2  0  0  0
 12 19  1  0  0  0
 13 14  1  0  0  0
 13 39  1  0  0  0
 14 15  1  0  0  0
 14 21  2  0  0  0
 15 23  1  0  0  0
 15 40  1  0  0  0
 15 41  1  0  0  0
 17 42  1  0  0  0
 19 20  2  0  0  0
 19 22  1  0  0  0
 20 21  1  0  0  0
 20 43  1  0  0  0
 23 24  1  0  0  0
 24 25  1  0  0  0
 25 26  2  0  0  0
 25 44  1  0  0  0
 26 28  1  0  0  0
M  END
> <s_m_source_file>
../4hgs_ligand.sdf

> <i_m_source_file_index>
1

> <s_epik_input>
RmMxW2NIXVtjSF1jKFtjSF1jMUYpT1tDSDJdYyhuW2NIXWMyT1tDSDNdKVtjSF1jMkMoW0NIXT0zKT1OW0NIXShDMzQpW0NIMl1bQ0gyXVtOSF1DND1P

> <s_epik_cmdline>
J2VwaWtfYXBwJywgJy1pbWFlJywgJ2xpZ2FuZF9wcm8ubWFlJywgJy1vbWFlJywgJ2xpZ2FuZF9wcmVwLm1hZScsICctbXMnLCAnMScsICctcGgnLCAnNycsICctcGh0JywgJzAuNScsICctbnQn

> <r_lp_tautomer_probability>
1

> <r_epik_Ionization_Penalty>
  0.0008

> <r_epik_Ionization_Penalty_Charging>
  0.0000

> <r_epik_Ionization_Penalty_Neutral>
  0.0008

> <r_epik_State_Penalty>
 -0.0000

> <r_epik_Charging_Adjusted_Penalty>
0

> <i_epik_Tot_Q>
0

> <i_epik_Tot_abs_Q>
0

> <s_epik_Chemistry_Notes>
This compound has an imine and may undergo hydrolysis.

$$$$
