4hgt_ligand
                    3D
 Schrodinger Suite 2020-3.
 44 47  0  0  1  0            999 V2000
   -0.9820    8.1040   12.8520 C   0  0  0  0  0  0
   -0.7780    6.8250   12.2190 C   0  0  0  0  0  0
   -0.2370    5.8090   13.0790 C   0  0  0  0  0  0
    4.1620   -0.3890   18.6340 C   0  0  0  0  0  0
    4.4810    3.5220   20.3760 C   0  0  0  0  0  0
    4.4740    4.4930   21.3860 C   0  0  0  0  0  0
    5.2770    4.5580   22.5200 C   0  0  0  0  0  0
    3.6680    6.2930   23.3900 C   0  0  0  0  0  0
    3.1720    6.6180   21.9760 C   0  0  0  0  0  0
    3.4990    5.4470   21.0870 C   0  0  3  0  0  0
    3.4670    3.9620   19.4830 C   0  0  0  0  0  0
    3.0220    3.2370   18.2230 C   0  0  0  0  0  0
    2.2450    4.0070   17.2670 C   0  0  0  0  0  0
    1.8020    3.2910   16.0940 C   0  0  0  0  0  0
    0.9770    3.9590   15.0410 C   0  0  0  0  0  0
    6.2290    3.7960   22.6910 O   0  0  0  0  0  0
    4.9390    5.5250   23.3950 N   0  0  0  0  0  0
    2.8810    5.1360   19.9220 N   0  0  0  0  0  0
    3.2810    1.8240   17.8960 C   0  0  0  0  0  0
    2.7880    1.2040   16.6740 C   0  0  0  0  0  0
    2.0630    1.9850   15.8310 N   0  0  0  0  0  0
    4.0220    1.0410   18.7930 O   0  0  0  0  0  0
    0.6120    5.2680   15.4450 O   0  0  0  0  0  0
    0.0650    6.1110   14.4730 C   0  0  0  0  0  0
   -0.1470    7.3810   15.0680 C   0  0  0  0  0  0
   -0.6760    8.3670   14.2250 C   0  0  0  0  0  0
   -1.4920    9.1720   12.1990 F   0  0  0  0  0  0
   -0.8840    9.5770   14.7340 F   0  0  0  0  0  0
   -1.0154    6.6431   11.1708 H   0  0  0  0  0  0
   -0.0517    4.8087   12.6877 H   0  0  0  0  0  0
    4.7819   -0.7896   19.4496 H   0  0  0  0  0  0
    4.6422   -0.6053   17.6683 H   0  0  0  0  0  0
    3.1684   -0.8602   18.6632 H   0  0  0  0  0  0
    5.1842    2.6778   20.4295 H   0  0  0  0  0  0
    3.8401    7.2286   23.9423 H   0  0  0  0  0  0
    2.9113    5.6913   23.9148 H   0  0  0  0  0  0
    2.0851    6.7860   21.9983 H   0  0  0  0  0  0
    3.6757    7.5248   21.6101 H   0  0  0  0  0  0
    2.0110    5.0597   17.4254 H   0  0  0  0  0  0
    1.5559    4.0236   14.1079 H   0  0  0  0  0  0
    0.0625    3.3735   14.8653 H   0  0  0  0  0  0
    5.7016    5.7285   24.1612 H   0  0  0  0  0  0
    2.9919    0.1579   16.4453 H   0  0  0  0  0  0
    0.0868    7.5773   16.1144 H   0  0  0  0  0  0
  1  2  2  0  0  0
  1 26  1  0  0  0
  1 27  1  0  0  0
  2  3  1  0  0  0
  2 29  1  0  0  0
  3 24  2  0  0  0
  3 30  1  0  0  0
  4 22  1  0  0  0
  4 31  1  0  0  0
  4 32  1  0  0  0
  4 33  1  0  0  0
  5  6  2  0  0  0
  5 11  1  0  0  0
  5 34  1  0  0  0
  6  7  1  0  0  0
  6 10  1  0  0  0
  7 16  2  0  0  0
  7 17  1  0  0  0
  8  9  1  0  0  0
  8 17  1  0  0  0
  8 35  1  0  0  0
  8 36  1  0  0  0
  9 10  1  0  0  0
  9 37  1  0  0  0
  9 38  1  0  0  0
 10 18  1  0  0  0
 11 12  1  0  0  0
 11 18  2  0  0  0
 12 13  2  0  0  0
 12 19  1  0  0  0
 13 14  1  0  0  0
 13 39  1  0  0  0
 14 15  1  0  0  0
 14 21  2  0  0  0
 15 23  1  0  0  0
 15 40  1  0  0  0
 15 41  1  0  0  0
 17 42  1  0  0  0
 19 20  2  0  0  0
 19 22  1  0  0  0
 20 21  1  0  0  0
 20 43  1  0  0  0
 23 24  1  0  0  0
 24 25  1  0  0  0
 25 26  2  0  0  0
 25 44  1  0  0  0
 26 28  1  0  0  0
M  END
> <s_m_source_file>
../4hgt_ligand.sdf

> <i_m_source_file_index>
1

> <s_epik_input>
RmMxW2NIXVtjSF1jKFtjSF1jMUYpT1tDSDJdYyhuW2NIXWMyT1tDSDNdKVtjSF1jMkMoW0NIXT0zKT1OW0NIXShDMzQpW0NIMl1bQ0gyXVtOSF1DND1P

> <s_epik_cmdline>
J2VwaWtfYXBwJywgJy1pbWFlJywgJ2xpZ2FuZF9wcm8ubWFlJywgJy1vbWFlJywgJ2xpZ2FuZF9wcmVwLm1hZScsICctbXMnLCAnMScsICctcGgnLCAnNycsICctcGh0JywgJzAuNScsICctbnQn

> <r_lp_tautomer_probability>
1

> <r_epik_Ionization_Penalty>
  0.0008

> <r_epik_Ionization_Penalty_Charging>
  0.0000

> <r_epik_Ionization_Penalty_Neutral>
  0.0008

> <r_epik_State_Penalty>
 -0.0000

> <r_epik_Charging_Adjusted_Penalty>
0

> <i_epik_Tot_Q>
0

> <i_epik_Tot_abs_Q>
0

> <s_epik_Chemistry_Notes>
This compound has an imine and may undergo hydrolysis.

$$$$
