4hhz_ligand
                    3D
 Schrodinger Suite 2020-3.
 68 72  0  0  1  0            999 V2000
  -34.9940   53.5700  -63.3930 O   0  0  0  0  0  0
  -35.4420   53.4960  -64.6590 C   0  0  1  0  0  0
  -35.5980   52.0180  -65.0170 N   0  0  1  0  0  0
  -36.2780   51.8500  -66.2980 C   0  0  0  0  0  0
  -37.6960   52.4870  -66.2440 C   0  0  1  0  0  0
  -37.7110   53.9110  -65.7010 C   0  0  0  0  0  0
  -36.6490   54.3570  -64.9250 C   0  0  0  0  0  0
  -36.6970   55.7420  -64.4020 C   0  0  0  0  0  0
  -37.7860   56.5620  -64.6590 C   0  0  0  0  0  0
  -38.8680   56.0880  -65.4270 C   0  0  0  0  0  0
  -38.8050   54.7110  -65.9500 C   0  0  0  0  0  0
  -39.9360   54.2050  -66.7560 C   0  0  0  0  0  0
  -39.5170   53.3210  -67.8590 C   0  0  0  0  0  0
  -38.5820   52.2510  -67.4910 N   0  0  2  0  0  0
  -39.0830   50.9360  -67.7440 C   0  0  0  0  0  0
  -38.8220   50.3780  -69.1310 C   0  0  0  0  0  0
  -38.8270   49.1730  -69.3270 O   0  0  0  0  0  0
  -38.5750   51.3370  -70.1850 N   0  0  0  0  0  0
  -38.3670   50.9460  -71.5320 C   0  0  1  0  0  0
  -39.0370   51.9220  -72.3390 C   0  0  0  0  0  0
  -36.8840   51.0110  -71.9150 C   0  0  0  0  0  0
  -36.4010   52.0790  -71.9620 O   0  0  0  0  0  0
  -36.1160   49.8080  -72.2550 N   0  0  0  0  0  0
  -34.6900   49.9260  -72.6350 C   0  0  0  0  0  0
  -34.2450   48.9980  -73.7070 C   0  0  0  0  0  0
  -36.6540   48.4790  -72.2260 C   0  0  0  0  0  0
  -36.1850   47.6100  -73.3550 C   0  0  0  0  0  0
  -35.4110   48.3980  -74.3680 C   0  0  0  0  0  0
  -35.0380   47.6390  -75.6660 C   0  0  0  0  0  0
  -33.8140   47.8800  -76.3360 C   0  0  0  0  0  0
  -33.5050   47.2120  -77.5040 C   0  0  0  0  0  0
  -34.4040   46.2870  -78.0230 C   0  0  0  0  0  0
  -34.1300   45.6540  -79.1210 F   0  0  0  0  0  0
  -35.6020   46.0570  -77.3820 C   0  0  0  0  0  0
  -35.9160   46.7500  -76.1900 C   0  0  0  0  0  0
  -34.1164   52.9827  -63.0849 H   0  0  0  0  0  0
  -34.6321   53.9767  -65.2273 H   0  0  0  0  0  0
  -34.6047   51.5503  -65.0848 H   0  0  0  0  0  0
  -35.6938   52.3408  -67.0904 H   0  0  0  0  0  0
  -36.3744   50.7778  -66.5242 H   0  0  0  0  0  0
  -38.2274   51.9207  -65.4649 H   0  0  0  0  0  0
  -35.8660   56.1217  -63.8076 H   0  0  0  0  0  0
  -37.8047   57.5781  -64.2648 H   0  0  0  0  0  0
  -39.7301   56.7235  -65.6294 H   0  0  0  0  0  0
  -40.6173   53.6301  -66.1115 H   0  0  0  0  0  0
  -40.4788   55.0529  -67.1992 H   0  0  0  0  0  0
  -40.4008   52.8265  -68.2885 H   0  0  0  0  0  0
  -39.0162   53.9167  -68.6364 H   0  0  0  0  0  0
  -38.6242   50.2270  -67.0392 H   0  0  0  0  0  0
  -40.1752   50.9282  -67.6131 H   0  0  0  0  0  0
  -38.5516   52.4022  -69.9116 H   0  0  0  0  0  0
  -38.7929   49.9378  -71.6425 H   0  0  0  0  0  0
  -40.1114   51.9176  -72.1032 H   0  0  0  0  0  0
  -38.8940   51.6792  -73.4023 H   0  0  0  0  0  0
  -38.6200   52.9184  -72.1311 H   0  0  0  0  0  0
  -34.4905   50.9449  -72.9985 H   0  0  0  0  0  0
  -34.0586   49.7193  -71.7583 H   0  0  0  0  0  0
  -33.6536   49.5529  -74.4501 H   0  0  0  0  0  0
  -33.6274   48.2003  -73.2684 H   0  0  0  0  0  0
  -36.3583   47.9841  -71.2892 H   0  0  0  0  0  0
  -37.7514   48.5263  -72.2852 H   0  0  0  0  0  0
  -35.5346   46.8155  -72.9604 H   0  0  0  0  0  0
  -37.0541   47.1578  -73.8551 H   0  0  0  0  0  0
  -36.0714   49.2156  -74.6926 H   0  0  0  0  0  0
  -33.1077   48.6012  -75.9248 H   0  0  0  0  0  0
  -32.5628   47.4084  -78.0157 H   0  0  0  0  0  0
  -36.3099   45.3385  -77.7952 H   0  0  0  0  0  0
  -36.8678   46.5683  -75.6909 H   0  0  0  0  0  0
  1  2  1  0  0  0
  1 36  1  0  0  0
  2  3  1  0  0  0
  2  7  1  0  0  0
  2 37  1  0  0  0
  3  4  1  0  0  0
  3 38  1  0  0  0
  4  5  1  0  0  0
  4 39  1  0  0  0
  4 40  1  0  0  0
  5  6  1  0  0  0
  5 14  1  0  0  0
  5 41  1  0  0  0
  6  7  2  0  0  0
  6 11  1  0  0  0
  7  8  1  0  0  0
  8  9  2  0  0  0
  8 42  1  0  0  0
  9 10  1  0  0  0
  9 43  1  0  0  0
 10 11  2  0  0  0
 10 44  1  0  0  0
 11 12  1  0  0  0
 12 13  1  0  0  0
 12 45  1  0  0  0
 12 46  1  0  0  0
 13 14  1  0  0  0
 13 47  1  0  0  0
 13 48  1  0  0  0
 14 15  1  0  0  0
 15 16  1  0  0  0
 15 49  1  0  0  0
 15 50  1  0  0  0
 16 17  2  0  0  0
 16 18  1  0  0  0
 18 19  1  0  0  0
 18 51  1  0  0  0
 19 20  1  0  0  0
 19 21  1  0  0  0
 19 52  1  0  0  0
 20 53  1  0  0  0
 20 54  1  0  0  0
 20 55  1  0  0  0
 21 22  2  0  0  0
 21 23  1  0  0  0
 23 24  1  0  0  0
 23 26  1  0  0  0
 24 25  1  0  0  0
 24 56  1  0  0  0
 24 57  1  0  0  0
 25 28  1  0  0  0
 25 58  1  0  0  0
 25 59  1  0  0  0
 26 27  1  0  0  0
 26 60  1  0  0  0
 26 61  1  0  0  0
 27 28  1  0  0  0
 27 62  1  0  0  0
 27 63  1  0  0  0
 28 29  1  0  0  0
 28 64  1  0  0  0
 29 30  2  0  0  0
 29 35  1  0  0  0
 30 31  1  0  0  0
 30 65  1  0  0  0
 31 32  2  0  0  0
 31 66  1  0  0  0
 32 33  1  0  0  0
 32 34  1  0  0  0
 34 35  2  0  0  0
 34 67  1  0  0  0
 35 68  1  0  0  0
M  END
> <s_m_source_file>
../4hhz_ligand.sdf

> <i_m_source_file_index>
1

> <s_epik_input>
W0NIMl0xW05IMitdW0NASF0oW09IXSljKGMyW0NASF0xMylbY0hdW2NIXVtjSF1jMltDSDJdW0NIMl1bTkBASCtdM1tDSDJdQyg9TylbTkhdW0NAQEhdKFtDSDNdKUMoPU8pTjRbQ0gyXVtDSDJdW0NIXShbQ0gyXVtDSDJdNCljNVtjSF1bY0hdYyhGKVtjSF1bY0hdNQ==

> <s_epik_cmdline>
J2VwaWtfYXBwJywgJy1pbWFlJywgJ2xpZ2FuZF9wcm8ubWFlJywgJy1vbWFlJywgJ2xpZ2FuZF9wcmVwLm1hZScsICctbXMnLCAnMScsICctcGgnLCAnNycsICctcGh0JywgJzAuNScsICctbnQn

> <r_lp_tautomer_probability>
1

> <r_epik_Ionization_Penalty>
  0.3249

> <r_epik_Ionization_Penalty_Charging>
  0.0000

> <r_epik_Ionization_Penalty_Neutral>
  0.3249

> <r_epik_State_Penalty>
 -0.0000

> <r_epik_Charging_Adjusted_Penalty>
0

> <i_epik_Tot_Q>
0

> <i_epik_Tot_abs_Q>
0

> <s_epik_Chemistry_Notes>
This compound contains an acetal/aminal-like group ( X-CH(R)-Y where X, Y are N, S, or O) that may be acid/base labile, releasing an aldehyde.

$$$$
