4hiq_ligand
                    3D
 Schrodinger Suite 2020-3.
 37 38  0  0  1  0            999 V2000
   -0.5890    0.0640   -0.4960 O   0  5  0  0  0  0
    0.5680   -0.3980   -0.3480 C   0  0  0  0  0  0
    1.0590   -0.4220    0.8060 O   0  0  0  0  0  0
    1.2980   -0.8480   -1.4620 C   0  0  0  0  0  0
    0.7420   -0.6870   -2.7280 C   0  0  0  0  0  0
    2.5640   -1.4490   -1.3600 C   0  0  0  0  0  0
    3.2410   -1.9000   -2.4930 C   0  0  0  0  0  0
    2.6430   -1.7580   -3.7450 C   0  0  0  0  0  0
    3.3390   -2.1880   -4.8290 F   0  0  0  0  0  0
    1.3930   -1.1400   -3.8690 C   0  0  0  0  0  0
    0.8870   -1.0260   -5.1350 O   0  0  0  0  0  0
    0.2230    0.2290   -5.2970 C   0  0  0  0  0  0
    0.2220    0.7450   -6.7170 C   0  0  0  0  0  0
   -0.5960   -0.1460   -7.6320 C   0  0  0  0  0  0
   -0.3070   -0.0440   -9.2050 C   0  0  0  0  0  0
    0.0010   -1.1180   -9.9840 C   0  0  0  0  0  0
    0.1130   -2.6000   -9.5620 C   0  0  0  0  0  0
    0.1870   -0.7170  -11.2410 N   0  0  0  0  0  0
    0.0090    0.6190  -11.2790 N   0  3  0  0  0  0
   -0.2960    1.0370  -10.0450 C   0  0  0  0  0  0
   -0.5750    2.5170   -9.7330 C   0  0  0  0  0  0
   -0.2255   -0.1947   -2.8265 H   0  0  0  0  0  0
    3.0248   -1.5647   -0.3790 H   0  0  0  0  0  0
    4.2258   -2.3580   -2.4010 H   0  0  0  0  0  0
   -0.8277    0.1306   -4.9867 H   0  0  0  0  0  0
    0.7191    0.9892   -4.6758 H   0  0  0  0  0  0
   -0.2097    1.7565   -6.7392 H   0  0  0  0  0  0
    1.2542    0.7785   -7.0957 H   0  0  0  0  0  0
   -0.4216   -1.1999   -7.3694 H   0  0  0  0  0  0
   -1.6641    0.0893   -7.5141 H   0  0  0  0  0  0
   -0.0797   -2.6895   -8.4827 H   0  0  0  0  0  0
    1.1246   -2.9695   -9.7857 H   0  0  0  0  0  0
   -0.6262   -3.1962  -10.1171 H   0  0  0  0  0  0
   -0.8028    2.6295   -8.6627 H   0  0  0  0  0  0
   -1.4330    2.8619  -10.3287 H   0  0  0  0  0  0
    0.3113    3.1181   -9.9844 H   0  0  0  0  0  0
    0.1235    1.1623  -12.2286 H   0  0  0  0  0  0
  1  2  1  0  0  0
  2  3  2  0  0  0
  2  4  1  0  0  0
  4  5  2  0  0  0
  4  6  1  0  0  0
  5 10  1  0  0  0
  5 22  1  0  0  0
  6  7  2  0  0  0
  6 23  1  0  0  0
  7  8  1  0  0  0
  7 24  1  0  0  0
  8  9  1  0  0  0
  8 10  2  0  0  0
 10 11  1  0  0  0
 11 12  1  0  0  0
 12 13  1  0  0  0
 12 25  1  0  0  0
 12 26  1  0  0  0
 13 14  1  0  0  0
 13 27  1  0  0  0
 13 28  1  0  0  0
 14 15  1  0  0  0
 14 29  1  0  0  0
 14 30  1  0  0  0
 15 16  2  0  0  0
 15 20  1  0  0  0
 16 17  1  0  0  0
 16 18  1  0  0  0
 17 31  1  0  0  0
 17 32  1  0  0  0
 17 33  1  0  0  0
 18 19  1  0  0  0
 19 20  2  0  0  0
 19 37  1  0  0  0
 20 21  1  0  0  0
 21 34  1  0  0  0
 21 35  1  0  0  0
 21 36  1  0  0  0
M  CHG  2   1  -1  19   1
M  END
> <s_m_source_file>
../4hiq_ligand.sdf

> <i_m_source_file_index>
1

> <s_epik_input>
W09IXUMoPU8pYzFbY0hdYyhjKEYpW2NIXVtjSF0xKU9bQ0gyXVtDSDJdW0NIMl1jMmMoW0NIM10pW25IXW5jMltDSDNd

> <s_epik_cmdline>
J2VwaWtfYXBwJywgJy1pbWFlJywgJ2xpZ2FuZF9wcm8ubWFlJywgJy1vbWFlJywgJ2xpZ2FuZF9wcmVwLm1hZScsICctbXMnLCAnMScsICctcGgnLCAnNycsICctcGh0JywgJzAuNScsICctbnQn

> <r_epik_Ionization_Penalty>
  0.0006

> <r_epik_Ionization_Penalty_Charging>
  0.0006

> <r_epik_Ionization_Penalty_Neutral>
  0.0000

> <r_epik_State_Penalty>
  0.4099

> <r_epik_Charging_Adjusted_Penalty>
0.410487578318777

> <i_epik_Tot_Q>
0

> <i_epik_Tot_abs_Q>
2

$$$$
