4his_ligand
                    3D
 Schrodinger Suite 2020-3.
 26 28  0  0  1  0            999 V2000
   -0.4960    0.7860    0.4060 O   0  5  0  0  0  0
   -2.0390    1.9230   -0.5970 O   0  0  0  0  0  0
    0.2140   -0.4800   -1.8940 C   0  0  0  0  0  0
    0.6470   -1.0250   -3.0910 C   0  0  0  0  0  0
    0.0020    0.0130  -10.4790 C   0  0  0  0  0  0
    0.3700   -1.1200   -8.3480 C   0  0  0  0  0  0
   -0.3830    1.1500   -8.3570 C   0  0  0  0  0  0
   -1.0050    1.1780   -3.1230 C   0  0  0  0  0  0
    0.5550   -0.8230   -5.4960 N   0  0  0  0  0  0
   -0.7240    0.9400   -5.5870 O   0  0  0  0  0  0
   -1.0610    1.1380   -0.6590 C   0  0  0  0  0  0
    0.3620   -1.1180   -9.7460 C   0  0  0  0  0  0
   -0.3610    1.1410   -9.7500 C   0  0  0  0  0  0
   -0.6360    0.6190   -1.8930 C   0  0  0  0  0  0
   -0.0010    0.0220   -7.6450 C   0  0  0  0  0  0
   -0.0340    0.0410   -6.3130 C   0  0  0  0  0  0
    0.2670   -0.4700   -4.2400 C   0  0  0  0  0  0
   -0.5390    0.6130   -4.2570 C   0  0  0  0  0  0
    0.7960   -2.5700  -10.6060 Cl  0  0  0  0  0  0
   -0.7890    2.5770  -10.6070 Cl  0  0  0  0  0  0
    0.5411   -0.9146   -0.9494 H   0  0  0  0  0  0
    1.2943   -1.9020   -3.0926 H   0  0  0  0  0  0
    0.0050    0.0130  -11.5690 H   0  0  0  0  0  0
    0.6676   -2.0185   -7.8074 H   0  0  0  0  0  0
   -0.7014    2.0463   -7.8246 H   0  0  0  0  0  0
   -1.6554    2.0517   -3.1638 H   0  0  0  0  0  0
  1 11  1  0  0  0
  2 11  2  0  0  0
  3  4  1  0  0  0
  3 14  2  0  0  0
  3 21  1  0  0  0
  4 17  2  0  0  0
  4 22  1  0  0  0
  5 12  2  0  0  0
  5 13  1  0  0  0
  5 23  1  0  0  0
  6 12  1  0  0  0
  6 15  2  0  0  0
  6 24  1  0  0  0
  7 13  2  0  0  0
  7 15  1  0  0  0
  7 25  1  0  0  0
  8 14  1  0  0  0
  8 18  2  0  0  0
  8 26  1  0  0  0
  9 16  2  0  0  0
  9 17  1  0  0  0
 10 16  1  0  0  0
 10 18  1  0  0  0
 11 14  1  0  0  0
 12 19  1  0  0  0
 13 20  1  0  0  0
 15 16  1  0  0  0
 17 18  1  0  0  0
M  CHG  1   1  -1
M  END
> <s_m_source_file>
../4his_ligand.sdf

> <i_m_source_file_index>
1

> <s_epik_input>
W09IXUMoPU8pYyhbY0hdW2NIXTEpW2NIXWMoYzEyKW9jKG4yKS1jKFtjSF0zKVtjSF1jKENsKVtjSF1jM0Ns

> <s_epik_cmdline>
J2VwaWtfYXBwJywgJy1pbWFlJywgJ2xpZ2FuZF9wcm8ubWFlJywgJy1vbWFlJywgJ2xpZ2FuZF9wcmVwLm1hZScsICctbXMnLCAnMScsICctcGgnLCAnNycsICctcGh0JywgJzAuNScsICctbnQn

> <r_lp_tautomer_probability>
1

> <r_epik_Ionization_Penalty>
  0.0001

> <r_epik_Ionization_Penalty_Charging>
  0.0001

> <r_epik_Ionization_Penalty_Neutral>
  0.0000

> <r_epik_State_Penalty>
 -0.0000

> <r_epik_Charging_Adjusted_Penalty>
0.000101276138574059

> <i_epik_Tot_Q>
-1

> <i_epik_Tot_abs_Q>
1

$$$$
