4hj2_ligand
                    3D
 Schrodinger Suite 2020-3.
 71 71  0  0  1  0            999 V2000
   20.2430   -9.3460   14.8090 O   0  5  0  0  0  0
   20.9510   -8.3690   15.1360 C   0  0  0  0  0  0
   20.5780   -7.1780   15.2000 O   0  0  0  0  0  0
   22.4090   -8.6620   15.5000 C   0  0  1  0  0  0
   23.2480   -7.5140   15.1270 N   0  3  0  0  0  0
   22.5270   -8.9150   17.0040 C   0  0  0  0  0  0
   21.7180  -10.1420   17.4290 C   0  0  0  0  0  0
   21.9160  -10.4330   18.9190 C   0  0  0  0  0  0
   22.6010   -9.6940   19.6240 O   0  0  0  0  0  0
   21.3050  -11.5220   19.3750 N   0  0  0  0  0  0
   21.4220  -11.9130   20.7870 C   0  0  2  0  0  0
   21.8320  -13.3830   20.8930 C   0  0  0  0  0  0
   21.2070  -14.2550   20.2880 O   0  0  0  0  0  0
   22.8730  -13.6170   21.6850 N   0  0  0  0  0  0
   23.4040  -14.9710   21.9030 C   0  0  0  0  0  0
   24.8550  -15.0430   21.4230 C   0  0  0  0  0  0
   25.4750  -16.1040   21.6540 O   0  5  0  0  0  0
   25.3080  -14.0370   20.8350 O   0  0  0  0  0  0
   20.0780  -11.7240   21.4920 C   0  0  0  0  0  0
   19.4430  -10.0090   21.4320 S   0  0  0  0  0  0
   18.3020  -10.1450   22.8530 C   0  0  0  0  0  0
   19.0720  -10.2350   24.1720 C   0  0  0  0  0  0
   19.7490   -8.9510   24.3910 N   0  0  0  0  0  0
   21.1630   -8.7720   24.0240 C   0  0  0  0  0  0
   22.0660   -9.5010   25.0210 C   0  0  0  0  0  0
   21.8450  -11.0150   24.9820 Cl  0  0  0  0  0  0
   19.0390   -7.9450   24.8940 C   0  0  0  0  0  0
   17.6980   -8.1610   25.1850 C   0  0  0  0  0  0
   16.9150   -7.1250   25.6790 C   0  0  0  0  0  0
   17.4790   -5.8710   25.8810 C   0  0  0  0  0  0
   18.8230   -5.6540   25.5950 C   0  0  0  0  0  0
   19.6060   -6.6920   25.1000 C   0  0  0  0  0  0
   16.5880   -4.7400   26.3940 C   0  0  0  0  0  0
   17.0720   -4.1870   27.7370 C   0  0  0  0  0  0
   16.0120   -3.2660   28.3460 C   0  0  0  0  0  0
   15.6090   -2.1410   27.3920 C   0  0  0  0  0  0
   15.1870   -2.4710   26.2620 O   0  0  0  0  0  0
   15.7120   -0.9690   27.8170 O   0  5  0  0  0  0
   22.7763   -9.5331   14.9376 H   0  0  0  0  0  0
   23.1622   -7.3332   14.0454 H   0  0  0  0  0  0
   24.2966   -7.7284   15.3809 H   0  0  0  0  0  0
   22.9130   -6.6214   15.6757 H   0  0  0  0  0  0
   23.5819   -9.0848   17.2656 H   0  0  0  0  0  0
   22.1491   -8.0403   17.5537 H   0  0  0  0  0  0
   20.6495   -9.9595   17.2419 H   0  0  0  0  0  0
   22.0474  -11.0171   16.8496 H   0  0  0  0  0  0
   20.7068  -12.1329   18.6829 H   0  0  0  0  0  0
   22.1914  -11.2615   21.2270 H   0  0  0  0  0  0
   23.3398  -12.7559   22.1857 H   0  0  0  0  0  0
   23.3636  -15.2124   22.9754 H   0  0  0  0  0  0
   22.7987  -15.6972   21.3406 H   0  0  0  0  0  0
   19.3219  -12.3675   21.0185 H   0  0  0  0  0  0
   20.1789  -11.9965   22.5529 H   0  0  0  0  0  0
   17.6504   -9.2594   22.8861 H   0  0  0  0  0  0
   17.6858  -11.0496   22.7433 H   0  0  0  0  0  0
   18.3695  -10.4388   24.9935 H   0  0  0  0  0  0
   19.8104  -11.0480   24.1108 H   0  0  0  0  0  0
   21.3352   -9.1811   23.0175 H   0  0  0  0  0  0
   21.4110   -7.7003   24.0316 H   0  0  0  0  0  0
   23.1194   -9.2983   24.7777 H   0  0  0  0  0  0
   21.8499   -9.1455   26.0393 H   0  0  0  0  0  0
   17.2589   -9.1458   25.0254 H   0  0  0  0  0  0
   15.8628   -7.2951   25.9072 H   0  0  0  0  0  0
   19.2628   -4.6702   25.7588 H   0  0  0  0  0  0
   20.6591   -6.5239   24.8747 H   0  0  0  0  0  0
   16.5860   -3.9157   25.6656 H   0  0  0  0  0  0
   15.5620   -5.1134   26.5279 H   0  0  0  0  0  0
   17.2637   -5.0203   28.4290 H   0  0  0  0  0  0
   17.9996   -3.6155   27.5854 H   0  0  0  0  0  0
   15.1116   -3.8509   28.5849 H   0  0  0  0  0  0
   16.4073   -2.8096   29.2655 H   0  0  0  0  0  0
  1  2  1  0  0  0
  2  3  2  0  0  0
  2  4  1  0  0  0
  4  5  1  0  0  0
  4  6  1  0  0  0
  4 39  1  0  0  0
  5 40  1  0  0  0
  5 41  1  0  0  0
  5 42  1  0  0  0
  6  7  1  0  0  0
  6 43  1  0  0  0
  6 44  1  0  0  0
  7  8  1  0  0  0
  7 45  1  0  0  0
  7 46  1  0  0  0
  8  9  2  0  0  0
  8 10  1  0  0  0
 10 11  1  0  0  0
 10 47  1  0  0  0
 11 12  1  0  0  0
 11 19  1  0  0  0
 11 48  1  0  0  0
 12 13  2  0  0  0
 12 14  1  0  0  0
 14 15  1  0  0  0
 14 49  1  0  0  0
 15 16  1  0  0  0
 15 50  1  0  0  0
 15 51  1  0  0  0
 16 17  1  0  0  0
 16 18  2  0  0  0
 19 20  1  0  0  0
 19 52  1  0  0  0
 19 53  1  0  0  0
 20 21  1  0  0  0
 21 22  1  0  0  0
 21 54  1  0  0  0
 21 55  1  0  0  0
 22 23  1  0  0  0
 22 56  1  0  0  0
 22 57  1  0  0  0
 23 24  1  0  0  0
 23 27  1  0  0  0
 24 25  1  0  0  0
 24 58  1  0  0  0
 24 59  1  0  0  0
 25 26  1  0  0  0
 25 60  1  0  0  0
 25 61  1  0  0  0
 27 28  2  0  0  0
 27 32  1  0  0  0
 28 29  1  0  0  0
 28 62  1  0  0  0
 29 30  2  0  0  0
 29 63  1  0  0  0
 30 31  1  0  0  0
 30 33  1  0  0  0
 31 32  2  0  0  0
 31 64  1  0  0  0
 32 65  1  0  0  0
 33 34  1  0  0  0
 33 66  1  0  0  0
 33 67  1  0  0  0
 34 35  1  0  0  0
 34 68  1  0  0  0
 34 69  1  0  0  0
 35 36  1  0  0  0
 35 70  1  0  0  0
 35 71  1  0  0  0
 36 37  2  0  0  0
 36 38  1  0  0  0
M  CHG  4   1  -1   5   1  17  -1  38  -1
M  END
> <s_m_source_file>
../4hj2_ligand.sdf

> <i_m_source_file_index>
1

> <s_epik_input>
W09IXUMoPU8pW0NAQEhdKFtOSDMrXSlbQ0gyXVtDSDJdQyg9TylbTkhdW0NASF0oQyg9TylbTkhdW0NIMl1DKD1PKVtPSF0pW0NIMl1TW0NIMl1bQ0gyXU4oW0NIMl1bQ0gyXUNsKWMxW2NIXVtjSF1jKFtjSF1bY0hdMSlbQ0gyXVtDSDJdW0NIMl1DKD1PKVtPSF0=

> <s_epik_cmdline>
J2VwaWtfYXBwJywgJy1pbWFlJywgJ2xpZ2FuZF9wcm8ubWFlJywgJy1vbWFlJywgJ2xpZ2FuZF9wcmVwLm1hZScsICctbXMnLCAnMScsICctcGgnLCAnNycsICctcGh0JywgJzAuNScsICctbnQn

> <r_lp_tautomer_probability>
1

> <r_epik_Ionization_Penalty>
  0.0073

> <r_epik_Ionization_Penalty_Charging>
  0.0065

> <r_epik_Ionization_Penalty_Neutral>
  0.0008

> <r_epik_State_Penalty>
 -0.0000

> <r_epik_Charging_Adjusted_Penalty>
0.00647434334739293

> <i_epik_Tot_Q>
-2

> <i_epik_Tot_abs_Q>
4

$$$$
