4hkk_ligand
                    3D
 Schrodinger Suite 2020-3.
 30 32  0  0  1  0            999 V2000
   -7.0580   -9.3390   -9.7710 C   0  0  0  0  0  0
   -6.9530   -9.1500   -8.3850 C   0  0  0  0  0  0
   -6.2000  -10.0460   -7.6180 C   0  0  0  0  0  0
   -6.1030   -9.9020   -6.2730 O   0  0  0  0  0  0
   -5.5350  -11.1270   -8.2210 C   0  0  0  0  0  0
   -5.6410  -11.3130   -9.6020 C   0  0  0  0  0  0
   -6.3980  -10.4230  -10.3870 C   0  0  0  0  0  0
   -6.4270  -10.6520  -11.7700 C   0  0  0  0  0  0
   -5.6400  -11.7080  -12.1420 O   0  0  0  0  0  0
   -7.2370   -9.9840  -12.6950 C   0  0  0  0  0  0
   -7.1200  -10.3310  -14.0490 C   0  0  0  0  0  0
   -7.8990   -9.8160  -14.8700 O   0  0  0  0  0  0
   -6.2430  -11.3960  -14.4140 C   0  0  0  0  0  0
   -5.5180  -12.0960  -13.4400 C   0  0  0  0  0  0
   -4.6580  -13.1570  -13.7580 C   0  0  0  0  0  0
   -4.4970  -13.5480  -15.0940 C   0  0  0  0  0  0
   -3.6320  -14.5730  -15.3950 O   0  0  0  0  0  0
   -5.1870  -12.8700  -16.1010 C   0  0  0  0  0  0
   -6.0540  -11.8060  -15.7360 C   0  0  0  0  0  0
   -6.7310  -11.1080  -16.6850 O   0  0  0  0  0  0
   -7.6495   -8.6483  -10.3720 H   0  0  0  0  0  0
   -7.4557   -8.3089   -7.9076 H   0  0  0  0  0  0
   -6.6121   -9.0659   -5.7712 H   0  0  0  0  0  0
   -4.9420  -11.8140   -7.6173 H   0  0  0  0  0  0
   -5.1335  -12.1538  -10.0749 H   0  0  0  0  0  0
   -7.9393   -9.2154  -12.3723 H   0  0  0  0  0  0
   -4.1160  -13.6764  -12.9677 H   0  0  0  0  0  0
   -3.0970  -15.0959  -14.5886 H   0  0  0  0  0  0
   -5.0627  -13.1518  -17.1466 H   0  0  0  0  0  0
   -7.3998  -10.2858  -16.3906 H   0  0  0  0  0  0
  1  2  2  0  0  0
  1  7  1  0  0  0
  1 21  1  0  0  0
  2  3  1  0  0  0
  2 22  1  0  0  0
  3  4  1  0  0  0
  3  5  2  0  0  0
  4 23  1  0  0  0
  5  6  1  0  0  0
  5 24  1  0  0  0
  6  7  2  0  0  0
  6 25  1  0  0  0
  7  8  1  0  0  0
  8  9  1  0  0  0
  8 10  2  0  0  0
  9 14  1  0  0  0
 10 11  1  0  0  0
 10 26  1  0  0  0
 11 12  2  0  0  0
 11 13  1  0  0  0
 13 14  2  0  0  0
 13 19  1  0  0  0
 14 15  1  0  0  0
 15 16  2  0  0  0
 15 27  1  0  0  0
 16 17  1  0  0  0
 16 18  1  0  0  0
 17 28  1  0  0  0
 18 19  2  0  0  0
 18 29  1  0  0  0
 19 20  1  0  0  0
 20 30  1  0  0  0
M  END
> <s_m_source_file>
../4hkk_ligand.sdf

> <i_m_source_file_index>
1

> <s_epik_input>
W09IXWMxW2NIXVtjSF1jKFtjSF1bY0hdMSktYyhbY0hdYzI9TylvYyhjMjMpW2NIXWMoW09IXSlbY0hdYzNbT0hd

> <s_epik_cmdline>
J2VwaWtfYXBwJywgJy1pbWFlJywgJ2xpZ2FuZF9wcm8ubWFlJywgJy1vbWFlJywgJ2xpZ2FuZF9wcmVwLm1hZScsICctbXMnLCAnMScsICctcGgnLCAnNycsICctcGh0JywgJzAuNScsICctbnQn

> <r_lp_tautomer_probability>
0.999999999997365

> <r_epik_Ionization_Penalty>
  0.0493

> <r_epik_Ionization_Penalty_Charging>
  0.0000

> <r_epik_Ionization_Penalty_Neutral>
  0.0493

> <r_epik_State_Penalty>
  0.0342

> <r_epik_Charging_Adjusted_Penalty>
0.034216159069907

> <i_epik_Tot_Q>
0

> <i_epik_Tot_abs_Q>
0

$$$$
