4hl5_ligand
                    3D
 Schrodinger Suite 2020-3.
 32 34  0  0  1  0            999 V2000
   -1.3560  -10.2720  -23.3710 C   0  0  0  0  0  0
   -2.5270  -10.9710  -22.9720 O   0  0  0  0  0  0
   -2.5690  -11.1920  -21.6200 C   0  0  0  0  0  0
   -1.4410  -11.1330  -20.7880 C   0  0  0  0  0  0
   -1.5660  -11.3770  -19.4140 C   0  0  0  0  0  0
   -3.7930  -11.5130  -21.0460 C   0  0  0  0  0  0
   -3.9160  -11.7560  -19.6890 C   0  0  0  0  0  0
   -2.8130  -11.6960  -18.8430 C   0  0  0  0  0  0
   -2.9890  -11.9440  -17.4710 C   0  0  0  0  0  0
   -4.2830  -11.9770  -17.0510 O   0  0  0  0  0  0
   -4.5920  -12.2110  -15.7420 C   0  0  0  0  0  0
   -5.9220  -12.2480  -15.3560 C   0  0  0  0  0  0
   -6.2590  -12.4840  -14.0220 C   0  0  0  0  0  0
   -7.5720  -12.4930  -13.6520 O   0  0  0  0  0  0
   -5.2500  -12.6960  -13.0830 C   0  0  0  0  0  0
   -3.9160  -12.6540  -13.4730 C   0  0  0  0  0  0
   -3.5610  -12.4090  -14.8050 C   0  0  0  0  0  0
   -2.2140  -12.3830  -15.2130 C   0  0  0  0  0  0
   -1.2650  -12.5430  -14.4250 O   0  0  0  0  0  0
   -1.9480  -12.1250  -16.5550 C   0  0  0  0  0  0
   -1.3723  -10.1213  -24.4605 H   0  0  0  0  0  0
   -0.4671  -10.8583  -23.0951 H   0  0  0  0  0  0
   -1.3221   -9.2953  -22.8662 H   0  0  0  0  0  0
   -0.4648  -10.8967  -21.2116 H   0  0  0  0  0  0
   -0.6836  -11.3189  -18.7767 H   0  0  0  0  0  0
   -4.6777  -11.5749  -21.6797 H   0  0  0  0  0  0
   -4.8949  -11.9988  -19.2755 H   0  0  0  0  0  0
   -6.7073  -12.0924  -16.0958 H   0  0  0  0  0  0
   -8.3566  -12.3242  -14.4043 H   0  0  0  0  0  0
   -5.5073  -12.8948  -12.0426 H   0  0  0  0  0  0
   -3.1345  -12.8143  -12.7302 H   0  0  0  0  0  0
   -0.9146  -12.0633  -16.8962 H   0  0  0  0  0  0
  1  2  1  0  0  0
  1 21  1  0  0  0
  1 22  1  0  0  0
  1 23  1  0  0  0
  2  3  1  0  0  0
  3  4  2  0  0  0
  3  6  1  0  0  0
  4  5  1  0  0  0
  4 24  1  0  0  0
  5  8  2  0  0  0
  5 25  1  0  0  0
  6  7  2  0  0  0
  6 26  1  0  0  0
  7  8  1  0  0  0
  7 27  1  0  0  0
  8  9  1  0  0  0
  9 10  1  0  0  0
  9 20  2  0  0  0
 10 11  1  0  0  0
 11 12  2  0  0  0
 11 17  1  0  0  0
 12 13  1  0  0  0
 12 28  1  0  0  0
 13 14  1  0  0  0
 13 15  2  0  0  0
 14 29  1  0  0  0
 15 16  1  0  0  0
 15 30  1  0  0  0
 16 17  2  0  0  0
 16 31  1  0  0  0
 17 18  1  0  0  0
 18 19  2  0  0  0
 18 20  1  0  0  0
 20 32  1  0  0  0
M  END
> <s_m_source_file>
../4hl5_ligand.sdf

> <i_m_source_file_index>
1

> <s_epik_input>
W0NIM11PYzFbY0hdW2NIXWMoW2NIXVtjSF0xKS1jKG8yKVtjSF1jKD1PKWMoYzIzKVtjSF1bY0hdYyhbY0hdMylbT0hd

> <s_epik_cmdline>
J2VwaWtfYXBwJywgJy1pbWFlJywgJ2xpZ2FuZF9wcm8ubWFlJywgJy1vbWFlJywgJ2xpZ2FuZF9wcmVwLm1hZScsICctbXMnLCAnMScsICctcGgnLCAnNycsICctcGh0JywgJzAuNScsICctbnQn

> <r_lp_tautomer_probability>
1

> <r_epik_Ionization_Penalty>
  0.0136

> <r_epik_Ionization_Penalty_Charging>
  0.0000

> <r_epik_Ionization_Penalty_Neutral>
  0.0136

> <r_epik_State_Penalty>
  0.0106

> <r_epik_Charging_Adjusted_Penalty>
0.0105990110682271

> <i_epik_Tot_Q>
0

> <i_epik_Tot_abs_Q>
0

$$$$
