4hlc_ligand
                    3D
 Schrodinger Suite 2020-3.
 59 62  0  0  1  0            999 V2000
    5.6760   -1.9040   50.4660 C   0  0  0  0  0  0
    3.9370    1.5660   55.0600 C   0  0  0  0  0  0
    6.6510   -1.7730   49.5040 C   0  0  0  0  0  0
    5.5880   -0.9510   51.4660 C   0  0  0  0  0  0
    2.9670    2.2780   54.4000 C   0  0  0  0  0  0
    7.4510    0.2420   50.5210 C   0  0  0  0  0  0
    4.2920    2.2130   52.3850 C   0  0  0  0  0  0
    5.0780    1.1530   54.4010 C   0  0  0  0  0  0
    7.5370   -0.7140   49.5280 C   0  0  0  0  0  0
    6.4660    0.1190   51.4780 C   0  0  0  0  0  0
    5.2520    1.4800   53.0600 C   0  0  0  0  0  0
    3.1350    2.5830   53.0620 C   0  0  0  0  0  0
    1.1120   -1.1820   49.0400 C   0  0  0  0  0  0
    1.5150   -1.9180   47.9900 C   0  0  0  0  0  0
    1.3540   -1.3300   46.6290 C   0  0  0  0  0  0
    0.4230    0.6940   47.6770 C   0  0  0  0  0  0
    6.0670    0.3970   55.1860 C   0  0  0  0  0  0
   -1.2790    0.8880   52.1760 C   0  0  0  0  0  0
   -0.8370    0.0290   50.9910 C   0  0  0  0  0  0
   -0.0560    1.5280   52.8110 C   0  0  0  0  0  0
    1.2740    1.3890   50.7630 C   0  0  0  0  0  0
    0.0800    0.8240   50.0540 C   0  0  1  0  0  0
    8.5850   -0.5690   48.4910 C   0  0  0  0  0  0
    2.1180   -3.2740   48.1080 C   0  0  0  0  0  0
    0.8110   -0.0550   46.5980 N   0  0  0  0  0  0
    0.5430    0.0730   48.9060 N   0  0  0  0  0  0
    0.7130    2.2900   51.7820 N   0  0  2  0  0  0
    1.6740   -1.9360   45.6100 O   0  0  0  0  0  0
    0.0040    1.8360   47.5450 O   0  0  0  0  0  0
    6.4870    0.9520   56.2350 O   0  0  0  0  0  0
    1.1320    4.3030   53.2540 O   0  0  0  0  0  0
    2.4440    4.0990   51.0830 O   0  0  0  0  0  0
    6.3900   -0.7530   54.7820 O   0  5  0  0  0  0
    6.4440    1.1180   52.4530 O   0  0  0  0  0  0
    1.8220    3.5040   52.2530 S   0  0  0  0  0  0
    4.9835   -2.7454   50.4410 H   0  0  0  0  0  0
    3.8055    1.3242   56.1147 H   0  0  0  0  0  0
    6.7252   -2.5167   48.7106 H   0  0  0  0  0  0
    4.8287   -1.0430   52.2426 H   0  0  0  0  0  0
    2.0695    2.6011   54.9275 H   0  0  0  0  0  0
    8.1492    1.0786   50.5477 H   0  0  0  0  0  0
    4.4398    2.4950   51.3425 H   0  0  0  0  0  0
    1.2389   -1.5916   50.0421 H   0  0  0  0  0  0
   -1.9660    1.6719   51.8245 H   0  0  0  0  0  0
   -1.7917    0.2560   52.9160 H   0  0  0  0  0  0
   -0.2898   -0.8510   51.3600 H   0  0  0  0  0  0
   -1.7218   -0.2998   50.4262 H   0  0  0  0  0  0
   -0.3744    2.2158   53.6082 H   0  0  0  0  0  0
    0.5877    0.7448   53.2379 H   0  0  0  0  0  0
    1.8527    0.5705   51.2160 H   0  0  0  0  0  0
    1.9058    1.9300   50.0432 H   0  0  0  0  0  0
   -0.5339    1.6379   49.6408 H   0  0  0  0  0  0
    8.5170   -1.4067   47.7813 H   0  0  0  0  0  0
    9.5760   -0.5723   48.9683 H   0  0  0  0  0  0
    8.4401    0.3797   47.9534 H   0  0  0  0  0  0
    2.1669   -3.5625   49.1684 H   0  0  0  0  0  0
    3.1330   -3.2621   47.6841 H   0  0  0  0  0  0
    1.4997   -3.9993   47.5588 H   0  0  0  0  0  0
    0.6545    0.4529   45.6349 H   0  0  0  0  0  0
  1  3  2  0  0  0
  1  4  1  0  0  0
  1 36  1  0  0  0
  2  5  2  0  0  0
  2  8  1  0  0  0
  2 37  1  0  0  0
  3  9  1  0  0  0
  3 38  1  0  0  0
  4 10  2  0  0  0
  4 39  1  0  0  0
  5 12  1  0  0  0
  5 40  1  0  0  0
  6  9  2  0  0  0
  6 10  1  0  0  0
  6 41  1  0  0  0
  7 11  1  0  0  0
  7 12  2  0  0  0
  7 42  1  0  0  0
  8 11  2  0  0  0
  8 17  1  0  0  0
  9 23  1  0  0  0
 10 34  1  0  0  0
 11 34  1  0  0  0
 12 35  1  0  0  0
 13 14  2  0  0  0
 13 26  1  0  0  0
 13 43  1  0  0  0
 14 15  1  0  0  0
 14 24  1  0  0  0
 15 25  1  0  0  0
 15 28  2  0  0  0
 16 25  1  0  0  0
 16 26  1  0  0  0
 16 29  2  0  0  0
 17 30  2  0  0  0
 17 33  1  0  0  0
 18 19  1  0  0  0
 18 20  1  0  0  0
 18 44  1  0  0  0
 18 45  1  0  0  0
 19 22  1  0  0  0
 19 46  1  0  0  0
 19 47  1  0  0  0
 20 27  1  0  0  0
 20 48  1  0  0  0
 20 49  1  0  0  0
 21 22  1  0  0  0
 21 27  1  0  0  0
 21 50  1  0  0  0
 21 51  1  0  0  0
 22 26  1  0  0  0
 22 52  1  0  0  0
 23 53  1  0  0  0
 23 54  1  0  0  0
 23 55  1  0  0  0
 24 56  1  0  0  0
 24 57  1  0  0  0
 24 58  1  0  0  0
 25 59  1  0  0  0
 27 35  1  0  0  0
 31 35  2  0  0  0
 32 35  2  0  0  0
M  CHG  1  33  -1
M  END
> <s_m_source_file>
../4hlc_ligand.sdf

> <i_m_source_file_index>
1

> <s_epik_input>
W0NIM11jMVtjSF1bY0hdW2NIXWMoW2NIXTEpT2MyW2NIXWMoW2NIXVtjSF1jMkMoPU8pW09IXSlTKD1PKSg9TylOKFtDSDJdMylbQ0gyXVtDSDJdW0NIMl1bQ0BASF0zbihbY0hdYzRbQ0gzXSljKD1PKVtuSF1jND1P

> <s_epik_cmdline>
J2VwaWtfYXBwJywgJy1pbWFlJywgJ2xpZ2FuZF9wcm8ubWFlJywgJy1vbWFlJywgJ2xpZ2FuZF9wcmVwLm1hZScsICctbXMnLCAnMScsICctcGgnLCAnNycsICctcGh0JywgJzAuNScsICctbnQn

> <r_lp_tautomer_probability>
1

> <r_epik_Ionization_Penalty>
  0.0023

> <r_epik_Ionization_Penalty_Charging>
  0.0023

> <r_epik_Ionization_Penalty_Neutral>
  0.0000

> <r_epik_State_Penalty>
 -0.0000

> <r_epik_Charging_Adjusted_Penalty>
0.00234889138039072

> <i_epik_Tot_Q>
-1

> <i_epik_Tot_abs_Q>
1

$$$$
