4hld_ligand
                    3D
 Schrodinger Suite 2020-3.
 54 57  0  0  1  0            999 V2000
   12.3470   -3.3710    0.9020 C   0  0  0  0  0  0
   11.8130   -2.0080    0.6980 C   0  0  0  0  0  0
   11.4020   -1.2570    1.7220 C   0  0  0  0  0  0
   10.8930    0.0130    1.5930 N   0  0  0  0  0  0
   10.7990    0.6400    0.3680 C   0  0  0  0  0  0
   10.3940    1.7850    0.2330 O   0  0  0  0  0  0
   11.1950   -0.1280   -0.7020 N   0  0  0  0  0  0
   11.6940   -1.4200   -0.6630 C   0  0  0  0  0  0
   12.0260   -2.0420   -1.6690 O   0  0  0  0  0  0
   10.4230    0.7370    2.7410 C   0  0  1  0  0  0
    9.4230   -0.0370    3.5930 C   0  0  0  0  0  0
    8.9300    0.7710    4.7820 C   0  0  0  0  0  0
   10.0970    1.3670    5.5480 C   0  0  0  0  0  0
   10.9310    2.1550    4.5890 N   0  0  2  0  0  0
   11.5610    1.3030    3.5450 C   0  0  0  0  0  0
   11.9330    3.3830    5.2320 S   0  0  0  0  0  0
   11.1750    4.0580    6.2740 O   0  0  0  0  0  0
   12.5560    4.0590    4.1090 O   0  0  0  0  0  0
   13.2160    2.4030    5.9740 C   0  0  0  0  0  0
   13.0310    1.9180    7.2510 C   0  0  0  0  0  0
   14.0170    1.1330    7.8140 C   0  0  0  0  0  0
   15.1540    0.8420    7.0920 C   0  0  0  0  0  0
   15.3290    1.3350    5.8110 C   0  0  0  0  0  0
   14.3640    2.1410    5.2480 C   0  0  0  0  0  0
   16.4990    1.0890    5.1120 O   0  0  0  0  0  0
   16.5550    0.0590    4.1810 C   0  0  0  0  0  0
   15.8180   -1.1100    4.2390 C   0  0  0  0  0  0
   15.9910   -2.0740    3.2620 C   0  0  0  0  0  0
   16.8910   -1.8860    2.2330 C   0  0  0  0  0  0
   17.6210   -0.7180    2.1830 C   0  0  0  0  0  0
   17.4530    0.2450    3.1530 C   0  0  0  0  0  0
   18.7460   -0.3830    0.9210 Cl  0  0  0  0  0  0
   16.1120    0.0490    7.6740 O   0  5  0  0  0  0
   12.3486   -3.6072    1.9764 H   0  0  0  0  0  0
   13.3747   -3.4241    0.5133 H   0  0  0  0  0  0
   11.7151   -4.0961    0.3681 H   0  0  0  0  0  0
   11.4747   -1.6780    2.7248 H   0  0  0  0  0  0
   11.1306    0.2763   -1.7230 H   0  0  0  0  0  0
    9.8763    1.5751    2.2842 H   0  0  0  0  0  0
    8.5506   -0.3071    2.9798 H   0  0  0  0  0  0
    9.8987   -0.9516    3.9768 H   0  0  0  0  0  0
    8.2837    1.5876    4.4277 H   0  0  0  0  0  0
    8.3584    0.1177    5.4576 H   0  0  0  0  0  0
    9.7160    2.0224    6.3450 H   0  0  0  0  0  0
   10.6949    0.5581    5.9931 H   0  0  0  0  0  0
   12.1375    0.4807    3.9938 H   0  0  0  0  0  0
   12.2160    1.8939    2.8879 H   0  0  0  0  0  0
   12.1223    2.1502    7.8063 H   0  0  0  0  0  0
   13.8967    0.7449    8.8255 H   0  0  0  0  0  0
   14.5020    2.5630    4.2525 H   0  0  0  0  0  0
   15.1061   -1.2705    5.0486 H   0  0  0  0  0  0
   15.4086   -2.9943    3.3056 H   0  0  0  0  0  0
   17.0230   -2.6520    1.4689 H   0  0  0  0  0  0
   18.0368    1.1643    3.1069 H   0  0  0  0  0  0
  1  2  1  0  0  0
  1 34  1  0  0  0
  1 35  1  0  0  0
  1 36  1  0  0  0
  2  3  2  0  0  0
  2  8  1  0  0  0
  3  4  1  0  0  0
  3 37  1  0  0  0
  4  5  1  0  0  0
  4 10  1  0  0  0
  5  6  2  0  0  0
  5  7  1  0  0  0
  7  8  1  0  0  0
  7 38  1  0  0  0
  8  9  2  0  0  0
 10 11  1  0  0  0
 10 15  1  0  0  0
 10 39  1  0  0  0
 11 12  1  0  0  0
 11 40  1  0  0  0
 11 41  1  0  0  0
 12 13  1  0  0  0
 12 42  1  0  0  0
 12 43  1  0  0  0
 13 14  1  0  0  0
 13 44  1  0  0  0
 13 45  1  0  0  0
 14 15  1  0  0  0
 14 16  1  0  0  0
 15 46  1  0  0  0
 15 47  1  0  0  0
 16 17  2  0  0  0
 16 18  2  0  0  0
 16 19  1  0  0  0
 19 20  2  0  0  0
 19 24  1  0  0  0
 20 21  1  0  0  0
 20 48  1  0  0  0
 21 22  2  0  0  0
 21 49  1  0  0  0
 22 23  1  0  0  0
 22 33  1  0  0  0
 23 24  2  0  0  0
 23 25  1  0  0  0
 24 50  1  0  0  0
 25 26  1  0  0  0
 26 27  2  0  0  0
 26 31  1  0  0  0
 27 28  1  0  0  0
 27 51  1  0  0  0
 28 29  2  0  0  0
 28 52  1  0  0  0
 29 30  1  0  0  0
 29 53  1  0  0  0
 30 31  2  0  0  0
 30 32  1  0  0  0
 31 54  1  0  0  0
M  CHG  1  33  -1
M  END
> <s_m_source_file>
../4hld_ligand.sdf

> <i_m_source_file_index>
1

> <s_epik_input>
Tz1jMVtuSF1jKD1PKW4oW2NIXWMxW0NIM10pW0NASF0yW0NIMl1bQ0gyXVtDSDJdTihbQ0gyXTIpUyg9TykoPU8pYzNbY0hdW2NIXWMoW09IXSljKFtjSF0zKU9jNFtjSF1bY0hdW2NIXWMoQ2wpW2NIXTQ=

> <s_epik_cmdline>
J2VwaWtfYXBwJywgJy1pbWFlJywgJ2xpZ2FuZF9wcm8ubWFlJywgJy1vbWFlJywgJ2xpZ2FuZF9wcmVwLm1hZScsICctbXMnLCAnMScsICctcGgnLCAnNycsICctcGh0JywgJzAuNScsICctbnQn

> <r_lp_tautomer_probability>
0.999537046341301

> <r_epik_Ionization_Penalty>
  0.3086

> <r_epik_Ionization_Penalty_Charging>
  0.3086

> <r_epik_Ionization_Penalty_Neutral>
  0.0000

> <r_epik_State_Penalty>
  0.3001

> <r_epik_Charging_Adjusted_Penalty>
0.608748990623782

> <i_epik_Tot_Q>
-1

> <i_epik_Tot_abs_Q>
1

$$$$
