4hlg_ligand
                    3D
 Schrodinger Suite 2020-3.
 28 30  0  0  1  0            999 V2000
   -7.2850  -37.9970    9.6740 C   0  0  0  0  0  0
   -7.0470  -38.1460    8.2950 C   0  0  0  0  0  0
   -7.4830  -39.2500    7.6450 O   0  0  0  0  0  0
   -6.3830  -37.1540    7.5620 C   0  0  0  0  0  0
   -5.9360  -36.0310    8.2470 C   0  0  0  0  0  0
   -6.1520  -35.8820    9.6180 C   0  0  0  0  0  0
   -6.8340  -36.8520   10.3670 C   0  0  0  0  0  0
   -7.0000  -36.6590   11.7790 C   0  0  0  0  0  0
   -6.2170  -35.6660   12.2990 O   0  0  0  0  0  0
   -6.1240  -35.4160   13.6210 C   0  0  0  0  0  0
   -5.2380  -34.4300   14.0510 C   0  0  0  0  0  0
   -5.1070  -34.1880   15.4260 C   0  0  0  0  0  0
   -5.8720  -34.9580   16.3200 C   0  0  0  0  0  0
   -6.7580  -35.9420   15.8590 C   0  0  0  0  0  0
   -6.9060  -36.1600   14.5000 C   0  0  0  0  0  0
   -7.7760  -37.1540   14.0210 C   0  0  0  0  0  0
   -8.5470  -37.7450   14.7970 O   0  0  0  0  0  0
   -7.7830  -37.4230   12.6530 C   0  0  0  0  0  0
   -7.8243  -38.7752   10.2141 H   0  0  0  0  0  0
   -8.0071  -40.0431    8.1985 H   0  0  0  0  0  0
   -6.2223  -37.2597    6.4891 H   0  0  0  0  0  0
   -5.4055  -35.2499    7.7024 H   0  0  0  0  0  0
   -5.7809  -34.9883   10.1196 H   0  0  0  0  0  0
   -4.6560  -33.8560   13.3299 H   0  0  0  0  0  0
   -4.4269  -33.4197   15.7938 H   0  0  0  0  0  0
   -5.7743  -34.7866   17.3920 H   0  0  0  0  0  0
   -7.3308  -36.5359   16.5713 H   0  0  0  0  0  0
   -8.4007  -38.2316   12.2621 H   0  0  0  0  0  0
  1  2  2  0  0  0
  1  7  1  0  0  0
  1 19  1  0  0  0
  2  3  1  0  0  0
  2  4  1  0  0  0
  3 20  1  0  0  0
  4  5  2  0  0  0
  4 21  1  0  0  0
  5  6  1  0  0  0
  5 22  1  0  0  0
  6  7  2  0  0  0
  6 23  1  0  0  0
  7  8  1  0  0  0
  8  9  1  0  0  0
  8 18  2  0  0  0
  9 10  1  0  0  0
 10 11  2  0  0  0
 10 15  1  0  0  0
 11 12  1  0  0  0
 11 24  1  0  0  0
 12 13  2  0  0  0
 12 25  1  0  0  0
 13 14  1  0  0  0
 13 26  1  0  0  0
 14 15  2  0  0  0
 14 27  1  0  0  0
 15 16  1  0  0  0
 16 17  2  0  0  0
 16 18  1  0  0  0
 18 28  1  0  0  0
M  END
> <s_m_source_file>
../4hlg_ligand.sdf

> <i_m_source_file_index>
1

> <s_epik_input>
W09IXWMxW2NIXWMoW2NIXVtjSF1bY0hdMSktYyhvMilbY0hdYyg9TyljKGMyMylbY0hdW2NIXVtjSF1bY0hdMw==

> <s_epik_cmdline>
J2VwaWtfYXBwJywgJy1pbWFlJywgJ2xpZ2FuZF9wcm8ubWFlJywgJy1vbWFlJywgJ2xpZ2FuZF9wcmVwLm1hZScsICctbXMnLCAnMScsICctcGgnLCAnNycsICctcGh0JywgJzAuNScsICctbnQn

> <r_lp_tautomer_probability>
1

> <r_epik_Ionization_Penalty>
  0.0011

> <r_epik_Ionization_Penalty_Charging>
  0.0000

> <r_epik_Ionization_Penalty_Neutral>
  0.0011

> <r_epik_State_Penalty>
 -0.0000

> <r_epik_Charging_Adjusted_Penalty>
0

> <i_epik_Tot_Q>
0

> <i_epik_Tot_abs_Q>
0

$$$$
