4hlk_ligand
                    3D
 Schrodinger Suite 2020-3.
 30 32  0  0  1  0            999 V2000
  -39.2680  -10.6260   12.9580 C   0  0  0  0  0  0
  -39.3080  -10.9050   14.3180 C   0  0  0  0  0  0
  -38.4830  -10.3380   15.0630 O   0  0  0  0  0  0
  -40.1750  -11.9270   14.7710 C   0  0  0  0  0  0
  -40.3000  -12.2260   16.1230 C   0  0  0  0  0  0
  -41.1590  -13.2490   16.5520 C   0  0  0  0  0  0
  -41.8940  -14.0100   15.6270 C   0  0  0  0  0  0
  -41.7750  -13.6970   14.2750 C   0  0  0  0  0  0
  -40.9260  -12.6760   13.8610 C   0  0  0  0  0  0
  -40.8450  -12.3810   12.5150 O   0  0  0  0  0  0
  -40.0570  -11.3510   12.0550 C   0  0  0  0  0  0
  -40.1190  -11.1140   10.6550 C   0  0  0  0  0  0
  -39.4090  -10.0940    9.9830 C   0  0  0  0  0  0
  -39.5250   -9.9090    8.6000 C   0  0  0  0  0  0
  -40.3470  -10.7280    7.8240 C   0  0  0  0  0  0
  -40.4720  -10.5690    6.4140 C   0  0  0  0  0  0
  -41.0520  -11.7450    8.4840 C   0  0  0  0  0  0
  -40.9360  -11.9380    9.8660 C   0  0  0  0  0  0
  -38.6157   -9.8344   12.5891 H   0  0  0  0  0  0
  -39.7253  -11.6604   16.8565 H   0  0  0  0  0  0
  -41.2576  -13.4564   17.6175 H   0  0  0  0  0  0
  -42.5397  -14.8231   15.9586 H   0  0  0  0  0  0
  -42.3507  -14.2555   13.5369 H   0  0  0  0  0  0
  -38.7553   -9.4354   10.5549 H   0  0  0  0  0  0
  -38.9619   -9.1090    8.1194 H   0  0  0  0  0  0
  -39.8482   -9.7254    6.0834 H   0  0  0  0  0  0
  -41.5233  -10.3695    6.1593 H   0  0  0  0  0  0
  -40.1410  -11.4893    5.9105 H   0  0  0  0  0  0
  -41.7053  -12.4003    7.9079 H   0  0  0  0  0  0
  -41.4929  -12.7465   10.3396 H   0  0  0  0  0  0
  1  2  1  0  0  0
  1 11  2  0  0  0
  1 19  1  0  0  0
  2  3  2  0  0  0
  2  4  1  0  0  0
  4  5  2  0  0  0
  4  9  1  0  0  0
  5  6  1  0  0  0
  5 20  1  0  0  0
  6  7  2  0  0  0
  6 21  1  0  0  0
  7  8  1  0  0  0
  7 22  1  0  0  0
  8  9  2  0  0  0
  8 23  1  0  0  0
  9 10  1  0  0  0
 10 11  1  0  0  0
 11 12  1  0  0  0
 12 13  2  0  0  0
 12 18  1  0  0  0
 13 14  1  0  0  0
 13 24  1  0  0  0
 14 15  2  0  0  0
 14 25  1  0  0  0
 15 16  1  0  0  0
 15 17  1  0  0  0
 16 26  1  0  0  0
 16 27  1  0  0  0
 16 28  1  0  0  0
 17 18  2  0  0  0
 17 29  1  0  0  0
 18 30  1  0  0  0
M  END
> <s_m_source_file>
../4hlk_ligand.sdf

> <i_m_source_file_index>
1

> <s_epik_input>
W2NIXTFbY0hdYyhbQ0gzXSlbY0hdW2NIXWMxLWMoW2NIXWMyPU8pb2MoYzIzKVtjSF1bY0hdW2NIXVtjSF0z

> <s_epik_cmdline>
J2VwaWtfYXBwJywgJy1pbWFlJywgJ2xpZ2FuZF9wcm8ubWFlJywgJy1vbWFlJywgJ2xpZ2FuZF9wcmVwLm1hZScsICctbXMnLCAnMScsICctcGgnLCAnNycsICctcGh0JywgJzAuNScsICctbnQn

> <r_lp_tautomer_probability>
1

> <r_epik_Ionization_Penalty>
  0.0000

> <r_epik_Ionization_Penalty_Charging>
  0.0000

> <r_epik_Ionization_Penalty_Neutral>
  0.0000

> <r_epik_State_Penalty>
 -0.0000

> <r_epik_Charging_Adjusted_Penalty>
0

> <i_epik_Tot_Q>
0

> <i_epik_Tot_abs_Q>
0

$$$$
