4hlw_ligand
                    3D
 Schrodinger Suite 2020-3.
 32 34  0  0  1  0            999 V2000
   20.0700   16.7180   31.7920 C   0  0  0  0  0  0
   20.8680   16.2350   32.8180 C   0  0  0  0  0  0
   20.8400   14.8750   33.1200 C   0  0  0  0  0  0
   20.0240   13.9970   32.4070 C   0  0  0  0  0  0
   19.2220   14.4850   31.3820 C   0  0  0  0  0  0
   19.2500   15.8460   31.0750 C   0  0  0  0  0  0
   18.4700   16.3530   30.0680 O   0  0  0  0  0  0
   17.8260   15.5260   29.1040 C   0  0  0  0  0  0
   17.3420   16.4560   27.9980 C   0  0  0  0  0  0
   15.5860   16.4150   27.8900 S   0  0  0  0  0  0
   14.8680   18.0200   27.9790 C   0  0  0  0  0  0
   15.2470   18.9460   28.8900 N   0  0  0  0  0  0
   14.4600   20.0280   28.6410 C   0  0  0  0  0  0
   13.8760   18.3960   27.1540 N   0  0  0  0  0  0
   13.5680   19.6630   27.5050 C   0  0  0  0  0  0
   12.6460   20.6030   27.0390 C   0  0  0  0  0  0
   12.5730   21.8600   27.6360 C   0  0  0  0  0  0
   13.4100   22.2020   28.6990 C   0  0  0  0  0  0
   14.3470   21.2990   29.2020 C   0  0  0  0  0  0
   20.0833   17.7797   31.5454 H   0  0  0  0  0  0
   21.5100   16.9116   33.3820 H   0  0  0  0  0  0
   21.4655   14.4914   33.9260 H   0  0  0  0  0  0
   20.0152   12.9349   32.6520 H   0  0  0  0  0  0
   18.5757   13.8093   30.8219 H   0  0  0  0  0  0
   18.5442   14.7895   28.7145 H   0  0  0  0  0  0
   16.9823   15.0013   29.5761 H   0  0  0  0  0  0
   17.6643   17.4847   28.2168 H   0  0  0  0  0  0
   17.7684   16.1349   27.0362 H   0  0  0  0  0  0
   11.9780   20.3521   26.2018 H   0  0  0  0  0  0
   11.8471   22.6012   27.2704 H   0  0  0  0  0  0
   13.3302   23.1935   29.1448 H   0  0  0  0  0  0
   14.9964   21.5896   30.0409 H   0  0  0  0  0  0
  1  2  2  0  0  0
  1  6  1  0  0  0
  1 20  1  0  0  0
  2  3  1  0  0  0
  2 21  1  0  0  0
  3  4  2  0  0  0
  3 22  1  0  0  0
  4  5  1  0  0  0
  4 23  1  0  0  0
  5  6  2  0  0  0
  5 24  1  0  0  0
  6  7  1  0  0  0
  7  8  1  0  0  0
  8  9  1  0  0  0
  8 25  1  0  0  0
  8 26  1  0  0  0
  9 10  1  0  0  0
  9 27  1  0  0  0
  9 28  1  0  0  0
 10 11  1  0  0  0
 11 12  2  0  0  0
 11 14  1  0  0  0
 12 13  1  0  0  0
 13 15  1  0  0  0
 13 19  2  0  0  0
 14 15  2  0  0  0
 15 16  1  0  0  0
 16 17  2  0  0  0
 16 29  1  0  0  0
 17 18  1  0  0  0
 17 30  1  0  0  0
 18 19  1  0  0  0
 18 31  1  0  0  0
 19 32  1  0  0  0
M  END
> <s_m_source_file>
../4hlw_ligand.sdf

> <i_m_source_file_index>
1

> <s_epik_input>
W2NIXTFbY0hdW2NIXVtjSF1bY0hdYzFPW0NIMl1bQ0gyXVNDKD1OMilOPUMoQzI9MylbQ0hdPVtDSF1bQ0gyXVtDSF0z

> <s_epik_cmdline>
J2VwaWtfYXBwJywgJy1pbWFlJywgJ2xpZ2FuZF9wcm8ubWFlJywgJy1vbWFlJywgJ2xpZ2FuZF9wcmVwLm1hZScsICctbXMnLCAnMScsICctcGgnLCAnNycsICctcGh0JywgJzAuNScsICctbnQn

> <r_lp_tautomer_probability>
1

> <r_epik_Ionization_Penalty>
  0.0063

> <r_epik_Ionization_Penalty_Charging>
  0.0000

> <r_epik_Ionization_Penalty_Neutral>
  0.0063

> <r_epik_State_Penalty>
 -0.0000

> <r_epik_Charging_Adjusted_Penalty>
0

> <i_epik_Tot_Q>
0

> <i_epik_Tot_abs_Q>
0

> <s_epik_Chemistry_Notes>
This compound has an imine and may undergo hydrolysis.

$$$$
