4hmq_ligand
                    3D
 Schrodinger Suite 2020-3.
 92 97  0  0  1  0            999 V2000
   59.5560   63.0070   -0.0570 C   0  0  0  0  0  0
   61.2380   61.4750    0.6590 N   0  0  0  0  0  0
   59.6670   64.2170   -0.0070 O   0  0  0  0  0  0
   61.5380   63.5960   -5.5190 C   0  0  0  0  0  0
   59.4740   62.7670   -4.5870 N   0  0  0  0  0  0
   61.1720   64.6470   -5.1600 O   0  0  0  0  0  0
   61.8540   64.1810    5.2370 C   0  0  2  0  0  0
   63.6610   60.8620    0.0120 N   0  0  0  0  0  0
   62.9710   64.8610    4.6670 O   0  0  0  0  0  0
   61.5400   60.1830    0.7790 C   0  0  0  0  0  0
   63.8810   62.4390   -3.3530 N   0  0  0  0  0  0
   60.7530   59.3460    1.0070 O   0  0  0  0  0  0
   59.8690   62.7800   -3.3390 C   0  0  0  0  0  0
   61.5360   63.0000    4.7210 N   0  0  3  0  0  0
   60.9700   62.5150   -3.0660 O   0  0  0  0  0  0
   65.9270   61.9920    3.8740 C   0  0  1  0  0  0
   65.5430   61.6980    2.6360 N   0  0  3  0  0  0
   65.1800   63.0380    4.4790 O   0  0  0  0  0  0
   63.4300   61.2100   -1.2500 C   0  0  0  0  0  0
   59.0660   62.4050   -1.0860 N   0  0  0  0  0  0
   62.5880   60.6240   -1.8630 O   0  0  0  0  0  0
   64.6040   63.1510   -4.1970 C   0  0  0  0  0  0
   63.2080   65.3000    1.0110 N   0  0  0  0  0  0
   64.8190   65.4240    2.6770 O   0  0  0  0  0  0
   64.3340   65.8420    1.4390 C   0  0  0  0  0  0
   62.7970   63.2890   -5.8370 N   0  0  0  0  0  0
   60.0810   62.1780    1.0650 C   0  0  1  0  0  0
   62.4830   62.4720    3.9140 O   0  0  0  0  0  0
   60.4830   62.5320   -5.5820 C   0  0  0  0  0  0
   64.7820   62.6200    2.0510 O   0  0  0  0  0  0
   62.9760   59.8370    0.7500 C   0  0  2  0  0  0
   58.9160   63.2010   -2.2970 C   0  0  0  0  0  0
   62.6410   64.4280    1.8130 O   0  0  0  0  0  0
   64.1360   62.3340   -1.9810 C   0  0  2  0  0  0
   63.9180   63.9790   -5.2540 C   0  0  0  0  0  0
   65.7700   63.1860   -4.1320 O   0  0  0  0  0  0
   59.3760   62.3010    2.4080 C   0  0  0  0  0  0
   63.4290   59.7360    2.2080 C   0  0  0  0  0  0
   64.0190   63.7650   -1.4790 C   0  0  0  0  0  0
   60.2480   61.7890    3.4990 C   0  0  0  0  0  0
   64.8940   59.4090    2.5010 C   0  0  0  0  0  0
   62.6200   64.2550   -1.1810 C   0  0  0  0  0  0
   60.2440   62.4430    4.8330 C   0  0  0  0  0  0
   65.7860   60.4780    1.9280 C   0  0  0  0  0  0
   62.6020   65.4940   -0.2860 C   0  0  0  0  0  0
   67.0390   61.3000    4.5940 C   0  0  0  0  0  0
   60.9990   64.6600    6.3160 C   0  0  0  0  0  0
   65.0760   66.8890    0.6870 C   0  0  0  0  0  0
   63.8320   63.8050    3.2570 Fe  0  0  0  0  0  0
   62.0596   62.0097    0.1599 H   0  0  0  0  0  0
   58.4285   62.9249   -4.8905 H   0  0  0  0  0  0
   61.1855   64.6756    4.5170 H   0  0  0  0  0  0
   64.4617   61.4436    0.4922 H   0  0  0  0  0  0
   63.0273   61.9054   -3.7962 H   0  0  0  0  0  0
   66.6397   62.7302    3.4776 H   0  0  0  0  0  0
   58.7667   61.3465   -1.0830 H   0  0  0  0  0  0
   62.9660   62.4835   -6.5668 H   0  0  0  0  0  0
   60.3330   61.3185    1.7036 H   0  0  0  0  0  0
   60.0135   62.5397   -6.5767 H   0  0  0  0  0  0
   60.9423   61.5490   -5.4009 H   0  0  0  0  0  0
   63.1939   58.9083    0.2023 H   0  0  0  0  0  0
   59.0919   64.2571   -2.0444 H   0  0  0  0  0  0
   57.8881   63.0793   -2.6694 H   0  0  0  0  0  0
   65.1561   61.9441   -1.8495 H   0  0  0  0  0  0
   63.5503   64.9139   -4.8060 H   0  0  0  0  0  0
   64.6323   64.2133   -6.0571 H   0  0  0  0  0  0
   59.1406   63.3577    2.6031 H   0  0  0  0  0  0
   58.4450   61.7155    2.3884 H   0  0  0  0  0  0
   63.2510   60.6960    2.7146 H   0  0  0  0  0  0
   62.8596   58.9429    2.7148 H   0  0  0  0  0  0
   64.5843   63.8720   -0.5415 H   0  0  0  0  0  0
   64.4273   64.4530   -2.2340 H   0  0  0  0  0  0
   59.9849   60.7438    3.7187 H   0  0  0  0  0  0
   61.3004   61.8436    3.1835 H   0  0  0  0  0  0
   65.0472   59.3553    3.5890 H   0  0  0  0  0  0
   65.1517   58.4411    2.0462 H   0  0  0  0  0  0
   62.1140   64.5144   -2.1226 H   0  0  0  0  0  0
   62.0555   63.4626   -0.6677 H   0  0  0  0  0  0
   60.2107   61.7654    5.6989 H   0  0  0  0  0  0
   59.5078   63.2489    4.9695 H   0  0  0  0  0  0
   65.5618   60.6225    0.8608 H   0  0  0  0  0  0
   66.8411   60.1899    2.0453 H   0  0  0  0  0  0
   61.5484   65.7835   -0.1588 H   0  0  0  0  0  0
   63.1379   66.2885   -0.8260 H   0  0  0  0  0  0
   67.4750   60.5295    3.9412 H   0  0  0  0  0  0
   66.6470   60.8281    5.5070 H   0  0  0  0  0  0
   67.8134   62.0332    4.8637 H   0  0  0  0  0  0
   61.3583   65.6409    6.6605 H   0  0  0  0  0  0
   61.0276   63.9449    7.1514 H   0  0  0  0  0  0
   59.9660   64.7556    5.9503 H   0  0  0  0  0  0
   64.7062   67.2297   -0.2914 H   0  0  0  0  0  0
   65.9945   67.3226    1.1092 H   0  0  0  0  0  0
  1  3  2  0  0  0
  1 20  1  0  0  0
  1 27  1  0  0  0
  2 10  1  0  0  0
  2 27  1  0  0  0
  2 50  1  0  0  0
  4  6  2  0  0  0
  4 26  1  0  0  0
  4 29  1  0  0  0
  5 13  1  0  0  0
  5 29  1  0  0  0
  5 51  1  0  0  0
  7  9  1  0  0  0
  7 14  1  0  0  0
  7 47  1  0  0  0
  7 52  1  0  0  0
  8 19  1  0  0  0
  8 31  1  0  0  0
  8 53  1  0  0  0
  9 49  1  0  0  0
 10 12  2  0  0  0
 10 31  1  0  0  0
 11 22  1  0  0  0
 11 34  1  0  0  0
 11 54  1  0  0  0
 13 15  2  0  0  0
 13 32  1  0  0  0
 14 28  1  0  0  0
 14 43  1  0  0  0
 16 17  1  0  0  0
 16 18  1  0  0  0
 16 46  1  0  0  0
 16 55  1  0  0  0
 17 30  1  0  0  0
 17 44  1  0  0  0
 18 49  1  0  0  0
 19 21  2  0  0  0
 19 34  1  0  0  0
 20 32  1  0  0  0
 20 56  1  0  0  0
 22 35  1  0  0  0
 22 36  2  0  0  0
 23 25  1  0  0  0
 23 33  1  0  0  0
 23 45  1  0  0  0
 24 25  1  0  0  0
 24 49  1  0  0  0
 25 48  2  0  0  0
 26 35  1  0  0  0
 26 57  1  0  0  0
 27 37  1  0  0  0
 27 58  1  0  0  0
 28 49  1  0  0  0
 29 59  1  0  0  0
 29 60  1  0  0  0
 30 49  1  0  0  0
 31 38  1  0  0  0
 31 61  1  0  0  0
 32 62  1  0  0  0
 32 63  1  0  0  0
 33 49  1  0  0  0
 34 39  1  0  0  0
 34 64  1  0  0  0
 35 65  1  0  0  0
 35 66  1  0  0  0
 37 40  1  0  0  0
 37 67  1  0  0  0
 37 68  1  0  0  0
 38 41  1  0  0  0
 38 69  1  0  0  0
 38 70  1  0  0  0
 39 42  1  0  0  0
 39 71  1  0  0  0
 39 72  1  0  0  0
 40 43  1  0  0  0
 40 73  1  0  0  0
 40 74  1  0  0  0
 41 44  1  0  0  0
 41 75  1  0  0  0
 41 76  1  0  0  0
 42 45  1  0  0  0
 42 77  1  0  0  0
 42 78  1  0  0  0
 43 79  1  0  0  0
 43 80  1  0  0  0
 44 81  1  0  0  0
 44 82  1  0  0  0
 45 83  1  0  0  0
 45 84  1  0  0  0
 46 85  1  0  0  0
 46 86  1  0  0  0
 46 87  1  0  0  0
 47 88  1  0  0  0
 47 89  1  0  0  0
 47 90  1  0  0  0
 48 91  1  0  0  0
 48 92  1  0  0  0
M  END
> <s_m_source_file>
../4hmq_ligand.sdf

> <i_m_source_file_index>
1

> <s_epik_input>
W0ZlXTEyMzQ1T1tDQEBIXShbQ0gzXSlOKE8zKVtDSDJdW0NIMl1bQ0gyXVtDQEhdNkMoPU8pW05IXVtDSDJdQyg9TylbTkhdW0NIMl1DKD1PKVtOSF1bQ0gyXUMoPU8pW05IXVtDQEBIXShbQ0gyXVtDSDJdW0NIMl1bTitdKE81KT1DKE8yKVtDSDNdKUMoPU8pW05IXVtDQEhdKEMoPU8pW05IXTYpW0NIMl1bQ0gyXVtDSDJdTihPNClbQ0hdKE8xKVtDSDNd

> <s_epik_cmdline>
J2VwaWtfYXBwJywgJy1pbWFlJywgJ2xpZ2FuZF9wcm8ubWFlJywgJy1vbWFlJywgJ2xpZ2FuZF9wcmVwLm1hZScsICctbXMnLCAnMScsICctcGgnLCAnNycsICctcGh0JywgJzAuNScsICctbnQn

> <r_epik_Ionization_Penalty>
  0.0989

> <r_epik_Ionization_Penalty_Charging>
  0.0989

> <r_epik_Ionization_Penalty_Neutral>
  0.0000

> <r_epik_State_Penalty>
  0.0890

> <r_epik_Charging_Adjusted_Penalty>
0.187966229503314

> <i_epik_Tot_Q>
0

> <i_epik_Tot_abs_Q>
0

> <s_epik_Chemistry_Notes>
This compound has an imine and may undergo hydrolysis. This compound contains an acetal/aminal-like group ( X-CH(R)-Y where X, Y are N, S, or O) that may be acid/base labile, releasing an aldehyde. This compound has a N-S or N-O group and may undergo hydrolysis at high or low pH.

$$$$
