4hn2_ligand
                    3D
 Schrodinger Suite 2020-3.
 53 53  0  0  1  0            999 V2000
    0.9250   19.5720   10.0360 C   0  0  2  0  0  0
   -0.5540   19.8700    9.7830 C   0  0  1  0  0  0
   -1.2950   19.7920   11.1310 C   0  0  1  0  0  0
   -0.7690   20.8450   12.1000 C   0  0  2  0  0  0
    0.7410   20.6930   12.3200 C   0  0  1  0  0  0
    1.5300   20.6170   10.9890 C   0  0  1  0  0  0
    1.6620   19.5280    8.7930 O   0  0  0  0  0  0
   -0.7080   21.1780    9.1850 O   0  0  0  0  0  0
   -2.6910   20.0100   10.9360 O   0  0  0  0  0  0
   -1.4420   20.6730   13.3450 O   0  0  0  0  0  0
    1.2110   21.8060   13.1050 O   0  0  0  0  0  0
    2.8620   20.2170   11.2810 O   0  0  0  0  0  0
    2.2700   16.9800    9.1450 O   0  5  0  0  0  0
   -2.8100   21.1440    7.7190 O   0  5  0  0  0  0
   -3.5790   18.4770   12.8060 O   0  5  0  0  0  0
   -3.8370   21.5820   13.6810 O   0  5  0  0  0  0
    1.7650   20.3060   14.7910 O   0  0  0  0  0  0
    5.1400   20.8470   12.2040 O   0  5  0  0  0  0
    0.4310   17.6480    7.4640 O   0  0  0  0  0  0
   -0.6760   20.0450    6.8090 O   0  0  0  0  0  0
   -3.2400   17.5390   10.4310 O   0  0  0  0  0  0
   -1.9140   23.2450   13.2510 O   0  0  0  0  0  0
    3.5880   22.7110   11.2600 O   0  0  0  0  0  0
    2.9210   18.2110    6.9560 O   0  0  0  0  0  0
   -0.7150   22.5820    7.0490 O   0  0  0  0  0  0
   -5.1530   19.2830   10.8950 O   0  0  0  0  0  0
   -2.0090   21.9760   15.4920 O   0  0  0  0  0  0
    3.8300   24.5500   15.7470 O   0  5  0  0  0  0
    4.7090   20.9930    9.6590 O   0  0  0  0  0  0
    4.4020   22.5490   14.2130 O   0  0  0  0  0  0
    2.8190   24.3640   13.3480 O   0  0  0  0  0  0
    1.8920   18.0950    8.0240 P   0  0  0  0  0  0
   -1.1940   21.3250    7.6520 P   0  0  0  0  0  0
   -3.7700   18.8390   11.2440 P   0  0  0  0  0  0
   -2.2890   21.8820   14.0400 P   0  0  0  0  0  0
    1.6060   21.4580   14.3770 C   0  0  0  0  0  0
    4.1170   21.1900   11.0020 P   0  0  0  0  0  0
    1.8840   22.6460   15.2940 C   0  0  0  0  0  0
    3.2290   23.6120   14.5590 P   0  0  0  0  0  0
    1.0315   18.5619   10.4582 H   0  0  0  0  0  0
   -0.9856   19.1813    9.0418 H   0  0  0  0  0  0
   -1.1986   18.7837   11.5600 H   0  0  0  0  0  0
   -0.9976   21.8573   11.7354 H   0  0  0  0  0  0
    0.9332   19.7825   12.9066 H   0  0  0  0  0  0
    1.5747   21.6042   10.5059 H   0  0  0  0  0  0
   -0.4120   17.5287    8.1605 H   0  0  0  0  0  0
   -0.9481   19.0286    7.1296 H   0  0  0  0  0  0
   -2.2323   17.1426   10.6243 H   0  0  0  0  0  0
   -2.0720   23.3128   12.1645 H   0  0  0  0  0  0
    3.1284   22.9775   12.2232 H   0  0  0  0  0  0
    5.3389   22.8946   13.7517 H   0  0  0  0  0  0
    0.9766   23.2615   15.3820 H   0  0  0  0  0  0
    2.1770   22.2803   16.2892 H   0  0  0  0  0  0
  1  2  1  0  0  0
  1  6  1  0  0  0
  1  7  1  0  0  0
  1 40  1  0  0  0
  2  3  1  0  0  0
  2  8  1  0  0  0
  2 41  1  0  0  0
  3  4  1  0  0  0
  3  9  1  0  0  0
  3 42  1  0  0  0
  4  5  1  0  0  0
  4 10  1  0  0  0
  4 43  1  0  0  0
  5  6  1  0  0  0
  5 11  1  0  0  0
  5 44  1  0  0  0
  6 12  1  0  0  0
  6 45  1  0  0  0
  7 32  1  0  0  0
  8 33  1  0  0  0
  9 34  1  0  0  0
 10 35  1  0  0  0
 11 36  1  0  0  0
 12 37  1  0  0  0
 13 32  1  0  0  0
 14 33  1  0  0  0
 15 34  1  0  0  0
 16 35  1  0  0  0
 17 36  2  0  0  0
 18 37  1  0  0  0
 19 32  1  0  0  0
 19 46  1  0  0  0
 20 33  1  0  0  0
 20 47  1  0  0  0
 21 34  1  0  0  0
 21 48  1  0  0  0
 22 35  1  0  0  0
 22 49  1  0  0  0
 23 37  1  0  0  0
 23 50  1  0  0  0
 24 32  2  0  0  0
 25 33  2  0  0  0
 26 34  2  0  0  0
 27 35  2  0  0  0
 28 39  1  0  0  0
 29 37  2  0  0  0
 30 39  1  0  0  0
 30 51  1  0  0  0
 31 39  2  0  0  0
 36 38  1  0  0  0
 38 39  1  0  0  0
 38 52  1  0  0  0
 38 53  1  0  0  0
M  CHG  6  13  -1  14  -1  15  -1  16  -1  18  -1  28  -1
M  END
> <s_m_source_file>
../4hn2_ligand.sdf

> <i_m_source_file_index>
1

> <s_epik_input>
W09IXVAoPU8pKFtPSF0pT1tDQEBIXTFbQ0BIXShPUCg9TykoW09IXSlbT0hdKVtDQEhdKE9QKD1PKShbT0hdKVtPSF0pW0NAQEhdKE9QKD1PKShbT0hdKVtPSF0pW0NAQEhdKFtDQEhdMU9QKD1PKShbT0hdKVtPSF0pT0MoPU8pW0NIMl1QKD1PKShbT0hdKVtPSF0=

> <s_epik_cmdline>
J2VwaWtfYXBwJywgJy1pbWFlJywgJ2xpZ2FuZF9wcm8ubWFlJywgJy1vbWFlJywgJ2xpZ2FuZF9wcmVwLm1hZScsICctbXMnLCAnMScsICctcGgnLCAnNycsICctcGh0JywgJzAuNScsICctbnQn

> <r_lp_tautomer_probability>
1

> <r_epik_Ionization_Penalty>
  4.4679

> <r_epik_Ionization_Penalty_Charging>
  0.0006

> <r_epik_Ionization_Penalty_Neutral>
  4.4673

> <r_epik_State_Penalty>
 -0.0000

> <r_epik_Charging_Adjusted_Penalty>
0.000595471379479809

> <i_epik_Tot_Q>
-6

> <i_epik_Tot_abs_Q>
6

> <s_epik_Chemistry_Notes>
This compound has an ester and may undergo hydrolysis at high or low pH.

$$$$
