4hnc_ligand
                    3D
 Schrodinger Suite 2020-3.
 28 29  0  0  1  0            999 V2000
   18.1370   21.6670   63.0190 O   0  0  0  0  0  0
   19.2540   22.2380   63.1670 C   0  0  0  0  0  0
   19.3010   23.5110   63.4160 O   0  5  0  0  0  0
   20.4990   21.3910   63.0270 C   0  0  0  0  0  0
   20.1520   20.2390   62.2960 O   0  0  0  0  0  0
   21.5970   22.1240   62.2900 C   0  0  0  0  0  0
   21.9050   19.9190   64.5300 C   0  0  0  0  0  0
   22.3530   19.5150   65.7900 C   0  0  0  0  0  0
   21.8770   20.1330   66.9530 C   0  0  0  0  0  0
   20.9660   21.1730   66.8420 C   0  0  0  0  0  0
   20.5290   21.5800   65.5650 C   0  0  0  0  0  0
   20.9830   20.9620   64.3920 C   0  0  0  0  0  0
   21.9050   23.4670   62.5310 C   0  0  0  0  0  0
   22.9250   24.1060   61.8380 C   0  0  0  0  0  0
   23.6430   23.4080   60.8850 C   0  0  0  0  0  0
   23.3570   22.0800   60.6320 C   0  0  0  0  0  0
   22.3430   21.4430   61.3380 C   0  0  0  0  0  0
   19.7729   20.3336   61.2677 H   0  0  0  0  0  0
   22.2799   19.4134   63.6401 H   0  0  0  0  0  0
   23.0822   18.7087   65.8689 H   0  0  0  0  0  0
   22.2182   19.8008   67.9335 H   0  0  0  0  0  0
   20.5908   21.6719   67.7355 H   0  0  0  0  0  0
   19.8159   22.4008   65.4876 H   0  0  0  0  0  0
   21.3344   24.0218   63.2758 H   0  0  0  0  0  0
   23.1578   25.1507   62.0442 H   0  0  0  0  0  0
   24.4379   23.9072   60.3309 H   0  0  0  0  0  0
   23.9256   21.5328   59.8801 H   0  0  0  0  0  0
   22.1304   20.3923   61.1409 H   0  0  0  0  0  0
  1  2  2  0  0  0
  2  3  1  0  0  0
  2  4  1  0  0  0
  4  5  1  0  0  0
  4  6  1  0  0  0
  4 12  1  0  0  0
  5 18  1  0  0  0
  6 13  2  0  0  0
  6 17  1  0  0  0
  7  8  2  0  0  0
  7 12  1  0  0  0
  7 19  1  0  0  0
  8  9  1  0  0  0
  8 20  1  0  0  0
  9 10  2  0  0  0
  9 21  1  0  0  0
 10 11  1  0  0  0
 10 22  1  0  0  0
 11 12  2  0  0  0
 11 23  1  0  0  0
 13 14  1  0  0  0
 13 24  1  0  0  0
 14 15  2  0  0  0
 14 25  1  0  0  0
 15 16  1  0  0  0
 15 26  1  0  0  0
 16 17  2  0  0  0
 16 27  1  0  0  0
 17 28  1  0  0  0
M  CHG  1   3  -1
M  END
> <s_m_source_file>
../4hnc_ligand.sdf

> <i_m_source_file_index>
1

> <s_epik_input>
W2NIXTFbY0hdW2NIXVtjSF1bY0hdYzFDKFtPSF0pKEMoPU8pW09IXSljMltjSF1bY0hdW2NIXVtjSF1bY0hdMg==

> <s_epik_cmdline>
J2VwaWtfYXBwJywgJy1pbWFlJywgJ2xpZ2FuZF9wcm8ubWFlJywgJy1vbWFlJywgJ2xpZ2FuZF9wcmVwLm1hZScsICctbXMnLCAnMScsICctcGgnLCAnNycsICctcGh0JywgJzAuNScsICctbnQn

> <r_lp_tautomer_probability>
1

> <r_epik_Ionization_Penalty>
  0.0001

> <r_epik_Ionization_Penalty_Charging>
  0.0001

> <r_epik_Ionization_Penalty_Neutral>
  0.0000

> <r_epik_State_Penalty>
 -0.0000

> <r_epik_Charging_Adjusted_Penalty>
6.58648613842364e-05

> <i_epik_Tot_Q>
-1

> <i_epik_Tot_abs_Q>
1

$$$$
