4hnf_ligand
                    3D
 Schrodinger Suite 2020-3.
 43 46  0  0  1  0            999 V2000
   23.6650   -8.0350   24.7180 C   0  0  0  0  0  0
   24.8510   -7.5520   24.0560 C   0  0  0  0  0  0
   25.8740   -8.4980   23.5850 C   0  0  0  0  0  0
   26.7530   -1.3490   21.7220 C   0  0  0  0  0  0
   25.5780   -1.9430   23.7210 C   0  0  0  0  0  0
   25.1320   -3.2210   23.1900 C   0  0  0  0  0  0
   25.5540   -3.4640   21.8660 C   0  0  0  0  0  0
   24.3800   -3.8970   24.2120 C   0  0  0  0  0  0
   23.8500   -5.2820   24.1650 C   0  0  0  0  0  0
   24.1390    0.5900   27.7680 C   0  0  0  0  0  0
   26.4890   -0.0570   27.9570 C   0  0  0  0  0  0
   26.2930   -1.1910   26.9510 C   0  0  0  0  0  0
   25.2110   -0.8610   25.9190 C   0  0  0  0  0  0
   26.3700   -1.0190   23.0150 N   0  0  0  0  0  0
   26.3420   -2.5500   21.1780 N   0  0  0  0  0  0
   25.0490   -1.9670   24.9620 N   0  0  0  0  0  0
   24.3710   -3.0620   25.2490 N   0  0  0  0  0  0
   25.1770   -4.5500   21.1680 N   0  0  0  0  0  0
   25.0090   -6.1730   23.8840 O   0  0  0  0  0  0
   25.2100    0.1700   28.6060 O   0  0  0  0  0  0
   23.9100   -0.4670   26.6360 C   0  0  0  0  0  0
   25.7380   -9.9120   23.7640 C   0  0  0  0  0  0
   24.5480  -10.3710   24.4330 C   0  0  0  0  0  0
   23.5490   -9.4310   24.8880 C   0  0  0  0  0  0
   22.1420   -9.9180   25.6700 Cl  0  0  0  0  0  0
   22.8923   -7.3523   25.0715 H   0  0  0  0  0  0
   26.7619   -8.1112   23.0849 H   0  0  0  0  0  0
   27.3728   -0.6660   21.1411 H   0  0  0  0  0  0
   23.3896   -5.5314   25.1324 H   0  0  0  0  0  0
   23.0948   -5.3588   23.3689 H   0  0  0  0  0  0
   23.2215    0.6879   28.3669 H   0  0  0  0  0  0
   24.3868    1.5615   27.3154 H   0  0  0  0  0  0
   27.2502   -0.3494   28.6953 H   0  0  0  0  0  0
   26.8200    0.8491   27.4283 H   0  0  0  0  0  0
   27.2360   -1.3721   26.4143 H   0  0  0  0  0  0
   25.9926   -2.1056   27.4833 H   0  0  0  0  0  0
   25.5184   -0.0202   25.2799 H   0  0  0  0  0  0
   24.5516   -5.3198   21.6437 H   0  0  0  0  0  0
   25.4940   -4.6685   20.1214 H   0  0  0  0  0  0
   23.4748   -1.3797   27.0692 H   0  0  0  0  0  0
   23.2224   -0.0546   25.8829 H   0  0  0  0  0  0
   26.4989  -10.6080   23.4108 H   0  0  0  0  0  0
   24.3994  -11.4382   24.5978 H   0  0  0  0  0  0
  1  2  2  0  0  0
  1 24  1  0  0  0
  1 26  1  0  0  0
  2  3  1  0  0  0
  2 19  1  0  0  0
  3 22  2  0  0  0
  3 27  1  0  0  0
  4 14  2  0  0  0
  4 15  1  0  0  0
  4 28  1  0  0  0
  5  6  2  0  0  0
  5 14  1  0  0  0
  5 16  1  0  0  0
  6  7  1  0  0  0
  6  8  1  0  0  0
  7 15  2  0  0  0
  7 18  1  0  0  0
  8  9  1  0  0  0
  8 17  2  0  0  0
  9 19  1  0  0  0
  9 29  1  0  0  0
  9 30  1  0  0  0
 10 20  1  0  0  0
 10 21  1  0  0  0
 10 31  1  0  0  0
 10 32  1  0  0  0
 11 12  1  0  0  0
 11 20  1  0  0  0
 11 33  1  0  0  0
 11 34  1  0  0  0
 12 13  1  0  0  0
 12 35  1  0  0  0
 12 36  1  0  0  0
 13 16  1  0  0  0
 13 21  1  0  0  0
 13 37  1  0  0  0
 16 17  1  0  0  0
 18 38  1  0  0  0
 18 39  1  0  0  0
 21 40  1  0  0  0
 21 41  1  0  0  0
 22 23  1  0  0  0
 22 42  1  0  0  0
 23 24  2  0  0  0
 23 43  1  0  0  0
 24 25  1  0  0  0
M  END
> <s_m_source_file>
../4hnf_ligand.sdf

> <i_m_source_file_index>
1

> <s_epik_input>
W2NIXTFbY0hdW2NIXWMoQ2wpW2NIXWMxT1tDSDJdYyhjKGMyMyljKFtOSDJdKW5bY0hdbjIpbm4zW0NIXTRbQ0gyXVtDSDJdT1tDSDJdW0NIMl00

> <s_epik_cmdline>
J2VwaWtfYXBwJywgJy1pbWFlJywgJ2xpZ2FuZF9wcm8ubWFlJywgJy1vbWFlJywgJ2xpZ2FuZF9wcmVwLm1hZScsICctbXMnLCAnMScsICctcGgnLCAnNycsICctcGh0JywgJzAuNScsICctbnQn

> <r_lp_tautomer_probability>
1

> <r_epik_Ionization_Penalty>
  0.0010

> <r_epik_Ionization_Penalty_Charging>
  0.0000

> <r_epik_Ionization_Penalty_Neutral>
  0.0010

> <r_epik_State_Penalty>
 -0.0000

> <r_epik_Charging_Adjusted_Penalty>
0

> <i_epik_Tot_Q>
0

> <i_epik_Tot_abs_Q>
0

$$$$
