4hni_ligand
                    3D
 Schrodinger Suite 2020-3.
 43 46  0  0  1  0            999 V2000
  -24.2520  -11.7370  -30.9200 C   0  0  0  0  0  0
  -23.8020  -12.4060  -29.7660 C   0  0  0  0  0  0
  -22.5180  -12.0460  -29.1520 C   0  0  0  0  0  0
  -27.3490  -16.5450  -25.4750 C   0  0  0  0  0  0
  -27.2870  -16.3570  -27.8910 C   0  0  0  0  0  0
  -26.7670  -15.0120  -27.8400 C   0  0  0  0  0  0
  -26.5700  -14.4970  -26.5430 C   0  0  0  0  0  0
  -26.6120  -14.6040  -29.1940 C   0  0  0  0  0  0
  -26.0760  -13.3550  -29.6910 C   0  0  0  0  0  0
  -29.7740  -18.8020  -31.1800 C   0  0  0  0  0  0
  -27.4900  -19.8010  -31.2580 C   0  0  0  0  0  0
  -26.9340  -18.5460  -30.6780 C   0  0  0  0  0  0
  -27.9020  -17.8340  -29.7360 C   0  0  0  0  0  0
  -27.5650  -17.0960  -26.7250 N   0  0  0  0  0  0
  -26.8570  -15.2560  -25.4200 N   0  0  0  0  0  0
  -27.3910  -16.5940  -29.2010 N   0  0  0  0  0  0
  -27.0100  -15.6030  -29.9410 N   0  0  0  0  0  0
  -26.1330  -13.2400  -26.3320 N   0  0  0  0  0  0
  -24.6850  -13.3780  -29.2840 O   0  0  0  0  0  0
  -28.7200  -19.4870  -31.9110 O   0  0  0  0  0  0
  -29.2350  -17.5840  -30.4430 C   0  0  0  0  0  0
  -21.6890  -10.9800  -29.7340 C   0  0  0  0  0  0
  -22.1750  -10.3000  -30.9230 C   0  0  0  0  0  0
  -23.4530  -10.7400  -31.4370 C   0  0  0  0  0  0
  -24.3660  -10.2070  -32.7160 Cl  0  0  0  0  0  0
  -25.2005  -11.9987  -31.3890 H   0  0  0  0  0  0
  -22.1774  -12.5717  -28.2600 H   0  0  0  0  0  0
  -27.5596  -17.1081  -24.5658 H   0  0  0  0  0  0
  -26.1854  -13.3185  -30.7849 H   0  0  0  0  0  0
  -26.6244  -12.5151  -29.2394 H   0  0  0  0  0  0
  -30.5515  -18.4694  -31.8834 H   0  0  0  0  0  0
  -30.2157  -19.4893  -30.4434 H   0  0  0  0  0  0
  -26.7747  -20.2187  -31.9818 H   0  0  0  0  0  0
  -27.6657  -20.5304  -30.4535 H   0  0  0  0  0  0
  -26.0249  -18.7787  -30.1041 H   0  0  0  0  0  0
  -26.6863  -17.8455  -31.4891 H   0  0  0  0  0  0
  -28.0195  -18.4602  -28.8393 H   0  0  0  0  0  0
  -25.8897  -12.5916  -27.1866 H   0  0  0  0  0  0
  -26.0195  -12.8623  -25.3051 H   0  0  0  0  0  0
  -29.0778  -16.7628  -31.1578 H   0  0  0  0  0  0
  -29.9585  -17.2694  -29.6765 H   0  0  0  0  0  0
  -20.7341  -10.7067  -29.2850 H   0  0  0  0  0  0
  -21.6071   -9.5019  -31.4012 H   0  0  0  0  0  0
  1  2  2  0  0  0
  1 24  1  0  0  0
  1 26  1  0  0  0
  2  3  1  0  0  0
  2 19  1  0  0  0
  3 22  2  0  0  0
  3 27  1  0  0  0
  4 14  2  0  0  0
  4 15  1  0  0  0
  4 28  1  0  0  0
  5  6  2  0  0  0
  5 14  1  0  0  0
  5 16  1  0  0  0
  6  7  1  0  0  0
  6  8  1  0  0  0
  7 15  2  0  0  0
  7 18  1  0  0  0
  8  9  1  0  0  0
  8 17  2  0  0  0
  9 19  1  0  0  0
  9 29  1  0  0  0
  9 30  1  0  0  0
 10 20  1  0  0  0
 10 21  1  0  0  0
 10 31  1  0  0  0
 10 32  1  0  0  0
 11 12  1  0  0  0
 11 20  1  0  0  0
 11 33  1  0  0  0
 11 34  1  0  0  0
 12 13  1  0  0  0
 12 35  1  0  0  0
 12 36  1  0  0  0
 13 16  1  0  0  0
 13 21  1  0  0  0
 13 37  1  0  0  0
 16 17  1  0  0  0
 18 38  1  0  0  0
 18 39  1  0  0  0
 21 40  1  0  0  0
 21 41  1  0  0  0
 22 23  1  0  0  0
 22 42  1  0  0  0
 23 24  2  0  0  0
 23 43  1  0  0  0
 24 25  1  0  0  0
M  END
> <s_m_source_file>
../4hni_ligand.sdf

> <i_m_source_file_index>
1

> <s_epik_input>
W2NIXTFbY0hdW2NIXWMoQ2wpW2NIXWMxT1tDSDJdYyhjKGMyMyljKFtOSDJdKW5bY0hdbjIpbm4zW0NIXTRbQ0gyXVtDSDJdT1tDSDJdW0NIMl00

> <s_epik_cmdline>
J2VwaWtfYXBwJywgJy1pbWFlJywgJ2xpZ2FuZF9wcm8ubWFlJywgJy1vbWFlJywgJ2xpZ2FuZF9wcmVwLm1hZScsICctbXMnLCAnMScsICctcGgnLCAnNycsICctcGh0JywgJzAuNScsICctbnQn

> <r_lp_tautomer_probability>
1

> <r_epik_Ionization_Penalty>
  0.0010

> <r_epik_Ionization_Penalty_Charging>
  0.0000

> <r_epik_Ionization_Penalty_Neutral>
  0.0010

> <r_epik_State_Penalty>
 -0.0000

> <r_epik_Charging_Adjusted_Penalty>
0

> <i_epik_Tot_Q>
0

> <i_epik_Tot_abs_Q>
0

$$$$
