4hnp_ligand
                    3D
 Schrodinger Suite 2020-3.
 86 85  0  0  1  0            999 V2000
   58.0560 -134.6970   33.9240 C   0  0  0  0  0  0
   59.1620 -135.3690   34.7070 C   0  0  0  0  0  0
   59.0140 -136.5110   35.1240 O   0  0  0  0  0  0
   56.8290 -134.5740   34.8200 C   0  0  0  0  0  0
   55.8660 -133.5070   34.3200 C   0  0  0  0  0  0
   54.4290 -133.8370   34.7120 C   0  0  0  0  0  0
   53.4490 -133.3010   33.6880 C   0  0  0  0  0  0
   60.2600 -134.6370   34.8990 N   0  0  0  0  0  0
   61.4310 -135.0910   35.6330 C   0  0  2  0  0  0
   61.1110 -135.2220   37.0990 C   0  0  0  0  0  0
   60.5320 -134.3120   37.6690 O   0  0  0  0  0  0
   62.5780 -134.1070   35.3990 C   0  0  0  0  0  0
   63.0620 -134.1630   33.9560 C   0  0  0  0  0  0
   63.7470 -134.3290   36.3490 C   0  0  0  0  0  0
   62.4700 -136.5670   39.9600 C   0  0  0  0  0  0
   58.1100 -138.4350   38.8450 C   0  0  0  0  0  0
   59.4880 -138.2570   38.2460 C   0  0  0  0  0  0
   61.4770 -136.3520   37.7100 N   0  0  0  0  0  0
   57.9440 -139.2210   39.7660 O   0  0  0  0  0  0
   57.1130 -137.7160   38.3150 N   0  0  0  0  0  0
   56.9870 -136.2790   38.5280 C   0  0  0  0  0  0
   56.0670 -138.3110   37.4820 C   0  0  0  0  0  0
   61.2190 -136.6060   39.1220 C   0  0  1  0  0  0
   60.5140 -137.9470   39.3320 C   0  0  0  0  0  0
   63.5720 -136.7460   39.4560 O   0  0  0  0  0  0
   62.2900 -136.3320   41.2600 N   0  0  0  0  0  0
   63.3740 -136.2510   42.2250 C   0  0  2  0  0  0
   63.2910 -137.4020   43.2410 C   0  0  1  0  0  0
   62.0880 -137.2420   44.0150 O   0  0  0  0  0  0
   63.2450 -138.7470   42.5260 C   0  0  0  0  0  0
   64.3580 -139.1740   41.6090 C   0  0  0  0  0  0
   62.2280 -139.5750   42.7010 C   0  0  0  0  0  0
   63.3180 -134.8760   42.8950 C   0  0  0  0  0  0
   64.3220 -133.8330   42.4020 C   0  0  0  0  0  0
   64.7250 -133.9680   40.9370 C   0  0  0  0  0  0
   63.7790 -132.4330   42.6620 C   0  0  0  0  0  0
   58.3876 -133.6979   33.6049 H   0  0  0  0  0  0
   57.8132 -135.3029   33.0386 H   0  0  0  0  0  0
   56.2952 -135.5355   34.8447 H   0  0  0  0  0  0
   57.1443 -134.3034   35.8385 H   0  0  0  0  0  0
   56.1359 -132.5350   34.7585 H   0  0  0  0  0  0
   55.9259 -133.4438   33.2234 H   0  0  0  0  0  0
   54.3083 -134.9284   34.7777 H   0  0  0  0  0  0
   54.2019 -133.3836   35.6881 H   0  0  0  0  0  0
   52.4232 -133.5528   33.9953 H   0  0  0  0  0  0
   53.6594 -133.7530   32.7075 H   0  0  0  0  0  0
   53.5530 -132.2082   33.6179 H   0  0  0  0  0  0
   60.2433 -133.6289   34.4592 H   0  0  0  0  0  0
   61.6937 -136.0892   35.2527 H   0  0  0  0  0  0
   62.1759 -133.1040   35.6048 H   0  0  0  0  0  0
   62.2114 -134.0017   33.2775 H   0  0  0  0  0  0
   63.5081 -135.1486   33.7569 H   0  0  0  0  0  0
   63.8160 -133.3792   33.7915 H   0  0  0  0  0  0
   63.3882 -134.2869   37.3880 H   0  0  0  0  0  0
   64.5026 -133.5456   36.1899 H   0  0  0  0  0  0
   64.1947 -135.3149   36.1553 H   0  0  0  0  0  0
   59.7858 -139.1817   37.7301 H   0  0  0  0  0  0
   59.4704 -137.4251   37.5265 H   0  0  0  0  0  0
   61.9937 -137.1081   37.1006 H   0  0  0  0  0  0
   57.8146 -135.9284   39.1621 H   0  0  0  0  0  0
   56.0288 -136.0645   39.0238 H   0  0  0  0  0  0
   57.0225 -135.7602   37.5587 H   0  0  0  0  0  0
   56.2489 -139.3912   37.3810 H   0  0  0  0  0  0
   56.0799 -137.8424   36.4869 H   0  0  0  0  0  0
   55.0862 -138.1467   37.9521 H   0  0  0  0  0  0
   60.5735 -135.7646   39.4142 H   0  0  0  0  0  0
   60.0128 -137.9116   40.3105 H   0  0  0  0  0  0
   61.2847 -138.7318   39.3430 H   0  0  0  0  0  0
   61.2493 -136.1961   41.5892 H   0  0  0  0  0  0
   64.3168 -136.3612   41.6692 H   0  0  0  0  0  0
   64.1411 -137.3772   43.9387 H   0  0  0  0  0  0
   61.9325 -136.3282   44.6072 H   0  0  0  0  0  0
   65.1228 -138.3844   41.5682 H   0  0  0  0  0  0
   63.9557 -139.3472   40.6000 H   0  0  0  0  0  0
   64.8095 -140.1026   41.9881 H   0  0  0  0  0  0
   61.3975 -139.2934   43.3651 H   0  0  0  0  0  0
   62.2130 -140.5450   42.1824 H   0  0  0  0  0  0
   62.3237 -134.4322   42.7386 H   0  0  0  0  0  0
   63.5051 -134.9857   43.9734 H   0  0  0  0  0  0
   65.2435 -134.0118   42.9755 H   0  0  0  0  0  0
   65.1159 -134.9802   40.7560 H   0  0  0  0  0  0
   65.5028 -133.2269   40.7009 H   0  0  0  0  0  0
   63.8469 -133.7943   40.2977 H   0  0  0  0  0  0
   63.4904 -132.3422   43.7196 H   0  0  0  0  0  0
   62.8994 -132.2568   42.0254 H   0  0  0  0  0  0
   64.5553 -131.6895   42.4287 H   0  0  0  0  0  0
  1  2  1  0  0  0
  1  4  1  0  0  0
  1 37  1  0  0  0
  1 38  1  0  0  0
  2  3  2  0  0  0
  2  8  1  0  0  0
  4  5  1  0  0  0
  4 39  1  0  0  0
  4 40  1  0  0  0
  5  6  1  0  0  0
  5 41  1  0  0  0
  5 42  1  0  0  0
  6  7  1  0  0  0
  6 43  1  0  0  0
  6 44  1  0  0  0
  7 45  1  0  0  0
  7 46  1  0  0  0
  7 47  1  0  0  0
  8  9  1  0  0  0
  8 48  1  0  0  0
  9 10  1  0  0  0
  9 12  1  0  0  0
  9 49  1  0  0  0
 10 11  2  0  0  0
 10 18  1  0  0  0
 12 13  1  0  0  0
 12 14  1  0  0  0
 12 50  1  0  0  0
 13 51  1  0  0  0
 13 52  1  0  0  0
 13 53  1  0  0  0
 14 54  1  0  0  0
 14 55  1  0  0  0
 14 56  1  0  0  0
 15 23  1  0  0  0
 15 25  2  0  0  0
 15 26  1  0  0  0
 16 17  1  0  0  0
 16 19  2  0  0  0
 16 20  1  0  0  0
 17 24  1  0  0  0
 17 57  1  0  0  0
 17 58  1  0  0  0
 18 23  1  0  0  0
 18 59  1  0  0  0
 20 21  1  0  0  0
 20 22  1  0  0  0
 21 60  1  0  0  0
 21 61  1  0  0  0
 21 62  1  0  0  0
 22 63  1  0  0  0
 22 64  1  0  0  0
 22 65  1  0  0  0
 23 24  1  0  0  0
 23 66  1  0  0  0
 24 67  1  0  0  0
 24 68  1  0  0  0
 26 27  1  0  0  0
 26 69  1  0  0  0
 27 28  1  0  0  0
 27 33  1  0  0  0
 27 70  1  0  0  0
 28 29  1  0  0  0
 28 30  1  0  0  0
 28 71  1  0  0  0
 29 72  1  0  0  0
 30 31  1  0  0  0
 30 32  2  0  0  0
 31 73  1  0  0  0
 31 74  1  0  0  0
 31 75  1  0  0  0
 32 76  1  0  0  0
 32 77  1  0  0  0
 33 34  1  0  0  0
 33 78  1  0  0  0
 33 79  1  0  0  0
 34 35  1  0  0  0
 34 36  1  0  0  0
 34 80  1  0  0  0
 35 81  1  0  0  0
 35 82  1  0  0  0
 35 83  1  0  0  0
 36 84  1  0  0  0
 36 85  1  0  0  0
 36 86  1  0  0  0
M  END
> <s_m_source_file>
../4hnp_ligand.sdf

> <i_m_source_file_index>
1

> <s_epik_input>
W0NIM11bQ0gyXVtDSDJdW0NIMl1bQ0gyXUMoPU8pW05IXVtDQEBIXShbQ0hdKFtDSDNdKVtDSDNdKUMoPU8pW05IXVtDQEBIXShbQ0gyXVtDSDJdQyg9TylOKFtDSDNdKVtDSDNdKUMoPU8pW05IXVtDQEhdKFtDQEBIXShbT0hdKUMoW0NIM10pPVtDSDJdKVtDSDJdW0NIXShbQ0gzXSlbQ0gzXQ==

> <s_epik_cmdline>
J2VwaWtfYXBwJywgJy1pbWFlJywgJ2xpZ2FuZF9wcm8ubWFlJywgJy1vbWFlJywgJ2xpZ2FuZF9wcmVwLm1hZScsICctbXMnLCAnMScsICctcGgnLCAnNycsICctcGh0JywgJzAuNScsICctbnQn

> <r_lp_tautomer_probability>
1

> <r_epik_Ionization_Penalty>
  0.0000

> <r_epik_Ionization_Penalty_Charging>
  0.0000

> <r_epik_Ionization_Penalty_Neutral>
  0.0000

> <r_epik_State_Penalty>
 -0.0000

> <r_epik_Charging_Adjusted_Penalty>
0

> <i_epik_Tot_Q>
0

> <i_epik_Tot_abs_Q>
0

$$$$
