4hp0_ligand
                    3D
 Schrodinger Suite 2020-3.
106109  0  0  1  0            999 V2000
   23.6160    8.6300   -2.6920 C   0  0  0  0  0  0
   24.4030    8.8570   -3.9740 C   0  0  2  0  0  0
   24.4800   10.2670   -4.1840 O   0  0  0  0  0  0
   23.7460    8.1510   -5.1600 C   0  0  1  0  0  0
   24.5050    8.3820   -6.3340 O   0  0  0  0  0  0
   23.6930    6.6450   -4.9260 C   0  0  2  0  0  0
   23.0830    5.9390   -6.0110 O   0  0  0  0  0  0
   22.8630    6.3870   -3.6900 C   0  0  2  0  0  0
   23.2940    7.2170   -2.5670 N   0  3  0  0  0  0
   22.9620    4.9150   -3.3130 C   0  0  0  0  0  0
   24.2990    4.6870   -2.8740 O   0  0  0  0  0  0
   23.7380    5.2510   -7.0620 C   0  0  1  0  0  0
   23.0920    4.0310   -7.7100 C   0  0  1  0  0  0
   23.9820    3.4950   -8.8090 C   0  0  2  0  0  0
   24.4430    4.6310   -9.7370 C   0  0  1  0  0  0
   24.8780    5.9080   -8.9870 C   0  0  1  0  0  0
   25.1440    7.1080   -9.9070 C   0  0  0  0  0  0
   21.6130    2.6610   -6.3160 C   0  0  0  0  0  0
   21.5580    1.6870   -5.1850 C   0  0  0  0  0  0
   22.8410    3.0510   -6.6680 N   0  0  0  0  0  0
   23.2570    2.4970   -9.4970 O   0  0  0  0  0  0
   25.5790    4.1580  -10.4130 O   0  0  0  0  0  0
   23.9330    6.2830   -8.0080 O   0  0  0  0  0  0
   23.9870    7.4620  -10.6430 O   0  0  0  0  0  0
   20.5760    3.0450   -6.8570 O   0  0  0  0  0  0
   25.3670    3.9330  -11.8150 C   0  0  1  0  0  0
   26.7680    3.8610  -12.4170 C   0  0  1  0  0  0
   26.7520    3.3500  -13.8520 C   0  0  2  0  0  0
   25.8570    2.1190  -14.0000 C   0  0  1  0  0  0
   24.4770    2.4090  -13.4110 C   0  0  1  0  0  0
   23.4970    1.2460  -13.5700 C   0  0  0  0  0  0
   28.3850    5.4470  -11.4660 C   0  0  0  0  0  0
   28.9630    6.8330  -11.5240 C   0  0  0  0  0  0
   27.4250    5.1620  -12.3500 N   0  0  0  0  0  0
   28.0770    3.0380  -14.2190 O   0  0  0  0  0  0
   25.7170    1.7830  -15.3610 O   0  0  0  0  0  0
   24.6320    2.7440  -12.0480 O   0  0  0  0  0  0
   23.9470    0.1030  -12.8720 O   0  0  0  0  0  0
   28.8010    4.6420  -10.6310 O   0  0  0  0  0  0
   26.2100    0.4590  -15.6190 C   0  0  1  0  0  0
   25.5900   -0.0720  -16.9140 C   0  0  1  0  0  0
   26.1810   -1.4310  -17.2760 C   0  0  2  0  0  0
   27.7050   -1.3540  -17.2630 C   0  0  1  0  0  0
   28.1740   -0.8340  -15.9060 C   0  0  1  0  0  0
   29.6950   -0.7840  -15.8070 C   0  0  0  0  0  0
   23.3540    0.6660  -17.5390 C   0  0  0  0  0  0
   21.8770    0.5080  -17.3410 C   0  0  0  0  0  0
   24.1400   -0.1290  -16.8140 N   0  0  0  0  0  0
   25.7320   -1.8230  -18.5520 O   0  0  0  0  0  0
   28.2510   -2.6260  -17.5200 O   0  0  0  0  0  0
   27.6230    0.4550  -15.6980 O   0  0  0  0  0  0
   30.1690    0.3950  -16.4180 O   0  0  0  0  0  0
   23.7800    1.4970  -18.3480 O   0  0  0  0  0  0
   24.2208    8.9468   -1.8295 H   0  0  0  0  0  0
   22.6865    9.2173   -2.7235 H   0  0  0  0  0  0
   25.4384    8.4957   -3.8877 H   0  0  0  0  0  0
   24.9293   10.9137   -3.4160 H   0  0  0  0  0  0
   22.7447    8.5690   -5.3407 H   0  0  0  0  0  0
   24.6699    9.4100   -6.6889 H   0  0  0  0  0  0
   24.7160    6.2453   -4.8648 H   0  0  0  0  0  0
   21.8224    6.6808   -3.8920 H   0  0  0  0  0  0
   24.1762    6.6709   -2.2016 H   0  0  0  0  0  0
   22.4645    7.0915   -1.8556 H   0  0  0  0  0  0
   22.2453    4.6936   -2.5084 H   0  0  0  0  0  0
   22.7300    4.2951   -4.1915 H   0  0  0  0  0  0
   24.6070    3.6827   -2.5475 H   0  0  0  0  0  0
   24.6529    4.8374   -6.6128 H   0  0  0  0  0  0
   22.1138    4.2563   -8.1599 H   0  0  0  0  0  0
   24.8679    2.9776   -8.4121 H   0  0  0  0  0  0
   23.6459    4.8694  -10.4566 H   0  0  0  0  0  0
   25.7895    5.6642   -8.4216 H   0  0  0  0  0  0
   25.4505    7.9736   -9.3013 H   0  0  0  0  0  0
   25.9453    6.8552  -10.6170 H   0  0  0  0  0  0
   22.5791    1.4689   -4.8389 H   0  0  0  0  0  0
   21.0796    0.7567   -5.5252 H   0  0  0  0  0  0
   20.9748    2.1181   -4.3579 H   0  0  0  0  0  0
   23.6835    2.5938   -6.1285 H   0  0  0  0  0  0
   22.8677    1.6250   -8.9510 H   0  0  0  0  0  0
   24.0203    8.3059  -11.3478 H   0  0  0  0  0  0
   24.7107    4.7074  -12.2388 H   0  0  0  0  0  0
   27.3733    3.1744  -11.8069 H   0  0  0  0  0  0
   26.4143    4.1314  -14.5486 H   0  0  0  0  0  0
   26.3222    1.2370  -13.5356 H   0  0  0  0  0  0
   24.0383    3.2928  -13.8972 H   0  0  0  0  0  0
   22.5142    1.5376  -13.1712 H   0  0  0  0  0  0
   23.3995    0.9918  -14.6358 H   0  0  0  0  0  0
   28.4705    7.4024  -12.3260 H   0  0  0  0  0  0
   30.0423    6.7719  -11.7273 H   0  0  0  0  0  0
   28.7993    7.3391  -10.5612 H   0  0  0  0  0  0
   27.1349    5.9613  -13.0479 H   0  0  0  0  0  0
   28.8574    3.8118  -14.1722 H   0  0  0  0  0  0
   23.3508   -0.8213  -12.8879 H   0  0  0  0  0  0
   25.9742   -0.1612  -14.7417 H   0  0  0  0  0  0
   25.7804    0.6329  -17.7368 H   0  0  0  0  0  0
   25.8167   -2.2168  -16.5979 H   0  0  0  0  0  0
   28.0888   -0.7289  -18.0827 H   0  0  0  0  0  0
   27.7867   -1.4672  -15.0942 H   0  0  0  0  0  0
   29.9940   -0.7933  -14.7485 H   0  0  0  0  0  0
   30.1246   -1.6588  -16.3171 H   0  0  0  0  0  0
   21.6893   -0.2720  -16.5884 H   0  0  0  0  0  0
   21.4083    0.2191  -18.2933 H   0  0  0  0  0  0
   21.4493    1.4609  -16.9960 H   0  0  0  0  0  0
   23.6638   -0.8426  -16.1255 H   0  0  0  0  0  0
   24.6548   -1.9313  -18.7467 H   0  0  0  0  0  0
   28.0135   -3.1469  -18.4593 H   0  0  0  0  0  0
   31.2484    0.6052  -16.4442 H   0  0  0  0  0  0
  1  2  1  0  0  0
  1  9  1  0  0  0
  1 54  1  0  0  0
  1 55  1  0  0  0
  2  3  1  0  0  0
  2  4  1  0  0  0
  2 56  1  0  0  0
  3 57  1  0  0  0
  4  5  1  0  0  0
  4  6  1  0  0  0
  4 58  1  0  0  0
  5 59  1  0  0  0
  6  7  1  0  0  0
  6  8  1  0  0  0
  6 60  1  0  0  0
  7 12  1  0  0  0
  8  9  1  0  0  0
  8 10  1  0  0  0
  8 61  1  0  0  0
  9 62  1  0  0  0
  9 63  1  0  0  0
 10 11  1  0  0  0
 10 64  1  0  0  0
 10 65  1  0  0  0
 11 66  1  0  0  0
 12 13  1  0  0  0
 12 23  1  0  0  0
 12 67  1  0  0  0
 13 14  1  0  0  0
 13 20  1  0  0  0
 13 68  1  0  0  0
 14 15  1  0  0  0
 14 21  1  0  0  0
 14 69  1  0  0  0
 15 16  1  0  0  0
 15 22  1  0  0  0
 15 70  1  0  0  0
 16 17  1  0  0  0
 16 23  1  0  0  0
 16 71  1  0  0  0
 17 24  1  0  0  0
 17 72  1  0  0  0
 17 73  1  0  0  0
 18 19  1  0  0  0
 18 20  1  0  0  0
 18 25  2  0  0  0
 19 74  1  0  0  0
 19 75  1  0  0  0
 19 76  1  0  0  0
 20 77  1  0  0  0
 21 78  1  0  0  0
 22 26  1  0  0  0
 24 79  1  0  0  0
 26 27  1  0  0  0
 26 37  1  0  0  0
 26 80  1  0  0  0
 27 28  1  0  0  0
 27 34  1  0  0  0
 27 81  1  0  0  0
 28 29  1  0  0  0
 28 35  1  0  0  0
 28 82  1  0  0  0
 29 30  1  0  0  0
 29 36  1  0  0  0
 29 83  1  0  0  0
 30 31  1  0  0  0
 30 37  1  0  0  0
 30 84  1  0  0  0
 31 38  1  0  0  0
 31 85  1  0  0  0
 31 86  1  0  0  0
 32 33  1  0  0  0
 32 34  1  0  0  0
 32 39  2  0  0  0
 33 87  1  0  0  0
 33 88  1  0  0  0
 33 89  1  0  0  0
 34 90  1  0  0  0
 35 91  1  0  0  0
 36 40  1  0  0  0
 38 92  1  0  0  0
 40 41  1  0  0  0
 40 51  1  0  0  0
 40 93  1  0  0  0
 41 42  1  0  0  0
 41 48  1  0  0  0
 41 94  1  0  0  0
 42 43  1  0  0  0
 42 49  1  0  0  0
 42 95  1  0  0  0
 43 44  1  0  0  0
 43 50  1  0  0  0
 43 96  1  0  0  0
 44 45  1  0  0  0
 44 51  1  0  0  0
 44 97  1  0  0  0
 45 52  1  0  0  0
 45 98  1  0  0  0
 45 99  1  0  0  0
 46 47  1  0  0  0
 46 48  1  0  0  0
 46 53  2  0  0  0
 47100  1  0  0  0
 47101  1  0  0  0
 47102  1  0  0  0
 48103  1  0  0  0
 49104  1  0  0  0
 50105  1  0  0  0
 52106  1  0  0  0
M  CHG  1   9   1
M  END
> <s_m_source_file>
../4hp0_ligand.sdf

> <i_m_source_file_index>
1

> <s_epik_input>
W09IXVtDQEhdMVtDSDJdW05IMitdW0NASF0oW0NIMl1bT0hdKVtDQEhdKFtDQEBIXTFbT0hdKU9bQ0BIXTJbQ0BIXShbTkhdQyg9TylbQ0gzXSlbQ0BASF0oW09IXSlbQ0BASF0oW0NASF0oTzIpW0NIMl1bT0hdKU9bQ0BIXTNbQ0BIXShbTkhdQyg9TylbQ0gzXSlbQ0BASF0oW09IXSlbQ0BASF0oW0NASF0oTzMpW0NIMl1bT0hdKU9bQ0BIXTRbQ0BIXShbTkhdQyg9TylbQ0gzXSlbQ0BASF0oW09IXSlbQ0BIXShbT0hdKVtDQEhdKE80KVtDSDJdW09IXQ==

> <s_epik_cmdline>
J2VwaWtfYXBwJywgJy1pbWFlJywgJ2xpZ2FuZF9wcm8ubWFlJywgJy1vbWFlJywgJ2xpZ2FuZF9wcmVwLm1hZScsICctbXMnLCAnMScsICctcGgnLCAnNycsICctcGh0JywgJzAuNScsICctbnQn

> <r_lp_tautomer_probability>
1

> <r_epik_Ionization_Penalty>
  0.0034

> <r_epik_Ionization_Penalty_Charging>
  0.0034

> <r_epik_Ionization_Penalty_Neutral>
  0.0000

> <r_epik_State_Penalty>
 -0.0000

> <r_epik_Charging_Adjusted_Penalty>
0.00338677877254832

> <i_epik_Tot_Q>
1

> <i_epik_Tot_abs_Q>
1

> <s_epik_Chemistry_Notes>
This compound contains an acetal/aminal-like group ( X-CH(R)-Y where X, Y are N, S, or O) that may be acid/base labile, releasing an aldehyde.

$$$$
