4hpi_ligand
                    3D
 Schrodinger Suite 2020-3.
 79 81  0  0  1  0            999 V2000
  -23.7840   -8.7890   -3.8840 C   0  0  0  0  0  0
  -24.8820   -8.7590   -4.9460 C   0  0  2  0  0  0
  -25.0600  -10.0660   -5.5070 O   0  0  0  0  0  0
  -24.5170   -7.8060   -6.0740 C   0  0  1  0  0  0
  -25.6230   -7.7520   -6.9880 O   0  0  0  0  0  0
  -24.1760   -6.3970   -5.5690 C   0  0  2  0  0  0
  -23.5260   -5.6800   -6.6200 O   0  0  0  0  0  0
  -23.2310   -6.3640   -4.3570 C   0  0  2  0  0  0
  -23.4830   -7.4470   -3.4160 N   0  3  0  0  0  0
  -23.2830   -5.0280   -3.6080 C   0  0  0  0  0  0
  -24.5180   -4.8680   -2.8930 O   0  0  0  0  0  0
  -24.3340   -5.0070   -7.5890 C   0  0  1  0  0  0
  -23.4870   -3.8630   -8.1040 C   0  0  1  0  0  0
  -24.2880   -3.1160   -9.1730 C   0  0  2  0  0  0
  -24.8970   -4.0290  -10.2600 C   0  0  1  0  0  0
  -25.5740   -5.2300   -9.6000 C   0  0  1  0  0  0
  -26.0160   -6.3050  -10.5900 C   0  0  0  0  0  0
  -21.9410   -2.8210   -6.4840 C   0  0  0  0  0  0
  -21.8410   -1.9540   -5.2680 C   0  0  0  0  0  0
  -23.1700   -3.0290   -6.9570 N   0  0  0  0  0  0
  -23.4560   -2.1480   -9.7420 O   0  0  0  0  0  0
  -25.8680   -3.3310  -11.0220 O   0  0  0  0  0  0
  -24.6950   -5.8380   -8.6740 O   0  0  0  0  0  0
  -26.4010   -7.4460   -9.8580 O   0  0  0  0  0  0
  -20.9160   -3.2910   -6.9780 O   0  0  0  0  0  0
  -25.5580   -3.2530  -12.4250 C   0  0  1  0  0  0
  -26.8570   -3.0000  -13.2120 C   0  0  1  0  0  0
  -26.5720   -2.6690  -14.6820 C   0  0  2  0  0  0
  -25.4780   -1.6150  -14.8300 C   0  0  1  0  0  0
  -24.2530   -1.9960  -13.9980 C   0  0  1  0  0  0
  -23.2400   -0.8670  -14.0030 C   0  0  0  0  0  0
  -28.8480   -4.1690  -12.3590 C   0  0  0  0  0  0
  -29.6820   -5.4160  -12.4180 C   0  0  0  0  0  0
  -27.7670   -4.1350  -13.1430 N   0  0  0  0  0  0
  -27.7480   -2.2160  -15.3260 O   0  0  0  0  0  0
  -25.1200   -1.4730  -16.1900 O   0  0  0  0  0  0
  -24.6360   -2.2130  -12.6550 O   0  0  0  0  0  0
  -23.8010    0.2310  -13.3080 O   0  0  0  0  0  0
  -29.1790   -3.2540  -11.6040 O   0  0  0  0  0  0
  -24.1169   -9.3964   -3.0295 H   0  0  0  0  0  0
  -22.8712   -9.2283   -4.3126 H   0  0  0  0  0  0
  -25.8368   -8.4737   -4.4801 H   0  0  0  0  0  0
  -25.3301  -10.9114   -4.8571 H   0  0  0  0  0  0
  -23.6497   -8.1974   -6.6259 H   0  0  0  0  0  0
  -26.0016   -8.6765   -7.4485 H   0  0  0  0  0  0
  -25.1222   -5.8997   -5.3094 H   0  0  0  0  0  0
  -22.2173   -6.5426   -4.7450 H   0  0  0  0  0  0
  -24.3231   -7.0719   -2.8130 H   0  0  0  0  0  0
  -22.5713   -7.4690   -2.8009 H   0  0  0  0  0  0
  -22.4555   -4.9807   -2.8848 H   0  0  0  0  0  0
  -23.1894   -4.2007   -4.3269 H   0  0  0  0  0  0
  -24.6999   -3.9552   -2.3068 H   0  0  0  0  0  0
  -25.2932   -4.7401   -7.1213 H   0  0  0  0  0  0
  -22.5246   -4.1790   -8.5328 H   0  0  0  0  0  0
  -25.1113   -2.5597   -8.7011 H   0  0  0  0  0  0
  -24.1296   -4.3318  -10.9876 H   0  0  0  0  0  0
  -26.4410   -4.8549   -9.0365 H   0  0  0  0  0  0
  -26.8645   -5.9316  -11.1821 H   0  0  0  0  0  0
  -25.1803   -6.5509  -11.2616 H   0  0  0  0  0  0
  -22.8471   -1.6260   -4.9678 H   0  0  0  0  0  0
  -21.2210   -1.0742   -5.4950 H   0  0  0  0  0  0
  -21.3813   -2.5247   -4.4476 H   0  0  0  0  0  0
  -23.9750   -2.5144   -6.4119 H   0  0  0  0  0  0
  -22.9436   -1.4168   -9.0996 H   0  0  0  0  0  0
  -26.7560   -8.3438  -10.3853 H   0  0  0  0  0  0
  -25.0362   -4.1759  -12.7182 H   0  0  0  0  0  0
  -27.3881   -2.1671  -12.7282 H   0  0  0  0  0  0
  -26.2849   -3.5889  -15.2124 H   0  0  0  0  0  0
  -25.8532   -0.6229  -14.5384 H   0  0  0  0  0  0
  -23.8197   -2.9375  -14.3665 H   0  0  0  0  0  0
  -22.3177   -1.1997  -13.5043 H   0  0  0  0  0  0
  -23.0133   -0.5824  -15.0411 H   0  0  0  0  0  0
  -29.2401   -6.1189  -13.1396 H   0  0  0  0  0  0
  -30.7036   -5.1592  -12.7348 H   0  0  0  0  0  0
  -29.7133   -5.8836  -11.4228 H   0  0  0  0  0  0
  -27.5805   -5.0276  -13.7582 H   0  0  0  0  0  0
  -28.6513   -2.8437  -15.3266 H   0  0  0  0  0  0
  -25.8829   -1.2000  -16.9340 H   0  0  0  0  0  0
  -23.2260    1.1618  -13.1943 H   0  0  0  0  0  0
  1  2  1  0  0  0
  1  9  1  0  0  0
  1 40  1  0  0  0
  1 41  1  0  0  0
  2  3  1  0  0  0
  2  4  1  0  0  0
  2 42  1  0  0  0
  3 43  1  0  0  0
  4  5  1  0  0  0
  4  6  1  0  0  0
  4 44  1  0  0  0
  5 45  1  0  0  0
  6  7  1  0  0  0
  6  8  1  0  0  0
  6 46  1  0  0  0
  7 12  1  0  0  0
  8  9  1  0  0  0
  8 10  1  0  0  0
  8 47  1  0  0  0
  9 48  1  0  0  0
  9 49  1  0  0  0
 10 11  1  0  0  0
 10 50  1  0  0  0
 10 51  1  0  0  0
 11 52  1  0  0  0
 12 13  1  0  0  0
 12 23  1  0  0  0
 12 53  1  0  0  0
 13 14  1  0  0  0
 13 20  1  0  0  0
 13 54  1  0  0  0
 14 15  1  0  0  0
 14 21  1  0  0  0
 14 55  1  0  0  0
 15 16  1  0  0  0
 15 22  1  0  0  0
 15 56  1  0  0  0
 16 17  1  0  0  0
 16 23  1  0  0  0
 16 57  1  0  0  0
 17 24  1  0  0  0
 17 58  1  0  0  0
 17 59  1  0  0  0
 18 19  1  0  0  0
 18 20  1  0  0  0
 18 25  2  0  0  0
 19 60  1  0  0  0
 19 61  1  0  0  0
 19 62  1  0  0  0
 20 63  1  0  0  0
 21 64  1  0  0  0
 22 26  1  0  0  0
 24 65  1  0  0  0
 26 27  1  0  0  0
 26 37  1  0  0  0
 26 66  1  0  0  0
 27 28  1  0  0  0
 27 34  1  0  0  0
 27 67  1  0  0  0
 28 29  1  0  0  0
 28 35  1  0  0  0
 28 68  1  0  0  0
 29 30  1  0  0  0
 29 36  1  0  0  0
 29 69  1  0  0  0
 30 31  1  0  0  0
 30 37  1  0  0  0
 30 70  1  0  0  0
 31 38  1  0  0  0
 31 71  1  0  0  0
 31 72  1  0  0  0
 32 33  1  0  0  0
 32 34  1  0  0  0
 32 39  2  0  0  0
 33 73  1  0  0  0
 33 74  1  0  0  0
 33 75  1  0  0  0
 34 76  1  0  0  0
 35 77  1  0  0  0
 36 78  1  0  0  0
 38 79  1  0  0  0
M  CHG  1   9   1
M  END
> <s_m_source_file>
../4hpi_ligand.sdf

> <i_m_source_file_index>
1

> <s_epik_input>
W09IXVtDQEhdMVtDSDJdW05IMitdW0NASF0oW0NIMl1bT0hdKVtDQEhdKFtDQEBIXTFbT0hdKU9bQ0BIXTJbQ0BIXShbTkhdQyg9TylbQ0gzXSlbQ0BASF0oW09IXSlbQ0BASF0oW0NASF0oTzIpW0NIMl1bT0hdKU9bQ0BIXTNbQ0BIXShbTkhdQyg9TylbQ0gzXSlbQ0BASF0oW09IXSlbQ0BIXShbT0hdKVtDQEhdKE8zKVtDSDJdW09IXQ==

> <s_epik_cmdline>
J2VwaWtfYXBwJywgJy1pbWFlJywgJ2xpZ2FuZF9wcm8ubWFlJywgJy1vbWFlJywgJ2xpZ2FuZF9wcmVwLm1hZScsICctbXMnLCAnMScsICctcGgnLCAnNycsICctcGh0JywgJzAuNScsICctbnQn

> <r_lp_tautomer_probability>
1

> <r_epik_Ionization_Penalty>
  0.0034

> <r_epik_Ionization_Penalty_Charging>
  0.0034

> <r_epik_Ionization_Penalty_Neutral>
  0.0000

> <r_epik_State_Penalty>
 -0.0000

> <r_epik_Charging_Adjusted_Penalty>
0.00338677877254832

> <i_epik_Tot_Q>
1

> <i_epik_Tot_abs_Q>
1

> <s_epik_Chemistry_Notes>
This compound contains an acetal/aminal-like group ( X-CH(R)-Y where X, Y are N, S, or O) that may be acid/base labile, releasing an aldehyde.

$$$$
