4hpy_ligand
                    3D
 Schrodinger Suite 2020-3.
211213  0  0  1  0            999 V2000
   55.9160   53.1690   60.7200 N   0  3  0  0  0  0
   54.5290   53.1880   61.1680 C   0  0  2  0  0  0
   54.3850   52.4420   62.4930 C   0  0  0  0  0  0
   55.1900   52.6110   63.4090 O   0  0  0  0  0  0
   53.6230   52.5490   60.1130 C   0  0  0  0  0  0
   53.7320   53.1610   58.7230 C   0  0  0  0  0  0
   52.8910   52.3800   57.7210 C   0  0  0  0  0  0
   53.0450   52.9200   56.3070 C   0  0  0  0  0  0
   52.5130   54.3020   56.1710 N   0  3  0  0  0  0
   53.3400   51.6290   62.5880 N   0  0  0  0  0  0
   53.1690   50.7080   63.7030 C   0  0  2  0  0  0
   53.1800   49.2940   63.1540 C   0  0  0  0  0  0
   52.9840   49.0910   61.9570 O   0  0  0  0  0  0
   51.8430   50.9570   64.4240 C   0  0  0  0  0  0
   51.7360   52.3120   65.0950 C   0  0  0  0  0  0
   50.4770   52.3830   65.9410 C   0  0  0  0  0  0
   50.3080   53.7510   66.5650 C   0  0  0  0  0  0
   49.1390   53.7840   67.4880 N   0  3  0  0  0  0
   53.3990   48.3140   64.0230 N   0  0  0  0  0  0
   53.3910   46.9190   63.6020 C   0  0  2  0  0  0
   51.9690   46.3890   63.5130 C   0  0  0  0  0  0
   51.1440   46.6390   64.3950 O   0  0  0  0  0  0
   54.2100   46.0490   64.5600 C   0  0  0  0  0  0
   54.2200   44.5720   64.1760 C   0  0  0  0  0  0
   55.0080   43.7000   65.1430 C   0  0  0  0  0  0
   55.6150   42.7060   64.7400 O   0  0  0  0  0  0
   54.9880   44.0560   66.4240 N   0  0  0  0  0  0
   51.6860   45.6520   62.4440 N   0  0  0  0  0  0
   50.4000   44.9870   62.2780 C   0  0  2  0  0  0
   50.3710   43.7100   63.1160 C   0  0  0  0  0  0
   51.4120   43.0940   63.3590 O   0  0  0  0  0  0
   50.1460   44.7000   60.7980 C   0  0  0  0  0  0
   50.0630   45.9740   59.9670 C   0  0  0  0  0  0
   49.9140   45.6970   58.4810 C   0  0  0  0  0  0
   49.8970   47.0000   57.6980 C   0  0  0  0  0  0
   49.7360   46.7710   56.2380 N   0  3  0  0  0  0
   49.1800   43.3230   63.5680 N   0  0  0  0  0  0
   49.0630   42.3210   64.6230 C   0  0  2  0  0  0
   49.5670   40.9310   64.2140 C   0  0  0  0  0  0
   50.0680   40.1820   65.0480 O   0  0  0  0  0  0
   47.6130   42.2580   65.1830 C   0  0  0  0  0  0
   46.6320   41.7360   64.1410 C   0  0  0  0  0  0
   47.5560   41.4390   66.4590 C   0  0  0  0  0  0
   49.4490   40.5990   62.9300 N   0  0  0  0  0  0
   49.9190   39.3020   62.4370 C   0  0  2  0  0  0
   51.1540   39.4010   61.5360 C   0  0  0  0  0  0
   51.4000   38.5230   60.7130 O   0  0  0  0  0  0
   48.7900   38.5620   61.7090 C   0  0  0  0  0  0
   47.6830   38.1200   62.6130 C   0  0  0  0  0  0
   46.4750   37.6540   62.1400 N   0  0  0  0  0  0
   47.6030   38.0710   63.9650 C   0  0  0  0  0  0
   45.6970   37.3410   63.1620 C   0  0  0  0  0  0
   46.3570   37.5820   64.2800 N   0  0  0  0  0  0
   51.9410   40.4600   61.7180 N   0  0  0  0  0  0
   53.0960   40.7330   60.8640 C   0  0  2  0  0  0
   54.0440   39.5440   60.7050 C   0  0  0  0  0  0
   54.5700   39.3110   59.6160 O   0  0  0  0  0  0
   53.8600   41.9530   61.3800 C   0  0  0  0  0  0
   54.2510   38.7900   61.7810 N   0  0  0  0  0  0
   55.2050   37.6790   61.7610 C   0  0  2  0  0  0
   54.8530   36.5900   60.7420 C   0  0  0  0  0  0
   55.7310   35.8700   60.2780 O   0  0  0  0  0  0
   55.3690   37.0600   63.1540 C   0  0  0  0  0  0
   54.2720   36.1190   63.6530 C   0  0  0  0  0  0
   54.7730   35.3100   64.8400 C   0  0  0  0  0  0
   53.0170   36.8900   64.0320 C   0  0  0  0  0  0
   53.5780   36.4930   60.3770 N   0  0  0  0  0  0
   53.1430   35.4660   59.4350 C   0  0  2  0  0  0
   53.3200   35.8570   57.9690 C   0  0  0  0  0  0
   53.0080   35.0680   57.0750 O   0  0  0  0  0  0
   51.6850   35.0870   59.6980 C   0  0  0  0  0  0
   51.4690   34.4110   61.0210 C   0  0  0  0  0  0
   51.9120   33.1170   61.2310 C   0  0  0  0  0  0
   50.8130   35.0650   62.0490 C   0  0  0  0  0  0
   51.7170   32.4880   62.4530 C   0  0  0  0  0  0
   50.6130   34.4390   63.2740 C   0  0  0  0  0  0
   51.0640   33.1500   63.4710 C   0  0  0  0  0  0
   53.8280   37.0620   57.7260 N   0  0  0  0  0  0
   53.9580   37.5840   56.3680 C   0  0  2  0  0  0
   55.3710   38.0640   56.0570 C   0  0  0  0  0  0
   55.6500   38.5030   54.9440 O   0  0  0  0  0  0
   52.9440   38.7080   56.1390 C   0  0  0  0  0  0
   51.5290   38.2450   56.3870 C   0  0  0  0  0  0
   50.8190   37.5760   55.3970 C   0  0  0  0  0  0
   50.9200   38.4320   57.6210 C   0  0  0  0  0  0
   49.5350   37.1290   55.6210 C   0  0  0  0  0  0
   49.6290   37.9870   57.8550 C   0  0  0  0  0  0
   48.9490   37.3290   56.8460 C   0  0  0  0  0  0
   47.6680   36.8840   57.0580 O   0  0  0  0  0  0
   56.2570   37.9660   57.0430 N   0  0  0  0  0  0
   57.6600   38.3390   56.8720 C   0  0  2  0  0  0
   58.3170   37.5910   55.7140 C   0  0  0  0  0  0
   58.4980   36.3740   55.7700 O   0  0  0  0  0  0
   58.4400   38.0830   58.1640 C   0  0  0  0  0  0
   58.0200   38.9580   59.3350 C   0  0  0  0  0  0
   59.1220   39.9360   59.7160 C   0  0  0  0  0  0
   58.7330   40.7570   60.9360 C   0  0  0  0  0  0
   58.5010   39.8970   62.1310 N   0  3  0  0  0  0
   58.6790   38.1890   54.7000 O   0  0  0  0  0  0
   56.5553   53.6307   61.4868 H   0  0  0  0  0  0
   56.0054   53.7330   59.7799 H   0  0  0  0  0  0
   56.2339   52.1289   60.5553 H   0  0  0  0  0  0
   54.2742   54.2496   61.3026 H   0  0  0  0  0  0
   53.8745   51.4830   60.0108 H   0  0  0  0  0  0
   52.5722   52.6498   60.4224 H   0  0  0  0  0  0
   53.3750   54.2011   58.7513 H   0  0  0  0  0  0
   54.7820   53.1425   58.3955 H   0  0  0  0  0  0
   53.2041   51.3255   57.7227 H   0  0  0  0  0  0
   51.8295   52.4478   58.0015 H   0  0  0  0  0  0
   54.1107   52.9364   56.0348 H   0  0  0  0  0  0
   52.4974   52.2731   55.6058 H   0  0  0  0  0  0
   52.6470   54.6462   55.1349 H   0  0  0  0  0  0
   53.0559   54.9727   56.8533 H   0  0  0  0  0  0
   51.4426   54.3094   56.4243 H   0  0  0  0  0  0
   52.5879   51.6676   61.7862 H   0  0  0  0  0  0
   54.0065   50.8866   64.3934 H   0  0  0  0  0  0
   51.0154   50.8917   63.7024 H   0  0  0  0  0  0
   51.7050   50.1997   65.2097 H   0  0  0  0  0  0
   52.6121   52.4716   65.7408 H   0  0  0  0  0  0
   51.6979   53.0992   64.3276 H   0  0  0  0  0  0
   49.5996   52.1759   65.3107 H   0  0  0  0  0  0
   50.5341   51.6363   66.7468 H   0  0  0  0  0  0
   51.2123   54.0077   67.1362 H   0  0  0  0  0  0
   50.1500   54.4982   65.7733 H   0  0  0  0  0  0
   49.0442   54.7895   67.9238 H   0  0  0  0  0  0
   49.2860   53.0482   68.2923 H   0  0  0  0  0  0
   48.2237   53.5386   66.9294 H   0  0  0  0  0  0
   53.5886   48.5697   65.0759 H   0  0  0  0  0  0
   53.8517   46.9229   62.6031 H   0  0  0  0  0  0
   55.2539   46.3958   64.5687 H   0  0  0  0  0  0
   53.7901   46.1246   65.5739 H   0  0  0  0  0  0
   53.1881   44.1917   64.1549 H   0  0  0  0  0  0
   54.6743   44.4549   63.1811 H   0  0  0  0  0  0
   54.4321   44.9520   66.7372 H   0  0  0  0  0  0
   55.5273   43.4545   67.1705 H   0  0  0  0  0  0
   52.4607   45.5523   61.6695 H   0  0  0  0  0  0
   49.6277   45.6792   62.6445 H   0  0  0  0  0  0
   50.9659   44.0855   60.3977 H   0  0  0  0  0  0
   49.1946   44.1591   60.6874 H   0  0  0  0  0  0
   49.1927   46.5651   60.2881 H   0  0  0  0  0  0
   50.9800   46.5648   60.1089 H   0  0  0  0  0  0
   50.7588   45.0828   58.1360 H   0  0  0  0  0  0
   48.9718   45.1587   58.3010 H   0  0  0  0  0  0
   49.0587   47.6236   58.0421 H   0  0  0  0  0  0
   50.8435   47.5369   57.8589 H   0  0  0  0  0  0
   49.7292   47.7380   55.7137 H   0  0  0  0  0  0
   48.7874   46.2462   56.0516 H   0  0  0  0  0  0
   50.5722   46.1594   55.8684 H   0  0  0  0  0  0
   48.2749   43.7717   63.1328 H   0  0  0  0  0  0
   49.7608   42.7006   65.3839 H   0  0  0  0  0  0
   47.2850   43.2754   65.4425 H   0  0  0  0  0  0
   46.7005   42.3517   63.2320 H   0  0  0  0  0  0
   45.6091   41.7872   64.5424 H   0  0  0  0  0  0
   46.8781   40.6922   63.8962 H   0  0  0  0  0  0
   48.2752   41.8432   67.1865 H   0  0  0  0  0  0
   47.8102   40.3925   66.2347 H   0  0  0  0  0  0
   46.5412   41.4875   66.8808 H   0  0  0  0  0  0
   48.9894   41.3177   62.2355 H   0  0  0  0  0  0
   50.2131   38.7719   63.3549 H   0  0  0  0  0  0
   48.3488   39.2232   60.9487 H   0  0  0  0  0  0
   49.1952   37.6627   61.2222 H   0  0  0  0  0  0
   48.3089   38.3351   64.7662 H   0  0  0  0  0  0
   44.6819   36.9499   63.0933 H   0  0  0  0  0  0
   51.6960   41.1414   62.5461 H   0  0  0  0  0  0
   52.6437   40.9295   59.8807 H   0  0  0  0  0  0
   53.1670   42.8002   61.4897 H   0  0  0  0  0  0
   54.6531   42.2182   60.6653 H   0  0  0  0  0  0
   54.3095   41.7182   62.3561 H   0  0  0  0  0  0
   53.6882   39.0152   62.6989 H   0  0  0  0  0  0
   56.1372   38.1663   61.4394 H   0  0  0  0  0  0
   56.2931   36.4641   63.1839 H   0  0  0  0  0  0
   55.4242   37.8603   63.9067 H   0  0  0  0  0  0
   54.0099   35.4289   62.8375 H   0  0  0  0  0  0
   55.6799   34.7585   64.5512 H   0  0  0  0  0  0
   53.9950   34.5982   65.1531 H   0  0  0  0  0  0
   55.0063   35.9884   65.6738 H   0  0  0  0  0  0
   52.6668   37.4694   63.1650 H   0  0  0  0  0  0
   53.2439   37.5742   64.8629 H   0  0  0  0  0  0
   52.2326   36.1840   64.3422 H   0  0  0  0  0  0
   52.8471   37.2006   60.7955 H   0  0  0  0  0  0
   53.8247   34.6287   59.6453 H   0  0  0  0  0  0
   51.0627   35.9940   59.6872 H   0  0  0  0  0  0
   51.3390   34.3956   58.9156 H   0  0  0  0  0  0
   52.4204   32.5850   60.4269 H   0  0  0  0  0  0
   50.4494   36.0812   61.8967 H   0  0  0  0  0  0
   52.0797   31.4718   62.6076 H   0  0  0  0  0  0
   50.1002   34.9662   64.0785 H   0  0  0  0  0  0
   50.9044   32.6561   64.4295 H   0  0  0  0  0  0
   54.1547   37.6700   58.5825 H   0  0  0  0  0  0
   53.7440   36.7233   55.7173 H   0  0  0  0  0  0
   53.1597   39.5415   56.8236 H   0  0  0  0  0  0
   53.0151   39.0598   55.0992 H   0  0  0  0  0  0
   51.2856   37.4021   54.4274 H   0  0  0  0  0  0
   51.4662   38.9367   58.4179 H   0  0  0  0  0  0
   48.9870   36.6188   54.8288 H   0  0  0  0  0  0
   49.1549   38.1534   58.8223 H   0  0  0  0  0  0
   47.1276   36.3608   56.2554 H   0  0  0  0  0  0
   55.9025   37.5890   58.0137 H   0  0  0  0  0  0
   57.6335   39.4127   56.6342 H   0  0  0  0  0  0
   58.9726   35.8492   54.9278 H   0  0  0  0  0  0
   58.2980   37.0381   58.4771 H   0  0  0  0  0  0
   59.5097   38.2715   57.9900 H   0  0  0  0  0  0
   57.1221   39.5313   59.0608 H   0  0  0  0  0  0
   57.7981   38.3235   60.2058 H   0  0  0  0  0  0
   60.0423   39.3795   59.9470 H   0  0  0  0  0  0
   59.3094   40.6223   58.8770 H   0  0  0  0  0  0
   59.5394   41.4667   61.1727 H   0  0  0  0  0  0
   57.8068   41.3116   60.7247 H   0  0  0  0  0  0
   58.2229   40.5277   62.9882 H   0  0  0  0  0  0
   59.4208   39.3419   62.3674 H   0  0  0  0  0  0
   57.6882   39.1867   61.9193 H   0  0  0  0  0  0
  1  2  1  0  0  0
  1100  1  0  0  0
  1101  1  0  0  0
  1102  1  0  0  0
  2  3  1  0  0  0
  2  5  1  0  0  0
  2103  1  0  0  0
  3  4  2  0  0  0
  3 10  1  0  0  0
  5  6  1  0  0  0
  5104  1  0  0  0
  5105  1  0  0  0
  6  7  1  0  0  0
  6106  1  0  0  0
  6107  1  0  0  0
  7  8  1  0  0  0
  7108  1  0  0  0
  7109  1  0  0  0
  8  9  1  0  0  0
  8110  1  0  0  0
  8111  1  0  0  0
  9112  1  0  0  0
  9113  1  0  0  0
  9114  1  0  0  0
 10 11  1  0  0  0
 10115  1  0  0  0
 11 12  1  0  0  0
 11 14  1  0  0  0
 11116  1  0  0  0
 12 13  2  0  0  0
 12 19  1  0  0  0
 14 15  1  0  0  0
 14117  1  0  0  0
 14118  1  0  0  0
 15 16  1  0  0  0
 15119  1  0  0  0
 15120  1  0  0  0
 16 17  1  0  0  0
 16121  1  0  0  0
 16122  1  0  0  0
 17 18  1  0  0  0
 17123  1  0  0  0
 17124  1  0  0  0
 18125  1  0  0  0
 18126  1  0  0  0
 18127  1  0  0  0
 19 20  1  0  0  0
 19128  1  0  0  0
 20 21  1  0  0  0
 20 23  1  0  0  0
 20129  1  0  0  0
 21 22  2  0  0  0
 21 28  1  0  0  0
 23 24  1  0  0  0
 23130  1  0  0  0
 23131  1  0  0  0
 24 25  1  0  0  0
 24132  1  0  0  0
 24133  1  0  0  0
 25 26  2  0  0  0
 25 27  1  0  0  0
 27134  1  0  0  0
 27135  1  0  0  0
 28 29  1  0  0  0
 28136  1  0  0  0
 29 30  1  0  0  0
 29 32  1  0  0  0
 29137  1  0  0  0
 30 31  2  0  0  0
 30 37  1  0  0  0
 32 33  1  0  0  0
 32138  1  0  0  0
 32139  1  0  0  0
 33 34  1  0  0  0
 33140  1  0  0  0
 33141  1  0  0  0
 34 35  1  0  0  0
 34142  1  0  0  0
 34143  1  0  0  0
 35 36  1  0  0  0
 35144  1  0  0  0
 35145  1  0  0  0
 36146  1  0  0  0
 36147  1  0  0  0
 36148  1  0  0  0
 37 38  1  0  0  0
 37149  1  0  0  0
 38 39  1  0  0  0
 38 41  1  0  0  0
 38150  1  0  0  0
 39 40  2  0  0  0
 39 44  1  0  0  0
 41 42  1  0  0  0
 41 43  1  0  0  0
 41151  1  0  0  0
 42152  1  0  0  0
 42153  1  0  0  0
 42154  1  0  0  0
 43155  1  0  0  0
 43156  1  0  0  0
 43157  1  0  0  0
 44 45  1  0  0  0
 44158  1  0  0  0
 45 46  1  0  0  0
 45 48  1  0  0  0
 45159  1  0  0  0
 46 47  2  0  0  0
 46 54  1  0  0  0
 48 49  1  0  0  0
 48160  1  0  0  0
 48161  1  0  0  0
 49 50  2  0  0  0
 49 51  1  0  0  0
 50 52  1  0  0  0
 51 53  2  0  0  0
 51162  1  0  0  0
 52 53  1  0  0  0
 52163  1  0  0  0
 54 55  1  0  0  0
 54164  1  0  0  0
 55 56  1  0  0  0
 55 58  1  0  0  0
 55165  1  0  0  0
 56 57  2  0  0  0
 56 59  1  0  0  0
 58166  1  0  0  0
 58167  1  0  0  0
 58168  1  0  0  0
 59 60  1  0  0  0
 59169  1  0  0  0
 60 61  1  0  0  0
 60 63  1  0  0  0
 60170  1  0  0  0
 61 62  2  0  0  0
 61 67  1  0  0  0
 63 64  1  0  0  0
 63171  1  0  0  0
 63172  1  0  0  0
 64 65  1  0  0  0
 64 66  1  0  0  0
 64173  1  0  0  0
 65174  1  0  0  0
 65175  1  0  0  0
 65176  1  0  0  0
 66177  1  0  0  0
 66178  1  0  0  0
 66179  1  0  0  0
 67 68  1  0  0  0
 67180  1  0  0  0
 68 69  1  0  0  0
 68 71  1  0  0  0
 68181  1  0  0  0
 69 70  2  0  0  0
 69 78  1  0  0  0
 71 72  1  0  0  0
 71182  1  0  0  0
 71183  1  0  0  0
 72 73  2  0  0  0
 72 74  1  0  0  0
 73 75  1  0  0  0
 73184  1  0  0  0
 74 76  2  0  0  0
 74185  1  0  0  0
 75 77  2  0  0  0
 75186  1  0  0  0
 76 77  1  0  0  0
 76187  1  0  0  0
 77188  1  0  0  0
 78 79  1  0  0  0
 78189  1  0  0  0
 79 80  1  0  0  0
 79 82  1  0  0  0
 79190  1  0  0  0
 80 81  2  0  0  0
 80 90  1  0  0  0
 82 83  1  0  0  0
 82191  1  0  0  0
 82192  1  0  0  0
 83 84  2  0  0  0
 83 85  1  0  0  0
 84 86  1  0  0  0
 84193  1  0  0  0
 85 87  2  0  0  0
 85194  1  0  0  0
 86 88  2  0  0  0
 86195  1  0  0  0
 87 88  1  0  0  0
 87196  1  0  0  0
 88 89  1  0  0  0
 89197  1  0  0  0
 90 91  1  0  0  0
 90198  1  0  0  0
 91 92  1  0  0  0
 91 94  1  0  0  0
 91199  1  0  0  0
 92 93  1  0  0  0
 92 99  2  0  0  0
 93200  1  0  0  0
 94 95  1  0  0  0
 94201  1  0  0  0
 94202  1  0  0  0
 95 96  1  0  0  0
 95203  1  0  0  0
 95204  1  0  0  0
 96 97  1  0  0  0
 96205  1  0  0  0
 96206  1  0  0  0
 97 98  1  0  0  0
 97207  1  0  0  0
 97208  1  0  0  0
 98209  1  0  0  0
 98210  1  0  0  0
 98211  1  0  0  0
M  CHG  5   1   1   9   1  18   1  36   1  98   1
M  END
> <s_m_source_file>
../4hpy_ligand.sdf

> <i_m_source_file_index>
1

> <s_epik_input>
W05IMytdW0NIMl1bQ0gyXVtDSDJdW0NIMl1bQ0BIXShbTkgzK10pQyg9TylbTkhdW0NAQEhdKFtDSDJdW0NIMl1bQ0gyXVtDSDJdW05IMytdKUMoPU8pW05IXVtDQEBIXShbQ0gyXVtDSDJdQyg9TylbTkgyXSlDKD1PKVtOSF1bQ0BASF0oW0NIMl1bQ0gyXVtDSDJdW0NIMl1bTkgzK10pQyg9TylbTkhdW0NAQEhdKFtDSF0oW0NIM10pW0NIM10pQyg9TylbTkhdW0NAQEhdKFtDSDJdQzE9TltDSDJdTj1bQ0hdMSlDKD1PKVtOSF1bQ0BASF0oW0NIM10pQyg9TylbTkhdW0NAQEhdKFtDSDJdW0NIXShbQ0gzXSlbQ0gzXSlDKD1PKVtOSF1bQ0BASF0oW0NIMl1jMltjSF1bY0hdW2NIXVtjSF1bY0hdMilDKD1PKVtOSF1bQ0BASF0oW0NIMl1jM1tjSF1bY0hdYyhbT0hdKVtjSF1bY0hdMylDKD1PKVtOSF1bQ0BIXShDKD1PKVtPSF0pW0NIMl1bQ0gyXVtDSDJdW0NIMl1bTkgzK10=

> <s_epik_cmdline>
J2VwaWtfYXBwJywgJy1pbWFlJywgJ2xpZ2FuZF9wcm8ubWFlJywgJy1vbWFlJywgJ2xpZ2FuZF9wcmVwLm1hZScsICctbXMnLCAnMScsICctcGgnLCAnNycsICctcGh0JywgJzAuNScsICctbnQn

> <s_epik_pKa_notes>
Molecule size exceeds maximum supported for generating protonation states

> <s_epik_Chemistry_Notes>
This compound has an imine and may undergo hydrolysis.

$$$$
