4hra_ligand
                    3D
 Schrodinger Suite 2020-3.
 83 88  0  0  1  0            999 V2000
  -17.3800  -59.1930  -16.2860 C   0  0  0  0  0  0
  -18.3200  -61.3090  -16.3170 C   0  0  0  0  0  0
  -17.0800  -61.8530  -16.5780 C   0  0  0  0  0  0
  -15.9920  -61.0070  -16.6930 C   0  0  0  0  0  0
  -18.5070  -63.4480  -16.4770 C   0  0  0  0  0  0
  -23.9420  -62.1630   -7.7480 N   0  0  0  0  0  0
  -23.5250  -63.1030   -6.9020 C   0  0  0  0  0  0
  -22.4130  -63.2060   -6.0610 C   0  0  0  0  0  0
  -22.2400  -64.3430   -5.2700 C   0  0  0  0  0  0
  -23.1790  -65.3780   -5.3130 C   0  0  3  0  0  0
  -23.0000  -66.6330   -4.4380 C   0  0  0  0  0  0
  -21.7610  -66.4630   -3.5540 C   0  0  0  0  0  0
  -24.2330  -66.8210   -3.5480 C   0  0  0  0  0  0
  -22.8450  -67.8650   -5.3360 C   0  0  0  0  0  0
  -24.2920  -65.2640   -6.1510 C   0  0  0  0  0  0
  -24.4640  -64.1300   -6.9440 C   0  0  0  0  0  0
  -25.4070  -63.7690   -7.8140 N   0  0  0  0  0  0
  -25.0900  -62.5690   -8.2900 C   0  0  0  0  0  0
  -25.8960  -61.8050   -9.3210 C   0  0  0  0  0  0
  -25.1640  -61.9050  -10.6580 C   0  0  0  0  0  0
  -25.5060  -63.1920  -11.4130 C   0  0  2  0  0  0
  -24.5150  -64.3100  -11.0840 C   0  0  0  0  0  0
  -24.8910  -63.1220  -12.8090 C   0  0  0  0  0  0
  -24.3080  -64.5230  -12.5920 C   0  0  1  0  0  0
  -22.8670  -64.5380  -12.9530 N   0  3  1  0  0  0
  -22.0480  -65.4510  -12.1090 C   0  0  0  0  0  0
  -22.1890  -66.9310  -12.5110 C   0  0  0  0  0  0
  -20.5800  -64.9860  -12.1060 C   0  0  0  0  0  0
  -22.6480  -64.6910  -14.4110 C   0  0  0  0  0  0
  -22.3400  -63.3150  -15.0200 C   0  0  1  0  0  0
  -20.9250  -63.1280  -14.9500 O   0  0  0  0  0  0
  -22.7110  -63.2500  -16.5090 C   0  0  1  0  0  0
  -23.7410  -62.2780  -16.6950 O   0  0  0  0  0  0
  -21.4420  -62.7500  -17.1820 C   0  0  1  0  0  0
  -21.7570  -61.6900  -18.0980 O   0  0  0  0  0  0
  -20.6340  -62.2110  -16.0040 C   0  0  2  0  0  0
  -19.1810  -62.3150  -16.2630 N   0  0  0  0  0  0
  -17.2230  -63.1660  -16.6690 N   0  0  0  0  0  0
  -18.4420  -59.9800  -16.1780 N   0  0  0  0  0  0
  -16.1750  -59.6850  -16.5410 N   0  0  0  0  0  0
  -14.7850  -61.5070  -16.9390 N   0  0  0  0  0  0
  -17.5003  -58.1167  -16.1623 H   0  0  0  0  0  0
  -18.9421  -64.4473  -16.4918 H   0  0  0  0  0  0
  -21.6746  -62.3916   -6.0224 H   0  0  0  0  0  0
  -21.3633  -64.4262   -4.6108 H   0  0  0  0  0  0
  -21.8852  -65.5761   -2.9152 H   0  0  0  0  0  0
  -20.8720  -66.3357   -4.1892 H   0  0  0  0  0  0
  -21.6359  -67.3550   -2.9226 H   0  0  0  0  0  0
  -24.3539  -65.9415   -2.8985 H   0  0  0  0  0  0
  -24.1037  -67.7200   -2.9275 H   0  0  0  0  0  0
  -25.1265  -66.9365   -4.1791 H   0  0  0  0  0  0
  -21.9619  -67.7406   -5.9799 H   0  0  0  0  0  0
  -23.7424  -67.9776   -5.9621 H   0  0  0  0  0  0
  -22.7195  -68.7611   -4.7106 H   0  0  0  0  0  0
  -25.0344  -66.0751   -6.1827 H   0  0  0  0  0  0
  -26.8321  -61.3069   -9.0285 H   0  0  0  0  0  0
  -25.4442  -61.0524  -11.2941 H   0  0  0  0  0  0
  -24.0780  -61.8910  -10.4834 H   0  0  0  0  0  0
  -26.5843  -63.3243  -11.2403 H   0  0  0  0  0  0
  -23.6839  -63.9005  -10.4910 H   0  0  0  0  0  0
  -25.0258  -65.0946  -10.5065 H   0  0  0  0  0  0
  -25.6891  -62.9952  -13.5553 H   0  0  0  0  0  0
  -24.1997  -62.2681  -12.8627 H   0  0  0  0  0  0
  -24.6732  -65.4199  -13.1137 H   0  0  0  0  0  0
  -22.4828  -63.5359  -12.7118 H   0  0  0  0  0  0
  -22.4629  -65.3677  -11.0937 H   0  0  0  0  0  0
  -23.2517  -67.2147  -12.4984 H   0  0  0  0  0  0
  -21.6333  -67.5589  -11.7989 H   0  0  0  0  0  0
  -21.7826  -67.0764  -13.5228 H   0  0  0  0  0  0
  -20.5316  -63.9267  -11.8137 H   0  0  0  0  0  0
  -20.1546  -65.1084  -13.1130 H   0  0  0  0  0  0
  -20.0053  -65.5908  -11.3891 H   0  0  0  0  0  0
  -21.8009  -65.3708  -14.5852 H   0  0  0  0  0  0
  -23.5538  -65.1072  -14.8762 H   0  0  0  0  0  0
  -22.8561  -62.5269  -14.4521 H   0  0  0  0  0  0
  -23.1157  -64.1835  -16.9270 H   0  0  0  0  0  0
  -24.7444  -62.4535  -16.2797 H   0  0  0  0  0  0
  -20.9210  -63.4879  -17.8098 H   0  0  0  0  0  0
  -22.3379  -61.9034  -19.0074 H   0  0  0  0  0  0
  -20.8707  -61.1678  -15.7479 H   0  0  0  0  0  0
  -14.6536  -62.5923  -17.0607 H   0  0  0  0  0  0
  -13.9177  -60.8354  -17.0209 H   0  0  0  0  0  0
  -26.2544  -64.4404   -8.0167 H   0  0  0  0  0  0
  1 39  2  0  0  0
  1 40  1  0  0  0
  1 42  1  0  0  0
  2  3  2  0  0  0
  2 37  1  0  0  0
  2 39  1  0  0  0
  3  4  1  0  0  0
  3 38  1  0  0  0
  4 40  2  0  0  0
  4 41  1  0  0  0
  5 37  1  0  0  0
  5 38  2  0  0  0
  5 43  1  0  0  0
  6  7  2  0  0  0
  6 18  1  0  0  0
  7  8  1  0  0  0
  7 16  1  0  0  0
  8  9  2  0  0  0
  8 44  1  0  0  0
  9 10  1  0  0  0
  9 45  1  0  0  0
 10 11  1  0  0  0
 10 15  1  0  0  0
 11 12  1  0  0  0
 11 13  1  0  0  0
 11 14  1  0  0  0
 12 46  1  0  0  0
 12 47  1  0  0  0
 12 48  1  0  0  0
 13 49  1  0  0  0
 13 50  1  0  0  0
 13 51  1  0  0  0
 14 52  1  0  0  0
 14 53  1  0  0  0
 14 54  1  0  0  0
 15 16  2  0  0  0
 15 55  1  0  0  0
 16 17  1  0  0  0
 17 18  1  0  0  0
 17 83  1  0  0  0
 18 19  2  0  0  0
 19 20  1  0  0  0
 19 56  1  0  0  0
 20 21  1  0  0  0
 20 57  1  0  0  0
 20 58  1  0  0  0
 21 22  1  0  0  0
 21 23  1  0  0  0
 21 59  1  0  0  0
 22 24  1  0  0  0
 22 60  1  0  0  0
 22 61  1  0  0  0
 23 24  1  0  0  0
 23 62  1  0  0  0
 23 63  1  0  0  0
 24 25  1  0  0  0
 24 64  1  0  0  0
 25 26  1  0  0  0
 25 29  1  0  0  0
 25 65  1  0  0  0
 26 27  1  0  0  0
 26 28  1  0  0  0
 26 66  1  0  0  0
 27 67  1  0  0  0
 27 68  1  0  0  0
 27 69  1  0  0  0
 28 70  1  0  0  0
 28 71  1  0  0  0
 28 72  1  0  0  0
 29 30  1  0  0  0
 29 73  1  0  0  0
 29 74  1  0  0  0
 30 31  1  0  0  0
 30 32  1  0  0  0
 30 75  1  0  0  0
 31 36  1  0  0  0
 32 33  1  0  0  0
 32 34  1  0  0  0
 32 76  1  0  0  0
 33 77  1  0  0  0
 34 35  1  0  0  0
 34 36  1  0  0  0
 34 78  1  0  0  0
 35 79  1  0  0  0
 36 37  1  0  0  0
 36 80  1  0  0  0
 41 81  1  0  0  0
 41 82  1  0  0  0
M  CHG  1  25   1
M  END
> <s_m_source_file>
../4hra_ligand.sdf

> <i_m_source_file_index>
1

> <s_epik_input>
bjFbY0hdbmMoW05IMl0pYyhjMTIpbltjSF1uMltDQEBIXShbQ0BIXShbT0hdKVtDQEBIXTNbT0hdKU9bQ0BASF0zW0NIMl1bTkBIK10oW0NIXShbQ0gzXSlbQ0gzXSlbQ0BIXShbQ0gyXTQpW0NIMl1bQ0BIXTRbQ0gyXVtDSDJdQyhOPTUpPU5DKEM1Nik9W0NIXVtDSF0oW0NIXT1bQ0hdNilDKFtDSDNdKShbQ0gzXSlbQ0gzXQ==

> <s_epik_cmdline>
J2VwaWtfYXBwJywgJy1pbWFlJywgJ2xpZ2FuZF9wcm8ubWFlJywgJy1vbWFlJywgJ2xpZ2FuZF9wcmVwLm1hZScsICctbXMnLCAnMScsICctcGgnLCAnNycsICctcGh0JywgJzAuNScsICctbnQn

> <r_epik_Ionization_Penalty>
  0.0135

> <r_epik_Ionization_Penalty_Charging>
  0.0130

> <r_epik_Ionization_Penalty_Neutral>
  0.0004

> <r_epik_State_Penalty>
  0.0100

> <r_epik_Charging_Adjusted_Penalty>
0.023038010383095

> <i_epik_Tot_Q>
1

> <i_epik_Tot_abs_Q>
1

> <s_epik_Chemistry_Notes>
This compound has an imine and may undergo hydrolysis. This compound contains an acetal/aminal-like group ( X-CH(R)-Y where X, Y are N, S, or O) that may be acid/base labile, releasing an aldehyde.

$$$$
