4hrc_ligand
                    3D
 Schrodinger Suite 2020-3.
 89 88  0  0  1  0            999 V2000
   58.0620 -134.9130   33.8310 C   0  0  0  0  0  0
   59.2210 -135.6450   34.4650 C   0  0  0  0  0  0
   59.3120 -136.8580   34.3660 O   0  0  0  0  0  0
   56.8840 -134.9370   34.8010 C   0  0  0  0  0  0
   55.7310 -134.1130   34.2500 C   0  0  0  0  0  0
   54.5790 -134.0470   35.2450 C   0  0  0  0  0  0
   53.2810 -133.7330   34.5270 C   0  0  0  0  0  0
   60.1020 -134.8930   35.1180 N   0  0  0  0  0  0
   61.2630 -135.4520   35.7780 C   0  0  2  0  0  0
   61.0050 -135.5740   37.2470 C   0  0  0  0  0  0
   60.5590 -134.6270   37.8640 O   0  0  0  0  0  0
   62.4980 -134.5990   35.4940 C   0  0  0  0  0  0
   62.9200 -134.7150   34.0370 C   0  0  0  0  0  0
   63.6670 -134.9630   36.3930 C   0  0  0  0  0  0
   62.4110 -136.9600   39.9570 C   0  0  0  0  0  0
   58.1600 -138.7620   39.0410 C   0  0  0  0  0  0
   59.4700 -138.7890   38.2850 C   0  0  0  0  0  0
   61.2900 -136.7550   37.7830 N   0  0  0  0  0  0
   58.0680 -138.1890   40.1160 O   0  0  0  0  0  0
   57.1310 -139.3870   38.4710 N   0  0  0  0  0  0
   56.2260 -138.7070   37.5490 C   0  0  0  0  0  0
   56.8370 -140.7920   38.7320 C   0  0  0  0  0  0
   61.1280 -137.1150   39.1770 C   0  0  1  0  0  0
   60.6300 -138.5500   39.2420 C   0  0  0  0  0  0
   63.4950 -136.9160   39.3790 O   0  0  0  0  0  0
   62.2810 -136.8880   41.2900 N   0  0  0  0  0  0
   62.0260 -137.5430   44.0420 O   0  0  0  0  0  0
   62.2600 -139.9440   41.6000 O   0  0  0  0  0  0
   63.3810 -136.6910   42.2190 C   0  0  2  0  0  0
   63.3490 -137.5770   43.4820 C   0  0  2  0  0  0
   64.3680 -134.2720   42.2000 C   0  0  0  0  0  0
   64.8250 -134.3970   40.7500 C   0  0  0  0  0  0
   63.9660 -132.8320   42.4950 C   0  0  0  0  0  0
   63.2330 -135.2150   42.5980 C   0  0  0  0  0  0
   62.5240 -139.9160   43.0040 C   0  0  0  0  0  0
   64.7610 -139.2210   42.1560 C   0  0  0  0  0  0
   63.7550 -139.0650   43.3000 C   0  0  1  0  0  0
   58.3549 -133.8735   33.6223 H   0  0  0  0  0  0
   57.7838 -135.4114   32.8907 H   0  0  0  0  0  0
   56.5480 -135.9746   34.9442 H   0  0  0  0  0  0
   57.1966 -134.5161   35.7680 H   0  0  0  0  0  0
   56.0773 -133.0894   34.0445 H   0  0  0  0  0  0
   55.3656 -134.5704   33.3187 H   0  0  0  0  0  0
   54.4809 -135.0156   35.7571 H   0  0  0  0  0  0
   54.7792 -133.2591   35.9860 H   0  0  0  0  0  0
   52.4595 -133.6886   35.2572 H   0  0  0  0  0  0
   53.0718 -134.5195   33.7870 H   0  0  0  0  0  0
   53.3701 -132.7630   34.0159 H   0  0  0  0  0  0
   59.9230 -133.8080   35.1454 H   0  0  0  0  0  0
   61.4071 -136.4621   35.3669 H   0  0  0  0  0  0
   62.2196 -133.5566   35.7083 H   0  0  0  0  0  0
   62.0723 -134.4511   33.3876 H   0  0  0  0  0  0
   63.2346 -135.7480   33.8275 H   0  0  0  0  0  0
   63.7582 -134.0298   33.8424 H   0  0  0  0  0  0
   63.3600 -134.8785   37.4459 H   0  0  0  0  0  0
   64.5056 -134.2779   36.1995 H   0  0  0  0  0  0
   63.9820 -135.9961   36.1846 H   0  0  0  0  0  0
   59.5951 -139.7699   37.8032 H   0  0  0  0  0  0
   59.4666 -138.0012   37.5173 H   0  0  0  0  0  0
   61.6806 -137.4924   37.0663 H   0  0  0  0  0  0
   56.5430 -137.6605   37.4291 H   0  0  0  0  0  0
   55.2026 -138.7363   37.9513 H   0  0  0  0  0  0
   56.2505 -139.2118   36.5720 H   0  0  0  0  0  0
   57.5791 -141.1973   39.4356 H   0  0  0  0  0  0
   56.8791 -141.3567   37.7890 H   0  0  0  0  0  0
   55.8312 -140.8812   39.1683 H   0  0  0  0  0  0
   60.3995 -136.4073   39.5993 H   0  0  0  0  0  0
   60.3040 -138.7564   40.2721 H   0  0  0  0  0  0
   61.4644 -139.2176   38.9808 H   0  0  0  0  0  0
   61.2531 -136.9898   41.6683 H   0  0  0  0  0  0
   61.5428 -136.5776   44.2531 H   0  0  0  0  0  0
   61.4034 -140.5152   41.2127 H   0  0  0  0  0  0
   64.3092 -136.9760   41.7020 H   0  0  0  0  0  0
   64.0573 -137.1224   44.1903 H   0  0  0  0  0  0
   65.2349 -134.5706   42.8077 H   0  0  0  0  0  0
   65.6397 -133.6829   40.5595 H   0  0  0  0  0  0
   63.9810 -134.1779   40.0794 H   0  0  0  0  0  0
   65.1838 -135.4204   40.5656 H   0  0  0  0  0  0
   64.7851 -132.1564   42.2074 H   0  0  0  0  0  0
   63.7600 -132.7217   43.5699 H   0  0  0  0  0  0
   63.0627 -132.5785   41.9207 H   0  0  0  0  0  0
   62.3303 -134.8033   42.1231 H   0  0  0  0  0  0
   63.1464 -135.1239   43.6908 H   0  0  0  0  0  0
   61.6588 -139.4878   43.5313 H   0  0  0  0  0  0
   62.7028 -140.9399   43.3640 H   0  0  0  0  0  0
   65.6510 -138.6091   42.3644 H   0  0  0  0  0  0
   64.2998 -138.8886   41.2143 H   0  0  0  0  0  0
   65.0547 -140.2774   42.0676 H   0  0  0  0  0  0
   64.2217 -139.4207   44.2304 H   0  0  0  0  0  0
  1  2  1  0  0  0
  1  4  1  0  0  0
  1 38  1  0  0  0
  1 39  1  0  0  0
  2  3  2  0  0  0
  2  8  1  0  0  0
  4  5  1  0  0  0
  4 40  1  0  0  0
  4 41  1  0  0  0
  5  6  1  0  0  0
  5 42  1  0  0  0
  5 43  1  0  0  0
  6  7  1  0  0  0
  6 44  1  0  0  0
  6 45  1  0  0  0
  7 46  1  0  0  0
  7 47  1  0  0  0
  7 48  1  0  0  0
  8  9  1  0  0  0
  8 49  1  0  0  0
  9 10  1  0  0  0
  9 12  1  0  0  0
  9 50  1  0  0  0
 10 11  2  0  0  0
 10 18  1  0  0  0
 12 13  1  0  0  0
 12 14  1  0  0  0
 12 51  1  0  0  0
 13 52  1  0  0  0
 13 53  1  0  0  0
 13 54  1  0  0  0
 14 55  1  0  0  0
 14 56  1  0  0  0
 14 57  1  0  0  0
 15 23  1  0  0  0
 15 25  2  0  0  0
 15 26  1  0  0  0
 16 17  1  0  0  0
 16 19  2  0  0  0
 16 20  1  0  0  0
 17 24  1  0  0  0
 17 58  1  0  0  0
 17 59  1  0  0  0
 18 23  1  0  0  0
 18 60  1  0  0  0
 20 21  1  0  0  0
 20 22  1  0  0  0
 21 61  1  0  0  0
 21 62  1  0  0  0
 21 63  1  0  0  0
 22 64  1  0  0  0
 22 65  1  0  0  0
 22 66  1  0  0  0
 23 24  1  0  0  0
 23 67  1  0  0  0
 24 68  1  0  0  0
 24 69  1  0  0  0
 26 29  1  0  0  0
 26 70  1  0  0  0
 27 30  1  0  0  0
 27 71  1  0  0  0
 28 35  1  0  0  0
 28 72  1  0  0  0
 29 30  1  0  0  0
 29 34  1  0  0  0
 29 73  1  0  0  0
 30 37  1  0  0  0
 30 74  1  0  0  0
 31 32  1  0  0  0
 31 33  1  0  0  0
 31 34  1  0  0  0
 31 75  1  0  0  0
 32 76  1  0  0  0
 32 77  1  0  0  0
 32 78  1  0  0  0
 33 79  1  0  0  0
 33 80  1  0  0  0
 33 81  1  0  0  0
 34 82  1  0  0  0
 34 83  1  0  0  0
 35 37  1  0  0  0
 35 84  1  0  0  0
 35 85  1  0  0  0
 36 37  1  0  0  0
 36 86  1  0  0  0
 36 87  1  0  0  0
 36 88  1  0  0  0
 37 89  1  0  0  0
M  END
> <s_m_source_file>
../4hrc_ligand.sdf

> <i_m_source_file_index>
1

> <s_epik_input>
W0NIM11bQ0gyXVtDSDJdW0NIMl1bQ0gyXUMoPU8pW05IXVtDQEBIXShbQ0hdKFtDSDNdKVtDSDNdKUMoPU8pW05IXVtDQEBIXShbQ0gyXVtDSDJdQyg9TylOKFtDSDNdKVtDSDNdKUMoPU8pW05IXVtDQEBIXShbQ0gyXVtDSF0oW0NIM10pW0NIM10pW0NAQEhdKFtPSF0pW0NASF0oW0NIM10pW0NIMl1bT0hd

> <s_epik_cmdline>
J2VwaWtfYXBwJywgJy1pbWFlJywgJ2xpZ2FuZF9wcm8ubWFlJywgJy1vbWFlJywgJ2xpZ2FuZF9wcmVwLm1hZScsICctbXMnLCAnMScsICctcGgnLCAnNycsICctcGh0JywgJzAuNScsICctbnQn

> <r_lp_tautomer_probability>
1

> <r_epik_Ionization_Penalty>
  0.0000

> <r_epik_Ionization_Penalty_Charging>
  0.0000

> <r_epik_Ionization_Penalty_Neutral>
  0.0000

> <r_epik_State_Penalty>
 -0.0000

> <r_epik_Charging_Adjusted_Penalty>
0

> <i_epik_Tot_Q>
0

> <i_epik_Tot_abs_Q>
0

$$$$
