4hrd_ligand
                    3D
 Schrodinger Suite 2020-3.
 85 84  0  0  1  0            999 V2000
   58.2800 -134.4440   34.2720 C   0  0  0  0  0  0
   59.3560 -135.2370   34.9120 C   0  0  0  0  0  0
   59.3150 -136.4110   34.9350 O   0  0  0  0  0  0
   57.1110 -134.4230   35.2270 C   0  0  0  0  0  0
   55.9470 -133.6430   34.6570 C   0  0  0  0  0  0
   54.8490 -133.5340   35.6840 C   0  0  0  0  0  0
   53.5420 -133.3600   34.9630 C   0  0  0  0  0  0
   60.3320 -134.5980   35.4510 N   0  0  0  0  0  0
   61.3740 -135.2370   36.1430 C   0  0  2  0  0  0
   60.9640 -135.3590   37.5360 C   0  0  0  0  0  0
   60.3860 -134.4300   37.9830 O   0  0  0  0  0  0
   62.3960 -134.1660   36.0180 C   0  0  0  0  0  0
   62.6370 -133.9590   34.5570 C   0  0  0  0  0  0
   63.7020 -134.5070   36.6500 C   0  0  0  0  0  0
   61.2340 -136.4620   38.2200 N   0  0  0  0  0  0
   61.0280 -136.5720   39.6380 C   0  0  1  0  0  0
   60.2700 -137.8490   39.9980 C   0  0  0  0  0  0
   59.1810 -138.3990   39.0740 C   0  0  0  0  0  0
   59.5970 -140.0360   38.6930 S   0  0  2  0  0  0
   59.8490 -140.1620   37.2370 O   0  0  0  0  0  0
   58.4540 -141.1870   39.1990 C   0  0  0  0  0  0
   62.3180 -136.5360   40.4030 C   0  0  0  0  0  0
   63.3560 -136.7670   39.8750 O   0  0  0  0  0  0
   62.2880 -136.2640   41.6940 N   0  0  0  0  0  0
   62.0030 -136.9470   44.2510 O   0  0  0  0  0  0
   62.7250 -139.9190   41.8750 O   0  0  0  0  0  0
   63.4410 -136.2380   42.5690 C   0  0  2  0  0  0
   63.3070 -137.0970   43.8000 C   0  0  2  0  0  0
   63.5140 -133.7700   42.2000 C   0  0  0  0  0  0
   63.6160 -132.4860   42.9460 C   0  0  0  0  0  0
   64.7260 -133.9120   41.3560 C   0  0  0  0  0  0
   63.5450 -134.8760   43.1890 C   0  0  0  0  0  0
   62.4670 -139.2750   43.1080 C   0  0  0  0  0  0
   64.8100 -138.7290   42.6430 C   0  0  0  0  0  0
   63.6730 -138.5580   43.6280 C   0  0  1  0  0  0
   58.6413 -133.4228   34.0808 H   0  0  0  0  0  0
   57.9934 -134.9156   33.3205 H   0  0  0  0  0  0
   56.7787 -135.4532   35.4224 H   0  0  0  0  0  0
   57.4180 -133.9513   36.1721 H   0  0  0  0  0  0
   56.2836 -132.6337   34.3778 H   0  0  0  0  0  0
   55.5602 -134.1599   33.7664 H   0  0  0  0  0  0
   54.8243 -134.4498   36.2929 H   0  0  0  0  0  0
   55.0392 -132.6669   36.3335 H   0  0  0  0  0  0
   52.7265 -133.2784   35.6967 H   0  0  0  0  0  0
   53.3639 -134.2286   34.3120 H   0  0  0  0  0  0
   53.5789 -132.4457   34.3526 H   0  0  0  0  0  0
   60.3282 -133.5025   35.3520 H   0  0  0  0  0  0
   61.6454 -136.2391   35.7795 H   0  0  0  0  0  0
   62.0087 -133.2770   36.5374 H   0  0  0  0  0  0
   61.6884 -133.7051   34.0613 H   0  0  0  0  0  0
   63.0445 -134.8818   34.1183 H   0  0  0  0  0  0
   63.3554 -133.1379   34.4166 H   0  0  0  0  0  0
   63.5569 -134.6657   37.7288 H   0  0  0  0  0  0
   64.4119 -133.6815   36.4930 H   0  0  0  0  0  0
   64.1010 -135.4254   36.1946 H   0  0  0  0  0  0
   61.6324 -137.3170   37.6541 H   0  0  0  0  0  0
   60.4405 -135.6717   39.8712 H   0  0  0  0  0  0
   60.9802 -138.6844   40.0862 H   0  0  0  0  0  0
   59.7488 -137.7082   40.9564 H   0  0  0  0  0  0
   58.2095 -138.3597   39.5883 H   0  0  0  0  0  0
   59.1359 -137.7914   38.1582 H   0  0  0  0  0  0
   60.5660 -139.4900   36.7427 H   0  0  0  0  0  0
   58.2792 -141.0796   40.2797 H   0  0  0  0  0  0
   58.8331 -142.1977   38.9875 H   0  0  0  0  0  0
   57.5098 -141.0287   38.6573 H   0  0  0  0  0  0
   61.2876 -136.0456   42.0958 H   0  0  0  0  0  0
   61.5930 -135.9409   44.4235 H   0  0  0  0  0  0
   61.9273 -140.4867   41.3735 H   0  0  0  0  0  0
   64.2512 -136.5647   41.9006 H   0  0  0  0  0  0
   63.9742 -136.7219   44.5900 H   0  0  0  0  0  0
   62.5972 -133.7945   41.5927 H   0  0  0  0  0  0
   63.5954 -131.6465   42.2355 H   0  0  0  0  0  0
   64.5592 -132.4646   43.5117 H   0  0  0  0  0  0
   62.7688 -132.3981   43.6421 H   0  0  0  0  0  0
   64.7455 -133.1091   40.6043 H   0  0  0  0  0  0
   64.7077 -134.8882   40.8494 H   0  0  0  0  0  0
   65.6233 -133.8439   41.9886 H   0  0  0  0  0  0
   62.7032 -134.7226   43.8802 H   0  0  0  0  0  0
   64.4926 -134.7962   43.7419 H   0  0  0  0  0  0
   61.6601 -138.5392   42.9756 H   0  0  0  0  0  0
   62.1626 -140.0224   43.8554 H   0  0  0  0  0  0
   65.7015 -138.2047   43.0175 H   0  0  0  0  0  0
   64.5185 -138.3074   41.6697 H   0  0  0  0  0  0
   65.0361 -139.7992   42.5262 H   0  0  0  0  0  0
   63.9889 -138.9741   44.5960 H   0  0  0  0  0  0
  1  2  1  0  0  0
  1  4  1  0  0  0
  1 36  1  0  0  0
  1 37  1  0  0  0
  2  3  2  0  0  0
  2  8  1  0  0  0
  4  5  1  0  0  0
  4 38  1  0  0  0
  4 39  1  0  0  0
  5  6  1  0  0  0
  5 40  1  0  0  0
  5 41  1  0  0  0
  6  7  1  0  0  0
  6 42  1  0  0  0
  6 43  1  0  0  0
  7 44  1  0  0  0
  7 45  1  0  0  0
  7 46  1  0  0  0
  8  9  1  0  0  0
  8 47  1  0  0  0
  9 10  1  0  0  0
  9 12  1  0  0  0
  9 48  1  0  0  0
 10 11  2  0  0  0
 10 15  1  0  0  0
 12 13  1  0  0  0
 12 14  1  0  0  0
 12 49  1  0  0  0
 13 50  1  0  0  0
 13 51  1  0  0  0
 13 52  1  0  0  0
 14 53  1  0  0  0
 14 54  1  0  0  0
 14 55  1  0  0  0
 15 16  1  0  0  0
 15 56  1  0  0  0
 16 17  1  0  0  0
 16 22  1  0  0  0
 16 57  1  0  0  0
 17 18  1  0  0  0
 17 58  1  0  0  0
 17 59  1  0  0  0
 18 19  1  0  0  0
 18 60  1  0  0  0
 18 61  1  0  0  0
 19 20  1  0  0  0
 19 21  1  0  0  0
 20 62  1  0  0  0
 21 63  1  0  0  0
 21 64  1  0  0  0
 21 65  1  0  0  0
 22 23  2  0  0  0
 22 24  1  0  0  0
 24 27  1  0  0  0
 24 66  1  0  0  0
 25 28  1  0  0  0
 25 67  1  0  0  0
 26 33  1  0  0  0
 26 68  1  0  0  0
 27 28  1  0  0  0
 27 32  1  0  0  0
 27 69  1  0  0  0
 28 35  1  0  0  0
 28 70  1  0  0  0
 29 30  1  0  0  0
 29 31  1  0  0  0
 29 32  1  0  0  0
 29 71  1  0  0  0
 30 72  1  0  0  0
 30 73  1  0  0  0
 30 74  1  0  0  0
 31 75  1  0  0  0
 31 76  1  0  0  0
 31 77  1  0  0  0
 32 78  1  0  0  0
 32 79  1  0  0  0
 33 35  1  0  0  0
 33 80  1  0  0  0
 33 81  1  0  0  0
 34 35  1  0  0  0
 34 82  1  0  0  0
 34 83  1  0  0  0
 34 84  1  0  0  0
 35 85  1  0  0  0
M  END
> <s_m_source_file>
../4hrd_ligand.sdf

> <i_m_source_file_index>
1

> <s_epik_input>
W0NIM11bQ0gyXVtDSDJdW0NIMl1bQ0gyXUMoPU8pW05IXVtDQEBIXShbQ0hdKFtDSDNdKVtDSDNdKUMoPU8pW05IXVtDQEBIXShbQ0gyXVtDSDJdW1NASF0oW09IXSlbQ0gzXSlDKD1PKVtOSF1bQ0BASF0oW0NIMl1bQ0hdKFtDSDNdKVtDSDNdKVtDQEBIXShbT0hdKVtDQEhdKFtDSDNdKVtDSDJdW09IXQ==

> <s_epik_cmdline>
J2VwaWtfYXBwJywgJy1pbWFlJywgJ2xpZ2FuZF9wcm8ubWFlJywgJy1vbWFlJywgJ2xpZ2FuZF9wcmVwLm1hZScsICctbXMnLCAnMScsICctcGgnLCAnNycsICctcGh0JywgJzAuNScsICctbnQn

> <r_lp_tautomer_probability>
1

> <r_epik_Ionization_Penalty>
  0.0000

> <r_epik_Ionization_Penalty_Charging>
  0.0000

> <r_epik_Ionization_Penalty_Neutral>
  0.0000

> <r_epik_State_Penalty>
 -0.0000

> <r_epik_Charging_Adjusted_Penalty>
0

> <i_epik_Tot_Q>
0

> <i_epik_Tot_abs_Q>
0

$$$$
