4hs6_ligand
                    3D
 Schrodinger Suite 2020-3.
191193  0  0  1  0            999 V2000
   47.6840   30.4200  -13.5990 N   0  3  0  0  0  0
   46.9130   29.3060  -13.0020 C   0  0  2  0  0  0
   47.8730   28.1520  -12.6790 C   0  0  0  0  0  0
   48.7170   27.7790  -13.5040 O   0  0  0  0  0  0
   45.7760   28.8950  -13.9570 C   0  0  0  0  0  0
   46.1290   28.9320  -15.4760 C   0  0  0  0  0  0
   46.1680   30.3340  -16.1240 C   0  0  0  0  0  0
   46.8760   31.2220  -15.6660 O   0  0  0  0  0  0
   45.4380   30.5040  -17.2330 N   0  0  0  0  0  0
   47.7680   27.6220  -11.4620 N   0  0  0  0  0  0
   48.5910   26.4860  -11.0460 C   0  0  2  0  0  0
   48.1450   25.2290  -11.7870 C   0  0  0  0  0  0
   46.9920   25.1130  -12.2140 O   0  0  0  0  0  0
   48.4920   26.2540   -9.5320 C   0  0  0  0  0  0
   48.9850   27.3930   -8.6320 C   0  0  0  0  0  0
   48.5950   27.1480   -7.1760 C   0  0  0  0  0  0
   50.4960   27.5670   -8.7550 C   0  0  0  0  0  0
   49.0890   24.3000  -11.9340 N   0  0  0  0  0  0
   48.8820   23.0150  -12.6030 C   0  0  2  0  0  0
   49.0240   21.9200  -11.5560 C   0  0  0  0  0  0
   49.8990   22.0040  -10.6990 O   0  0  0  0  0  0
   49.9600   22.7740  -13.6870 C   0  0  2  0  0  0
   50.0400   23.9510  -14.6620 C   0  0  0  0  0  0
   49.7020   21.4840  -14.4430 C   0  0  0  0  0  0
   48.7960   24.1760  -15.4370 C   0  0  0  0  0  0
   48.1910   20.8800  -11.6390 N   0  0  0  0  0  0
   48.3070   19.7560  -10.7190 C   0  0  2  0  0  0
   49.0220   18.5660  -11.3690 C   0  0  0  0  0  0
   48.6970   18.1620  -12.4890 O   0  0  0  0  0  0
   46.9310   19.3410  -10.1970 C   0  0  0  0  0  0
   47.0200   18.4450   -8.9780 C   0  0  0  0  0  0
   47.1170   17.2100   -9.1080 O   0  0  0  0  0  0
   47.0170   19.0500   -7.7780 N   0  0  0  0  0  0
   50.0080   18.0250  -10.6550 N   0  0  0  0  0  0
   50.7040   16.7920  -11.0590 C   0  0  2  0  0  0
   50.8040   15.8920   -9.8300 C   0  0  0  0  0  0
   51.2900   16.3120   -8.7830 O   0  0  0  0  0  0
   52.1160   17.0950  -11.6120 C   0  0  2  0  0  0
   52.0070   17.9390  -12.7680 O   0  0  0  0  0  0
   52.8310   15.8130  -12.0100 C   0  0  0  0  0  0
   50.2860   14.6670   -9.9420 N   0  0  0  0  0  0
   50.3760   13.6790   -8.8690 C   0  0  2  0  0  0
   49.8410   14.2020   -7.5350 C   0  0  0  0  0  0
   50.3420   13.8590   -6.4700 O   0  0  0  0  0  0
   51.8250   13.1900   -8.7150 C   0  0  0  0  0  0
   51.9340   11.9310   -7.8690 C   0  0  0  0  0  0
   51.0870   11.0340   -7.9510 O   0  0  0  0  0  0
   52.9710   11.8650   -7.0370 N   0  0  0  0  0  0
   48.8040   15.0390   -7.6080 N   0  0  0  0  0  0
   48.0880   15.4990   -6.4240 C   0  0  0  0  0  0
   48.4780   16.8810   -5.9360 C   0  0  0  0  0  0
   47.7420   17.4600   -5.1440 O   0  0  0  0  0  0
   49.6170   17.3960   -6.3790 N   0  0  0  0  0  0
   50.1150   18.6840   -5.8820 C   0  0  2  0  0  0
   50.0720   19.7700   -6.9470 C   0  0  0  0  0  0
   50.3750   19.5330   -8.1190 O   0  0  0  0  0  0
   51.5210   18.5120   -5.3220 C   0  0  0  0  0  0
   51.4670   17.7200   -4.1510 O   0  0  0  0  0  0
   49.6930   20.9740   -6.5230 N   0  0  0  0  0  0
   49.6020   22.1150   -7.4200 C   0  0  2  0  0  0
   50.9430   22.8350   -7.4520 C   0  0  0  0  0  0
   51.5740   22.9950   -6.4090 O   0  0  0  0  0  0
   48.4850   23.0620   -6.9620 C   0  0  0  0  0  0
   47.1100   22.4350   -6.9940 C   0  0  0  0  0  0
   46.4810   21.8030   -5.9660 C   0  0  0  0  0  0
   46.2000   22.3980   -8.1030 C   0  0  0  0  0  0
   45.2380   21.3620   -6.3610 N   0  0  0  0  0  0
   45.0450   21.7030   -7.6740 C   0  0  0  0  0  0
   46.2520   22.8620   -9.4220 C   0  0  0  0  0  0
   43.9450   21.4780   -8.5150 C   0  0  0  0  0  0
   45.1580   22.6380  -10.2510 C   0  0  0  0  0  0
   44.0290   21.9430   -9.8020 C   0  0  0  0  0  0
   51.3730   23.2250   -8.6540 N   0  0  0  0  0  0
   52.6700   23.8770   -8.8610 C   0  0  2  0  0  0
   52.5870   24.8870   -9.9940 C   0  0  0  0  0  0
   51.6260   24.9100  -10.7520 O   0  0  0  0  0  0
   53.7530   22.8290   -9.1710 C   0  0  0  0  0  0
   53.4050   21.9240  -10.3120 C   0  0  0  0  0  0
   53.8530   22.1420  -11.5970 N   0  0  0  0  0  0
   52.6530   20.7980  -10.3610 C   0  0  0  0  0  0
   53.3990   21.1840  -12.3820 C   0  0  0  0  0  0
   52.6670   20.3580  -11.6610 N   0  0  0  0  0  0
   53.6150   25.7230  -10.1120 N   0  0  0  0  0  0
   53.6470   26.6970  -11.1900 C   0  0  2  0  0  0
   53.9060   25.9930  -12.5250 C   0  0  0  0  0  0
   54.6930   25.0510  -12.5830 O   0  0  0  0  0  0
   54.7110   27.7850  -10.9380 C   0  0  2  0  0  0
   54.3630   28.5740   -9.6700 C   0  0  0  0  0  0
   54.8130   28.7250  -12.1320 C   0  0  0  0  0  0
   53.0410   29.3130   -9.7400 C   0  0  0  0  0  0
   53.2030   26.4490  -13.5660 N   0  0  0  0  0  0
   53.4150   26.0560  -14.9750 C   0  0  2  0  0  0
   52.1700   26.3320  -15.8160 C   0  0  0  0  0  0
   52.2610   26.5059  -17.0606 O   0  0  0  0  0  0
   53.8370   24.5850  -15.1460 C   0  0  0  0  0  0
   55.3160   24.4340  -15.4810 C   0  0  0  0  0  0
   55.7890   24.9540  -16.4930 O   0  0  0  0  0  0
   56.0470   23.7130  -14.6360 N   0  0  0  0  0  0
   51.0409   26.3863  -15.2595 O   0  0  0  0  0  0
   48.4952   30.7120  -12.9158 H   0  0  0  0  0  0
   47.0177   31.2792  -13.7654 H   0  0  0  0  0  0
   48.1120   30.0964  -14.5593 H   0  0  0  0  0  0
   46.4585   29.6511  -12.0616 H   0  0  0  0  0  0
   45.4661   27.8631  -13.7355 H   0  0  0  0  0  0
   44.9199   29.5722  -13.8208 H   0  0  0  0  0  0
   47.1260   28.4941  -15.6315 H   0  0  0  0  0  0
   45.3825   28.3537  -16.0401 H   0  0  0  0  0  0
   44.8144   29.6811  -17.6125 H   0  0  0  0  0  0
   45.4617   31.4666  -17.7649 H   0  0  0  0  0  0
   47.0403   28.0593  -10.7626 H   0  0  0  0  0  0
   49.6237   26.7525  -11.3155 H   0  0  0  0  0  0
   47.4409   26.0854   -9.2549 H   0  0  0  0  0  0
   49.0898   25.3728   -9.2562 H   0  0  0  0  0  0
   48.5020   28.3235   -8.9650 H   0  0  0  0  0  0
   47.5043   27.0248   -7.1043 H   0  0  0  0  0  0
   48.9081   28.0061   -6.5632 H   0  0  0  0  0  0
   49.0917   26.2366   -6.8118 H   0  0  0  0  0  0
   50.7603   27.7424   -9.8083 H   0  0  0  0  0  0
   51.0002   26.6573   -8.3970 H   0  0  0  0  0  0
   50.8166   28.4268   -8.1484 H   0  0  0  0  0  0
   50.0746   24.5487  -11.5135 H   0  0  0  0  0  0
   47.8768   23.0509  -13.0482 H   0  0  0  0  0  0
   50.9339   22.6747  -13.1853 H   0  0  0  0  0  0
   50.2472   24.8760  -14.1039 H   0  0  0  0  0  0
   50.8472   23.7719  -15.3875 H   0  0  0  0  0  0
   49.6468   20.6469  -13.7316 H   0  0  0  0  0  0
   50.5211   21.3064  -15.1554 H   0  0  0  0  0  0
   48.7510   21.5636  -14.9901 H   0  0  0  0  0  0
   48.9340   25.0344  -16.1108 H   0  0  0  0  0  0
   47.9656   24.3823  -14.7457 H   0  0  0  0  0  0
   48.5656   23.2782  -16.0293 H   0  0  0  0  0  0
   47.4101   20.8783  -12.4137 H   0  0  0  0  0  0
   48.9217   20.1365   -9.8899 H   0  0  0  0  0  0
   46.3591   20.2381   -9.9174 H   0  0  0  0  0  0
   46.3911   18.7921  -10.9826 H   0  0  0  0  0  0
   46.9290   20.1446   -7.7141 H   0  0  0  0  0  0
   47.1025   18.4506   -6.8596 H   0  0  0  0  0  0
   50.2965   18.5406   -9.7271 H   0  0  0  0  0  0
   50.1038   16.3242  -11.8533 H   0  0  0  0  0  0
   52.7136   17.6445  -10.8698 H   0  0  0  0  0  0
   51.5169   18.9206  -12.6881 H   0  0  0  0  0  0
   52.9215   15.1560  -11.1324 H   0  0  0  0  0  0
   53.8338   16.0557  -12.3913 H   0  0  0  0  0  0
   52.2548   15.3001  -12.7941 H   0  0  0  0  0  0
   49.7774   14.4118  -10.8834 H   0  0  0  0  0  0
   49.7177   12.8625   -9.2006 H   0  0  0  0  0  0
   52.2437   12.9659   -9.7072 H   0  0  0  0  0  0
   52.4270   13.9734   -8.2314 H   0  0  0  0  0  0
   53.6992   12.6886   -6.9994 H   0  0  0  0  0  0
   53.0997   10.9869   -6.3871 H   0  0  0  0  0  0
   48.4942   15.3823   -8.6061 H   0  0  0  0  0  0
   47.0095   15.5331   -6.6379 H   0  0  0  0  0  0
   48.2747   14.8061   -5.5903 H   0  0  0  0  0  0
   50.1913   16.8384   -7.1335 H   0  0  0  0  0  0
   49.4233   18.9831   -5.0807 H   0  0  0  0  0  0
   52.1561   18.0168   -6.0713 H   0  0  0  0  0  0
   51.9421   19.4987   -5.0789 H   0  0  0  0  0  0
   52.3912   17.4859   -3.6022 H   0  0  0  0  0  0
   49.4448   21.0907   -5.4577 H   0  0  0  0  0  0
   49.3644   21.7182   -8.4180 H   0  0  0  0  0  0
   48.6766   23.3814   -5.9270 H   0  0  0  0  0  0
   48.4595   23.9438   -7.6191 H   0  0  0  0  0  0
   46.9020   21.6653   -4.9701 H   0  0  0  0  0  0
   47.1319   23.3882   -9.7922 H   0  0  0  0  0  0
   43.0580   20.9539   -8.1591 H   0  0  0  0  0  0
   45.1803   23.0125  -11.2744 H   0  0  0  0  0  0
   43.2008   21.7681  -10.4887 H   0  0  0  0  0  0
   50.7083   23.0385   -9.5104 H   0  0  0  0  0  0
   52.8959   24.4018   -7.9210 H   0  0  0  0  0  0
   54.6924   23.3386   -9.4317 H   0  0  0  0  0  0
   53.9132   22.1946   -8.2867 H   0  0  0  0  0  0
   52.0910   20.2401   -9.5975 H   0  0  0  0  0  0
   53.5964   21.0908  -13.4499 H   0  0  0  0  0  0
   54.4430   25.6749   -9.3894 H   0  0  0  0  0  0
   52.6465   27.1542  -11.1861 H   0  0  0  0  0  0
   55.6918   27.3051  -10.8047 H   0  0  0  0  0  0
   54.3023   27.8851   -8.8146 H   0  0  0  0  0  0
   55.1430   29.3261   -9.4804 H   0  0  0  0  0  0
   55.0628   28.1466  -13.0337 H   0  0  0  0  0  0
   55.5996   29.4709  -11.9452 H   0  0  0  0  0  0
   53.8503   29.2363  -12.2794 H   0  0  0  0  0  0
   52.8703   29.8493   -8.7949 H   0  0  0  0  0  0
   52.2264   28.5924   -9.9050 H   0  0  0  0  0  0
   53.0672   30.0334  -10.5709 H   0  0  0  0  0  0
   52.4145   27.1717  -13.3093 H   0  0  0  0  0  0
   54.2471   26.7008  -15.2942 H   0  0  0  0  0  0
   51.3574   26.7040  -17.6558 H   0  0  0  0  0  0
   53.6451   24.0375  -14.2114 H   0  0  0  0  0  0
   53.2578   24.1300  -15.9630 H   0  0  0  0  0  0
   55.5792   23.2684  -13.7452 H   0  0  0  0  0  0
   57.1195   23.5612  -14.8278 H   0  0  0  0  0  0
  1  2  1  0  0  0
  1100  1  0  0  0
  1101  1  0  0  0
  1102  1  0  0  0
  2  3  1  0  0  0
  2  5  1  0  0  0
  2103  1  0  0  0
  3  4  2  0  0  0
  3 10  1  0  0  0
  5  6  1  0  0  0
  5104  1  0  0  0
  5105  1  0  0  0
  6  7  1  0  0  0
  6106  1  0  0  0
  6107  1  0  0  0
  7  8  2  0  0  0
  7  9  1  0  0  0
  9108  1  0  0  0
  9109  1  0  0  0
 10 11  1  0  0  0
 10110  1  0  0  0
 11 12  1  0  0  0
 11 14  1  0  0  0
 11111  1  0  0  0
 12 13  2  0  0  0
 12 18  1  0  0  0
 14 15  1  0  0  0
 14112  1  0  0  0
 14113  1  0  0  0
 15 16  1  0  0  0
 15 17  1  0  0  0
 15114  1  0  0  0
 16115  1  0  0  0
 16116  1  0  0  0
 16117  1  0  0  0
 17118  1  0  0  0
 17119  1  0  0  0
 17120  1  0  0  0
 18 19  1  0  0  0
 18121  1  0  0  0
 19 20  1  0  0  0
 19 22  1  0  0  0
 19122  1  0  0  0
 20 21  2  0  0  0
 20 26  1  0  0  0
 22 23  1  0  0  0
 22 24  1  0  0  0
 22123  1  0  0  0
 23 25  1  0  0  0
 23124  1  0  0  0
 23125  1  0  0  0
 24126  1  0  0  0
 24127  1  0  0  0
 24128  1  0  0  0
 25129  1  0  0  0
 25130  1  0  0  0
 25131  1  0  0  0
 26 27  1  0  0  0
 26132  1  0  0  0
 27 28  1  0  0  0
 27 30  1  0  0  0
 27133  1  0  0  0
 28 29  2  0  0  0
 28 34  1  0  0  0
 30 31  1  0  0  0
 30134  1  0  0  0
 30135  1  0  0  0
 31 32  2  0  0  0
 31 33  1  0  0  0
 33136  1  0  0  0
 33137  1  0  0  0
 34 35  1  0  0  0
 34138  1  0  0  0
 35 36  1  0  0  0
 35 38  1  0  0  0
 35139  1  0  0  0
 36 37  2  0  0  0
 36 41  1  0  0  0
 38 39  1  0  0  0
 38 40  1  0  0  0
 38140  1  0  0  0
 39141  1  0  0  0
 40142  1  0  0  0
 40143  1  0  0  0
 40144  1  0  0  0
 41 42  1  0  0  0
 41145  1  0  0  0
 42 43  1  0  0  0
 42 45  1  0  0  0
 42146  1  0  0  0
 43 44  2  0  0  0
 43 49  1  0  0  0
 45 46  1  0  0  0
 45147  1  0  0  0
 45148  1  0  0  0
 46 47  2  0  0  0
 46 48  1  0  0  0
 48149  1  0  0  0
 48150  1  0  0  0
 49 50  1  0  0  0
 49151  1  0  0  0
 50 51  1  0  0  0
 50152  1  0  0  0
 50153  1  0  0  0
 51 52  2  0  0  0
 51 53  1  0  0  0
 53 54  1  0  0  0
 53154  1  0  0  0
 54 55  1  0  0  0
 54 57  1  0  0  0
 54155  1  0  0  0
 55 56  2  0  0  0
 55 59  1  0  0  0
 57 58  1  0  0  0
 57156  1  0  0  0
 57157  1  0  0  0
 58158  1  0  0  0
 59 60  1  0  0  0
 59159  1  0  0  0
 60 61  1  0  0  0
 60 63  1  0  0  0
 60160  1  0  0  0
 61 62  2  0  0  0
 61 73  1  0  0  0
 63 64  1  0  0  0
 63161  1  0  0  0
 63162  1  0  0  0
 64 65  2  0  0  0
 64 66  1  0  0  0
 65 67  1  0  0  0
 65163  1  0  0  0
 66 68  2  0  0  0
 66 69  1  0  0  0
 67 68  1  0  0  0
 68 70  1  0  0  0
 69 71  2  0  0  0
 69164  1  0  0  0
 70 72  2  0  0  0
 70165  1  0  0  0
 71 72  1  0  0  0
 71166  1  0  0  0
 72167  1  0  0  0
 73 74  1  0  0  0
 73168  1  0  0  0
 74 75  1  0  0  0
 74 77  1  0  0  0
 74169  1  0  0  0
 75 76  2  0  0  0
 75 83  1  0  0  0
 77 78  1  0  0  0
 77170  1  0  0  0
 77171  1  0  0  0
 78 79  2  0  0  0
 78 80  1  0  0  0
 79 81  1  0  0  0
 80 82  2  0  0  0
 80172  1  0  0  0
 81 82  1  0  0  0
 81173  1  0  0  0
 83 84  1  0  0  0
 83174  1  0  0  0
 84 85  1  0  0  0
 84 87  1  0  0  0
 84175  1  0  0  0
 85 86  2  0  0  0
 85 91  1  0  0  0
 87 88  1  0  0  0
 87 89  1  0  0  0
 87176  1  0  0  0
 88 90  1  0  0  0
 88177  1  0  0  0
 88178  1  0  0  0
 89179  1  0  0  0
 89180  1  0  0  0
 89181  1  0  0  0
 90182  1  0  0  0
 90183  1  0  0  0
 90184  1  0  0  0
 91 92  1  0  0  0
 91185  1  0  0  0
 92 93  1  0  0  0
 92 95  1  0  0  0
 92186  1  0  0  0
 93 94  1  0  0  0
 93 99  2  0  0  0
 94187  1  0  0  0
 95 96  1  0  0  0
 95188  1  0  0  0
 95189  1  0  0  0
 96 97  2  0  0  0
 96 98  1  0  0  0
 98190  1  0  0  0
 98191  1  0  0  0
M  CHG  1   1   1
M  END
> <s_m_source_file>
../4hs6_ligand.sdf

> <i_m_source_file_index>
1

> <s_epik_input>
Tz1DKFtOSDJdKVtDSDJdW0NIMl1bQ0BIXShbTkgzK10pQyg9TylbTkhdW0NAQEhdKFtDSDJdW0NIXShbQ0gzXSlbQ0gzXSlDKD1PKVtOSF1bQ0BASF0oW0NAQEhdKFtDSDNdKVtDSDJdW0NIM10pQyg9TylbTkhdW0NAQEhdKFtDSDJdQyg9TylbTkgyXSlDKD1PKVtOSF1bQ0BASF0oW0NASF0oW09IXSlbQ0gzXSlDKD1PKVtOSF1bQ0BASF0oW0NIMl1DKD1PKVtOSDJdKUMoPU8pW05IXVtDSDJdQyg9TylbTkhdW0NAQEhdKFtDSDJdW09IXSlDKD1PKVtOSF1bQ0BASF0oW0NIMl1jMVtjSF1bbkhdYyhjMTIpW2NIXVtjSF1bY0hdW2NIXTIpQyg9TylbTkhdW0NAQEhdKFtDSDJdQzM9TltDSDJdTj1bQ0hdMylDKD1PKVtOSF1bQ0BASF0oW0NAQEhdKFtDSDNdKVtDSDJdW0NIM10pQyg9TylbTkhdW0NASF0oQyg9TylbT0hdKVtDSDJdQyg9TylbTkgyXQ==

> <s_epik_cmdline>
J2VwaWtfYXBwJywgJy1pbWFlJywgJ2xpZ2FuZF9wcm8ubWFlJywgJy1vbWFlJywgJ2xpZ2FuZF9wcmVwLm1hZScsICctbXMnLCAnMScsICctcGgnLCAnNycsICctcGh0JywgJzAuNScsICctbnQn

> <s_epik_pKa_notes>
Molecule size exceeds maximum supported for generating protonation states

> <s_epik_Chemistry_Notes>
This compound has an imine and may undergo hydrolysis.

$$$$
