4hs8_ligand
                    3D
 Schrodinger Suite 2020-3.
191193  0  0  1  0            999 V2000
  -13.1460  -23.9210  -33.5540 N   0  3  0  0  0  0
  -13.3000  -24.6980  -34.7990 C   0  0  2  0  0  0
  -12.0050  -24.7070  -35.6590 C   0  0  0  0  0  0
  -11.9890  -25.2080  -36.7840 O   0  0  0  0  0  0
  -14.5680  -24.2830  -35.5780 C   0  0  0  0  0  0
  -15.8740  -24.5590  -34.8030 C   0  0  0  0  0  0
  -17.1340  -24.0220  -35.4590 C   0  0  0  0  0  0
  -17.4240  -24.2830  -36.6330 O   0  0  0  0  0  0
  -17.9580  -23.3240  -34.6880 N   0  0  0  0  0  0
  -10.9100  -24.1810  -35.0690 N   0  0  0  0  0  0
   -9.5430  -24.1810  -35.5860 C   0  0  2  0  0  0
   -8.7700  -25.2660  -34.8420 C   0  0  0  0  0  0
   -9.0130  -25.4990  -33.6480 O   0  0  0  0  0  0
   -8.8630  -22.8280  -35.3620 C   0  0  0  0  0  0
   -9.2780  -21.6990  -36.2790 C   0  0  0  0  0  0
   -8.9790  -20.3580  -35.6440 C   0  0  0  0  0  0
   -8.6080  -21.8220  -37.6190 C   0  0  0  0  0  0
   -7.8410  -25.9180  -35.5430 N   0  0  0  0  0  0
   -7.0460  -27.0300  -35.0220 C   0  0  2  0  0  0
   -5.5500  -26.9170  -35.3520 C   0  0  0  0  0  0
   -5.1720  -26.4400  -36.4250 O   0  0  0  0  0  0
   -7.6790  -28.3950  -35.4790 C   0  0  2  0  0  0
   -6.9780  -29.6410  -34.8770 C   0  0  0  0  0  0
   -7.8070  -28.4860  -36.9890 C   0  0  0  0  0  0
   -7.8300  -30.8750  -34.7600 C   0  0  0  0  0  0
   -4.7090  -27.3770  -34.4180 N   0  0  0  0  0  0
   -3.2620  -27.4040  -34.5590 C   0  0  2  0  0  0
   -2.8300  -28.8460  -34.3280 C   0  0  0  0  0  0
   -2.9230  -29.3410  -33.2110 O   0  0  0  0  0  0
   -2.6150  -26.4380  -33.5480 C   0  0  0  0  0  0
   -1.1440  -26.1940  -33.7420 C   0  0  0  0  0  0
   -0.3690  -27.1160  -33.9840 O   0  0  0  0  0  0
   -0.7040  -24.9470  -33.5520 N   0  0  0  0  0  0
   -2.4220  -29.5390  -35.3900 N   0  0  0  0  0  0
   -1.9730  -30.9340  -35.3030 C   0  0  2  0  0  0
   -0.6060  -31.0890  -35.9450 C   0  0  0  0  0  0
   -0.0370  -32.1840  -35.9350 O   0  0  0  0  0  0
   -3.0080  -31.9060  -35.9220 C   0  0  2  0  0  0
   -3.4410  -31.4540  -37.2170 O   0  0  0  0  0  0
   -4.1970  -32.1630  -35.0040 C   0  0  0  0  0  0
   -0.0690  -29.9800  -36.4780 N   0  0  0  0  0  0
    1.2010  -29.9500  -37.2050 C   0  0  2  0  0  0
    2.1100  -28.7730  -36.7970 C   0  0  0  0  0  0
    3.1090  -28.5100  -37.4800 O   0  0  0  0  0  0
    0.9030  -29.8820  -38.7120 C   0  0  0  0  0  0
    0.0840  -28.6700  -39.1140 C   0  0  0  0  0  0
   -0.6220  -28.0430  -38.3000 O   0  0  0  0  0  0
    0.1520  -28.3150  -40.3860 N   0  0  0  0  0  0
    1.7690  -28.0850  -35.7070 N   0  0  0  0  0  0
    2.5430  -26.9360  -35.2510 C   0  0  0  0  0  0
    2.1360  -25.6370  -35.9250 C   0  0  0  0  0  0
    2.9460  -24.7130  -36.0280 O   0  0  0  0  0  0
    0.8600  -25.5490  -36.3610 N   0  0  0  0  0  0
    0.2410  -24.3900  -37.0200 C   0  0  2  0  0  0
   -1.2870  -24.5200  -37.0070 C   0  0  0  0  0  0
   -1.8110  -25.6190  -36.8590 O   0  0  0  0  0  0
    0.7430  -24.2480  -38.4560 C   0  0  0  0  0  0
    0.5950  -25.4640  -39.1730 O   0  0  0  0  0  0
   -1.9980  -23.4020  -37.1640 N   0  0  0  0  0  0
   -3.4600  -23.3800  -37.1560 C   0  0  2  0  0  0
   -4.0960  -23.5420  -38.5370 C   0  0  0  0  0  0
   -3.7270  -22.8530  -39.5010 O   0  0  0  0  0  0
   -3.9800  -22.1190  -36.4460 C   0  0  0  0  0  0
   -3.5380  -22.0800  -35.0200 C   0  0  0  0  0  0
   -2.4180  -21.4830  -34.5310 C   0  0  0  0  0  0
   -4.0990  -22.8310  -33.9380 C   0  0  0  0  0  0
   -2.2570  -21.7910  -33.2070 N   0  0  0  0  0  0
   -3.2860  -22.6020  -32.8080 C   0  0  0  0  0  0
   -5.2260  -23.6670  -33.8070 C   0  0  0  0  0  0
   -3.5600  -23.1750  -31.5650 C   0  0  0  0  0  0
   -5.4940  -24.2350  -32.5760 C   0  0  0  0  0  0
   -4.6630  -23.9940  -31.4750 C   0  0  0  0  0  0
   -5.0620  -24.4630  -38.6150 N   0  0  0  0  0  0
   -5.8340  -24.7250  -39.8200 C   0  0  2  0  0  0
   -7.3230  -24.8960  -39.5070 C   0  0  0  0  0  0
   -7.6980  -25.3000  -38.3950 O   0  0  0  0  0  0
   -5.2500  -25.8690  -40.6640 C   0  0  0  0  0  0
   -5.5510  -27.2470  -40.1670 C   0  0  0  0  0  0
   -4.6910  -27.9070  -39.3020 N   0  0  0  0  0  0
   -6.5810  -28.0700  -40.4740 C   0  0  0  0  0  0
   -5.2220  -29.1040  -39.1130 C   0  0  0  0  0  0
   -6.3590  -29.2500  -39.8020 N   0  0  0  0  0  0
   -8.1610  -24.5470  -40.4940 N   0  0  0  0  0  0
   -9.6180  -24.5900  -40.3960 C   0  0  2  0  0  0
  -10.1550  -26.0220  -40.4860 C   0  0  0  0  0  0
  -10.0650  -26.6470  -41.5390 O   0  0  0  0  0  0
  -10.2710  -23.5570  -41.3790 C   0  0  2  0  0  0
  -11.6800  -23.1150  -40.9560 C   0  0  0  0  0  0
  -10.1380  -23.8970  -42.8750 C   0  0  0  0  0  0
  -11.6700  -21.7940  -40.1250 C   0  0  0  0  0  0
  -10.6180  -26.5650  -39.3420 N   0  0  0  0  0  0
  -11.2070  -27.9090  -39.2050 C   0  0  2  0  0  0
  -11.6140  -28.1510  -37.7590 C   0  0  0  0  0  0
  -12.4571  -29.0434  -37.4756 O   0  0  0  0  0  0
  -10.2610  -29.0310  -39.7010 C   0  0  0  0  0  0
  -10.9100  -30.0770  -40.5950 C   0  0  0  0  0  0
  -12.1400  -30.1730  -40.7210 O   0  0  0  0  0  0
  -10.0840  -30.8960  -41.2400 N   0  0  0  0  0  0
  -11.1051  -27.4552  -36.8400 O   0  0  0  0  0  0
  -12.2347  -24.2450  -33.0300 H   0  0  0  0  0  0
  -14.0199  -24.0879  -32.9072 H   0  0  0  0  0  0
  -13.0685  -22.8509  -33.7968 H   0  0  0  0  0  0
  -13.4580  -25.7308  -34.4550 H   0  0  0  0  0  0
  -14.5301  -23.2048  -35.7925 H   0  0  0  0  0  0
  -14.6174  -24.8434  -36.5233 H   0  0  0  0  0  0
  -16.0132  -25.6447  -34.6940 H   0  0  0  0  0  0
  -15.8145  -24.0952  -33.8073 H   0  0  0  0  0  0
  -17.6816  -23.1024  -33.6466 H   0  0  0  0  0  0
  -18.9175  -22.9669  -35.0902 H   0  0  0  0  0  0
  -11.1304  -23.7155  -34.0970 H   0  0  0  0  0  0
   -9.6056  -24.3760  -36.6668 H   0  0  0  0  0  0
   -9.0736  -22.4764  -34.3412 H   0  0  0  0  0  0
   -7.7766  -22.9371  -35.4954 H   0  0  0  0  0  0
  -10.3631  -21.7688  -36.4452 H   0  0  0  0  0  0
   -9.4804  -20.2950  -34.6669 H   0  0  0  0  0  0
   -9.3465  -19.5529  -36.2973 H   0  0  0  0  0  0
   -7.8929  -20.2515  -35.5063 H   0  0  0  0  0  0
   -8.8415  -22.8037  -38.0570 H   0  0  0  0  0  0
   -7.5193  -21.7255  -37.4948 H   0  0  0  0  0  0
   -8.9729  -21.0268  -38.2858 H   0  0  0  0  0  0
   -7.6898  -25.5701  -36.5755 H   0  0  0  0  0  0
   -7.1028  -26.9131  -33.9297 H   0  0  0  0  0  0
   -8.7091  -28.4189  -35.0938 H   0  0  0  0  0  0
   -6.1188  -29.9178  -35.5056 H   0  0  0  0  0  0
   -6.6288  -29.4096  -33.8599 H   0  0  0  0  0  0
   -8.3082  -27.5838  -37.3695 H   0  0  0  0  0  0
   -8.3997  -29.3740  -37.2539 H   0  0  0  0  0  0
   -6.8059  -28.5661  -37.4377 H   0  0  0  0  0  0
   -7.2353  -31.6911  -34.3237 H   0  0  0  0  0  0
   -8.1838  -31.1722  -35.7582 H   0  0  0  0  0  0
   -8.6939  -30.6641  -34.1125 H   0  0  0  0  0  0
   -5.1789  -27.7512  -33.4965 H   0  0  0  0  0  0
   -2.9921  -27.0747  -35.5733 H   0  0  0  0  0  0
   -3.1054  -25.4556  -33.6141 H   0  0  0  0  0  0
   -2.7330  -26.8390  -32.5305 H   0  0  0  0  0  0
   -1.4182  -24.1386  -33.3366 H   0  0  0  0  0  0
    0.3725  -24.7286  -33.6109 H   0  0  0  0  0  0
   -2.4307  -29.0236  -36.3617 H   0  0  0  0  0  0
   -1.8797  -31.1477  -34.2280 H   0  0  0  0  0  0
   -2.5220  -32.8722  -36.1224 H   0  0  0  0  0  0
   -2.6989  -31.2246  -37.9959 H   0  0  0  0  0  0
   -3.8357  -32.5066  -34.0235 H   0  0  0  0  0  0
   -4.8428  -32.9349  -35.4479 H   0  0  0  0  0  0
   -4.7707  -31.2329  -34.8780 H   0  0  0  0  0  0
   -0.6463  -29.0537  -36.3409 H   0  0  0  0  0  0
    1.7074  -30.8837  -36.9191 H   0  0  0  0  0  0
    1.8492  -29.8396  -39.2713 H   0  0  0  0  0  0
    0.3379  -30.7758  -39.0147 H   0  0  0  0  0  0
    0.7829  -28.8857  -41.0833 H   0  0  0  0  0  0
   -0.4223  -27.4490  -40.7468 H   0  0  0  0  0  0
    0.8776  -28.4048  -35.1474 H   0  0  0  0  0  0
    2.4037  -26.8067  -34.1675 H   0  0  0  0  0  0
    3.6087  -27.1030  -35.4663 H   0  0  0  0  0  0
    0.2697  -26.4597  -36.1813 H   0  0  0  0  0  0
    0.5526  -23.5120  -36.4352 H   0  0  0  0  0  0
    0.1667  -23.4647  -38.9701 H   0  0  0  0  0  0
    1.8081  -23.9731  -38.4466 H   0  0  0  0  0  0
    0.9117  -25.5244  -40.2247 H   0  0  0  0  0  0
   -1.4346  -22.4677  -37.3041 H   0  0  0  0  0  0
   -3.7171  -24.2847  -36.5856 H   0  0  0  0  0  0
   -3.5939  -21.2248  -36.9572 H   0  0  0  0  0  0
   -5.0796  -22.1104  -36.4725 H   0  0  0  0  0  0
   -1.7454  -20.8503  -35.1101 H   0  0  0  0  0  0
   -5.8745  -23.8620  -34.6611 H   0  0  0  0  0  0
   -2.9258  -22.9817  -30.6998 H   0  0  0  0  0  0
   -6.3650  -24.8801  -32.4604 H   0  0  0  0  0  0
   -4.8956  -24.4675  -30.5212 H   0  0  0  0  0  0
   -5.2602  -25.0386  -37.6988 H   0  0  0  0  0  0
   -5.7176  -23.8037  -40.4097 H   0  0  0  0  0  0
   -5.6505  -25.8114  -41.6869 H   0  0  0  0  0  0
   -4.1540  -25.7801  -40.6938 H   0  0  0  0  0  0
   -7.4728  -27.9575  -41.1081 H   0  0  0  0  0  0
   -4.7875  -29.8743  -38.4759 H   0  0  0  0  0  0
   -7.6821  -24.2108  -41.4254 H   0  0  0  0  0  0
   -9.8525  -24.2774  -39.3677 H   0  0  0  0  0  0
   -9.6612  -22.6457  -41.2909 H   0  0  0  0  0  0
  -12.2956  -22.9459  -41.8518 H   0  0  0  0  0  0
  -12.1402  -23.8997  -40.3376 H   0  0  0  0  0  0
   -9.1035  -24.2022  -43.0911 H   0  0  0  0  0  0
  -10.3923  -23.0117  -43.4762 H   0  0  0  0  0  0
  -10.8232  -24.7200  -43.1263 H   0  0  0  0  0  0
  -12.7008  -21.5258  -39.8503 H   0  0  0  0  0  0
  -11.2288  -20.9857  -40.7266 H   0  0  0  0  0  0
  -11.0734  -21.9394  -39.2124 H   0  0  0  0  0  0
  -10.5275  -25.9118  -38.4616 H   0  0  0  0  0  0
  -12.0993  -27.8932  -39.8481 H   0  0  0  0  0  0
   -9.4398  -28.5875  -40.2831 H   0  0  0  0  0  0
   -9.8476  -29.5710  -38.8364 H   0  0  0  0  0  0
   -8.9963  -30.7922  -41.1130 H   0  0  0  0  0  0
  -10.4886  -31.6771  -41.9004 H   0  0  0  0  0  0
  -11.3972  -27.6276  -35.7936 H   0  0  0  0  0  0
  1  2  1  0  0  0
  1100  1  0  0  0
  1101  1  0  0  0
  1102  1  0  0  0
  2  3  1  0  0  0
  2  5  1  0  0  0
  2103  1  0  0  0
  3  4  2  0  0  0
  3 10  1  0  0  0
  5  6  1  0  0  0
  5104  1  0  0  0
  5105  1  0  0  0
  6  7  1  0  0  0
  6106  1  0  0  0
  6107  1  0  0  0
  7  8  2  0  0  0
  7  9  1  0  0  0
  9108  1  0  0  0
  9109  1  0  0  0
 10 11  1  0  0  0
 10110  1  0  0  0
 11 12  1  0  0  0
 11 14  1  0  0  0
 11111  1  0  0  0
 12 13  2  0  0  0
 12 18  1  0  0  0
 14 15  1  0  0  0
 14112  1  0  0  0
 14113  1  0  0  0
 15 16  1  0  0  0
 15 17  1  0  0  0
 15114  1  0  0  0
 16115  1  0  0  0
 16116  1  0  0  0
 16117  1  0  0  0
 17118  1  0  0  0
 17119  1  0  0  0
 17120  1  0  0  0
 18 19  1  0  0  0
 18121  1  0  0  0
 19 20  1  0  0  0
 19 22  1  0  0  0
 19122  1  0  0  0
 20 21  2  0  0  0
 20 26  1  0  0  0
 22 23  1  0  0  0
 22 24  1  0  0  0
 22123  1  0  0  0
 23 25  1  0  0  0
 23124  1  0  0  0
 23125  1  0  0  0
 24126  1  0  0  0
 24127  1  0  0  0
 24128  1  0  0  0
 25129  1  0  0  0
 25130  1  0  0  0
 25131  1  0  0  0
 26 27  1  0  0  0
 26132  1  0  0  0
 27 28  1  0  0  0
 27 30  1  0  0  0
 27133  1  0  0  0
 28 29  2  0  0  0
 28 34  1  0  0  0
 30 31  1  0  0  0
 30134  1  0  0  0
 30135  1  0  0  0
 31 32  2  0  0  0
 31 33  1  0  0  0
 33136  1  0  0  0
 33137  1  0  0  0
 34 35  1  0  0  0
 34138  1  0  0  0
 35 36  1  0  0  0
 35 38  1  0  0  0
 35139  1  0  0  0
 36 37  2  0  0  0
 36 41  1  0  0  0
 38 39  1  0  0  0
 38 40  1  0  0  0
 38140  1  0  0  0
 39141  1  0  0  0
 40142  1  0  0  0
 40143  1  0  0  0
 40144  1  0  0  0
 41 42  1  0  0  0
 41145  1  0  0  0
 42 43  1  0  0  0
 42 45  1  0  0  0
 42146  1  0  0  0
 43 44  2  0  0  0
 43 49  1  0  0  0
 45 46  1  0  0  0
 45147  1  0  0  0
 45148  1  0  0  0
 46 47  2  0  0  0
 46 48  1  0  0  0
 48149  1  0  0  0
 48150  1  0  0  0
 49 50  1  0  0  0
 49151  1  0  0  0
 50 51  1  0  0  0
 50152  1  0  0  0
 50153  1  0  0  0
 51 52  2  0  0  0
 51 53  1  0  0  0
 53 54  1  0  0  0
 53154  1  0  0  0
 54 55  1  0  0  0
 54 57  1  0  0  0
 54155  1  0  0  0
 55 56  2  0  0  0
 55 59  1  0  0  0
 57 58  1  0  0  0
 57156  1  0  0  0
 57157  1  0  0  0
 58158  1  0  0  0
 59 60  1  0  0  0
 59159  1  0  0  0
 60 61  1  0  0  0
 60 63  1  0  0  0
 60160  1  0  0  0
 61 62  2  0  0  0
 61 73  1  0  0  0
 63 64  1  0  0  0
 63161  1  0  0  0
 63162  1  0  0  0
 64 65  2  0  0  0
 64 66  1  0  0  0
 65 67  1  0  0  0
 65163  1  0  0  0
 66 68  2  0  0  0
 66 69  1  0  0  0
 67 68  1  0  0  0
 68 70  1  0  0  0
 69 71  2  0  0  0
 69164  1  0  0  0
 70 72  2  0  0  0
 70165  1  0  0  0
 71 72  1  0  0  0
 71166  1  0  0  0
 72167  1  0  0  0
 73 74  1  0  0  0
 73168  1  0  0  0
 74 75  1  0  0  0
 74 77  1  0  0  0
 74169  1  0  0  0
 75 76  2  0  0  0
 75 83  1  0  0  0
 77 78  1  0  0  0
 77170  1  0  0  0
 77171  1  0  0  0
 78 79  2  0  0  0
 78 80  1  0  0  0
 79 81  1  0  0  0
 80 82  2  0  0  0
 80172  1  0  0  0
 81 82  1  0  0  0
 81173  1  0  0  0
 83 84  1  0  0  0
 83174  1  0  0  0
 84 85  1  0  0  0
 84 87  1  0  0  0
 84175  1  0  0  0
 85 86  2  0  0  0
 85 91  1  0  0  0
 87 88  1  0  0  0
 87 89  1  0  0  0
 87176  1  0  0  0
 88 90  1  0  0  0
 88177  1  0  0  0
 88178  1  0  0  0
 89179  1  0  0  0
 89180  1  0  0  0
 89181  1  0  0  0
 90182  1  0  0  0
 90183  1  0  0  0
 90184  1  0  0  0
 91 92  1  0  0  0
 91185  1  0  0  0
 92 93  1  0  0  0
 92 95  1  0  0  0
 92186  1  0  0  0
 93 94  2  0  0  0
 93 99  1  0  0  0
 95 96  1  0  0  0
 95187  1  0  0  0
 95188  1  0  0  0
 96 97  2  0  0  0
 96 98  1  0  0  0
 98189  1  0  0  0
 98190  1  0  0  0
 99191  1  0  0  0
M  CHG  1   1   1
M  END
> <s_m_source_file>
../4hs8_ligand.sdf

> <i_m_source_file_index>
1

> <s_epik_input>
Tz1DKFtOSDJdKVtDSDJdW0NIMl1bQ0BIXShbTkgzK10pQyg9TylbTkhdW0NAQEhdKFtDSDJdW0NIXShbQ0gzXSlbQ0gzXSlDKD1PKVtOSF1bQ0BASF0oW0NAQEhdKFtDSDNdKVtDSDJdW0NIM10pQyg9TylbTkhdW0NAQEhdKFtDSDJdQyg9TylbTkgyXSlDKD1PKVtOSF1bQ0BASF0oW0NASF0oW09IXSlbQ0gzXSlDKD1PKVtOSF1bQ0BASF0oW0NIMl1DKD1PKVtOSDJdKUMoPU8pW05IXVtDSDJdQyg9TylbTkhdW0NAQEhdKFtDSDJdW09IXSlDKD1PKVtOSF1bQ0BASF0oW0NIMl1jMVtjSF1bbkhdYyhjMTIpW2NIXVtjSF1bY0hdW2NIXTIpQyg9TylbTkhdW0NAQEhdKFtDSDJdQzM9TltDSDJdTj1bQ0hdMylDKD1PKVtOSF1bQ0BASF0oW0NAQEhdKFtDSDNdKVtDSDJdW0NIM10pQyg9TylbTkhdW0NASF0oQyg9TylbT0hdKVtDSDJdQyg9TylbTkgyXQ==

> <s_epik_cmdline>
J2VwaWtfYXBwJywgJy1pbWFlJywgJ2xpZ2FuZF9wcm8ubWFlJywgJy1vbWFlJywgJ2xpZ2FuZF9wcmVwLm1hZScsICctbXMnLCAnMScsICctcGgnLCAnNycsICctcGh0JywgJzAuNScsICctbnQn

> <s_epik_pKa_notes>
Molecule size exceeds maximum supported for generating protonation states

> <s_epik_Chemistry_Notes>
This compound has an imine and may undergo hydrolysis.

$$$$
