4hso_ligand
                    3D
 Schrodinger Suite 2020-3.
 24 24  0  0  1  0            999 V2000
   -9.5790  -76.7530  -20.0880 N   0  3  0  0  0  0
  -10.0500  -78.0280  -19.3990 C   0  0  2  0  0  0
   -9.4040  -79.2800  -19.9860 C   0  0  0  0  0  0
   -9.3370  -80.3620  -19.3770 O   0  5  0  0  0  0
  -11.5910  -78.2320  -19.5020 C   0  0  0  0  0  0
  -12.4230  -77.1450  -18.8620 C   0  0  0  0  0  0
  -12.5640  -77.0660  -17.4800 C   0  0  0  0  0  0
  -13.0710  -76.1870  -19.6550 C   0  0  0  0  0  0
  -13.3270  -76.0580  -16.8930 C   0  0  0  0  0  0
  -13.8320  -75.1790  -19.0860 C   0  0  0  0  0  0
  -13.9640  -75.1100  -17.7120 C   0  0  0  0  0  0
  -14.7110  -74.0730  -17.1860 O   0  0  0  0  0  0
   -8.9840  -79.2470  -21.1380 O   0  0  0  0  0  0
   -8.4878  -76.6615  -19.9836 H   0  0  0  0  0  0
  -10.0661  -75.8834  -19.6227 H   0  0  0  0  0  0
   -9.8431  -76.7938  -21.1550 H   0  0  0  0  0  0
   -9.7292  -77.8911  -18.3558 H   0  0  0  0  0  0
  -11.8856  -78.2720  -20.5611 H   0  0  0  0  0  0
  -11.8700  -79.1744  -19.0080 H   0  0  0  0  0  0
  -12.0704  -77.8034  -16.8470 H   0  0  0  0  0  0
  -12.9741  -76.2364  -20.7396 H   0  0  0  0  0  0
  -13.4287  -76.0055  -15.8090 H   0  0  0  0  0  0
  -14.3253  -74.4424  -19.7201 H   0  0  0  0  0  0
  -14.8389  -73.9845  -16.0971 H   0  0  0  0  0  0
  1  2  1  0  0  0
  1 14  1  0  0  0
  1 15  1  0  0  0
  1 16  1  0  0  0
  2  3  1  0  0  0
  2  5  1  0  0  0
  2 17  1  0  0  0
  3  4  1  0  0  0
  3 13  2  0  0  0
  5  6  1  0  0  0
  5 18  1  0  0  0
  5 19  1  0  0  0
  6  7  2  0  0  0
  6  8  1  0  0  0
  7  9  1  0  0  0
  7 20  1  0  0  0
  8 10  2  0  0  0
  8 21  1  0  0  0
  9 11  2  0  0  0
  9 22  1  0  0  0
 10 11  1  0  0  0
 10 23  1  0  0  0
 11 12  1  0  0  0
 12 24  1  0  0  0
M  CHG  2   1   1   4  -1
M  END
> <s_m_source_file>
../4hso_ligand.sdf

> <i_m_source_file_index>
1

> <s_epik_input>
W09IXUMoPU8pW0NAQEhdKFtOSDMrXSlbQ0gyXWMxW2NIXVtjSF1jKFtPSF0pW2NIXVtjSF0x

> <s_epik_cmdline>
J2VwaWtfYXBwJywgJy1pbWFlJywgJ2xpZ2FuZF9wcm8ubWFlJywgJy1vbWFlJywgJ2xpZ2FuZF9wcmVwLm1hZScsICctbXMnLCAnMScsICctcGgnLCAnNycsICctcGh0JywgJzAuNScsICctbnQn

> <r_lp_tautomer_probability>
1

> <r_epik_Ionization_Penalty>
  0.0054

> <r_epik_Ionization_Penalty_Charging>
  0.0034

> <r_epik_Ionization_Penalty_Neutral>
  0.0020

> <r_epik_State_Penalty>
 -0.0000

> <r_epik_Charging_Adjusted_Penalty>
0.00341371985801902

> <i_epik_Tot_Q>
0

> <i_epik_Tot_abs_Q>
2

$$$$
