4ht6_ligand
                    3D
 Schrodinger Suite 2020-3.
180180  0  0  1  0            999 V2000
   32.3160  114.1730   72.0480 N   0  3  0  0  0  0
   31.6840  113.3410   71.0300 C   0  0  2  0  0  0
   31.0260  114.2400   69.9960 C   0  0  0  0  0  0
   30.2580  115.1310   70.3540 O   0  0  0  0  0  0
   30.6230  112.4240   71.6490 C   0  0  2  0  0  0
   31.2470  111.5830   72.7720 C   0  0  0  0  0  0
   29.9820  111.5500   70.5800 C   0  0  0  0  0  0
   30.2310  110.8410   73.6130 C   0  0  0  0  0  0
   31.3320  114.0170   68.7180 N   0  0  0  0  0  0
   30.8030  114.8750   67.6560 C   0  0  2  0  0  0
   29.9070  114.1480   66.6560 C   0  0  0  0  0  0
   29.8690  112.9170   66.6070 O   0  0  0  0  0  0
   31.9340  115.5360   66.8460 C   0  0  2  0  0  0
   32.7550  114.5220   66.2520 O   0  0  0  0  0  0
   32.7870  116.4430   67.7310 C   0  0  0  0  0  0
   29.1840  114.9290   65.8640 N   0  0  0  0  0  0
   28.4800  114.4190   64.6890 C   0  0  2  0  0  0
   28.7210  115.4170   63.5880 C   0  0  0  0  0  0
   28.9910  116.5810   63.8590 O   0  0  0  0  0  0
   26.9720  114.3380   64.9090 C   0  0  0  0  0  0
   26.5320  113.4170   66.0190 C   0  0  0  0  0  0
   26.3340  112.0660   65.7880 C   0  0  0  0  0  0
   26.2900  113.9060   67.2940 C   0  0  0  0  0  0
   25.9150  111.2180   66.8120 C   0  0  0  0  0  0
   25.8720  113.0740   68.3150 C   0  0  0  0  0  0
   25.6870  111.7330   68.0720 C   0  0  0  0  0  0
   25.2710  110.9140   69.1000 O   0  0  0  0  0  0
   28.6060  114.9690   62.3450 N   0  0  0  0  0  0
   28.6890  115.8810   61.2070 C   0  0  2  0  0  0
   27.2920  116.1030   60.6880 C   0  0  0  0  0  0
   26.4520  115.2010   60.7700 O   0  0  0  0  0  0
   29.5450  115.2880   60.0920 C   0  0  0  0  0  0
   30.9780  115.0590   60.5180 C   0  0  0  0  0  0
   31.4660  115.7770   61.4150 O   0  0  0  0  0  0
   31.6210  114.1600   59.9430 O   0  0  0  0  0  0
   27.0470  117.2870   60.1310 N   0  0  0  0  0  0
   25.7280  117.6230   59.6100 C   0  0  2  0  0  0
   25.8120  118.5970   58.4330 C   0  0  0  0  0  0
   26.5480  119.5890   58.4810 O   0  0  0  0  0  0
   24.8720  118.2380   60.7190 C   0  0  0  0  0  0
   23.4620  118.5550   60.2780 C   0  0  0  0  0  0
   22.6920  117.2970   59.8820 C   0  0  0  0  0  0
   21.2580  117.6360   59.4440 C   0  0  0  0  0  0
   20.4010  116.4180   59.3460 N   0  3  0  0  0  0
   25.0550  118.3120   57.3800 N   0  0  0  0  0  0
   24.9690  119.2140   56.2430 C   0  0  0  0  0  0
   23.5710  119.8130   56.2000 C   0  0  0  0  0  0
   22.5950  119.1090   56.4510 O   0  0  0  0  0  0
   23.4600  121.1060   55.9170 N   0  0  0  0  0  0
   22.1310  121.7080   55.7630 C   0  0  2  0  0  0
   22.0910  122.5700   54.5190 C   0  0  0  0  0  0
   23.1320  123.0130   54.0270 O   0  0  0  0  0  0
   21.6730  122.5330   56.9980 C   0  0  2  0  0  0
   22.5990  123.7300   57.2390 C   0  0  0  0  0  0
   21.5250  121.6400   58.2470 C   0  0  0  0  0  0
   22.1390  125.0160   56.5500 C   0  0  0  0  0  0
   20.8810  122.8150   54.0270 N   0  0  0  0  0  0
   20.6800  123.6130   52.8270 C   0  0  2  0  0  0
   19.4210  124.4670   52.9700 C   0  0  0  0  0  0
   18.3380  123.9330   53.2020 O   0  0  0  0  0  0
   20.5110  122.6780   51.6180 C   0  0  0  0  0  0
   20.1840  123.4180   50.3300 C   0  0  0  0  0  0
   21.3060  124.3470   49.9080 C   0  0  0  0  0  0
   22.4360  123.9090   49.6930 O   0  0  0  0  0  0
   21.0020  125.6360   49.7870 N   0  0  0  0  0  0
   19.5540  125.7840   52.8340 N   0  0  0  0  0  0
   18.3850  126.6750   52.8860 C   0  0  2  0  0  0
   17.3980  126.3580   51.7490 C   0  0  0  0  0  0
   17.8000  125.8390   50.7000 O   0  0  0  0  0  0
   18.8020  128.1590   52.7770 C   0  0  2  0  0  0
   19.5430  128.3610   51.5700 O   0  0  0  0  0  0
   19.6470  128.5720   53.9960 C   0  0  0  0  0  0
   16.1150  126.6710   51.9350 N   0  0  0  0  0  0
   15.1520  126.3620   50.8710 C   0  0  2  0  0  0
   15.1160  127.4010   49.7540 C   0  0  0  0  0  0
   14.6860  127.0950   48.6520 O   0  0  0  0  0  0
   13.7370  126.0360   51.3950 C   0  0  0  0  0  0
   13.1620  127.1160   52.2910 C   0  0  0  0  0  0
   12.8390  128.2080   51.7800 O   0  0  0  0  0  0
   12.9820  126.8550   53.5040 O   0  0  0  0  0  0
   15.5730  128.6160   50.0430 N   0  0  0  0  0  0
   15.6790  129.6590   49.0310 C   0  0  2  0  0  0
   17.1610  129.9200   48.7450 C   0  0  0  0  0  0
   18.0330  129.3020   49.3630 O   0  0  0  0  0  0
   15.0020  130.9660   49.4940 C   0  0  0  0  0  0
   13.5510  130.8030   49.9410 C   0  0  0  0  0  0
   12.6720  130.2350   48.8430 C   0  0  0  0  0  0
   12.6980  130.7050   47.6990 O   0  0  0  0  0  0
   11.9020  129.2080   49.1770 N   0  0  0  0  0  0
   17.5250  130.7560   47.9150 O   0  0  0  0  0  0
   33.0711  114.8192   71.5765 H   0  0  0  0  0  0
   32.8002  113.5303   72.7980 H   0  0  0  0  0  0
   31.5533  114.7968   72.5370 H   0  0  0  0  0  0
   32.4887  112.7384   70.5836 H   0  0  0  0  0  0
   29.8201  113.0377   72.0835 H   0  0  0  0  0  0
   31.9220  110.8319   72.3358 H   0  0  0  0  0  0
   31.8156  112.2383   73.4482 H   0  0  0  0  0  0
   29.5480  112.1883   69.7963 H   0  0  0  0  0  0
   29.1896  110.9369   71.0342 H   0  0  0  0  0  0
   30.7453  110.8933   70.1371 H   0  0  0  0  0  0
   30.7510  110.2642   74.3920 H   0  0  0  0  0  0
   29.6550  110.1565   72.9729 H   0  0  0  0  0  0
   29.5486  111.5630   74.0853 H   0  0  0  0  0  0
   31.9922  113.1739   68.4663 H   0  0  0  0  0  0
   30.2083  115.5942   68.2382 H   0  0  0  0  0  0
   31.5215  116.1194   66.0096 H   0  0  0  0  0  0
   32.3069  113.7753   65.5800 H   0  0  0  0  0  0
   32.1506  117.2180   68.1830 H   0  0  0  0  0  0
   33.5687  116.9199   67.1216 H   0  0  0  0  0  0
   33.2559  115.8441   68.5257 H   0  0  0  0  0  0
   29.1256  115.9973   66.1195 H   0  0  0  0  0  0
   28.8765  113.4140   64.4820 H   0  0  0  0  0  0
   26.5838  115.3364   65.1591 H   0  0  0  0  0  0
   26.4865  113.9752   63.9911 H   0  0  0  0  0  0
   26.5082  111.6600   64.7915 H   0  0  0  0  0  0
   26.4324  114.9679   67.4947 H   0  0  0  0  0  0
   25.7684  110.1553   66.6189 H   0  0  0  0  0  0
   25.6894  113.4794   69.3102 H   0  0  0  0  0  0
   25.1190  109.8395   68.9200 H   0  0  0  0  0  0
   28.4460  113.8937   62.1775 H   0  0  0  0  0  0
   29.1434  116.8154   61.5682 H   0  0  0  0  0  0
   29.1255  114.3190   59.7836 H   0  0  0  0  0  0
   29.5539  115.9741   59.2322 H   0  0  0  0  0  0
   32.5067  115.6239   61.7368 H   0  0  0  0  0  0
   27.8658  118.0189   60.0685 H   0  0  0  0  0  0
   25.3102  116.6660   59.2640 H   0  0  0  0  0  0
   24.8055  117.5357   61.5630 H   0  0  0  0  0  0
   25.3322  119.1774   61.0591 H   0  0  0  0  0  0
   22.9215  119.0444   61.1016 H   0  0  0  0  0  0
   23.4923  119.2280   59.4084 H   0  0  0  0  0  0
   23.2058  116.8008   59.0455 H   0  0  0  0  0  0
   22.6432  116.6114   60.7408 H   0  0  0  0  0  0
   20.8025  118.3185   60.1766 H   0  0  0  0  0  0
   21.2810  118.1203   58.4566 H   0  0  0  0  0  0
   19.3876  116.7071   59.0307 H   0  0  0  0  0  0
   20.3527  115.9238   60.3275 H   0  0  0  0  0  0
   20.8312  115.7255   58.6075 H   0  0  0  0  0  0
   24.4857  117.3708   57.3796 H   0  0  0  0  0  0
   25.7153  120.0146   56.3529 H   0  0  0  0  0  0
   25.1647  118.6551   55.3160 H   0  0  0  0  0  0
   24.3614  121.7252   55.7981 H   0  0  0  0  0  0
   21.4659  120.8396   55.6469 H   0  0  0  0  0  0
   20.6772  122.9527   56.7926 H   0  0  0  0  0  0
   22.6542  123.9396   58.3174 H   0  0  0  0  0  0
   23.6047  123.4980   56.8586 H   0  0  0  0  0  0
   20.8527  120.7997   58.0193 H   0  0  0  0  0  0
   21.1050  122.2321   59.0734 H   0  0  0  0  0  0
   22.5118  121.2514   58.5389 H   0  0  0  0  0  0
   22.8516  125.8247   56.7695 H   0  0  0  0  0  0
   21.1420  125.2948   56.9219 H   0  0  0  0  0  0
   22.0926  124.8532   55.4631 H   0  0  0  0  0  0
   20.0152  122.3924   54.5579 H   0  0  0  0  0  0
   21.5707  124.2511   52.7297 H   0  0  0  0  0  0
   21.4444  122.1198   51.4529 H   0  0  0  0  0  0
   19.6908  121.9714   51.8128 H   0  0  0  0  0  0
   20.0177  122.6909   49.5215 H   0  0  0  0  0  0
   19.2750  124.0205   50.4739 H   0  0  0  0  0  0
   19.9774  125.9808   49.9899 H   0  0  0  0  0  0
   21.7752  126.3573   49.4840 H   0  0  0  0  0  0
   20.5591  126.2038   52.6805 H   0  0  0  0  0  0
   17.9324  126.4665   53.8667 H   0  0  0  0  0  0
   17.9222  128.8130   52.6859 H   0  0  0  0  0  0
   19.0888  128.1167   50.5984 H   0  0  0  0  0  0
   19.0659  128.4118   54.9162 H   0  0  0  0  0  0
   19.9157  129.6354   53.9125 H   0  0  0  0  0  0
   20.5630  127.9639   54.0302 H   0  0  0  0  0  0
   15.7732  127.1516   52.8636 H   0  0  0  0  0  0
   15.5896  125.4455   50.4486 H   0  0  0  0  0  0
   13.0504  125.9128   50.5445 H   0  0  0  0  0  0
   13.7679  125.1045   51.9792 H   0  0  0  0  0  0
   12.5663  127.6206   54.1755 H   0  0  0  0  0  0
   15.8754  128.8232   51.0801 H   0  0  0  0  0  0
   15.1580  129.2677   48.1448 H   0  0  0  0  0  0
   19.0958  129.4934   49.1536 H   0  0  0  0  0  0
   15.5552  131.3827   50.3486 H   0  0  0  0  0  0
   15.0027  131.6920   48.6676 H   0  0  0  0  0  0
   13.5070  130.1189   50.8013 H   0  0  0  0  0  0
   13.1443  131.7831   50.2308 H   0  0  0  0  0  0
   11.9131  128.8247   50.2080 H   0  0  0  0  0  0
   11.2523  128.7396   48.4230 H   0  0  0  0  0  0
  1  2  1  0  0  0
  1 91  1  0  0  0
  1 92  1  0  0  0
  1 93  1  0  0  0
  2  3  1  0  0  0
  2  5  1  0  0  0
  2 94  1  0  0  0
  3  4  2  0  0  0
  3  9  1  0  0  0
  5  6  1  0  0  0
  5  7  1  0  0  0
  5 95  1  0  0  0
  6  8  1  0  0  0
  6 96  1  0  0  0
  6 97  1  0  0  0
  7 98  1  0  0  0
  7 99  1  0  0  0
  7100  1  0  0  0
  8101  1  0  0  0
  8102  1  0  0  0
  8103  1  0  0  0
  9 10  1  0  0  0
  9104  1  0  0  0
 10 11  1  0  0  0
 10 13  1  0  0  0
 10105  1  0  0  0
 11 12  2  0  0  0
 11 16  1  0  0  0
 13 14  1  0  0  0
 13 15  1  0  0  0
 13106  1  0  0  0
 14107  1  0  0  0
 15108  1  0  0  0
 15109  1  0  0  0
 15110  1  0  0  0
 16 17  1  0  0  0
 16111  1  0  0  0
 17 18  1  0  0  0
 17 20  1  0  0  0
 17112  1  0  0  0
 18 19  2  0  0  0
 18 28  1  0  0  0
 20 21  1  0  0  0
 20113  1  0  0  0
 20114  1  0  0  0
 21 22  2  0  0  0
 21 23  1  0  0  0
 22 24  1  0  0  0
 22115  1  0  0  0
 23 25  2  0  0  0
 23116  1  0  0  0
 24 26  2  0  0  0
 24117  1  0  0  0
 25 26  1  0  0  0
 25118  1  0  0  0
 26 27  1  0  0  0
 27119  1  0  0  0
 28 29  1  0  0  0
 28120  1  0  0  0
 29 30  1  0  0  0
 29 32  1  0  0  0
 29121  1  0  0  0
 30 31  2  0  0  0
 30 36  1  0  0  0
 32 33  1  0  0  0
 32122  1  0  0  0
 32123  1  0  0  0
 33 34  1  0  0  0
 33 35  2  0  0  0
 34124  1  0  0  0
 36 37  1  0  0  0
 36125  1  0  0  0
 37 38  1  0  0  0
 37 40  1  0  0  0
 37126  1  0  0  0
 38 39  2  0  0  0
 38 45  1  0  0  0
 40 41  1  0  0  0
 40127  1  0  0  0
 40128  1  0  0  0
 41 42  1  0  0  0
 41129  1  0  0  0
 41130  1  0  0  0
 42 43  1  0  0  0
 42131  1  0  0  0
 42132  1  0  0  0
 43 44  1  0  0  0
 43133  1  0  0  0
 43134  1  0  0  0
 44135  1  0  0  0
 44136  1  0  0  0
 44137  1  0  0  0
 45 46  1  0  0  0
 45138  1  0  0  0
 46 47  1  0  0  0
 46139  1  0  0  0
 46140  1  0  0  0
 47 48  2  0  0  0
 47 49  1  0  0  0
 49 50  1  0  0  0
 49141  1  0  0  0
 50 51  1  0  0  0
 50 53  1  0  0  0
 50142  1  0  0  0
 51 52  2  0  0  0
 51 57  1  0  0  0
 53 54  1  0  0  0
 53 55  1  0  0  0
 53143  1  0  0  0
 54 56  1  0  0  0
 54144  1  0  0  0
 54145  1  0  0  0
 55146  1  0  0  0
 55147  1  0  0  0
 55148  1  0  0  0
 56149  1  0  0  0
 56150  1  0  0  0
 56151  1  0  0  0
 57 58  1  0  0  0
 57152  1  0  0  0
 58 59  1  0  0  0
 58 61  1  0  0  0
 58153  1  0  0  0
 59 60  2  0  0  0
 59 66  1  0  0  0
 61 62  1  0  0  0
 61154  1  0  0  0
 61155  1  0  0  0
 62 63  1  0  0  0
 62156  1  0  0  0
 62157  1  0  0  0
 63 64  2  0  0  0
 63 65  1  0  0  0
 65158  1  0  0  0
 65159  1  0  0  0
 66 67  1  0  0  0
 66160  1  0  0  0
 67 68  1  0  0  0
 67 70  1  0  0  0
 67161  1  0  0  0
 68 69  2  0  0  0
 68 73  1  0  0  0
 70 71  1  0  0  0
 70 72  1  0  0  0
 70162  1  0  0  0
 71163  1  0  0  0
 72164  1  0  0  0
 72165  1  0  0  0
 72166  1  0  0  0
 73 74  1  0  0  0
 73167  1  0  0  0
 74 75  1  0  0  0
 74 77  1  0  0  0
 74168  1  0  0  0
 75 76  2  0  0  0
 75 81  1  0  0  0
 77 78  1  0  0  0
 77169  1  0  0  0
 77170  1  0  0  0
 78 79  2  0  0  0
 78 80  1  0  0  0
 80171  1  0  0  0
 81 82  1  0  0  0
 81172  1  0  0  0
 82 83  1  0  0  0
 82 85  1  0  0  0
 82173  1  0  0  0
 83 84  1  0  0  0
 83 90  2  0  0  0
 84174  1  0  0  0
 85 86  1  0  0  0
 85175  1  0  0  0
 85176  1  0  0  0
 86 87  1  0  0  0
 86177  1  0  0  0
 86178  1  0  0  0
 87 88  2  0  0  0
 87 89  1  0  0  0
 89179  1  0  0  0
 89180  1  0  0  0
M  CHG  2   1   1  44   1
M  END
> <s_m_source_file>
../4ht6_ligand.sdf

> <i_m_source_file_index>
1

> <s_epik_input>
W0NIM11bQ0gyXVtDQEhdKFtDSDNdKVtDQEhdKFtOSDMrXSlDKD1PKVtOSF1bQ0BASF0oW0NASF0oW09IXSlbQ0gzXSlDKD1PKVtOSF1bQ0BASF0oW0NIMl1jMVtjSF1bY0hdYyhbT0hdKVtjSF1bY0hdMSlDKD1PKVtOSF1bQ0BASF0oW0NIMl1DKD1PKVtPSF0pQyg9TylbTkhdW0NAQEhdKFtDSDJdW0NIMl1bQ0gyXVtDSDJdW05IMytdKUMoPU8pW05IXVtDSDJdQyg9TylbTkhdW0NAQEhdKFtDQEBIXShbQ0gzXSlbQ0gyXVtDSDNdKUMoPU8pW05IXVtDQEBIXShbQ0gyXVtDSDJdQyg9TylbTkgyXSlDKD1PKVtOSF1bQ0BASF0oW0NASF0oW09IXSlbQ0gzXSlDKD1PKVtOSF1bQ0BASF0oW0NIMl1DKD1PKVtPSF0pQyg9TylbTkhdW0NASF0oQyg9TylbT0hdKVtDSDJdW0NIMl1DKD1PKVtOSDJd

> <s_epik_cmdline>
J2VwaWtfYXBwJywgJy1pbWFlJywgJ2xpZ2FuZF9wcm8ubWFlJywgJy1vbWFlJywgJ2xpZ2FuZF9wcmVwLm1hZScsICctbXMnLCAnMScsICctcGgnLCAnNycsICctcGh0JywgJzAuNScsICctbnQn

> <s_epik_pKa_notes>
Molecule size exceeds maximum supported for generating protonation states

$$$$
