4htp_ligand
                    3D
 Schrodinger Suite 2020-3.
166170  0  0  1  0            999 V2000
  -10.1310   -5.4170    4.4070 N   0  3  0  0  0  0
   -9.9840   -6.0320    3.0890 C   0  0  2  0  0  0
   -8.5470   -5.9620    2.5890 C   0  0  0  0  0  0
   -8.3130   -5.9810    1.3730 O   0  0  0  0  0  0
  -10.9180   -5.3680    2.0790 C   0  0  0  0  0  0
   -7.5890   -5.8750    3.5160 N   0  0  0  0  0  0
   -6.1840   -5.7350    3.1290 C   0  0  2  0  0  0
   -5.5740   -7.0610    2.6980 C   0  0  0  0  0  0
   -5.4690   -8.0000    3.4950 O   0  0  0  0  0  0
   -5.3100   -5.0730    4.2240 C   0  0  0  0  0  0
   -3.8240   -5.2110    3.8850 C   0  0  0  0  0  0
   -5.6740   -3.6030    4.3700 C   0  0  0  0  0  0
   -5.1600   -7.1300    1.4240 N   0  0  0  0  0  0
   -4.6080   -8.3450    0.8160 C   0  0  2  0  0  0
   -3.2640   -8.7150    1.4250 C   0  0  0  0  0  0
   -2.4870   -7.8310    1.7910 O   0  0  0  0  0  0
   -4.4360   -7.9480   -0.6540 C   0  0  0  0  0  0
   -4.2530   -6.4570   -0.6220 C   0  0  0  0  0  0
   -5.1310   -5.9790    0.5010 C   0  0  0  0  0  0
   -3.0180  -10.0150    1.5540 N   0  0  0  0  0  0
   -1.7430  -10.5280    2.0240 C   0  0  2  0  0  0
   -0.9420  -10.9360    0.8020 C   0  0  0  0  0  0
   -1.4260  -11.6910   -0.0380 O   0  0  0  0  0  0
   -1.9530  -11.7620    2.9030 C   0  0  0  0  0  0
   -3.0090  -11.5970    3.9690 C   0  0  0  0  0  0
   -2.5950  -10.5990    5.0220 C   0  0  0  0  0  0
   -2.9360   -9.4110    4.9480 O   0  0  0  0  0  0
   -1.8420  -11.0710    6.0070 N   0  0  0  0  0  0
    0.2870  -10.4530    0.7250 N   0  0  0  0  0  0
    1.1710  -10.7120   -0.3980 C   0  0  2  0  0  0
    1.3790  -12.2040   -0.6360 C   0  0  0  0  0  0
    1.5500  -12.6350   -1.7630 O   0  0  0  0  0  0
    2.4990  -10.0340   -0.1230 C   0  0  0  0  0  0
    3.6030  -10.3140   -1.0800 C   0  0  0  0  0  0
    4.7940  -10.9270   -0.7980 C   0  0  0  0  0  0
    3.6590   -9.9480   -2.4600 C   0  0  0  0  0  0
    5.5820  -10.9680   -1.9190 N   0  0  0  0  0  0
    4.9080  -10.3780   -2.9560 C   0  0  0  0  0  0
    2.7720   -9.3020   -3.3290 C   0  0  0  0  0  0
    5.2940  -10.1840   -4.2850 C   0  0  0  0  0  0
    3.1590   -9.1100   -4.6540 C   0  0  0  0  0  0
    4.4100   -9.5500   -5.1150 C   0  0  0  0  0  0
    1.3250  -12.9860    0.4340 N   0  0  0  0  0  0
    1.7070  -14.3890    0.3860 C   0  0  2  0  0  0
    0.7340  -15.2540   -0.4180 C   0  0  0  0  0  0
    1.0480  -16.3860   -0.7520 O   0  0  0  0  0  0
    1.8280  -14.9530    1.8040 C   0  0  0  0  0  0
    0.5040  -14.9330    2.5650 C   0  0  0  0  0  0
    0.6720  -14.8810    4.0830 C   0  0  0  0  0  0
    1.7150  -15.3570    4.5890 O   0  0  0  0  0  0
   -0.2430  -14.3580    4.7660 O   0  0  0  0  0  0
   -0.4530  -14.7370   -0.7010 N   0  0  0  0  0  0
   -1.4210  -15.4980   -1.4920 C   0  0  2  0  0  0
   -1.3910  -15.0130   -2.9410 C   0  0  0  0  0  0
   -2.1810  -15.4700   -3.7650 O   0  0  0  0  0  0
   -2.8590  -15.4290   -0.9020 C   0  0  0  0  0  0
   -2.8380  -15.7970    0.5780 C   0  0  0  0  0  0
   -3.4490  -14.0390   -1.0660 C   0  0  0  0  0  0
   -0.4640  -14.0930   -3.2250 N   0  0  0  0  0  0
   -0.2350  -13.5500   -4.5660 C   0  0  2  0  0  0
    1.0960  -13.9990   -5.1400 C   0  0  0  0  0  0
    1.2550  -14.0880   -6.3610 O   0  0  0  0  0  0
   -0.2560  -12.0140   -4.5400 C   0  0  0  0  0  0
   -1.6230  -11.4450   -4.3430 C   0  0  0  0  0  0
   -2.3460  -10.9670   -5.4210 C   0  0  0  0  0  0
   -2.2030  -11.4260   -3.0790 C   0  0  0  0  0  0
   -3.6150  -10.4580   -5.2450 C   0  0  0  0  0  0
   -3.4720  -10.9260   -2.8970 C   0  0  0  0  0  0
   -4.1820  -10.4350   -3.9780 C   0  0  0  0  0  0
    2.0510  -14.2640   -4.2510 N   0  0  0  0  0  0
    3.4110  -14.6000   -4.6460 C   0  0  2  0  0  0
    4.1200  -15.4660   -3.6140 C   0  0  0  0  0  0
    4.7560  -16.4620   -3.9540 O   0  0  0  0  0  0
    4.2190  -13.3190   -4.8660 C   0  0  0  0  0  0
    5.6320  -13.5530   -5.3370 C   0  0  0  0  0  0
    5.9250  -13.6010   -6.6940 C   0  0  0  0  0  0
    6.6690  -13.7090   -4.4230 C   0  0  0  0  0  0
    7.2290  -13.8020   -7.1280 C   0  0  0  0  0  0
    7.9650  -13.9230   -4.8460 C   0  0  0  0  0  0
    8.2500  -13.9650   -6.1990 C   0  0  0  0  0  0
    4.0310  -15.0730   -2.3520 N   0  0  0  0  0  0
    4.8310  -15.7320   -1.3110 C   0  0  2  0  0  0
    3.9930  -16.6000   -0.3450 C   0  0  0  0  0  0
    3.3913  -17.6319   -0.7458 O   0  0  0  0  0  0
    5.7240  -14.6820   -0.5230 C   0  0  0  0  0  0
    3.9099  -16.2689    0.8679 O   0  0  0  0  0  0
   -9.4513   -5.9083    5.1187 H   0  0  0  0  0  0
  -11.1691   -5.5327    4.7519 H   0  0  0  0  0  0
   -9.8832   -4.3472    4.3421 H   0  0  0  0  0  0
  -10.2621   -7.0857    3.2390 H   0  0  0  0  0  0
  -11.9534   -5.4222    2.4464 H   0  0  0  0  0  0
  -10.8438   -5.8893    1.1132 H   0  0  0  0  0  0
  -10.6293   -4.3144    1.9502 H   0  0  0  0  0  0
   -7.8656   -5.9096    4.5801 H   0  0  0  0  0  0
   -6.2496   -5.0678    2.2569 H   0  0  0  0  0  0
   -5.4952   -5.5734    5.1859 H   0  0  0  0  0  0
   -3.5690   -6.2760    3.7812 H   0  0  0  0  0  0
   -3.2213   -4.7665    4.6907 H   0  0  0  0  0  0
   -3.6137   -4.6897    2.9395 H   0  0  0  0  0  0
   -6.7429   -3.5124    4.6135 H   0  0  0  0  0  0
   -5.4673   -3.0785    3.4254 H   0  0  0  0  0  0
   -5.0749   -3.1553    5.1767 H   0  0  0  0  0  0
   -5.2739   -9.2029    0.9908 H   0  0  0  0  0  0
   -3.5568   -8.4604   -1.0717 H   0  0  0  0  0  0
   -5.3332   -8.2392   -1.2199 H   0  0  0  0  0  0
   -3.1945   -6.2214   -0.4373 H   0  0  0  0  0  0
   -4.5608   -6.0290   -1.5874 H   0  0  0  0  0  0
   -6.1539   -5.7513    0.1666 H   0  0  0  0  0  0
   -4.7113   -5.1041    1.0190 H   0  0  0  0  0  0
   -3.8269  -10.7115    1.2884 H   0  0  0  0  0  0
   -1.2577   -9.7269    2.6009 H   0  0  0  0  0  0
   -2.2613  -12.6111    2.2753 H   0  0  0  0  0  0
   -1.0132  -12.0093    3.4185 H   0  0  0  0  0  0
   -3.9432  -11.2436    3.5081 H   0  0  0  0  0  0
   -3.1865  -12.5641    4.4622 H   0  0  0  0  0  0
   -1.5664  -12.1357    6.0269 H   0  0  0  0  0  0
   -1.4933  -10.3976    6.8038 H   0  0  0  0  0  0
    0.6310   -9.8294    1.5633 H   0  0  0  0  0  0
    0.6736  -10.2886   -1.2830 H   0  0  0  0  0  0
    2.3629   -8.9425   -0.1352 H   0  0  0  0  0  0
    2.8726  -10.3459    0.8635 H   0  0  0  0  0  0
    5.0752  -11.3250    0.1770 H   0  0  0  0  0  0
    1.7999   -8.9567   -2.9771 H   0  0  0  0  0  0
    6.2638  -10.5252   -4.6472 H   0  0  0  0  0  0
    2.4792   -8.6099   -5.3438 H   0  0  0  0  0  0
    4.6830   -9.3829   -6.1569 H   0  0  0  0  0  0
    0.9780  -12.5425    1.3789 H   0  0  0  0  0  0
    2.6762  -14.3686   -0.1339 H   0  0  0  0  0  0
    2.1713  -15.9969    1.7553 H   0  0  0  0  0  0
    2.5528  -14.3550    2.3759 H   0  0  0  0  0  0
   -0.0762  -14.0469    2.2681 H   0  0  0  0  0  0
   -0.0685  -15.8421    2.3288 H   0  0  0  0  0  0
   -0.1508  -14.3059    5.8609 H   0  0  0  0  0  0
   -0.7091  -13.7306   -0.3382 H   0  0  0  0  0  0
   -1.0724  -16.5399   -1.4381 H   0  0  0  0  0  0
   -3.5049  -16.1373   -1.4416 H   0  0  0  0  0  0
   -2.4111  -16.8035    0.6995 H   0  0  0  0  0  0
   -3.8643  -15.7838    0.9737 H   0  0  0  0  0  0
   -2.2235  -15.0691    1.1281 H   0  0  0  0  0  0
   -3.4653  -13.7711   -2.1328 H   0  0  0  0  0  0
   -2.8341  -13.3123   -0.5148 H   0  0  0  0  0  0
   -4.4749  -14.0270   -0.6692 H   0  0  0  0  0  0
    0.1461  -13.7442   -2.3788 H   0  0  0  0  0  0
   -1.0569  -13.9636   -5.1689 H   0  0  0  0  0  0
    0.3753  -11.6526   -3.7148 H   0  0  0  0  0  0
    0.1300  -11.6258   -5.4941 H   0  0  0  0  0  0
   -1.9083  -10.9930   -6.4189 H   0  0  0  0  0  0
   -1.6469  -11.8109   -2.2242 H   0  0  0  0  0  0
   -4.1724  -10.0741   -6.0994 H   0  0  0  0  0  0
   -3.9173  -10.9168   -1.9022 H   0  0  0  0  0  0
   -5.1843  -10.0310   -3.8353 H   0  0  0  0  0  0
    1.7823  -14.2222   -3.1852 H   0  0  0  0  0  0
    3.2902  -15.1776   -5.5743 H   0  0  0  0  0  0
    3.7234  -12.6991   -5.6277 H   0  0  0  0  0  0
    4.2822  -12.7586   -3.9216 H   0  0  0  0  0  0
    5.1249  -13.4799   -7.4243 H   0  0  0  0  0  0
    6.4544  -13.6614   -3.3554 H   0  0  0  0  0  0
    7.4512  -13.8318   -8.1947 H   0  0  0  0  0  0
    8.7625  -14.0587   -4.1155 H   0  0  0  0  0  0
    9.2740  -14.1257   -6.5362 H   0  0  0  0  0  0
    3.3534  -14.2485   -2.0855 H   0  0  0  0  0  0
    5.4469  -16.4272   -1.9004 H   0  0  0  0  0  0
    6.3050  -14.0835   -1.2401 H   0  0  0  0  0  0
    6.4108  -15.2166    0.1497 H   0  0  0  0  0  0
    5.0749  -14.0185    0.0673 H   0  0  0  0  0  0
    3.3165  -16.8787    1.5651 H   0  0  0  0  0  0
  1  2  1  0  0  0
  1 87  1  0  0  0
  1 88  1  0  0  0
  1 89  1  0  0  0
  2  3  1  0  0  0
  2  5  1  0  0  0
  2 90  1  0  0  0
  3  4  2  0  0  0
  3  6  1  0  0  0
  5 91  1  0  0  0
  5 92  1  0  0  0
  5 93  1  0  0  0
  6  7  1  0  0  0
  6 94  1  0  0  0
  7  8  1  0  0  0
  7 10  1  0  0  0
  7 95  1  0  0  0
  8  9  2  0  0  0
  8 13  1  0  0  0
 10 11  1  0  0  0
 10 12  1  0  0  0
 10 96  1  0  0  0
 11 97  1  0  0  0
 11 98  1  0  0  0
 11 99  1  0  0  0
 12100  1  0  0  0
 12101  1  0  0  0
 12102  1  0  0  0
 13 14  1  0  0  0
 13 19  1  0  0  0
 14 15  1  0  0  0
 14 17  1  0  0  0
 14103  1  0  0  0
 15 16  2  0  0  0
 15 20  1  0  0  0
 17 18  1  0  0  0
 17104  1  0  0  0
 17105  1  0  0  0
 18 19  1  0  0  0
 18106  1  0  0  0
 18107  1  0  0  0
 19108  1  0  0  0
 19109  1  0  0  0
 20 21  1  0  0  0
 20110  1  0  0  0
 21 22  1  0  0  0
 21 24  1  0  0  0
 21111  1  0  0  0
 22 23  2  0  0  0
 22 29  1  0  0  0
 24 25  1  0  0  0
 24112  1  0  0  0
 24113  1  0  0  0
 25 26  1  0  0  0
 25114  1  0  0  0
 25115  1  0  0  0
 26 27  2  0  0  0
 26 28  1  0  0  0
 28116  1  0  0  0
 28117  1  0  0  0
 29 30  1  0  0  0
 29118  1  0  0  0
 30 31  1  0  0  0
 30 33  1  0  0  0
 30119  1  0  0  0
 31 32  2  0  0  0
 31 43  1  0  0  0
 33 34  1  0  0  0
 33120  1  0  0  0
 33121  1  0  0  0
 34 35  2  0  0  0
 34 36  1  0  0  0
 35 37  1  0  0  0
 35122  1  0  0  0
 36 38  2  0  0  0
 36 39  1  0  0  0
 37 38  1  0  0  0
 38 40  1  0  0  0
 39 41  2  0  0  0
 39123  1  0  0  0
 40 42  2  0  0  0
 40124  1  0  0  0
 41 42  1  0  0  0
 41125  1  0  0  0
 42126  1  0  0  0
 43 44  1  0  0  0
 43127  1  0  0  0
 44 45  1  0  0  0
 44 47  1  0  0  0
 44128  1  0  0  0
 45 46  2  0  0  0
 45 52  1  0  0  0
 47 48  1  0  0  0
 47129  1  0  0  0
 47130  1  0  0  0
 48 49  1  0  0  0
 48131  1  0  0  0
 48132  1  0  0  0
 49 50  2  0  0  0
 49 51  1  0  0  0
 51133  1  0  0  0
 52 53  1  0  0  0
 52134  1  0  0  0
 53 54  1  0  0  0
 53 56  1  0  0  0
 53135  1  0  0  0
 54 55  2  0  0  0
 54 59  1  0  0  0
 56 57  1  0  0  0
 56 58  1  0  0  0
 56136  1  0  0  0
 57137  1  0  0  0
 57138  1  0  0  0
 57139  1  0  0  0
 58140  1  0  0  0
 58141  1  0  0  0
 58142  1  0  0  0
 59 60  1  0  0  0
 59143  1  0  0  0
 60 61  1  0  0  0
 60 63  1  0  0  0
 60144  1  0  0  0
 61 62  2  0  0  0
 61 70  1  0  0  0
 63 64  1  0  0  0
 63145  1  0  0  0
 63146  1  0  0  0
 64 65  2  0  0  0
 64 66  1  0  0  0
 65 67  1  0  0  0
 65147  1  0  0  0
 66 68  2  0  0  0
 66148  1  0  0  0
 67 69  2  0  0  0
 67149  1  0  0  0
 68 69  1  0  0  0
 68150  1  0  0  0
 69151  1  0  0  0
 70 71  1  0  0  0
 70152  1  0  0  0
 71 72  1  0  0  0
 71 74  1  0  0  0
 71153  1  0  0  0
 72 73  2  0  0  0
 72 81  1  0  0  0
 74 75  1  0  0  0
 74154  1  0  0  0
 74155  1  0  0  0
 75 76  2  0  0  0
 75 77  1  0  0  0
 76 78  1  0  0  0
 76156  1  0  0  0
 77 79  2  0  0  0
 77157  1  0  0  0
 78 80  2  0  0  0
 78158  1  0  0  0
 79 80  1  0  0  0
 79159  1  0  0  0
 80160  1  0  0  0
 81 82  1  0  0  0
 81161  1  0  0  0
 82 83  1  0  0  0
 82 85  1  0  0  0
 82162  1  0  0  0
 83 84  2  0  0  0
 83 86  1  0  0  0
 85163  1  0  0  0
 85164  1  0  0  0
 85165  1  0  0  0
 86166  1  0  0  0
M  CHG  1   1   1
M  END
> <s_m_source_file>
../4htp_ligand.sdf

> <i_m_source_file_index>
1

> <s_epik_input>
W05IMytdW0NAQEhdKFtDSDNdKUMoPU8pW05IXVtDQEBIXShbQ0hdKFtDSDNdKVtDSDNdKUMoPU8pTjFbQ0BASF0oW0NIMl1bQ0gyXVtDSDJdMSlDKD1PKVtOSF1bQ0BASF0oW0NIMl1bQ0gyXUMoPU8pW05IMl0pQyg9TylbTkhdW0NAQEhdKFtDSDJdYzJbY0hdW25IXWMoYzIzKVtjSF1bY0hdW2NIXVtjSF0zKUMoPU8pW05IXVtDQEBIXShbQ0gyXVtDSDJdQyg9TylbT0hdKUMoPU8pW05IXVtDQEBIXShbQ0hdKFtDSDNdKVtDSDNdKUMoPU8pW05IXVtDQEBIXShbQ0gyXWM0W2NIXVtjSF1bY0hdW2NIXVtjSF00KUMoPU8pW05IXVtDQEhdKEMoPU8pW05IXVtDQEBIXShbQ0gzXSlDKD1PKVtPSF0pW0NIMl1jNVtjSF1bY0hdW2NIXVtjSF1bY0hdNQ==

> <s_epik_cmdline>
J2VwaWtfYXBwJywgJy1pbWFlJywgJ2xpZ2FuZF9wcm8ubWFlJywgJy1vbWFlJywgJ2xpZ2FuZF9wcmVwLm1hZScsICctbXMnLCAnMScsICctcGgnLCAnNycsICctcGh0JywgJzAuNScsICctbnQn

> <s_epik_pKa_notes>
Molecule size exceeds maximum supported for generating protonation states

$$$$
