4htx_ligand
                    3D
 Schrodinger Suite 2020-3.
 67 70  0  0  1  0            999 V2000
  -13.0200   27.3340   22.1530 C   0  0  0  0  0  0
  -12.8850   28.2860   23.2160 O   0  0  0  0  0  0
  -12.8690   27.7290   24.4620 C   0  0  0  0  0  0
  -12.9750   26.3600   24.6930 C   0  0  0  0  0  0
  -12.7370   28.6160   25.5260 C   0  0  0  0  0  0
  -12.6350   29.9400   25.1970 O   0  0  0  0  0  0
  -12.5040   30.7650   26.3590 C   0  0  0  0  0  0
  -12.7080   28.1410   26.8380 C   0  0  0  0  0  0
  -12.8110   26.7670   27.0750 C   0  0  0  0  0  0
  -12.9580   25.8780   26.0010 C   0  0  0  0  0  0
  -13.0680   24.5100   26.2370 C   0  0  0  0  0  0
  -14.3840   24.0080   26.0690 C   0  0  0  0  0  0
  -15.2560   23.8620   27.1510 N   0  0  0  0  0  0
  -16.5300   23.3390   26.9790 C   0  0  0  0  0  0
  -17.2640   23.2430   27.9630 O   0  0  0  0  0  0
  -14.8270   23.6060   24.8750 N   0  0  0  0  0  0
  -16.0110   23.1260   24.7620 N   0  0  0  0  0  0
  -16.9060   22.9700   25.7460 C   0  0  0  0  0  0
  -18.0080   22.4420   25.1880 C   0  0  0  0  0  0
  -19.3310   22.0540   25.8770 C   0  0  0  0  0  0
  -17.8170   22.2620   23.8800 N   0  0  0  0  0  0
  -16.5930   22.7140   23.6340 C   0  0  0  0  0  0
  -15.9120   22.6760   22.2470 C   0  0  2  0  0  0
  -14.6030   21.8660   22.2630 C   0  0  1  0  0  0
  -14.8790   20.4440   22.7480 C   0  0  0  0  0  0
  -14.0770   21.8350   20.9370 O   0  0  0  0  0  0
  -15.7350   24.0450   21.5370 C   0  0  0  0  0  0
  -17.0970   24.6660   21.1290 C   0  0  0  0  0  0
  -16.8260   25.9720   20.3600 C   0  0  0  0  0  0
  -18.0110   26.5380   19.8620 C   0  0  0  0  0  0
  -18.2980   26.4170   18.5060 C   0  0  0  0  0  0
  -19.4580   26.9590   17.9560 C   0  0  0  0  0  0
  -20.3470   27.6340   18.7750 C   0  0  0  0  0  0
  -20.0670   27.7550   20.1320 C   0  0  0  0  0  0
  -18.9010   27.2150   20.6740 C   0  0  0  0  0  0
  -13.0243   27.8608   21.1874 H   0  0  0  0  0  0
  -13.9634   26.7813   22.2734 H   0  0  0  0  0  0
  -12.1759   26.6293   22.1825 H   0  0  0  0  0  0
  -13.0708   25.6689   23.8556 H   0  0  0  0  0  0
  -12.4250   31.8188   26.0535 H   0  0  0  0  0  0
  -11.5997   30.4754   26.9142 H   0  0  0  0  0  0
  -13.3867   30.6350   27.0024 H   0  0  0  0  0  0
  -12.6058   28.8359   27.6715 H   0  0  0  0  0  0
  -12.7770   26.3866   28.0959 H   0  0  0  0  0  0
  -12.4169   23.9639   25.5385 H   0  0  0  0  0  0
  -12.7626   24.2905   27.2707 H   0  0  0  0  0  0
  -19.2681   22.2884   26.9499 H   0  0  0  0  0  0
  -19.5099   20.9765   25.7469 H   0  0  0  0  0  0
  -20.1591   22.6203   25.4259 H   0  0  0  0  0  0
  -16.6387   22.1370   21.6214 H   0  0  0  0  0  0
  -13.8297   22.3355   22.8888 H   0  0  0  0  0  0
  -15.2839   20.4774   23.7702 H   0  0  0  0  0  0
  -13.9426   19.8668   22.7432 H   0  0  0  0  0  0
  -15.6091   19.9640   22.0798 H   0  0  0  0  0  0
  -13.8187   22.7741   20.4257 H   0  0  0  0  0  0
  -15.2260   24.7463   22.2146 H   0  0  0  0  0  0
  -15.1314   23.9109   20.6272 H   0  0  0  0  0  0
  -17.6450   23.9593   20.4884 H   0  0  0  0  0  0
  -17.6888   24.8772   22.0318 H   0  0  0  0  0  0
  -16.3502   26.7013   21.0322 H   0  0  0  0  0  0
  -16.1578   25.7657   19.5109 H   0  0  0  0  0  0
  -17.5996   25.8861   17.8591 H   0  0  0  0  0  0
  -19.6635   26.8525   16.8909 H   0  0  0  0  0  0
  -21.2576   28.0664   18.3603 H   0  0  0  0  0  0
  -20.7687   28.2792   20.7809 H   0  0  0  0  0  0
  -18.6917   27.3269   21.7378 H   0  0  0  0  0  0
  -14.1769   23.6869   23.9914 H   0  0  0  0  0  0
  1  2  1  0  0  0
  1 36  1  0  0  0
  1 37  1  0  0  0
  1 38  1  0  0  0
  2  3  1  0  0  0
  3  4  2  0  0  0
  3  5  1  0  0  0
  4 10  1  0  0  0
  4 39  1  0  0  0
  5  6  1  0  0  0
  5  8  2  0  0  0
  6  7  1  0  0  0
  7 40  1  0  0  0
  7 41  1  0  0  0
  7 42  1  0  0  0
  8  9  1  0  0  0
  8 43  1  0  0  0
  9 10  2  0  0  0
  9 44  1  0  0  0
 10 11  1  0  0  0
 11 12  1  0  0  0
 11 45  1  0  0  0
 11 46  1  0  0  0
 12 13  2  0  0  0
 12 16  1  0  0  0
 13 14  1  0  0  0
 14 15  2  0  0  0
 14 18  1  0  0  0
 16 17  1  0  0  0
 16 67  1  0  0  0
 17 18  1  0  0  0
 17 22  1  0  0  0
 18 19  2  0  0  0
 19 20  1  0  0  0
 19 21  1  0  0  0
 20 47  1  0  0  0
 20 48  1  0  0  0
 20 49  1  0  0  0
 21 22  2  0  0  0
 22 23  1  0  0  0
 23 24  1  0  0  0
 23 27  1  0  0  0
 23 50  1  0  0  0
 24 25  1  0  0  0
 24 26  1  0  0  0
 24 51  1  0  0  0
 25 52  1  0  0  0
 25 53  1  0  0  0
 25 54  1  0  0  0
 26 55  1  0  0  0
 27 28  1  0  0  0
 27 56  1  0  0  0
 27 57  1  0  0  0
 28 29  1  0  0  0
 28 58  1  0  0  0
 28 59  1  0  0  0
 29 30  1  0  0  0
 29 60  1  0  0  0
 29 61  1  0  0  0
 30 31  2  0  0  0
 30 35  1  0  0  0
 31 32  1  0  0  0
 31 62  1  0  0  0
 32 33  2  0  0  0
 32 63  1  0  0  0
 33 34  1  0  0  0
 33 64  1  0  0  0
 34 35  2  0  0  0
 34 65  1  0  0  0
 35 66  1  0  0  0
M  END
> <s_m_source_file>
../4htx_ligand.sdf

> <i_m_source_file_index>
1

> <s_epik_input>
W0NIM11PYzFbY0hdW2NIXWMoW2NIXWMxT1tDSDNdKVtDSDJdYyhuMilbbkhdYyg9TyljKG4yMyljKFtDSDNdKW5jM1tDQEhdKFtDQEBIXShbQ0gzXSlbT0hdKVtDSDJdW0NIMl1bQ0gyXWM0W2NIXVtjSF1bY0hdW2NIXVtjSF00

> <s_epik_cmdline>
J2VwaWtfYXBwJywgJy1pbWFlJywgJ2xpZ2FuZF9wcm8ubWFlJywgJy1vbWFlJywgJ2xpZ2FuZF9wcmVwLm1hZScsICctbXMnLCAnMScsICctcGgnLCAnNycsICctcGh0JywgJzAuNScsICctbnQn

> <r_lp_tautomer_probability>
1

> <r_epik_Ionization_Penalty>
  0.1658

> <r_epik_Ionization_Penalty_Charging>
  0.1451

> <r_epik_Ionization_Penalty_Neutral>
  0.0207

> <r_epik_State_Penalty>
  0.3320

> <r_epik_Charging_Adjusted_Penalty>
0.477109407135111

> <i_epik_Tot_Q>
0

> <i_epik_Tot_abs_Q>
0

$$$$
