4hu1_ligand
                    3D
 Schrodinger Suite 2020-3.
 27 27  0  0  1  0            999 V2000
  -38.8150  -33.0830   20.5040 O   0  0  0  0  0  0
  -39.4970  -34.0380   21.4600 S   0  0  0  0  0  0
  -40.1780  -33.0160   22.3640 O   0  0  0  0  0  0
  -40.7800  -34.9630   20.5910 C   0  0  0  0  0  0
  -40.0650  -36.2120   20.1650 C   0  0  0  0  0  0
  -40.0920  -37.0560   21.2690 O   0  0  0  0  0  0
  -38.0820  -34.8380   22.3240 C   0  0  0  0  0  0
  -36.9100  -35.2260   21.6410 C   0  0  0  0  0  0
  -36.7550  -34.9670   20.3370 F   0  0  0  0  0  0
  -35.8580  -35.8520   22.2900 C   0  0  0  0  0  0
  -34.7220  -36.1540   21.6290 F   0  0  0  0  0  0
  -35.9780  -36.1400   23.6670 C   0  0  0  0  0  0
  -34.5760  -36.9180   24.4370 S   0  0  0  0  0  0
  -33.5730  -35.9080   24.2420 O   0  0  0  0  0  0
  -34.7300  -37.1320   26.1320 N   0  0  0  0  0  0
  -34.2510  -38.2300   23.7830 O   0  0  0  0  0  0
  -37.1440  -35.7850   24.3290 C   0  0  0  0  0  0
  -37.4030  -36.0640   25.5860 F   0  0  0  0  0  0
  -38.1810  -35.1740   23.6430 C   0  0  0  0  0  0
  -39.2750  -34.8730   24.3270 F   0  0  0  0  0  0
  -41.6143  -35.1667   21.2783 H   0  0  0  0  0  0
  -41.1439  -34.3720   19.7376 H   0  0  0  0  0  0
  -40.5879  -36.6592   19.3068 H   0  0  0  0  0  0
  -39.0330  -35.9635   19.8766 H   0  0  0  0  0  0
  -39.6261  -38.0508   21.2123 H   0  0  0  0  0  0
  -33.8239  -37.6170   26.5241 H   0  0  0  0  0  0
  -35.6051  -37.7639   26.3438 H   0  0  0  0  0  0
  1  2  2  0  0  0
  2  3  2  0  0  0
  2  4  1  0  0  0
  2  7  1  0  0  0
  4  5  1  0  0  0
  4 21  1  0  0  0
  4 22  1  0  0  0
  5  6  1  0  0  0
  5 23  1  0  0  0
  5 24  1  0  0  0
  6 25  1  0  0  0
  7  8  2  0  0  0
  7 19  1  0  0  0
  8  9  1  0  0  0
  8 10  1  0  0  0
 10 11  1  0  0  0
 10 12  2  0  0  0
 12 13  1  0  0  0
 12 17  1  0  0  0
 13 14  2  0  0  0
 13 15  1  0  0  0
 13 16  2  0  0  0
 15 26  1  0  0  0
 15 27  1  0  0  0
 17 18  1  0  0  0
 17 19  2  0  0  0
 19 20  1  0  0  0
M  END
> <s_m_source_file>
../4hu1_ligand.sdf

> <i_m_source_file_index>
1

> <s_epik_input>
W09IXVtDSDJdW0NIMl1TKD1PKSg9TyljMWMoRiljKEYpYyhTKD1PKSg9TylbTkgyXSljKEYpYzFG

> <s_epik_cmdline>
J2VwaWtfYXBwJywgJy1pbWFlJywgJ2xpZ2FuZF9wcm8ubWFlJywgJy1vbWFlJywgJ2xpZ2FuZF9wcmVwLm1hZScsICctbXMnLCAnMScsICctcGgnLCAnNycsICctcGh0JywgJzAuNScsICctbnQn

> <r_epik_Ionization_Penalty>
  0.0415

> <r_epik_Ionization_Penalty_Charging>
  0.0000

> <r_epik_Ionization_Penalty_Neutral>
  0.0415

> <r_epik_State_Penalty>
  0.0350

> <r_epik_Charging_Adjusted_Penalty>
0.0349973121663988

> <i_epik_Tot_Q>
0

> <i_epik_Tot_abs_Q>
0

$$$$
