4huo_ligand
                    3D
 Schrodinger Suite 2020-3.
 46 48  0  0  1  0            999 V2000
   10.2230  -25.1850   -6.2510 C   0  0  0  0  0  0
    9.9030  -25.8170   -5.1240 N   0  0  0  0  0  0
   11.9750  -25.7440   -9.1310 O   0  0  0  0  0  0
   11.2920  -25.1490   -8.2610 C   0  0  0  0  0  0
   10.9810  -25.8140   -7.1800 N   0  3  0  0  0  0
   10.9540  -23.7750   -8.4620 C   0  0  0  0  0  0
    9.9580  -23.9010   -6.2960 N   0  0  0  0  0  0
    8.5520  -19.4870   -8.0740 O   0  0  0  0  0  0
   10.0990  -23.1920   -7.4240 C   0  0  0  0  0  0
    9.7310  -21.9070   -7.5150 N   0  0  0  0  0  0
    9.9730  -21.2670   -8.6480 C   0  0  0  0  0  0
   11.2320  -23.1060   -9.5860 N   0  0  0  0  0  0
   10.7990  -21.8550   -9.6690 C   0  0  0  0  0  0
    9.4330  -19.8800   -8.8460 C   0  0  0  0  0  0
    9.7240  -19.2280   -9.9620 N   0  0  0  0  0  0
    9.3090  -17.8400  -10.1430 C   0  0  0  0  0  0
    8.5890  -17.6540  -11.4750 C   0  0  0  0  0  0
    8.3810  -16.4950  -11.7810 O   0  0  0  0  0  0
    8.2710  -18.7730  -12.1610 N   0  0  0  0  0  0
    7.5130  -18.8120  -13.4200 C   0  0  2  0  0  0
    6.0840  -19.1790  -13.0790 C   0  0  0  0  0  0
    5.1650  -19.1800  -13.8930 O   0  0  0  0  0  0
    8.3770  -19.6520  -14.4210 C   0  0  0  0  0  0
    8.3770  -21.1350  -13.9190 C   0  0  0  0  0  0
    7.3480  -22.0300  -14.2370 C   0  0  0  0  0  0
    9.3870  -21.6130  -13.1130 C   0  0  0  0  0  0
    7.3080  -23.3730  -13.8440 C   0  0  0  0  0  0
    9.3370  -22.9400  -12.6630 C   0  0  0  0  0  0
    8.3360  -23.8540  -13.0090 C   0  0  0  0  0  0
    5.7740  -19.4920  -11.8240 O   0  5  0  0  0  0
   10.0995  -26.8946   -5.0228 H   0  0  0  0  0  0
   11.0769  -21.2551  -10.5356 H   0  0  0  0  0  0
   10.2841  -19.7427  -10.7566 H   0  0  0  0  0  0
    8.6263  -17.5524   -9.3298 H   0  0  0  0  0  0
   10.1944  -17.1874  -10.1265 H   0  0  0  0  0  0
    8.6279  -19.7081  -11.7047 H   0  0  0  0  0  0
    7.3530  -17.8436  -13.9166 H   0  0  0  0  0  0
    7.9377  -19.5883  -15.4275 H   0  0  0  0  0  0
    9.4026  -19.2550  -14.4428 H   0  0  0  0  0  0
    6.5175  -21.6534  -14.8342 H   0  0  0  0  0  0
   10.2166  -20.9660  -12.8280 H   0  0  0  0  0  0
    6.5030  -24.0291  -14.1751 H   0  0  0  0  0  0
   10.1310  -23.2823  -11.9993 H   0  0  0  0  0  0
    8.3505  -24.8836  -12.6516 H   0  0  0  0  0  0
    9.4420  -25.2617   -4.2939 H   0  0  0  0  0  0
   11.3126  -26.8490   -7.0103 H   0  0  0  0  0  0
  1  2  1  0  0  0
  1  5  1  0  0  0
  1  7  2  0  0  0
  2 31  1  0  0  0
  2 45  1  0  0  0
  3  4  2  0  0  0
  4  5  1  0  0  0
  4  6  1  0  0  0
  5 46  1  0  0  0
  6  9  2  0  0  0
  6 12  1  0  0  0
  7  9  1  0  0  0
  8 14  2  0  0  0
  9 10  1  0  0  0
 10 11  2  0  0  0
 11 13  1  0  0  0
 11 14  1  0  0  0
 12 13  2  0  0  0
 13 32  1  0  0  0
 14 15  1  0  0  0
 15 16  1  0  0  0
 15 33  1  0  0  0
 16 17  1  0  0  0
 16 34  1  0  0  0
 16 35  1  0  0  0
 17 18  2  0  0  0
 17 19  1  0  0  0
 19 20  1  0  0  0
 19 36  1  0  0  0
 20 21  1  0  0  0
 20 23  1  0  0  0
 20 37  1  0  0  0
 21 22  2  0  0  0
 21 30  1  0  0  0
 23 24  1  0  0  0
 23 38  1  0  0  0
 23 39  1  0  0  0
 24 25  2  0  0  0
 24 26  1  0  0  0
 25 27  1  0  0  0
 25 40  1  0  0  0
 26 28  2  0  0  0
 26 41  1  0  0  0
 27 29  2  0  0  0
 27 42  1  0  0  0
 28 29  1  0  0  0
 28 43  1  0  0  0
 29 44  1  0  0  0
M  CHG  2   5   1  30  -1
M  END
> <s_m_source_file>
../4huo_ligand.sdf

> <i_m_source_file_index>
1

> <s_epik_input>
Tz1jMVtuSF0vYyg9TlxbSF0pW25IXWMoYzEyKW5jKFtjSF1uMilDKD1PKVtOSF1bQ0gyXUMoPU8pW05IXVtDQEhdKEMoPU8pW09IXSlbQ0gyXWMzW2NIXVtjSF1bY0hdW2NIXVtjSF0z

> <s_epik_cmdline>
J2VwaWtfYXBwJywgJy1pbWFlJywgJ2xpZ2FuZF9wcm8ubWFlJywgJy1vbWFlJywgJ2xpZ2FuZF9wcmVwLm1hZScsICctbXMnLCAnMScsICctcGgnLCAnNycsICctcGh0JywgJzAuNScsICctbnQn

> <r_lp_tautomer_probability>
1

> <r_epik_Ionization_Penalty>
  0.2788

> <r_epik_Ionization_Penalty_Charging>
  0.2787

> <r_epik_Ionization_Penalty_Neutral>
  0.0000

> <r_epik_State_Penalty>
 -0.0000

> <r_epik_Charging_Adjusted_Penalty>
0.278724615668026

> <i_epik_Tot_Q>
0

> <i_epik_Tot_abs_Q>
2

> <s_epik_Chemistry_Notes>
This compound has an imine and may undergo hydrolysis.

$$$$
