4hup_ligand
                    3D
 Schrodinger Suite 2020-3.
 66 69  0  0  1  0            999 V2000
  -23.7290    8.6940   -6.1490 C   0  0  0  0  0  0
  -24.0720    8.0420   -5.0030 N   0  0  0  0  0  0
  -21.8960    8.1280   -9.1170 O   0  0  0  0  0  0
  -22.6010    8.6830   -8.2430 C   0  0  0  0  0  0
  -22.9600    8.0680   -7.0950 N   0  3  0  0  0  0
  -23.0660   10.0690   -8.4410 C   0  0  0  0  0  0
  -24.1700    9.9520   -6.2910 N   0  0  0  0  0  0
  -25.2570   14.4580   -8.0050 O   0  0  0  0  0  0
  -23.8910   10.6680   -7.3770 C   0  0  0  0  0  0
  -24.3280   11.9260   -7.5320 N   0  0  0  0  0  0
  -24.0050   12.5970   -8.6550 C   0  0  0  0  0  0
  -22.7640   10.7720   -9.5430 N   0  0  0  0  0  0
  -23.2230   12.0170   -9.6540 C   0  0  0  0  0  0
  -24.5230   13.9830   -8.8520 C   0  0  0  0  0  0
  -24.2460   14.6340   -9.9780 N   0  0  0  0  0  0
  -24.6640   16.0160  -10.1030 C   0  0  0  0  0  0
  -25.3350   16.2820  -11.4230 C   0  0  0  0  0  0
  -25.6160   17.4230  -11.7340 O   0  0  0  0  0  0
  -25.5850   15.2290  -12.1980 N   0  0  0  0  0  0
  -26.0930   15.3790  -13.5530 C   0  0  2  0  0  0
  -27.5760   15.1340  -13.6010 C   0  0  0  0  0  0
  -28.1820   15.1680  -14.6600 O   0  0  0  0  0  0
  -25.3560   14.4420  -14.5140 C   0  0  0  0  0  0
  -25.4520   13.0260  -13.9880 C   0  0  0  0  0  0
  -26.4880   12.1920  -14.4060 C   0  0  0  0  0  0
  -24.5100   12.5540  -13.0820 C   0  0  0  0  0  0
  -26.5860   10.8930  -13.9280 C   0  0  0  0  0  0
  -24.6090   11.2500  -12.6050 C   0  0  0  0  0  0
  -25.6430   10.4220  -13.0200 C   0  0  0  0  0  0
  -28.1640   14.8810  -12.4330 N   0  0  0  0  0  0
  -29.5980   14.7180  -12.2950 C   0  0  2  0  0  0
  -30.3230   16.0350  -12.3410 C   0  0  0  0  0  0
  -31.5000   16.0890  -12.6680 O   0  0  0  0  0  0
  -29.8850   14.0270  -10.9670 C   0  0  0  0  0  0
  -29.3480   12.6110  -10.9950 C   0  0  0  0  0  0
  -30.0010   11.6300  -11.7390 C   0  0  0  0  0  0
  -28.2010   12.2830  -10.2720 C   0  0  0  0  0  0
  -29.5100   10.3270  -11.7630 C   0  0  0  0  0  0
  -27.7110   10.9780  -10.3000 C   0  0  0  0  0  0
  -28.3650    9.9990  -11.0410 C   0  0  0  0  0  0
  -29.6900   17.1630  -12.0170 O   0  5  0  0  0  0
  -23.7358    7.0079   -4.8369 H   0  0  0  0  0  0
  -22.9823   12.5960  -10.5456 H   0  0  0  0  0  0
  -23.7110   14.1443  -10.8050 H   0  0  0  0  0  0
  -25.3757   16.2578   -9.2999 H   0  0  0  0  0  0
  -23.7855   16.6733  -10.0246 H   0  0  0  0  0  0
  -25.3975   14.2253  -11.7889 H   0  0  0  0  0  0
  -25.9055   16.4281  -13.8255 H   0  0  0  0  0  0
  -25.8186   14.5008  -15.5103 H   0  0  0  0  0  0
  -24.3001   14.7428  -14.5817 H   0  0  0  0  0  0
  -27.2279   12.5638  -15.1149 H   0  0  0  0  0  0
  -23.6989   13.2006  -12.7470 H   0  0  0  0  0  0
  -27.3968   10.2456  -14.2619 H   0  0  0  0  0  0
  -23.8677   10.8756  -11.8990 H   0  0  0  0  0  0
  -25.7160    9.4048  -12.6352 H   0  0  0  0  0  0
  -27.5134   14.7966  -11.5501 H   0  0  0  0  0  0
  -29.9176   14.1204  -13.1615 H   0  0  0  0  0  0
  -29.3988   14.5830  -10.1518 H   0  0  0  0  0  0
  -30.9712   13.9994  -10.7952 H   0  0  0  0  0  0
  -30.8983   11.8832  -12.3036 H   0  0  0  0  0  0
  -27.6885   13.0459   -9.6860 H   0  0  0  0  0  0
  -30.0224    9.5629  -12.3475 H   0  0  0  0  0  0
  -26.8117   10.7238   -9.7389 H   0  0  0  0  0  0
  -27.9826    8.9784  -11.0565 H   0  0  0  0  0  0
  -24.6851    8.5497   -4.2438 H   0  0  0  0  0  0
  -22.6173    7.0358   -6.9302 H   0  0  0  0  0  0
  1  2  1  0  0  0
  1  5  1  0  0  0
  1  7  2  0  0  0
  2 42  1  0  0  0
  2 65  1  0  0  0
  3  4  2  0  0  0
  4  5  1  0  0  0
  4  6  1  0  0  0
  5 66  1  0  0  0
  6  9  2  0  0  0
  6 12  1  0  0  0
  7  9  1  0  0  0
  8 14  2  0  0  0
  9 10  1  0  0  0
 10 11  2  0  0  0
 11 13  1  0  0  0
 11 14  1  0  0  0
 12 13  2  0  0  0
 13 43  1  0  0  0
 14 15  1  0  0  0
 15 16  1  0  0  0
 15 44  1  0  0  0
 16 17  1  0  0  0
 16 45  1  0  0  0
 16 46  1  0  0  0
 17 18  2  0  0  0
 17 19  1  0  0  0
 19 20  1  0  0  0
 19 47  1  0  0  0
 20 21  1  0  0  0
 20 23  1  0  0  0
 20 48  1  0  0  0
 21 22  2  0  0  0
 21 30  1  0  0  0
 23 24  1  0  0  0
 23 49  1  0  0  0
 23 50  1  0  0  0
 24 25  2  0  0  0
 24 26  1  0  0  0
 25 27  1  0  0  0
 25 51  1  0  0  0
 26 28  2  0  0  0
 26 52  1  0  0  0
 27 29  2  0  0  0
 27 53  1  0  0  0
 28 29  1  0  0  0
 28 54  1  0  0  0
 29 55  1  0  0  0
 30 31  1  0  0  0
 30 56  1  0  0  0
 31 32  1  0  0  0
 31 34  1  0  0  0
 31 57  1  0  0  0
 32 33  2  0  0  0
 32 41  1  0  0  0
 34 35  1  0  0  0
 34 58  1  0  0  0
 34 59  1  0  0  0
 35 36  2  0  0  0
 35 37  1  0  0  0
 36 38  1  0  0  0
 36 60  1  0  0  0
 37 39  2  0  0  0
 37 61  1  0  0  0
 38 40  2  0  0  0
 38 62  1  0  0  0
 39 40  1  0  0  0
 39 63  1  0  0  0
 40 64  1  0  0  0
M  CHG  2   5   1  41  -1
M  END
> <s_m_source_file>
../4hup_ligand.sdf

> <i_m_source_file_index>
1

> <s_epik_input>
Tz1jMVtuSF0vYyg9TlxbSF0pW25IXWMoYzEyKW5jKFtjSF1uMilDKD1PKVtOSF1bQ0gyXUMoPU8pW05IXVtDQEBIXShbQ0gyXWMzW2NIXVtjSF1bY0hdW2NIXVtjSF0zKUMoPU8pW05IXVtDQEhdKEMoPU8pW09IXSlbQ0gyXWM0W2NIXVtjSF1bY0hdW2NIXVtjSF00

> <s_epik_cmdline>
J2VwaWtfYXBwJywgJy1pbWFlJywgJ2xpZ2FuZF9wcm8ubWFlJywgJy1vbWFlJywgJ2xpZ2FuZF9wcmVwLm1hZScsICctbXMnLCAnMScsICctcGgnLCAnNycsICctcGh0JywgJzAuNScsICctbnQn

> <r_lp_tautomer_probability>
1

> <r_epik_Ionization_Penalty>
  0.2787

> <r_epik_Ionization_Penalty_Charging>
  0.2787

> <r_epik_Ionization_Penalty_Neutral>
  0.0000

> <r_epik_State_Penalty>
 -0.0000

> <r_epik_Charging_Adjusted_Penalty>
0.278715549360303

> <i_epik_Tot_Q>
0

> <i_epik_Tot_abs_Q>
2

> <s_epik_Chemistry_Notes>
This compound has an imine and may undergo hydrolysis.

$$$$
