4hv3_ligand
                    3D
 Schrodinger Suite 2020-3.
 53 56  0  0  1  0            999 V2000
  -23.9110    8.5960   -6.3990 C   0  0  0  0  0  0
  -24.3050    7.8790   -5.3000 N   0  0  0  0  0  0
  -21.8480    8.1820   -9.1300 O   0  5  0  0  0  0
  -22.6770    8.6610   -8.3050 C   0  0  0  0  0  0
  -23.0650    7.9420   -7.2440 N   0  3  0  0  0  0
  -23.0880    9.9870   -8.5260 C   0  0  0  0  0  0
  -24.3040    9.8540   -6.4840 N   0  0  0  0  0  0
  -25.5700   14.2960   -8.2110 O   0  0  0  0  0  0
  -23.9840   10.5640   -7.5590 C   0  0  0  0  0  0
  -24.5470   11.7530   -7.7420 N   0  0  0  0  0  0
  -24.2210   12.4840   -8.8460 C   0  0  0  0  0  0
  -22.7240   10.8510   -9.6080 N   0  0  0  0  0  0
  -23.2180   12.0520   -9.7890 C   0  0  0  0  0  0
  -24.9410   13.7600   -9.0920 C   0  0  0  0  0  0
  -25.0360   14.1760  -10.4020 N   0  0  0  0  0  0
  -25.7620   15.3370  -10.7980 C   0  0  2  0  0  0
  -27.2770   15.0800  -10.8580 C   0  0  0  0  0  0
  -27.9960   16.0920  -11.0440 O   0  0  0  0  0  0
  -25.2270   15.8220  -12.1800 C   0  0  0  0  0  0
  -25.6420   14.8600  -13.1670 O   0  0  0  0  0  0
  -27.7870   13.8860  -10.5900 N   0  0  0  0  0  0
  -29.2460   13.7420  -10.5720 C   0  0  2  0  0  0
  -29.4780   12.7090   -9.4960 C   0  0  0  0  0  0
  -30.7460   12.5620   -9.0910 O   0  5  0  0  0  0
  -29.9400   13.3720  -11.9070 C   0  0  0  0  0  0
  -29.4980   12.0250  -12.4710 C   0  0  0  0  0  0
  -29.8510   10.7800  -12.0240 C   0  0  0  0  0  0
  -28.5060   11.7760  -13.5580 C   0  0  0  0  0  0
  -29.2230    9.7480  -12.6950 N   0  3  0  0  0  0
  -28.4040   10.3080  -13.6280 C   0  0  0  0  0  0
  -27.7190   12.6530  -14.3280 C   0  0  0  0  0  0
  -27.4980    9.7360  -14.5270 C   0  0  0  0  0  0
  -26.8850   12.0330  -15.2900 C   0  0  0  0  0  0
  -26.8160   10.6080  -15.3650 C   0  0  0  0  0  0
  -28.6010   11.9650   -8.9830 O   0  0  0  0  0  0
  -23.9993    6.8280   -5.1904 H   0  0  0  0  0  0
  -22.8642   12.6718  -10.6260 H   0  0  0  0  0  0
  -24.5187   13.5665  -11.1576 H   0  0  0  0  0  0
  -25.5659   16.0575   -9.9903 H   0  0  0  0  0  0
  -25.6470   16.8126  -12.4086 H   0  0  0  0  0  0
  -24.1295   15.8881  -12.1457 H   0  0  0  0  0  0
  -25.3712   15.0040  -14.2234 H   0  0  0  0  0  0
  -27.1459   13.0161  -10.3844 H   0  0  0  0  0  0
  -29.6663   14.7348  -10.3536 H   0  0  0  0  0  0
  -31.0281   13.3231  -11.7533 H   0  0  0  0  0  0
  -29.7106   14.1366  -12.6638 H   0  0  0  0  0  0
  -30.5742   10.6754  -11.2018 H   0  0  0  0  0  0
  -27.7494   13.7342  -14.1932 H   0  0  0  0  0  0
  -27.3354    8.6590  -14.5677 H   0  0  0  0  0  0
  -26.2952   12.6435  -15.9738 H   0  0  0  0  0  0
  -26.1811   10.1733  -16.1370 H   0  0  0  0  0  0
  -29.4378    8.7040  -12.4231 H   0  0  0  0  0  0
  -22.7582    6.9088   -7.0242 H   0  0  0  0  0  0
  1  2  2  0  0  0
  1  5  1  0  0  0
  1  7  1  0  0  0
  2 36  1  0  0  0
  3  4  1  0  0  0
  4  5  1  0  0  0
  4  6  2  0  0  0
  5 53  1  0  0  0
  6  9  1  0  0  0
  6 12  1  0  0  0
  7  9  2  0  0  0
  8 14  2  0  0  0
  9 10  1  0  0  0
 10 11  2  0  0  0
 11 13  1  0  0  0
 11 14  1  0  0  0
 12 13  2  0  0  0
 13 37  1  0  0  0
 14 15  1  0  0  0
 15 16  1  0  0  0
 15 38  1  0  0  0
 16 17  1  0  0  0
 16 19  1  0  0  0
 16 39  1  0  0  0
 17 18  2  0  0  0
 17 21  1  0  0  0
 19 20  1  0  0  0
 19 40  1  0  0  0
 19 41  1  0  0  0
 20 42  1  0  0  0
 21 22  1  0  0  0
 21 43  1  0  0  0
 22 23  1  0  0  0
 22 25  1  0  0  0
 22 44  1  0  0  0
 23 24  1  0  0  0
 23 35  2  0  0  0
 25 26  1  0  0  0
 25 45  1  0  0  0
 25 46  1  0  0  0
 26 27  2  0  0  0
 26 28  1  0  0  0
 27 29  1  0  0  0
 27 47  1  0  0  0
 28 30  2  0  0  0
 28 31  1  0  0  0
 29 30  1  0  0  0
 29 52  1  0  0  0
 30 32  1  0  0  0
 31 33  2  0  0  0
 31 48  1  0  0  0
 32 34  2  0  0  0
 32 49  1  0  0  0
 33 34  1  0  0  0
 33 50  1  0  0  0
 34 51  1  0  0  0
M  CHG  4   3  -1   5   1  24  -1  29   1
M  END
> <s_m_source_file>
../4hv3_ligand.sdf

> <i_m_source_file_index>
1

> <s_epik_input>
Tz1jMVtuSF0vYyg9TlxbSF0pW25IXWMoYzEyKW5jKFtjSF1uMilDKD1PKVtOSF1bQ0BASF0oW0NIMl1bT0hdKUMoPU8pW05IXVtDQEhdKEMoPU8pW09IXSlbQ0gyXWMzW2NIXVtuSF1jKGMzNClbY0hdW2NIXVtjSF1bY0hdNA==

> <s_epik_cmdline>
J2VwaWtfYXBwJywgJy1pbWFlJywgJ2xpZ2FuZF9wcm8ubWFlJywgJy1vbWFlJywgJ2xpZ2FuZF9wcmVwLm1hZScsICctbXMnLCAnMScsICctcGgnLCAnNycsICctcGh0JywgJzAuNScsICctbnQn

> <r_epik_Ionization_Penalty>
  0.3378

> <r_epik_Ionization_Penalty_Charging>
  0.0002

> <r_epik_Ionization_Penalty_Neutral>
  0.3375

> <r_epik_State_Penalty>
  0.0002

> <r_epik_Charging_Adjusted_Penalty>
0.000425735143059612

> <i_epik_Tot_Q>
0

> <i_epik_Tot_abs_Q>
4

> <s_epik_Chemistry_Notes>
This compound has an imine and may undergo hydrolysis.

$$$$
