4hv7_ligand
                    3D
 Schrodinger Suite 2020-3.
 33 34  0  0  1  0            999 V2000
   23.8700   -8.8480   -6.3700 C   0  0  0  0  0  0
   24.2250   -8.1530   -5.2580 N   0  0  0  0  0  0
   21.8830   -8.3280   -9.2430 O   0  0  0  0  0  0
   22.6450   -8.8680   -8.4120 C   0  0  0  0  0  0
   23.0550   -8.2390   -7.2910 N   0  3  0  0  0  0
   23.1370  -10.2310   -8.6420 C   0  0  0  0  0  0
   24.3500  -10.0950   -6.5310 N   0  0  0  0  0  0
   25.3720  -14.6180   -8.2330 O   0  0  0  0  0  0
   24.0330  -10.8070   -7.6270 C   0  0  0  0  0  0
   24.4920  -12.0530   -7.8230 N   0  0  0  0  0  0
   24.1430  -12.7410   -8.9250 C   0  0  0  0  0  0
   22.8010  -10.9420   -9.7360 N   0  0  0  0  0  0
   23.3000  -12.1810   -9.8850 C   0  0  0  0  0  0
   24.7240  -14.1080   -9.1210 C   0  0  0  0  0  0
   24.5970  -14.6950  -10.3000 N   0  0  0  0  0  0
   25.2720  -15.9400  -10.6230 C   0  0  0  0  0  0
   26.7740  -15.8320  -10.8240 C   0  0  0  0  0  0
   27.4630  -16.8410  -10.8340 O   0  0  0  0  0  0
   27.3060  -14.6220  -10.9840 N   0  0  0  0  0  0
   28.6910  -14.4470  -11.3920 C   0  0  0  0  0  0
   28.8950  -14.7050  -12.8740 C   0  0  0  0  0  0
   29.3110  -13.8120  -13.6010 O   0  0  0  0  0  0
   28.6280  -15.8990  -13.4130 O   0  5  0  0  0  0
   23.8460   -7.1320   -5.1032 H   0  0  0  0  0  0
   23.0412  -12.7589  -10.7723 H   0  0  0  0  0  0
   23.9539  -14.2080  -11.0478 H   0  0  0  0  0  0
   25.1176  -16.6628   -9.8083 H   0  0  0  0  0  0
   24.8609  -16.3481  -11.5581 H   0  0  0  0  0  0
   26.6715  -13.7425  -10.7999 H   0  0  0  0  0  0
   29.0080  -13.4152  -11.1802 H   0  0  0  0  0  0
   29.3290  -15.1484  -10.8343 H   0  0  0  0  0  0
   24.8914   -8.6112   -4.5124 H   0  0  0  0  0  0
   22.7154   -7.2057   -7.1267 H   0  0  0  0  0  0
  1  2  1  0  0  0
  1  5  1  0  0  0
  1  7  2  0  0  0
  2 24  1  0  0  0
  2 32  1  0  0  0
  3  4  2  0  0  0
  4  5  1  0  0  0
  4  6  1  0  0  0
  5 33  1  0  0  0
  6  9  2  0  0  0
  6 12  1  0  0  0
  7  9  1  0  0  0
  8 14  2  0  0  0
  9 10  1  0  0  0
 10 11  2  0  0  0
 11 13  1  0  0  0
 11 14  1  0  0  0
 12 13  2  0  0  0
 13 25  1  0  0  0
 14 15  1  0  0  0
 15 16  1  0  0  0
 15 26  1  0  0  0
 16 17  1  0  0  0
 16 27  1  0  0  0
 16 28  1  0  0  0
 17 18  2  0  0  0
 17 19  1  0  0  0
 19 20  1  0  0  0
 19 29  1  0  0  0
 20 21  1  0  0  0
 20 30  1  0  0  0
 20 31  1  0  0  0
 21 22  2  0  0  0
 21 23  1  0  0  0
M  CHG  2   5   1  23  -1
M  END
> <s_m_source_file>
../4hv7_ligand.sdf

> <i_m_source_file_index>
1

> <s_epik_input>
Tz1jMVtuSF0vYyg9TlxbSF0pW25IXWMoYzEyKW5jKFtjSF1uMilDKD1PKVtOSF1bQ0gyXUMoPU8pW05IXVtDSDJdQyg9TylbT0hd

> <s_epik_cmdline>
J2VwaWtfYXBwJywgJy1pbWFlJywgJ2xpZ2FuZF9wcm8ubWFlJywgJy1vbWFlJywgJ2xpZ2FuZF9wcmVwLm1hZScsICctbXMnLCAnMScsICctcGgnLCAnNycsICctcGh0JywgJzAuNScsICctbnQn

> <r_lp_tautomer_probability>
1

> <r_epik_Ionization_Penalty>
  0.2788

> <r_epik_Ionization_Penalty_Charging>
  0.2787

> <r_epik_Ionization_Penalty_Neutral>
  0.0000

> <r_epik_State_Penalty>
 -0.0000

> <r_epik_Charging_Adjusted_Penalty>
0.278733349784477

> <i_epik_Tot_Q>
0

> <i_epik_Tot_abs_Q>
2

> <s_epik_Chemistry_Notes>
This compound has an imine and may undergo hydrolysis.

$$$$
