4hvb_ligand
                    3D
 Schrodinger Suite 2020-3.
 59 63  0  0  1  0            999 V2000
   43.7750   13.2670   30.4740 C   0  0  0  0  0  0
   44.1880   12.2790   29.5670 C   0  0  0  0  0  0
   45.4720   12.2730   29.1080 C   0  0  0  0  0  0
   46.3540   13.2720   29.5640 C   0  0  0  0  0  0
   45.8720   14.2400   30.4800 C   0  0  0  0  0  0
   44.6070   14.2000   30.8960 N   0  0  0  0  0  0
   47.6230   13.3110   29.1440 N   0  0  0  0  0  0
   48.4620   14.2310   29.5560 C   0  0  0  0  0  0
   48.0690   15.2230   30.4570 C   0  0  0  0  0  0
   46.7630   15.2380   30.9320 C   0  0  0  0  0  0
   42.3750   13.2670   30.9610 C   0  0  0  0  0  0
   41.3370   12.8390   30.1340 C   0  0  0  0  0  0
   40.0930   12.8370   30.5660 N   0  0  0  0  0  0
   39.7780   13.2360   31.7830 C   0  0  0  0  0  0
   40.7500   13.6770   32.6640 C   0  0  0  0  0  0
   42.0740   13.6920   32.2590 C   0  0  0  0  0  0
   38.3370   13.2130   32.2220 C   0  0  0  0  0  0
   48.7240   16.2970   31.0510 N   0  0  0  0  0  0
   47.8480   16.9340   31.8520 C   0  0  0  0  0  0
   46.6550   16.3110   31.7970 N   0  0  0  0  0  0
   45.4480   16.7060   32.5270 C   0  0  0  0  0  0
   44.3420   17.3360   31.6780 C   0  0  0  0  0  0
   43.4400   18.1920   32.5750 C   0  0  0  0  0  0
   42.9500   17.3600   33.6820 N   0  0  0  0  0  0
   43.9270   16.6350   34.5080 C   0  0  0  0  0  0
   44.8230   15.7980   33.5900 C   0  0  0  0  0  0
   48.0960   17.9190   32.5220 O   0  0  0  0  0  0
   50.1250   16.6700   30.8430 C   0  0  0  0  0  0
   41.6310   17.2650   33.9380 C   0  0  0  0  0  0
   41.2320   16.5100   34.8000 O   0  0  0  0  0  0
   40.6490   18.0950   33.1520 C   0  0  1  0  0  0
   39.3170   17.6930   33.4780 O   0  0  0  0  0  0
   40.8360   19.5730   33.5020 C   0  0  0  0  0  0
   43.4840   11.5181   29.2302 H   0  0  0  0  0  0
   45.8084   11.5120   28.4038 H   0  0  0  0  0  0
   49.4877   14.2211   29.1874 H   0  0  0  0  0  0
   41.5573   12.5030   29.1207 H   0  0  0  0  0  0
   40.4763   14.0088   33.6655 H   0  0  0  0  0  0
   42.8614   14.0264   32.9344 H   0  0  0  0  0  0
   37.7094   12.8370   31.4006 H   0  0  0  0  0  0
   38.0190   14.2314   32.4898 H   0  0  0  0  0  0
   38.2305   12.5538   33.0962 H   0  0  0  0  0  0
   46.0262   17.4486   33.0964 H   0  0  0  0  0  0
   44.7930   17.9681   30.8988 H   0  0  0  0  0  0
   43.7449   16.5420   31.2059 H   0  0  0  0  0  0
   44.0168   19.0402   32.9723 H   0  0  0  0  0  0
   42.5904   18.5696   31.9871 H   0  0  0  0  0  0
   44.5386   17.3560   35.0702 H   0  0  0  0  0  0
   43.3958   15.9774   35.2119 H   0  0  0  0  0  0
   44.2214   15.0189   33.0990 H   0  0  0  0  0  0
   45.6198   15.3262   34.1837 H   0  0  0  0  0  0
   50.5905   15.9671   30.1364 H   0  0  0  0  0  0
   50.6606   16.6334   31.8031 H   0  0  0  0  0  0
   50.1760   17.6896   30.4333 H   0  0  0  0  0  0
   40.7692   17.9136   32.0737 H   0  0  0  0  0  0
   38.9949   16.6572   33.2955 H   0  0  0  0  0  0
   41.8613   19.8823   33.2510 H   0  0  0  0  0  0
   40.6617   19.7198   34.5781 H   0  0  0  0  0  0
   40.1193   20.1791   32.9284 H   0  0  0  0  0  0
  1  2  2  0  0  0
  1  6  1  0  0  0
  1 11  1  0  0  0
  2  3  1  0  0  0
  2 34  1  0  0  0
  3  4  2  0  0  0
  3 35  1  0  0  0
  4  5  1  0  0  0
  4  7  1  0  0  0
  5  6  2  0  0  0
  5 10  1  0  0  0
  7  8  2  0  0  0
  8  9  1  0  0  0
  8 36  1  0  0  0
  9 10  2  0  0  0
  9 18  1  0  0  0
 10 20  1  0  0  0
 11 12  2  0  0  0
 11 16  1  0  0  0
 12 13  1  0  0  0
 12 37  1  0  0  0
 13 14  2  0  0  0
 14 15  1  0  0  0
 14 17  1  0  0  0
 15 16  2  0  0  0
 15 38  1  0  0  0
 16 39  1  0  0  0
 17 40  1  0  0  0
 17 41  1  0  0  0
 17 42  1  0  0  0
 18 19  1  0  0  0
 18 28  1  0  0  0
 19 20  1  0  0  0
 19 27  2  0  0  0
 20 21  1  0  0  0
 21 22  1  0  0  0
 21 26  1  0  0  0
 21 43  1  0  0  0
 22 23  1  0  0  0
 22 44  1  0  0  0
 22 45  1  0  0  0
 23 24  1  0  0  0
 23 46  1  0  0  0
 23 47  1  0  0  0
 24 25  1  0  0  0
 24 29  1  0  0  0
 25 26  1  0  0  0
 25 48  1  0  0  0
 25 49  1  0  0  0
 26 50  1  0  0  0
 26 51  1  0  0  0
 28 52  1  0  0  0
 28 53  1  0  0  0
 28 54  1  0  0  0
 29 30  2  0  0  0
 29 31  1  0  0  0
 31 32  1  0  0  0
 31 33  1  0  0  0
 31 55  1  0  0  0
 32 56  1  0  0  0
 33 57  1  0  0  0
 33 58  1  0  0  0
 33 59  1  0  0  0
M  END
> <s_m_source_file>
../4hvb_ligand.sdf

> <i_m_source_file_index>
1

> <s_epik_input>
W2NIXTFbY0hdYyhbQ0gzXSluW2NIXWMxLWMoW2NIXVtjSF0yKW5jKGMyMyljNGMoW2NIXW4zKW4oW0NIM10pYyg9TyluNFtDSF01W0NIMl1bQ0gyXU4oW0NIMl1bQ0gyXTUpQyg9TylbQ0BASF0oW09IXSlbQ0gzXQ==

> <s_epik_cmdline>
J2VwaWtfYXBwJywgJy1pbWFlJywgJ2xpZ2FuZF9wcm8ubWFlJywgJy1vbWFlJywgJ2xpZ2FuZF9wcmVwLm1hZScsICctbXMnLCAnMScsICctcGgnLCAnNycsICctcGh0JywgJzAuNScsICctbnQn

> <r_lp_tautomer_probability>
1

> <r_epik_Ionization_Penalty>
  0.0009

> <r_epik_Ionization_Penalty_Charging>
  0.0000

> <r_epik_Ionization_Penalty_Neutral>
  0.0009

> <r_epik_State_Penalty>
 -0.0000

> <r_epik_Charging_Adjusted_Penalty>
2.53452660384937e-10

> <i_epik_Tot_Q>
0

> <i_epik_Tot_abs_Q>
0

$$$$
