4hvd_ligand
                    3D
 Schrodinger Suite 2020-3.
 42 44  0  0  1  0            999 V2000
   -2.5420  -14.1910   -2.9650 N   0  0  0  0  0  0
   -2.5830  -15.5120   -3.0440 C   0  0  0  0  0  0
   -1.4890  -16.2390   -3.5060 C   0  0  0  0  0  0
   -0.3810  -15.6060   -3.8580 N   0  0  0  0  0  0
   -1.4340  -13.5390   -3.3250 C   0  0  0  0  0  0
   -0.3210  -14.2810   -3.7840 C   0  0  0  0  0  0
    0.7280  -13.3020   -4.0960 C   0  0  3  0  0  0
    0.1950  -12.0720   -3.8260 C   0  0  0  0  0  0
   -1.0800  -12.2110   -3.3600 N   0  0  0  0  0  0
   -1.5740  -17.7450   -3.5760 C   0  0  0  0  0  0
   -0.9150  -18.4610   -4.7600 C   0  0  0  0  0  0
   -0.2820  -18.5370   -3.3650 C   0  0  0  0  0  0
    2.0510  -13.6480   -4.6290 C   0  0  0  0  0  0
    2.2790  -14.9630   -4.8710 N   0  0  0  0  0  0
    2.8890  -12.7890   -4.8560 O   0  0  0  0  0  0
    3.5110  -15.5210   -5.4450 C   0  0  2  0  0  0
    3.2050  -15.9840   -6.8900 C   0  0  0  0  0  0
    2.7250  -14.7860   -7.7210 C   0  0  0  0  0  0
    4.4610  -16.5270   -7.5750 C   0  0  0  0  0  0
    2.1180  -17.0660   -6.9360 C   0  0  0  0  0  0
    4.0060  -16.6720   -4.5550 C   0  0  0  0  0  0
   -3.4881  -16.0391   -2.7424 H   0  0  0  0  0  0
    0.6358  -11.0697   -3.9314 H   0  0  0  0  0  0
   -2.5795  -17.7440   -3.1300 H   0  0  0  0  0  0
   -1.6153  -19.1992   -5.1779 H   0  0  0  0  0  0
   -0.6532  -17.7247   -5.5342 H   0  0  0  0  0  0
    0.5032  -17.8644   -2.9894 H   0  0  0  0  0  0
   -0.4589  -19.3389   -2.6331 H   0  0  0  0  0  0
    1.4471  -15.6299   -4.6004 H   0  0  0  0  0  0
    4.2839  -14.7384   -5.4591 H   0  0  0  0  0  0
    3.4905  -13.9963   -7.7020 H   0  0  0  0  0  0
    1.7872  -14.3978   -7.2970 H   0  0  0  0  0  0
    2.5533  -15.1054   -8.7595 H   0  0  0  0  0  0
    5.2515  -15.7624   -7.5507 H   0  0  0  0  0  0
    4.2282  -16.7807   -8.6197 H   0  0  0  0  0  0
    4.8061  -17.4281   -7.0469 H   0  0  0  0  0  0
    1.2067  -16.6913   -6.4469 H   0  0  0  0  0  0
    2.4730  -17.9649   -6.4106 H   0  0  0  0  0  0
    1.8951  -17.3175   -7.9834 H   0  0  0  0  0  0
    4.2084  -16.2918   -3.5428 H   0  0  0  0  0  0
    4.9291  -17.0932   -4.9799 H   0  0  0  0  0  0
    3.2348  -17.4548   -4.5053 H   0  0  0  0  0  0
  1  2  2  0  0  0
  1  5  1  0  0  0
  2  3  1  0  0  0
  2 22  1  0  0  0
  3  4  2  0  0  0
  3 10  1  0  0  0
  4  6  1  0  0  0
  5  6  2  0  0  0
  5  9  1  0  0  0
  6  7  1  0  0  0
  7  8  1  0  0  0
  7 13  1  0  0  0
  8  9  2  0  0  0
  8 23  1  0  0  0
 10 11  1  0  0  0
 10 12  1  0  0  0
 10 24  1  0  0  0
 11 12  1  0  0  0
 11 25  1  0  0  0
 11 26  1  0  0  0
 12 27  1  0  0  0
 12 28  1  0  0  0
 13 14  1  0  0  0
 13 15  2  0  0  0
 14 16  1  0  0  0
 14 29  1  0  0  0
 16 17  1  0  0  0
 16 21  1  0  0  0
 16 30  1  0  0  0
 17 18  1  0  0  0
 17 19  1  0  0  0
 17 20  1  0  0  0
 18 31  1  0  0  0
 18 32  1  0  0  0
 18 33  1  0  0  0
 19 34  1  0  0  0
 19 35  1  0  0  0
 19 36  1  0  0  0
 20 37  1  0  0  0
 20 38  1  0  0  0
 20 39  1  0  0  0
 21 40  1  0  0  0
 21 41  1  0  0  0
 21 42  1  0  0  0
M  END
> <s_m_source_file>
../4hvd_ligand.sdf

> <i_m_source_file_index>
1

> <s_epik_input>
W0NIMl0xW0NIMl1bQ0hdMWMoW2NIXW4yKW5jKGMyMylbQ0hdKFtDSF09TjMpQyg9TylbTkhdW0NAQEhdKFtDSDNdKUMoW0NIM10pKFtDSDNdKVtDSDNd

> <s_epik_cmdline>
J2VwaWtfYXBwJywgJy1pbWFlJywgJ2xpZ2FuZF9wcm8ubWFlJywgJy1vbWFlJywgJ2xpZ2FuZF9wcmVwLm1hZScsICctbXMnLCAnMScsICctcGgnLCAnNycsICctcGh0JywgJzAuNScsICctbnQn

> <r_lp_tautomer_probability>
1

> <r_epik_Ionization_Penalty>
  0.0048

> <r_epik_Ionization_Penalty_Charging>
  0.0000

> <r_epik_Ionization_Penalty_Neutral>
  0.0048

> <r_epik_State_Penalty>
 -0.0000

> <r_epik_Charging_Adjusted_Penalty>
0

> <i_epik_Tot_Q>
0

> <i_epik_Tot_abs_Q>
0

> <s_epik_Chemistry_Notes>
This compound has an imine and may undergo hydrolysis.

$$$$
