4hvg_ligand
                    3D
 Schrodinger Suite 2020-3.
 41 43  0  0  1  0            999 V2000
    0.6510  -13.5190   -4.1670 C   0  0  0  0  0  0
    0.1020  -12.2920   -3.9310 C   0  0  0  0  0  0
   -1.2010  -12.4440   -3.5100 N   0  3  0  0  0  0
   -0.3870  -14.5150   -3.8740 C   0  0  0  0  0  0
   -1.5380  -13.7980   -3.4570 C   0  0  0  0  0  0
   -2.6510  -14.4810   -3.1060 N   0  0  0  0  0  0
   -2.6680  -15.8080   -3.1590 C   0  0  0  0  0  0
   -1.5380  -16.4990   -3.5800 C   0  0  0  0  0  0
   -0.4200  -15.8340   -3.9220 N   0  0  0  0  0  0
    2.0020  -13.8590   -4.6440 C   0  0  0  0  0  0
    2.1850  -15.1770   -4.8970 N   0  0  0  0  0  0
    2.8870  -13.0180   -4.8080 O   0  0  0  0  0  0
    3.4240  -15.7350   -5.4330 C   0  0  1  0  0  0
    3.8760  -16.9330   -4.5730 C   0  0  0  0  0  0
    3.1120  -16.1720   -6.9000 C   0  0  0  0  0  0
    1.8600  -17.0690   -7.0110 C   0  0  0  0  0  0
    2.7840  -14.9570   -7.7540 C   0  0  0  0  0  0
    4.2720  -16.8680   -7.4240 O   0  0  0  0  0  0
   -1.5720  -18.0120   -3.6410 C   0  0  0  0  0  0
   -1.0430  -18.7110   -4.8960 C   0  0  0  0  0  0
   -0.2070  -18.7400   -3.6080 C   0  0  0  0  0  0
    0.7008  -11.3824   -4.0863 H   0  0  0  0  0  0
   -3.5668  -16.3543   -2.8728 H   0  0  0  0  0  0
    1.3343  -15.8384   -4.6759 H   0  0  0  0  0  0
    4.2088  -14.9659   -5.3823 H   0  0  0  0  0  0
    4.0868  -16.5905   -3.5491 H   0  0  0  0  0  0
    4.7858  -17.3733   -5.0070 H   0  0  0  0  0  0
    3.0777  -17.6894   -4.5496 H   0  0  0  0  0  0
    0.9874  -16.5317   -6.6112 H   0  0  0  0  0  0
    2.0181  -17.9922   -6.4342 H   0  0  0  0  0  0
    1.6827  -17.3221   -8.0667 H   0  0  0  0  0  0
    1.9030  -14.4448   -7.3399 H   0  0  0  0  0  0
    2.5703  -15.2795   -8.7837 H   0  0  0  0  0  0
    3.6415  -14.2680   -7.7560 H   0  0  0  0  0  0
    4.6441  -17.7728   -6.9212 H   0  0  0  0  0  0
   -2.5136  -18.0540   -3.0740 H   0  0  0  0  0  0
   -1.7519  -19.4926   -5.2067 H   0  0  0  0  0  0
   -0.9305  -17.9751   -5.7058 H   0  0  0  0  0  0
    0.5856  -18.0216   -3.3517 H   0  0  0  0  0  0
   -0.2358  -19.5391   -2.8527 H   0  0  0  0  0  0
   -1.8092  -11.5586   -3.2728 H   0  0  0  0  0  0
  1  2  2  0  0  0
  1  4  1  0  0  0
  1 10  1  0  0  0
  2  3  1  0  0  0
  2 22  1  0  0  0
  3  5  1  0  0  0
  3 41  1  0  0  0
  4  5  2  0  0  0
  4  9  1  0  0  0
  5  6  1  0  0  0
  6  7  2  0  0  0
  7  8  1  0  0  0
  7 23  1  0  0  0
  8  9  2  0  0  0
  8 19  1  0  0  0
 10 11  1  0  0  0
 10 12  2  0  0  0
 11 13  1  0  0  0
 11 24  1  0  0  0
 13 14  1  0  0  0
 13 15  1  0  0  0
 13 25  1  0  0  0
 14 26  1  0  0  0
 14 27  1  0  0  0
 14 28  1  0  0  0
 15 16  1  0  0  0
 15 17  1  0  0  0
 15 18  1  0  0  0
 16 29  1  0  0  0
 16 30  1  0  0  0
 16 31  1  0  0  0
 17 32  1  0  0  0
 17 33  1  0  0  0
 17 34  1  0  0  0
 18 35  1  0  0  0
 19 20  1  0  0  0
 19 21  1  0  0  0
 19 36  1  0  0  0
 20 21  1  0  0  0
 20 37  1  0  0  0
 20 38  1  0  0  0
 21 39  1  0  0  0
 21 40  1  0  0  0
M  CHG  1   3   1
M  END
> <s_m_source_file>
../4hvg_ligand.sdf

> <i_m_source_file_index>
1

> <s_epik_input>
W0NIM11DKFtDSDNdKShbT0hdKVtDQEhdKFtDSDNdKVtOSF1DKD1PKWMxW2NIXVtuSF1jKGMxMiluW2NIXWMobjIpW0NIXTNbQ0gyXVtDSDJdMw==

> <s_epik_cmdline>
J2VwaWtfYXBwJywgJy1pbWFlJywgJ2xpZ2FuZF9wcm8ubWFlJywgJy1vbWFlJywgJ2xpZ2FuZF9wcmVwLm1hZScsICctbXMnLCAnMScsICctcGgnLCAnNycsICctcGh0JywgJzAuNScsICctbnQn

> <r_lp_tautomer_probability>
1

> <r_epik_Ionization_Penalty>
  0.0000

> <r_epik_Ionization_Penalty_Charging>
  0.0000

> <r_epik_Ionization_Penalty_Neutral>
  0.0000

> <r_epik_State_Penalty>
 -0.0000

> <r_epik_Charging_Adjusted_Penalty>
0

> <i_epik_Tot_Q>
1

> <i_epik_Tot_abs_Q>
1

$$$$
