4hvh_ligand
                    3D
 Schrodinger Suite 2020-3.
 40 42  0  0  1  0            999 V2000
   -2.6400  -15.4800   -3.0690 C   0  0  0  0  0  0
   -1.6140  -16.2060   -3.6600 C   0  0  0  0  0  0
   -0.5440  -15.5790   -4.1140 N   0  0  0  0  0  0
   -2.5860  -14.1620   -2.9550 N   0  0  0  0  0  0
   -1.5190  -13.5090   -3.4130 C   0  0  0  0  0  0
   -0.4650  -14.2450   -4.0070 C   0  0  0  0  0  0
    0.5350  -13.2440   -4.3840 C   0  0  3  0  0  0
    0.0410  -12.0250   -4.0130 C   0  0  0  0  0  0
   -1.1700  -12.1780   -3.4340 N   0  0  0  0  0  0
    1.8090  -13.4930   -5.0660 C   0  0  0  0  0  0
    2.6070  -12.5790   -5.2010 O   0  0  0  0  0  0
   -1.7520  -17.7060   -3.7520 C   0  0  0  0  0  0
    2.0350  -14.7320   -5.5540 N   0  0  0  0  0  0
   -1.0660  -18.4290   -4.9170 C   0  0  0  0  0  0
   -0.5140  -18.5650   -3.4910 C   0  0  0  0  0  0
    3.2530  -15.1170   -6.2850 C   0  0  1  0  0  0
    3.6120  -16.5860   -5.9860 C   0  0  0  0  0  0
    4.6920  -17.0810   -6.9600 C   0  0  0  0  0  0
    4.1230  -16.7180   -4.5460 C   0  0  0  0  0  0
    2.4530  -17.4070   -6.1070 O   0  0  0  0  0  0
    2.9780  -14.9270   -7.7850 C   0  0  0  0  0  0
   -3.5134  -16.0097   -2.6887 H   0  0  0  0  0  0
    0.4760  -11.0205   -4.1211 H   0  0  0  0  0  0
   -2.7748  -17.6653   -3.3492 H   0  0  0  0  0  0
    1.2419  -15.4736   -5.3775 H   0  0  0  0  0  0
   -1.7780  -19.1223   -5.3885 H   0  0  0  0  0  0
   -0.7276  -17.6905   -5.6586 H   0  0  0  0  0  0
    0.2813  -17.9401   -3.0585 H   0  0  0  0  0  0
   -0.7691  -19.3720   -2.7884 H   0  0  0  0  0  0
    4.0744  -14.4694   -5.9446 H   0  0  0  0  0  0
    5.5870  -16.4482   -6.8675 H   0  0  0  0  0  0
    4.3095  -17.0269   -7.9899 H   0  0  0  0  0  0
    4.9528  -18.1223   -6.7199 H   0  0  0  0  0  0
    5.0203  -16.0950   -4.4168 H   0  0  0  0  0  0
    4.3738  -17.7692   -4.3409 H   0  0  0  0  0  0
    3.3414  -16.3845   -3.8476 H   0  0  0  0  0  0
    1.9175  -17.4646   -7.0661 H   0  0  0  0  0  0
    2.7237  -13.8748   -7.9808 H   0  0  0  0  0  0
    2.1383  -15.5697   -8.0881 H   0  0  0  0  0  0
    3.8751  -15.2005   -8.3598 H   0  0  0  0  0  0
  1  2  2  0  0  0
  1  4  1  0  0  0
  1 22  1  0  0  0
  2  3  1  0  0  0
  2 12  1  0  0  0
  3  6  2  0  0  0
  4  5  2  0  0  0
  5  6  1  0  0  0
  5  9  1  0  0  0
  6  7  1  0  0  0
  7  8  1  0  0  0
  7 10  1  0  0  0
  8  9  2  0  0  0
  8 23  1  0  0  0
 10 11  2  0  0  0
 10 13  1  0  0  0
 12 14  1  0  0  0
 12 15  1  0  0  0
 12 24  1  0  0  0
 13 16  1  0  0  0
 13 25  1  0  0  0
 14 15  1  0  0  0
 14 26  1  0  0  0
 14 27  1  0  0  0
 15 28  1  0  0  0
 15 29  1  0  0  0
 16 17  1  0  0  0
 16 21  1  0  0  0
 16 30  1  0  0  0
 17 18  1  0  0  0
 17 19  1  0  0  0
 17 20  1  0  0  0
 18 31  1  0  0  0
 18 32  1  0  0  0
 18 33  1  0  0  0
 19 34  1  0  0  0
 19 35  1  0  0  0
 19 36  1  0  0  0
 20 37  1  0  0  0
 21 38  1  0  0  0
 21 39  1  0  0  0
 21 40  1  0  0  0
M  END
> <s_m_source_file>
../4hvh_ligand.sdf

> <i_m_source_file_index>
1

> <s_epik_input>
W0NIMl0xW0NIMl1bQ0hdMWMoW2NIXW4yKW5jKGMyMylbQ0hdKFtDSF09TjMpQyg9TylbTkhdW0NASF0oW0NIM10pQyhbQ0gzXSkoW0NIM10pW09IXQ==

> <s_epik_cmdline>
J2VwaWtfYXBwJywgJy1pbWFlJywgJ2xpZ2FuZF9wcm8ubWFlJywgJy1vbWFlJywgJ2xpZ2FuZF9wcmVwLm1hZScsICctbXMnLCAnMScsICctcGgnLCAnNycsICctcGh0JywgJzAuNScsICctbnQn

> <r_lp_tautomer_probability>
1

> <r_epik_Ionization_Penalty>
  0.0044

> <r_epik_Ionization_Penalty_Charging>
  0.0000

> <r_epik_Ionization_Penalty_Neutral>
  0.0044

> <r_epik_State_Penalty>
 -0.0000

> <r_epik_Charging_Adjusted_Penalty>
0

> <i_epik_Tot_Q>
0

> <i_epik_Tot_abs_Q>
0

> <s_epik_Chemistry_Notes>
This compound has an imine and may undergo hydrolysis.

$$$$
