4hvi_ligand
                    3D
 Schrodinger Suite 2020-3.
 48 51  0  0  1  0            999 V2000
    5.3540  -16.0890   -5.5840 N   0  0  0  0  0  0
    6.1610  -15.2020   -6.4320 C   0  0  0  0  0  0
    7.1600  -14.5010   -5.5090 C   0  0  0  0  0  0
    8.0360  -15.5530   -4.8150 C   0  0  0  0  0  0
    7.2170  -16.6180   -4.0670 C   0  0  0  0  0  0
    6.0760  -17.1920   -4.9350 C   0  0  0  0  0  0
   -2.5350  -14.2800   -3.0510 N   0  0  0  0  0  0
   -1.2720  -16.1750   -3.7370 C   0  0  0  0  0  0
   -2.4230  -15.6060   -3.1920 C   0  0  0  0  0  0
   -0.2630  -15.3960   -4.1300 N   0  0  0  0  0  0
   -0.3650  -14.0710   -4.0040 C   0  0  0  0  0  0
   -1.5310  -13.4810   -3.4500 C   0  0  0  0  0  0
   -1.3390  -12.1110   -3.4490 N   0  3  0  0  0  0
   -0.1230  -11.8150   -3.9890 C   0  0  0  0  0  0
    0.5350  -12.9630   -4.3340 C   0  0  0  0  0  0
    1.8490  -13.1240   -4.9750 C   0  0  0  0  0  0
    2.1250  -14.3530   -5.4270 N   0  0  0  0  0  0
    2.6350  -12.2040   -5.1260 O   0  0  0  0  0  0
    3.3400  -14.7410   -6.1370 C   0  0  1  0  0  0
   -1.1870  -17.6730   -3.8990 C   0  0  0  0  0  0
   -0.4850  -18.1880   -5.1630 C   0  0  0  0  0  0
    0.1630  -18.3930   -3.7840 C   0  0  0  0  0  0
    4.0160  -15.8860   -5.4180 C   0  0  0  0  0  0
    2.8670  -15.2650   -7.5040 C   0  0  0  0  0  0
    3.3230  -16.6190   -4.7190 O   0  0  0  0  0  0
    6.6840  -15.7989   -7.1937 H   0  0  0  0  0  0
    5.5049  -14.4705   -6.9263 H   0  0  0  0  0  0
    7.7954  -13.8262   -6.1014 H   0  0  0  0  0  0
    6.6139  -13.9196   -4.7516 H   0  0  0  0  0  0
    8.6511  -16.0709   -5.5656 H   0  0  0  0  0  0
    8.6907  -15.0592   -4.0819 H   0  0  0  0  0  0
    7.8758  -17.4492   -3.7754 H   0  0  0  0  0  0
    6.7699  -16.1713   -3.1667 H   0  0  0  0  0  0
    5.3816  -17.7610   -4.2993 H   0  0  0  0  0  0
    6.4978  -17.8565   -5.7034 H   0  0  0  0  0  0
   -3.2432  -16.2508   -2.8764 H   0  0  0  0  0  0
    0.3489  -10.8369   -4.1637 H   0  0  0  0  0  0
    1.3438  -15.1005   -5.2245 H   0  0  0  0  0  0
    4.0214  -13.8785   -6.1787 H   0  0  0  0  0  0
   -2.1632  -17.8035   -3.4092 H   0  0  0  0  0  0
   -1.1336  -18.9164   -5.6716 H   0  0  0  0  0  0
   -0.2809  -17.3443   -5.8387 H   0  0  0  0  0  0
    0.9006  -17.7181   -3.3252 H   0  0  0  0  0  0
    0.0479  -19.2903   -3.1582 H   0  0  0  0  0  0
    2.3688  -14.4538   -8.0552 H   0  0  0  0  0  0
    2.1603  -16.0945   -7.3541 H   0  0  0  0  0  0
    3.7338  -15.6213   -8.0800 H   0  0  0  0  0  0
   -2.1183  -11.4467   -3.0473 H   0  0  0  0  0  0
  1  2  1  0  0  0
  1  6  1  0  0  0
  1 23  1  0  0  0
  2  3  1  0  0  0
  2 26  1  0  0  0
  2 27  1  0  0  0
  3  4  1  0  0  0
  3 28  1  0  0  0
  3 29  1  0  0  0
  4  5  1  0  0  0
  4 30  1  0  0  0
  4 31  1  0  0  0
  5  6  1  0  0  0
  5 32  1  0  0  0
  5 33  1  0  0  0
  6 34  1  0  0  0
  6 35  1  0  0  0
  7  9  2  0  0  0
  7 12  1  0  0  0
  8  9  1  0  0  0
  8 10  2  0  0  0
  8 20  1  0  0  0
  9 36  1  0  0  0
 10 11  1  0  0  0
 11 12  2  0  0  0
 11 15  1  0  0  0
 12 13  1  0  0  0
 13 14  1  0  0  0
 13 48  1  0  0  0
 14 15  2  0  0  0
 14 37  1  0  0  0
 15 16  1  0  0  0
 16 17  1  0  0  0
 16 18  2  0  0  0
 17 19  1  0  0  0
 17 38  1  0  0  0
 19 23  1  0  0  0
 19 24  1  0  0  0
 19 39  1  0  0  0
 20 21  1  0  0  0
 20 22  1  0  0  0
 20 40  1  0  0  0
 21 22  1  0  0  0
 21 41  1  0  0  0
 21 42  1  0  0  0
 22 43  1  0  0  0
 22 44  1  0  0  0
 23 25  2  0  0  0
 24 45  1  0  0  0
 24 46  1  0  0  0
 24 47  1  0  0  0
M  CHG  1  13   1
M  END
> <s_m_source_file>
../4hvi_ligand.sdf

> <i_m_source_file_index>
1

> <s_epik_input>
W0NIMl0xW0NIMl1bQ0gyXVtDSDJdW0NIMl1OMUMoPU8pW0NAQEhdKFtDSDNdKVtOSF1DKD1PKWMyW2NIXVtuSF1jKGMyMyluW2NIXWMobjMpW0NIXTRbQ0gyXVtDSDJdNA==

> <s_epik_cmdline>
J2VwaWtfYXBwJywgJy1pbWFlJywgJ2xpZ2FuZF9wcm8ubWFlJywgJy1vbWFlJywgJ2xpZ2FuZF9wcmVwLm1hZScsICctbXMnLCAnMScsICctcGgnLCAnNycsICctcGh0JywgJzAuNScsICctbnQn

> <r_lp_tautomer_probability>
1

> <r_epik_Ionization_Penalty>
  0.0001

> <r_epik_Ionization_Penalty_Charging>
  0.0000

> <r_epik_Ionization_Penalty_Neutral>
  0.0001

> <r_epik_State_Penalty>
 -0.0000

> <r_epik_Charging_Adjusted_Penalty>
0

> <i_epik_Tot_Q>
1

> <i_epik_Tot_abs_Q>
1

$$$$
