4hvs_ligand
                    3D
 Schrodinger Suite 2020-3.
 44 47  0  0  1  0            999 V2000
   12.7410    3.1490   11.2340 C   0  0  0  0  0  0
   12.8000    2.7810   12.5790 C   0  0  0  0  0  0
   13.0910    1.5240   13.0330 N   0  0  0  0  0  0
   13.0220    2.1740   10.2490 C   0  0  0  0  0  0
   13.6750   -0.6850   12.2510 N   0  0  0  0  0  0
   13.8670   -1.3110   11.0340 C   0  0  0  0  0  0
   13.6900   -0.3840   10.0070 C   0  0  3  0  0  0
   13.3450    0.8640   10.6710 C   0  0  0  0  0  0
   13.3460    0.6300   12.0500 C   0  0  0  0  0  0
   13.8010   -0.6090    8.5210 C   0  0  0  0  0  0
   14.3340   -1.9850    8.2080 C   0  0  0  0  0  0
   15.5900   -2.1770    7.6450 C   0  0  0  0  0  0
   16.1040   -3.4060    7.3560 N   0  0  0  0  0  0
   15.3370   -4.5150    7.6310 C   0  0  0  0  0  0
   14.0890   -4.4070    8.2120 C   0  0  0  0  0  0
   13.5940   -3.1460    8.4870 C   0  0  0  0  0  0
   15.9210   -5.7340    7.3510 N   0  0  0  0  0  0
   17.1980   -5.7130    6.6830 C   0  0  0  0  0  0
   18.4720   -5.9240    7.4130 C   0  0  0  0  0  0
   18.5510   -6.1680    8.7910 C   0  0  0  0  0  0
   19.8140   -6.3330    9.3750 C   0  0  0  0  0  0
   20.9600   -6.2550    8.5740 C   0  0  0  0  0  0
   20.8790   -5.9930    7.1950 C   0  0  0  0  0  0
   19.6190   -5.8380    6.6290 C   0  0  0  0  0  0
   22.3020   -6.4640    9.1730 C   0  0  0  0  0  0
   22.8090   -5.4800    9.9490 F   0  0  0  0  0  0
   22.2640   -7.5730    9.9280 F   0  0  0  0  0  0
   23.2520   -6.6870    8.2580 F   0  0  0  0  0  0
   12.4832    4.1688   10.9482 H   0  0  0  0  0  0
   12.5993    3.5523   13.3226 H   0  0  0  0  0  0
   12.9903    2.4266    9.1892 H   0  0  0  0  0  0
   14.1177   -2.3815   10.9996 H   0  0  0  0  0  0
   12.8076   -0.5074    8.0596 H   0  0  0  0  0  0
   14.4846    0.1358    8.0874 H   0  0  0  0  0  0
   16.1960   -1.2986    7.4228 H   0  0  0  0  0  0
   13.5065   -5.2973    8.4488 H   0  0  0  0  0  0
   12.6036   -3.0500    8.9320 H   0  0  0  0  0  0
   15.4541   -6.6944    7.6150 H   0  0  0  0  0  0
   17.2228   -6.4998    5.9146 H   0  0  0  0  0  0
   17.3474   -4.7320    6.2082 H   0  0  0  0  0  0
   17.6469   -6.2283    9.3969 H   0  0  0  0  0  0
   19.9038   -6.5207   10.4450 H   0  0  0  0  0  0
   21.7798   -5.9136    6.5864 H   0  0  0  0  0  0
   19.5281   -5.6470    5.5597 H   0  0  0  0  0  0
  1  2  2  0  0  0
  1  4  1  0  0  0
  1 29  1  0  0  0
  2  3  1  0  0  0
  2 30  1  0  0  0
  3  9  2  0  0  0
  4  8  2  0  0  0
  4 31  1  0  0  0
  5  6  2  0  0  0
  5  9  1  0  0  0
  6  7  1  0  0  0
  6 32  1  0  0  0
  7  8  1  0  0  0
  7 10  1  0  0  0
  8  9  1  0  0  0
 10 11  1  0  0  0
 10 33  1  0  0  0
 10 34  1  0  0  0
 11 12  2  0  0  0
 11 16  1  0  0  0
 12 13  1  0  0  0
 12 35  1  0  0  0
 13 14  2  0  0  0
 14 15  1  0  0  0
 14 17  1  0  0  0
 15 16  2  0  0  0
 15 36  1  0  0  0
 16 37  1  0  0  0
 17 18  1  0  0  0
 17 38  1  0  0  0
 18 19  1  0  0  0
 18 39  1  0  0  0
 18 40  1  0  0  0
 19 20  2  0  0  0
 19 24  1  0  0  0
 20 21  1  0  0  0
 20 41  1  0  0  0
 21 22  2  0  0  0
 21 42  1  0  0  0
 22 23  1  0  0  0
 22 25  1  0  0  0
 23 24  2  0  0  0
 23 43  1  0  0  0
 24 44  1  0  0  0
 25 26  1  0  0  0
 25 27  1  0  0  0
 25 28  1  0  0  0
M  END
> <s_m_source_file>
../4hvs_ligand.sdf

> <i_m_source_file_index>
1

> <s_epik_input>
W2NIXTFbY0hdW2NIXW5jKGMxMilOPVtDSF1bQ0hdMltDSDJdYzNbY0hdbmMoW2NIXVtjSF0zKVtOSF1bQ0gyXWM0W2NIXVtjSF1jKEMoRikoRilGKVtjSF1bY0hdNA==

> <s_epik_cmdline>
J2VwaWtfYXBwJywgJy1pbWFlJywgJ2xpZ2FuZF9wcm8ubWFlJywgJy1vbWFlJywgJ2xpZ2FuZF9wcmVwLm1hZScsICctbXMnLCAnMScsICctcGgnLCAnNycsICctcGh0JywgJzAuNScsICctbnQn

> <r_epik_Ionization_Penalty>
  0.3559

> <r_epik_Ionization_Penalty_Charging>
  0.0000

> <r_epik_Ionization_Penalty_Neutral>
  0.3559

> <r_epik_State_Penalty>
  0.3312

> <r_epik_Charging_Adjusted_Penalty>
0.331198016564947

> <i_epik_Tot_Q>
0

> <i_epik_Tot_abs_Q>
0

> <s_epik_Chemistry_Notes>
This compound has an imine and may undergo hydrolysis.

$$$$
