4hw2_ligand
                    3D
 Schrodinger Suite 2020-3.
 43 45  0  0  1  0            999 V2000
    3.7600  -49.5330    7.5860 O   0  5  0  0  0  0
    2.9430  -48.9400    6.7730 C   0  0  0  0  0  0
    3.5330  -47.9320    6.2220 O   0  0  0  0  0  0
    1.7290  -49.2630    6.5600 C   0  0  0  0  0  0
    1.2340  -50.5470    6.7450 N   0  0  0  0  0  0
   -0.1110  -50.6150    6.4660 C   0  0  0  0  0  0
   -0.9270  -51.6300    6.5230 C   0  0  0  0  0  0
   -2.2910  -51.4890    6.2030 C   0  0  0  0  0  0
   -3.3730  -52.8300    6.2960 Cl  0  0  0  0  0  0
   -2.7220  -50.2300    5.8260 C   0  0  0  0  0  0
   -1.7440  -49.1970    5.7920 C   0  0  0  0  0  0
   -0.4770  -49.3850    6.1030 C   0  0  0  0  0  0
    0.6300  -48.6620    6.1910 C   0  0  0  0  0  0
    0.6710  -47.1110    5.7890 C   0  0  0  0  0  0
    0.5970  -46.0940    6.9260 C   0  0  0  0  0  0
   -0.8190  -45.8160    7.4150 C   0  0  0  0  0  0
   -1.7580  -45.6270    6.3100 O   0  0  0  0  0  0
   -2.9990  -45.3600    6.6860 C   0  0  0  0  0  0
   -3.5450  -45.8500    7.8670 C   0  0  0  0  0  0
   -4.9010  -45.5940    8.2350 C   0  0  0  0  0  0
   -5.3490  -46.0550    9.3820 C   0  0  0  0  0  0
   -5.6660  -44.8270    7.3110 C   0  0  0  0  0  0
   -7.2880  -44.4330    7.6530 Cl  0  0  0  0  0  0
   -5.1630  -44.3310    6.0660 C   0  0  0  0  0  0
   -5.8960  -43.6320    5.2320 C   0  0  0  0  0  0
   -3.8090  -44.6640    5.7800 C   0  0  0  0  0  0
   -0.5537  -52.6195    6.8255 H   0  0  0  0  0  0
   -3.7788  -50.0643    5.5696 H   0  0  0  0  0  0
   -2.0593  -48.1974    5.4930 H   0  0  0  0  0  0
    1.6112  -46.8938    5.2610 H   0  0  0  0  0  0
   -0.1804  -46.8799    5.1319 H   0  0  0  0  0  0
    1.1718  -46.4647    7.7875 H   0  0  0  0  0  0
    1.0188  -45.1357    6.5888 H   0  0  0  0  0  0
   -1.1708  -46.6640    8.0209 H   0  0  0  0  0  0
   -0.8228  -44.9018    8.0267 H   0  0  0  0  0  0
   -2.9200  -46.4468    8.5313 H   0  0  0  0  0  0
   -4.5483  -46.6111    9.8915 H   0  0  0  0  0  0
   -6.2021  -46.7250    9.1998 H   0  0  0  0  0  0
   -5.6714  -45.2145   10.0142 H   0  0  0  0  0  0
   -6.9023  -43.4947    5.6546 H   0  0  0  0  0  0
   -5.9707  -44.1660    4.2732 H   0  0  0  0  0  0
   -5.4296  -42.6492    5.0689 H   0  0  0  0  0  0
   -3.3869  -44.3662    4.8202 H   0  0  0  0  0  0
  1  2  1  0  0  0
  2  3  2  0  0  0
  2  4  1  0  0  0
  4  5  2  0  0  0
  4 13  1  0  0  0
  5  6  1  0  0  0
  6  7  2  0  0  0
  6 12  1  0  0  0
  7  8  1  0  0  0
  7 27  1  0  0  0
  8  9  1  0  0  0
  8 10  2  0  0  0
 10 11  1  0  0  0
 10 28  1  0  0  0
 11 12  1  0  0  0
 11 29  1  0  0  0
 12 13  2  0  0  0
 13 14  1  0  0  0
 14 15  1  0  0  0
 14 30  1  0  0  0
 14 31  1  0  0  0
 15 16  1  0  0  0
 15 32  1  0  0  0
 15 33  1  0  0  0
 16 17  1  0  0  0
 16 34  1  0  0  0
 16 35  1  0  0  0
 17 18  1  0  0  0
 18 19  2  0  0  0
 18 26  1  0  0  0
 19 20  1  0  0  0
 19 36  1  0  0  0
 20 21  1  0  0  0
 20 22  2  0  0  0
 21 37  1  0  0  0
 21 38  1  0  0  0
 21 39  1  0  0  0
 22 23  1  0  0  0
 22 24  1  0  0  0
 24 25  1  0  0  0
 24 26  2  0  0  0
 25 40  1  0  0  0
 25 41  1  0  0  0
 25 42  1  0  0  0
 26 43  1  0  0  0
M  CHG  1   1  -1
M  END
> <s_m_source_file>
../4hw2_ligand.sdf

> <i_m_source_file_index>
1

> <s_epik_input>
W0NIXTFDKENsKT1bQ0hdW0NIMl1DKEM9MTIpPUMoQyg9TjIpQyg9TylbT0hdKVtDSDJdW0NIMl1bQ0gyXU9jM1tjSF1jKFtDSDNdKWMoQ2wpYyhbQ0gzXSlbY0hdMw==

> <s_epik_cmdline>
J2VwaWtfYXBwJywgJy1pbWFlJywgJ2xpZ2FuZF9wcm8ubWFlJywgJy1vbWFlJywgJ2xpZ2FuZF9wcmVwLm1hZScsICctbXMnLCAnMScsICctcGgnLCAnNycsICctcGh0JywgJzAuNScsICctbnQn

> <r_lp_tautomer_probability>
1

> <r_epik_Ionization_Penalty>
  0.0000

> <r_epik_Ionization_Penalty_Charging>
  0.0000

> <r_epik_Ionization_Penalty_Neutral>
  0.0000

> <r_epik_State_Penalty>
 -0.0000

> <r_epik_Charging_Adjusted_Penalty>
2.29401159640729e-07

> <i_epik_Tot_Q>
-1

> <i_epik_Tot_abs_Q>
1

> <s_epik_Chemistry_Notes>
This compound has an imine and may undergo hydrolysis.

$$$$
