4hw3_ligand
                    3D
 Schrodinger Suite 2020-3.
 43 45  0  0  1  0            999 V2000
   34.2990   -7.9750   18.8340 O   0  0  0  0  0  0
   35.1510   -8.3700   19.6660 C   0  0  0  0  0  0
   36.1100   -9.0960   19.2990 O   0  5  0  0  0  0
   34.9500   -7.9270   21.0700 C   0  0  0  0  0  0
   33.4380   -7.5230   21.7050 S   0  0  0  0  0  0
   33.8970   -7.0980   23.2830 C   0  0  0  0  0  0
   33.2060   -6.6510   24.4070 C   0  0  0  0  0  0
   33.8750   -6.3910   25.5950 C   0  0  0  0  0  0
   35.2640   -6.5680   25.6470 C   0  0  0  0  0  0
   35.9680   -6.9970   24.5290 C   0  0  0  0  0  0
   35.2930   -7.2720   23.3400 C   0  0  0  0  0  0
   35.8870   -7.7310   22.1150 C   0  0  0  0  0  0
   37.3510   -7.9920   21.9630 C   0  0  0  0  0  0
   37.7700   -9.4210   22.1080 C   0  0  0  0  0  0
   37.8260  -10.0100   23.4830 C   0  0  0  0  0  0
   38.7230   -9.3180   24.2740 O   0  0  0  0  0  0
   38.9470   -9.6210   25.5900 C   0  0  0  0  0  0
   38.0490  -10.3920   26.2950 C   0  0  0  0  0  0
   38.3180  -10.6800   27.6320 C   0  0  0  0  0  0
   37.3480  -11.5030   28.4200 C   0  0  0  0  0  0
   39.4700  -10.2020   28.2590 C   0  0  0  0  0  0
   39.8080  -10.5630   29.9270 Cl  0  0  0  0  0  0
   40.3630   -9.4280   27.5350 C   0  0  0  0  0  0
   41.5970   -8.9100   28.2090 C   0  0  0  0  0  0
   40.1020   -9.1430   26.1950 C   0  0  0  0  0  0
   32.1274   -6.5037   24.3529 H   0  0  0  0  0  0
   33.3275   -6.0539   26.4752 H   0  0  0  0  0  0
   35.7983   -6.3667   26.5755 H   0  0  0  0  0  0
   37.0499   -7.1189   24.5811 H   0  0  0  0  0  0
   37.6783   -7.6732   20.9624 H   0  0  0  0  0  0
   37.9054   -7.4276   22.7272 H   0  0  0  0  0  0
   37.0724  -10.0657   21.5533 H   0  0  0  0  0  0
   38.7857   -9.5480   21.7053 H   0  0  0  0  0  0
   36.8293   -9.9569   23.9455 H   0  0  0  0  0  0
   38.1451  -11.0608   23.4191 H   0  0  0  0  0  0
   37.1454  -10.7696   25.8164 H   0  0  0  0  0  0
   36.5052  -11.7934   27.7755 H   0  0  0  0  0  0
   36.9735  -10.9141   29.2703 H   0  0  0  0  0  0
   37.8523  -12.4065   28.7934 H   0  0  0  0  0  0
   41.6115   -9.2464   29.2562 H   0  0  0  0  0  0
   41.5981   -7.8105   28.1770 H   0  0  0  0  0  0
   42.4872   -9.2929   27.6885 H   0  0  0  0  0  0
   40.8073   -8.5427   25.6203 H   0  0  0  0  0  0
  1  2  2  0  0  0
  2  3  1  0  0  0
  2  4  1  0  0  0
  4  5  1  0  0  0
  4 12  2  0  0  0
  5  6  1  0  0  0
  6  7  1  0  0  0
  6 11  2  0  0  0
  7  8  2  0  0  0
  7 26  1  0  0  0
  8  9  1  0  0  0
  8 27  1  0  0  0
  9 10  2  0  0  0
  9 28  1  0  0  0
 10 11  1  0  0  0
 10 29  1  0  0  0
 11 12  1  0  0  0
 12 13  1  0  0  0
 13 14  1  0  0  0
 13 30  1  0  0  0
 13 31  1  0  0  0
 14 15  1  0  0  0
 14 32  1  0  0  0
 14 33  1  0  0  0
 15 16  1  0  0  0
 15 34  1  0  0  0
 15 35  1  0  0  0
 16 17  1  0  0  0
 17 18  2  0  0  0
 17 25  1  0  0  0
 18 19  1  0  0  0
 18 36  1  0  0  0
 19 20  1  0  0  0
 19 21  2  0  0  0
 20 37  1  0  0  0
 20 38  1  0  0  0
 20 39  1  0  0  0
 21 22  1  0  0  0
 21 23  1  0  0  0
 23 24  1  0  0  0
 23 25  2  0  0  0
 24 40  1  0  0  0
 24 41  1  0  0  0
 24 42  1  0  0  0
 25 43  1  0  0  0
M  CHG  1   3  -1
M  END
> <s_m_source_file>
../4hw3_ligand.sdf

> <i_m_source_file_index>
1

> <s_epik_input>
W2NIXTFbY0hdW2NIXVtjSF1jKGMxMiljKGMoczIpQyg9TylbT0hdKVtDSDJdW0NIMl1bQ0gyXU9jM1tjSF1jKFtDSDNdKWMoQ2wpYyhbQ0gzXSlbY0hdMw==

> <s_epik_cmdline>
J2VwaWtfYXBwJywgJy1pbWFlJywgJ2xpZ2FuZF9wcm8ubWFlJywgJy1vbWFlJywgJ2xpZ2FuZF9wcmVwLm1hZScsICctbXMnLCAnMScsICctcGgnLCAnNycsICctcGh0JywgJzAuNScsICctbnQn

> <r_lp_tautomer_probability>
1

> <r_epik_Ionization_Penalty>
  0.0003

> <r_epik_Ionization_Penalty_Charging>
  0.0003

> <r_epik_Ionization_Penalty_Neutral>
  0.0000

> <r_epik_State_Penalty>
 -0.0000

> <r_epik_Charging_Adjusted_Penalty>
0.000318365016680683

> <i_epik_Tot_Q>
-1

> <i_epik_Tot_abs_Q>
1

$$$$
