4hwb_ligand
                    3D
 Schrodinger Suite 2020-3.
 30 30  0  0  1  0            999 V2000
    1.4000  -51.9290   52.4180 C   0  0  0  0  0  0
    0.5180  -52.2750   53.6230 C   0  0  0  0  0  0
    0.2620  -53.7740   53.7260 C   0  0  0  0  0  0
    0.5670  -54.4700   52.4000 C   0  0  0  0  0  0
   -0.9010  -54.0940   54.5820 N   0  3  0  0  0  0
   -1.0230  -55.4980   54.9990 C   0  0  0  0  0  0
   -2.2020  -55.5850   55.9760 C   0  0  0  0  0  0
   -3.6090  -55.9670   55.1600 S   0  0  0  0  0  0
   -4.6520  -56.1080   56.1560 O   0  0  0  0  0  0
   -3.8600  -54.8780   54.2370 O   0  0  0  0  0  0
   -3.3200  -57.2290   54.4790 O   0  5  0  0  0  0
    2.0420  -54.3260   52.0180 C   0  0  0  0  0  0
    2.5530  -52.9090   52.2530 C   0  0  0  0  0  0
    0.7939  -51.9552   51.5004 H   0  0  0  0  0  0
    1.8223  -50.9219   52.5498 H   0  0  0  0  0  0
    1.0146  -51.9454   54.5475 H   0  0  0  0  0  0
   -0.4519  -51.7652   53.5260 H   0  0  0  0  0  0
    0.9509  -54.3267   54.3817 H   0  0  0  0  0  0
    0.3323  -55.5413   52.4857 H   0  0  0  0  0  0
   -0.0447  -54.0234   51.6022 H   0  0  0  0  0  0
   -0.8485  -53.5025   55.5079 H   0  0  0  0  0  0
   -1.8296  -53.8519   54.0444 H   0  0  0  0  0  0
   -1.2068  -56.1280   54.1162 H   0  0  0  0  0  0
   -0.0916  -55.8170   55.4897 H   0  0  0  0  0  0
   -2.0002  -56.3643   56.7256 H   0  0  0  0  0  0
   -2.3326  -54.6162   56.4803 H   0  0  0  0  0  0
    2.6469  -55.0159   52.6247 H   0  0  0  0  0  0
    2.1699  -54.5665   50.9523 H   0  0  0  0  0  0
    3.1678  -52.6101   51.3912 H   0  0  0  0  0  0
    3.1708  -52.9050   53.1631 H   0  0  0  0  0  0
  1  2  1  0  0  0
  1 13  1  0  0  0
  1 14  1  0  0  0
  1 15  1  0  0  0
  2  3  1  0  0  0
  2 16  1  0  0  0
  2 17  1  0  0  0
  3  4  1  0  0  0
  3  5  1  0  0  0
  3 18  1  0  0  0
  4 12  1  0  0  0
  4 19  1  0  0  0
  4 20  1  0  0  0
  5  6  1  0  0  0
  5 21  1  0  0  0
  5 22  1  0  0  0
  6  7  1  0  0  0
  6 23  1  0  0  0
  6 24  1  0  0  0
  7  8  1  0  0  0
  7 25  1  0  0  0
  7 26  1  0  0  0
  8  9  2  0  0  0
  8 10  2  0  0  0
  8 11  1  0  0  0
 12 13  1  0  0  0
 12 27  1  0  0  0
 12 28  1  0  0  0
 13 29  1  0  0  0
 13 30  1  0  0  0
M  CHG  2   5   1  11  -1
M  END
> <s_m_source_file>
../4hwb_ligand.sdf

> <i_m_source_file_index>
1

> <s_epik_input>
W0NIMl0xW0NIMl1bQ0gyXVtDSDJdW0NIMl1bQ0hdMVtOSDIrXVtDSDJdW0NIMl1TKD1PKSg9TylbT0hd

> <s_epik_cmdline>
J2VwaWtfYXBwJywgJy1pbWFlJywgJ2xpZ2FuZF9wcm8ubWFlJywgJy1vbWFlJywgJ2xpZ2FuZF9wcmVwLm1hZScsICctbXMnLCAnMScsICctcGgnLCAnNycsICctcGh0JywgJzAuNScsICctbnQn

> <r_lp_tautomer_probability>
1

> <r_epik_Ionization_Penalty>
  0.0005

> <r_epik_Ionization_Penalty_Charging>
  0.0005

> <r_epik_Ionization_Penalty_Neutral>
  0.0000

> <r_epik_State_Penalty>
 -0.0000

> <r_epik_Charging_Adjusted_Penalty>
0.000454980191812922

> <i_epik_Tot_Q>
0

> <i_epik_Tot_abs_Q>
2

$$$$
