4hwo_ligand
                    3D
 Schrodinger Suite 2020-3.
 47 49  0  0  1  0            999 V2000
  -12.8890  -34.8710   16.2700 O   0  5  0  0  0  0
  -11.9490  -35.3160   16.9140 C   0  0  0  0  0  0
  -10.8040  -34.4430   17.3560 C   0  0  2  0  0  0
  -11.1480  -33.7050   18.6620 C   0  0  1  0  0  0
  -11.1890  -34.6610   19.8770 C   0  0  0  0  0  0
  -10.1840  -32.6410   18.8610 O   0  0  0  0  0  0
  -10.5160  -33.4520   16.3360 N   0  3  0  0  0  0
  -11.8930  -36.6050   17.2370 N   0  0  0  0  0  0
  -13.0920  -37.6080   16.8460 S   0  0  0  0  0  0
  -12.6570  -38.9060   17.2290 O   0  0  0  0  0  0
  -13.3750  -37.5230   15.4670 O   0  0  0  0  0  0
  -14.4590  -37.3200   17.7020 C   0  0  0  0  0  0
  -14.3930  -36.7830   18.9930 C   0  0  0  0  0  0
  -15.5590  -36.5300   19.7510 C   0  0  0  0  0  0
  -16.7980  -36.8190   19.1680 C   0  0  0  0  0  0
  -16.8760  -37.4150   17.9070 C   0  0  0  0  0  0
  -15.7070  -37.6140   17.1660 C   0  0  0  0  0  0
  -18.2200  -37.6530   17.2850 C   0  0  0  0  0  0
  -18.2770  -37.9150   15.9120 C   0  0  0  0  0  0
  -19.4780  -38.0730   15.2460 C   0  0  0  0  0  0
  -20.6790  -37.9830   15.9740 C   0  0  0  0  0  0
  -20.6470  -37.6980   17.4100 C   0  0  0  0  0  0
  -19.4040  -37.5410   18.0300 C   0  0  0  0  0  0
  -22.0090  -38.1130   15.3300 C   0  0  0  0  0  0
  -22.1160  -38.3420   14.0140 N   0  0  0  0  0  0
  -23.1020  -37.9990   16.1000 N   0  0  0  0  0  0
  -23.0120  -37.7670   17.4290 C   0  0  0  0  0  0
  -21.8300  -37.6140   18.0770 N   0  0  0  0  0  0
   -9.9132  -35.0779   17.4717 H   0  0  0  0  0  0
  -12.1301  -33.2167   18.5783 H   0  0  0  0  0  0
  -11.9284  -35.4547   19.6943 H   0  0  0  0  0  0
  -11.4717  -34.0969   20.7780 H   0  0  0  0  0  0
  -10.1961  -35.1114   20.0228 H   0  0  0  0  0  0
  -10.0383  -31.8780   18.0821 H   0  0  0  0  0  0
  -10.2671  -33.9590   15.3921 H   0  0  0  0  0  0
   -9.6644  -32.8336   16.6557 H   0  0  0  0  0  0
  -11.3983  -32.8122   16.1869 H   0  0  0  0  0  0
  -13.4185  -36.5543   19.4244 H   0  0  0  0  0  0
  -15.4950  -36.1219   20.7597 H   0  0  0  0  0  0
  -17.7147  -36.5757   19.7052 H   0  0  0  0  0  0
  -15.7757  -38.0062   16.1513 H   0  0  0  0  0  0
  -17.3464  -37.9970   15.3504 H   0  0  0  0  0  0
  -19.4945  -38.2644   14.1731 H   0  0  0  0  0  0
  -19.3541  -37.3304   19.0983 H   0  0  0  0  0  0
  -21.2105  -38.4330   13.3962 H   0  0  0  0  0  0
  -23.1094  -38.4390   13.5516 H   0  0  0  0  0  0
  -23.9334  -37.6997   18.0075 H   0  0  0  0  0  0
  1  2  1  0  0  0
  2  3  1  0  0  0
  2  8  2  0  0  0
  3  4  1  0  0  0
  3  7  1  0  0  0
  3 29  1  0  0  0
  4  5  1  0  0  0
  4  6  1  0  0  0
  4 30  1  0  0  0
  5 31  1  0  0  0
  5 32  1  0  0  0
  5 33  1  0  0  0
  6 34  1  0  0  0
  7 35  1  0  0  0
  7 36  1  0  0  0
  7 37  1  0  0  0
  8  9  1  0  0  0
  9 10  2  0  0  0
  9 11  2  0  0  0
  9 12  1  0  0  0
 12 13  2  0  0  0
 12 17  1  0  0  0
 13 14  1  0  0  0
 13 38  1  0  0  0
 14 15  2  0  0  0
 14 39  1  0  0  0
 15 16  1  0  0  0
 15 40  1  0  0  0
 16 17  2  0  0  0
 16 18  1  0  0  0
 17 41  1  0  0  0
 18 19  2  0  0  0
 18 23  1  0  0  0
 19 20  1  0  0  0
 19 42  1  0  0  0
 20 21  2  0  0  0
 20 43  1  0  0  0
 21 22  1  0  0  0
 21 24  1  0  0  0
 22 23  2  0  0  0
 22 28  1  0  0  0
 23 44  1  0  0  0
 24 25  1  0  0  0
 24 26  2  0  0  0
 25 45  1  0  0  0
 25 46  1  0  0  0
 26 27  1  0  0  0
 27 28  2  0  0  0
 27 47  1  0  0  0
M  CHG  2   1  -1   7   1
M  END
> <s_m_source_file>
../4hwo_ligand.sdf

> <i_m_source_file_index>
1

> <s_epik_input>
W0NIM11bQ0BASF0oW09IXSlbQ0BIXShbTkgzK10pQyg9TylbTkhdUyg9TykoPU8pYzFbY0hdW2NIXVtjSF1jKFtjSF0xKS1jKFtjSF1bY0hdMilbY0hdYyhjMjMpbltjSF1uYzNbTkgyXQ==

> <s_epik_cmdline>
J2VwaWtfYXBwJywgJy1pbWFlJywgJ2xpZ2FuZF9wcm8ubWFlJywgJy1vbWFlJywgJ2xpZ2FuZF9wcmVwLm1hZScsICctbXMnLCAnMScsICctcGgnLCAnNycsICctcGh0JywgJzAuNScsICctbnQn

> <r_lp_tautomer_probability>
0.999978000241998

> <r_epik_Ionization_Penalty>
  0.0198

> <r_epik_Ionization_Penalty_Charging>
  0.0106

> <r_epik_Ionization_Penalty_Neutral>
  0.0093

> <r_epik_State_Penalty>
  0.0078

> <r_epik_Charging_Adjusted_Penalty>
0.0183089045008585

> <i_epik_Tot_Q>
0

> <i_epik_Tot_abs_Q>
2

$$$$
