4hwp_ligand
                    3D
 Schrodinger Suite 2020-3.
 50 52  0  0  1  0            999 V2000
  -11.3080  -34.6160   19.9010 C   0  0  0  0  0  0
  -11.2040  -33.6830   18.6920 C   0  0  2  0  0  0
  -10.8100  -34.4180   17.4080 C   0  0  1  0  0  0
  -11.9580  -35.3040   17.0020 C   0  0  0  0  0  0
  -11.9000  -36.5850   17.3310 N   0  0  0  0  0  0
  -10.3330  -32.6330   19.0650 O   0  0  0  0  0  0
  -10.6490  -33.4780   16.3400 N   0  3  0  0  0  0
  -12.8720  -34.8390   16.3770 O   0  5  0  0  0  0
  -13.0600  -37.5910   16.9060 S   0  0  0  0  0  0
  -12.6020  -38.8290   17.2930 O   0  0  0  0  0  0
  -13.2940  -37.4810   15.5710 O   0  0  0  0  0  0
  -14.4090  -37.3040   17.7650 C   0  0  0  0  0  0
  -14.3690  -36.7660   19.0530 C   0  0  0  0  0  0
  -15.5210  -36.5250   19.8090 C   0  0  0  0  0  0
  -16.7460  -36.8380   19.2490 C   0  0  0  0  0  0
  -16.8220  -37.4400   18.0030 C   0  0  0  0  0  0
  -15.6610  -37.6320   17.2610 C   0  0  0  0  0  0
  -18.1670  -37.7250   17.4010 C   0  0  0  0  0  0
  -19.2940  -37.8050   18.2000 C   0  0  0  0  0  0
  -20.5620  -37.9960   17.6770 C   0  0  0  0  0  0
  -20.7000  -38.1020   16.3040 C   0  0  0  0  0  0
  -19.5250  -38.0260   15.4320 C   0  0  0  0  0  0
  -18.2920  -37.8230   16.0260 C   0  0  0  0  0  0
  -19.7060  -38.1250   14.0950 N   0  0  0  0  0  0
  -20.9210  -38.3000   13.5480 C   0  0  0  0  0  0
  -22.0390  -38.3730   14.2920 N   0  0  0  0  0  0
  -22.0090  -38.2920   15.6180 C   0  0  0  0  0  0
  -23.0980  -38.3540   16.3280 N   0  0  0  0  0  0
  -21.0070  -38.4170   12.0560 C   0  0  0  0  0  0
  -11.9784  -35.4543   19.6606 H   0  0  0  0  0  0
  -11.7105  -34.0593   20.7602 H   0  0  0  0  0  0
  -10.3098  -35.0048   20.1510 H   0  0  0  0  0  0
  -12.1510  -33.1789   18.4489 H   0  0  0  0  0  0
   -9.8616  -34.9598   17.5385 H   0  0  0  0  0  0
  -10.5351  -32.0474   19.9740 H   0  0  0  0  0  0
   -9.8193  -32.7950   16.5747 H   0  0  0  0  0  0
  -11.5766  -32.8996   16.2177 H   0  0  0  0  0  0
  -10.4274  -34.0173   15.4072 H   0  0  0  0  0  0
  -13.3992  -36.5236   19.4876 H   0  0  0  0  0  0
  -15.4549  -36.1023   20.8115 H   0  0  0  0  0  0
  -17.6619  -36.6087   19.7936 H   0  0  0  0  0  0
  -15.7359  -38.0509   16.2575 H   0  0  0  0  0  0
  -19.1795  -37.7144   19.2802 H   0  0  0  0  0  0
  -21.4312  -38.0613   18.3315 H   0  0  0  0  0  0
  -17.4035  -37.7388   15.4002 H   0  0  0  0  0  0
  -23.0444  -38.2843   17.4245 H   0  0  0  0  0  0
  -24.0720  -38.4761   15.8316 H   0  0  0  0  0  0
  -19.9992  -38.3341   11.6230 H   0  0  0  0  0  0
  -21.6432  -37.6112   11.6611 H   0  0  0  0  0  0
  -21.4417  -39.3916   11.7891 H   0  0  0  0  0  0
  1  2  1  0  0  0
  1 30  1  0  0  0
  1 31  1  0  0  0
  1 32  1  0  0  0
  2  3  1  0  0  0
  2  6  1  0  0  0
  2 33  1  0  0  0
  3  4  1  0  0  0
  3  7  1  0  0  0
  3 34  1  0  0  0
  4  5  2  0  0  0
  4  8  1  0  0  0
  5  9  1  0  0  0
  6 35  1  0  0  0
  7 36  1  0  0  0
  7 37  1  0  0  0
  7 38  1  0  0  0
  9 10  2  0  0  0
  9 11  2  0  0  0
  9 12  1  0  0  0
 12 13  2  0  0  0
 12 17  1  0  0  0
 13 14  1  0  0  0
 13 39  1  0  0  0
 14 15  2  0  0  0
 14 40  1  0  0  0
 15 16  1  0  0  0
 15 41  1  0  0  0
 16 17  2  0  0  0
 16 18  1  0  0  0
 17 42  1  0  0  0
 18 19  2  0  0  0
 18 23  1  0  0  0
 19 20  1  0  0  0
 19 43  1  0  0  0
 20 21  2  0  0  0
 20 44  1  0  0  0
 21 22  1  0  0  0
 21 27  1  0  0  0
 22 23  2  0  0  0
 22 24  1  0  0  0
 23 45  1  0  0  0
 24 25  2  0  0  0
 25 26  1  0  0  0
 25 29  1  0  0  0
 26 27  2  0  0  0
 27 28  1  0  0  0
 28 46  1  0  0  0
 28 47  1  0  0  0
 29 48  1  0  0  0
 29 49  1  0  0  0
 29 50  1  0  0  0
M  CHG  2   7   1   8  -1
M  END
> <s_m_source_file>
../4hwp_ligand.sdf

> <i_m_source_file_index>
1

> <s_epik_input>
W0NIM11bQ0BASF0oW09IXSlbQ0BIXShbTkgzK10pQyg9TylbTkhdUyg9TykoPU8pYzFbY0hdW2NIXVtjSF1jKFtjSF0xKS1jKFtjSF1bY0hdMilbY0hdYyhjMjMpbmMoW0NIM10pbmMzW05IMl0=

> <s_epik_cmdline>
J2VwaWtfYXBwJywgJy1pbWFlJywgJ2xpZ2FuZF9wcm8ubWFlJywgJy1vbWFlJywgJ2xpZ2FuZF9wcmVwLm1hZScsICctbXMnLCAnMScsICctcGgnLCAnNycsICctcGh0JywgJzAuNScsICctbnQn

> <r_lp_tautomer_probability>
1

> <r_epik_Ionization_Penalty>
  0.0589

> <r_epik_Ionization_Penalty_Charging>
  0.0106

> <r_epik_Ionization_Penalty_Neutral>
  0.0484

> <r_epik_State_Penalty>
 -0.0000

> <r_epik_Charging_Adjusted_Penalty>
0.0105572063990522

> <i_epik_Tot_Q>
0

> <i_epik_Tot_abs_Q>
2

$$$$
