4hwr_ligand
                    3D
 Schrodinger Suite 2020-3.
 44 46  0  0  1  0            999 V2000
   31.9340  -37.4810   31.9770 O   0  5  0  0  0  0
   31.0100  -37.9890   32.6230 C   0  0  0  0  0  0
   29.9250  -37.1260   33.2460 C   0  0  2  0  0  0
   28.9860  -36.6600   32.1250 C   0  0  1  0  0  0
   28.0870  -37.7840   31.6290 C   0  0  0  0  0  0
   28.2030  -35.5440   32.5680 O   0  0  0  0  0  0
   30.4750  -35.9460   33.9190 N   0  3  0  0  0  0
   30.8090  -39.3050   32.7680 N   0  0  0  0  0  0
   31.7830  -40.4260   32.2000 S   0  0  0  0  0  0
   31.3160  -41.7290   32.5130 O   0  0  0  0  0  0
   33.1040  -40.3110   32.7230 O   0  0  0  0  0  0
   31.9300  -40.3980   30.5460 C   0  0  0  0  0  0
   30.8030  -40.2290   29.7340 C   0  0  0  0  0  0
   30.8770  -40.2670   28.3390 C   0  0  0  0  0  0
   32.1480  -40.3980   27.7390 C   0  0  0  0  0  0
   33.2880  -40.5980   28.5120 C   0  0  0  0  0  0
   33.1720  -40.6000   29.9240 C   0  0  0  0  0  0
   34.6020  -40.8150   27.8270 C   0  0  0  0  0  0
   34.6080  -41.4250   26.5550 C   0  0  0  0  0  0
   35.8320  -41.6350   25.8850 C   0  0  0  0  0  0
   36.0640  -42.2400   24.5830 C   0  0  0  0  0  0
   37.4140  -42.1660   24.4860 N   0  3  0  0  0  0
   38.0200  -41.5710   25.6310 N   0  0  0  0  0  0
   37.0760  -41.2490   26.5380 C   0  0  0  0  0  0
   37.0570  -40.6370   27.8070 C   0  0  0  0  0  0
   35.8140  -40.4520   28.4270 C   0  0  0  0  0  0
   29.4140  -37.7009   34.0324 H   0  0  0  0  0  0
   29.5762  -36.2835   31.2766 H   0  0  0  0  0  0
   28.7070  -38.6288   31.2945 H   0  0  0  0  0  0
   27.4767  -37.4216   30.7886 H   0  0  0  0  0  0
   27.4278  -38.1137   32.4456 H   0  0  0  0  0  0
   28.7001  -34.6438   32.9586 H   0  0  0  0  0  0
   31.1507  -36.2658   34.7259 H   0  0  0  0  0  0
   29.6537  -35.3498   34.3432 H   0  0  0  0  0  0
   31.0333  -35.3368   33.1930 H   0  0  0  0  0  0
   29.8346  -40.0621   30.2055 H   0  0  0  0  0  0
   29.9760  -40.1972   27.7296 H   0  0  0  0  0  0
   32.2380  -40.3417   26.6542 H   0  0  0  0  0  0
   34.0596  -40.7606   30.5359 H   0  0  0  0  0  0
   33.6609  -41.7349   26.0892 H   0  0  0  0  0  0
   35.2144  -42.6029   23.9859 H   0  0  0  0  0  0
   37.9776  -40.3080   28.3113 H   0  0  0  0  0  0
   35.7610  -40.0036   29.4300 H   0  0  0  0  0  0
   38.0391  -42.5068   23.6475 H   0  0  0  0  0  0
  1  2  1  0  0  0
  2  3  1  0  0  0
  2  8  2  0  0  0
  3  4  1  0  0  0
  3  7  1  0  0  0
  3 27  1  0  0  0
  4  5  1  0  0  0
  4  6  1  0  0  0
  4 28  1  0  0  0
  5 29  1  0  0  0
  5 30  1  0  0  0
  5 31  1  0  0  0
  6 32  1  0  0  0
  7 33  1  0  0  0
  7 34  1  0  0  0
  7 35  1  0  0  0
  8  9  1  0  0  0
  9 10  2  0  0  0
  9 11  2  0  0  0
  9 12  1  0  0  0
 12 13  2  0  0  0
 12 17  1  0  0  0
 13 14  1  0  0  0
 13 36  1  0  0  0
 14 15  2  0  0  0
 14 37  1  0  0  0
 15 16  1  0  0  0
 15 38  1  0  0  0
 16 17  2  0  0  0
 16 18  1  0  0  0
 17 39  1  0  0  0
 18 19  2  0  0  0
 18 26  1  0  0  0
 19 20  1  0  0  0
 19 40  1  0  0  0
 20 21  2  0  0  0
 20 24  1  0  0  0
 21 22  1  0  0  0
 21 41  1  0  0  0
 22 23  1  0  0  0
 22 44  1  0  0  0
 23 24  2  0  0  0
 24 25  1  0  0  0
 25 26  2  0  0  0
 25 42  1  0  0  0
 26 43  1  0  0  0
M  CHG  3   1  -1   7   1  22   1
M  END
> <s_m_source_file>
../4hwr_ligand.sdf

> <i_m_source_file_index>
1

> <s_epik_input>
W0NIM11bQ0BASF0oW09IXSlbQ0BIXShbTkgzK10pQyg9TylbTkhdUyg9TykoPU8pYzFbY0hdW2NIXVtjSF1jKFtjSF0xKS1jKFtjSF0yKVtjSF1bY0hdYyhjMjMpbltuSF1bY0hdMw==

> <s_epik_cmdline>
J2VwaWtfYXBwJywgJy1pbWFlJywgJ2xpZ2FuZF9wcm8ubWFlJywgJy1vbWFlJywgJ2xpZ2FuZF9wcmVwLm1hZScsICctbXMnLCAnMScsICctcGgnLCAnNycsICctcGh0JywgJzAuNScsICctbnQn

> <r_lp_tautomer_probability>
1

> <r_epik_Ionization_Penalty>
  0.0103

> <r_epik_Ionization_Penalty_Charging>
  0.0103

> <r_epik_Ionization_Penalty_Neutral>
  0.0000

> <r_epik_State_Penalty>
 -0.0000

> <r_epik_Charging_Adjusted_Penalty>
0.0103164466688838

> <i_epik_Tot_Q>
1

> <i_epik_Tot_abs_Q>
3

> <s_epik_Chemistry_Notes>
This compound has an imine and may undergo hydrolysis.

$$$$
