4hwt_ligand
                    3D
 Schrodinger Suite 2020-3.
 44 46  0  0  1  0            999 V2000
    7.0520  -28.5890  -13.1320 O   0  5  0  0  0  0
    7.0910  -27.4910  -12.6120 C   0  0  0  0  0  0
    8.0620  -27.2530  -11.4900 C   0  0  2  0  0  0
    9.5310  -27.2730  -11.8740 C   0  0  1  0  0  0
    9.9420  -26.0440  -12.6620 C   0  0  0  0  0  0
   10.2500  -27.3960  -10.6150 O   0  0  0  0  0  0
    7.9710  -28.3600  -10.5600 N   0  3  0  0  0  0
    6.2940  -26.4610  -12.9480 N   0  0  0  0  0  0
    4.7840  -26.5340  -13.5690 S   0  0  0  0  0  0
    3.8120  -25.9100  -12.7090 O   0  0  0  0  0  0
    4.3600  -27.8860  -13.7810 O   0  0  0  0  0  0
    4.7090  -25.7460  -14.9560 C   0  0  0  0  0  0
    5.5680  -26.0890  -16.0130 C   0  0  0  0  0  0
    5.4730  -25.3860  -17.2180 C   0  0  0  0  0  0
    4.5280  -24.3540  -17.3620 C   0  0  0  0  0  0
    3.6740  -24.0030  -16.3080 C   0  0  0  0  0  0
    3.7710  -24.7090  -15.1090 C   0  0  0  0  0  0
    2.6660  -22.9000  -16.4730 C   0  0  0  0  0  0
    2.9730  -21.7790  -17.2690 C   0  0  0  0  0  0
    2.0260  -20.7610  -17.4370 C   0  0  0  0  0  0
    2.1160  -19.5380  -18.1810 C   0  0  0  0  0  0
    0.9050  -18.9460  -17.9750 N   0  3  0  0  0  0
    0.0750  -19.7450  -17.1360 N   0  0  0  0  0  0
    0.7150  -20.8740  -16.7710 C   0  0  0  0  0  0
    0.4270  -21.9950  -15.9840 C   0  0  0  0  0  0
    1.4020  -22.9960  -15.8490 C   0  0  0  0  0  0
    7.7706  -26.2757  -11.0776 H   0  0  0  0  0  0
    9.7875  -28.1249  -12.5209 H   0  0  0  0  0  0
    9.3694  -26.0016  -13.6002 H   0  0  0  0  0  0
   11.0167  -26.0974  -12.8904 H   0  0  0  0  0  0
    9.7380  -25.1417  -12.0668 H   0  0  0  0  0  0
   10.0463  -28.2451   -9.9460 H   0  0  0  0  0  0
    6.9353  -28.4534  -10.2014 H   0  0  0  0  0  0
    8.6397  -28.1773   -9.7059 H   0  0  0  0  0  0
    8.2689  -29.2899  -11.0666 H   0  0  0  0  0  0
    6.2972  -26.8906  -15.8958 H   0  0  0  0  0  0
    6.1330  -25.6383  -18.0480 H   0  0  0  0  0  0
    4.4589  -23.8186  -18.3089 H   0  0  0  0  0  0
    3.1113  -24.4538  -14.2797 H   0  0  0  0  0  0
    3.9556  -21.7040  -17.7577 H   0  0  0  0  0  0
    3.0357  -19.2973  -18.7344 H   0  0  0  0  0  0
   -0.5429  -22.0999  -15.4759 H   0  0  0  0  0  0
    1.1926  -23.8895  -15.2425 H   0  0  0  0  0  0
    0.5334  -17.9860  -18.3626 H   0  0  0  0  0  0
  1  2  1  0  0  0
  2  3  1  0  0  0
  2  8  2  0  0  0
  3  4  1  0  0  0
  3  7  1  0  0  0
  3 27  1  0  0  0
  4  5  1  0  0  0
  4  6  1  0  0  0
  4 28  1  0  0  0
  5 29  1  0  0  0
  5 30  1  0  0  0
  5 31  1  0  0  0
  6 32  1  0  0  0
  7 33  1  0  0  0
  7 34  1  0  0  0
  7 35  1  0  0  0
  8  9  1  0  0  0
  9 10  2  0  0  0
  9 11  2  0  0  0
  9 12  1  0  0  0
 12 13  2  0  0  0
 12 17  1  0  0  0
 13 14  1  0  0  0
 13 36  1  0  0  0
 14 15  2  0  0  0
 14 37  1  0  0  0
 15 16  1  0  0  0
 15 38  1  0  0  0
 16 17  2  0  0  0
 16 18  1  0  0  0
 17 39  1  0  0  0
 18 19  2  0  0  0
 18 26  1  0  0  0
 19 20  1  0  0  0
 19 40  1  0  0  0
 20 21  2  0  0  0
 20 24  1  0  0  0
 21 22  1  0  0  0
 21 41  1  0  0  0
 22 23  1  0  0  0
 22 44  1  0  0  0
 23 24  2  0  0  0
 24 25  1  0  0  0
 25 26  2  0  0  0
 25 42  1  0  0  0
 26 43  1  0  0  0
M  CHG  3   1  -1   7   1  22   1
M  END
> <s_m_source_file>
../4hwt_ligand.sdf

> <i_m_source_file_index>
1

> <s_epik_input>
W0NIM11bQ0BASF0oW09IXSlbQ0BIXShbTkgzK10pQyg9TylbTkhdUyg9TykoPU8pYzFbY0hdW2NIXVtjSF1jKFtjSF0xKS1jKFtjSF0yKVtjSF1bY0hdYyhjMjMpbltuSF1bY0hdMw==

> <s_epik_cmdline>
J2VwaWtfYXBwJywgJy1pbWFlJywgJ2xpZ2FuZF9wcm8ubWFlJywgJy1vbWFlJywgJ2xpZ2FuZF9wcmVwLm1hZScsICctbXMnLCAnMScsICctcGgnLCAnNycsICctcGh0JywgJzAuNScsICctbnQn

> <r_lp_tautomer_probability>
1

> <r_epik_Ionization_Penalty>
  0.0103

> <r_epik_Ionization_Penalty_Charging>
  0.0103

> <r_epik_Ionization_Penalty_Neutral>
  0.0000

> <r_epik_State_Penalty>
 -0.0000

> <r_epik_Charging_Adjusted_Penalty>
0.0103164466688838

> <i_epik_Tot_Q>
1

> <i_epik_Tot_abs_Q>
3

> <s_epik_Chemistry_Notes>
This compound has an imine and may undergo hydrolysis.

$$$$
