4hww_ligand
                    3D
 Schrodinger Suite 2020-3.
 50 50  0  0  1  0            999 V2000
  -19.9760   15.7950  -10.5940 O   0  5  0  0  0  0
  -20.1320   16.2430  -11.7410 C   0  0  0  0  0  0
  -19.3830   15.9210  -12.6940 O   0  0  0  0  0  0
  -21.2600   17.2240  -11.9840 C   0  0  1  0  0  0
  -21.2550   17.5620  -13.4120 N   0  3  0  0  0  0
  -21.4144   16.6495  -14.0053 H   0  0  0  0  0  0
  -20.2861   18.0088  -13.6796 H   0  0  0  0  0  0
  -22.0607   18.2810  -13.6214 H   0  0  0  0  0  0
  -22.6240   16.6630  -11.5620 C   0  0  0  0  0  0
  -22.9350   15.2570  -12.0600 C   0  0  0  0  0  0
  -24.3990   14.8820  -11.8060 C   0  0  0  0  0  0
  -24.5960   13.3970  -12.0790 C   0  0  0  0  0  0
  -26.0480   12.9760  -12.5560 B   0  5  0  0  0  0
  -26.9420   13.3980  -11.3770 O   0  0  0  0  0  0
  -26.7297   13.0242  -10.3645 H   0  0  0  0  0  0
  -26.3240   11.5050  -12.6180 O   0  0  0  0  0  0
  -25.9092   10.8347  -11.8507 H   0  0  0  0  0  0
  -26.7000   13.7050  -13.6860 O   0  0  0  0  0  0
  -26.5871   14.7956  -13.7750 H   0  0  0  0  0  0
  -21.0400   18.4810  -11.1530 C   0  0  0  0  0  0
  -19.6520   19.0820  -11.3400 C   0  0  0  0  0  0
  -19.5350   20.4000  -10.6820 N   0  3  0  0  0  0
  -20.8270   21.0890  -10.5470 C   0  0  0  0  0  0
  -20.6200   22.3600   -9.7320 C   0  0  0  0  0  0
  -19.6360   23.2880  -10.4350 C   0  0  0  0  0  0
  -18.3380   22.5500  -10.7290 C   0  0  0  0  0  0
  -18.6140   21.2420  -11.4630 C   0  0  0  0  0  0
  -22.6806   16.6238  -10.4642 H   0  0  0  0  0  0
  -23.4231   17.3134  -11.9473 H   0  0  0  0  0  0
  -22.7439   15.2006  -13.1418 H   0  0  0  0  0  0
  -22.2942   14.5324  -11.5362 H   0  0  0  0  0  0
  -24.6571   15.1002  -10.7592 H   0  0  0  0  0  0
  -25.0486   15.4673  -12.4734 H   0  0  0  0  0  0
  -23.9043   13.0750  -12.8714 H   0  0  0  0  0  0
  -24.3938   12.8254  -11.1612 H   0  0  0  0  0  0
  -21.7769   19.2450  -11.4417 H   0  0  0  0  0  0
  -21.1595   18.2409  -10.0862 H   0  0  0  0  0  0
  -18.8992   18.4089  -10.9039 H   0  0  0  0  0  0
  -19.4501   19.2115  -12.4135 H   0  0  0  0  0  0
  -19.1539   20.2337   -9.6636 H   0  0  0  0  0  0
  -21.2127   21.3438  -11.5452 H   0  0  0  0  0  0
  -21.5427   20.4291  -10.0348 H   0  0  0  0  0  0
  -21.5817   22.8807   -9.6142 H   0  0  0  0  0  0
  -20.2206   22.0991   -8.7409 H   0  0  0  0  0  0
  -20.0741   23.6379  -11.3814 H   0  0  0  0  0  0
  -19.4211   24.1519   -9.7889 H   0  0  0  0  0  0
  -17.6922   23.1804  -11.3579 H   0  0  0  0  0  0
  -17.8222   22.3246   -9.7839 H   0  0  0  0  0  0
  -17.6644   20.7070  -11.6111 H   0  0  0  0  0  0
  -19.0639   21.4680  -12.4410 H   0  0  0  0  0  0
  1  2  1  0  0  0
  2  3  2  0  0  0
  2  4  1  0  0  0
  4  5  1  0  0  0
  4  9  1  0  0  0
  4 20  1  0  0  0
  5  6  1  0  0  0
  5  7  1  0  0  0
  5  8  1  0  0  0
  9 10  1  0  0  0
  9 28  1  0  0  0
  9 29  1  0  0  0
 10 11  1  0  0  0
 10 30  1  0  0  0
 10 31  1  0  0  0
 11 12  1  0  0  0
 11 32  1  0  0  0
 11 33  1  0  0  0
 12 13  1  0  0  0
 12 34  1  0  0  0
 12 35  1  0  0  0
 13 14  1  0  0  0
 13 16  1  0  0  0
 13 18  1  0  0  0
 14 15  1  0  0  0
 16 17  1  0  0  0
 18 19  1  0  0  0
 20 21  1  0  0  0
 20 36  1  0  0  0
 20 37  1  0  0  0
 21 22  1  0  0  0
 21 38  1  0  0  0
 21 39  1  0  0  0
 22 23  1  0  0  0
 22 27  1  0  0  0
 22 40  1  0  0  0
 23 24  1  0  0  0
 23 41  1  0  0  0
 23 42  1  0  0  0
 24 25  1  0  0  0
 24 43  1  0  0  0
 24 44  1  0  0  0
 25 26  1  0  0  0
 25 45  1  0  0  0
 25 46  1  0  0  0
 26 27  1  0  0  0
 26 47  1  0  0  0
 26 48  1  0  0  0
 27 49  1  0  0  0
 27 50  1  0  0  0
M  CHG  4   1  -1   5   1  13  -1  22   1
M  END
> <s_m_source_file>
../4hww_ligand.sdf

> <i_m_source_file_index>
1

> <s_epik_input>
W09IXVtCLV0oW09IXSkoW09IXSlbQ0gyXVtDSDJdW0NIMl1bQ0gyXVtDQEBdKEMoW08tXSk9TykoW05IMytdKVtDSDJdW0NIMl1bTkgrXTFbQ0gyXVtDSDJdW0NIMl1bQ0gyXVtDSDJdMQ==

> <s_epik_cmdline>
J2VwaWtfYXBwJywgJy1pbWFlJywgJ2xpZ2FuZF9wcm8ubWFlJywgJy1vbWFlJywgJ2xpZ2FuZF9wcmVwLm1hZScsICctbXMnLCAnMScsICctcGgnLCAnNycsICctcGh0JywgJzAuNScsICctbnQn

> <r_lp_tautomer_probability>
1

> <r_epik_Ionization_Penalty>
  0.0086

> <r_epik_Ionization_Penalty_Charging>
  0.0086

> <r_epik_Ionization_Penalty_Neutral>
  0.0000

> <r_epik_State_Penalty>
 -0.0000

> <r_epik_Charging_Adjusted_Penalty>
0.00856621660580165

> <i_epik_Tot_Q>
0

> <i_epik_Tot_abs_Q>
4

> <s_epik_Chemistry_Notes>
This compound contains a Lewis acid (boronic acid) which adds nucleophiles to form tetrahedral complexes, lowering the experimental pKa

$$$$
