4hxj_ligand
                    3D
 Schrodinger Suite 2020-3.
 48 47  0  0  1  0            999 V2000
   12.9530  -17.0970   14.1460 N   0  3  0  0  0  0
   14.1870  -17.1600   14.9270 C   0  0  2  0  0  0
   13.8560  -17.2050   16.4190 C   0  0  0  0  0  0
   12.9190  -16.5530   16.8690 O   0  0  0  0  0  0
   15.0900  -15.9730   14.5920 C   0  0  0  0  0  0
   16.5720  -16.2860   14.6360 C   0  0  0  0  0  0
   17.3900  -15.1310   14.0820 C   0  0  0  0  0  0
   18.7650  -15.1630   14.5720 N   0  0  0  0  0  0
   19.7830  -15.7160   13.9200 C   0  0  0  0  0  0
   19.5920  -16.2840   12.7360 N   0  0  0  0  0  0
   20.9970  -15.6960   14.4510 N   0  3  0  0  0  0
   14.6310  -17.9720   17.1800 N   0  0  0  0  0  0
   14.2260  -18.3770   18.5160 C   0  0  0  0  0  0
   14.5480  -17.5100   19.7240 C   0  0  0  0  0  0
   13.8710  -16.5160   19.9860 O   0  0  0  0  0  0
   15.5970  -17.9030   20.4450 N   0  0  0  0  0  0
   15.8220  -17.5440   21.8500 C   0  0  2  0  0  0
   15.1770  -18.6270   22.7100 C   0  0  0  0  0  0
   15.5380  -18.8570   23.8650 O   0  5  0  0  0  0
   15.2400  -16.1720   22.2580 C   0  0  2  0  0  0
   15.9290  -15.1230   21.5690 O   0  0  0  0  0  0
   15.3950  -15.9610   23.7540 C   0  0  0  0  0  0
   14.2650  -19.3110   22.2500 O   0  0  0  0  0  0
   12.3151  -17.9569   14.3983 H   0  0  0  0  0  0
   13.1961  -17.1230   13.0735 H   0  0  0  0  0  0
   12.4192  -16.1637   14.3785 H   0  0  0  0  0  0
   14.6979  -18.0899   14.6368 H   0  0  0  0  0  0
   14.8660  -15.6173   13.5755 H   0  0  0  0  0  0
   14.9108  -15.1612   15.3123 H   0  0  0  0  0  0
   16.8778  -16.4670   15.6770 H   0  0  0  0  0  0
   16.7754  -17.1831   14.0329 H   0  0  0  0  0  0
   17.4112  -15.1903   12.9838 H   0  0  0  0  0  0
   16.9340  -14.1782   14.3890 H   0  0  0  0  0  0
   19.0137  -14.7088   15.5425 H   0  0  0  0  0  0
   18.5862  -16.3032   12.2910 H   0  0  0  0  0  0
   20.4395  -16.7357   12.1995 H   0  0  0  0  0  0
   21.1605  -15.2264   15.4322 H   0  0  0  0  0  0
   15.5997  -18.3007   16.7756 H   0  0  0  0  0  0
   13.1310  -18.4746   18.5534 H   0  0  0  0  0  0
   14.6889  -19.3440   18.7621 H   0  0  0  0  0  0
   16.3227  -18.5390   19.9168 H   0  0  0  0  0  0
   16.9159  -17.4913   21.9532 H   0  0  0  0  0  0
   14.1837  -16.0890   21.9624 H   0  0  0  0  0  0
   15.9344  -15.0982   20.4693 H   0  0  0  0  0  0
   14.8689  -16.7622   24.2937 H   0  0  0  0  0  0
   14.9658  -14.9875   24.0334 H   0  0  0  0  0  0
   16.4626  -15.9805   24.0184 H   0  0  0  0  0  0
   21.8412  -16.1490   13.9106 H   0  0  0  0  0  0
  1  2  1  0  0  0
  1 24  1  0  0  0
  1 25  1  0  0  0
  1 26  1  0  0  0
  2  3  1  0  0  0
  2  5  1  0  0  0
  2 27  1  0  0  0
  3  4  2  0  0  0
  3 12  1  0  0  0
  5  6  1  0  0  0
  5 28  1  0  0  0
  5 29  1  0  0  0
  6  7  1  0  0  0
  6 30  1  0  0  0
  6 31  1  0  0  0
  7  8  1  0  0  0
  7 32  1  0  0  0
  7 33  1  0  0  0
  8  9  1  0  0  0
  8 34  1  0  0  0
  9 10  1  0  0  0
  9 11  2  0  0  0
 10 35  1  0  0  0
 10 36  1  0  0  0
 11 37  1  0  0  0
 11 48  1  0  0  0
 12 13  1  0  0  0
 12 38  1  0  0  0
 13 14  1  0  0  0
 13 39  1  0  0  0
 13 40  1  0  0  0
 14 15  2  0  0  0
 14 16  1  0  0  0
 16 17  1  0  0  0
 16 41  1  0  0  0
 17 18  1  0  0  0
 17 20  1  0  0  0
 17 42  1  0  0  0
 18 19  1  0  0  0
 18 23  2  0  0  0
 20 21  1  0  0  0
 20 22  1  0  0  0
 20 43  1  0  0  0
 21 44  1  0  0  0
 22 45  1  0  0  0
 22 46  1  0  0  0
 22 47  1  0  0  0
M  CHG  3   1   1  11   1  19  -1
M  END
> <s_m_source_file>
../4hxj_ligand.sdf

> <i_m_source_file_index>
1

> <s_epik_input>
W0hdL049QyhbTkgyXSlcW05IXVtDSDJdW0NIMl1bQ0gyXVtDQEhdKFtOSDMrXSlDKD1PKVtOSF1bQ0gyXUMoPU8pW05IXVtDQEhdKEMoPU8pW09IXSlbQ0BIXShbT0hdKVtDSDNd

> <s_epik_cmdline>
J2VwaWtfYXBwJywgJy1pbWFlJywgJ2xpZ2FuZF9wcm8ubWFlJywgJy1vbWFlJywgJ2xpZ2FuZF9wcmVwLm1hZScsICctbXMnLCAnMScsICctcGgnLCAnNycsICctcGh0JywgJzAuNScsICctbnQn

> <r_epik_Ionization_Penalty>
  0.1334

> <r_epik_Ionization_Penalty_Charging>
  0.1334

> <r_epik_Ionization_Penalty_Neutral>
  0.0000

> <r_epik_State_Penalty>
  0.1227

> <r_epik_Charging_Adjusted_Penalty>
0.256104303552239

> <i_epik_Tot_Q>
1

> <i_epik_Tot_abs_Q>
3

> <s_epik_Chemistry_Notes>
This compound has an imine and may undergo hydrolysis.

$$$$
