4hxl_ligand
                    3D
 Schrodinger Suite 2020-3.
 57 60  0  0  1  0            999 V2000
    0.2100   -6.4260   -1.8900 C   0  0  0  0  0  0
    1.6950   -6.4970   -2.0350 C   0  0  0  0  0  0
    2.2020   -7.8820   -2.3090 C   0  0  0  0  0  0
    1.2090   -9.0040   -2.2150 C   0  0  0  0  0  0
   -0.1910   -8.7260   -2.6770 C   0  0  0  0  0  0
   -0.5190   -7.2810   -2.8850 C   0  0  0  0  0  0
   -2.0050   -7.0490   -2.8440 C   0  0  0  0  0  0
   -2.6710   -7.8800   -1.8080 C   0  0  0  0  0  0
   -4.1090   -7.5180   -1.6280 C   0  0  0  0  0  0
   -4.6690   -6.6810   -2.3270 O   0  0  0  0  0  0
   -4.7950   -8.2060   -0.5900 N   0  0  0  0  0  0
   -6.1640   -8.0610   -0.2100 C   0  0  0  0  0  0
   -6.5760   -8.8980    0.8060 C   0  0  0  0  0  0
   -7.0510   -7.1530   -0.7750 C   0  0  0  0  0  0
   -8.3580   -7.1240   -0.3100 C   0  0  0  0  0  0
   -9.3230   -6.1630   -0.8920 C   0  0  0  0  0  0
   -9.0300   -5.1640   -1.8930 C   0  0  0  0  0  0
  -10.4590   -4.3070   -2.2190 S   0  0  0  0  0  0
  -11.4250   -5.1310   -1.1390 C   0  0  0  0  0  0
  -12.6200   -4.9620   -0.8960 O   0  0  0  0  0  0
  -10.6710   -6.0610   -0.5480 N   0  0  0  0  0  0
   -8.7720   -7.9580    0.7170 C   0  0  0  0  0  0
   -7.8750   -8.8550    1.2740 C   0  0  0  0  0  0
   -8.2370   -9.7190    2.3500 N   0  0  0  0  0  0
   -7.4900   -9.4930    3.8030 S   0  0  0  0  0  0
   -8.1430  -10.2260    4.8720 O   0  0  0  0  0  0
   -6.0990   -9.9560    3.6510 O   0  0  0  0  0  0
   -7.4290   -7.7960    4.2970 C   0  0  0  0  0  0
   -6.5950   -6.6600    3.4740 S   0  0  0  0  0  0
   -6.8950   -5.3640    4.4210 C   0  0  0  0  0  0
   -7.7190   -5.7470    5.5150 C   0  0  0  0  0  0
   -8.0450   -7.2060    5.4670 C   0  0  0  0  0  0
   -0.0769   -6.7664   -0.8841 H   0  0  0  0  0  0
   -0.1233   -5.3878   -2.0347 H   0  0  0  0  0  0
    2.0127   -5.8577   -2.8719 H   0  0  0  0  0  0
    2.1712   -6.1489   -1.1065 H   0  0  0  0  0  0
    2.6047   -7.9294   -3.3316 H   0  0  0  0  0  0
    2.9967   -8.1305   -1.5901 H   0  0  0  0  0  0
    1.5549   -9.8518   -2.8247 H   0  0  0  0  0  0
    1.1128   -9.3217   -1.1663 H   0  0  0  0  0  0
   -0.3658   -9.2282   -3.6400 H   0  0  0  0  0  0
   -0.9053   -9.1046   -1.9310 H   0  0  0  0  0  0
   -0.1730   -6.9922   -3.8884 H   0  0  0  0  0  0
   -2.2048   -5.9916   -2.6161 H   0  0  0  0  0  0
   -2.4428   -7.3027   -3.8207 H   0  0  0  0  0  0
   -2.6207   -8.9394   -2.0997 H   0  0  0  0  0  0
   -2.1617   -7.7408   -0.8430 H   0  0  0  0  0  0
   -4.2623   -8.9466    0.0245 H   0  0  0  0  0  0
   -5.8684   -9.6015    1.2447 H   0  0  0  0  0  0
   -6.7270   -6.4777   -1.5669 H   0  0  0  0  0  0
   -8.0598   -4.9903   -2.3584 H   0  0  0  0  0  0
  -11.1003   -6.7419    0.2017 H   0  0  0  0  0  0
   -9.7971   -7.9084    1.0841 H   0  0  0  0  0  0
   -8.9870  -10.5155    2.2351 H   0  0  0  0  0  0
   -6.5199   -4.3564    4.2415 H   0  0  0  0  0  0
   -8.0684   -5.0644    6.2896 H   0  0  0  0  0  0
   -8.6511   -7.7411    6.1980 H   0  0  0  0  0  0
  1  2  1  0  0  0
  1  6  1  0  0  0
  1 33  1  0  0  0
  1 34  1  0  0  0
  2  3  1  0  0  0
  2 35  1  0  0  0
  2 36  1  0  0  0
  3  4  1  0  0  0
  3 37  1  0  0  0
  3 38  1  0  0  0
  4  5  1  0  0  0
  4 39  1  0  0  0
  4 40  1  0  0  0
  5  6  1  0  0  0
  5 41  1  0  0  0
  5 42  1  0  0  0
  6  7  1  0  0  0
  6 43  1  0  0  0
  7  8  1  0  0  0
  7 44  1  0  0  0
  7 45  1  0  0  0
  8  9  1  0  0  0
  8 46  1  0  0  0
  8 47  1  0  0  0
  9 10  2  0  0  0
  9 11  1  0  0  0
 11 12  1  0  0  0
 11 48  1  0  0  0
 12 13  2  0  0  0
 12 14  1  0  0  0
 13 23  1  0  0  0
 13 49  1  0  0  0
 14 15  2  0  0  0
 14 50  1  0  0  0
 15 16  1  0  0  0
 15 22  1  0  0  0
 16 17  2  0  0  0
 16 21  1  0  0  0
 17 18  1  0  0  0
 17 51  1  0  0  0
 18 19  1  0  0  0
 19 20  2  0  0  0
 19 21  1  0  0  0
 21 52  1  0  0  0
 22 23  2  0  0  0
 22 53  1  0  0  0
 23 24  1  0  0  0
 24 25  1  0  0  0
 24 54  1  0  0  0
 25 26  2  0  0  0
 25 27  2  0  0  0
 25 28  1  0  0  0
 28 29  1  0  0  0
 28 32  2  0  0  0
 29 30  1  0  0  0
 30 31  2  0  0  0
 30 55  1  0  0  0
 31 32  1  0  0  0
 31 56  1  0  0  0
 32 57  1  0  0  0
M  END
> <s_m_source_file>
../4hxl_ligand.sdf

> <i_m_source_file_index>
1

> <s_epik_input>
W0NIMl0xW0NIMl1bQ0gyXVtDSDJdW0NIMl1bQ0hdMVtDSDJdW0NIMl1DKD1PKVtOSF1jMltjSF1jKFtjSF1jKFtjSF0yKS1jM1tjSF1zYyg9TylbbkhdMylbTkhdUyg9TykoPU8pYzRzW2NIXVtjSF1bY0hdNA==

> <s_epik_cmdline>
J2VwaWtfYXBwJywgJy1pbWFlJywgJ2xpZ2FuZF9wcm8ubWFlJywgJy1vbWFlJywgJ2xpZ2FuZF9wcmVwLm1hZScsICctbXMnLCAnMScsICctcGgnLCAnNycsICctcGh0JywgJzAuNScsICctbnQn

> <r_epik_Ionization_Penalty>
  0.3614

> <r_epik_Ionization_Penalty_Charging>
  0.0004

> <r_epik_Ionization_Penalty_Neutral>
  0.3610

> <r_epik_State_Penalty>
  0.3578

> <r_epik_Charging_Adjusted_Penalty>
0.358199129471894

> <i_epik_Tot_Q>
0

> <i_epik_Tot_abs_Q>
0

$$$$
