4hxm_ligand
                    3D
 Schrodinger Suite 2020-3.
 44 46  0  0  1  0            999 V2000
    2.7340   -8.6040    3.9760 C   0  0  0  0  0  0
    2.1750   -7.5330    3.1060 C   0  0  0  0  0  0
    2.6260   -7.7690    1.7080 C   0  0  0  0  0  0
    4.0850   -7.4850    1.5620 C   0  0  0  0  0  0
    4.6420   -6.6930    2.3070 O   0  0  0  0  0  0
    4.7660   -8.1700    0.5200 N   0  0  0  0  0  0
    6.1490   -8.0680    0.1710 C   0  0  0  0  0  0
    6.5910   -8.9160   -0.8280 C   0  0  0  0  0  0
    7.0280   -7.1700    0.7630 C   0  0  0  0  0  0
    8.3430   -7.1550    0.3480 C   0  0  0  0  0  0
    9.3090   -6.2040    0.9450 C   0  0  0  0  0  0
    9.0290   -5.2310    1.9660 C   0  0  0  0  0  0
   10.4570   -4.3790    2.2890 S   0  0  0  0  0  0
   11.4000   -5.1840    1.1640 C   0  0  0  0  0  0
   12.5880   -5.0180    0.9080 O   0  0  0  0  0  0
   10.6450   -6.0990    0.5710 N   0  0  0  0  0  0
    8.7970   -7.9940   -0.6510 C   0  0  0  0  0  0
    7.9150   -8.8780   -1.2380 C   0  0  0  0  0  0
    8.3560   -9.7050   -2.3000 N   0  0  0  0  0  0
    7.6770   -9.3290   -3.7530 S   0  0  0  0  0  0
    6.3710   -9.9480   -3.7540 O   0  0  0  0  0  0
    8.3230  -10.0440   -4.8380 O   0  0  0  0  0  0
    7.4640   -7.5900   -4.1600 C   0  0  0  0  0  0
    6.6430   -6.4990   -3.2720 S   0  0  0  0  0  0
    6.7420   -5.1400   -4.1570 C   0  0  0  0  0  0
    7.4740   -5.4390   -5.3330 C   0  0  0  0  0  0
    7.8970   -6.8890   -5.3510 C   0  0  0  0  0  0
    2.4076   -8.4410    5.0137 H   0  0  0  0  0  0
    3.8327   -8.5785    3.9288 H   0  0  0  0  0  0
    2.3747   -9.5837    3.6282 H   0  0  0  0  0  0
    1.0763   -7.5585    3.1532 H   0  0  0  0  0  0
    2.5343   -6.5532    3.4538 H   0  0  0  0  0  0
    2.4417   -8.8187    1.4355 H   0  0  0  0  0  0
    2.0681   -7.1099    1.0265 H   0  0  0  0  0  0
    4.2188   -8.8726   -0.1257 H   0  0  0  0  0  0
    5.8972   -9.6157   -1.2940 H   0  0  0  0  0  0
    6.6844   -6.4892    1.5418 H   0  0  0  0  0  0
    8.0650   -5.0696    2.4485 H   0  0  0  0  0  0
   11.0540   -6.7668   -0.2015 H   0  0  0  0  0  0
    9.8382   -7.9582   -0.9714 H   0  0  0  0  0  0
    9.0775  -10.5322   -2.2277 H   0  0  0  0  0  0
    6.3202   -4.1702   -3.8930 H   0  0  0  0  0  0
    7.7013   -4.7191   -6.1192 H   0  0  0  0  0  0
    8.4598   -7.3515   -6.1619 H   0  0  0  0  0  0
  1  2  1  0  0  0
  1 28  1  0  0  0
  1 29  1  0  0  0
  1 30  1  0  0  0
  2  3  1  0  0  0
  2 31  1  0  0  0
  2 32  1  0  0  0
  3  4  1  0  0  0
  3 33  1  0  0  0
  3 34  1  0  0  0
  4  5  2  0  0  0
  4  6  1  0  0  0
  6  7  1  0  0  0
  6 35  1  0  0  0
  7  8  2  0  0  0
  7  9  1  0  0  0
  8 18  1  0  0  0
  8 36  1  0  0  0
  9 10  2  0  0  0
  9 37  1  0  0  0
 10 11  1  0  0  0
 10 17  1  0  0  0
 11 12  2  0  0  0
 11 16  1  0  0  0
 12 13  1  0  0  0
 12 38  1  0  0  0
 13 14  1  0  0  0
 14 15  2  0  0  0
 14 16  1  0  0  0
 16 39  1  0  0  0
 17 18  2  0  0  0
 17 40  1  0  0  0
 18 19  1  0  0  0
 19 20  1  0  0  0
 19 41  1  0  0  0
 20 21  2  0  0  0
 20 22  2  0  0  0
 20 23  1  0  0  0
 23 24  1  0  0  0
 23 27  2  0  0  0
 24 25  1  0  0  0
 25 26  2  0  0  0
 25 42  1  0  0  0
 26 27  1  0  0  0
 26 43  1  0  0  0
 27 44  1  0  0  0
M  END
> <s_m_source_file>
../4hxm_ligand.sdf

> <i_m_source_file_index>
1

> <s_epik_input>
W0NIM11bQ0gyXVtDSDJdQyg9TylbTkhdYzFbY0hdYyhbY0hdYyhbY0hdMSktYzJbY0hdc2MoPU8pW25IXTIpW05IXVMoPU8pKD1PKWMzc1tjSF1bY0hdW2NIXTM=

> <s_epik_cmdline>
J2VwaWtfYXBwJywgJy1pbWFlJywgJ2xpZ2FuZF9wcm8ubWFlJywgJy1vbWFlJywgJ2xpZ2FuZF9wcmVwLm1hZScsICctbXMnLCAnMScsICctcGgnLCAnNycsICctcGh0JywgJzAuNScsICctbnQn

> <r_epik_Ionization_Penalty>
  0.3626

> <r_epik_Ionization_Penalty_Charging>
  0.0004

> <r_epik_Ionization_Penalty_Neutral>
  0.3622

> <r_epik_State_Penalty>
  0.3591

> <r_epik_Charging_Adjusted_Penalty>
0.359498342277276

> <i_epik_Tot_Q>
0

> <i_epik_Tot_abs_Q>
0

$$$$
