4hxq_ligand.****
                    3D
 Schrodinger Suite 2020-3.
 53 53  0  0  1  0            999 V2000
  -19.9800   15.9630  -10.4950 O   0  0  0  0  0  0
  -20.2280   16.3940  -11.6250 C   0  0  0  0  0  0
  -19.5570   15.9790  -12.5890 O   0  5  0  0  0  0
  -21.3240   17.4270  -11.8700 C   0  0  1  0  0  0
  -21.3190   17.8040  -13.2820 N   0  3  0  0  0  0
  -22.3250   18.6340  -13.9260 C   0  0  0  0  0  0
  -22.7030   16.8710  -11.5170 C   0  0  0  0  0  0
  -22.9470   15.4360  -11.9760 C   0  0  0  0  0  0
  -24.4050   14.9910  -11.8310 C   0  0  0  0  0  0
  -24.6010   13.5360  -12.2480 C   0  0  0  0  0  0
  -26.1210   13.0630  -12.3330 B   0  5  0  0  0  0
  -26.6270   13.6730  -13.6250 O   0  0  0  0  0  0
  -26.1196   13.4487  -14.5749 H   0  0  0  0  0  0
  -26.3980   11.6190  -12.6610 O   0  0  0  0  0  0
  -27.0820   13.6250  -11.3290 O   0  0  0  0  0  0
  -21.0870   18.6470  -10.9800 C   0  0  0  0  0  0
  -19.7740   19.3590  -11.2980 C   0  0  0  0  0  0
  -19.8410   20.7660  -10.8370 N   0  3  0  0  0  0
  -20.0740   20.8340   -9.3920 C   0  0  0  0  0  0
  -20.3450   22.2740   -9.0000 C   0  0  0  0  0  0
  -19.1750   23.1800   -9.3640 C   0  0  0  0  0  0
  -18.8160   22.9880  -10.8300 C   0  0  0  0  0  0
  -18.6150   21.5110  -11.1500 C   0  0  0  0  0  0
  -20.4002   18.3648  -13.5085 H   0  0  0  0  0  0
  -21.3579   16.8974  -13.9037 H   0  0  0  0  0  0
  -22.0733   18.7562  -14.9898 H   0  0  0  0  0  0
  -22.3524   19.6204  -13.4400 H   0  0  0  0  0  0
  -23.3101   18.1530  -13.8352 H   0  0  0  0  0  0
  -22.8345   16.8828  -10.4250 H   0  0  0  0  0  0
  -23.4800   17.4921  -11.9866 H   0  0  0  0  0  0
  -22.6762   15.3396  -13.0378 H   0  0  0  0  0  0
  -22.3309   14.7495  -11.3767 H   0  0  0  0  0  0
  -24.7168   15.0930  -10.7811 H   0  0  0  0  0  0
  -25.0454   15.6203  -12.4665 H   0  0  0  0  0  0
  -24.1640   13.3783  -13.2451 H   0  0  0  0  0  0
  -24.1042   12.8762  -11.5215 H   0  0  0  0  0  0
  -25.7632   11.0880  -13.3856 H   0  0  0  0  0  0
  -26.9881   14.6716  -11.0037 H   0  0  0  0  0  0
  -21.9054   19.3684  -11.1212 H   0  0  0  0  0  0
  -21.0539   18.3316   -9.9267 H   0  0  0  0  0  0
  -18.9460   18.8475  -10.7853 H   0  0  0  0  0  0
  -19.6003   19.3401  -12.3840 H   0  0  0  0  0  0
  -20.6810   21.2367  -11.3688 H   0  0  0  0  0  0
  -20.9413   20.2099   -9.1307 H   0  0  0  0  0  0
  -19.1843   20.4668   -8.8594 H   0  0  0  0  0  0
  -21.2417   22.6345   -9.5254 H   0  0  0  0  0  0
  -20.5076   22.3339   -7.9137 H   0  0  0  0  0  0
  -19.4563   24.2293   -9.1915 H   0  0  0  0  0  0
  -18.3062   22.9258   -8.7391 H   0  0  0  0  0  0
  -19.6277   23.3799  -11.4606 H   0  0  0  0  0  0
  -17.8845   23.5288  -11.0533 H   0  0  0  0  0  0
  -17.7829   21.1172  -10.5479 H   0  0  0  0  0  0
  -18.3799   21.3979  -12.2186 H   0  0  0  0  0  0
  1  2  2  0  0  0
  2  3  1  0  0  0
  2  4  1  0  0  0
  4  5  1  0  0  0
  4  7  1  0  0  0
  4 16  1  0  0  0
  5  6  1  0  0  0
  5 24  1  0  0  0
  5 25  1  0  0  0
  6 26  1  0  0  0
  6 27  1  0  0  0
  6 28  1  0  0  0
  7  8  1  0  0  0
  7 29  1  0  0  0
  7 30  1  0  0  0
  8  9  1  0  0  0
  8 31  1  0  0  0
  8 32  1  0  0  0
  9 10  1  0  0  0
  9 33  1  0  0  0
  9 34  1  0  0  0
 10 11  1  0  0  0
 10 35  1  0  0  0
 10 36  1  0  0  0
 11 12  1  0  0  0
 11 14  1  0  0  0
 11 15  1  0  0  0
 12 13  1  0  0  0
 14 37  1  0  0  0
 15 38  1  0  0  0
 16 17  1  0  0  0
 16 39  1  0  0  0
 16 40  1  0  0  0
 17 18  1  0  0  0
 17 41  1  0  0  0
 17 42  1  0  0  0
 18 19  1  0  0  0
 18 23  1  0  0  0
 18 43  1  0  0  0
 19 20  1  0  0  0
 19 44  1  0  0  0
 19 45  1  0  0  0
 20 21  1  0  0  0
 20 46  1  0  0  0
 20 47  1  0  0  0
 21 22  1  0  0  0
 21 48  1  0  0  0
 21 49  1  0  0  0
 22 23  1  0  0  0
 22 50  1  0  0  0
 22 51  1  0  0  0
 23 52  1  0  0  0
 23 53  1  0  0  0
M  CHG  4   3  -1   5   1  11  -1  18   1
M  END
> <s_m_source_file>
../4hxq_ligand.sdf

> <i_m_source_file_index>
1

> <s_epik_input>
W09IXVtCLV0oW09IXSkoW09IXSlbQ0gyXVtDSDJdW0NIMl1bQ0gyXVtDQEBdKEMoPU8pW08tXSkoW05IMitdW0NIM10pW0NIMl1bQ0gyXVtOSCtdMVtDSDJdW0NIMl1bQ0gyXVtDSDJdW0NIMl0x

> <s_epik_cmdline>
J2VwaWtfYXBwJywgJy1pbWFlJywgJ2xpZ2FuZF9wcm8ubWFlJywgJy1vbWFlJywgJ2xpZ2FuZF9wcmVwLm1hZScsICctbXMnLCAnMScsICctcGgnLCAnNycsICctcGh0JywgJzAuNScsICctbnQn

> <r_lp_tautomer_probability>
1

> <r_epik_Ionization_Penalty>
  0.0049

> <r_epik_Ionization_Penalty_Charging>
  0.0049

> <r_epik_Ionization_Penalty_Neutral>
  0.0000

> <r_epik_State_Penalty>
 -0.0000

> <r_epik_Charging_Adjusted_Penalty>
0.00490241958336678

> <i_epik_Tot_Q>
0

> <i_epik_Tot_abs_Q>
4

> <s_epik_Chemistry_Notes>
This compound contains a Lewis acid (boronic acid) which adds nucleophiles to form tetrahedral complexes, lowering the experimental pKa

$$$$
