4hxw_ligand
                    3D
 Schrodinger Suite 2020-3.
 49 53  0  0  1  0            999 V2000
  -10.2520   -2.0580  -11.6330 Cl  0  0  0  0  0  0
  -11.4390   -3.2190  -12.3830 C   0  0  0  0  0  0
  -12.8360   -3.2850  -11.9440 C   0  0  0  0  0  0
  -13.5160   -2.3860  -10.9470 C   0  0  0  0  0  0
  -14.5220   -3.1800  -10.1330 C   0  0  0  0  0  0
  -13.3700   -4.3050  -12.6490 N   0  3  0  0  0  0
  -11.1370   -4.2570  -13.3710 C   0  0  0  0  0  0
  -10.0280   -4.8160  -14.2030 C   0  0  0  0  0  0
   -8.7430   -4.2900  -14.3300 N   0  0  0  0  0  0
   -8.4080   -2.9320  -13.9180 C   0  0  0  0  0  0
   -7.4600   -2.5140  -15.0450 C   0  0  2  0  0  0
   -8.2050   -1.8840  -16.1230 N   0  3  0  0  0  0
   -6.8560   -3.8070  -15.5810 C   0  0  0  0  0  0
   -7.7370   -4.9760  -15.1360 C   0  0  0  0  0  0
  -10.3350   -5.8590  -14.9960 N   0  0  0  0  0  0
  -11.5680   -6.4050  -15.0230 C   0  0  0  0  0  0
  -12.6020   -5.9440  -14.3050 N   0  0  0  0  0  0
  -12.4680   -4.9010  -13.4590 C   0  0  0  0  0  0
  -11.8630   -7.7780  -15.9510 S   0  0  0  0  0  0
  -10.6030   -8.1070  -17.0530 C   0  0  0  0  0  0
   -9.9860   -7.0450  -17.7180 C   0  0  0  0  0  0
   -9.0010   -7.2200  -18.6120 N   0  0  0  0  0  0
   -8.5770   -8.4700  -18.9000 C   0  0  0  0  0  0
   -7.5850   -8.6720  -19.8070 N   0  0  0  0  0  0
   -7.1730   -9.9130  -20.0790 C   0  0  0  0  0  0
   -7.7580  -11.0140  -19.4530 C   0  0  0  0  0  0
   -8.7450  -10.8690  -18.5510 N   0  0  0  0  0  0
   -9.1980   -9.6380  -18.2290 C   0  0  0  0  0  0
  -10.2230   -9.4300  -17.3010 C   0  0  0  0  0  0
  -12.7640   -1.9536  -10.2706 H   0  0  0  0  0  0
  -14.0387   -1.5775  -11.4791 H   0  0  0  0  0  0
  -15.0134   -2.5149   -9.4077 H   0  0  0  0  0  0
  -14.0034   -3.9882   -9.5965 H   0  0  0  0  0  0
  -15.2780   -3.6122  -10.8050 H   0  0  0  0  0  0
   -9.3255   -2.3273  -13.8676 H   0  0  0  0  0  0
   -7.9303   -2.9566  -12.9275 H   0  0  0  0  0  0
   -6.7159   -1.7754  -14.7122 H   0  0  0  0  0  0
   -8.6519   -0.9464  -15.7607 H   0  0  0  0  0  0
   -9.0013   -2.5622  -16.4635 H   0  0  0  0  0  0
   -7.5254   -1.6668  -16.9603 H   0  0  0  0  0  0
   -6.8151   -3.7648  -16.6794 H   0  0  0  0  0  0
   -5.8388   -3.9301  -15.1807 H   0  0  0  0  0  0
   -7.2051   -5.7094  -14.5121 H   0  0  0  0  0  0
   -8.2284   -5.4942  -15.9727 H   0  0  0  0  0  0
  -10.3192   -6.0300  -17.5013 H   0  0  0  0  0  0
   -6.3695  -10.0675  -20.7992 H   0  0  0  0  0  0
   -7.4068  -12.0156  -19.7009 H   0  0  0  0  0  0
  -10.7058  -10.2642  -16.7920 H   0  0  0  0  0  0
  -14.4318   -4.5635  -12.5239 H   0  0  0  0  0  0
  1  2  1  0  0  0
  2  3  2  0  0  0
  2  7  1  0  0  0
  3  4  1  0  0  0
  3  6  1  0  0  0
  4  5  1  0  0  0
  4 30  1  0  0  0
  4 31  1  0  0  0
  5 32  1  0  0  0
  5 33  1  0  0  0
  5 34  1  0  0  0
  6 18  2  0  0  0
  6 49  1  0  0  0
  7  8  2  0  0  0
  7 18  1  0  0  0
  8  9  1  0  0  0
  8 15  1  0  0  0
  9 10  1  0  0  0
  9 14  1  0  0  0
 10 11  1  0  0  0
 10 35  1  0  0  0
 10 36  1  0  0  0
 11 12  1  0  0  0
 11 13  1  0  0  0
 11 37  1  0  0  0
 12 38  1  0  0  0
 12 39  1  0  0  0
 12 40  1  0  0  0
 13 14  1  0  0  0
 13 41  1  0  0  0
 13 42  1  0  0  0
 14 43  1  0  0  0
 14 44  1  0  0  0
 15 16  2  0  0  0
 16 17  1  0  0  0
 16 19  1  0  0  0
 17 18  1  0  0  0
 19 20  1  0  0  0
 20 21  2  0  0  0
 20 29  1  0  0  0
 21 22  1  0  0  0
 21 45  1  0  0  0
 22 23  2  0  0  0
 23 24  1  0  0  0
 23 28  1  0  0  0
 24 25  2  0  0  0
 25 26  1  0  0  0
 25 46  1  0  0  0
 26 27  2  0  0  0
 26 47  1  0  0  0
 27 28  1  0  0  0
 28 29  2  0  0  0
 29 48  1  0  0  0
M  CHG  2   6   1  12   1
M  END
> <s_m_source_file>
../4hxw_ligand.sdf

> <i_m_source_file_index>
1

> <s_epik_input>
W0NIMl0xW0NIMl1bQ0BASF0oW05IMytdKVtDSDJdTjFjMm5jKFtuSF1jKGMyMyluYyhjM0NsKVtDSDJdW0NIM10pU2MoW2NIXW40KVtjSF1jKGM0NSluW2NIXVtjSF1uNQ==

> <s_epik_cmdline>
J2VwaWtfYXBwJywgJy1pbWFlJywgJ2xpZ2FuZF9wcm8ubWFlJywgJy1vbWFlJywgJ2xpZ2FuZF9wcmVwLm1hZScsICctbXMnLCAnMScsICctcGgnLCAnNycsICctcGh0JywgJzAuNScsICctbnQn

> <r_lp_tautomer_probability>
1

> <r_epik_Ionization_Penalty>
  0.0017

> <r_epik_Ionization_Penalty_Charging>
  0.0017

> <r_epik_Ionization_Penalty_Neutral>
  0.0000

> <r_epik_State_Penalty>
 -0.0000

> <r_epik_Charging_Adjusted_Penalty>
0.00174007597099531

> <i_epik_Tot_Q>
2

> <i_epik_Tot_abs_Q>
2

$$$$
