4hy0_ligand
                    3D
 Schrodinger Suite 2020-3.
 90 94  0  0  1  0            999 V2000
   -0.5860    1.0650  -35.5510 N   0  3  0  0  0  0
   -0.2600   -0.3650  -35.3670 C   0  0  0  0  0  0
   -0.8190    1.7640  -34.2770 C   0  0  1  0  0  0
   -0.8940    3.2770  -34.4810 C   0  0  0  0  0  0
   -2.1150    1.2870  -33.6820 C   0  0  0  0  0  0
   -3.1210    1.2180  -34.3460 O   0  0  0  0  0  0
   -3.7440    1.6040  -30.8120 C   0  0  0  0  0  0
   -2.8940    2.3680  -30.4040 O   0  0  0  0  0  0
   -3.2610    0.4440  -31.6520 C   0  0  1  0  0  0
   -2.1060    0.9380  -32.3920 N   0  0  0  0  0  0
   -2.6380   -0.7250  -30.8870 C   0  0  0  0  0  0
   -3.2880   -1.1050  -29.5580 C   0  0  0  0  0  0
   -2.2940   -2.0640  -28.8800 C   0  0  0  0  0  0
   -1.9300   -3.2640  -29.7840 C   0  0  0  0  0  0
   -0.8660   -3.9690  -29.2260 F   0  0  0  0  0  0
   -3.0350   -4.1100  -29.8740 F   0  0  0  0  0  0
   -1.5130   -2.8730  -31.2030 C   0  0  0  0  0  0
   -2.5900   -1.9630  -31.7900 C   0  0  0  0  0  0
  -11.1230   -1.6940  -28.9500 C   0  0  0  0  0  0
  -11.4560   -0.2230  -29.2390 C   0  0  0  0  0  0
  -10.3180    0.6050  -28.9410 O   0  0  0  0  0  0
   -9.7770    1.3780  -30.0270 C   0  0  2  0  0  0
   -8.6680    0.5900  -30.7870 C   0  0  0  0  0  0
   -7.5250    1.6170  -30.9320 C   0  0  2  0  0  0
   -6.1410    0.9540  -30.9850 C   0  0  0  0  0  0
   -5.0520    1.8590  -30.5190 N   0  0  0  0  0  0
   -5.3330    3.0550  -29.6980 C   0  0  1  0  0  0
   -6.7840    3.5530  -29.8050 C   0  0  0  0  0  0
   -7.6410    2.4010  -29.6760 N   0  3  1  0  0  0
   -9.0710    2.6360  -29.4700 C   0  0  0  0  0  0
   -5.0590    2.7500  -28.2590 C   0  0  0  0  0  0
   -4.9910    1.5980  -27.8890 O   0  0  0  0  0  0
   -4.9000    3.7880  -27.4160 N   0  0  0  0  0  0
   -4.6400    3.5980  -25.9890 C   0  0  2  0  0  0
   -6.0100    3.4290  -25.3180 C   0  0  0  0  0  0
   -5.9720    3.9200  -23.8650 C   0  0  0  0  0  0
   -5.5330    5.2810  -23.8350 O   0  0  0  0  0  0
   -4.3300    5.5540  -24.4030 C   0  0  0  0  0  0
   -3.5870    6.6290  -23.9200 C   0  0  0  0  0  0
   -2.3660    6.9270  -24.4920 C   0  0  0  0  0  0
   -1.8870    6.1510  -25.5380 C   0  0  0  0  0  0
   -2.6220    5.0800  -26.0170 C   0  0  0  0  0  0
   -3.8540    4.7790  -25.4520 C   0  0  0  0  0  0
    0.2474    1.5681  -36.0633 H   0  0  0  0  0  0
   -1.4989    1.1579  -36.1576 H   0  0  0  0  0  0
   -0.0970   -0.8332  -36.3490 H   0  0  0  0  0  0
   -1.0934   -0.8681  -34.8547 H   0  0  0  0  0  0
    0.6529   -0.4578  -34.7604 H   0  0  0  0  0  0
    0.0272    1.5134  -33.6204 H   0  0  0  0  0  0
    0.0504    3.6355  -34.9163 H   0  0  0  0  0  0
   -1.0615    3.7698  -33.5119 H   0  0  0  0  0  0
   -1.7249    3.5145  -35.1616 H   0  0  0  0  0  0
   -4.1343    0.1169  -32.2353 H   0  0  0  0  0  0
   -1.1347    1.0465  -31.8872 H   0  0  0  0  0  0
   -1.6384   -0.3586  -30.6104 H   0  0  0  0  0  0
   -3.4487   -0.1985  -28.9560 H   0  0  0  0  0  0
   -4.2544   -1.5943  -29.7491 H   0  0  0  0  0  0
   -1.3666   -1.5225  -28.6417 H   0  0  0  0  0  0
   -2.7376   -2.4570  -27.9533 H   0  0  0  0  0  0
   -0.5501   -2.3423  -31.1691 H   0  0  0  0  0  0
   -1.4106   -3.7793  -31.8180 H   0  0  0  0  0  0
   -3.5725   -2.4577  -31.7865 H   0  0  0  0  0  0
   -2.3363   -1.6587  -32.8162 H   0  0  0  0  0  0
  -11.9977   -2.3200  -29.1803 H   0  0  0  0  0  0
  -10.8595   -1.8085  -27.8882 H   0  0  0  0  0  0
  -10.2733   -2.0071  -29.5745 H   0  0  0  0  0  0
  -11.7195   -0.1085  -30.3008 H   0  0  0  0  0  0
  -12.3057    0.0902  -28.6145 H   0  0  0  0  0  0
  -10.6643    1.5890  -30.6420 H   0  0  0  0  0  0
   -8.3686   -0.2863  -30.1933 H   0  0  0  0  0  0
   -9.0564    0.2577  -31.7610 H   0  0  0  0  0  0
   -7.6094    2.2288  -31.8423 H   0  0  0  0  0  0
   -6.1368    0.0621  -30.3411 H   0  0  0  0  0  0
   -5.9148    0.6597  -32.0205 H   0  0  0  0  0  0
   -4.6480    3.8219  -30.0887 H   0  0  0  0  0  0
   -6.9838    4.2758  -29.0003 H   0  0  0  0  0  0
   -6.9338    4.0393  -30.7802 H   0  0  0  0  0  0
   -7.2822    1.9275  -28.7502 H   0  0  0  0  0  0
   -9.4167    3.5240  -30.0195 H   0  0  0  0  0  0
   -9.3112    2.7489  -28.4025 H   0  0  0  0  0  0
   -4.9712    4.8040  -27.8316 H   0  0  0  0  0  0
   -4.0148    2.7076  -25.8268 H   0  0  0  0  0  0
   -6.7625    4.0123  -25.8689 H   0  0  0  0  0  0
   -6.2930    2.3661  -25.3248 H   0  0  0  0  0  0
   -6.9788    3.8490  -23.4275 H   0  0  0  0  0  0
   -5.2755    3.2964  -23.2853 H   0  0  0  0  0  0
   -3.9674    7.2315  -23.0951 H   0  0  0  0  0  0
   -1.7803    7.7690  -24.1231 H   0  0  0  0  0  0
   -0.9223    6.3871  -25.9870 H   0  0  0  0  0  0
   -2.2342    4.4743  -26.8361 H   0  0  0  0  0  0
  1  2  1  0  0  0
  1  3  1  0  0  0
  1 44  1  0  0  0
  1 45  1  0  0  0
  2 46  1  0  0  0
  2 47  1  0  0  0
  2 48  1  0  0  0
  3  4  1  0  0  0
  3  5  1  0  0  0
  3 49  1  0  0  0
  4 50  1  0  0  0
  4 51  1  0  0  0
  4 52  1  0  0  0
  5  6  2  0  0  0
  5 10  1  0  0  0
  7  8  2  0  0  0
  7  9  1  0  0  0
  7 26  1  0  0  0
  9 10  1  0  0  0
  9 11  1  0  0  0
  9 53  1  0  0  0
 10 54  1  0  0  0
 11 12  1  0  0  0
 11 18  1  0  0  0
 11 55  1  0  0  0
 12 13  1  0  0  0
 12 56  1  0  0  0
 12 57  1  0  0  0
 13 14  1  0  0  0
 13 58  1  0  0  0
 13 59  1  0  0  0
 14 15  1  0  0  0
 14 16  1  0  0  0
 14 17  1  0  0  0
 17 18  1  0  0  0
 17 60  1  0  0  0
 17 61  1  0  0  0
 18 62  1  0  0  0
 18 63  1  0  0  0
 19 20  1  0  0  0
 19 64  1  0  0  0
 19 65  1  0  0  0
 19 66  1  0  0  0
 20 21  1  0  0  0
 20 67  1  0  0  0
 20 68  1  0  0  0
 21 22  1  0  0  0
 22 23  1  0  0  0
 22 30  1  0  0  0
 22 69  1  0  0  0
 23 24  1  0  0  0
 23 70  1  0  0  0
 23 71  1  0  0  0
 24 25  1  0  0  0
 24 29  1  0  0  0
 24 72  1  0  0  0
 25 26  1  0  0  0
 25 73  1  0  0  0
 25 74  1  0  0  0
 26 27  1  0  0  0
 27 28  1  0  0  0
 27 31  1  0  0  0
 27 75  1  0  0  0
 28 29  1  0  0  0
 28 76  1  0  0  0
 28 77  1  0  0  0
 29 30  1  0  0  0
 29 78  1  0  0  0
 30 79  1  0  0  0
 30 80  1  0  0  0
 31 32  2  0  0  0
 31 33  1  0  0  0
 33 34  1  0  0  0
 33 81  1  0  0  0
 34 35  1  0  0  0
 34 43  1  0  0  0
 34 82  1  0  0  0
 35 36  1  0  0  0
 35 83  1  0  0  0
 35 84  1  0  0  0
 36 37  1  0  0  0
 36 85  1  0  0  0
 36 86  1  0  0  0
 37 38  1  0  0  0
 38 39  2  0  0  0
 38 43  1  0  0  0
 39 40  1  0  0  0
 39 87  1  0  0  0
 40 41  2  0  0  0
 40 88  1  0  0  0
 41 42  1  0  0  0
 41 89  1  0  0  0
 42 43  2  0  0  0
 42 90  1  0  0  0
M  CHG  2   1   1  29   1
M  END
> <s_m_source_file>
../4hy0_ligand.sdf

> <i_m_source_file_index>
1

> <s_epik_input>
W0NIM11bTkgyK11bQ0BASF0oW0NIM10pQyg9TylbTkhdW0NAQEhdKFtDSF0oW0NIMl1bQ0gyXTEpW0NIMl1bQ0gyXUMxKEYpRilDKD1PKU4oW0NIMl0yKVtDQEBIXShbQ0gyXVtOQEgrXShbQ0BASF0yMylbQ0gyXVtDQEBIXShbQ0gyXTMpT1tDSDJdW0NIM10pQyg9TylbTkhdW0NASF0oW0NIMl1bQ0gyXU80KWMoYzQ1KVtjSF1bY0hdW2NIXVtjSF01

> <s_epik_cmdline>
J2VwaWtfYXBwJywgJy1pbWFlJywgJ2xpZ2FuZF9wcm8ubWFlJywgJy1vbWFlJywgJ2xpZ2FuZF9wcmVwLm1hZScsICctbXMnLCAnMScsICctcGgnLCAnNycsICctcGh0JywgJzAuNScsICctbnQn

> <r_lp_tautomer_probability>
1

> <r_epik_Ionization_Penalty>
  0.1120

> <r_epik_Ionization_Penalty_Charging>
  0.1120

> <r_epik_Ionization_Penalty_Neutral>
  0.0000

> <r_epik_State_Penalty>
 -0.0000

> <r_epik_Charging_Adjusted_Penalty>
0.11196323147617

> <i_epik_Tot_Q>
2

> <i_epik_Tot_abs_Q>
2

$$$$
