4hy4_ligand
                    3D
 Schrodinger Suite 2020-3.
 85 89  0  0  1  0            999 V2000
   23.0060   -4.6830   -9.6420 N   0  3  0  0  0  0
   24.4500   -4.5360   -9.3930 C   0  0  0  0  0  0
   22.6160   -6.0490  -10.0410 C   0  0  1  0  0  0
   21.0900   -6.1960   -9.9970 C   0  0  0  0  0  0
   23.1040   -6.3560  -11.4330 C   0  0  0  0  0  0
   23.4170   -5.4390  -12.1780 O   0  0  0  0  0  0
   23.2020   -7.6530  -11.7760 N   0  0  0  0  0  0
   23.6430   -8.0910  -13.1150 C   0  0  2  0  0  0
   22.5430   -8.9690  -13.6820 C   0  0  0  0  0  0
   21.7110   -9.4540  -12.9200 O   0  0  0  0  0  0
   24.9740   -8.8740  -13.0600 C   0  0  0  0  0  0
   24.8230  -10.2130  -12.3080 C   0  0  0  0  0  0
   26.1630  -10.9650  -12.2280 C   0  0  0  0  0  0
   27.1990  -10.0520  -11.5750 C   0  0  0  0  0  0
   27.4120   -8.7920  -12.4230 C   0  0  0  0  0  0
   26.0910   -8.0110  -12.4420 C   0  0  0  0  0  0
   22.4860   -9.2290  -15.0130 N   0  0  0  0  0  0
   23.5460   -8.7630  -15.9540 C   0  0  0  0  0  0
   22.9340   -8.4860  -17.3150 C   0  0  1  0  0  0
   23.9490   -8.3130  -18.4460 C   0  0  0  0  0  0
   23.1000   -8.5750  -19.7130 C   0  0  0  0  0  0
   21.8510   -9.3310  -19.1900 C   0  0  0  0  0  0
   22.1650   -9.6680  -17.7820 N   0  3  2  0  0  0
   20.9950   -9.9020  -16.9530 C   0  0  0  0  0  0
   21.4480  -10.1490  -15.4810 C   0  0  1  0  0  0
   21.9500  -11.5540  -15.2250 C   0  0  0  0  0  0
   23.1370  -11.8080  -15.0190 O   0  0  0  0  0  0
   20.9970  -12.5070  -15.1740 N   0  0  0  0  0  0
   21.2820  -13.9160  -14.8930 C   0  0  2  0  0  0
   21.7370  -14.6430  -16.1710 C   0  0  0  0  0  0
   20.5390  -15.1450  -16.9800 C   0  0  0  0  0  0
   19.7640  -16.1770  -16.1430 C   0  0  0  0  0  0
   19.3520  -15.5670  -14.8110 C   0  0  0  0  0  0
   18.2380  -16.0930  -14.1550 C   0  0  0  0  0  0
   17.8210  -15.5670  -12.9410 C   0  0  0  0  0  0
   18.5230  -14.5010  -12.3800 C   0  0  0  0  0  0
   19.6350  -13.9820  -13.0230 C   0  0  0  0  0  0
   20.0650  -14.5250  -14.2370 C   0  0  0  0  0  0
   22.4489   -4.4347   -8.7266 H   0  0  0  0  0  0
   22.7024   -4.0031  -10.4517 H   0  0  0  0  0  0
   24.6680   -3.4980   -9.1013 H   0  0  0  0  0  0
   25.0071   -4.7843  -10.3084 H   0  0  0  0  0  0
   24.7535   -5.2159   -8.5833 H   0  0  0  0  0  0
   23.1019   -6.7328   -9.3294 H   0  0  0  0  0  0
   20.7293   -5.9727   -8.9821 H   0  0  0  0  0  0
   20.8130   -7.2259  -10.2663 H   0  0  0  0  0  0
   20.6334   -5.4948  -10.7110 H   0  0  0  0  0  0
   22.9379   -8.3995  -11.0124 H   0  0  0  0  0  0
   23.7979   -7.1889  -13.7250 H   0  0  0  0  0  0
   25.2610   -9.1154  -14.0941 H   0  0  0  0  0  0
   24.4686  -10.0208  -11.2846 H   0  0  0  0  0  0
   24.0962  -10.8492  -12.8343 H   0  0  0  0  0  0
   26.0363  -11.8768  -11.6259 H   0  0  0  0  0  0
   26.4915  -11.2377  -13.2418 H   0  0  0  0  0  0
   26.8484   -9.7558  -10.5753 H   0  0  0  0  0  0
   28.1551  -10.5883  -11.4842 H   0  0  0  0  0  0
   28.2106   -8.1807  -11.9773 H   0  0  0  0  0  0
   27.6990   -9.0817  -13.4446 H   0  0  0  0  0  0
   26.2210   -7.0967  -13.0396 H   0  0  0  0  0  0
   25.8173   -7.7398  -11.4117 H   0  0  0  0  0  0
   24.0026   -7.8412  -15.5645 H   0  0  0  0  0  0
   24.3173   -9.5412  -16.0520 H   0  0  0  0  0  0
   22.3306   -7.5815  -17.1483 H   0  0  0  0  0  0
   24.3619   -7.2939  -18.4154 H   0  0  0  0  0  0
   24.7632   -9.0423  -18.3228 H   0  0  0  0  0  0
   22.8341   -7.6157  -20.1810 H   0  0  0  0  0  0
   23.6800   -9.1815  -20.4241 H   0  0  0  0  0  0
   20.9694   -8.6772  -19.2631 H   0  0  0  0  0  0
   21.6887  -10.2344  -19.7962 H   0  0  0  0  0  0
   22.6983  -10.6264  -17.6985 H   0  0  0  0  0  0
   20.3355   -9.0225  -16.9929 H   0  0  0  0  0  0
   20.4528  -10.7840  -17.3246 H   0  0  0  0  0  0
   20.5562   -9.9537  -14.8673 H   0  0  0  0  0  0
   19.9624  -12.1809  -15.3566 H   0  0  0  0  0  0
   22.1138  -13.9740  -14.1756 H   0  0  0  0  0  0
   22.3187  -13.9519  -16.7986 H   0  0  0  0  0  0
   22.3625  -15.5060  -15.8990 H   0  0  0  0  0  0
   19.8813  -14.2980  -17.2251 H   0  0  0  0  0  0
   20.8947  -15.6139  -17.9093 H   0  0  0  0  0  0
   18.8629  -16.4908  -16.6904 H   0  0  0  0  0  0
   20.4033  -17.0525  -15.9567 H   0  0  0  0  0  0
   17.6911  -16.9241  -14.6003 H   0  0  0  0  0  0
   16.9526  -15.9832  -12.4304 H   0  0  0  0  0  0
   18.1957  -14.0743  -11.4319 H   0  0  0  0  0  0
   20.1770  -13.1464  -12.5801 H   0  0  0  0  0  0
  1  2  1  0  0  0
  1  3  1  0  0  0
  1 39  1  0  0  0
  1 40  1  0  0  0
  2 41  1  0  0  0
  2 42  1  0  0  0
  2 43  1  0  0  0
  3  4  1  0  0  0
  3  5  1  0  0  0
  3 44  1  0  0  0
  4 45  1  0  0  0
  4 46  1  0  0  0
  4 47  1  0  0  0
  5  6  2  0  0  0
  5  7  1  0  0  0
  7  8  1  0  0  0
  7 48  1  0  0  0
  8  9  1  0  0  0
  8 11  1  0  0  0
  8 49  1  0  0  0
  9 10  2  0  0  0
  9 17  1  0  0  0
 11 12  1  0  0  0
 11 16  1  0  0  0
 11 50  1  0  0  0
 12 13  1  0  0  0
 12 51  1  0  0  0
 12 52  1  0  0  0
 13 14  1  0  0  0
 13 53  1  0  0  0
 13 54  1  0  0  0
 14 15  1  0  0  0
 14 55  1  0  0  0
 14 56  1  0  0  0
 15 16  1  0  0  0
 15 57  1  0  0  0
 15 58  1  0  0  0
 16 59  1  0  0  0
 16 60  1  0  0  0
 17 18  1  0  0  0
 17 25  1  0  0  0
 18 19  1  0  0  0
 18 61  1  0  0  0
 18 62  1  0  0  0
 19 20  1  0  0  0
 19 23  1  0  0  0
 19 63  1  0  0  0
 20 21  1  0  0  0
 20 64  1  0  0  0
 20 65  1  0  0  0
 21 22  1  0  0  0
 21 66  1  0  0  0
 21 67  1  0  0  0
 22 23  1  0  0  0
 22 68  1  0  0  0
 22 69  1  0  0  0
 23 24  1  0  0  0
 23 70  1  0  0  0
 24 25  1  0  0  0
 24 71  1  0  0  0
 24 72  1  0  0  0
 25 26  1  0  0  0
 25 73  1  0  0  0
 26 27  2  0  0  0
 26 28  1  0  0  0
 28 29  1  0  0  0
 28 74  1  0  0  0
 29 30  1  0  0  0
 29 38  1  0  0  0
 29 75  1  0  0  0
 30 31  1  0  0  0
 30 76  1  0  0  0
 30 77  1  0  0  0
 31 32  1  0  0  0
 31 78  1  0  0  0
 31 79  1  0  0  0
 32 33  1  0  0  0
 32 80  1  0  0  0
 32 81  1  0  0  0
 33 34  2  0  0  0
 33 38  1  0  0  0
 34 35  1  0  0  0
 34 82  1  0  0  0
 35 36  2  0  0  0
 35 83  1  0  0  0
 36 37  1  0  0  0
 36 84  1  0  0  0
 37 38  2  0  0  0
 37 85  1  0  0  0
M  CHG  2   1   1  23   1
M  END
> <s_m_source_file>
../4hy4_ligand.sdf

> <i_m_source_file_index>
1

> <s_epik_input>
W0NIMl0xW0NIMl1bQ0gyXVtDSDJdW0NIMl1bQ0hdMVtDQEhdKFtOSF1DKD1PKVtDQEhdKFtDSDNdKVtOSDIrXVtDSDNdKUMoPU8pTihbQ0gyXTIpW0NAQEhdKFtDSDJdW05ASCtdKFtDQEBIXTIzKVtDSDJdW0NIMl1bQ0gyXTMpQyg9TylbTkhdW0NASF0oW0NIMl1bQ0gyXVtDSDJdNCljKGM0NSlbY0hdW2NIXVtjSF1bY0hdNQ==

> <s_epik_cmdline>
J2VwaWtfYXBwJywgJy1pbWFlJywgJ2xpZ2FuZF9wcm8ubWFlJywgJy1vbWFlJywgJ2xpZ2FuZF9wcmVwLm1hZScsICctbXMnLCAnMScsICctcGgnLCAnNycsICctcGh0JywgJzAuNScsICctbnQn

> <r_lp_tautomer_probability>
1

> <r_epik_Ionization_Penalty>
  0.1069

> <r_epik_Ionization_Penalty_Charging>
  0.1069

> <r_epik_Ionization_Penalty_Neutral>
  0.0000

> <r_epik_State_Penalty>
 -0.0000

> <r_epik_Charging_Adjusted_Penalty>
0.106939913407395

> <i_epik_Tot_Q>
2

> <i_epik_Tot_abs_Q>
2

$$$$
