4hy5_ligand
                    3D
 Schrodinger Suite 2020-3.
 90 94  0  0  1  0            999 V2000
    3.1210   26.6040   19.4830 N   0  3  0  0  0  0
    3.5990   27.8840   18.9130 C   0  0  0  0  0  0
    4.0020   26.0860   20.5640 C   0  0  1  0  0  0
    3.2960   24.9910   21.3860 C   0  0  0  0  0  0
    5.2990   25.5280   20.0120 C   0  0  0  0  0  0
    5.3560   25.0490   18.9000 O   0  0  0  0  0  0
    8.1060   24.0310   21.3520 C   0  0  0  0  0  0
    7.6090   24.0900   22.4630 O   0  0  0  0  0  0
    7.6910   25.0470   20.3280 C   0  0  1  0  0  0
    6.4060   25.5720   20.7770 N   0  0  0  0  0  0
    8.7420   26.1470   20.1650 C   0  0  0  0  0  0
    8.2600   27.1320   19.0860 C   0  0  0  0  0  0
    9.3570   28.1770   18.8390 C   0  0  0  0  0  0
    9.7230   28.9110   20.1450 C   0  0  0  0  0  0
   10.8290   29.7360   19.8860 F   0  0  0  0  0  0
    8.6290   29.6970   20.5400 F   0  0  0  0  0  0
   10.0890   27.9400   21.2870 C   0  0  0  0  0  0
    8.9790   26.8930   21.4960 C   0  0  0  0  0  0
   15.3090   19.2410   17.8120 C   0  0  0  0  0  0
   13.7840   19.1020   17.7230 C   0  0  0  0  0  0
   13.1610   20.1560   18.4630 O   0  0  0  0  0  0
   11.7360   20.1060   18.5150 C   0  0  2  0  0  0
   11.1330   21.5180   18.2980 C   0  0  0  0  0  0
   10.0290   21.5650   19.3790 C   0  0  2  0  0  0
    9.6560   22.9970   19.7350 C   0  0  0  0  0  0
    8.9900   23.0520   21.0650 N   0  0  0  0  0  0
    9.3350   22.1220   22.1490 C   0  0  1  0  0  0
    9.8580   20.7550   21.6620 C   0  0  0  0  0  0
   10.7330   20.9420   20.5220 N   0  3  1  0  0  0
   11.2710   19.7080   19.9400 C   0  0  0  0  0  0
   10.3480   22.7750   23.0510 C   0  0  0  0  0  0
   10.9930   23.7260   22.6430 O   0  0  0  0  0  0
   10.4920   22.3040   24.3040 N   0  0  0  0  0  0
   11.4170   22.8940   25.2740 C   0  0  2  0  0  0
   12.8390   22.3410   25.0930 C   0  0  0  0  0  0
   13.0870   21.0870   25.9500 C   0  0  0  0  0  0
   12.7990   21.4060   27.3230 O   0  0  0  0  0  0
   11.5600   21.9020   27.5990 C   0  0  0  0  0  0
   11.0080   21.6700   28.8630 C   0  0  0  0  0  0
    9.7420   22.1550   29.1520 C   0  0  0  0  0  0
    9.0350   22.8760   28.1940 C   0  0  0  0  0  0
    9.5810   23.1100   26.9440 C   0  0  0  0  0  0
   10.8480   22.6220   26.6510 C   0  0  0  0  0  0
    2.1164   26.7446   19.9085 H   0  0  0  0  0  0
    3.0803   25.8422   18.6905 H   0  0  0  0  0  0
    2.9088   28.2138   18.1225 H   0  0  0  0  0  0
    4.6036   27.7434   18.4875 H   0  0  0  0  0  0
    3.6397   28.6458   19.7055 H   0  0  0  0  0  0
    4.2259   26.9623   21.1901 H   0  0  0  0  0  0
    2.3530   25.3871   21.7909 H   0  0  0  0  0  0
    3.9477   24.6771   22.2147 H   0  0  0  0  0  0
    3.0831   24.1270   20.7393 H   0  0  0  0  0  0
    7.5542   24.5869   19.3383 H   0  0  0  0  0  0
    6.3156   26.0254   21.7751 H   0  0  0  0  0  0
    9.6924   25.6843   19.8607 H   0  0  0  0  0  0
    8.0531   26.5837   18.1551 H   0  0  0  0  0  0
    7.3419   27.6314   19.4292 H   0  0  0  0  0  0
   10.2571   27.6787   18.4496 H   0  0  0  0  0  0
    9.0011   28.9161   18.1062 H   0  0  0  0  0  0
   11.0249   27.4180   21.0386 H   0  0  0  0  0  0
   10.2215   28.5057   22.2210 H   0  0  0  0  0  0
    8.0495   27.3922   21.8071 H   0  0  0  0  0  0
    9.2857   26.1739   22.2698 H   0  0  0  0  0  0
   15.7850   18.4294   17.2422 H   0  0  0  0  0  0
   15.6217   19.1821   18.8650 H   0  0  0  0  0  0
   15.6138   20.2112   17.3927 H   0  0  0  0  0  0
   13.4713   19.1609   16.6700 H   0  0  0  0  0  0
   13.4791   18.1318   18.1423 H   0  0  0  0  0  0
   11.4923   19.3796   17.7258 H   0  0  0  0  0  0
   11.9148   22.2774   18.4468 H   0  0  0  0  0  0
   10.7377   21.5945   17.2744 H   0  0  0  0  0  0
    9.0881   21.0654   19.1049 H   0  0  0  0  0  0
   10.5650   23.6156   19.7668 H   0  0  0  0  0  0
    8.9673   23.3961   18.9758 H   0  0  0  0  0  0
    8.3877   21.9502   22.6811 H   0  0  0  0  0  0
   10.4172   20.2662   22.4734 H   0  0  0  0  0  0
    9.0085   20.1209   21.3683 H   0  0  0  0  0  0
   11.5303   21.5532   20.9701 H   0  0  0  0  0  0
   10.5028   18.9238   19.8694 H   0  0  0  0  0  0
   12.1298   19.3293   20.5136 H   0  0  0  0  0  0
    9.8768   21.4373   24.5875 H   0  0  0  0  0  0
   11.4722   23.9789   25.1007 H   0  0  0  0  0  0
   12.9959   22.0711   24.0382 H   0  0  0  0  0  0
   13.5708   23.1074   25.3882 H   0  0  0  0  0  0
   12.4299   20.2736   25.6084 H   0  0  0  0  0  0
   14.1374   20.7763   25.8498 H   0  0  0  0  0  0
   11.5682   21.1129   29.6140 H   0  0  0  0  0  0
    9.2994   21.9715   30.1311 H   0  0  0  0  0  0
    8.0425   23.2597   28.4304 H   0  0  0  0  0  0
    9.0218   23.6722   26.1962 H   0  0  0  0  0  0
  1  2  1  0  0  0
  1  3  1  0  0  0
  1 44  1  0  0  0
  1 45  1  0  0  0
  2 46  1  0  0  0
  2 47  1  0  0  0
  2 48  1  0  0  0
  3  4  1  0  0  0
  3  5  1  0  0  0
  3 49  1  0  0  0
  4 50  1  0  0  0
  4 51  1  0  0  0
  4 52  1  0  0  0
  5  6  2  0  0  0
  5 10  1  0  0  0
  7  8  2  0  0  0
  7  9  1  0  0  0
  7 26  1  0  0  0
  9 10  1  0  0  0
  9 11  1  0  0  0
  9 53  1  0  0  0
 10 54  1  0  0  0
 11 12  1  0  0  0
 11 18  1  0  0  0
 11 55  1  0  0  0
 12 13  1  0  0  0
 12 56  1  0  0  0
 12 57  1  0  0  0
 13 14  1  0  0  0
 13 58  1  0  0  0
 13 59  1  0  0  0
 14 15  1  0  0  0
 14 16  1  0  0  0
 14 17  1  0  0  0
 17 18  1  0  0  0
 17 60  1  0  0  0
 17 61  1  0  0  0
 18 62  1  0  0  0
 18 63  1  0  0  0
 19 20  1  0  0  0
 19 64  1  0  0  0
 19 65  1  0  0  0
 19 66  1  0  0  0
 20 21  1  0  0  0
 20 67  1  0  0  0
 20 68  1  0  0  0
 21 22  1  0  0  0
 22 23  1  0  0  0
 22 30  1  0  0  0
 22 69  1  0  0  0
 23 24  1  0  0  0
 23 70  1  0  0  0
 23 71  1  0  0  0
 24 25  1  0  0  0
 24 29  1  0  0  0
 24 72  1  0  0  0
 25 26  1  0  0  0
 25 73  1  0  0  0
 25 74  1  0  0  0
 26 27  1  0  0  0
 27 28  1  0  0  0
 27 31  1  0  0  0
 27 75  1  0  0  0
 28 29  1  0  0  0
 28 76  1  0  0  0
 28 77  1  0  0  0
 29 30  1  0  0  0
 29 78  1  0  0  0
 30 79  1  0  0  0
 30 80  1  0  0  0
 31 32  2  0  0  0
 31 33  1  0  0  0
 33 34  1  0  0  0
 33 81  1  0  0  0
 34 35  1  0  0  0
 34 43  1  0  0  0
 34 82  1  0  0  0
 35 36  1  0  0  0
 35 83  1  0  0  0
 35 84  1  0  0  0
 36 37  1  0  0  0
 36 85  1  0  0  0
 36 86  1  0  0  0
 37 38  1  0  0  0
 38 39  2  0  0  0
 38 43  1  0  0  0
 39 40  1  0  0  0
 39 87  1  0  0  0
 40 41  2  0  0  0
 40 88  1  0  0  0
 41 42  1  0  0  0
 41 89  1  0  0  0
 42 43  2  0  0  0
 42 90  1  0  0  0
M  CHG  2   1   1  29   1
M  END
> <s_m_source_file>
../4hy5_ligand.sdf

> <i_m_source_file_index>
1

> <s_epik_input>
W0NIM11bTkgyK11bQ0BASF0oW0NIM10pQyg9TylbTkhdW0NAQEhdKFtDSF0oW0NIMl1bQ0gyXTEpW0NIMl1bQ0gyXUMxKEYpRilDKD1PKU4oW0NIMl0yKVtDQEBIXShbQ0gyXVtOQEgrXShbQ0BASF0yMylbQ0gyXVtDQEBIXShbQ0gyXTMpT1tDSDJdW0NIM10pQyg9TylbTkhdW0NASF0oW0NIMl1bQ0gyXU80KWMoYzQ1KVtjSF1bY0hdW2NIXVtjSF01

> <s_epik_cmdline>
J2VwaWtfYXBwJywgJy1pbWFlJywgJ2xpZ2FuZF9wcm8ubWFlJywgJy1vbWFlJywgJ2xpZ2FuZF9wcmVwLm1hZScsICctbXMnLCAnMScsICctcGgnLCAnNycsICctcGh0JywgJzAuNScsICctbnQn

> <r_lp_tautomer_probability>
1

> <r_epik_Ionization_Penalty>
  0.1120

> <r_epik_Ionization_Penalty_Charging>
  0.1120

> <r_epik_Ionization_Penalty_Neutral>
  0.0000

> <r_epik_State_Penalty>
 -0.0000

> <r_epik_Charging_Adjusted_Penalty>
0.11196323147617

> <i_epik_Tot_Q>
2

> <i_epik_Tot_abs_Q>
2

$$$$
