4hy9_ligand
                    3D
 Schrodinger Suite 2020-3.
162166  0  0  1  0            999 V2000
  -43.6250   27.2510  -21.9520 N   0  3  0  0  0  0
  -43.8090   28.2120  -20.8010 C   0  0  2  0  0  0
  -42.5570   29.0810  -20.5210 C   0  0  0  0  0  0
  -41.4020   28.6350  -20.6360 O   0  0  0  0  0  0
  -44.4240   27.5190  -19.5200 C   0  0  0  0  0  0
  -45.9330   27.1990  -19.3800 C   0  0  0  0  0  0
  -46.6710   26.8180  -20.6690 C   0  0  0  0  0  0
  -46.1660   26.1080  -18.3360 C   0  0  0  0  0  0
  -42.8170   30.3430  -20.1910 N   0  0  0  0  0  0
  -41.8310   31.3420  -20.1110 C   0  0  2  0  0  0
  -42.0300   32.1850  -18.8460 C   0  0  0  0  0  0
  -42.5830   33.3060  -18.9190 O   0  0  0  0  0  0
  -42.0750   32.3370  -21.2660 C   0  0  0  0  0  0
  -41.7990   31.7080  -22.6770 C   0  0  0  0  0  0
  -40.4750   31.4830  -23.0750 C   0  0  0  0  0  0
  -42.8510   31.1770  -23.4970 C   0  0  0  0  0  0
  -40.1530   30.8750  -24.2940 C   0  0  0  0  0  0
  -42.5470   30.5730  -24.7470 C   0  0  0  0  0  0
  -41.2010   30.4090  -25.1150 C   0  0  0  0  0  0
  -40.8280   29.7950  -26.2930 O   0  0  0  0  0  0
  -41.5620   31.6510  -17.7340 N   0  0  0  0  0  0
  -41.7720   32.2960  -16.4570 C   0  0  2  0  0  0
  -40.4530   32.6300  -15.8090 C   0  0  0  0  0  0
  -39.5040   31.8090  -15.7760 O   0  0  0  0  0  0
  -42.5790   31.3370  -15.5480 C   0  0  0  0  0  0
  -44.0120   31.0910  -16.0810 C   0  0  0  0  0  0
  -44.7150   29.9030  -15.3290 C   0  0  0  0  0  0
  -46.2050   29.7940  -15.8220 C   0  0  0  0  0  0
  -46.9650   31.0730  -15.4580 C   0  0  0  0  0  0
  -46.3370   32.1920  -16.3050 C   0  0  0  0  0  0
  -44.8440   32.3500  -15.9170 C   0  0  0  0  0  0
  -40.4390   33.8020  -15.1790 N   0  0  0  0  0  0
  -39.2210   34.2750  -14.5280 C   0  0  2  0  0  0
  -39.1350   33.5740  -13.1380 C   0  0  0  0  0  0
  -40.1500   33.0700  -12.6140 O   0  0  0  0  0  0
  -39.2290   35.7750  -14.3160 C   0  0  0  0  0  0
  -39.0030   36.4930  -15.6500 C   0  0  0  0  0  0
  -39.5810   37.8810  -15.4280 C   0  0  0  0  0  0
  -39.4090   38.7490  -16.7150 C   0  0  0  0  0  0
  -37.9330   38.8510  -16.9780 C   0  0  0  0  0  0
  -37.3490   37.4530  -17.1110 C   0  0  0  0  0  0
  -37.5200   36.5300  -15.8980 C   0  0  0  0  0  0
  -37.9280   33.5640  -12.5490 N   0  0  0  0  0  0
  -37.8800   33.0270  -11.1720 C   0  0  2  0  0  0
  -38.7160   33.8520  -10.1910 C   0  0  0  0  0  0
  -38.9720   35.0170  -10.3760 O   0  0  0  0  0  0
  -36.3910   33.1470  -10.7930 C   0  0  0  0  0  0
  -35.6630   33.1930  -12.1640 C   0  0  0  0  0  0
  -36.6010   33.9640  -13.0630 C   0  0  0  0  0  0
  -39.1800   33.1550   -9.1690 N   0  0  0  0  0  0
  -39.9930   33.7670   -8.0690 C   0  0  2  0  0  0
  -39.0880   34.6600   -7.2450 C   0  0  0  0  0  0
  -37.8720   34.6440   -7.3390 O   0  0  0  0  0  0
  -40.6400   32.6700   -7.2210 C   0  0  0  0  0  0
  -41.8000   32.0470   -8.0080 C   0  0  0  0  0  0
  -42.3150   30.7650   -7.4000 C   0  0  0  0  0  0
  -41.3700   29.6890   -7.6310 N   0  0  0  0  0  0
  -41.5090   28.4680   -7.1460 C   0  0  0  0  0  0
  -40.5870   27.5520   -7.4290 N   0  0  0  0  0  0
  -42.5480   28.1710   -6.3540 N   0  0  0  0  0  0
  -39.6980   35.4360   -6.3480 N   0  0  0  0  0  0
  -38.7880   36.2740   -5.5550 C   0  0  2  0  0  0
  -37.8560   35.4950   -4.6150 C   0  0  0  0  0  0
  -38.1860   34.3800   -4.2260 O   0  0  0  0  0  0
  -39.7350   37.0910   -4.7020 C   0  0  0  0  0  0
  -41.0460   37.0700   -5.5060 C   0  0  0  0  0  0
  -41.1220   35.7110   -6.1180 C   0  0  0  0  0  0
  -36.6750   36.0650   -4.3900 N   0  0  0  0  0  0
  -35.7010   35.3560   -3.5420 C   0  0  2  0  0  0
  -36.2300   35.3740   -2.0960 C   0  0  0  0  0  0
  -37.0680   36.1900   -1.7200 O   0  0  0  0  0  0
  -34.3270   35.9790   -3.6290 C   0  0  2  0  0  0
  -34.4790   37.3850   -3.4370 O   0  0  0  0  0  0
  -33.8100   35.7680   -5.0650 C   0  0  0  0  0  0
  -35.7090   34.4580   -1.2740 N   0  0  0  0  0  0
  -43.1959   27.7865  -22.8117 H   0  0  0  0  0  0
  -44.5995   26.8259  -22.2341 H   0  0  0  0  0  0
  -42.9456   26.4409  -21.6483 H   0  0  0  0  0  0
  -44.5568   28.9270  -21.1745 H   0  0  0  0  0  0
  -43.9588   26.5324  -19.3779 H   0  0  0  0  0  0
  -44.2321   28.1455  -18.6364 H   0  0  0  0  0  0
  -46.3785   28.1529  -19.0612 H   0  0  0  0  0  0
  -46.5096   27.5977  -21.4280 H   0  0  0  0  0  0
  -47.7473   26.7254  -20.4616 H   0  0  0  0  0  0
  -46.2855   25.8577  -21.0420 H   0  0  0  0  0  0
  -45.6403   26.3718  -17.4064 H   0  0  0  0  0  0
  -45.7818   25.1496  -18.7152 H   0  0  0  0  0  0
  -47.2436   26.0172  -18.1348 H   0  0  0  0  0  0
  -43.8673   30.5883  -19.9748 H   0  0  0  0  0  0
  -40.8826   30.7852  -20.1309 H   0  0  0  0  0  0
  -43.1225   32.6722  -21.2460 H   0  0  0  0  0  0
  -41.4099   33.2053  -21.1487 H   0  0  0  0  0  0
  -39.6669   31.7923  -22.4121 H   0  0  0  0  0  0
  -43.8858   31.2373  -23.1599 H   0  0  0  0  0  0
  -39.1135   30.7639  -24.6025 H   0  0  0  0  0  0
  -43.3461   30.2419  -25.4103 H   0  0  0  0  0  0
  -39.7624   29.6868  -26.5434 H   0  0  0  0  0  0
  -41.0061   30.7032  -17.7867 H   0  0  0  0  0  0
  -42.3059   33.2352  -16.6641 H   0  0  0  0  0  0
  -42.0648   30.3662  -15.4912 H   0  0  0  0  0  0
  -42.6596   31.7687  -14.5395 H   0  0  0  0  0  0
  -43.9365   30.8565  -17.1531 H   0  0  0  0  0  0
  -44.1829   28.9652  -15.5468 H   0  0  0  0  0  0
  -44.6959   30.0923  -14.2456 H   0  0  0  0  0  0
  -46.2211   29.6588  -16.9135 H   0  0  0  0  0  0
  -46.6891   28.9325  -15.3387 H   0  0  0  0  0  0
  -48.0317   30.9455  -15.6945 H   0  0  0  0  0  0
  -46.8494   31.2748  -14.3829 H   0  0  0  0  0  0
  -46.4155   31.9328  -17.3711 H   0  0  0  0  0  0
  -46.8687   33.1364  -16.1172 H   0  0  0  0  0  0
  -44.8201   32.6708  -14.8651 H   0  0  0  0  0  0
  -44.4319   33.1473  -16.5530 H   0  0  0  0  0  0
  -41.3517   34.4153  -15.1504 H   0  0  0  0  0  0
  -38.3960   34.0391  -15.2162 H   0  0  0  0  0  0
  -40.2001   36.0813  -13.8998 H   0  0  0  0  0  0
  -38.4266   36.0507  -13.6158 H   0  0  0  0  0  0
  -39.4599   36.0172  -16.5302 H   0  0  0  0  0  0
  -40.6517   37.7985  -15.1898 H   0  0  0  0  0  0
  -39.0560   38.3675  -14.5927 H   0  0  0  0  0  0
  -39.9223   38.2618  -17.5571 H   0  0  0  0  0  0
  -39.8448   39.7449  -16.5466 H   0  0  0  0  0  0
  -37.7644   39.4109  -17.9097 H   0  0  0  0  0  0
  -37.4470   39.3754  -16.1421 H   0  0  0  0  0  0
  -37.8261   36.9352  -17.9561 H   0  0  0  0  0  0
  -36.2657   37.5235  -17.2885 H   0  0  0  0  0  0
  -37.0093   36.9269  -15.0083 H   0  0  0  0  0  0
  -37.1574   35.5124  -16.1055 H   0  0  0  0  0  0
  -38.2957   32.0087  -11.1603 H   0  0  0  0  0  0
  -36.2345   34.0650  -10.2075 H   0  0  0  0  0  0
  -36.0939   32.2743  -10.1929 H   0  0  0  0  0  0
  -34.6946   33.7016  -12.0480 H   0  0  0  0  0  0
  -35.4975   32.1675  -12.5259 H   0  0  0  0  0  0
  -36.5153   33.6751  -14.1209 H   0  0  0  0  0  0
  -36.4850   35.0539  -12.9700 H   0  0  0  0  0  0
  -38.9459   32.0804   -9.1473 H   0  0  0  0  0  0
  -40.7983   34.3806   -8.4991 H   0  0  0  0  0  0
  -39.8925   31.8971   -6.9890 H   0  0  0  0  0  0
  -41.0194   33.1058   -6.2850 H   0  0  0  0  0  0
  -42.6401   32.7561   -8.0457 H   0  0  0  0  0  0
  -41.4676   31.8177   -9.0312 H   0  0  0  0  0  0
  -42.4494   30.9011   -6.3168 H   0  0  0  0  0  0
  -43.2797   30.5030   -7.8591 H   0  0  0  0  0  0
  -40.4730   29.8666   -8.2424 H   0  0  0  0  0  0
  -39.7387   27.8085   -8.0806 H   0  0  0  0  0  0
  -43.3038   28.9375   -6.1276 H   0  0  0  0  0  0
  -42.6453   27.1606   -5.9301 H   0  0  0  0  0  0
  -38.1439   36.8310   -6.2513 H   0  0  0  0  0  0
  -39.8405   36.6174   -3.7148 H   0  0  0  0  0  0
  -39.3338   38.1079   -4.5798 H   0  0  0  0  0  0
  -41.8940   37.2522   -4.8294 H   0  0  0  0  0  0
  -41.0164   37.8547   -6.2763 H   0  0  0  0  0  0
  -41.6595   35.6882   -7.0775 H   0  0  0  0  0  0
  -41.5392   34.9467   -5.4458 H   0  0  0  0  0  0
  -36.4187   37.0438   -4.8216 H   0  0  0  0  0  0
  -35.6031   34.3313   -3.9299 H   0  0  0  0  0  0
  -33.6495   35.5949   -2.8521 H   0  0  0  0  0  0
  -34.8408   37.7726   -2.4732 H   0  0  0  0  0  0
  -33.6792   34.6921   -5.2532 H   0  0  0  0  0  0
  -32.8448   36.2815   -5.1863 H   0  0  0  0  0  0
  -34.5369   36.1797   -5.7806 H   0  0  0  0  0  0
  -34.9606   33.7445   -1.6492 H   0  0  0  0  0  0
  -36.0286   34.4176   -0.2222 H   0  0  0  0  0  0
  1  2  1  0  0  0
  1 76  1  0  0  0
  1 77  1  0  0  0
  1 78  1  0  0  0
  2  3  1  0  0  0
  2  5  1  0  0  0
  2 79  1  0  0  0
  3  4  2  0  0  0
  3  9  1  0  0  0
  5  6  1  0  0  0
  5 80  1  0  0  0
  5 81  1  0  0  0
  6  7  1  0  0  0
  6  8  1  0  0  0
  6 82  1  0  0  0
  7 83  1  0  0  0
  7 84  1  0  0  0
  7 85  1  0  0  0
  8 86  1  0  0  0
  8 87  1  0  0  0
  8 88  1  0  0  0
  9 10  1  0  0  0
  9 89  1  0  0  0
 10 11  1  0  0  0
 10 13  1  0  0  0
 10 90  1  0  0  0
 11 12  2  0  0  0
 11 21  1  0  0  0
 13 14  1  0  0  0
 13 91  1  0  0  0
 13 92  1  0  0  0
 14 15  2  0  0  0
 14 16  1  0  0  0
 15 17  1  0  0  0
 15 93  1  0  0  0
 16 18  2  0  0  0
 16 94  1  0  0  0
 17 19  2  0  0  0
 17 95  1  0  0  0
 18 19  1  0  0  0
 18 96  1  0  0  0
 19 20  1  0  0  0
 20 97  1  0  0  0
 21 22  1  0  0  0
 21 98  1  0  0  0
 22 23  1  0  0  0
 22 25  1  0  0  0
 22 99  1  0  0  0
 23 24  2  0  0  0
 23 32  1  0  0  0
 25 26  1  0  0  0
 25100  1  0  0  0
 25101  1  0  0  0
 26 27  1  0  0  0
 26 31  1  0  0  0
 26102  1  0  0  0
 27 28  1  0  0  0
 27103  1  0  0  0
 27104  1  0  0  0
 28 29  1  0  0  0
 28105  1  0  0  0
 28106  1  0  0  0
 29 30  1  0  0  0
 29107  1  0  0  0
 29108  1  0  0  0
 30 31  1  0  0  0
 30109  1  0  0  0
 30110  1  0  0  0
 31111  1  0  0  0
 31112  1  0  0  0
 32 33  1  0  0  0
 32113  1  0  0  0
 33 34  1  0  0  0
 33 36  1  0  0  0
 33114  1  0  0  0
 34 35  2  0  0  0
 34 43  1  0  0  0
 36 37  1  0  0  0
 36115  1  0  0  0
 36116  1  0  0  0
 37 38  1  0  0  0
 37 42  1  0  0  0
 37117  1  0  0  0
 38 39  1  0  0  0
 38118  1  0  0  0
 38119  1  0  0  0
 39 40  1  0  0  0
 39120  1  0  0  0
 39121  1  0  0  0
 40 41  1  0  0  0
 40122  1  0  0  0
 40123  1  0  0  0
 41 42  1  0  0  0
 41124  1  0  0  0
 41125  1  0  0  0
 42126  1  0  0  0
 42127  1  0  0  0
 43 44  1  0  0  0
 43 49  1  0  0  0
 44 45  1  0  0  0
 44 47  1  0  0  0
 44128  1  0  0  0
 45 46  2  0  0  0
 45 50  1  0  0  0
 47 48  1  0  0  0
 47129  1  0  0  0
 47130  1  0  0  0
 48 49  1  0  0  0
 48131  1  0  0  0
 48132  1  0  0  0
 49133  1  0  0  0
 49134  1  0  0  0
 50 51  1  0  0  0
 50135  1  0  0  0
 51 52  1  0  0  0
 51 54  1  0  0  0
 51136  1  0  0  0
 52 53  2  0  0  0
 52 61  1  0  0  0
 54 55  1  0  0  0
 54137  1  0  0  0
 54138  1  0  0  0
 55 56  1  0  0  0
 55139  1  0  0  0
 55140  1  0  0  0
 56 57  1  0  0  0
 56141  1  0  0  0
 56142  1  0  0  0
 57 58  1  0  0  0
 57143  1  0  0  0
 58 59  2  0  0  0
 58 60  1  0  0  0
 59144  1  0  0  0
 60145  1  0  0  0
 60146  1  0  0  0
 61 62  1  0  0  0
 61 67  1  0  0  0
 62 63  1  0  0  0
 62 65  1  0  0  0
 62147  1  0  0  0
 63 64  2  0  0  0
 63 68  1  0  0  0
 65 66  1  0  0  0
 65148  1  0  0  0
 65149  1  0  0  0
 66 67  1  0  0  0
 66150  1  0  0  0
 66151  1  0  0  0
 67152  1  0  0  0
 67153  1  0  0  0
 68 69  1  0  0  0
 68154  1  0  0  0
 69 70  1  0  0  0
 69 72  1  0  0  0
 69155  1  0  0  0
 70 71  2  0  0  0
 70 75  1  0  0  0
 72 73  1  0  0  0
 72 74  1  0  0  0
 72156  1  0  0  0
 73157  1  0  0  0
 74158  1  0  0  0
 74159  1  0  0  0
 74160  1  0  0  0
 75161  1  0  0  0
 75162  1  0  0  0
M  CHG  1   1   1
M  END
> <s_m_source_file>
../4hy9_ligand.sdf

> <i_m_source_file_index>
1

> <s_epik_input>
W2NIXTFbY0hdYyhbT0hdKVtjSF1bY0hdYzFbQ0gyXVtDQEhdKFtOSF1DKD1PKVtDQEBIXShbTkgzK10pW0NIMl1bQ0hdKFtDSDNdKVtDSDNdKUMoPU8pW05IXVtDQEBIXShbQ0gyXVtDSF0yW0NIMl1bQ0gyXVtDSDJdW0NIMl1bQ0gyXTIpQyg9TylbTkhdW0NAQEhdKFtDSDJdW0NIXTNbQ0gyXVtDSDJdW0NIMl1bQ0gyXVtDSDJdMylDKD1PKU40W0NAQEhdKFtDSDJdW0NIMl1bQ0gyXTQpQyg9TylbTkhdW0NAQEhdKFtDSDJdW0NIMl1bQ0gyXVtOSF0vQyg9TlxbSF0pW05IMl0pQyg9TylONVtDQEBIXShbQ0gyXVtDSDJdW0NIMl01KUMoPU8pW05IXVtDQEhdKEMoPU8pW05IMl0pW0NASF0oW09IXSlbQ0gzXQ==

> <s_epik_cmdline>
J2VwaWtfYXBwJywgJy1pbWFlJywgJ2xpZ2FuZF9wcm8ubWFlJywgJy1vbWFlJywgJ2xpZ2FuZF9wcmVwLm1hZScsICctbXMnLCAnMScsICctcGgnLCAnNycsICctcGh0JywgJzAuNScsICctbnQn

> <s_epik_pKa_notes>
Molecule size exceeds maximum supported for generating protonation states

> <s_epik_Chemistry_Notes>
This compound has an imine and may undergo hydrolysis.

$$$$
