4hyb_ligand
                    3D
 Schrodinger Suite 2020-3.
142145  0  0  1  0            999 V2000
  -45.2030   29.9330  -23.0840 N   0  3  0  0  0  0
  -44.8440   31.2680  -22.3120 C   0  0  2  0  0  0
  -44.0880   30.9950  -21.0020 C   0  0  0  0  0  0
  -44.6460   30.4060  -20.0850 O   0  0  0  0  0  0
  -46.0870   32.0910  -21.9940 C   0  0  0  0  0  0
  -45.8800   33.4750  -21.3330 C   0  0  0  0  0  0
  -45.6140   34.4950  -22.4350 C   0  0  0  0  0  0
  -47.1620   33.8880  -20.6200 C   0  0  0  0  0  0
  -42.7890   31.3850  -20.9070 N   0  0  0  0  0  0
  -42.0050   31.0560  -19.7470 C   0  0  2  0  0  0
  -42.0580   32.1560  -18.7310 C   0  0  0  0  0  0
  -42.3160   33.3550  -19.0520 O   0  0  0  0  0  0
  -40.5280   30.7830  -20.1460 C   0  0  0  0  0  0
  -40.3850   29.5330  -20.9840 C   0  0  0  0  0  0
  -40.1470   28.2830  -20.3630 C   0  0  0  0  0  0
  -40.4890   29.5860  -22.3730 C   0  0  0  0  0  0
  -40.0690   27.1100  -21.1140 C   0  0  0  0  0  0
  -40.3900   28.4120  -23.1380 C   0  0  0  0  0  0
  -40.1860   27.2060  -22.5020 C   0  0  0  0  0  0
  -40.0540   26.0550  -23.2600 O   0  0  0  0  0  0
  -41.7200   31.7640  -17.5140 N   0  0  0  0  0  0
  -41.9120   32.5890  -16.3550 C   0  0  2  0  0  0
  -40.5660   32.8620  -15.6590 C   0  0  0  0  0  0
  -39.6350   32.0390  -15.6740 O   0  0  0  0  0  0
  -42.9360   31.9410  -15.3740 C   0  0  0  0  0  0
  -44.2230   31.4370  -16.0310 C   0  0  0  0  0  0
  -45.0950   30.8070  -14.9020 C   0  0  0  0  0  0
  -46.3720   30.2450  -15.6040 C   0  0  0  0  0  0
  -47.1490   31.4180  -16.2540 C   0  0  0  0  0  0
  -46.2880   32.1510  -17.2990 C   0  0  0  0  0  0
  -44.9850   32.6270  -16.5910 C   0  0  0  0  0  0
  -40.4690   34.0290  -15.1010 N   0  0  0  0  0  0
  -39.2060   34.4810  -14.4920 C   0  0  2  0  0  0
  -39.3810   34.7170  -13.0000 C   0  0  0  0  0  0
  -40.3070   35.4270  -12.5680 O   0  0  0  0  0  0
  -38.6690   35.7700  -15.1160 C   0  0  2  0  0  0
  -38.5070   35.6760  -16.6690 C   0  0  0  0  0  0
  -37.3350   36.2360  -14.4340 C   0  0  0  0  0  0
  -38.2830   36.9970  -17.4210 C   0  0  0  0  0  0
  -38.4660   34.1670  -12.1940 N   0  0  0  0  0  0
  -38.7000   34.3370  -10.7520 C   0  0  2  0  0  0
  -38.3160   35.7250  -10.2010 C   0  0  0  0  0  0
  -37.6600   36.5730  -10.8450 O   0  0  0  0  0  0
  -37.7630   33.2990  -10.1330 C   0  0  0  0  0  0
  -36.6830   33.1990  -11.1360 C   0  0  0  0  0  0
  -37.4210   33.1700  -12.4450 C   0  0  0  0  0  0
  -38.6960   35.9390   -8.9710 N   0  0  0  0  0  0
  -38.3710   37.2400   -8.4010 C   0  0  2  0  0  0
  -36.8770   37.2820   -7.9500 C   0  0  0  0  0  0
  -36.2240   36.2010   -7.8700 O   0  0  0  0  0  0
  -39.2810   37.5190   -7.2120 C   0  0  0  0  0  0
  -39.0790   36.5400   -6.0580 C   0  0  0  0  0  0
  -39.6560   37.1650   -4.7950 C   0  0  0  0  0  0
  -40.0770   36.1570   -3.8390 N   0  0  0  0  0  0
  -39.4740   35.9140   -2.6830 C   0  0  0  0  0  0
  -38.4130   36.6220   -2.3200 N   0  3  0  0  0  0
  -39.9500   34.9640   -1.8840 N   0  0  0  0  0  0
  -36.3680   38.5000   -7.6830 N   0  0  0  0  0  0
  -34.9700   38.5820   -7.3170 C   0  0  2  0  0  0
  -34.8190   37.9080   -5.9610 C   0  0  0  0  0  0
  -35.7670   37.8580   -5.1660 O   0  0  0  0  0  0
  -34.7050   40.0610   -7.2640 C   0  0  0  0  0  0
  -35.8190   40.7210   -8.0280 C   0  0  0  0  0  0
  -36.9880   39.8370   -7.7580 C   0  0  0  0  0  0
  -33.6410   37.3210   -5.7170 N   0  0  0  0  0  0
  -44.2808   29.3711  -23.2932 H   0  0  0  0  0  0
  -45.7043   30.1807  -24.0313 H   0  0  0  0  0  0
  -45.8733   29.3198  -22.4638 H   0  0  0  0  0  0
  -44.1964   31.8689  -22.9673 H   0  0  0  0  0  0
  -46.6404   32.2932  -22.9229 H   0  0  0  0  0  0
  -46.7297   31.5309  -21.2989 H   0  0  0  0  0  0
  -45.0458   33.4416  -20.6168 H   0  0  0  0  0  0
  -44.6920   34.2243  -22.9704 H   0  0  0  0  0  0
  -45.4995   35.4943  -21.9898 H   0  0  0  0  0  0
  -46.4586   34.5021  -23.1397 H   0  0  0  0  0  0
  -47.3823   33.1698  -19.8165 H   0  0  0  0  0  0
  -47.9941   33.9000  -21.3394 H   0  0  0  0  0  0
  -47.0349   34.8922  -20.1895 H   0  0  0  0  0  0
  -42.3387   31.9586  -21.7306 H   0  0  0  0  0  0
  -42.4978   30.1659  -19.3289 H   0  0  0  0  0  0
  -40.1431   31.6319  -20.7301 H   0  0  0  0  0  0
  -39.9201   30.6571  -19.2379 H   0  0  0  0  0  0
  -40.0228   28.2365  -19.2811 H   0  0  0  0  0  0
  -40.6480   30.5438  -22.8684 H   0  0  0  0  0  0
  -39.9207   26.1445  -20.6303 H   0  0  0  0  0  0
  -40.4737   28.4542  -24.2240 H   0  0  0  0  0  0
  -39.8909   25.0862  -22.7651 H   0  0  0  0  0  0
  -41.2761   30.7630  -17.4092 H   0  0  0  0  0  0
  -42.3146   33.5289  -16.7607 H   0  0  0  0  0  0
  -42.4722   31.0749  -14.8793 H   0  0  0  0  0  0
  -43.2352   32.6795  -14.6157 H   0  0  0  0  0  0
  -43.9931   30.7319  -16.8434 H   0  0  0  0  0  0
  -44.5291   30.0044  -14.4064 H   0  0  0  0  0  0
  -45.3556   31.5809  -14.1650 H   0  0  0  0  0  0
  -46.0765   29.5219  -16.3784 H   0  0  0  0  0  0
  -47.0096   29.7452  -14.8599 H   0  0  0  0  0  0
  -48.0489   31.0296  -16.7534 H   0  0  0  0  0  0
  -47.4432   32.1385  -15.4766 H   0  0  0  0  0  0
  -46.0460   31.4630  -18.1224 H   0  0  0  0  0  0
  -46.8454   33.0134  -17.6936 H   0  0  0  0  0  0
  -45.2513   33.3105  -15.7713 H   0  0  0  0  0  0
  -44.3537   33.1567  -17.3197 H   0  0  0  0  0  0
  -41.3518   34.6852  -15.0878 H   0  0  0  0  0  0
  -38.5104   33.6526  -14.6920 H   0  0  0  0  0  0
  -39.4506   36.5174  -14.9147 H   0  0  0  0  0  0
  -37.6389   35.0447  -16.9095 H   0  0  0  0  0  0
  -39.4143   35.2338  -17.1062 H   0  0  0  0  0  0
  -37.4802   36.2924  -13.3451 H   0  0  0  0  0  0
  -37.0537   37.2276  -14.8183 H   0  0  0  0  0  0
  -36.5360   35.5147  -14.6606 H   0  0  0  0  0  0
  -38.1854   36.7940  -18.4977 H   0  0  0  0  0  0
  -37.3639   37.4768  -17.0535 H   0  0  0  0  0  0
  -39.1394   37.6659  -17.2502 H   0  0  0  0  0  0
  -39.7766   34.2124  -10.5637 H   0  0  0  0  0  0
  -37.4061   33.6624   -9.1580 H   0  0  0  0  0  0
  -38.3049   32.3517   -9.9952 H   0  0  0  0  0  0
  -36.0196   34.0721  -11.0488 H   0  0  0  0  0  0
  -36.1043   32.2800  -10.9613 H   0  0  0  0  0  0
  -37.8868   32.1985  -12.6666 H   0  0  0  0  0  0
  -36.8096   33.4876  -13.3025 H   0  0  0  0  0  0
  -39.2364   35.1941   -8.3685 H   0  0  0  0  0  0
  -38.5643   37.9714   -9.1996 H   0  0  0  0  0  0
  -39.0830   38.5307   -6.8282 H   0  0  0  0  0  0
  -40.3317   37.4464   -7.5294 H   0  0  0  0  0  0
  -39.5974   35.5962   -6.2828 H   0  0  0  0  0  0
  -38.0044   36.3456   -5.9259 H   0  0  0  0  0  0
  -38.8930   37.7970   -4.3171 H   0  0  0  0  0  0
  -40.5300   37.7796   -5.0564 H   0  0  0  0  0  0
  -40.9547   35.5292   -4.0523 H   0  0  0  0  0  0
  -38.0223   37.4071   -2.9840 H   0  0  0  0  0  0
  -40.8303   34.3790   -2.1888 H   0  0  0  0  0  0
  -39.4636   34.7630   -0.9181 H   0  0  0  0  0  0
  -34.2968   38.0864   -8.0320 H   0  0  0  0  0  0
  -34.6954   40.3944   -6.2158 H   0  0  0  0  0  0
  -33.7301   40.2756   -7.7260 H   0  0  0  0  0  0
  -35.9679   41.7431   -7.6495 H   0  0  0  0  0  0
  -35.5584   40.7598   -9.0960 H   0  0  0  0  0  0
  -37.7305   39.8518   -8.5695 H   0  0  0  0  0  0
  -37.4839   40.0653   -6.8031 H   0  0  0  0  0  0
  -32.8276   37.3928   -6.4540 H   0  0  0  0  0  0
  -33.4864   36.7668   -4.7795 H   0  0  0  0  0  0
  -37.9237   36.4241   -1.3549 H   0  0  0  0  0  0
  1  2  1  0  0  0
  1 66  1  0  0  0
  1 67  1  0  0  0
  1 68  1  0  0  0
  2  3  1  0  0  0
  2  5  1  0  0  0
  2 69  1  0  0  0
  3  4  2  0  0  0
  3  9  1  0  0  0
  5  6  1  0  0  0
  5 70  1  0  0  0
  5 71  1  0  0  0
  6  7  1  0  0  0
  6  8  1  0  0  0
  6 72  1  0  0  0
  7 73  1  0  0  0
  7 74  1  0  0  0
  7 75  1  0  0  0
  8 76  1  0  0  0
  8 77  1  0  0  0
  8 78  1  0  0  0
  9 10  1  0  0  0
  9 79  1  0  0  0
 10 11  1  0  0  0
 10 13  1  0  0  0
 10 80  1  0  0  0
 11 12  2  0  0  0
 11 21  1  0  0  0
 13 14  1  0  0  0
 13 81  1  0  0  0
 13 82  1  0  0  0
 14 15  2  0  0  0
 14 16  1  0  0  0
 15 17  1  0  0  0
 15 83  1  0  0  0
 16 18  2  0  0  0
 16 84  1  0  0  0
 17 19  2  0  0  0
 17 85  1  0  0  0
 18 19  1  0  0  0
 18 86  1  0  0  0
 19 20  1  0  0  0
 20 87  1  0  0  0
 21 22  1  0  0  0
 21 88  1  0  0  0
 22 23  1  0  0  0
 22 25  1  0  0  0
 22 89  1  0  0  0
 23 24  2  0  0  0
 23 32  1  0  0  0
 25 26  1  0  0  0
 25 90  1  0  0  0
 25 91  1  0  0  0
 26 27  1  0  0  0
 26 31  1  0  0  0
 26 92  1  0  0  0
 27 28  1  0  0  0
 27 93  1  0  0  0
 27 94  1  0  0  0
 28 29  1  0  0  0
 28 95  1  0  0  0
 28 96  1  0  0  0
 29 30  1  0  0  0
 29 97  1  0  0  0
 29 98  1  0  0  0
 30 31  1  0  0  0
 30 99  1  0  0  0
 30100  1  0  0  0
 31101  1  0  0  0
 31102  1  0  0  0
 32 33  1  0  0  0
 32103  1  0  0  0
 33 34  1  0  0  0
 33 36  1  0  0  0
 33104  1  0  0  0
 34 35  2  0  0  0
 34 40  1  0  0  0
 36 37  1  0  0  0
 36 38  1  0  0  0
 36105  1  0  0  0
 37 39  1  0  0  0
 37106  1  0  0  0
 37107  1  0  0  0
 38108  1  0  0  0
 38109  1  0  0  0
 38110  1  0  0  0
 39111  1  0  0  0
 39112  1  0  0  0
 39113  1  0  0  0
 40 41  1  0  0  0
 40 46  1  0  0  0
 41 42  1  0  0  0
 41 44  1  0  0  0
 41114  1  0  0  0
 42 43  2  0  0  0
 42 47  1  0  0  0
 44 45  1  0  0  0
 44115  1  0  0  0
 44116  1  0  0  0
 45 46  1  0  0  0
 45117  1  0  0  0
 45118  1  0  0  0
 46119  1  0  0  0
 46120  1  0  0  0
 47 48  1  0  0  0
 47121  1  0  0  0
 48 49  1  0  0  0
 48 51  1  0  0  0
 48122  1  0  0  0
 49 50  2  0  0  0
 49 58  1  0  0  0
 51 52  1  0  0  0
 51123  1  0  0  0
 51124  1  0  0  0
 52 53  1  0  0  0
 52125  1  0  0  0
 52126  1  0  0  0
 53 54  1  0  0  0
 53127  1  0  0  0
 53128  1  0  0  0
 54 55  1  0  0  0
 54129  1  0  0  0
 55 56  2  0  0  0
 55 57  1  0  0  0
 56130  1  0  0  0
 56142  1  0  0  0
 57131  1  0  0  0
 57132  1  0  0  0
 58 59  1  0  0  0
 58 64  1  0  0  0
 59 60  1  0  0  0
 59 62  1  0  0  0
 59133  1  0  0  0
 60 61  2  0  0  0
 60 65  1  0  0  0
 62 63  1  0  0  0
 62134  1  0  0  0
 62135  1  0  0  0
 63 64  1  0  0  0
 63136  1  0  0  0
 63137  1  0  0  0
 64138  1  0  0  0
 64139  1  0  0  0
 65140  1  0  0  0
 65141  1  0  0  0
M  CHG  2   1   1  56   1
M  END
> <s_m_source_file>
../4hyb_ligand.sdf

> <i_m_source_file_index>
1

> <s_epik_input>
W2NIXTFbY0hdYyhbT0hdKVtjSF1bY0hdYzFbQ0gyXVtDQEhdKFtOSF1DKD1PKVtDQEBIXShbTkgzK10pW0NIMl1bQ0hdKFtDSDNdKVtDSDNdKUMoPU8pW05IXVtDQEBIXShbQ0gyXVtDSF0yW0NIMl1bQ0gyXVtDSDJdW0NIMl1bQ0gyXTIpQyg9TylbTkhdW0NAQEhdKFtDQEBIXShbQ0gzXSlbQ0gyXVtDSDNdKUMoPU8pTjNbQ0BASF0oW0NIMl1bQ0gyXVtDSDJdMylDKD1PKVtOSF1bQ0BIXShDKD1PKU40W0NASF0oQyg9TylbTkgyXSlbQ0gyXVtDSDJdW0NIMl00KVtDSDJdW0NIMl1bQ0gyXVtOSF0vQyg9TlxbSF0pW05IMl0=

> <s_epik_cmdline>
J2VwaWtfYXBwJywgJy1pbWFlJywgJ2xpZ2FuZF9wcm8ubWFlJywgJy1vbWFlJywgJ2xpZ2FuZF9wcmVwLm1hZScsICctbXMnLCAnMScsICctcGgnLCAnNycsICctcGh0JywgJzAuNScsICctbnQn

> <r_lp_tautomer_probability>
0.999999999997365

> <r_epik_Ionization_Penalty>
  0.0952

> <r_epik_Ionization_Penalty_Charging>
  0.0943

> <r_epik_Ionization_Penalty_Neutral>
  0.0009

> <r_epik_State_Penalty>
  0.0845

> <r_epik_Charging_Adjusted_Penalty>
0.178748488759176

> <i_epik_Tot_Q>
2

> <i_epik_Tot_abs_Q>
2

> <s_epik_Chemistry_Notes>
This compound has an imine and may undergo hydrolysis.

$$$$
