4hyh_ligand
                    3D
 Schrodinger Suite 2020-3.
 56 60  0  0  1  0            999 V2000
    7.3560   -5.7320   12.2180 C   0  0  0  0  0  0
    6.6110   -4.8270   11.5460 N   0  3  0  0  0  0
    7.2810   -3.8990   10.8480 C   0  0  0  0  0  0
    8.6620   -3.8210   10.7960 C   0  0  0  0  0  0
    9.4190   -4.7930   11.4630 C   0  0  0  0  0  0
    8.7420   -5.7620   12.2140 C   0  0  0  0  0  0
   10.7960   -4.7060   11.4140 N   0  0  0  0  0  0
   11.5600   -5.9340   11.5830 C   0  0  0  0  0  0
   13.0320   -5.6180   11.3290 C   0  0  0  0  0  0
   13.5690   -4.6230   12.2750 N   0  3  0  0  0  0
   12.8050   -3.3660   12.0980 C   0  0  0  0  0  0
   11.3040   -3.5490   12.2530 C   0  0  0  0  0  0
    9.3420   -2.9180    9.9850 N   0  0  0  0  0  0
    8.8900   -1.7630    9.4320 C   0  0  0  0  0  0
    7.7940   -1.2520    9.5990 O   0  0  0  0  0  0
    9.9140   -1.1700    8.5690 C   0  0  0  0  0  0
   11.1820   -1.7560    8.4430 N   0  0  0  0  0  0
   11.9100   -1.0500    7.5910 C   0  0  0  0  0  0
   11.1320    0.2910    6.9040 S   0  0  0  0  0  0
    9.7080   -0.0570    7.7880 C   0  0  0  0  0  0
   13.2380   -1.3570    7.3240 N   0  0  0  0  0  0
   14.0590   -0.5910    6.4910 C   0  0  0  0  0  0
   15.3990   -1.1980    6.5430 C   0  0  0  0  0  0
   15.3360   -2.3110    7.4140 C   0  0  0  0  0  0
   13.9450   -2.4510    7.9490 C   0  0  0  0  0  0
   16.5710   -0.8160    5.8800 C   0  0  0  0  0  0
   17.7040   -1.6100    6.0900 C   0  0  0  0  0  0
   17.6430   -2.7400    6.9370 C   0  0  0  0  0  0
   16.4570   -3.1040    7.6300 C   0  0  0  0  0  0
   13.7920    0.4130    5.8380 O   0  0  0  0  0  0
   18.9310   -1.4070    5.5370 O   0  0  0  0  0  0
   19.0980   -0.2470    4.7330 C   0  0  0  0  0  0
    6.8324   -6.4888   12.8021 H   0  0  0  0  0  0
    6.7043   -3.1625   10.2885 H   0  0  0  0  0  0
    9.2886   -6.5174   12.7786 H   0  0  0  0  0  0
   11.4254   -6.3115   12.6074 H   0  0  0  0  0  0
   11.2056   -6.6881   10.8649 H   0  0  0  0  0  0
   13.6273   -6.5373   11.4314 H   0  0  0  0  0  0
   13.1505   -5.2158   10.3121 H   0  0  0  0  0  0
   13.4547   -4.9959   13.3035 H   0  0  0  0  0  0
   14.6349   -4.4533   12.0629 H   0  0  0  0  0  0
   13.1289   -2.6312   12.8497 H   0  0  0  0  0  0
   12.9878   -2.9646   11.0903 H   0  0  0  0  0  0
   10.8055   -2.6206   11.9374 H   0  0  0  0  0  0
   11.0842   -3.7409   13.3136 H   0  0  0  0  0  0
   10.3922   -3.1035    9.7156 H   0  0  0  0  0  0
    8.7814    0.5150    7.7394 H   0  0  0  0  0  0
   13.9015   -2.3386    9.0424 H   0  0  0  0  0  0
   13.4768   -3.4033    7.6594 H   0  0  0  0  0  0
   16.5998    0.0589    5.2306 H   0  0  0  0  0  0
   18.5356   -3.3527    7.0628 H   0  0  0  0  0  0
   16.4277   -3.9640    8.2990 H   0  0  0  0  0  0
   20.1298   -0.2093    4.3536 H   0  0  0  0  0  0
   18.8965    0.6499    5.3371 H   0  0  0  0  0  0
   18.3970   -0.2839    3.8861 H   0  0  0  0  0  0
    5.5130   -4.8769   11.5902 H   0  0  0  0  0  0
  1  2  2  0  0  0
  1  6  1  0  0  0
  1 33  1  0  0  0
  2  3  1  0  0  0
  2 56  1  0  0  0
  3  4  2  0  0  0
  3 34  1  0  0  0
  4  5  1  0  0  0
  4 13  1  0  0  0
  5  6  2  0  0  0
  5  7  1  0  0  0
  6 35  1  0  0  0
  7  8  1  0  0  0
  7 12  1  0  0  0
  8  9  1  0  0  0
  8 36  1  0  0  0
  8 37  1  0  0  0
  9 10  1  0  0  0
  9 38  1  0  0  0
  9 39  1  0  0  0
 10 11  1  0  0  0
 10 40  1  0  0  0
 10 41  1  0  0  0
 11 12  1  0  0  0
 11 42  1  0  0  0
 11 43  1  0  0  0
 12 44  1  0  0  0
 12 45  1  0  0  0
 13 14  1  0  0  0
 13 46  1  0  0  0
 14 15  2  0  0  0
 14 16  1  0  0  0
 16 17  1  0  0  0
 16 20  2  0  0  0
 17 18  2  0  0  0
 18 19  1  0  0  0
 18 21  1  0  0  0
 19 20  1  0  0  0
 20 47  1  0  0  0
 21 22  1  0  0  0
 21 25  1  0  0  0
 22 23  1  0  0  0
 22 30  2  0  0  0
 23 24  2  0  0  0
 23 26  1  0  0  0
 24 25  1  0  0  0
 24 29  1  0  0  0
 25 48  1  0  0  0
 25 49  1  0  0  0
 26 27  2  0  0  0
 26 50  1  0  0  0
 27 28  1  0  0  0
 27 31  1  0  0  0
 28 29  2  0  0  0
 28 51  1  0  0  0
 29 52  1  0  0  0
 31 32  1  0  0  0
 32 53  1  0  0  0
 32 54  1  0  0  0
 32 55  1  0  0  0
M  CHG  2   2   1  10   1
M  END
> <s_m_source_file>
../4hyh_ligand.sdf

> <i_m_source_file_index>
1

> <s_epik_input>
W0NIMl0xW0NIMl1bTkgyK11bQ0gyXVtDSDJdTjFjMltjSF1bY0hdbltjSF1jMltOSF1DKD1PKWMzbmMoc1tjSF0zKU4oQzQ9TylbQ0gyXWMoYzQ1KVtjSF1bY0hdYyhbY0hdNSlPW0NIM10=

> <s_epik_cmdline>
J2VwaWtfYXBwJywgJy1pbWFlJywgJ2xpZ2FuZF9wcm8ubWFlJywgJy1vbWFlJywgJ2xpZ2FuZF9wcmVwLm1hZScsICctbXMnLCAnMScsICctcGgnLCAnNycsICctcGh0JywgJzAuNScsICctbnQn

> <r_lp_tautomer_probability>
1

> <r_epik_Ionization_Penalty>
  0.2506

> <r_epik_Ionization_Penalty_Charging>
  0.2506

> <r_epik_Ionization_Penalty_Neutral>
  0.0000

> <r_epik_State_Penalty>
 -0.0000

> <r_epik_Charging_Adjusted_Penalty>
0.250554532687719

> <i_epik_Tot_Q>
2

> <i_epik_Tot_abs_Q>
2

$$$$
