4hys_ligand
                    3D
 Schrodinger Suite 2020-3.
 42 45  0  0  1  0            999 V2000
   -2.1330   -2.2240   10.3770 N   0  0  0  0  0  0
   -2.8040   -1.1460   10.7660 C   0  0  0  0  0  0
   -2.5090   -0.5690   11.9330 N   0  0  0  0  0  0
   -1.1550   -2.7350   11.1330 C   0  0  0  0  0  0
   -0.8190   -2.1630   12.3390 C   0  0  0  0  0  0
   -1.5280   -1.0270   12.7180 C   0  0  0  0  0  0
   -1.2380   -0.4240   13.9400 N   0  0  0  0  0  0
   -3.8280   -0.6430    9.9570 N   0  0  0  0  0  0
   -4.8260    0.2840   10.5240 C   0  0  2  0  0  0
   -5.8390   -0.4900   11.3800 C   0  0  0  0  0  0
   -6.8740    0.4370   12.0280 C   0  0  0  0  0  0
   -7.5610    1.2990   10.9600 C   0  0  2  0  0  0
   -6.5400    2.0580   10.0820 C   0  0  0  0  0  0
   -5.5430    1.0890    9.4250 C   0  0  0  0  0  0
   -8.3840    2.2490   11.6370 O   0  0  0  0  0  0
   -0.2820   -0.1860   15.9160 C   0  0  0  0  0  0
   -0.3190   -0.9390   14.8590 N   0  0  0  0  0  0
   -1.2390    0.8980   15.7250 C   0  0  0  0  0  0
   -1.8210    0.7030   14.4610 C   0  0  0  0  0  0
   -2.7820    1.6050   13.9980 C   0  0  0  0  0  0
   -3.1470    2.6660   14.7970 C   0  0  0  0  0  0
   -2.5670    2.8530   16.0450 C   0  0  0  0  0  0
   -1.6220    1.9900   16.5180 C   0  0  0  0  0  0
   -0.6160   -3.6177   10.7888 H   0  0  0  0  0  0
   -0.0334   -2.5808   12.9686 H   0  0  0  0  0  0
   -3.8898   -0.9378    8.8990 H   0  0  0  0  0  0
   -4.2559    0.9818   11.1549 H   0  0  0  0  0  0
   -6.3752   -1.2138   10.7487 H   0  0  0  0  0  0
   -5.3087   -1.0249   12.1817 H   0  0  0  0  0  0
   -7.6342   -0.1669   12.5451 H   0  0  0  0  0  0
   -6.3734    1.0956   12.7530 H   0  0  0  0  0  0
   -8.2097    0.6782   10.3245 H   0  0  0  0  0  0
   -7.0725    2.6043    9.2895 H   0  0  0  0  0  0
   -5.9787    2.7702   10.7047 H   0  0  0  0  0  0
   -4.8017    1.6576    8.8443 H   0  0  0  0  0  0
   -6.0812    0.3998    8.7577 H   0  0  0  0  0  0
   -9.1783    1.9040   12.3153 H   0  0  0  0  0  0
    0.3513   -0.3370   16.7902 H   0  0  0  0  0  0
   -3.2373    1.4709   13.0168 H   0  0  0  0  0  0
   -3.9019    3.3689   14.4447 H   0  0  0  0  0  0
   -2.8716    3.7026   16.6562 H   0  0  0  0  0  0
   -1.1711    2.1468   17.4979 H   0  0  0  0  0  0
  1  2  2  0  0  0
  1  4  1  0  0  0
  2  3  1  0  0  0
  2  8  1  0  0  0
  3  6  2  0  0  0
  4  5  2  0  0  0
  4 24  1  0  0  0
  5  6  1  0  0  0
  5 25  1  0  0  0
  6  7  1  0  0  0
  7 17  1  0  0  0
  7 19  1  0  0  0
  8  9  1  0  0  0
  8 26  1  0  0  0
  9 10  1  0  0  0
  9 14  1  0  0  0
  9 27  1  0  0  0
 10 11  1  0  0  0
 10 28  1  0  0  0
 10 29  1  0  0  0
 11 12  1  0  0  0
 11 30  1  0  0  0
 11 31  1  0  0  0
 12 13  1  0  0  0
 12 15  1  0  0  0
 12 32  1  0  0  0
 13 14  1  0  0  0
 13 33  1  0  0  0
 13 34  1  0  0  0
 14 35  1  0  0  0
 14 36  1  0  0  0
 15 37  1  0  0  0
 16 17  2  0  0  0
 16 18  1  0  0  0
 16 38  1  0  0  0
 18 19  2  0  0  0
 18 23  1  0  0  0
 19 20  1  0  0  0
 20 21  2  0  0  0
 20 39  1  0  0  0
 21 22  1  0  0  0
 21 40  1  0  0  0
 22 23  2  0  0  0
 22 41  1  0  0  0
 23 42  1  0  0  0
M  END
> <s_m_source_file>
../4hys_ligand.sdf

> <i_m_source_file_index>
1

> <s_epik_input>
W0NIMl0xW0NIMl1bQ0BIXShbT0hdKVtDSDJdW0NIMl1bQ0BIXTFbTkhdYzJuW2NIXVtjSF1jKG4yKS1uKG5bY0hdMyljKGMzNClbY0hdW2NIXVtjSF1bY0hdNA==

> <s_epik_cmdline>
J2VwaWtfYXBwJywgJy1pbWFlJywgJ2xpZ2FuZF9wcm8ubWFlJywgJy1vbWFlJywgJ2xpZ2FuZF9wcmVwLm1hZScsICctbXMnLCAnMScsICctcGgnLCAnNycsICctcGh0JywgJzAuNScsICctbnQn

> <r_lp_tautomer_probability>
1

> <r_epik_Ionization_Penalty>
  0.0001

> <r_epik_Ionization_Penalty_Charging>
  0.0000

> <r_epik_Ionization_Penalty_Neutral>
  0.0001

> <r_epik_State_Penalty>
 -0.0000

> <r_epik_Charging_Adjusted_Penalty>
0

> <i_epik_Tot_Q>
0

> <i_epik_Tot_abs_Q>
0

$$$$
