4hyu_ligand
                    3D
 Schrodinger Suite 2020-3.
 58 61  0  0  1  0            999 V2000
   -3.8040   -0.8140    9.1230 N   0  0  0  0  0  0
   -2.7750   -1.3060    9.9070 C   0  0  0  0  0  0
   -2.0520   -2.3430    9.4880 N   0  0  0  0  0  0
   -1.0570   -2.8240   10.2380 C   0  0  0  0  0  0
   -0.7770   -2.2470   11.4680 C   0  0  0  0  0  0
   -1.5440   -1.1470   11.8740 C   0  0  0  0  0  0
   -2.5240   -0.7270   11.0730 N   0  0  0  0  0  0
   -1.3040   -0.5300   13.1060 N   0  0  0  0  0  0
   -0.4620   -1.0720   14.0760 N   0  0  0  0  0  0
   -0.4190   -0.3150   15.1230 C   0  0  0  0  0  0
   -1.8460    0.6420   13.6060 C   0  0  0  0  0  0
   -1.3020    0.8140   14.8920 C   0  0  0  0  0  0
   -1.6380    1.9200   15.6910 C   0  0  0  0  0  0
   -2.5420    2.8550   15.2110 C   0  0  0  0  0  0
   -3.0790    2.6920   13.9270 C   0  0  0  0  0  0
   -2.7410    1.6030   13.1360 C   0  0  0  0  0  0
   -4.6630    0.2670    9.6270 C   0  0  2  0  0  0
   -5.7950   -0.3210   10.4870 C   0  0  0  0  0  0
   -6.6570    0.8140   11.0500 C   0  0  0  0  0  0
   -7.3030    1.5730    9.8860 C   0  0  2  0  0  0
   -6.2190    2.1600    8.9640 C   0  0  0  0  0  0
   -5.2600    1.0640    8.4600 C   0  0  0  0  0  0
   -8.1050    2.6200   10.4300 O   0  0  0  0  0  0
   -1.0700    1.9530   16.9270 O   0  0  0  0  0  0
   -0.7940    3.2480   17.4620 C   0  0  0  0  0  0
    0.3710    3.0930   18.4540 C   0  0  0  0  0  0
   -0.0210    2.0970   19.5430 C   0  0  0  0  0  0
    1.2970    1.8990   20.7850 S   0  0  0  0  0  0
    0.4460    0.6790   21.8270 C   0  0  0  0  0  0
    2.4540    1.2920   20.2180 O   0  0  0  0  0  0
    1.4440    3.1060   21.5260 O   0  0  0  0  0  0
   -3.9784   -1.2334    8.1211 H   0  0  0  0  0  0
   -0.4659   -3.6687    9.8841 H   0  0  0  0  0  0
    0.0185   -2.6389   12.1018 H   0  0  0  0  0  0
    0.1746   -0.4927   16.0197 H   0  0  0  0  0  0
   -2.8318    3.7074   15.8255 H   0  0  0  0  0  0
   -3.7764    3.4358   13.5416 H   0  0  0  0  0  0
   -3.1771    1.4981   12.1426 H   0  0  0  0  0  0
   -4.0141    0.9174   10.2319 H   0  0  0  0  0  0
   -6.4200   -0.9818    9.8684 H   0  0  0  0  0  0
   -5.3625   -0.8977   11.3179 H   0  0  0  0  0  0
   -7.4394    0.3931   11.6986 H   0  0  0  0  0  0
   -6.0253    1.4988   11.6347 H   0  0  0  0  0  0
   -7.9844    0.9306    9.3089 H   0  0  0  0  0  0
   -6.6957    2.6353    8.0940 H   0  0  0  0  0  0
   -5.6341    2.9099    9.5168 H   0  0  0  0  0  0
   -4.4498    1.5426    7.8903 H   0  0  0  0  0  0
   -5.8202    0.3847    7.8006 H   0  0  0  0  0  0
   -8.9323    2.3802   11.1142 H   0  0  0  0  0  0
   -0.5177    3.9309   16.6451 H   0  0  0  0  0  0
   -1.6889    3.6317   17.9738 H   0  0  0  0  0  0
    1.2598    2.7243   17.9210 H   0  0  0  0  0  0
    0.5957    4.0680   18.9109 H   0  0  0  0  0  0
   -0.9276    2.4517   20.0551 H   0  0  0  0  0  0
   -0.2173    1.1148   19.0882 H   0  0  0  0  0  0
    0.3249   -0.2603   21.2674 H   0  0  0  0  0  0
   -0.5434    1.0664   22.1116 H   0  0  0  0  0  0
    1.0411    0.4920   22.7330 H   0  0  0  0  0  0
  1  2  1  0  0  0
  1 17  1  0  0  0
  1 32  1  0  0  0
  2  3  2  0  0  0
  2  7  1  0  0  0
  3  4  1  0  0  0
  4  5  2  0  0  0
  4 33  1  0  0  0
  5  6  1  0  0  0
  5 34  1  0  0  0
  6  7  2  0  0  0
  6  8  1  0  0  0
  8  9  1  0  0  0
  8 11  1  0  0  0
  9 10  2  0  0  0
 10 12  1  0  0  0
 10 35  1  0  0  0
 11 12  2  0  0  0
 11 16  1  0  0  0
 12 13  1  0  0  0
 13 14  2  0  0  0
 13 24  1  0  0  0
 14 15  1  0  0  0
 14 36  1  0  0  0
 15 16  2  0  0  0
 15 37  1  0  0  0
 16 38  1  0  0  0
 17 18  1  0  0  0
 17 22  1  0  0  0
 17 39  1  0  0  0
 18 19  1  0  0  0
 18 40  1  0  0  0
 18 41  1  0  0  0
 19 20  1  0  0  0
 19 42  1  0  0  0
 19 43  1  0  0  0
 20 21  1  0  0  0
 20 23  1  0  0  0
 20 44  1  0  0  0
 21 22  1  0  0  0
 21 45  1  0  0  0
 21 46  1  0  0  0
 22 47  1  0  0  0
 22 48  1  0  0  0
 23 49  1  0  0  0
 24 25  1  0  0  0
 25 26  1  0  0  0
 25 50  1  0  0  0
 25 51  1  0  0  0
 26 27  1  0  0  0
 26 52  1  0  0  0
 26 53  1  0  0  0
 27 28  1  0  0  0
 27 54  1  0  0  0
 27 55  1  0  0  0
 28 29  1  0  0  0
 28 30  2  0  0  0
 28 31  2  0  0  0
 29 56  1  0  0  0
 29 57  1  0  0  0
 29 58  1  0  0  0
M  END
> <s_m_source_file>
../4hyu_ligand.sdf

> <i_m_source_file_index>
1

> <s_epik_input>
W0NIMl0xW0NIMl1bQ0BIXShbT0hdKVtDSDJdW0NIMl1bQ0BIXTFbTkhdYzJuW2NIXVtjSF1jKG4yKS1uM25bY0hdYyhjMzQpYyhbY0hdW2NIXVtjSF00KU9bQ0gyXVtDSDJdW0NIMl1TKD1PKSg9TylbQ0gzXQ==

> <s_epik_cmdline>
J2VwaWtfYXBwJywgJy1pbWFlJywgJ2xpZ2FuZF9wcm8ubWFlJywgJy1vbWFlJywgJ2xpZ2FuZF9wcmVwLm1hZScsICctbXMnLCAnMScsICctcGgnLCAnNycsICctcGh0JywgJzAuNScsICctbnQn

> <r_lp_tautomer_probability>
1

> <r_epik_Ionization_Penalty>
  0.0001

> <r_epik_Ionization_Penalty_Charging>
  0.0000

> <r_epik_Ionization_Penalty_Neutral>
  0.0001

> <r_epik_State_Penalty>
 -0.0000

> <r_epik_Charging_Adjusted_Penalty>
0

> <i_epik_Tot_Q>
0

> <i_epik_Tot_abs_Q>
0

$$$$
