4hz5_ligand
                    3D
 Schrodinger Suite 2020-3.
 36 38  0  0  1  0            999 V2000
    7.4740   66.7360   12.3240 O   0  0  0  0  0  0
    8.4900   66.9070   12.9750 C   0  0  0  0  0  0
    9.1080   65.7690   13.7000 C   0  0  0  0  0  0
    8.7100   64.3450   13.7660 C   0  0  0  0  0  0
    7.5380   63.6710   13.1010 C   0  0  0  0  0  0
    6.9040   62.6560   14.0380 C   0  0  0  0  0  0
   10.3250   65.9430   14.5180 C   0  0  0  0  0  0
   11.2700   67.0110   14.9240 C   0  0  0  0  0  0
   11.1460   68.3070   14.5100 O   0  0  0  0  0  0
   12.2970   69.1520   14.4800 C   0  0  0  0  0  0
   12.2870   66.6640   15.7390 N   0  0  0  0  0  0
   12.4620   65.3950   16.1800 C   0  0  0  0  0  0
   11.6260   64.3850   15.8410 N   0  0  0  0  0  0
   10.5670   64.5790   15.0310 C   0  0  0  0  0  0
    9.6210   63.7400   14.5660 N   0  3  0  0  0  0
   13.7650   65.0490   17.2010 S   0  0  0  0  0  0
   14.8690   66.3390   17.2620 C   0  0  0  0  0  0
   15.3620   66.9140   16.0950 C   0  0  0  0  0  0
   16.2660   67.9720   16.1870 C   0  0  0  0  0  0
   16.6580   68.4230   17.4460 C   0  0  0  0  0  0
   16.1720   67.8470   18.5590 N   0  0  0  0  0  0
   15.2990   66.8280   18.4930 C   0  0  0  0  0  0
    8.9494   67.9052   13.0254 H   0  0  0  0  0  0
    6.7853   64.4264   12.8312 H   0  0  0  0  0  0
    7.8798   63.1533   12.1926 H   0  0  0  0  0  0
    6.0517   62.1754   13.5354 H   0  0  0  0  0  0
    6.5535   63.1656   14.9476 H   0  0  0  0  0  0
    7.6480   61.8925   14.3090 H   0  0  0  0  0  0
   12.0087   70.1518   14.1231 H   0  0  0  0  0  0
   13.0491   68.7232   13.8014 H   0  0  0  0  0  0
   12.7197   69.2319   15.4924 H   0  0  0  0  0  0
   15.0455   66.5421   15.1205 H   0  0  0  0  0  0
   16.6610   68.4403   15.2855 H   0  0  0  0  0  0
   17.3641   69.2492   17.5288 H   0  0  0  0  0  0
   14.9233   66.3793   19.4126 H   0  0  0  0  0  0
    9.5394   62.6634   14.7762 H   0  0  0  0  0  0
  1  2  2  0  0  0
  2  3  1  0  0  0
  2 23  1  0  0  0
  3  4  2  0  0  0
  3  7  1  0  0  0
  4  5  1  0  0  0
  4 15  1  0  0  0
  5  6  1  0  0  0
  5 24  1  0  0  0
  5 25  1  0  0  0
  6 26  1  0  0  0
  6 27  1  0  0  0
  6 28  1  0  0  0
  7  8  2  0  0  0
  7 14  1  0  0  0
  8  9  1  0  0  0
  8 11  1  0  0  0
  9 10  1  0  0  0
 10 29  1  0  0  0
 10 30  1  0  0  0
 10 31  1  0  0  0
 11 12  2  0  0  0
 12 13  1  0  0  0
 12 16  1  0  0  0
 13 14  1  0  0  0
 14 15  2  0  0  0
 15 36  1  0  0  0
 16 17  1  0  0  0
 17 18  2  0  0  0
 17 22  1  0  0  0
 18 19  1  0  0  0
 18 32  1  0  0  0
 19 20  2  0  0  0
 19 33  1  0  0  0
 20 21  1  0  0  0
 20 34  1  0  0  0
 21 22  2  0  0  0
 22 35  1  0  0  0
M  CHG  1  15   1
M  END
> <s_m_source_file>
../4hz5_ligand.sdf

> <i_m_source_file_index>
1

> <s_epik_input>
Tz1bQ0hdYzFjKFtDSDJdW0NIM10pbmMoYzEyKVtuSF1jKG5jMk9bQ0gzXSlTYzNbY0hdW2NIXVtjSF1uW2NIXTM=

> <s_epik_cmdline>
J2VwaWtfYXBwJywgJy1pbWFlJywgJ2xpZ2FuZF9wcm8ubWFlJywgJy1vbWFlJywgJ2xpZ2FuZF9wcmVwLm1hZScsICctbXMnLCAnMScsICctcGgnLCAnNycsICctcGh0JywgJzAuNScsICctbnQn

> <r_lp_tautomer_probability>
1

> <r_epik_Ionization_Penalty>
  0.0007

> <r_epik_Ionization_Penalty_Charging>
  0.0001

> <r_epik_Ionization_Penalty_Neutral>
  0.0006

> <r_epik_State_Penalty>
 -0.0000

> <r_epik_Charging_Adjusted_Penalty>
0.000100001299577813

> <i_epik_Tot_Q>
1

> <i_epik_Tot_abs_Q>
1

$$$$
