4hze_ligand
                    3D
 Schrodinger Suite 2020-3.
 50 50  0  0  1  0            999 V2000
   34.7950   88.8210   72.2030 O   0  5  0  0  0  0
   33.7680   88.5070   71.5630 C   0  0  0  0  0  0
   32.9080   89.3530   71.2250 O   0  0  0  0  0  0
   33.5340   87.0610   71.2000 C   0  0  1  0  0  0
   32.1300   86.8870   70.7990 N   0  3  0  0  0  0
   31.9177   87.5186   69.9238 H   0  0  0  0  0  0
   31.4722   87.1796   71.6307 H   0  0  0  0  0  0
   31.9499   85.8326   70.5426 H   0  0  0  0  0  0
   34.3250   86.6650   69.9410 C   0  0  0  0  0  0
   35.8420   86.6840   70.0110 C   0  0  0  0  0  0
   36.4420   86.0730   68.7430 C   0  0  0  0  0  0
   36.6540   87.1220   67.6360 C   0  0  0  0  0  0
   35.7073   87.6478   67.4430 H   0  0  0  0  0  0
   37.4166   87.8463   67.9583 H   0  0  0  0  0  0
   37.1380   86.5110   66.2660 B   0  5  0  0  0  0
   38.3060   85.5460   66.6180 O   0  0  0  0  0  0
   39.1882   85.9235   67.1558 H   0  0  0  0  0  0
   37.7330   87.4580   65.2740 O   0  0  0  0  0  0
   38.4556   88.2186   65.6047 H   0  0  0  0  0  0
   36.2000   85.5920   65.5670 O   0  0  0  0  0  0
   35.6618   84.8189   66.1351 H   0  0  0  0  0  0
   33.8020   86.1690   72.4220 C   0  0  0  0  0  0
   32.7640   86.3620   73.5290 C   0  0  0  0  0  0
   32.9350   85.4010   74.6400 N   0  3  0  0  0  0
   32.6940   84.0430   74.1380 C   0  0  0  0  0  0
   32.9600   83.0250   75.2400 C   0  0  0  0  0  0
   32.0520   83.2840   76.4340 C   0  0  0  0  0  0
   32.2060   84.7330   76.8890 C   0  0  0  0  0  0
   31.9800   85.6940   75.7200 C   0  0  0  0  0  0
   34.0670   85.6347   69.6549 H   0  0  0  0  0  0
   34.0704   87.3487   69.1178 H   0  0  0  0  0  0
   36.1916   87.7224   70.1083 H   0  0  0  0  0  0
   36.1762   86.1014   70.8822 H   0  0  0  0  0  0
   37.4178   85.6234   68.9790 H   0  0  0  0  0  0
   35.7655   85.2977   68.3540 H   0  0  0  0  0  0
   33.7784   85.1124   72.1169 H   0  0  0  0  0  0
   34.7909   86.4078   72.8405 H   0  0  0  0  0  0
   32.8537   87.3772   73.9428 H   0  0  0  0  0  0
   31.7549   86.2232   73.1137 H   0  0  0  0  0  0
   33.9573   85.4788   75.0386 H   0  0  0  0  0  0
   31.6484   83.9542   73.8081 H   0  0  0  0  0  0
   33.3645   83.8413   73.2896 H   0  0  0  0  0  0
   32.7676   82.0118   74.8574 H   0  0  0  0  0  0
   34.0083   83.1014   75.5645 H   0  0  0  0  0  0
   31.0064   83.1003   76.1461 H   0  0  0  0  0  0
   32.3291   82.6104   77.2583 H   0  0  0  0  0  0
   31.4686   84.9506   77.6757 H   0  0  0  0  0  0
   33.2207   84.8872   77.2848 H   0  0  0  0  0  0
   32.1245   86.7279   76.0668 H   0  0  0  0  0  0
   30.9532   85.5735   75.3442 H   0  0  0  0  0  0
  1  2  1  0  0  0
  2  3  2  0  0  0
  2  4  1  0  0  0
  4  5  1  0  0  0
  4  9  1  0  0  0
  4 22  1  0  0  0
  5  6  1  0  0  0
  5  7  1  0  0  0
  5  8  1  0  0  0
  9 10  1  0  0  0
  9 30  1  0  0  0
  9 31  1  0  0  0
 10 11  1  0  0  0
 10 32  1  0  0  0
 10 33  1  0  0  0
 11 12  1  0  0  0
 11 34  1  0  0  0
 11 35  1  0  0  0
 12 13  1  0  0  0
 12 14  1  0  0  0
 12 15  1  0  0  0
 15 16  1  0  0  0
 15 18  1  0  0  0
 15 20  1  0  0  0
 16 17  1  0  0  0
 18 19  1  0  0  0
 20 21  1  0  0  0
 22 23  1  0  0  0
 22 36  1  0  0  0
 22 37  1  0  0  0
 23 24  1  0  0  0
 23 38  1  0  0  0
 23 39  1  0  0  0
 24 25  1  0  0  0
 24 29  1  0  0  0
 24 40  1  0  0  0
 25 26  1  0  0  0
 25 41  1  0  0  0
 25 42  1  0  0  0
 26 27  1  0  0  0
 26 43  1  0  0  0
 26 44  1  0  0  0
 27 28  1  0  0  0
 27 45  1  0  0  0
 27 46  1  0  0  0
 28 29  1  0  0  0
 28 47  1  0  0  0
 28 48  1  0  0  0
 29 49  1  0  0  0
 29 50  1  0  0  0
M  CHG  4   1  -1   5   1  15  -1  24   1
M  END
> <s_m_source_file>
../4hze_ligand.sdf

> <i_m_source_file_index>
1

> <s_epik_input>
W09IXVtCLV0oW09IXSkoW09IXSlbQ0gyXVtDSDJdW0NIMl1bQ0gyXVtDQEBdKEMoW08tXSk9TykoW05IMytdKVtDSDJdW0NIMl1bTkgrXTFbQ0gyXVtDSDJdW0NIMl1bQ0gyXVtDSDJdMQ==

> <s_epik_cmdline>
J2VwaWtfYXBwJywgJy1pbWFlJywgJ2xpZ2FuZF9wcm8ubWFlJywgJy1vbWFlJywgJ2xpZ2FuZF9wcmVwLm1hZScsICctbXMnLCAnMScsICctcGgnLCAnNycsICctcGh0JywgJzAuNScsICctbnQn

> <r_lp_tautomer_probability>
1

> <r_epik_Ionization_Penalty>
  0.0086

> <r_epik_Ionization_Penalty_Charging>
  0.0086

> <r_epik_Ionization_Penalty_Neutral>
  0.0000

> <r_epik_State_Penalty>
 -0.0000

> <r_epik_Charging_Adjusted_Penalty>
0.00856621660580165

> <i_epik_Tot_Q>
0

> <i_epik_Tot_abs_Q>
4

> <s_epik_Chemistry_Notes>
This compound contains a Lewis acid (boronic acid) which adds nucleophiles to form tetrahedral complexes, lowering the experimental pKa

$$$$
