4hzt_ligand
                    3D
 Schrodinger Suite 2020-3.
 49 52  0  0  1  0            999 V2000
    9.6870  -11.8270    4.4120 Cl  0  0  0  0  0  0
   10.0550  -13.2370    5.4620 C   0  0  0  0  0  0
    9.3310  -14.4500    5.2550 C   0  0  0  0  0  0
    9.6060  -15.5400    6.0610 C   0  0  0  0  0  0
   10.6030  -15.3930    7.0600 C   0  0  0  0  0  0
   11.3220  -14.1450    7.2610 C   0  0  0  0  0  0
   11.0570  -13.0750    6.4130 C   0  0  0  0  0  0
   10.9560  -16.5400    7.9730 C   0  0  0  0  0  0
   11.5590  -16.2870    9.0680 N   0  3  0  0  0  0
   11.8030  -14.9130    9.5580 C   0  0  0  0  0  0
   12.8610  -14.9790   10.6480 C   0  0  0  0  0  0
   10.5200  -14.2560   10.1820 C   0  0  0  0  0  0
   12.3430  -14.0940    8.3810 C   0  0  0  0  0  0
   10.6670  -17.7590    7.5330 N   0  0  0  0  0  0
   10.8430  -18.9120    8.4150 C   0  0  2  0  0  0
   11.4280  -19.9500    7.5580 C   0  0  0  0  0  0
   11.6890  -21.2090    8.0090 N   0  0  0  0  0  0
   12.1450  -21.8500    6.9430 C   0  0  0  0  0  0
   12.4930  -23.2490    6.9730 O   0  5  0  0  0  0
   12.1110  -21.1010    5.8410 O   0  0  0  0  0  0
   11.6480  -19.8830    6.1910 N   0  0  0  0  0  0
    9.4770  -19.4370    8.9390 C   0  0  0  0  0  0
    8.9520  -18.4470    9.9640 C   0  0  0  0  0  0
    9.5320  -18.4410   11.2390 C   0  0  0  0  0  0
    9.1220  -17.5360   12.2320 C   0  0  0  0  0  0
    8.1010  -16.6320   11.9530 C   0  0  0  0  0  0
    7.5460  -16.6170   10.6630 C   0  0  0  0  0  0
    7.9380  -17.5330    9.6450 C   0  0  0  0  0  0
    8.5734  -14.5161    4.4741 H   0  0  0  0  0  0
    9.0735  -16.4824    5.9328 H   0  0  0  0  0  0
   11.6151  -12.1420    6.4909 H   0  0  0  0  0  0
   12.4780  -15.5662   11.4956 H   0  0  0  0  0  0
   13.1025  -13.9607   10.9867 H   0  0  0  0  0  0
   13.7679  -15.4579   10.2502 H   0  0  0  0  0  0
   10.1640  -14.8717   11.0212 H   0  0  0  0  0  0
    9.7330  -14.1893    9.4164 H   0  0  0  0  0  0
   10.7646  -13.2470   10.5454 H   0  0  0  0  0  0
   13.2946  -14.5192    8.0293 H   0  0  0  0  0  0
   12.4993  -13.0492    8.6874 H   0  0  0  0  0  0
   10.2959  -17.9026    6.5075 H   0  0  0  0  0  0
   11.5009  -18.6301    9.2503 H   0  0  0  0  0  0
    8.7711  -19.5235    8.0998 H   0  0  0  0  0  0
    9.6173  -20.4243    9.4033 H   0  0  0  0  0  0
   10.3218  -19.1570   11.4665 H   0  0  0  0  0  0
    9.5990  -17.5416   13.2121 H   0  0  0  0  0  0
    7.7391  -15.9487   12.7212 H   0  0  0  0  0  0
    6.7835  -15.8734   10.4311 H   0  0  0  0  0  0
    7.4699  -17.5237    8.6607 H   0  0  0  0  0  0
   11.9254  -17.1114    9.6973 H   0  0  0  0  0  0
  1  2  1  0  0  0
  2  3  2  0  0  0
  2  7  1  0  0  0
  3  4  1  0  0  0
  3 29  1  0  0  0
  4  5  2  0  0  0
  4 30  1  0  0  0
  5  6  1  0  0  0
  5  8  1  0  0  0
  6  7  2  0  0  0
  6 13  1  0  0  0
  7 31  1  0  0  0
  8  9  2  0  0  0
  8 14  1  0  0  0
  9 10  1  0  0  0
  9 49  1  0  0  0
 10 11  1  0  0  0
 10 12  1  0  0  0
 10 13  1  0  0  0
 11 32  1  0  0  0
 11 33  1  0  0  0
 11 34  1  0  0  0
 12 35  1  0  0  0
 12 36  1  0  0  0
 12 37  1  0  0  0
 13 38  1  0  0  0
 13 39  1  0  0  0
 14 15  1  0  0  0
 14 40  1  0  0  0
 15 16  1  0  0  0
 15 22  1  0  0  0
 15 41  1  0  0  0
 16 17  1  0  0  0
 16 21  2  0  0  0
 17 18  2  0  0  0
 18 19  1  0  0  0
 18 20  1  0  0  0
 20 21  1  0  0  0
 22 23  1  0  0  0
 22 42  1  0  0  0
 22 43  1  0  0  0
 23 24  2  0  0  0
 23 28  1  0  0  0
 24 25  1  0  0  0
 24 44  1  0  0  0
 25 26  2  0  0  0
 25 45  1  0  0  0
 26 27  1  0  0  0
 26 46  1  0  0  0
 27 28  2  0  0  0
 27 47  1  0  0  0
 28 48  1  0  0  0
M  CHG  2   9   1  19  -1
M  END
> <s_m_source_file>
../4hzt_ligand.sdf

> <i_m_source_file_index>
1

> <s_epik_input>
W2NIXTFbY0hdYyhDbClbY0hdYyhjMTIpW0NIMl1DKFtDSDNdKShbQ0gzXSlOPUMyW05IXVtDQEhdKGMzbmMoPU8pb1tuSF0zKVtDSDJdYzRbY0hdW2NIXVtjSF1bY0hdW2NIXTQ=

> <s_epik_cmdline>
J2VwaWtfYXBwJywgJy1pbWFlJywgJ2xpZ2FuZF9wcm8ubWFlJywgJy1vbWFlJywgJ2xpZ2FuZF9wcmVwLm1hZScsICctbXMnLCAnMScsICctcGgnLCAnNycsICctcGh0JywgJzAuNScsICctbnQn

> <r_lp_tautomer_probability>
1

> <r_epik_Ionization_Penalty>
 13.1043

> <r_epik_Ionization_Penalty_Charging>
 13.1043

> <r_epik_Ionization_Penalty_Neutral>
  0.0000

> <r_epik_State_Penalty>
 -0.0000

> <r_epik_Charging_Adjusted_Penalty>
13.1042877954174

> <i_epik_Tot_Q>
0

> <i_epik_Tot_abs_Q>
2

> <s_epik_Chemistry_Notes>
This compound has an imine and may undergo hydrolysis.

$$$$
