4hzw_ligand
                    3D
 Schrodinger Suite 2020-3.
 46 46  0  0  1  0            999 V2000
   -5.4720  -30.1340   35.9800 C   0  0  0  0  0  0
   -5.7520  -28.7220   35.6010 C   0  0  0  0  0  0
   -7.0440  -28.4250   34.8930 C   0  0  1  0  0  0
   -8.0380  -29.5510   34.7370 C   0  0  2  0  0  0
   -7.3450  -30.9560   34.6420 C   0  0  1  0  0  0
   -6.3320  -31.1280   35.5990 O   0  0  0  0  0  0
   -4.1950  -30.5290   36.6200 C   0  0  0  0  0  0
   -3.5490  -29.5940   37.3020 O   0  0  0  0  0  0
   -4.0340  -31.8550   36.7410 O   0  5  0  0  0  0
   -8.3250  -32.1260   34.7990 C   0  0  1  0  0  0
   -7.6480  -33.4550   34.5260 C   0  0  1  0  0  0
   -8.6300  -34.6160   34.6010 C   0  0  0  0  0  0
   -9.7170  -34.5130   33.8240 O   0  0  0  0  0  0
   -8.8360  -32.1360   36.0590 O   0  0  0  0  0  0
  -10.1080  -31.8740   36.2410 C   0  0  0  0  0  0
   -7.1360  -33.4150   33.3120 O   0  0  0  0  0  0
   -7.6020  -27.1350   35.1160 N   0  0  0  0  0  0
   -8.2930  -26.3700   34.1590 C   0  0  0  0  0  0
   -8.0860  -26.5350   32.8770 N   0  0  0  0  0  0
   -8.9110  -25.3330   34.6050 N   0  3  0  0  0  0
  -10.2410  -28.7420   34.0310 C   0  0  0  0  0  0
  -11.1090  -28.6410   32.8570 C   0  0  0  0  0  0
  -10.6160  -28.5780   35.0710 O   0  0  0  0  0  0
   -8.9740  -29.2970   33.7440 N   0  0  0  0  0  0
   -5.0233  -27.9335   35.8403 H   0  0  0  0  0  0
   -6.6987  -28.2484   33.8637 H   0  0  0  0  0  0
   -8.7280  -29.5280   35.5933 H   0  0  0  0  0  0
   -6.8185  -31.0063   33.6775 H   0  0  0  0  0  0
   -9.2096  -31.9955   34.1583 H   0  0  0  0  0  0
   -6.7792  -33.6126   35.1820 H   0  0  0  0  0  0
   -8.1237  -35.5446   34.2987 H   0  0  0  0  0  0
   -8.9987  -34.7184   35.6323 H   0  0  0  0  0  0
  -10.4715  -35.3134   33.8249 H   0  0  0  0  0  0
  -10.3432  -31.9265   37.3143 H   0  0  0  0  0  0
  -10.7158  -32.6112   35.6959 H   0  0  0  0  0  0
  -10.3318  -30.8646   35.8655 H   0  0  0  0  0  0
   -6.3986  -32.6415   33.0513 H   0  0  0  0  0  0
   -7.5089  -26.6586   36.1031 H   0  0  0  0  0  0
   -7.5556  -27.4285   32.5160 H   0  0  0  0  0  0
   -8.4425  -25.7801   32.1607 H   0  0  0  0  0  0
   -9.0749  -25.2131   35.6861 H   0  0  0  0  0  0
  -12.0741  -28.2028   33.1512 H   0  0  0  0  0  0
  -11.2746  -29.6437   32.4361 H   0  0  0  0  0  0
  -10.6306  -28.0005   32.1014 H   0  0  0  0  0  0
   -8.7393  -29.5288   32.6946 H   0  0  0  0  0  0
   -9.2754  -24.5666   33.9051 H   0  0  0  0  0  0
  1  2  2  0  0  0
  1  6  1  0  0  0
  1  7  1  0  0  0
  2  3  1  0  0  0
  2 25  1  0  0  0
  3  4  1  0  0  0
  3 17  1  0  0  0
  3 26  1  0  0  0
  4  5  1  0  0  0
  4 24  1  0  0  0
  4 27  1  0  0  0
  5  6  1  0  0  0
  5 10  1  0  0  0
  5 28  1  0  0  0
  7  8  2  0  0  0
  7  9  1  0  0  0
 10 11  1  0  0  0
 10 14  1  0  0  0
 10 29  1  0  0  0
 11 12  1  0  0  0
 11 16  1  0  0  0
 11 30  1  0  0  0
 12 13  1  0  0  0
 12 31  1  0  0  0
 12 32  1  0  0  0
 13 33  1  0  0  0
 14 15  1  0  0  0
 15 34  1  0  0  0
 15 35  1  0  0  0
 15 36  1  0  0  0
 16 37  1  0  0  0
 17 18  1  0  0  0
 17 38  1  0  0  0
 18 19  1  0  0  0
 18 20  2  0  0  0
 19 39  1  0  0  0
 19 40  1  0  0  0
 20 41  1  0  0  0
 20 46  1  0  0  0
 21 22  1  0  0  0
 21 23  2  0  0  0
 21 24  1  0  0  0
 22 42  1  0  0  0
 22 43  1  0  0  0
 22 44  1  0  0  0
 24 45  1  0  0  0
M  CHG  2   9  -1  20   1
M  END
> <s_m_source_file>
../4hzw_ligand.sdf

> <i_m_source_file_index>
1

> <s_epik_input>
Tz1DKFtPSF0pQzE9W0NIXVtDQEhdKFtOSF0vQyhbTkgyXSk9TlxbSF0pW0NAQEhdKFtOSF1DKD1PKVtDSDNdKVtDQEBIXShPMSlbQ0BIXShPW0NIM10pW0NASF0oW09IXSlbQ0gyXVtPSF0=

> <s_epik_cmdline>
J2VwaWtfYXBwJywgJy1pbWFlJywgJ2xpZ2FuZF9wcm8ubWFlJywgJy1vbWFlJywgJ2xpZ2FuZF9wcmVwLm1hZScsICctbXMnLCAnMScsICctcGgnLCAnNycsICctcGh0JywgJzAuNScsICctbnQn

> <r_lp_tautomer_probability>
1

> <r_epik_Ionization_Penalty>
  0.0005

> <r_epik_Ionization_Penalty_Charging>
  0.0005

> <r_epik_Ionization_Penalty_Neutral>
  0.0000

> <r_epik_State_Penalty>
 -0.0000

> <r_epik_Charging_Adjusted_Penalty>
0.000468104377256633

> <i_epik_Tot_Q>
0

> <i_epik_Tot_abs_Q>
2

> <s_epik_Chemistry_Notes>
This compound has an imine and may undergo hydrolysis.

$$$$
