4hzx_ligand
                    3D
 Schrodinger Suite 2020-3.
 46 46  0  0  1  0            999 V2000
   30.8180    4.2460  -37.8990 C   0  0  0  0  0  0
   29.9260    3.4960  -38.2630 O   0  0  0  0  0  0
   32.1410    3.8620  -38.0300 O   0  5  0  0  0  0
   30.4790    5.5880  -37.3180 C   0  0  1  0  0  0
   29.0310    6.1310  -37.3600 C   0  0  0  0  0  0
   28.5890    6.9560  -36.1790 C   0  0  1  0  0  0
   29.5840    7.9800  -35.6240 C   0  0  1  0  0  0
   29.1640    8.9350  -34.6180 N   0  0  0  0  0  0
   28.6460   10.2110  -35.0130 C   0  0  0  0  0  0
   28.5560   10.4920  -36.1960 O   0  0  0  0  0  0
   28.2090   11.2000  -33.9730 C   0  0  0  0  0  0
   31.0930    7.6930  -35.8020 C   0  0  1  0  0  0
   31.5180    6.3300  -36.4270 C   0  0  0  0  0  0
   31.9990    8.7520  -35.7940 O   0  0  0  0  0  0
   32.5840    9.1580  -34.5870 C   0  0  0  0  0  0
   33.3690    8.0760  -33.9020 C   0  0  0  0  0  0
   33.3160   10.4660  -34.6810 C   0  0  0  0  0  0
   32.6060   11.6150  -35.3340 C   0  0  0  0  0  0
   34.5270    7.4860  -34.6370 C   0  0  0  0  0  0
   27.1760    7.1550  -35.9550 N   0  3  0  0  0  0
   30.7513    5.8097  -38.3605 H   0  0  0  0  0  0
   28.9071    6.7770  -38.2417 H   0  0  0  0  0  0
   28.3253    5.2893  -37.4201 H   0  0  0  0  0  0
   28.5424    6.1828  -35.3980 H   0  0  0  0  0  0
   29.3584    8.8343  -36.2792 H   0  0  0  0  0  0
   29.2429    8.6802  -33.5508 H   0  0  0  0  0  0
   28.3646   10.7720  -32.9717 H   0  0  0  0  0  0
   27.1424   11.4306  -34.1115 H   0  0  0  0  0  0
   28.7996   12.1226  -34.0733 H   0  0  0  0  0  0
   31.5061    7.7325  -34.7833 H   0  0  0  0  0  0
   31.7900    5.6926  -35.5727 H   0  0  0  0  0  0
   32.4175    6.5519  -37.0200 H   0  0  0  0  0  0
   31.6780    9.3330  -33.9882 H   0  0  0  0  0  0
   33.7915    8.4670  -32.9646 H   0  0  0  0  0  0
   32.7060    7.2269  -33.6793 H   0  0  0  0  0  0
   33.5682   10.8185  -33.6700 H   0  0  0  0  0  0
   34.2396   10.3284  -35.2624 H   0  0  0  0  0  0
   33.2598   12.4996  -35.3307 H   0  0  0  0  0  0
   31.6832   11.8390  -34.7789 H   0  0  0  0  0  0
   32.3545   11.3488  -36.3713 H   0  0  0  0  0  0
   35.0007    6.7126  -34.0146 H   0  0  0  0  0  0
   35.2594    8.2754  -34.8616 H   0  0  0  0  0  0
   34.1740    7.0354  -35.5763 H   0  0  0  0  0  0
   26.6119    6.3320  -36.4181 H   0  0  0  0  0  0
   26.8648    8.1104  -36.4027 H   0  0  0  0  0  0
   26.9753    7.1742  -34.8736 H   0  0  0  0  0  0
  1  2  2  0  0  0
  1  3  1  0  0  0
  1  4  1  0  0  0
  4  5  1  0  0  0
  4 13  1  0  0  0
  4 21  1  0  0  0
  5  6  1  0  0  0
  5 22  1  0  0  0
  5 23  1  0  0  0
  6  7  1  0  0  0
  6 20  1  0  0  0
  6 24  1  0  0  0
  7  8  1  0  0  0
  7 12  1  0  0  0
  7 25  1  0  0  0
  8  9  1  0  0  0
  8 26  1  0  0  0
  9 10  2  0  0  0
  9 11  1  0  0  0
 11 27  1  0  0  0
 11 28  1  0  0  0
 11 29  1  0  0  0
 12 13  1  0  0  0
 12 14  1  0  0  0
 12 30  1  0  0  0
 13 31  1  0  0  0
 13 32  1  0  0  0
 14 15  1  0  0  0
 15 16  1  0  0  0
 15 17  1  0  0  0
 15 33  1  0  0  0
 16 19  1  0  0  0
 16 34  1  0  0  0
 16 35  1  0  0  0
 17 18  1  0  0  0
 17 36  1  0  0  0
 17 37  1  0  0  0
 18 38  1  0  0  0
 18 39  1  0  0  0
 18 40  1  0  0  0
 19 41  1  0  0  0
 19 42  1  0  0  0
 19 43  1  0  0  0
 20 44  1  0  0  0
 20 45  1  0  0  0
 20 46  1  0  0  0
M  CHG  2   3  -1  20   1
M  END
> <s_m_source_file>
../4hzx_ligand.sdf

> <i_m_source_file_index>
1

> <s_epik_input>
Tz1DKFtPSF0pW0NASF0xW0NIMl1bQ0BIXShbTkgzK10pW0NAQEhdKFtOSF1DKD1PKVtDSDNdKVtDQEBIXShbQ0gyXTEpT1tDSF0oW0NIMl1bQ0gzXSlbQ0gyXVtDSDNd

> <s_epik_cmdline>
J2VwaWtfYXBwJywgJy1pbWFlJywgJ2xpZ2FuZF9wcm8ubWFlJywgJy1vbWFlJywgJ2xpZ2FuZF9wcmVwLm1hZScsICctbXMnLCAnMScsICctcGgnLCAnNycsICctcGh0JywgJzAuNScsICctbnQn

> <r_lp_tautomer_probability>
1

> <r_epik_Ionization_Penalty>
  0.0019

> <r_epik_Ionization_Penalty_Charging>
  0.0019

> <r_epik_Ionization_Penalty_Neutral>
  0.0000

> <r_epik_State_Penalty>
 -0.0000

> <r_epik_Charging_Adjusted_Penalty>
0.00188816947072547

> <i_epik_Tot_Q>
0

> <i_epik_Tot_abs_Q>
2

$$$$
