4hzz_ligand
                    3D
 Schrodinger Suite 2020-3.
 39 39  0  0  1  0            999 V2000
    5.3120   30.5480   38.4730 C   0  0  0  0  0  0
    4.5250   29.7390   38.9070 O   0  0  0  0  0  0
    5.0830   31.8970   38.4180 O   0  5  0  0  0  0
    6.5870   30.0950   37.9010 C   0  0  0  0  0  0
    6.9330   28.6040   37.8320 C   0  0  0  0  0  0
    7.9470   28.2170   36.8090 C   0  0  0  0  0  0
    8.9890   29.2350   36.3720 C   0  0  0  0  0  0
    9.9510   28.8640   35.3890 N   0  0  0  0  0  0
   11.2100   28.2800   35.6550 C   0  0  0  0  0  0
   11.6360   28.1630   36.7870 O   0  0  0  0  0  0
   12.0150   27.9100   34.4510 C   0  0  0  0  0  0
    8.6490   30.7230   36.4130 C   0  0  0  0  0  0
    7.3880   31.1590   37.1490 C   0  0  0  0  0  0
    9.6490   31.6660   36.3150 O   0  0  0  0  0  0
    9.9930   32.1750   35.0560 C   0  0  0  0  0  0
    8.9340   33.0420   34.4270 C   0  0  0  0  0  0
   11.3550   32.8030   35.1500 C   0  0  0  0  0  0
   12.4360   31.9080   35.6930 C   0  0  0  0  0  0
    8.5970   34.3150   35.1380 C   0  0  0  0  0  0
    8.3350   26.8410   36.8400 N   0  0  0  0  0  0
    6.4666   27.8710   38.4903 H   0  0  0  0  0  0
    9.7384   29.0274   34.3222 H   0  0  0  0  0  0
   11.4250   28.1014   33.5425 H   0  0  0  0  0  0
   12.2779   26.8430   34.4995 H   0  0  0  0  0  0
   12.9344   28.5134   34.4251 H   0  0  0  0  0  0
    7.0658   32.2002   37.1398 H   0  0  0  0  0  0
   10.0298   31.2889   34.4053 H   0  0  0  0  0  0
    9.2556   33.3399   33.4181 H   0  0  0  0  0  0
    7.9913   32.4791   34.3601 H   0  0  0  0  0  0
   11.6830   33.1188   34.1487 H   0  0  0  0  0  0
   11.3100   33.6787   35.8142 H   0  0  0  0  0  0
   13.3880   32.4584   35.7212 H   0  0  0  0  0  0
   12.5417   31.0257   35.0446 H   0  0  0  0  0  0
   12.1686   31.5856   36.7101 H   0  0  0  0  0  0
    7.8157   34.8512   34.5794 H   0  0  0  0  0  0
    9.4959   34.9451   35.2076 H   0  0  0  0  0  0
    8.2317   34.0843   36.1496 H   0  0  0  0  0  0
    7.6117   26.0725   37.1502 H   0  0  0  0  0  0
    9.3567   26.5511   36.5537 H   0  0  0  0  0  0
  1  2  2  0  0  0
  1  3  1  0  0  0
  1  4  1  0  0  0
  4  5  2  0  0  0
  4 13  1  0  0  0
  5  6  1  0  0  0
  5 21  1  0  0  0
  6  7  2  0  0  0
  6 20  1  0  0  0
  7  8  1  0  0  0
  7 12  1  0  0  0
  8  9  1  0  0  0
  8 22  1  0  0  0
  9 10  2  0  0  0
  9 11  1  0  0  0
 11 23  1  0  0  0
 11 24  1  0  0  0
 11 25  1  0  0  0
 12 13  2  0  0  0
 12 14  1  0  0  0
 13 26  1  0  0  0
 14 15  1  0  0  0
 15 16  1  0  0  0
 15 17  1  0  0  0
 15 27  1  0  0  0
 16 19  1  0  0  0
 16 28  1  0  0  0
 16 29  1  0  0  0
 17 18  1  0  0  0
 17 30  1  0  0  0
 17 31  1  0  0  0
 18 32  1  0  0  0
 18 33  1  0  0  0
 18 34  1  0  0  0
 19 35  1  0  0  0
 19 36  1  0  0  0
 19 37  1  0  0  0
 20 38  1  0  0  0
 20 39  1  0  0  0
M  CHG  1   3  -1
M  END
> <s_m_source_file>
../4hzz_ligand.sdf

> <i_m_source_file_index>
1

> <s_epik_input>
Tz1DKFtPSF0pYzFbY0hdYyhbTkgyXSljKFtOSF1DKD1PKVtDSDNdKWMoW2NIXTEpT1tDSF0oW0NIMl1bQ0gzXSlbQ0gyXVtDSDNd

> <s_epik_cmdline>
J2VwaWtfYXBwJywgJy1pbWFlJywgJ2xpZ2FuZF9wcm8ubWFlJywgJy1vbWFlJywgJ2xpZ2FuZF9wcmVwLm1hZScsICctbXMnLCAnMScsICctcGgnLCAnNycsICctcGh0JywgJzAuNScsICctbnQn

> <r_lp_tautomer_probability>
1

> <r_epik_Ionization_Penalty>
  0.0017

> <r_epik_Ionization_Penalty_Charging>
  0.0009

> <r_epik_Ionization_Penalty_Neutral>
  0.0007

> <r_epik_State_Penalty>
 -0.0000

> <r_epik_Charging_Adjusted_Penalty>
0.000931958368692524

> <i_epik_Tot_Q>
-1

> <i_epik_Tot_abs_Q>
1

$$$$
