4i06_ligand
                    3D
 Schrodinger Suite 2020-3.
 53 53  0  0  1  0            999 V2000
   35.0850   88.5980   72.4880 O   0  5  0  0  0  0
   34.0430   88.2660   71.8710 C   0  0  0  0  0  0
   33.2270   89.1210   71.4570 O   0  0  0  0  0  0
   33.7410   86.7990   71.6080 C   0  0  1  0  0  0
   32.4130   86.6810   71.0000 N   0  3  0  0  0  0
   31.9740   85.4610   70.3200 C   0  0  0  0  0  0
   34.8190   86.1780   70.7200 C   0  0  0  0  0  0
   35.2400   86.9990   69.5010 C   0  0  0  0  0  0
   36.2500   86.2560   68.6150 C   0  0  0  0  0  0
   36.7270   87.1900   67.4890 C   0  0  0  0  0  0
   37.1350   86.5070   66.1140 B   0  5  0  0  0  0
   36.1400   85.6150   65.4260 O   0  0  0  0  0  0
   37.8820   87.3910   65.1520 O   0  0  0  0  0  0
   38.2230   85.4940   66.5200 O   0  0  0  0  0  0
   33.8200   86.0150   72.9270 C   0  0  0  0  0  0
   32.7060   86.3040   73.9220 C   0  0  0  0  0  0
   32.6190   85.1980   74.8950 N   0  3  0  0  0  0
   33.9250   85.0030   75.5460 C   0  0  0  0  0  0
   33.8470   83.8480   76.5390 C   0  0  0  0  0  0
   32.7900   84.1360   77.5970 C   0  0  0  0  0  0
   31.4530   84.3840   76.9100 C   0  0  0  0  0  0
   31.5910   85.5220   75.8970 C   0  0  0  0  0  0
   31.6424   86.8210   71.7724 H   0  0  0  0  0  0
   32.2963   87.4498   70.2220 H   0  0  0  0  0  0
   30.9496   85.5992   69.9440 H   0  0  0  0  0  0
   31.9944   84.6192   71.0278 H   0  0  0  0  0  0
   32.6483   85.2480   69.4774 H   0  0  0  0  0  0
   35.7333   86.0183   71.3105 H   0  0  0  0  0  0
   34.4617   85.2137   70.3294 H   0  0  0  0  0  0
   34.3548   87.2270   68.8890 H   0  0  0  0  0  0
   35.7069   87.9375   69.8345 H   0  0  0  0  0  0
   37.1118   85.9444   69.2234 H   0  0  0  0  0  0
   35.7702   85.3683   68.1771 H   0  0  0  0  0  0
   35.9270   87.9029   67.2404 H   0  0  0  0  0  0
   37.6186   87.7411   67.8227 H   0  0  0  0  0  0
   35.2171   86.0416   65.0062 H   0  0  0  0  0  0
   37.3694   88.2371   64.6710 H   0  0  0  0  0  0
   37.9881   84.6914   67.2346 H   0  0  0  0  0  0
   33.7779   84.9364   72.7155 H   0  0  0  0  0  0
   34.7647   86.2518   73.4383 H   0  0  0  0  0  0
   32.9223   87.2434   74.4519 H   0  0  0  0  0  0
   31.7503   86.3974   73.3855 H   0  0  0  0  0  0
   32.3433   84.2652   74.3814 H   0  0  0  0  0  0
   34.6841   84.7736   74.7836 H   0  0  0  0  0  0
   34.2087   85.9212   76.0812 H   0  0  0  0  0  0
   33.5808   82.9234   76.0058 H   0  0  0  0  0  0
   34.8230   83.7200   77.0300 H   0  0  0  0  0  0
   32.7042   83.2732   78.2739 H   0  0  0  0  0  0
   33.0811   85.0266   78.1733 H   0  0  0  0  0  0
   31.1341   83.4700   76.3875 H   0  0  0  0  0  0
   30.6992   84.6579   77.6628 H   0  0  0  0  0  0
   31.8749   86.4418   76.4293 H   0  0  0  0  0  0
   30.6240   85.6726   75.3948 H   0  0  0  0  0  0
  1  2  1  0  0  0
  2  3  2  0  0  0
  2  4  1  0  0  0
  4  5  1  0  0  0
  4  7  1  0  0  0
  4 15  1  0  0  0
  5  6  1  0  0  0
  5 23  1  0  0  0
  5 24  1  0  0  0
  6 25  1  0  0  0
  6 26  1  0  0  0
  6 27  1  0  0  0
  7  8  1  0  0  0
  7 28  1  0  0  0
  7 29  1  0  0  0
  8  9  1  0  0  0
  8 30  1  0  0  0
  8 31  1  0  0  0
  9 10  1  0  0  0
  9 32  1  0  0  0
  9 33  1  0  0  0
 10 11  1  0  0  0
 10 34  1  0  0  0
 10 35  1  0  0  0
 11 12  1  0  0  0
 11 13  1  0  0  0
 11 14  1  0  0  0
 12 36  1  0  0  0
 13 37  1  0  0  0
 14 38  1  0  0  0
 15 16  1  0  0  0
 15 39  1  0  0  0
 15 40  1  0  0  0
 16 17  1  0  0  0
 16 41  1  0  0  0
 16 42  1  0  0  0
 17 18  1  0  0  0
 17 22  1  0  0  0
 17 43  1  0  0  0
 18 19  1  0  0  0
 18 44  1  0  0  0
 18 45  1  0  0  0
 19 20  1  0  0  0
 19 46  1  0  0  0
 19 47  1  0  0  0
 20 21  1  0  0  0
 20 48  1  0  0  0
 20 49  1  0  0  0
 21 22  1  0  0  0
 21 50  1  0  0  0
 21 51  1  0  0  0
 22 52  1  0  0  0
 22 53  1  0  0  0
M  CHG  4   1  -1   5   1  11  -1  17   1
M  END
> <s_m_source_file>
../4i06_ligand.sdf

> <i_m_source_file_index>
1

> <s_epik_input>
W09IXVtCLV0oW09IXSkoW09IXSlbQ0gyXVtDSDJdW0NIMl1bQ0gyXVtDQEBdKEMoW08tXSk9TykoW05IMitdW0NIM10pW0NIMl1bQ0gyXVtOSCtdMVtDSDJdW0NIMl1bQ0gyXVtDSDJdW0NIMl0x

> <s_epik_cmdline>
J2VwaWtfYXBwJywgJy1pbWFlJywgJ2xpZ2FuZF9wcm8ubWFlJywgJy1vbWFlJywgJ2xpZ2FuZF9wcmVwLm1hZScsICctbXMnLCAnMScsICctcGgnLCAnNycsICctcGh0JywgJzAuNScsICctbnQn

> <r_lp_tautomer_probability>
1

> <r_epik_Ionization_Penalty>
  0.0049

> <r_epik_Ionization_Penalty_Charging>
  0.0049

> <r_epik_Ionization_Penalty_Neutral>
  0.0000

> <r_epik_State_Penalty>
 -0.0000

> <r_epik_Charging_Adjusted_Penalty>
0.00490241958336678

> <i_epik_Tot_Q>
0

> <i_epik_Tot_abs_Q>
4

> <s_epik_Chemistry_Notes>
This compound contains a Lewis acid (boronic acid) which adds nucleophiles to form tetrahedral complexes, lowering the experimental pKa

$$$$
