4i0d_ligand
                    3D
 Schrodinger Suite 2020-3.
 52 54  0  0  1  0            999 V2000
   11.1820  -12.7770    6.4880 C   0  0  0  0  0  0
   10.7420  -15.1350    6.9290 C   0  0  0  0  0  0
    9.8430  -15.2070    5.8710 C   0  0  0  0  0  0
    9.6270  -14.0700    5.0930 C   0  0  0  0  0  0
   10.2780  -12.8850    5.4330 C   0  0  0  0  0  0
   12.3540  -13.8930    8.4550 C   0  0  0  0  0  0
   11.7050  -14.7500    9.5660 C   0  0  0  0  0  0
   11.0430  -16.2970    7.7950 C   0  0  0  0  0  0
   12.7000  -14.8220   10.7230 C   0  0  0  0  0  0
   10.4060  -14.0700   10.0860 C   0  0  0  0  0  0
   11.5590  -19.7850    7.2680 C   0  0  0  0  0  0
    9.2830  -19.2260    8.1440 C   0  0  0  0  0  0
    8.4910  -18.1930    8.9150 C   0  0  0  0  0  0
    7.8050  -17.1700    8.2660 C   0  0  0  0  0  0
    8.4350  -18.1610   10.4120 C   0  0  0  0  0  0
    9.9880  -11.4120    4.4860 Cl  0  0  0  0  0  0
   11.4370  -13.9080    7.2490 C   0  0  0  0  0  0
   11.4520  -16.0860    9.0010 N   0  3  0  0  0  0
   10.8560  -17.4950    7.2250 N   0  0  0  0  0  0
   10.7610  -18.7350    7.9980 C   0  0  2  0  0  0
   12.0170  -19.5470    6.1300 O   0  5  0  0  0  0
   11.6840  -20.9190    7.7680 O   0  0  0  0  0  0
    7.1270  -16.2880    9.5700 S   0  0  0  0  0  0
    7.6800  -17.0930   10.9730 C   0  0  0  0  0  0
    9.1910  -19.2530   11.1650 C   0  0  0  0  0  0
    9.9560  -18.8860   12.4250 C   0  0  0  0  0  0
   10.4350  -20.1480   13.1610 C   0  0  0  0  0  0
   11.6748  -11.8302    6.7089 H   0  0  0  0  0  0
    9.3161  -16.1360    5.6534 H   0  0  0  0  0  0
    8.9594  -14.1072    4.2322 H   0  0  0  0  0  0
   12.4860  -12.8626    8.8167 H   0  0  0  0  0  0
   13.3339  -14.3169    8.1901 H   0  0  0  0  0  0
   12.8693  -13.8119   11.1243 H   0  0  0  0  0  0
   13.6524  -15.2377   10.3622 H   0  0  0  0  0  0
   12.2947  -15.4683   11.5155 H   0  0  0  0  0  0
   10.6499  -13.0788   10.4960 H   0  0  0  0  0  0
    9.9565  -14.6923   10.8739 H   0  0  0  0  0  0
    9.6931  -13.9581    9.2558 H   0  0  0  0  0  0
    9.2632  -20.1829    8.6862 H   0  0  0  0  0  0
    8.8379  -19.3602    7.1471 H   0  0  0  0  0  0
    7.7203  -16.9780    7.1964 H   0  0  0  0  0  0
   10.7733  -17.5227    6.1285 H   0  0  0  0  0  0
   11.1877  -18.5154    8.9878 H   0  0  0  0  0  0
    7.5014  -16.8519   12.0209 H   0  0  0  0  0  0
    8.4845  -20.0314   11.4889 H   0  0  0  0  0  0
    9.9484  -19.6979   10.5029 H   0  0  0  0  0  0
   10.8326  -18.2777   12.1576 H   0  0  0  0  0  0
    9.3018  -18.3110   13.0968 H   0  0  0  0  0  0
   10.9851  -19.8569   14.0680 H   0  0  0  0  0  0
   11.0967  -20.7283   12.5012 H   0  0  0  0  0  0
    9.5659  -20.7616   13.4404 H   0  0  0  0  0  0
   11.6332  -16.9348    9.6768 H   0  0  0  0  0  0
  1  5  2  0  0  0
  1 17  1  0  0  0
  1 28  1  0  0  0
  2  3  1  0  0  0
  2  8  1  0  0  0
  2 17  2  0  0  0
  3  4  2  0  0  0
  3 29  1  0  0  0
  4  5  1  0  0  0
  4 30  1  0  0  0
  5 16  1  0  0  0
  6  7  1  0  0  0
  6 17  1  0  0  0
  6 31  1  0  0  0
  6 32  1  0  0  0
  7  9  1  0  0  0
  7 10  1  0  0  0
  7 18  1  0  0  0
  8 18  2  0  0  0
  8 19  1  0  0  0
  9 33  1  0  0  0
  9 34  1  0  0  0
  9 35  1  0  0  0
 10 36  1  0  0  0
 10 37  1  0  0  0
 10 38  1  0  0  0
 11 20  1  0  0  0
 11 21  1  0  0  0
 11 22  2  0  0  0
 12 13  1  0  0  0
 12 20  1  0  0  0
 12 39  1  0  0  0
 12 40  1  0  0  0
 13 14  2  0  0  0
 13 15  1  0  0  0
 14 23  1  0  0  0
 14 41  1  0  0  0
 15 24  2  0  0  0
 15 25  1  0  0  0
 18 52  1  0  0  0
 19 20  1  0  0  0
 19 42  1  0  0  0
 20 43  1  0  0  0
 23 24  1  0  0  0
 24 44  1  0  0  0
 25 26  1  0  0  0
 25 45  1  0  0  0
 25 46  1  0  0  0
 26 27  1  0  0  0
 26 47  1  0  0  0
 26 48  1  0  0  0
 27 49  1  0  0  0
 27 50  1  0  0  0
 27 51  1  0  0  0
M  CHG  2  18   1  21  -1
M  END
> <s_m_source_file>
../4i0d_ligand.sdf

> <i_m_source_file_index>
1

> <s_epik_input>
W2NIXTFbY0hdYyhDbClbY0hdYyhjMTIpW0NIMl1DKFtDSDNdKShbQ0gzXSlOPUMyW05IXVtDQEhdKEMoPU8pW09IXSlbQ0gyXWMzW2NIXXNbY0hdYzNbQ0gyXVtDSDJdW0NIM10=

> <s_epik_cmdline>
J2VwaWtfYXBwJywgJy1pbWFlJywgJ2xpZ2FuZF9wcm8ubWFlJywgJy1vbWFlJywgJ2xpZ2FuZF9wcmVwLm1hZScsICctbXMnLCAnMScsICctcGgnLCAnNycsICctcGh0JywgJzAuNScsICctbnQn

> <r_lp_tautomer_probability>
1

> <r_epik_Ionization_Penalty>
  0.0007

> <r_epik_Ionization_Penalty_Charging>
  0.0007

> <r_epik_Ionization_Penalty_Neutral>
  0.0000

> <r_epik_State_Penalty>
 -0.0000

> <r_epik_Charging_Adjusted_Penalty>
0.00068101038792629

> <i_epik_Tot_Q>
0

> <i_epik_Tot_abs_Q>
2

> <s_epik_Chemistry_Notes>
This compound has an imine and may undergo hydrolysis.

$$$$
