4i0f_ligand
                    3D
 Schrodinger Suite 2020-3.
 50 53  0  0  1  0            999 V2000
    9.9610  -11.3380    4.5550 Cl  0  0  0  0  0  0
   10.3020  -12.7740    5.5610 C   0  0  0  0  0  0
    9.5710  -13.9400    5.3360 C   0  0  0  0  0  0
    9.7600  -15.0860    6.0900 C   0  0  0  0  0  0
   11.2740  -12.6430    6.5280 C   0  0  0  0  0  0
   11.4970  -13.7740    7.3240 C   0  0  0  0  0  0
   10.7310  -14.9860    7.0900 C   0  0  0  0  0  0
   12.5080  -13.7890    8.4520 C   0  0  0  0  0  0
   11.9110  -14.5950    9.5930 C   0  0  0  0  0  0
   12.9480  -14.6400   10.6960 C   0  0  0  0  0  0
   10.6760  -13.8810   10.1890 C   0  0  0  0  0  0
   11.5830  -15.9400    9.1050 N   0  3  0  0  0  0
   11.0570  -16.1600    7.9690 C   0  0  0  0  0  0
   10.8080  -17.3620    7.4480 N   0  0  0  0  0  0
   10.8320  -18.6080    8.2490 C   0  0  2  0  0  0
   11.5300  -19.6260    7.4030 C   0  0  0  0  0  0
   11.7920  -20.7450    7.8910 O   0  5  0  0  0  0
   11.7850  -19.4380    6.2100 O   0  0  0  0  0  0
    9.4280  -19.1070    8.6540 C   0  0  0  0  0  0
    9.0840  -18.2970    9.9050 C   0  0  0  0  0  0
    9.6050  -18.5940   11.1740 C   0  0  0  0  0  0
    9.0380  -17.3900   12.3000 S   0  0  0  0  0  0
    8.0440  -16.4370   11.2510 C   0  0  0  0  0  0
    8.1860  -17.0770   10.0060 C   0  0  0  0  0  0
    7.5530  -16.4480    8.7970 C   0  0  0  0  0  0
    7.4140  -15.0330    8.6720 C   0  0  0  0  0  0
    6.8870  -14.8100    7.4390 N   0  3  0  0  0  0
    6.7150  -16.0870    6.8270 N   0  0  0  0  0  0
    7.1460  -17.1040    7.6620 C   0  0  0  0  0  0
    8.8262  -13.9497    4.5403 H   0  0  0  0  0  0
    9.1923  -16.0001    5.9161 H   0  0  0  0  0  0
   11.8341  -11.7181    6.6652 H   0  0  0  0  0  0
   13.4414  -14.2537    8.1016 H   0  0  0  0  0  0
   12.7110  -12.7576    8.7762 H   0  0  0  0  0  0
   13.1673  -13.6168   11.0350 H   0  0  0  0  0  0
   13.8689  -15.1053   10.3147 H   0  0  0  0  0  0
   12.5608  -15.2306   11.5394 H   0  0  0  0  0  0
   10.9657  -12.8800   10.5413 H   0  0  0  0  0  0
   10.2851  -14.4679   11.0332 H   0  0  0  0  0  0
    9.8985  -13.7871    9.4165 H   0  0  0  0  0  0
   10.5771  -17.4034    6.3733 H   0  0  0  0  0  0
   11.3798  -18.4046    9.1810 H   0  0  0  0  0  0
    8.7205  -18.9170    7.8334 H   0  0  0  0  0  0
    9.4681  -20.1866    8.8610 H   0  0  0  0  0  0
   10.2546  -19.4355   11.4148 H   0  0  0  0  0  0
    7.4518  -15.5552   11.4956 H   0  0  0  0  0  0
    7.7181  -14.3752    9.4996 H   0  0  0  0  0  0
    7.0995  -18.1498    7.3243 H   0  0  0  0  0  0
    6.6022  -13.8969    6.8957 H   0  0  0  0  0  0
   11.8145  -16.7804    9.7759 H   0  0  0  0  0  0
  1  2  1  0  0  0
  2  3  2  0  0  0
  2  5  1  0  0  0
  3  4  1  0  0  0
  3 30  1  0  0  0
  4  7  2  0  0  0
  4 31  1  0  0  0
  5  6  2  0  0  0
  5 32  1  0  0  0
  6  7  1  0  0  0
  6  8  1  0  0  0
  7 13  1  0  0  0
  8  9  1  0  0  0
  8 33  1  0  0  0
  8 34  1  0  0  0
  9 10  1  0  0  0
  9 11  1  0  0  0
  9 12  1  0  0  0
 10 35  1  0  0  0
 10 36  1  0  0  0
 10 37  1  0  0  0
 11 38  1  0  0  0
 11 39  1  0  0  0
 11 40  1  0  0  0
 12 13  2  0  0  0
 12 50  1  0  0  0
 13 14  1  0  0  0
 14 15  1  0  0  0
 14 41  1  0  0  0
 15 16  1  0  0  0
 15 19  1  0  0  0
 15 42  1  0  0  0
 16 17  1  0  0  0
 16 18  2  0  0  0
 19 20  1  0  0  0
 19 43  1  0  0  0
 19 44  1  0  0  0
 20 21  2  0  0  0
 20 24  1  0  0  0
 21 22  1  0  0  0
 21 45  1  0  0  0
 22 23  1  0  0  0
 23 24  2  0  0  0
 23 46  1  0  0  0
 24 25  1  0  0  0
 25 26  2  0  0  0
 25 29  1  0  0  0
 26 27  1  0  0  0
 26 47  1  0  0  0
 27 28  1  0  0  0
 27 49  1  0  0  0
 28 29  2  0  0  0
 29 48  1  0  0  0
M  CHG  3  12   1  17  -1  27   1
M  END
> <s_m_source_file>
../4i0f_ligand.sdf

> <i_m_source_file_index>
1

> <s_epik_input>
Q2xjKFtjSF0xKVtjSF1bY0hdYyhjMTIpQyg9TkMoW0NIMl0yKShbQ0gzXSlbQ0gzXSlbTkhdW0NASF0oQyg9TylbT0hdKVtDSDJdYzNbY0hdc1tjSF1jMy1jNFtjSF1bbkhdbltjSF00

> <s_epik_cmdline>
J2VwaWtfYXBwJywgJy1pbWFlJywgJ2xpZ2FuZF9wcm8ubWFlJywgJy1vbWFlJywgJ2xpZ2FuZF9wcmVwLm1hZScsICctbXMnLCAnMScsICctcGgnLCAnNycsICctcGh0JywgJzAuNScsICctbnQn

> <r_epik_Ionization_Penalty>
  0.0007

> <r_epik_Ionization_Penalty_Charging>
  0.0007

> <r_epik_Ionization_Penalty_Neutral>
  0.0000

> <r_epik_State_Penalty>
  0.4107

> <r_epik_Charging_Adjusted_Penalty>
0.41136084934053

> <i_epik_Tot_Q>
1

> <i_epik_Tot_abs_Q>
3

> <s_epik_Chemistry_Notes>
This compound has an imine and may undergo hydrolysis.

$$$$
