4i0r_ligand
                    3D
 Schrodinger Suite 2020-3.
 48 50  0  0  1  0            999 V2000
    0.3090   -0.3010   14.6460 C   0  0  0  0  0  0
    3.6160   -1.2230   16.1340 N   0  0  0  0  0  0
    2.3220   -1.2460   15.8490 C   0  0  0  0  0  0
    1.7670   -0.3020   14.9670 C   0  0  0  0  0  0
    2.5640    0.6280   14.4440 N   0  0  0  0  0  0
    4.4130   -0.2950   15.6070 C   0  0  0  0  0  0
    3.8630    0.6600   14.7310 C   0  0  0  0  0  0
    4.9790    1.5340   14.3210 C   0  0  3  0  0  0
    6.0920    1.0710   14.9710 C   0  0  0  0  0  0
    5.7580   -0.0150   15.7200 N   0  0  0  0  0  0
   -0.5480   -1.2460   15.2280 C   0  0  0  0  0  0
   -1.9110   -1.2420   14.9510 C   0  0  0  0  0  0
   -2.4410   -0.2760   14.0760 C   0  0  0  0  0  0
   -1.5990    0.6890   13.4970 C   0  0  0  0  0  0
   -0.2300    0.6670   13.7830 C   0  0  0  0  0  0
   -2.7650   -2.1500   15.5210 O   0  0  0  0  0  0
   -2.0680   -3.1450   16.2900 C   0  0  0  0  0  0
   -3.7860   -0.2320   13.8070 O   0  0  0  0  0  0
   -4.1840   -1.2350   12.8690 C   0  0  0  0  0  0
   -2.1650    1.6100   12.6470 O   0  0  0  0  0  0
   -1.2110    2.5530   12.1350 C   0  0  0  0  0  0
    4.8680    2.7140   13.4470 C   0  0  0  0  0  0
    3.6280    3.2260   13.2900 N   0  0  0  0  0  0
    5.8470    3.2280   12.9320 O   0  0  0  0  0  0
    3.3090    4.4210   12.5080 C   0  0  0  0  0  0
    2.0450    4.1830   11.6790 C   0  0  0  0  0  0
    3.0240    5.5300   13.5400 C   0  0  0  0  0  0
    1.6823   -2.0033   16.3023 H   0  0  0  0  0  0
    7.1298    1.4357   14.9633 H   0  0  0  0  0  0
   -0.1401   -1.9945   15.9073 H   0  0  0  0  0  0
    0.4265    1.4102   13.3305 H   0  0  0  0  0  0
   -2.7943   -3.8473   16.7251 H   0  0  0  0  0  0
   -1.5028   -2.6554   17.0967 H   0  0  0  0  0  0
   -1.3737   -3.6935   15.6365 H   0  0  0  0  0  0
   -5.2662   -1.1584   12.6874 H   0  0  0  0  0  0
   -3.9499   -2.2302   13.2749 H   0  0  0  0  0  0
   -3.6421   -1.0880   11.9231 H   0  0  0  0  0  0
   -1.7193    3.2613   11.4642 H   0  0  0  0  0  0
   -0.4286    2.0171   11.5776 H   0  0  0  0  0  0
   -0.7542    3.1030   12.9710 H   0  0  0  0  0  0
    2.8266    2.6748   13.8038 H   0  0  0  0  0  0
    4.1500    4.6425   11.8345 H   0  0  0  0  0  0
    2.2359    3.3927   10.9380 H   0  0  0  0  0  0
    1.7662    5.1122   11.1605 H   0  0  0  0  0  0
    1.2243    3.8730   12.3426 H   0  0  0  0  0  0
    3.9262    5.7105   14.1428 H   0  0  0  0  0  0
    2.2002    5.2158   14.1978 H   0  0  0  0  0  0
    2.7422    6.4551   13.0157 H   0  0  0  0  0  0
  1  4  1  0  0  0
  1 11  2  0  0  0
  1 15  1  0  0  0
  2  3  2  0  0  0
  2  6  1  0  0  0
  3  4  1  0  0  0
  3 28  1  0  0  0
  4  5  2  0  0  0
  5  7  1  0  0  0
  6  7  2  0  0  0
  6 10  1  0  0  0
  7  8  1  0  0  0
  8  9  1  0  0  0
  8 22  1  0  0  0
  9 10  2  0  0  0
  9 29  1  0  0  0
 11 12  1  0  0  0
 11 30  1  0  0  0
 12 13  2  0  0  0
 12 16  1  0  0  0
 13 14  1  0  0  0
 13 18  1  0  0  0
 14 15  2  0  0  0
 14 20  1  0  0  0
 15 31  1  0  0  0
 16 17  1  0  0  0
 17 32  1  0  0  0
 17 33  1  0  0  0
 17 34  1  0  0  0
 18 19  1  0  0  0
 19 35  1  0  0  0
 19 36  1  0  0  0
 19 37  1  0  0  0
 20 21  1  0  0  0
 21 38  1  0  0  0
 21 39  1  0  0  0
 21 40  1  0  0  0
 22 23  1  0  0  0
 22 24  2  0  0  0
 23 25  1  0  0  0
 23 41  1  0  0  0
 25 26  1  0  0  0
 25 27  1  0  0  0
 25 42  1  0  0  0
 26 43  1  0  0  0
 26 44  1  0  0  0
 26 45  1  0  0  0
 27 46  1  0  0  0
 27 47  1  0  0  0
 27 48  1  0  0  0
M  END
> <s_m_source_file>
../4i0r_ligand.sdf

> <i_m_source_file_index>
1

> <s_epik_input>
W0NIM11PYyhbY0hdMSljKE9bQ0gzXSljKE9bQ0gzXSlbY0hdYzEtYyhbY0hdbjIpbmMoYzIzKVtDSF0oW0NIXT1OMylDKD1PKVtOSF1bQ0hdKFtDSDNdKVtDSDNd

> <s_epik_cmdline>
J2VwaWtfYXBwJywgJy1pbWFlJywgJ2xpZ2FuZF9wcm8ubWFlJywgJy1vbWFlJywgJ2xpZ2FuZF9wcmVwLm1hZScsICctbXMnLCAnMScsICctcGgnLCAnNycsICctcGh0JywgJzAuNScsICctbnQn

> <r_lp_tautomer_probability>
1

> <r_epik_Ionization_Penalty>
  0.0042

> <r_epik_Ionization_Penalty_Charging>
  0.0000

> <r_epik_Ionization_Penalty_Neutral>
  0.0042

> <r_epik_State_Penalty>
 -0.0000

> <r_epik_Charging_Adjusted_Penalty>
0

> <i_epik_Tot_Q>
0

> <i_epik_Tot_abs_Q>
0

> <s_epik_Chemistry_Notes>
This compound has an imine and may undergo hydrolysis.

$$$$
