4i0s_ligand
                    3D
 Schrodinger Suite 2020-3.
 43 46  0  0  1  0            999 V2000
    2.5200   -1.6630   15.6980 C   0  0  0  0  0  0
    1.8720   -0.6930   14.9270 C   0  0  0  0  0  0
    2.5460    0.3630   14.4720 N   0  0  0  0  0  0
    3.8390    0.4800   14.7590 C   0  0  0  0  0  0
    4.4860   -0.4990   15.5400 C   0  0  0  0  0  0
    3.7990   -1.5470   15.9810 N   0  0  0  0  0  0
    4.8710    1.4780   14.4430 C   0  0  0  0  0  0
    6.0240    1.0490   15.0380 C   0  0  0  0  0  0
    5.7950   -0.1200   15.6760 N   0  3  0  0  0  0
    0.4310   -0.8640   14.6440 C   0  0  0  0  0  0
    4.6840    2.7160   13.6830 C   0  0  0  0  0  0
    5.6520    3.4280   13.4810 O   0  0  0  0  0  0
    3.4380    3.0500   13.2630 N   0  0  0  0  0  0
    3.1460    4.2830   12.5240 C   0  0  0  0  0  0
   -0.2980   -1.8720   15.0550 N   0  0  0  0  0  0
   -1.6170   -1.7210   14.6260 N   0  0  0  0  0  0
   -1.7230   -0.5540   13.9170 C   0  0  0  0  0  0
   -0.4440    0.0440   13.8950 C   0  0  0  0  0  0
   -2.7800    0.0820   13.2740 C   0  0  0  0  0  0
   -2.5660    1.2810   12.6320 C   0  0  0  0  0  0
   -1.3060    1.8760   12.6080 C   0  0  0  0  0  0
   -0.2470    1.2660   13.2300 C   0  0  0  0  0  0
   -2.6950   -2.6770   14.9100 C   0  0  0  0  0  0
   -3.9120    2.0410   11.8460 Cl  0  0  0  0  0  0
    2.1320    3.9890   11.4150 C   0  0  0  0  0  0
    2.5110    5.2850   13.4960 C   0  0  0  0  0  0
    1.9604   -2.5223   16.0675 H   0  0  0  0  0  0
    6.9443    1.6447   14.9473 H   0  0  0  0  0  0
    2.6269    2.3461   13.5007 H   0  0  0  0  0  0
    4.0940    4.6498   12.1035 H   0  0  0  0  0  0
   -3.7732   -0.3669   13.2784 H   0  0  0  0  0  0
   -1.1622    2.8267   12.0946 H   0  0  0  0  0  0
    0.7409    1.7260   13.2087 H   0  0  0  0  0  0
   -2.2960   -3.5145   15.5011 H   0  0  0  0  0  0
   -3.1052   -3.0588   13.9635 H   0  0  0  0  0  0
   -3.4912   -2.1737   15.4781 H   0  0  0  0  0  0
    2.5651    3.2708   10.7032 H   0  0  0  0  0  0
    1.8834    4.9224   10.8887 H   0  0  0  0  0  0
    1.2191    3.5626   11.8565 H   0  0  0  0  0  0
    3.2218    5.5129   14.3040 H   0  0  0  0  0  0
    1.5958    4.8505   13.9245 H   0  0  0  0  0  0
    2.2600    6.2103   12.9567 H   0  0  0  0  0  0
    6.4932   -0.7492   16.2475 H   0  0  0  0  0  0
  1  2  2  0  0  0
  1  6  1  0  0  0
  1 27  1  0  0  0
  2  3  1  0  0  0
  2 10  1  0  0  0
  3  4  2  0  0  0
  4  5  1  0  0  0
  4  7  1  0  0  0
  5  6  2  0  0  0
  5  9  1  0  0  0
  7  8  2  0  0  0
  7 11  1  0  0  0
  8  9  1  0  0  0
  8 28  1  0  0  0
  9 43  1  0  0  0
 10 15  2  0  0  0
 10 18  1  0  0  0
 11 12  2  0  0  0
 11 13  1  0  0  0
 13 14  1  0  0  0
 13 29  1  0  0  0
 14 25  1  0  0  0
 14 26  1  0  0  0
 14 30  1  0  0  0
 15 16  1  0  0  0
 16 17  1  0  0  0
 16 23  1  0  0  0
 17 18  2  0  0  0
 17 19  1  0  0  0
 18 22  1  0  0  0
 19 20  2  0  0  0
 19 31  1  0  0  0
 20 21  1  0  0  0
 20 24  1  0  0  0
 21 22  2  0  0  0
 21 32  1  0  0  0
 22 33  1  0  0  0
 23 34  1  0  0  0
 23 35  1  0  0  0
 23 36  1  0  0  0
 25 37  1  0  0  0
 25 38  1  0  0  0
 25 39  1  0  0  0
 26 40  1  0  0  0
 26 41  1  0  0  0
 26 42  1  0  0  0
M  CHG  1   9   1
M  END
> <s_m_source_file>
../4i0s_ligand.sdf

> <i_m_source_file_index>
1

> <s_epik_input>
W2NIXTFjKENsKVtjSF1bY0hdYyhjMTIpYyhubjJbQ0gzXSktYyhuMylbY0hdbmMoYzM0KVtuSF1bY0hdYzRDKD1PKVtOSF1bQ0hdKFtDSDNdKVtDSDNd

> <s_epik_cmdline>
J2VwaWtfYXBwJywgJy1pbWFlJywgJ2xpZ2FuZF9wcm8ubWFlJywgJy1vbWFlJywgJ2xpZ2FuZF9wcmVwLm1hZScsICctbXMnLCAnMScsICctcGgnLCAnNycsICctcGh0JywgJzAuNScsICctbnQn

> <r_lp_tautomer_probability>
1

> <r_epik_Ionization_Penalty>
  0.0000

> <r_epik_Ionization_Penalty_Charging>
  0.0000

> <r_epik_Ionization_Penalty_Neutral>
  0.0000

> <r_epik_State_Penalty>
 -0.0000

> <r_epik_Charging_Adjusted_Penalty>
0

> <i_epik_Tot_Q>
1

> <i_epik_Tot_abs_Q>
1

$$$$
