4i0t_ligand
                    3D
 Schrodinger Suite 2020-3.
 47 50  0  0  1  0            999 V2000
    3.0170   -1.8210   16.0550 N   0  0  0  0  0  0
    1.7270   -1.8220   15.7100 C   0  0  0  0  0  0
    1.2110   -0.7470   14.9500 C   0  0  0  0  0  0
    2.0450    0.2590   14.5790 N   0  0  0  0  0  0
    3.3240    0.2430   14.9310 C   0  0  0  0  0  0
    3.8210   -0.8440   15.6850 C   0  0  0  0  0  0
    4.4820    1.1440   14.7150 C   0  0  0  0  0  0
    5.5500    0.5900   15.3370 C   0  0  0  0  0  0
    5.1690   -0.5870   15.8910 N   0  3  0  0  0  0
   -0.2380   -0.7500   14.5900 C   0  0  0  0  0  0
    4.4460    2.4760   14.0500 C   0  0  0  0  0  0
    3.2430    2.8630   13.5690 N   0  0  0  0  0  0
    5.4630    3.1660   14.1050 O   0  0  0  0  0  0
    2.9220    4.1610   12.9430 C   0  0  0  0  0  0
    3.1120    5.2860   13.9450 C   0  0  0  0  0  0
    3.7650    4.5200   11.7260 C   0  0  0  0  0  0
   -1.1990   -1.6020   15.0920 N   0  0  0  0  0  0
   -2.3590   -1.3460   14.5930 C   0  0  0  0  0  0
   -2.2150   -0.3100   13.7140 N   0  0  0  0  0  0
   -0.8750    0.0580   13.7140 C   0  0  0  0  0  0
    1.4560    4.1240   12.5690 C   0  0  0  0  0  0
   -3.2570    0.3150   12.8580 C   0  0  0  0  0  0
   -2.7120    1.4970   12.0060 C   0  0  0  0  0  0
   -1.2400    1.3450   11.6510 C   0  0  0  0  0  0
   -0.3290    1.1840   12.8870 C   0  0  0  0  0  0
    1.0777   -2.6440   16.0115 H   0  0  0  0  0  0
    6.5212    1.1063   15.3268 H   0  0  0  0  0  0
    2.4609    2.0975   13.6799 H   0  0  0  0  0  0
    4.1707    5.3405   14.2387 H   0  0  0  0  0  0
    2.4942    5.0931   14.8344 H   0  0  0  0  0  0
    2.8088    6.2394   13.4877 H   0  0  0  0  0  0
    4.8274    4.5438   12.0100 H   0  0  0  0  0  0
    3.4637    5.5089   11.3501 H   0  0  0  0  0  0
    3.6125    3.7666   10.9392 H   0  0  0  0  0  0
   -3.2887   -1.8633   14.8297 H   0  0  0  0  0  0
    0.8580    3.8640   13.4549 H   0  0  0  0  0  0
    1.2966    3.3694   11.7847 H   0  0  0  0  0  0
    1.1478    5.1117   12.1956 H   0  0  0  0  0  0
   -3.6628   -0.4375   12.1659 H   0  0  0  0  0  0
   -4.0671    0.7047   13.4919 H   0  0  0  0  0  0
   -3.2776    1.5619   11.0648 H   0  0  0  0  0  0
   -2.8250    2.4363   12.5672 H   0  0  0  0  0  0
   -1.1050    0.4536   11.0208 H   0  0  0  0  0  0
   -0.9011    2.2364   11.1027 H   0  0  0  0  0  0
   -0.3264    2.1087   13.4828 H   0  0  0  0  0  0
    0.6987    0.9455   12.5757 H   0  0  0  0  0  0
    5.7869   -1.3058   16.4492 H   0  0  0  0  0  0
  1  2  2  0  0  0
  1  6  1  0  0  0
  2  3  1  0  0  0
  2 26  1  0  0  0
  3  4  2  0  0  0
  3 10  1  0  0  0
  4  5  1  0  0  0
  5  6  2  0  0  0
  5  7  1  0  0  0
  6  9  1  0  0  0
  7  8  2  0  0  0
  7 11  1  0  0  0
  8  9  1  0  0  0
  8 27  1  0  0  0
  9 47  1  0  0  0
 10 17  1  0  0  0
 10 20  2  0  0  0
 11 12  1  0  0  0
 11 13  2  0  0  0
 12 14  1  0  0  0
 12 28  1  0  0  0
 14 15  1  0  0  0
 14 16  1  0  0  0
 14 21  1  0  0  0
 15 29  1  0  0  0
 15 30  1  0  0  0
 15 31  1  0  0  0
 16 32  1  0  0  0
 16 33  1  0  0  0
 16 34  1  0  0  0
 17 18  2  0  0  0
 18 19  1  0  0  0
 18 35  1  0  0  0
 19 20  1  0  0  0
 19 22  1  0  0  0
 20 25  1  0  0  0
 21 36  1  0  0  0
 21 37  1  0  0  0
 21 38  1  0  0  0
 22 23  1  0  0  0
 22 39  1  0  0  0
 22 40  1  0  0  0
 23 24  1  0  0  0
 23 41  1  0  0  0
 23 42  1  0  0  0
 24 25  1  0  0  0
 24 43  1  0  0  0
 24 44  1  0  0  0
 25 45  1  0  0  0
 25 46  1  0  0  0
M  CHG  1   9   1
M  END
> <s_m_source_file>
../4i0t_ligand.sdf

> <i_m_source_file_index>
1

> <s_epik_input>
W0NIMl0xW0NIMl1bQ0gyXVtDSDJdYyhuMTIpYyhuW2NIXTIpLWMobjMpW2NIXW5jKGMzNClbbkhdW2NIXWM0Qyg9TylbTkhdQyhbQ0gzXSkoW0NIM10pW0NIM10=

> <s_epik_cmdline>
J2VwaWtfYXBwJywgJy1pbWFlJywgJ2xpZ2FuZF9wcm8ubWFlJywgJy1vbWFlJywgJ2xpZ2FuZF9wcmVwLm1hZScsICctbXMnLCAnMScsICctcGgnLCAnNycsICctcGh0JywgJzAuNScsICctbnQn

> <r_lp_tautomer_probability>
0.999999999997873

> <r_epik_Ionization_Penalty>
  0.2476

> <r_epik_Ionization_Penalty_Charging>
  0.2475

> <r_epik_Ionization_Penalty_Neutral>
  0.0001

> <r_epik_State_Penalty>
  0.2387

> <r_epik_Charging_Adjusted_Penalty>
0.486187163452636

> <i_epik_Tot_Q>
1

> <i_epik_Tot_abs_Q>
1

$$$$
