4i0z_ligand
                    3D
 Schrodinger Suite 2020-3.
 53 56  0  0  1  0            999 V2000
    9.6970  -11.8940    4.2690 Cl  0  0  0  0  0  0
   10.0760  -13.2970    5.2830 C   0  0  0  0  0  0
   11.0310  -13.1180    6.3260 C   0  0  0  0  0  0
   11.2370  -14.1990    7.1450 C   0  0  0  0  0  0
   10.5660  -15.3790    6.8830 C   0  0  0  0  0  0
    9.5960  -15.5200    5.8520 C   0  0  0  0  0  0
    9.3590  -14.4640    4.9890 C   0  0  0  0  0  0
   12.2140  -14.1390    8.2860 C   0  0  0  0  0  0
   11.6850  -14.9340    9.4720 C   0  0  0  0  0  0
   11.4390  -16.2990    8.9650 N   0  0  0  0  0  0
   10.9000  -16.5170    7.7940 C   0  0  0  0  0  0
   10.6340  -17.7530    7.3220 N   0  0  0  0  0  0
   10.9150  -18.9600    8.1250 C   0  0  1  0  0  0
    9.5850  -19.4920    8.7820 C   0  0  0  0  0  0
   12.8240  -14.9370   10.5270 C   0  0  0  0  0  0
   10.3870  -14.2890   10.0350 C   0  0  0  0  0  0
   11.3690  -20.0000    7.1650 C   0  0  0  0  0  0
   11.2760  -19.7740    5.8020 N   0  0  0  0  0  0
   11.5740  -20.7400    4.9000 C   0  0  0  0  0  0
   11.8780  -22.0330    5.3250 C   0  0  3  0  0  0
   11.9510  -22.2580    6.7810 C   0  0  0  0  0  0
   11.6830  -21.2180    7.6350 N   0  0  0  0  0  0
   12.2140  -23.3860    7.1930 O   0  0  0  0  0  0
    9.1100  -18.5280    9.8990 C   0  0  0  0  0  0
    9.8100  -18.5650   11.1120 C   0  0  0  0  0  0
    9.5350  -17.7190   12.2230 C   0  0  0  0  0  0
    8.4270  -16.8150   12.0660 C   0  0  0  0  0  0
    7.7080  -16.7850   10.8450 C   0  0  0  0  0  0
    8.0220  -17.6240    9.7250 C   0  0  0  0  0  0
   12.1430  -22.9960    4.4930 C   0  0  0  0  0  0
   12.3580  -23.8810    3.7430 N   0  0  0  0  0  0
   11.5656  -12.1783    6.4645 H   0  0  0  0  0  0
    9.0433  -16.4530    5.7424 H   0  0  0  0  0  0
    8.6695  -14.5348    4.1478 H   0  0  0  0  0  0
   13.1767  -14.5649    7.9671 H   0  0  0  0  0  0
   12.3590  -13.0918    8.5899 H   0  0  0  0  0  0
    8.8004  -19.5647    8.0144 H   0  0  0  0  0  0
    9.7637  -20.4856    9.2188 H   0  0  0  0  0  0
   13.7234  -15.3994   10.0942 H   0  0  0  0  0  0
   12.5049  -15.5111   11.4094 H   0  0  0  0  0  0
   13.0506  -13.9026   10.8248 H   0  0  0  0  0  0
    9.6047  -14.3046    9.2619 H   0  0  0  0  0  0
   10.5919  -13.2488   10.3284 H   0  0  0  0  0  0
   10.0462  -14.8573   10.9130 H   0  0  0  0  0  0
   11.5772  -20.5067    3.8250 H   0  0  0  0  0  0
   11.7136  -22.5406    4.3630 H   0  0  0  0  0  0
   10.6184  -19.2893   11.2114 H   0  0  0  0  0  0
   10.1278  -17.7539   13.1371 H   0  0  0  0  0  0
    8.1410  -16.1544   12.8845 H   0  0  0  0  0  0
    6.8742  -16.0891   10.7525 H   0  0  0  0  0  0
    7.4598  -17.5731    8.7926 H   0  0  0  0  0  0
   11.7285  -21.3940    8.7199 H   0  0  0  0  0  0
   11.7114  -17.1708    9.5780 H   0  0  0  0  0  0
  1  2  1  0  0  0
  2  3  2  0  0  0
  2  7  1  0  0  0
  3  4  1  0  0  0
  3 32  1  0  0  0
  4  5  2  0  0  0
  4  8  1  0  0  0
  5  6  1  0  0  0
  5 11  1  0  0  0
  6  7  2  0  0  0
  6 33  1  0  0  0
  7 34  1  0  0  0
  8  9  1  0  0  0
  8 35  1  0  0  0
  8 36  1  0  0  0
  9 10  1  0  0  0
  9 15  1  0  0  0
  9 16  1  0  0  0
 10 11  1  0  0  0
 10 53  1  0  0  0
 11 12  2  0  0  0
 12 13  1  0  0  0
 13 14  1  0  0  0
 13 17  2  0  0  0
 14 24  1  0  0  0
 14 37  1  0  0  0
 14 38  1  0  0  0
 15 39  1  0  0  0
 15 40  1  0  0  0
 15 41  1  0  0  0
 16 42  1  0  0  0
 16 43  1  0  0  0
 16 44  1  0  0  0
 17 18  1  0  0  0
 17 22  1  0  0  0
 18 19  2  0  0  0
 19 20  1  0  0  0
 19 45  1  0  0  0
 20 21  1  0  0  0
 20 30  1  0  0  0
 20 46  1  0  0  0
 21 22  1  0  0  0
 21 23  2  0  0  0
 22 52  1  0  0  0
 24 25  2  0  0  0
 24 29  1  0  0  0
 25 26  1  0  0  0
 25 47  1  0  0  0
 26 27  2  0  0  0
 26 48  1  0  0  0
 27 28  1  0  0  0
 27 49  1  0  0  0
 28 29  2  0  0  0
 28 50  1  0  0  0
 29 51  1  0  0  0
 30 31  3  0  0  0
M  END
> <s_m_source_file>
../4i0z_ligand.sdf

> <i_m_source_file_index>
1

> <s_epik_input>
Q2xjKFtjSF0xKVtjSF1bY0hdYyhjMTIpQyg9TkMoW0NIMl0yKShbQ0gzXSlbQ0gzXSlbTkhdW0NASF0oQzM9TkMoPU8pW0NIXShbQ0hdPU4zKUMjTilbQ0gyXWM0W2NIXVtjSF1bY0hdW2NIXVtjSF00

> <s_epik_cmdline>
J2VwaWtfYXBwJywgJy1pbWFlJywgJ2xpZ2FuZF9wcm8ubWFlJywgJy1vbWFlJywgJ2xpZ2FuZF9wcmVwLm1hZScsICctbXMnLCAnMScsICctcGgnLCAnNycsICctcGh0JywgJzAuNScsICctbnQn

> <r_epik_Ionization_Penalty>
  0.0229

> <r_epik_Ionization_Penalty_Charging>
  0.0133

> <r_epik_Ionization_Penalty_Neutral>
  0.0095

> <r_epik_State_Penalty>
  0.0178

> <r_epik_Charging_Adjusted_Penalty>
0.0311717339796643

> <i_epik_Tot_Q>
0

> <i_epik_Tot_abs_Q>
0

> <s_epik_Chemistry_Notes>
This compound has an imine and may undergo hydrolysis.

$$$$
