4i10_ligand
                    3D
 Schrodinger Suite 2020-3.
 58 62  0  0  1  0            999 V2000
    9.8280  -11.9200    4.1360 Cl  0  0  0  0  0  0
   10.1030  -13.3540    5.1540 C   0  0  0  0  0  0
   11.0370  -13.1690    6.2190 C   0  0  0  0  0  0
   11.2540  -14.2180    7.0790 C   0  0  0  0  0  0
   10.6130  -15.4220    6.8500 C   0  0  0  0  0  0
    9.6690  -15.5970    5.8120 C   0  0  0  0  0  0
    9.4220  -14.5680    4.8960 C   0  0  0  0  0  0
   12.2670  -14.1140    8.2210 C   0  0  0  0  0  0
   11.7460  -14.9490    9.4060 C   0  0  0  0  0  0
   11.5780  -16.3210    8.9200 N   0  3  0  0  0  0
   10.9890  -16.5600    7.7840 C   0  0  0  0  0  0
   10.7720  -17.8000    7.2990 N   0  0  0  0  0  0
   10.9670  -19.0650    8.0430 C   0  0  1  0  0  0
    9.6080  -19.5730    8.6530 C   0  0  0  0  0  0
   12.6950  -14.9120   10.6240 C   0  0  0  0  0  0
   10.3650  -14.3340    9.8270 C   0  0  0  0  0  0
   11.3870  -20.0710    7.0820 C   0  0  0  0  0  0
   11.3450  -19.7620    5.7320 N   0  0  0  0  0  0
   11.9630  -22.3430    6.6760 C   0  0  0  0  0  0
   11.7140  -21.3070    7.5340 N   0  0  0  0  0  0
   12.2530  -23.4860    7.0960 O   0  0  0  0  0  0
    9.1110  -18.6070    9.7370 C   0  0  0  0  0  0
    9.7460  -18.6310   11.0030 C   0  0  0  0  0  0
    9.3960  -17.7750   12.0660 C   0  0  0  0  0  0
    8.3500  -16.8600   11.8330 C   0  0  0  0  0  0
    7.7340  -16.8750   10.5760 C   0  0  0  0  0  0
    8.0610  -17.6980    9.4830 C   0  0  0  0  0  0
   11.9050  -22.0510    5.2140 C   0  0  0  0  0  0
   11.6150  -20.7290    4.8050 C   0  0  0  0  0  0
   11.6280  -20.4240    3.4110 C   0  0  0  0  0  0
   11.9320  -21.4430    2.4730 C   0  0  0  0  0  0
   12.2420  -22.7030    2.9040 N   0  0  0  0  0  0
   12.2420  -23.0340    4.2490 C   0  0  0  0  0  0
   11.5625  -12.2225    6.3456 H   0  0  0  0  0  0
    9.1297  -16.5402    5.7245 H   0  0  0  0  0  0
    8.7529  -14.6925    4.0446 H   0  0  0  0  0  0
   13.2398  -14.5019    7.8846 H   0  0  0  0  0  0
   12.3757  -13.0610    8.5200 H   0  0  0  0  0  0
   10.4207  -17.8234    6.2569 H   0  0  0  0  0  0
   11.7486  -18.8934    8.7977 H   0  0  0  0  0  0
    8.8507  -19.6379    7.8578 H   0  0  0  0  0  0
    9.7558  -20.5669    9.1006 H   0  0  0  0  0  0
   13.6685  -15.3406   10.3435 H   0  0  0  0  0  0
   12.2593  -15.4986   11.4462 H   0  0  0  0  0  0
   12.8331  -13.8704   10.9497 H   0  0  0  0  0  0
    9.6778  -14.3537    8.9683 H   0  0  0  0  0  0
   10.5115  -13.2945   10.1557 H   0  0  0  0  0  0
    9.9377  -14.9227   10.6521 H   0  0  0  0  0  0
   10.5488  -19.3506   11.1635 H   0  0  0  0  0  0
    9.9112  -17.8186   13.0255 H   0  0  0  0  0  0
    8.0305  -16.1624   12.6072 H   0  0  0  0  0  0
    6.9128  -16.1736   10.4283 H   0  0  0  0  0  0
    7.5481  -17.6390    8.5230 H   0  0  0  0  0  0
   11.4055  -19.4132    3.0691 H   0  0  0  0  0  0
   11.9185  -21.2213    1.4059 H   0  0  0  0  0  0
   12.4998  -24.0451    4.5642 H   0  0  0  0  0  0
   11.9574  -17.1548    9.5290 H   0  0  0  0  0  0
   11.7846  -21.4963    8.6153 H   0  0  0  0  0  0
  1  2  1  0  0  0
  2  3  2  0  0  0
  2  7  1  0  0  0
  3  4  1  0  0  0
  3 34  1  0  0  0
  4  5  2  0  0  0
  4  8  1  0  0  0
  5  6  1  0  0  0
  5 11  1  0  0  0
  6  7  2  0  0  0
  6 35  1  0  0  0
  7 36  1  0  0  0
  8  9  1  0  0  0
  8 37  1  0  0  0
  8 38  1  0  0  0
  9 10  1  0  0  0
  9 15  1  0  0  0
  9 16  1  0  0  0
 10 11  2  0  0  0
 10 57  1  0  0  0
 11 12  1  0  0  0
 12 13  1  0  0  0
 12 39  1  0  0  0
 13 14  1  0  0  0
 13 17  1  0  0  0
 13 40  1  0  0  0
 14 22  1  0  0  0
 14 41  1  0  0  0
 14 42  1  0  0  0
 15 43  1  0  0  0
 15 44  1  0  0  0
 15 45  1  0  0  0
 16 46  1  0  0  0
 16 47  1  0  0  0
 16 48  1  0  0  0
 17 18  2  0  0  0
 17 20  1  0  0  0
 18 29  1  0  0  0
 19 20  1  0  0  0
 19 21  2  0  0  0
 19 28  1  0  0  0
 20 58  1  0  0  0
 22 23  2  0  0  0
 22 27  1  0  0  0
 23 24  1  0  0  0
 23 49  1  0  0  0
 24 25  2  0  0  0
 24 50  1  0  0  0
 25 26  1  0  0  0
 25 51  1  0  0  0
 26 27  2  0  0  0
 26 52  1  0  0  0
 27 53  1  0  0  0
 28 29  1  0  0  0
 28 33  2  0  0  0
 29 30  2  0  0  0
 30 31  1  0  0  0
 30 54  1  0  0  0
 31 32  2  0  0  0
 31 55  1  0  0  0
 32 33  1  0  0  0
 33 56  1  0  0  0
M  CHG  1  10   1
M  END
> <s_m_source_file>
../4i10_ligand.sdf

> <i_m_source_file_index>
1

> <s_epik_input>
Q2xjKFtjSF0xKVtjSF1bY0hdYyhjMTIpQyg9TkMoW0NIMl0yKShbQ0gzXSlbQ0gzXSlbTkhdW0NAQEhdKFtDSDJdYzNbY0hdW2NIXVtjSF1bY0hdW2NIXTMpYyhuYzQ9TylbbkhdYyhjNDUpW2NIXVtjSF1uW2NIXTU=

> <s_epik_cmdline>
J2VwaWtfYXBwJywgJy1pbWFlJywgJ2xpZ2FuZF9wcm8ubWFlJywgJy1vbWFlJywgJ2xpZ2FuZF9wcmVwLm1hZScsICctbXMnLCAnMScsICctcGgnLCAnNycsICctcGh0JywgJzAuNScsICctbnQn

> <r_epik_Ionization_Penalty>
  0.2891

> <r_epik_Ionization_Penalty_Charging>
  0.2891

> <r_epik_Ionization_Penalty_Neutral>
  0.0000

> <r_epik_State_Penalty>
  0.3600

> <r_epik_Charging_Adjusted_Penalty>
0.649010166633911

> <i_epik_Tot_Q>
1

> <i_epik_Tot_abs_Q>
1

> <s_epik_Chemistry_Notes>
This compound has an imine and may undergo hydrolysis.

$$$$
