4i11_ligand
                    3D
 Schrodinger Suite 2020-3.
 46 48  0  0  1  0            999 V2000
   11.8020  -21.2750    8.0160 O   0  5  0  0  0  0
   11.4320  -20.1590    7.5660 C   0  0  0  0  0  0
   11.5610  -19.8490    6.3610 O   0  0  0  0  0  0
   10.7090  -19.1670    8.4250 C   0  0  2  0  0  0
    9.3610  -19.6940    8.9380 C   0  0  0  0  0  0
    8.9190  -18.7200   10.0370 C   0  0  0  0  0  0
    7.8710  -17.8000    9.8080 C   0  0  0  0  0  0
    7.4970  -16.8750   10.8160 C   0  0  0  0  0  0
    8.1500  -16.8960   12.0530 C   0  0  0  0  0  0
    9.2030  -17.8160   12.2810 C   0  0  0  0  0  0
    9.5750  -18.7170   11.2720 C   0  0  0  0  0  0
   10.4870  -17.9640    7.6280 N   0  0  0  0  0  0
   10.8020  -16.7090    8.0040 C   0  0  0  0  0  0
   11.3770  -16.4300    9.1270 N   0  3  0  0  0  0
   11.6190  -15.0480    9.5440 C   0  0  0  0  0  0
   10.3000  -14.3980   10.0430 C   0  0  0  0  0  0
   12.6380  -14.9880   10.6630 C   0  0  0  0  0  0
   12.1300  -14.1820    8.3740 C   0  0  0  0  0  0
   11.1250  -14.2810    7.2370 C   0  0  0  0  0  0
   10.4430  -15.5840    7.0550 C   0  0  0  0  0  0
    9.5170  -15.7250    6.0010 C   0  0  0  0  0  0
    9.2580  -14.6340    5.1430 C   0  0  0  0  0  0
    9.9070  -13.4040    5.3200 C   0  0  0  0  0  0
   10.8420  -13.2200    6.3690 C   0  0  0  0  0  0
   11.3483  -18.9285    9.2878 H   0  0  0  0  0  0
    8.6368  -19.7155    8.1103 H   0  0  0  0  0  0
    9.4925  -20.7108    9.3366 H   0  0  0  0  0  0
    7.3475  -17.8013    8.8519 H   0  0  0  0  0  0
    6.7043  -16.1510   10.6277 H   0  0  0  0  0  0
    7.8490  -16.2052   12.8406 H   0  0  0  0  0  0
    9.7233  -17.8238   13.2388 H   0  0  0  0  0  0
   10.3852  -19.4233   11.4529 H   0  0  0  0  0  0
   10.0271  -18.0414    6.6318 H   0  0  0  0  0  0
    9.8966  -14.9845   10.8817 H   0  0  0  0  0  0
    9.5673  -14.3793    9.2228 H   0  0  0  0  0  0
   10.5018  -13.3699   10.3780 H   0  0  0  0  0  0
   12.2909  -15.6006   11.5082 H   0  0  0  0  0  0
   12.7606  -13.9455   10.9917 H   0  0  0  0  0  0
   13.6025  -15.3744   10.3017 H   0  0  0  0  0  0
   12.2250  -13.1374    8.7053 H   0  0  0  0  0  0
   13.1118  -14.5530    8.0447 H   0  0  0  0  0  0
    9.0025  -16.6738    5.8490 H   0  0  0  0  0  0
    8.5417  -14.7500    4.3296 H   0  0  0  0  0  0
    9.6897  -12.5786    4.6421 H   0  0  0  0  0  0
   11.3378  -12.2580    6.4991 H   0  0  0  0  0  0
   11.6982  -17.2412    9.7969 H   0  0  0  0  0  0
  1  2  1  0  0  0
  2  3  2  0  0  0
  2  4  1  0  0  0
  4  5  1  0  0  0
  4 12  1  0  0  0
  4 25  1  0  0  0
  5  6  1  0  0  0
  5 26  1  0  0  0
  5 27  1  0  0  0
  6  7  2  0  0  0
  6 11  1  0  0  0
  7  8  1  0  0  0
  7 28  1  0  0  0
  8  9  2  0  0  0
  8 29  1  0  0  0
  9 10  1  0  0  0
  9 30  1  0  0  0
 10 11  2  0  0  0
 10 31  1  0  0  0
 11 32  1  0  0  0
 12 13  1  0  0  0
 12 33  1  0  0  0
 13 14  2  0  0  0
 13 20  1  0  0  0
 14 15  1  0  0  0
 14 46  1  0  0  0
 15 16  1  0  0  0
 15 17  1  0  0  0
 15 18  1  0  0  0
 16 34  1  0  0  0
 16 35  1  0  0  0
 16 36  1  0  0  0
 17 37  1  0  0  0
 17 38  1  0  0  0
 17 39  1  0  0  0
 18 19  1  0  0  0
 18 40  1  0  0  0
 18 41  1  0  0  0
 19 20  2  0  0  0
 19 24  1  0  0  0
 20 21  1  0  0  0
 21 22  2  0  0  0
 21 42  1  0  0  0
 22 23  1  0  0  0
 22 43  1  0  0  0
 23 24  2  0  0  0
 23 44  1  0  0  0
 24 45  1  0  0  0
M  CHG  2   1  -1  14   1
M  END
> <s_m_source_file>
../4i11_ligand.sdf

> <i_m_source_file_index>
1

> <s_epik_input>
W2NIXTFbY0hdW2NIXVtjSF1jKGMxMilDKD1OQyhbQ0gzXSkoW0NIM10pW0NIMl0yKVtOSF1bQ0BIXShDKD1PKVtPSF0pW0NIMl1jM1tjSF1bY0hdW2NIXVtjSF1bY0hdMw==

> <s_epik_cmdline>
J2VwaWtfYXBwJywgJy1pbWFlJywgJ2xpZ2FuZF9wcm8ubWFlJywgJy1vbWFlJywgJ2xpZ2FuZF9wcmVwLm1hZScsICctbXMnLCAnMScsICctcGgnLCAnNycsICctcGh0JywgJzAuNScsICctbnQn

> <r_lp_tautomer_probability>
1

> <r_epik_Ionization_Penalty>
  0.0004

> <r_epik_Ionization_Penalty_Charging>
  0.0004

> <r_epik_Ionization_Penalty_Neutral>
  0.0000

> <r_epik_State_Penalty>
 -0.0000

> <r_epik_Charging_Adjusted_Penalty>
0.000412605353640201

> <i_epik_Tot_Q>
0

> <i_epik_Tot_abs_Q>
2

> <s_epik_Chemistry_Notes>
This compound has an imine and may undergo hydrolysis.

$$$$
