4i12_ligand
                    3D
 Schrodinger Suite 2020-3.
 66 70  0  0  1  0            999 V2000
    9.9810  -11.2150    4.3850 Cl  0  0  0  0  0  0
   10.2980  -12.6850    5.3870 C   0  0  0  0  0  0
    9.6420  -13.9080    5.1110 C   0  0  0  0  0  0
    9.8880  -15.0330    5.9210 C   0  0  0  0  0  0
   10.7580  -14.8680    6.9950 C   0  0  0  0  0  0
   11.0070  -16.0470    7.8810 C   0  0  0  0  0  0
   11.5550  -15.8350    8.9990 N   0  3  0  0  0  0
   11.5380  -14.4460    9.3660 C   0  0  0  0  0  0
   12.6600  -14.5370   10.4690 C   0  0  0  0  0  0
   10.5110  -13.8740   10.3470 C   0  0  0  0  0  0
   12.2820  -13.5050    8.4920 C   0  0  0  0  0  0
   11.4090  -13.6440    7.2660 C   0  0  0  0  0  0
   11.1660  -12.5230    6.4850 C   0  0  0  0  0  0
   10.7190  -17.2650    7.4280 N   0  0  0  0  0  0
   10.7420  -18.4690    8.1950 C   0  0  1  0  0  0
    9.2860  -18.8990    8.4760 C   0  0  0  0  0  0
    8.7080  -17.9920    9.5580 C   0  0  0  0  0  0
    7.7700  -16.8010    9.4450 C   0  0  0  0  0  0
    7.3830  -16.0800   10.5430 C   0  0  0  0  0  0
    8.1410  -16.8760   11.8430 S   0  0  0  0  0  0
    9.0280  -18.1320   10.9810 C   0  0  0  0  0  0
    9.8940  -19.1720   11.6710 C   0  0  0  0  0  0
   10.0040  -19.1470   13.1910 C   0  0  0  0  0  0
   10.6750  -20.4550   13.6360 C   0  0  0  0  0  0
    7.2890  -16.3070    8.1490 C   0  0  0  0  0  0
    7.0330  -14.9680    7.8930 C   0  0  0  0  0  0
    6.6640  -14.9400    6.5680 N   0  3  0  0  0  0
    6.7280  -16.2800    6.0800 N   0  0  0  0  0  0
    7.1060  -17.1290    7.0600 C   0  0  0  0  0  0
   11.3810  -19.5060    7.2930 C   0  0  0  0  0  0
   11.3200  -20.8030    7.6050 N   0  0  0  0  0  0
   11.8500  -21.7740    6.7930 C   0  0  0  0  0  0
   12.4210  -21.4130    5.5590 C   0  0  0  0  0  0
   12.4600  -20.0450    5.2410 C   0  0  0  0  0  0
   11.9160  -19.1420    6.1140 N   0  0  0  0  0  0
   11.7880  -22.9690    7.1580 O   0  0  0  0  0  0
    8.9480  -13.9789    4.2735 H   0  0  0  0  0  0
    9.4164  -15.9940    5.7155 H   0  0  0  0  0  0
   11.9773  -16.6734    9.5723 H   0  0  0  0  0  0
   12.3308  -15.2130   11.2719 H   0  0  0  0  0  0
   12.8466  -13.5362   10.8857 H   0  0  0  0  0  0
   13.5857  -14.9253   10.0192 H   0  0  0  0  0  0
   10.0509  -14.6951   10.9163 H   0  0  0  0  0  0
    9.7324  -13.3334    9.7889 H   0  0  0  0  0  0
   11.0120  -13.1826   11.0405 H   0  0  0  0  0  0
   12.2870  -12.5050    8.9503 H   0  0  0  0  0  0
   13.3168  -13.8577    8.3704 H   0  0  0  0  0  0
   11.6257  -11.5608    6.7107 H   0  0  0  0  0  0
   11.3042  -18.2930    9.1240 H   0  0  0  0  0  0
    8.6921  -18.8067    7.5547 H   0  0  0  0  0  0
    9.2719  -19.9444    8.8181 H   0  0  0  0  0  0
    6.7394  -15.2010   10.5768 H   0  0  0  0  0  0
    9.5154  -20.1780   11.4371 H   0  0  0  0  0  0
   10.9312  -19.0791   11.3166 H   0  0  0  0  0  0
   10.6103  -18.2830   13.5006 H   0  0  0  0  0  0
    8.9987  -19.0657   13.6301 H   0  0  0  0  0  0
   10.7679  -20.4650   14.7320 H   0  0  0  0  0  0
   11.6746  -20.5270   13.1826 H   0  0  0  0  0  0
   10.0630  -21.3097   13.3121 H   0  0  0  0  0  0
    7.1504  -14.2228    8.6935 H   0  0  0  0  0  0
    7.1943  -18.2054    6.8514 H   0  0  0  0  0  0
   12.8175  -22.1648    4.8766 H   0  0  0  0  0  0
   12.9175  -19.7072    4.3111 H   0  0  0  0  0  0
    6.3583  -14.1241    5.8965 H   0  0  0  0  0  0
   10.4448  -17.2964    6.3632 H   0  0  0  0  0  0
   10.8333  -21.1218    8.5385 H   0  0  0  0  0  0
  1  2  1  0  0  0
  2  3  2  0  0  0
  2 13  1  0  0  0
  3  4  1  0  0  0
  3 37  1  0  0  0
  4  5  2  0  0  0
  4 38  1  0  0  0
  5  6  1  0  0  0
  5 12  1  0  0  0
  6  7  2  0  0  0
  6 14  1  0  0  0
  7  8  1  0  0  0
  7 39  1  0  0  0
  8  9  1  0  0  0
  8 10  1  0  0  0
  8 11  1  0  0  0
  9 40  1  0  0  0
  9 41  1  0  0  0
  9 42  1  0  0  0
 10 43  1  0  0  0
 10 44  1  0  0  0
 10 45  1  0  0  0
 11 12  1  0  0  0
 11 46  1  0  0  0
 11 47  1  0  0  0
 12 13  2  0  0  0
 13 48  1  0  0  0
 14 15  1  0  0  0
 14 65  1  0  0  0
 15 16  1  0  0  0
 15 30  1  0  0  0
 15 49  1  0  0  0
 16 17  1  0  0  0
 16 50  1  0  0  0
 16 51  1  0  0  0
 17 18  1  0  0  0
 17 21  2  0  0  0
 18 19  2  0  0  0
 18 25  1  0  0  0
 19 20  1  0  0  0
 19 52  1  0  0  0
 20 21  1  0  0  0
 21 22  1  0  0  0
 22 23  1  0  0  0
 22 53  1  0  0  0
 22 54  1  0  0  0
 23 24  1  0  0  0
 23 55  1  0  0  0
 23 56  1  0  0  0
 24 57  1  0  0  0
 24 58  1  0  0  0
 24 59  1  0  0  0
 25 26  2  0  0  0
 25 29  1  0  0  0
 26 27  1  0  0  0
 26 60  1  0  0  0
 27 28  1  0  0  0
 27 64  1  0  0  0
 28 29  2  0  0  0
 29 61  1  0  0  0
 30 31  1  0  0  0
 30 35  2  0  0  0
 31 32  1  0  0  0
 31 66  1  0  0  0
 32 33  1  0  0  0
 32 36  2  0  0  0
 33 34  2  0  0  0
 33 62  1  0  0  0
 34 35  1  0  0  0
 34 63  1  0  0  0
M  CHG  2   7   1  27   1
M  END
> <s_m_source_file>
../4i12_ligand.sdf

> <i_m_source_file_index>
1

> <s_epik_input>
W2NIXTFbY0hdYyhDbClbY0hdYyhjMTIpW0NIMl1DKFtDSDNdKShbQ0gzXSlbTkhdQ1wyPU4vW0NASF0oYzNuYyg9TylbY0hdW2NIXVtuSF0zKVtDSDJdYzRjKC1jNVtjSF1bbkhdbltjSF01KVtjSF1zYzRbQ0gyXVtDSDJdW0NIM10=

> <s_epik_cmdline>
J2VwaWtfYXBwJywgJy1pbWFlJywgJ2xpZ2FuZF9wcm8ubWFlJywgJy1vbWFlJywgJ2xpZ2FuZF9wcmVwLm1hZScsICctbXMnLCAnMScsICctcGgnLCAnNycsICctcGh0JywgJzAuNScsICctbnQn

> <r_lp_tautomer_probability>
1

> <r_epik_Ionization_Penalty>
  0.0545

> <r_epik_Ionization_Penalty_Charging>
  0.0545

> <r_epik_Ionization_Penalty_Neutral>
  0.0000

> <r_epik_State_Penalty>
 -0.0000

> <r_epik_Charging_Adjusted_Penalty>
0.0545324213450849

> <i_epik_Tot_Q>
2

> <i_epik_Tot_abs_Q>
2

> <s_epik_Chemistry_Notes>
This compound has an imine and may undergo hydrolysis.

$$$$
