4i1c_ligand
                    3D
 Schrodinger Suite 2020-3.
 59 62  0  0  1  0            999 V2000
    9.8200  -11.2420    4.3270 Cl  0  0  0  0  0  0
   10.1090  -12.7120    5.2590 C   0  0  0  0  0  0
    9.4430  -13.9080    4.9480 C   0  0  0  0  0  0
    9.7060  -15.0280    5.7700 C   0  0  0  0  0  0
   10.5780  -14.9050    6.8570 C   0  0  0  0  0  0
   10.8830  -16.0650    7.7680 C   0  0  0  0  0  0
   11.3660  -15.8300    8.9300 N   0  3  0  0  0  0
   11.6200  -14.5080    9.4450 C   0  0  0  0  0  0
   12.7100  -14.5800   10.5360 C   0  0  0  0  0  0
   10.3130  -13.9170   10.0460 C   0  0  0  0  0  0
   12.1100  -13.5980    8.3250 C   0  0  0  0  0  0
   11.1970  -13.6880    7.1480 C   0  0  0  0  0  0
   10.9790  -12.5760    6.3580 C   0  0  0  0  0  0
   10.6010  -17.2930    7.3600 N   0  0  0  0  0  0
   10.5220  -18.5440    8.1600 C   0  0  1  0  0  0
    9.0690  -19.0050    8.3950 C   0  0  0  0  0  0
   11.1850  -19.6560    7.3920 C   0  0  0  0  0  0
   11.2640  -20.8200    7.8450 O   0  5  0  0  0  0
   11.5920  -19.3290    6.2630 O   0  0  0  0  0  0
    8.5330  -18.0350    9.4230 C   0  0  0  0  0  0
    7.6860  -16.8050    9.2610 C   0  0  0  0  0  0
    7.3120  -16.0770   10.3660 C   0  0  0  0  0  0
    8.0380  -16.8850   11.6980 S   0  0  0  0  0  0
    8.8150  -18.2080   10.8600 C   0  0  0  0  0  0
    9.6620  -19.2920   11.5260 C   0  0  0  0  0  0
    9.8760  -19.1650   13.0140 C   0  0  0  0  0  0
   10.4760  -20.4440   13.5950 C   0  0  0  0  0  0
    7.1970  -16.2870    7.9560 C   0  0  0  0  0  0
    7.0030  -17.0570    6.8560 C   0  0  0  0  0  0
    6.6360  -16.1810    5.9090 N   0  3  0  0  0  0
    6.6340  -14.8870    6.4350 N   0  0  0  0  0  0
    7.0080  -14.9510    7.7310 C   0  0  0  0  0  0
    8.7517  -13.9707    4.1076 H   0  0  0  0  0  0
    9.2303  -15.9853    5.5572 H   0  0  0  0  0  0
   12.3694  -15.2344   11.3519 H   0  0  0  0  0  0
   12.9010  -13.5711   10.9306 H   0  0  0  0  0  0
   13.6361  -14.9857   10.1028 H   0  0  0  0  0  0
    9.9539  -14.5695   10.8555 H   0  0  0  0  0  0
    9.5456  -13.8507    9.2607 H   0  0  0  0  0  0
   10.5151  -12.9128   10.4469 H   0  0  0  0  0  0
   12.1344  -12.5578    8.6819 H   0  0  0  0  0  0
   13.1212  -13.9046    8.0194 H   0  0  0  0  0  0
   11.4642  -11.6250    6.5779 H   0  0  0  0  0  0
   10.4108  -17.3198    6.2769 H   0  0  0  0  0  0
   11.0283  -18.3147    9.1092 H   0  0  0  0  0  0
    8.5105  -18.9536    7.4488 H   0  0  0  0  0  0
    9.0683  -20.0408    8.7654 H   0  0  0  0  0  0
    6.6903  -15.1821   10.3916 H   0  0  0  0  0  0
    9.1873  -20.2727   11.3749 H   0  0  0  0  0  0
   10.6670  -19.2984   11.0789 H   0  0  0  0  0  0
   10.5640  -18.3308   13.2156 H   0  0  0  0  0  0
    8.9121  -18.9729   13.5080 H   0  0  0  0  0  0
   10.6203  -20.3219   14.6786 H   0  0  0  0  0  0
   11.4458  -20.6445   13.1162 H   0  0  0  0  0  0
    9.7939  -21.2866   13.4086 H   0  0  0  0  0  0
    7.1591  -18.1445    6.9114 H   0  0  0  0  0  0
    7.0906  -14.0294    8.3258 H   0  0  0  0  0  0
    6.3601  -16.3476    4.8573 H   0  0  0  0  0  0
   11.6135  -16.6650    9.6019 H   0  0  0  0  0  0
  1  2  1  0  0  0
  2  3  2  0  0  0
  2 13  1  0  0  0
  3  4  1  0  0  0
  3 33  1  0  0  0
  4  5  2  0  0  0
  4 34  1  0  0  0
  5  6  1  0  0  0
  5 12  1  0  0  0
  6  7  2  0  0  0
  6 14  1  0  0  0
  7  8  1  0  0  0
  7 59  1  0  0  0
  8  9  1  0  0  0
  8 10  1  0  0  0
  8 11  1  0  0  0
  9 35  1  0  0  0
  9 36  1  0  0  0
  9 37  1  0  0  0
 10 38  1  0  0  0
 10 39  1  0  0  0
 10 40  1  0  0  0
 11 12  1  0  0  0
 11 41  1  0  0  0
 11 42  1  0  0  0
 12 13  2  0  0  0
 13 43  1  0  0  0
 14 15  1  0  0  0
 14 44  1  0  0  0
 15 16  1  0  0  0
 15 17  1  0  0  0
 15 45  1  0  0  0
 16 20  1  0  0  0
 16 46  1  0  0  0
 16 47  1  0  0  0
 17 18  1  0  0  0
 17 19  2  0  0  0
 20 21  1  0  0  0
 20 24  2  0  0  0
 21 22  2  0  0  0
 21 28  1  0  0  0
 22 23  1  0  0  0
 22 48  1  0  0  0
 23 24  1  0  0  0
 24 25  1  0  0  0
 25 26  1  0  0  0
 25 49  1  0  0  0
 25 50  1  0  0  0
 26 27  1  0  0  0
 26 51  1  0  0  0
 26 52  1  0  0  0
 27 53  1  0  0  0
 27 54  1  0  0  0
 27 55  1  0  0  0
 28 29  2  0  0  0
 28 32  1  0  0  0
 29 30  1  0  0  0
 29 56  1  0  0  0
 30 31  1  0  0  0
 30 58  1  0  0  0
 31 32  2  0  0  0
 32 57  1  0  0  0
M  CHG  3   7   1  18  -1  30   1
M  END
> <s_m_source_file>
../4i1c_ligand.sdf

> <i_m_source_file_index>
1

> <s_epik_input>
W2NIXTFbY0hdYyhDbClbY0hdYyhjMTIpW0NIMl1DKFtDSDNdKShbQ0gzXSlOPUMyW05IXVtDQEhdKEMoPU8pW09IXSlbQ0gyXWMzYygtYzRbY0hdW25IXW5bY0hdNClbY0hdc2MzW0NIMl1bQ0gyXVtDSDNd

> <s_epik_cmdline>
J2VwaWtfYXBwJywgJy1pbWFlJywgJ2xpZ2FuZF9wcm8ubWFlJywgJy1vbWFlJywgJ2xpZ2FuZF9wcmVwLm1hZScsICctbXMnLCAnMScsICctcGgnLCAnNycsICctcGh0JywgJzAuNScsICctbnQn

> <r_epik_Ionization_Penalty>
  0.0007

> <r_epik_Ionization_Penalty_Charging>
  0.0007

> <r_epik_Ionization_Penalty_Neutral>
  0.0000

> <r_epik_State_Penalty>
  0.4107

> <r_epik_Charging_Adjusted_Penalty>
0.41136084934053

> <i_epik_Tot_Q>
1

> <i_epik_Tot_abs_Q>
3

> <s_epik_Chemistry_Notes>
This compound has an imine and may undergo hydrolysis.

$$$$
