4i1r_ligand
                    3D
 Schrodinger Suite 2020-3.
 52 55  0  0  1  0            999 V2000
  -28.9170  -13.1650   23.9130 C   0  0  0  0  0  0
  -29.9090  -19.8230   21.3180 C   0  0  0  0  0  0
  -27.5770  -12.1240   17.7870 C   0  0  0  0  0  0
  -26.1820  -11.9450   17.6790 C   0  0  0  0  0  0
  -32.6390  -13.2430   21.8850 C   0  0  0  0  0  0
  -32.2090  -12.3470   22.9850 C   0  0  0  0  0  0
  -31.5610  -13.8190   21.0570 C   0  0  0  0  0  0
  -28.0530  -13.3290   18.3290 C   0  0  0  0  0  0
  -25.2980  -12.9410   18.0650 C   0  0  0  0  0  0
  -25.7950  -19.1670   20.5200 C   0  0  0  0  0  0
  -25.0050  -18.0850   20.1230 C   0  0  0  0  0  0
  -29.2510  -14.6600   20.9990 C   0  0  0  0  0  0
  -31.0580  -12.9110   23.7670 C   0  0  0  0  0  0
  -29.2080  -15.4370   19.6170 C   0  0  0  0  0  0
  -27.8300  -17.8570   20.1300 C   0  0  0  0  0  0
  -30.4000  -14.3770   21.8570 C   0  0  1  0  0  0
  -27.2120  -19.0750   20.5060 C   0  0  0  0  0  0
  -27.1440  -14.3480   18.7690 C   0  0  0  0  0  0
  -27.0370  -16.7180   19.7330 C   0  0  0  0  0  0
  -25.7920  -14.1850   18.6650 C   0  0  0  0  0  0
  -25.6770  -16.8210   19.7510 C   0  0  0  0  0  0
  -29.9790  -13.4090   22.9020 N   0  3  2  0  0  0
  -27.7510  -15.5700   19.2230 N   0  0  0  0  0  0
  -28.2720  -20.4300   20.9920 S   0  0  0  0  0  0
  -24.7670  -15.3730   19.4760 S   0  0  0  0  0  0
  -29.1259  -12.2250   24.4447 H   0  0  0  0  0  0
  -27.9415  -13.0927   23.4099 H   0  0  0  0  0  0
  -28.8977  -13.9968   24.6326 H   0  0  0  0  0  0
  -30.5576  -20.6598   21.6166 H   0  0  0  0  0  0
  -30.3130  -19.3519   20.4098 H   0  0  0  0  0  0
  -29.8702  -19.0814   22.1295 H   0  0  0  0  0  0
  -28.2675  -11.3473   17.4584 H   0  0  0  0  0  0
  -25.7919  -11.0066   17.2849 H   0  0  0  0  0  0
  -33.1913  -14.0976   22.3029 H   0  0  0  0  0  0
  -33.2903  -12.6883   21.1936 H   0  0  0  0  0  0
  -31.8939  -11.3793   22.5677 H   0  0  0  0  0  0
  -33.0473  -12.1911   23.6799 H   0  0  0  0  0  0
  -31.9646  -14.6442   20.4519 H   0  0  0  0  0  0
  -31.1540  -13.0423   20.3928 H   0  0  0  0  0  0
  -29.1272  -13.4922   18.4165 H   0  0  0  0  0  0
  -24.2270  -12.7984   17.9214 H   0  0  0  0  0  0
  -25.3182  -20.0921   20.8441 H   0  0  0  0  0  0
  -23.9189  -18.1705   20.0883 H   0  0  0  0  0  0
  -28.6115  -15.1764   21.7300 H   0  0  0  0  0  0
  -28.8858  -13.6326   20.8536 H   0  0  0  0  0  0
  -30.6375  -12.1288   24.4161 H   0  0  0  0  0  0
  -31.4106  -13.7499   24.3850 H   0  0  0  0  0  0
  -29.6678  -16.4287   19.7395 H   0  0  0  0  0  0
  -29.7636  -14.8665   18.8581 H   0  0  0  0  0  0
  -28.9172  -17.7790   20.1406 H   0  0  0  0  0  0
  -30.7113  -15.3232   22.3236 H   0  0  0  0  0  0
  -29.4803  -13.1517   21.9559 H   0  0  0  0  0  0
  1 22  1  0  0  0
  1 26  1  0  0  0
  1 27  1  0  0  0
  1 28  1  0  0  0
  2 24  1  0  0  0
  2 29  1  0  0  0
  2 30  1  0  0  0
  2 31  1  0  0  0
  3  4  2  0  0  0
  3  8  1  0  0  0
  3 32  1  0  0  0
  4  9  1  0  0  0
  4 33  1  0  0  0
  5  6  1  0  0  0
  5  7  1  0  0  0
  5 34  1  0  0  0
  5 35  1  0  0  0
  6 13  1  0  0  0
  6 36  1  0  0  0
  6 37  1  0  0  0
  7 16  1  0  0  0
  7 38  1  0  0  0
  7 39  1  0  0  0
  8 18  2  0  0  0
  8 40  1  0  0  0
  9 20  2  0  0  0
  9 41  1  0  0  0
 10 11  2  0  0  0
 10 17  1  0  0  0
 10 42  1  0  0  0
 11 21  1  0  0  0
 11 43  1  0  0  0
 12 14  1  0  0  0
 12 16  1  0  0  0
 12 44  1  0  0  0
 12 45  1  0  0  0
 13 22  1  0  0  0
 13 46  1  0  0  0
 13 47  1  0  0  0
 14 23  1  0  0  0
 14 48  1  0  0  0
 14 49  1  0  0  0
 15 17  2  0  0  0
 15 19  1  0  0  0
 15 50  1  0  0  0
 16 22  1  0  0  0
 16 51  1  0  0  0
 17 24  1  0  0  0
 18 20  1  0  0  0
 18 23  1  0  0  0
 19 21  2  0  0  0
 19 23  1  0  0  0
 20 25  1  0  0  0
 21 25  1  0  0  0
 22 52  1  0  0  0
M  CHG  1  22   1
M  END
> <s_m_source_file>
../4i1r_ligand.sdf

> <i_m_source_file_index>
1

> <s_epik_input>
W0NIM11bTkBASCtdMVtDSDJdW0NIMl1bQ0gyXVtDSDJdW0NASF0xW0NIMl1bQ0gyXU4yYyhbY0hdYyhbY0hdW2NIXTMpU1tDSDNdKWMzU2MoYzI0KVtjSF1bY0hdW2NIXVtjSF00

> <s_epik_cmdline>
J2VwaWtfYXBwJywgJy1pbWFlJywgJ2xpZ2FuZF9wcm8ubWFlJywgJy1vbWFlJywgJ2xpZ2FuZF9wcmVwLm1hZScsICctbXMnLCAnMScsICctcGgnLCAnNycsICctcGh0JywgJzAuNScsICctbnQn

> <r_lp_tautomer_probability>
1

> <r_epik_Ionization_Penalty>
  0.0007

> <r_epik_Ionization_Penalty_Charging>
  0.0007

> <r_epik_Ionization_Penalty_Neutral>
  0.0000

> <r_epik_State_Penalty>
 -0.0000

> <r_epik_Charging_Adjusted_Penalty>
0.000664109399081932

> <i_epik_Tot_Q>
1

> <i_epik_Tot_abs_Q>
1

$$$$
