4i2w_ligand
                    3D
 Schrodinger Suite 2020-3.
132132  0  0  1  0            999 V2000
   72.5260  -23.8810  -16.1900 N   0  3  0  0  0  0
   72.6930  -22.7100  -15.2930 C   0  0  2  0  0  0
   72.2300  -21.4240  -15.9720 C   0  0  0  0  0  0
   72.9090  -20.8990  -16.8600 O   0  0  0  0  0  0
   74.1460  -22.5770  -14.8580 C   0  0  0  0  0  0
   71.0610  -20.9410  -15.5470 N   0  0  0  0  0  0
   70.4800  -19.7120  -16.0700 C   0  0  0  0  0  0
   69.5130  -19.8950  -17.2240 C   0  0  0  0  0  0
   68.4030  -20.4070  -17.0670 O   0  0  0  0  0  0
   69.9570  -19.4520  -18.3940 N   0  0  0  0  0  0
   69.1570  -19.5450  -19.5960 C   0  0  0  0  0  0
   69.6160  -18.6570  -20.7500 C   0  0  0  0  0  0
   69.0800  -18.7940  -21.8560 O   0  0  0  0  0  0
   70.5910  -17.7430  -20.5520 N   0  0  0  0  0  0
   71.0210  -16.8940  -21.6690 C   0  0  2  0  0  0
   71.4580  -17.6970  -22.8820 C   0  0  0  0  0  0
   71.7780  -17.1300  -23.9260 O   0  0  0  0  0  0
   72.1530  -16.0730  -21.0580 C   0  0  0  0  0  0
   71.6860  -15.8990  -19.6550 C   0  0  0  0  0  0
   71.2560  -17.3160  -19.3100 C   0  0  0  0  0  0
   71.4680  -19.0190  -22.7250 N   0  0  0  0  0  0
   71.8290  -19.9380  -23.7940 C   0  0  2  0  0  0
   70.7690  -19.8200  -24.8980 C   0  0  0  0  0  0
   70.3090  -20.8250  -25.4490 O   0  0  0  0  0  0
   71.8930  -21.3990  -23.2620 C   0  0  2  0  0  0
   70.6210  -21.7760  -22.7210 O   0  0  0  0  0  0
   72.9490  -21.5220  -22.1720 C   0  0  0  0  0  0
   70.4040  -18.5730  -25.2060 N   0  0  0  0  0  0
   69.3970  -18.2280  -26.2110 C   0  0  2  0  0  0
   68.3840  -19.3640  -26.4370 C   0  0  0  0  0  0
   68.2350  -19.9330  -27.5190 O   0  0  0  0  0  0
   70.0980  -17.6700  -27.5280 C   0  0  2  0  0  0
   69.4910  -18.2610  -28.7990 C   0  0  0  0  0  0
   71.6010  -17.8920  -27.4430 C   0  0  0  0  0  0
   70.1670  -17.7900  -30.0630 C   0  0  0  0  0  0
   67.7160  -19.6870  -25.3320 N   0  0  0  0  0  0
   66.6600  -20.6930  -25.2260 C   0  0  2  0  0  0
   65.7550  -19.9160  -24.2770 C   0  0  0  0  0  0
   64.9480  -20.4620  -23.5230 O   0  0  0  0  0  0
   67.1850  -21.9750  -24.5610 C   0  0  0  0  0  0
   66.1410  -23.0700  -24.2900 C   0  0  0  0  0  0
   65.7500  -23.8830  -25.5170 C   0  0  0  0  0  0
   66.6280  -24.5180  -26.1400 O   0  5  0  0  0  0
   64.5490  -23.8920  -25.8500 O   0  0  0  0  0  0
   65.9430  -18.6030  -24.3380 N   0  0  0  0  0  0
   65.2210  -17.6480  -23.5290 C   0  0  2  0  0  0
   64.9450  -16.4230  -24.3940 C   0  0  0  0  0  0
   65.7580  -16.0560  -25.2450 O   0  0  0  0  0  0
   66.0810  -17.2880  -22.3170 C   0  0  0  0  0  0
   65.6820  -16.0320  -21.5710 C   0  0  0  0  0  0
   66.8960  -15.1940  -21.2010 C   0  0  0  0  0  0
   66.7210  -14.1240  -20.5800 O   0  0  0  0  0  0
   68.0290  -15.6070  -21.5380 O   0  5  0  0  0  0
   63.7870  -15.8090  -24.1760 N   0  0  0  0  0  0
   63.3690  -14.6170  -24.9090 C   0  0  2  0  0  0
   63.7980  -13.3680  -24.1260 C   0  0  0  0  0  0
   64.4710  -13.4850  -23.1030 O   0  0  0  0  0  0
   61.8420  -14.6080  -25.0780 C   0  0  0  0  0  0
   61.4110  -15.7880  -25.9380 C   0  0  0  0  0  0
   61.1620  -14.6770  -23.7190 C   0  0  0  0  0  0
   63.4220  -12.1810  -24.5950 N   0  0  0  0  0  0
   63.7900  -10.9580  -23.8910 C   0  0  2  0  0  0
   62.9850   -9.7200  -24.2990 C   0  0  0  0  0  0
   62.0010   -9.8790  -25.0470 O   0  0  0  0  0  0
   65.2980  -10.6880  -24.0390 C   0  0  0  0  0  0
   65.8200  -10.9600  -25.4420 C   0  0  0  0  0  0
   65.7600  -12.1250  -25.9020 O   0  5  0  0  0  0
   66.3000  -10.0010  -26.0850 O   0  0  0  0  0  0
   63.3190   -8.6000  -23.8400 O   0  5  0  0  0  0
   71.4721  -23.9623  -16.4944 H   0  0  0  0  0  0
   72.8257  -24.7960  -15.6581 H   0  0  0  0  0  0
   73.1565  -23.7523  -17.0821 H   0  0  0  0  0  0
   72.0593  -22.9010  -14.4144 H   0  0  0  0  0  0
   74.4694  -23.5084  -14.3702 H   0  0  0  0  0  0
   74.2418  -21.7402  -14.1505 H   0  0  0  0  0  0
   74.7765  -22.3864  -15.7390 H   0  0  0  0  0  0
   70.5325  -21.5116  -14.7691 H   0  0  0  0  0  0
   69.9216  -19.2017  -15.2714 H   0  0  0  0  0  0
   71.2820  -19.0536  -16.4350 H   0  0  0  0  0  0
   70.9613  -19.0051  -18.4349 H   0  0  0  0  0  0
   69.1752  -20.5795  -19.9694 H   0  0  0  0  0  0
   68.1203  -19.2550  -19.3698 H   0  0  0  0  0  0
   70.1863  -16.2850  -22.0464 H   0  0  0  0  0  0
   73.0953  -16.6356  -21.1321 H   0  0  0  0  0  0
   72.2504  -15.1214  -21.6012 H   0  0  0  0  0  0
   72.5166  -15.5304  -19.0351 H   0  0  0  0  0  0
   70.8602  -15.1728  -19.6308 H   0  0  0  0  0  0
   70.5390  -17.3587  -18.4769 H   0  0  0  0  0  0
   72.1034  -17.9849  -19.0991 H   0  0  0  0  0  0
   71.1875  -19.4092  -21.7355 H   0  0  0  0  0  0
   72.8201  -19.6283  -24.1570 H   0  0  0  0  0  0
   72.1002  -22.1101  -24.0752 H   0  0  0  0  0  0
   69.7241  -21.7535  -23.3575 H   0  0  0  0  0  0
   73.9301  -21.2344  -22.5779 H   0  0  0  0  0  0
   72.9898  -22.5622  -21.8167 H   0  0  0  0  0  0
   72.6900  -20.8582  -21.3340 H   0  0  0  0  0  0
   70.9168  -17.7774  -24.6455 H   0  0  0  0  0  0
   68.7972  -17.4314  -25.7467 H   0  0  0  0  0  0
   69.9438  -16.5858  -27.6316 H   0  0  0  0  0  0
   69.5743  -19.3574  -28.7696 H   0  0  0  0  0  0
   68.4308  -17.9755  -28.8661 H   0  0  0  0  0  0
   71.9851  -17.4485  -26.5125 H   0  0  0  0  0  0
   72.0912  -17.4166  -28.3054 H   0  0  0  0  0  0
   71.8132  -18.9713  -27.4497 H   0  0  0  0  0  0
   69.6802  -18.2536  -30.9337 H   0  0  0  0  0  0
   71.2285  -18.0775  -30.0401 H   0  0  0  0  0  0
   70.0851  -16.6955  -30.1366 H   0  0  0  0  0  0
   68.0234  -19.1165  -24.4431 H   0  0  0  0  0  0
   66.2294  -21.0121  -26.1866 H   0  0  0  0  0  0
   67.9498  -22.4349  -25.2041 H   0  0  0  0  0  0
   67.6276  -21.7270  -23.5850 H   0  0  0  0  0  0
   66.5373  -23.7789  -23.5481 H   0  0  0  0  0  0
   65.2198  -22.6105  -23.9024 H   0  0  0  0  0  0
   66.6996  -18.2545  -25.0565 H   0  0  0  0  0  0
   64.2770  -18.1034  -23.1951 H   0  0  0  0  0  0
   66.0403  -18.1059  -21.5826 H   0  0  0  0  0  0
   67.1219  -17.1353  -22.6383 H   0  0  0  0  0  0
   65.0194  -15.4241  -22.2046 H   0  0  0  0  0  0
   65.1539  -16.3070  -20.6461 H   0  0  0  0  0  0
   63.1317  -16.2376  -23.4035 H   0  0  0  0  0  0
   63.8642  -14.6651  -25.8900 H   0  0  0  0  0  0
   61.5336  -13.6754  -25.5732 H   0  0  0  0  0  0
   61.9079  -15.7286  -26.9176 H   0  0  0  0  0  0
   60.3203  -15.7607  -26.0779 H   0  0  0  0  0  0
   61.6934  -16.7272  -25.4399 H   0  0  0  0  0  0
   61.4799  -13.8207  -23.1060 H   0  0  0  0  0  0
   61.4438  -15.6133  -23.2152 H   0  0  0  0  0  0
   60.0706  -14.6468  -23.8532 H   0  0  0  0  0  0
   62.8297  -12.1260  -25.5203 H   0  0  0  0  0  0
   63.5139  -11.1929  -22.8525 H   0  0  0  0  0  0
   65.5063   -9.6335  -23.8054 H   0  0  0  0  0  0
   65.8560  -11.3343  -23.3455 H   0  0  0  0  0  0
  1  2  1  0  0  0
  1 70  1  0  0  0
  1 71  1  0  0  0
  1 72  1  0  0  0
  2  3  1  0  0  0
  2  5  1  0  0  0
  2 73  1  0  0  0
  3  4  2  0  0  0
  3  6  1  0  0  0
  5 74  1  0  0  0
  5 75  1  0  0  0
  5 76  1  0  0  0
  6  7  1  0  0  0
  6 77  1  0  0  0
  7  8  1  0  0  0
  7 78  1  0  0  0
  7 79  1  0  0  0
  8  9  2  0  0  0
  8 10  1  0  0  0
 10 11  1  0  0  0
 10 80  1  0  0  0
 11 12  1  0  0  0
 11 81  1  0  0  0
 11 82  1  0  0  0
 12 13  2  0  0  0
 12 14  1  0  0  0
 14 15  1  0  0  0
 14 20  1  0  0  0
 15 16  1  0  0  0
 15 18  1  0  0  0
 15 83  1  0  0  0
 16 17  2  0  0  0
 16 21  1  0  0  0
 18 19  1  0  0  0
 18 84  1  0  0  0
 18 85  1  0  0  0
 19 20  1  0  0  0
 19 86  1  0  0  0
 19 87  1  0  0  0
 20 88  1  0  0  0
 20 89  1  0  0  0
 21 22  1  0  0  0
 21 90  1  0  0  0
 22 23  1  0  0  0
 22 25  1  0  0  0
 22 91  1  0  0  0
 23 24  2  0  0  0
 23 28  1  0  0  0
 25 26  1  0  0  0
 25 27  1  0  0  0
 25 92  1  0  0  0
 26 93  1  0  0  0
 27 94  1  0  0  0
 27 95  1  0  0  0
 27 96  1  0  0  0
 28 29  1  0  0  0
 28 97  1  0  0  0
 29 30  1  0  0  0
 29 32  1  0  0  0
 29 98  1  0  0  0
 30 31  2  0  0  0
 30 36  1  0  0  0
 32 33  1  0  0  0
 32 34  1  0  0  0
 32 99  1  0  0  0
 33 35  1  0  0  0
 33100  1  0  0  0
 33101  1  0  0  0
 34102  1  0  0  0
 34103  1  0  0  0
 34104  1  0  0  0
 35105  1  0  0  0
 35106  1  0  0  0
 35107  1  0  0  0
 36 37  1  0  0  0
 36108  1  0  0  0
 37 38  1  0  0  0
 37 40  1  0  0  0
 37109  1  0  0  0
 38 39  2  0  0  0
 38 45  1  0  0  0
 40 41  1  0  0  0
 40110  1  0  0  0
 40111  1  0  0  0
 41 42  1  0  0  0
 41112  1  0  0  0
 41113  1  0  0  0
 42 43  1  0  0  0
 42 44  2  0  0  0
 45 46  1  0  0  0
 45114  1  0  0  0
 46 47  1  0  0  0
 46 49  1  0  0  0
 46115  1  0  0  0
 47 48  2  0  0  0
 47 54  1  0  0  0
 49 50  1  0  0  0
 49116  1  0  0  0
 49117  1  0  0  0
 50 51  1  0  0  0
 50118  1  0  0  0
 50119  1  0  0  0
 51 52  2  0  0  0
 51 53  1  0  0  0
 54 55  1  0  0  0
 54120  1  0  0  0
 55 56  1  0  0  0
 55 58  1  0  0  0
 55121  1  0  0  0
 56 57  2  0  0  0
 56 61  1  0  0  0
 58 59  1  0  0  0
 58 60  1  0  0  0
 58122  1  0  0  0
 59123  1  0  0  0
 59124  1  0  0  0
 59125  1  0  0  0
 60126  1  0  0  0
 60127  1  0  0  0
 60128  1  0  0  0
 61 62  1  0  0  0
 61129  1  0  0  0
 62 63  1  0  0  0
 62 65  1  0  0  0
 62130  1  0  0  0
 63 64  2  0  0  0
 63 69  1  0  0  0
 65 66  1  0  0  0
 65131  1  0  0  0
 65132  1  0  0  0
 66 67  1  0  0  0
 66 68  2  0  0  0
M  CHG  5   1   1  43  -1  53  -1  67  -1  69  -1
M  END
> <s_m_source_file>
../4i2w_ligand.sdf

> <i_m_source_file_index>
1

> <s_epik_input>
W05IMytdW0NAQEhdKFtDSDNdKUMoPU8pW05IXVtDSDJdQyg9TylbTkhdW0NIMl1DKD1PKU4xW0NAQEhdKFtDSDJdW0NIMl1bQ0gyXTEpQyg9TylbTkhdW0NAQEhdKFtDQEhdKFtPSF0pW0NIM10pQyg9TylbTkhdW0NAQEhdKFtDQEBIXShbQ0gzXSlbQ0gyXVtDSDNdKUMoPU8pW05IXVtDQEBIXShbQ0gyXVtDSDJdQyg9TylbT0hdKUMoPU8pW05IXVtDQEBIXShbQ0gyXVtDSDJdQyg9TylbT0hdKUMoPU8pW05IXVtDQEBIXShbQ0hdKFtDSDNdKVtDSDNdKUMoPU8pW05IXVtDQEhdKEMoPU8pW09IXSlbQ0gyXUMoPU8pW09IXQ==

> <s_epik_cmdline>
J2VwaWtfYXBwJywgJy1pbWFlJywgJ2xpZ2FuZF9wcm8ubWFlJywgJy1vbWFlJywgJ2xpZ2FuZF9wcmVwLm1hZScsICctbXMnLCAnMScsICctcGgnLCAnNycsICctcGh0JywgJzAuNScsICctbnQn

> <r_epik_Ionization_Penalty>
  0.1289

> <r_epik_Ionization_Penalty_Charging>
  0.1289

> <r_epik_Ionization_Penalty_Neutral>
  0.0000

> <r_epik_State_Penalty>
  0.1134

> <r_epik_Charging_Adjusted_Penalty>
0.242290058210434

> <i_epik_Tot_Q>
-3

> <i_epik_Tot_abs_Q>
5

$$$$
