4i2z_ligand
                    3D
 Schrodinger Suite 2020-3.
123122  0  0  1  0            999 V2000
   76.4730   13.7490   22.3610 N   0  3  0  0  0  0
   76.6060   15.2260   22.5210 C   0  0  2  0  0  0
   75.3070   15.9660   22.2010 C   0  0  0  0  0  0
   75.1070   16.4310   21.0750 O   0  0  0  0  0  0
   77.7330   15.7430   21.6250 C   0  0  0  0  0  0
   74.4310   16.0760   23.1960 N   0  0  0  0  0  0
   73.1520   16.7660   23.0400 C   0  0  2  0  0  0
   72.9830   17.8020   24.1640 C   0  0  0  0  0  0
   72.5700   17.4420   25.2710 O   0  0  0  0  0  0
   72.0000   15.7440   23.0800 C   0  0  0  0  0  0
   71.9720   14.9460   21.9070 O   0  0  0  0  0  0
   73.3090   19.0740   23.8930 N   0  0  0  0  0  0
   73.1690   20.1220   24.9110 C   0  0  2  0  0  0
   71.7870   19.9060   25.4970 C   0  0  0  0  0  0
   70.8990   19.4450   24.7900 O   0  0  0  0  0  0
   73.2490   21.5340   24.3010 C   0  0  0  0  0  0
   74.3220   21.7520   23.2550 C   0  0  0  0  0  0
   75.7000   21.3220   23.7280 C   0  0  0  0  0  0
   76.6350   21.2230   22.6090 N   0  0  0  0  0  0
   77.7530   20.5020   22.6240 C   0  0  0  0  0  0
   78.0830   19.8120   23.7070 N   0  3  0  0  0  0
   78.5320   20.4590   21.5490 N   0  0  0  0  0  0
   71.5960   20.2400   26.7700 N   0  0  0  0  0  0
   70.3040   20.0360   27.4290 C   0  0  2  0  0  0
   69.1080   20.6790   26.7160 C   0  0  0  0  0  0
   69.1400   20.8800   25.5050 O   0  0  0  0  0  0
   70.3970   20.5270   28.8750 C   0  0  0  0  0  0
   71.5290   19.8640   29.6660 C   0  0  0  0  0  0
   71.3520   18.0710   29.7350 S   0  0  0  0  0  0
   71.9080   17.6870   31.3860 C   0  0  0  0  0  0
   68.0490   20.9860   27.4570 N   0  0  0  0  0  0
   66.8740   21.6140   26.8590 C   0  0  2  0  0  0
   66.4090   20.9400   25.5620 C   0  0  0  0  0  0
   66.1990   21.6040   24.5490 O   0  0  0  0  0  0
   67.1520   23.1030   26.6110 C   0  0  0  0  0  0
   67.3870   23.8910   27.8920 C   0  0  0  0  0  0
   66.1180   24.0770   28.7130 C   0  0  0  0  0  0
   65.2460   24.8600   28.2750 O   0  0  0  0  0  0
   65.9900   23.4420   29.7870 O   0  5  0  0  0  0
   66.2680   19.6170   25.6170 N   0  0  0  0  0  0
   65.7950   18.7900   24.5040 C   0  0  2  0  0  0
   65.5340   17.3950   25.0780 C   0  0  0  0  0  0
   66.4370   16.7510   25.6070 O   0  0  0  0  0  0
   66.8250   18.7310   23.3660 C   0  0  0  0  0  0
   68.1770   18.1070   23.7070 C   0  0  0  0  0  0
   69.1380   18.1060   22.5110 C   0  0  0  0  0  0
   69.3930   19.1930   21.9390 O   0  5  0  0  0  0
   69.6380   17.0200   22.1450 O   0  0  0  0  0  0
   64.2930   16.9300   24.9820 N   0  0  0  0  0  0
   63.9370   15.6360   25.5560 C   0  0  2  0  0  0
   64.0100   14.4150   24.6490 C   0  0  0  0  0  0
   63.8150   14.5120   23.4410 O   0  0  0  0  0  0
   62.5350   15.6930   26.1810 C   0  0  0  0  0  0
   62.5600   16.5840   27.4150 C   0  0  0  0  0  0
   61.5340   16.2110   25.1600 C   0  0  0  0  0  0
   64.2660   13.2650   25.2750 N   0  0  0  0  0  0
   64.4140   11.9680   24.6090 C   0  0  2  0  0  0
   63.3420   10.9330   24.9690 C   0  0  0  0  0  0
   62.3200   11.3180   25.5660 O   0  0  0  0  0  0
   65.7940   11.3940   24.9440 C   0  0  0  0  0  0
   66.3170   11.8850   26.2890 C   0  0  0  0  0  0
   66.5890   13.0990   26.4110 O   0  0  0  0  0  0
   66.4550   11.0650   27.2230 O   0  5  0  0  0  0
   63.5310    9.7390   24.6470 O   0  5  0  0  0  0
   75.6618   13.3818   23.0069 H   0  0  0  0  0  0
   77.4175   13.2628   22.6464 H   0  0  0  0  0  0
   76.2416   13.5132   21.3118 H   0  0  0  0  0  0
   76.8412   15.3956   23.5821 H   0  0  0  0  0  0
   78.6640   15.2066   21.8605 H   0  0  0  0  0  0
   77.8758   16.8196   21.7999 H   0  0  0  0  0  0
   77.4695   15.5746   20.5704 H   0  0  0  0  0  0
   74.6980   15.6245   24.1629 H   0  0  0  0  0  0
   73.1831   17.2672   22.0613 H   0  0  0  0  0  0
   72.1276   15.0815   23.9488 H   0  0  0  0  0  0
   71.0406   16.2759   23.1622 H   0  0  0  0  0  0
   71.2029   14.1684   21.7890 H   0  0  0  0  0  0
   73.6859   19.3273   22.8911 H   0  0  0  0  0  0
   73.9843   20.0182   25.6421 H   0  0  0  0  0  0
   72.2945   21.7762   23.8108 H   0  0  0  0  0  0
   73.4487   22.2665   25.0969 H   0  0  0  0  0  0
   74.0791   21.1700   22.3537 H   0  0  0  0  0  0
   74.3727   22.8206   22.9988 H   0  0  0  0  0  0
   76.0881   22.0598   24.4457 H   0  0  0  0  0  0
   75.6300   20.3383   24.2152 H   0  0  0  0  0  0
   76.4341   21.7675   21.6746 H   0  0  0  0  0  0
   77.4393   19.8462   24.5983 H   0  0  0  0  0  0
   78.2600   21.0307   20.6495 H   0  0  0  0  0  0
   79.4491   19.8517   21.5583 H   0  0  0  0  0  0
   72.4356   20.6785   27.3294 H   0  0  0  0  0  0
   70.1504   18.9484   27.3689 H   0  0  0  0  0  0
   70.5776   21.6120   28.8829 H   0  0  0  0  0  0
   69.4542   20.3084   29.3978 H   0  0  0  0  0  0
   72.4932   20.0941   29.1891 H   0  0  0  0  0  0
   71.5292   20.2473   30.6971 H   0  0  0  0  0  0
   71.8454   16.6012   31.5507 H   0  0  0  0  0  0
   71.2711   18.2061   32.1174 H   0  0  0  0  0  0
   72.9503   18.0169   31.5079 H   0  0  0  0  0  0
   68.0646   20.7614   28.5337 H   0  0  0  0  0  0
   66.0872   21.4651   27.6132 H   0  0  0  0  0  0
   68.0512   23.2090   25.9863 H   0  0  0  0  0  0
   66.2920   23.5557   26.0957 H   0  0  0  0  0  0
   68.1181   23.3606   28.5199 H   0  0  0  0  0  0
   67.7744   24.8898   27.6423 H   0  0  0  0  0  0
   66.5333   19.1486   26.5763 H   0  0  0  0  0  0
   64.8816   19.2511   24.1002 H   0  0  0  0  0  0
   66.4190   18.1362   22.5345 H   0  0  0  0  0  0
   67.0428   19.7506   23.0154 H   0  0  0  0  0  0
   68.6486   18.6763   24.5216 H   0  0  0  0  0  0
   68.0298   17.0645   24.0257 H   0  0  0  0  0  0
   63.5307   17.5303   24.4638 H   0  0  0  0  0  0
   64.7588   15.5262   26.2789 H   0  0  0  0  0  0
   62.2176   14.6855   26.4880 H   0  0  0  0  0  0
   63.2899   16.1896   28.1373 H   0  0  0  0  0  0
   61.5611   16.6009   27.8753 H   0  0  0  0  0  0
   62.8470   17.6053   27.1241 H   0  0  0  0  0  0
   61.5342   15.5519   24.2793 H   0  0  0  0  0  0
   61.8149   17.2300   24.8555 H   0  0  0  0  0  0
   60.5289   16.2257   25.6067 H   0  0  0  0  0  0
   64.3662   13.3366   26.3681 H   0  0  0  0  0  0
   64.2888   12.2122   23.5438 H   0  0  0  0  0  0
   65.7349   10.2963   24.9829 H   0  0  0  0  0  0
   66.5144   11.6952   24.1692 H   0  0  0  0  0  0
   79.0005   19.2053   23.7142 H   0  0  0  0  0  0
  1  2  1  0  0  0
  1 65  1  0  0  0
  1 66  1  0  0  0
  1 67  1  0  0  0
  2  3  1  0  0  0
  2  5  1  0  0  0
  2 68  1  0  0  0
  3  4  2  0  0  0
  3  6  1  0  0  0
  5 69  1  0  0  0
  5 70  1  0  0  0
  5 71  1  0  0  0
  6  7  1  0  0  0
  6 72  1  0  0  0
  7  8  1  0  0  0
  7 10  1  0  0  0
  7 73  1  0  0  0
  8  9  2  0  0  0
  8 12  1  0  0  0
 10 11  1  0  0  0
 10 74  1  0  0  0
 10 75  1  0  0  0
 11 76  1  0  0  0
 12 13  1  0  0  0
 12 77  1  0  0  0
 13 14  1  0  0  0
 13 16  1  0  0  0
 13 78  1  0  0  0
 14 15  2  0  0  0
 14 23  1  0  0  0
 16 17  1  0  0  0
 16 79  1  0  0  0
 16 80  1  0  0  0
 17 18  1  0  0  0
 17 81  1  0  0  0
 17 82  1  0  0  0
 18 19  1  0  0  0
 18 83  1  0  0  0
 18 84  1  0  0  0
 19 20  1  0  0  0
 19 85  1  0  0  0
 20 21  2  0  0  0
 20 22  1  0  0  0
 21 86  1  0  0  0
 21123  1  0  0  0
 22 87  1  0  0  0
 22 88  1  0  0  0
 23 24  1  0  0  0
 23 89  1  0  0  0
 24 25  1  0  0  0
 24 27  1  0  0  0
 24 90  1  0  0  0
 25 26  2  0  0  0
 25 31  1  0  0  0
 27 28  1  0  0  0
 27 91  1  0  0  0
 27 92  1  0  0  0
 28 29  1  0  0  0
 28 93  1  0  0  0
 28 94  1  0  0  0
 29 30  1  0  0  0
 30 95  1  0  0  0
 30 96  1  0  0  0
 30 97  1  0  0  0
 31 32  1  0  0  0
 31 98  1  0  0  0
 32 33  1  0  0  0
 32 35  1  0  0  0
 32 99  1  0  0  0
 33 34  2  0  0  0
 33 40  1  0  0  0
 35 36  1  0  0  0
 35100  1  0  0  0
 35101  1  0  0  0
 36 37  1  0  0  0
 36102  1  0  0  0
 36103  1  0  0  0
 37 38  2  0  0  0
 37 39  1  0  0  0
 40 41  1  0  0  0
 40104  1  0  0  0
 41 42  1  0  0  0
 41 44  1  0  0  0
 41105  1  0  0  0
 42 43  2  0  0  0
 42 49  1  0  0  0
 44 45  1  0  0  0
 44106  1  0  0  0
 44107  1  0  0  0
 45 46  1  0  0  0
 45108  1  0  0  0
 45109  1  0  0  0
 46 47  1  0  0  0
 46 48  2  0  0  0
 49 50  1  0  0  0
 49110  1  0  0  0
 50 51  1  0  0  0
 50 53  1  0  0  0
 50111  1  0  0  0
 51 52  2  0  0  0
 51 56  1  0  0  0
 53 54  1  0  0  0
 53 55  1  0  0  0
 53112  1  0  0  0
 54113  1  0  0  0
 54114  1  0  0  0
 54115  1  0  0  0
 55116  1  0  0  0
 55117  1  0  0  0
 55118  1  0  0  0
 56 57  1  0  0  0
 56119  1  0  0  0
 57 58  1  0  0  0
 57 60  1  0  0  0
 57120  1  0  0  0
 58 59  2  0  0  0
 58 64  1  0  0  0
 60 61  1  0  0  0
 60121  1  0  0  0
 60122  1  0  0  0
 61 62  2  0  0  0
 61 63  1  0  0  0
M  CHG  6   1   1  21   1  39  -1  47  -1  63  -1  64  -1
M  END
> <s_m_source_file>
../4i2z_ligand.sdf

> <i_m_source_file_index>
1

> <s_epik_input>
W05IMytdW0NAQEhdKFtDSDNdKUMoPU8pW05IXVtDQEBIXShbQ0gyXVtPSF0pQyg9TylbTkhdW0NAQEhdKFtDSDJdW0NIMl1bQ0gyXVtOSF0vQyg9TlxbSF0pW05IMl0pQyg9TylbTkhdW0NAQEhdKFtDSDJdW0NIMl1TW0NIM10pQyg9TylbTkhdW0NAQEhdKFtDSDJdW0NIMl1DKD1PKVtPSF0pQyg9TylbTkhdW0NAQEhdKFtDSDJdW0NIMl1DKD1PKVtPSF0pQyg9TylbTkhdW0NAQEhdKFtDSF0oW0NIM10pW0NIM10pQyg9TylbTkhdW0NASF0oQyg9TylbT0hdKVtDSDJdQyg9TylbT0hd

> <s_epik_cmdline>
J2VwaWtfYXBwJywgJy1pbWFlJywgJ2xpZ2FuZF9wcm8ubWFlJywgJy1vbWFlJywgJ2xpZ2FuZF9wcmVwLm1hZScsICctbXMnLCAnMScsICctcGgnLCAnNycsICctcGh0JywgJzAuNScsICctbnQn

> <r_epik_Ionization_Penalty>
  0.1396

> <r_epik_Ionization_Penalty_Charging>
  0.1396

> <r_epik_Ionization_Penalty_Neutral>
  0.0000

> <r_epik_State_Penalty>
  0.1240

> <r_epik_Charging_Adjusted_Penalty>
0.263615689344358

> <i_epik_Tot_Q>
-2

> <i_epik_Tot_abs_Q>
6

> <s_epik_Chemistry_Notes>
This compound has an imine and may undergo hydrolysis.

$$$$
