4i31_ligand
                    3D
 Schrodinger Suite 2020-3.
194193  0  0  1  0            999 V2000
   75.7520   -3.7600   14.7350 N   0  3  0  0  0  0
   76.0760   -4.0660   16.1180 C   0  0  0  0  0  0
   76.9160   -2.9760   16.7530 C   0  0  0  0  0  0
   77.2010   -3.0060   17.9540 O   0  0  0  0  0  0
   77.3270   -2.0110   15.9400 N   0  0  0  0  0  0
   78.1020   -0.8900   16.4380 C   0  0  0  0  0  0
   77.2110    0.1600   17.0750 C   0  0  0  0  0  0
   75.9840    0.0900   16.9590 O   0  0  0  0  0  0
   77.8300    1.1200   17.7580 N   0  0  0  0  0  0
   77.1160    2.2470   18.3360 C   0  0  2  0  0  0
   76.6920    3.2110   17.2440 C   0  0  0  0  0  0
   77.2790    3.2400   16.1630 O   0  0  0  0  0  0
   77.9990    3.0110   19.3300 C   0  0  0  0  0  0
   78.2890    2.2460   20.4840 O   0  0  0  0  0  0
   75.6620    3.9970   17.5320 N   0  0  0  0  0  0
   75.3410    5.1400   16.6880 C   0  0  2  0  0  0
   76.3990    6.2030   16.9780 C   0  0  0  0  0  0
   76.8460    6.3460   18.1240 O   0  0  0  0  0  0
   73.9540    5.7050   17.0140 C   0  0  0  0  0  0
   73.6690    6.9660   16.1640 C   0  0  0  0  0  0
   72.8960    4.6250   16.7980 C   0  0  0  0  0  0
   76.7850    6.9490   15.9500 N   0  0  0  0  0  0
   77.8870    7.9010   16.0850 C   0  0  2  0  0  0
   77.4820    9.3070   15.6300 C   0  0  0  0  0  0
   76.9260    9.4700   14.5520 O   0  0  0  0  0  0
   79.0920    7.4760   15.2200 C   0  0  0  0  0  0
   80.2730    8.4040   15.4850 C   0  0  0  0  0  0
   79.4800    6.0100   15.4780 C   0  0  0  0  0  0
   77.7920   10.3190   16.4270 N   0  0  0  0  0  0
   77.5670   11.6850   15.9830 C   0  0  2  0  0  0
   78.6740   12.0610   15.0080 C   0  0  0  0  0  0
   79.8690   12.0700   15.3660 O   0  0  0  0  0  0
   77.6480   12.6440   17.1640 C   0  0  2  0  0  0
   76.5320   12.3420   18.1660 C   0  0  0  0  0  0
   77.6180   14.1020   16.6690 C   0  0  0  0  0  0
   76.6210   13.1630   19.4360 C   0  0  0  0  0  0
   78.2860   12.3090   13.7600 N   0  0  0  0  0  0
   79.2230   12.7170   12.7170 C   0  0  2  0  0  0
   79.2070   14.2150   12.3330 C   0  0  0  0  0  0
   79.9610   14.6480   11.4690 O   0  0  0  0  0  0
   79.0870   11.8350   11.4800 C   0  0  0  0  0  0
   79.2320   10.3650   11.8970 C   0  0  0  0  0  0
   77.7780   12.0870   10.7450 C   0  0  0  0  0  0
   78.3190   14.9800   12.9540 N   0  0  0  0  0  0
   78.1440   16.3810   12.6140 C   0  0  0  0  0  0
   77.0810   16.9920   13.5000 C   0  0  0  0  0  0
   76.4780   16.3090   14.3260 O   0  0  0  0  0  0
   76.8670   18.2940   13.3580 N   0  0  0  0  0  0
   75.8100   18.9430   14.0920 C   0  0  2  0  0  0
   75.2460   20.1040   13.3070 C   0  0  0  0  0  0
   75.8570   20.5980   12.3630 O   0  0  0  0  0  0
   76.2630   19.4210   15.4800 C   0  0  0  0  0  0
   77.2360   20.5720   15.4770 C   0  0  0  0  0  0
   78.6220   20.0590   15.2570 C   0  0  0  0  0  0
   79.6180   21.0620   15.5890 N   0  0  0  0  0  0
   80.4650   20.9850   16.6120 C   0  0  0  0  0  0
   80.4560   19.9420   17.4370 N   0  0  0  0  0  0
   81.3240   21.9650   16.8050 N   0  0  0  0  0  0
   74.0650   20.5300   13.7120 N   0  0  0  0  0  0
   73.3900   21.6480   13.0760 C   0  0  2  0  0  0
   73.1260   22.6750   14.1640 C   0  0  0  0  0  0
   72.6340   22.3320   15.2420 O   0  0  0  0  0  0
   72.0920   21.1820   12.3800 C   0  0  2  0  0  0
   72.4360   20.4070   11.1030 C   0  0  0  0  0  0
   71.1570   22.3700   12.0850 C   0  0  0  0  0  0
   71.2690   19.6160   10.5570 C   0  0  0  0  0  0
   73.5230   23.9150   13.8990 N   0  0  0  0  0  0
   73.3990   25.0070   14.8570 C   0  0  2  0  0  0
   72.2690   25.9230   14.4040 C   0  0  0  0  0  0
   72.2870   26.4060   13.2670 O   0  0  0  0  0  0
   74.6660   25.8710   14.8750 C   0  0  2  0  0  0
   75.9170   25.0260   15.1500 C   0  0  0  0  0  0
   74.5220   27.0200   15.8880 C   0  0  0  0  0  0
   75.9930   24.5030   16.5440 C   0  0  0  0  0  0
   71.3100   26.1660   15.2920 N   0  0  0  0  0  0
   70.1240   26.9660   14.9720 C   0  0  2  0  0  0
   70.2610   28.4030   15.4640 C   0  0  0  0  0  0
   70.8030   28.6380   16.5450 O   0  0  0  0  0  0
   68.8830   26.3500   15.6080 C   0  0  0  0  0  0
   68.5490   24.9220   15.2080 C   0  0  0  0  0  0
   67.2240   24.4980   15.8240 C   0  0  0  0  0  0
   68.5100   24.7970   13.7030 C   0  0  0  0  0  0
   69.7800   29.3590   14.6680 N   0  0  0  0  0  0
   69.7930   30.7670   15.0670 C   0  0  2  0  0  0
   68.3870   31.3510   15.0080 C   0  0  0  0  0  0
   67.9419   32.0646   15.9462 O   0  0  0  0  0  0
   70.7320   31.5790   14.1760 C   0  0  0  0  0  0
   70.8530   32.9070   14.6500 O   0  0  0  0  0  0
   67.6590   31.1170   14.0066 O   0  0  0  0  0  0
   75.1436   -4.5732   14.3124 H   0  0  0  0  0  0
   76.6809   -3.6574   14.1549 H   0  0  0  0  0  0
   75.1862   -2.8177   14.6908 H   0  0  0  0  0  0
   75.1471   -4.1686   16.6981 H   0  0  0  0  0  0
   76.6418   -5.0083   16.1622 H   0  0  0  0  0  0
   77.0706   -2.0712   14.8720 H   0  0  0  0  0  0
   78.8173   -1.2459   17.1941 H   0  0  0  0  0  0
   78.6498   -0.4243   15.6055 H   0  0  0  0  0  0
   78.9204    1.0396   17.8783 H   0  0  0  0  0  0
   76.2449    1.8007   18.8380 H   0  0  0  0  0  0
   78.9512    3.2751   18.8468 H   0  0  0  0  0  0
   77.4829    3.9285   19.6489 H   0  0  0  0  0  0
   78.9145    2.6711   21.2828 H   0  0  0  0  0  0
   75.0482    3.7781   18.4182 H   0  0  0  0  0  0
   75.3467    4.7932   15.6441 H   0  0  0  0  0  0
   73.9205    5.9974   18.0739 H   0  0  0  0  0  0
   74.4515    7.7169   16.3482 H   0  0  0  0  0  0
   72.6892    7.3817   16.4418 H   0  0  0  0  0  0
   73.6637    6.6959   15.0977 H   0  0  0  0  0  0
   73.1348    3.7485   17.4183 H   0  0  0  0  0  0
   72.8829    4.3314   15.7380 H   0  0  0  0  0  0
   71.9084    5.0172   17.0821 H   0  0  0  0  0  0
   76.2639    6.8438   14.9870 H   0  0  0  0  0  0
   78.1105    7.8795   17.1618 H   0  0  0  0  0  0
   78.8138    7.5624   14.1593 H   0  0  0  0  0  0
   79.9717    9.4446   15.2941 H   0  0  0  0  0  0
   81.1067    8.1357   14.8194 H   0  0  0  0  0  0
   80.5923    8.3010   16.5326 H   0  0  0  0  0  0
   78.6139    5.3613   15.2806 H   0  0  0  0  0  0
   79.7946    5.8929   16.5255 H   0  0  0  0  0  0
   80.3090    5.7275   14.8124 H   0  0  0  0  0  0
   78.2187   10.1275   17.4226 H   0  0  0  0  0  0
   76.5679   11.7069   15.5234 H   0  0  0  0  0  0
   78.6027   12.4907   17.6884 H   0  0  0  0  0  0
   75.5568   12.5553   17.7040 H   0  0  0  0  0  0
   76.5764   11.2818   18.4558 H   0  0  0  0  0  0
   78.4383   14.2634   15.9541 H   0  0  0  0  0  0
   77.7384   14.7823   17.5249 H   0  0  0  0  0  0
   76.6559   14.3016   16.1744 H   0  0  0  0  0  0
   75.7909   12.8937   20.1056 H   0  0  0  0  0  0
   76.5585   14.2325   19.1863 H   0  0  0  0  0  0
   77.5782   12.9590   19.9382 H   0  0  0  0  0  0
   77.2171   12.1970   13.5259 H   0  0  0  0  0  0
   80.1811   12.5340   13.2255 H   0  0  0  0  0  0
   79.8838   12.0954   10.7677 H   0  0  0  0  0  0
   80.1878   10.2258   12.4233 H   0  0  0  0  0  0
   79.2098    9.7261   11.0019 H   0  0  0  0  0  0
   78.4023   10.0897   12.5647 H   0  0  0  0  0  0
   77.7135   13.1487   10.4646 H   0  0  0  0  0  0
   76.9336   11.8290   11.4011 H   0  0  0  0  0  0
   77.7411   11.4654    9.8383 H   0  0  0  0  0  0
   77.7059   14.5255   13.7462 H   0  0  0  0  0  0
   79.0938   16.9157   12.7624 H   0  0  0  0  0  0
   77.8352   16.4672   11.5617 H   0  0  0  0  0  0
   77.5017   18.8782   12.6755 H   0  0  0  0  0  0
   75.0535   18.1513   14.1968 H   0  0  0  0  0  0
   75.3875   19.7530   16.0572 H   0  0  0  0  0  0
   76.7587   18.5937   16.0090 H   0  0  0  0  0  0
   76.9737   21.2717   14.6698 H   0  0  0  0  0  0
   77.1896   21.0939   16.4442 H   0  0  0  0  0  0
   78.7912   19.1763   15.8912 H   0  0  0  0  0  0
   78.7465   19.7805   14.2002 H   0  0  0  0  0  0
   79.7119   21.9688   14.9734 H   0  0  0  0  0  0
   79.7402   19.1219   17.2789 H   0  0  0  0  0  0
   81.1644   19.8994   18.2775 H   0  0  0  0  0  0
   81.3343   22.8293   16.1246 H   0  0  0  0  0  0
   73.5915   20.0111   14.5585 H   0  0  0  0  0  0
   74.0548   22.0655   12.3055 H   0  0  0  0  0  0
   71.5475   20.5050   13.0547 H   0  0  0  0  0  0
   72.7557   21.1118   10.3213 H   0  0  0  0  0  0
   73.2503   19.6978   11.3126 H   0  0  0  0  0  0
   70.9324   22.9012   13.0217 H   0  0  0  0  0  0
   70.2217   21.9989   11.6405 H   0  0  0  0  0  0
   71.6492   23.0583   11.3821 H   0  0  0  0  0  0
   71.5803   19.0855    9.6450 H   0  0  0  0  0  0
   70.4416   20.3005   10.3187 H   0  0  0  0  0  0
   70.9361   18.8865   11.3100 H   0  0  0  0  0  0
   73.9609   24.1006   12.9071 H   0  0  0  0  0  0
   73.2168   24.5266   15.8296 H   0  0  0  0  0  0
   74.7920   26.3119   13.8751 H   0  0  0  0  0  0
   75.9293   24.1584   14.4739 H   0  0  0  0  0  0
   76.8163   25.6362   14.9799 H   0  0  0  0  0  0
   73.6164   27.6004   15.6578 H   0  0  0  0  0  0
   75.4032   27.6756   15.8265 H   0  0  0  0  0  0
   74.4435   26.6055   16.9039 H   0  0  0  0  0  0
   76.9120   23.9104   16.6637 H   0  0  0  0  0  0
   75.1181   23.8674   16.7454 H   0  0  0  0  0  0
   76.0050   25.3452   17.2514 H   0  0  0  0  0  0
   71.4313   25.7409   16.2993 H   0  0  0  0  0  0
   70.0618   26.9501   13.8739 H   0  0  0  0  0  0
   69.0008   26.3343   16.7016 H   0  0  0  0  0  0
   67.9994   26.9491   15.3430 H   0  0  0  0  0  0
   69.3360   24.2504   15.5816 H   0  0  0  0  0  0
   67.2794   24.5985   16.9180 H   0  0  0  0  0  0
   67.0166   23.4500   15.5621 H   0  0  0  0  0  0
   66.4181   25.1390   15.4373 H   0  0  0  0  0  0
   69.4780   25.1091   13.2840 H   0  0  0  0  0  0
   67.7125   25.4400   13.3022 H   0  0  0  0  0  0
   68.3111   23.7509   13.4270 H   0  0  0  0  0  0
   69.3666   29.0680   13.6910 H   0  0  0  0  0  0
   70.1617   30.7762   16.1033 H   0  0  0  0  0  0
   66.9244   32.4783   15.8874 H   0  0  0  0  0  0
   71.7281   31.1124   14.1717 H   0  0  0  0  0  0
   70.3344   31.6038   13.1507 H   0  0  0  0  0  0
   71.4954   33.6244   14.1183 H   0  0  0  0  0  0
  1  2  1  0  0  0
  1 90  1  0  0  0
  1 91  1  0  0  0
  1 92  1  0  0  0
  2  3  1  0  0  0
  2 93  1  0  0  0
  2 94  1  0  0  0
  3  4  2  0  0  0
  3  5  1  0  0  0
  5  6  1  0  0  0
  5 95  1  0  0  0
  6  7  1  0  0  0
  6 96  1  0  0  0
  6 97  1  0  0  0
  7  8  2  0  0  0
  7  9  1  0  0  0
  9 10  1  0  0  0
  9 98  1  0  0  0
 10 11  1  0  0  0
 10 13  1  0  0  0
 10 99  1  0  0  0
 11 12  2  0  0  0
 11 15  1  0  0  0
 13 14  1  0  0  0
 13100  1  0  0  0
 13101  1  0  0  0
 14102  1  0  0  0
 15 16  1  0  0  0
 15103  1  0  0  0
 16 17  1  0  0  0
 16 19  1  0  0  0
 16104  1  0  0  0
 17 18  2  0  0  0
 17 22  1  0  0  0
 19 20  1  0  0  0
 19 21  1  0  0  0
 19105  1  0  0  0
 20106  1  0  0  0
 20107  1  0  0  0
 20108  1  0  0  0
 21109  1  0  0  0
 21110  1  0  0  0
 21111  1  0  0  0
 22 23  1  0  0  0
 22112  1  0  0  0
 23 24  1  0  0  0
 23 26  1  0  0  0
 23113  1  0  0  0
 24 25  2  0  0  0
 24 29  1  0  0  0
 26 27  1  0  0  0
 26 28  1  0  0  0
 26114  1  0  0  0
 27115  1  0  0  0
 27116  1  0  0  0
 27117  1  0  0  0
 28118  1  0  0  0
 28119  1  0  0  0
 28120  1  0  0  0
 29 30  1  0  0  0
 29121  1  0  0  0
 30 31  1  0  0  0
 30 33  1  0  0  0
 30122  1  0  0  0
 31 32  2  0  0  0
 31 37  1  0  0  0
 33 34  1  0  0  0
 33 35  1  0  0  0
 33123  1  0  0  0
 34 36  1  0  0  0
 34124  1  0  0  0
 34125  1  0  0  0
 35126  1  0  0  0
 35127  1  0  0  0
 35128  1  0  0  0
 36129  1  0  0  0
 36130  1  0  0  0
 36131  1  0  0  0
 37 38  1  0  0  0
 37132  1  0  0  0
 38 39  1  0  0  0
 38 41  1  0  0  0
 38133  1  0  0  0
 39 40  2  0  0  0
 39 44  1  0  0  0
 41 42  1  0  0  0
 41 43  1  0  0  0
 41134  1  0  0  0
 42135  1  0  0  0
 42136  1  0  0  0
 42137  1  0  0  0
 43138  1  0  0  0
 43139  1  0  0  0
 43140  1  0  0  0
 44 45  1  0  0  0
 44141  1  0  0  0
 45 46  1  0  0  0
 45142  1  0  0  0
 45143  1  0  0  0
 46 47  2  0  0  0
 46 48  1  0  0  0
 48 49  1  0  0  0
 48144  1  0  0  0
 49 50  1  0  0  0
 49 52  1  0  0  0
 49145  1  0  0  0
 50 51  2  0  0  0
 50 59  1  0  0  0
 52 53  1  0  0  0
 52146  1  0  0  0
 52147  1  0  0  0
 53 54  1  0  0  0
 53148  1  0  0  0
 53149  1  0  0  0
 54 55  1  0  0  0
 54150  1  0  0  0
 54151  1  0  0  0
 55 56  1  0  0  0
 55152  1  0  0  0
 56 57  1  0  0  0
 56 58  2  0  0  0
 57153  1  0  0  0
 57154  1  0  0  0
 58155  1  0  0  0
 59 60  1  0  0  0
 59156  1  0  0  0
 60 61  1  0  0  0
 60 63  1  0  0  0
 60157  1  0  0  0
 61 62  2  0  0  0
 61 67  1  0  0  0
 63 64  1  0  0  0
 63 65  1  0  0  0
 63158  1  0  0  0
 64 66  1  0  0  0
 64159  1  0  0  0
 64160  1  0  0  0
 65161  1  0  0  0
 65162  1  0  0  0
 65163  1  0  0  0
 66164  1  0  0  0
 66165  1  0  0  0
 66166  1  0  0  0
 67 68  1  0  0  0
 67167  1  0  0  0
 68 69  1  0  0  0
 68 71  1  0  0  0
 68168  1  0  0  0
 69 70  2  0  0  0
 69 75  1  0  0  0
 71 72  1  0  0  0
 71 73  1  0  0  0
 71169  1  0  0  0
 72 74  1  0  0  0
 72170  1  0  0  0
 72171  1  0  0  0
 73172  1  0  0  0
 73173  1  0  0  0
 73174  1  0  0  0
 74175  1  0  0  0
 74176  1  0  0  0
 74177  1  0  0  0
 75 76  1  0  0  0
 75178  1  0  0  0
 76 77  1  0  0  0
 76 79  1  0  0  0
 76179  1  0  0  0
 77 78  2  0  0  0
 77 83  1  0  0  0
 79 80  1  0  0  0
 79180  1  0  0  0
 79181  1  0  0  0
 80 81  1  0  0  0
 80 82  1  0  0  0
 80182  1  0  0  0
 81183  1  0  0  0
 81184  1  0  0  0
 81185  1  0  0  0
 82186  1  0  0  0
 82187  1  0  0  0
 82188  1  0  0  0
 83 84  1  0  0  0
 83189  1  0  0  0
 84 85  1  0  0  0
 84 87  1  0  0  0
 84190  1  0  0  0
 85 86  1  0  0  0
 85 89  2  0  0  0
 86191  1  0  0  0
 87 88  1  0  0  0
 87192  1  0  0  0
 87193  1  0  0  0
 88194  1  0  0  0
M  CHG  1   1   1
M  END
> <s_m_source_file>
../4i31_ligand.sdf

> <i_m_source_file_index>
1

> <s_epik_input>
W05IMytdW0NIMl1DKD1PKVtOSF1bQ0gyXUMoPU8pW05IXVtDQEBIXShbQ0gyXVtPSF0pQyg9TylbTkhdW0NAQEhdKFtDSF0oW0NIM10pW0NIM10pQyg9TylbTkhdW0NAQEhdKFtDSF0oW0NIM10pW0NIM10pQyg9TylbTkhdW0NAQEhdKFtDQEBIXShbQ0gzXSlbQ0gyXVtDSDNdKUMoPU8pW05IXVtDQEBIXShbQ0hdKFtDSDNdKVtDSDNdKUMoPU8pW05IXVtDSDJdQyg9TylbTkhdW0NAQEhdKFtDSDJdW0NIMl1bQ0gyXVtOSF0vQyhbTkgyXSk9TlxbSF0pQyg9TylbTkhdW0NAQEhdKFtDQEBIXShbQ0gzXSlbQ0gyXVtDSDNdKUMoPU8pW05IXVtDQEBIXShbQ0BASF0oW0NIM10pW0NIMl1bQ0gzXSlDKD1PKVtOSF1bQ0BASF0oW0NIMl1bQ0hdKFtDSDNdKVtDSDNdKUMoPU8pW05IXVtDQEhdKEMoPU8pW09IXSlbQ0gyXVtPSF0=

> <s_epik_cmdline>
J2VwaWtfYXBwJywgJy1pbWFlJywgJ2xpZ2FuZF9wcm8ubWFlJywgJy1vbWFlJywgJ2xpZ2FuZF9wcmVwLm1hZScsICctbXMnLCAnMScsICctcGgnLCAnNycsICctcGh0JywgJzAuNScsICctbnQn

> <s_epik_pKa_notes>
Molecule size exceeds maximum supported for generating protonation states

> <s_epik_Chemistry_Notes>
This compound has an imine and may undergo hydrolysis.

$$$$
