4i32_ligand
                    3D
 Schrodinger Suite 2020-3.
194193  0  0  1  0            999 V2000
   76.3360   -3.7770   13.9460 N   0  3  0  0  0  0
   75.5140   -3.7460   15.1440 C   0  0  0  0  0  0
   76.1680   -3.0380   16.3210 C   0  0  0  0  0  0
   76.1190   -3.5240   17.4540 O   0  0  0  0  0  0
   76.7770   -1.8850   16.0600 N   0  0  0  0  0  0
   77.4020   -1.0930   17.1100 C   0  0  0  0  0  0
   76.5370    0.0240   17.6940 C   0  0  0  0  0  0
   75.3170   -0.1040   17.7940 O   0  0  0  0  0  0
   77.1880    1.1080   18.1140 N   0  0  0  0  0  0
   76.5060    2.2740   18.6550 C   0  0  2  0  0  0
   76.1120    3.2310   17.5420 C   0  0  0  0  0  0
   76.8190    3.3610   16.5430 O   0  0  0  0  0  0
   77.4100    3.0360   19.6290 C   0  0  0  0  0  0
   77.6540    2.3300   20.8260 O   0  0  0  0  0  0
   74.9740    3.8940   17.7110 N   0  0  0  0  0  0
   74.7140    5.1180   16.9630 C   0  0  2  0  0  0
   75.7870    6.1550   17.3150 C   0  0  0  0  0  0
   76.1910    6.2730   18.4780 O   0  0  0  0  0  0
   73.3510    5.7100   17.2990 C   0  0  0  0  0  0
   73.1110    6.9850   16.4730 C   0  0  0  0  0  0
   72.2610    4.6790   17.0560 C   0  0  0  0  0  0
   76.2440    6.8930   16.3060 N   0  0  0  0  0  0
   77.3360    7.8460   16.4630 C   0  0  2  0  0  0
   76.8930    9.2270   15.9900 C   0  0  0  0  0  0
   76.2560    9.3460   14.9330 O   0  0  0  0  0  0
   78.5560    7.4270   15.6200 C   0  0  0  0  0  0
   79.6400    8.4820   15.7020 C   0  0  0  0  0  0
   79.0920    6.0690   16.0730 C   0  0  0  0  0  0
   77.2160   10.2620   16.7650 N   0  0  0  0  0  0
   76.9880   11.6320   16.3210 C   0  0  2  0  0  0
   78.1240   12.0280   15.3880 C   0  0  0  0  0  0
   79.2840   12.0990   15.8050 O   0  0  0  0  0  0
   76.9570   12.5980   17.5150 C   0  0  2  0  0  0
   75.7390   12.3040   18.3980 C   0  0  0  0  0  0
   76.9110   14.0360   17.0400 C   0  0  0  0  0  0
   75.8250   12.9020   19.7630 C   0  0  0  0  0  0
   77.7790   12.2440   14.1190 N   0  0  0  0  0  0
   78.7280   12.6190   13.0820 C   0  0  2  0  0  0
   78.6960   14.0990   12.6730 C   0  0  0  0  0  0
   79.4620   14.5300   11.8020 O   0  0  0  0  0  0
   78.5860   11.7210   11.8480 C   0  0  0  0  0  0
   78.6540   10.2860   12.2600 C   0  0  0  0  0  0
   77.3060   12.0070   11.1140 C   0  0  0  0  0  0
   77.7930   14.8660   13.2790 N   0  0  0  0  0  0
   77.6190   16.2640   12.9250 C   0  0  0  0  0  0
   76.5250   16.8440   13.7950 C   0  0  0  0  0  0
   75.9110   16.1270   14.5870 O   0  0  0  0  0  0
   76.2920   18.1430   13.6780 N   0  0  0  0  0  0
   75.1440   18.7530   14.3390 C   0  0  2  0  0  0
   74.5770   19.9010   13.5260 C   0  0  0  0  0  0
   75.1280   20.2940   12.4970 O   0  0  0  0  0  0
   75.5010   19.2510   15.7480 C   0  0  0  0  0  0
   76.4380   20.4410   15.7700 C   0  0  0  0  0  0
   77.8790   20.0010   15.5800 C   0  0  0  0  0  0
   78.8160   21.0560   15.9440 N   0  0  0  0  0  0
   79.6300   21.0280   16.9940 C   0  0  0  0  0  0
   79.6490   19.9930   17.8200 N   0  0  0  0  0  0
   80.4360   22.0520   17.2090 N   0  0  0  0  0  0
   73.4810   20.4590   14.0170 N   0  0  0  0  0  0
   72.8240   21.5640   13.3380 C   0  0  2  0  0  0
   72.4350   22.6220   14.3570 C   0  0  0  0  0  0
   71.8220   22.3230   15.3860 O   0  0  0  0  0  0
   71.5960   21.0800   12.5530 C   0  0  2  0  0  0
   72.0410   20.3010   11.3160 C   0  0  0  0  0  0
   70.6930   22.2580   12.1780 C   0  0  0  0  0  0
   70.8950   19.6430   10.5930 C   0  0  0  0  0  0
   72.8170   23.8560   14.0650 N   0  0  0  0  0  0
   72.6580   24.9660   14.9890 C   0  0  2  0  0  0
   71.5240   25.8760   14.5260 C   0  0  0  0  0  0
   71.5210   26.3940   13.3910 O   0  0  0  0  0  0
   73.9630   25.7970   15.0760 C   0  0  2  0  0  0
   75.1850   24.8870   15.2610 C   0  0  0  0  0  0
   73.8610   26.8700   16.1580 C   0  0  0  0  0  0
   75.4150   24.4560   16.6790 C   0  0  0  0  0  0
   70.5570   26.0720   15.4140 N   0  0  0  0  0  0
   69.3750   26.8660   15.0910 C   0  0  2  0  0  0
   69.5300   28.3090   15.5210 C   0  0  0  0  0  0
   70.1310   28.5920   16.5480 O   0  0  0  0  0  0
   68.1330   26.2710   15.7460 C   0  0  0  0  0  0
   67.8070   24.8660   15.2600 C   0  0  0  0  0  0
   66.5520   24.3550   15.9500 C   0  0  0  0  0  0
   67.6460   24.9040   13.7570 C   0  0  0  0  0  0
   68.9710   29.2130   14.7250 N   0  0  0  0  0  0
   68.9930   30.6330   15.0270 C   0  0  2  0  0  0
   67.6580   31.2680   14.6220 C   0  0  0  0  0  0
   67.0968   32.1383   15.3398 O   0  0  0  0  0  0
   70.1630   31.2880   14.2920 C   0  0  0  0  0  0
   70.0880   32.6940   14.3320 O   0  0  0  0  0  0
   67.1087   30.9111   13.5457 O   0  0  0  0  0  0
   75.7963   -4.3028   13.1446 H   0  0  0  0  0  0
   77.2775   -4.3037   14.1609 H   0  0  0  0  0  0
   76.5563   -2.7480   13.6258 H   0  0  0  0  0  0
   74.5725   -3.2193   14.9291 H   0  0  0  0  0  0
   75.2936   -4.7750   15.4642 H   0  0  0  0  0  0
   76.8008   -1.5335   15.0179 H   0  0  0  0  0  0
   77.6729   -1.7479   17.9512 H   0  0  0  0  0  0
   78.3078   -0.6099   16.7149 H   0  0  0  0  0  0
   78.2854    1.0983   18.0390 H   0  0  0  0  0  0
   75.6198    1.8629   19.1606 H   0  0  0  0  0  0
   78.3823    3.2291   19.1522 H   0  0  0  0  0  0
   76.9367    3.9922   19.8969 H   0  0  0  0  0  0
   78.2900    2.7735   21.6062 H   0  0  0  0  0  0
   74.2249    3.5138   18.4212 H   0  0  0  0  0  0
   74.7361    4.8195   15.9045 H   0  0  0  0  0  0
   73.3259    5.9744   18.3665 H   0  0  0  0  0  0
   73.9159    7.7078   16.6722 H   0  0  0  0  0  0
   72.1435    7.4269   16.7536 H   0  0  0  0  0  0
   73.1020    6.7321   15.4025 H   0  0  0  0  0  0
   72.4630    3.7824   17.6604 H   0  0  0  0  0  0
   72.2448    4.4068   15.9903 H   0  0  0  0  0  0
   71.2864    5.1016   17.3414 H   0  0  0  0  0  0
   75.7646    6.7626   15.3246 H   0  0  0  0  0  0
   77.5660    7.8394   17.5387 H   0  0  0  0  0  0
   78.2504    7.3384   14.5670 H   0  0  0  0  0  0
   79.2350    9.4502   15.3724 H   0  0  0  0  0  0
   80.4802    8.1957   15.0523 H   0  0  0  0  0  0
   79.9919    8.5662   16.7408 H   0  0  0  0  0  0
   78.2911    5.3179   16.0062 H   0  0  0  0  0  0
   79.4411    6.1412   17.1136 H   0  0  0  0  0  0
   79.9294    5.7707   15.4251 H   0  0  0  0  0  0
   77.6607   10.0708   17.7528 H   0  0  0  0  0  0
   76.0156   11.6378   15.8067 H   0  0  0  0  0  0
   77.8778   12.4651   18.1020 H   0  0  0  0  0  0
   74.8341   12.7087   17.9211 H   0  0  0  0  0  0
   75.6317   11.2166   18.5245 H   0  0  0  0  0  0
   77.7870   14.2413   16.4071 H   0  0  0  0  0  0
   76.9208   14.7098   17.9094 H   0  0  0  0  0  0
   75.9919   14.2009   16.4586 H   0  0  0  0  0  0
   74.9188   12.6478   20.3324 H   0  0  0  0  0  0
   75.9110   13.9955   19.6795 H   0  0  0  0  0  0
   76.7086   12.5033   20.2829 H   0  0  0  0  0  0
   76.7136   12.1250   13.8726 H   0  0  0  0  0  0
   79.6836   12.4429   13.5976 H   0  0  0  0  0  0
   79.4101   11.9143   11.1456 H   0  0  0  0  0  0
   79.5979   10.1022   12.7941 H   0  0  0  0  0  0
   78.6074    9.6455   11.3669 H   0  0  0  0  0  0
   77.8068   10.0541   12.9222 H   0  0  0  0  0  0
   77.2798   13.0672   10.8220 H   0  0  0  0  0  0
   76.4504   11.7858   11.7691 H   0  0  0  0  0  0
   77.2510   11.3772   10.2138 H   0  0  0  0  0  0
   77.1698   14.4162   14.0659 H   0  0  0  0  0  0
   78.5615   16.8052   13.0945 H   0  0  0  0  0  0
   77.3374   16.3414   11.8645 H   0  0  0  0  0  0
   76.9732   18.7624   13.0760 H   0  0  0  0  0  0
   74.4065   17.9385   14.3901 H   0  0  0  0  0  0
   74.5833   19.5545   16.2731 H   0  0  0  0  0  0
   75.9940   18.4430   16.3085 H   0  0  0  0  0  0
   76.1702   21.1335   14.9584 H   0  0  0  0  0  0
   76.3512   20.9582   16.7369 H   0  0  0  0  0  0
   78.0812   19.1243   16.2129 H   0  0  0  0  0  0
   78.0460   19.7379   14.5251 H   0  0  0  0  0  0
   78.8874   21.9647   15.3282 H   0  0  0  0  0  0
   78.9798   19.1376   17.6454 H   0  0  0  0  0  0
   80.3340   19.9887   18.6806 H   0  0  0  0  0  0
   80.4242   22.9141   16.5259 H   0  0  0  0  0  0
   73.0686   20.0692   14.9593 H   0  0  0  0  0  0
   73.5639   21.9732   12.6344 H   0  0  0  0  0  0
   71.0054   20.4027   13.1874 H   0  0  0  0  0  0
   72.5338   20.9851   10.6095 H   0  0  0  0  0  0
   72.7463   19.5113   11.6141 H   0  0  0  0  0  0
   70.3926   22.7946   13.0901 H   0  0  0  0  0  0
   69.7972   21.8833   11.6612 H   0  0  0  0  0  0
   71.2404   22.9425   11.5133 H   0  0  0  0  0  0
   71.2779   19.1004    9.7160 H   0  0  0  0  0  0
   70.1789   20.4110   10.2652 H   0  0  0  0  0  0
   70.3914   18.9371   11.2698 H   0  0  0  0  0  0
   73.2706   24.0235   13.0770 H   0  0  0  0  0  0
   72.4131   24.4977   15.9537 H   0  0  0  0  0  0
   74.1117   26.3339   14.1275 H   0  0  0  0  0  0
   75.0565   23.9741   14.6609 H   0  0  0  0  0  0
   76.0906   25.4177   14.9319 H   0  0  0  0  0  0
   72.9709   27.4903   15.9765 H   0  0  0  0  0  0
   74.7604   27.5028   16.1327 H   0  0  0  0  0  0
   73.7783   26.3896   17.1441 H   0  0  0  0  0  0
   76.3042   23.8102   16.7263 H   0  0  0  0  0  0
   74.5377   23.8990   17.0398 H   0  0  0  0  0  0
   75.5717   25.3427   17.3109 H   0  0  0  0  0  0
   70.6606   25.6208   16.4118 H   0  0  0  0  0  0
   69.3010   26.8239   13.9943 H   0  0  0  0  0  0
   68.2825   26.2174   16.8345 H   0  0  0  0  0  0
   67.2625   26.9065   15.5264 H   0  0  0  0  0  0
   68.6221   24.1690   15.5045 H   0  0  0  0  0  0
   66.7110   24.3432   17.0384 H   0  0  0  0  0  0
   66.3307   23.3357   15.6007 H   0  0  0  0  0  0
   65.7065   25.0165   15.7100 H   0  0  0  0  0  0
   68.5731   25.2782   13.2983 H   0  0  0  0  0  0
   66.8118   25.5711   13.4944 H   0  0  0  0  0  0
   67.4360   23.8903   13.3850 H   0  0  0  0  0  0
   68.4790   28.8530   13.8094 H   0  0  0  0  0  0
   69.1339   30.7310   16.1135 H   0  0  0  0  0  0
   66.1387   32.5771   15.0242 H   0  0  0  0  0  0
   71.1092   30.9802   14.7611 H   0  0  0  0  0  0
   70.1567   30.9728   13.2382 H   0  0  0  0  0  0
   70.8648   33.3003   13.8432 H   0  0  0  0  0  0
  1  2  1  0  0  0
  1 90  1  0  0  0
  1 91  1  0  0  0
  1 92  1  0  0  0
  2  3  1  0  0  0
  2 93  1  0  0  0
  2 94  1  0  0  0
  3  4  2  0  0  0
  3  5  1  0  0  0
  5  6  1  0  0  0
  5 95  1  0  0  0
  6  7  1  0  0  0
  6 96  1  0  0  0
  6 97  1  0  0  0
  7  8  2  0  0  0
  7  9  1  0  0  0
  9 10  1  0  0  0
  9 98  1  0  0  0
 10 11  1  0  0  0
 10 13  1  0  0  0
 10 99  1  0  0  0
 11 12  2  0  0  0
 11 15  1  0  0  0
 13 14  1  0  0  0
 13100  1  0  0  0
 13101  1  0  0  0
 14102  1  0  0  0
 15 16  1  0  0  0
 15103  1  0  0  0
 16 17  1  0  0  0
 16 19  1  0  0  0
 16104  1  0  0  0
 17 18  2  0  0  0
 17 22  1  0  0  0
 19 20  1  0  0  0
 19 21  1  0  0  0
 19105  1  0  0  0
 20106  1  0  0  0
 20107  1  0  0  0
 20108  1  0  0  0
 21109  1  0  0  0
 21110  1  0  0  0
 21111  1  0  0  0
 22 23  1  0  0  0
 22112  1  0  0  0
 23 24  1  0  0  0
 23 26  1  0  0  0
 23113  1  0  0  0
 24 25  2  0  0  0
 24 29  1  0  0  0
 26 27  1  0  0  0
 26 28  1  0  0  0
 26114  1  0  0  0
 27115  1  0  0  0
 27116  1  0  0  0
 27117  1  0  0  0
 28118  1  0  0  0
 28119  1  0  0  0
 28120  1  0  0  0
 29 30  1  0  0  0
 29121  1  0  0  0
 30 31  1  0  0  0
 30 33  1  0  0  0
 30122  1  0  0  0
 31 32  2  0  0  0
 31 37  1  0  0  0
 33 34  1  0  0  0
 33 35  1  0  0  0
 33123  1  0  0  0
 34 36  1  0  0  0
 34124  1  0  0  0
 34125  1  0  0  0
 35126  1  0  0  0
 35127  1  0  0  0
 35128  1  0  0  0
 36129  1  0  0  0
 36130  1  0  0  0
 36131  1  0  0  0
 37 38  1  0  0  0
 37132  1  0  0  0
 38 39  1  0  0  0
 38 41  1  0  0  0
 38133  1  0  0  0
 39 40  2  0  0  0
 39 44  1  0  0  0
 41 42  1  0  0  0
 41 43  1  0  0  0
 41134  1  0  0  0
 42135  1  0  0  0
 42136  1  0  0  0
 42137  1  0  0  0
 43138  1  0  0  0
 43139  1  0  0  0
 43140  1  0  0  0
 44 45  1  0  0  0
 44141  1  0  0  0
 45 46  1  0  0  0
 45142  1  0  0  0
 45143  1  0  0  0
 46 47  2  0  0  0
 46 48  1  0  0  0
 48 49  1  0  0  0
 48144  1  0  0  0
 49 50  1  0  0  0
 49 52  1  0  0  0
 49145  1  0  0  0
 50 51  2  0  0  0
 50 59  1  0  0  0
 52 53  1  0  0  0
 52146  1  0  0  0
 52147  1  0  0  0
 53 54  1  0  0  0
 53148  1  0  0  0
 53149  1  0  0  0
 54 55  1  0  0  0
 54150  1  0  0  0
 54151  1  0  0  0
 55 56  1  0  0  0
 55152  1  0  0  0
 56 57  1  0  0  0
 56 58  2  0  0  0
 57153  1  0  0  0
 57154  1  0  0  0
 58155  1  0  0  0
 59 60  1  0  0  0
 59156  1  0  0  0
 60 61  1  0  0  0
 60 63  1  0  0  0
 60157  1  0  0  0
 61 62  2  0  0  0
 61 67  1  0  0  0
 63 64  1  0  0  0
 63 65  1  0  0  0
 63158  1  0  0  0
 64 66  1  0  0  0
 64159  1  0  0  0
 64160  1  0  0  0
 65161  1  0  0  0
 65162  1  0  0  0
 65163  1  0  0  0
 66164  1  0  0  0
 66165  1  0  0  0
 66166  1  0  0  0
 67 68  1  0  0  0
 67167  1  0  0  0
 68 69  1  0  0  0
 68 71  1  0  0  0
 68168  1  0  0  0
 69 70  2  0  0  0
 69 75  1  0  0  0
 71 72  1  0  0  0
 71 73  1  0  0  0
 71169  1  0  0  0
 72 74  1  0  0  0
 72170  1  0  0  0
 72171  1  0  0  0
 73172  1  0  0  0
 73173  1  0  0  0
 73174  1  0  0  0
 74175  1  0  0  0
 74176  1  0  0  0
 74177  1  0  0  0
 75 76  1  0  0  0
 75178  1  0  0  0
 76 77  1  0  0  0
 76 79  1  0  0  0
 76179  1  0  0  0
 77 78  2  0  0  0
 77 83  1  0  0  0
 79 80  1  0  0  0
 79180  1  0  0  0
 79181  1  0  0  0
 80 81  1  0  0  0
 80 82  1  0  0  0
 80182  1  0  0  0
 81183  1  0  0  0
 81184  1  0  0  0
 81185  1  0  0  0
 82186  1  0  0  0
 82187  1  0  0  0
 82188  1  0  0  0
 83 84  1  0  0  0
 83189  1  0  0  0
 84 85  1  0  0  0
 84 87  1  0  0  0
 84190  1  0  0  0
 85 86  1  0  0  0
 85 89  2  0  0  0
 86191  1  0  0  0
 87 88  1  0  0  0
 87192  1  0  0  0
 87193  1  0  0  0
 88194  1  0  0  0
M  CHG  1   1   1
M  END
> <s_m_source_file>
../4i32_ligand.sdf

> <i_m_source_file_index>
1

> <s_epik_input>
W05IMytdW0NIMl1DKD1PKVtOSF1bQ0gyXUMoPU8pW05IXVtDQEBIXShbQ0gyXVtPSF0pQyg9TylbTkhdW0NAQEhdKFtDSF0oW0NIM10pW0NIM10pQyg9TylbTkhdW0NAQEhdKFtDSF0oW0NIM10pW0NIM10pQyg9TylbTkhdW0NAQEhdKFtDQEBIXShbQ0gzXSlbQ0gyXVtDSDNdKUMoPU8pW05IXVtDQEBIXShbQ0hdKFtDSDNdKVtDSDNdKUMoPU8pW05IXVtDSDJdQyg9TylbTkhdW0NAQEhdKFtDSDJdW0NIMl1bQ0gyXVtOSF0vQyhbTkgyXSk9TlxbSF0pQyg9TylbTkhdW0NAQEhdKFtDQEBIXShbQ0gzXSlbQ0gyXVtDSDNdKUMoPU8pW05IXVtDQEBIXShbQ0BASF0oW0NIM10pW0NIMl1bQ0gzXSlDKD1PKVtOSF1bQ0BASF0oW0NIMl1bQ0hdKFtDSDNdKVtDSDNdKUMoPU8pW05IXVtDQEhdKEMoPU8pW09IXSlbQ0gyXVtPSF0=

> <s_epik_cmdline>
J2VwaWtfYXBwJywgJy1pbWFlJywgJ2xpZ2FuZF9wcm8ubWFlJywgJy1vbWFlJywgJ2xpZ2FuZF9wcmVwLm1hZScsICctbXMnLCAnMScsICctcGgnLCAnNycsICctcGh0JywgJzAuNScsICctbnQn

> <s_epik_pKa_notes>
Molecule size exceeds maximum supported for generating protonation states

> <s_epik_Chemistry_Notes>
This compound has an imine and may undergo hydrolysis.

$$$$
