4i33_ligand
                    3D
 Schrodinger Suite 2020-3.
194193  0  0  1  0            999 V2000
   75.6140   -3.8690   15.0640 N   0  3  0  0  0  0
   75.3860   -4.1000   16.4800 C   0  0  0  0  0  0
   76.1470   -3.1100   17.3470 C   0  0  0  0  0  0
   76.3010   -3.3000   18.5550 O   0  0  0  0  0  0
   76.6410   -2.0490   16.7240 N   0  0  0  0  0  0
   77.3710   -1.0390   17.4560 C   0  0  0  0  0  0
   76.4490    0.0220   18.0290 C   0  0  0  0  0  0
   75.2230   -0.1110   18.0040 O   0  0  0  0  0  0
   77.0510    1.0630   18.5840 N   0  0  0  0  0  0
   76.3120    2.1950   19.0860 C   0  0  2  0  0  0
   75.9550    3.1420   17.9540 C   0  0  0  0  0  0
   76.6280    3.1900   16.9230 O   0  0  0  0  0  0
   77.1390    2.9350   20.1380 C   0  0  0  0  0  0
   77.5050    2.0540   21.1850 O   0  0  0  0  0  0
   74.8860    3.9000   18.1600 N   0  0  0  0  0  0
   74.6140    5.0610   17.3310 C   0  0  2  0  0  0
   75.6560    6.1110   17.6690 C   0  0  0  0  0  0
   76.0540    6.2410   18.8290 O   0  0  0  0  0  0
   73.2240    5.6280   17.6070 C   0  0  0  0  0  0
   73.0110    6.9260   16.8230 C   0  0  0  0  0  0
   72.1600    4.5760   17.2520 C   0  0  0  0  0  0
   76.0960    6.8490   16.6560 N   0  0  0  0  0  0
   77.1670    7.8320   16.8140 C   0  0  2  0  0  0
   76.7270    9.2330   16.3690 C   0  0  0  0  0  0
   76.0710    9.3770   15.3410 O   0  0  0  0  0  0
   78.4070    7.4240   15.9820 C   0  0  0  0  0  0
   79.5200    8.4830   16.1310 C   0  0  0  0  0  0
   78.9010    6.0250   16.3960 C   0  0  0  0  0  0
   77.0820   10.2570   17.1410 N   0  0  0  0  0  0
   76.8300   11.6250   16.7180 C   0  0  2  0  0  0
   77.9400   11.9780   15.7420 C   0  0  0  0  0  0
   79.1270   11.9500   16.0970 O   0  0  0  0  0  0
   76.8630   12.6020   17.9060 C   0  0  2  0  0  0
   75.6730   12.3430   18.8420 C   0  0  0  0  0  0
   76.8840   14.0580   17.4190 C   0  0  0  0  0  0
   75.8060   12.9990   20.2130 C   0  0  0  0  0  0
   77.5530   12.2190   14.4950 N   0  0  0  0  0  0
   78.4800   12.6170   13.4370 C   0  0  2  0  0  0
   78.4030   14.1030   13.0390 C   0  0  0  0  0  0
   79.1600   14.5530   12.1930 O   0  0  0  0  0  0
   78.3330   11.6940   12.2120 C   0  0  0  0  0  0
   78.6830   10.2370   12.6110 C   0  0  0  0  0  0
   76.9110   11.7610   11.6510 C   0  0  0  0  0  0
   77.4790   14.8500   13.6390 N   0  0  0  0  0  0
   77.3290   16.2620   13.3310 C   0  0  0  0  0  0
   76.2200   16.8860   14.1480 C   0  0  0  0  0  0
   75.5920   16.2240   14.9740 O   0  0  0  0  0  0
   75.9720   18.1720   13.9430 N   0  0  0  0  0  0
   74.8880   18.8140   14.6580 C   0  0  2  0  0  0
   74.3330   19.9610   13.8500 C   0  0  0  0  0  0
   74.9450   20.4170   12.8760 O   0  0  0  0  0  0
   75.3120   19.3030   16.0470 C   0  0  0  0  0  0
   76.2870   20.4860   16.0590 C   0  0  0  0  0  0
   77.7020   20.0080   15.9150 C   0  0  0  0  0  0
   78.6640   21.0420   16.2680 N   0  0  0  0  0  0
   79.4690   21.0050   17.3290 C   0  0  0  0  0  0
   79.4490   19.9770   18.1650 N   0  0  0  0  0  0
   80.2990   22.0070   17.5450 N   0  0  0  0  0  0
   73.1530   20.3950   14.2500 N   0  0  0  0  0  0
   72.4900   21.5210   13.6220 C   0  0  2  0  0  0
   72.1710   22.5170   14.7280 C   0  0  0  0  0  0
   71.6450   22.1520   15.7900 O   0  0  0  0  0  0
   71.2280   21.0680   12.8690 C   0  0  2  0  0  0
   71.6280   20.2500   11.6330 C   0  0  0  0  0  0
   70.3670   22.2740   12.5030 C   0  0  0  0  0  0
   70.5310   19.3650   11.0940 C   0  0  0  0  0  0
   72.5270   23.7720   14.4790 N   0  0  0  0  0  0
   72.3950   24.8330   15.4510 C   0  0  2  0  0  0
   71.2670   25.7150   14.9670 C   0  0  0  0  0  0
   71.2820   26.1660   13.8280 O   0  0  0  0  0  0
   73.6670   25.6970   15.4810 C   0  0  2  0  0  0
   74.8980   24.8220   15.7120 C   0  0  0  0  0  0
   73.5450   26.8210   16.5190 C   0  0  0  0  0  0
   74.9290   24.1920   17.0520 C   0  0  0  0  0  0
   70.2950   25.9520   15.8320 N   0  0  0  0  0  0
   69.1070   26.7260   15.4730 C   0  0  2  0  0  0
   69.2520   28.1890   15.8920 C   0  0  0  0  0  0
   69.8880   28.4880   16.9000 O   0  0  0  0  0  0
   67.8790   26.1030   16.1310 C   0  0  0  0  0  0
   67.6380   24.6700   15.6700 C   0  0  0  0  0  0
   66.4100   24.0750   16.3530 C   0  0  0  0  0  0
   67.4690   24.6880   14.1590 C   0  0  0  0  0  0
   68.6950   29.0950   15.0920 N   0  0  0  0  0  0
   68.6800   30.5130   15.4290 C   0  0  2  0  0  0
   67.2590   31.0620   15.3440 C   0  0  0  0  0  0
   66.7890   31.7721   16.2727 O   0  0  0  0  0  0
   69.5840   31.2980   14.4860 C   0  0  0  0  0  0
   69.6990   32.6500   14.8990 O   0  0  0  0  0  0
   66.5490   30.8029   14.3359 O   0  0  0  0  0  0
   75.0462   -4.6053   14.4763 H   0  0  0  0  0  0
   76.6867   -3.9726   14.8437 H   0  0  0  0  0  0
   75.2817   -2.8542   14.7999 H   0  0  0  0  0  0
   74.3133   -3.9964   16.7003 H   0  0  0  0  0  0
   75.7183   -5.1148   16.7441 H   0  0  0  0  0  0
   76.4908   -1.9416   15.6396 H   0  0  0  0  0  0
   77.9136   -1.5101   18.2889 H   0  0  0  0  0  0
   78.0882   -0.5454   16.7837 H   0  0  0  0  0  0
   78.1485    1.0469   18.6560 H   0  0  0  0  0  0
   75.3961    1.7746   19.5269 H   0  0  0  0  0  0
   78.0507    3.3367   19.6717 H   0  0  0  0  0  0
   76.5459    3.7619   20.5556 H   0  0  0  0  0  0
   78.1054    2.4229   22.0297 H   0  0  0  0  0  0
   74.1992    3.6347   18.9773 H   0  0  0  0  0  0
   74.6692    4.7300   16.2834 H   0  0  0  0  0  0
   73.1386    5.8706   18.6765 H   0  0  0  0  0  0
   73.7875    7.6538   17.1009 H   0  0  0  0  0  0
   72.0195    7.3391   17.0602 H   0  0  0  0  0  0
   73.0730    6.7174   15.7447 H   0  0  0  0  0  0
   72.3430    3.6593   17.8318 H   0  0  0  0  0  0
   72.2147    4.3473   16.1774 H   0  0  0  0  0  0
   71.1612    4.9689   17.4929 H   0  0  0  0  0  0
   75.6260    6.7010   15.6725 H   0  0  0  0  0  0
   77.3711    7.8245   17.8949 H   0  0  0  0  0  0
   78.1274    7.3722   14.9194 H   0  0  0  0  0  0
   79.1329    9.4669   15.8275 H   0  0  0  0  0  0
   80.3727    8.2112   15.4914 H   0  0  0  0  0  0
   79.8475    8.5255   17.1802 H   0  0  0  0  0  0
   78.0842    5.2978   16.2774 H   0  0  0  0  0  0
   79.2232    6.0463   17.4475 H   0  0  0  0  0  0
   79.7483    5.7319   15.7587 H   0  0  0  0  0  0
   77.5703   10.0611   18.1070 H   0  0  0  0  0  0
   75.8291   11.6523   16.2624 H   0  0  0  0  0  0
   77.7889   12.4325   18.4752 H   0  0  0  0  0  0
   74.7534   12.7350   18.3830 H   0  0  0  0  0  0
   75.5668   11.2610   19.0094 H   0  0  0  0  0  0
   77.7461   14.2094   16.7527 H   0  0  0  0  0  0
   76.9661   14.7327   18.2839 H   0  0  0  0  0  0
   75.9549   14.2749   16.8716 H   0  0  0  0  0  0
   74.9177   12.7661   20.8186 H   0  0  0  0  0  0
   75.8913   14.0889   20.0912 H   0  0  0  0  0  0
   76.7048   12.6149   20.7176 H   0  0  0  0  0  0
   76.4813   12.1071   14.2738 H   0  0  0  0  0  0
   79.4594   12.4766   13.9178 H   0  0  0  0  0  0
   79.0184   12.0400   11.4243 H   0  0  0  0  0  0
   79.7066   10.2026   13.0123 H   0  0  0  0  0  0
   78.6142    9.5878   11.7257 H   0  0  0  0  0  0
   77.9764    9.8871   13.3780 H   0  0  0  0  0  0
   76.6754   12.7986   11.3721 H   0  0  0  0  0  0
   76.1988   11.4159   12.4150 H   0  0  0  0  0  0
   76.8366   11.1166   10.7626 H   0  0  0  0  0  0
   76.8209   14.3763   14.3823 H   0  0  0  0  0  0
   78.2685   16.7881   13.5557 H   0  0  0  0  0  0
   77.0882   16.3811   12.2643 H   0  0  0  0  0  0
   76.5832   18.7512   13.2353 H   0  0  0  0  0  0
   74.1303   18.0237   14.7645 H   0  0  0  0  0  0
   74.4234   19.6267   16.6088 H   0  0  0  0  0  0
   75.8096   18.4845   16.5878 H   0  0  0  0  0  0
   76.0533   21.1622   15.2235 H   0  0  0  0  0  0
   76.1907   21.0309   17.0097 H   0  0  0  0  0  0
   77.8665   19.1448   16.5766 H   0  0  0  0  0  0
   77.8841   19.7104   14.8718 H   0  0  0  0  0  0
   78.7651   21.9376   15.6374 H   0  0  0  0  0  0
   78.7587   19.1387   17.9895 H   0  0  0  0  0  0
   80.1227   19.9620   19.0344 H   0  0  0  0  0  0
   80.3197   22.8628   16.8542 H   0  0  0  0  0  0
   72.6720   19.8719   15.0897 H   0  0  0  0  0  0
   73.1795   21.9589   12.8852 H   0  0  0  0  0  0
   70.6155   20.4250   13.5182 H   0  0  0  0  0  0
   71.9202   20.9319   10.8208 H   0  0  0  0  0  0
   72.4755   19.5955   11.8849 H   0  0  0  0  0  0
   70.1053   22.8284   13.4163 H   0  0  0  0  0  0
   69.4475   21.9308   12.0062 H   0  0  0  0  0  0
   70.9277   22.9319   11.8227 H   0  0  0  0  0  0
   70.9004   18.8178   10.2141 H   0  0  0  0  0  0
   69.6689   19.9842   10.8054 H   0  0  0  0  0  0
   70.2241   18.6478   11.8696 H   0  0  0  0  0  0
   72.9377   23.9878   13.4816 H   0  0  0  0  0  0
   72.2059   24.3638   16.4278 H   0  0  0  0  0  0
   73.7957   26.1827   14.5025 H   0  0  0  0  0  0
   74.9183   24.0135   14.9664 H   0  0  0  0  0  0
   75.8067   25.4341   15.6138 H   0  0  0  0  0  0
   72.6460   27.4188   16.3082 H   0  0  0  0  0  0
   74.4346   27.4659   16.4674 H   0  0  0  0  0  0
   73.4669   26.3838   17.5254 H   0  0  0  0  0  0
   75.8378   23.5798   17.1484 H   0  0  0  0  0  0
   74.0419   23.5538   17.1777 H   0  0  0  0  0  0
   74.9303   24.9745   17.8251 H   0  0  0  0  0  0
   70.4005   25.5463   16.8490 H   0  0  0  0  0  0
   69.0269   26.6756   14.3771 H   0  0  0  0  0  0
   68.0144   26.0908   17.2226 H   0  0  0  0  0  0
   66.9874   26.6958   15.8788 H   0  0  0  0  0  0
   68.4946   24.0357   15.9419 H   0  0  0  0  0  0
   66.5605   24.0749   17.4427 H   0  0  0  0  0  0
   66.2601   23.0429   16.0034 H   0  0  0  0  0  0
   65.5242   24.6784   16.1052 H   0  0  0  0  0  0
   68.3673   25.1210   13.6947 H   0  0  0  0  0  0
   66.5908   25.2957   13.8955 H   0  0  0  0  0  0
   67.3266   23.6602   13.7937 H   0  0  0  0  0  0
   68.2374   28.7478   14.1539 H   0  0  0  0  0  0
   69.0590   30.5764   16.4597 H   0  0  0  0  0  0
   65.7632   32.1627   16.2011 H   0  0  0  0  0  0
   70.5866   30.8455   14.4779 H   0  0  0  0  0  0
   69.1629   31.2745   13.4701 H   0  0  0  0  0  0
   70.3193   33.3508   14.3210 H   0  0  0  0  0  0
  1  2  1  0  0  0
  1 90  1  0  0  0
  1 91  1  0  0  0
  1 92  1  0  0  0
  2  3  1  0  0  0
  2 93  1  0  0  0
  2 94  1  0  0  0
  3  4  2  0  0  0
  3  5  1  0  0  0
  5  6  1  0  0  0
  5 95  1  0  0  0
  6  7  1  0  0  0
  6 96  1  0  0  0
  6 97  1  0  0  0
  7  8  2  0  0  0
  7  9  1  0  0  0
  9 10  1  0  0  0
  9 98  1  0  0  0
 10 11  1  0  0  0
 10 13  1  0  0  0
 10 99  1  0  0  0
 11 12  2  0  0  0
 11 15  1  0  0  0
 13 14  1  0  0  0
 13100  1  0  0  0
 13101  1  0  0  0
 14102  1  0  0  0
 15 16  1  0  0  0
 15103  1  0  0  0
 16 17  1  0  0  0
 16 19  1  0  0  0
 16104  1  0  0  0
 17 18  2  0  0  0
 17 22  1  0  0  0
 19 20  1  0  0  0
 19 21  1  0  0  0
 19105  1  0  0  0
 20106  1  0  0  0
 20107  1  0  0  0
 20108  1  0  0  0
 21109  1  0  0  0
 21110  1  0  0  0
 21111  1  0  0  0
 22 23  1  0  0  0
 22112  1  0  0  0
 23 24  1  0  0  0
 23 26  1  0  0  0
 23113  1  0  0  0
 24 25  2  0  0  0
 24 29  1  0  0  0
 26 27  1  0  0  0
 26 28  1  0  0  0
 26114  1  0  0  0
 27115  1  0  0  0
 27116  1  0  0  0
 27117  1  0  0  0
 28118  1  0  0  0
 28119  1  0  0  0
 28120  1  0  0  0
 29 30  1  0  0  0
 29121  1  0  0  0
 30 31  1  0  0  0
 30 33  1  0  0  0
 30122  1  0  0  0
 31 32  2  0  0  0
 31 37  1  0  0  0
 33 34  1  0  0  0
 33 35  1  0  0  0
 33123  1  0  0  0
 34 36  1  0  0  0
 34124  1  0  0  0
 34125  1  0  0  0
 35126  1  0  0  0
 35127  1  0  0  0
 35128  1  0  0  0
 36129  1  0  0  0
 36130  1  0  0  0
 36131  1  0  0  0
 37 38  1  0  0  0
 37132  1  0  0  0
 38 39  1  0  0  0
 38 41  1  0  0  0
 38133  1  0  0  0
 39 40  2  0  0  0
 39 44  1  0  0  0
 41 42  1  0  0  0
 41 43  1  0  0  0
 41134  1  0  0  0
 42135  1  0  0  0
 42136  1  0  0  0
 42137  1  0  0  0
 43138  1  0  0  0
 43139  1  0  0  0
 43140  1  0  0  0
 44 45  1  0  0  0
 44141  1  0  0  0
 45 46  1  0  0  0
 45142  1  0  0  0
 45143  1  0  0  0
 46 47  2  0  0  0
 46 48  1  0  0  0
 48 49  1  0  0  0
 48144  1  0  0  0
 49 50  1  0  0  0
 49 52  1  0  0  0
 49145  1  0  0  0
 50 51  2  0  0  0
 50 59  1  0  0  0
 52 53  1  0  0  0
 52146  1  0  0  0
 52147  1  0  0  0
 53 54  1  0  0  0
 53148  1  0  0  0
 53149  1  0  0  0
 54 55  1  0  0  0
 54150  1  0  0  0
 54151  1  0  0  0
 55 56  1  0  0  0
 55152  1  0  0  0
 56 57  1  0  0  0
 56 58  2  0  0  0
 57153  1  0  0  0
 57154  1  0  0  0
 58155  1  0  0  0
 59 60  1  0  0  0
 59156  1  0  0  0
 60 61  1  0  0  0
 60 63  1  0  0  0
 60157  1  0  0  0
 61 62  2  0  0  0
 61 67  1  0  0  0
 63 64  1  0  0  0
 63 65  1  0  0  0
 63158  1  0  0  0
 64 66  1  0  0  0
 64159  1  0  0  0
 64160  1  0  0  0
 65161  1  0  0  0
 65162  1  0  0  0
 65163  1  0  0  0
 66164  1  0  0  0
 66165  1  0  0  0
 66166  1  0  0  0
 67 68  1  0  0  0
 67167  1  0  0  0
 68 69  1  0  0  0
 68 71  1  0  0  0
 68168  1  0  0  0
 69 70  2  0  0  0
 69 75  1  0  0  0
 71 72  1  0  0  0
 71 73  1  0  0  0
 71169  1  0  0  0
 72 74  1  0  0  0
 72170  1  0  0  0
 72171  1  0  0  0
 73172  1  0  0  0
 73173  1  0  0  0
 73174  1  0  0  0
 74175  1  0  0  0
 74176  1  0  0  0
 74177  1  0  0  0
 75 76  1  0  0  0
 75178  1  0  0  0
 76 77  1  0  0  0
 76 79  1  0  0  0
 76179  1  0  0  0
 77 78  2  0  0  0
 77 83  1  0  0  0
 79 80  1  0  0  0
 79180  1  0  0  0
 79181  1  0  0  0
 80 81  1  0  0  0
 80 82  1  0  0  0
 80182  1  0  0  0
 81183  1  0  0  0
 81184  1  0  0  0
 81185  1  0  0  0
 82186  1  0  0  0
 82187  1  0  0  0
 82188  1  0  0  0
 83 84  1  0  0  0
 83189  1  0  0  0
 84 85  1  0  0  0
 84 87  1  0  0  0
 84190  1  0  0  0
 85 86  1  0  0  0
 85 89  2  0  0  0
 86191  1  0  0  0
 87 88  1  0  0  0
 87192  1  0  0  0
 87193  1  0  0  0
 88194  1  0  0  0
M  CHG  1   1   1
M  END
> <s_m_source_file>
../4i33_ligand.sdf

> <i_m_source_file_index>
1

> <s_epik_input>
W05IMytdW0NIMl1DKD1PKVtOSF1bQ0gyXUMoPU8pW05IXVtDQEBIXShbQ0gyXVtPSF0pQyg9TylbTkhdW0NAQEhdKFtDSF0oW0NIM10pW0NIM10pQyg9TylbTkhdW0NAQEhdKFtDSF0oW0NIM10pW0NIM10pQyg9TylbTkhdW0NAQEhdKFtDQEBIXShbQ0gzXSlbQ0gyXVtDSDNdKUMoPU8pW05IXVtDQEBIXShbQ0hdKFtDSDNdKVtDSDNdKUMoPU8pW05IXVtDSDJdQyg9TylbTkhdW0NAQEhdKFtDSDJdW0NIMl1bQ0gyXVtOSF0vQyhbTkgyXSk9TlxbSF0pQyg9TylbTkhdW0NAQEhdKFtDQEBIXShbQ0gzXSlbQ0gyXVtDSDNdKUMoPU8pW05IXVtDQEBIXShbQ0BASF0oW0NIM10pW0NIMl1bQ0gzXSlDKD1PKVtOSF1bQ0BASF0oW0NIMl1bQ0hdKFtDSDNdKVtDSDNdKUMoPU8pW05IXVtDQEhdKEMoPU8pW09IXSlbQ0gyXVtPSF0=

> <s_epik_cmdline>
J2VwaWtfYXBwJywgJy1pbWFlJywgJ2xpZ2FuZF9wcm8ubWFlJywgJy1vbWFlJywgJ2xpZ2FuZF9wcmVwLm1hZScsICctbXMnLCAnMScsICctcGgnLCAnNycsICctcGh0JywgJzAuNScsICctbnQn

> <s_epik_pKa_notes>
Molecule size exceeds maximum supported for generating protonation states

> <s_epik_Chemistry_Notes>
This compound has an imine and may undergo hydrolysis.

$$$$
