4i3z_ligand
                    3D
 Schrodinger Suite 2020-3.
 39 41  0  0  1  0            999 V2000
    1.0620  -36.9150   -4.3740 P   0  0  0  0  0  0
   -0.2910  -37.0850   -5.0210 O   0  5  0  0  0  0
    2.1550  -36.6300   -5.3750 O   0  0  0  0  0  0
    1.0620  -36.0060   -3.1680 O   0  5  0  0  0  0
    2.1970  -38.7120   -2.4200 P   0  0  2  0  0  0
    2.5170  -37.4610   -1.6480 O   0  0  0  0  0  0
    3.3130  -39.6840   -2.7100 O   0  5  0  0  0  0
    1.4160  -38.3860   -3.8010 O   0  0  0  0  0  0
    1.0410  -39.4860   -1.6130 O   0  0  0  0  0  0
   -0.1510  -38.7980   -1.2260 C   0  0  0  0  0  0
   -0.5580  -39.1960    0.1880 C   0  0  1  0  0  0
   -0.7010  -40.6170    0.2850 O   0  0  0  0  0  0
    0.4960  -38.8130    1.2120 C   0  0  1  0  0  0
    0.2670  -37.5160    1.7750 O   0  0  0  0  0  0
    0.3930  -39.8990    2.2620 C   0  0  1  0  0  0
   -0.5400  -39.5220    3.2840 O   0  0  0  0  0  0
   -0.1450  -41.0970    1.5080 C   0  0  2  0  0  0
    1.0210  -41.9610    1.2170 N   0  0  0  0  0  0
    1.8180  -41.8730    0.1330 C   0  0  0  0  0  0
    2.8010  -42.8080    0.1750 N   0  0  0  0  0  0
    2.6380  -43.5080    1.3130 C   0  0  0  0  0  0
    3.3290  -44.6370    1.9770 C   0  0  0  0  0  0
    4.4170  -45.1950    1.4000 N   0  0  0  0  0  0
    2.8440  -45.0780    3.1640 N   0  0  0  0  0  0
    1.7600  -44.5110    3.7270 C   0  0  0  0  0  0
    1.0830  -43.4800    3.1840 N   0  0  0  0  0  0
    1.4650  -42.9470    1.9990 C   0  0  0  0  0  0
    0.0259  -37.7127   -1.2561 H   0  0  0  0  0  0
   -0.9649  -39.0562   -1.9194 H   0  0  0  0  0  0
   -1.5283  -38.7248    0.4037 H   0  0  0  0  0  0
    1.5018  -38.6882    0.7846 H   0  0  0  0  0  0
    0.3086  -36.6230    1.1340 H   0  0  0  0  0  0
    1.3348  -40.0814    2.8003 H   0  0  0  0  0  0
   -0.3212  -38.6666    3.9401 H   0  0  0  0  0  0
   -0.9345  -41.6568    2.0307 H   0  0  0  0  0  0
    1.6899  -41.1474   -0.6703 H   0  0  0  0  0  0
    4.7850  -44.8135    0.4361 H   0  0  0  0  0  0
    4.9342  -46.0305    1.8944 H   0  0  0  0  0  0
    1.4092  -44.9098    4.6788 H   0  0  0  0  0  0
  1  2  1  0  0  0
  1  3  2  0  0  0
  1  4  1  0  0  0
  1  8  1  0  0  0
  5  6  2  0  0  0
  5  7  1  0  0  0
  5  8  1  0  0  0
  5  9  1  0  0  0
  9 10  1  0  0  0
 10 11  1  0  0  0
 10 28  1  0  0  0
 10 29  1  0  0  0
 11 12  1  0  0  0
 11 13  1  0  0  0
 11 30  1  0  0  0
 12 17  1  0  0  0
 13 14  1  0  0  0
 13 15  1  0  0  0
 13 31  1  0  0  0
 14 32  1  0  0  0
 15 16  1  0  0  0
 15 17  1  0  0  0
 15 33  1  0  0  0
 16 34  1  0  0  0
 17 18  1  0  0  0
 17 35  1  0  0  0
 18 19  1  0  0  0
 18 27  1  0  0  0
 19 20  2  0  0  0
 19 36  1  0  0  0
 20 21  1  0  0  0
 21 22  2  0  0  0
 21 27  1  0  0  0
 22 23  1  0  0  0
 22 24  1  0  0  0
 23 37  1  0  0  0
 23 38  1  0  0  0
 24 25  2  0  0  0
 25 26  1  0  0  0
 25 39  1  0  0  0
 26 27  2  0  0  0
M  CHG  3   2  -1   4  -1   7  -1
M  END
> <s_m_source_file>
../4i3z_ligand.sdf

> <i_m_source_file_index>
1

> <s_epik_input>
W09IXVAoPU8pKFtPSF0pT1tQQF0oPU8pKFtPSF0pT1tDSDJdW0NASF0xT1tDQEhdKFtDQEhdKFtPSF0pW0NAQEhdMVtPSF0pbihbY0hdbjIpYyhjMjMpbltjSF1uYzNbTkgyXQ==

> <s_epik_cmdline>
J2VwaWtfYXBwJywgJy1pbWFlJywgJ2xpZ2FuZF9wcm8ubWFlJywgJy1vbWFlJywgJ2xpZ2FuZF9wcmVwLm1hZScsICctbXMnLCAnMScsICctcGgnLCAnNycsICctcGh0JywgJzAuNScsICctbnQn

> <r_lp_tautomer_probability>
0.999997216410988

> <r_epik_Ionization_Penalty>
  0.1037

> <r_epik_Ionization_Penalty_Charging>
  0.1033

> <r_epik_Ionization_Penalty_Neutral>
  0.0004

> <r_epik_State_Penalty>
  0.0922

> <r_epik_Charging_Adjusted_Penalty>
0.19546844050481

> <i_epik_Tot_Q>
-3

> <i_epik_Tot_abs_Q>
3

> <s_epik_Chemistry_Notes>
This compound contains an acetal/aminal-like group ( X-CH(R)-Y where X, Y are N, S, or O) that may be acid/base labile, releasing an aldehyde.

$$$$
