4i47_ligand
                    3D
 Schrodinger Suite 2020-3.
 19 20  0  0  1  0            999 V2000
   22.0220    7.7740    9.2430 C   0  0  0  0  0  0
   23.0830    4.5280    7.8470 N   0  0  0  0  0  0
   22.7730    5.8660    7.7720 C   0  0  0  0  0  0
   22.3960    6.3410    8.9950 N   0  0  0  0  0  0
   22.4570    5.2810    9.8750 C   0  0  0  0  0  0
   22.1850    5.1400   11.2820 C   0  0  0  0  0  0
   21.7840    6.1700   12.1180 O   0  0  0  0  0  0
   22.3710    3.8890   11.8390 N   0  0  0  0  0  0
   22.8030    2.7890   11.0930 C   0  0  0  0  0  0
   22.9930    1.5680   11.6830 N   0  0  0  0  0  0
   23.0630    2.9170    9.7380 N   0  0  0  0  0  0
   22.8920    4.1600    9.1510 C   0  0  0  0  0  0
   22.0857    8.3379    8.3007 H   0  0  0  0  0  0
   22.7126    8.2110    9.9793 H   0  0  0  0  0  0
   20.9937    7.8227    9.6307 H   0  0  0  0  0  0
   22.8216    6.4641    6.8621 H   0  0  0  0  0  0
   22.1775    3.7295   12.9100 H   0  0  0  0  0  0
   22.7940    1.4393   12.7572 H   0  0  0  0  0  0
   23.3446    0.7159   11.0828 H   0  0  0  0  0  0
  1  4  1  0  0  0
  1 13  1  0  0  0
  1 14  1  0  0  0
  1 15  1  0  0  0
  2  3  2  0  0  0
  2 12  1  0  0  0
  3  4  1  0  0  0
  3 16  1  0  0  0
  4  5  1  0  0  0
  5  6  1  0  0  0
  5 12  2  0  0  0
  6  7  2  0  0  0
  6  8  1  0  0  0
  8  9  1  0  0  0
  8 17  1  0  0  0
  9 10  1  0  0  0
  9 11  2  0  0  0
 10 18  1  0  0  0
 10 19  1  0  0  0
 11 12  1  0  0  0
M  END
> <s_m_source_file>
../4i47_ligand.sdf

> <i_m_source_file_index>
1

> <s_epik_input>
W0NIM11uMVtjSF1uYyhjMTIpbmMoW05IMl0pW25IXWMyPU8=

> <s_epik_cmdline>
J2VwaWtfYXBwJywgJy1pbWFlJywgJ2xpZ2FuZF9wcm8ubWFlJywgJy1vbWFlJywgJ2xpZ2FuZF9wcmVwLm1hZScsICctbXMnLCAnMScsICctcGgnLCAnNycsICctcGh0JywgJzAuNScsICctbnQn

> <r_lp_tautomer_probability>
1

> <r_epik_Ionization_Penalty>
  0.0018

> <r_epik_Ionization_Penalty_Charging>
  0.0012

> <r_epik_Ionization_Penalty_Neutral>
  0.0006

> <r_epik_State_Penalty>
 -0.0000

> <r_epik_Charging_Adjusted_Penalty>
0.00124156382817741

> <i_epik_Tot_Q>
0

> <i_epik_Tot_abs_Q>
0

$$$$
