4i4f_ligand
                    3D
 Schrodinger Suite 2020-3.
 55 58  0  0  1  0            999 V2000
  -10.3180   -1.1070  -15.5770 C   0  0  0  0  0  0
  -11.1020    0.0190  -15.0940 N   0  0  0  0  0  0
  -11.0790    1.2690  -15.7690 C   0  0  0  0  0  0
  -11.0680    1.2500  -17.1730 C   0  0  0  0  0  0
  -10.9780    2.4660  -17.8810 C   0  0  0  0  0  0
  -10.9100    3.6870  -17.1760 C   0  0  0  0  0  0
  -10.8750    4.9040  -17.8950 N   0  0  0  0  0  0
  -10.1840    6.1430  -17.4240 C   0  0  0  0  0  0
   -9.7710    6.8800  -18.6980 C   0  0  0  0  0  0
   -8.7010    6.3810  -19.4410 C   0  0  0  0  0  0
   -8.3030    7.0250  -20.6040 C   0  0  0  0  0  0
   -9.0020    8.1520  -21.0590 C   0  0  0  0  0  0
  -10.0640    8.6550  -20.3030 C   0  0  0  0  0  0
  -10.4770    8.0010  -19.1160 C   0  0  0  0  0  0
   -8.5590    8.8140  -22.3590 C   0  0  0  0  0  0
   -8.7320    7.8230  -23.5310 C   0  0  0  0  0  0
   -9.3960   10.0560  -22.6790 C   0  0  0  0  0  0
   -7.0890    9.2540  -22.2770 C   0  0  0  0  0  0
  -10.9470    3.6960  -15.7870 C   0  0  0  0  0  0
  -10.9960    2.4910  -15.0580 C   0  0  0  0  0  0
  -11.0060    2.4930  -13.5710 C   0  0  0  0  0  0
  -11.4010    1.3650  -12.8590 C   0  0  0  0  0  0
  -11.2890    1.6150  -11.4960 C   0  0  0  0  0  0
  -10.8120    2.8260  -11.3520 N   0  0  0  0  0  0
  -10.6370    3.3960  -12.6200 N   0  0  0  0  0  0
  -10.1240    4.7490  -12.8000 C   0  0  0  0  0  0
  -11.9390   -0.0720  -13.6790 S   0  0  0  0  0  0
  -13.3140    0.1420  -14.0330 O   0  0  0  0  0  0
  -11.6000   -1.2660  -12.9940 O   0  0  0  0  0  0
   -9.8419   -0.8395  -16.5319 H   0  0  0  0  0  0
  -10.9767   -1.9753  -15.7262 H   0  0  0  0  0  0
   -9.5426   -1.3577  -14.8382 H   0  0  0  0  0  0
  -11.1285    0.3038  -17.7107 H   0  0  0  0  0  0
  -10.9610    2.4632  -18.9709 H   0  0  0  0  0  0
  -11.4019    4.9014  -18.8606 H   0  0  0  0  0  0
  -10.8789    6.7423  -16.8173 H   0  0  0  0  0  0
   -9.3104    5.8668  -16.8153 H   0  0  0  0  0  0
   -8.1774    5.4849  -19.1079 H   0  0  0  0  0  0
   -7.4452    6.6539  -21.1649 H   0  0  0  0  0  0
  -10.5792    9.5584  -20.6293 H   0  0  0  0  0  0
  -11.3289    8.3689  -18.5441 H   0  0  0  0  0  0
   -9.7838    7.5067  -23.5915 H   0  0  0  0  0  0
   -8.0935    6.9430  -23.3643 H   0  0  0  0  0  0
   -8.4419    8.3136  -24.4718 H   0  0  0  0  0  0
  -10.4576    9.7756  -22.7451 H   0  0  0  0  0  0
   -9.0686   10.4813  -23.6392 H   0  0  0  0  0  0
   -9.2629   10.8030  -21.8826 H   0  0  0  0  0  0
   -6.4578    8.3828  -22.0477 H   0  0  0  0  0  0
   -6.9756   10.0079  -21.4840 H   0  0  0  0  0  0
   -6.7814    9.6862  -23.2406 H   0  0  0  0  0  0
  -10.9380    4.6471  -15.2546 H   0  0  0  0  0  0
  -11.5510    0.9270  -10.6922 H   0  0  0  0  0  0
  -10.0718    4.9815  -13.8739 H   0  0  0  0  0  0
   -9.1185    4.8215  -12.3599 H   0  0  0  0  0  0
  -10.7947    5.4647  -12.3020 H   0  0  0  0  0  0
  1  2  1  0  0  0
  1 30  1  0  0  0
  1 31  1  0  0  0
  1 32  1  0  0  0
  2  3  1  0  0  0
  2 27  1  0  0  0
  3  4  2  0  0  0
  3 20  1  0  0  0
  4  5  1  0  0  0
  4 33  1  0  0  0
  5  6  2  0  0  0
  5 34  1  0  0  0
  6  7  1  0  0  0
  6 19  1  0  0  0
  7  8  1  0  0  0
  7 35  1  0  0  0
  8  9  1  0  0  0
  8 36  1  0  0  0
  8 37  1  0  0  0
  9 10  2  0  0  0
  9 14  1  0  0  0
 10 11  1  0  0  0
 10 38  1  0  0  0
 11 12  2  0  0  0
 11 39  1  0  0  0
 12 13  1  0  0  0
 12 15  1  0  0  0
 13 14  2  0  0  0
 13 40  1  0  0  0
 14 41  1  0  0  0
 15 16  1  0  0  0
 15 17  1  0  0  0
 15 18  1  0  0  0
 16 42  1  0  0  0
 16 43  1  0  0  0
 16 44  1  0  0  0
 17 45  1  0  0  0
 17 46  1  0  0  0
 17 47  1  0  0  0
 18 48  1  0  0  0
 18 49  1  0  0  0
 18 50  1  0  0  0
 19 20  2  0  0  0
 19 51  1  0  0  0
 20 21  1  0  0  0
 21 22  2  0  0  0
 21 25  1  0  0  0
 22 23  1  0  0  0
 22 27  1  0  0  0
 23 24  2  0  0  0
 23 52  1  0  0  0
 24 25  1  0  0  0
 25 26  1  0  0  0
 26 53  1  0  0  0
 26 54  1  0  0  0
 26 55  1  0  0  0
 27 28  2  0  0  0
 27 29  2  0  0  0
M  END
> <s_m_source_file>
../4i4f_ligand.sdf

> <i_m_source_file_index>
1

> <s_epik_input>
W0NIM11uMW5bY0hdYyhTKD1PKSg9TylOMltDSDNdKWMxYyhjMjMpW2NIXWMoW2NIXVtjSF0zKVtOSF1bQ0gyXWM0W2NIXVtjSF1jKFtjSF1bY0hdNClDKFtDSDNdKShbQ0gzXSlbQ0gzXQ==

> <s_epik_cmdline>
J2VwaWtfYXBwJywgJy1pbWFlJywgJ2xpZ2FuZF9wcm8ubWFlJywgJy1vbWFlJywgJ2xpZ2FuZF9wcmVwLm1hZScsICctbXMnLCAnMScsICctcGgnLCAnNycsICctcGh0JywgJzAuNScsICctbnQn

> <r_lp_tautomer_probability>
1

> <r_epik_Ionization_Penalty>
  0.0000

> <r_epik_Ionization_Penalty_Charging>
  0.0000

> <r_epik_Ionization_Penalty_Neutral>
  0.0000

> <r_epik_State_Penalty>
 -0.0000

> <r_epik_Charging_Adjusted_Penalty>
0

> <i_epik_Tot_Q>
0

> <i_epik_Tot_abs_Q>
0

$$$$
