4i54_ligand
                    3D
 Schrodinger Suite 2020-3.
 48 50  0  0  1  0            999 V2000
    1.2740  -15.2430  -10.4490 N   0  3  0  0  0  0
    0.6000  -15.0000  -11.5220 C   0  0  0  0  0  0
   -0.2250  -13.7910  -11.5970 N   0  0  0  0  0  0
   -1.0110  -13.5350  -12.8070 C   0  0  0  0  0  0
   -2.5080  -13.5520  -12.5310 C   0  0  1  0  0  0
   -3.2220  -13.0970  -13.7630 C   0  0  0  0  0  0
   -4.0830  -14.2770  -14.1700 C   0  0  0  0  0  0
   -4.9710  -14.4140  -15.3670 C   0  0  0  0  0  0
   -5.6850  -15.6250  -15.5130 C   0  0  0  0  0  0
   -5.5940  -16.6800  -14.5970 C   0  0  0  0  0  0
   -4.7510  -16.5720  -13.4540 C   0  0  0  0  0  0
   -3.9690  -15.3000  -13.2700 C   0  0  0  0  0  0
   -3.0270  -14.8770  -12.1630 C   0  0  2  0  0  0
   -3.8440  -14.7360  -10.9620 N   0  0  0  0  0  0
   -3.4230  -15.3060   -9.6900 C   0  0  0  0  0  0
   -2.2400  -15.5290   -9.5030 O   0  0  0  0  0  0
   -4.4040  -15.2100   -8.5580 C   0  0  0  0  0  0
   -5.4940  -14.6720   -8.7980 O   0  0  0  0  0  0
   -3.9410  -15.5040   -7.2040 N   0  0  0  0  0  0
   -4.5280  -14.9470   -6.0090 C   0  0  0  0  0  0
   -5.8440  -14.8140   -5.9380 C   0  0  0  0  0  0
   -6.5380  -14.5910   -4.7640 C   0  0  0  0  0  0
   -7.8580  -14.4480   -4.6500 F   0  0  0  0  0  0
   -5.6980  -14.5200   -3.5880 C   0  0  0  0  0  0
   -6.5530  -14.2210   -2.1190 Cl  0  0  0  0  0  0
   -4.2970  -14.6550   -3.6810 C   0  0  0  0  0  0
   -3.7470  -14.8680   -4.9320 C   0  0  0  0  0  0
    0.6480  -15.8380  -12.5580 N   0  0  0  0  0  0
    1.2272  -14.5449   -9.6002 H   0  0  0  0  0  0
   -0.2586  -13.0797  -10.7586 H   0  0  0  0  0  0
   -0.7484  -12.5468  -13.2125 H   0  0  0  0  0  0
   -0.7920  -14.3091  -13.5572 H   0  0  0  0  0  0
   -2.7085  -12.9040  -11.6650 H   0  0  0  0  0  0
   -3.8297  -12.2107  -13.5283 H   0  0  0  0  0  0
   -2.4864  -12.8419  -14.5400 H   0  0  0  0  0  0
   -5.0635  -13.6108  -16.0980 H   0  0  0  0  0  0
   -6.3366  -15.7431  -16.3788 H   0  0  0  0  0  0
   -6.1719  -17.5897  -14.7596 H   0  0  0  0  0  0
   -4.6747  -17.3868  -12.7340 H   0  0  0  0  0  0
   -2.1970  -15.5752  -11.9796 H   0  0  0  0  0  0
   -4.7982  -14.1906  -11.0068 H   0  0  0  0  0  0
   -3.0941  -16.1887   -7.0488 H   0  0  0  0  0  0
   -6.4153  -14.8849   -6.8636 H   0  0  0  0  0  0
   -3.6669  -14.5933   -2.7937 H   0  0  0  0  0  0
   -2.6671  -14.9720   -5.0378 H   0  0  0  0  0  0
    1.2668  -16.7458  -12.5029 H   0  0  0  0  0  0
    0.0688  -15.6216  -13.4678 H   0  0  0  0  0  0
    1.8954  -16.1482  -10.3830 H   0  0  0  0  0  0
  1  2  2  0  0  0
  1 29  1  0  0  0
  1 48  1  0  0  0
  2  3  1  0  0  0
  2 28  1  0  0  0
  3  4  1  0  0  0
  3 30  1  0  0  0
  4  5  1  0  0  0
  4 31  1  0  0  0
  4 32  1  0  0  0
  5  6  1  0  0  0
  5 13  1  0  0  0
  5 33  1  0  0  0
  6  7  1  0  0  0
  6 34  1  0  0  0
  6 35  1  0  0  0
  7  8  2  0  0  0
  7 12  1  0  0  0
  8  9  1  0  0  0
  8 36  1  0  0  0
  9 10  2  0  0  0
  9 37  1  0  0  0
 10 11  1  0  0  0
 10 38  1  0  0  0
 11 12  2  0  0  0
 11 39  1  0  0  0
 12 13  1  0  0  0
 13 14  1  0  0  0
 13 40  1  0  0  0
 14 15  1  0  0  0
 14 41  1  0  0  0
 15 16  2  0  0  0
 15 17  1  0  0  0
 17 18  2  0  0  0
 17 19  1  0  0  0
 19 20  1  0  0  0
 19 42  1  0  0  0
 20 21  2  0  0  0
 20 27  1  0  0  0
 21 22  1  0  0  0
 21 43  1  0  0  0
 22 23  1  0  0  0
 22 24  2  0  0  0
 24 25  1  0  0  0
 24 26  1  0  0  0
 26 27  2  0  0  0
 26 44  1  0  0  0
 27 45  1  0  0  0
 28 46  1  0  0  0
 28 47  1  0  0  0
M  CHG  1   1   1
M  END
> <s_m_source_file>
../4i54_ligand.sdf

> <i_m_source_file_index>
1

> <s_epik_input>
W0hdL049QyhbTkgyXSkvW05IXVtDSDJdW0NAQEhdKFtDSDJdMSlbQ0BIXShjKGMxMilbY0hdW2NIXVtjSF1bY0hdMilbTkhdQyg9TylDKD1PKVtOSF1jM1tjSF1jKEYpYyhDbClbY0hdW2NIXTM=

> <s_epik_cmdline>
J2VwaWtfYXBwJywgJy1pbWFlJywgJ2xpZ2FuZF9wcm8ubWFlJywgJy1vbWFlJywgJ2xpZ2FuZF9wcmVwLm1hZScsICctbXMnLCAnMScsICctcGgnLCAnNycsICctcGh0JywgJzAuNScsICctbnQn

> <r_lp_tautomer_probability>
1

> <r_epik_Ionization_Penalty>
  0.0000

> <r_epik_Ionization_Penalty_Charging>
  0.0000

> <r_epik_Ionization_Penalty_Neutral>
  0.0000

> <r_epik_State_Penalty>
 -0.0000

> <r_epik_Charging_Adjusted_Penalty>
2.11060096973794e-05

> <i_epik_Tot_Q>
1

> <i_epik_Tot_abs_Q>
1

> <s_epik_Chemistry_Notes>
This compound has an imine and may undergo hydrolysis.

$$$$
