4i5c_ligand
                    3D
 Schrodinger Suite 2020-3.
 38 41  0  0  1  0            999 V2000
   16.9340    2.7000    0.8260 C   0  0  0  0  0  0
   17.7230    1.6120    0.9920 C   0  0  0  0  0  0
   17.1230    0.5000    0.4520 N   0  3  0  0  0  0
   15.8970    0.8540   -0.0830 C   0  0  0  0  0  0
   15.7310    2.2500    0.1330 C   0  0  0  0  0  0
   14.5300    2.8750   -0.2970 C   0  0  0  0  0  0
   13.5410    2.0940   -0.9170 C   0  0  0  0  0  0
   13.7950    0.7150   -1.1020 C   0  0  0  0  0  0
   14.9290    0.1560   -0.6940 N   0  0  0  0  0  0
   12.4910    2.9120   -1.1910 N   0  0  0  0  0  0
   12.7080    4.1080   -0.7560 N   0  0  0  0  0  0
   14.0050    4.1420   -0.2280 N   0  0  0  0  0  0
   14.6350    5.2730    0.4650 C   0  0  2  0  0  0
   14.3930    5.0550    1.9890 C   0  0  0  0  0  0
   15.0090    6.1800    2.8150 C   0  0  0  0  0  0
   14.4010    7.5160    2.3370 C   0  0  0  0  0  0
   14.6630    7.6370    0.8800 N   0  0  0  0  0  0
   14.0510    6.6220    0.0060 C   0  0  0  0  0  0
   15.5320    8.5620    0.3730 C   0  0  0  0  0  0
   15.7550    8.6080   -0.8370 O   0  0  0  0  0  0
   16.1850    9.5720    1.2950 C   0  0  0  0  0  0
   17.2760   10.3050    0.6320 C   0  0  0  0  0  0
   18.1180   10.8680    0.1250 N   0  0  0  0  0  0
   17.2656    3.6815    1.1959 H   0  0  0  0  0  0
   18.6928    1.7086    1.5020 H   0  0  0  0  0  0
   13.0425    0.0962   -1.5909 H   0  0  0  0  0  0
   15.7008    5.2730    0.1927 H   0  0  0  0  0  0
   13.3115    5.0267    2.1881 H   0  0  0  0  0  0
   14.8481    4.1031    2.3001 H   0  0  0  0  0  0
   14.7819    6.0201    3.8794 H   0  0  0  0  0  0
   16.0993    6.1869    2.6698 H   0  0  0  0  0  0
   13.3184    7.5167    2.5319 H   0  0  0  0  0  0
   14.8719    8.3484    2.8804 H   0  0  0  0  0  0
   14.3096    6.7934   -1.0493 H   0  0  0  0  0  0
   12.9568    6.6047    0.1172 H   0  0  0  0  0  0
   15.4342   10.3038    1.6278 H   0  0  0  0  0  0
   16.6039    9.0529    2.1697 H   0  0  0  0  0  0
   17.6313   -0.4746    0.4946 H   0  0  0  0  0  0
  1  2  2  0  0  0
  1  5  1  0  0  0
  1 24  1  0  0  0
  2  3  1  0  0  0
  2 25  1  0  0  0
  3  4  1  0  0  0
  3 38  1  0  0  0
  4  5  2  0  0  0
  4  9  1  0  0  0
  5  6  1  0  0  0
  6  7  2  0  0  0
  6 12  1  0  0  0
  7  8  1  0  0  0
  7 10  1  0  0  0
  8  9  2  0  0  0
  8 26  1  0  0  0
 10 11  2  0  0  0
 11 12  1  0  0  0
 12 13  1  0  0  0
 13 14  1  0  0  0
 13 18  1  0  0  0
 13 27  1  0  0  0
 14 15  1  0  0  0
 14 28  1  0  0  0
 14 29  1  0  0  0
 15 16  1  0  0  0
 15 30  1  0  0  0
 15 31  1  0  0  0
 16 17  1  0  0  0
 16 32  1  0  0  0
 16 33  1  0  0  0
 17 18  1  0  0  0
 17 19  1  0  0  0
 18 34  1  0  0  0
 18 35  1  0  0  0
 19 20  2  0  0  0
 19 21  1  0  0  0
 21 22  1  0  0  0
 21 36  1  0  0  0
 21 37  1  0  0  0
 22 23  3  0  0  0
M  CHG  1   3   1
M  END
> <s_m_source_file>
../4i5c_ligand.sdf

> <i_m_source_file_index>
1

> <s_epik_input>
W25IXTFbY0hdW2NIXWMoYzEyKWMzYyhbY0hdbjIpbm5uM1tDQEBIXTRbQ0gyXVtDSDJdW0NIMl1OKFtDSDJdNClDKD1PKVtDSDJdQyNO

> <s_epik_cmdline>
J2VwaWtfYXBwJywgJy1pbWFlJywgJ2xpZ2FuZF9wcm8ubWFlJywgJy1vbWFlJywgJ2xpZ2FuZF9wcmVwLm1hZScsICctbXMnLCAnMScsICctcGgnLCAnNycsICctcGh0JywgJzAuNScsICctbnQn

> <r_lp_tautomer_probability>
1

> <r_epik_Ionization_Penalty>
  0.0000

> <r_epik_Ionization_Penalty_Charging>
  0.0000

> <r_epik_Ionization_Penalty_Neutral>
  0.0000

> <r_epik_State_Penalty>
 -0.0000

> <r_epik_Charging_Adjusted_Penalty>
0

> <i_epik_Tot_Q>
1

> <i_epik_Tot_abs_Q>
1

$$$$
