4i5m_ligand
                    3D
 Schrodinger Suite 2020-3.
 78 82  0  0  1  0            999 V2000
    7.7260    4.7640   10.1320 N   0  0  0  0  0  0
   11.2980    6.8590   10.6660 N   0  0  0  0  0  0
    8.8630    4.0640    9.9880 C   0  0  0  0  0  0
   12.6150    6.1830   10.5120 C   0  0  1  0  0  0
   12.5520    4.7250   10.2100 C   0  0  0  0  0  0
    6.2180    7.9830   10.8810 C   0  0  0  0  0  0
   11.1610    8.2950   11.0310 C   0  0  0  0  0  0
   12.7550    6.5100    7.9810 C   0  0  0  0  0  0
   12.5750   10.2340   11.6210 C   0  0  0  0  0  0
   11.1030    9.2870    9.8750 C   0  0  0  0  0  0
    4.5000    9.7790   10.9460 C   0  0  0  0  0  0
    7.1320    8.8750   11.4580 C   0  0  0  0  0  0
    5.0200   12.0380   11.8530 C   0  0  0  0  0  0
    5.1490   14.4400   11.4380 C   0  0  1  0  0  0
    4.2150   16.4250   10.2000 C   0  0  0  0  0  0
    5.5600   16.7450   12.3440 C   0  0  0  0  0  0
    4.0820   12.1810   12.6220 O   0  0  0  0  0  0
    5.6590   13.0830   11.3210 N   0  0  0  0  0  0
    6.1500   15.3460   12.1510 C   0  0  0  0  0  0
    5.1230   17.2180   11.0290 N   0  3  2  0  0  0
    5.5870   18.5100   10.5400 C   0  0  0  0  0  0
    4.8400   15.0350   10.0650 C   0  0  0  0  0  0
    5.4420   10.6350   11.5130 C   0  0  0  0  0  0
    4.8330    8.4660   10.6180 C   0  0  0  0  0  0
    3.9060    7.6240   10.0530 O   0  0  0  0  0  0
    2.5080    7.9190   10.0930 C   0  0  0  0  0  0
    6.7430   10.1830   11.7680 C   0  0  0  0  0  0
    6.5070    6.6910   10.5570 N   0  0  0  0  0  0
    7.7180    6.0890   10.4380 C   0  0  0  0  0  0
    8.8830    6.7630   10.6130 N   0  0  0  0  0  0
   10.0840    6.1460   10.4900 C   0  0  0  0  0  0
   11.6410   10.6020   10.4410 C   0  0  0  0  0  0
   12.2400    8.7830   12.0050 C   0  0  0  0  0  0
   13.3960    6.7900    9.3310 C   0  0  0  0  0  0
   13.6410    4.1110   10.0740 O   0  0  0  0  0  0
   11.3270    4.0300   10.0150 N   0  0  0  0  0  0
   11.3470    2.5970    9.6830 C   0  0  0  0  0  0
   10.0930    4.7020   10.1540 C   0  0  0  0  0  0
    8.8253    3.0026    9.7426 H   0  0  0  0  0  0
   13.0638    6.3141   11.5077 H   0  0  0  0  0  0
   10.1670    8.2572   11.5005 H   0  0  0  0  0  0
   13.3602    6.9691    7.1855 H   0  0  0  0  0  0
   11.7406    6.9350    7.9616 H   0  0  0  0  0  0
   12.7004    5.4233    7.8194 H   0  0  0  0  0  0
   13.6234   10.3243   11.3007 H   0  0  0  0  0  0
   12.3887   10.9170   12.4629 H   0  0  0  0  0  0
   11.7262    8.9207    9.0459 H   0  0  0  0  0  0
   10.0626    9.3915    9.5333 H   0  0  0  0  0  0
    3.4895   10.1410   10.7565 H   0  0  0  0  0  0
    8.1508    8.5484   11.6663 H   0  0  0  0  0  0
    4.2298   14.3299   12.0322 H   0  0  0  0  0  0
    3.2310   16.3650   10.6880 H   0  0  0  0  0  0
    4.1071   16.9020    9.2147 H   0  0  0  0  0  0
    4.7081   16.6911   13.0378 H   0  0  0  0  0  0
    6.3290   17.4132   12.7589 H   0  0  0  0  0  0
    6.5985   12.8931   10.7812 H   0  0  0  0  0  0
    6.3927   14.9206   13.1359 H   0  0  0  0  0  0
    7.0674   15.4240   11.5491 H   0  0  0  0  0  0
    4.2610   17.7177   11.4952 H   0  0  0  0  0  0
    5.1611   18.6994    9.5437 H   0  0  0  0  0  0
    6.6850   18.5044   10.4744 H   0  0  0  0  0  0
    5.2651   19.3014   11.2329 H   0  0  0  0  0  0
    5.7705   15.1207    9.4847 H   0  0  0  0  0  0
    4.1346   14.3805    9.5321 H   0  0  0  0  0  0
    1.9497    7.1185    9.5855 H   0  0  0  0  0  0
    2.3206    8.8761    9.5843 H   0  0  0  0  0  0
    2.1779    7.9893   11.1400 H   0  0  0  0  0  0
    7.4667   10.8635   12.2167 H   0  0  0  0  0  0
    5.6931    5.9806   10.3500 H   0  0  0  0  0  0
   10.8189   11.2343   10.8075 H   0  0  0  0  0  0
   12.2129   11.1502    9.6778 H   0  0  0  0  0  0
   11.8544    8.7338   13.0340 H   0  0  0  0  0  0
   13.1305    8.1434   11.9162 H   0  0  0  0  0  0
   13.4527    7.8819    9.4514 H   0  0  0  0  0  0
   14.4125    6.3703    9.3092 H   0  0  0  0  0  0
   12.3889    2.2505    9.6169 H   0  0  0  0  0  0
   10.8455    2.4374    8.7171 H   0  0  0  0  0  0
   10.8216    2.0317   10.4668 H   0  0  0  0  0  0
  1  3  2  0  0  0
  1 29  1  0  0  0
  2  4  1  0  0  0
  2  7  1  0  0  0
  2 31  1  0  0  0
  3 38  1  0  0  0
  3 39  1  0  0  0
  4  5  1  0  0  0
  4 34  1  0  0  0
  4 40  1  0  0  0
  5 35  2  0  0  0
  5 36  1  0  0  0
  6 12  2  0  0  0
  6 24  1  0  0  0
  6 28  1  0  0  0
  7 10  1  0  0  0
  7 33  1  0  0  0
  7 41  1  0  0  0
  8 34  1  0  0  0
  8 42  1  0  0  0
  8 43  1  0  0  0
  8 44  1  0  0  0
  9 32  1  0  0  0
  9 33  1  0  0  0
  9 45  1  0  0  0
  9 46  1  0  0  0
 10 32  1  0  0  0
 10 47  1  0  0  0
 10 48  1  0  0  0
 11 23  1  0  0  0
 11 24  2  0  0  0
 11 49  1  0  0  0
 12 27  1  0  0  0
 12 50  1  0  0  0
 13 17  2  0  0  0
 13 18  1  0  0  0
 13 23  1  0  0  0
 14 18  1  0  0  0
 14 19  1  0  0  0
 14 22  1  0  0  0
 14 51  1  0  0  0
 15 20  1  0  0  0
 15 22  1  0  0  0
 15 52  1  0  0  0
 15 53  1  0  0  0
 16 19  1  0  0  0
 16 20  1  0  0  0
 16 54  1  0  0  0
 16 55  1  0  0  0
 18 56  1  0  0  0
 19 57  1  0  0  0
 19 58  1  0  0  0
 20 21  1  0  0  0
 20 59  1  0  0  0
 21 60  1  0  0  0
 21 61  1  0  0  0
 21 62  1  0  0  0
 22 63  1  0  0  0
 22 64  1  0  0  0
 23 27  2  0  0  0
 24 25  1  0  0  0
 25 26  1  0  0  0
 26 65  1  0  0  0
 26 66  1  0  0  0
 26 67  1  0  0  0
 27 68  1  0  0  0
 28 29  1  0  0  0
 28 69  1  0  0  0
 29 30  2  0  0  0
 30 31  1  0  0  0
 31 38  2  0  0  0
 32 70  1  0  0  0
 32 71  1  0  0  0
 33 72  1  0  0  0
 33 73  1  0  0  0
 34 74  1  0  0  0
 34 75  1  0  0  0
 36 37  1  0  0  0
 36 38  1  0  0  0
 37 76  1  0  0  0
 37 77  1  0  0  0
 37 78  1  0  0  0
M  CHG  1  20   1
M  END
> <s_m_source_file>
../4i5m_ligand.sdf

> <i_m_source_file_index>
1

> <s_epik_input>
W0NIMl0xW0NIMl1bQ0gyXVtDSDJdW0NIXTFOMltDQEhdKFtDSDJdW0NIM10pQyg9TylOKFtDSDNdKWMoYzIzKVtjSF1uYyhuMylbTkhdYzRbY0hdW2NIXWMoW2NIXWM0T1tDSDNdKUMoPU8pW05IXVtDQEhdNVtDSDJdW0NIMl1bTkBIK10oW0NIM10pW0NIMl1bQ0gyXTU=

> <s_epik_cmdline>
J2VwaWtfYXBwJywgJy1pbWFlJywgJ2xpZ2FuZF9wcm8ubWFlJywgJy1vbWFlJywgJ2xpZ2FuZF9wcmVwLm1hZScsICctbXMnLCAnMScsICctcGgnLCAnNycsICctcGh0JywgJzAuNScsICctbnQn

> <r_lp_tautomer_probability>
0.999999648617923

> <r_epik_Ionization_Penalty>
  0.0476

> <r_epik_Ionization_Penalty_Charging>
  0.0049

> <r_epik_Ionization_Penalty_Neutral>
  0.0426

> <r_epik_State_Penalty>
  0.0356

> <r_epik_Charging_Adjusted_Penalty>
0.0405113066483781

> <i_epik_Tot_Q>
1

> <i_epik_Tot_abs_Q>
1

$$$$
