4i67_ligand
                    3D
 Schrodinger Suite 2020-3.
137147  0  0  1  0            999 V2000
   35.0110  -15.2280  -19.6060 O   0  5  0  0  0  0
   36.5750  -15.5130  -19.8470 P   0  0  0  0  0  0
   36.6730  -16.6980  -20.7420 O   0  0  0  0  0  0
   37.2210  -14.2330  -20.2520 O   0  0  0  0  0  0
   37.1230  -15.9410  -18.4060 O   0  0  0  0  0  0
   38.5270  -16.0080  -18.1470 C   0  0  0  0  0  0
   38.8580  -16.4920  -16.7490 C   0  0  1  0  0  0
   38.0940  -15.7370  -15.7690 O   0  0  0  0  0  0
   38.5790  -17.9660  -16.4620 C   0  0  1  0  0  0
   39.5320  -18.4470  -15.5170 O   0  0  0  0  0  0
   37.2160  -17.9200  -15.7910 C   0  0  1  0  0  0
   36.9350  -19.0220  -14.9510 O   0  0  0  0  0  0
   37.3060  -16.6180  -14.9950 C   0  0  2  0  0  0
   36.0040  -15.9920  -14.8180 N   0  0  0  0  0  0
   35.3800  -15.1250  -15.6830 C   0  0  0  0  0  0
   34.2020  -14.7470  -15.2680 N   0  0  0  0  0  0
   34.0440  -15.4190  -14.0650 C   0  0  0  0  0  0
   32.9640  -15.4040  -13.1560 C   0  0  0  0  0  0
   31.9040  -14.7700  -13.2430 O   0  0  0  0  0  0
   33.2240  -16.2330  -12.0650 N   0  0  0  0  0  0
   34.3690  -16.9770  -11.8750 C   0  0  0  0  0  0
   34.4220  -17.7130  -10.7550 N   0  0  0  0  0  0
   35.3870  -17.0010  -12.7190 N   0  0  0  0  0  0
   35.1500  -16.1960  -13.7760 C   0  0  0  0  0  0
   40.8570  -19.2010  -16.0140 P   0  0  2  0  0  0
   40.4430  -20.3490  -16.8640 O   0  5  0  0  0  0
   41.7030  -19.4160  -14.8120 O   0  0  0  0  0  0
   41.5910  -18.1310  -16.9410 O   0  0  0  0  0  0
   42.6760  -17.3640  -16.4300 C   0  0  0  0  0  0
   43.1360  -16.3000  -17.3970 C   0  0  1  0  0  0
   42.0360  -15.3900  -17.6780 O   0  0  0  0  0  0
   44.2790  -15.4320  -16.8870 C   0  0  1  0  0  0
   45.1080  -15.0460  -17.9810 O   0  0  0  0  0  0
   43.5520  -14.2100  -16.3410 C   0  0  1  0  0  0
   44.3450  -13.0530  -16.2810 O   0  0  0  0  0  0
   42.4090  -14.0690  -17.3370 C   0  0  2  0  0  0
   41.2150  -13.3930  -16.8180 N   0  0  0  0  0  0
   40.5080  -12.4310  -17.4980 C   0  0  0  0  0  0
   39.4680  -11.9930  -16.8470 N   0  0  0  0  0  0
   39.4720  -12.7120  -15.6520 C   0  0  0  0  0  0
   38.5680  -12.6620  -14.5480 C   0  0  0  0  0  0
   37.5640  -11.9500  -14.3780 O   0  0  0  0  0  0
   38.9380  -13.5500  -13.5510 N   0  0  0  0  0  0
   40.0240  -14.3840  -13.6110 C   0  0  0  0  0  0
   40.2040  -15.1650  -12.5380 N   0  0  0  0  0  0
   40.8690  -14.4430  -14.6290 N   0  0  0  0  0  0
   40.5450  -13.5830  -15.6160 C   0  0  0  0  0  0
   46.5570  -15.7180  -18.1610 P   0  0  2  0  0  0
   47.3110  -14.9150  -19.1540 O   0  0  0  0  0  0
   46.3770  -17.1900  -18.2910 O   0  5  0  0  0  0
   47.2630  -15.4600  -16.7650 O   0  0  0  0  0  0
   47.6640  -14.1520  -16.3870 C   0  0  0  0  0  0
   48.9440  -14.1970  -15.5970 C   0  0  1  0  0  0
   48.7960  -15.1430  -14.5050 O   0  0  0  0  0  0
   50.1630  -14.6470  -16.3830 C   0  0  1  0  0  0
   51.2960  -13.9790  -15.8690 O   0  0  0  0  0  0
   50.2740  -16.1260  -16.0370 C   0  0  1  0  0  0
   51.5810  -16.6410  -16.1440 O   0  0  0  0  0  0
   49.8010  -16.1370  -14.5920 C   0  0  2  0  0  0
   49.2210  -17.4140  -14.1620 N   0  0  0  0  0  0
   48.1530  -18.0740  -14.7330 C   0  0  0  0  0  0
   47.8450  -19.1910  -14.1270 N   0  0  0  0  0  0
   48.7640  -19.2780  -13.0870 C   0  0  0  0  0  0
   48.9220  -20.2840  -12.0930 C   0  0  0  0  0  0
   48.2610  -21.3190  -11.9350 O   0  0  0  0  0  0
   49.9760  -19.9860  -11.2350 N   0  0  0  0  0  0
   50.7690  -18.8680  -11.3250 C   0  0  0  0  0  0
   51.7230  -18.7780  -10.3930 N   0  0  0  0  0  0
   50.6430  -17.9170  -12.2500 N   0  0  0  0  0  0
   49.6200  -18.1850  -13.0920 C   0  0  0  0  0  0
   52.4710  -13.5840  -16.8660 P   0  0  2  0  0  0
   53.3910  -14.7480  -16.9920 O   0  5  0  0  0  0
   53.2390  -12.4260  -16.1110 O   0  0  0  0  0  0
   53.5760  -11.2430  -16.8070 C   0  0  0  0  0  0
   53.1860  -10.0310  -16.0170 C   0  0  2  0  0  0
   54.2340   -8.9290  -16.0290 C   0  0  1  0  0  0
   53.5750   -7.6750  -15.9020 O   0  0  0  0  0  0
   55.0330   -9.2280  -14.7660 C   0  0  1  0  0  0
   55.7610   -8.1330  -14.2470 O   0  0  0  0  0  0
   53.9260   -9.6850  -13.8200 C   0  0  1  0  0  0
   53.0130  -10.4110  -14.6220 O   0  0  0  0  0  0
   54.3800  -10.5460  -12.7200 N   0  3  0  0  0  0
   54.2940  -11.9070  -12.7740 C   0  0  0  0  0  0
   54.7120  -12.6690  -11.7490 C   0  0  0  0  0  0
   55.2390  -12.0120  -10.5990 C   0  0  0  0  0  0
   55.6610  -12.7270   -9.5490 N   0  0  0  0  0  0
   55.3300  -10.6830  -10.5370 N   0  0  0  0  0  0
   54.9010   -9.9260  -11.5830 C   0  0  0  0  0  0
   54.9580   -8.6850  -11.5800 O   0  0  0  0  0  0
   51.8220  -12.9700  -18.0530 O   0  0  0  0  0  0
   54.2600   -6.3580  -16.4940 P   0  0  0  0  0  0
   54.3320   -5.3880  -15.3710 O   0  5  0  0  0  0
   53.2130   -5.8410  -17.5870 O   0  0  0  0  0  0
   55.4850   -6.8010  -17.2080 O   0  0  0  0  0  0
   36.9718  -13.7733  -21.2198 H   0  0  0  0  0  0
   38.9982  -16.7029  -18.8577 H   0  0  0  0  0  0
   38.9696  -15.0078  -18.2641 H   0  0  0  0  0  0
   39.9375  -16.3074  -16.6461 H   0  0  0  0  0  0
   38.6642  -18.6415  -17.3260 H   0  0  0  0  0  0
   36.3712  -18.0310  -16.4866 H   0  0  0  0  0  0
   36.8399  -20.0304  -15.3800 H   0  0  0  0  0  0
   37.7397  -16.7652  -13.9949 H   0  0  0  0  0  0
   35.8237  -14.7877  -16.6197 H   0  0  0  0  0  0
   33.6407  -17.7011  -10.0994 H   0  0  0  0  0  0
   36.2666  -17.6250  -12.5022 H   0  0  0  0  0  0
   42.3665  -16.8657  -15.4995 H   0  0  0  0  0  0
   43.5292  -18.0272  -16.2245 H   0  0  0  0  0  0
   43.4515  -16.8402  -18.3018 H   0  0  0  0  0  0
   44.9694  -15.9228  -16.1853 H   0  0  0  0  0  0
   43.2811  -14.2646  -15.2763 H   0  0  0  0  0  0
   45.2092  -13.0131  -15.6016 H   0  0  0  0  0  0
   42.7252  -13.4829  -18.2125 H   0  0  0  0  0  0
   40.7900  -12.0692  -18.4868 H   0  0  0  0  0  0
   39.5548  -15.1109  -11.7532 H   0  0  0  0  0  0
   41.7178  -15.1420  -14.5994 H   0  0  0  0  0  0
   47.8234  -13.5424  -17.2887 H   0  0  0  0  0  0
   46.8795  -13.6925  -15.7678 H   0  0  0  0  0  0
   49.1025  -13.1723  -15.2299 H   0  0  0  0  0  0
   50.1467  -14.4114  -17.4573 H   0  0  0  0  0  0
   49.7622  -16.8006  -16.7392 H   0  0  0  0  0  0
   52.0697  -16.7011  -17.1277 H   0  0  0  0  0  0
   50.6310  -15.9340  -13.8993 H   0  0  0  0  0  0
   47.6172  -17.7004  -15.6056 H   0  0  0  0  0  0
   51.8174  -19.5087   -9.6876 H   0  0  0  0  0  0
   51.3295  -17.0575  -12.2522 H   0  0  0  0  0  0
   54.6616  -11.2175  -16.9825 H   0  0  0  0  0  0
   53.0481  -11.2222  -17.7718 H   0  0  0  0  0  0
   52.2461   -9.6669  -16.4576 H   0  0  0  0  0  0
   54.8297   -8.8326  -16.9487 H   0  0  0  0  0  0
   55.8862   -9.9067  -14.9123 H   0  0  0  0  0  0
   56.5903   -7.7001  -14.8256 H   0  0  0  0  0  0
   53.4361   -8.8306  -13.3301 H   0  0  0  0  0  0
   53.8797  -12.3835  -13.6625 H   0  0  0  0  0  0
   54.6499  -13.7562  -11.7956 H   0  0  0  0  0  0
   55.5987  -13.8250   -9.5705 H   0  0  0  0  0  0
   52.2290   -5.4642  -17.2710 H   0  0  0  0  0  0
   56.0701  -12.2165   -8.6646 H   0  0  0  0  0  0
  1  2  1  0  0  0
  2  3  2  0  0  0
  2  4  1  0  0  0
  2  5  1  0  0  0
  4 95  1  0  0  0
  5  6  1  0  0  0
  6  7  1  0  0  0
  6 96  1  0  0  0
  6 97  1  0  0  0
  7  8  1  0  0  0
  7  9  1  0  0  0
  7 98  1  0  0  0
  8 13  1  0  0  0
  9 10  1  0  0  0
  9 11  1  0  0  0
  9 99  1  0  0  0
 10 25  1  0  0  0
 11 12  1  0  0  0
 11 13  1  0  0  0
 11100  1  0  0  0
 12101  1  0  0  0
 13 14  1  0  0  0
 13102  1  0  0  0
 14 15  1  0  0  0
 14 24  1  0  0  0
 15 16  2  0  0  0
 15103  1  0  0  0
 16 17  1  0  0  0
 17 18  1  0  0  0
 17 24  2  0  0  0
 18 19  2  0  0  0
 18 20  1  0  0  0
 20 21  1  0  0  0
 21 22  2  0  0  0
 21 23  1  0  0  0
 22104  1  0  0  0
 23 24  1  0  0  0
 23105  1  0  0  0
 25 26  1  0  0  0
 25 27  2  0  0  0
 25 28  1  0  0  0
 28 29  1  0  0  0
 29 30  1  0  0  0
 29106  1  0  0  0
 29107  1  0  0  0
 30 31  1  0  0  0
 30 32  1  0  0  0
 30108  1  0  0  0
 31 36  1  0  0  0
 32 33  1  0  0  0
 32 34  1  0  0  0
 32109  1  0  0  0
 33 48  1  0  0  0
 34 35  1  0  0  0
 34 36  1  0  0  0
 34110  1  0  0  0
 35111  1  0  0  0
 36 37  1  0  0  0
 36112  1  0  0  0
 37 38  1  0  0  0
 37 47  1  0  0  0
 38 39  2  0  0  0
 38113  1  0  0  0
 39 40  1  0  0  0
 40 41  1  0  0  0
 40 47  2  0  0  0
 41 42  2  0  0  0
 41 43  1  0  0  0
 43 44  1  0  0  0
 44 45  2  0  0  0
 44 46  1  0  0  0
 45114  1  0  0  0
 46 47  1  0  0  0
 46115  1  0  0  0
 48 49  2  0  0  0
 48 50  1  0  0  0
 48 51  1  0  0  0
 51 52  1  0  0  0
 52 53  1  0  0  0
 52116  1  0  0  0
 52117  1  0  0  0
 53 54  1  0  0  0
 53 55  1  0  0  0
 53118  1  0  0  0
 54 59  1  0  0  0
 55 56  1  0  0  0
 55 57  1  0  0  0
 55119  1  0  0  0
 56 71  1  0  0  0
 57 58  1  0  0  0
 57 59  1  0  0  0
 57120  1  0  0  0
 58121  1  0  0  0
 59 60  1  0  0  0
 59122  1  0  0  0
 60 61  1  0  0  0
 60 70  1  0  0  0
 61 62  2  0  0  0
 61123  1  0  0  0
 62 63  1  0  0  0
 63 64  1  0  0  0
 63 70  2  0  0  0
 64 65  2  0  0  0
 64 66  1  0  0  0
 66 67  1  0  0  0
 67 68  2  0  0  0
 67 69  1  0  0  0
 68124  1  0  0  0
 69 70  1  0  0  0
 69125  1  0  0  0
 71 72  1  0  0  0
 71 73  1  0  0  0
 71 90  2  0  0  0
 73 74  1  0  0  0
 74 75  1  0  0  0
 74126  1  0  0  0
 74127  1  0  0  0
 75 76  1  0  0  0
 75 81  1  0  0  0
 75128  1  0  0  0
 76 77  1  0  0  0
 76 78  1  0  0  0
 76129  1  0  0  0
 77 91  1  0  0  0
 78 79  1  0  0  0
 78 80  1  0  0  0
 78130  1  0  0  0
 79131  1  0  0  0
 80 81  1  0  0  0
 80 82  1  0  0  0
 80132  1  0  0  0
 82 83  2  0  0  0
 82 88  1  0  0  0
 83 84  1  0  0  0
 83133  1  0  0  0
 84 85  2  0  0  0
 84134  1  0  0  0
 85 86  1  0  0  0
 85 87  1  0  0  0
 86135  1  0  0  0
 86137  1  0  0  0
 87 88  1  0  0  0
 88 89  2  0  0  0
 91 92  1  0  0  0
 91 93  1  0  0  0
 91 94  2  0  0  0
 93136  1  0  0  0
M  CHG  6   1  -1  26  -1  50  -1  72  -1  82   1  92  -1
M  END
> <s_m_source_file>
../4i67_ligand.sdf

> <i_m_source_file_index>
1

> <s_epik_input>
Tz1jMVtuSF0vYyg9TlxbSF0pW25IXWMoYzEyKW4oW2NIXW4yKVtDQEhdKE9bQ0BASF0zW0NIMl1PUCg9TykoW09IXSlbT0hdKVtDQEhdKFtPSF0pW0NAQEhdM09bUEBAXSg9TykoW09IXSlPW0NIMl1bQ0BIXTRPW0NAQEhdKG4oW2NIXW41KWMoYzU2KVtuSF1jKD1OXFtIXSlcW25IXWM2PU8pW0NASF0oW09IXSlbQ0BASF00T1tQQF0oPU8pKFtPSF0pT1tDSDJdW0NASF03T1tDQEBIXShuKFtjSF1uOCljKGM4OSlbbkhdYyg9TlxbSF0pXFtuSF1jOT1PKVtDQEhdKFtPSF0pW0NAQEhdN09bUEBdKD1PKShbT0hdKU9bQ0gyXVtDQEBIXTFbQ0BASF0oT1AoPU8pKFtPSF0pW09IXSlbQ0BASF0oW09IXSlbQ0BASF0oTzEpbjFbY0hdW2NIXS9jKD1OL1tIXSlbbkhdYzE9Tw==

> <s_epik_cmdline>
J2VwaWtfYXBwJywgJy1pbWFlJywgJ2xpZ2FuZF9wcm8ubWFlJywgJy1vbWFlJywgJ2xpZ2FuZF9wcmVwLm1hZScsICctbXMnLCAnMScsICctcGgnLCAnNycsICctcGh0JywgJzAuNScsICctbnQn

> <r_lp_tautomer_probability>
1

> <r_epik_Ionization_Penalty>
  4.8884

> <r_epik_Ionization_Penalty_Charging>
  2.5342

> <r_epik_Ionization_Penalty_Neutral>
  2.3542

> <r_epik_State_Penalty>
 -0.0000

> <r_epik_Charging_Adjusted_Penalty>
2.53420638085035

> <i_epik_Tot_Q>
-4

> <i_epik_Tot_abs_Q>
6

> <s_epik_Chemistry_Notes>
This compound has an imine and may undergo hydrolysis. This compound contains an acetal/aminal-like group ( X-CH(R)-Y where X, Y are N, S, or O) that may be acid/base labile, releasing an aldehyde.

$$$$
