4i6b_ligand
                    3D
 Schrodinger Suite 2020-3.
 39 41  0  0  1  0            999 V2000
   13.7450    4.3300   10.2780 O   0  0  0  0  0  0
   12.6000    4.8340   10.3160 C   0  0  0  0  0  0
   11.4550    4.0350   10.0730 N   0  0  0  0  0  0
   11.6200    2.6010    9.7820 C   0  0  0  0  0  0
   10.1710    4.6340   10.0860 C   0  0  0  0  0  0
   12.5290    6.2920   10.5390 C   0  0  1  0  0  0
   13.1470    6.8470    9.2290 C   0  0  0  0  0  0
   12.3560    6.5460    7.9420 C   0  0  0  0  0  0
   11.1840    6.8780   10.6280 N   0  0  0  0  0  0
   11.0030    8.3190   10.9630 C   0  0  0  0  0  0
   10.8300    9.3240    9.8410 C   0  0  0  0  0  0
   11.1170   10.6690   10.5140 C   0  0  0  0  0  0
   12.0380   10.3940   11.7110 C   0  0  0  0  0  0
   12.1130    8.8760   11.8590 C   0  0  0  0  0  0
   10.0410    6.0850   10.3890 C   0  0  0  0  0  0
    8.7990    6.6240   10.4060 N   0  0  0  0  0  0
    7.7250    5.8570   10.1600 C   0  0  0  0  0  0
    7.8190    4.5420    9.8900 N   0  0  0  0  0  0
    9.0000    3.9100    9.8540 C   0  0  0  0  0  0
   12.6877    2.3393    9.8216 H   0  0  0  0  0  0
   11.2260    2.3828    8.7784 H   0  0  0  0  0  0
   11.0696    2.0097   10.5286 H   0  0  0  0  0  0
   12.9751    6.5076   11.5211 H   0  0  0  0  0  0
   13.2251    7.9422    9.2957 H   0  0  0  0  0  0
   14.1488    6.4161    9.0849 H   0  0  0  0  0  0
   12.8801    6.9824    7.0790 H   0  0  0  0  0  0
   11.3497    6.9834    8.0194 H   0  0  0  0  0  0
   12.2734    5.4573    7.8086 H   0  0  0  0  0  0
   10.0244    8.2131   11.4540 H   0  0  0  0  0  0
   11.5438    9.0998    9.0347 H   0  0  0  0  0  0
    9.8038    9.2635    9.4495 H   0  0  0  0  0  0
   11.6087   11.3411    9.7953 H   0  0  0  0  0  0
   10.1717   11.1199   10.8501 H   0  0  0  0  0  0
   13.0329   10.8198   11.5136 H   0  0  0  0  0  0
   11.6137   10.8570   12.6141 H   0  0  0  0  0  0
   11.9350    8.5656   12.8992 H   0  0  0  0  0  0
   13.0856    8.4881   11.5219 H   0  0  0  0  0  0
    6.7374    6.3178   10.1797 H   0  0  0  0  0  0
    9.0460    2.8411    9.6456 H   0  0  0  0  0  0
  1  2  2  0  0  0
  2  3  1  0  0  0
  2  6  1  0  0  0
  3  4  1  0  0  0
  3  5  1  0  0  0
  4 20  1  0  0  0
  4 21  1  0  0  0
  4 22  1  0  0  0
  5 15  2  0  0  0
  5 19  1  0  0  0
  6  7  1  0  0  0
  6  9  1  0  0  0
  6 23  1  0  0  0
  7  8  1  0  0  0
  7 24  1  0  0  0
  7 25  1  0  0  0
  8 26  1  0  0  0
  8 27  1  0  0  0
  8 28  1  0  0  0
  9 10  1  0  0  0
  9 15  1  0  0  0
 10 11  1  0  0  0
 10 14  1  0  0  0
 10 29  1  0  0  0
 11 12  1  0  0  0
 11 30  1  0  0  0
 11 31  1  0  0  0
 12 13  1  0  0  0
 12 32  1  0  0  0
 12 33  1  0  0  0
 13 14  1  0  0  0
 13 34  1  0  0  0
 13 35  1  0  0  0
 14 36  1  0  0  0
 14 37  1  0  0  0
 15 16  1  0  0  0
 16 17  2  0  0  0
 17 18  1  0  0  0
 17 38  1  0  0  0
 18 19  2  0  0  0
 19 39  1  0  0  0
M  END
> <s_m_source_file>
../4i6b_ligand.sdf

> <i_m_source_file_index>
1

> <s_epik_input>
W2NIXTFuW2NIXW5jKGMxMilOKFtDQEhdKFtDSDJdW0NIM10pQyg9TylOMltDSDNdKVtDSF0zW0NIMl1bQ0gyXVtDSDJdW0NIMl0z

> <s_epik_cmdline>
J2VwaWtfYXBwJywgJy1pbWFlJywgJ2xpZ2FuZF9wcm8ubWFlJywgJy1vbWFlJywgJ2xpZ2FuZF9wcmVwLm1hZScsICctbXMnLCAnMScsICctcGgnLCAnNycsICctcGh0JywgJzAuNScsICctbnQn

> <r_lp_tautomer_probability>
1

> <r_epik_Ionization_Penalty>
  0.0190

> <r_epik_Ionization_Penalty_Charging>
  0.0000

> <r_epik_Ionization_Penalty_Neutral>
  0.0190

> <r_epik_State_Penalty>
  0.0149

> <r_epik_Charging_Adjusted_Penalty>
0.0148815110105128

> <i_epik_Tot_Q>
0

> <i_epik_Tot_abs_Q>
0

$$$$
