4i6h_ligand
                    3D
 Schrodinger Suite 2020-3.
 52 56  0  0  1  0            999 V2000
   13.7190    4.1170   10.1560 O   0  0  0  0  0  0
   12.6470    4.7280   10.2210 C   0  0  0  0  0  0
   11.4290    4.0220   10.0570 N   0  0  0  0  0  0
   11.4480    2.5900    9.7820 C   0  0  0  0  0  0
   10.2200    4.7080   10.0900 C   0  0  0  0  0  0
   12.6810    6.1780   10.4590 C   0  0  1  0  0  0
   13.4640    6.8790    9.3500 C   0  0  0  0  0  0
   12.8110    6.8680    7.9960 C   0  0  0  0  0  0
   11.4000    6.8470   10.5220 N   0  0  0  0  0  0
   11.3590    8.2610   10.8260 C   0  0  0  0  0  0
   11.3430    9.3510    9.7660 C   0  0  0  0  0  0
   11.9910   10.5470   10.4440 C   0  0  0  0  0  0
   12.6490   10.0870   11.7400 C   0  0  0  0  0  0
   12.3450    8.6210   11.9150 C   0  0  0  0  0  0
   10.2220    6.1480   10.3360 C   0  0  0  0  0  0
    9.0650    6.7850   10.3830 N   0  0  0  0  0  0
    7.9150    6.1180   10.2400 C   0  0  0  0  0  0
    7.8890    4.8060    9.9920 N   0  0  0  0  0  0
    9.0010    4.0900    9.9040 C   0  0  0  0  0  0
    6.7890    6.7850   10.2650 N   0  0  0  0  0  0
    5.8230    6.4940    9.4430 C   0  0  0  0  0  0
    4.8280    7.4100    9.7070 C   0  0  0  0  0  0
    5.2380    8.2350   10.6630 N   0  0  0  0  0  0
    6.4710    7.8390   10.9530 C   0  0  0  0  0  0
    7.2610    8.5140   12.0130 C   0  0  0  0  0  0
    7.8530    7.7130   12.9620 C   0  0  0  0  0  0
    8.5830    8.9010   13.9330 S   0  0  0  0  0  0
    8.0650   10.2810   13.0560 C   0  0  0  0  0  0
    7.3370    9.8640   12.0330 N   0  0  0  0  0  0
   12.4864    2.2274    9.7974 H   0  0  0  0  0  0
   11.0083    2.4010    8.7916 H   0  0  0  0  0  0
   10.8636    2.0615   10.5496 H   0  0  0  0  0  0
   13.1014    6.2412   11.4735 H   0  0  0  0  0  0
   13.6110    7.9360    9.6168 H   0  0  0  0  0  0
   14.4428    6.3921    9.2281 H   0  0  0  0  0  0
   13.4530    7.3953    7.2750 H   0  0  0  0  0  0
   11.8352    7.3723    8.0554 H   0  0  0  0  0  0
   12.6670    5.8283    7.6668 H   0  0  0  0  0  0
   10.2982    8.2232   11.1145 H   0  0  0  0  0  0
   11.9147    9.0167    8.8877 H   0  0  0  0  0  0
   10.3043    9.5592    9.4698 H   0  0  0  0  0  0
   12.7501   10.9802    9.7761 H   0  0  0  0  0  0
   11.2235   11.3031   10.6659 H   0  0  0  0  0  0
   13.7355   10.2469   11.6764 H   0  0  0  0  0  0
   12.2421   10.6648   12.5830 H   0  0  0  0  0  0
   11.8926    8.4256   12.8984 H   0  0  0  0  0  0
   13.2543    8.0123   11.8022 H   0  0  0  0  0  0
    8.9526    3.0230    9.6867 H   0  0  0  0  0  0
    5.8048    5.6946    8.7022 H   0  0  0  0  0  0
    3.8587    7.4508    9.2101 H   0  0  0  0  0  0
    7.8536    6.6276   13.0622 H   0  0  0  0  0  0
    8.2950   11.3185   13.2987 H   0  0  0  0  0  0
  1  2  2  0  0  0
  2  3  1  0  0  0
  2  6  1  0  0  0
  3  4  1  0  0  0
  3  5  1  0  0  0
  4 30  1  0  0  0
  4 31  1  0  0  0
  4 32  1  0  0  0
  5 15  2  0  0  0
  5 19  1  0  0  0
  6  7  1  0  0  0
  6  9  1  0  0  0
  6 33  1  0  0  0
  7  8  1  0  0  0
  7 34  1  0  0  0
  7 35  1  0  0  0
  8 36  1  0  0  0
  8 37  1  0  0  0
  8 38  1  0  0  0
  9 10  1  0  0  0
  9 15  1  0  0  0
 10 11  1  0  0  0
 10 14  1  0  0  0
 10 39  1  0  0  0
 11 12  1  0  0  0
 11 40  1  0  0  0
 11 41  1  0  0  0
 12 13  1  0  0  0
 12 42  1  0  0  0
 12 43  1  0  0  0
 13 14  1  0  0  0
 13 44  1  0  0  0
 13 45  1  0  0  0
 14 46  1  0  0  0
 14 47  1  0  0  0
 15 16  1  0  0  0
 16 17  2  0  0  0
 17 18  1  0  0  0
 17 20  1  0  0  0
 18 19  2  0  0  0
 19 48  1  0  0  0
 20 21  1  0  0  0
 20 24  1  0  0  0
 21 22  2  0  0  0
 21 49  1  0  0  0
 22 23  1  0  0  0
 22 50  1  0  0  0
 23 24  2  0  0  0
 24 25  1  0  0  0
 25 26  2  0  0  0
 25 29  1  0  0  0
 26 27  1  0  0  0
 26 51  1  0  0  0
 27 28  1  0  0  0
 28 29  2  0  0  0
 28 52  1  0  0  0
M  END
> <s_m_source_file>
../4i6h_ligand.sdf

> <i_m_source_file_index>
1

> <s_epik_input>
W0NIMl0xW0NIMl1bQ0gyXVtDSDJdW0NIXTFOKFtDQEhdKFtDSDJdW0NIM10pQyg9TylOMltDSDNdKWMoYzIzKW5jKG5bY0hdMyktbjRbY0hdW2NIXW5jNC1jNVtjSF1zW2NIXW41

> <s_epik_cmdline>
J2VwaWtfYXBwJywgJy1pbWFlJywgJ2xpZ2FuZF9wcm8ubWFlJywgJy1vbWFlJywgJ2xpZ2FuZF9wcmVwLm1hZScsICctbXMnLCAnMScsICctcGgnLCAnNycsICctcGh0JywgJzAuNScsICctbnQn

> <r_lp_tautomer_probability>
1

> <r_epik_Ionization_Penalty>
  0.0002

> <r_epik_Ionization_Penalty_Charging>
  0.0002

> <r_epik_Ionization_Penalty_Neutral>
  0.0000

> <r_epik_State_Penalty>
 -0.0000

> <r_epik_Charging_Adjusted_Penalty>
0.00017863023121375

> <i_epik_Tot_Q>
0

> <i_epik_Tot_abs_Q>
0

$$$$
