4i6q_ligand
                    3D
 Schrodinger Suite 2020-3.
 42 45  0  0  1  0            999 V2000
    0.5090  -13.2080   -4.1710 C   0  0  0  0  0  0
    0.0160  -11.9270   -3.8610 C   0  0  0  0  0  0
   -1.2630  -12.0820   -3.4430 N   0  3  0  0  0  0
   -0.5380  -14.1740   -3.8890 C   0  0  0  0  0  0
   -1.6410  -13.3940   -3.4540 C   0  0  0  0  0  0
   -2.8020  -13.9700   -3.1100 N   0  0  0  0  0  0
   -2.9150  -15.2870   -3.1930 C   0  0  0  0  0  0
   -1.8490  -16.0740   -3.6720 C   0  0  0  0  0  0
   -0.6730  -15.5440   -3.9710 N   0  0  0  0  0  0
    1.8040  -13.5650   -4.6850 C   0  0  0  0  0  0
    2.0280  -14.8860   -4.8890 N   0  0  0  0  0  0
    2.6720  -12.7520   -4.9000 O   0  0  0  0  0  0
    3.2620  -15.5060   -5.4140 C   0  0  2  0  0  0
    3.2850  -15.6750   -6.9440 C   0  0  0  0  0  0
    3.4490  -16.8740   -4.6640 C   0  0  0  0  0  0
    2.0070  -16.1400   -7.6250 C   0  0  0  0  0  0
    2.5270  -14.7340   -7.8900 C   0  0  0  0  0  0
   -2.0730  -17.4230   -3.6550 O   0  0  0  0  0  0
   -1.0910  -18.2510   -4.2050 C   0  0  0  0  0  0
   -0.4840  -18.0130   -5.4340 C   0  0  0  0  0  0
    0.4340  -18.9510   -5.9860 C   0  0  0  0  0  0
    0.7160  -20.1480   -5.3320 C   0  0  0  0  0  0
    0.0720  -20.4190   -4.1210 C   0  0  0  0  0  0
   -0.8450  -19.5100   -3.5670 C   0  0  0  0  0  0
    0.6617  -11.0448   -3.9828 H   0  0  0  0  0  0
   -3.8441  -15.7679   -2.8870 H   0  0  0  0  0  0
    1.1679  -15.5162   -4.6186 H   0  0  0  0  0  0
    4.0677  -14.7845   -5.2134 H   0  0  0  0  0  0
    4.3336  -16.0035   -6.8946 H   0  0  0  0  0  0
    3.4257  -16.7027   -3.5777 H   0  0  0  0  0  0
    4.4160  -17.3168   -4.9447 H   0  0  0  0  0  0
    2.6362  -17.5601   -4.9446 H   0  0  0  0  0  0
    2.2228  -17.0211   -8.2471 H   0  0  0  0  0  0
    1.2600  -16.4040   -6.8619 H   0  0  0  0  0  0
    2.2196  -13.8318   -7.3410 H   0  0  0  0  0  0
    3.1823  -14.4489   -8.7263 H   0  0  0  0  0  0
   -0.7138  -17.0983   -5.9804 H   0  0  0  0  0  0
    0.9233  -18.7291   -6.9344 H   0  0  0  0  0  0
    1.4247  -20.8594   -5.7559 H   0  0  0  0  0  0
    0.2849  -21.3512   -3.5978 H   0  0  0  0  0  0
   -1.3719  -19.7639   -2.6472 H   0  0  0  0  0  0
   -1.8556  -11.2034   -3.1483 H   0  0  0  0  0  0
  1  2  2  0  0  0
  1  4  1  0  0  0
  1 10  1  0  0  0
  2  3  1  0  0  0
  2 25  1  0  0  0
  3  5  1  0  0  0
  3 42  1  0  0  0
  4  5  2  0  0  0
  4  9  1  0  0  0
  5  6  1  0  0  0
  6  7  2  0  0  0
  7  8  1  0  0  0
  7 26  1  0  0  0
  8  9  2  0  0  0
  8 18  1  0  0  0
 10 11  1  0  0  0
 10 12  2  0  0  0
 11 13  1  0  0  0
 11 27  1  0  0  0
 13 14  1  0  0  0
 13 15  1  0  0  0
 13 28  1  0  0  0
 14 16  1  0  0  0
 14 17  1  0  0  0
 14 29  1  0  0  0
 15 30  1  0  0  0
 15 31  1  0  0  0
 15 32  1  0  0  0
 16 17  1  0  0  0
 16 33  1  0  0  0
 16 34  1  0  0  0
 17 35  1  0  0  0
 17 36  1  0  0  0
 18 19  1  0  0  0
 19 20  2  0  0  0
 19 24  1  0  0  0
 20 21  1  0  0  0
 20 37  1  0  0  0
 21 22  2  0  0  0
 21 38  1  0  0  0
 22 23  1  0  0  0
 22 39  1  0  0  0
 23 24  2  0  0  0
 23 40  1  0  0  0
 24 41  1  0  0  0
M  CHG  1   3   1
M  END
> <s_m_source_file>
../4i6q_ligand.sdf

> <i_m_source_file_index>
1

> <s_epik_input>
W0NIMl0xW0NIMl1bQ0hdMVtDQEhdKFtDSDNdKVtOSF1DKD1PKWMyW2NIXVtuSF1jKGMyMyluW2NIXWMobjMpT2M0W2NIXVtjSF1bY0hdW2NIXVtjSF00

> <s_epik_cmdline>
J2VwaWtfYXBwJywgJy1pbWFlJywgJ2xpZ2FuZF9wcm8ubWFlJywgJy1vbWFlJywgJ2xpZ2FuZF9wcmVwLm1hZScsICctbXMnLCAnMScsICctcGgnLCAnNycsICctcGh0JywgJzAuNScsICctbnQn

> <r_lp_tautomer_probability>
1

> <r_epik_Ionization_Penalty>
  0.0000

> <r_epik_Ionization_Penalty_Charging>
  0.0000

> <r_epik_Ionization_Penalty_Neutral>
  0.0000

> <r_epik_State_Penalty>
 -0.0000

> <r_epik_Charging_Adjusted_Penalty>
0

> <i_epik_Tot_Q>
1

> <i_epik_Tot_abs_Q>
1

$$$$
