4i72_ligand
                    3D
 Schrodinger Suite 2020-3.
 34 36  0  0  1  0            999 V2000
   19.1230   41.9300   11.7770 C   0  0  0  0  0  0
   19.8260   44.0750   11.3100 C   0  0  0  0  0  0
   20.5780   44.1510   12.5570 C   0  0  0  0  0  0
   20.4950   42.9630   13.4040 C   0  0  0  0  0  0
   21.2060   49.1660   10.8210 O   0  0  0  0  0  0
   19.7790   48.9240   10.7090 C   0  0  0  0  0  0
   19.4520   48.3070    9.3580 C   0  0  1  0  0  0
   20.2460   47.1220    9.1260 N   0  0  1  0  0  0
   18.0300   47.7530    9.2920 C   0  0  1  0  0  0
   17.5010   48.0540    7.9860 O   0  0  0  0  0  0
   18.1120   46.2620    9.6680 C   0  0  1  0  0  0
   17.2320   45.4800    8.8890 O   0  0  0  0  0  0
   19.5810   45.8700    9.4330 C   0  0  2  0  0  0
   20.1210   45.3750   10.7010 C   0  0  0  0  0  0
   19.1410   42.9900   10.9290 N   0  0  0  0  0  0
   19.7550   41.9240   12.9590 N   0  0  0  0  0  0
   20.9270   46.1020   11.5690 C   0  0  0  0  0  0
   21.1810   45.3390   12.6610 N   0  3  0  0  0  0
   21.1540   42.9600   14.5790 N   0  0  0  0  0  0
   18.5672   41.0399   11.4821 H   0  0  0  0  0  0
   21.6180   49.6110   11.7387 H   0  0  0  0  0  0
   19.4605   48.2347   11.5048 H   0  0  0  0  0  0
   19.2367   49.8757   10.8095 H   0  0  0  0  0  0
   19.6632   49.0942    8.6192 H   0  0  0  0  0  0
   17.2902   48.2356    9.9476 H   0  0  0  0  0  0
   17.4154   49.0995    7.6548 H   0  0  0  0  0  0
   17.7434   46.0316   10.6785 H   0  0  0  0  0  0
   16.1465   45.6466    8.9513 H   0  0  0  0  0  0
   19.7539   45.1174    8.6496 H   0  0  0  0  0  0
   21.2426   47.1215   11.3027 H   0  0  0  0  0  0
   21.7399   43.8399   14.8833 H   0  0  0  0  0  0
   21.1062   42.0777   15.2341 H   0  0  0  0  0  0
   21.7821   45.5746   13.5516 H   0  0  0  0  0  0
   20.5330   47.0749    8.0652 H   0  0  0  0  0  0
  1 15  2  0  0  0
  1 16  1  0  0  0
  1 20  1  0  0  0
  2  3  2  0  0  0
  2 14  1  0  0  0
  2 15  1  0  0  0
  3  4  1  0  0  0
  3 18  1  0  0  0
  4 16  2  0  0  0
  4 19  1  0  0  0
  5  6  1  0  0  0
  5 21  1  0  0  0
  6  7  1  0  0  0
  6 22  1  0  0  0
  6 23  1  0  0  0
  7  8  1  0  0  0
  7  9  1  0  0  0
  7 24  1  0  0  0
  8 13  1  0  0  0
  8 34  1  0  0  0
  9 10  1  0  0  0
  9 11  1  0  0  0
  9 25  1  0  0  0
 10 26  1  0  0  0
 11 12  1  0  0  0
 11 13  1  0  0  0
 11 27  1  0  0  0
 12 28  1  0  0  0
 13 14  1  0  0  0
 13 29  1  0  0  0
 14 17  2  0  0  0
 17 18  1  0  0  0
 17 30  1  0  0  0
 18 33  1  0  0  0
 19 31  1  0  0  0
 19 32  1  0  0  0
M  CHG  1  18   1
M  END
> <s_m_source_file>
../4i72_ligand.sdf

> <i_m_source_file_index>
1

> <s_epik_input>
bjFbY0hdbmMoW05IMl0pYyhjMTIpW25IXVtjSF1jMltDQEBIXShbQ0BIXShbT0hdKVtDQEBIXTNbT0hdKVtOSDIrXVtDQEBIXTNbQ0gyXVtPSF0=

> <s_epik_cmdline>
J2VwaWtfYXBwJywgJy1pbWFlJywgJ2xpZ2FuZF9wcm8ubWFlJywgJy1vbWFlJywgJ2xpZ2FuZF9wcmVwLm1hZScsICctbXMnLCAnMScsICctcGgnLCAnNycsICctcGh0JywgJzAuNScsICctbnQn

> <r_epik_Ionization_Penalty>
  1.5830

> <r_epik_Ionization_Penalty_Charging>
  0.0000

> <r_epik_Ionization_Penalty_Neutral>
  1.5830

> <r_epik_State_Penalty>
  0.0298

> <r_epik_Charging_Adjusted_Penalty>
0.0297631751291433

> <i_epik_Tot_Q>
1

> <i_epik_Tot_abs_Q>
1

$$$$
