4i73_ligand
                    3D
 Schrodinger Suite 2020-3.
 36 38  0  0  1  0            999 V2000
    0.4780   -5.7870   21.6870 O   0  0  0  0  0  0
    1.6510   -5.7520   21.3330 C   0  0  0  0  0  0
    2.2130   -6.7600   20.6160 N   0  0  0  0  0  0
    3.5190   -6.7430   20.2540 C   0  0  0  0  0  0
    4.2940   -5.7030   20.5300 N   0  0  0  0  0  0
    3.8450   -4.6420   21.2100 C   0  0  0  0  0  0
    2.4800   -4.5790   21.6550 C   0  0  0  0  0  0
    4.5540   -3.3820   21.6060 C   0  0  0  0  0  0
    3.7220   -2.5320   22.3240 C   0  0  0  0  0  0
    2.1240   -3.1650   22.4940 S   0  0  0  0  0  0
    6.0130   -3.0650   21.2970 C   0  0  0  0  0  0
    6.2610   -2.5960   19.9010 N   0  3  2  0  0  0
    6.2640   -1.1190   19.6150 C   0  0  2  0  0  0
    5.0280   -0.3770   20.1440 C   0  0  0  0  0  0
    5.2250    0.0250   21.5170 O   0  0  0  0  0  0
    6.2960   -1.0740   18.0890 C   0  0  1  0  0  0
    7.6490   -0.8580   17.6230 O   0  0  0  0  0  0
    5.8210   -2.4670   17.6250 C   0  0  1  0  0  0
    6.8900   -3.1530   16.9740 O   0  0  0  0  0  0
    5.4540   -3.2360   18.8420 C   0  0  0  0  0  0
    1.6043   -7.6241   20.3115 H   0  0  0  0  0  0
    3.9397   -7.5992   19.7267 H   0  0  0  0  0  0
    4.0416   -1.5739   22.7338 H   0  0  0  0  0  0
    6.3658   -2.2694   21.9698 H   0  0  0  0  0  0
    6.6237   -3.9679   21.4450 H   0  0  0  0  0  0
    7.2982   -2.9588   19.8507 H   0  0  0  0  0  0
    7.1142   -0.6329   20.1158 H   0  0  0  0  0  0
    4.8491    0.5197   19.5325 H   0  0  0  0  0  0
    4.1514   -1.0392   20.0890 H   0  0  0  0  0  0
    4.4319    0.5701   22.0497 H   0  0  0  0  0  0
    5.7149   -0.2346   17.6796 H   0  0  0  0  0  0
    8.1666    0.0846   17.8545 H   0  0  0  0  0  0
    4.9939   -2.4234   16.9012 H   0  0  0  0  0  0
    7.3169   -2.7495   16.0440 H   0  0  0  0  0  0
    5.7255   -4.2993   18.7663 H   0  0  0  0  0  0
    4.3861   -3.1470   19.0905 H   0  0  0  0  0  0
  1  2  2  0  0  0
  2  3  1  0  0  0
  2  7  1  0  0  0
  3  4  1  0  0  0
  3 21  1  0  0  0
  4  5  2  0  0  0
  4 22  1  0  0  0
  5  6  1  0  0  0
  6  7  2  0  0  0
  6  8  1  0  0  0
  7 10  1  0  0  0
  8  9  2  0  0  0
  8 11  1  0  0  0
  9 10  1  0  0  0
  9 23  1  0  0  0
 11 12  1  0  0  0
 11 24  1  0  0  0
 11 25  1  0  0  0
 12 13  1  0  0  0
 12 20  1  0  0  0
 12 26  1  0  0  0
 13 14  1  0  0  0
 13 16  1  0  0  0
 13 27  1  0  0  0
 14 15  1  0  0  0
 14 28  1  0  0  0
 14 29  1  0  0  0
 15 30  1  0  0  0
 16 17  1  0  0  0
 16 18  1  0  0  0
 16 31  1  0  0  0
 17 32  1  0  0  0
 18 19  1  0  0  0
 18 20  1  0  0  0
 18 33  1  0  0  0
 19 34  1  0  0  0
 20 35  1  0  0  0
 20 36  1  0  0  0
M  CHG  1  12   1
M  END
> <s_m_source_file>
../4i73_ligand.sdf

> <i_m_source_file_index>
1

> <s_epik_input>
bjFbY0hdW25IXWMoPU8pYyhjMTIpc1tjSF1jMltDSDJdW05AQEgrXTNbQ0BIXShbQ0gyXVtPSF0pW0NAQEhdKFtPSF0pW0NAQEhdKFtPSF0pW0NIMl0z

> <s_epik_cmdline>
J2VwaWtfYXBwJywgJy1pbWFlJywgJ2xpZ2FuZF9wcm8ubWFlJywgJy1vbWFlJywgJ2xpZ2FuZF9wcmVwLm1hZScsICctbXMnLCAnMScsICctcGgnLCAnNycsICctcGh0JywgJzAuNScsICctbnQn

> <r_epik_Ionization_Penalty>
  0.4214

> <r_epik_Ionization_Penalty_Charging>
  0.4214

> <r_epik_Ionization_Penalty_Neutral>
  0.0000

> <r_epik_State_Penalty>
  0.3937

> <r_epik_Charging_Adjusted_Penalty>
0.815059728492555

> <i_epik_Tot_Q>
1

> <i_epik_Tot_abs_Q>
1

$$$$
