4i74_ligand
                    3D
 Schrodinger Suite 2020-3.
 36 38  0  0  1  0            999 V2000
  -28.4290  -19.6740  -23.7730 O   0  0  0  0  0  0
  -27.2810  -19.2370  -23.5340 C   0  0  0  0  0  0
  -26.6050  -18.4800  -24.4410 N   0  0  0  0  0  0
  -25.3670  -17.9900  -24.2340 C   0  0  0  0  0  0
  -24.7040  -18.2200  -23.0990 N   0  0  0  0  0  0
  -25.2730  -18.9550  -22.1280 C   0  0  0  0  0  0
  -26.6020  -19.5350  -22.2600 C   0  0  0  0  0  0
  -24.6920  -19.3350  -20.8020 C   0  0  0  0  0  0
  -25.5670  -20.1310  -20.0360 C   0  0  0  0  0  0
  -27.0450  -20.4310  -20.8940 S   0  0  0  0  0  0
  -23.2960  -18.9060  -20.3850 C   0  0  0  0  0  0
  -23.1030  -17.5250  -19.8790 N   0  3  2  0  0  0
  -23.0940  -17.4350  -18.4050 C   0  0  2  0  0  0
  -24.2460  -18.2070  -17.7240 C   0  0  0  0  0  0
  -23.9150  -19.5720  -17.3300 O   0  0  0  0  0  0
  -23.1810  -15.9060  -18.1960 C   0  0  1  0  0  0
  -21.9060  -15.3940  -17.7400 O   0  0  0  0  0  0
  -23.6640  -15.2930  -19.4960 C   0  0  1  0  0  0
  -22.6460  -14.5290  -20.1460 O   0  0  0  0  0  0
  -24.0090  -16.4730  -20.3830 C   0  0  0  0  0  0
  -27.0684  -18.2364  -25.4084 H   0  0  0  0  0  0
  -24.8954  -17.3909  -25.0130 H   0  0  0  0  0  0
  -25.3449  -20.5080  -19.0377 H   0  0  0  0  0  0
  -22.9403  -19.5559  -19.5719 H   0  0  0  0  0  0
  -22.6149  -18.9884  -21.2448 H   0  0  0  0  0  0
  -22.1109  -17.3075  -20.3013 H   0  0  0  0  0  0
  -22.1972  -17.9143  -17.9854 H   0  0  0  0  0  0
  -24.5522  -17.6774  -16.8098 H   0  0  0  0  0  0
  -25.1008  -18.2732  -18.4132 H   0  0  0  0  0  0
  -24.6712  -20.2010  -16.8375 H   0  0  0  0  0  0
  -23.8572  -15.5952  -17.3860 H   0  0  0  0  0  0
  -21.4638  -15.7716  -16.8063 H   0  0  0  0  0  0
  -24.4762  -14.5701  -19.3295 H   0  0  0  0  0  0
  -22.2489  -13.6218  -19.6671 H   0  0  0  0  0  0
  -23.7973  -16.2851  -21.4460 H   0  0  0  0  0  0
  -25.0524  -16.8024  -20.2696 H   0  0  0  0  0  0
  1  2  2  0  0  0
  2  3  1  0  0  0
  2  7  1  0  0  0
  3  4  1  0  0  0
  3 21  1  0  0  0
  4  5  2  0  0  0
  4 22  1  0  0  0
  5  6  1  0  0  0
  6  7  2  0  0  0
  6  8  1  0  0  0
  7 10  1  0  0  0
  8  9  2  0  0  0
  8 11  1  0  0  0
  9 10  1  0  0  0
  9 23  1  0  0  0
 11 12  1  0  0  0
 11 24  1  0  0  0
 11 25  1  0  0  0
 12 13  1  0  0  0
 12 20  1  0  0  0
 12 26  1  0  0  0
 13 14  1  0  0  0
 13 16  1  0  0  0
 13 27  1  0  0  0
 14 15  1  0  0  0
 14 28  1  0  0  0
 14 29  1  0  0  0
 15 30  1  0  0  0
 16 17  1  0  0  0
 16 18  1  0  0  0
 16 31  1  0  0  0
 17 32  1  0  0  0
 18 19  1  0  0  0
 18 20  1  0  0  0
 18 33  1  0  0  0
 19 34  1  0  0  0
 20 35  1  0  0  0
 20 36  1  0  0  0
M  CHG  1  12   1
M  END
> <s_m_source_file>
../4i74_ligand.sdf

> <i_m_source_file_index>
1

> <s_epik_input>
bjFbY0hdW25IXWMoPU8pYyhjMTIpc1tjSF1jMltDSDJdW05AQEgrXTNbQ0BIXShbQ0gyXVtPSF0pW0NAQEhdKFtPSF0pW0NAQEhdKFtPSF0pW0NIMl0z

> <s_epik_cmdline>
J2VwaWtfYXBwJywgJy1pbWFlJywgJ2xpZ2FuZF9wcm8ubWFlJywgJy1vbWFlJywgJ2xpZ2FuZF9wcmVwLm1hZScsICctbXMnLCAnMScsICctcGgnLCAnNycsICctcGh0JywgJzAuNScsICctbnQn

> <r_epik_Ionization_Penalty>
  0.4214

> <r_epik_Ionization_Penalty_Charging>
  0.4214

> <r_epik_Ionization_Penalty_Neutral>
  0.0000

> <r_epik_State_Penalty>
  0.3937

> <r_epik_Charging_Adjusted_Penalty>
0.815059728492555

> <i_epik_Tot_Q>
1

> <i_epik_Tot_abs_Q>
1

$$$$
