4i7b_ligand
                    3D
 Schrodinger Suite 2020-3.
189190  0  0  1  0            999 V2000
    1.4990   -2.7550   22.7510 N   0  3  0  0  0  0
    1.3880   -3.6710   21.5780 C   0  0  2  0  0  0
    2.5140   -3.4070   20.5670 C   0  0  0  0  0  0
    3.5580   -2.8490   20.9200 O   0  0  0  0  0  0
    0.0180   -3.5110   20.9020 C   0  0  0  0  0  0
   -1.2350   -3.5900   21.7680 C   0  0  0  0  0  0
   -2.4620   -3.3290   20.9100 C   0  0  0  0  0  0
   -1.3330   -4.9450   22.4490 C   0  0  0  0  0  0
    2.2840   -3.8080   19.3140 N   0  0  0  0  0  0
    3.2680   -3.7150   18.2380 C   0  0  2  0  0  0
    2.5540   -3.5620   16.8920 C   0  0  0  0  0  0
    2.0260   -4.5450   16.3630 O   0  0  0  0  0  0
    4.1240   -4.9850   18.2000 C   0  0  0  0  0  0
    5.4160   -4.9240   18.9930 C   0  0  0  0  0  0
    6.1770   -6.2350   18.8670 C   0  0  0  0  0  0
    7.3180   -6.3100   19.7810 N   0  0  0  0  0  0
    8.5130   -5.7580   19.5690 C   0  0  0  0  0  0
    8.7630   -5.0580   18.4650 N   0  0  0  0  0  0
    9.4720   -5.8950   20.4790 N   0  0  0  0  0  0
    2.5180   -2.3340   16.3350 N   0  0  0  0  0  0
    1.9400   -2.1660   14.9970 C   0  0  2  0  0  0
    2.8150   -2.7810   13.9020 C   0  0  0  0  0  0
    4.0370   -2.8180   14.0360 O   0  0  0  0  0  0
    1.8460   -0.6440   14.8340 C   0  0  0  0  0  0
    2.8480   -0.0870   15.7820 C   0  0  0  0  0  0
    2.8940   -1.0410   16.9380 C   0  0  0  0  0  0
    2.1780   -3.2470   12.8300 N   0  0  0  0  0  0
    2.8560   -3.9860   11.7630 C   0  0  2  0  0  0
    2.8660   -3.2220   10.4390 C   0  0  0  0  0  0
    1.8080   -2.8810    9.9070 O   0  0  0  0  0  0
    2.1630   -5.3400   11.5180 C   0  0  0  0  0  0
    2.8770   -6.1170   10.4180 C   0  0  0  0  0  0
    2.1000   -6.1460   12.8070 C   0  0  0  0  0  0
    4.0600   -2.9680    9.9080 N   0  0  0  0  0  0
    4.2120   -2.3520    8.5950 C   0  0  2  0  0  0
    4.5790   -3.4310    7.5780 C   0  0  0  0  0  0
    5.5340   -4.1790    7.7820 O   0  0  0  0  0  0
    5.3040   -1.2650    8.6100 C   0  0  0  0  0  0
    5.2150   -0.3890    7.3610 C   0  0  0  0  0  0
    3.8070   -3.5160    6.4960 N   0  0  0  0  0  0
    4.0850   -4.4550    5.4100 C   0  0  2  0  0  0
    4.9660   -3.7720    4.3740 C   0  0  0  0  0  0
    4.4630   -3.1070    3.4700 O   0  0  0  0  0  0
    2.7830   -4.9090    4.7450 C   0  0  0  0  0  0
    1.8040   -5.6170    5.6700 C   0  0  0  0  0  0
    0.1200   -5.6440    5.0150 S   0  0  0  0  0  0
   -0.3510   -3.9210    5.1690 C   0  0  0  0  0  0
    6.2770   -3.9320    4.5040 N   0  0  0  0  0  0
    7.2160   -3.3000    3.5810 C   0  0  2  0  0  0
    7.5150   -4.2070    2.3900 C   0  0  0  0  0  0
    7.7730   -5.4020    2.5560 O   0  0  0  0  0  0
    8.5260   -2.9350    4.2880 C   0  0  0  0  0  0
    9.5400   -2.3940    3.2920 C   0  0  0  0  0  0
    8.2480   -1.9210    5.3860 C   0  0  0  0  0  0
    7.4760   -3.6240    1.1930 N   0  0  0  0  0  0
    7.7350   -4.3570   -0.0410 C   0  0  2  0  0  0
    9.1700   -4.1600   -0.4980 C   0  0  0  0  0  0
    9.7920   -3.1420   -0.1830 O   0  0  0  0  0  0
    6.7930   -3.8980   -1.1430 C   0  0  0  0  0  0
    5.3550   -4.3140   -0.9230 C   0  0  0  0  0  0
    4.4860   -3.8630   -2.0820 C   0  0  0  0  0  0
    3.0870   -4.2270   -1.8870 N   0  0  0  0  0  0
    2.1000   -3.9170   -2.7240 C   0  0  0  0  0  0
    2.3430   -3.2280   -3.8360 N   0  0  0  0  0  0
    0.8580   -4.3000   -2.4470 N   0  0  0  0  0  0
    9.6990   -5.1340   -1.2540 N   0  0  0  0  0  0
   11.0820   -5.0460   -1.7150 C   0  0  2  0  0  0
   11.2940   -4.0190   -2.8270 C   0  0  0  0  0  0
   10.4210   -3.8300   -3.6730 O   0  0  0  0  0  0
   11.3770   -6.4600   -2.2340 C   0  0  0  0  0  0
   10.0510   -7.0550   -2.5440 C   0  0  0  0  0  0
    9.0600   -6.4110   -1.6250 C   0  0  0  0  0  0
   12.4480   -3.3560   -2.7940 N   0  0  0  0  0  0
   12.9340   -2.5450   -3.9090 C   0  0  2  0  0  0
   14.1200   -3.2850   -4.5240 C   0  0  0  0  0  0
   15.0680   -3.6290   -3.8190 O   0  0  0  0  0  0
   13.4080   -1.1520   -3.4420 C   0  0  2  0  0  0
   12.5910   -0.6930   -2.3580 O   0  0  0  0  0  0
   13.3470   -0.1550   -4.5880 C   0  0  0  0  0  0
   14.0690   -3.5350   -5.8290 N   0  0  0  0  0  0
   15.1240   -4.2900   -6.5110 C   0  0  2  0  0  0
   15.8060   -3.4320   -7.5720 C   0  0  0  0  0  0
   17.0533   -3.4914   -7.7400 O   0  0  0  0  0  0
   14.5620   -5.5730   -7.1600 C   0  0  0  0  0  0
   15.6150   -6.2490   -8.0310 C   0  0  0  0  0  0
   14.0550   -6.5300   -6.0900 C   0  0  0  0  0  0
   15.1159   -2.6571   -8.2867 O   0  0  0  0  0  0
    2.4844   -2.8817   23.2232 H   0  0  0  0  0  0
    0.7100   -2.9944   23.4791 H   0  0  0  0  0  0
    1.3845   -1.7138   22.4152 H   0  0  0  0  0  0
    1.4895   -4.6937   21.9703 H   0  0  0  0  0  0
   -0.0383   -2.5257   20.4162 H   0  0  0  0  0  0
   -0.1127   -4.3001   20.1468 H   0  0  0  0  0  0
   -1.1806   -2.8238   22.5554 H   0  0  0  0  0  0
   -2.3695   -2.3447   20.4277 H   0  0  0  0  0  0
   -3.3618   -3.3443   21.5426 H   0  0  0  0  0  0
   -2.5427   -4.1091   20.1387 H   0  0  0  0  0  0
   -0.4360   -5.1123   23.0634 H   0  0  0  0  0  0
   -1.4074   -5.7341   21.6863 H   0  0  0  0  0  0
   -2.2265   -4.9693   23.0902 H   0  0  0  0  0  0
    1.2872   -4.2276   19.1130 H   0  0  0  0  0  0
    3.8830   -2.8312   18.4630 H   0  0  0  0  0  0
    3.5477   -5.8279   18.6091 H   0  0  0  0  0  0
    4.4076   -5.2051   17.1602 H   0  0  0  0  0  0
    6.0439   -4.1067   18.6086 H   0  0  0  0  0  0
    5.1871   -4.7429   20.0536 H   0  0  0  0  0  0
    5.5032   -7.0736   19.0965 H   0  0  0  0  0  0
    6.5576   -6.3409   17.8404 H   0  0  0  0  0  0
    7.2264   -6.8561   20.7315 H   0  0  0  0  0  0
    7.9798   -4.9354   17.7023 H   0  0  0  0  0  0
    9.7528   -4.6020   18.3152 H   0  0  0  0  0  0
    9.2811   -6.4705   21.3968 H   0  0  0  0  0  0
    0.9749   -2.6908   14.9402 H   0  0  0  0  0  0
    2.0786   -0.3716   13.7940 H   0  0  0  0  0  0
    0.8272   -0.3110   15.0811 H   0  0  0  0  0  0
    3.8260   -0.0181   15.2832 H   0  0  0  0  0  0
    2.5297    0.9152   16.1050 H   0  0  0  0  0  0
    2.1712   -0.7794   17.7249 H   0  0  0  0  0  0
    3.9002   -1.1193   17.3756 H   0  0  0  0  0  0
    1.0966   -3.0562   12.7655 H   0  0  0  0  0  0
    3.8826   -4.0984   12.1417 H   0  0  0  0  0  0
    1.1297   -5.1639   11.1843 H   0  0  0  0  0  0
    2.9069   -5.5104    9.5009 H   0  0  0  0  0  0
    2.3357   -7.0540   10.2204 H   0  0  0  0  0  0
    3.9036   -6.3473   10.7390 H   0  0  0  0  0  0
    1.5806   -5.5609   13.5802 H   0  0  0  0  0  0
    3.1209   -6.3765   13.1456 H   0  0  0  0  0  0
    1.5530   -7.0832   12.6270 H   0  0  0  0  0  0
    4.9501   -3.2391   10.4947 H   0  0  0  0  0  0
    3.2371   -1.8985    8.3630 H   0  0  0  0  0  0
    5.1764   -0.6294    9.4987 H   0  0  0  0  0  0
    6.2951   -1.7413    8.6391 H   0  0  0  0  0  0
    6.0028    0.3780    7.3942 H   0  0  0  0  0  0
    4.2297    0.0988    7.3247 H   0  0  0  0  0  0
    5.3484   -1.0132    6.4651 H   0  0  0  0  0  0
    2.9349   -2.8483    6.4360 H   0  0  0  0  0  0
    4.5998   -5.3152    5.8629 H   0  0  0  0  0  0
    2.2556   -4.0344    4.3365 H   0  0  0  0  0  0
    3.0129   -5.6118    3.9306 H   0  0  0  0  0  0
    2.1253   -6.6589    5.8158 H   0  0  0  0  0  0
    1.7792   -5.1016    6.6415 H   0  0  0  0  0  0
   -1.3781   -3.7872    4.7988 H   0  0  0  0  0  0
    0.3362   -3.2987    4.5769 H   0  0  0  0  0  0
   -0.3000   -3.6200    6.2258 H   0  0  0  0  0  0
    6.6521   -4.5562    5.3284 H   0  0  0  0  0  0
    6.6974   -2.3914    3.2412 H   0  0  0  0  0  0
    8.9605   -3.8358    4.7460 H   0  0  0  0  0  0
    9.7227   -3.1456    2.5099 H   0  0  0  0  0  0
   10.4826   -2.1705    3.8132 H   0  0  0  0  0  0
    9.1481   -1.4746    2.8326 H   0  0  0  0  0  0
    7.5131   -2.3365    6.0912 H   0  0  0  0  0  0
    7.8476   -0.9985    4.9403 H   0  0  0  0  0  0
    9.1821   -1.6944    5.9209 H   0  0  0  0  0  0
    7.2381   -2.5507    1.1556 H   0  0  0  0  0  0
    7.5569   -5.4139    0.2063 H   0  0  0  0  0  0
    6.8111   -2.8000   -1.2071 H   0  0  0  0  0  0
    7.1156   -4.3267   -2.1033 H   0  0  0  0  0  0
    5.2988   -5.4094   -0.8404 H   0  0  0  0  0  0
    4.9787   -3.8566    0.0039 H   0  0  0  0  0  0
    4.5465   -2.7692   -2.1817 H   0  0  0  0  0  0
    4.8387   -4.3359   -3.0104 H   0  0  0  0  0  0
    2.7864   -4.7987   -0.9966 H   0  0  0  0  0  0
    3.3687   -2.9078   -4.0715 H   0  0  0  0  0  0
    1.5182   -2.9786   -4.5198 H   0  0  0  0  0  0
    0.6499   -4.8699   -1.5294 H   0  0  0  0  0  0
   11.7090   -4.7060   -0.8776 H   0  0  0  0  0  0
   12.0084   -6.3965   -3.1325 H   0  0  0  0  0  0
   11.9025   -7.0338   -1.4564 H   0  0  0  0  0  0
    9.7957   -6.8542   -3.5950 H   0  0  0  0  0  0
   10.0886   -8.1416   -2.3770 H   0  0  0  0  0  0
    8.8836   -7.0095   -0.7191 H   0  0  0  0  0  0
    8.1006   -6.2096   -2.1240 H   0  0  0  0  0  0
   13.0443   -3.4391   -1.8734 H   0  0  0  0  0  0
   12.0895   -2.4313   -4.6046 H   0  0  0  0  0  0
   14.4314   -1.1997   -3.0416 H   0  0  0  0  0  0
   12.5126   -1.2898   -1.4373 H   0  0  0  0  0  0
   13.9753   -0.5112   -5.4177 H   0  0  0  0  0  0
   13.7145    0.8228   -4.2433 H   0  0  0  0  0  0
   12.3070   -0.0553   -4.9323 H   0  0  0  0  0  0
   13.2062   -3.1588   -6.3982 H   0  0  0  0  0  0
   15.8441   -4.5442   -5.7193 H   0  0  0  0  0  0
   17.5351   -2.8684   -8.5079 H   0  0  0  0  0  0
   13.7147   -5.3054   -7.8085 H   0  0  0  0  0  0
   15.9673   -5.5415   -8.7960 H   0  0  0  0  0  0
   15.1749   -7.1299   -8.5211 H   0  0  0  0  0  0
   16.4625   -6.5633   -7.4042 H   0  0  0  0  0  0
   13.2976   -6.0232   -5.4739 H   0  0  0  0  0  0
   14.8944   -6.8458   -5.4530 H   0  0  0  0  0  0
   13.6067   -7.4124   -6.5700 H   0  0  0  0  0  0
  1  2  1  0  0  0
  1 88  1  0  0  0
  1 89  1  0  0  0
  1 90  1  0  0  0
  2  3  1  0  0  0
  2  5  1  0  0  0
  2 91  1  0  0  0
  3  4  2  0  0  0
  3  9  1  0  0  0
  5  6  1  0  0  0
  5 92  1  0  0  0
  5 93  1  0  0  0
  6  7  1  0  0  0
  6  8  1  0  0  0
  6 94  1  0  0  0
  7 95  1  0  0  0
  7 96  1  0  0  0
  7 97  1  0  0  0
  8 98  1  0  0  0
  8 99  1  0  0  0
  8100  1  0  0  0
  9 10  1  0  0  0
  9101  1  0  0  0
 10 11  1  0  0  0
 10 13  1  0  0  0
 10102  1  0  0  0
 11 12  2  0  0  0
 11 20  1  0  0  0
 13 14  1  0  0  0
 13103  1  0  0  0
 13104  1  0  0  0
 14 15  1  0  0  0
 14105  1  0  0  0
 14106  1  0  0  0
 15 16  1  0  0  0
 15107  1  0  0  0
 15108  1  0  0  0
 16 17  1  0  0  0
 16109  1  0  0  0
 17 18  1  0  0  0
 17 19  2  0  0  0
 18110  1  0  0  0
 18111  1  0  0  0
 19112  1  0  0  0
 20 21  1  0  0  0
 20 26  1  0  0  0
 21 22  1  0  0  0
 21 24  1  0  0  0
 21113  1  0  0  0
 22 23  2  0  0  0
 22 27  1  0  0  0
 24 25  1  0  0  0
 24114  1  0  0  0
 24115  1  0  0  0
 25 26  1  0  0  0
 25116  1  0  0  0
 25117  1  0  0  0
 26118  1  0  0  0
 26119  1  0  0  0
 27 28  1  0  0  0
 27120  1  0  0  0
 28 29  1  0  0  0
 28 31  1  0  0  0
 28121  1  0  0  0
 29 30  2  0  0  0
 29 34  1  0  0  0
 31 32  1  0  0  0
 31 33  1  0  0  0
 31122  1  0  0  0
 32123  1  0  0  0
 32124  1  0  0  0
 32125  1  0  0  0
 33126  1  0  0  0
 33127  1  0  0  0
 33128  1  0  0  0
 34 35  1  0  0  0
 34129  1  0  0  0
 35 36  1  0  0  0
 35 38  1  0  0  0
 35130  1  0  0  0
 36 37  2  0  0  0
 36 40  1  0  0  0
 38 39  1  0  0  0
 38131  1  0  0  0
 38132  1  0  0  0
 39133  1  0  0  0
 39134  1  0  0  0
 39135  1  0  0  0
 40 41  1  0  0  0
 40136  1  0  0  0
 41 42  1  0  0  0
 41 44  1  0  0  0
 41137  1  0  0  0
 42 43  2  0  0  0
 42 48  1  0  0  0
 44 45  1  0  0  0
 44138  1  0  0  0
 44139  1  0  0  0
 45 46  1  0  0  0
 45140  1  0  0  0
 45141  1  0  0  0
 46 47  1  0  0  0
 47142  1  0  0  0
 47143  1  0  0  0
 47144  1  0  0  0
 48 49  1  0  0  0
 48145  1  0  0  0
 49 50  1  0  0  0
 49 52  1  0  0  0
 49146  1  0  0  0
 50 51  2  0  0  0
 50 55  1  0  0  0
 52 53  1  0  0  0
 52 54  1  0  0  0
 52147  1  0  0  0
 53148  1  0  0  0
 53149  1  0  0  0
 53150  1  0  0  0
 54151  1  0  0  0
 54152  1  0  0  0
 54153  1  0  0  0
 55 56  1  0  0  0
 55154  1  0  0  0
 56 57  1  0  0  0
 56 59  1  0  0  0
 56155  1  0  0  0
 57 58  2  0  0  0
 57 66  1  0  0  0
 59 60  1  0  0  0
 59156  1  0  0  0
 59157  1  0  0  0
 60 61  1  0  0  0
 60158  1  0  0  0
 60159  1  0  0  0
 61 62  1  0  0  0
 61160  1  0  0  0
 61161  1  0  0  0
 62 63  1  0  0  0
 62162  1  0  0  0
 63 64  1  0  0  0
 63 65  2  0  0  0
 64163  1  0  0  0
 64164  1  0  0  0
 65165  1  0  0  0
 66 67  1  0  0  0
 66 72  1  0  0  0
 67 68  1  0  0  0
 67 70  1  0  0  0
 67166  1  0  0  0
 68 69  2  0  0  0
 68 73  1  0  0  0
 70 71  1  0  0  0
 70167  1  0  0  0
 70168  1  0  0  0
 71 72  1  0  0  0
 71169  1  0  0  0
 71170  1  0  0  0
 72171  1  0  0  0
 72172  1  0  0  0
 73 74  1  0  0  0
 73173  1  0  0  0
 74 75  1  0  0  0
 74 77  1  0  0  0
 74174  1  0  0  0
 75 76  2  0  0  0
 75 80  1  0  0  0
 77 78  1  0  0  0
 77 79  1  0  0  0
 77175  1  0  0  0
 78176  1  0  0  0
 79177  1  0  0  0
 79178  1  0  0  0
 79179  1  0  0  0
 80 81  1  0  0  0
 80180  1  0  0  0
 81 82  1  0  0  0
 81 84  1  0  0  0
 81181  1  0  0  0
 82 83  1  0  0  0
 82 87  2  0  0  0
 83182  1  0  0  0
 84 85  1  0  0  0
 84 86  1  0  0  0
 84183  1  0  0  0
 85184  1  0  0  0
 85185  1  0  0  0
 85186  1  0  0  0
 86187  1  0  0  0
 86188  1  0  0  0
 86189  1  0  0  0
M  CHG  1   1   1
M  END
> <s_m_source_file>
../4i7b_ligand.sdf

> <i_m_source_file_index>
1

> <s_epik_input>
W0hdL049QyhbTkgyXSlcW05IXVtDSDJdW0NIMl1bQ0gyXVtDQEhdKFtOSF1DKD1PKVtDQEBIXShbTkgzK10pW0NIMl1bQ0hdKFtDSDNdKVtDSDNdKUMoPU8pTjFbQ0BASF0oW0NIMl1bQ0gyXVtDSDJdMSlDKD1PKVtOSF1bQ0BASF0oW0NIXShbQ0gzXSlbQ0gzXSlDKD1PKVtOSF1bQ0BASF0oW0NIMl1bQ0gzXSlDKD1PKVtOSF1bQ0BASF0oW0NIMl1bQ0gyXVNbQ0gzXSlDKD1PKVtOSF1bQ0BASF0oW0NIXShbQ0gzXSlbQ0gzXSlDKD1PKVtOSF1bQ0BASF0oW0NIMl1bQ0gyXVtDSDJdW05IXS9DKFtOSDJdKT1OXFtIXSlDKD1PKU4yW0NAQEhdKFtDSDJdW0NIMl1bQ0gyXTIpQyg9TylbTkhdW0NAQEhdKFtDQEhdKFtPSF0pW0NIM10pQyg9TylbTkhdW0NASF0oQyg9TylbT0hdKVtDSF0oW0NIM10pW0NIM10=

> <s_epik_cmdline>
J2VwaWtfYXBwJywgJy1pbWFlJywgJ2xpZ2FuZF9wcm8ubWFlJywgJy1vbWFlJywgJ2xpZ2FuZF9wcmVwLm1hZScsICctbXMnLCAnMScsICctcGgnLCAnNycsICctcGh0JywgJzAuNScsICctbnQn

> <s_epik_pKa_notes>
Molecule size exceeds maximum supported for generating protonation states

> <s_epik_Chemistry_Notes>
This compound has an imine and may undergo hydrolysis.

$$$$
