4i7c_ligand
                    3D
 Schrodinger Suite 2020-3.
250253  0  0  1  0            999 V2000
  -71.4500   56.1120   -6.4600 N   0  3  0  0  0  0
  -71.7460   57.1920   -5.4760 C   0  0  2  0  0  0
  -72.2890   58.4390   -6.1600 C   0  0  0  0  0  0
  -72.2690   58.5430   -7.3890 O   0  0  0  0  0  0
  -70.4850   57.5630   -4.6950 C   0  0  0  0  0  0
  -70.0350   56.5080   -3.7020 C   0  0  0  0  0  0
  -68.9570   57.0490   -2.7820 C   0  0  0  0  0  0
  -68.3720   55.9460   -1.9180 C   0  0  0  0  0  0
  -67.2390   56.4250   -1.0780 N   0  3  0  0  0  0
  -72.7760   59.3760   -5.3450 N   0  0  0  0  0  0
  -73.2300   60.6860   -5.8180 C   0  0  2  0  0  0
  -72.0340   61.4500   -6.4050 C   0  0  0  0  0  0
  -71.1140   61.8200   -5.6790 O   0  0  0  0  0  0
  -73.8690   61.4500   -4.6570 C   0  0  0  0  0  0
  -74.4850   62.8270   -4.9050 C   0  0  0  0  0  0
  -75.3680   62.8460   -6.1390 C   0  0  0  0  0  0
  -75.2850   63.2520   -3.6790 C   0  0  0  0  0  0
  -72.0480   61.6560   -7.7230 N   0  0  0  0  0  0
  -70.8730   62.1110   -8.4690 C   0  0  2  0  0  0
  -71.1560   63.3950   -9.2410 C   0  0  0  0  0  0
  -71.8920   63.3610  -10.2250 O   0  0  0  0  0  0
  -70.4250   61.0300   -9.4800 C   0  0  0  0  0  0
  -69.5460   59.9120   -8.9280 C   0  0  0  0  0  0
  -68.9890   59.0290  -10.0430 C   0  0  0  0  0  0
  -68.1420   57.9400   -9.5360 N   0  0  0  0  0  0
  -66.8190   58.0020   -9.3180 C   0  0  0  0  0  0
  -66.1130   59.1050   -9.5520 N   0  0  0  0  0  0
  -66.1840   56.9330   -8.8530 N   0  0  0  0  0  0
  -70.5680   64.5300   -8.8140 N   0  0  0  0  0  0
  -70.6260   65.7290   -9.6560 C   0  0  2  0  0  0
  -69.7760   65.5820  -10.9070 C   0  0  0  0  0  0
  -68.6370   65.1260  -10.8310 O   0  0  0  0  0  0
  -70.0590   66.8330   -8.7520 C   0  0  0  0  0  0
  -69.2800   66.1200   -7.7060 C   0  0  0  0  0  0
  -70.0210   64.8350   -7.4810 C   0  0  0  0  0  0
  -70.3450   65.9580  -12.0440 N   0  0  0  0  0  0
  -69.6630   65.8820  -13.3270 C   0  0  2  0  0  0
  -69.1800   67.2690  -13.6700 C   0  0  0  0  0  0
  -69.9360   68.2230  -13.5370 O   0  0  0  0  0  0
  -70.6180   65.4460  -14.4570 C   0  0  0  0  0  0
  -69.8650   65.3320  -15.7700 C   0  0  0  0  0  0
  -71.3100   64.1340  -14.1070 C   0  0  0  0  0  0
  -67.9330   67.3840  -14.1170 N   0  0  0  0  0  0
  -67.3930   68.6660  -14.5590 C   0  0  1  0  0  0
  -66.3920   69.1830  -13.5470 C   0  0  0  0  0  0
  -65.6770   70.3120  -14.0990 N   0  0  0  0  0  0
  -65.9730   71.5650  -13.7660 C   0  0  0  0  0  0
  -65.1090   72.6020  -14.4250 C   0  0  0  0  0  0
  -63.9790   72.8600  -13.4620 C   0  0  0  0  0  0
  -66.7690   68.5640  -15.9190 C   0  0  0  0  0  0
  -65.9830   67.6620  -16.1870 O   0  0  0  0  0  0
  -66.8440   71.8920  -12.9690 O   0  0  0  0  0  0
  -67.1260   69.5010  -16.7880 N   0  0  0  0  0  0
  -66.6840   69.5070  -18.1680 C   0  0  2  0  0  0
  -65.3940   70.2990  -18.1770 C   0  0  0  0  0  0
  -65.3450   71.3980  -17.6280 O   0  0  0  0  0  0
  -67.7440   70.2040  -19.0320 C   0  0  0  0  0  0
  -68.2070   69.4260  -20.2520 C   0  0  0  0  0  0
  -69.7930   70.0140  -20.9020 S   0  0  0  0  0  0
  -70.9620   69.2570  -19.7660 C   0  0  0  0  0  0
  -64.3470   69.7360  -18.7740 N   0  0  0  0  0  0
  -63.0490   70.4130  -18.8550 C   0  0  2  0  0  0
  -62.6530   70.6600  -20.3060 C   0  0  0  0  0  0
  -62.6040   69.7350  -21.1380 O   0  0  0  0  0  0
  -61.9400   69.6100  -18.1610 C   0  0  0  0  0  0
  -60.6150   70.3530  -18.2360 C   0  0  0  0  0  0
  -62.3120   69.3480  -16.7120 C   0  0  0  0  0  0
  -62.3680   71.9250  -20.5870 N   0  0  0  0  0  0
  -62.0840   72.3790  -21.9310 C   0  0  2  0  0  0
  -60.6010   72.2150  -22.1770 C   0  0  0  0  0  0
  -59.7960   72.4910  -21.2960 O   0  0  0  0  0  0
  -62.4790   73.8490  -22.0870 C   0  0  0  0  0  0
  -63.9380   74.1580  -21.7400 C   0  0  0  0  0  0
  -64.9280   73.5090  -22.7010 C   0  0  0  0  0  0
  -64.7170   73.9510  -24.0790 N   0  0  0  0  0  0
  -65.3670   73.4760  -25.1400 C   0  0  0  0  0  0
  -66.2940   72.5330  -25.0020 N   0  0  0  0  0  0
  -65.0880   73.9490  -26.3510 N   0  0  0  0  0  0
  -60.2280   71.7590  -23.3750 N   0  0  0  0  0  0
  -58.8240   71.5290  -23.6740 C   0  0  2  0  0  0
  -58.0350   72.8010  -23.9540 C   0  0  0  0  0  0
  -58.5980   73.8010  -24.3690 O   0  0  0  0  0  0
  -58.8780   70.6850  -24.9480 C   0  0  0  0  0  0
  -60.1080   71.1500  -25.6210 C   0  0  0  0  0  0
  -61.0890   71.4000  -24.5120 C   0  0  0  0  0  0
  -56.7290   72.7230  -23.7230 N   0  0  0  0  0  0
  -55.7770   73.7550  -24.0960 C   0  0  2  0  0  0
  -54.7420   73.1310  -24.9800 C   0  0  0  0  0  0
  -54.1440   72.1120  -24.6240 O   0  0  0  0  0  0
  -55.0930   74.3220  -22.8570 C   0  0  0  0  0  0
  -56.0160   75.0900  -21.9480 C   0  0  0  0  0  0
  -56.6580   74.6280  -20.8040 C   0  0  0  0  0  0
  -56.4370   76.4880  -22.0820 C   0  0  0  0  0  0
  -57.4200   75.6170  -20.2320 N   0  0  0  0  0  0
  -57.3340   76.7560  -20.9490 C   0  0  0  0  0  0
  -56.1710   77.5080  -22.9890 C   0  0  0  0  0  0
  -57.9240   77.9950  -20.7580 C   0  0  0  0  0  0
  -56.7740   78.7550  -22.7840 C   0  0  0  0  0  0
  -57.6300   78.9890  -21.6960 C   0  0  0  0  0  0
  -54.5150   73.7320  -26.1400 N   0  0  0  0  0  0
  -53.4960   73.2530  -27.0670 C   0  0  2  0  0  0
  -52.1760   73.9530  -26.7700 C   0  0  0  0  0  0
  -52.1530   75.1640  -26.5520 O   0  0  0  0  0  0
  -53.9080   73.5060  -28.5330 C   0  0  0  0  0  0
  -52.7380   73.2620  -29.4770 C   0  0  0  0  0  0
  -55.0870   72.6210  -28.9040 C   0  0  0  0  0  0
  -51.0890   73.1850  -26.7450 N   0  0  0  0  0  0
  -49.7470   73.7420  -26.6320 C   0  0  2  0  0  0
  -49.2720   74.1800  -28.0100 C   0  0  0  0  0  0
  -48.5118   75.1765  -28.1389 O   0  0  0  0  0  0
  -48.7720   72.7130  -26.0640 C   0  0  0  0  0  0
  -49.1020   72.2260  -24.6660 C   0  0  0  0  0  0
  -47.9380   71.4490  -24.0660 C   0  0  0  0  0  0
  -48.3510   70.6600  -22.9160 N   0  0  0  0  0  0
  -47.5380   69.9250  -22.1660 C   0  0  0  0  0  0
  -46.2320   69.8610  -22.4190 N   0  0  0  0  0  0
  -48.0410   69.2490  -21.1430 N   0  0  0  0  0  0
  -49.6421   73.5406  -29.0307 O   0  0  0  0  0  0
  -72.3667   55.8578   -7.0122 H   0  0  0  0  0  0
  -71.0836   55.2216   -5.9280 H   0  0  0  0  0  0
  -70.6812   56.4597   -7.1658 H   0  0  0  0  0  0
  -72.5149   56.7840   -4.8034 H   0  0  0  0  0  0
  -69.6526   57.7215   -5.3965 H   0  0  0  0  0  0
  -70.6651   58.4864   -4.1250 H   0  0  0  0  0  0
  -70.8926   56.1904   -3.0907 H   0  0  0  0  0  0
  -69.6312   55.6412   -4.2457 H   0  0  0  0  0  0
  -68.1490   57.4905   -3.3838 H   0  0  0  0  0  0
  -69.3879   57.8192   -2.1254 H   0  0  0  0  0  0
  -69.1506   55.5538   -1.2472 H   0  0  0  0  0  0
  -67.9995   55.1350   -2.5611 H   0  0  0  0  0  0
  -66.8525   55.5911   -0.4737 H   0  0  0  0  0  0
  -67.5895   57.2281   -0.4131 H   0  0  0  0  0  0
  -66.4384   56.8095   -1.7270 H   0  0  0  0  0  0
  -72.8286   59.1293   -4.2743 H   0  0  0  0  0  0
  -73.9857   60.5231   -6.6006 H   0  0  0  0  0  0
  -74.6955   60.8569   -4.2386 H   0  0  0  0  0  0
  -73.1147   61.6293   -3.8767 H   0  0  0  0  0  0
  -73.6685   63.5409   -5.0886 H   0  0  0  0  0  0
  -74.7795   62.5377   -7.0157 H   0  0  0  0  0  0
  -75.7557   63.8633   -6.2968 H   0  0  0  0  0  0
  -76.2089   62.1508   -5.9989 H   0  0  0  0  0  0
  -74.6343   63.2341   -2.7923 H   0  0  0  0  0  0
  -76.1256   62.5581   -3.5311 H   0  0  0  0  0  0
  -75.6724   64.2705   -3.8290 H   0  0  0  0  0  0
  -72.9954   61.4689   -8.2497 H   0  0  0  0  0  0
  -70.1169   62.2997   -7.6927 H   0  0  0  0  0  0
  -71.3111   60.5363   -9.9055 H   0  0  0  0  0  0
  -69.8446   61.5008  -10.2871 H   0  0  0  0  0  0
  -68.7001   60.3488   -8.3770 H   0  0  0  0  0  0
  -70.1386   59.2806   -8.2496 H   0  0  0  0  0  0
  -69.8210   58.5758  -10.6020 H   0  0  0  0  0  0
  -68.3791   59.6401  -10.7246 H   0  0  0  0  0  0
  -68.5868   56.9625   -9.2979 H   0  0  0  0  0  0
  -66.6123   60.0062   -9.9375 H   0  0  0  0  0  0
  -65.0299   59.1159   -9.3600 H   0  0  0  0  0  0
  -66.7418   56.0069   -8.6502 H   0  0  0  0  0  0
  -71.6565   65.8981  -10.0018 H   0  0  0  0  0  0
  -69.4192   67.5014   -9.3468 H   0  0  0  0  0  0
  -70.8870   67.4108   -8.3154 H   0  0  0  0  0  0
  -68.2570   65.9413   -8.0687 H   0  0  0  0  0  0
  -69.2437   66.7336   -6.7937 H   0  0  0  0  0  0
  -70.8464   64.9433   -6.7620 H   0  0  0  0  0  0
  -69.3600   64.0165   -7.1598 H   0  0  0  0  0  0
  -71.3753   66.3397  -11.9905 H   0  0  0  0  0  0
  -68.8474   65.1562  -13.1927 H   0  0  0  0  0  0
  -71.4004   66.2084  -14.5856 H   0  0  0  0  0  0
  -69.3766   66.2911  -15.9970 H   0  0  0  0  0  0
  -70.5696   65.0795  -16.5760 H   0  0  0  0  0  0
  -69.1031   64.5428  -15.6884 H   0  0  0  0  0  0
  -71.8465   64.2455  -13.1532 H   0  0  0  0  0  0
  -70.5582   63.3364  -14.0138 H   0  0  0  0  0  0
  -72.0247   63.8732  -14.9014 H   0  0  0  0  0  0
  -67.3042   66.4820  -14.1488 H   0  0  0  0  0  0
  -68.2504   69.3511  -14.6333 H   0  0  0  0  0  0
  -66.9213   69.4978  -12.6356 H   0  0  0  0  0  0
  -65.6765   68.3853  -13.2985 H   0  0  0  0  0  0
  -64.8605   70.1479  -14.8176 H   0  0  0  0  0  0
  -64.7370   72.2134  -15.3845 H   0  0  0  0  0  0
  -65.6999   73.5126  -14.6026 H   0  0  0  0  0  0
  -63.3020   73.6166  -13.8854 H   0  0  0  0  0  0
  -63.4236   71.9263  -13.2898 H   0  0  0  0  0  0
  -64.3866   73.2255  -12.5079 H   0  0  0  0  0  0
  -67.7880   70.2982  -16.4190 H   0  0  0  0  0  0
  -66.5365   68.4755  -18.5206 H   0  0  0  0  0  0
  -68.6422   70.3957  -18.4267 H   0  0  0  0  0  0
  -67.3432   71.1578  -19.4057 H   0  0  0  0  0  0
  -67.4598   69.5222  -21.0535 H   0  0  0  0  0  0
  -68.3259   68.3651  -19.9869 H   0  0  0  0  0  0
  -71.9861   69.5384  -20.0523 H   0  0  0  0  0  0
  -70.7581   69.6066  -18.7431 H   0  0  0  0  0  0
  -70.8572   68.1628  -19.8073 H   0  0  0  0  0  0
  -64.4740   68.7358  -19.2138 H   0  0  0  0  0  0
  -63.2092   71.3673  -18.3318 H   0  0  0  0  0  0
  -61.8226   68.6435  -18.6729 H   0  0  0  0  0  0
  -60.3567   70.5367  -19.2894 H   0  0  0  0  0  0
  -59.8272   69.7462  -17.7657 H   0  0  0  0  0  0
  -60.7028   71.3135  -17.7071 H   0  0  0  0  0  0
  -63.2710   68.8107  -16.6711 H   0  0  0  0  0  0
  -62.4050   70.3054  -16.1785 H   0  0  0  0  0  0
  -61.5294   68.7381  -16.2371 H   0  0  0  0  0  0
  -62.3526   72.6391  -19.7505 H   0  0  0  0  0  0
  -62.6723   71.7555  -22.6203 H   0  0  0  0  0  0
  -61.8560   74.4683  -21.4249 H   0  0  0  0  0  0
  -62.3269   74.1608  -23.1309 H   0  0  0  0  0  0
  -64.1609   73.7867  -20.7288 H   0  0  0  0  0  0
  -64.1010   75.2453  -21.7756 H   0  0  0  0  0  0
  -64.8091   72.4160  -22.6670 H   0  0  0  0  0  0
  -65.9537   73.7756  -22.4062 H   0  0  0  0  0  0
  -63.9747   74.7326  -24.2984 H   0  0  0  0  0  0
  -66.5307   72.1364  -24.0037 H   0  0  0  0  0  0
  -64.3224   74.7292  -26.4738 H   0  0  0  0  0  0
  -65.6228   73.5601  -27.2300 H   0  0  0  0  0  0
  -58.3544   71.0671  -22.7930 H   0  0  0  0  0  0
  -57.9764   70.8716  -25.5499 H   0  0  0  0  0  0
  -58.9258   69.6192  -24.6800 H   0  0  0  0  0  0
  -59.8919   72.0688  -26.1859 H   0  0  0  0  0  0
  -60.4655   70.3711  -26.3106 H   0  0  0  0  0  0
  -61.6756   70.5044  -24.2593 H   0  0  0  0  0  0
  -61.7708   72.2344  -24.7335 H   0  0  0  0  0  0
  -56.3807   71.8101  -23.2178 H   0  0  0  0  0  0
  -56.3328   74.5442  -24.6236 H   0  0  0  0  0  0
  -54.6644   73.4992  -22.2659 H   0  0  0  0  0  0
  -54.2911   75.0099  -23.1633 H   0  0  0  0  0  0
  -56.5682   73.6145  -20.4130 H   0  0  0  0  0  0
  -55.5092   77.3409  -23.8388 H   0  0  0  0  0  0
  -58.5874   78.1861  -19.9145 H   0  0  0  0  0  0
  -56.5739   79.5641  -23.4865 H   0  0  0  0  0  0
  -58.0788   79.9754  -21.5792 H   0  0  0  0  0  0
  -55.1199   74.6145  -26.3956 H   0  0  0  0  0  0
  -53.4122   72.1715  -26.8842 H   0  0  0  0  0  0
  -54.2143   74.5563  -28.6478 H   0  0  0  0  0  0
  -51.8962   73.9105  -29.1928 H   0  0  0  0  0  0
  -53.0451   73.4907  -30.5082 H   0  0  0  0  0  0
  -52.4278   72.2087  -29.4118 H   0  0  0  0  0  0
  -55.9205   72.8115  -28.2120 H   0  0  0  0  0  0
  -54.7881   71.5646  -28.8360 H   0  0  0  0  0  0
  -55.4054   72.8466  -29.9325 H   0  0  0  0  0  0
  -51.2286   72.0960  -26.8130 H   0  0  0  0  0  0
  -49.8274   74.5970  -25.9446 H   0  0  0  0  0  0
  -48.7568   71.8250  -26.7131 H   0  0  0  0  0  0
  -47.7637   73.1501  -26.0170 H   0  0  0  0  0  0
  -49.3193   73.0887  -24.0190 H   0  0  0  0  0  0
  -49.9815   71.5665  -24.7055 H   0  0  0  0  0  0
  -47.5241   70.7662  -24.8226 H   0  0  0  0  0  0
  -47.1571   72.1519  -23.7401 H   0  0  0  0  0  0
  -49.4078   70.6437  -22.6111 H   0  0  0  0  0  0
  -45.8079   70.4196  -23.2665 H   0  0  0  0  0  0
  -45.5774   69.2496  -21.7805 H   0  0  0  0  0  0
  -49.1188   69.2974  -20.9284 H   0  0  0  0  0  0
  -49.3016   73.8531  -30.0289 H   0  0  0  0  0  0
  1  2  1  0  0  0
  1119  1  0  0  0
  1120  1  0  0  0
  1121  1  0  0  0
  2  3  1  0  0  0
  2  5  1  0  0  0
  2122  1  0  0  0
  3  4  2  0  0  0
  3 10  1  0  0  0
  5  6  1  0  0  0
  5123  1  0  0  0
  5124  1  0  0  0
  6  7  1  0  0  0
  6125  1  0  0  0
  6126  1  0  0  0
  7  8  1  0  0  0
  7127  1  0  0  0
  7128  1  0  0  0
  8  9  1  0  0  0
  8129  1  0  0  0
  8130  1  0  0  0
  9131  1  0  0  0
  9132  1  0  0  0
  9133  1  0  0  0
 10 11  1  0  0  0
 10134  1  0  0  0
 11 12  1  0  0  0
 11 14  1  0  0  0
 11135  1  0  0  0
 12 13  2  0  0  0
 12 18  1  0  0  0
 14 15  1  0  0  0
 14136  1  0  0  0
 14137  1  0  0  0
 15 16  1  0  0  0
 15 17  1  0  0  0
 15138  1  0  0  0
 16139  1  0  0  0
 16140  1  0  0  0
 16141  1  0  0  0
 17142  1  0  0  0
 17143  1  0  0  0
 17144  1  0  0  0
 18 19  1  0  0  0
 18145  1  0  0  0
 19 20  1  0  0  0
 19 22  1  0  0  0
 19146  1  0  0  0
 20 21  2  0  0  0
 20 29  1  0  0  0
 22 23  1  0  0  0
 22147  1  0  0  0
 22148  1  0  0  0
 23 24  1  0  0  0
 23149  1  0  0  0
 23150  1  0  0  0
 24 25  1  0  0  0
 24151  1  0  0  0
 24152  1  0  0  0
 25 26  1  0  0  0
 25153  1  0  0  0
 26 27  1  0  0  0
 26 28  2  0  0  0
 27154  1  0  0  0
 27155  1  0  0  0
 28156  1  0  0  0
 29 30  1  0  0  0
 29 35  1  0  0  0
 30 31  1  0  0  0
 30 33  1  0  0  0
 30157  1  0  0  0
 31 32  2  0  0  0
 31 36  1  0  0  0
 33 34  1  0  0  0
 33158  1  0  0  0
 33159  1  0  0  0
 34 35  1  0  0  0
 34160  1  0  0  0
 34161  1  0  0  0
 35162  1  0  0  0
 35163  1  0  0  0
 36 37  1  0  0  0
 36164  1  0  0  0
 37 38  1  0  0  0
 37 40  1  0  0  0
 37165  1  0  0  0
 38 39  2  0  0  0
 38 43  1  0  0  0
 40 41  1  0  0  0
 40 42  1  0  0  0
 40166  1  0  0  0
 41167  1  0  0  0
 41168  1  0  0  0
 41169  1  0  0  0
 42170  1  0  0  0
 42171  1  0  0  0
 42172  1  0  0  0
 43 44  1  0  0  0
 43173  1  0  0  0
 44 45  1  0  0  0
 44 50  1  0  0  0
 44174  1  0  0  0
 45 46  1  0  0  0
 45175  1  0  0  0
 45176  1  0  0  0
 46 47  1  0  0  0
 46177  1  0  0  0
 47 48  1  0  0  0
 47 52  2  0  0  0
 48 49  1  0  0  0
 48178  1  0  0  0
 48179  1  0  0  0
 49180  1  0  0  0
 49181  1  0  0  0
 49182  1  0  0  0
 50 51  2  0  0  0
 50 53  1  0  0  0
 53 54  1  0  0  0
 53183  1  0  0  0
 54 55  1  0  0  0
 54 57  1  0  0  0
 54184  1  0  0  0
 55 56  2  0  0  0
 55 61  1  0  0  0
 57 58  1  0  0  0
 57185  1  0  0  0
 57186  1  0  0  0
 58 59  1  0  0  0
 58187  1  0  0  0
 58188  1  0  0  0
 59 60  1  0  0  0
 60189  1  0  0  0
 60190  1  0  0  0
 60191  1  0  0  0
 61 62  1  0  0  0
 61192  1  0  0  0
 62 63  1  0  0  0
 62 65  1  0  0  0
 62193  1  0  0  0
 63 64  2  0  0  0
 63 68  1  0  0  0
 65 66  1  0  0  0
 65 67  1  0  0  0
 65194  1  0  0  0
 66195  1  0  0  0
 66196  1  0  0  0
 66197  1  0  0  0
 67198  1  0  0  0
 67199  1  0  0  0
 67200  1  0  0  0
 68 69  1  0  0  0
 68201  1  0  0  0
 69 70  1  0  0  0
 69 72  1  0  0  0
 69202  1  0  0  0
 70 71  2  0  0  0
 70 79  1  0  0  0
 72 73  1  0  0  0
 72203  1  0  0  0
 72204  1  0  0  0
 73 74  1  0  0  0
 73205  1  0  0  0
 73206  1  0  0  0
 74 75  1  0  0  0
 74207  1  0  0  0
 74208  1  0  0  0
 75 76  1  0  0  0
 75209  1  0  0  0
 76 77  2  0  0  0
 76 78  1  0  0  0
 77210  1  0  0  0
 78211  1  0  0  0
 78212  1  0  0  0
 79 80  1  0  0  0
 79 85  1  0  0  0
 80 81  1  0  0  0
 80 83  1  0  0  0
 80213  1  0  0  0
 81 82  2  0  0  0
 81 86  1  0  0  0
 83 84  1  0  0  0
 83214  1  0  0  0
 83215  1  0  0  0
 84 85  1  0  0  0
 84216  1  0  0  0
 84217  1  0  0  0
 85218  1  0  0  0
 85219  1  0  0  0
 86 87  1  0  0  0
 86220  1  0  0  0
 87 88  1  0  0  0
 87 90  1  0  0  0
 87221  1  0  0  0
 88 89  2  0  0  0
 88100  1  0  0  0
 90 91  1  0  0  0
 90222  1  0  0  0
 90223  1  0  0  0
 91 92  2  0  0  0
 91 93  1  0  0  0
 92 94  1  0  0  0
 92224  1  0  0  0
 93 95  2  0  0  0
 93 96  1  0  0  0
 94 95  1  0  0  0
 95 97  1  0  0  0
 96 98  2  0  0  0
 96225  1  0  0  0
 97 99  2  0  0  0
 97226  1  0  0  0
 98 99  1  0  0  0
 98227  1  0  0  0
 99228  1  0  0  0
100101  1  0  0  0
100229  1  0  0  0
101102  1  0  0  0
101104  1  0  0  0
101230  1  0  0  0
102103  2  0  0  0
102107  1  0  0  0
104105  1  0  0  0
104106  1  0  0  0
104231  1  0  0  0
105232  1  0  0  0
105233  1  0  0  0
105234  1  0  0  0
106235  1  0  0  0
106236  1  0  0  0
106237  1  0  0  0
107108  1  0  0  0
107238  1  0  0  0
108109  1  0  0  0
108111  1  0  0  0
108239  1  0  0  0
109110  2  0  0  0
109118  1  0  0  0
111112  1  0  0  0
111240  1  0  0  0
111241  1  0  0  0
112113  1  0  0  0
112242  1  0  0  0
112243  1  0  0  0
113114  1  0  0  0
113244  1  0  0  0
113245  1  0  0  0
114115  1  0  0  0
114246  1  0  0  0
115116  1  0  0  0
115117  2  0  0  0
116247  1  0  0  0
116248  1  0  0  0
117249  1  0  0  0
118250  1  0  0  0
M  CHG  2   1   1   9   1
M  END
> <s_m_source_file>
../4i7c_ligand.sdf

> <i_m_source_file_index>
1

> <s_epik_input>
W05IMytdW0NIMl1bQ0gyXVtDSDJdW0NIMl1bQ0BIXShbTkgzK10pQyg9TylbTkhdW0NAQEhdKFtDSDJdW0NIXShbQ0gzXSlbQ0gzXSlDKD1PKVtOSF1bQ0BASF0oW0NIMl1bQ0gyXVtDSDJdW05IXS9DKFtOSDJdKT1OXFtIXSlDKD1PKU4xW0NAQEhdKFtDSDJdW0NIMl1bQ0gyXTEpQyg9TylbTkhdW0NAQEhdKFtDSF0oW0NIM10pW0NIM10pQyg9TylbTkhdW0NAQEhdKFtDSDJdW05IXUMoPU8pW0NIMl1bQ0gzXSlDKD1PKVtOSF1bQ0BASF0oW0NIMl1bQ0gyXVNbQ0gzXSlDKD1PKVtOSF1bQ0BASF0oW0NIXShbQ0gzXSlbQ0gzXSlDKD1PKVtOSF1bQ0BASF0oW0NIMl1bQ0gyXVtDSDJdW05IXS9DKD1OXFtIXSlbTkgyXSlDKD1PKU4yW0NAQEhdKFtDSDJdW0NIMl1bQ0gyXTIpQyg9TylbTkhdW0NAQEhdKFtDSDJdYzNbY0hdW25IXWMoYzM0KVtjSF1bY0hdW2NIXVtjSF00KUMoPU8pW05IXVtDQEBIXShbQ0hdKFtDSDNdKVtDSDNdKUMoPU8pW05IXVtDQEhdKEMoPU8pW09IXSlbQ0gyXVtDSDJdW0NIMl1bTkhdL0MoW05IMl0pPU5cW0hd

> <s_epik_cmdline>
J2VwaWtfYXBwJywgJy1pbWFlJywgJ2xpZ2FuZF9wcm8ubWFlJywgJy1vbWFlJywgJ2xpZ2FuZF9wcmVwLm1hZScsICctbXMnLCAnMScsICctcGgnLCAnNycsICctcGh0JywgJzAuNScsICctbnQn

> <s_epik_pKa_notes>
Molecule size exceeds maximum supported for generating protonation states

> <s_epik_Chemistry_Notes>
This compound has an imine and may undergo hydrolysis.

$$$$
