4i7d_ligand
                    3D
 Schrodinger Suite 2020-3.
250251  0  0  1  0            999 V2000
   -6.6060   30.3030   74.7810 C   0  0  0  0  0  0
   -6.2930   31.3170   74.1770 O   0  0  0  0  0  0
   -6.8080   30.3230   76.2790 C   0  0  0  0  0  0
   -6.7840   29.1410   74.1390 N   0  0  0  0  0  0
   -7.2100   27.9070   74.7870 C   0  0  2  0  0  0
   -6.4440   26.6800   74.2850 C   0  0  0  0  0  0
   -6.2580   26.5030   73.0750 O   0  0  0  0  0  0
   -8.7100   27.6970   74.5700 C   0  0  0  0  0  0
   -9.5730   28.7880   75.1870 C   0  0  0  0  0  0
  -11.0540   28.5000   75.0160 C   0  0  0  0  0  0
  -11.9100   29.4650   75.8240 C   0  0  0  0  0  0
  -13.2800   28.9310   76.0580 N   0  3  0  0  0  0
   -6.0120   25.8420   75.2300 N   0  0  0  0  0  0
   -5.3680   24.5580   74.9350 C   0  0  2  0  0  0
   -6.3520   23.6330   74.2190 C   0  0  0  0  0  0
   -7.3790   23.2630   74.7880 O   0  0  0  0  0  0
   -4.8860   23.9120   76.2380 C   0  0  0  0  0  0
   -4.0550   22.6310   76.1710 C   0  0  0  0  0  0
   -2.8430   22.8090   75.2730 C   0  0  0  0  0  0
   -3.6160   22.2380   77.5740 C   0  0  0  0  0  0
   -6.0430   23.2780   72.9720 N   0  0  0  0  0  0
   -6.9550   22.5000   72.1270 C   0  0  2  0  0  0
   -6.2830   21.2820   71.4990 C   0  0  0  0  0  0
   -5.5090   21.4260   70.5490 O   0  0  0  0  0  0
   -7.5460   23.3740   71.0090 C   0  0  0  0  0  0
   -8.6110   24.3480   71.4790 C   0  0  0  0  0  0
   -9.2310   25.1300   70.3300 C   0  0  0  0  0  0
  -10.0930   26.2020   70.8350 N   0  0  0  0  0  0
  -11.3720   26.0640   71.1830 C   0  0  0  0  0  0
  -11.9940   24.8960   71.0740 N   0  0  0  0  0  0
  -12.0390   27.1140   71.6480 N   0  0  0  0  0  0
   -6.5790   20.0780   72.0200 N   0  0  0  0  0  0
   -6.2270   18.8810   71.2560 C   0  0  2  0  0  0
   -6.9990   18.8360   69.9420 C   0  0  0  0  0  0
   -8.1570   19.2490   69.8900 O   0  0  0  0  0  0
   -6.6420   17.7200   72.1790 C   0  0  0  0  0  0
   -7.5470   18.3220   73.1970 C   0  0  0  0  0  0
   -7.0930   19.7390   73.3570 C   0  0  0  0  0  0
   -6.3430   18.3610   68.8920 N   0  0  0  0  0  0
   -6.9350   18.2930   67.5640 C   0  0  2  0  0  0
   -7.2130   16.8370   67.2080 C   0  0  0  0  0  0
   -6.3140   16.0050   67.2650 O   0  0  0  0  0  0
   -5.9880   18.8860   66.5060 C   0  0  0  0  0  0
   -6.6510   18.8860   65.1340 C   0  0  0  0  0  0
   -5.5660   20.2920   66.9090 C   0  0  0  0  0  0
   -8.4590   16.5430   66.8470 N   0  0  0  0  0  0
   -8.8510   15.2040   66.4080 C   0  0  2  0  0  0
   -9.1240   15.2170   64.9090 C   0  0  0  0  0  0
   -9.9740   15.9710   64.4230 O   0  0  0  0  0  0
  -10.0810   14.7290   67.1660 C   0  0  0  0  0  0
   -8.3880   14.3860   64.1830 N   0  0  0  0  0  0
   -8.6030   14.2020   62.7570 C   0  0  2  0  0  0
   -9.7070   13.1620   62.5850 C   0  0  0  0  0  0
   -9.5340   11.9970   62.9410 O   0  0  0  0  0  0
   -7.3080   13.7350   62.0950 C   0  0  0  0  0  0
   -7.2320   13.9880   60.6020 C   0  0  0  0  0  0
   -5.5300   13.9580   60.0030 S   0  0  0  0  0  0
   -4.8610   15.4160   60.8040 C   0  0  0  0  0  0
  -10.8510   13.6010   62.0690 N   0  0  0  0  0  0
  -12.0040   12.7320   61.8980 C   0  0  2  0  0  0
  -12.2150   12.4160   60.4250 C   0  0  0  0  0  0
  -12.2940   13.3210   59.5890 O   0  0  0  0  0  0
  -13.2840   13.3800   62.4500 C   0  0  0  0  0  0
  -14.4420   12.3980   62.3690 C   0  0  0  0  0  0
  -13.0650   13.8470   63.8830 C   0  0  0  0  0  0
  -12.3070   11.1260   60.1220 N   0  0  0  0  0  0
  -12.5330   10.6530   58.7650 C   0  0  2  0  0  0
  -14.0260   10.6050   58.4800 C   0  0  0  0  0  0
  -14.8120   10.2870   59.3640 O   0  0  0  0  0  0
  -11.9320    9.2550   58.5820 C   0  0  0  0  0  0
  -10.4310    9.1640   58.8380 C   0  0  0  0  0  0
   -9.6040    9.9470   57.8240 C   0  0  0  0  0  0
   -9.7890    9.4650   56.4550 N   0  0  0  0  0  0
   -9.0970    9.8880   55.3990 C   0  0  0  0  0  0
   -8.1510   10.8150   55.5300 N   0  0  0  0  0  0
   -9.3510    9.3760   54.1990 N   0  0  0  0  0  0
  -14.4240   10.9160   57.2390 N   0  0  0  0  0  0
  -15.8440   10.9280   56.8970 C   0  0  2  0  0  0
  -16.4760    9.5370   56.8480 C   0  0  0  0  0  0
  -15.7760    8.5430   56.7050 O   0  0  0  0  0  0
  -15.8680   11.5700   55.5040 C   0  0  0  0  0  0
  -14.5230   11.2990   54.9360 C   0  0  0  0  0  0
  -13.5740   11.3020   56.0970 C   0  0  0  0  0  0
  -19.6790    8.5270   55.8740 C   0  0  0  0  0  0
  -17.8010    9.5090   56.9580 N   0  0  0  0  0  0
  -20.3670    9.5470   55.9170 O   0  0  0  0  0  0
  -18.6060    8.2940   56.9030 C   0  0  1  0  0  0
  -19.2770    8.1010   58.2640 C   0  0  0  0  0  0
  -18.7650    7.1240   60.5820 C   0  0  0  0  0  0
  -19.9860    7.8420   61.1750 C   0  0  0  0  0  0
  -18.7830    6.8970   59.0620 C   0  0  0  0  0  0
  -20.7440    7.0610   62.1440 N   0  0  0  0  0  0
  -21.5860    6.7150   65.4850 C   0  0  0  0  0  0
  -19.1900    7.0430   63.7710 O   0  0  0  0  0  0
  -21.2150    5.9170   64.2500 C   0  0  0  0  0  0
  -20.2950    6.7290   63.3600 C   0  0  0  0  0  0
  -19.8390    7.5960   54.9380 N   0  0  0  0  0  0
  -20.9060    7.6820   53.9370 C   0  0  2  0  0  0
  -22.0830    6.8070   54.3580 C   0  0  0  0  0  0
  -21.8870    5.6740   54.7980 O   0  0  0  0  0  0
  -20.4150    7.2250   52.5510 C   0  0  0  0  0  0
  -21.5380    7.3170   51.5250 C   0  0  0  0  0  0
  -19.2160    8.0540   52.1140 C   0  0  0  0  0  0
  -23.2980    7.3360   54.2280 N   0  0  0  0  0  0
  -24.5120    6.5600   54.4970 C   0  0  2  0  0  0
  -24.8710    5.7150   53.2790 C   0  0  0  0  0  0
  -25.9138    5.0079   53.2657 O   0  0  0  0  0  0
  -25.6820    7.4790   54.8530 C   0  0  0  0  0  0
  -25.4860    8.2660   56.1350 C   0  0  0  0  0  0
  -26.7830    8.9260   56.5660 C   0  0  0  0  0  0
  -26.5640    9.9330   57.5990 N   0  0  0  0  0  0
  -27.5200   10.6850   58.1400 C   0  0  0  0  0  0
  -28.7850   10.5540   57.7600 N   0  0  0  0  0  0
  -27.2060   11.5760   59.0720 N   0  0  0  0  0  0
  -24.1140    5.7242   52.2718 O   0  0  0  0  0  0
   -6.6274   31.3391   76.6598 H   0  0  0  0  0  0
   -6.1042   29.6232   76.7532 H   0  0  0  0  0  0
   -7.8394   30.0212   76.5139 H   0  0  0  0  0  0
   -6.5877   29.1545   73.0567 H   0  0  0  0  0  0
   -6.9707   28.0647   75.8490 H   0  0  0  0  0  0
   -8.9254   27.6783   73.4914 H   0  0  0  0  0  0
   -9.0156   26.7416   75.0215 H   0  0  0  0  0  0
   -9.3575   28.8612   76.2632 H   0  0  0  0  0  0
   -9.3501   29.7499   74.7022 H   0  0  0  0  0  0
  -11.3267   28.5993   73.9550 H   0  0  0  0  0  0
  -11.2701   27.4764   75.3559 H   0  0  0  0  0  0
  -11.4384   29.6430   76.8017 H   0  0  0  0  0  0
  -12.0001   30.4177   75.2815 H   0  0  0  0  0  0
  -13.8619   29.6581   76.6435 H   0  0  0  0  0  0
  -13.2143   27.9829   76.6118 H   0  0  0  0  0  0
  -13.7759   28.7576   75.0916 H   0  0  0  0  0  0
   -6.1596   26.1563   76.2738 H   0  0  0  0  0  0
   -4.5130   24.7721   74.2769 H   0  0  0  0  0  0
   -4.2504   24.6228   76.7864 H   0  0  0  0  0  0
   -5.7545   23.6434   76.8573 H   0  0  0  0  0  0
   -4.6722   21.8287   75.7405 H   0  0  0  0  0  0
   -3.1736   23.0927   74.2629 H   0  0  0  0  0  0
   -2.2816   21.8644   75.2233 H   0  0  0  0  0  0
   -2.1961   23.5989   75.6825 H   0  0  0  0  0  0
   -4.5020   22.1123   78.2137 H   0  0  0  0  0  0
   -2.9716   23.0261   77.9908 H   0  0  0  0  0  0
   -3.0571   21.2915   77.5317 H   0  0  0  0  0  0
   -5.0631   23.5901   72.5816 H   0  0  0  0  0  0
   -7.7301   22.1613   72.8302 H   0  0  0  0  0  0
   -6.7449   23.9696   70.5470 H   0  0  0  0  0  0
   -8.0104   22.7305   70.2472 H   0  0  0  0  0  0
   -9.4154   23.7951   71.9861 H   0  0  0  0  0  0
   -8.1646   25.0698   72.1788 H   0  0  0  0  0  0
   -8.4335   25.5755   69.7172 H   0  0  0  0  0  0
   -9.8352   24.4522   69.7091 H   0  0  0  0  0  0
   -9.6931   27.2200   70.9525 H   0  0  0  0  0  0
  -11.4530   24.0185   70.6903 H   0  0  0  0  0  0
  -11.5354   28.0873   71.7433 H   0  0  0  0  0  0
  -13.0950   27.0104   71.9379 H   0  0  0  0  0  0
   -5.1580   18.8873   70.9969 H   0  0  0  0  0  0
   -7.1590   16.9491   71.5887 H   0  0  0  0  0  0
   -5.7463   17.2847   72.6461 H   0  0  0  0  0  0
   -8.5858   18.2733   72.8386 H   0  0  0  0  0  0
   -7.4585   17.7650   74.1414 H   0  0  0  0  0  0
   -6.2859   19.8423   74.0972 H   0  0  0  0  0  0
   -7.9175   20.4194   73.6162 H   0  0  0  0  0  0
   -5.3130   18.0103   69.0536 H   0  0  0  0  0  0
   -7.8640   18.8787   67.6274 H   0  0  0  0  0  0
   -5.0819   18.2659   66.4381 H   0  0  0  0  0  0
   -6.9450   17.8597   64.8689 H   0  0  0  0  0  0
   -5.9430   19.2698   64.3847 H   0  0  0  0  0  0
   -7.5435   19.5285   65.1581 H   0  0  0  0  0  0
   -5.0915   20.2622   67.9009 H   0  0  0  0  0  0
   -6.4511   20.9442   66.9453 H   0  0  0  0  0  0
   -4.8506   20.6855   66.1719 H   0  0  0  0  0  0
   -9.2061   17.3494   66.8871 H   0  0  0  0  0  0
   -8.0066   14.5374   66.6375 H   0  0  0  0  0  0
   -9.8679   14.7253   68.2452 H   0  0  0  0  0  0
  -10.3420   13.7113   66.8403 H   0  0  0  0  0  0
  -10.9226   15.4069   66.9607 H   0  0  0  0  0  0
   -7.5924   13.8258   64.6961 H   0  0  0  0  0  0
   -8.8997   15.1688   62.3244 H   0  0  0  0  0  0
   -6.4542   14.2586   62.5498 H   0  0  0  0  0  0
   -7.1925   12.6507   62.2397 H   0  0  0  0  0  0
   -7.7994   13.2108   60.0691 H   0  0  0  0  0  0
   -7.6606   14.9753   60.3751 H   0  0  0  0  0  0
   -3.8028   15.5333   60.5274 H   0  0  0  0  0  0
   -4.9448   15.3058   61.8953 H   0  0  0  0  0  0
   -5.4250   16.3033   60.4807 H   0  0  0  0  0  0
  -10.9089   14.6573   61.7676 H   0  0  0  0  0  0
  -11.7486   11.8245   62.4647 H   0  0  0  0  0  0
  -13.5423   14.2609   61.8440 H   0  0  0  0  0  0
  -14.5784   12.0772   61.3257 H   0  0  0  0  0  0
  -15.3614   12.8850   62.7261 H   0  0  0  0  0  0
  -14.2239   11.5214   62.9966 H   0  0  0  0  0  0
  -12.2236   14.5549   63.9134 H   0  0  0  0  0  0
  -12.8379   12.9799   64.5206 H   0  0  0  0  0  0
  -13.9754   14.3435   64.2500 H   0  0  0  0  0  0
  -12.2051   10.4046   60.9461 H   0  0  0  0  0  0
  -12.0369   11.3778   58.1028 H   0  0  0  0  0  0
  -12.4149    8.5542   59.2789 H   0  0  0  0  0  0
  -12.0978    8.9170   57.5484 H   0  0  0  0  0  0
  -10.2042    9.5671   59.8360 H   0  0  0  0  0  0
  -10.1134    8.1121   58.7866 H   0  0  0  0  0  0
   -9.8976   11.0067   57.8515 H   0  0  0  0  0  0
   -8.5364    9.8557   58.0728 H   0  0  0  0  0  0
  -10.5459    8.6963   56.2401 H   0  0  0  0  0  0
   -7.9345   11.2439   56.5195 H   0  0  0  0  0  0
   -7.5856   11.1523   54.6487 H   0  0  0  0  0  0
  -10.1312    8.6094   54.0820 H   0  0  0  0  0  0
  -16.3896   11.4714   57.6825 H   0  0  0  0  0  0
  -16.6646   11.1091   54.9016 H   0  0  0  0  0  0
  -16.0591   12.6489   55.6007 H   0  0  0  0  0  0
  -14.5285   10.3221   54.4305 H   0  0  0  0  0  0
  -14.2658   12.0854   54.2112 H   0  0  0  0  0  0
  -13.1418   12.2966   56.2813 H   0  0  0  0  0  0
  -12.7645   10.5669   55.9774 H   0  0  0  0  0  0
  -18.2877   10.4854   57.0987 H   0  0  0  0  0  0
  -17.9662    7.4389   56.6393 H   0  0  0  0  0  0
  -19.0990    8.9881   58.8896 H   0  0  0  0  0  0
  -20.3592    7.9629   58.1230 H   0  0  0  0  0  0
  -17.8579    7.7103   60.7904 H   0  0  0  0  0  0
  -18.6695    6.1268   61.0365 H   0  0  0  0  0  0
  -19.6586    8.7562   61.6917 H   0  0  0  0  0  0
  -20.6836    8.1074   60.3669 H   0  0  0  0  0  0
  -19.4386    6.0351   58.8688 H   0  0  0  0  0  0
  -17.7551    6.6515   58.7568 H   0  0  0  0  0  0
  -21.7541    6.7046   61.8937 H   0  0  0  0  0  0
  -22.2531    6.1157   66.1221 H   0  0  0  0  0  0
  -22.1000    7.6395   65.1834 H   0  0  0  0  0  0
  -20.6740    6.9686   66.0453 H   0  0  0  0  0  0
  -20.7010    4.9925   64.5516 H   0  0  0  0  0  0
  -22.1270    5.6634   63.6897 H   0  0  0  0  0  0
  -19.1431    6.7442   54.9283 H   0  0  0  0  0  0
  -21.1913    8.7440   53.9100 H   0  0  0  0  0  0
  -20.0982    6.1732   52.6098 H   0  0  0  0  0  0
  -22.3924    6.7112   51.8613 H   0  0  0  0  0  0
  -21.1805    6.9403   50.5553 H   0  0  0  0  0  0
  -21.8517    8.3659   51.4179 H   0  0  0  0  0  0
  -18.4195    7.9727   52.8683 H   0  0  0  0  0  0
  -19.5166    9.1070   52.0102 H   0  0  0  0  0  0
  -18.8453    7.6815   51.1476 H   0  0  0  0  0  0
  -23.3757    8.3859   53.9090 H   0  0  0  0  0  0
  -24.2729    5.9149   55.3553 H   0  0  0  0  0  0
  -26.1578    4.4044   52.3790 H   0  0  0  0  0  0
  -25.8329    8.2101   54.0451 H   0  0  0  0  0  0
  -26.5949    6.8783   54.9792 H   0  0  0  0  0  0
  -25.1507    7.5881   56.9337 H   0  0  0  0  0  0
  -24.7276    9.0463   55.9739 H   0  0  0  0  0  0
  -27.2500    9.4172   55.6996 H   0  0  0  0  0  0
  -27.4666    8.1635   56.9677 H   0  0  0  0  0  0
  -25.5498   10.1136   57.9849 H   0  0  0  0  0  0
  -29.0540    9.8179   56.9881 H   0  0  0  0  0  0
  -29.5644   11.1815   58.2170 H   0  0  0  0  0  0
  -26.1601   11.6911   59.3928 H   0  0  0  0  0  0
  1  2  2  0  0  0
  1  3  1  0  0  0
  1  4  1  0  0  0
  3116  1  0  0  0
  3117  1  0  0  0
  3118  1  0  0  0
  4  5  1  0  0  0
  4119  1  0  0  0
  5  6  1  0  0  0
  5  8  1  0  0  0
  5120  1  0  0  0
  6  7  2  0  0  0
  6 13  1  0  0  0
  8  9  1  0  0  0
  8121  1  0  0  0
  8122  1  0  0  0
  9 10  1  0  0  0
  9123  1  0  0  0
  9124  1  0  0  0
 10 11  1  0  0  0
 10125  1  0  0  0
 10126  1  0  0  0
 11 12  1  0  0  0
 11127  1  0  0  0
 11128  1  0  0  0
 12129  1  0  0  0
 12130  1  0  0  0
 12131  1  0  0  0
 13 14  1  0  0  0
 13132  1  0  0  0
 14 15  1  0  0  0
 14 17  1  0  0  0
 14133  1  0  0  0
 15 16  2  0  0  0
 15 21  1  0  0  0
 17 18  1  0  0  0
 17134  1  0  0  0
 17135  1  0  0  0
 18 19  1  0  0  0
 18 20  1  0  0  0
 18136  1  0  0  0
 19137  1  0  0  0
 19138  1  0  0  0
 19139  1  0  0  0
 20140  1  0  0  0
 20141  1  0  0  0
 20142  1  0  0  0
 21 22  1  0  0  0
 21143  1  0  0  0
 22 23  1  0  0  0
 22 25  1  0  0  0
 22144  1  0  0  0
 23 24  2  0  0  0
 23 32  1  0  0  0
 25 26  1  0  0  0
 25145  1  0  0  0
 25146  1  0  0  0
 26 27  1  0  0  0
 26147  1  0  0  0
 26148  1  0  0  0
 27 28  1  0  0  0
 27149  1  0  0  0
 27150  1  0  0  0
 28 29  1  0  0  0
 28151  1  0  0  0
 29 30  2  0  0  0
 29 31  1  0  0  0
 30152  1  0  0  0
 31153  1  0  0  0
 31154  1  0  0  0
 32 33  1  0  0  0
 32 38  1  0  0  0
 33 34  1  0  0  0
 33 36  1  0  0  0
 33155  1  0  0  0
 34 35  2  0  0  0
 34 39  1  0  0  0
 36 37  1  0  0  0
 36156  1  0  0  0
 36157  1  0  0  0
 37 38  1  0  0  0
 37158  1  0  0  0
 37159  1  0  0  0
 38160  1  0  0  0
 38161  1  0  0  0
 39 40  1  0  0  0
 39162  1  0  0  0
 40 41  1  0  0  0
 40 43  1  0  0  0
 40163  1  0  0  0
 41 42  2  0  0  0
 41 46  1  0  0  0
 43 44  1  0  0  0
 43 45  1  0  0  0
 43164  1  0  0  0
 44165  1  0  0  0
 44166  1  0  0  0
 44167  1  0  0  0
 45168  1  0  0  0
 45169  1  0  0  0
 45170  1  0  0  0
 46 47  1  0  0  0
 46171  1  0  0  0
 47 48  1  0  0  0
 47 50  1  0  0  0
 47172  1  0  0  0
 48 49  2  0  0  0
 48 51  1  0  0  0
 50173  1  0  0  0
 50174  1  0  0  0
 50175  1  0  0  0
 51 52  1  0  0  0
 51176  1  0  0  0
 52 53  1  0  0  0
 52 55  1  0  0  0
 52177  1  0  0  0
 53 54  2  0  0  0
 53 59  1  0  0  0
 55 56  1  0  0  0
 55178  1  0  0  0
 55179  1  0  0  0
 56 57  1  0  0  0
 56180  1  0  0  0
 56181  1  0  0  0
 57 58  1  0  0  0
 58182  1  0  0  0
 58183  1  0  0  0
 58184  1  0  0  0
 59 60  1  0  0  0
 59185  1  0  0  0
 60 61  1  0  0  0
 60 63  1  0  0  0
 60186  1  0  0  0
 61 62  2  0  0  0
 61 66  1  0  0  0
 63 64  1  0  0  0
 63 65  1  0  0  0
 63187  1  0  0  0
 64188  1  0  0  0
 64189  1  0  0  0
 64190  1  0  0  0
 65191  1  0  0  0
 65192  1  0  0  0
 65193  1  0  0  0
 66 67  1  0  0  0
 66194  1  0  0  0
 67 68  1  0  0  0
 67 70  1  0  0  0
 67195  1  0  0  0
 68 69  2  0  0  0
 68 77  1  0  0  0
 70 71  1  0  0  0
 70196  1  0  0  0
 70197  1  0  0  0
 71 72  1  0  0  0
 71198  1  0  0  0
 71199  1  0  0  0
 72 73  1  0  0  0
 72200  1  0  0  0
 72201  1  0  0  0
 73 74  1  0  0  0
 73202  1  0  0  0
 74 75  1  0  0  0
 74 76  2  0  0  0
 75203  1  0  0  0
 75204  1  0  0  0
 76205  1  0  0  0
 77 78  1  0  0  0
 77 83  1  0  0  0
 78 79  1  0  0  0
 78 81  1  0  0  0
 78206  1  0  0  0
 79 80  2  0  0  0
 79 85  1  0  0  0
 81 82  1  0  0  0
 81207  1  0  0  0
 81208  1  0  0  0
 82 83  1  0  0  0
 82209  1  0  0  0
 82210  1  0  0  0
 83211  1  0  0  0
 83212  1  0  0  0
 84 86  2  0  0  0
 84 87  1  0  0  0
 84 97  1  0  0  0
 85 87  1  0  0  0
 85213  1  0  0  0
 87 88  1  0  0  0
 87214  1  0  0  0
 88 91  1  0  0  0
 88215  1  0  0  0
 88216  1  0  0  0
 89 90  1  0  0  0
 89 91  1  0  0  0
 89217  1  0  0  0
 89218  1  0  0  0
 90 92  1  0  0  0
 90219  1  0  0  0
 90220  1  0  0  0
 91221  1  0  0  0
 91222  1  0  0  0
 92 96  1  0  0  0
 92223  1  0  0  0
 93 95  1  0  0  0
 93224  1  0  0  0
 93225  1  0  0  0
 93226  1  0  0  0
 94 96  2  0  0  0
 95 96  1  0  0  0
 95227  1  0  0  0
 95228  1  0  0  0
 97 98  1  0  0  0
 97229  1  0  0  0
 98 99  1  0  0  0
 98101  1  0  0  0
 98230  1  0  0  0
 99100  2  0  0  0
 99104  1  0  0  0
101102  1  0  0  0
101103  1  0  0  0
101231  1  0  0  0
102232  1  0  0  0
102233  1  0  0  0
102234  1  0  0  0
103235  1  0  0  0
103236  1  0  0  0
103237  1  0  0  0
104105  1  0  0  0
104238  1  0  0  0
105106  1  0  0  0
105108  1  0  0  0
105239  1  0  0  0
106107  1  0  0  0
106115  2  0  0  0
107240  1  0  0  0
108109  1  0  0  0
108241  1  0  0  0
108242  1  0  0  0
109110  1  0  0  0
109243  1  0  0  0
109244  1  0  0  0
110111  1  0  0  0
110245  1  0  0  0
110246  1  0  0  0
111112  1  0  0  0
111247  1  0  0  0
112113  1  0  0  0
112114  2  0  0  0
113248  1  0  0  0
113249  1  0  0  0
114250  1  0  0  0
M  CHG  1  12   1
M  END
> <s_m_source_file>
../4i7d_ligand.sdf

> <i_m_source_file_index>
1

> <s_epik_input>
W05IMytdW0NIMl1bQ0gyXVtDSDJdW0NIMl1bQ0BIXShbTkhdQyg9TylbQ0gzXSlDKD1PKVtOSF1bQ0BASF0oW0NIMl1bQ0hdKFtDSDNdKVtDSDNdKUMoPU8pW05IXVtDQEBIXShbQ0gyXVtDSDJdW0NIMl1bTkhdL0MoPU5cW0hdKVtOSDJdKUMoPU8pTjFbQ0BASF0oW0NIMl1bQ0gyXVtDSDJdMSlDKD1PKVtOSF1bQ0BASF0oW0NIXShbQ0gzXSlbQ0gzXSlDKD1PKVtOSF1bQ0BASF0oW0NIM10pQyg9TylbTkhdW0NAQEhdKFtDSDJdW0NIMl1TW0NIM10pQyg9TylbTkhdW0NAQEhdKFtDSF0oW0NIM10pW0NIM10pQyg9TylbTkhdW0NAQEhdKFtDSDJdW0NIMl1bQ0gyXVtOSF0vQyhbTkgyXSk9TlxbSF0pQyg9TylOMltDQEBIXShbQ0gyXVtDSDJdW0NIMl0yKUMoPU8pW05IXVtDQEBIXShbQ0gyXVtDSDJdW0NIMl1bQ0gyXVtOSF1DKD1PKVtDSDJdW0NIM10pQyg9TylbTkhdW0NAQEhdKFtDSF0oW0NIM10pW0NIM10pQyg9TylbTkhdW0NASF0oQyg9TylbT0hdKVtDSDJdW0NIMl1bQ0gyXVtOSF0vQyhbTkgyXSk9TlxbSF0=

> <s_epik_cmdline>
J2VwaWtfYXBwJywgJy1pbWFlJywgJ2xpZ2FuZF9wcm8ubWFlJywgJy1vbWFlJywgJ2xpZ2FuZF9wcmVwLm1hZScsICctbXMnLCAnMScsICctcGgnLCAnNycsICctcGh0JywgJzAuNScsICctbnQn

> <s_epik_pKa_notes>
Molecule size exceeds maximum supported for generating protonation states

> <s_epik_Chemistry_Notes>
This compound has an imine and may undergo hydrolysis.

$$$$
