4i7j_ligand
                    3D
 Schrodinger Suite 2020-3.
 12 12  0  0  1  0            999 V2000
    4.0520    8.5640    0.2300 C   0  0  0  0  0  0
    4.5410    9.7730    0.7260 C   0  0  0  0  0  0
    3.7690   10.6100    1.5330 C   0  0  0  0  0  0
    2.4620   10.1550    1.8410 C   0  0  0  0  0  0
    1.9800    8.9430    1.3640 C   0  0  0  0  0  0
    2.7750    8.1380    0.5630 C   0  0  0  0  0  0
    4.6759    7.9522   -0.4215 H   0  0  0  0  0  0
    5.5584   10.0733    0.4752 H   0  0  0  0  0  0
    4.1498   11.5608    1.9058 H   0  0  0  0  0  0
    1.8189   10.7723    2.4683 H   0  0  0  0  0  0
    0.9703    8.6228    1.6211 H   0  0  0  0  0  0
    2.4007    7.1812    0.1991 H   0  0  0  0  0  0
  1  2  2  0  0  0
  1  6  1  0  0  0
  1  7  1  0  0  0
  2  3  1  0  0  0
  2  8  1  0  0  0
  3  4  2  0  0  0
  3  9  1  0  0  0
  4  5  1  0  0  0
  4 10  1  0  0  0
  5  6  2  0  0  0
  5 11  1  0  0  0
  6 12  1  0  0  0
M  END
> <s_m_source_file>
../4i7j_ligand.sdf

> <i_m_source_file_index>
1

> <s_epik_input>
W2NIXTFbY0hdW2NIXVtjSF1bY0hdW2NIXTE=

> <s_epik_cmdline>
J2VwaWtfYXBwJywgJy1pbWFlJywgJ2xpZ2FuZF9wcm8ubWFlJywgJy1vbWFlJywgJ2xpZ2FuZF9wcmVwLm1hZScsICctbXMnLCAnMScsICctcGgnLCAnNycsICctcGh0JywgJzAuNScsICctbnQn

> <r_lp_tautomer_probability>
1

> <r_epik_Ionization_Penalty>
  0.0000

> <r_epik_Ionization_Penalty_Charging>
  0.0000

> <r_epik_Ionization_Penalty_Neutral>
  0.0000

> <r_epik_State_Penalty>
 -0.0000

> <r_epik_Charging_Adjusted_Penalty>
0

> <i_epik_Tot_Q>
0

> <i_epik_Tot_abs_Q>
0

$$$$
