4i7k_ligand
                    3D
 Schrodinger Suite 2020-3.
 15 15  0  0  1  0            999 V2000
    5.3240   11.1740    0.4770 C   0  0  0  0  0  0
    4.1140   10.4210    0.9760 C   0  0  0  0  0  0
    3.6980    9.2710    0.3200 C   0  0  0  0  0  0
    2.5810    8.5880    0.7720 C   0  0  0  0  0  0
    1.8610    9.0510    1.8670 C   0  0  0  0  0  0
    2.2770   10.2010    2.5280 C   0  0  0  0  0  0
    3.3990   10.8980    2.0850 C   0  0  0  0  0  0
    5.7482   10.6511   -0.3928 H   0  0  0  0  0  0
    6.0779   11.2275    1.2763 H   0  0  0  0  0  0
    5.0273   12.1919    0.1841 H   0  0  0  0  0  0
    4.2481    8.9067   -0.5476 H   0  0  0  0  0  0
    2.2632    7.6777    0.2636 H   0  0  0  0  0  0
    0.9744    8.5150    2.2058 H   0  0  0  0  0  0
    1.7233   10.5587    3.3961 H   0  0  0  0  0  0
    3.7187   11.8063    2.5957 H   0  0  0  0  0  0
  1  2  1  0  0  0
  1  8  1  0  0  0
  1  9  1  0  0  0
  1 10  1  0  0  0
  2  3  2  0  0  0
  2  7  1  0  0  0
  3  4  1  0  0  0
  3 11  1  0  0  0
  4  5  2  0  0  0
  4 12  1  0  0  0
  5  6  1  0  0  0
  5 13  1  0  0  0
  6  7  2  0  0  0
  6 14  1  0  0  0
  7 15  1  0  0  0
M  END
> <s_m_source_file>
../4i7k_ligand.sdf

> <i_m_source_file_index>
1

> <s_epik_input>
W0NIM11jMVtjSF1bY0hdW2NIXVtjSF1bY0hdMQ==

> <s_epik_cmdline>
J2VwaWtfYXBwJywgJy1pbWFlJywgJ2xpZ2FuZF9wcm8ubWFlJywgJy1vbWFlJywgJ2xpZ2FuZF9wcmVwLm1hZScsICctbXMnLCAnMScsICctcGgnLCAnNycsICctcGh0JywgJzAuNScsICctbnQn

> <r_lp_tautomer_probability>
1

> <r_epik_Ionization_Penalty>
  0.0000

> <r_epik_Ionization_Penalty_Charging>
  0.0000

> <r_epik_Ionization_Penalty_Neutral>
  0.0000

> <r_epik_State_Penalty>
 -0.0000

> <r_epik_Charging_Adjusted_Penalty>
0

> <i_epik_Tot_Q>
0

> <i_epik_Tot_abs_Q>
0

$$$$
