4i7m_ligand
                    3D
 Schrodinger Suite 2020-3.
 22 22  0  0  1  0            999 V2000
    4.1590    8.8570    0.6720 C   0  0  0  0  0  0
    3.2490    9.3220    1.6030 C   0  0  0  0  0  0
    3.8740    7.6040    0.1560 C   0  0  0  0  0  0
    5.3480    9.6180    0.2900 C   0  0  0  0  0  0
    2.0950    8.5920    1.9620 C   0  0  0  0  0  0
    3.5050   10.5480    2.1830 O   0  0  0  0  0  0
    2.7170    6.8610    0.4720 C   0  0  0  0  0  0
    1.7870    7.3260    1.3850 C   0  0  0  0  0  0
    5.3180   10.7450   -0.6950 C   0  0  0  0  0  0
    4.3430   10.7180   -1.8410 C   0  0  0  0  0  0
    4.5892    7.1636   -0.5387 H   0  0  0  0  0  0
    5.7778   10.0985    1.1813 H   0  0  0  0  0  0
    6.0906    8.9392   -0.1547 H   0  0  0  0  0  0
    1.4169    9.0109    2.7055 H   0  0  0  0  0  0
    4.4054   11.1130    1.9001 H   0  0  0  0  0  0
    2.5521    5.8993   -0.0139 H   0  0  0  0  0  0
    0.8877    6.7667    1.6431 H   0  0  0  0  0  0
    5.0857   11.6839   -0.1710 H   0  0  0  0  0  0
    6.2997   10.8311   -1.1837 H   0  0  0  0  0  0
    4.4699   11.6240   -2.4518 H   0  0  0  0  0  0
    3.3162   10.6815   -1.4480 H   0  0  0  0  0  0
    4.5302    9.8287   -2.4608 H   0  0  0  0  0  0
  1  2  2  0  0  0
  1  3  1  0  0  0
  1  4  1  0  0  0
  2  5  1  0  0  0
  2  6  1  0  0  0
  3  7  2  0  0  0
  3 11  1  0  0  0
  4  9  1  0  0  0
  4 12  1  0  0  0
  4 13  1  0  0  0
  5  8  2  0  0  0
  5 14  1  0  0  0
  6 15  1  0  0  0
  7  8  1  0  0  0
  7 16  1  0  0  0
  8 17  1  0  0  0
  9 10  1  0  0  0
  9 18  1  0  0  0
  9 19  1  0  0  0
 10 20  1  0  0  0
 10 21  1  0  0  0
 10 22  1  0  0  0
M  END
> <s_m_source_file>
../4i7m_ligand.sdf

> <i_m_source_file_index>
1

> <s_epik_input>
W0NIM11bQ0gyXVtDSDJdYzFjKFtPSF0pW2NIXVtjSF1bY0hdW2NIXTE=

> <s_epik_cmdline>
J2VwaWtfYXBwJywgJy1pbWFlJywgJ2xpZ2FuZF9wcm8ubWFlJywgJy1vbWFlJywgJ2xpZ2FuZF9wcmVwLm1hZScsICctbXMnLCAnMScsICctcGgnLCAnNycsICctcGh0JywgJzAuNScsICctbnQn

> <r_lp_tautomer_probability>
1

> <r_epik_Ionization_Penalty>
  0.0002

> <r_epik_Ionization_Penalty_Charging>
  0.0000

> <r_epik_Ionization_Penalty_Neutral>
  0.0002

> <r_epik_State_Penalty>
 -0.0000

> <r_epik_Charging_Adjusted_Penalty>
0

> <i_epik_Tot_Q>
0

> <i_epik_Tot_abs_Q>
0

$$$$
