4i7p_ligand
                    3D
 Schrodinger Suite 2020-3.
  8  8  0  0  1  0            999 V2000
    2.1050    7.3970    1.0260 Br  0  0  0  0  0  0
    3.4590    8.7240    0.9910 C   0  0  0  0  0  0
    3.5610    9.8170    1.7550 C   0  0  0  0  0  0
    4.6740   10.4140    1.3460 N   0  0  0  0  0  0
    5.2160    9.7170    0.3680 C   0  0  0  0  0  0
    4.4680    8.6370    0.1490 N   0  0  0  0  0  0
    2.8803   10.1453    2.5404 H   0  0  0  0  0  0
    6.1254    9.9805   -0.1721 H   0  0  0  0  0  0
  1  2  1  0  0  0
  2  3  2  0  0  0
  2  6  1  0  0  0
  3  4  1  0  0  0
  3  7  1  0  0  0
  4  5  1  0  0  0
  5  6  2  0  0  0
  5  8  1  0  0  0
M  END
> <s_m_source_file>
../4i7p_ligand.sdf

> <i_m_source_file_index>
1

> <s_epik_input>
QnJjMVtjSF1bbkhdW2NIXW4x

> <s_epik_cmdline>
J2VwaWtfYXBwJywgJy1pbWFlJywgJ2xpZ2FuZF9wcm8ubWFlJywgJy1vbWFlJywgJ2xpZ2FuZF9wcmVwLm1hZScsICctbXMnLCAnMScsICctcGgnLCAnNycsICctcGh0JywgJzAuNScsICctbnQn

> <r_lp_tautomer_probability>
1

> <r_epik_Ionization_Penalty>
 14.4605

> <r_epik_Ionization_Penalty_Charging>
  0.0000

> <r_epik_Ionization_Penalty_Neutral>
 14.4605

> <r_epik_State_Penalty>
 -0.0000

> <r_epik_Charging_Adjusted_Penalty>
0

> <i_epik_Tot_Q>
0

> <i_epik_Tot_abs_Q>
0

$$$$
