4i80_ligand
                    3D
 Schrodinger Suite 2020-3.
162167  0  0  1  0            999 V2000
  -37.3680   27.6050   27.4060 C   0  0  0  0  0  0
  -38.5910   27.5160   27.3090 O   0  0  0  0  0  0
  -36.6910   27.7110   28.7740 C   0  0  0  0  0  0
  -36.7580   28.3120   26.5490 N   0  0  0  0  0  0
  -37.2790   29.3680   25.6840 C   0  0  2  0  0  0
  -38.2590   28.7530   24.6910 C   0  0  0  0  0  0
  -39.4310   29.1140   24.6490 O   0  0  0  0  0  0
  -36.1410   30.0630   24.9310 C   0  0  0  0  0  0
  -34.9200   30.3950   25.7860 C   0  0  0  0  0  0
  -33.8660   31.1500   24.9850 C   0  0  0  0  0  0
  -34.0700   32.5950   25.0350 N   0  0  0  0  0  0
  -35.0260   33.2410   24.3760 C   0  0  0  0  0  0
  -35.8830   32.5770   23.6100 N   0  0  0  0  0  0
  -35.1310   34.5580   24.4850 N   0  0  0  0  0  0
  -37.7640   27.8190   23.8880 N   0  0  0  0  0  0
  -38.6060   27.0390   22.9910 C   0  0  2  0  0  0
  -37.9500   25.6970   22.6900 C   0  0  0  0  0  0
  -36.7940   25.6320   22.2560 O   0  0  0  0  0  0
  -38.8980   27.7920   21.6840 C   0  0  0  0  0  0
  -38.8900   26.8920   20.4720 C   0  0  0  0  0  0
  -37.8070   26.5740   19.6990 C   0  0  0  0  0  0
  -40.0010   26.1870   19.9080 C   0  0  0  0  0  0
  -38.1760   25.7140   18.6910 N   0  0  0  0  0  0
  -39.5200   25.4580   18.7960 C   0  0  0  0  0  0
  -41.3590   26.0910   20.2340 C   0  0  0  0  0  0
  -40.3390   24.6550   18.0100 C   0  0  0  0  0  0
  -42.1760   25.2900   19.4500 C   0  0  0  0  0  0
  -41.6620   24.5840   18.3500 C   0  0  0  0  0  0
  -40.7070   23.2100   21.9240 O   0  0  0  0  0  0
  -39.5690   22.8290   21.6520 C   0  0  0  0  0  0
  -38.4120   23.0430   22.6300 C   0  0  1  0  0  0
  -38.3550   24.4590   23.0190 N   0  0  0  0  0  0
  -38.6030   22.1450   23.8530 C   0  0  0  0  0  0
  -37.8220   22.7190   25.0360 C   0  0  0  0  0  0
  -38.2120   21.9760   26.3150 C   0  0  0  0  0  0
  -36.9920   21.2370   26.8690 C   0  0  0  0  0  0
  -37.4110   20.3890   28.0720 C   0  0  0  0  0  0
  -37.5860   18.9340   27.6350 C   0  0  0  0  0  0
  -37.3190   18.0080   28.8230 C   0  0  0  0  0  0
  -36.9350   16.6640   28.3680 N   0  0  0  0  0  0
  -39.4430   21.8350   20.8830 N   0  0  0  0  0  0
  -40.6100   21.2360   20.2430 C   0  0  2  0  0  0
  -41.5870   20.7880   21.3250 C   0  0  0  0  0  0
  -41.1800   20.2070   22.3280 O   0  0  0  0  0  0
  -40.2180   20.0620   19.3460 C   0  0  0  0  0  0
  -41.3290   19.5880   18.4490 C   0  0  0  0  0  0
  -41.5290   20.1670   17.2090 C   0  0  0  0  0  0
  -42.1740   18.5650   18.8490 C   0  0  0  0  0  0
  -42.5460   19.7380   16.3840 C   0  0  0  0  0  0
  -43.1960   18.1320   18.0280 C   0  0  0  0  0  0
  -43.3800   18.7170   16.7930 C   0  0  0  0  0  0
  -42.8820   21.0780   21.1320 N   0  0  0  0  0  0
  -43.9130   20.8060   22.1410 C   0  0  2  0  0  0
  -43.9210   19.3510   22.6080 C   0  0  0  0  0  0
  -43.9300   18.4250   21.7900 O   0  0  0  0  0  0
  -45.2180   21.1400   21.4090 C   0  0  0  0  0  0
  -44.8200   22.1020   20.3510 C   0  0  0  0  0  0
  -43.4490   21.6740   19.9120 C   0  0  0  0  0  0
  -43.9070   19.1710   23.9250 N   0  0  0  0  0  0
  -43.9800   17.8490   24.5370 C   0  0  2  0  0  0
  -42.6640   17.0710   24.4570 C   0  0  0  0  0  0
  -42.6310   15.8780   24.7410 O   0  0  0  0  0  0
  -45.1260   17.0410   23.9350 C   0  0  0  0  0  0
  -41.5890   17.7500   24.0670 N   0  0  0  0  0  0
  -40.2530   17.1530   24.0560 C   0  0  2  0  0  0
  -39.8100   16.8880   25.4950 C   0  0  0  0  0  0
  -40.2630   17.5680   26.4140 O   0  0  0  0  0  0
  -39.2660   18.0970   23.3630 C   0  0  0  0  0  0
  -37.8580   17.5530   23.2310 C   0  0  0  0  0  0
  -36.8880   18.6190   22.7630 C   0  0  0  0  0  0
  -35.5270   18.0990   22.6700 N   0  0  0  0  0  0
  -34.6780   18.4060   21.6970 C   0  0  0  0  0  0
  -35.0510   19.2330   20.7290 N   0  0  0  0  0  0
  -33.4580   17.8890   21.6860 N   0  0  0  0  0  0
  -38.8110   15.9120   25.1750 N   0  0  0  0  0  0
  -38.4480   15.5010   26.5350 C   0  0  2  0  0  0
  -37.2820   16.3170   27.0820 C   0  0  0  0  0  0
  -36.3960   16.6840   26.3100 O   0  0  0  0  0  0
  -38.0290   14.0410   26.3530 C   0  0  0  0  0  0
  -37.5440   13.9670   24.9500 C   0  0  0  0  0  0
  -38.4030   14.9190   24.1670 C   0  0  0  0  0  0
  -37.2354   27.0910   29.5015 H   0  0  0  0  0  0
  -36.6992   28.7594   29.1069 H   0  0  0  0  0  0
  -35.6517   27.3588   28.6970 H   0  0  0  0  0  0
  -35.6934   28.0388   26.5033 H   0  0  0  0  0  0
  -37.7837   30.0935   26.3389 H   0  0  0  0  0  0
  -35.7909   29.4136   24.1151 H   0  0  0  0  0  0
  -36.5045   31.0133   24.5130 H   0  0  0  0  0  0
  -35.2271   31.0224   26.6357 H   0  0  0  0  0  0
  -34.4710   29.4636   26.1613 H   0  0  0  0  0  0
  -32.8684   30.9303   25.3930 H   0  0  0  0  0  0
  -33.9094   30.8339   23.9323 H   0  0  0  0  0  0
  -33.4074   33.2231   25.6486 H   0  0  0  0  0  0
  -35.8026   31.4841   23.5143 H   0  0  0  0  0  0
  -36.6736   33.1196   23.0710 H   0  0  0  0  0  0
  -34.4248   35.1156   25.1177 H   0  0  0  0  0  0
  -36.6785   27.6428   23.9155 H   0  0  0  0  0  0
  -39.5449   26.8903   23.5445 H   0  0  0  0  0  0
  -39.8908   28.2617   21.7454 H   0  0  0  0  0  0
  -38.1340   28.5682   21.5295 H   0  0  0  0  0  0
  -36.7960   26.9487   19.8591 H   0  0  0  0  0  0
  -41.7660   26.6346   21.0866 H   0  0  0  0  0  0
  -39.9426   24.1041   17.1570 H   0  0  0  0  0  0
  -43.2356   25.2070   19.6918 H   0  0  0  0  0  0
  -42.3327   23.9654   17.7537 H   0  0  0  0  0  0
  -37.4460   22.8155   22.1556 H   0  0  0  0  0  0
  -38.7992   24.7863   23.9706 H   0  0  0  0  0  0
  -39.6717   22.0964   24.1089 H   0  0  0  0  0  0
  -38.2338   21.1338   23.6267 H   0  0  0  0  0  0
  -36.7435   22.5980   24.8567 H   0  0  0  0  0  0
  -38.0576   23.7877   25.1471 H   0  0  0  0  0  0
  -38.5737   22.6975   27.0624 H   0  0  0  0  0  0
  -39.0082   21.2512   26.0897 H   0  0  0  0  0  0
  -36.5732   20.5844   26.0888 H   0  0  0  0  0  0
  -36.2320   21.9677   27.1828 H   0  0  0  0  0  0
  -36.6352   20.4472   28.8496 H   0  0  0  0  0  0
  -38.3623   20.7677   28.4741 H   0  0  0  0  0  0
  -38.6139   18.7805   27.2747 H   0  0  0  0  0  0
  -36.8761   18.7061   26.8262 H   0  0  0  0  0  0
  -36.5019   18.4205   29.4330 H   0  0  0  0  0  0
  -38.2288   17.9262   29.4359 H   0  0  0  0  0  0
  -36.3951   15.9870   29.0464 H   0  0  0  0  0  0
  -38.4409   21.4209   20.6976 H   0  0  0  0  0  0
  -41.0554   22.0189   19.6116 H   0  0  0  0  0  0
  -39.3794   20.3589   18.6991 H   0  0  0  0  0  0
  -39.9151   19.2086   19.9704 H   0  0  0  0  0  0
  -40.8735   20.9733   16.8800 H   0  0  0  0  0  0
  -42.0301   18.0970   19.8228 H   0  0  0  0  0  0
  -42.6917   20.2044   15.4096 H   0  0  0  0  0  0
  -43.8563   17.3290   18.3555 H   0  0  0  0  0  0
  -44.1829   18.3737   16.1406 H   0  0  0  0  0  0
  -43.7137   21.4059   23.0412 H   0  0  0  0  0  0
  -45.6463   20.2199   20.9848 H   0  0  0  0  0  0
  -45.9326   21.5842   22.1176 H   0  0  0  0  0  0
  -45.5404   22.0531   19.5211 H   0  0  0  0  0  0
  -44.8083   23.1203   20.7668 H   0  0  0  0  0  0
  -42.8236   22.5208   19.5928 H   0  0  0  0  0  0
  -43.4775   20.9179   19.1136 H   0  0  0  0  0  0
  -43.8372   20.0674   24.5588 H   0  0  0  0  0  0
  -44.1791   18.0653   25.5970 H   0  0  0  0  0  0
  -46.0587   17.6200   24.0042 H   0  0  0  0  0  0
  -45.2387   16.0967   24.4877 H   0  0  0  0  0  0
  -44.9066   16.8240   22.8792 H   0  0  0  0  0  0
  -41.7281   18.7928   23.7458 H   0  0  0  0  0  0
  -40.3226   16.2088   23.4959 H   0  0  0  0  0  0
  -39.6201   18.3144   22.3445 H   0  0  0  0  0  0
  -39.1929   19.0345   23.9337 H   0  0  0  0  0  0
  -37.5167   17.1784   24.2073 H   0  0  0  0  0  0
  -37.8494   16.7314   22.4996 H   0  0  0  0  0  0
  -37.1917   18.9803   21.7694 H   0  0  0  0  0  0
  -36.8928   19.4573   23.4752 H   0  0  0  0  0  0
  -35.1489   17.4073   23.4372 H   0  0  0  0  0  0
  -36.0627   19.6647   20.7339 H   0  0  0  0  0  0
  -34.3485   19.4870   19.9215 H   0  0  0  0  0  0
  -33.1442   17.2028   22.4864 H   0  0  0  0  0  0
  -39.2918   15.6619   27.2221 H   0  0  0  0  0  0
  -37.2368   13.7942   27.0751 H   0  0  0  0  0  0
  -38.8967   13.3866   26.5228 H   0  0  0  0  0  0
  -36.4851   14.2626   24.9120 H   0  0  0  0  0  0
  -37.6507   12.9370   24.5790 H   0  0  0  0  0  0
  -39.2966   14.4328   23.7487 H   0  0  0  0  0  0
  -37.8478   15.4213   23.3612 H   0  0  0  0  0  0
  1  2  2  0  0  0
  1  3  1  0  0  0
  1  4  1  0  0  0
  3 82  1  0  0  0
  3 83  1  0  0  0
  3 84  1  0  0  0
  4  5  1  0  0  0
  4 85  1  0  0  0
  5  6  1  0  0  0
  5  8  1  0  0  0
  5 86  1  0  0  0
  6  7  2  0  0  0
  6 15  1  0  0  0
  8  9  1  0  0  0
  8 87  1  0  0  0
  8 88  1  0  0  0
  9 10  1  0  0  0
  9 89  1  0  0  0
  9 90  1  0  0  0
 10 11  1  0  0  0
 10 91  1  0  0  0
 10 92  1  0  0  0
 11 12  1  0  0  0
 11 93  1  0  0  0
 12 13  1  0  0  0
 12 14  2  0  0  0
 13 94  1  0  0  0
 13 95  1  0  0  0
 14 96  1  0  0  0
 15 16  1  0  0  0
 15 97  1  0  0  0
 16 17  1  0  0  0
 16 19  1  0  0  0
 16 98  1  0  0  0
 17 18  2  0  0  0
 17 32  1  0  0  0
 19 20  1  0  0  0
 19 99  1  0  0  0
 19100  1  0  0  0
 20 21  2  0  0  0
 20 22  1  0  0  0
 21 23  1  0  0  0
 21101  1  0  0  0
 22 24  2  0  0  0
 22 25  1  0  0  0
 23 24  1  0  0  0
 24 26  1  0  0  0
 25 27  2  0  0  0
 25102  1  0  0  0
 26 28  2  0  0  0
 26103  1  0  0  0
 27 28  1  0  0  0
 27104  1  0  0  0
 28105  1  0  0  0
 29 30  2  0  0  0
 30 31  1  0  0  0
 30 41  1  0  0  0
 31 32  1  0  0  0
 31 33  1  0  0  0
 31106  1  0  0  0
 32107  1  0  0  0
 33 34  1  0  0  0
 33108  1  0  0  0
 33109  1  0  0  0
 34 35  1  0  0  0
 34110  1  0  0  0
 34111  1  0  0  0
 35 36  1  0  0  0
 35112  1  0  0  0
 35113  1  0  0  0
 36 37  1  0  0  0
 36114  1  0  0  0
 36115  1  0  0  0
 37 38  1  0  0  0
 37116  1  0  0  0
 37117  1  0  0  0
 38 39  1  0  0  0
 38118  1  0  0  0
 38119  1  0  0  0
 39 40  1  0  0  0
 39120  1  0  0  0
 39121  1  0  0  0
 40 77  1  0  0  0
 40122  1  0  0  0
 41 42  1  0  0  0
 41123  1  0  0  0
 42 43  1  0  0  0
 42 45  1  0  0  0
 42124  1  0  0  0
 43 44  2  0  0  0
 43 52  1  0  0  0
 45 46  1  0  0  0
 45125  1  0  0  0
 45126  1  0  0  0
 46 47  2  0  0  0
 46 48  1  0  0  0
 47 49  1  0  0  0
 47127  1  0  0  0
 48 50  2  0  0  0
 48128  1  0  0  0
 49 51  2  0  0  0
 49129  1  0  0  0
 50 51  1  0  0  0
 50130  1  0  0  0
 51131  1  0  0  0
 52 53  1  0  0  0
 52 58  1  0  0  0
 53 54  1  0  0  0
 53 56  1  0  0  0
 53132  1  0  0  0
 54 55  2  0  0  0
 54 59  1  0  0  0
 56 57  1  0  0  0
 56133  1  0  0  0
 56134  1  0  0  0
 57 58  1  0  0  0
 57135  1  0  0  0
 57136  1  0  0  0
 58137  1  0  0  0
 58138  1  0  0  0
 59 60  1  0  0  0
 59139  1  0  0  0
 60 61  1  0  0  0
 60 63  1  0  0  0
 60140  1  0  0  0
 61 62  2  0  0  0
 61 64  1  0  0  0
 63141  1  0  0  0
 63142  1  0  0  0
 63143  1  0  0  0
 64 65  1  0  0  0
 64144  1  0  0  0
 65 66  1  0  0  0
 65 68  1  0  0  0
 65145  1  0  0  0
 66 67  2  0  0  0
 66 75  1  0  0  0
 68 69  1  0  0  0
 68146  1  0  0  0
 68147  1  0  0  0
 69 70  1  0  0  0
 69148  1  0  0  0
 69149  1  0  0  0
 70 71  1  0  0  0
 70150  1  0  0  0
 70151  1  0  0  0
 71 72  1  0  0  0
 71152  1  0  0  0
 72 73  1  0  0  0
 72 74  2  0  0  0
 73153  1  0  0  0
 73154  1  0  0  0
 74155  1  0  0  0
 75 76  1  0  0  0
 75 81  1  0  0  0
 76 77  1  0  0  0
 76 79  1  0  0  0
 76156  1  0  0  0
 77 78  2  0  0  0
 79 80  1  0  0  0
 79157  1  0  0  0
 79158  1  0  0  0
 80 81  1  0  0  0
 80159  1  0  0  0
 80160  1  0  0  0
 81161  1  0  0  0
 81162  1  0  0  0
M  END
> <s_m_source_file>
../4i80_ligand.sdf

> <i_m_source_file_index>
1

> <s_epik_input>
W0hdL049QyhbTkgyXSlcW05IXVtDSDJdW0NIMl1bQ0gyXVtDQEhdKFtOSF1DKD1PKVtDSDNdKUMoPU8pW05IXVtDQEBIXShbQ0gyXWMxW2NIXVtuSF1jKGMxMilbY0hdW2NIXVtjSF1bY0hdMilDKD1PKVtOSF1bQ0BIXShDKD1PKVtOSF1bQ0BIXShDMz1PKVtDSDJdYzRbY0hdW2NIXVtjSF1bY0hdW2NIXTQpW0NIMl1bQ0gyXVtDSDJdW0NIMl1bQ0gyXVtDSDJdW0NIMl1bTkhdQyg9TylbQ0BIXShbQ0gyXVtDSDJdW0NIMl01KU41Qyg9TylbQ0BIXShbQ0gyXVtDSDJdW0NIMl1bTkhdL0MoW05IMl0pPU5cW0hdKVtOSF1DKD1PKVtDQEhdKFtDSDNdKVtOSF1DKD1PKVtDQEBIXShOMzYpW0NIMl1bQ0gyXVtDSDJdNg==

> <s_epik_cmdline>
J2VwaWtfYXBwJywgJy1pbWFlJywgJ2xpZ2FuZF9wcm8ubWFlJywgJy1vbWFlJywgJ2xpZ2FuZF9wcmVwLm1hZScsICctbXMnLCAnMScsICctcGgnLCAnNycsICctcGh0JywgJzAuNScsICctbnQn

> <s_epik_pKa_notes>
Molecule size exceeds maximum supported for generating protonation states

> <s_epik_Chemistry_Notes>
This compound has an imine and may undergo hydrolysis.

$$$$
