4i8z_ligand
                    3D
 Schrodinger Suite 2020-3.
 77 80  0  0  1  0            999 V2000
  -17.2240    0.5750   -2.6400 O   0  0  0  0  0  0
  -18.2990    1.0550   -2.9940 C   0  0  0  0  0  0
  -18.6020    1.0790   -4.3500 O   0  0  0  0  0  0
  -17.6440    0.9740   -5.3270 C   0  0  2  0  0  0
  -17.3790    2.3080   -5.9130 C   0  0  2  0  0  0
  -17.4080    3.5630   -5.1090 C   0  0  0  0  0  0
  -18.9560    3.8420   -5.1140 C   0  0  0  0  0  0
  -19.2760    3.5360   -6.4770 O   0  0  0  0  0  0
  -18.4740    2.4590   -6.8530 C   0  0  2  0  0  0
  -19.0890    1.2120   -6.9970 O   0  0  0  0  0  0
  -18.2230    0.2170   -6.4880 C   0  0  0  0  0  0
  -19.3720    1.2320   -2.1370 N   0  0  0  0  0  0
  -19.1480    1.2430   -0.7080 C   0  0  1  0  0  0
  -19.4460    2.6330   -0.1550 C   0  0  0  0  0  0
  -18.4730    3.6290   -0.7850 C   0  0  0  0  0  0
  -18.9050    4.6210   -1.6990 C   0  0  0  0  0  0
  -17.9990    5.5120   -2.2620 C   0  0  0  0  0  0
  -16.6610    5.4140   -1.9370 C   0  0  0  0  0  0
  -16.2080    4.4590   -1.0340 C   0  0  0  0  0  0
  -17.1180    3.5640   -0.4560 C   0  0  0  0  0  0
  -20.1150    0.2160   -0.1090 C   0  0  2  0  0  0
  -21.3940    0.6420   -0.4130 O   0  0  0  0  0  0
  -19.8950   -0.1690    1.3600 C   0  0  0  0  0  0
  -18.5710   -0.8420    1.4390 N   0  0  2  0  0  0
  -18.5810   -2.2980    1.7250 C   0  0  0  0  0  0
  -18.8960   -3.0900    0.4450 C   0  0  0  0  0  0
  -19.2360   -4.5130    0.8770 C   0  0  0  0  0  0
  -17.6620   -3.1830   -0.3960 C   0  0  0  0  0  0
  -17.4060   -0.0590    2.3700 S   0  0  0  0  0  0
  -17.5300    1.3790    2.2000 O   0  0  0  0  0  0
  -16.1320   -0.5190    1.9030 O   0  0  0  0  0  0
  -17.5900   -0.4480    4.1070 C   0  0  0  0  0  0
  -16.7650   -1.4600    4.5850 C   0  0  0  0  0  0
  -16.8460   -1.8720    5.9090 C   0  0  0  0  0  0
  -18.5970    0.2030    4.8240 C   0  0  0  0  0  0
  -18.6580   -0.2240    6.1750 C   0  0  0  0  0  0
  -17.8040   -1.2440    6.6880 C   0  0  0  0  0  0
  -17.8740   -1.6870    8.1280 C   0  0  0  0  0  0
  -18.8800   -1.4640    8.7190 O   0  0  0  0  0  0
  -16.8060   -2.3630    8.8090 N   0  0  0  0  0  0
  -16.7887    0.5154   -4.8092 H   0  0  0  0  0  0
  -16.3338    2.2538   -6.2516 H   0  0  0  0  0  0
  -16.9888    3.3687   -4.1107 H   0  0  0  0  0  0
  -16.8097    4.3358   -5.6138 H   0  0  0  0  0  0
  -19.4498    3.1822   -4.3854 H   0  0  0  0  0  0
  -19.1403    4.8918   -4.8419 H   0  0  0  0  0  0
  -18.1922    2.7399   -7.8785 H   0  0  0  0  0  0
  -17.4150   -0.0752   -7.1748 H   0  0  0  0  0  0
  -18.7349   -0.6842   -6.1195 H   0  0  0  0  0  0
  -20.3889    1.3636   -2.5354 H   0  0  0  0  0  0
  -18.0946    0.9940   -0.5120 H   0  0  0  0  0  0
  -20.4804    2.9125   -0.4037 H   0  0  0  0  0  0
  -19.3203    2.6276    0.9378 H   0  0  0  0  0  0
  -19.9603    4.6864   -1.9639 H   0  0  0  0  0  0
  -18.3419    6.2812   -2.9539 H   0  0  0  0  0  0
  -15.9470    6.0975   -2.3965 H   0  0  0  0  0  0
  -15.1500    4.4067   -0.7769 H   0  0  0  0  0  0
  -16.7666    2.8144    0.2530 H   0  0  0  0  0  0
  -20.0315   -0.7531   -0.6226 H   0  0  0  0  0  0
  -21.6448    0.9388   -1.4421 H   0  0  0  0  0  0
  -19.9081    0.7378    1.9826 H   0  0  0  0  0  0
  -20.6967   -0.8485    1.6850 H   0  0  0  0  0  0
  -17.5946   -2.6041    2.1035 H   0  0  0  0  0  0
  -19.3485   -2.5178    2.4818 H   0  0  0  0  0  0
  -19.6988   -2.6093   -0.1333 H   0  0  0  0  0  0
  -20.1413   -4.5001    1.5017 H   0  0  0  0  0  0
  -18.3981   -4.9310    1.4543 H   0  0  0  0  0  0
  -19.4137   -5.1339   -0.0134 H   0  0  0  0  0  0
  -17.3728   -2.1773   -0.7352 H   0  0  0  0  0  0
  -17.8608   -3.8215   -1.2694 H   0  0  0  0  0  0
  -16.8452   -3.6185    0.1983 H   0  0  0  0  0  0
  -16.0482   -1.9343    3.9147 H   0  0  0  0  0  0
  -16.1927   -2.6457    6.3123 H   0  0  0  0  0  0
  -19.2602    0.9536    4.3940 H   0  0  0  0  0  0
  -19.3816    0.2430    6.8432 H   0  0  0  0  0  0
  -15.8661   -2.5791    8.2800 H   0  0  0  0  0  0
  -16.9277   -2.6648    9.8598 H   0  0  0  0  0  0
  1  2  2  0  0  0
  2  3  1  0  0  0
  2 12  1  0  0  0
  3  4  1  0  0  0
  4  5  1  0  0  0
  4 11  1  0  0  0
  4 41  1  0  0  0
  5  6  1  0  0  0
  5  9  1  0  0  0
  5 42  1  0  0  0
  6  7  1  0  0  0
  6 43  1  0  0  0
  6 44  1  0  0  0
  7  8  1  0  0  0
  7 45  1  0  0  0
  7 46  1  0  0  0
  8  9  1  0  0  0
  9 10  1  0  0  0
  9 47  1  0  0  0
 10 11  1  0  0  0
 11 48  1  0  0  0
 11 49  1  0  0  0
 12 13  1  0  0  0
 12 50  1  0  0  0
 13 14  1  0  0  0
 13 21  1  0  0  0
 13 51  1  0  0  0
 14 15  1  0  0  0
 14 52  1  0  0  0
 14 53  1  0  0  0
 15 16  2  0  0  0
 15 20  1  0  0  0
 16 17  1  0  0  0
 16 54  1  0  0  0
 17 18  2  0  0  0
 17 55  1  0  0  0
 18 19  1  0  0  0
 18 56  1  0  0  0
 19 20  2  0  0  0
 19 57  1  0  0  0
 20 58  1  0  0  0
 21 22  1  0  0  0
 21 23  1  0  0  0
 21 59  1  0  0  0
 22 60  1  0  0  0
 23 24  1  0  0  0
 23 61  1  0  0  0
 23 62  1  0  0  0
 24 25  1  0  0  0
 24 29  1  0  0  0
 25 26  1  0  0  0
 25 63  1  0  0  0
 25 64  1  0  0  0
 26 27  1  0  0  0
 26 28  1  0  0  0
 26 65  1  0  0  0
 27 66  1  0  0  0
 27 67  1  0  0  0
 27 68  1  0  0  0
 28 69  1  0  0  0
 28 70  1  0  0  0
 28 71  1  0  0  0
 29 30  2  0  0  0
 29 31  2  0  0  0
 29 32  1  0  0  0
 32 33  2  0  0  0
 32 35  1  0  0  0
 33 34  1  0  0  0
 33 72  1  0  0  0
 34 37  2  0  0  0
 34 73  1  0  0  0
 35 36  2  0  0  0
 35 74  1  0  0  0
 36 37  1  0  0  0
 36 75  1  0  0  0
 37 38  1  0  0  0
 38 39  2  0  0  0
 38 40  1  0  0  0
 40 76  1  0  0  0
 40 77  1  0  0  0
M  END
> <s_m_source_file>
../4i8z_ligand.sdf

> <i_m_source_file_index>
1

> <s_epik_input>
W0NIMl0xW0NIMl1PW0NAQEhdKFtDQEBIXTEyKU9bQ0gyXVtDQEBIXTJPQyg9TylbTkhdW0NAQEhdKFtDSDJdYzNbY0hdW2NIXVtjSF1bY0hdW2NIXTMpW0NASF0oW09IXSlbQ0gyXU4oW0NIMl1bQ0hdKFtDSDNdKVtDSDNdKVMoPU8pKD1PKWM0W2NIXVtjSF1jKFtjSF1bY0hdNClDKD1PKVtOSDJd

> <s_epik_cmdline>
J2VwaWtfYXBwJywgJy1pbWFlJywgJ2xpZ2FuZF9wcm8ubWFlJywgJy1vbWFlJywgJ2xpZ2FuZF9wcmVwLm1hZScsICctbXMnLCAnMScsICctcGgnLCAnNycsICctcGh0JywgJzAuNScsICctbnQn

> <r_lp_tautomer_probability>
1

> <r_epik_Ionization_Penalty>
  0.0000

> <r_epik_Ionization_Penalty_Charging>
  0.0000

> <r_epik_Ionization_Penalty_Neutral>
  0.0000

> <r_epik_State_Penalty>
 -0.0000

> <r_epik_Charging_Adjusted_Penalty>
0

> <i_epik_Tot_Q>
0

> <i_epik_Tot_abs_Q>
0

> <s_epik_Chemistry_Notes>
This compound has an ester and may undergo hydrolysis at high or low pH. This compound contains an acetal/aminal-like group ( X-CH(R)-Y where X, Y are N, S, or O) that may be acid/base labile, releasing an aldehyde.

$$$$
