4i9c_ligand
                    3D
 Schrodinger Suite 2020-3.
 87 86  0  0  1  0            999 V2000
   15.9720   49.5620   -5.7100 N   0  3  0  0  0  0
   15.0430   48.3850   -5.5100 C   0  0  2  0  0  0
   15.5740   47.4330   -4.4530 C   0  0  0  0  0  0
   16.7340   47.1240   -4.4660 O   0  0  0  0  0  0
   14.8380   47.6550   -6.8200 C   0  0  0  0  0  0
   14.1110   48.5100   -7.8460 C   0  0  0  0  0  0
   12.6400   48.4260   -7.6650 C   0  0  0  0  0  0
   12.0570   47.3380   -7.7700 O   0  0  0  0  0  0
   12.0080   49.5730   -7.3850 N   0  0  0  0  0  0
   14.7350   47.0060   -3.5200 N   0  0  0  0  0  0
   15.1800   46.1470   -2.4070 C   0  0  2  0  0  0
   14.8810   44.6850   -2.7200 C   0  0  0  0  0  0
   14.0520   44.3510   -3.5470 O   0  0  0  0  0  0
   14.4770   46.5420   -1.1110 C   0  0  0  0  0  0
   14.6110   48.0140   -0.8270 C   0  0  0  0  0  0
   15.3640   48.2800    0.4410 C   0  0  0  0  0  0
   16.7240   47.7240    0.4770 N   0  0  0  0  0  0
   17.8020   48.2920   -0.0500 C   0  0  0  0  0  0
   17.7040   49.4030   -0.7430 N   0  0  0  0  0  0
   18.9640   47.7320    0.0840 N   0  3  0  0  0  0
   15.5460   43.7950   -2.0330 N   0  0  0  0  0  0
   15.4260   42.3880   -2.3580 C   0  0  0  0  0  0
   14.0810   41.8500   -1.9370 C   0  0  0  0  0  0
   13.4030   42.4400   -1.0960 O   0  0  0  0  0  0
   13.6990   40.7180   -2.5180 N   0  0  0  0  0  0
   12.4610   40.0870   -2.1610 C   0  0  2  0  0  0
   12.6270   39.0110   -1.0770 C   0  0  0  0  0  0
   12.9160   37.8360   -1.3770 O   0  0  0  0  0  0
   11.7750   39.5510   -3.3960 C   0  0  0  0  0  0
   11.5840   40.6260   -4.4300 C   0  0  0  0  0  0
   10.4430   40.3210   -5.7900 S   0  0  0  0  0  0
    9.1060   39.5570   -4.8640 C   0  0  0  0  0  0
   12.4500   39.4300    0.1770 N   0  0  0  0  0  0
   12.6130   38.5430    1.3040 C   0  0  2  0  0  0
   11.4880   37.4980    1.4260 C   0  0  0  0  0  0
   11.7080   36.3430    1.8620 O   0  5  0  0  0  0
   12.7540   39.3600    2.5970 C   0  0  2  0  0  0
   13.8320   40.4430    2.3970 C   0  0  0  0  0  0
   12.9280   38.4410    3.8360 C   0  0  0  0  0  0
   15.2200   39.8680    2.2160 C   0  0  0  0  0  0
   10.3360   37.7920    1.0870 O   0  0  0  0  0  0
   16.1134   50.0843   -4.7523 H   0  0  0  0  0  0
   15.5339   50.2543   -6.4441 H   0  0  0  0  0  0
   16.9441   49.2032   -6.0790 H   0  0  0  0  0  0
   14.0753   48.7744   -5.1607 H   0  0  0  0  0  0
   15.8151   47.3740   -7.2400 H   0  0  0  0  0  0
   14.2398   46.7486   -6.6450 H   0  0  0  0  0  0
   14.4201   49.5597   -7.7337 H   0  0  0  0  0  0
   14.3616   48.1603   -8.8584 H   0  0  0  0  0  0
   12.5787   50.5098   -7.3039 H   0  0  0  0  0  0
   10.9181   49.5783   -7.2361 H   0  0  0  0  0  0
   13.6803   47.3099   -3.5925 H   0  0  0  0  0  0
   16.2645   46.3029   -2.3096 H   0  0  0  0  0  0
   13.4063   46.3015   -1.1867 H   0  0  0  0  0  0
   14.9189   45.9870   -0.2703 H   0  0  0  0  0  0
   15.1514   48.4991   -1.6532 H   0  0  0  0  0  0
   13.6107   48.4614   -0.7304 H   0  0  0  0  0  0
   15.4608   49.3657    0.5890 H   0  0  0  0  0  0
   14.8191   47.8414    1.2899 H   0  0  0  0  0  0
   16.9109   46.7592    0.9712 H   0  0  0  0  0  0
   16.7254   49.8901   -0.8658 H   0  0  0  0  0  0
   18.6005   49.8466   -1.2008 H   0  0  0  0  0  0
   19.0626   46.8010    0.6615 H   0  0  0  0  0  0
   16.1978   44.1150   -1.2067 H   0  0  0  0  0  0
   15.5367   42.2518   -3.4439 H   0  0  0  0  0  0
   16.2118   41.8227   -1.8356 H   0  0  0  0  0  0
   14.3469   40.2647   -3.2826 H   0  0  0  0  0  0
   11.8616   40.9060   -1.7369 H   0  0  0  0  0  0
   12.3861   38.7491   -3.8360 H   0  0  0  0  0  0
   10.7873   39.1513   -3.1226 H   0  0  0  0  0  0
   11.2044   41.5376   -3.9453 H   0  0  0  0  0  0
   12.5468   40.8428   -4.9158 H   0  0  0  0  0  0
    8.2887   39.2922   -5.5510 H   0  0  0  0  0  0
    8.7343   40.2630   -4.1068 H   0  0  0  0  0  0
    9.4766   38.6481   -4.3674 H   0  0  0  0  0  0
   12.1727   40.4818    0.3405 H   0  0  0  0  0  0
   13.5450   38.0076    1.0700 H   0  0  0  0  0  0
   11.8236   39.9069    2.8097 H   0  0  0  0  0  0
   13.5955   41.0345    1.5003 H   0  0  0  0  0  0
   13.8557   41.1036    3.2762 H   0  0  0  0  0  0
   12.1036   37.7137    3.8717 H   0  0  0  0  0  0
   12.9174   39.0524    4.7504 H   0  0  0  0  0  0
   13.8863   37.9058    3.7638 H   0  0  0  0  0  0
   15.9412   40.6872    2.0785 H   0  0  0  0  0  0
   15.2338   39.2149    1.3309 H   0  0  0  0  0  0
   15.4940   39.2839    3.1070 H   0  0  0  0  0  0
   19.8511   48.1880   -0.3799 H   0  0  0  0  0  0
  1  2  1  0  0  0
  1 42  1  0  0  0
  1 43  1  0  0  0
  1 44  1  0  0  0
  2  3  1  0  0  0
  2  5  1  0  0  0
  2 45  1  0  0  0
  3  4  2  0  0  0
  3 10  1  0  0  0
  5  6  1  0  0  0
  5 46  1  0  0  0
  5 47  1  0  0  0
  6  7  1  0  0  0
  6 48  1  0  0  0
  6 49  1  0  0  0
  7  8  2  0  0  0
  7  9  1  0  0  0
  9 50  1  0  0  0
  9 51  1  0  0  0
 10 11  1  0  0  0
 10 52  1  0  0  0
 11 12  1  0  0  0
 11 14  1  0  0  0
 11 53  1  0  0  0
 12 13  2  0  0  0
 12 21  1  0  0  0
 14 15  1  0  0  0
 14 54  1  0  0  0
 14 55  1  0  0  0
 15 16  1  0  0  0
 15 56  1  0  0  0
 15 57  1  0  0  0
 16 17  1  0  0  0
 16 58  1  0  0  0
 16 59  1  0  0  0
 17 18  1  0  0  0
 17 60  1  0  0  0
 18 19  1  0  0  0
 18 20  2  0  0  0
 19 61  1  0  0  0
 19 62  1  0  0  0
 20 63  1  0  0  0
 20 87  1  0  0  0
 21 22  1  0  0  0
 21 64  1  0  0  0
 22 23  1  0  0  0
 22 65  1  0  0  0
 22 66  1  0  0  0
 23 24  2  0  0  0
 23 25  1  0  0  0
 25 26  1  0  0  0
 25 67  1  0  0  0
 26 27  1  0  0  0
 26 29  1  0  0  0
 26 68  1  0  0  0
 27 28  2  0  0  0
 27 33  1  0  0  0
 29 30  1  0  0  0
 29 69  1  0  0  0
 29 70  1  0  0  0
 30 31  1  0  0  0
 30 71  1  0  0  0
 30 72  1  0  0  0
 31 32  1  0  0  0
 32 73  1  0  0  0
 32 74  1  0  0  0
 32 75  1  0  0  0
 33 34  1  0  0  0
 33 76  1  0  0  0
 34 35  1  0  0  0
 34 37  1  0  0  0
 34 77  1  0  0  0
 35 36  1  0  0  0
 35 41  2  0  0  0
 37 38  1  0  0  0
 37 39  1  0  0  0
 37 78  1  0  0  0
 38 40  1  0  0  0
 38 79  1  0  0  0
 38 80  1  0  0  0
 39 81  1  0  0  0
 39 82  1  0  0  0
 39 83  1  0  0  0
 40 84  1  0  0  0
 40 85  1  0  0  0
 40 86  1  0  0  0
M  CHG  3   1   1  20   1  36  -1
M  END
> <s_m_source_file>
../4i9c_ligand.sdf

> <i_m_source_file_index>
1

> <s_epik_input>
Tz1DKFtOSDJdKVtDSDJdW0NIMl1bQ0BIXShbTkgzK10pQyg9TylbTkhdW0NAQEhdKFtDSDJdW0NIMl1bQ0gyXVtOSF0vQyhbTkgyXSk9TlxbSF0pQyg9TylbTkhdW0NIMl1DKD1PKVtOSF1bQ0BASF0oW0NIMl1bQ0gyXVNbQ0gzXSlDKD1PKVtOSF1bQ0BIXShDKD1PKVtPSF0pW0NAQEhdKFtDSDNdKVtDSDJdW0NIM10=

> <s_epik_cmdline>
J2VwaWtfYXBwJywgJy1pbWFlJywgJ2xpZ2FuZF9wcm8ubWFlJywgJy1vbWFlJywgJ2xpZ2FuZF9wcmVwLm1hZScsICctbXMnLCAnMScsICctcGgnLCAnNycsICctcGh0JywgJzAuNScsICctbnQn

> <r_epik_Ionization_Penalty>
  0.1732

> <r_epik_Ionization_Penalty_Charging>
  0.1732

> <r_epik_Ionization_Penalty_Neutral>
  0.0000

> <r_epik_State_Penalty>
  0.1624

> <r_epik_Charging_Adjusted_Penalty>
0.335600629458091

> <i_epik_Tot_Q>
1

> <i_epik_Tot_abs_Q>
3

> <s_epik_Chemistry_Notes>
This compound has an imine and may undergo hydrolysis.

$$$$
