4i9h_ligand
                    3D
 Schrodinger Suite 2020-3.
 80 83  0  0  1  0            999 V2000
   14.1810   11.6990   29.8130 C   0  0  0  0  0  0
   13.4380   12.8200   30.2820 C   0  0  0  0  0  0
   13.9300   13.5720   31.3830 C   0  0  0  0  0  0
   15.1370   13.2500   32.0280 C   0  0  0  0  0  0
   15.8750   12.1170   31.5450 C   0  0  0  0  0  0
   15.4010   11.3510   30.4460 C   0  0  0  0  0  0
   15.3920   14.1600   33.0810 O   0  0  0  0  0  0
   15.3020   13.7370   34.4090 C   0  0  0  0  0  0
   15.3570   14.9050   35.4060 C   0  0  2  0  0  0
   13.9280   15.3340   35.8400 C   0  0  2  0  0  0
   12.8390   16.1650   38.1280 C   0  0  2  0  0  0
   13.2980   15.2520   39.2790 C   0  0  0  0  0  0
   12.1100   14.7250   39.9120 O   0  0  0  0  0  0
   12.3010   13.6960   40.8590 C   0  0  0  0  0  0
   11.7850   13.8710   42.1830 C   0  0  0  0  0  0
   11.9570   12.8650   43.1880 C   0  0  0  0  0  0
   12.6500   11.7030   42.8260 C   0  0  0  0  0  0
   13.1480   11.5390   41.5340 C   0  0  0  0  0  0
   12.9890   12.5110   40.5430 C   0  0  0  0  0  0
   11.4800   12.9900   44.6010 C   0  0  0  0  0  0
   13.8090   10.4260   41.2310 F   0  0  0  0  0  0
   11.2320   11.9160   45.4720 C   0  0  0  0  0  0
   10.8100   12.1610   46.7970 C   0  0  0  0  0  0
   10.6300   13.4740   47.2710 C   0  0  0  0  0  0
   10.8860   14.5170   46.3660 C   0  0  0  0  0  0
   11.2940   14.2710   45.0920 N   0  0  0  0  0  0
   10.1960   13.7540   48.6640 C   0  0  0  0  0  0
   13.8350   16.4450   36.9510 C   0  0  1  0  0  0
   17.3800   11.5300   32.1750 Cl  0  0  0  0  0  0
   12.2260   13.1200   29.6080 O   0  0  0  0  0  0
   11.2860   13.9330   30.3170 C   0  0  0  0  0  0
   13.6850   10.9690   28.7370 N   0  0  0  0  0  0
   14.4540   10.4370   27.7420 C   0  0  0  0  0  0
   13.7880   10.4780   26.3690 C   0  0  0  0  0  0
   15.3480    9.6240   27.9680 O   0  0  0  0  0  0
   12.5400    9.1860   26.1480 S   0  0  0  0  0  0
   11.0740   10.0870   26.5620 C   0  0  0  0  0  0
    9.8350    9.4190   26.5510 C   0  0  0  0  0  0
    8.6770   10.1580   26.8920 C   0  0  0  0  0  0
    8.7850   11.5280   27.2310 C   0  0  0  0  0  0
   10.0680   12.1020   27.2090 C   0  0  0  0  0  0
   11.1890   11.3990   26.8830 N   0  0  0  0  0  0
    7.6100   12.3340   27.5950 C   0  0  0  0  0  0
    7.7450   13.3980   28.1170 O   0  0  0  0  0  0
   10.4670   14.7780   49.2120 O   0  0  0  0  0  0
    6.4150   11.7470   27.4870 O   0  5  0  0  0  0
    9.5810   12.7630   49.3090 O   0  5  0  0  0  0
   16.0960   15.9510   34.7810 O   0  0  0  0  0  0
   15.1380   16.8560   37.3100 O   0  0  0  0  0  0
   13.1460   14.2170   36.2950 O   0  0  0  0  0  0
   12.5700   17.4300   38.6960 O   0  0  0  0  0  0
   13.3531   14.4257   31.7387 H   0  0  0  0  0  0
   15.9753   10.4959   30.0896 H   0  0  0  0  0  0
   14.3500   13.2074   34.5614 H   0  0  0  0  0  0
   16.1387   13.0598   34.6356 H   0  0  0  0  0  0
   15.9279   14.6697   36.3164 H   0  0  0  0  0  0
   13.4709   15.6929   34.9060 H   0  0  0  0  0  0
   11.9387   15.6852   37.7166 H   0  0  0  0  0  0
   13.9144   14.4351   38.8755 H   0  0  0  0  0  0
   13.8902   15.8375   39.9977 H   0  0  0  0  0  0
   11.2506   14.7880   42.4311 H   0  0  0  0  0  0
   12.8022   10.9159   43.5645 H   0  0  0  0  0  0
   13.3913   12.3535   39.5423 H   0  0  0  0  0  0
   11.3656   10.8916   45.1243 H   0  0  0  0  0  0
   10.6206   11.3196   47.4636 H   0  0  0  0  0  0
   10.7545   15.5486   46.6925 H   0  0  0  0  0  0
   13.4492   17.3901   36.5411 H   0  0  0  0  0  0
   10.3948   14.0927   29.6922 H   0  0  0  0  0  0
   11.7462   14.9035   30.5542 H   0  0  0  0  0  0
   10.9943   13.4278   31.2495 H   0  0  0  0  0  0
   12.6038   10.7871   28.6474 H   0  0  0  0  0  0
   13.2905   11.4494   26.2317 H   0  0  0  0  0  0
   14.5502   10.3427   25.5875 H   0  0  0  0  0  0
    9.7693    8.3634   26.2875 H   0  0  0  0  0  0
    7.7014    9.6718   26.8935 H   0  0  0  0  0  0
   10.1708   13.1567   27.4641 H   0  0  0  0  0  0
   17.1221   15.7659   34.4305 H   0  0  0  0  0  0
   15.8828   17.0677   36.5287 H   0  0  0  0  0  0
   13.0644   13.3131   35.6734 H   0  0  0  0  0  0
   11.8872   17.5135   39.5543 H   0  0  0  0  0  0
  1  2  2  0  0  0
  1  6  1  0  0  0
  1 32  1  0  0  0
  2  3  1  0  0  0
  2 30  1  0  0  0
  3  4  2  0  0  0
  3 52  1  0  0  0
  4  5  1  0  0  0
  4  7  1  0  0  0
  5  6  2  0  0  0
  5 29  1  0  0  0
  6 53  1  0  0  0
  7  8  1  0  0  0
  8  9  1  0  0  0
  8 54  1  0  0  0
  8 55  1  0  0  0
  9 10  1  0  0  0
  9 48  1  0  0  0
  9 56  1  0  0  0
 10 28  1  0  0  0
 10 50  1  0  0  0
 10 57  1  0  0  0
 11 12  1  0  0  0
 11 28  1  0  0  0
 11 51  1  0  0  0
 11 58  1  0  0  0
 12 13  1  0  0  0
 12 59  1  0  0  0
 12 60  1  0  0  0
 13 14  1  0  0  0
 14 15  2  0  0  0
 14 19  1  0  0  0
 15 16  1  0  0  0
 15 61  1  0  0  0
 16 17  2  0  0  0
 16 20  1  0  0  0
 17 18  1  0  0  0
 17 62  1  0  0  0
 18 19  2  0  0  0
 18 21  1  0  0  0
 19 63  1  0  0  0
 20 22  2  0  0  0
 20 26  1  0  0  0
 22 23  1  0  0  0
 22 64  1  0  0  0
 23 24  2  0  0  0
 23 65  1  0  0  0
 24 25  1  0  0  0
 24 27  1  0  0  0
 25 26  2  0  0  0
 25 66  1  0  0  0
 27 45  2  0  0  0
 27 47  1  0  0  0
 28 49  1  0  0  0
 28 67  1  0  0  0
 30 31  1  0  0  0
 31 68  1  0  0  0
 31 69  1  0  0  0
 31 70  1  0  0  0
 32 33  1  0  0  0
 32 71  1  0  0  0
 33 34  1  0  0  0
 33 35  2  0  0  0
 34 36  1  0  0  0
 34 72  1  0  0  0
 34 73  1  0  0  0
 36 37  1  0  0  0
 37 38  2  0  0  0
 37 42  1  0  0  0
 38 39  1  0  0  0
 38 74  1  0  0  0
 39 40  2  0  0  0
 39 75  1  0  0  0
 40 41  1  0  0  0
 40 43  1  0  0  0
 41 42  2  0  0  0
 41 76  1  0  0  0
 43 44  2  0  0  0
 43 46  1  0  0  0
 48 77  1  0  0  0
 49 78  1  0  0  0
 50 79  1  0  0  0
 51 80  1  0  0  0
M  CHG  2  46  -1  47  -1
M  END
> <s_m_source_file>
../4i9h_ligand.sdf

> <i_m_source_file_index>
1

> <s_epik_input>
bjFbY0hdYyhDKD1PKVtPSF0pW2NIXVtjSF1jMVNbQ0gyXUMoPU8pW05IXWMyYyhPW0NIM10pW2NIXWMoYyhDbClbY0hdMilPW0NIMl1bQ0BASF0oW09IXSlbQ0BASF0oW09IXSlbQ0BIXShbT0hdKVtDQEhdKFtPSF0pW0NIMl1PYzNbY0hdYyhbY0hdYyhGKVtjSF0zKS1jNFtjSF1bY0hdYyhbY0hdbjQpQyg9TylbT0hd

> <s_epik_cmdline>
J2VwaWtfYXBwJywgJy1pbWFlJywgJ2xpZ2FuZF9wcm8ubWFlJywgJy1vbWFlJywgJ2xpZ2FuZF9wcmVwLm1hZScsICctbXMnLCAnMScsICctcGgnLCAnNycsICctcGh0JywgJzAuNScsICctbnQn

> <r_lp_tautomer_probability>
1

> <r_epik_Ionization_Penalty>
  0.0038

> <r_epik_Ionization_Penalty_Charging>
  0.0003

> <r_epik_Ionization_Penalty_Neutral>
  0.0034

> <r_epik_State_Penalty>
 -0.0000

> <r_epik_Charging_Adjusted_Penalty>
0.000342642177604564

> <i_epik_Tot_Q>
-2

> <i_epik_Tot_abs_Q>
2

$$$$
