4i9o_ligand
                    3D
 Schrodinger Suite 2020-3.
 40 41  0  0  1  0            999 V2000
   25.2660   -2.1370   14.4930 O   0  0  0  0  0  0
   25.9380   -1.6990   15.4100 C   0  0  0  0  0  0
   27.4430   -1.8340   15.3840 C   0  0  0  0  0  0
   28.4730   -1.5040   14.4080 C   0  0  0  0  0  0
   28.7670    0.2840   14.4620 S   0  0  0  0  0  0
   25.3770   -1.0730   16.4650 N   0  0  0  0  0  0
   23.9430   -0.7790   16.5870 C   0  0  0  0  0  0
   23.6850    0.7220   16.5320 C   0  0  0  0  0  0
   24.4430    1.4560   17.6470 C   0  0  0  0  0  0
   23.8390    1.1010   18.8930 O   0  0  0  0  0  0
   25.8950    0.9700   17.7040 C   0  0  0  0  0  0
   26.1240   -0.5270   17.6050 C   0  0  0  0  0  0
   24.3810    2.9710   17.4780 C   0  0  0  0  0  0
   24.4570    3.5730   16.2230 C   0  0  0  0  0  0
   24.4220    4.9520   16.0900 C   0  0  0  0  0  0
   24.3270    5.7540   17.2220 C   0  0  0  0  0  0
   24.3090    7.4750   17.0060 Cl  0  0  0  0  0  0
   24.2550    5.1870   18.4930 C   0  0  0  0  0  0
   24.2770    3.8000   18.5910 C   0  0  0  0  0  0
   24.2130    6.0200   19.7370 C   0  0  0  0  0  0
   23.1320    6.7870   19.7980 F   0  0  0  0  0  0
   25.2510    6.8310   19.8080 F   0  0  0  0  0  0
   24.1410    5.3010   20.8380 F   0  0  0  0  0  0
   27.8773   -1.2564   16.2133 H   0  0  0  0  0  0
   27.7180   -2.8936   15.4916 H   0  0  0  0  0  0
   29.3989   -2.0439   14.6553 H   0  0  0  0  0  0
   28.1342   -1.7981   13.4037 H   0  0  0  0  0  0
   29.5148    0.7388   13.7957 H   0  0  0  0  0  0
   23.3985   -1.2604   15.7613 H   0  0  0  0  0  0
   23.5698   -1.1655   17.5469 H   0  0  0  0  0  0
   24.0200    1.1163   15.5613 H   0  0  0  0  0  0
   22.6087    0.9138   16.6540 H   0  0  0  0  0  0
   23.7864    0.0454   19.1977 H   0  0  0  0  0  0
   26.4625    1.4119   16.8717 H   0  0  0  0  0  0
   26.3469    1.2760   18.6591 H   0  0  0  0  0  0
   25.7809   -1.0084   18.5326 H   0  0  0  0  0  0
   27.1978   -0.7212   17.4666 H   0  0  0  0  0  0
   24.5453    2.9498   15.3331 H   0  0  0  0  0  0
   24.4688    5.4068   15.1005 H   0  0  0  0  0  0
   24.2101    3.3440   19.5788 H   0  0  0  0  0  0
  1  2  2  0  0  0
  2  3  1  0  0  0
  2  6  1  0  0  0
  3  4  1  0  0  0
  3 24  1  0  0  0
  3 25  1  0  0  0
  4  5  1  0  0  0
  4 26  1  0  0  0
  4 27  1  0  0  0
  5 28  1  0  0  0
  6  7  1  0  0  0
  6 12  1  0  0  0
  7  8  1  0  0  0
  7 29  1  0  0  0
  7 30  1  0  0  0
  8  9  1  0  0  0
  8 31  1  0  0  0
  8 32  1  0  0  0
  9 10  1  0  0  0
  9 11  1  0  0  0
  9 13  1  0  0  0
 10 33  1  0  0  0
 11 12  1  0  0  0
 11 34  1  0  0  0
 11 35  1  0  0  0
 12 36  1  0  0  0
 12 37  1  0  0  0
 13 14  2  0  0  0
 13 19  1  0  0  0
 14 15  1  0  0  0
 14 38  1  0  0  0
 15 16  2  0  0  0
 15 39  1  0  0  0
 16 17  1  0  0  0
 16 18  1  0  0  0
 18 19  2  0  0  0
 18 20  1  0  0  0
 19 40  1  0  0  0
 20 21  1  0  0  0
 20 22  1  0  0  0
 20 23  1  0  0  0
M  END
> <s_m_source_file>
../4i9o_ligand.sdf

> <i_m_source_file_index>
1

> <s_epik_input>
W1NIXVtDSDJdW0NIMl1DKD1PKU4oW0NIMl1bQ0gyXTEpW0NIMl1bQ0gyXUMxKFtPSF0pYzJbY0hdW2NIXWMoQ2wpYyhbY0hdMilDKEYpKEYpRg==

> <s_epik_cmdline>
J2VwaWtfYXBwJywgJy1pbWFlJywgJ2xpZ2FuZF9wcm8ubWFlJywgJy1vbWFlJywgJ2xpZ2FuZF9wcmVwLm1hZScsICctbXMnLCAnMScsICctcGgnLCAnNycsICctcGh0JywgJzAuNScsICctbnQn

> <r_lp_tautomer_probability>
1

> <r_epik_Ionization_Penalty>
  0.0021

> <r_epik_Ionization_Penalty_Charging>
  0.0000

> <r_epik_Ionization_Penalty_Neutral>
  0.0021

> <r_epik_State_Penalty>
 -0.0000

> <r_epik_Charging_Adjusted_Penalty>
0

> <i_epik_Tot_Q>
0

> <i_epik_Tot_abs_Q>
0

$$$$
