4i9r_ligand
                    3D
 Schrodinger Suite 2020-3.
 50 50  0  0  1  0            999 V2000
  -37.5130   19.8770    8.1020 C   0  0  0  0  0  0
  -37.8570   20.5090    6.8470 C   0  0  0  0  0  0
  -38.8750   21.5770    7.0980 C   0  0  0  0  0  0
  -40.1730   20.9040    7.4430 C   0  0  0  0  0  0
  -39.9350   19.9360    8.5770 C   0  0  0  0  0  0
  -38.7230   19.4950    8.9080 C   0  0  0  0  0  0
  -38.6340   18.5680   10.0890 C   0  0  0  0  0  0
  -37.5280   18.4740   10.7890 C   0  0  0  0  0  0
  -37.4440   17.6140   11.9810 C   0  0  0  0  0  0
  -36.3880   17.7620   12.7800 C   0  0  0  0  0  0
  -36.2030   16.9590   13.9730 C   0  0  0  0  0  0
  -35.1980   17.2700   14.7780 C   0  0  0  0  0  0
  -34.9070   16.4890   15.9860 C   0  0  0  0  0  0
  -33.7780   16.7640   16.6660 C   0  0  0  0  0  0
  -33.4060   16.0090   17.8570 C   0  0  0  0  0  0
  -36.6320   18.7490    7.8720 C   0  0  0  0  0  0
  -36.7430   20.8930    8.9010 C   0  0  0  0  0  0
  -41.0930   19.5270    9.4330 C   0  0  0  0  0  0
  -38.5110   16.5780   12.2480 C   0  0  0  0  0  0
  -35.8570   15.4100   16.4260 C   0  0  0  0  0  0
  -36.9554   20.9551    6.4019 H   0  0  0  0  0  0
  -38.2718   19.7572    6.1594 H   0  0  0  0  0  0
  -38.5417   22.2125    7.9317 H   0  0  0  0  0  0
  -38.9928   22.1912    6.1931 H   0  0  0  0  0  0
  -40.9090   21.6620    7.7492 H   0  0  0  0  0  0
  -40.5498   20.3613    6.5635 H   0  0  0  0  0  0
  -39.5116   17.9642   10.3634 H   0  0  0  0  0  0
  -36.6370   19.0452   10.4891 H   0  0  0  0  0  0
  -35.6202   18.5133   12.5433 H   0  0  0  0  0  0
  -36.8643   16.1153   14.2195 H   0  0  0  0  0  0
  -34.5561   18.1333   14.5482 H   0  0  0  0  0  0
  -33.1143   17.5726   16.3260 H   0  0  0  0  0  0
  -32.4552   16.3947   18.2535 H   0  0  0  0  0  0
  -33.2906   14.9466   17.5964 H   0  0  0  0  0  0
  -34.1917   16.1163   18.6194 H   0  0  0  0  0  0
  -37.1626   17.9824    7.2882 H   0  0  0  0  0  0
  -36.3205   18.3242    8.8377 H   0  0  0  0  0  0
  -35.7444   19.0845    7.3156 H   0  0  0  0  0  0
  -37.3819   21.7670    9.0958 H   0  0  0  0  0  0
  -35.8540   21.2076    8.3347 H   0  0  0  0  0  0
  -36.4301   20.4472    9.8567 H   0  0  0  0  0  0
  -42.0182   19.9678    9.0333 H   0  0  0  0  0  0
  -40.9321   19.8823   10.4615 H   0  0  0  0  0  0
  -41.1796   18.4304    9.4331 H   0  0  0  0  0  0
  -39.2815   16.6350   11.4650 H   0  0  0  0  0  0
  -38.9703   16.7692   13.2291 H   0  0  0  0  0  0
  -38.0579   15.5757   12.2443 H   0  0  0  0  0  0
  -36.7051   15.3609   15.7272 H   0  0  0  0  0  0
  -36.2273   15.6372   17.4366 H   0  0  0  0  0  0
  -35.3337   14.4425   16.4361 H   0  0  0  0  0  0
  1  2  1  0  0  0
  1  6  1  0  0  0
  1 16  1  0  0  0
  1 17  1  0  0  0
  2  3  1  0  0  0
  2 21  1  0  0  0
  2 22  1  0  0  0
  3  4  1  0  0  0
  3 23  1  0  0  0
  3 24  1  0  0  0
  4  5  1  0  0  0
  4 25  1  0  0  0
  4 26  1  0  0  0
  5  6  2  0  0  0
  5 18  1  0  0  0
  6  7  1  0  0  0
  7  8  2  0  0  0
  7 27  1  0  0  0
  8  9  1  0  0  0
  8 28  1  0  0  0
  9 10  2  0  0  0
  9 19  1  0  0  0
 10 11  1  0  0  0
 10 29  1  0  0  0
 11 12  2  0  0  0
 11 30  1  0  0  0
 12 13  1  0  0  0
 12 31  1  0  0  0
 13 14  2  0  0  0
 13 20  1  0  0  0
 14 15  1  0  0  0
 14 32  1  0  0  0
 15 33  1  0  0  0
 15 34  1  0  0  0
 15 35  1  0  0  0
 16 36  1  0  0  0
 16 37  1  0  0  0
 16 38  1  0  0  0
 17 39  1  0  0  0
 17 40  1  0  0  0
 17 41  1  0  0  0
 18 42  1  0  0  0
 18 43  1  0  0  0
 18 44  1  0  0  0
 19 45  1  0  0  0
 19 46  1  0  0  0
 19 47  1  0  0  0
 20 48  1  0  0  0
 20 49  1  0  0  0
 20 50  1  0  0  0
M  END
> <s_m_source_file>
../4i9r_ligand.sdf

> <i_m_source_file_index>
1

> <s_epik_input>
W0NIM11DMShbQ0gzXSlbQ0gyXVtDSDJdW0NIMl1DKFtDSDNdKT1DMS9bQ0hdPVtDSF0vQyhbQ0gzXSk9W0NIXS9bQ0hdPVtDSF0vQyhbQ0gzXSk9W0NIXS9bQ0gzXQ==

> <s_epik_cmdline>
J2VwaWtfYXBwJywgJy1pbWFlJywgJ2xpZ2FuZF9wcm8ubWFlJywgJy1vbWFlJywgJ2xpZ2FuZF9wcmVwLm1hZScsICctbXMnLCAnMScsICctcGgnLCAnNycsICctcGh0JywgJzAuNScsICctbnQn

> <r_lp_tautomer_probability>
1

> <r_epik_Ionization_Penalty>
  0.0000

> <r_epik_Ionization_Penalty_Charging>
  0.0000

> <r_epik_Ionization_Penalty_Neutral>
  0.0000

> <r_epik_State_Penalty>
 -0.0000

> <r_epik_Charging_Adjusted_Penalty>
0

> <i_epik_Tot_Q>
0

> <i_epik_Tot_abs_Q>
0

$$$$
