4i9s_ligand
                    3D
 Schrodinger Suite 2020-3.
 50 50  0  0  1  0            999 V2000
   25.5640   -7.3150  -10.0770 C   0  0  0  0  0  0
   26.1150   -6.6540  -11.2500 C   0  0  0  0  0  0
   25.4020   -5.3620  -11.4840 C   0  0  0  0  0  0
   25.8100   -4.4180  -10.4060 C   0  0  0  0  0  0
   25.4680   -5.0320   -9.0740 C   0  0  0  0  0  0
   25.3750   -6.3760   -8.9120 C   0  0  0  0  0  0
   24.9970   -6.8780   -7.5360 C   0  0  0  0  0  0
   24.7710   -8.1730   -7.2870 C   0  0  0  0  0  0
   24.4120   -8.6130   -5.9240 C   0  0  0  0  0  0
   24.7640   -9.8290   -5.5110 C   0  0  0  0  0  0
   24.4280  -10.2730   -4.1630 C   0  0  0  0  0  0
   25.1450  -11.2290   -3.5990 C   0  0  0  0  0  0
   24.8200  -11.7100   -2.2490 C   0  0  0  0  0  0
   25.5800  -12.6530   -1.6840 C   0  0  0  0  0  0
   25.2550  -13.1790   -0.3770 C   0  0  0  0  0  0
   24.3220   -7.9940  -10.4060 C   0  0  0  0  0  0
   26.5860   -8.3810   -9.6730 C   0  0  0  0  0  0
   25.2510   -4.1220   -7.8950 C   0  0  0  0  0  0
   23.6260   -7.7020   -5.0160 C   0  0  0  0  0  0
   23.6080  -11.1780   -1.5250 C   0  0  0  0  0  0
   27.1850   -6.4553  -11.0901 H   0  0  0  0  0  0
   25.9900   -7.3030  -12.1293 H   0  0  0  0  0  0
   25.6824   -4.9617  -12.4695 H   0  0  0  0  0  0
   24.3156   -5.5318  -11.4529 H   0  0  0  0  0  0
   26.8933   -4.2371  -10.4677 H   0  0  0  0  0  0
   25.2718   -3.4665  -10.5287 H   0  0  0  0  0  0
   24.9099   -6.1388   -6.7260 H   0  0  0  0  0  0
   24.8525   -8.9114   -8.0982 H   0  0  0  0  0  0
   25.3103  -10.5029   -6.1874 H   0  0  0  0  0  0
   23.5875   -9.8206   -3.6163 H   0  0  0  0  0  0
   25.9938  -11.6721   -4.1405 H   0  0  0  0  0  0
   26.4640  -13.0375   -2.2139 H   0  0  0  0  0  0
   25.9973  -13.9394   -0.0928 H   0  0  0  0  0  0
   24.2545  -13.6353   -0.4038 H   0  0  0  0  0  0
   25.2660  -12.3624    0.3600 H   0  0  0  0  0  0
   23.5655   -7.2520  -10.7012 H   0  0  0  0  0  0
   23.9653   -8.5518   -9.5276 H   0  0  0  0  0  0
   24.4951   -8.6921  -11.2382 H   0  0  0  0  0  0
   27.5398   -7.8963   -9.4173 H   0  0  0  0  0  0
   26.7412   -9.0764  -10.5110 H   0  0  0  0  0  0
   26.2113   -8.9361   -8.8004 H   0  0  0  0  0  0
   25.3653   -3.0754   -8.2137 H   0  0  0  0  0  0
   25.9915   -4.3505   -7.1143 H   0  0  0  0  0  0
   24.2377   -4.2751   -7.4953 H   0  0  0  0  0  0
   23.4323   -6.7494   -5.5308 H   0  0  0  0  0  0
   24.2025   -7.5124   -4.0985 H   0  0  0  0  0  0
   22.6697   -8.1794   -4.7561 H   0  0  0  0  0  0
   23.1158  -10.4149   -2.1457 H   0  0  0  0  0  0
   23.9190  -10.7292   -0.5701 H   0  0  0  0  0  0
   22.9056  -12.0021   -1.3313 H   0  0  0  0  0  0
  1  2  1  0  0  0
  1  6  1  0  0  0
  1 16  1  0  0  0
  1 17  1  0  0  0
  2  3  1  0  0  0
  2 21  1  0  0  0
  2 22  1  0  0  0
  3  4  1  0  0  0
  3 23  1  0  0  0
  3 24  1  0  0  0
  4  5  1  0  0  0
  4 25  1  0  0  0
  4 26  1  0  0  0
  5  6  2  0  0  0
  5 18  1  0  0  0
  6  7  1  0  0  0
  7  8  2  0  0  0
  7 27  1  0  0  0
  8  9  1  0  0  0
  8 28  1  0  0  0
  9 10  2  0  0  0
  9 19  1  0  0  0
 10 11  1  0  0  0
 10 29  1  0  0  0
 11 12  2  0  0  0
 11 30  1  0  0  0
 12 13  1  0  0  0
 12 31  1  0  0  0
 13 14  2  0  0  0
 13 20  1  0  0  0
 14 15  1  0  0  0
 14 32  1  0  0  0
 15 33  1  0  0  0
 15 34  1  0  0  0
 15 35  1  0  0  0
 16 36  1  0  0  0
 16 37  1  0  0  0
 16 38  1  0  0  0
 17 39  1  0  0  0
 17 40  1  0  0  0
 17 41  1  0  0  0
 18 42  1  0  0  0
 18 43  1  0  0  0
 18 44  1  0  0  0
 19 45  1  0  0  0
 19 46  1  0  0  0
 19 47  1  0  0  0
 20 48  1  0  0  0
 20 49  1  0  0  0
 20 50  1  0  0  0
M  END
> <s_m_source_file>
../4i9s_ligand.sdf

> <i_m_source_file_index>
1

> <s_epik_input>
W0NIM11DMShbQ0gzXSlbQ0gyXVtDSDJdW0NIMl1DKFtDSDNdKT1DMS9bQ0hdPVtDSF0vQyhbQ0gzXSk9W0NIXS9bQ0hdPVtDSF0vQyhbQ0gzXSk9W0NIXS9bQ0gzXQ==

> <s_epik_cmdline>
J2VwaWtfYXBwJywgJy1pbWFlJywgJ2xpZ2FuZF9wcm8ubWFlJywgJy1vbWFlJywgJ2xpZ2FuZF9wcmVwLm1hZScsICctbXMnLCAnMScsICctcGgnLCAnNycsICctcGh0JywgJzAuNScsICctbnQn

> <r_lp_tautomer_probability>
1

> <r_epik_Ionization_Penalty>
  0.0000

> <r_epik_Ionization_Penalty_Charging>
  0.0000

> <r_epik_Ionization_Penalty_Neutral>
  0.0000

> <r_epik_State_Penalty>
 -0.0000

> <r_epik_Charging_Adjusted_Penalty>
0

> <i_epik_Tot_Q>
0

> <i_epik_Tot_abs_Q>
0

$$$$
