4i9u_ligand
                    3D
 Schrodinger Suite 2020-3.
 35 36  0  0  1  0            999 V2000
   14.1590    9.9010   27.2220 C   0  0  0  0  0  0
   13.6060   10.8580   28.0850 N   0  0  0  0  0  0
   14.1080   11.4110   29.3620 C   0  0  0  0  0  0
   15.0740    9.0900   27.6210 O   0  0  0  0  0  0
   13.6380    9.8330   25.7610 C   0  0  0  0  0  0
   12.1560    8.7600   25.6520 S   0  0  0  0  0  0
   10.8020    9.8860   26.1530 C   0  0  0  0  0  0
    9.4350    9.4520   26.0200 C   0  0  0  0  0  0
    8.3770   10.3860   26.4380 C   0  0  0  0  0  0
    8.6980   11.7020   26.9650 C   0  0  0  0  0  0
   10.0990   12.0240   27.0490 C   0  0  0  0  0  0
   11.1270   11.1220   26.6460 N   0  0  0  0  0  0
    7.5930   12.6820   27.4100 C   0  0  0  0  0  0
    7.7620   14.0490   27.1720 O   0  5  0  0  0  0
    6.5750   12.2830   27.9710 O   0  0  0  0  0  0
   15.3460   10.9780   30.0270 C   0  0  0  0  0  0
   15.8120   11.5660   31.3020 C   0  0  0  0  0  0
   15.0450   12.5970   31.9280 C   0  0  0  0  0  0
   13.8280   13.0490   31.3160 C   0  0  0  0  0  0
   13.3200   12.4930   30.0420 C   0  0  0  0  0  0
   12.1030   12.9170   29.3970 O   0  0  0  0  0  0
   17.2970   11.0110   32.0540 Cl  0  0  0  0  0  0
   11.1570   13.7270   30.1440 C   0  0  0  0  0  0
   12.6390   11.3232   27.8431 H   0  0  0  0  0  0
   13.3712   10.8440   25.4195 H   0  0  0  0  0  0
   14.4237    9.4216   25.1103 H   0  0  0  0  0  0
    9.1924    8.4661   25.6235 H   0  0  0  0  0  0
    7.3330   10.0851   26.3507 H   0  0  0  0  0  0
   10.3864   13.0008   27.4380 H   0  0  0  0  0  0
   15.9434   10.1935   29.5626 H   0  0  0  0  0  0
   15.3828   13.0379   32.8659 H   0  0  0  0  0  0
   13.2546   13.8337   31.8096 H   0  0  0  0  0  0
   10.2910   13.9603   29.5071 H   0  0  0  0  0  0
   11.6433   14.6622   30.4586 H   0  0  0  0  0  0
   10.8202   13.1721   31.0320 H   0  0  0  0  0  0
  1  2  1  0  0  0
  1  4  2  0  0  0
  1  5  1  0  0  0
  2  3  1  0  0  0
  2 24  1  0  0  0
  3 16  2  0  0  0
  3 20  1  0  0  0
  5  6  1  0  0  0
  5 25  1  0  0  0
  5 26  1  0  0  0
  6  7  1  0  0  0
  7  8  2  0  0  0
  7 12  1  0  0  0
  8  9  1  0  0  0
  8 27  1  0  0  0
  9 10  2  0  0  0
  9 28  1  0  0  0
 10 11  1  0  0  0
 10 13  1  0  0  0
 11 12  2  0  0  0
 11 29  1  0  0  0
 13 14  1  0  0  0
 13 15  2  0  0  0
 16 17  1  0  0  0
 16 30  1  0  0  0
 17 18  2  0  0  0
 17 22  1  0  0  0
 18 19  1  0  0  0
 18 31  1  0  0  0
 19 20  2  0  0  0
 19 32  1  0  0  0
 20 21  1  0  0  0
 21 23  1  0  0  0
 23 33  1  0  0  0
 23 34  1  0  0  0
 23 35  1  0  0  0
M  CHG  1  14  -1
M  END
> <s_m_source_file>
../4i9u_ligand.sdf

> <i_m_source_file_index>
1

> <s_epik_input>
bjFbY0hdYyhDKD1PKVtPSF0pW2NIXVtjSF1jMVNbQ0gyXUMoPU8pW05IXWMyW2NIXWMoQ2wpW2NIXVtjSF1jMk9bQ0gzXQ==

> <s_epik_cmdline>
J2VwaWtfYXBwJywgJy1pbWFlJywgJ2xpZ2FuZF9wcm8ubWFlJywgJy1vbWFlJywgJ2xpZ2FuZF9wcmVwLm1hZScsICctbXMnLCAnMScsICctcGgnLCAnNycsICctcGh0JywgJzAuNScsICctbnQn

> <r_lp_tautomer_probability>
1

> <r_epik_Ionization_Penalty>
  0.0004

> <r_epik_Ionization_Penalty_Charging>
  0.0002

> <r_epik_Ionization_Penalty_Neutral>
  0.0002

> <r_epik_State_Penalty>
 -0.0000

> <r_epik_Charging_Adjusted_Penalty>
0.000167410064754679

> <i_epik_Tot_Q>
-1

> <i_epik_Tot_abs_Q>
1

$$$$
