4i9z_ligand
                    3D
 Schrodinger Suite 2020-3.
 63 65  0  0  1  0            999 V2000
  -41.5040   14.4420   48.9880 C   0  0  0  0  0  0
  -40.2560   14.0480   49.7080 C   0  0  0  0  0  0
  -39.0870   14.7480   49.2230 N   0  3  1  0  0  0
  -37.7810   14.1780   49.5900 C   0  0  0  0  0  0
  -39.2550   15.3050   47.9060 C   0  0  0  0  0  0
  -40.0930   14.4180   47.0420 C   0  0  0  0  0  0
  -41.4320   14.2750   47.5540 N   0  0  2  0  0  0
  -42.5080   14.8770   46.7740 C   0  0  0  0  0  0
  -42.5990   14.7670   45.2710 C   0  0  0  0  0  0
  -41.7050   14.2860   44.5790 O   0  0  0  0  0  0
  -43.8410   15.3350   44.6020 C   0  0  0  0  0  0
  -43.8240   15.5780   43.2190 C   0  0  0  0  0  0
  -45.0000   15.6490   45.3550 C   0  0  0  0  0  0
  -46.1280   16.1810   44.7080 C   0  0  0  0  0  0
  -46.1010   16.4170   43.3300 C   0  0  0  0  0  0
  -47.1990   16.9480   42.6780 O   0  0  0  0  0  0
  -48.2950   17.4820   43.3530 C   0  0  0  0  0  0
  -49.3290   18.0810   42.4250 C   0  0  0  0  0  0
  -48.8110   18.9390   41.4360 C   0  0  0  0  0  0
  -44.9450   16.0890   42.5720 C   0  0  0  0  0  0
  -44.7940   16.3410   41.1010 C   0  0  0  0  0  0
  -44.3430   15.3830   40.2650 N   0  0  0  0  0  0
  -45.0250   17.6080   40.6460 N   0  0  0  0  0  0
  -44.8570   17.9290   39.3450 C   0  0  0  0  0  0
  -45.1230   19.2170   38.9280 O   0  0  0  0  0  0
  -44.4200   16.9730   38.4480 C   0  0  0  0  0  0
  -44.1390   17.4300   36.5800 Br  0  0  0  0  0  0
  -44.1530   15.6480   38.9690 C   0  0  0  0  0  0
  -43.6590   14.5220   38.0160 C   0  0  0  0  0  0
  -44.8460   13.7880   37.3930 C   0  0  0  0  0  0
  -42.6260   13.6300   38.5800 C   0  0  0  0  0  0
  -42.3431   13.8268   49.3451 H   0  0  0  0  0  0
  -41.7193   15.5033   49.1812 H   0  0  0  0  0  0
  -40.3637   14.2741   50.7791 H   0  0  0  0  0  0
  -40.0817   12.9699   49.5766 H   0  0  0  0  0  0
  -39.0470   15.6688   49.8235 H   0  0  0  0  0  0
  -37.8233   13.7989   50.6218 H   0  0  0  0  0  0
  -37.0075   14.9567   49.5168 H   0  0  0  0  0  0
  -37.5360   13.3523   48.9057 H   0  0  0  0  0  0
  -39.7484   16.2852   47.9826 H   0  0  0  0  0  0
  -38.2704   15.4263   47.4308 H   0  0  0  0  0  0
  -40.1559   14.8449   46.0302 H   0  0  0  0  0  0
  -39.6363   13.4186   46.9905 H   0  0  0  0  0  0
  -43.4731   14.4601   47.0978 H   0  0  0  0  0  0
  -42.5084   15.9660   46.9292 H   0  0  0  0  0  0
  -42.9221   15.3638   42.6456 H   0  0  0  0  0  0
  -45.0161   15.4785   46.4315 H   0  0  0  0  0  0
  -47.0261   16.4103   45.2815 H   0  0  0  0  0  0
  -48.7887   16.6899   43.9351 H   0  0  0  0  0  0
  -47.9553   18.2782   44.0317 H   0  0  0  0  0  0
  -49.8594   17.2744   41.8977 H   0  0  0  0  0  0
  -50.0489   18.6716   43.0105 H   0  0  0  0  0  0
  -49.6343   19.3220   40.8151 H   0  0  0  0  0  0
  -48.1023   18.3840   40.8037 H   0  0  0  0  0  0
  -48.2918   19.7812   41.9166 H   0  0  0  0  0  0
  -45.3550   18.3915   41.3441 H   0  0  0  0  0  0
  -43.0709   14.9758   37.2047 H   0  0  0  0  0  0
  -45.5648   14.5215   36.9989 H   0  0  0  0  0  0
  -45.3366   13.1684   38.1582 H   0  0  0  0  0  0
  -44.4909   13.1458   36.5735 H   0  0  0  0  0  0
  -41.8119   14.2350   39.0058 H   0  0  0  0  0  0
  -42.2255   12.9840   37.7848 H   0  0  0  0  0  0
  -43.0712   13.0066   39.3694 H   0  0  0  0  0  0
  1  2  1  0  0  0
  1  7  1  0  0  0
  1 32  1  0  0  0
  1 33  1  0  0  0
  2  3  1  0  0  0
  2 34  1  0  0  0
  2 35  1  0  0  0
  3  4  1  0  0  0
  3  5  1  0  0  0
  3 36  1  0  0  0
  4 37  1  0  0  0
  4 38  1  0  0  0
  4 39  1  0  0  0
  5  6  1  0  0  0
  5 40  1  0  0  0
  5 41  1  0  0  0
  6  7  1  0  0  0
  6 42  1  0  0  0
  6 43  1  0  0  0
  7  8  1  0  0  0
  8  9  1  0  0  0
  8 44  1  0  0  0
  8 45  1  0  0  0
  9 10  2  0  0  0
  9 11  1  0  0  0
 11 12  2  0  0  0
 11 13  1  0  0  0
 12 20  1  0  0  0
 12 46  1  0  0  0
 13 14  2  0  0  0
 13 47  1  0  0  0
 14 15  1  0  0  0
 14 48  1  0  0  0
 15 16  1  0  0  0
 15 20  2  0  0  0
 16 17  1  0  0  0
 17 18  1  0  0  0
 17 49  1  0  0  0
 17 50  1  0  0  0
 18 19  1  0  0  0
 18 51  1  0  0  0
 18 52  1  0  0  0
 19 53  1  0  0  0
 19 54  1  0  0  0
 19 55  1  0  0  0
 20 21  1  0  0  0
 21 22  2  0  0  0
 21 23  1  0  0  0
 22 28  1  0  0  0
 23 24  1  0  0  0
 23 56  1  0  0  0
 24 25  2  0  0  0
 24 26  1  0  0  0
 26 27  1  0  0  0
 26 28  2  0  0  0
 28 29  1  0  0  0
 29 30  1  0  0  0
 29 31  1  0  0  0
 29 57  1  0  0  0
 30 58  1  0  0  0
 30 59  1  0  0  0
 30 60  1  0  0  0
 31 61  1  0  0  0
 31 62  1  0  0  0
 31 63  1  0  0  0
M  CHG  1   3   1
M  END
> <s_m_source_file>
../4i9z_ligand.sdf

> <i_m_source_file_index>
1

> <s_epik_input>
W0NIM11bTkBASCtdMVtDSDJdW0NIMl1bTkBIK10oW0NIMl1bQ0gyXTEpW0NIMl1DKD1PKWMyW2NIXWMoYyhbY0hdW2NIXTIpT1tDSDJdW0NIMl1bQ0gzXSktYzNuYyhbQ0hdKFtDSDNdKVtDSDNdKWMoQnIpYyg9TylbbkhdMw==

> <s_epik_cmdline>
J2VwaWtfYXBwJywgJy1pbWFlJywgJ2xpZ2FuZF9wcm8ubWFlJywgJy1vbWFlJywgJ2xpZ2FuZF9wcmVwLm1hZScsICctbXMnLCAnMScsICctcGgnLCAnNycsICctcGh0JywgJzAuNScsICctbnQn

> <r_lp_tautomer_probability>
1

> <r_epik_Ionization_Penalty>
  0.1484

> <r_epik_Ionization_Penalty_Charging>
  0.1481

> <r_epik_Ionization_Penalty_Neutral>
  0.0003

> <r_epik_State_Penalty>
 -0.0000

> <r_epik_Charging_Adjusted_Penalty>
0.148133614733162

> <i_epik_Tot_Q>
1

> <i_epik_Tot_abs_Q>
1

$$$$
