4ia0_ligand
                    3D
 Schrodinger Suite 2020-3.
 72 74  0  0  1  0            999 V2000
  -24.9830   20.7240   23.1290 C   0  0  0  0  0  0
  -23.5280   21.0450   23.3290 C   0  0  0  0  0  0
  -22.8220   19.9680   23.9630 N   0  0  0  0  0  0
  -21.3870   19.8170   23.8320 C   0  0  0  0  0  0
  -23.4310   19.5410   25.1910 C   0  0  0  0  0  0
  -24.8830   19.1820   24.9970 C   0  0  0  0  0  0
  -25.6820   20.1620   24.2760 N   0  0  2  0  0  0
  -27.3350   20.2120   23.9260 S   0  0  0  0  0  0
  -28.2260   20.2160   25.1000 O   0  0  0  0  0  0
  -27.6530   21.3680   23.1100 O   0  0  0  0  0  0
  -27.7000   18.7270   23.0130 C   0  0  0  0  0  0
  -28.0430   18.8330   21.6480 C   0  0  0  0  0  0
  -27.6190   17.4840   23.6310 C   0  0  0  0  0  0
  -27.9010   16.3180   22.9020 C   0  0  0  0  0  0
  -28.2400   16.4230   21.5400 C   0  0  0  0  0  0
  -28.5300   15.2990   20.7610 O   0  0  0  0  0  0
  -28.2540   13.9700   21.1610 C   0  0  0  0  0  0
  -28.9320   12.8920   20.3040 C   0  0  0  0  0  0
  -28.3060   17.6870   20.9210 C   0  0  0  0  0  0
  -28.6930   17.8360   19.4660 C   0  0  0  0  0  0
  -28.0580   18.7330   18.6950 N   0  0  0  0  0  0
  -29.6930   17.0790   18.9760 N   0  0  0  0  0  0
  -30.0790   17.1910   17.6870 C   0  0  0  0  0  0
  -31.1160   16.3710   17.2180 O   0  0  0  0  0  0
  -29.4390   18.1210   16.8550 C   0  0  0  0  0  0
  -30.0190   18.2780   15.0070 Br  0  0  0  0  0  0
  -28.3900   18.9060   17.3940 C   0  0  0  0  0  0
  -27.6080   19.9680   16.5860 C   0  0  0  0  0  0
  -26.1400   19.7420   16.1470 C   0  0  0  0  0  0
  -25.2310   20.9320   16.0080 C   0  0  0  0  0  0
  -25.8470   22.3120   16.0430 C   0  0  0  0  0  0
  -25.2200   23.3950   15.2030 C   0  0  0  0  0  0
  -25.9430   24.7590   15.1050 C   0  0  0  0  0  0
  -27.2560   24.8440   14.3770 C   0  0  0  0  0  0
  -27.5200   26.0190   13.4550 C   0  0  0  0  0  0
  -25.5276   21.6417   22.8622 H   0  0  0  0  0  0
  -25.0879   19.9869   22.3193 H   0  0  0  0  0  0
  -23.0574   21.2369   22.3534 H   0  0  0  0  0  0
  -23.4335   21.9384   23.9638 H   0  0  0  0  0  0
  -21.0682   20.1845   22.8454 H   0  0  0  0  0  0
  -21.1195   18.7547   23.9316 H   0  0  0  0  0  0
  -20.8839   20.3972   24.6196 H   0  0  0  0  0  0
  -22.9030   18.6550   25.5734 H   0  0  0  0  0  0
  -23.3705   20.3520   25.9317 H   0  0  0  0  0  0
  -24.9558   18.2440   24.4271 H   0  0  0  0  0  0
  -25.3631   19.0531   25.9783 H   0  0  0  0  0  0
  -28.1001   19.8112   21.1706 H   0  0  0  0  0  0
  -27.3365   17.4150   24.6815 H   0  0  0  0  0  0
  -27.8579   15.3420   23.3854 H   0  0  0  0  0  0
  -27.1706   13.7877   21.1050 H   0  0  0  0  0  0
  -28.5982   13.8192   22.1948 H   0  0  0  0  0  0
  -28.6622   11.8964   20.6862 H   0  0  0  0  0  0
  -28.5960   12.9878   19.2610 H   0  0  0  0  0  0
  -30.0236   13.0193   20.3508 H   0  0  0  0  0  0
  -30.2071   16.3576   19.6282 H   0  0  0  0  0  0
  -28.1246   20.1578   15.6336 H   0  0  0  0  0  0
  -27.5521   20.9015   17.1652 H   0  0  0  0  0  0
  -25.6350   19.0920   16.8767 H   0  0  0  0  0  0
  -26.1229   19.2638   15.1565 H   0  0  0  0  0  0
  -24.4960   20.9295   16.8264 H   0  0  0  0  0  0
  -24.7054   20.8812   15.0430 H   0  0  0  0  0  0
  -26.8907   22.2564   15.7002 H   0  0  0  0  0  0
  -25.8192   22.7000   17.0719 H   0  0  0  0  0  0
  -24.2209   23.6325   15.5972 H   0  0  0  0  0  0
  -25.1308   23.0472   14.1632 H   0  0  0  0  0  0
  -26.1669   25.1288   16.1165 H   0  0  0  0  0  0
  -25.2954   25.4808   14.5858 H   0  0  0  0  0  0
  -27.3761   23.9603   13.7331 H   0  0  0  0  0  0
  -28.0782   24.8804   15.1068 H   0  0  0  0  0  0
  -28.5212   25.9186   13.0106 H   0  0  0  0  0  0
  -26.7641   26.0352   12.6560 H   0  0  0  0  0  0
  -27.4662   26.9554   14.0297 H   0  0  0  0  0  0
  1  2  1  0  0  0
  1  7  1  0  0  0
  1 36  1  0  0  0
  1 37  1  0  0  0
  2  3  1  0  0  0
  2 38  1  0  0  0
  2 39  1  0  0  0
  3  4  1  0  0  0
  3  5  1  0  0  0
  4 40  1  0  0  0
  4 41  1  0  0  0
  4 42  1  0  0  0
  5  6  1  0  0  0
  5 43  1  0  0  0
  5 44  1  0  0  0
  6  7  1  0  0  0
  6 45  1  0  0  0
  6 46  1  0  0  0
  7  8  1  0  0  0
  8  9  2  0  0  0
  8 10  2  0  0  0
  8 11  1  0  0  0
 11 12  2  0  0  0
 11 13  1  0  0  0
 12 19  1  0  0  0
 12 47  1  0  0  0
 13 14  2  0  0  0
 13 48  1  0  0  0
 14 15  1  0  0  0
 14 49  1  0  0  0
 15 16  1  0  0  0
 15 19  2  0  0  0
 16 17  1  0  0  0
 17 18  1  0  0  0
 17 50  1  0  0  0
 17 51  1  0  0  0
 18 52  1  0  0  0
 18 53  1  0  0  0
 18 54  1  0  0  0
 19 20  1  0  0  0
 20 21  2  0  0  0
 20 22  1  0  0  0
 21 27  1  0  0  0
 22 23  1  0  0  0
 22 55  1  0  0  0
 23 24  2  0  0  0
 23 25  1  0  0  0
 25 26  1  0  0  0
 25 27  2  0  0  0
 27 28  1  0  0  0
 28 29  1  0  0  0
 28 56  1  0  0  0
 28 57  1  0  0  0
 29 30  1  0  0  0
 29 58  1  0  0  0
 29 59  1  0  0  0
 30 31  1  0  0  0
 30 60  1  0  0  0
 30 61  1  0  0  0
 31 32  1  0  0  0
 31 62  1  0  0  0
 31 63  1  0  0  0
 32 33  1  0  0  0
 32 64  1  0  0  0
 32 65  1  0  0  0
 33 34  1  0  0  0
 33 66  1  0  0  0
 33 67  1  0  0  0
 34 35  1  0  0  0
 34 68  1  0  0  0
 34 69  1  0  0  0
 35 70  1  0  0  0
 35 71  1  0  0  0
 35 72  1  0  0  0
M  END
> <s_m_source_file>
../4ia0_ligand.sdf

> <i_m_source_file_index>
1

> <s_epik_input>
W0NIM11bTkgrXTFbQ0gyXVtDSDJdTihbQ0gyXVtDSDJdMSlTKD1PKSg9TyljMltjSF1jKGMoW2NIXVtjSF0yKU9bQ0gyXVtDSDNdKS1jM25jKGMoQnIpYyg9TylbbkhdMylbQ0gyXVtDSDJdW0NIMl1bQ0gyXVtDSDJdW0NIMl1bQ0gyXVtDSDNd

> <s_epik_cmdline>
J2VwaWtfYXBwJywgJy1pbWFlJywgJ2xpZ2FuZF9wcm8ubWFlJywgJy1vbWFlJywgJ2xpZ2FuZF9wcmVwLm1hZScsICctbXMnLCAnMScsICctcGgnLCAnNycsICctcGh0JywgJzAuNScsICctbnQn

> <r_lp_tautomer_probability>
1

> <r_epik_Ionization_Penalty>
  0.2608

> <r_epik_Ionization_Penalty_Charging>
  0.0764

> <r_epik_Ionization_Penalty_Neutral>
  0.1844

> <r_epik_State_Penalty>
 -0.0000

> <r_epik_Charging_Adjusted_Penalty>
0.0764001381362513

> <i_epik_Tot_Q>
0

> <i_epik_Tot_abs_Q>
0

$$$$
