4iaw_ligand
                    3D
 Schrodinger Suite 2020-3.
 76 77  0  0  1  0            999 V2000
    9.8630  -16.3610   -8.4640 N   0  0  0  0  0  0
   10.7470  -14.7660  -12.8750 N   0  0  1  0  0  0
   10.7360  -15.4220   -7.7040 C   0  0  0  0  0  0
    9.0290  -18.4500  -11.3290 C   0  0  0  0  0  0
   10.4870  -18.2670  -11.7700 C   0  0  0  0  0  0
   10.2730  -12.5610  -11.9550 C   0  0  0  0  0  0
   11.3330  -13.4310  -12.6220 C   0  0  0  0  0  0
    9.8720  -14.6490  -14.0580 C   0  0  0  0  0  0
   12.2710  -16.5310  -11.9020 C   0  0  1  0  0  0
   13.3740  -17.5730  -12.2820 C   0  0  0  0  0  0
   13.7790  -16.4000  -14.5090 C   0  0  0  0  0  0
   10.5570  -20.7340   -7.9590 C   0  0  0  0  0  0
   10.9300  -22.0690   -8.1450 C   0  0  0  0  0  0
   12.2680  -22.4760   -7.9940 C   0  0  0  0  0  0
   12.8490  -20.1720   -7.4800 C   0  0  0  0  0  0
   12.2100  -24.7500   -9.0200 C   0  0  0  0  0  0
   10.4930  -11.3600  -11.8810 O   0  0  0  0  0  0
    9.1970  -13.0530  -11.5060 O   0  5  0  0  0  0
    8.8580  -15.7710  -13.9730 C   0  0  0  0  0  0
    8.5360  -16.2170  -12.8510 O   0  0  0  0  0  0
    8.4090  -16.1880  -15.0410 O   0  0  0  0  0  0
   11.7370  -15.8270  -13.1610 C   0  0  2  0  0  0
   12.9050  -15.2570  -13.9930 C   0  0  0  0  0  0
   14.4300  -17.0800  -13.2900 C   0  0  0  0  0  0
   11.1510  -17.1110  -11.0980 N   0  3  2  0  0  0
    8.4380  -17.5540  -10.6860 O   0  5  0  0  0  0
    8.4310  -19.4910  -11.6320 O   0  0  0  0  0  0
   11.6410  -17.4710   -9.7450 C   0  0  0  0  0  0
   10.5430  -17.6620   -8.6790 C   0  0  1  0  0  0
   11.4570  -14.4870   -8.6610 C   0  0  0  0  0  0
   11.0010  -14.4090   -9.8350 O   0  0  0  0  0  0
   12.4660  -13.8510   -8.2410 O   0  5  0  0  0  0
    8.6490  -16.4300   -7.7320 C   0  0  0  0  0  0
    7.7320  -15.4310   -7.9350 C   0  0  0  0  0  0
    7.9310  -14.5330   -8.7910 O   0  5  0  0  0  0
    6.6800  -15.4130   -7.2700 O   0  0  0  0  0  0
   11.1350  -18.3130   -7.4060 C   0  0  0  0  0  0
   11.5160  -19.7690   -7.6260 C   0  0  0  0  0  0
   13.2100  -21.5070   -7.6600 C   0  0  0  0  0  0
   12.7020  -23.8230   -8.1690 N   0  0  0  0  0  0
   10.9260  -24.4800  -10.0680 S   0  0  0  0  0  0
   12.7120  -25.9770   -9.1000 N   0  0  0  0  0  0
   10.1205  -14.8267   -7.0135 H   0  0  0  0  0  0
   11.4798  -15.9952   -7.1310 H   0  0  0  0  0  0
   11.0604  -19.1735  -11.5260 H   0  0  0  0  0  0
   10.5226  -18.0918  -12.8554 H   0  0  0  0  0  0
   12.2069  -13.5333  -11.9618 H   0  0  0  0  0  0
   11.6448  -12.9807  -13.5759 H   0  0  0  0  0  0
    9.3700  -13.6703  -14.0474 H   0  0  0  0  0  0
   10.4770  -14.7408  -14.9721 H   0  0  0  0  0  0
   12.7174  -15.7873  -11.2255 H   0  0  0  0  0  0
   13.9234  -17.8719  -11.3771 H   0  0  0  0  0  0
   12.9022  -18.4581  -12.7336 H   0  0  0  0  0  0
   13.1547  -17.1191  -15.0597 H   0  0  0  0  0  0
   14.5520  -15.9966  -15.1797 H   0  0  0  0  0  0
    9.5130  -20.4426   -8.0740 H   0  0  0  0  0  0
   10.1720  -22.8057   -8.4112 H   0  0  0  0  0  0
   13.6110  -19.4360   -7.2235 H   0  0  0  0  0  0
    7.8010  -17.0317  -12.7732 H   0  0  0  0  0  0
   11.1650  -16.5718  -13.7338 H   0  0  0  0  0  0
   13.5096  -14.5894  -13.3616 H   0  0  0  0  0  0
   12.5020  -14.6901  -14.8452 H   0  0  0  0  0  0
   15.0928  -16.3516  -12.7999 H   0  0  0  0  0  0
   15.0240  -17.9346  -13.6462 H   0  0  0  0  0  0
   10.3724  -16.3406  -10.9968 H   0  0  0  0  0  0
   12.1962  -18.4192   -9.7964 H   0  0  0  0  0  0
   12.3049  -16.6771   -9.3722 H   0  0  0  0  0  0
    9.7382  -18.3322   -9.0153 H   0  0  0  0  0  0
    8.1232  -17.3635   -7.9811 H   0  0  0  0  0  0
    8.8689  -16.4094   -6.6544 H   0  0  0  0  0  0
   12.0398  -17.7664   -7.1015 H   0  0  0  0  0  0
   10.3928  -18.2739   -6.5951 H   0  0  0  0  0  0
   14.2531  -21.7982   -7.5364 H   0  0  0  0  0  0
   13.5350  -24.2151   -7.5670 H   0  0  0  0  0  0
   13.5575  -26.2682   -8.4594 H   0  0  0  0  0  0
   12.2823  -26.7021   -9.8068 H   0  0  0  0  0  0
  1  3  1  0  0  0
  1 29  1  0  0  0
  1 33  1  0  0  0
  2  7  1  0  0  0
  2  8  1  0  0  0
  2 22  1  0  0  0
  3 30  1  0  0  0
  3 43  1  0  0  0
  3 44  1  0  0  0
  4  5  1  0  0  0
  4 26  1  0  0  0
  4 27  2  0  0  0
  5 25  1  0  0  0
  5 45  1  0  0  0
  5 46  1  0  0  0
  6  7  1  0  0  0
  6 17  2  0  0  0
  6 18  1  0  0  0
  7 47  1  0  0  0
  7 48  1  0  0  0
  8 19  1  0  0  0
  8 49  1  0  0  0
  8 50  1  0  0  0
  9 10  1  0  0  0
  9 22  1  0  0  0
  9 25  1  0  0  0
  9 51  1  0  0  0
 10 24  1  0  0  0
 10 52  1  0  0  0
 10 53  1  0  0  0
 11 23  1  0  0  0
 11 24  1  0  0  0
 11 54  1  0  0  0
 11 55  1  0  0  0
 12 13  2  0  0  0
 12 38  1  0  0  0
 12 56  1  0  0  0
 13 14  1  0  0  0
 13 57  1  0  0  0
 14 39  2  0  0  0
 14 40  1  0  0  0
 15 38  2  0  0  0
 15 39  1  0  0  0
 15 58  1  0  0  0
 16 40  1  0  0  0
 16 41  2  0  0  0
 16 42  1  0  0  0
 19 20  1  0  0  0
 19 21  2  0  0  0
 20 59  1  0  0  0
 22 23  1  0  0  0
 22 60  1  0  0  0
 23 61  1  0  0  0
 23 62  1  0  0  0
 24 63  1  0  0  0
 24 64  1  0  0  0
 25 28  1  0  0  0
 25 65  1  0  0  0
 28 29  1  0  0  0
 28 66  1  0  0  0
 28 67  1  0  0  0
 29 37  1  0  0  0
 29 68  1  0  0  0
 30 31  2  0  0  0
 30 32  1  0  0  0
 33 34  1  0  0  0
 33 69  1  0  0  0
 33 70  1  0  0  0
 34 35  1  0  0  0
 34 36  2  0  0  0
 37 38  1  0  0  0
 37 71  1  0  0  0
 37 72  1  0  0  0
 39 73  1  0  0  0
 40 74  1  0  0  0
 42 75  1  0  0  0
 42 76  1  0  0  0
M  CHG  5  18  -1  25   1  26  -1  32  -1  35  -1
M  END
> <s_m_source_file>
../4iaw_ligand.sdf

> <i_m_source_file_index>
1

> <s_epik_input>
Uz1DKFtOSDJdKVtOSF1jMVtjSF1bY0hdYyhbY0hdW2NIXTEpW0NIMl1bQ0BASF0oW05IK10oW0NIMl1DKD1PKVtPSF0pW0NIMl1DKD1PKVtPSF0pW0NIMl1bTkBIK10oW0NIMl1DKD1PKVtPSF0pW0NASF0yW0NIMl1bQ0gyXVtDSDJdW0NIMl1bQ0BASF0yW05IK10oW0NIMl1DKD1PKVtPSF0pW0NIMl1DKD1PKVtPSF0=

> <s_epik_cmdline>
J2VwaWtfYXBwJywgJy1pbWFlJywgJ2xpZ2FuZF9wcm8ubWFlJywgJy1vbWFlJywgJ2xpZ2FuZF9wcmVwLm1hZScsICctbXMnLCAnMScsICctcGgnLCAnNycsICctcGh0JywgJzAuNScsICctbnQn

> <r_epik_Ionization_Penalty>
  1.7127

> <r_epik_Ionization_Penalty_Charging>
  0.0370

> <r_epik_Ionization_Penalty_Neutral>
  1.6757

> <r_epik_State_Penalty>
  0.2210

> <r_epik_Charging_Adjusted_Penalty>
0.257988203374325

> <i_epik_Tot_Q>
-3

> <i_epik_Tot_abs_Q>
5

$$$$
