4iax_ligand
                    3D
 Schrodinger Suite 2020-3.
 76 77  0  0  1  0            999 V2000
    2.1810  -17.3000    2.5320 N   0  0  0  0  0  0
    6.5500  -18.8220    3.8180 N   0  0  1  0  0  0
    2.0040  -16.1480    3.4070 C   0  0  0  0  0  0
    3.1290  -20.7250    1.6220 C   0  0  0  0  0  0
    3.4480  -20.9290    3.1220 C   0  0  0  0  0  0
    7.1390  -16.4540    3.5460 C   0  0  0  0  0  0
    7.0170  -17.5810    4.5440 C   0  0  0  0  0  0
    7.6610  -19.4120    3.0450 C   0  0  0  0  0  0
    4.4770  -19.6750    5.0700 C   0  0  1  0  0  0
    3.9770  -20.7950    6.0230 C   0  0  0  0  0  0
    6.3330  -21.0550    6.9730 C   0  0  0  0  0  0
   -0.9580  -20.4600    3.0120 C   0  0  0  0  0  0
   -1.6610  -21.6450    3.4190 C   0  0  0  0  0  0
   -2.1740  -21.7100    4.7550 C   0  0  0  0  0  0
   -1.2430  -19.5670    5.2420 C   0  0  0  0  0  0
   -3.5960  -23.7400    4.6650 C   0  0  0  0  0  0
    7.7950  -15.4220    3.8720 O   0  0  0  0  0  0
    6.6250  -16.6160    2.3920 O   0  5  0  0  0  0
    7.0580  -20.3400    1.9980 C   0  0  0  0  0  0
    5.9240  -20.0680    1.5520 O   0  0  0  0  0  0
    7.7030  -21.3760    1.6440 O   0  0  0  0  0  0
    5.9920  -19.8690    4.7490 C   0  0  2  0  0  0
    6.8390  -19.9380    6.0570 C   0  0  0  0  0  0
    4.8310  -20.8590    7.3040 C   0  0  0  0  0  0
    3.5730  -19.5950    3.8080 N   0  3  2  0  0  0
    3.3490  -19.6090    1.1030 O   0  5  0  0  0  0
    2.6340  -21.6540    0.9880 O   0  0  0  0  0  0
    2.2300  -19.1270    4.2400 C   0  0  0  0  0  0
    1.4340  -18.4990    3.0730 C   0  0  1  0  0  0
    3.2370  -15.9530    4.2540 C   0  0  0  0  0  0
    4.2800  -16.5880    3.9570 O   0  5  0  0  0  0
    3.1610  -15.1880    5.2160 O   0  0  0  0  0  0
    1.7470  -16.9400    1.2230 C   0  0  0  0  0  0
    2.6080  -16.2350    0.4160 C   0  0  0  0  0  0
    3.8010  -16.1130    0.7570 O   0  5  0  0  0  0
    2.1990  -15.7770   -0.6420 O   0  0  0  0  0  0
   -0.0260  -18.1270    3.5770 C   0  0  0  0  0  0
   -0.7730  -19.4170    3.9520 C   0  0  0  0  0  0
   -1.9430  -20.6910    5.6130 C   0  0  0  0  0  0
   -2.7770  -22.8940    5.3050 N   0  0  0  0  0  0
   -4.0500  -23.5030    3.0910 S   0  0  0  0  0  0
   -4.0880  -24.7950    5.3370 N   0  0  0  0  0  0
    1.8358  -15.2475    2.7981 H   0  0  0  0  0  0
    1.1363  -16.3150    4.0621 H   0  0  0  0  0  0
    2.6379  -21.5042    3.5942 H   0  0  0  0  0  0
    4.3955  -21.4785    3.2240 H   0  0  0  0  0  0
    6.2861  -17.3143    5.3216 H   0  0  0  0  0  0
    7.9942  -17.7749    5.0103 H   0  0  0  0  0  0
    8.2358  -18.6100    2.5587 H   0  0  0  0  0  0
    8.3194  -19.9765    3.7217 H   0  0  0  0  0  0
    4.3892  -18.6984    5.5686 H   0  0  0  0  0  0
    2.9331  -20.5959    6.3068 H   0  0  0  0  0  0
    4.0389  -21.7667    5.5111 H   0  0  0  0  0  0
    6.4616  -22.0261    6.4725 H   0  0  0  0  0  0
    6.9065  -21.0475    7.9117 H   0  0  0  0  0  0
   -0.5734  -20.3653    1.9965 H   0  0  0  0  0  0
   -1.8008  -22.4756    2.7271 H   0  0  0  0  0  0
   -1.0565  -18.7834    5.9764 H   0  0  0  0  0  0
    7.2807  -22.0556    0.8892 H   0  0  0  0  0  0
    6.0804  -20.8110    4.1880 H   0  0  0  0  0  0
    6.7640  -18.9730    6.5796 H   0  0  0  0  0  0
    7.8888  -20.1298    5.7902 H   0  0  0  0  0  0
    4.7172  -19.9213    7.8678 H   0  0  0  0  0  0
    4.4974  -21.7032    7.9253 H   0  0  0  0  0  0
    3.9885  -18.8980    3.0653 H   0  0  0  0  0  0
    1.6533  -19.9783    4.6309 H   0  0  0  0  0  0
    2.3422  -18.3675    5.0278 H   0  0  0  0  0  0
    1.3721  -19.2027    2.2298 H   0  0  0  0  0  0
    1.5097  -17.8499    0.6522 H   0  0  0  0  0  0
    0.8496  -16.3079    1.2951 H   0  0  0  0  0  0
    0.0460  -17.4719    4.4577 H   0  0  0  0  0  0
   -0.5688  -17.6050    2.7752 H   0  0  0  0  0  0
   -2.3239  -20.7627    6.6317 H   0  0  0  0  0  0
   -2.5788  -23.1779    6.3491 H   0  0  0  0  0  0
   -3.7954  -24.9655    6.3836 H   0  0  0  0  0  0
   -4.7832  -25.4879    4.8404 H   0  0  0  0  0  0
  1  3  1  0  0  0
  1 29  1  0  0  0
  1 33  1  0  0  0
  2  7  1  0  0  0
  2  8  1  0  0  0
  2 22  1  0  0  0
  3 30  1  0  0  0
  3 43  1  0  0  0
  3 44  1  0  0  0
  4  5  1  0  0  0
  4 26  1  0  0  0
  4 27  2  0  0  0
  5 25  1  0  0  0
  5 45  1  0  0  0
  5 46  1  0  0  0
  6  7  1  0  0  0
  6 17  2  0  0  0
  6 18  1  0  0  0
  7 47  1  0  0  0
  7 48  1  0  0  0
  8 19  1  0  0  0
  8 49  1  0  0  0
  8 50  1  0  0  0
  9 10  1  0  0  0
  9 22  1  0  0  0
  9 25  1  0  0  0
  9 51  1  0  0  0
 10 24  1  0  0  0
 10 52  1  0  0  0
 10 53  1  0  0  0
 11 23  1  0  0  0
 11 24  1  0  0  0
 11 54  1  0  0  0
 11 55  1  0  0  0
 12 13  2  0  0  0
 12 38  1  0  0  0
 12 56  1  0  0  0
 13 14  1  0  0  0
 13 57  1  0  0  0
 14 39  2  0  0  0
 14 40  1  0  0  0
 15 38  2  0  0  0
 15 39  1  0  0  0
 15 58  1  0  0  0
 16 40  1  0  0  0
 16 41  2  0  0  0
 16 42  1  0  0  0
 19 20  2  0  0  0
 19 21  1  0  0  0
 21 59  1  0  0  0
 22 23  1  0  0  0
 22 60  1  0  0  0
 23 61  1  0  0  0
 23 62  1  0  0  0
 24 63  1  0  0  0
 24 64  1  0  0  0
 25 28  1  0  0  0
 25 65  1  0  0  0
 28 29  1  0  0  0
 28 66  1  0  0  0
 28 67  1  0  0  0
 29 37  1  0  0  0
 29 68  1  0  0  0
 30 31  1  0  0  0
 30 32  2  0  0  0
 33 34  1  0  0  0
 33 69  1  0  0  0
 33 70  1  0  0  0
 34 35  1  0  0  0
 34 36  2  0  0  0
 37 38  1  0  0  0
 37 71  1  0  0  0
 37 72  1  0  0  0
 39 73  1  0  0  0
 40 74  1  0  0  0
 42 75  1  0  0  0
 42 76  1  0  0  0
M  CHG  5  18  -1  25   1  26  -1  31  -1  35  -1
M  END
> <s_m_source_file>
../4iax_ligand.sdf

> <i_m_source_file_index>
1

> <s_epik_input>
Uz1DKFtOSDJdKVtOSF1jMVtjSF1bY0hdYyhbY0hdW2NIXTEpW0NIMl1bQ0BASF0oW05IK10oW0NIMl1DKD1PKVtPSF0pW0NIMl1DKD1PKVtPSF0pW0NIMl1bTkBIK10oW0NIMl1DKD1PKVtPSF0pW0NASF0yW0NIMl1bQ0gyXVtDSDJdW0NIMl1bQ0BASF0yW05IK10oW0NIMl1DKD1PKVtPSF0pW0NIMl1DKD1PKVtPSF0=

> <s_epik_cmdline>
J2VwaWtfYXBwJywgJy1pbWFlJywgJ2xpZ2FuZF9wcm8ubWFlJywgJy1vbWFlJywgJ2xpZ2FuZF9wcmVwLm1hZScsICctbXMnLCAnMScsICctcGgnLCAnNycsICctcGh0JywgJzAuNScsICctbnQn

> <r_epik_Ionization_Penalty>
  1.7127

> <r_epik_Ionization_Penalty_Charging>
  0.0370

> <r_epik_Ionization_Penalty_Neutral>
  1.6757

> <r_epik_State_Penalty>
  0.2210

> <r_epik_Charging_Adjusted_Penalty>
0.257988203374325

> <i_epik_Tot_Q>
-3

> <i_epik_Tot_abs_Q>
5

$$$$
