4ib5_ligand
                    3D
 Schrodinger Suite 2020-3.
192195  0  0  1  0            999 V2000
    0.2460  -27.3100   28.0440 N   0  3  0  0  0  0
    0.9900  -27.7270   26.8710 C   0  0  0  0  0  0
    0.7760  -26.7990   25.6920 C   0  0  0  0  0  0
    0.1230  -27.1620   24.7130 O   0  0  0  0  0  0
    1.3280  -25.5940   25.7870 N   0  0  0  0  0  0
    1.1950  -24.6040   24.7250 C   0  0  2  0  0  0
    2.5290  -24.3530   24.0310 C   0  0  0  0  0  0
    2.7890  -23.2530   23.5420 O   0  0  0  0  0  0
    0.6350  -23.2940   25.2830 C   0  0  0  0  0  0
   -1.0030  -23.4470   26.0300 S   0  0  0  0  0  0
    3.3710  -25.3810   23.9950 N   0  0  0  0  0  0
    4.6740  -25.2910   23.3450 C   0  0  2  0  0  0
    4.8330  -26.3770   22.2850 C   0  0  0  0  0  0
    4.5130  -27.5420   22.5210 O   0  0  0  0  0  0
    5.7960  -25.3940   24.3810 C   0  0  0  0  0  0
    5.9090  -24.1920   25.3090 C   0  0  0  0  0  0
    6.7510  -23.0810   24.6960 C   0  0  0  0  0  0
    6.9210  -21.9600   25.6170 N   0  0  0  0  0  0
    7.7140  -20.9170   25.3900 C   0  0  0  0  0  0
    8.4200  -20.8490   24.2700 N   0  0  0  0  0  0
    7.8040  -19.9440   26.2870 N   0  0  0  0  0  0
    5.3260  -25.9840   21.1160 N   0  0  0  0  0  0
    5.5600  -26.9220   20.0260 C   0  0  2  0  0  0
    6.9540  -26.7060   19.4530 C   0  0  0  0  0  0
    7.2060  -25.7170   18.7630 O   0  0  0  0  0  0
    4.5000  -26.7530   18.9360 C   0  0  0  0  0  0
    4.5100  -27.7620   17.7860 C   0  0  0  0  0  0
    4.4880  -29.1840   18.3170 C   0  0  0  0  0  0
    3.3300  -27.5180   16.8590 C   0  0  0  0  0  0
    7.8510  -27.6420   19.7520 N   0  0  0  0  0  0
    9.2610  -27.5320   19.3850 C   0  0  2  0  0  0
    9.8580  -26.2010   19.8350 C   0  0  0  0  0  0
   10.6100  -25.5630   19.0980 O   0  0  0  0  0  0
    9.4600  -27.7540   17.8840 C   0  0  0  0  0  0
    9.0200  -29.1270   17.4290 C   0  0  0  0  0  0
    9.7720  -30.2530   17.7350 C   0  0  0  0  0  0
    7.8470  -29.2990   16.7060 C   0  0  0  0  0  0
    9.3720  -31.5120   17.3300 C   0  0  0  0  0  0
    7.4380  -30.5560   16.2950 C   0  0  0  0  0  0
    8.2050  -31.6580   16.6100 C   0  0  0  0  0  0
    7.8050  -32.9110   16.2090 O   0  0  0  0  0  0
    9.5080  -25.7930   21.0510 N   0  0  0  0  0  0
   10.0200  -24.5660   21.6280 C   0  0  0  0  0  0
    9.1000  -23.3770   21.4290 C   0  0  0  0  0  0
    9.0300  -22.4930   22.2800 O   0  0  0  0  0  0
    8.3940  -23.3570   20.3030 N   0  0  0  0  0  0
    7.4940  -22.2560   19.9800 C   0  0  2  0  0  0
    6.2400  -22.2790   20.8360 C   0  0  0  0  0  0
    5.6270  -23.3290   21.0210 O   0  0  0  0  0  0
    7.0650  -22.3250   18.5140 C   0  0  0  0  0  0
    8.1740  -22.0780   17.5390 C   0  0  0  0  0  0
    8.6240  -20.7920   17.2920 C   0  0  0  0  0  0
    8.7500  -23.1310   16.8450 C   0  0  0  0  0  0
    9.6400  -20.5640   16.3820 C   0  0  0  0  0  0
    9.7640  -22.9100   15.9330 C   0  0  0  0  0  0
   10.2100  -21.6250   15.7020 C   0  0  0  0  0  0
    5.8490  -21.1160   21.3410 N   0  0  0  0  0  0
    4.5630  -20.9880   22.0050 C   0  0  2  0  0  0
    3.4820  -20.9450   20.9320 C   0  0  0  0  0  0
    3.6820  -20.3680   19.8630 O   0  0  0  0  0  0
    4.5220  -19.7260   22.8690 C   0  0  0  0  0  0
    3.3810  -19.6910   23.8760 C   0  0  0  0  0  0
    3.6530  -18.6690   24.9710 C   0  0  0  0  0  0
    2.4290  -18.4250   25.8440 C   0  0  0  0  0  0
    1.9440  -19.6640   26.5100 N   0  3  0  0  0  0
    2.3500  -21.5810   21.2020 N   0  0  0  0  0  0
    1.2210  -21.5120   20.2840 C   0  0  2  0  0  0
    0.4560  -20.2160   20.5260 C   0  0  0  0  0  0
    0.0270  -19.9430   21.6460 O   0  0  0  0  0  0
    0.2890  -22.7290   20.4310 C   0  0  2  0  0  0
    1.0270  -24.0080   20.0250 C   0  0  0  0  0  0
   -0.9660  -22.5510   19.5860 C   0  0  0  0  0  0
    0.2010  -25.2680   20.1730 C   0  0  0  0  0  0
    0.3060  -19.4170   19.4740 N   0  0  0  0  0  0
   -0.3060  -18.0930   19.5770 C   0  0  2  0  0  0
   -1.7090  -18.1450   20.1770 C   0  0  0  0  0  0
   -2.6240  -18.7250   19.5940 O   0  0  0  0  0  0
   -0.3390  -17.4200   18.2010 C   0  0  0  0  0  0
   -0.8860  -16.0280   18.2160 C   0  0  0  0  0  0
   -0.3010  -15.0040   18.9300 N   0  0  0  0  0  0
   -1.9620  -15.4870   17.5970 C   0  0  0  0  0  0
   -0.9960  -13.8940   18.7540 C   0  0  0  0  0  0
   -2.0090  -14.1610   17.9490 N   0  0  0  0  0  0
   -1.8620  -17.5470   21.3560 N   0  0  0  0  0  0
   -3.1530  -17.4600   22.0150 C   0  0  0  0  0  0
   -3.4730  -18.6360   22.9180 C   0  0  0  0  0  0
   -4.5350  -18.6740   23.5370 O   0  0  0  0  0  0
   -2.5580  -19.5960   23.0000 N   0  0  0  0  0  0
   -2.7800  -20.7880   23.8150 C   0  0  2  0  0  0
   -2.7330  -20.4730   25.3080 C   0  0  0  0  0  0
   -2.0320  -19.5530   25.7290 O   0  0  0  0  0  0
   -1.7460  -21.8660   23.4820 C   0  0  0  0  0  0
   -2.0400  -23.4610   24.2800 S   0  0  0  0  0  0
   -3.4920  -21.2470   26.0850 N   0  0  0  0  0  0
   -3.4980  -21.1910   27.5420 C   0  0  0  0  0  0
   -3.2770  -19.8390   28.1940 C   0  0  0  0  0  0
   -4.2465  -19.0899   28.4881 O   0  0  0  0  0  0
   -2.1026  -19.4584   28.4460 O   0  0  0  0  0  0
    0.4353  -28.0141   28.8677 H   0  0  0  0  0  0
   -0.8290  -27.2984   27.8113 H   0  0  0  0  0  0
    0.5675  -26.3013   28.3426 H   0  0  0  0  0  0
    2.0650  -27.7386   27.1037 H   0  0  0  0  0  0
    0.6686  -28.7357   26.5723 H   0  0  0  0  0  0
    1.8971  -25.3517   26.6966 H   0  0  0  0  0  0
    0.4906  -25.0475   24.0058 H   0  0  0  0  0  0
    1.3099  -22.9089   26.0616 H   0  0  0  0  0  0
    0.5519  -22.5557   24.4718 H   0  0  0  0  0  0
    3.0595  -26.3205   24.4750 H   0  0  0  0  0  0
    4.6910  -24.3031   22.8615 H   0  0  0  0  0  0
    5.6277  -26.2753   25.0173 H   0  0  0  0  0  0
    6.7628  -25.4930   23.8658 H   0  0  0  0  0  0
    4.9053  -23.7914   25.5139 H   0  0  0  0  0  0
    6.3803  -24.5011   26.2537 H   0  0  0  0  0  0
    7.7466  -23.4734   24.4414 H   0  0  0  0  0  0
    6.2597  -22.7087   23.7850 H   0  0  0  0  0  0
    6.3729  -21.9436   26.5706 H   0  0  0  0  0  0
    8.3474  -21.6544   23.5243 H   0  0  0  0  0  0
    7.2194  -19.9977   27.2172 H   0  0  0  0  0  0
    8.4633  -19.0834   26.1006 H   0  0  0  0  0  0
    5.5589  -24.9172   20.9831 H   0  0  0  0  0  0
    5.4839  -27.9290   20.4621 H   0  0  0  0  0  0
    3.4982  -26.8292   19.3838 H   0  0  0  0  0  0
    4.6156  -25.7672   18.4618 H   0  0  0  0  0  0
    5.4375  -27.6327   17.2090 H   0  0  0  0  0  0
    5.3485  -29.3395   18.9844 H   0  0  0  0  0  0
    4.5441  -29.8904   17.4757 H   0  0  0  0  0  0
    3.5555  -29.3524   18.8757 H   0  0  0  0  0  0
    3.3646  -26.4838   16.4859 H   0  0  0  0  0  0
    2.3916  -27.6778   17.4102 H   0  0  0  0  0  0
    3.3801  -28.2159   16.0102 H   0  0  0  0  0  0
    7.4924  -28.5266   20.2987 H   0  0  0  0  0  0
    9.7585  -28.3415   19.9392 H   0  0  0  0  0  0
    8.8741  -27.0113   17.3227 H   0  0  0  0  0  0
   10.5259  -27.6442   17.6352 H   0  0  0  0  0  0
   10.6945  -30.1420   18.3049 H   0  0  0  0  0  0
    7.2381  -28.4296   16.4579 H   0  0  0  0  0  0
    9.9756  -32.3850   17.5783 H   0  0  0  0  0  0
    6.5157  -30.6740   15.7261 H   0  0  0  0  0  0
    8.4166  -33.7902   16.4601 H   0  0  0  0  0  0
    8.8069  -26.4189   21.6226 H   0  0  0  0  0  0
   10.1574  -24.6996   22.7112 H   0  0  0  0  0  0
   10.9858  -24.3176   21.1638 H   0  0  0  0  0  0
    8.5025  -24.2012   19.6062 H   0  0  0  0  0  0
    8.0857  -21.3544   20.1969 H   0  0  0  0  0  0
    6.6606  -23.3247   18.2970 H   0  0  0  0  0  0
    6.2913  -21.5669   18.3223 H   0  0  0  0  0  0
    8.1732  -19.9515   17.8198 H   0  0  0  0  0  0
    8.3979  -24.1474   17.0214 H   0  0  0  0  0  0
    9.9916  -19.5483   16.2006 H   0  0  0  0  0  0
   10.2102  -23.7481   15.3977 H   0  0  0  0  0  0
   11.0107  -21.4461   14.9844 H   0  0  0  0  0  0
    6.5115  -20.2424   21.2523 H   0  0  0  0  0  0
    4.4407  -21.8660   22.6562 H   0  0  0  0  0  0
    5.4578  -19.6428   23.4411 H   0  0  0  0  0  0
    4.4074  -18.8430   22.2231 H   0  0  0  0  0  0
    2.4471  -19.4186   23.3626 H   0  0  0  0  0  0
    3.2694  -20.6829   24.3383 H   0  0  0  0  0  0
    4.4672  -19.0308   25.6161 H   0  0  0  0  0  0
    3.9446  -17.7115   24.5147 H   0  0  0  0  0  0
    2.6779  -17.6955   26.6288 H   0  0  0  0  0  0
    1.6093  -18.0319   25.2246 H   0  0  0  0  0  0
    1.0625  -19.4289   27.1245 H   0  0  0  0  0  0
    2.7398  -20.0713   27.1510 H   0  0  0  0  0  0
    1.6712  -20.4078   25.7468 H   0  0  0  0  0  0
    2.2689  -22.1651   22.1306 H   0  0  0  0  0  0
    1.6594  -21.5197   19.2752 H   0  0  0  0  0  0
   -0.0231  -22.8162   21.4822 H   0  0  0  0  0  0
    1.3273  -23.9386   18.9691 H   0  0  0  0  0  0
    1.9216  -24.1303   20.6533 H   0  0  0  0  0  0
   -1.4844  -21.6294   19.8891 H   0  0  0  0  0  0
   -1.6333  -23.4128   19.7345 H   0  0  0  0  0  0
   -0.6865  -22.4823   18.5243 H   0  0  0  0  0  0
    0.7995  -26.1373   19.8629 H   0  0  0  0  0  0
   -0.6955  -25.1952   19.5397 H   0  0  0  0  0  0
   -0.1012  -25.3870   21.2240 H   0  0  0  0  0  0
    0.6618  -19.7842   18.5001 H   0  0  0  0  0  0
    0.3438  -17.5386   20.2702 H   0  0  0  0  0  0
    0.6823  -17.3625   17.7964 H   0  0  0  0  0  0
   -0.9706  -18.0090   17.5198 H   0  0  0  0  0  0
   -2.7255  -15.9049   16.9244 H   0  0  0  0  0  0
   -0.7718  -12.9238   19.1973 H   0  0  0  0  0  0
   -0.9713  -17.1105   21.8315 H   0  0  0  0  0  0
   -3.1851  -16.5558   22.6406 H   0  0  0  0  0  0
   -3.9489  -17.4101   21.2573 H   0  0  0  0  0  0
   -1.6189  -19.4803   22.4391 H   0  0  0  0  0  0
   -3.7933  -21.1216   23.5467 H   0  0  0  0  0  0
   -1.7421  -22.0477   22.3971 H   0  0  0  0  0  0
   -0.7488  -21.5285   23.8008 H   0  0  0  0  0  0
   -4.1426  -21.9615   25.5594 H   0  0  0  0  0  0
   -4.4715  -21.5386   27.9183 H   0  0  0  0  0  0
   -2.7003  -21.8372   27.9371 H   0  0  0  0  0  0
   -4.0636  -18.1135   28.9604 H   0  0  0  0  0  0
  1  2  1  0  0  0
  1 99  1  0  0  0
  1100  1  0  0  0
  1101  1  0  0  0
  2  3  1  0  0  0
  2102  1  0  0  0
  2103  1  0  0  0
  3  4  2  0  0  0
  3  5  1  0  0  0
  5  6  1  0  0  0
  5104  1  0  0  0
  6  7  1  0  0  0
  6  9  1  0  0  0
  6105  1  0  0  0
  7  8  2  0  0  0
  7 11  1  0  0  0
  9 10  1  0  0  0
  9106  1  0  0  0
  9107  1  0  0  0
 10 93  1  0  0  0
 11 12  1  0  0  0
 11108  1  0  0  0
 12 13  1  0  0  0
 12 15  1  0  0  0
 12109  1  0  0  0
 13 14  2  0  0  0
 13 22  1  0  0  0
 15 16  1  0  0  0
 15110  1  0  0  0
 15111  1  0  0  0
 16 17  1  0  0  0
 16112  1  0  0  0
 16113  1  0  0  0
 17 18  1  0  0  0
 17114  1  0  0  0
 17115  1  0  0  0
 18 19  1  0  0  0
 18116  1  0  0  0
 19 20  2  0  0  0
 19 21  1  0  0  0
 20117  1  0  0  0
 21118  1  0  0  0
 21119  1  0  0  0
 22 23  1  0  0  0
 22120  1  0  0  0
 23 24  1  0  0  0
 23 26  1  0  0  0
 23121  1  0  0  0
 24 25  2  0  0  0
 24 30  1  0  0  0
 26 27  1  0  0  0
 26122  1  0  0  0
 26123  1  0  0  0
 27 28  1  0  0  0
 27 29  1  0  0  0
 27124  1  0  0  0
 28125  1  0  0  0
 28126  1  0  0  0
 28127  1  0  0  0
 29128  1  0  0  0
 29129  1  0  0  0
 29130  1  0  0  0
 30 31  1  0  0  0
 30131  1  0  0  0
 31 32  1  0  0  0
 31 34  1  0  0  0
 31132  1  0  0  0
 32 33  2  0  0  0
 32 42  1  0  0  0
 34 35  1  0  0  0
 34133  1  0  0  0
 34134  1  0  0  0
 35 36  2  0  0  0
 35 37  1  0  0  0
 36 38  1  0  0  0
 36135  1  0  0  0
 37 39  2  0  0  0
 37136  1  0  0  0
 38 40  2  0  0  0
 38137  1  0  0  0
 39 40  1  0  0  0
 39138  1  0  0  0
 40 41  1  0  0  0
 41139  1  0  0  0
 42 43  1  0  0  0
 42140  1  0  0  0
 43 44  1  0  0  0
 43141  1  0  0  0
 43142  1  0  0  0
 44 45  2  0  0  0
 44 46  1  0  0  0
 46 47  1  0  0  0
 46143  1  0  0  0
 47 48  1  0  0  0
 47 50  1  0  0  0
 47144  1  0  0  0
 48 49  2  0  0  0
 48 57  1  0  0  0
 50 51  1  0  0  0
 50145  1  0  0  0
 50146  1  0  0  0
 51 52  2  0  0  0
 51 53  1  0  0  0
 52 54  1  0  0  0
 52147  1  0  0  0
 53 55  2  0  0  0
 53148  1  0  0  0
 54 56  2  0  0  0
 54149  1  0  0  0
 55 56  1  0  0  0
 55150  1  0  0  0
 56151  1  0  0  0
 57 58  1  0  0  0
 57152  1  0  0  0
 58 59  1  0  0  0
 58 61  1  0  0  0
 58153  1  0  0  0
 59 60  2  0  0  0
 59 66  1  0  0  0
 61 62  1  0  0  0
 61154  1  0  0  0
 61155  1  0  0  0
 62 63  1  0  0  0
 62156  1  0  0  0
 62157  1  0  0  0
 63 64  1  0  0  0
 63158  1  0  0  0
 63159  1  0  0  0
 64 65  1  0  0  0
 64160  1  0  0  0
 64161  1  0  0  0
 65162  1  0  0  0
 65163  1  0  0  0
 65164  1  0  0  0
 66 67  1  0  0  0
 66165  1  0  0  0
 67 68  1  0  0  0
 67 70  1  0  0  0
 67166  1  0  0  0
 68 69  2  0  0  0
 68 74  1  0  0  0
 70 71  1  0  0  0
 70 72  1  0  0  0
 70167  1  0  0  0
 71 73  1  0  0  0
 71168  1  0  0  0
 71169  1  0  0  0
 72170  1  0  0  0
 72171  1  0  0  0
 72172  1  0  0  0
 73173  1  0  0  0
 73174  1  0  0  0
 73175  1  0  0  0
 74 75  1  0  0  0
 74176  1  0  0  0
 75 76  1  0  0  0
 75 78  1  0  0  0
 75177  1  0  0  0
 76 77  2  0  0  0
 76 84  1  0  0  0
 78 79  1  0  0  0
 78178  1  0  0  0
 78179  1  0  0  0
 79 80  2  0  0  0
 79 81  1  0  0  0
 80 82  1  0  0  0
 81 83  2  0  0  0
 81180  1  0  0  0
 82 83  1  0  0  0
 82181  1  0  0  0
 84 85  1  0  0  0
 84182  1  0  0  0
 85 86  1  0  0  0
 85183  1  0  0  0
 85184  1  0  0  0
 86 87  2  0  0  0
 86 88  1  0  0  0
 88 89  1  0  0  0
 88185  1  0  0  0
 89 90  1  0  0  0
 89 92  1  0  0  0
 89186  1  0  0  0
 90 91  2  0  0  0
 90 94  1  0  0  0
 92 93  1  0  0  0
 92187  1  0  0  0
 92188  1  0  0  0
 94 95  1  0  0  0
 94189  1  0  0  0
 95 96  1  0  0  0
 95190  1  0  0  0
 95191  1  0  0  0
 96 97  1  0  0  0
 96 98  2  0  0  0
 97192  1  0  0  0
M  CHG  2   1   1  65   1
M  END
> <s_m_source_file>
../4ib5_ligand.sdf

> <i_m_source_file_index>
1

> <s_epik_input>
W05IMytdW0NIMl1DKD1PKVtOSF1bQ0BASF0xQyg9TylbTkhdW0NAQEhdKFtDSDJdW0NIMl1bQ0gyXVtOSF0vQyg9TlxbSF0pW05IMl0pQyg9TylbTkhdW0NAQEhdKFtDSDJdW0NIXShbQ0gzXSlbQ0gzXSlDKD1PKVtOSF1bQ0BASF0oW0NIMl1jMltjSF1bY0hdYyhbT0hdKVtjSF1bY0hdMilDKD1PKVtOSF1bQ0gyXUMoPU8pW05IXVtDQEBIXShbQ0gyXWMzW2NIXVtjSF1bY0hdW2NIXVtjSF0zKUMoPU8pW05IXVtDQEBIXShbQ0gyXVtDSDJdW0NIMl1bQ0gyXVtOSDMrXSlDKD1PKVtOSF1bQ0BASF0oW0NAQEhdKFtDSDNdKVtDSDJdW0NIM10pQyg9TylbTkhdW0NAQEhdKFtDSDJdQzQ9TltDSDJdTj1bQ0hdNClDKD1PKVtOSF1bQ0gyXUMoPU8pW05IXVtDQEBIXShbQ0gyXVNTW0NIMl0xKUMoPU8pW05IXVtDSDJdQyg9TylbT0hd

> <s_epik_cmdline>
J2VwaWtfYXBwJywgJy1pbWFlJywgJ2xpZ2FuZF9wcm8ubWFlJywgJy1vbWFlJywgJ2xpZ2FuZF9wcmVwLm1hZScsICctbXMnLCAnMScsICctcGgnLCAnNycsICctcGh0JywgJzAuNScsICctbnQn

> <s_epik_pKa_notes>
Molecule size exceeds maximum supported for generating protonation states

> <s_epik_Chemistry_Notes>
This compound has an imine and may undergo hydrolysis.

$$$$
