4ibb_ligand
                    3D
 Schrodinger Suite 2020-3.
 54 57  0  0  1  0            999 V2000
    2.6030   24.1390    0.9740 C   0  0  0  0  0  0
    1.8760   23.4930    2.1220 C   0  0  0  0  0  0
    1.2420   24.2890    3.0700 C   0  0  0  0  0  0
    0.5730   23.6880    4.1260 C   0  0  0  0  0  0
   -0.1190   24.5260    5.1690 C   0  0  0  0  0  0
    0.5330   22.2880    4.2440 C   0  0  0  0  0  0
   -0.1770   21.7060    5.3650 C   0  0  0  0  0  0
    1.1640   21.4890    3.2990 C   0  0  0  0  0  0
    1.8420   22.0860    2.2340 C   0  0  0  0  0  0
    2.5260   21.2440    1.1980 C   0  0  1  0  0  0
    3.5940   20.5070    1.7710 C   0  0  0  0  0  0
    4.7270   21.2100    2.5270 C   0  0  0  0  0  0
    5.2710   22.1990    1.8120 O   0  0  0  0  0  0
    5.7300   20.4280    3.3140 C   0  0  0  0  0  0
    5.3550   19.2240    4.2510 C   0  0  0  0  0  0
    6.7860   18.7820    4.9110 C   0  0  0  0  0  0
    7.9300   19.7120    4.4160 C   0  0  0  0  0  0
    7.3030   20.8490    3.3570 S   0  0  0  0  0  0
    3.3610   19.1560    1.4810 C   0  0  0  0  0  0
    4.1230   18.1420    1.8210 O   0  5  0  0  0  0
    2.1460   19.0540    0.7360 C   0  0  0  0  0  0
    1.5890   17.9050    0.2740 O   0  0  0  0  0  0
    1.6230   20.2870    0.5650 N   0  0  0  0  0  0
    0.4700   20.6320   -0.2380 C   0  0  0  0  0  0
    0.6300   21.4630   -1.3570 C   0  0  0  0  0  0
   -0.4750   21.8110   -2.1270 C   0  0  0  0  0  0
   -0.7820   20.1620    0.1180 C   0  0  0  0  0  0
   -1.8850   20.5040   -0.6560 C   0  0  0  0  0  0
   -1.7340   21.3280   -1.7650 C   0  0  0  0  0  0
   -2.9540   21.6530   -2.5800 C   0  0  0  0  0  0
   -3.4760   20.4520   -3.3450 C   0  0  0  0  0  0
   -4.5810   19.9400   -3.0390 O   0  5  0  0  0  0
   -2.7950   19.9490   -4.2620 O   0  0  0  0  0  0
    2.5196   25.2328    1.0562 H   0  0  0  0  0  0
    2.1571   23.8076    0.0246 H   0  0  0  0  0  0
    3.6637   23.8490    1.0020 H   0  0  0  0  0  0
    1.2706   25.3752    2.9839 H   0  0  0  0  0  0
    0.0090   25.5915    4.9274 H   0  0  0  0  0  0
    0.3196   24.3186    6.1562 H   0  0  0  0  0  0
   -1.1910   24.2799    5.1850 H   0  0  0  0  0  0
   -0.5997   22.5082    5.9877 H   0  0  0  0  0  0
    0.5190   21.1030    5.9666 H   0  0  0  0  0  0
   -0.9892   21.0650    4.9917 H   0  0  0  0  0  0
    1.1302   20.4032    3.3881 H   0  0  0  0  0  0
    2.9351   21.9155    0.4288 H   0  0  0  0  0  0
    4.3718   18.7856    4.4216 H   0  0  0  0  0  0
    6.9190   17.9500    5.6026 H   0  0  0  0  0  0
    8.9763   19.6360    4.7118 H   0  0  0  0  0  0
    1.6193   21.8356   -1.6228 H   0  0  0  0  0  0
   -0.3596   22.4520   -3.0010 H   0  0  0  0  0  0
   -0.9022   19.5293    0.9974 H   0  0  0  0  0  0
   -2.8721   20.1244   -0.3921 H   0  0  0  0  0  0
   -3.7558   22.0064   -1.9149 H   0  0  0  0  0  0
   -2.7091   22.4395   -3.3091 H   0  0  0  0  0  0
  1  2  1  0  0  0
  1 34  1  0  0  0
  1 35  1  0  0  0
  1 36  1  0  0  0
  2  3  2  0  0  0
  2  9  1  0  0  0
  3  4  1  0  0  0
  3 37  1  0  0  0
  4  5  1  0  0  0
  4  6  2  0  0  0
  5 38  1  0  0  0
  5 39  1  0  0  0
  5 40  1  0  0  0
  6  7  1  0  0  0
  6  8  1  0  0  0
  7 41  1  0  0  0
  7 42  1  0  0  0
  7 43  1  0  0  0
  8  9  2  0  0  0
  8 44  1  0  0  0
  9 10  1  0  0  0
 10 11  1  0  0  0
 10 23  1  0  0  0
 10 45  1  0  0  0
 11 12  1  0  0  0
 11 19  2  0  0  0
 12 13  2  0  0  0
 12 14  1  0  0  0
 14 15  2  0  0  0
 14 18  1  0  0  0
 15 16  1  0  0  0
 15 46  1  0  0  0
 16 17  2  0  0  0
 16 47  1  0  0  0
 17 18  1  0  0  0
 17 48  1  0  0  0
 19 20  1  0  0  0
 19 21  1  0  0  0
 21 22  2  0  0  0
 21 23  1  0  0  0
 23 24  1  0  0  0
 24 25  2  0  0  0
 24 27  1  0  0  0
 25 26  1  0  0  0
 25 49  1  0  0  0
 26 29  2  0  0  0
 26 50  1  0  0  0
 27 28  2  0  0  0
 27 51  1  0  0  0
 28 29  1  0  0  0
 28 52  1  0  0  0
 29 30  1  0  0  0
 30 31  1  0  0  0
 30 53  1  0  0  0
 30 54  1  0  0  0
 31 32  1  0  0  0
 31 33  2  0  0  0
M  CHG  2  20  -1  32  -1
M  END
> <s_m_source_file>
../4ibb_ligand.sdf

> <i_m_source_file_index>
1

> <s_epik_input>
W0NIM11jMVtjSF1jKFtDSDNdKWMoW0NIM10pW2NIXWMxW0NASF0yQyhDKD1PKWMzW2NIXVtjSF1bY0hdczMpPUMoW09IXSlDKD1PKU4yYzRbY0hdW2NIXWMoW2NIXVtjSF00KVtDSDJdQyg9TylbT0hd

> <s_epik_cmdline>
J2VwaWtfYXBwJywgJy1pbWFlJywgJ2xpZ2FuZF9wcm8ubWFlJywgJy1vbWFlJywgJ2xpZ2FuZF9wcmVwLm1hZScsICctbXMnLCAnMScsICctcGgnLCAnNycsICctcGh0JywgJzAuNScsICctbnQn

> <r_epik_Ionization_Penalty>
  0.0220

> <r_epik_Ionization_Penalty_Charging>
  0.0218

> <r_epik_Ionization_Penalty_Neutral>
  0.0002

> <r_epik_State_Penalty>
  0.0167

> <r_epik_Charging_Adjusted_Penalty>
0.0384727761934916

> <i_epik_Tot_Q>
-2

> <i_epik_Tot_abs_Q>
2

$$$$
