4ibe_ligand
                    3D
 Schrodinger Suite 2020-3.
 42 45  0  0  1  0            999 V2000
   -3.0920   19.3980    0.8200 O   0  5  0  0  0  0
   -3.0870   20.1360   -0.2030 C   0  0  0  0  0  0
   -4.1910   20.4370   -0.7220 O   0  0  0  0  0  0
   -1.7790   20.6570   -0.7260 C   0  0  0  0  0  0
   -0.6330   20.2620   -0.0440 C   0  0  0  0  0  0
   -1.6550   21.4970   -1.8400 C   0  0  0  0  0  0
   -3.0090   22.0540   -2.7630 Cl  0  0  0  0  0  0
   -0.3910   21.9140   -2.2400 C   0  0  0  0  0  0
    0.7460   21.5100   -1.5550 C   0  0  0  0  0  0
    0.6250   20.6780   -0.4520 C   0  0  0  0  0  0
    1.7890   20.2730    0.2710 N   0  0  0  0  0  0
    2.6830   21.1460    0.7560 C   0  0  1  0  0  0
    2.1360   22.2140    1.6390 C   0  0  0  0  0  0
    1.4280   21.8610    3.1180 S   0  0  0  0  0  0
    1.0270   23.4180    3.6100 C   0  0  0  0  0  0
    1.4700   24.2570    2.5810 C   0  0  0  0  0  0
    1.2510   26.1750    2.6690 Br  0  0  0  0  0  0
    2.0930   23.6040    1.4700 C   0  0  0  0  0  0
    2.1110   19.0180    0.5890 C   0  0  0  0  0  0
    1.3640   17.9030    0.2710 O   0  0  0  0  0  0
    3.3260   19.0660    1.2750 C   0  0  0  0  0  0
    4.0330   17.9920    1.7660 O   0  5  0  0  0  0
    3.7030   20.4120    1.3470 C   0  0  0  0  0  0
    4.9520   21.0530    1.8590 C   0  0  0  0  0  0
    5.2360   22.1620    1.4260 O   0  0  0  0  0  0
    5.8590   20.4410    2.8700 C   0  0  0  0  0  0
    7.2270   20.6260    2.7300 C   0  0  0  0  0  0
    8.1110   20.0920    3.6520 C   0  0  0  0  0  0
    7.6160   19.3720    4.7280 C   0  0  0  0  0  0
    6.2480   19.1900    4.8800 C   0  0  0  0  0  0
    5.3630   19.7300    3.9530 C   0  0  0  0  0  0
   -0.7256   19.6135    0.8272 H   0  0  0  0  0  0
   -0.2913   22.5689   -3.1056 H   0  0  0  0  0  0
    1.7302   21.8451   -1.8824 H   0  0  0  0  0  0
    3.0681   21.6391   -0.1487 H   0  0  0  0  0  0
    0.5282   23.7115    4.5337 H   0  0  0  0  0  0
    2.4866   24.1255    0.5975 H   0  0  0  0  0  0
    7.6099   21.1980    1.8848 H   0  0  0  0  0  0
    9.1848   20.2362    3.5330 H   0  0  0  0  0  0
    8.3041   18.9466    5.4585 H   0  0  0  0  0  0
    5.8664   18.6221    5.7285 H   0  0  0  0  0  0
    4.2884   19.5957    4.0764 H   0  0  0  0  0  0
  1  2  1  0  0  0
  2  3  2  0  0  0
  2  4  1  0  0  0
  4  5  2  0  0  0
  4  6  1  0  0  0
  5 10  1  0  0  0
  5 32  1  0  0  0
  6  7  1  0  0  0
  6  8  2  0  0  0
  8  9  1  0  0  0
  8 33  1  0  0  0
  9 10  2  0  0  0
  9 34  1  0  0  0
 10 11  1  0  0  0
 11 12  1  0  0  0
 11 19  1  0  0  0
 12 13  1  0  0  0
 12 23  1  0  0  0
 12 35  1  0  0  0
 13 14  1  0  0  0
 13 18  2  0  0  0
 14 15  1  0  0  0
 15 16  2  0  0  0
 15 36  1  0  0  0
 16 17  1  0  0  0
 16 18  1  0  0  0
 18 37  1  0  0  0
 19 20  2  0  0  0
 19 21  1  0  0  0
 21 22  1  0  0  0
 21 23  2  0  0  0
 23 24  1  0  0  0
 24 25  2  0  0  0
 24 26  1  0  0  0
 26 27  2  0  0  0
 26 31  1  0  0  0
 27 28  1  0  0  0
 27 38  1  0  0  0
 28 29  2  0  0  0
 28 39  1  0  0  0
 29 30  1  0  0  0
 29 40  1  0  0  0
 30 31  2  0  0  0
 30 41  1  0  0  0
 31 42  1  0  0  0
M  CHG  2   1  -1  22  -1
M  END
> <s_m_source_file>
../4ibe_ligand.sdf

> <i_m_source_file_index>
1

> <s_epik_input>
W09IXUMoPU8pYzFbY0hdYyhbY0hdW2NIXWMxQ2wpTjJbQ0BASF0oYzNzW2NIXWMoQnIpW2NIXTMpQyg9QyhDMj1PKVtPSF0pQyg9TyljNFtjSF1bY0hdW2NIXVtjSF1bY0hdNA==

> <s_epik_cmdline>
J2VwaWtfYXBwJywgJy1pbWFlJywgJ2xpZ2FuZF9wcm8ubWFlJywgJy1vbWFlJywgJ2xpZ2FuZF9wcmVwLm1hZScsICctbXMnLCAnMScsICctcGgnLCAnNycsICctcGh0JywgJzAuNScsICctbnQn

> <r_epik_Ionization_Penalty>
  0.0238

> <r_epik_Ionization_Penalty_Charging>
  0.0154

> <r_epik_Ionization_Penalty_Neutral>
  0.0084

> <r_epik_State_Penalty>
  0.0121

> <r_epik_Charging_Adjusted_Penalty>
0.0275604901487764

> <i_epik_Tot_Q>
-2

> <i_epik_Tot_abs_Q>
2

$$$$
