4idn_ligand
                    3D
 Schrodinger Suite 2020-3.
 46 48  0  0  1  0            999 V2000
   21.3790   -2.4220  -49.0530 P   0  0  0  0  0  0
   20.9210   -3.0770  -50.3380 O   0  5  0  0  0  0
   20.4870   -1.3360  -48.5020 O   0  0  0  0  0  0
   21.5910   -3.3990  -47.9210 O   0  0  0  0  0  0
   22.8050   -1.7560  -49.3550 N   0  0  1  0  0  0
   24.0300   -2.4890  -50.0740 P   0  0  2  0  0  0
   23.5070   -3.1370  -51.2930 O   0  0  0  0  0  0
   24.7480   -3.3640  -49.1120 O   0  5  0  0  0  0
   25.0330   -1.3760  -50.4950 O   0  0  0  0  0  0
   25.0650   -0.6560  -51.8650 P   0  0  1  0  0  0
   25.7660   -1.5420  -52.8350 O   0  0  0  0  0  0
   23.7070   -0.1930  -52.2750 O   0  5  0  0  0  0
   25.9220    0.6670  -51.7280 O   0  0  0  0  0  0
   25.7610    1.5150  -50.6010 C   0  0  0  0  0  0
   26.8230    2.6090  -50.5690 C   0  0  1  0  0  0
   28.1150    2.0390  -50.2520 O   0  0  0  0  0  0
   27.0350    3.4150  -51.8520 C   0  0  1  0  0  0
   27.1140    4.8150  -51.5030 O   0  0  0  0  0  0
   28.3790    2.8980  -52.3710 C   0  0  1  0  0  0
   29.0610    3.8830  -53.1220 O   0  0  0  0  0  0
   29.1130    2.6530  -51.0630 C   0  0  2  0  0  0
   30.1940    1.6700  -51.0880 N   0  0  0  0  0  0
   30.3520    0.6340  -51.9800 C   0  0  0  0  0  0
   31.3910   -0.1090  -51.7150 N   0  0  0  0  0  0
   31.9570    0.4490  -50.5810 C   0  0  0  0  0  0
   33.0980    0.0480  -49.8430 C   0  0  0  0  0  0
   33.8690   -0.9120  -50.0500 O   0  0  0  0  0  0
   33.3160    0.8910  -48.7530 N   0  3  0  0  0  0
   32.5230    1.9680  -48.4150 C   0  0  0  0  0  0
   32.8980    2.6640  -47.3180 N   0  0  0  0  0  0
   31.4510    2.3450  -49.1060 N   0  0  0  0  0  0
   31.2230    1.5430  -50.1740 C   0  0  0  0  0  0
   20.7440   -3.9845  -47.5339 H   0  0  0  0  0  0
   22.6699   -0.8797  -50.0060 H   0  0  0  0  0  0
   24.7706    1.9921  -50.6396 H   0  0  0  0  0  0
   25.8458    0.9203  -49.6795 H   0  0  0  0  0  0
   26.4728    3.2888  -49.7783 H   0  0  0  0  0  0
   26.2260    3.3636  -52.5955 H   0  0  0  0  0  0
   26.2269    5.3355  -51.1129 H   0  0  0  0  0  0
   28.3312    2.0631  -53.0856 H   0  0  0  0  0  0
   28.6735    4.1921  -54.1040 H   0  0  0  0  0  0
   29.5637    3.5891  -50.7016 H   0  0  0  0  0  0
   29.6801    0.4534  -52.8191 H   0  0  0  0  0  0
   33.7845    2.3530  -46.7458 H   0  0  0  0  0  0
   32.3166    3.5412  -46.9978 H   0  0  0  0  0  0
   34.1745    0.7184  -48.0873 H   0  0  0  0  0  0
  1  2  1  0  0  0
  1  3  2  0  0  0
  1  4  1  0  0  0
  1  5  1  0  0  0
  4 33  1  0  0  0
  5  6  1  0  0  0
  5 34  1  0  0  0
  6  7  2  0  0  0
  6  8  1  0  0  0
  6  9  1  0  0  0
  9 10  1  0  0  0
 10 11  2  0  0  0
 10 12  1  0  0  0
 10 13  1  0  0  0
 13 14  1  0  0  0
 14 15  1  0  0  0
 14 35  1  0  0  0
 14 36  1  0  0  0
 15 16  1  0  0  0
 15 17  1  0  0  0
 15 37  1  0  0  0
 16 21  1  0  0  0
 17 18  1  0  0  0
 17 19  1  0  0  0
 17 38  1  0  0  0
 18 39  1  0  0  0
 19 20  1  0  0  0
 19 21  1  0  0  0
 19 40  1  0  0  0
 20 41  1  0  0  0
 21 22  1  0  0  0
 21 42  1  0  0  0
 22 23  1  0  0  0
 22 32  1  0  0  0
 23 24  2  0  0  0
 23 43  1  0  0  0
 24 25  1  0  0  0
 25 26  1  0  0  0
 25 32  2  0  0  0
 26 27  2  0  0  0
 26 28  1  0  0  0
 28 29  1  0  0  0
 28 46  1  0  0  0
 29 30  1  0  0  0
 29 31  2  0  0  0
 30 44  1  0  0  0
 30 45  1  0  0  0
 31 32  1  0  0  0
M  CHG  4   2  -1   8  -1  12  -1  28   1
M  END
> <s_m_source_file>
../4idn_ligand.sdf

> <i_m_source_file_index>
1

> <s_epik_input>
W09IXVAoPU8pKFtPSF0pW05IXVtQQF0oPU8pKFtPSF0pT1tQQEBdKD1PKShbT0hdKU9bQ0gyXVtDQEhdMU9bQ0BIXShbQ0BIXShbT0hdKVtDQEBIXTFbT0hdKW4oW2NIXW4yKWMoYzIzKVtuSF1jKD1OXFtIXSlcW25IXWMzPU8=

> <s_epik_cmdline>
J2VwaWtfYXBwJywgJy1pbWFlJywgJ2xpZ2FuZF9wcm8ubWFlJywgJy1vbWFlJywgJ2xpZ2FuZF9wcmVwLm1hZScsICctbXMnLCAnMScsICctcGgnLCAnNycsICctcGh0JywgJzAuNScsICctbnQn

> <r_lp_tautomer_probability>
1

> <r_epik_Ionization_Penalty>
  2.8872

> <r_epik_Ionization_Penalty_Charging>
  2.3888

> <r_epik_Ionization_Penalty_Neutral>
  0.4985

> <r_epik_State_Penalty>
 -0.0000

> <r_epik_Charging_Adjusted_Penalty>
2.3887781483746

> <i_epik_Tot_Q>
-2

> <i_epik_Tot_abs_Q>
4

> <s_epik_Chemistry_Notes>
This compound has an imine and may undergo hydrolysis. This compound contains an acetal/aminal-like group ( X-CH(R)-Y where X, Y are N, S, or O) that may be acid/base labile, releasing an aldehyde.

$$$$
