4ido_ligand
                    3D
 Schrodinger Suite 2020-3.
 40 42  0  0  1  0            999 V2000
  -25.6840   -3.6380   42.1840 P   0  0  0  0  0  0
  -26.1410   -4.4380   40.9640 O   0  5  0  0  0  0
  -24.7740   -4.4410   43.0660 O   0  5  0  0  0  0
  -26.8460   -3.1270   42.9600 O   0  0  0  0  0  0
  -24.8370   -2.3320   41.7550 O   0  0  0  0  0  0
  -24.7340   -1.7370   40.2590 P   0  0  1  0  0  0
  -24.0710   -2.7580   39.3640 O   0  5  0  0  0  0
  -26.0680   -1.3110   39.7010 O   0  0  0  0  0  0
  -23.7300   -0.5030   40.5050 O   0  0  0  0  0  0
  -23.8490    0.3140   41.6710 C   0  0  0  0  0  0
  -22.8160    1.4350   41.6370 C   0  0  1  0  0  0
  -21.5410    0.8660   41.9130 O   0  0  0  0  0  0
  -22.6600    2.1400   40.2950 C   0  0  1  0  0  0
  -22.6050    3.5610   40.5160 O   0  0  0  0  0  0
  -21.3050    1.7010   39.7620 C   0  0  1  0  0  0
  -20.6530    2.7260   39.0230 O   0  0  0  0  0  0
  -20.5580    1.4810   41.0530 C   0  0  2  0  0  0
  -19.4940    0.4900   40.9540 N   0  0  0  0  0  0
  -19.3630   -0.5080   40.0540 C   0  0  0  0  0  0
  -18.2680   -1.2430   40.3690 N   0  0  0  0  0  0
  -17.7200   -0.7150   41.4920 C   0  0  0  0  0  0
  -16.5710   -1.0090   42.3650 C   0  0  0  0  0  0
  -15.8450   -1.9850   42.0890 O   0  0  0  0  0  0
  -16.3530   -0.2190   43.4440 N   0  3  0  0  0  0
  -17.1530    0.8240   43.7380 C   0  0  0  0  0  0
  -16.8860    1.5650   44.8300 N   0  0  0  0  0  0
  -18.2370    1.1470   42.9880 N   0  0  0  0  0  0
  -18.5480    0.4120   41.8850 C   0  0  0  0  0  0
  -24.8564    0.7541   41.7091 H   0  0  0  0  0  0
  -23.6834   -0.3008   42.5680 H   0  0  0  0  0  0
  -23.1116    2.1666   42.4035 H   0  0  0  0  0  0
  -23.4979    1.9549   39.6068 H   0  0  0  0  0  0
  -23.4868    4.0918   40.9042 H   0  0  0  0  0  0
  -21.3343    0.8723   39.0392 H   0  0  0  0  0  0
  -21.0486    3.0350   38.0442 H   0  0  0  0  0  0
  -20.1076    2.4184   41.4114 H   0  0  0  0  0  0
  -20.0292   -0.6927   39.2113 H   0  0  0  0  0  0
  -16.0141    1.3265   45.4568 H   0  0  0  0  0  0
  -17.5398    2.4089   45.0953 H   0  0  0  0  0  0
  -15.5017   -0.4211   44.1106 H   0  0  0  0  0  0
  1  2  1  0  0  0
  1  3  1  0  0  0
  1  4  2  0  0  0
  1  5  1  0  0  0
  5  6  1  0  0  0
  6  7  1  0  0  0
  6  8  2  0  0  0
  6  9  1  0  0  0
  9 10  1  0  0  0
 10 11  1  0  0  0
 10 29  1  0  0  0
 10 30  1  0  0  0
 11 12  1  0  0  0
 11 13  1  0  0  0
 11 31  1  0  0  0
 12 17  1  0  0  0
 13 14  1  0  0  0
 13 15  1  0  0  0
 13 32  1  0  0  0
 14 33  1  0  0  0
 15 16  1  0  0  0
 15 17  1  0  0  0
 15 34  1  0  0  0
 16 35  1  0  0  0
 17 18  1  0  0  0
 17 36  1  0  0  0
 18 19  1  0  0  0
 18 28  1  0  0  0
 19 20  2  0  0  0
 19 37  1  0  0  0
 20 21  1  0  0  0
 21 22  1  0  0  0
 21 28  2  0  0  0
 22 23  2  0  0  0
 22 24  1  0  0  0
 24 25  1  0  0  0
 24 40  1  0  0  0
 25 26  1  0  0  0
 25 27  2  0  0  0
 26 38  1  0  0  0
 26 39  1  0  0  0
 27 28  1  0  0  0
M  CHG  4   2  -1   3  -1   7  -1  24   1
M  END
> <s_m_source_file>
../4ido_ligand.sdf

> <i_m_source_file_index>
1

> <s_epik_input>
W09IXVAoPU8pKFtPSF0pT1tQQF0oPU8pKFtPSF0pT1tDSDJdW0NASF0xT1tDQEhdKFtDQEhdKFtPSF0pW0NAQEhdMVtPSF0pbihbY0hdbjIpYyhjMjMpW25IXWMoPU5cW0hdKVxbbkhdYzM9Tw==

> <s_epik_cmdline>
J2VwaWtfYXBwJywgJy1pbWFlJywgJ2xpZ2FuZF9wcm8ubWFlJywgJy1vbWFlJywgJ2xpZ2FuZF9wcmVwLm1hZScsICctbXMnLCAnMScsICctcGgnLCAnNycsICctcGh0JywgJzAuNScsICctbnQn

> <r_epik_Ionization_Penalty>
  2.4918

> <r_epik_Ionization_Penalty_Charging>
  2.4918

> <r_epik_Ionization_Penalty_Neutral>
  0.0000

> <r_epik_State_Penalty>
  0.1302

> <r_epik_Charging_Adjusted_Penalty>
2.62193179535438

> <i_epik_Tot_Q>
-2

> <i_epik_Tot_abs_Q>
4

> <s_epik_Chemistry_Notes>
This compound has an imine and may undergo hydrolysis. This compound contains an acetal/aminal-like group ( X-CH(R)-Y where X, Y are N, S, or O) that may be acid/base labile, releasing an aldehyde.

$$$$
