4idt_ligand
                    3D
 Schrodinger Suite 2020-3.
 33 36  0  0  1  0            999 V2000
   95.0560   51.1900  118.5230 Br  0  0  0  0  0  0
   96.0790   50.1640  119.7540 C   0  0  0  0  0  0
   96.3100   48.8030  119.5650 C   0  0  0  0  0  0
   97.0740   48.1000  120.5040 C   0  0  0  0  0  0
   97.6000   48.7420  121.6140 C   0  0  0  0  0  0
   97.3710   50.0990  121.7990 C   0  0  0  0  0  0
   96.6150   50.8040  120.8700 C   0  0  0  0  0  0
   97.4430   46.7550  120.5690 C   0  0  0  0  0  0
   98.1990   46.6250  121.7280 C   0  0  0  0  0  0
   98.2820   47.8300  122.3370 N   0  3  0  0  0  0
   97.0970   45.7240  119.5400 C   0  0  0  0  0  0
   96.1940   46.1180  118.6170 N   0  0  0  0  0  0
   95.7970   45.3250  117.6090 C   0  0  0  0  0  0
   94.8800   45.7770  116.7260 N   0  0  0  0  0  0
   96.3090   44.0880  117.4840 N   0  0  0  0  0  0
   97.2120   43.6490  118.3640 C   0  0  0  0  0  0
   97.6500   44.4490  119.4150 C   0  0  0  0  0  0
   98.6740   43.8010  120.3310 C   0  0  0  0  0  0
   99.5730   44.7750  121.0550 C   0  0  0  0  0  0
   98.8450   45.3660  122.2370 C   0  0  0  0  0  0
   95.8999   48.2908  118.6946 H   0  0  0  0  0  0
   97.7827   50.6095  122.6697 H   0  0  0  0  0  0
   96.4393   51.8698  121.0159 H   0  0  0  0  0  0
   94.4651   46.7900  116.8340 H   0  0  0  0  0  0
   94.5482   45.1320  115.8990 H   0  0  0  0  0  0
   97.6150   42.6419  118.2569 H   0  0  0  0  0  0
   98.1556   43.2114  121.1014 H   0  0  0  0  0  0
   99.3272   43.1407  119.7417 H   0  0  0  0  0  0
  100.4726   44.2502  121.4088 H   0  0  0  0  0  0
   99.8661   45.5832  120.3688 H   0  0  0  0  0  0
   99.5406   45.6145  123.0521 H   0  0  0  0  0  0
   98.0697   44.6820  122.6124 H   0  0  0  0  0  0
   98.7903   48.1320  123.2646 H   0  0  0  0  0  0
  1  2  1  0  0  0
  2  3  2  0  0  0
  2  7  1  0  0  0
  3  4  1  0  0  0
  3 21  1  0  0  0
  4  5  2  0  0  0
  4  8  1  0  0  0
  5  6  1  0  0  0
  5 10  1  0  0  0
  6  7  2  0  0  0
  6 22  1  0  0  0
  7 23  1  0  0  0
  8  9  2  0  0  0
  8 11  1  0  0  0
  9 10  1  0  0  0
  9 20  1  0  0  0
 10 33  1  0  0  0
 11 12  2  0  0  0
 11 17  1  0  0  0
 12 13  1  0  0  0
 13 14  1  0  0  0
 13 15  2  0  0  0
 14 24  1  0  0  0
 14 25  1  0  0  0
 15 16  1  0  0  0
 16 17  2  0  0  0
 16 26  1  0  0  0
 17 18  1  0  0  0
 18 19  1  0  0  0
 18 27  1  0  0  0
 18 28  1  0  0  0
 19 20  1  0  0  0
 19 29  1  0  0  0
 19 30  1  0  0  0
 20 31  1  0  0  0
 20 32  1  0  0  0
M  CHG  1  10   1
M  END
> <s_m_source_file>
../4idt_ligand.sdf

> <i_m_source_file_index>
1

> <s_epik_input>
QnJjKFtjSF0xKVtjSF1bY0hdYyhjMTIpW25IXWMzYzJjNGMoW0NIMl1bQ0gyXVtDSDJdMylbY0hdbmMobjQpW05IMl0=

> <s_epik_cmdline>
J2VwaWtfYXBwJywgJy1pbWFlJywgJ2xpZ2FuZF9wcm8ubWFlJywgJy1vbWFlJywgJ2xpZ2FuZF9wcmVwLm1hZScsICctbXMnLCAnMScsICctcGgnLCAnNycsICctcGh0JywgJzAuNScsICctbnQn

> <r_epik_Ionization_Penalty>
  0.0374

> <r_epik_Ionization_Penalty_Charging>
  0.0000

> <r_epik_Ionization_Penalty_Neutral>
  0.0374

> <r_epik_State_Penalty>
  0.0295

> <r_epik_Charging_Adjusted_Penalty>
0.0294686241450182

> <i_epik_Tot_Q>
1

> <i_epik_Tot_abs_Q>
1

$$$$
