4idv_ligand
                    3D
 Schrodinger Suite 2020-3.
 49 51  0  0  1  0            999 V2000
   19.5890   10.9270   88.6120 N   0  0  0  0  0  0
   19.7440   12.1660   88.1280 C   0  0  0  0  0  0
   18.6350   12.8400   87.8910 N   0  0  0  0  0  0
   20.9710   12.5790   87.9580 N   0  0  0  0  0  0
   21.1440   13.8250   87.4710 C   0  0  0  0  0  0
   20.0640   14.6500   87.1370 C   0  0  0  0  0  0
   20.1930   15.9660   86.6530 O   0  0  0  0  0  0
   21.1930   16.5670   85.8670 C   0  0  0  0  0  0
   20.7460   17.9990   85.4810 C   0  0  0  0  0  0
   19.8450   18.1280   84.3770 O   0  0  0  0  0  0
   18.8890   19.1670   84.3330 C   0  0  0  0  0  0
   18.7510   14.1000   87.3960 C   0  0  0  0  0  0
   17.4830   14.8770   87.0480 C   0  0  0  0  0  0
   17.4360   16.1270   86.4700 C   0  0  0  0  0  0
   16.1650   16.4690   86.2600 N   0  3  0  0  0  0
   16.1520   14.4570   87.1460 C   0  0  0  0  0  0
   15.3260   15.4890   86.6500 C   0  0  0  0  0  0
   13.9440   15.4360   86.6140 C   0  0  0  0  0  0
   13.3290   14.3050   87.0880 C   0  0  0  0  0  0
   15.4880   13.3350   87.6150 C   0  0  0  0  0  0
   14.0940   13.2790   87.5980 C   0  0  0  0  0  0
   13.5040   12.1150   88.0770 C   0  0  0  0  0  0
   12.9780   11.0900   88.4670 C   0  0  0  0  0  0
   12.3450    9.8140   88.9100 C   0  0  0  0  0  0
   12.2530    9.8640   90.3890 C   0  0  0  0  0  0
   13.1870    8.6670   88.4140 C   0  0  0  0  0  0
   11.0750    9.7010   88.3860 O   0  0  0  0  0  0
   18.5791   10.5232   88.7768 H   0  0  0  0  0  0
   20.4715   10.3130   88.8448 H   0  0  0  0  0  0
   22.1576   14.2014   87.3332 H   0  0  0  0  0  0
   22.1306   16.6150   86.4403 H   0  0  0  0  0  0
   21.3506   15.9714   84.9557 H   0  0  0  0  0  0
   20.2327   18.4655   86.3348 H   0  0  0  0  0  0
   21.6281   18.5983   85.2114 H   0  0  0  0  0  0
   18.3016   19.0857   83.4065 H   0  0  0  0  0  0
   19.4028   20.1393   84.3573 H   0  0  0  0  0  0
   18.2182   19.0850   85.2009 H   0  0  0  0  0  0
   18.3686   16.6704   86.2580 H   0  0  0  0  0  0
   13.3608   16.2686   86.2205 H   0  0  0  0  0  0
   12.2427   14.2188   87.0613 H   0  0  0  0  0  0
   16.0588   12.4900   88.0000 H   0  0  0  0  0  0
   13.2626    9.9542   90.8163 H   0  0  0  0  0  0
   11.7796    8.9423   90.7583 H   0  0  0  0  0  0
   11.6486   10.7325   90.6896 H   0  0  0  0  0  0
   14.2023    8.7513   88.8288 H   0  0  0  0  0  0
   13.2360    8.6964   87.3155 H   0  0  0  0  0  0
   12.7373    7.7161   88.7357 H   0  0  0  0  0  0
   10.3089   10.4504   88.6342 H   0  0  0  0  0  0
   15.9244   17.4478   85.8195 H   0  0  0  0  0  0
  1  2  1  0  0  0
  1 28  1  0  0  0
  1 29  1  0  0  0
  2  3  2  0  0  0
  2  4  1  0  0  0
  3 12  1  0  0  0
  4  5  2  0  0  0
  5  6  1  0  0  0
  5 30  1  0  0  0
  6  7  1  0  0  0
  6 12  2  0  0  0
  7  8  1  0  0  0
  8  9  1  0  0  0
  8 31  1  0  0  0
  8 32  1  0  0  0
  9 10  1  0  0  0
  9 33  1  0  0  0
  9 34  1  0  0  0
 10 11  1  0  0  0
 11 35  1  0  0  0
 11 36  1  0  0  0
 11 37  1  0  0  0
 12 13  1  0  0  0
 13 14  2  0  0  0
 13 16  1  0  0  0
 14 15  1  0  0  0
 14 38  1  0  0  0
 15 17  1  0  0  0
 15 49  1  0  0  0
 16 17  2  0  0  0
 16 20  1  0  0  0
 17 18  1  0  0  0
 18 19  2  0  0  0
 18 39  1  0  0  0
 19 21  1  0  0  0
 19 40  1  0  0  0
 20 21  2  0  0  0
 20 41  1  0  0  0
 21 22  1  0  0  0
 22 23  3  0  0  0
 23 24  1  0  0  0
 24 25  1  0  0  0
 24 26  1  0  0  0
 24 27  1  0  0  0
 25 42  1  0  0  0
 25 43  1  0  0  0
 25 44  1  0  0  0
 26 45  1  0  0  0
 26 46  1  0  0  0
 26 47  1  0  0  0
 27 48  1  0  0  0
M  CHG  1  15   1
M  END
> <s_m_source_file>
../4idv_ligand.sdf

> <i_m_source_file_index>
1

> <s_epik_input>
W0NIM11PW0NIMl1bQ0gyXU9jKFtjSF1uMSljKG5jMVtOSDJdKS1jMltjSF1bbkhdYyhjMjMpW2NIXVtjSF1jKFtjSF0zKUMjQ0MoW0NIM10pKFtDSDNdKVtPSF0=

> <s_epik_cmdline>
J2VwaWtfYXBwJywgJy1pbWFlJywgJ2xpZ2FuZF9wcm8ubWFlJywgJy1vbWFlJywgJ2xpZ2FuZF9wcmVwLm1hZScsICctbXMnLCAnMScsICctcGgnLCAnNycsICctcGh0JywgJzAuNScsICctbnQn

> <r_lp_tautomer_probability>
1

> <r_epik_Ionization_Penalty>
  0.0032

> <r_epik_Ionization_Penalty_Charging>
  0.0000

> <r_epik_Ionization_Penalty_Neutral>
  0.0032

> <r_epik_State_Penalty>
 -0.0000

> <r_epik_Charging_Adjusted_Penalty>
0

> <i_epik_Tot_Q>
1

> <i_epik_Tot_abs_Q>
1

$$$$
