4ie2_ligand
                    3D
 Schrodinger Suite 2020-3.
 38 37  0  0  1  0            999 V2000
   35.2100   89.1030   72.1650 O   0  5  0  0  0  0
   34.1470   88.6600   71.6660 C   0  0  0  0  0  0
   33.2160   89.4160   71.2990 O   0  0  0  0  0  0
   33.9640   87.1710   71.4990 C   0  0  2  0  0  0
   32.6610   86.9240   70.8600 N   0  3  0  0  0  0
   34.0130   86.4920   72.8700 C   0  0  0  0  0  0
   33.0670   87.1160   73.8880 C   0  0  0  0  0  0
   32.8910   86.1730   75.0780 C   0  0  0  0  0  0
   32.0450   85.0890   74.6580 O   0  0  0  0  0  0
   35.0820   86.5670   70.6600 C   0  0  0  0  0  0
   35.2640   87.2290   69.3010 C   0  0  0  0  0  0
   36.3430   86.5230   68.4710 C   0  0  0  0  0  0
   36.9610   87.4990   67.4670 C   0  0  0  0  0  0
   37.2660   86.8340   66.0550 B   0  5  0  0  0  0
   38.3930   85.8440   66.4050 O   0  0  0  0  0  0
   36.2770   85.8660   65.4450 O   0  0  0  0  0  0
   37.9710   87.7460   65.0790 O   0  0  0  0  0  0
   31.8619   87.3644   71.4745 H   0  0  0  0  0  0
   32.4975   85.8401   70.7677 H   0  0  0  0  0  0
   32.6500   87.3829   69.8604 H   0  0  0  0  0  0
   33.7337   85.4333   72.7650 H   0  0  0  0  0  0
   35.0318   86.5636   73.2785 H   0  0  0  0  0  0
   33.4848   88.0709   74.2396 H   0  0  0  0  0  0
   32.0887   87.2947   73.4180 H   0  0  0  0  0  0
   33.8737   85.7909   75.3915 H   0  0  0  0  0  0
   32.4264   86.7185   75.9126 H   0  0  0  0  0  0
   31.7860   84.2875   75.3655 H   0  0  0  0  0  0
   36.0367   86.6627   71.1979 H   0  0  0  0  0  0
   34.8694   85.5034   70.4768 H   0  0  0  0  0  0
   34.3161   87.1901   68.7443 H   0  0  0  0  0  0
   35.5640   88.2780   69.4413 H   0  0  0  0  0  0
   37.1316   86.1465   69.1391 H   0  0  0  0  0  0
   35.8929   85.6813   67.9243 H   0  0  0  0  0  0
   36.2694   88.3374   67.2974 H   0  0  0  0  0  0
   37.9115   87.8828   67.8661 H   0  0  0  0  0  0
   38.2048   85.0249   67.1147 H   0  0  0  0  0  0
   35.7222   85.1678   66.0889 H   0  0  0  0  0  0
   38.7057   88.4790   65.4435 H   0  0  0  0  0  0
  1  2  1  0  0  0
  2  3  2  0  0  0
  2  4  1  0  0  0
  4  5  1  0  0  0
  4  6  1  0  0  0
  4 10  1  0  0  0
  5 18  1  0  0  0
  5 19  1  0  0  0
  5 20  1  0  0  0
  6  7  1  0  0  0
  6 21  1  0  0  0
  6 22  1  0  0  0
  7  8  1  0  0  0
  7 23  1  0  0  0
  7 24  1  0  0  0
  8  9  1  0  0  0
  8 25  1  0  0  0
  8 26  1  0  0  0
  9 27  1  0  0  0
 10 11  1  0  0  0
 10 28  1  0  0  0
 10 29  1  0  0  0
 11 12  1  0  0  0
 11 30  1  0  0  0
 11 31  1  0  0  0
 12 13  1  0  0  0
 12 32  1  0  0  0
 12 33  1  0  0  0
 13 14  1  0  0  0
 13 34  1  0  0  0
 13 35  1  0  0  0
 14 15  1  0  0  0
 14 16  1  0  0  0
 14 17  1  0  0  0
 15 36  1  0  0  0
 16 37  1  0  0  0
 17 38  1  0  0  0
M  CHG  3   1  -1   5   1  14  -1
M  END
> <s_m_source_file>
../4ie2_ligand.sdf

> <i_m_source_file_index>
1

> <s_epik_input>
W09IXVtDSDJdW0NIMl1bQ0gyXVtDQF0oQyhbTy1dKT1PKShbTkgzK10pW0NIMl1bQ0gyXVtDSDJdW0NIMl1bQi1dKFtPSF0pKFtPSF0pW09IXQ==

> <s_epik_cmdline>
J2VwaWtfYXBwJywgJy1pbWFlJywgJ2xpZ2FuZF9wcm8ubWFlJywgJy1vbWFlJywgJ2xpZ2FuZF9wcmVwLm1hZScsICctbXMnLCAnMScsICctcGgnLCAnNycsICctcGh0JywgJzAuNScsICctbnQn

> <r_lp_tautomer_probability>
1

> <r_epik_Ionization_Penalty>
  0.0009

> <r_epik_Ionization_Penalty_Charging>
  0.0009

> <r_epik_Ionization_Penalty_Neutral>
  0.0000

> <r_epik_State_Penalty>
 -0.0000

> <r_epik_Charging_Adjusted_Penalty>
0.000895467576304148

> <i_epik_Tot_Q>
-1

> <i_epik_Tot_abs_Q>
3

> <s_epik_Chemistry_Notes>
This compound contains a Lewis acid (boronic acid) which adds nucleophiles to form tetrahedral complexes, lowering the experimental pKa

$$$$
