4ie3_ligand.****
                    3D
 Schrodinger Suite 2020-3.
 51 51  0  0  1  0            999 V2000
   35.0640   88.9480   72.0690 O   0  0  0  0  0  0
   34.0030   88.6990   71.4440 C   0  0  0  0  0  0
   33.1580   89.5830   71.1310 O   0  5  0  0  0  0
   33.7260   87.2660   71.0510 C   0  0  1  0  0  0
   32.2870   87.1380   70.7650 N   0  3  0  0  0  0
   34.4860   86.8730   69.7850 C   0  0  0  0  0  0
   35.9660   86.5570   69.9690 C   0  0  0  0  0  0
   36.5890   86.0880   68.6420 C   0  0  0  0  0  0
   36.9210   87.2520   67.7050 C   0  0  0  0  0  0
   37.2650   86.7360   66.2380 B   0  5  0  0  0  0
   37.9230   87.6890   65.2630 O   0  0  0  0  0  0
   36.2690   85.8020   65.5980 O   0  0  0  0  0  0
   38.4400   85.7840   66.5260 O   0  0  0  0  0  0
   34.0990   86.3800   72.2360 C   0  0  0  0  0  0
   33.1420   86.6740   73.3840 C   0  0  0  0  0  0
   33.3170   85.7530   74.5140 N   0  3  2  0  0  0
   32.1910   85.9190   75.4550 C   0  0  0  0  0  0
   32.2960   84.8890   76.5810 C   0  0  0  0  0  0
   33.5980   85.1090   77.3370 C   0  0  1  0  0  0
   33.7580   84.0830   78.3230 O   0  0  0  0  0  0
   34.7790   85.0830   76.3630 C   0  0  0  0  0  0
   34.5880   86.0590   75.2020 C   0  0  0  0  0  0
   32.0246   87.7788   69.9103 H   0  0  0  0  0  0
   31.7087   87.4490   71.6475 H   0  0  0  0  0  0
   32.0529   86.0907   70.5236 H   0  0  0  0  0  0
   34.0316   85.9708   69.3497 H   0  0  0  0  0  0
   34.4363   87.6962   69.0571 H   0  0  0  0  0  0
   36.4938   87.4594   70.3111 H   0  0  0  0  0  0
   36.0803   85.7594   70.7178 H   0  0  0  0  0  0
   37.5220   85.5427   68.8475 H   0  0  0  0  0  0
   35.8838   85.4244   68.1201 H   0  0  0  0  0  0
   36.0575   87.9306   67.6431 H   0  0  0  0  0  0
   37.7910   87.8003   68.0954 H   0  0  0  0  0  0
   37.3482   88.5254   64.8387 H   0  0  0  0  0  0
   35.2923   86.1834   65.2654 H   0  0  0  0  0  0
   39.3532   86.1667   67.0051 H   0  0  0  0  0  0
   34.0183   85.3228   71.9431 H   0  0  0  0  0  0
   35.1321   86.5970   72.5452 H   0  0  0  0  0  0
   33.3136   87.6964   73.7517 H   0  0  0  0  0  0
   32.1048   86.5810   73.0297 H   0  0  0  0  0  0
   33.3393   84.7177   74.1431 H   0  0  0  0  0  0
   32.2191   86.9308   75.8856 H   0  0  0  0  0  0
   31.2411   85.7748   74.9193 H   0  0  0  0  0  0
   31.4448   85.0082   77.2675 H   0  0  0  0  0  0
   32.2831   83.8756   76.1534 H   0  0  0  0  0  0
   33.5689   86.0582   77.8922 H   0  0  0  0  0  0
   32.9997   83.9526   79.1091 H   0  0  0  0  0  0
   35.7002   85.3608   76.8962 H   0  0  0  0  0  0
   34.8879   84.0711   75.9456 H   0  0  0  0  0  0
   35.4226   85.9568   74.4928 H   0  0  0  0  0  0
   34.5579   87.0890   75.5869 H   0  0  0  0  0  0
  1  2  2  0  0  0
  2  3  1  0  0  0
  2  4  1  0  0  0
  4  5  1  0  0  0
  4  6  1  0  0  0
  4 14  1  0  0  0
  5 23  1  0  0  0
  5 24  1  0  0  0
  5 25  1  0  0  0
  6  7  1  0  0  0
  6 26  1  0  0  0
  6 27  1  0  0  0
  7  8  1  0  0  0
  7 28  1  0  0  0
  7 29  1  0  0  0
  8  9  1  0  0  0
  8 30  1  0  0  0
  8 31  1  0  0  0
  9 10  1  0  0  0
  9 32  1  0  0  0
  9 33  1  0  0  0
 10 11  1  0  0  0
 10 12  1  0  0  0
 10 13  1  0  0  0
 11 34  1  0  0  0
 12 35  1  0  0  0
 13 36  1  0  0  0
 14 15  1  0  0  0
 14 37  1  0  0  0
 14 38  1  0  0  0
 15 16  1  0  0  0
 15 39  1  0  0  0
 15 40  1  0  0  0
 16 17  1  0  0  0
 16 22  1  0  0  0
 16 41  1  0  0  0
 17 18  1  0  0  0
 17 42  1  0  0  0
 17 43  1  0  0  0
 18 19  1  0  0  0
 18 44  1  0  0  0
 18 45  1  0  0  0
 19 20  1  0  0  0
 19 21  1  0  0  0
 19 46  1  0  0  0
 20 47  1  0  0  0
 21 22  1  0  0  0
 21 48  1  0  0  0
 21 49  1  0  0  0
 22 50  1  0  0  0
 22 51  1  0  0  0
M  CHG  4   3  -1   5   1  10  -1  16   1
M  END
> <s_m_source_file>
../4ie3_ligand.sdf

> <i_m_source_file_index>
1

> <s_epik_input>
W09IXVtCLV0oW09IXSkoW09IXSlbQ0gyXVtDSDJdW0NIMl1bQ0gyXVtDQEBdKEMoPU8pW08tXSkoW05IMytdKVtDSDJdW0NIMl1bTkBASCtdMVtDSDJdW0NIMl1bQ0BASF0oW09IXSlbQ0gyXVtDSDJdMQ==

> <s_epik_cmdline>
J2VwaWtfYXBwJywgJy1pbWFlJywgJ2xpZ2FuZF9wcm8ubWFlJywgJy1vbWFlJywgJ2xpZ2FuZF9wcmVwLm1hZScsICctbXMnLCAnMScsICctcGgnLCAnNycsICctcGh0JywgJzAuNScsICctbnQn

> <r_epik_Ionization_Penalty>
  0.0171

> <r_epik_Ionization_Penalty_Charging>
  0.0171

> <r_epik_Ionization_Penalty_Neutral>
  0.0000

> <r_epik_State_Penalty>
  0.0089

> <r_epik_Charging_Adjusted_Penalty>
0.0259515786180732

> <i_epik_Tot_Q>
0

> <i_epik_Tot_abs_Q>
4

> <s_epik_Chemistry_Notes>
This compound contains a Lewis acid (boronic acid) which adds nucleophiles to form tetrahedral complexes, lowering the experimental pKa

$$$$
