4ie5_ligand
                    3D
 Schrodinger Suite 2020-3.
 21 21  0  0  1  0            999 V2000
   33.9430   -7.3290  -21.1750 C   0  0  0  0  0  0
   32.1530   -7.2140  -22.8350 N   0  0  0  0  0  0
   34.1240   -8.5670  -21.5990 O   0  5  0  0  0  0
   32.9310   -6.4560  -21.8710 C   0  0  0  0  0  0
   29.3250   -6.5040  -24.9400 N   0  3  0  0  0  0
   34.6190   -6.8990  -20.2440 O   0  0  0  0  0  0
   31.3560   -6.5540  -23.6380 C   0  0  0  0  0  0
   31.3330   -5.3350  -23.6750 O   0  0  0  0  0  0
   30.3330   -7.2710  -24.4800 C   0  0  0  0  0  0
   31.3670   -9.4120  -24.3130 O   0  5  0  0  0  0
   28.3460   -6.9960  -25.7140 C   0  0  0  0  0  0
   28.3550   -8.3500  -26.0400 C   0  0  0  0  0  0
   29.3700   -9.1870  -25.5750 C   0  0  0  0  0  0
   30.3730   -8.6230  -24.7680 C   0  0  0  0  0  0
   32.2434   -8.3095  -22.8751 H   0  0  0  0  0  0
   32.2436   -6.0269  -21.1271 H   0  0  0  0  0  0
   33.4502   -5.6443  -22.4017 H   0  0  0  0  0  0
   27.5538   -6.3446  -26.0830 H   0  0  0  0  0  0
   27.5613   -8.7599  -26.6646 H   0  0  0  0  0  0
   29.3846  -10.2466  -25.8300 H   0  0  0  0  0  0
   29.2858   -5.4352  -24.6830 H   0  0  0  0  0  0
  1  3  1  0  0  0
  1  4  1  0  0  0
  1  6  2  0  0  0
  2  4  1  0  0  0
  2  7  1  0  0  0
  2 15  1  0  0  0
  4 16  1  0  0  0
  4 17  1  0  0  0
  5  9  2  0  0  0
  5 11  1  0  0  0
  5 21  1  0  0  0
  7  8  2  0  0  0
  7  9  1  0  0  0
  9 14  1  0  0  0
 10 14  1  0  0  0
 11 12  2  0  0  0
 11 18  1  0  0  0
 12 13  1  0  0  0
 12 19  1  0  0  0
 13 14  2  0  0  0
 13 20  1  0  0  0
M  CHG  3   3  -1   5   1  10  -1
M  END
> <s_m_source_file>
../4ie5_ligand.sdf

> <i_m_source_file_index>
1

> <s_epik_input>
W09IXUMoPU8pW0NIMl1bTkhdQyg9TyljMW5bY0hdW2NIXVtjSF1jMVtPSF0=

> <s_epik_cmdline>
J2VwaWtfYXBwJywgJy1pbWFlJywgJ2xpZ2FuZF9wcm8ubWFlJywgJy1vbWFlJywgJ2xpZ2FuZF9wcmVwLm1hZScsICctbXMnLCAnMScsICctcGgnLCAnNycsICctcGh0JywgJzAuNScsICctbnQn

> <r_lp_tautomer_probability>
0.56342

> <r_epik_Ionization_Penalty>
  0.0489

> <r_epik_Ionization_Penalty_Charging>
  0.0489

> <r_epik_Ionization_Penalty_Neutral>
  0.0000

> <r_epik_State_Penalty>
  0.3873

> <r_epik_Charging_Adjusted_Penalty>
0.43620093991484

> <i_epik_Tot_Q>
-1

> <i_epik_Tot_abs_Q>
3

$$$$
