4ie7_ligand
                    3D
 Schrodinger Suite 2020-3.
 28 30  0  0  1  0            999 V2000
   31.5210   -4.6430  -34.4500 O   0  0  0  0  0  0
   27.2180   -4.5290  -31.6920 O   0  0  0  0  0  0
   29.5590   -7.7620  -28.0240 O   0  0  0  0  0  0
   33.2850   -5.6660  -33.6590 O   0  5  0  0  0  0
   27.6450   -7.8350  -26.6420 O   0  0  0  0  0  0
   31.6900   -7.7830  -29.3750 O   0  0  0  0  0  0
   25.0660   -5.8550  -28.2350 C   0  0  0  0  0  0
   25.7000   -6.6630  -27.3170 C   0  0  0  0  0  0
   25.7010   -5.4060  -29.3790 C   0  0  0  0  0  0
   31.7570   -6.5390  -31.3810 C   0  0  0  0  0  0
   29.8540   -5.2870  -32.1730 C   0  0  0  0  0  0
   32.0060   -5.3010  -33.5370 C   0  0  0  0  0  0
   31.1790   -5.7090  -32.3380 C   0  0  0  0  0  0
   27.0000   -7.0440  -27.5470 C   0  0  0  0  0  0
   31.0560   -6.9570  -30.2620 C   0  0  0  0  0  0
   27.7440   -5.2800  -30.8350 C   0  0  0  0  0  0
   29.0360   -7.0090  -28.8880 C   0  0  0  0  0  0
   27.0110   -5.7630  -29.6170 C   0  0  0  0  0  0
   29.1520   -5.7180  -31.0430 C   0  0  0  0  0  0
   27.6440   -6.5840  -28.6880 C   0  0  0  0  0  0
   29.7540   -6.5550  -30.0990 C   0  0  0  0  0  0
   27.1158   -8.1884  -25.7447 H   0  0  0  0  0  0
   32.7354   -8.0779  -29.5487 H   0  0  0  0  0  0
   24.0322   -5.5604  -28.0544 H   0  0  0  0  0  0
   25.1774   -6.9957  -26.4202 H   0  0  0  0  0  0
   25.1682   -4.7731  -30.0887 H   0  0  0  0  0  0
   32.7873   -6.8681  -31.5159 H   0  0  0  0  0  0
   29.3804   -4.6371  -32.9089 H   0  0  0  0  0  0
  1 12  2  0  0  0
  2 16  2  0  0  0
  3 17  2  0  0  0
  4 12  1  0  0  0
  5 14  1  0  0  0
  5 22  1  0  0  0
  6 15  1  0  0  0
  6 23  1  0  0  0
  7  8  2  0  0  0
  7  9  1  0  0  0
  7 24  1  0  0  0
  8 14  1  0  0  0
  8 25  1  0  0  0
  9 18  2  0  0  0
  9 26  1  0  0  0
 10 13  2  0  0  0
 10 15  1  0  0  0
 10 27  1  0  0  0
 11 13  1  0  0  0
 11 19  2  0  0  0
 11 28  1  0  0  0
 12 13  1  0  0  0
 14 20  2  0  0  0
 15 21  2  0  0  0
 16 18  1  0  0  0
 16 19  1  0  0  0
 17 20  1  0  0  0
 17 21  1  0  0  0
 18 20  1  0  0  0
 19 21  1  0  0  0
M  CHG  1   4  -1
M  END
> <s_m_source_file>
../4ie7_ligand.sdf

> <i_m_source_file_index>
1

> <s_epik_input>
W09IXWMxW2NIXWMoQyg9TylbT0hdKVtjSF1jKEMyPU8pYzFDKD1PKWMoYzIzKWMoW09IXSlbY0hdW2NIXVtjSF0z

> <s_epik_cmdline>
J2VwaWtfYXBwJywgJy1pbWFlJywgJ2xpZ2FuZF9wcm8ubWFlJywgJy1vbWFlJywgJ2xpZ2FuZF9wcmVwLm1hZScsICctbXMnLCAnMScsICctcGgnLCAnNycsICctcGh0JywgJzAuNScsICctbnQn

> <r_lp_tautomer_probability>
1

> <r_epik_Ionization_Penalty>
  0.0032

> <r_epik_Ionization_Penalty_Charging>
  0.0001

> <r_epik_Ionization_Penalty_Neutral>
  0.0031

> <r_epik_State_Penalty>
 -0.0000

> <r_epik_Charging_Adjusted_Penalty>
0.000107804877582256

> <i_epik_Tot_Q>
-1

> <i_epik_Tot_abs_Q>
1

$$$$
