4ifi_ligand
                    3D
 Schrodinger Suite 2020-3.
102103  0  0  1  0            999 V2000
  -11.0420   14.2170  -26.5350 N   0  3  0  0  0  0
  -11.9950   14.4370  -27.6600 C   0  0  2  0  0  0
  -13.4460   14.8370  -27.1940 C   0  0  0  0  0  0
  -13.9340   15.9080  -27.5830 O   0  0  0  0  0  0
  -11.9820   13.2490  -28.6330 C   0  0  0  0  0  0
  -12.8760   13.4390  -29.8440 C   0  0  0  0  0  0
  -12.2610   14.3560  -30.8910 C   0  0  0  0  0  0
  -11.5250   13.5720  -31.8850 N   0  0  0  0  0  0
  -10.3070   13.0360  -31.7290 C   0  0  0  0  0  0
   -9.6090   13.1740  -30.5980 N   0  0  0  0  0  0
   -9.7720   12.3430  -32.7330 N   0  3  0  0  0  0
  -14.1280   14.0340  -26.3680 N   0  0  0  0  0  0
  -15.5350   14.3950  -25.9400 C   0  0  1  0  0  0
  -16.1640   13.3200  -25.0360 C   0  0  0  0  0  0
  -16.8360   12.2790  -25.7850 O   0  0  0  0  0  0
  -15.5560   15.6650  -25.1080 C   0  0  0  0  0  0
  -14.8660   15.7250  -24.1020 O   0  0  0  0  0  0
  -17.1910   10.8970  -25.0150 P   0  0  0  0  0  0
  -17.8870   10.1250  -26.0970 O   0  5  0  0  0  0
  -15.8920   10.3910  -24.3900 O   0  5  0  0  0  0
  -18.1390   11.3100  -23.9300 O   0  0  0  0  0  0
  -16.3470   16.6940  -25.4840 N   0  0  0  0  0  0
  -16.2310   17.9190  -24.6350 C   0  0  2  0  0  0
  -16.5420   17.7180  -23.1360 C   0  0  0  0  0  0
  -17.4170   16.9020  -22.7670 O   0  0  0  0  0  0
  -17.2300   18.8900  -25.2740 C   0  0  0  0  0  0
  -17.3960   18.4070  -26.6990 C   0  0  0  0  0  0
  -17.2760   16.9010  -26.6180 C   0  0  0  0  0  0
  -15.8200   18.4570  -22.2830 N   0  0  0  0  0  0
  -16.0210   18.4950  -20.8200 C   0  0  2  0  0  0
  -16.6990   19.8240  -20.4910 C   0  0  0  0  0  0
  -16.5510   20.8020  -21.2250 O   0  0  0  0  0  0
  -14.6780   18.3530  -20.0340 C   0  0  0  0  0  0
  -14.8670   18.5900  -18.5360 C   0  0  0  0  0  0
  -14.0170   16.9740  -20.2870 C   0  0  0  0  0  0
  -17.4810   19.8450  -19.4150 N   0  0  0  0  0  0
  -18.2730   21.0200  -19.0700 C   0  0  2  0  0  0
  -17.9270   21.3740  -17.6680 C   0  0  0  0  0  0
  -18.4060   20.7500  -16.7360 O   0  0  0  0  0  0
  -19.7870   20.7420  -19.2620 C   0  0  0  0  0  0
  -20.1410   20.5530  -20.7010 C   0  0  0  0  0  0
  -20.3100   21.6520  -21.5300 C   0  0  0  0  0  0
  -20.1880   19.2710  -21.2660 C   0  0  0  0  0  0
  -20.5520   21.4780  -22.8820 C   0  0  0  0  0  0
  -20.4360   19.1080  -22.6220 C   0  0  0  0  0  0
  -20.6030   20.2030  -23.4280 C   0  0  0  0  0  0
  -17.0260   22.3420  -17.5450 N   0  0  0  0  0  0
  -16.6480   22.9080  -16.2510 C   0  0  2  0  0  0
  -17.3470   24.2540  -16.0570 C   0  0  0  0  0  0
  -17.3210   24.7930  -14.9640 O   0  5  0  0  0  0
  -15.1230   23.0910  -16.1390 C   0  0  0  0  0  0
  -14.3800   22.1030  -16.8470 O   0  0  0  0  0  0
  -17.8651   24.7284  -16.8905 O   0  0  0  0  0  0
  -11.0717   15.0811  -25.8550 H   0  0  0  0  0  0
  -10.0239   14.0996  -26.9346 H   0  0  0  0  0  0
  -11.3272   13.3079  -25.9853 H   0  0  0  0  0  0
  -11.5775   15.3046  -28.1919 H   0  0  0  0  0  0
  -10.9588   13.0905  -29.0044 H   0  0  0  0  0  0
  -12.3271   12.3441  -28.1114 H   0  0  0  0  0  0
  -13.0628   12.4643  -30.3184 H   0  0  0  0  0  0
  -13.8319   13.8823  -29.5282 H   0  0  0  0  0  0
  -13.0578   14.9204  -31.3976 H   0  0  0  0  0  0
  -11.5684   15.0574  -30.4028 H   0  0  0  0  0  0
  -11.9714   13.3757  -32.8710 H   0  0  0  0  0  0
  -10.0320   13.7423  -29.7565 H   0  0  0  0  0  0
   -8.6114   12.7193  -30.5084 H   0  0  0  0  0  0
  -10.3294   12.2171  -33.6729 H   0  0  0  0  0  0
  -13.6616   13.1082  -26.0000 H   0  0  0  0  0  0
  -16.0827   14.5151  -26.8864 H   0  0  0  0  0  0
  -15.3782   12.8442  -24.4309 H   0  0  0  0  0  0
  -16.9057   13.7876  -24.3717 H   0  0  0  0  0  0
  -15.1831   18.2534  -24.6431 H   0  0  0  0  0  0
  -18.1805   18.8544  -24.7215 H   0  0  0  0  0  0
  -16.8230   19.9113  -25.2379 H   0  0  0  0  0  0
  -18.3811   18.7161  -27.0785 H   0  0  0  0  0  0
  -16.6069   18.8440  -27.3286 H   0  0  0  0  0  0
  -16.8439   16.4641  -27.5304 H   0  0  0  0  0  0
  -18.2374   16.4139  -26.3980 H   0  0  0  0  0  0
  -15.0294   19.0661  -22.7455 H   0  0  0  0  0  0
  -16.6645   17.6412  -20.5614 H   0  0  0  0  0  0
  -13.9953   19.1369  -20.3938 H   0  0  0  0  0  0
  -15.3366   19.5719  -18.3765 H   0  0  0  0  0  0
  -13.8882   18.5658  -18.0346 H   0  0  0  0  0  0
  -15.5122   17.8028  -18.1188 H   0  0  0  0  0  0
  -13.8893   16.8216  -21.3689 H   0  0  0  0  0  0
  -14.6583   16.1794  -19.8779 H   0  0  0  0  0  0
  -13.0343   16.9424  -19.7937 H   0  0  0  0  0  0
  -17.5218   18.9482  -18.7793 H   0  0  0  0  0  0
  -17.9874   21.8547  -19.7270 H   0  0  0  0  0  0
  -20.0640   19.8279  -18.7164 H   0  0  0  0  0  0
  -20.3680   21.5913  -18.8732 H   0  0  0  0  0  0
  -20.2520   22.6582  -21.1148 H   0  0  0  0  0  0
  -20.0287   18.3959  -20.6360 H   0  0  0  0  0  0
  -20.7034   22.3476  -23.5215 H   0  0  0  0  0  0
  -20.4980   18.1060  -23.0466 H   0  0  0  0  0  0
  -20.7757   20.0732  -24.4964 H   0  0  0  0  0  0
  -16.5585   22.7174  -18.4672 H   0  0  0  0  0  0
  -16.9877   22.1777  -15.5018 H   0  0  0  0  0  0
  -14.8404   24.0722  -16.5481 H   0  0  0  0  0  0
  -14.8235   23.0344  -15.0821 H   0  0  0  0  0  0
  -13.2804   22.1315  -16.8395 H   0  0  0  0  0  0
   -8.7728   11.8966  -32.6222 H   0  0  0  0  0  0
  1  2  1  0  0  0
  1 54  1  0  0  0
  1 55  1  0  0  0
  1 56  1  0  0  0
  2  3  1  0  0  0
  2  5  1  0  0  0
  2 57  1  0  0  0
  3  4  2  0  0  0
  3 12  1  0  0  0
  5  6  1  0  0  0
  5 58  1  0  0  0
  5 59  1  0  0  0
  6  7  1  0  0  0
  6 60  1  0  0  0
  6 61  1  0  0  0
  7  8  1  0  0  0
  7 62  1  0  0  0
  7 63  1  0  0  0
  8  9  1  0  0  0
  8 64  1  0  0  0
  9 10  1  0  0  0
  9 11  2  0  0  0
 10 65  1  0  0  0
 10 66  1  0  0  0
 11 67  1  0  0  0
 11102  1  0  0  0
 12 13  1  0  0  0
 12 68  1  0  0  0
 13 14  1  0  0  0
 13 16  1  0  0  0
 13 69  1  0  0  0
 14 15  1  0  0  0
 14 70  1  0  0  0
 14 71  1  0  0  0
 15 18  1  0  0  0
 16 17  2  0  0  0
 16 22  1  0  0  0
 18 19  1  0  0  0
 18 20  1  0  0  0
 18 21  2  0  0  0
 22 23  1  0  0  0
 22 28  1  0  0  0
 23 24  1  0  0  0
 23 26  1  0  0  0
 23 72  1  0  0  0
 24 25  2  0  0  0
 24 29  1  0  0  0
 26 27  1  0  0  0
 26 73  1  0  0  0
 26 74  1  0  0  0
 27 28  1  0  0  0
 27 75  1  0  0  0
 27 76  1  0  0  0
 28 77  1  0  0  0
 28 78  1  0  0  0
 29 30  1  0  0  0
 29 79  1  0  0  0
 30 31  1  0  0  0
 30 33  1  0  0  0
 30 80  1  0  0  0
 31 32  2  0  0  0
 31 36  1  0  0  0
 33 34  1  0  0  0
 33 35  1  0  0  0
 33 81  1  0  0  0
 34 82  1  0  0  0
 34 83  1  0  0  0
 34 84  1  0  0  0
 35 85  1  0  0  0
 35 86  1  0  0  0
 35 87  1  0  0  0
 36 37  1  0  0  0
 36 88  1  0  0  0
 37 38  1  0  0  0
 37 40  1  0  0  0
 37 89  1  0  0  0
 38 39  2  0  0  0
 38 47  1  0  0  0
 40 41  1  0  0  0
 40 90  1  0  0  0
 40 91  1  0  0  0
 41 42  2  0  0  0
 41 43  1  0  0  0
 42 44  1  0  0  0
 42 92  1  0  0  0
 43 45  2  0  0  0
 43 93  1  0  0  0
 44 46  2  0  0  0
 44 94  1  0  0  0
 45 46  1  0  0  0
 45 95  1  0  0  0
 46 96  1  0  0  0
 47 48  1  0  0  0
 47 97  1  0  0  0
 48 49  1  0  0  0
 48 51  1  0  0  0
 48 98  1  0  0  0
 49 50  1  0  0  0
 49 53  2  0  0  0
 51 52  1  0  0  0
 51 99  1  0  0  0
 51100  1  0  0  0
 52101  1  0  0  0
M  CHG  5   1   1  11   1  19  -1  20  -1  50  -1
M  END
> <s_m_source_file>
../4ifi_ligand.sdf

> <i_m_source_file_index>
1

> <s_epik_input>
W0hdL049QyhbTkgyXSlcW05IXVtDSDJdW0NIMl1bQ0gyXVtDQEhdKFtOSDMrXSlDKD1PKVtOSF1bQ0BASF0oW0NIMl1PUCg9TykoW09IXSlbT0hdKUMoPU8pTjFbQ0BASF0oW0NIMl1bQ0gyXVtDSDJdMSlDKD1PKVtOSF1bQ0BASF0oW0NIXShbQ0gzXSlbQ0gzXSlDKD1PKVtOSF1bQ0BIXShDKD1PKVtOSF1bQ0BIXShDKD1PKVtPSF0pW0NIMl1bT0hdKVtDSDJdYzJbY0hdW2NIXVtjSF1bY0hdW2NIXTI=

> <s_epik_cmdline>
J2VwaWtfYXBwJywgJy1pbWFlJywgJ2xpZ2FuZF9wcm8ubWFlJywgJy1vbWFlJywgJ2xpZ2FuZF9wcmVwLm1hZScsICctbXMnLCAnMScsICctcGgnLCAnNycsICctcGh0JywgJzAuNScsICctbnQn

> <r_epik_Ionization_Penalty>
  0.2294

> <r_epik_Ionization_Penalty_Charging>
  0.2294

> <r_epik_Ionization_Penalty_Neutral>
  0.0000

> <r_epik_State_Penalty>
  0.1959

> <r_epik_Charging_Adjusted_Penalty>
0.425281814727596

> <i_epik_Tot_Q>
-1

> <i_epik_Tot_abs_Q>
5

> <s_epik_Chemistry_Notes>
This compound has an imine and may undergo hydrolysis.

$$$$
