4igk_ligand
                    3D
 Schrodinger Suite 2020-3.
 96 97  0  0  1  0            999 V2000
    3.7090   -8.6010   12.6950 N   0  3  0  0  0  0
    4.0000   -8.7140   14.1750 C   0  0  2  0  0  0
    5.5210   -8.7690   14.5420 C   0  0  0  0  0  0
    6.1410   -7.7730   14.9340 O   0  0  0  0  0  0
    3.3100   -9.9520   14.6750 C   0  0  0  0  0  0
    6.0810   -9.9680   14.4220 N   0  0  0  0  0  0
    7.4870  -10.2460   14.5880 C   0  0  2  0  0  0
    7.9550  -10.9400   13.2840 C   0  0  0  0  0  0
    7.2900  -11.8220   12.8100 O   0  0  0  0  0  0
    7.6410  -11.2540   15.6820 C   0  0  0  0  0  0
    9.3600  -11.7470   15.9260 S   0  0  0  0  0  0
    9.0950  -10.5620   12.7310 N   0  0  0  0  0  0
    9.4650  -11.1870   11.4350 C   0  0  1  0  0  0
   10.5770  -10.3680   10.7180 C   0  0  0  0  0  0
   10.0170   -9.0990   10.4250 O   0  0  0  0  0  0
   10.1140  -12.5510   11.7300 C   0  0  0  0  0  0
   11.0820  -12.6550   12.5450 O   0  0  0  0  0  0
   11.0330   -7.8600   10.0510 P   0  0  0  0  0  0
   10.0760   -6.8530    9.4940 O   0  5  0  0  0  0
   11.7110   -7.4290   11.3030 O   0  0  0  0  0  0
   12.0450   -8.4100    9.0490 O   0  5  0  0  0  0
    9.7050  -13.5490   10.9970 N   0  0  0  0  0  0
   10.2530  -14.8960   11.2360 C   0  0  2  0  0  0
   11.6970  -14.9600   10.8260 C   0  0  0  0  0  0
   12.1260  -14.1770    9.9410 O   0  0  0  0  0  0
    9.3730  -15.7930   10.3620 C   0  0  0  0  0  0
    8.2550  -15.0240    9.8910 C   0  0  0  0  0  0
    8.5460  -13.5820   10.0970 C   0  0  0  0  0  0
   12.4570  -15.7800   11.5300 N   0  0  0  0  0  0
   13.8880  -16.0620   11.2550 C   0  0  2  0  0  0
   14.0420  -17.4880   10.6550 C   0  0  0  0  0  0
   13.2720  -18.4160   10.9690 O   0  0  0  0  0  0
   14.7460  -15.9160   12.5020 C   0  0  0  0  0  0
   14.6340  -14.5410   13.1850 C   0  0  0  0  0  0
   15.3600  -14.4800   14.4740 C   0  0  0  0  0  0
   15.4430  -15.4890   15.1940 O   0  0  0  0  0  0
   15.8980  -13.3310   14.8010 N   0  0  0  0  0  0
   15.0530  -17.6580    9.8140 N   0  0  0  0  0  0
   15.2860  -18.9240    9.0760 C   0  0  2  0  0  0
   16.6460  -19.4750    9.4910 C   0  0  0  0  0  0
   17.7510  -19.0380    9.0940 O   0  0  0  0  0  0
   15.1040  -18.7290    7.5640 C   0  0  0  0  0  0
   13.7550  -18.2760    7.1950 C   0  0  0  0  0  0
   13.4020  -16.8970    7.2110 C   0  0  0  0  0  0
   12.7730  -19.1690    6.8870 C   0  0  0  0  0  0
   12.1270  -16.4840    6.9590 C   0  0  0  0  0  0
   11.4700  -18.7670    6.6040 C   0  0  0  0  0  0
   11.1420  -17.4050    6.6080 C   0  0  0  0  0  0
   16.5710  -20.4110   10.4660 N   0  0  0  0  0  0
   17.7650  -21.0140   10.9310 C   0  0  0  0  0  0
   18.0350  -22.2070    9.9990 C   0  0  0  0  0  0
   19.0480  -22.8968   10.2916 O   0  0  0  0  0  0
   17.2966  -22.4753    9.0139 O   0  5  0  0  0  0
    4.1998   -7.7027   12.2924 H   0  0  0  0  0  0
    2.6226   -8.5261   12.5396 H   0  0  0  0  0  0
    4.0929   -9.4921   12.1768 H   0  0  0  0  0  0
    3.5861   -7.8096   14.6448 H   0  0  0  0  0  0
    2.2423   -9.9074   14.4142 H   0  0  0  0  0  0
    3.4182  -10.0160   15.7678 H   0  0  0  0  0  0
    3.7645  -10.8387   14.2089 H   0  0  0  0  0  0
    5.3844  -10.7832   14.1768 H   0  0  0  0  0  0
    8.0039   -9.3072   14.8359 H   0  0  0  0  0  0
    7.2722  -10.8287   16.6270 H   0  0  0  0  0  0
    7.0610  -12.1553   15.4345 H   0  0  0  0  0  0
    9.6160  -12.4845   16.7010 H   0  0  0  0  0  0
    9.7600   -9.8168   13.1920 H   0  0  0  0  0  0
    8.5347  -11.2405   10.8505 H   0  0  0  0  0  0
   11.4469  -10.2694   11.3840 H   0  0  0  0  0  0
   10.8780  -10.8871    9.7961 H   0  0  0  0  0  0
   10.2418  -15.1662   12.3022 H   0  0  0  0  0  0
    9.9595  -16.1613    9.5074 H   0  0  0  0  0  0
    9.0152  -16.6467   10.9563 H   0  0  0  0  0  0
    8.0976  -15.2236    8.8208 H   0  0  0  0  0  0
    7.3527  -15.3065   10.4533 H   0  0  0  0  0  0
    7.6998  -13.0620   10.5697 H   0  0  0  0  0  0
    8.8017  -13.0817    9.1513 H   0  0  0  0  0  0
   11.9523  -16.2706   12.3753 H   0  0  0  0  0  0
   14.2122  -15.2899   10.5417 H   0  0  0  0  0  0
   14.4463  -16.6710   13.2437 H   0  0  0  0  0  0
   15.8040  -16.0609   12.2382 H   0  0  0  0  0  0
   15.0554  -13.7684   12.5251 H   0  0  0  0  0  0
   13.5759  -14.3156   13.3843 H   0  0  0  0  0  0
   15.7971  -12.4655   14.1296 H   0  0  0  0  0  0
   16.4506  -13.2318   15.7470 H   0  0  0  0  0  0
   15.7355  -16.8066    9.6748 H   0  0  0  0  0  0
   14.5217  -19.6599    9.3663 H   0  0  0  0  0  0
   15.8176  -17.9736    7.2032 H   0  0  0  0  0  0
   15.2866  -19.6825    7.0467 H   0  0  0  0  0  0
   14.1688  -16.1538    7.4298 H   0  0  0  0  0  0
   13.0149  -20.2315    6.8613 H   0  0  0  0  0  0
   11.8766  -15.4257    7.0327 H   0  0  0  0  0  0
   10.7061  -19.5114    6.3796 H   0  0  0  0  0  0
   10.1383  -17.0730    6.3424 H   0  0  0  0  0  0
   15.6024  -20.7052   10.8965 H   0  0  0  0  0  0
   18.5862  -20.2835   10.8863 H   0  0  0  0  0  0
   17.6269  -21.3473   11.9702 H   0  0  0  0  0  0
  1  2  1  0  0  0
  1 54  1  0  0  0
  1 55  1  0  0  0
  1 56  1  0  0  0
  2  3  1  0  0  0
  2  5  1  0  0  0
  2 57  1  0  0  0
  3  4  2  0  0  0
  3  6  1  0  0  0
  5 58  1  0  0  0
  5 59  1  0  0  0
  5 60  1  0  0  0
  6  7  1  0  0  0
  6 61  1  0  0  0
  7  8  1  0  0  0
  7 10  1  0  0  0
  7 62  1  0  0  0
  8  9  2  0  0  0
  8 12  1  0  0  0
 10 11  1  0  0  0
 10 63  1  0  0  0
 10 64  1  0  0  0
 11 65  1  0  0  0
 12 13  1  0  0  0
 12 66  1  0  0  0
 13 14  1  0  0  0
 13 16  1  0  0  0
 13 67  1  0  0  0
 14 15  1  0  0  0
 14 68  1  0  0  0
 14 69  1  0  0  0
 15 18  1  0  0  0
 16 17  2  0  0  0
 16 22  1  0  0  0
 18 19  1  0  0  0
 18 20  2  0  0  0
 18 21  1  0  0  0
 22 23  1  0  0  0
 22 28  1  0  0  0
 23 24  1  0  0  0
 23 26  1  0  0  0
 23 70  1  0  0  0
 24 25  2  0  0  0
 24 29  1  0  0  0
 26 27  1  0  0  0
 26 71  1  0  0  0
 26 72  1  0  0  0
 27 28  1  0  0  0
 27 73  1  0  0  0
 27 74  1  0  0  0
 28 75  1  0  0  0
 28 76  1  0  0  0
 29 30  1  0  0  0
 29 77  1  0  0  0
 30 31  1  0  0  0
 30 33  1  0  0  0
 30 78  1  0  0  0
 31 32  2  0  0  0
 31 38  1  0  0  0
 33 34  1  0  0  0
 33 79  1  0  0  0
 33 80  1  0  0  0
 34 35  1  0  0  0
 34 81  1  0  0  0
 34 82  1  0  0  0
 35 36  2  0  0  0
 35 37  1  0  0  0
 37 83  1  0  0  0
 37 84  1  0  0  0
 38 39  1  0  0  0
 38 85  1  0  0  0
 39 40  1  0  0  0
 39 42  1  0  0  0
 39 86  1  0  0  0
 40 41  2  0  0  0
 40 49  1  0  0  0
 42 43  1  0  0  0
 42 87  1  0  0  0
 42 88  1  0  0  0
 43 44  2  0  0  0
 43 45  1  0  0  0
 44 46  1  0  0  0
 44 89  1  0  0  0
 45 47  2  0  0  0
 45 90  1  0  0  0
 46 48  2  0  0  0
 46 91  1  0  0  0
 47 48  1  0  0  0
 47 92  1  0  0  0
 48 93  1  0  0  0
 49 50  1  0  0  0
 49 94  1  0  0  0
 50 51  1  0  0  0
 50 95  1  0  0  0
 50 96  1  0  0  0
 51 52  2  0  0  0
 51 53  1  0  0  0
M  CHG  4   1   1  19  -1  21  -1  53  -1
M  END
> <s_m_source_file>
../4igk_ligand.sdf

> <i_m_source_file_index>
1

> <s_epik_input>
W05IMytdW0NAQEhdKFtDSDNdKUMoPU8pW05IXVtDQEBIXShbQ0gyXVtTSF0pQyg9TylbTkhdW0NAQEhdKFtDSDJdT1AoPU8pKFtPSF0pW09IXSlDKD1PKU4xW0NAQEhdKFtDSDJdW0NIMl1bQ0gyXTEpQyg9TylbTkhdW0NAQEhdKFtDSDJdW0NIMl1DKD1PKVtOSDJdKUMoPU8pW05IXVtDQEhdKEMoPU8pW05IXVtDSDJdQyg9TylbT0hdKVtDSDJdYzJbY0hdW2NIXVtjSF1bY0hdW2NIXTI=

> <s_epik_cmdline>
J2VwaWtfYXBwJywgJy1pbWFlJywgJ2xpZ2FuZF9wcm8ubWFlJywgJy1vbWFlJywgJ2xpZ2FuZF9wcmVwLm1hZScsICctbXMnLCAnMScsICctcGgnLCAnNycsICctcGh0JywgJzAuNScsICctbnQn

> <r_lp_tautomer_probability>
1

> <r_epik_Ionization_Penalty>
  0.2280

> <r_epik_Ionization_Penalty_Charging>
  0.2159

> <r_epik_Ionization_Penalty_Neutral>
  0.0121

> <r_epik_State_Penalty>
 -0.0000

> <r_epik_Charging_Adjusted_Penalty>
0.215867922231986

> <i_epik_Tot_Q>
-2

> <i_epik_Tot_abs_Q>
4

$$$$
