4igq_ligand
                    3D
 Schrodinger Suite 2020-3.
 65 64  0  0  1  0            999 V2000
   33.0250   -6.6710  -14.0900 N   0  3  0  0  0  0
   32.0240   -5.9490  -14.8720 C   0  0  2  0  0  0
   32.5300   -5.2970  -16.1460 C   0  0  0  0  0  0
   33.7340   -5.2540  -16.4190 O   0  0  0  0  0  0
   31.3730   -4.7990  -14.0710 C   0  0  2  0  0  0
   32.3880   -3.9470  -13.5240 O   0  0  0  0  0  0
   30.5470   -5.3360  -12.9700 C   0  0  0  0  0  0
   31.8500   -4.9150  -17.1320 N   0  0  0  0  0  0
   31.9490   -4.6430  -18.5370 C   0  0  1  0  0  0
   31.6830   -3.1560  -18.7460 C   0  0  0  0  0  0
   32.2960   -2.2900  -17.7110 C   0  0  0  0  0  0
   31.3900   -1.3800  -16.9380 C   0  0  0  0  0  0
   31.4070    0.1140  -17.3860 C   0  0  0  0  0  0
   30.8400    0.3400  -18.7370 N   0  3  0  0  0  0
   33.3360   -5.1160  -18.8560 C   0  0  0  0  0  0
   33.6330   -6.2960  -18.7520 O   0  0  0  0  0  0
   29.7810   -0.5410  -19.1380 C   0  0  0  0  0  0
   30.2460    1.6850  -18.8080 C   0  0  0  0  0  0
   31.9530    0.2300  -19.7300 C   0  0  0  0  0  0
   34.4150   -4.2300  -19.0150 N   0  0  0  0  0  0
   35.3430   -5.1380  -19.5980 C   0  0  2  0  0  0
   35.7330   -6.3950  -18.8030 C   0  0  0  0  0  0
   36.5121   -6.3318  -17.8148 O   0  0  0  0  0  0
   36.6020   -4.3480  -19.9750 C   0  0  0  0  0  0
   37.6460   -5.1510  -20.7470 C   0  0  0  0  0  0
   38.7940   -4.2980  -21.2480 C   0  0  0  0  0  0
   38.7770   -3.0750  -21.1020 O   0  0  0  0  0  0
   39.7980   -4.9340  -21.8460 N   0  0  0  0  0  0
   35.2633   -7.5124  -19.1471 O   0  5  0  0  0  0
   33.4574   -7.4763  -14.7020 H   0  0  0  0  0  0
   32.5504   -7.1036  -13.1969 H   0  0  0  0  0  0
   33.8208   -5.9766  -13.7825 H   0  0  0  0  0  0
   31.3573   -6.7902  -15.1127 H   0  0  0  0  0  0
   30.7384   -4.1682  -14.7109 H   0  0  0  0  0  0
   33.1073   -3.4499  -14.1915 H   0  0  0  0  0  0
   29.7659   -5.9909  -13.3834 H   0  0  0  0  0  0
   30.0773   -4.5042  -12.4247 H   0  0  0  0  0  0
   31.1829   -5.9127  -12.2822 H   0  0  0  0  0  0
   30.8901   -4.7802  -16.6120 H   0  0  0  0  0  0
   31.2179   -5.1738  -19.1644 H   0  0  0  0  0  0
   32.0915   -2.8436  -19.7184 H   0  0  0  0  0  0
   30.5988   -2.9713  -18.7274 H   0  0  0  0  0  0
   32.7899   -2.9169  -16.9539 H   0  0  0  0  0  0
   33.0387   -1.6277  -18.1799 H   0  0  0  0  0  0
   30.3504   -1.7249  -17.0396 H   0  0  0  0  0  0
   31.6779   -1.3912  -15.8764 H   0  0  0  0  0  0
   30.8164    0.7154  -16.6793 H   0  0  0  0  0  0
   32.4441    0.4803  -17.4017 H   0  0  0  0  0  0
   28.9534   -0.4717  -18.4167 H   0  0  0  0  0  0
   30.1557   -1.5748  -19.1680 H   0  0  0  0  0  0
   29.4220   -0.2520  -20.1368 H   0  0  0  0  0  0
   29.4278    1.7635  -18.0770 H   0  0  0  0  0  0
   29.8514    1.8586  -19.8200 H   0  0  0  0  0  0
   31.0149    2.4379  -18.5801 H   0  0  0  0  0  0
   32.3952   -0.7757  -19.6751 H   0  0  0  0  0  0
   32.7229    0.9820  -19.5026 H   0  0  0  0  0  0
   31.5594    0.4027  -20.7425 H   0  0  0  0  0  0
   34.7048   -3.1831  -18.8415 H   0  0  0  0  0  0
   34.7376   -5.5083  -20.4385 H   0  0  0  0  0  0
   36.3226   -3.4937  -20.6091 H   0  0  0  0  0  0
   37.0922   -3.9814  -19.0611 H   0  0  0  0  0  0
   38.0672   -5.9290  -20.0933 H   0  0  0  0  0  0
   37.1731   -5.6229  -21.6209 H   0  0  0  0  0  0
   39.7695   -6.0283  -21.9537 H   0  0  0  0  0  0
   40.6566   -4.3655  -22.2327 H   0  0  0  0  0  0
  1  2  1  0  0  0
  1 30  1  0  0  0
  1 31  1  0  0  0
  1 32  1  0  0  0
  2  3  1  0  0  0
  2  5  1  0  0  0
  2 33  1  0  0  0
  3  4  2  0  0  0
  3  8  1  0  0  0
  5  6  1  0  0  0
  5  7  1  0  0  0
  5 34  1  0  0  0
  6 35  1  0  0  0
  7 36  1  0  0  0
  7 37  1  0  0  0
  7 38  1  0  0  0
  8  9  1  0  0  0
  8 39  1  0  0  0
  9 10  1  0  0  0
  9 15  1  0  0  0
  9 40  1  0  0  0
 10 11  1  0  0  0
 10 41  1  0  0  0
 10 42  1  0  0  0
 11 12  1  0  0  0
 11 43  1  0  0  0
 11 44  1  0  0  0
 12 13  1  0  0  0
 12 45  1  0  0  0
 12 46  1  0  0  0
 13 14  1  0  0  0
 13 47  1  0  0  0
 13 48  1  0  0  0
 14 17  1  0  0  0
 14 18  1  0  0  0
 14 19  1  0  0  0
 15 16  2  0  0  0
 15 20  1  0  0  0
 17 49  1  0  0  0
 17 50  1  0  0  0
 17 51  1  0  0  0
 18 52  1  0  0  0
 18 53  1  0  0  0
 18 54  1  0  0  0
 19 55  1  0  0  0
 19 56  1  0  0  0
 19 57  1  0  0  0
 20 21  1  0  0  0
 20 58  1  0  0  0
 21 22  1  0  0  0
 21 24  1  0  0  0
 21 59  1  0  0  0
 22 23  2  0  0  0
 22 29  1  0  0  0
 24 25  1  0  0  0
 24 60  1  0  0  0
 24 61  1  0  0  0
 25 26  1  0  0  0
 25 62  1  0  0  0
 25 63  1  0  0  0
 26 27  2  0  0  0
 26 28  1  0  0  0
 28 64  1  0  0  0
 28 65  1  0  0  0
M  CHG  3   1   1  14   1  29  -1
M  END
> <s_m_source_file>
../4igq_ligand.sdf

> <i_m_source_file_index>
1

> <s_epik_input>
W0NIM11bTitdKFtDSDNdKShbQ0gzXSlbQ0gyXVtDSDJdW0NIMl1bQ0gyXVtDQEhdKFtOSF1DKD1PKVtDQEBIXShbTkgzK10pW0NASF0oW09IXSlbQ0gzXSlDKD1PKVtOSF1bQ0BIXShDKD1PKVtPSF0pW0NIMl1bQ0gyXUMoPU8pW05IMl0=

> <s_epik_cmdline>
J2VwaWtfYXBwJywgJy1pbWFlJywgJ2xpZ2FuZF9wcm8ubWFlJywgJy1vbWFlJywgJ2xpZ2FuZF9wcmVwLm1hZScsICctbXMnLCAnMScsICctcGgnLCAnNycsICctcGh0JywgJzAuNScsICctbnQn

> <r_epik_Ionization_Penalty>
  0.0798

> <r_epik_Ionization_Penalty_Charging>
  0.0798

> <r_epik_Ionization_Penalty_Neutral>
  0.0000

> <r_epik_State_Penalty>
  0.0705

> <r_epik_Charging_Adjusted_Penalty>
0.150362863432738

> <i_epik_Tot_Q>
1

> <i_epik_Tot_abs_Q>
3

$$$$
