4igr_ligand
                    3D
 Schrodinger Suite 2020-3.
 32 31  0  0  1  0            999 V2000
   -6.5720   30.4960  -15.9980 O   0  0  0  0  0  0
   -5.6530   28.2060  -17.6080 C   0  0  0  0  0  0
   -4.2030   28.0060  -15.4090 C   0  0  1  0  0  0
   -2.3900   31.8320  -12.8640 O   0  5  0  0  0  0
   -1.0700   30.3160  -13.9220 O   0  0  0  0  0  0
   -3.3770   26.8790  -14.7850 C   0  0  0  0  0  0
   -6.8890   28.1530  -16.7120 C   0  0  0  0  0  0
   -3.4370   29.7820  -13.6590 C   0  0  2  0  0  0
   -3.5970   29.3980  -15.1390 C   0  0  0  0  0  0
   -4.3660   27.6940  -16.9230 C   0  0  0  0  0  0
   -4.7450   30.3560  -13.1440 N   0  3  0  0  0  0
   -2.1770   30.7200  -13.4660 C   0  0  0  0  0  0
   -2.1250   27.0250  -14.7320 O   0  0  0  0  0  0
   -4.0530   25.8900  -14.3780 O   0  5  0  0  0  0
   -7.4540   27.0720  -16.5260 O   0  0  0  0  0  0
   -7.3450   29.3210  -16.1220 N   0  0  0  0  0  0
   -8.6680   29.5330  -15.5550 C   0  0  0  0  0  0
   -5.5390   30.5171  -16.3753 H   0  0  0  0  0  0
   -5.8193   27.5831  -18.4993 H   0  0  0  0  0  0
   -5.4681   29.2455  -17.9165 H   0  0  0  0  0  0
   -5.1908   28.0426  -14.9264 H   0  0  0  0  0  0
   -3.2715   28.8846  -13.0448 H   0  0  0  0  0  0
   -2.5912   29.4521  -15.5811 H   0  0  0  0  0  0
   -4.2376   30.1705  -15.5895 H   0  0  0  0  0  0
   -4.3171   26.5983  -17.0068 H   0  0  0  0  0  0
   -3.4877   28.1388  -17.4136 H   0  0  0  0  0  0
   -5.5569   29.6355  -13.3220 H   0  0  0  0  0  0
   -4.9662   31.2954  -13.6718 H   0  0  0  0  0  0
   -4.6595   30.5529  -12.0651 H   0  0  0  0  0  0
   -8.7378   30.5573  -15.1600 H   0  0  0  0  0  0
   -8.8374   28.8135  -14.7404 H   0  0  0  0  0  0
   -9.4291   29.3885  -16.3360 H   0  0  0  0  0  0
  1 16  1  0  0  0
  1 18  1  0  0  0
  2  7  1  0  0  0
  2 10  1  0  0  0
  2 19  1  0  0  0
  2 20  1  0  0  0
  3  6  1  0  0  0
  3  9  1  0  0  0
  3 10  1  0  0  0
  3 21  1  0  0  0
  4 12  1  0  0  0
  5 12  2  0  0  0
  6 13  2  0  0  0
  6 14  1  0  0  0
  7 15  2  0  0  0
  7 16  1  0  0  0
  8  9  1  0  0  0
  8 11  1  0  0  0
  8 12  1  0  0  0
  8 22  1  0  0  0
  9 23  1  0  0  0
  9 24  1  0  0  0
 10 25  1  0  0  0
 10 26  1  0  0  0
 11 27  1  0  0  0
 11 28  1  0  0  0
 11 29  1  0  0  0
 16 17  1  0  0  0
 17 30  1  0  0  0
 17 31  1  0  0  0
 17 32  1  0  0  0
M  CHG  3   4  -1  11   1  14  -1
M  END
> <s_m_source_file>
../4igr_ligand.sdf

> <i_m_source_file_index>
1

> <s_epik_input>
W09IXU4oW0NIM10pQyg9TylbQ0gyXVtDSDJdW0NAQEhdKEMoPU8pW09IXSlbQ0gyXVtDQEhdKFtOSDMrXSlDKD1PKVtPSF0=

> <s_epik_cmdline>
J2VwaWtfYXBwJywgJy1pbWFlJywgJ2xpZ2FuZF9wcm8ubWFlJywgJy1vbWFlJywgJ2xpZ2FuZF9wcmVwLm1hZScsICctbXMnLCAnMScsICctcGgnLCAnNycsICctcGh0JywgJzAuNScsICctbnQn

> <r_lp_tautomer_probability>
1

> <r_epik_Ionization_Penalty>
  0.0051

> <r_epik_Ionization_Penalty_Charging>
  0.0016

> <r_epik_Ionization_Penalty_Neutral>
  0.0036

> <r_epik_State_Penalty>
 -0.0000

> <r_epik_Charging_Adjusted_Penalty>
0.001586695882332

> <i_epik_Tot_Q>
-1

> <i_epik_Tot_abs_Q>
3

> <s_epik_Chemistry_Notes>
This compound has a N-S or N-O group and may undergo hydrolysis at high or low pH.

$$$$
