4igt_ligand
                    3D
 Schrodinger Suite 2020-3.
 32 31  0  0  1  0            999 V2000
   19.4510   12.1410   23.4220 O   0  0  0  0  0  0
   19.2510   14.7980   22.3760 C   0  0  0  0  0  0
   21.7950   14.6570   22.9630 C   0  0  1  0  0  0
   23.0790   12.6440   27.2090 O   0  5  0  0  0  0
   23.5090   14.7970   26.8430 O   0  0  0  0  0  0
   23.0980   15.3050   22.4470 C   0  0  0  0  0  0
   19.2310   13.5570   21.4800 C   0  0  0  0  0  0
   22.8430   13.4700   24.9730 C   0  0  2  0  0  0
   21.7580   14.4420   24.4960 C   0  0  0  0  0  0
   20.6060   15.5020   22.4410 C   0  0  0  0  0  0
   22.4560   12.0460   24.7350 N   0  3  0  0  0  0
   23.1690   13.6650   26.4650 C   0  0  0  0  0  0
   23.4150   15.0410   21.2530 O   0  5  0  0  0  0
   23.7750   16.0290   23.2140 O   0  0  0  0  0  0
   19.3910   13.5510   20.2480 O   0  0  0  0  0  0
   19.0090   12.3500   22.0940 N   0  0  0  0  0  0
   19.1660   11.1180   21.3330 C   0  0  0  0  0  0
   19.4093   12.9634   24.1514 H   0  0  0  0  0  0
   18.5233   15.5327   22.0010 H   0  0  0  0  0  0
   18.9863   14.5119   23.4046 H   0  0  0  0  0  0
   21.7333   13.6329   22.5663 H   0  0  0  0  0  0
   23.7382   13.6707   24.3661 H   0  0  0  0  0  0
   21.9149   15.4044   25.0051 H   0  0  0  0  0  0
   20.7800   14.0295   24.7849 H   0  0  0  0  0  0
   20.8933   15.8380   21.4337 H   0  0  0  0  0  0
   20.5358   16.3713   23.1114 H   0  0  0  0  0  0
   22.2223   11.9027   23.6697 H   0  0  0  0  0  0
   21.5713   11.8003   25.3408 H   0  0  0  0  0  0
   23.2896   11.3871   25.0194 H   0  0  0  0  0  0
   18.9494   10.2563   21.9815 H   0  0  0  0  0  0
   20.1985   11.0462   20.9605 H   0  0  0  0  0  0
   18.4686   11.1211   20.4823 H   0  0  0  0  0  0
  1 16  1  0  0  0
  1 18  1  0  0  0
  2  7  1  0  0  0
  2 10  1  0  0  0
  2 19  1  0  0  0
  2 20  1  0  0  0
  3  6  1  0  0  0
  3  9  1  0  0  0
  3 10  1  0  0  0
  3 21  1  0  0  0
  4 12  1  0  0  0
  5 12  2  0  0  0
  6 13  1  0  0  0
  6 14  2  0  0  0
  7 15  2  0  0  0
  7 16  1  0  0  0
  8  9  1  0  0  0
  8 11  1  0  0  0
  8 12  1  0  0  0
  8 22  1  0  0  0
  9 23  1  0  0  0
  9 24  1  0  0  0
 10 25  1  0  0  0
 10 26  1  0  0  0
 11 27  1  0  0  0
 11 28  1  0  0  0
 11 29  1  0  0  0
 16 17  1  0  0  0
 17 30  1  0  0  0
 17 31  1  0  0  0
 17 32  1  0  0  0
M  CHG  3   4  -1  11   1  13  -1
M  END
> <s_m_source_file>
../4igt_ligand.sdf

> <i_m_source_file_index>
1

> <s_epik_input>
W09IXU4oW0NIM10pQyg9TylbQ0gyXVtDSDJdW0NAQEhdKEMoPU8pW09IXSlbQ0gyXVtDQEhdKFtOSDMrXSlDKD1PKVtPSF0=

> <s_epik_cmdline>
J2VwaWtfYXBwJywgJy1pbWFlJywgJ2xpZ2FuZF9wcm8ubWFlJywgJy1vbWFlJywgJ2xpZ2FuZF9wcmVwLm1hZScsICctbXMnLCAnMScsICctcGgnLCAnNycsICctcGh0JywgJzAuNScsICctbnQn

> <r_lp_tautomer_probability>
1

> <r_epik_Ionization_Penalty>
  0.0051

> <r_epik_Ionization_Penalty_Charging>
  0.0016

> <r_epik_Ionization_Penalty_Neutral>
  0.0036

> <r_epik_State_Penalty>
 -0.0000

> <r_epik_Charging_Adjusted_Penalty>
0.001586695882332

> <i_epik_Tot_Q>
-1

> <i_epik_Tot_abs_Q>
3

> <s_epik_Chemistry_Notes>
This compound has a N-S or N-O group and may undergo hydrolysis at high or low pH.

$$$$
