4ih6_ligand
                    3D
 Schrodinger Suite 2020-3.
 45 46  0  0  1  0            999 V2000
  -18.6950  -11.4410  -60.8030 N   0  0  0  0  0  0
  -20.0270  -11.1130  -60.5910 C   0  0  0  0  0  0
  -20.4440  -10.1050  -60.0480 O   0  0  0  0  0  0
  -20.7710  -12.1160  -61.0990 N   0  0  0  0  0  0
  -19.9800  -13.1890  -61.6790 C   0  0  2  0  0  0
  -18.5650  -12.6520  -61.4560 C   0  0  0  0  0  0
  -17.5070  -13.1700  -61.7620 O   0  0  0  0  0  0
  -20.3460  -13.4350  -63.1570 C   0  0  0  0  0  0
  -19.9160  -14.8160  -63.6250 C   0  0  0  0  0  0
  -19.8270  -12.3370  -64.0930 C   0  0  0  0  0  0
  -17.5550  -10.6030  -60.3970 C   0  0  0  0  0  0
  -17.4260   -9.3370  -61.2120 C   0  0  0  0  0  0
  -17.0170   -8.1490  -60.6220 C   0  0  0  0  0  0
  -16.9140   -6.9840  -61.3640 C   0  0  0  0  0  0
  -17.2230   -6.9670  -62.7230 C   0  0  0  0  0  0
  -17.6190   -8.1650  -63.3110 C   0  0  0  0  0  0
  -17.7200   -9.3290  -62.5690 C   0  0  0  0  0  0
  -17.1550   -5.6630  -63.5370 C   0  0  0  0  0  0
  -15.7180   -5.1240  -63.5570 C   0  0  0  0  0  0
  -17.5720   -5.8650  -65.0060 C   0  0  0  0  0  0
  -18.0930   -4.5970  -62.9360 C   0  0  0  0  0  0
  -21.8693  -12.1769  -61.1056 H   0  0  0  0  0  0
  -20.1639  -14.1610  -61.1980 H   0  0  0  0  0  0
  -21.4438  -13.4041  -63.2188 H   0  0  0  0  0  0
  -20.3053  -15.5759  -62.9314 H   0  0  0  0  0  0
  -18.8176  -14.8696  -63.6487 H   0  0  0  0  0  0
  -20.3140  -15.0018  -64.6335 H   0  0  0  0  0  0
  -20.1567  -11.3546  -63.7240 H   0  0  0  0  0  0
  -20.2242  -12.5005  -65.1057 H   0  0  0  0  0  0
  -18.7278  -12.3683  -64.1208 H   0  0  0  0  0  0
  -17.6728  -10.3091  -59.3436 H   0  0  0  0  0  0
  -16.6210  -11.1715  -60.5168 H   0  0  0  0  0  0
  -16.7734   -8.1327  -59.5597 H   0  0  0  0  0  0
  -16.5860   -6.0656  -60.8772 H   0  0  0  0  0  0
  -17.8538   -8.1868  -64.3752 H   0  0  0  0  0  0
  -18.0346  -10.2518  -63.0565 H   0  0  0  0  0  0
  -15.0475   -5.8834  -63.9856 H   0  0  0  0  0  0
  -15.3995   -4.8910  -62.5302 H   0  0  0  0  0  0
  -15.6773   -4.2112  -64.1696 H   0  0  0  0  0  0
  -16.9228   -6.6217  -65.4707 H   0  0  0  0  0  0
  -17.4733   -4.9136  -65.5493 H   0  0  0  0  0  0
  -18.6177   -6.2039  -65.0470 H   0  0  0  0  0  0
  -17.8252   -4.4246  -61.8831 H   0  0  0  0  0  0
  -19.1337   -4.9481  -62.9969 H   0  0  0  0  0  0
  -17.9892   -3.6578  -63.4992 H   0  0  0  0  0  0
  1  2  1  0  0  0
  1  6  1  0  0  0
  1 11  1  0  0  0
  2  3  2  0  0  0
  2  4  1  0  0  0
  4  5  1  0  0  0
  4 22  1  0  0  0
  5  6  1  0  0  0
  5  8  1  0  0  0
  5 23  1  0  0  0
  6  7  2  0  0  0
  8  9  1  0  0  0
  8 10  1  0  0  0
  8 24  1  0  0  0
  9 25  1  0  0  0
  9 26  1  0  0  0
  9 27  1  0  0  0
 10 28  1  0  0  0
 10 29  1  0  0  0
 10 30  1  0  0  0
 11 12  1  0  0  0
 11 31  1  0  0  0
 11 32  1  0  0  0
 12 13  2  0  0  0
 12 17  1  0  0  0
 13 14  1  0  0  0
 13 33  1  0  0  0
 14 15  2  0  0  0
 14 34  1  0  0  0
 15 16  1  0  0  0
 15 18  1  0  0  0
 16 17  2  0  0  0
 16 35  1  0  0  0
 17 36  1  0  0  0
 18 19  1  0  0  0
 18 20  1  0  0  0
 18 21  1  0  0  0
 19 37  1  0  0  0
 19 38  1  0  0  0
 19 39  1  0  0  0
 20 40  1  0  0  0
 20 41  1  0  0  0
 20 42  1  0  0  0
 21 43  1  0  0  0
 21 44  1  0  0  0
 21 45  1  0  0  0
M  END
> <s_m_source_file>
../4ih6_ligand.sdf

> <i_m_source_file_index>
1

> <s_epik_input>
Tz1DMVtDQEhdKFtDSF0oW0NIM10pW0NIM10pW05IXUMoPU8pTjFbQ0gyXWMyW2NIXVtjSF1jKFtjSF1bY0hdMilDKFtDSDNdKShbQ0gzXSlbQ0gzXQ==

> <s_epik_cmdline>
J2VwaWtfYXBwJywgJy1pbWFlJywgJ2xpZ2FuZF9wcm8ubWFlJywgJy1vbWFlJywgJ2xpZ2FuZF9wcmVwLm1hZScsICctbXMnLCAnMScsICctcGgnLCAnNycsICctcGh0JywgJzAuNScsICctbnQn

> <r_lp_tautomer_probability>
1

> <r_epik_Ionization_Penalty>
  0.0000

> <r_epik_Ionization_Penalty_Charging>
  0.0000

> <r_epik_Ionization_Penalty_Neutral>
  0.0000

> <r_epik_State_Penalty>
 -0.0000

> <r_epik_Charging_Adjusted_Penalty>
0

> <i_epik_Tot_Q>
0

> <i_epik_Tot_abs_Q>
0

$$$$
