4iho_ligand
                    3D
 Schrodinger Suite 2020-3.
149151  0  0  1  0            999 V2000
  -14.0100  -54.9820  -14.6780 N   0  3  0  0  0  0
  -14.4780  -53.6520  -15.1270 C   0  0  2  0  0  0
  -15.8990  -53.3750  -14.6340 C   0  0  0  0  0  0
  -16.5700  -54.2730  -14.1450 O   0  0  0  0  0  0
  -14.3280  -53.5450  -16.6450 C   0  0  0  0  0  0
  -12.8640  -53.4250  -17.0640 C   0  0  0  0  0  0
  -12.6580  -53.2170  -18.5630 C   0  0  0  0  0  0
  -13.6500  -53.0830  -19.3040 O   0  0  0  0  0  0
  -11.4860  -53.1670  -19.0170 O   0  5  0  0  0  0
  -16.3500  -52.1250  -14.7110 N   0  0  0  0  0  0
  -17.6580  -51.7590  -14.1320 C   0  0  0  0  0  0
  -18.7780  -52.0740  -15.0990 C   0  0  0  0  0  0
  -18.5150  -52.2670  -16.2880 O   0  0  0  0  0  0
  -20.0310  -52.1040  -14.6100 N   0  0  0  0  0  0
  -21.1860  -52.2480  -15.4880 C   0  0  2  0  0  0
  -21.5070  -50.9210  -16.1410 C   0  0  0  0  0  0
  -21.3680  -49.8550  -15.5230 O   0  0  0  0  0  0
  -22.3110  -52.5670  -14.5180 C   0  0  0  0  0  0
  -21.9380  -51.8270  -13.2750 C   0  0  0  0  0  0
  -20.4290  -51.8120  -13.2200 C   0  0  0  0  0  0
  -21.9540  -50.9550  -17.3790 N   0  0  0  0  0  0
  -22.3850  -49.7190  -17.9730 C   0  0  2  0  0  0
  -23.8880  -49.7800  -17.9540 C   0  0  0  0  0  0
  -24.4680  -50.7860  -18.3720 O   0  0  0  0  0  0
  -21.8380  -49.5990  -19.3850 C   0  0  0  0  0  0
  -21.2780  -48.2300  -19.7030 C   0  0  0  0  0  0
  -20.7740  -48.1770  -21.1400 C   0  0  0  0  0  0
  -19.4320  -48.7400  -21.3360 N   0  0  0  0  0  0
  -19.1720  -49.9750  -21.7670 C   0  0  0  0  0  0
  -20.1640  -50.8120  -22.0560 N   0  3  0  0  0  0
  -17.9100  -50.3800  -21.9040 N   0  0  0  0  0  0
  -24.5220  -48.7280  -17.4430 N   0  0  0  0  0  0
  -25.9850  -48.6930  -17.3870 C   0  0  2  0  0  0
  -26.6160  -48.4010  -18.7410 C   0  0  0  0  0  0
  -25.9400  -47.9020  -19.6420 O   0  0  0  0  0  0
  -26.4780  -47.7020  -16.3280 C   0  0  0  0  0  0
  -26.3750  -48.2570  -14.9190 C   0  0  0  0  0  0
  -26.2200  -49.4710  -14.7220 O   0  0  0  0  0  0
  -26.4790  -47.3790  -13.9300 N   0  0  0  0  0  0
  -27.9050  -48.7310  -18.8700 N   0  0  0  0  0  0
  -28.6610  -48.5610  -20.1210 C   0  0  2  0  0  0
  -29.7320  -47.4340  -20.0150 C   0  0  0  0  0  0
  -29.3740  -46.2830  -19.8270 O   0  0  0  0  0  0
  -29.2450  -49.9080  -20.5800 C   0  0  0  0  0  0
  -29.8230  -49.9020  -21.9880 C   0  0  0  0  0  0
  -31.0650  -50.7610  -22.1120 C   0  0  0  0  0  0
  -30.9740  -51.9440  -22.4150 O   0  0  0  0  0  0
  -32.2320  -50.1680  -21.8810 N   0  0  0  0  0  0
  -31.0180  -47.7660  -20.1290 N   0  0  0  0  0  0
  -32.0780  -46.7650  -20.0730 C   0  0  2  0  0  0
  -32.2240  -46.2250  -18.6550 C   0  0  0  0  0  0
  -32.2080  -46.9980  -17.6950 O   0  0  0  0  0  0
  -33.4260  -47.3380  -20.5610 C   0  0  0  0  0  0
  -34.4560  -46.2390  -20.9010 C   0  0  0  0  0  0
  -34.0460  -45.0730  -21.0900 O   0  0  0  0  0  0
  -35.6730  -46.5320  -20.9950 O   0  5  0  0  0  0
  -32.5480  -44.9670  -18.5150 N   0  0  0  0  0  0
  -32.5710  -44.3010  -17.2480 C   0  0  2  0  0  0
  -33.6910  -44.8440  -16.3790 C   0  0  0  0  0  0
  -34.5040  -45.5870  -16.8400 O   0  0  0  0  0  0
  -32.7480  -42.7880  -17.4880 C   0  0  0  0  0  0
  -31.5850  -42.0920  -18.1460 C   0  0  0  0  0  0
  -30.3920  -41.8860  -17.6090 C   0  0  0  0  0  0
  -31.5310  -41.5080  -19.4510 C   0  0  0  0  0  0
  -29.5880  -41.2370  -18.4630 N   0  3  0  0  0  0
  -30.2660  -41.0000  -19.6150 C   0  0  0  0  0  0
  -32.4410  -41.3700  -20.5010 C   0  0  0  0  0  0
  -29.8760  -40.3600  -20.7640 C   0  0  0  0  0  0
  -32.0430  -40.7650  -21.6370 C   0  0  0  0  0  0
  -30.7820  -40.2600  -21.7620 C   0  0  0  0  0  0
  -33.6670  -44.5630  -15.0870 N   0  0  0  0  0  0
  -34.8820  -44.7050  -14.2780 C   0  0  2  0  0  0
  -36.0100  -43.8050  -14.8080 C   0  0  0  0  0  0
  -35.8050  -42.6360  -15.2590 O   0  5  0  0  0  0
  -34.6070  -44.3190  -12.8270 C   0  0  0  0  0  0
  -33.4660  -44.9660  -12.0440 C   0  0  0  0  0  0
  -33.4270  -44.2760  -10.6950 C   0  0  0  0  0  0
  -33.6400  -46.4750  -11.8570 C   0  0  0  0  0  0
  -37.1710  -44.2440  -14.7700 O   0  0  0  0  0  0
  -14.1178  -55.0592  -13.5860 H   0  0  0  0  0  0
  -12.9524  -55.1103  -14.9520 H   0  0  0  0  0  0
  -14.6119  -55.7652  -15.1622 H   0  0  0  0  0  0
  -13.8323  -52.8913  -14.6639 H   0  0  0  0  0  0
  -14.7502  -54.4432  -17.1194 H   0  0  0  0  0  0
  -14.8639  -52.6542  -17.0045 H   0  0  0  0  0  0
  -12.4055  -52.5658  -16.5525 H   0  0  0  0  0  0
  -12.3272  -54.3448  -16.7886 H   0  0  0  0  0  0
  -15.7374  -51.3613  -15.2124 H   0  0  0  0  0  0
  -17.8198  -52.3265  -13.2037 H   0  0  0  0  0  0
  -17.6723  -50.6817  -13.9103 H   0  0  0  0  0  0
  -20.9960  -53.0000  -16.2680 H   0  0  0  0  0  0
  -23.2663  -52.2180  -14.9370 H   0  0  0  0  0  0
  -22.3574  -53.6539  -14.3549 H   0  0  0  0  0  0
  -22.3394  -50.8040  -13.3229 H   0  0  0  0  0  0
  -22.3577  -52.3449  -12.4000 H   0  0  0  0  0  0
  -20.0266  -52.5883  -12.5526 H   0  0  0  0  0  0
  -20.0306  -50.8307  -12.9230 H   0  0  0  0  0  0
  -22.0038  -51.8897  -17.9568 H   0  0  0  0  0  0
  -22.0042  -48.8652  -17.3934 H   0  0  0  0  0  0
  -21.0258  -50.3272  -19.5267 H   0  0  0  0  0  0
  -22.6419  -49.8011  -20.1081 H   0  0  0  0  0  0
  -22.0652  -47.4727  -19.5734 H   0  0  0  0  0  0
  -20.4414  -48.0092  -19.0237 H   0  0  0  0  0  0
  -21.4568  -48.7447  -21.7892 H   0  0  0  0  0  0
  -20.7339  -47.1304  -21.4762 H   0  0  0  0  0  0
  -18.5426  -48.1290  -21.1224 H   0  0  0  0  0  0
  -21.2087  -50.4857  -21.9457 H   0  0  0  0  0  0
  -17.0834  -49.6940  -21.6671 H   0  0  0  0  0  0
  -17.6947  -51.4004  -22.2540 H   0  0  0  0  0  0
  -23.9365  -47.8791  -17.0603 H   0  0  0  0  0  0
  -26.2633  -49.7175  -17.0989 H   0  0  0  0  0  0
  -25.8736  -46.7842  -16.3752 H   0  0  0  0  0  0
  -27.5331  -47.4564  -16.5186 H   0  0  0  0  0  0
  -26.6157  -46.3109  -14.1548 H   0  0  0  0  0  0
  -26.4285  -47.7190  -12.8851 H   0  0  0  0  0  0
  -28.4000  -49.1481  -17.9806 H   0  0  0  0  0  0
  -27.9170  -48.2382  -20.8642 H   0  0  0  0  0  0
  -28.4563  -50.6746  -20.5627 H   0  0  0  0  0  0
  -30.0594  -50.2045  -19.9026 H   0  0  0  0  0  0
  -30.0945  -48.8736  -22.2685 H   0  0  0  0  0  0
  -29.0732  -50.2888  -22.6938 H   0  0  0  0  0  0
  -32.2634  -49.1020  -21.6115 H   0  0  0  0  0  0
  -33.1663  -50.7433  -21.9593 H   0  0  0  0  0  0
  -31.2707  -48.8274  -20.2686 H   0  0  0  0  0  0
  -31.7422  -45.9650  -20.7492 H   0  0  0  0  0  0
  -33.2625  -47.9374  -21.4688 H   0  0  0  0  0  0
  -33.8602  -47.9736  -19.7752 H   0  0  0  0  0  0
  -32.8113  -44.4168  -19.4304 H   0  0  0  0  0  0
  -31.6091  -44.5305  -16.7663 H   0  0  0  0  0  0
  -33.6179  -42.6195  -18.1399 H   0  0  0  0  0  0
  -32.9074  -42.2802  -16.5253 H   0  0  0  0  0  0
  -30.1801  -42.2376  -16.5885 H   0  0  0  0  0  0
  -33.4592  -41.7465  -20.4029 H   0  0  0  0  0  0
  -28.8725  -39.9474  -20.8683 H   0  0  0  0  0  0
  -32.7403  -40.6776  -22.4702 H   0  0  0  0  0  0
  -30.4980  -39.7635  -22.6898 H   0  0  0  0  0  0
  -32.7316  -44.2218  -14.6194 H   0  0  0  0  0  0
  -35.1515  -45.7682  -14.3614 H   0  0  0  0  0  0
  -34.3791  -43.2444  -12.7704 H   0  0  0  0  0  0
  -35.4941  -44.5384  -12.2147 H   0  0  0  0  0  0
  -32.5250  -44.8392  -12.5993 H   0  0  0  0  0  0
  -33.3018  -43.1929  -10.8407 H   0  0  0  0  0  0
  -32.5832  -44.6669  -10.1075 H   0  0  0  0  0  0
  -34.3677  -44.4674  -10.1579 H   0  0  0  0  0  0
  -33.6670  -46.9657  -12.8411 H   0  0  0  0  0  0
  -34.5812  -46.6721  -11.3230 H   0  0  0  0  0  0
  -32.7968  -46.8717  -11.2725 H   0  0  0  0  0  0
  -28.5582  -40.9878  -18.1674 H   0  0  0  0  0  0
  -19.9399  -51.8307  -22.4054 H   0  0  0  0  0  0
  1  2  1  0  0  0
  1 80  1  0  0  0
  1 81  1  0  0  0
  1 82  1  0  0  0
  2  3  1  0  0  0
  2  5  1  0  0  0
  2 83  1  0  0  0
  3  4  2  0  0  0
  3 10  1  0  0  0
  5  6  1  0  0  0
  5 84  1  0  0  0
  5 85  1  0  0  0
  6  7  1  0  0  0
  6 86  1  0  0  0
  6 87  1  0  0  0
  7  8  2  0  0  0
  7  9  1  0  0  0
 10 11  1  0  0  0
 10 88  1  0  0  0
 11 12  1  0  0  0
 11 89  1  0  0  0
 11 90  1  0  0  0
 12 13  2  0  0  0
 12 14  1  0  0  0
 14 15  1  0  0  0
 14 20  1  0  0  0
 15 16  1  0  0  0
 15 18  1  0  0  0
 15 91  1  0  0  0
 16 17  2  0  0  0
 16 21  1  0  0  0
 18 19  1  0  0  0
 18 92  1  0  0  0
 18 93  1  0  0  0
 19 20  1  0  0  0
 19 94  1  0  0  0
 19 95  1  0  0  0
 20 96  1  0  0  0
 20 97  1  0  0  0
 21 22  1  0  0  0
 21 98  1  0  0  0
 22 23  1  0  0  0
 22 25  1  0  0  0
 22 99  1  0  0  0
 23 24  2  0  0  0
 23 32  1  0  0  0
 25 26  1  0  0  0
 25100  1  0  0  0
 25101  1  0  0  0
 26 27  1  0  0  0
 26102  1  0  0  0
 26103  1  0  0  0
 27 28  1  0  0  0
 27104  1  0  0  0
 27105  1  0  0  0
 28 29  1  0  0  0
 28106  1  0  0  0
 29 30  2  0  0  0
 29 31  1  0  0  0
 30107  1  0  0  0
 30149  1  0  0  0
 31108  1  0  0  0
 31109  1  0  0  0
 32 33  1  0  0  0
 32110  1  0  0  0
 33 34  1  0  0  0
 33 36  1  0  0  0
 33111  1  0  0  0
 34 35  2  0  0  0
 34 40  1  0  0  0
 36 37  1  0  0  0
 36112  1  0  0  0
 36113  1  0  0  0
 37 38  2  0  0  0
 37 39  1  0  0  0
 39114  1  0  0  0
 39115  1  0  0  0
 40 41  1  0  0  0
 40116  1  0  0  0
 41 42  1  0  0  0
 41 44  1  0  0  0
 41117  1  0  0  0
 42 43  2  0  0  0
 42 49  1  0  0  0
 44 45  1  0  0  0
 44118  1  0  0  0
 44119  1  0  0  0
 45 46  1  0  0  0
 45120  1  0  0  0
 45121  1  0  0  0
 46 47  2  0  0  0
 46 48  1  0  0  0
 48122  1  0  0  0
 48123  1  0  0  0
 49 50  1  0  0  0
 49124  1  0  0  0
 50 51  1  0  0  0
 50 53  1  0  0  0
 50125  1  0  0  0
 51 52  2  0  0  0
 51 57  1  0  0  0
 53 54  1  0  0  0
 53126  1  0  0  0
 53127  1  0  0  0
 54 55  2  0  0  0
 54 56  1  0  0  0
 57 58  1  0  0  0
 57128  1  0  0  0
 58 59  1  0  0  0
 58 61  1  0  0  0
 58129  1  0  0  0
 59 60  2  0  0  0
 59 71  1  0  0  0
 61 62  1  0  0  0
 61130  1  0  0  0
 61131  1  0  0  0
 62 63  2  0  0  0
 62 64  1  0  0  0
 63 65  1  0  0  0
 63132  1  0  0  0
 64 66  2  0  0  0
 64 67  1  0  0  0
 65 66  1  0  0  0
 65148  1  0  0  0
 66 68  1  0  0  0
 67 69  2  0  0  0
 67133  1  0  0  0
 68 70  2  0  0  0
 68134  1  0  0  0
 69 70  1  0  0  0
 69135  1  0  0  0
 70136  1  0  0  0
 71 72  1  0  0  0
 71137  1  0  0  0
 72 73  1  0  0  0
 72 75  1  0  0  0
 72138  1  0  0  0
 73 74  1  0  0  0
 73 79  2  0  0  0
 75 76  1  0  0  0
 75139  1  0  0  0
 75140  1  0  0  0
 76 77  1  0  0  0
 76 78  1  0  0  0
 76141  1  0  0  0
 77142  1  0  0  0
 77143  1  0  0  0
 77144  1  0  0  0
 78145  1  0  0  0
 78146  1  0  0  0
 78147  1  0  0  0
M  CHG  6   1   1   9  -1  30   1  56  -1  65   1  74  -1
M  END
> <s_m_source_file>
../4iho_ligand.sdf

> <i_m_source_file_index>
1

> <s_epik_input>
Tz1DKFtPSF0pW0NIMl1bQ0gyXVtDQEhdKFtOSDMrXSlDKD1PKVtOSF1bQ0gyXUMoPU8pTjFbQ0BASF0oW0NIMl1bQ0gyXVtDSDJdMSlDKD1PKVtOSF1bQ0BASF0oW0NIMl1bQ0gyXVtDSDJdW05IXS9DKD1OXFtIXSlbTkgyXSlDKD1PKVtOSF1bQ0BASF0oW0NIMl1DKD1PKVtOSDJdKUMoPU8pW05IXVtDQEBIXShbQ0gyXVtDSDJdQyg9TylbTkgyXSlDKD1PKVtOSF1bQ0BASF0oW0NIMl1DKD1PKVtPSF0pQyg9TylbTkhdW0NASF0oQyg9TylbTkhdW0NASF0oQyg9TylbT0hdKVtDSDJdW0NIXShbQ0gzXSlbQ0gzXSlbQ0gyXWMyW2NIXVtuSF1jKGMyMylbY0hdW2NIXVtjSF1bY0hdMw==

> <s_epik_cmdline>
J2VwaWtfYXBwJywgJy1pbWFlJywgJ2xpZ2FuZF9wcm8ubWFlJywgJy1vbWFlJywgJ2xpZ2FuZF9wcmVwLm1hZScsICctbXMnLCAnMScsICctcGgnLCAnNycsICctcGh0JywgJzAuNScsICctbnQn

> <r_epik_Ionization_Penalty>
  0.0784

> <r_epik_Ionization_Penalty_Charging>
  0.0784

> <r_epik_Ionization_Penalty_Neutral>
  0.0000

> <r_epik_State_Penalty>
  0.0670

> <r_epik_Charging_Adjusted_Penalty>
0.145377135728048

> <i_epik_Tot_Q>
0

> <i_epik_Tot_abs_Q>
6

> <s_epik_Chemistry_Notes>
This compound has an imine and may undergo hydrolysis.

$$$$
