4ii9_ligand
                    3D
 Schrodinger Suite 2020-3.
240250  0  0  1  0            999 V2000
   14.0640    2.1350   20.5800 N   0  0  0  0  0  0
   13.3560    1.7950   21.8400 C   0  0  2  0  0  0
   13.0750    2.9800   22.7630 C   0  0  0  0  0  0
   12.0760    3.0010   23.5410 O   0  0  0  0  0  0
   14.2430    0.7650   22.5580 C   0  0  0  0  0  0
   13.9180    4.0340   22.6740 N   0  0  0  0  0  0
   13.7120    5.2240   23.4720 C   0  0  1  0  0  0
   14.7430    5.3210   24.6260 C   0  0  0  0  0  0
   15.9130    4.8180   24.4880 O   0  0  0  0  0  0
   13.8640    6.4880   22.6020 C   0  0  0  0  0  0
   12.8590    6.6040   21.4060 C   0  0  0  0  0  0
   11.4740    6.9710   21.8900 C   0  0  0  0  0  0
   11.1160    6.9460   23.0640 O   0  0  0  0  0  0
   14.3980    5.9470   25.6690 O   0  0  0  0  0  0
   10.5750    6.9650   20.8020 N   0  0  0  0  0  0
    9.1890    7.4930   21.0670 C   0  0  2  0  0  0
    8.3250    6.8570   19.9730 C   0  0  0  0  0  0
    7.5170    7.5550   19.3280 O   0  0  0  0  0  0
    9.2800    9.0970   20.9720 C   0  0  0  0  0  0
    8.3370    9.6600   22.4070 S   0  0  0  0  0  0
    8.4800    5.5490   19.7050 N   0  0  0  0  0  0
    7.7540    5.0050   18.5430 C   0  0  2  0  0  0
    7.9580    3.4870   18.4600 C   0  0  0  0  0  0
    8.0980    5.5840   17.2030 C   0  0  0  0  0  0
    9.3010    5.7800   16.8980 O   0  0  0  0  0  0
    7.0570    5.8860   16.3880 N   0  0  0  0  0  0
    7.3150    6.5980   15.1280 C   0  0  2  0  0  0
    5.9890    6.8270   14.4130 C   0  0  0  0  0  0
    8.2460    5.7700   14.2040 C   0  0  0  0  0  0
    9.1290    6.2830   13.4410 O   0  0  0  0  0  0
    8.1520    4.5240   14.1370 O   0  0  0  0  0  0
   17.3820   19.1440   34.1400 P   0  0  0  0  0  0
   16.6110   19.6400   35.3220 O   0  0  0  0  0  0
   17.8150   17.7300   34.0840 O   0  0  0  0  0  0
   16.4430   19.2870   32.8620 O   0  0  0  0  0  0
   15.0810   18.8410   32.9390 C   0  0  0  0  0  0
   14.2270   19.6150   31.9690 C   0  0  1  0  0  0
   14.2440   21.0370   32.2710 O   0  0  0  0  0  0
   14.6730   19.5870   30.5220 C   0  0  1  0  0  0
   14.2770   18.3550   29.9410 O   0  0  0  0  0  0
   13.8910   20.7640   29.9410 C   0  0  1  0  0  0
   12.5490   20.4230   29.6750 O   0  0  0  0  0  0
   14.0060   21.7840   31.0730 C   0  0  2  0  0  0
   15.1700   22.6560   30.8740 N   0  0  0  0  0  0
   15.0710   23.7860   30.0450 C   0  0  0  0  0  0
   13.9870   24.0400   29.4780 O   0  0  0  0  0  0
   16.1520   24.5870   29.9020 N   0  0  0  0  0  0
   17.3040   24.2670   30.5010 C   0  0  0  0  0  0
   18.3430   25.0880   30.3330 N   0  0  0  0  0  0
   17.4230   23.1310   31.3540 C   0  0  0  0  0  0
   16.3430   22.3690   31.5180 C   0  0  0  0  0  0
   15.0910   17.8960   28.6370 P   0  0  2  0  0  0
   14.4770   16.6280   28.1340 O   0  0  0  0  0  0
   16.5770   17.9710   28.8950 O   0  0  0  0  0  0
   14.6620   19.0290   27.6260 O   0  0  0  0  0  0
   13.5050   18.8960   26.7840 C   0  0  0  0  0  0
   13.4930   19.9800   25.7560 C   0  0  1  0  0  0
   13.8270   21.2450   26.3930 O   0  0  0  0  0  0
   14.5080   19.8360   24.6380 C   0  0  1  0  0  0
   13.9250   19.0030   23.6130 O   0  0  0  0  0  0
   14.6470   21.2870   24.1590 C   0  0  1  0  0  0
   13.5960   21.4830   23.2120 O   0  0  0  0  0  0
   14.4960   22.0830   25.4760 C   0  0  2  0  0  0
   15.7690   22.4930   26.1060 N   0  0  0  0  0  0
   16.4670   23.5800   25.5680 C   0  0  0  0  0  0
   15.9620   24.2090   24.6210 O   0  0  0  0  0  0
   17.6540   23.9410   26.1200 N   0  0  0  0  0  0
   18.1680   23.2190   27.1230 C   0  0  0  0  0  0
   19.3370   23.6070   27.6420 N   0  0  0  0  0  0
   17.5000   22.0730   27.6500 C   0  0  0  0  0  0
   16.3260   21.7390   27.1040 C   0  0  0  0  0  0
   15.5690   19.0220   21.6720 O   0  0  0  0  0  0
   15.2000   18.0970   22.8840 P   0  0  1  0  0  0
   16.4410   17.7450   23.6490 O   0  0  0  0  0  0
   14.1710   16.8620   22.1820 O   0  0  0  0  0  0
   14.4740   16.4430   20.8750 C   0  0  0  0  0  0
   13.8080   15.0900   20.8060 C   0  0  2  0  0  0
   12.2800   15.0940   20.6550 C   0  0  1  0  0  0
   12.0450   14.2960   19.5060 O   0  0  0  0  0  0
   11.7270   14.4600   21.9590 C   0  0  1  0  0  0
   10.5290   13.8000   21.7900 N   0  0  0  0  0  0
   10.1120   12.5750   21.3870 C   0  0  0  0  0  0
    8.6680   12.5780   21.3470 C   0  0  0  0  0  0
    7.6890   11.4220   21.0140 C   0  0  0  0  0  0
    7.2640   11.0940   22.4140 C   0  0  0  0  0  0
    8.3160   13.8460   21.7220 N   0  0  0  0  0  0
    9.4070   14.6310   22.0060 N   0  0  0  0  0  0
   12.8980   13.4800   22.2310 C   0  0  1  0  0  0
   14.0940   14.3030   22.0090 O   0  0  0  0  0  0
   12.9130   13.1360   23.6200 N   0  0  0  0  0  0
   12.6170   11.9330   24.1690 C   0  0  0  0  0  0
   12.8190   12.0530   25.6040 C   0  0  0  0  0  0
   13.2780   13.3570   25.8060 N   0  0  0  0  0  0
   13.3330   13.9740   24.6200 C   0  0  0  0  0  0
   12.2200   10.7830   23.6050 N   0  0  0  0  0  0
   11.9290    9.7420   24.4310 C   0  0  0  0  0  0
   12.0750    9.7090   25.7480 N   0  0  0  0  0  0
   12.5420   10.8660   26.4010 C   0  0  0  0  0  0
   12.7150   10.9220   27.7050 N   0  0  0  0  0  0
    6.8460   -5.5740   19.2140 N   0  0  0  0  0  0
    5.8060   -6.0580   20.0380 C   0  0  0  0  0  0
    5.4690   -7.4070   19.9760 N   0  0  0  0  0  0
    6.1970   -8.1910   19.1730 C   0  0  0  0  0  0
    7.2210   -7.7000   18.3440 C   0  0  0  0  0  0
    7.5250   -6.3470   18.3480 C   0  0  0  0  0  0
    5.1500   -5.3200   20.7500 O   0  0  0  0  0  0
    5.9350   -9.4590   19.1200 O   0  0  0  0  0  0
    7.1800   -4.1310   19.3490 C   0  0  1  0  0  0
    8.6550   -3.9540   19.5980 C   0  0  2  0  0  0
    8.9460   -4.1930   20.9650 O   0  0  0  0  0  0
    8.8700   -2.4840   19.3030 C   0  0  1  0  0  0
    7.8080   -2.2580   18.2350 C   0  0  2  0  0  0
    7.1140   -3.5220   18.1140 O   0  0  0  0  0  0
    8.4000   -1.6120   20.3310 O   0  0  0  0  0  0
    8.3510   -1.9860   16.8690 C   0  0  0  0  0  0
    9.0380   -0.6900   16.8950 O   0  0  0  0  0  0
    9.3320    0.0960   15.6500 P   0  0  1  0  0  0
    8.1670    0.3520   14.7440 O   0  0  0  0  0  0
   10.0990    1.3400   16.0550 O   0  0  0  0  0  0
   10.3170   -0.9210   14.8760 O   0  0  0  0  0  0
   11.6270   -0.6100   14.0470 P   0  0  2  0  0  0
   11.3710    0.5290   13.1330 O   0  0  0  0  0  0
   12.0780   -1.9710   13.4680 O   0  0  0  0  0  0
   13.2980   -0.8570   16.1690 C   0  0  1  0  0  0
   13.5680    0.0510   17.3470 C   0  0  1  0  0  0
   14.4960    1.1840   16.8730 C   0  0  2  0  0  0
   15.7490    0.6030   16.1730 C   0  0  1  0  0  0
   15.3520   -0.3570   15.0600 C   0  0  1  0  0  0
   16.5930   -1.1510   14.6680 C   0  0  0  0  0  0
   11.7190    0.2090   19.0220 C   0  0  0  0  0  0
   10.4110    0.8150   19.4490 C   0  0  0  0  0  0
   14.1650    3.1180   18.3340 C   0  0  1  0  0  0
   13.4580    2.9370   19.6380 C   0  0  0  0  0  0
   15.1830    4.2940   18.4250 C   0  0  0  0  0  0
   12.6680   -0.0760   15.1670 O   0  0  0  0  0  0
   14.9140    1.9450   18.0040 O   0  0  0  0  0  0
   16.4930    1.6820   15.5650 O   0  0  0  0  0  0
   14.5110   -1.3750   15.6060 O   0  0  0  0  0  0
   16.3520   -1.8180   13.4190 O   0  0  0  0  0  0
   12.3110   -0.5450   19.7910 O   0  0  0  0  0  0
   12.3670    3.5250   19.7690 O   0  0  0  0  0  0
   12.2780    0.5710   17.8700 N   0  0  0  0  0  0
   15.0764    1.7462   20.3958 H   0  0  0  0  0  0
   12.3625    1.4208   21.5519 H   0  0  0  0  0  0
   14.4387   -0.0828   21.8850 H   0  0  0  0  0  0
   13.7290    0.4050   23.4615 H   0  0  0  0  0  0
   15.1959    1.2359   22.8413 H   0  0  0  0  0  0
   14.7708    3.9769   21.9816 H   0  0  0  0  0  0
   12.6872    5.0978   23.8512 H   0  0  0  0  0  0
   16.6422    4.8884   25.3085 H   0  0  0  0  0  0
   13.7120    7.3821   23.2246 H   0  0  0  0  0  0
   14.8730    6.5130   22.1647 H   0  0  0  0  0  0
   13.2055    7.3823   20.7101 H   0  0  0  0  0  0
   12.8029    5.6399   20.8794 H   0  0  0  0  0  0
   10.8421    6.6000   19.7993 H   0  0  0  0  0  0
    8.7774    7.1975   22.0434 H   0  0  0  0  0  0
   10.3343    9.4077   21.0162 H   0  0  0  0  0  0
    8.8380    9.4338   20.0227 H   0  0  0  0  0  0
    9.1172    4.8901   20.3131 H   0  0  0  0  0  0
    6.7229    5.3247   18.7542 H   0  0  0  0  0  0
    7.7132    3.0306   19.4304 H   0  0  0  0  0  0
    9.0066    3.2713   18.2074 H   0  0  0  0  0  0
    7.3004    3.0706   17.6827 H   0  0  0  0  0  0
    6.0290    5.6046   16.6602 H   0  0  0  0  0  0
    7.7898    7.5512   15.4036 H   0  0  0  0  0  0
    5.3202    7.4139   15.0598 H   0  0  0  0  0  0
    5.5221    5.8570   14.1868 H   0  0  0  0  0  0
    6.1675    7.3754   13.4763 H   0  0  0  0  0  0
    9.7556    5.6344   12.8111 H   0  0  0  0  0  0
   17.0712   19.6332   36.3211 H   0  0  0  0  0  0
   15.0310   17.7708   32.6896 H   0  0  0  0  0  0
   14.7009   18.9978   33.9593 H   0  0  0  0  0  0
   13.2389   19.1498   32.1003 H   0  0  0  0  0  0
   15.7563   19.6050   30.3319 H   0  0  0  0  0  0
   14.1981   21.1077   28.9422 H   0  0  0  0  0  0
   12.3126   19.6973   28.8829 H   0  0  0  0  0  0
   13.1061   22.4098   31.1660 H   0  0  0  0  0  0
   16.0829   25.5007   29.2934 H   0  0  0  0  0  0
   18.2425   25.9276   29.7626 H   0  0  0  0  0  0
   18.3627   22.8949   31.8533 H   0  0  0  0  0  0
   16.3943   21.5019   32.1765 H   0  0  0  0  0  0
   17.0533   17.2534   29.5792 H   0  0  0  0  0  0
   13.5293   17.9190   26.2791 H   0  0  0  0  0  0
   12.5948   18.9692   27.3973 H   0  0  0  0  0  0
   12.4727   19.9523   25.3459 H   0  0  0  0  0  0
   15.4573   19.3402   24.8891 H   0  0  0  0  0  0
   15.5398   21.5926   23.5938 H   0  0  0  0  0  0
   13.6204   20.9566   22.2464 H   0  0  0  0  0  0
   13.9258   23.0075   25.3023 H   0  0  0  0  0  0
   18.1900   24.8244   25.7427 H   0  0  0  0  0  0
   19.8104   24.4316   27.2727 H   0  0  0  0  0  0
   17.9303   21.4925   28.4661 H   0  0  0  0  0  0
   15.8033   20.8510   27.4596 H   0  0  0  0  0  0
   16.2183   19.8966   21.8253 H   0  0  0  0  0  0
   14.0580   17.1619   20.1538 H   0  0  0  0  0  0
   15.5657   16.3893   20.7510 H   0  0  0  0  0  0
   14.2661   14.6367   19.9145 H   0  0  0  0  0  0
   11.7849   16.0547   20.4503 H   0  0  0  0  0  0
   12.3901   14.6378   18.5190 H   0  0  0  0  0  0
   11.3769   15.1296   22.7584 H   0  0  0  0  0  0
   10.7559   11.7320   21.1361 H   0  0  0  0  0  0
    6.8853   11.7980   20.3639 H   0  0  0  0  0  0
    8.2332   10.6181   20.4966 H   0  0  0  0  0  0
    6.2246   10.7734   22.5781 H   0  0  0  0  0  0
    7.5690   11.7763   23.2212 H   0  0  0  0  0  0
   12.8723   12.5426   21.6560 H   0  0  0  0  0  0
   13.6658   15.0010   24.4699 H   0  0  0  0  0  0
   11.5347    8.8412   23.9608 H   0  0  0  0  0  0
   13.0821   11.8479   28.1719 H   0  0  0  0  0  0
   12.4924   10.0429   28.3276 H   0  0  0  0  0  0
    4.6304   -7.7925   20.5745 H   0  0  0  0  0  0
    7.7752   -8.3819   17.6990 H   0  0  0  0  0  0
    8.2789   -5.9296   17.6805 H   0  0  0  0  0  0
    6.4788   -3.7025   20.0802 H   0  0  0  0  0  0
    9.3004   -4.6561   19.0498 H   0  0  0  0  0  0
    8.8495   -5.2077   21.3786 H   0  0  0  0  0  0
    9.9351   -2.2572   19.1475 H   0  0  0  0  0  0
    7.1728   -1.4088   18.5271 H   0  0  0  0  0  0
    8.9538   -1.5293   21.2778 H   0  0  0  0  0  0
    9.0576   -2.7816   16.5902 H   0  0  0  0  0  0
    7.5240   -1.9597   16.1442 H   0  0  0  0  0  0
    9.5876    2.1496   16.5962 H   0  0  0  0  0  0
   11.4739   -2.4667   12.6938 H   0  0  0  0  0  0
   12.6723   -1.7160   16.4529 H   0  0  0  0  0  0
   14.0336   -0.4979   18.1788 H   0  0  0  0  0  0
   13.9546    1.8784   16.2136 H   0  0  0  0  0  0
   16.3987    0.1011   16.9051 H   0  0  0  0  0  0
   14.8430    0.1871   14.2508 H   0  0  0  0  0  0
   17.4478   -0.4668   14.5621 H   0  0  0  0  0  0
   16.8135   -1.8953   15.4474 H   0  0  0  0  0  0
   10.1117    0.3942   20.4202 H   0  0  0  0  0  0
    9.6397    0.5889   18.6980 H   0  0  0  0  0  0
   10.5247    1.9052   19.5411 H   0  0  0  0  0  0
   13.3944    3.2474   17.5598 H   0  0  0  0  0  0
   14.6494    5.2220   18.6781 H   0  0  0  0  0  0
   15.6906    4.4153   17.4567 H   0  0  0  0  0  0
   15.9276    4.0749   19.2045 H   0  0  0  0  0  0
   16.8835    2.5002   16.1879 H   0  0  0  0  0  0
   17.1365   -2.4447   12.9698 H   0  0  0  0  0  0
   11.7093    1.3138   17.2914 H   0  0  0  0  0  0
  1  2  1  0  0  0
  1133  1  0  0  0
  1143  1  0  0  0
  2  3  1  0  0  0
  2  5  1  0  0  0
  2144  1  0  0  0
  3  4  2  0  0  0
  3  6  1  0  0  0
  5145  1  0  0  0
  5146  1  0  0  0
  5147  1  0  0  0
  6  7  1  0  0  0
  6148  1  0  0  0
  7  8  1  0  0  0
  7 10  1  0  0  0
  7149  1  0  0  0
  8  9  1  0  0  0
  8 14  2  0  0  0
  9150  1  0  0  0
 10 11  1  0  0  0
 10151  1  0  0  0
 10152  1  0  0  0
 11 12  1  0  0  0
 11153  1  0  0  0
 11154  1  0  0  0
 12 13  2  0  0  0
 12 15  1  0  0  0
 15 16  1  0  0  0
 15155  1  0  0  0
 16 17  1  0  0  0
 16 19  1  0  0  0
 16156  1  0  0  0
 17 18  2  0  0  0
 17 21  1  0  0  0
 19 20  1  0  0  0
 19157  1  0  0  0
 19158  1  0  0  0
 20 85  1  0  0  0
 21 22  1  0  0  0
 21159  1  0  0  0
 22 23  1  0  0  0
 22 24  1  0  0  0
 22160  1  0  0  0
 23161  1  0  0  0
 23162  1  0  0  0
 23163  1  0  0  0
 24 25  2  0  0  0
 24 26  1  0  0  0
 26 27  1  0  0  0
 26164  1  0  0  0
 27 28  1  0  0  0
 27 29  1  0  0  0
 27165  1  0  0  0
 28166  1  0  0  0
 28167  1  0  0  0
 28168  1  0  0  0
 29 30  1  0  0  0
 29 31  2  0  0  0
 30169  1  0  0  0
 32 33  1  0  0  0
 32 34  2  0  0  0
 32 35  1  0  0  0
 33170  1  0  0  0
 35 36  1  0  0  0
 36 37  1  0  0  0
 36171  1  0  0  0
 36172  1  0  0  0
 37 38  1  0  0  0
 37 39  1  0  0  0
 37173  1  0  0  0
 38 43  1  0  0  0
 39 40  1  0  0  0
 39 41  1  0  0  0
 39174  1  0  0  0
 40 52  1  0  0  0
 41 42  1  0  0  0
 41 43  1  0  0  0
 41175  1  0  0  0
 42176  1  0  0  0
 43 44  1  0  0  0
 43177  1  0  0  0
 44 45  1  0  0  0
 44 51  1  0  0  0
 45 46  2  0  0  0
 45 47  1  0  0  0
 47 48  1  0  0  0
 47178  1  0  0  0
 48 49  2  0  0  0
 48 50  1  0  0  0
 49179  1  0  0  0
 50 51  2  0  0  0
 50180  1  0  0  0
 51181  1  0  0  0
 52 53  2  0  0  0
 52 54  1  0  0  0
 52 55  1  0  0  0
 54182  1  0  0  0
 55 56  1  0  0  0
 56 57  1  0  0  0
 56183  1  0  0  0
 56184  1  0  0  0
 57 58  1  0  0  0
 57 59  1  0  0  0
 57185  1  0  0  0
 58 63  1  0  0  0
 59 60  1  0  0  0
 59 61  1  0  0  0
 59186  1  0  0  0
 60 73  1  0  0  0
 61 62  1  0  0  0
 61 63  1  0  0  0
 61187  1  0  0  0
 62188  1  0  0  0
 63 64  1  0  0  0
 63189  1  0  0  0
 64 65  1  0  0  0
 64 71  1  0  0  0
 65 66  2  0  0  0
 65 67  1  0  0  0
 67 68  1  0  0  0
 67190  1  0  0  0
 68 69  2  0  0  0
 68 70  1  0  0  0
 69191  1  0  0  0
 70 71  2  0  0  0
 70192  1  0  0  0
 71193  1  0  0  0
 72 73  1  0  0  0
 72194  1  0  0  0
 73 74  2  0  0  0
 73 75  1  0  0  0
 75 76  1  0  0  0
 76 77  1  0  0  0
 76195  1  0  0  0
 76196  1  0  0  0
 77 78  1  0  0  0
 77 89  1  0  0  0
 77197  1  0  0  0
 78 79  1  0  0  0
 78 80  1  0  0  0
 78198  1  0  0  0
 79199  1  0  0  0
 80 81  1  0  0  0
 80 88  1  0  0  0
 80200  1  0  0  0
 81 82  1  0  0  0
 81 87  1  0  0  0
 82 83  2  0  0  0
 82201  1  0  0  0
 83 84  1  0  0  0
 83 86  1  0  0  0
 84 85  1  0  0  0
 84202  1  0  0  0
 84203  1  0  0  0
 85204  1  0  0  0
 85205  1  0  0  0
 86 87  2  0  0  0
 88 89  1  0  0  0
 88 90  1  0  0  0
 88206  1  0  0  0
 90 91  1  0  0  0
 90 94  1  0  0  0
 91 92  2  0  0  0
 91 95  1  0  0  0
 92 93  1  0  0  0
 92 98  1  0  0  0
 93 94  2  0  0  0
 94207  1  0  0  0
 95 96  2  0  0  0
 96 97  1  0  0  0
 96208  1  0  0  0
 97 98  2  0  0  0
 98 99  1  0  0  0
 99209  1  0  0  0
 99210  1  0  0  0
100101  1  0  0  0
100105  1  0  0  0
100108  1  0  0  0
101102  1  0  0  0
101106  2  0  0  0
102103  1  0  0  0
102211  1  0  0  0
103104  1  0  0  0
103107  2  0  0  0
104105  2  0  0  0
104212  1  0  0  0
105213  1  0  0  0
108109  1  0  0  0
108113  1  0  0  0
108214  1  0  0  0
109110  1  0  0  0
109111  1  0  0  0
109215  1  0  0  0
110216  1  0  0  0
111112  1  0  0  0
111114  1  0  0  0
111217  1  0  0  0
112113  1  0  0  0
112115  1  0  0  0
112218  1  0  0  0
114219  1  0  0  0
115116  1  0  0  0
115220  1  0  0  0
115221  1  0  0  0
116117  1  0  0  0
117118  2  0  0  0
117119  1  0  0  0
117120  1  0  0  0
119222  1  0  0  0
120121  1  0  0  0
121122  2  0  0  0
121123  1  0  0  0
121135  1  0  0  0
123223  1  0  0  0
124125  1  0  0  0
124135  1  0  0  0
124138  1  0  0  0
124224  1  0  0  0
125126  1  0  0  0
125142  1  0  0  0
125225  1  0  0  0
126127  1  0  0  0
126136  1  0  0  0
126226  1  0  0  0
127128  1  0  0  0
127137  1  0  0  0
127227  1  0  0  0
128129  1  0  0  0
128138  1  0  0  0
128228  1  0  0  0
129139  1  0  0  0
129229  1  0  0  0
129230  1  0  0  0
130131  1  0  0  0
130140  2  0  0  0
130142  1  0  0  0
131231  1  0  0  0
131232  1  0  0  0
131233  1  0  0  0
132133  1  0  0  0
132134  1  0  0  0
132136  1  0  0  0
132234  1  0  0  0
133141  2  0  0  0
134235  1  0  0  0
134236  1  0  0  0
134237  1  0  0  0
137238  1  0  0  0
139239  1  0  0  0
142240  1  0  0  0
M  END
> <s_m_source_file>
../4ii9_ligand.sdf

> <i_m_source_file_index>
1

> <s_epik_input>
W2NIXTFbY0hdYyg9TylbbkhdYyg9TyluMVtDQEhdMltDQEhdKFtPSF0pW0NASF0oW09IXSlbQ0BIXShPMilbQ0gyXU9bUEBAXSg9TykoW09IXSlPW1BAXSg9TykoW09IXSlPW0NAQEhdM1tDQEhdKFtOSF1DKD1PKVtDSDNdKVtDQEhdKFtDQEhdKFtPSF0pW0NASF0oTzMpW0NIMl1bT0hdKU9bQ0BIXShbQ0gzXSlDKD1PKVtOSF1bQ0BASF0oW0NIM10pQyg9TylbTkhdW0NAQEhdKEMoPU8pW09IXSlbQ0gyXVtDSDJdQyg9TylbTkhdW0NASF0oQyg9TylbTkhdW0NASF0oW0NIM10pQyg9TylbTkhdW0NASF0oW0NIM10pQyg9TylbT0hdKVtDSDJdU1tDSDJdW0NIMl1jKG5uNClbY0hdbjRbQ0BASF0oW0NAQEhdKE81KW42W2NIXW5jKGM2NyljKFtOSDJdKW5bY0hdbjcpW0NASF0oW09IXSlbQ0BIXTVbQ0gyXU9bUEBAXSg9TykoW09IXSlPW0NASF04W0NAQEhdKFtPSF0pW0NASF0objljKD1PKVtuSF0vYyg9TlxbSF0pW2NIXVtjSF05KU9bQ0BASF04W0NIMl1PW1BAQF0oPU8pKFtPSF0pT1tDQEhdMVtDQEBIXShbT0hdKVtDQEBIXShPW0NAQEhdMVtDSDJdT1tQSF0oPU8pW09IXSluMWMoPU8pW25IXS9jKD1OXFtIXSlbY0hdW2NIXTE=

> <s_epik_cmdline>
J2VwaWtfYXBwJywgJy1pbWFlJywgJ2xpZ2FuZF9wcm8ubWFlJywgJy1vbWFlJywgJ2xpZ2FuZF9wcmVwLm1hZScsICctbXMnLCAnMScsICctcGgnLCAnNycsICctcGh0JywgJzAuNScsICctbnQn

> <s_epik_pKa_notes>
Molecule size exceeds maximum supported for generating protonation states

> <s_epik_Chemistry_Notes>
This compound contains an acetal/aminal-like group ( X-CH(R)-Y where X, Y are N, S, or O) that may be acid/base labile, releasing an aldehyde.

$$$$
