4iid_ligand
                    3D
 Schrodinger Suite 2020-3.
 25 25  0  0  1  0            999 V2000
  -20.8870  -20.3580  -23.4400 C   0  0  0  0  0  0
  -22.0330  -19.7770  -24.2580 C   0  0  2  0  0  0
  -22.8080  -20.8310  -24.8510 O   0  0  0  0  0  0
  -21.5510  -18.8710  -25.3870 C   0  0  1  0  0  0
  -22.7050  -18.1920  -25.9100 O   0  0  0  0  0  0
  -20.5550  -17.8490  -24.8340 C   0  0  2  0  0  0
  -20.1510  -16.9300  -25.8340 O   0  0  0  0  0  0
  -19.3580  -18.5730  -24.2430 C   0  0  2  0  0  0
  -19.8890  -19.3230  -23.0880 N   0  3  0  0  0  0
  -18.3320  -17.6240  -23.6960 C   0  0  0  0  0  0
  -18.9200  -16.8110  -22.6920 O   0  0  0  0  0  0
  -21.2830  -20.7892  -22.5088 H   0  0  0  0  0  0
  -20.3822  -21.1432  -24.0220 H   0  0  0  0  0  0
  -22.6842  -19.2205  -23.5679 H   0  0  0  0  0  0
  -23.2583  -21.6073  -24.2149 H   0  0  0  0  0  0
  -21.0951  -19.4373  -26.2125 H   0  0  0  0  0  0
  -23.5303  -18.7701  -26.3512 H   0  0  0  0  0  0
  -21.0285  -17.2018  -24.0811 H   0  0  0  0  0  0
  -20.9032  -16.3244  -26.3607 H   0  0  0  0  0  0
  -18.8772  -19.2052  -25.0040 H   0  0  0  0  0  0
  -20.3469  -18.5876  -22.4101 H   0  0  0  0  0  0
  -19.0302  -19.7962  -22.5895 H   0  0  0  0  0  0
  -17.4989  -18.1956  -23.2610 H   0  0  0  0  0  0
  -17.9539  -16.9851  -24.5077 H   0  0  0  0  0  0
  -18.3151  -16.0514  -22.1752 H   0  0  0  0  0  0
  1  2  1  0  0  0
  1  9  1  0  0  0
  1 12  1  0  0  0
  1 13  1  0  0  0
  2  3  1  0  0  0
  2  4  1  0  0  0
  2 14  1  0  0  0
  3 15  1  0  0  0
  4  5  1  0  0  0
  4  6  1  0  0  0
  4 16  1  0  0  0
  5 17  1  0  0  0
  6  7  1  0  0  0
  6  8  1  0  0  0
  6 18  1  0  0  0
  7 19  1  0  0  0
  8  9  1  0  0  0
  8 10  1  0  0  0
  8 20  1  0  0  0
  9 21  1  0  0  0
  9 22  1  0  0  0
 10 11  1  0  0  0
 10 23  1  0  0  0
 10 24  1  0  0  0
 11 25  1  0  0  0
M  CHG  1   9   1
M  END
> <s_m_source_file>
../4iid_ligand.sdf

> <i_m_source_file_index>
1

> <s_epik_input>
W09IXVtDQEhdMVtDSDJdW05IMitdW0NASF0oW0NIMl1bT0hdKVtDQEBIXShbT0hdKVtDQEBIXTFbT0hd

> <s_epik_cmdline>
J2VwaWtfYXBwJywgJy1pbWFlJywgJ2xpZ2FuZF9wcm8ubWFlJywgJy1vbWFlJywgJ2xpZ2FuZF9wcmVwLm1hZScsICctbXMnLCAnMScsICctcGgnLCAnNycsICctcGh0JywgJzAuNScsICctbnQn

> <r_lp_tautomer_probability>
1

> <r_epik_Ionization_Penalty>
  0.0034

> <r_epik_Ionization_Penalty_Charging>
  0.0034

> <r_epik_Ionization_Penalty_Neutral>
  0.0000

> <r_epik_State_Penalty>
 -0.0000

> <r_epik_Charging_Adjusted_Penalty>
0.00338677877254832

> <i_epik_Tot_Q>
1

> <i_epik_Tot_abs_Q>
1

$$$$
