4iie_ligand
                    3D
 Schrodinger Suite 2020-3.
 26 27  0  0  1  0            999 V2000
   20.9410  -20.4650   22.4700 O   0  0  0  0  0  0
   20.5920  -19.5010   23.4000 C   0  0  2  0  0  0
   19.1180  -18.9740   23.5000 N   0  3  0  0  0  0
   20.9880  -18.2370   22.8110 C   0  0  0  0  0  0
   20.4620  -17.1100   23.7460 C   0  0  0  0  0  0
   19.2500  -17.8180   24.4270 C   0  0  2  0  0  0
   21.1880  -19.8900   24.8180 C   0  0  1  0  0  0
   22.3270  -20.8150   24.9890 O   0  0  0  0  0  0
   21.3630  -18.5390   25.3940 C   0  0  2  0  0  0
   22.6180  -18.2260   26.0010 O   0  0  0  0  0  0
   19.9960  -17.9520   25.7410 C   0  0  1  0  0  0
   20.2540  -16.5820   26.0910 O   0  0  0  0  0  0
   20.6145  -20.3643   21.4244 H   0  0  0  0  0  0
   18.7648  -18.6808   22.5003 H   0  0  0  0  0  0
   18.4707  -19.7688   23.8990 H   0  0  0  0  0  0
   22.0845  -18.1960   22.7339 H   0  0  0  0  0  0
   20.5462  -18.1456   21.8078 H   0  0  0  0  0  0
   21.2532  -16.8217   24.4538 H   0  0  0  0  0  0
   20.1744  -16.2368   23.1420 H   0  0  0  0  0  0
   18.2141  -17.4878   24.5938 H   0  0  0  0  0  0
   20.5694  -20.5922   25.3961 H   0  0  0  0  0  0
   22.2703  -21.8374   24.5871 H   0  0  0  0  0  0
   21.8452  -17.7813   24.7589 H   0  0  0  0  0  0
   23.5357  -18.7241   25.6550 H   0  0  0  0  0  0
   19.4663  -18.5046   26.5310 H   0  0  0  0  0  0
   19.4235  -15.9240   26.3864 H   0  0  0  0  0  0
  1  2  1  0  0  0
  1 13  1  0  0  0
  2  3  1  0  0  0
  2  4  1  0  0  0
  2  7  1  0  0  0
  3  6  1  0  0  0
  3 14  1  0  0  0
  3 15  1  0  0  0
  4  5  1  0  0  0
  4 16  1  0  0  0
  4 17  1  0  0  0
  5  6  1  0  0  0
  5 18  1  0  0  0
  5 19  1  0  0  0
  6 11  1  0  0  0
  6 20  1  0  0  0
  7  8  1  0  0  0
  7  9  1  0  0  0
  7 21  1  0  0  0
  8 22  1  0  0  0
  9 10  1  0  0  0
  9 11  1  0  0  0
  9 23  1  0  0  0
 10 24  1  0  0  0
 11 12  1  0  0  0
 11 25  1  0  0  0
 12 26  1  0  0  0
M  CHG  1   3   1
M  END
> <s_m_source_file>
../4iie_ligand.sdf

> <i_m_source_file_index>
1

> <s_epik_input>
W09IXVtDQF0xMltOSDIrXVtDQEhdKFtDSDJdW0NIMl0xKVtDQEhdKFtPSF0pW0NAQEhdKFtPSF0pW0NAQEhdMltPSF0=

> <s_epik_cmdline>
J2VwaWtfYXBwJywgJy1pbWFlJywgJ2xpZ2FuZF9wcm8ubWFlJywgJy1vbWFlJywgJ2xpZ2FuZF9wcmVwLm1hZScsICctbXMnLCAnMScsICctcGgnLCAnNycsICctcGh0JywgJzAuNScsICctbnQn

> <r_epik_Ionization_Penalty>
  0.0832

> <r_epik_Ionization_Penalty_Charging>
  0.0817

> <r_epik_Ionization_Penalty_Neutral>
  0.0015

> <r_epik_State_Penalty>
  0.0724

> <r_epik_Charging_Adjusted_Penalty>
0.154087398246642

> <i_epik_Tot_Q>
1

> <i_epik_Tot_abs_Q>
1

$$$$
