4iif_ligand
                    3D
 Schrodinger Suite 2020-3.
 29 30  0  0  1  0            999 V2000
   20.9580  -20.2160   23.3600 C   0  0  0  0  0  0
   22.1030  -19.6860   24.2130 C   0  0  1  0  0  0
   21.6330  -18.7700   25.3240 C   0  0  2  0  0  0
   20.7290  -17.6740   24.7620 C   0  0  1  0  0  0
   19.5830  -18.4220   24.0430 C   0  0  1  0  0  0
   18.6030  -17.5360   23.3480 C   0  0  1  0  0  0
   22.7460  -20.7620   24.8610 O   0  0  0  0  0  0
   22.7910  -18.2690   25.9400 O   0  0  0  0  0  0
   20.2420  -16.7980   25.7810 O   0  0  0  0  0  0
   19.3370  -16.5460   22.5980 O   0  0  0  0  0  0
   20.1900  -19.0870   22.8770 N   0  3  2  0  0  0
   17.9380  -18.5310   22.3870 C   0  0  0  0  0  0
   19.0500  -19.5430   22.0510 C   0  0  0  0  0  0
   21.3658  -20.7853   22.5117 H   0  0  0  0  0  0
   20.3201  -20.8729   23.9696 H   0  0  0  0  0  0
   22.8171  -19.1791   23.5474 H   0  0  0  0  0  0
   21.0841  -19.2863   26.1254 H   0  0  0  0  0  0
   21.2682  -16.9580   24.1244 H   0  0  0  0  0  0
   19.0785  -19.0544   24.7883 H   0  0  0  0  0  0
   17.9285  -16.9631   24.0013 H   0  0  0  0  0  0
   23.1836  -21.5788   24.2682 H   0  0  0  0  0  0
   23.5215  -18.9615   26.3836 H   0  0  0  0  0  0
   20.9481  -16.2002   26.3760 H   0  0  0  0  0  0
   19.8806  -15.7481   23.1252 H   0  0  0  0  0  0
   20.8735  -18.4447   22.3024 H   0  0  0  0  0  0
   17.0844  -19.0104   22.8885 H   0  0  0  0  0  0
   17.5850  -17.9968   21.4925 H   0  0  0  0  0  0
   19.3336  -19.5171   20.9885 H   0  0  0  0  0  0
   18.7806  -20.5714   22.3336 H   0  0  0  0  0  0
  1  2  1  0  0  0
  1 11  1  0  0  0
  1 14  1  0  0  0
  1 15  1  0  0  0
  2  3  1  0  0  0
  2  7  1  0  0  0
  2 16  1  0  0  0
  3  4  1  0  0  0
  3  8  1  0  0  0
  3 17  1  0  0  0
  4  5  1  0  0  0
  4  9  1  0  0  0
  4 18  1  0  0  0
  5  6  1  0  0  0
  5 11  1  0  0  0
  5 19  1  0  0  0
  6 10  1  0  0  0
  6 12  1  0  0  0
  6 20  1  0  0  0
  7 21  1  0  0  0
  8 22  1  0  0  0
  9 23  1  0  0  0
 10 24  1  0  0  0
 11 13  1  0  0  0
 11 25  1  0  0  0
 12 13  1  0  0  0
 12 26  1  0  0  0
 12 27  1  0  0  0
 13 28  1  0  0  0
 13 29  1  0  0  0
M  CHG  1  11   1
M  END
> <s_m_source_file>
../4iif_ligand.sdf

> <i_m_source_file_index>
1

> <s_epik_input>
W09IXVtDQEhdMVtDQEhdKFtPSF0pW0NAQEhdKFtPSF0pW0NIMl1bTkBIK10oW0NAQEhdMTIpW0NIMl1bQ0gyXVtDQEBIXTJbT0hd

> <s_epik_cmdline>
J2VwaWtfYXBwJywgJy1pbWFlJywgJ2xpZ2FuZF9wcm8ubWFlJywgJy1vbWFlJywgJ2xpZ2FuZF9wcmVwLm1hZScsICctbXMnLCAnMScsICctcGgnLCAnNycsICctcGh0JywgJzAuNScsICctbnQn

> <r_epik_Ionization_Penalty>
  0.0117

> <r_epik_Ionization_Penalty_Charging>
  0.0117

> <r_epik_Ionization_Penalty_Neutral>
  0.0000

> <r_epik_State_Penalty>
  0.0090

> <r_epik_Charging_Adjusted_Penalty>
0.0207317003209308

> <i_epik_Tot_Q>
1

> <i_epik_Tot_abs_Q>
1

$$$$
