4ijq_ligand
                    3D
 Schrodinger Suite 2020-3.
 43 44  0  0  1  0            999 V2000
   -9.4630  -19.0590  -13.3980 O   0  5  0  0  0  0
   -8.7290  -17.9380  -14.2130 P   0  0  0  0  0  0
   -7.8170  -17.0990  -13.2560 O   0  5  0  0  0  0
   -9.7160  -17.0480  -14.9380 O   0  0  0  0  0  0
   -7.6520  -18.7800  -15.4340 C   0  0  0  0  0  0
   -8.2730  -19.2430  -16.5820 O   0  0  0  0  0  0
   -7.3940  -19.5100  -17.5970 C   0  0  0  0  0  0
   -7.6200  -18.8140  -18.9060 C   0  0  2  0  0  0
   -6.3150  -18.6410  -19.6330 C   0  0  0  0  0  0
   -6.1460  -17.5020  -20.4020 O   0  0  0  0  0  0
   -5.2230  -16.6150  -19.8410 C   0  0  0  0  0  0
   -4.2660  -15.5760  -20.9990 P   0  0  0  0  0  0
   -5.2920  -14.5840  -21.6530 O   0  5  0  0  0  0
   -3.2370  -14.8250  -20.0890 O   0  0  0  0  0  0
   -3.5340  -16.3550  -22.0620 O   0  0  0  0  0  0
   -8.7030  -17.7040  -19.0590 C   0  0  0  0  0  0
   -9.5100  -18.2620  -20.1380 N   0  0  0  0  0  0
   -9.5060  -17.9110  -21.4410 C   0  0  0  0  0  0
  -10.3470  -18.7480  -22.0930 N   0  0  0  0  0  0
  -10.8460  -19.6550  -21.1610 C   0  0  0  0  0  0
  -10.3070  -19.3740  -19.9340 C   0  0  0  0  0  0
  -10.6660  -20.1240  -18.8380 N   0  0  0  0  0  0
  -11.5270  -21.1490  -18.9850 C   0  0  0  0  0  0
  -11.9180  -21.9470  -17.8750 N   0  0  0  0  0  0
  -12.0480  -21.4480  -20.1880 N   0  0  0  0  0  0
  -11.7460  -20.7400  -21.2780 C   0  0  0  0  0  0
  -12.2920  -21.0370  -22.5150 O   0  0  0  0  0  0
   -6.8687  -18.0857  -15.7723 H   0  0  0  0  0  0
   -7.1853  -19.6595  -14.9663 H   0  0  0  0  0  0
   -6.3779  -19.2250  -17.2865 H   0  0  0  0  0  0
   -7.4183  -20.5848  -17.8299 H   0  0  0  0  0  0
   -8.1971  -19.5701  -19.4586 H   0  0  0  0  0  0
   -5.4901  -18.6200  -18.9056 H   0  0  0  0  0  0
   -6.1689  -19.4802  -20.3290 H   0  0  0  0  0  0
   -5.7470  -15.9126  -19.1761 H   0  0  0  0  0  0
   -4.4766  -17.1795  -19.2630 H   0  0  0  0  0  0
   -3.5924  -14.2024  -19.2547 H   0  0  0  0  0  0
   -9.2495  -17.5918  -18.1110 H   0  0  0  0  0  0
   -8.2177  -16.7513  -19.3174 H   0  0  0  0  0  0
   -8.9301  -17.1005  -21.8876 H   0  0  0  0  0  0
  -11.5134  -21.7337  -16.8746 H   0  0  0  0  0  0
  -12.6251  -22.7777  -18.0167 H   0  0  0  0  0  0
  -12.7422  -22.2950  -20.2916 H   0  0  0  0  0  0
  1  2  1  0  0  0
  2  3  1  0  0  0
  2  4  2  0  0  0
  2  5  1  0  0  0
  5  6  1  0  0  0
  5 28  1  0  0  0
  5 29  1  0  0  0
  6  7  1  0  0  0
  7  8  1  0  0  0
  7 30  1  0  0  0
  7 31  1  0  0  0
  8  9  1  0  0  0
  8 16  1  0  0  0
  8 32  1  0  0  0
  9 10  1  0  0  0
  9 33  1  0  0  0
  9 34  1  0  0  0
 10 11  1  0  0  0
 11 12  1  0  0  0
 11 35  1  0  0  0
 11 36  1  0  0  0
 12 13  1  0  0  0
 12 14  1  0  0  0
 12 15  2  0  0  0
 14 37  1  0  0  0
 16 17  1  0  0  0
 16 38  1  0  0  0
 16 39  1  0  0  0
 17 18  1  0  0  0
 17 21  1  0  0  0
 18 19  2  0  0  0
 18 40  1  0  0  0
 19 20  1  0  0  0
 20 21  2  0  0  0
 20 26  1  0  0  0
 21 22  1  0  0  0
 22 23  2  0  0  0
 23 24  1  0  0  0
 23 25  1  0  0  0
 24 41  1  0  0  0
 24 42  1  0  0  0
 25 26  1  0  0  0
 25 43  1  0  0  0
 26 27  2  0  0  0
M  CHG  3   1  -1   3  -1  13  -1
M  END
> <s_m_source_file>
../4ijq_ligand.sdf

> <i_m_source_file_index>
1

> <s_epik_input>
W09IXVAoPU8pKFtPSF0pW0NIMl1PW0NIMl1bQ0hdKFtDSDJdT1tDSDJdUCg9TykoW09IXSlbT0hdKVtDSDJdbihbY0hdbjEpYyhjMTIpbmMoW05IMl0pW25IXWMyPU8=

> <s_epik_cmdline>
J2VwaWtfYXBwJywgJy1pbWFlJywgJ2xpZ2FuZF9wcm8ubWFlJywgJy1vbWFlJywgJ2xpZ2FuZF9wcmVwLm1hZScsICctbXMnLCAnMScsICctcGgnLCAnNycsICctcGh0JywgJzAuNScsICctbnQn

> <r_lp_tautomer_probability>
0.999940409345307

> <r_epik_Ionization_Penalty>
  0.5213

> <r_epik_Ionization_Penalty_Charging>
  0.3711

> <r_epik_Ionization_Penalty_Neutral>
  0.1502

> <r_epik_State_Penalty>
  0.4464

> <r_epik_Charging_Adjusted_Penalty>
0.817443325316208

> <i_epik_Tot_Q>
-3

> <i_epik_Tot_abs_Q>
3

$$$$
