4ikn_ligand
                    3D
 Schrodinger Suite 2020-3.
 96 96  0  0  1  0            999 V2000
  -13.3650  -10.8820    2.8360 N   0  3  0  0  0  0
  -13.2990  -10.0790    1.5460 C   0  0  2  0  0  0
  -13.3350   -8.5440    1.7860 C   0  0  0  0  0  0
  -12.5500   -7.7670    1.2090 O   0  0  0  0  0  0
  -14.4590  -10.4550    0.6210 C   0  0  0  0  0  0
  -14.1050  -10.2770   -0.8550 C   0  0  0  0  0  0
  -14.7580   -9.4440   -1.5780 O   0  5  0  0  0  0
  -13.1460  -10.9750   -1.2780 O   0  0  0  0  0  0
  -14.2920   -8.1100    2.5990 N   0  0  0  0  0  0
  -14.3850   -6.7010    2.9920 C   0  0  2  0  0  0
  -13.4880   -6.4920    4.2100 C   0  0  0  0  0  0
  -13.4060   -7.3790    5.0650 O   0  0  0  0  0  0
  -15.8570   -6.3590    3.3020 C   0  0  0  0  0  0
  -16.6370   -6.1220    2.0490 C   0  0  0  0  0  0
  -16.7350   -4.8340    1.5370 C   0  0  0  0  0  0
  -17.2610   -7.1740    1.3530 C   0  0  0  0  0  0
  -17.3950   -4.5830    0.3880 C   0  0  0  0  0  0
  -17.9460   -6.9200    0.1190 C   0  0  0  0  0  0
  -17.9900   -5.6370   -0.3300 C   0  0  0  0  0  0
  -18.6720   -5.2920   -1.4640 O   0  0  0  0  0  0
  -12.8130   -5.3490    4.2980 N   0  0  0  0  0  0
  -12.1110   -4.9700    5.5000 C   0  0  2  0  0  0
  -13.1620   -4.4010    6.4710 C   0  0  0  0  0  0
  -13.8480   -3.4310    6.1290 O   0  0  0  0  0  0
  -11.0560   -3.9130    5.1980 C   0  0  0  0  0  0
  -10.5150   -3.1440    6.4150 C   0  0  0  0  0  0
   -9.7650   -4.0310    7.4400 C   0  0  0  0  0  0
  -10.0270   -3.9360    8.6590 O   0  0  0  0  0  0
   -8.8610   -4.9150    6.9520 N   0  0  0  0  0  0
  -13.2530   -4.9920    7.6750 N   0  0  0  0  0  0
  -14.2490   -4.5580    8.6900 C   0  0  2  0  0  0
  -13.9660   -3.1450    9.2480 C   0  0  0  0  0  0
  -12.8480   -2.8210    9.6380 O   0  0  0  0  0  0
  -14.3520   -5.6280    9.8310 C   0  0  0  0  0  0
  -15.0450   -5.1670   11.1090 C   0  0  0  0  0  0
  -14.9450   -6.2260   12.2570 C   0  0  0  0  0  0
  -16.2260   -6.3290   12.9760 N   0  0  0  0  0  0
  -17.3010   -7.0050   12.5310 C   0  0  0  0  0  0
  -18.4260   -7.0370   13.2470 N   0  3  0  0  0  0
  -17.2510   -7.6690   11.3730 N   0  0  0  0  0  0
  -14.9940   -2.3130    9.3220 N   0  0  0  0  0  0
  -14.8480   -1.0310    9.9890 C   0  0  2  0  0  0
  -15.6130   -1.0620   11.3410 C   0  0  0  0  0  0
  -16.2920   -2.0590   11.7040 O   0  5  0  0  0  0
  -15.3240    0.0910    9.0680 C   0  0  0  0  0  0
  -14.5800    0.1720    7.6960 C   0  0  0  0  0  0
  -15.4610    0.9210    6.5710 C   0  0  0  0  0  0
  -13.1010    0.7010    7.8410 C   0  0  0  0  0  0
  -15.5650   -0.0670   12.0750 O   0  0  0  0  0  0
  -12.5250  -10.5990    3.4874 H   0  0  0  0  0  0
  -13.3032  -11.9553    2.6033 H   0  0  0  0  0  0
  -14.3146  -10.6724    3.3502 H   0  0  0  0  0  0
  -12.3377  -10.3502    1.0852 H   0  0  0  0  0  0
  -14.7293  -11.5091    0.7817 H   0  0  0  0  0  0
  -15.3266   -9.8162    0.8426 H   0  0  0  0  0  0
  -15.0255   -8.8365    2.9788 H   0  0  0  0  0  0
  -14.0321   -6.0727    2.1609 H   0  0  0  0  0  0
  -16.3200   -7.1936    3.8489 H   0  0  0  0  0  0
  -15.9001   -5.4484    3.9176 H   0  0  0  0  0  0
  -16.2686   -4.0090    2.0754 H   0  0  0  0  0  0
  -17.2235   -8.1869    1.7539 H   0  0  0  0  0  0
  -17.4677   -3.5615    0.0146 H   0  0  0  0  0  0
  -18.4160   -7.7287   -0.4407 H   0  0  0  0  0  0
  -18.6873   -4.2445   -1.7994 H   0  0  0  0  0  0
  -12.7996   -4.6854    3.4208 H   0  0  0  0  0  0
  -11.6076   -5.8693    5.8844 H   0  0  0  0  0  0
  -10.1858   -4.3889    4.7223 H   0  0  0  0  0  0
  -11.4777   -3.1576    4.5186 H   0  0  0  0  0  0
   -9.8085   -2.3719    6.0764 H   0  0  0  0  0  0
  -11.3505   -2.6676    6.9488 H   0  0  0  0  0  0
   -8.6650   -4.9608    5.8706 H   0  0  0  0  0  0
   -8.3233   -5.5867    7.6373 H   0  0  0  0  0  0
  -12.5633   -5.8189    7.8997 H   0  0  0  0  0  0
  -15.1977   -4.4846    8.1382 H   0  0  0  0  0  0
  -14.9203   -6.4972    9.4683 H   0  0  0  0  0  0
  -13.3417   -5.9477   10.1262 H   0  0  0  0  0  0
  -14.5783   -4.2362   11.4639 H   0  0  0  0  0  0
  -16.1108   -4.9878   10.9040 H   0  0  0  0  0  0
  -14.6952   -7.2081   11.8291 H   0  0  0  0  0  0
  -14.1601   -5.9248   12.9664 H   0  0  0  0  0  0
  -16.3521   -5.8317   13.9491 H   0  0  0  0  0  0
  -18.4851   -6.4961   14.2030 H   0  0  0  0  0  0
  -16.3315   -7.6537   10.7695 H   0  0  0  0  0  0
  -18.1293   -8.2311   11.0229 H   0  0  0  0  0  0
  -15.9597   -2.5946    8.8770 H   0  0  0  0  0  0
  -13.7734   -0.8830   10.1718 H   0  0  0  0  0  0
  -16.3916   -0.0480    8.8422 H   0  0  0  0  0  0
  -15.1778    1.0609    9.5659 H   0  0  0  0  0  0
  -14.4533   -0.8664    7.3559 H   0  0  0  0  0  0
  -16.4705    0.4848    6.5454 H   0  0  0  0  0  0
  -14.9829    0.7969    5.5882 H   0  0  0  0  0  0
  -15.5303    1.9919    6.8125 H   0  0  0  0  0  0
  -12.5836    0.1321    8.6276 H   0  0  0  0  0  0
  -13.1178    1.7674    8.1104 H   0  0  0  0  0  0
  -12.5703    0.5724    6.8861 H   0  0  0  0  0  0
  -19.2946   -7.6043   12.8815 H   0  0  0  0  0  0
  1  2  1  0  0  0
  1 50  1  0  0  0
  1 51  1  0  0  0
  1 52  1  0  0  0
  2  3  1  0  0  0
  2  5  1  0  0  0
  2 53  1  0  0  0
  3  4  2  0  0  0
  3  9  1  0  0  0
  5  6  1  0  0  0
  5 54  1  0  0  0
  5 55  1  0  0  0
  6  7  1  0  0  0
  6  8  2  0  0  0
  9 10  1  0  0  0
  9 56  1  0  0  0
 10 11  1  0  0  0
 10 13  1  0  0  0
 10 57  1  0  0  0
 11 12  2  0  0  0
 11 21  1  0  0  0
 13 14  1  0  0  0
 13 58  1  0  0  0
 13 59  1  0  0  0
 14 15  2  0  0  0
 14 16  1  0  0  0
 15 17  1  0  0  0
 15 60  1  0  0  0
 16 18  2  0  0  0
 16 61  1  0  0  0
 17 19  2  0  0  0
 17 62  1  0  0  0
 18 19  1  0  0  0
 18 63  1  0  0  0
 19 20  1  0  0  0
 20 64  1  0  0  0
 21 22  1  0  0  0
 21 65  1  0  0  0
 22 23  1  0  0  0
 22 25  1  0  0  0
 22 66  1  0  0  0
 23 24  2  0  0  0
 23 30  1  0  0  0
 25 26  1  0  0  0
 25 67  1  0  0  0
 25 68  1  0  0  0
 26 27  1  0  0  0
 26 69  1  0  0  0
 26 70  1  0  0  0
 27 28  2  0  0  0
 27 29  1  0  0  0
 29 71  1  0  0  0
 29 72  1  0  0  0
 30 31  1  0  0  0
 30 73  1  0  0  0
 31 32  1  0  0  0
 31 34  1  0  0  0
 31 74  1  0  0  0
 32 33  2  0  0  0
 32 41  1  0  0  0
 34 35  1  0  0  0
 34 75  1  0  0  0
 34 76  1  0  0  0
 35 36  1  0  0  0
 35 77  1  0  0  0
 35 78  1  0  0  0
 36 37  1  0  0  0
 36 79  1  0  0  0
 36 80  1  0  0  0
 37 38  1  0  0  0
 37 81  1  0  0  0
 38 39  2  0  0  0
 38 40  1  0  0  0
 39 82  1  0  0  0
 39 96  1  0  0  0
 40 83  1  0  0  0
 40 84  1  0  0  0
 41 42  1  0  0  0
 41 85  1  0  0  0
 42 43  1  0  0  0
 42 45  1  0  0  0
 42 86  1  0  0  0
 43 44  1  0  0  0
 43 49  2  0  0  0
 45 46  1  0  0  0
 45 87  1  0  0  0
 45 88  1  0  0  0
 46 47  1  0  0  0
 46 48  1  0  0  0
 46 89  1  0  0  0
 47 90  1  0  0  0
 47 91  1  0  0  0
 47 92  1  0  0  0
 48 93  1  0  0  0
 48 94  1  0  0  0
 48 95  1  0  0  0
M  CHG  4   1   1   7  -1  39   1  44  -1
M  END
> <s_m_source_file>
../4ikn_ligand.sdf

> <i_m_source_file_index>
1

> <s_epik_input>
W2NIXTFbY0hdYyhbT0hdKVtjSF1bY0hdYzFbQ0gyXVtDQEhdKFtOSF1DKD1PKVtDQEBIXShbTkgzK10pW0NIMl1DKD1PKVtPSF0pQyg9TylbTkhdW0NAQEhdKFtDSDJdW0NIMl1DKD1PKVtOSDJdKUMoPU8pW05IXVtDQEhdKEMoPU8pW05IXVtDQEhdKEMoPU8pW09IXSlbQ0gyXVtDSF0oW0NIM10pW0NIM10pW0NIMl1bQ0gyXVtDSDJdW05IXS9DKD1OXFtIXSlbTkgyXQ==

> <s_epik_cmdline>
J2VwaWtfYXBwJywgJy1pbWFlJywgJ2xpZ2FuZF9wcm8ubWFlJywgJy1vbWFlJywgJ2xpZ2FuZF9wcmVwLm1hZScsICctbXMnLCAnMScsICctcGgnLCAnNycsICctcGh0JywgJzAuNScsICctbnQn

> <r_lp_tautomer_probability>
0.999999999997365

> <r_epik_Ionization_Penalty>
  0.0222

> <r_epik_Ionization_Penalty_Charging>
  0.0212

> <r_epik_Ionization_Penalty_Neutral>
  0.0009

> <r_epik_State_Penalty>
  0.0168

> <r_epik_Charging_Adjusted_Penalty>
0.0380897519138058

> <i_epik_Tot_Q>
0

> <i_epik_Tot_abs_Q>
4

> <s_epik_Chemistry_Notes>
This compound has an imine and may undergo hydrolysis.

$$$$
