4ikr_ligand
                    3D
 Schrodinger Suite 2020-3.
 43 45  0  0  1  0            999 V2000
   -4.0660   -3.9660   17.1000 Cl  0  0  0  0  0  0
   -3.2660   -4.8360   15.7820 C   0  0  0  0  0  0
   -3.3480   -4.2860   14.5100 C   0  0  0  0  0  0
   -4.0260   -2.9840   14.1980 C   0  0  0  0  0  0
   -2.7230   -4.9040   13.5180 N   0  0  0  0  0  0
   -2.1090   -6.0910   13.7360 C   0  0  0  0  0  0
   -1.4400   -6.7680   12.6330 C   0  0  0  0  0  0
   -1.2040   -6.0520   11.5080 N   0  0  0  0  0  0
   -0.5470   -6.6410   10.4990 C   0  0  0  0  0  0
   -0.1680   -7.9840   10.5630 C   0  0  0  0  0  0
   -0.4340   -8.7260   11.6980 C   0  0  0  0  0  0
   -1.0550   -8.0960   12.7620 C   0  0  0  0  0  0
   -2.0310   -6.6440   14.9510 N   0  0  0  0  0  0
   -2.5990   -6.0480   15.9980 C   0  0  0  0  0  0
   -2.4010   -6.7210   17.2100 N   0  0  0  0  0  0
   -2.2600   -8.1750   17.1550 C   0  0  0  0  0  0
   -2.2240   -8.8540   18.5310 C   0  0  0  0  0  0
   -2.5600   -7.9670   19.6540 N   0  0  0  0  0  0
   -3.0640   -6.6110   19.4760 C   0  0  0  0  0  0
   -2.1610   -5.9550   18.4440 C   0  0  0  0  0  0
   -2.3870   -8.4500   21.0250 C   0  0  0  0  0  0
   -3.5300   -9.4290   21.2940 C   0  0  0  0  0  0
   -3.1500  -10.7780   20.9720 O   0  0  0  0  0  0
   -4.4990   -2.5893   15.1093 H   0  0  0  0  0  0
   -4.7937   -3.1459   13.4270 H   0  0  0  0  0  0
   -3.2822   -2.2625   13.8290 H   0  0  0  0  0  0
   -0.3033   -6.0597    9.6097 H   0  0  0  0  0  0
    0.3384   -8.4474    9.7163 H   0  0  0  0  0  0
   -0.1618   -9.7800   11.7537 H   0  0  0  0  0  0
   -1.2399   -8.6359   13.6907 H   0  0  0  0  0  0
   -3.1094   -8.6052   16.6041 H   0  0  0  0  0  0
   -1.3218   -8.4333   16.6422 H   0  0  0  0  0  0
   -2.9464   -9.6833   18.5496 H   0  0  0  0  0  0
   -1.2132   -9.2439   18.7212 H   0  0  0  0  0  0
   -4.1051   -6.6502   19.1230 H   0  0  0  0  0  0
   -3.0223   -6.0753   20.4359 H   0  0  0  0  0  0
   -1.0988   -6.0285   18.7204 H   0  0  0  0  0  0
   -2.4245   -4.9000   18.2778 H   0  0  0  0  0  0
   -1.4124   -8.9518   21.1167 H   0  0  0  0  0  0
   -2.4284   -7.5995   21.7214 H   0  0  0  0  0  0
   -3.8052   -9.3878   22.3582 H   0  0  0  0  0  0
   -4.4001   -9.1547   20.6794 H   0  0  0  0  0  0
   -3.8676  -11.5999   21.1121 H   0  0  0  0  0  0
  1  2  1  0  0  0
  2  3  2  0  0  0
  2 14  1  0  0  0
  3  4  1  0  0  0
  3  5  1  0  0  0
  4 24  1  0  0  0
  4 25  1  0  0  0
  4 26  1  0  0  0
  5  6  2  0  0  0
  6  7  1  0  0  0
  6 13  1  0  0  0
  7  8  2  0  0  0
  7 12  1  0  0  0
  8  9  1  0  0  0
  9 10  2  0  0  0
  9 27  1  0  0  0
 10 11  1  0  0  0
 10 28  1  0  0  0
 11 12  2  0  0  0
 11 29  1  0  0  0
 12 30  1  0  0  0
 13 14  2  0  0  0
 14 15  1  0  0  0
 15 16  1  0  0  0
 15 20  1  0  0  0
 16 17  1  0  0  0
 16 31  1  0  0  0
 16 32  1  0  0  0
 17 18  1  0  0  0
 17 33  1  0  0  0
 17 34  1  0  0  0
 18 19  1  0  0  0
 18 21  1  0  0  0
 19 20  1  0  0  0
 19 35  1  0  0  0
 19 36  1  0  0  0
 20 37  1  0  0  0
 20 38  1  0  0  0
 21 22  1  0  0  0
 21 39  1  0  0  0
 21 40  1  0  0  0
 22 23  1  0  0  0
 22 41  1  0  0  0
 22 42  1  0  0  0
 23 43  1  0  0  0
M  END
> <s_m_source_file>
../4ikr_ligand.sdf

> <i_m_source_file_index>
1

> <s_epik_input>
W2NIXTFbY0hdW2NIXVtjSF1uYzEtYyhuYyhjMkNsKVtDSDNdKW5jMk4zW0NIMl1bQ0gyXVtOSCtdKFtDSDJdW0NIMl0zKVtDSDJdW0NIMl1bT0hd

> <s_epik_cmdline>
J2VwaWtfYXBwJywgJy1pbWFlJywgJ2xpZ2FuZF9wcm8ubWFlJywgJy1vbWFlJywgJ2xpZ2FuZF9wcmVwLm1hZScsICctbXMnLCAnMScsICctcGgnLCAnNycsICctcGh0JywgJzAuNScsICctbnQn

> <r_lp_tautomer_probability>
1

> <r_epik_Ionization_Penalty>
  0.4057

> <r_epik_Ionization_Penalty_Charging>
  0.0000

> <r_epik_Ionization_Penalty_Neutral>
  0.4057

> <r_epik_State_Penalty>
  0.4045

> <r_epik_Charging_Adjusted_Penalty>
0.404525148573214

> <i_epik_Tot_Q>
0

> <i_epik_Tot_abs_Q>
0

$$$$
