4im0_ligand
                    3D
 Schrodinger Suite 2020-3.
 70 74  0  0  1  0            999 V2000
  103.8840    9.8990  -29.2550 C   0  0  0  0  0  0
  105.2070    9.1630  -29.4820 C   0  0  0  0  0  0
  105.3730    9.8940  -30.8150 C   0  0  0  0  0  0
  104.2680   10.8560  -30.3770 C   0  0  0  0  0  0
  104.8360   12.1550  -29.7950 C   0  0  0  0  0  0
  105.4680   12.8840  -30.5640 O   0  0  0  0  0  0
  104.5850   12.3350  -28.4680 N   0  0  0  0  0  0
  104.9690   13.4630  -27.5570 C   0  0  0  0  0  0
  106.0470   14.2880  -28.2100 C   0  0  0  0  0  0
  107.3770   13.5580  -28.3920 C   0  0  0  0  0  0
  107.9450   14.4600  -29.3760 N   0  0  0  0  0  0
  108.7210   15.5080  -29.3500 C   0  0  0  0  0  0
  109.2680   16.0670  -28.2820 N   0  0  0  0  0  0
  108.9430   16.0060  -30.6050 C   0  0  0  0  0  0
  108.2360   15.2510  -31.7380 C   0  0  0  0  0  0
  108.5120   15.7360  -33.1540 C   0  0  0  0  0  0
  107.1660   16.0300  -32.4860 C   0  0  0  0  0  0
  109.7330   17.1320  -30.7480 C   0  0  0  0  0  0
  110.2680   17.6600  -29.6510 N   0  0  0  0  0  0
  110.0580   17.1460  -28.4180 C   0  0  0  0  0  0
  110.6400   17.7410  -27.3560 N   0  0  0  0  0  0
  110.5330   17.3840  -26.0560 C   0  0  0  0  0  0
  111.2740   18.1090  -25.1260 C   0  0  0  0  0  0
  109.7750   16.3000  -25.5950 C   0  0  0  0  0  0
  109.7040   15.9640  -24.2520 C   0  0  0  0  0  0
  110.4380   16.7100  -23.3440 C   0  0  0  0  0  0
  111.2230   17.7730  -23.7780 C   0  0  0  0  0  0
  111.9980   18.5530  -22.7130 C   0  0  0  0  0  0
  113.2430   17.8470  -22.3710 N   0  0  0  0  0  0
  113.8840   18.4760  -21.2130 C   0  0  0  0  0  0
  115.1750   17.7230  -20.8810 C   0  0  0  0  0  0
  116.0890   17.7450  -22.0010 O   0  0  0  0  0  0
  115.4560   17.1220  -23.1310 C   0  0  0  0  0  0
  114.1730   17.8580  -23.5100 C   0  0  0  0  0  0
  103.0460    9.2052  -29.4171 H   0  0  0  0  0  0
  103.8493   10.2814  -28.2242 H   0  0  0  0  0  0
  105.9046    9.4027  -28.6660 H   0  0  0  0  0  0
  105.0246    8.0784  -29.5017 H   0  0  0  0  0  0
  106.4018   10.2741  -30.8991 H   0  0  0  0  0  0
  105.1704    9.1982  -31.6425 H   0  0  0  0  0  0
  103.5257   11.2130  -31.1061 H   0  0  0  0  0  0
  104.0097   11.4832  -28.0763 H   0  0  0  0  0  0
  104.0891   14.0943  -27.3642 H   0  0  0  0  0  0
  105.3433   13.0554  -26.6063 H   0  0  0  0  0  0
  105.7135   14.6015  -29.2102 H   0  0  0  0  0  0
  106.2506   15.1776  -27.5958 H   0  0  0  0  0  0
  107.9085   13.5190  -27.4297 H   0  0  0  0  0  0
  107.1878   12.5346  -28.7481 H   0  0  0  0  0  0
  107.7307   14.3134  -30.4449 H   0  0  0  0  0  0
  108.2782   14.2721  -31.2381 H   0  0  0  0  0  0
  109.3818   16.4094  -33.1479 H   0  0  0  0  0  0
  108.7211   14.8728  -33.8030 H   0  0  0  0  0  0
  106.2624   15.4103  -32.5840 H   0  0  0  0  0  0
  106.9231   16.9469  -31.9289 H   0  0  0  0  0  0
  109.9115   17.5728  -31.7288 H   0  0  0  0  0  0
  111.2851   18.6198  -27.5031 H   0  0  0  0  0  0
  111.8953   18.9417  -25.4558 H   0  0  0  0  0  0
  109.2218   15.6998  -26.3174 H   0  0  0  0  0  0
  109.0847   15.1316  -23.9178 H   0  0  0  0  0  0
  110.4000   16.4623  -22.2832 H   0  0  0  0  0  0
  112.2456   19.5530  -23.0986 H   0  0  0  0  0  0
  111.3800   18.6515  -21.8084 H   0  0  0  0  0  0
  114.1186   19.5246  -21.4484 H   0  0  0  0  0  0
  113.2022   18.4375  -20.3506 H   0  0  0  0  0  0
  115.6639   18.1967  -20.0169 H   0  0  0  0  0  0
  114.9374   16.6764  -20.6396 H   0  0  0  0  0  0
  116.1415   17.1398  -23.9911 H   0  0  0  0  0  0
  115.2061   16.0799  -22.8829 H   0  0  0  0  0  0
  113.7050   17.3573  -24.3703 H   0  0  0  0  0  0
  114.4134   18.8977  -23.7771 H   0  0  0  0  0  0
  1  2  1  0  0  0
  1  4  1  0  0  0
  1 35  1  0  0  0
  1 36  1  0  0  0
  2  3  1  0  0  0
  2 37  1  0  0  0
  2 38  1  0  0  0
  3  4  1  0  0  0
  3 39  1  0  0  0
  3 40  1  0  0  0
  4  5  1  0  0  0
  4 41  1  0  0  0
  5  6  2  0  0  0
  5  7  1  0  0  0
  7  8  1  0  0  0
  7 42  1  0  0  0
  8  9  1  0  0  0
  8 43  1  0  0  0
  8 44  1  0  0  0
  9 10  1  0  0  0
  9 45  1  0  0  0
  9 46  1  0  0  0
 10 11  1  0  0  0
 10 47  1  0  0  0
 10 48  1  0  0  0
 11 12  1  0  0  0
 11 49  1  0  0  0
 12 13  2  0  0  0
 12 14  1  0  0  0
 13 20  1  0  0  0
 14 15  1  0  0  0
 14 18  2  0  0  0
 15 16  1  0  0  0
 15 17  1  0  0  0
 15 50  1  0  0  0
 16 17  1  0  0  0
 16 51  1  0  0  0
 16 52  1  0  0  0
 17 53  1  0  0  0
 17 54  1  0  0  0
 18 19  1  0  0  0
 18 55  1  0  0  0
 19 20  2  0  0  0
 20 21  1  0  0  0
 21 22  1  0  0  0
 21 56  1  0  0  0
 22 23  2  0  0  0
 22 24  1  0  0  0
 23 27  1  0  0  0
 23 57  1  0  0  0
 24 25  2  0  0  0
 24 58  1  0  0  0
 25 26  1  0  0  0
 25 59  1  0  0  0
 26 27  2  0  0  0
 26 60  1  0  0  0
 27 28  1  0  0  0
 28 29  1  0  0  0
 28 61  1  0  0  0
 28 62  1  0  0  0
 29 30  1  0  0  0
 29 34  1  0  0  0
 30 31  1  0  0  0
 30 63  1  0  0  0
 30 64  1  0  0  0
 31 32  1  0  0  0
 31 65  1  0  0  0
 31 66  1  0  0  0
 32 33  1  0  0  0
 33 34  1  0  0  0
 33 67  1  0  0  0
 33 68  1  0  0  0
 34 69  1  0  0  0
 34 70  1  0  0  0
M  END
> <s_m_source_file>
../4im0_ligand.sdf

> <i_m_source_file_index>
1

> <s_epik_input>
W0NIMl0xW0NIMl1bQ0gyXVtDSF0xQyg9TylbTkhdW0NIMl1bQ0gyXVtDSDJdW05IXWMybmMobltjSF1jMltDSF0zW0NIMl1bQ0gyXTMpW05IXWM0W2NIXWMoW2NIXVtjSF1bY0hdNClbQ0gyXVtOSCtdNVtDSDJdW0NIMl1PW0NIMl1bQ0gyXTU=

> <s_epik_cmdline>
J2VwaWtfYXBwJywgJy1pbWFlJywgJ2xpZ2FuZF9wcm8ubWFlJywgJy1vbWFlJywgJ2xpZ2FuZF9wcmVwLm1hZScsICctbXMnLCAnMScsICctcGgnLCAnNycsICctcGh0JywgJzAuNScsICctbnQn

> <r_lp_tautomer_probability>
0.999999624730965

> <r_epik_Ionization_Penalty>
  0.4516

> <r_epik_Ionization_Penalty_Charging>
  0.0000

> <r_epik_Ionization_Penalty_Neutral>
  0.4516

> <r_epik_State_Penalty>
  0.2773

> <r_epik_Charging_Adjusted_Penalty>
0.277327297006007

> <i_epik_Tot_Q>
0

> <i_epik_Tot_abs_Q>
0

$$$$
