4imq_ligand
                    3D
 Schrodinger Suite 2020-3.
 74 75  0  0  1  0            999 V2000
  -34.8730  -38.4550   18.3140 C   0  0  0  0  0  0
  -35.3700  -39.5650   18.4620 O   0  0  0  0  0  0
  -33.7160  -38.3070   19.0280 O   0  0  0  0  0  0
  -33.3660  -37.0150   19.3930 C   0  0  0  0  0  0
  -34.0390  -36.8550   20.6140 C   0  0  0  0  0  0
  -34.9380  -37.8570   20.9370 C   0  0  0  0  0  0
  -35.6430  -37.8550   22.1280 C   0  0  0  0  0  0
  -35.4320  -36.8470   23.0540 C   0  0  0  0  0  0
  -34.5120  -35.8510   22.7660 C   0  0  0  0  0  0
  -33.8100  -35.8700   21.5660 C   0  0  0  0  0  0
  -35.6570  -37.4480   17.9150 N   0  0  0  0  0  0
  -36.9150  -37.6760   17.1300 C   0  0  2  0  0  0
  -36.8990  -37.4240   15.5890 C   0  0  0  0  0  0
  -36.5260  -36.3390   15.1150 O   0  0  0  0  0  0
  -38.0140  -36.6960   17.5910 C   0  0  0  0  0  0
  -38.3370  -36.7270   19.0950 C   0  0  0  0  0  0
  -39.4180  -35.6940   19.4550 C   0  0  0  0  0  0
  -38.8600  -38.1000   19.4810 C   0  0  0  0  0  0
  -37.5150  -38.3570   14.8380 N   0  0  0  0  0  0
  -37.5390  -38.1830   13.3530 C   0  0  2  0  0  0
  -38.4900  -36.9970   13.0120 C   0  0  0  0  0  0
  -39.5640  -36.7200   13.5650 O   0  0  0  0  0  0
  -37.9520  -39.4140   12.5070 C   0  0  0  0  0  0
  -37.0860  -40.6770   12.6870 C   0  0  0  0  0  0
  -35.8340  -40.7850   12.0830 C   0  0  0  0  0  0
  -37.5750  -41.7410   13.4360 C   0  0  0  0  0  0
  -35.0720  -41.9390   12.2460 C   0  0  0  0  0  0
  -36.8150  -42.8930   13.6000 C   0  0  0  0  0  0
  -35.5650  -42.9940   13.0050 C   0  0  0  0  0  0
  -39.1580  -35.3250   10.1080 C   0  0  0  0  0  0
  -37.0550  -32.3850   13.6200 C   0  0  0  0  0  0
  -37.9460  -36.2620   12.0960 N   0  0  0  0  0  0
  -36.2530  -31.7790   12.9330 O   0  0  0  0  0  0
  -38.5640  -35.0800   11.5480 C   0  0  1  0  0  0
  -37.5500  -33.9070   11.7940 C   0  0  0  0  0  0
  -37.1640  -32.0290   15.1210 C   0  0  0  0  0  0
  -37.6300  -33.5190   13.2090 N   0  0  0  0  0  0
  -40.2610  -35.8270    9.8420 O   0  0  0  0  0  0
  -32.2729  -36.9461   19.4945 H   0  0  0  0  0  0
  -33.7076  -36.3104   18.6204 H   0  0  0  0  0  0
  -35.0955  -38.6728   20.2315 H   0  0  0  0  0  0
  -36.3634  -38.6458   22.3369 H   0  0  0  0  0  0
  -35.9813  -36.8370   23.9954 H   0  0  0  0  0  0
  -34.3381  -35.0492   23.4836 H   0  0  0  0  0  0
  -33.0664  -35.0978   21.3688 H   0  0  0  0  0  0
  -35.3525  -36.4250   18.1810 H   0  0  0  0  0  0
  -37.0434  -38.7468   17.3464 H   0  0  0  0  0  0
  -37.7067  -35.6654   17.3598 H   0  0  0  0  0  0
  -38.9532  -36.9250   17.0662 H   0  0  0  0  0  0
  -37.4101  -36.5034   19.6435 H   0  0  0  0  0  0
  -39.0667  -34.6869   19.1861 H   0  0  0  0  0  0
  -39.6196  -35.7357   20.5356 H   0  0  0  0  0  0
  -40.3408  -35.9206   18.9008 H   0  0  0  0  0  0
  -38.1060  -38.8621   19.2346 H   0  0  0  0  0  0
  -39.7869  -38.3085   18.9265 H   0  0  0  0  0  0
  -39.0658  -38.1236   20.5613 H   0  0  0  0  0  0
  -37.9946  -39.2342   15.2968 H   0  0  0  0  0  0
  -36.4786  -38.0097   13.1172 H   0  0  0  0  0  0
  -38.9799  -39.7083   12.7655 H   0  0  0  0  0  0
  -37.9016  -39.1581   11.4384 H   0  0  0  0  0  0
  -35.4498  -39.9621   11.4803 H   0  0  0  0  0  0
  -38.5601  -41.6715   13.8973 H   0  0  0  0  0  0
  -34.0901  -42.0150   11.7790 H   0  0  0  0  0  0
  -37.2014  -43.7190   14.1972 H   0  0  0  0  0  0
  -34.9711  -43.8990   13.1327 H   0  0  0  0  0  0
  -38.4904  -35.0021    9.2956 H   0  0  0  0  0  0
  -36.9573  -36.5829   11.7361 H   0  0  0  0  0  0
  -39.4784  -34.8562   12.1171 H   0  0  0  0  0  0
  -36.5318  -34.2458   11.5522 H   0  0  0  0  0  0
  -37.8143  -33.0533   11.1527 H   0  0  0  0  0  0
  -36.6479  -31.0762   15.3102 H   0  0  0  0  0  0
  -36.6976  -32.8241   15.7212 H   0  0  0  0  0  0
  -38.2240  -31.9335   15.3991 H   0  0  0  0  0  0
  -38.1620  -34.1613   13.9262 H   0  0  0  0  0  0
  1  2  2  0  0  0
  1  3  1  0  0  0
  1 11  1  0  0  0
  3  4  1  0  0  0
  4  5  1  0  0  0
  4 39  1  0  0  0
  4 40  1  0  0  0
  5  6  2  0  0  0
  5 10  1  0  0  0
  6  7  1  0  0  0
  6 41  1  0  0  0
  7  8  2  0  0  0
  7 42  1  0  0  0
  8  9  1  0  0  0
  8 43  1  0  0  0
  9 10  2  0  0  0
  9 44  1  0  0  0
 10 45  1  0  0  0
 11 12  1  0  0  0
 11 46  1  0  0  0
 12 13  1  0  0  0
 12 15  1  0  0  0
 12 47  1  0  0  0
 13 14  2  0  0  0
 13 19  1  0  0  0
 15 16  1  0  0  0
 15 48  1  0  0  0
 15 49  1  0  0  0
 16 17  1  0  0  0
 16 18  1  0  0  0
 16 50  1  0  0  0
 17 51  1  0  0  0
 17 52  1  0  0  0
 17 53  1  0  0  0
 18 54  1  0  0  0
 18 55  1  0  0  0
 18 56  1  0  0  0
 19 20  1  0  0  0
 19 57  1  0  0  0
 20 21  1  0  0  0
 20 23  1  0  0  0
 20 58  1  0  0  0
 21 22  2  0  0  0
 21 32  1  0  0  0
 23 24  1  0  0  0
 23 59  1  0  0  0
 23 60  1  0  0  0
 24 25  2  0  0  0
 24 26  1  0  0  0
 25 27  1  0  0  0
 25 61  1  0  0  0
 26 28  2  0  0  0
 26 62  1  0  0  0
 27 29  2  0  0  0
 27 63  1  0  0  0
 28 29  1  0  0  0
 28 64  1  0  0  0
 29 65  1  0  0  0
 30 34  1  0  0  0
 30 38  2  0  0  0
 30 66  1  0  0  0
 31 33  2  0  0  0
 31 36  1  0  0  0
 31 37  1  0  0  0
 32 34  1  0  0  0
 32 67  1  0  0  0
 34 35  1  0  0  0
 34 68  1  0  0  0
 35 37  1  0  0  0
 35 69  1  0  0  0
 35 70  1  0  0  0
 36 71  1  0  0  0
 36 72  1  0  0  0
 36 73  1  0  0  0
 37 74  1  0  0  0
M  END
> <s_m_source_file>
../4imq_ligand.sdf

> <i_m_source_file_index>
1

> <s_epik_input>
W2NIXTFbY0hdW2NIXVtjSF1bY0hdYzFbQ0gyXU9DKD1PKVtOSF1bQ0BASF0oW0NIMl1bQ0hdKFtDSDNdKVtDSDNdKUMoPU8pW05IXVtDQEhdKEMoPU8pW05IXVtDQEhdKFtDSF09TylbQ0gyXVtOSF1DKD1PKVtDSDNdKVtDSDJdYzJbY0hdW2NIXVtjSF1bY0hdW2NIXTI=

> <s_epik_cmdline>
J2VwaWtfYXBwJywgJy1pbWFlJywgJ2xpZ2FuZF9wcm8ubWFlJywgJy1vbWFlJywgJ2xpZ2FuZF9wcmVwLm1hZScsICctbXMnLCAnMScsICctcGgnLCAnNycsICctcGh0JywgJzAuNScsICctbnQn

> <r_lp_tautomer_probability>
1

> <r_epik_Ionization_Penalty>
  0.0028

> <r_epik_Ionization_Penalty_Charging>
  0.0000

> <r_epik_Ionization_Penalty_Neutral>
  0.0028

> <r_epik_State_Penalty>
 -0.0000

> <r_epik_Charging_Adjusted_Penalty>
0

> <i_epik_Tot_Q>
0

> <i_epik_Tot_abs_Q>
0

> <s_epik_Chemistry_Notes>
This compound has an ester and may undergo hydrolysis at high or low pH.

$$$$
