4imz_ligand
                    3D
 Schrodinger Suite 2020-3.
 80 81  0  0  1  0            999 V2000
   35.2720   38.4570   18.0520 C   0  0  0  0  0  0
   35.6890   39.5720   18.2830 O   0  0  0  0  0  0
   34.1070   38.0750   18.4750 O   0  0  0  0  0  0
   33.2080   39.0800   18.2820 C   0  0  0  0  0  0
   31.8530   38.8130   18.2840 C   0  0  0  0  0  0
   31.3790   37.6800   17.7210 C   0  0  0  0  0  0
   30.0660   37.3830   17.6890 C   0  0  0  0  0  0
   29.1730   38.2740   18.1860 C   0  0  0  0  0  0
   29.6350   39.4120   18.7610 C   0  0  0  0  0  0
   30.9520   39.7030   18.8030 C   0  0  0  0  0  0
   35.9420   37.5690   17.4130 N   0  0  0  0  0  0
   37.2390   37.8640   16.9080 C   0  0  2  0  0  0
   37.1770   37.5950   15.4100 C   0  0  0  0  0  0
   36.5700   36.6270   14.9750 O   0  0  0  0  0  0
   38.2680   36.9350   17.4980 C   0  0  0  0  0  0
   38.2960   36.9350   19.0160 C   0  0  0  0  0  0
   38.9380   35.6540   19.4520 C   0  0  0  0  0  0
   39.1030   38.1100   19.4430 C   0  0  0  0  0  0
   37.8110   38.5020   14.6950 N   0  0  0  0  0  0
   37.8760   38.4130   13.2300 C   0  0  2  0  0  0
   38.5570   37.0990   12.8830 C   0  0  0  0  0  0
   39.5380   36.7360   13.4890 O   0  0  0  0  0  0
   38.6460   39.5930   12.6210 C   0  0  0  0  0  0
   37.7890   40.8930   12.5810 C   0  0  0  0  0  0
   38.1240   42.0320   13.3200 C   0  0  0  0  0  0
   36.6520   40.9670   11.8190 C   0  0  0  0  0  0
   37.3220   43.1680   13.2870 C   0  0  0  0  0  0
   35.8740   42.0970   11.7730 C   0  0  0  0  0  0
   36.2070   43.2270   12.5130 C   0  0  0  0  0  0
   39.1160   35.2080   10.0550 C   0  0  0  0  0  0
   37.0360   32.4780   13.8150 C   0  0  0  0  0  0
   37.5440   33.8500   13.3520 C   0  0  0  0  0  0
   38.0260   36.4390   11.8760 N   0  0  0  0  0  0
   36.3720   31.7930   13.0870 O   0  0  0  0  0  0
   37.3300   32.1100   15.0510 N   0  0  0  0  0  0
   38.0600   32.9910   15.9550 C   0  0  0  0  0  0
   36.8580   30.8290   15.4770 C   0  0  0  0  0  0
   38.5880   35.1670   11.5130 C   0  0  1  0  0  0
   37.5570   34.0790   11.8670 C   0  0  0  0  0  0
   39.9130   36.0150    9.6040 O   0  0  0  0  0  0
   33.3279   39.8359   19.0721 H   0  0  0  0  0  0
   33.3826   39.5447   17.3004 H   0  0  0  0  0  0
   32.0861   36.9800   17.2759 H   0  0  0  0  0  0
   29.7249   36.4371   17.2683 H   0  0  0  0  0  0
   28.1024   38.0790   18.1245 H   0  0  0  0  0  0
   28.9233   40.1105   19.2011 H   0  0  0  0  0  0
   31.2950   40.6380   19.2460 H   0  0  0  0  0  0
   35.5047   36.5718   17.2570 H   0  0  0  0  0  0
   37.4686   38.9026   17.1883 H   0  0  0  0  0  0
   38.0591   35.9043   17.1757 H   0  0  0  0  0  0
   39.2698   37.2310   17.1533 H   0  0  0  0  0  0
   37.2993   37.0093   19.4754 H   0  0  0  0  0  0
   38.3213   34.8044   19.1236 H   0  0  0  0  0  0
   39.0247   35.6420   20.5485 H   0  0  0  0  0  0
   39.9396   35.5748   19.0041 H   0  0  0  0  0  0
   38.6089   39.0347   19.1101 H   0  0  0  0  0  0
   40.1058   38.0484   18.9951 H   0  0  0  0  0  0
   39.1909   38.1155   20.5395 H   0  0  0  0  0  0
   38.2979   39.3387   15.2173 H   0  0  0  0  0  0
   36.8439   38.4465   12.8510 H   0  0  0  0  0  0
   39.5451   39.7935   13.2222 H   0  0  0  0  0  0
   38.9415   39.3455   11.5908 H   0  0  0  0  0  0
   39.0268   42.0295   13.9308 H   0  0  0  0  0  0
   36.3556   40.0993   11.2297 H   0  0  0  0  0  0
   37.5942   44.0302   13.8958 H   0  0  0  0  0  0
   34.9817   42.1091   11.1471 H   0  0  0  0  0  0
   35.5949   44.1280   12.4732 H   0  0  0  0  0  0
   38.7064   34.4188    9.4074 H   0  0  0  0  0  0
   36.9073   34.6395   13.7778 H   0  0  0  0  0  0
   38.5804   33.9913   13.6925 H   0  0  0  0  0  0
   37.1694   36.8419   11.3157 H   0  0  0  0  0  0
   38.3272   33.9182   15.4270 H   0  0  0  0  0  0
   38.9758   32.4872   16.2978 H   0  0  0  0  0  0
   37.4276   33.2321   16.8221 H   0  0  0  0  0  0
   36.3377   30.3342   14.6436 H   0  0  0  0  0  0
   36.1625   30.9562   16.3197 H   0  0  0  0  0  0
   37.7107   30.2113   15.7953 H   0  0  0  0  0  0
   39.4777   34.9790   12.1320 H   0  0  0  0  0  0
   37.8261   33.1438   11.3541 H   0  0  0  0  0  0
   36.5591   34.4040   11.5373 H   0  0  0  0  0  0
  1  2  2  0  0  0
  1  3  1  0  0  0
  1 11  1  0  0  0
  3  4  1  0  0  0
  4  5  1  0  0  0
  4 41  1  0  0  0
  4 42  1  0  0  0
  5  6  2  0  0  0
  5 10  1  0  0  0
  6  7  1  0  0  0
  6 43  1  0  0  0
  7  8  2  0  0  0
  7 44  1  0  0  0
  8  9  1  0  0  0
  8 45  1  0  0  0
  9 10  2  0  0  0
  9 46  1  0  0  0
 10 47  1  0  0  0
 11 12  1  0  0  0
 11 48  1  0  0  0
 12 13  1  0  0  0
 12 15  1  0  0  0
 12 49  1  0  0  0
 13 14  2  0  0  0
 13 19  1  0  0  0
 15 16  1  0  0  0
 15 50  1  0  0  0
 15 51  1  0  0  0
 16 17  1  0  0  0
 16 18  1  0  0  0
 16 52  1  0  0  0
 17 53  1  0  0  0
 17 54  1  0  0  0
 17 55  1  0  0  0
 18 56  1  0  0  0
 18 57  1  0  0  0
 18 58  1  0  0  0
 19 20  1  0  0  0
 19 59  1  0  0  0
 20 21  1  0  0  0
 20 23  1  0  0  0
 20 60  1  0  0  0
 21 22  2  0  0  0
 21 33  1  0  0  0
 23 24  1  0  0  0
 23 61  1  0  0  0
 23 62  1  0  0  0
 24 25  2  0  0  0
 24 26  1  0  0  0
 25 27  1  0  0  0
 25 63  1  0  0  0
 26 28  2  0  0  0
 26 64  1  0  0  0
 27 29  2  0  0  0
 27 65  1  0  0  0
 28 29  1  0  0  0
 28 66  1  0  0  0
 29 67  1  0  0  0
 30 38  1  0  0  0
 30 40  2  0  0  0
 30 68  1  0  0  0
 31 32  1  0  0  0
 31 34  2  0  0  0
 31 35  1  0  0  0
 32 39  1  0  0  0
 32 69  1  0  0  0
 32 70  1  0  0  0
 33 38  1  0  0  0
 33 71  1  0  0  0
 35 36  1  0  0  0
 35 37  1  0  0  0
 36 72  1  0  0  0
 36 73  1  0  0  0
 36 74  1  0  0  0
 37 75  1  0  0  0
 37 76  1  0  0  0
 37 77  1  0  0  0
 38 39  1  0  0  0
 38 78  1  0  0  0
 39 79  1  0  0  0
 39 80  1  0  0  0
M  END
> <s_m_source_file>
../4imz_ligand.sdf

> <i_m_source_file_index>
1

> <s_epik_input>
W2NIXTFbY0hdW2NIXVtjSF1bY0hdYzFbQ0gyXU9DKD1PKVtOSF1bQ0BASF0oW0NIMl1bQ0hdKFtDSDNdKVtDSDNdKUMoPU8pW05IXVtDQEBIXShbQ0gyXWMyW2NIXVtjSF1bY0hdW2NIXVtjSF0yKUMoPU8pW05IXVtDQEhdKFtDSF09TylbQ0gyXVtDSDJdQyg9TylOKFtDSDNdKVtDSDNd

> <s_epik_cmdline>
J2VwaWtfYXBwJywgJy1pbWFlJywgJ2xpZ2FuZF9wcm8ubWFlJywgJy1vbWFlJywgJ2xpZ2FuZF9wcmVwLm1hZScsICctbXMnLCAnMScsICctcGgnLCAnNycsICctcGh0JywgJzAuNScsICctbnQn

> <r_lp_tautomer_probability>
1

> <r_epik_Ionization_Penalty>
  0.0011

> <r_epik_Ionization_Penalty_Charging>
  0.0000

> <r_epik_Ionization_Penalty_Neutral>
  0.0011

> <r_epik_State_Penalty>
 -0.0000

> <r_epik_Charging_Adjusted_Penalty>
0

> <i_epik_Tot_Q>
0

> <i_epik_Tot_abs_Q>
0

> <s_epik_Chemistry_Notes>
This compound has an ester and may undergo hydrolysis at high or low pH.

$$$$
