4inb_ligand
                    3D
 Schrodinger Suite 2020-3.
 50 52  0  0  1  0            999 V2000
   26.8060   14.0140   38.1320 C   0  0  0  0  0  0
   27.3780   12.7460   38.3380 C   0  0  0  0  0  0
   26.7010   11.6610   39.0060 C   0  0  0  0  0  0
   25.3740   11.8860   39.4860 C   0  0  0  0  0  0
   24.7830   13.1970   39.2660 C   0  0  0  0  0  0
   25.4850   14.2360   38.6050 C   0  0  0  0  0  0
   27.4290   10.4100   39.1510 N   0  0  0  0  0  0
   26.9080    9.1150   38.8630 C   0  0  0  0  0  0
   25.4210    8.8820   38.8640 C   0  0  0  0  0  0
   24.5240    9.5030   39.8900 C   0  0  0  0  0  0
   24.5920   10.8900   40.1780 N   0  0  0  0  0  0
   24.8240    8.0770   37.9780 C   0  0  0  0  0  0
   25.3450    7.3410   36.9420 N   0  0  0  0  0  0
   24.5920    6.3920   36.1270 C   0  0  0  0  0  0
   24.0210    7.0630   34.8710 C   0  0  0  0  0  0
   23.4390    8.3510   35.1900 O   0  0  0  0  0  0
   23.4790    9.2280   34.0630 C   0  0  0  0  0  0
   28.8340   10.5270   39.5880 C   0  0  0  0  0  0
   29.1630   10.9160   40.9340 C   0  0  0  0  0  0
   30.5150   11.0390   41.3430 C   0  0  0  0  0  0
   31.5640   10.7780   40.4200 C   0  0  0  0  0  0
   31.2690   10.3910   39.0900 C   0  0  0  0  0  0
   29.9220   10.2670   38.6750 C   0  0  0  0  0  0
   23.7680   11.3480   41.3250 C   0  0  0  0  0  0
   27.6120   15.0870   37.4330 C   0  0  0  0  0  0
   28.9620   14.8520   37.4540 F   0  0  0  0  0  0
   27.4590   16.3160   38.0070 F   0  0  0  0  0  0
   27.2920   15.2330   36.1240 F   0  0  0  0  0  0
   27.6210    8.1460   38.5710 O   0  0  0  0  0  0
   23.6990    8.7590   40.4460 O   0  0  0  0  0  0
   28.3902   12.5730   37.9723 H   0  0  0  0  0  0
   23.7696   13.3860   39.6202 H   0  0  0  0  0  0
   25.0106   15.2065   38.4595 H   0  0  0  0  0  0
   23.7352    7.9259   38.0186 H   0  0  0  0  0  0
   25.2542    5.5713   35.8140 H   0  0  0  0  0  0
   23.7567    5.9850   36.7158 H   0  0  0  0  0  0
   24.8263    7.2118   34.1365 H   0  0  0  0  0  0
   23.2410    6.4215   34.4350 H   0  0  0  0  0  0
   23.0314   10.1953   34.3351 H   0  0  0  0  0  0
   22.9127    8.7828   33.2317 H   0  0  0  0  0  0
   24.5237    9.3812   33.7545 H   0  0  0  0  0  0
   28.3638   11.1183   41.6470 H   0  0  0  0  0  0
   30.7501   11.3338   42.3657 H   0  0  0  0  0  0
   32.6020   10.8763   40.7378 H   0  0  0  0  0  0
   32.0778   10.1891   38.3877 H   0  0  0  0  0  0
   29.7021    9.9704   37.6494 H   0  0  0  0  0  0
   23.8953   12.4325   41.4580 H   0  0  0  0  0  0
   24.0891   10.8263   42.2386 H   0  0  0  0  0  0
   22.7091   11.1245   41.1281 H   0  0  0  0  0  0
   26.4140    7.5089   36.7442 H   0  0  0  0  0  0
  1  2  2  0  0  0
  1  6  1  0  0  0
  1 25  1  0  0  0
  2  3  1  0  0  0
  2 31  1  0  0  0
  3  4  2  0  0  0
  3  7  1  0  0  0
  4  5  1  0  0  0
  4 11  1  0  0  0
  5  6  2  0  0  0
  5 32  1  0  0  0
  6 33  1  0  0  0
  7  8  1  0  0  0
  7 18  1  0  0  0
  8  9  1  0  0  0
  8 29  2  0  0  0
  9 10  1  0  0  0
  9 12  2  0  0  0
 10 11  1  0  0  0
 10 30  2  0  0  0
 11 24  1  0  0  0
 12 13  1  0  0  0
 12 34  1  0  0  0
 13 14  1  0  0  0
 13 50  1  0  0  0
 14 15  1  0  0  0
 14 35  1  0  0  0
 14 36  1  0  0  0
 15 16  1  0  0  0
 15 37  1  0  0  0
 15 38  1  0  0  0
 16 17  1  0  0  0
 17 39  1  0  0  0
 17 40  1  0  0  0
 17 41  1  0  0  0
 18 19  2  0  0  0
 18 23  1  0  0  0
 19 20  1  0  0  0
 19 42  1  0  0  0
 20 21  2  0  0  0
 20 43  1  0  0  0
 21 22  1  0  0  0
 21 44  1  0  0  0
 22 23  2  0  0  0
 22 45  1  0  0  0
 23 46  1  0  0  0
 24 47  1  0  0  0
 24 48  1  0  0  0
 24 49  1  0  0  0
 25 26  1  0  0  0
 25 27  1  0  0  0
 25 28  1  0  0  0
M  END
> <s_m_source_file>
../4inb_ligand.sdf

> <i_m_source_file_index>
1

> <s_epik_input>
RkMoRikoRiljKFtjSF0xKVtjSF1bY0hdYyhjMTIpTihbQ0gzXSlDKD1PKUMoPVtDSF1cW05IXVtDSDJdW0NIMl1PW0NIM10pXEMoPU8pTjJjM1tjSF1bY0hdW2NIXVtjSF1bY0hdMw==

> <s_epik_cmdline>
J2VwaWtfYXBwJywgJy1pbWFlJywgJ2xpZ2FuZF9wcm8ubWFlJywgJy1vbWFlJywgJ2xpZ2FuZF9wcmVwLm1hZScsICctbXMnLCAnMScsICctcGgnLCAnNycsICctcGh0JywgJzAuNScsICctbnQn

> <r_lp_tautomer_probability>
0.499999999999422

> <r_epik_Ionization_Penalty>
  0.0136

> <r_epik_Ionization_Penalty_Charging>
  0.0000

> <r_epik_Ionization_Penalty_Neutral>
  0.0136

> <r_epik_State_Penalty>
  0.0000

> <r_epik_Charging_Adjusted_Penalty>
8.97885179566361e-14

> <i_epik_Tot_Q>
0

> <i_epik_Tot_abs_Q>
0

$$$$
