4inh_ligand
                    3D
 Schrodinger Suite 2020-3.
 70 70  0  0  1  0            999 V2000
   -7.5330   62.7740   88.4050 C   0  0  0  0  0  0
   -7.4780   62.7450   89.6390 O   0  0  0  0  0  0
   -6.6690   63.5560   87.7020 O   0  0  0  0  0  0
   -5.5370   64.0810   88.4060 C   0  0  0  0  0  0
   -4.3660   63.6200   87.7790 C   0  0  0  0  0  0
   -3.1830   63.2990   88.4430 C   0  0  0  0  0  0
   -2.0870   62.8340   87.7120 C   0  0  0  0  0  0
   -2.1620   62.6780   86.3290 C   0  0  0  0  0  0
   -3.3480   62.9860   85.6740 C   0  0  0  0  0  0
   -4.4370   63.4460   86.4020 C   0  0  0  0  0  0
   -8.5590   62.2870   87.7110 N   0  0  0  0  0  0
   -9.5730   61.4320   88.3180 C   0  0  2  0  0  0
   -9.5240   60.0890   87.5740 C   0  0  0  0  0  0
   -9.2360   60.0740   86.3720 O   0  0  0  0  0  0
  -10.9340   62.0810   88.0870 C   0  0  0  0  0  0
   -9.6220   58.9480   88.1170 N   0  0  0  0  0  0
   -9.6240   57.6180   87.4740 C   0  0  2  0  0  0
  -10.7890   57.6640   86.5050 C   0  0  0  0  0  0
  -11.8650   58.2040   86.7720 O   0  0  0  0  0  0
   -9.9770   56.5470   88.4950 C   0  0  0  0  0  0
   -8.8940   56.4510   89.5720 C   0  0  0  0  0  0
   -9.2480   55.5170   90.6820 C   0  0  0  0  0  0
   -7.6070   55.9240   88.9330 C   0  0  0  0  0  0
  -12.2410   55.5580   84.1310 C   0  0  0  0  0  0
  -11.2780   60.1690   82.2880 C   0  0  0  0  0  0
  -11.3270   59.3030   83.5450 C   0  0  0  0  0  0
  -10.5770   56.9980   85.4660 N   0  0  0  0  0  0
  -10.9200   59.7260   81.1870 O   0  0  0  0  0  0
  -11.7590   61.3970   82.4730 N   0  0  0  0  0  0
  -12.1490   61.8050   83.8360 C   0  0  0  0  0  0
  -11.7770   62.3450   81.3490 C   0  0  0  0  0  0
  -11.6670   56.9680   84.4650 C   0  0  1  0  0  0
  -11.4340   57.7970   83.1930 C   0  0  0  0  0  0
  -12.4280   54.6810   85.0161 O   0  0  0  0  0  0
  -12.5279   55.2858   82.9347 O   0  5  0  0  0  0
   -5.5673   65.1803   88.3812 H   0  0  0  0  0  0
   -5.5630   63.7370   89.4505 H   0  0  0  0  0  0
   -3.1136   63.4101   89.5251 H   0  0  0  0  0  0
   -1.1600   62.5897   88.2307 H   0  0  0  0  0  0
   -1.2998   62.3183   85.7675 H   0  0  0  0  0  0
   -3.4231   62.8670   84.5931 H   0  0  0  0  0  0
   -5.3674   63.6755   85.8826 H   0  0  0  0  0  0
   -8.6272   62.5494   86.6449 H   0  0  0  0  0  0
   -9.3704   61.3225   89.3936 H   0  0  0  0  0  0
  -10.9759   63.0438   88.6174 H   0  0  0  0  0  0
  -11.7255   61.4183   88.4670 H   0  0  0  0  0  0
  -11.0821   62.2489   87.0100 H   0  0  0  0  0  0
   -9.7145   59.0306   89.2100 H   0  0  0  0  0  0
   -8.6404   57.4201   87.0231 H   0  0  0  0  0  0
  -10.9346   56.7987   88.9743 H   0  0  0  0  0  0
  -10.0644   55.5736   87.9901 H   0  0  0  0  0  0
   -8.7841   57.4513   90.0161 H   0  0  0  0  0  0
  -10.1717   55.8611   91.1702 H   0  0  0  0  0  0
   -8.4306   55.4954   91.4177 H   0  0  0  0  0  0
   -9.4025   54.5065   90.2757 H   0  0  0  0  0  0
   -7.3100   56.5865   88.1066 H   0  0  0  0  0  0
   -7.7790   54.9090   88.5456 H   0  0  0  0  0  0
   -6.8071   55.8978   89.6876 H   0  0  0  0  0  0
  -10.4109   59.4589   84.1336 H   0  0  0  0  0  0
  -12.2028   59.5826   84.1490 H   0  0  0  0  0  0
   -9.6409   56.4523   85.2763 H   0  0  0  0  0  0
  -12.0620   60.9443   84.5154 H   0  0  0  0  0  0
  -13.1893   62.1624   83.8282 H   0  0  0  0  0  0
  -11.4864   62.6126   84.1807 H   0  0  0  0  0  0
  -11.4516   61.8324   80.4318 H   0  0  0  0  0  0
  -11.0950   63.1810   81.5635 H   0  0  0  0  0  0
  -12.7979   62.7307   81.2110 H   0  0  0  0  0  0
  -12.4097   57.5144   85.0649 H   0  0  0  0  0  0
  -12.2763   57.6407   82.5030 H   0  0  0  0  0  0
  -10.5011   57.4652   82.7138 H   0  0  0  0  0  0
  1  2  2  0  0  0
  1  3  1  0  0  0
  1 11  1  0  0  0
  3  4  1  0  0  0
  4  5  1  0  0  0
  4 36  1  0  0  0
  4 37  1  0  0  0
  5  6  2  0  0  0
  5 10  1  0  0  0
  6  7  1  0  0  0
  6 38  1  0  0  0
  7  8  2  0  0  0
  7 39  1  0  0  0
  8  9  1  0  0  0
  8 40  1  0  0  0
  9 10  2  0  0  0
  9 41  1  0  0  0
 10 42  1  0  0  0
 11 12  1  0  0  0
 11 43  1  0  0  0
 12 13  1  0  0  0
 12 15  1  0  0  0
 12 44  1  0  0  0
 13 14  2  0  0  0
 13 16  1  0  0  0
 15 45  1  0  0  0
 15 46  1  0  0  0
 15 47  1  0  0  0
 16 17  1  0  0  0
 16 48  1  0  0  0
 17 18  1  0  0  0
 17 20  1  0  0  0
 17 49  1  0  0  0
 18 19  2  0  0  0
 18 27  1  0  0  0
 20 21  1  0  0  0
 20 50  1  0  0  0
 20 51  1  0  0  0
 21 22  1  0  0  0
 21 23  1  0  0  0
 21 52  1  0  0  0
 22 53  1  0  0  0
 22 54  1  0  0  0
 22 55  1  0  0  0
 23 56  1  0  0  0
 23 57  1  0  0  0
 23 58  1  0  0  0
 24 32  1  0  0  0
 24 34  2  0  0  0
 24 35  1  0  0  0
 25 26  1  0  0  0
 25 28  2  0  0  0
 25 29  1  0  0  0
 26 33  1  0  0  0
 26 59  1  0  0  0
 26 60  1  0  0  0
 27 32  1  0  0  0
 27 61  1  0  0  0
 29 30  1  0  0  0
 29 31  1  0  0  0
 30 62  1  0  0  0
 30 63  1  0  0  0
 30 64  1  0  0  0
 31 65  1  0  0  0
 31 66  1  0  0  0
 31 67  1  0  0  0
 32 33  1  0  0  0
 32 68  1  0  0  0
 33 69  1  0  0  0
 33 70  1  0  0  0
M  CHG  1  35  -1
M  END
> <s_m_source_file>
../4inh_ligand.sdf

> <i_m_source_file_index>
1

> <s_epik_input>
W2NIXTFbY0hdW2NIXVtjSF1bY0hdYzFbQ0gyXU9DKD1PKVtOSF1bQ0BASF0oW0NIM10pQyg9TylbTkhdW0NAQEhdKFtDSDJdW0NIXShbQ0gzXSlbQ0gzXSlDKD1PKVtOSF1bQ0BIXShDKD1PKVtPSF0pW0NIMl1bQ0gyXUMoPU8pTihbQ0gzXSlbQ0gzXQ==

> <s_epik_cmdline>
J2VwaWtfYXBwJywgJy1pbWFlJywgJ2xpZ2FuZF9wcm8ubWFlJywgJy1vbWFlJywgJ2xpZ2FuZF9wcmVwLm1hZScsICctbXMnLCAnMScsICctcGgnLCAnNycsICctcGh0JywgJzAuNScsICctbnQn

> <r_lp_tautomer_probability>
1

> <r_epik_Ionization_Penalty>
  0.0001

> <r_epik_Ionization_Penalty_Charging>
  0.0001

> <r_epik_Ionization_Penalty_Neutral>
  0.0000

> <r_epik_State_Penalty>
 -0.0000

> <r_epik_Charging_Adjusted_Penalty>
0.000103472753024161

> <i_epik_Tot_Q>
-1

> <i_epik_Tot_abs_Q>
1

> <s_epik_Chemistry_Notes>
This compound has an ester and may undergo hydrolysis at high or low pH.

$$$$
