4inr_ligand
                    3D
 Schrodinger Suite 2020-3.
 96 97  0  0  1  0            999 V2000
   59.9250 -135.1340   34.4390 C   0  0  0  0  0  0
   60.0380 -136.3170   34.7400 O   0  0  0  0  0  0
   58.5980 -134.6670   33.9020 C   0  0  1  0  0  0
   58.5820 -135.2860   32.5910 N   0  0  0  0  0  0
   59.2490 -134.9040   31.6760 N   0  0  0  0  0  0
   59.8850 -134.5850   30.7180 N   0  0  0  0  0  0
   57.3680 -135.1210   34.7340 C   0  0  0  0  0  0
   56.0810 -134.5060   34.1550 C   0  0  0  0  0  0
   55.3860 -135.1330   33.1040 C   0  0  0  0  0  0
   54.2150 -134.5620   32.5860 C   0  0  0  0  0  0
   55.5800 -133.3040   34.6840 C   0  0  0  0  0  0
   54.4080 -132.7310   34.1690 C   0  0  0  0  0  0
   53.7250 -133.3620   33.1190 C   0  0  0  0  0  0
   60.9120 -134.2080   34.5420 N   0  0  0  0  0  0
   62.1280 -134.4550   35.3200 C   0  0  2  0  0  0
   61.7590 -134.6570   36.7580 C   0  0  0  0  0  0
   61.2290 -133.7240   37.3460 O   0  0  0  0  0  0
   63.0850 -133.2410   35.1000 C   0  0  0  0  0  0
   64.2950 -133.5010   34.1520 C   0  0  0  0  0  0
   65.5360 -132.7170   34.6800 C   0  0  0  0  0  0
   64.0390 -133.0560   32.6760 C   0  0  0  0  0  0
   62.0250 -135.8730   37.2940 N   0  0  0  0  0  0
   61.7950 -136.1310   38.7070 C   0  0  2  0  0  0
   63.0830 -136.1430   39.4960 C   0  0  0  0  0  0
   64.1090 -136.5370   38.9580 O   0  0  0  0  0  0
   61.0350 -137.4690   38.9280 C   0  0  0  0  0  0
   59.5460 -137.5000   38.4490 C   0  0  0  0  0  0
   58.5190 -136.9860   39.5070 C   0  0  0  0  0  0
   59.1710 -138.9650   38.0700 C   0  0  0  0  0  0
   62.7240 -139.4960   42.4990 O   0  0  0  0  0  0
   61.8950 -138.6090   43.2940 S   0  0  0  0  0  0
   61.7300 -138.8890   44.7100 O   0  0  0  0  0  0
   60.2610 -138.5080   42.5510 C   0  0  0  0  0  0
   62.4440 -136.8950   43.0720 C   0  0  0  0  0  0
   63.9690 -136.7020   42.7880 C   0  0  0  0  0  0
   64.1360 -135.5950   41.6820 C   0  0  2  0  0  0
   64.1090 -134.2250   42.4280 C   0  0  0  0  0  0
   64.7910 -132.9650   41.8790 C   0  0  0  0  0  0
   64.4900 -131.7640   42.5450 C   0  0  0  0  0  0
   65.0550 -130.5560   42.1320 C   0  0  0  0  0  0
   65.9380 -130.5240   41.0410 C   0  0  0  0  0  0
   66.5160 -129.1510   40.6520 C   0  0  0  0  0  0
   65.8950 -128.4910   39.4830 N   0  3  0  0  0  0
   66.2440 -131.7240   40.3730 C   0  0  0  0  0  0
   65.6760 -132.9420   40.7870 C   0  0  0  0  0  0
   62.9940 -135.7020   40.7760 N   0  0  0  0  0  0
   58.5403 -133.5693   33.8607 H   0  0  0  0  0  0
   57.2893 -136.2178   34.7034 H   0  0  0  0  0  0
   57.4884 -134.7910   35.7764 H   0  0  0  0  0  0
   55.7607 -136.0690   32.6899 H   0  0  0  0  0  0
   53.6856 -135.0515   31.7686 H   0  0  0  0  0  0
   56.1071 -132.8127   35.5019 H   0  0  0  0  0  0
   54.0287 -131.7972   34.5840 H   0  0  0  0  0  0
   52.8134 -132.9192   32.7177 H   0  0  0  0  0  0
   60.7786 -133.2492   34.0196 H   0  0  0  0  0  0
   62.5966 -135.3945   34.9917 H   0  0  0  0  0  0
   62.5215 -132.4049   34.6603 H   0  0  0  0  0  0
   63.5098 -132.9293   36.0656 H   0  0  0  0  0  0
   64.4594 -134.5887   34.1520 H   0  0  0  0  0  0
   65.7401 -133.0111   35.7201 H   0  0  0  0  0  0
   65.3325 -131.6368   34.6376 H   0  0  0  0  0  0
   66.4103 -132.9503   34.0546 H   0  0  0  0  0  0
   63.1669 -133.5945   32.2767 H   0  0  0  0  0  0
   64.9239 -133.2869   32.0647 H   0  0  0  0  0  0
   63.8461 -131.9734   32.6477 H   0  0  0  0  0  0
   62.4195 -136.6699   36.6465 H   0  0  0  0  0  0
   61.1947 -135.2662   39.0261 H   0  0  0  0  0  0
   61.5474 -138.2759   38.3837 H   0  0  0  0  0  0
   61.0150 -137.7063   40.0019 H   0  0  0  0  0  0
   59.4814 -136.8169   37.5892 H   0  0  0  0  0  0
   58.7678 -135.9518   39.7872 H   0  0  0  0  0  0
   58.5598 -137.6277   40.3995 H   0  0  0  0  0  0
   57.5059 -137.0164   39.0795 H   0  0  0  0  0  0
   59.8847 -139.3449   37.3242 H   0  0  0  0  0  0
   58.1549 -138.9862   37.6492 H   0  0  0  0  0  0
   59.2088 -139.5975   38.9692 H   0  0  0  0  0  0
   59.7731 -139.4925   42.6029 H   0  0  0  0  0  0
   60.3549 -138.2003   41.4991 H   0  0  0  0  0  0
   59.6553 -137.7693   43.0964 H   0  0  0  0  0  0
   61.9129 -136.4475   42.2190 H   0  0  0  0  0  0
   62.2252 -136.3189   43.9832 H   0  0  0  0  0  0
   64.4772 -136.3887   43.7119 H   0  0  0  0  0  0
   64.3995 -137.6513   42.4365 H   0  0  0  0  0  0
   65.0297 -135.6994   41.0492 H   0  0  0  0  0  0
   63.0669 -133.8954   42.5518 H   0  0  0  0  0  0
   64.5781 -134.3365   43.4167 H   0  0  0  0  0  0
   63.8070 -131.7762   43.3944 H   0  0  0  0  0  0
   64.8095 -129.6339   42.6588 H   0  0  0  0  0  0
   66.3993 -128.4523   41.4935 H   0  0  0  0  0  0
   67.5836 -129.2579   40.4096 H   0  0  0  0  0  0
   66.3880 -127.5242   39.3030 H   0  0  0  0  0  0
   64.8255 -128.3261   39.6803 H   0  0  0  0  0  0
   66.0098 -129.1318   38.5963 H   0  0  0  0  0  0
   66.9289 -131.7093   39.5252 H   0  0  0  0  0  0
   65.9212 -133.8656   40.2627 H   0  0  0  0  0  0
   61.9894 -135.4161   41.1212 H   0  0  0  0  0  0
  1  2  2  0  0  0
  1  3  1  0  0  0
  1 14  1  0  0  0
  3  4  1  0  0  0
  3  7  1  0  0  0
  3 47  1  0  0  0
  4  5  2  0  0  0
  5  6  3  0  0  0
  7  8  1  0  0  0
  7 48  1  0  0  0
  7 49  1  0  0  0
  8  9  2  0  0  0
  8 11  1  0  0  0
  9 10  1  0  0  0
  9 50  1  0  0  0
 10 13  2  0  0  0
 10 51  1  0  0  0
 11 12  2  0  0  0
 11 52  1  0  0  0
 12 13  1  0  0  0
 12 53  1  0  0  0
 13 54  1  0  0  0
 14 15  1  0  0  0
 14 55  1  0  0  0
 15 16  1  0  0  0
 15 18  1  0  0  0
 15 56  1  0  0  0
 16 17  2  0  0  0
 16 22  1  0  0  0
 18 19  1  0  0  0
 18 57  1  0  0  0
 18 58  1  0  0  0
 19 20  1  0  0  0
 19 21  1  0  0  0
 19 59  1  0  0  0
 20 60  1  0  0  0
 20 61  1  0  0  0
 20 62  1  0  0  0
 21 63  1  0  0  0
 21 64  1  0  0  0
 21 65  1  0  0  0
 22 23  1  0  0  0
 22 66  1  0  0  0
 23 24  1  0  0  0
 23 26  1  0  0  0
 23 67  1  0  0  0
 24 25  2  0  0  0
 24 46  1  0  0  0
 26 27  1  0  0  0
 26 68  1  0  0  0
 26 69  1  0  0  0
 27 28  1  0  0  0
 27 29  1  0  0  0
 27 70  1  0  0  0
 28 71  1  0  0  0
 28 72  1  0  0  0
 28 73  1  0  0  0
 29 74  1  0  0  0
 29 75  1  0  0  0
 29 76  1  0  0  0
 30 31  2  0  0  0
 31 32  2  0  0  0
 31 33  1  0  0  0
 31 34  1  0  0  0
 33 77  1  0  0  0
 33 78  1  0  0  0
 33 79  1  0  0  0
 34 35  1  0  0  0
 34 80  1  0  0  0
 34 81  1  0  0  0
 35 36  1  0  0  0
 35 82  1  0  0  0
 35 83  1  0  0  0
 36 37  1  0  0  0
 36 46  1  0  0  0
 36 84  1  0  0  0
 37 38  1  0  0  0
 37 85  1  0  0  0
 37 86  1  0  0  0
 38 39  2  0  0  0
 38 45  1  0  0  0
 39 40  1  0  0  0
 39 87  1  0  0  0
 40 41  2  0  0  0
 40 88  1  0  0  0
 41 42  1  0  0  0
 41 44  1  0  0  0
 42 43  1  0  0  0
 42 89  1  0  0  0
 42 90  1  0  0  0
 43 91  1  0  0  0
 43 92  1  0  0  0
 43 93  1  0  0  0
 44 45  2  0  0  0
 44 94  1  0  0  0
 45 95  1  0  0  0
 46 96  1  0  0  0
M  CHG  1  43   1
M  END
> <s_m_source_file>
../4inr_ligand.sdf

> <i_m_source_file_index>
1

> <s_epik_input>
W2NIXTFbY0hdW2NIXVtjSF1bY0hdYzFbQ0gyXVtDQEhdKE49TiNOKUMoPU8pW05IXVtDQEBIXShbQ0gyXVtDSF0oW0NIM10pW0NIM10pQyg9TylbTkhdW0NAQEhdKFtDSDJdW0NIXShbQ0gzXSlbQ0gzXSlDKD1PKVtOSF1bQ0BIXShbQ0gyXVtDSDJdUyg9TykoPU8pW0NIM10pW0NIMl1jMltjSF1bY0hdYyhbQ0gyXVtOSDMrXSlbY0hdW2NIXTI=

> <s_epik_cmdline>
J2VwaWtfYXBwJywgJy1pbWFlJywgJ2xpZ2FuZF9wcm8ubWFlJywgJy1vbWFlJywgJ2xpZ2FuZF9wcmVwLm1hZScsICctbXMnLCAnMScsICctcGgnLCAnNycsICctcGh0JywgJzAuNScsICctbnQn

> <r_epik_Ionization_Penalty>
  0.0265

> <r_epik_Ionization_Penalty_Charging>
  0.0265

> <r_epik_Ionization_Penalty_Neutral>
  0.0000

> <r_epik_State_Penalty>
  0.0217

> <r_epik_Charging_Adjusted_Penalty>
0.0481920456140463

> <i_epik_Tot_Q>
1

> <i_epik_Tot_abs_Q>
1

$$$$
