4int_ligand
                    3D
 Schrodinger Suite 2020-3.
 81 82  0  0  1  0            999 V2000
   55.3890 -134.4810   35.5050 C   0  0  0  0  0  0
   56.1640 -135.0260   36.5360 C   0  0  0  0  0  0
   57.4950 -135.3850   36.2940 C   0  0  0  0  0  0
   58.0700 -135.2070   35.0240 C   0  0  0  0  0  0
   57.2860 -134.6570   33.9860 C   0  0  0  0  0  0
   55.9440 -134.2950   34.2290 C   0  0  0  0  0  0
   57.8780 -134.4460   32.5800 C   0  0  0  0  0  0
   59.5170 -135.6010   34.7780 C   0  0  0  0  0  0
   55.1630 -133.7490   33.2010 O   0  0  0  0  0  0
   59.7460 -136.7770   34.5370 O   0  0  0  0  0  0
   60.5070 -134.6730   34.8200 N   0  0  0  0  0  0
   61.7410 -134.8860   35.5840 C   0  0  2  0  0  0
   61.4600 -135.1260   37.0620 C   0  0  0  0  0  0
   60.8260 -134.2800   37.6740 O   0  0  0  0  0  0
   62.7530 -133.7250   35.2990 C   0  0  0  0  0  0
   63.2800 -133.7740   33.8360 C   0  0  0  0  0  0
   63.9730 -133.7640   36.2630 C   0  0  0  0  0  0
   61.9280 -136.2770   37.6130 N   0  0  0  0  0  0
   61.8250 -136.6100   39.0430 C   0  0  2  0  0  0
   63.1220 -136.3390   39.8150 C   0  0  0  0  0  0
   64.1010 -136.9220   39.3660 O   0  0  0  0  0  0
   61.0070 -137.8550   39.4940 C   0  0  0  0  0  0
   59.7060 -137.4540   39.9710 O   0  0  0  0  0  0
   61.3800 -138.0560   45.1430 O   0  0  0  0  0  0
   61.7670 -138.6690   43.8890 S   0  0  0  0  0  0
   62.5640 -139.8790   43.9250 O   0  0  0  0  0  0
   60.2520 -139.0900   43.0050 C   0  0  0  0  0  0
   62.6070 -137.4580   42.8250 C   0  0  0  0  0  0
   64.0790 -136.9470   42.9990 C   0  0  0  0  0  0
   64.2340 -135.6990   42.0690 C   0  0  2  0  0  0
   64.3050 -134.3680   42.8760 C   0  0  0  0  0  0
   64.9530 -133.1800   42.1390 C   0  0  0  0  0  0
   65.7660 -133.3450   41.0030 C   0  0  0  0  0  0
   66.3360 -132.2320   40.3700 C   0  0  0  0  0  0
   66.1090 -130.9380   40.8640 C   0  0  0  0  0  0
   66.7510 -129.7410   40.1480 C   0  0  0  0  0  0
   65.7040 -128.9170   39.5090 N   0  3  0  0  0  0
   65.3020 -130.7680   42.0000 C   0  0  0  0  0  0
   64.7310 -131.8830   42.6300 C   0  0  0  0  0  0
   63.3330 -135.5460   40.9110 N   0  0  0  0  0  0
   54.3527 -134.2006   35.6935 H   0  0  0  0  0  0
   55.7312 -135.1705   37.5259 H   0  0  0  0  0  0
   58.0933 -135.8081   37.1009 H   0  0  0  0  0  0
   58.9260 -134.7799   32.5696 H   0  0  0  0  0  0
   57.8306 -133.3786   32.3186 H   0  0  0  0  0  0
   57.3002 -135.0289   31.8476 H   0  0  0  0  0  0
   54.1172 -133.4682   33.3947 H   0  0  0  0  0  0
   60.3625 -133.7385   34.2580 H   0  0  0  0  0  0
   62.1625 -135.8363   35.2245 H   0  0  0  0  0  0
   62.2011 -132.7871   35.4597 H   0  0  0  0  0  0
   62.4295 -133.7472   33.1389 H   0  0  0  0  0  0
   63.8507 -134.7018   33.6828 H   0  0  0  0  0  0
   63.9323 -132.9076   33.6521 H   0  0  0  0  0  0
   63.6190 -133.7301   37.3039 H   0  0  0  0  0  0
   64.6222 -132.8976   36.0680 H   0  0  0  0  0  0
   64.5406 -134.6918   36.0987 H   0  0  0  0  0  0
   62.4081 -136.9812   36.9175 H   0  0  0  0  0  0
   61.1058 -135.8179   39.2988 H   0  0  0  0  0  0
   60.8816 -138.5395   38.6421 H   0  0  0  0  0  0
   61.5425 -138.3719   40.3040 H   0  0  0  0  0  0
   58.9944 -138.2119   40.3305 H   0  0  0  0  0  0
   59.6796 -139.8262   43.5884 H   0  0  0  0  0  0
   60.5067 -139.5176   42.0240 H   0  0  0  0  0  0
   59.6460 -138.1830   42.8635 H   0  0  0  0  0  0
   62.6423 -137.8385   41.7935 H   0  0  0  0  0  0
   62.0555 -136.5065   42.8462 H   0  0  0  0  0  0
   64.2508 -136.6751   44.0509 H   0  0  0  0  0  0
   64.7803 -137.7425   42.7067 H   0  0  0  0  0  0
   65.1627 -135.9215   41.5231 H   0  0  0  0  0  0
   63.2877 -134.0483   43.1461 H   0  0  0  0  0  0
   64.8951 -134.5250   43.7910 H   0  0  0  0  0  0
   65.9539 -134.3451   40.6124 H   0  0  0  0  0  0
   66.9602 -132.3724   39.4875 H   0  0  0  0  0  0
   67.2998 -129.1282   40.8783 H   0  0  0  0  0  0
   67.4471 -130.1047   39.3778 H   0  0  0  0  0  0
   66.1711 -128.0620   38.9984 H   0  0  0  0  0  0
   65.0071 -128.5496   40.2767 H   0  0  0  0  0  0
   65.1544 -129.5261   38.7762 H   0  0  0  0  0  0
   65.1190 -129.7679   42.3929 H   0  0  0  0  0  0
   64.1067 -131.7413   43.5122 H   0  0  0  0  0  0
   62.6785 -134.6651   40.8360 H   0  0  0  0  0  0
  1  2  2  0  0  0
  1  6  1  0  0  0
  1 41  1  0  0  0
  2  3  1  0  0  0
  2 42  1  0  0  0
  3  4  2  0  0  0
  3 43  1  0  0  0
  4  5  1  0  0  0
  4  8  1  0  0  0
  5  6  2  0  0  0
  5  7  1  0  0  0
  6  9  1  0  0  0
  7 44  1  0  0  0
  7 45  1  0  0  0
  7 46  1  0  0  0
  8 10  2  0  0  0
  8 11  1  0  0  0
  9 47  1  0  0  0
 11 12  1  0  0  0
 11 48  1  0  0  0
 12 13  1  0  0  0
 12 15  1  0  0  0
 12 49  1  0  0  0
 13 14  2  0  0  0
 13 18  1  0  0  0
 15 16  1  0  0  0
 15 17  1  0  0  0
 15 50  1  0  0  0
 16 51  1  0  0  0
 16 52  1  0  0  0
 16 53  1  0  0  0
 17 54  1  0  0  0
 17 55  1  0  0  0
 17 56  1  0  0  0
 18 19  1  0  0  0
 18 57  1  0  0  0
 19 20  1  0  0  0
 19 22  1  0  0  0
 19 58  1  0  0  0
 20 21  2  0  0  0
 20 40  1  0  0  0
 22 23  1  0  0  0
 22 59  1  0  0  0
 22 60  1  0  0  0
 23 61  1  0  0  0
 24 25  2  0  0  0
 25 26  2  0  0  0
 25 27  1  0  0  0
 25 28  1  0  0  0
 27 62  1  0  0  0
 27 63  1  0  0  0
 27 64  1  0  0  0
 28 29  1  0  0  0
 28 65  1  0  0  0
 28 66  1  0  0  0
 29 30  1  0  0  0
 29 67  1  0  0  0
 29 68  1  0  0  0
 30 31  1  0  0  0
 30 40  1  0  0  0
 30 69  1  0  0  0
 31 32  1  0  0  0
 31 70  1  0  0  0
 31 71  1  0  0  0
 32 33  2  0  0  0
 32 39  1  0  0  0
 33 34  1  0  0  0
 33 72  1  0  0  0
 34 35  2  0  0  0
 34 73  1  0  0  0
 35 36  1  0  0  0
 35 38  1  0  0  0
 36 37  1  0  0  0
 36 74  1  0  0  0
 36 75  1  0  0  0
 37 76  1  0  0  0
 37 77  1  0  0  0
 37 78  1  0  0  0
 38 39  2  0  0  0
 38 79  1  0  0  0
 39 80  1  0  0  0
 40 81  1  0  0  0
M  CHG  1  37   1
M  END
> <s_m_source_file>
../4int_ligand.sdf

> <i_m_source_file_index>
1

> <s_epik_input>
W0NIM11jMWMoW09IXSlbY0hdW2NIXVtjSF1jMUMoPU8pW05IXVtDQEBIXShbQ0hdKFtDSDNdKVtDSDNdKUMoPU8pW05IXVtDQEBIXShbQ0gyXVtPSF0pQyg9TylbTkhdW0NASF0oW0NIMl1bQ0gyXVMoPU8pKD1PKVtDSDNdKVtDSDJdYzJbY0hdW2NIXWMoW0NIMl1bTkgzK10pW2NIXVtjSF0y

> <s_epik_cmdline>
J2VwaWtfYXBwJywgJy1pbWFlJywgJ2xpZ2FuZF9wcm8ubWFlJywgJy1vbWFlJywgJ2xpZ2FuZF9wcmVwLm1hZScsICctbXMnLCAnMScsICctcGgnLCAnNycsICctcGh0JywgJzAuNScsICctbnQn

> <r_lp_tautomer_probability>
0.999999999997365

> <r_epik_Ionization_Penalty>
  0.0285

> <r_epik_Ionization_Penalty_Charging>
  0.0266

> <r_epik_Ionization_Penalty_Neutral>
  0.0019

> <r_epik_State_Penalty>
  0.0217

> <r_epik_Charging_Adjusted_Penalty>
0.0482419459176263

> <i_epik_Tot_Q>
1

> <i_epik_Tot_abs_Q>
1

$$$$
