4io3_ligand
                    3D
 Schrodinger Suite 2020-3.
 15 14  0  0  1  0            999 V2000
    3.4210   49.3240   -7.7980 N   0  3  0  0  0  0
    2.9470   50.7230   -7.9640 C   0  0  2  0  0  0
    1.5240   50.8590   -7.4850 C   0  0  0  0  0  0
    0.7880   49.8510   -7.2810 O   0  5  0  0  0  0
    3.0110   51.1810   -9.4340 C   0  0  0  0  0  0
    4.4010   51.5830   -9.8630 C   0  0  0  0  0  0
    4.7380   51.3930  -11.0750 O   0  5  0  0  0  0
    5.1620   52.1030   -9.0080 O   0  0  0  0  0  0
    1.0720   51.9980   -7.3040 O   0  0  0  0  0  0
    3.3585   49.0391   -6.7374 H   0  0  0  0  0  0
    4.4646   49.2478   -8.1373 H   0  0  0  0  0  0
    2.7906   48.6499   -8.3965 H   0  0  0  0  0  0
    3.6169   51.3323   -7.3395 H   0  0  0  0  0  0
    2.6823   50.3602  -10.0884 H   0  0  0  0  0  0
    2.3517   52.0499   -9.5764 H   0  0  0  0  0  0
  1  2  1  0  0  0
  1 10  1  0  0  0
  1 11  1  0  0  0
  1 12  1  0  0  0
  2  3  1  0  0  0
  2  5  1  0  0  0
  2 13  1  0  0  0
  3  4  1  0  0  0
  3  9  2  0  0  0
  5  6  1  0  0  0
  5 14  1  0  0  0
  5 15  1  0  0  0
  6  7  1  0  0  0
  6  8  2  0  0  0
M  CHG  3   1   1   4  -1   7  -1
M  END
> <s_m_source_file>
../4io3_ligand.sdf

> <i_m_source_file_index>
1

> <s_epik_input>
W09IXUMoPU8pW0NAQEhdKFtOSDMrXSlbQ0gyXUMoPU8pW09IXQ==

> <s_epik_cmdline>
J2VwaWtfYXBwJywgJy1pbWFlJywgJ2xpZ2FuZF9wcm8ubWFlJywgJy1vbWFlJywgJ2xpZ2FuZF9wcmVwLm1hZScsICctbXMnLCAnMScsICctcGgnLCAnNycsICctcGh0JywgJzAuNScsICctbnQn

> <r_lp_tautomer_probability>
1

> <r_epik_Ionization_Penalty>
  0.0054

> <r_epik_Ionization_Penalty_Charging>
  0.0054

> <r_epik_Ionization_Penalty_Neutral>
  0.0000

> <r_epik_State_Penalty>
 -0.0000

> <r_epik_Charging_Adjusted_Penalty>
0.00544610570333974

> <i_epik_Tot_Q>
-1

> <i_epik_Tot_abs_Q>
3

$$$$
