4io7_ligand
                    3D
 Schrodinger Suite 2020-3.
 23 23  0  0  1  0            999 V2000
    3.3810   49.3590   -7.7330 N   0  3  0  0  0  0
    2.9120   50.7750   -7.8620 C   0  0  2  0  0  0
    1.5410   50.9110   -7.2860 C   0  0  0  0  0  0
    0.8500   49.8900   -7.1010 O   0  5  0  0  0  0
    2.8380   51.2060   -9.3200 C   0  0  0  0  0  0
    4.1670   51.2040  -10.0040 C   0  0  0  0  0  0
    5.1110   52.1840   -9.7090 C   0  0  0  0  0  0
    4.4820   50.2110  -10.9350 C   0  0  0  0  0  0
    6.3690   52.1710  -10.3440 C   0  0  0  0  0  0
    5.7280   50.1780  -11.5850 C   0  0  0  0  0  0
    6.6920   51.1470  -11.2690 C   0  0  0  0  0  0
    1.1390   52.0640   -7.0460 O   0  0  0  0  0  0
    3.4224   49.0820   -6.6693 H   0  0  0  0  0  0
    4.3831   49.2629   -8.1763 H   0  0  0  0  0  0
    2.6820   48.6919   -8.2587 H   0  0  0  0  0  0
    3.6293   51.3989   -7.3086 H   0  0  0  0  0  0
    2.1796   50.5194   -9.8723 H   0  0  0  0  0  0
    2.4354   52.2279   -9.3803 H   0  0  0  0  0  0
    4.8762   52.9638   -8.9845 H   0  0  0  0  0  0
    3.7432   49.4427  -11.1630 H   0  0  0  0  0  0
    7.0967   52.9518  -10.1228 H   0  0  0  0  0  0
    5.9427   49.4082  -12.3262 H   0  0  0  0  0  0
    7.6791   51.1127  -11.7301 H   0  0  0  0  0  0
  1  2  1  0  0  0
  1 13  1  0  0  0
  1 14  1  0  0  0
  1 15  1  0  0  0
  2  3  1  0  0  0
  2  5  1  0  0  0
  2 16  1  0  0  0
  3  4  1  0  0  0
  3 12  2  0  0  0
  5  6  1  0  0  0
  5 17  1  0  0  0
  5 18  1  0  0  0
  6  7  2  0  0  0
  6  8  1  0  0  0
  7  9  1  0  0  0
  7 19  1  0  0  0
  8 10  2  0  0  0
  8 20  1  0  0  0
  9 11  2  0  0  0
  9 21  1  0  0  0
 10 11  1  0  0  0
 10 22  1  0  0  0
 11 23  1  0  0  0
M  CHG  2   1   1   4  -1
M  END
> <s_m_source_file>
../4io7_ligand.sdf

> <i_m_source_file_index>
1

> <s_epik_input>
W09IXUMoPU8pW0NAQEhdKFtOSDMrXSlbQ0gyXWMxW2NIXVtjSF1bY0hdW2NIXVtjSF0x

> <s_epik_cmdline>
J2VwaWtfYXBwJywgJy1pbWFlJywgJ2xpZ2FuZF9wcm8ubWFlJywgJy1vbWFlJywgJ2xpZ2FuZF9wcmVwLm1hZScsICctbXMnLCAnMScsICctcGgnLCAnNycsICctcGh0JywgJzAuNScsICctbnQn

> <r_lp_tautomer_probability>
1

> <r_epik_Ionization_Penalty>
  0.0030

> <r_epik_Ionization_Penalty_Charging>
  0.0030

> <r_epik_Ionization_Penalty_Neutral>
  0.0000

> <r_epik_State_Penalty>
 -0.0000

> <r_epik_Charging_Adjusted_Penalty>
0.00304771503799203

> <i_epik_Tot_Q>
0

> <i_epik_Tot_abs_Q>
2

$$$$
