4io8_ligand
                    3D
 Schrodinger Suite 2020-3.
 61 65  0  0  1  0            999 V2000
    0.7100    7.5010   11.4630 C   0  0  0  0  0  0
   -0.1580    7.2680   10.3940 C   0  0  0  0  0  0
   -0.7090    5.9910   10.2390 C   0  0  0  0  0  0
   -1.7750    5.6230    8.9160 Cl  0  0  0  0  0  0
   -0.4180    4.9900   11.1600 C   0  0  0  0  0  0
    0.4310    5.2260   12.2120 C   0  0  0  0  0  0
    0.9960    6.4790   12.3630 C   0  0  0  0  0  0
    1.9010    6.6990   13.5360 C   0  0  0  0  0  0
    1.7440    5.6120   14.5160 N   0  0  0  0  0  0
    0.9630    5.7780   15.6440 C   0  0  0  0  0  0
    0.1720    6.8040   15.8160 N   0  0  0  0  0  0
   -0.4240    6.7120   17.0250 C   0  0  0  0  0  0
   -1.3620    7.5090   17.7090 C   0  0  0  0  0  0
   -1.8730    8.6530   17.0940 N   0  0  0  0  0  0
   -1.7610    7.1080   18.9270 N   0  0  0  0  0  0
   -1.2640    6.0210   19.4970 C   0  0  0  0  0  0
   -0.4000    5.2370   18.8680 N   0  0  0  0  0  0
    0.0430    5.5380   17.6480 C   0  0  0  0  0  0
    0.9100    4.9500   16.7540 N   0  0  0  0  0  0
    1.5940    3.6600   16.9860 C   0  0  2  0  0  0
    3.0200    3.6820   16.7060 O   0  0  0  0  0  0
    1.0810    2.5500   16.0250 C   0  0  2  0  0  0
   -0.2160    2.0540   16.3750 O   0  0  0  0  0  0
    2.1910    1.4870   16.2120 C   0  0  2  0  0  0
    1.9080    0.6850   17.3620 O   0  0  0  0  0  0
    3.4520    2.3390   16.4340 C   0  0  1  0  0  0
    4.3640    2.3310   15.2030 C   0  0  0  0  0  0
    3.7530    2.9380   14.0540 O   0  0  0  0  0  0
    4.6730    3.3520   13.0270 C   0  0  0  0  0  0
    3.9280    3.7460   11.7750 C   0  0  0  0  0  0
    4.1630    4.9850   11.1810 C   0  0  0  0  0  0
    3.4560    5.3580   10.0360 C   0  0  0  0  0  0
    2.5360    4.4540    9.4540 C   0  0  0  0  0  0
    1.8020    4.8210    8.2660 C   0  0  0  0  0  0
    1.2280    5.1220    7.3250 N   0  0  0  0  0  0
    2.3120    3.2010   10.0430 C   0  0  0  0  0  0
    2.9970    2.8700   11.2100 C   0  0  0  0  0  0
   -1.0620    3.4010   11.0080 Cl  0  0  0  0  0  0
    1.1635    8.4837   11.5924 H   0  0  0  0  0  0
   -0.4019    8.0664    9.6931 H   0  0  0  0  0  0
    0.6582    4.4318   12.9231 H   0  0  0  0  0  0
    2.9459    6.7242   13.1932 H   0  0  0  0  0  0
    1.6502    7.6553   14.0184 H   0  0  0  0  0  0
    2.2523    4.6497   14.3561 H   0  0  0  0  0  0
   -1.5180    8.9454   16.0948 H   0  0  0  0  0  0
   -2.6307    9.2622   17.6085 H   0  0  0  0  0  0
   -1.5736    5.7642   20.5101 H   0  0  0  0  0  0
    1.4265    3.5123   18.0631 H   0  0  0  0  0  0
    0.8565    2.8592   14.9935 H   0  0  0  0  0  0
   -1.0965    2.7076   16.2887 H   0  0  0  0  0  0
    2.2800    0.7364   15.4128 H   0  0  0  0  0  0
    1.0351    0.0157   17.3645 H   0  0  0  0  0  0
    4.0263    1.9839   17.3024 H   0  0  0  0  0  0
    5.2863    2.8873   15.4264 H   0  0  0  0  0  0
    4.6164    1.2931   14.9404 H   0  0  0  0  0  0
    5.2549    4.2152   13.3823 H   0  0  0  0  0  0
    5.3553    2.5224   12.7898 H   0  0  0  0  0  0
    4.8997    5.6637   11.6109 H   0  0  0  0  0  0
    3.6122    6.3413    9.5924 H   0  0  0  0  0  0
    1.6120    2.4963    9.5941 H   0  0  0  0  0  0
    2.8035    1.9111   11.6908 H   0  0  0  0  0  0
  1  2  2  0  0  0
  1  7  1  0  0  0
  1 39  1  0  0  0
  2  3  1  0  0  0
  2 40  1  0  0  0
  3  4  1  0  0  0
  3  5  2  0  0  0
  5  6  1  0  0  0
  5 38  1  0  0  0
  6  7  2  0  0  0
  6 41  1  0  0  0
  7  8  1  0  0  0
  8  9  1  0  0  0
  8 42  1  0  0  0
  8 43  1  0  0  0
  9 10  1  0  0  0
  9 44  1  0  0  0
 10 11  2  0  0  0
 10 19  1  0  0  0
 11 12  1  0  0  0
 12 13  2  0  0  0
 12 18  1  0  0  0
 13 14  1  0  0  0
 13 15  1  0  0  0
 14 45  1  0  0  0
 14 46  1  0  0  0
 15 16  2  0  0  0
 16 17  1  0  0  0
 16 47  1  0  0  0
 17 18  2  0  0  0
 18 19  1  0  0  0
 19 20  1  0  0  0
 20 21  1  0  0  0
 20 22  1  0  0  0
 20 48  1  0  0  0
 21 26  1  0  0  0
 22 23  1  0  0  0
 22 24  1  0  0  0
 22 49  1  0  0  0
 23 50  1  0  0  0
 24 25  1  0  0  0
 24 26  1  0  0  0
 24 51  1  0  0  0
 25 52  1  0  0  0
 26 27  1  0  0  0
 26 53  1  0  0  0
 27 28  1  0  0  0
 27 54  1  0  0  0
 27 55  1  0  0  0
 28 29  1  0  0  0
 29 30  1  0  0  0
 29 56  1  0  0  0
 29 57  1  0  0  0
 30 31  2  0  0  0
 30 37  1  0  0  0
 31 32  1  0  0  0
 31 58  1  0  0  0
 32 33  2  0  0  0
 32 59  1  0  0  0
 33 34  1  0  0  0
 33 36  1  0  0  0
 34 35  3  0  0  0
 36 37  2  0  0  0
 36 60  1  0  0  0
 37 61  1  0  0  0
M  END
> <s_m_source_file>
../4io8_ligand.sdf

> <i_m_source_file_index>
1

> <s_epik_input>
Q2xjMVtjSF1bY0hdYyhbY0hdYzFDbClbQ0gyXVtOSF1jKG4yKW4oYyhjMjMpbltjSF1uYzNbTkgyXSlbQ0BASF00T1tDQEBIXShbQ0BASF0oW09IXSlbQ0BIXTRbT0hdKVtDSDJdT1tDSDJdYzVbY0hdW2NIXWMoQyNOKVtjSF1bY0hdNQ==

> <s_epik_cmdline>
J2VwaWtfYXBwJywgJy1pbWFlJywgJ2xpZ2FuZF9wcm8ubWFlJywgJy1vbWFlJywgJ2xpZ2FuZF9wcmVwLm1hZScsICctbXMnLCAnMScsICctcGgnLCAnNycsICctcGh0JywgJzAuNScsICctbnQn

> <r_epik_Ionization_Penalty>
  0.0166

> <r_epik_Ionization_Penalty_Charging>
  0.0000

> <r_epik_Ionization_Penalty_Neutral>
  0.0166

> <r_epik_State_Penalty>
  0.0126

> <r_epik_Charging_Adjusted_Penalty>
0.0126110124296691

> <i_epik_Tot_Q>
0

> <i_epik_Tot_abs_Q>
0

> <s_epik_Chemistry_Notes>
This compound contains an acetal/aminal-like group ( X-CH(R)-Y where X, Y are N, S, or O) that may be acid/base labile, releasing an aldehyde.

$$$$
