4ipf_ligand
                    3D
 Schrodinger Suite 2020-3.
 97101  0  0  1  0            999 V2000
   12.5930    8.4480   35.6800 N   0  0  0  0  0  0
   11.6930    9.0880   34.7370 C   0  0  2  0  0  0
   10.6480    8.1090   34.1730 C   0  0  0  0  0  0
   12.5190    9.7250   33.6330 C   0  0  0  0  0  0
   11.0400   10.1620   35.6600 C   0  0  2  0  0  0
    9.7150    9.6460   36.2220 C   0  0  0  0  0  0
   10.8030   11.4630   34.9430 C   0  0  0  0  0  0
   11.9970   10.3170   36.7720 N   0  0  0  0  0  0
   12.8170    9.3230   36.8000 C   0  0  0  0  0  0
   13.8480    9.0940   37.8320 C   0  0  0  0  0  0
   13.8950    9.9110   33.8140 C   0  0  0  0  0  0
   14.6510   10.5850   32.8470 C   0  0  0  0  0  0
   14.0230   11.0690   31.6990 C   0  0  0  0  0  0
   14.9490   12.0200   30.5330 Cl  0  0  0  0  0  0
   12.6640   10.8230   31.4760 C   0  0  0  0  0  0
   11.9130   10.1510   32.4430 C   0  0  0  0  0  0
    9.5430   11.7220   34.3940 C   0  0  0  0  0  0
    9.3140   12.9070   33.7010 C   0  0  0  0  0  0
   10.3530   13.8250   33.5590 C   0  0  0  0  0  0
   10.0880   15.3050   32.6470 Cl  0  0  0  0  0  0
   11.6080   13.5830   34.1220 C   0  0  0  0  0  0
   11.8280   12.4000   34.8190 C   0  0  0  0  0  0
   13.0660    7.0970   35.4780 C   0  0  0  0  0  0
   13.3310    6.7080   34.3340 O   0  0  0  0  0  0
   13.2410    6.2470   36.5800 N   0  0  0  0  0  0
   13.8940    4.9610   36.3600 C   0  0  0  0  0  0
   14.7730    4.6360   37.5540 C   0  0  0  0  0  0
   13.9860    4.6500   38.8110 N   0  0  0  0  0  0
   13.3380    5.9800   39.0310 C   0  0  0  0  0  0
   12.4680    6.3950   37.8190 C   0  0  0  0  0  0
   13.5640    9.4060   39.1630 C   0  0  0  0  0  0
   14.5320    9.2370   40.1560 C   0  0  0  0  0  0
   15.8000    8.7430   39.8310 C   0  0  0  0  0  0
   16.8240    8.5630   40.9220 C   0  0  0  0  0  0
   17.7970    9.7470   40.9110 C   0  0  0  0  0  0
   17.6040    7.2640   40.6970 C   0  0  0  0  0  0
   16.1090    8.4270   38.5040 C   0  0  0  0  0  0
   15.1270    8.6120   37.5190 C   0  0  0  0  0  0
   15.4220    8.3400   36.2110 O   0  0  0  0  0  0
   16.7390    7.8810   35.9490 C   0  0  0  0  0  0
   16.8820    7.5420   34.4590 C   0  0  0  0  0  0
   16.1170    8.5010   42.2790 C   0  0  0  0  0  0
   14.1050    4.2660   41.2850 C   0  0  0  0  0  0
   15.0680    3.7860   42.3820 C   0  0  0  0  0  0
   14.4700    4.2170   43.9960 S   0  0  0  0  0  0
   15.5690    3.4180   45.1430 C   0  0  0  0  0  0
   13.1380    3.6560   44.1630 O   0  0  0  0  0  0
   14.5940    5.6660   44.1580 O   0  0  0  0  0  0
   14.8370    4.2230   39.9420 C   0  0  0  0  0  0
   11.1477    7.3700   33.5294 H   0  0  0  0  0  0
    9.9047    8.6657   33.5834 H   0  0  0  0  0  0
   10.1448    7.5916   35.0031 H   0  0  0  0  0  0
    8.9912    9.5257   35.4025 H   0  0  0  0  0  0
    9.3225   10.3660   36.9552 H   0  0  0  0  0  0
    9.8781    8.6751   36.7127 H   0  0  0  0  0  0
   14.3802    9.5292   34.7123 H   0  0  0  0  0  0
   15.7217   10.7304   32.9901 H   0  0  0  0  0  0
   12.1929   11.1547   30.5507 H   0  0  0  0  0  0
   10.8540    9.9575   32.2720 H   0  0  0  0  0  0
    8.7393   10.9948   34.5091 H   0  0  0  0  0  0
    8.3329   13.1148   33.2740 H   0  0  0  0  0  0
   12.4084   14.3153   34.0159 H   0  0  0  0  0  0
   12.8018   12.2052   35.2684 H   0  0  0  0  0  0
   13.1308    4.1780   36.2398 H   0  0  0  0  0  0
   14.5113    5.0139   35.4510 H   0  0  0  0  0  0
   15.2132    3.6363   37.4239 H   0  0  0  0  0  0
   15.5765    5.3831   37.6320 H   0  0  0  0  0  0
   12.6939    5.9312   39.9214 H   0  0  0  0  0  0
   14.1136    6.7455   39.1810 H   0  0  0  0  0  0
   12.1586    7.4442   37.9350 H   0  0  0  0  0  0
   11.5762    5.7526   37.7738 H   0  0  0  0  0  0
   12.5775    9.7851   39.4298 H   0  0  0  0  0  0
   14.2981    9.4914   41.1898 H   0  0  0  0  0  0
   18.3064    9.7939   39.9372 H   0  0  0  0  0  0
   18.5427    9.6161   41.7090 H   0  0  0  0  0  0
   17.2402   10.6807   41.0790 H   0  0  0  0  0  0
   18.1129    7.3060   39.7227 H   0  0  0  0  0  0
   16.9087    6.4117   40.7111 H   0  0  0  0  0  0
   18.3505    7.1415   41.4956 H   0  0  0  0  0  0
   17.0947    8.0440   38.2398 H   0  0  0  0  0  0
   17.4610    8.6672   36.2149 H   0  0  0  0  0  0
   16.9397    6.9809   36.5486 H   0  0  0  0  0  0
   17.9039    7.1867   34.2602 H   0  0  0  0  0  0
   16.6830    8.4413   33.8576 H   0  0  0  0  0  0
   16.1616    6.7550   34.1913 H   0  0  0  0  0  0
   15.5560    9.4329   42.4431 H   0  0  0  0  0  0
   16.8645    8.3777   43.0766 H   0  0  0  0  0  0
   15.4227    7.6479   42.2921 H   0  0  0  0  0  0
   13.2258    3.6056   41.2542 H   0  0  0  0  0  0
   13.7833    5.2948   41.5040 H   0  0  0  0  0  0
   15.1707    2.6922   42.3268 H   0  0  0  0  0  0
   16.0525    4.2545   42.2364 H   0  0  0  0  0  0
   15.4854    2.3269   45.0314 H   0  0  0  0  0  0
   15.2977    3.7034   46.1701 H   0  0  0  0  0  0
   16.6037    3.7295   44.9370 H   0  0  0  0  0  0
   15.1749    3.1893   39.7768 H   0  0  0  0  0  0
   15.7109    4.8872   40.0146 H   0  0  0  0  0  0
  1  2  1  0  0  0
  1  9  1  0  0  0
  1 23  1  0  0  0
  2  3  1  0  0  0
  2  4  1  0  0  0
  2  5  1  0  0  0
  3 50  1  0  0  0
  3 51  1  0  0  0
  3 52  1  0  0  0
  4 11  2  0  0  0
  4 16  1  0  0  0
  5  6  1  0  0  0
  5  7  1  0  0  0
  5  8  1  0  0  0
  6 53  1  0  0  0
  6 54  1  0  0  0
  6 55  1  0  0  0
  7 17  2  0  0  0
  7 22  1  0  0  0
  8  9  2  0  0  0
  9 10  1  0  0  0
 10 31  2  0  0  0
 10 38  1  0  0  0
 11 12  1  0  0  0
 11 56  1  0  0  0
 12 13  2  0  0  0
 12 57  1  0  0  0
 13 14  1  0  0  0
 13 15  1  0  0  0
 15 16  2  0  0  0
 15 58  1  0  0  0
 16 59  1  0  0  0
 17 18  1  0  0  0
 17 60  1  0  0  0
 18 19  2  0  0  0
 18 61  1  0  0  0
 19 20  1  0  0  0
 19 21  1  0  0  0
 21 22  2  0  0  0
 21 62  1  0  0  0
 22 63  1  0  0  0
 23 24  2  0  0  0
 23 25  1  0  0  0
 25 26  1  0  0  0
 25 30  1  0  0  0
 26 27  1  0  0  0
 26 64  1  0  0  0
 26 65  1  0  0  0
 27 28  1  0  0  0
 27 66  1  0  0  0
 27 67  1  0  0  0
 28 29  1  0  0  0
 28 49  1  0  0  0
 29 30  1  0  0  0
 29 68  1  0  0  0
 29 69  1  0  0  0
 30 70  1  0  0  0
 30 71  1  0  0  0
 31 32  1  0  0  0
 31 72  1  0  0  0
 32 33  2  0  0  0
 32 73  1  0  0  0
 33 34  1  0  0  0
 33 37  1  0  0  0
 34 35  1  0  0  0
 34 36  1  0  0  0
 34 42  1  0  0  0
 35 74  1  0  0  0
 35 75  1  0  0  0
 35 76  1  0  0  0
 36 77  1  0  0  0
 36 78  1  0  0  0
 36 79  1  0  0  0
 37 38  2  0  0  0
 37 80  1  0  0  0
 38 39  1  0  0  0
 39 40  1  0  0  0
 40 41  1  0  0  0
 40 81  1  0  0  0
 40 82  1  0  0  0
 41 83  1  0  0  0
 41 84  1  0  0  0
 41 85  1  0  0  0
 42 86  1  0  0  0
 42 87  1  0  0  0
 42 88  1  0  0  0
 43 44  1  0  0  0
 43 49  1  0  0  0
 43 89  1  0  0  0
 43 90  1  0  0  0
 44 45  1  0  0  0
 44 91  1  0  0  0
 44 92  1  0  0  0
 45 46  1  0  0  0
 45 47  2  0  0  0
 45 48  2  0  0  0
 46 93  1  0  0  0
 46 94  1  0  0  0
 46 95  1  0  0  0
 49 96  1  0  0  0
 49 97  1  0  0  0
M  END
> <s_m_source_file>
../4ipf_ligand.sdf

> <i_m_source_file_index>
1

> <s_epik_input>
W0NIM11TKD1PKSg9TylbQ0gyXVtDSDJdW0NIMl1bTkgrXShbQ0gyXVtDSDJdMSlbQ0gyXVtDSDJdTjFDKD1PKU4oW0NAXTIoW0NIM10pYzNbY0hdW2NIXWMoQ2wpW2NIXVtjSF0zKUMoPU5bQ0BAXTIoW0NIM10pYzRbY0hdW2NIXWMoQ2wpW2NIXVtjSF00KWM1W2NIXVtjSF1jKEMoW0NIM10pKFtDSDNdKVtDSDNdKVtjSF1jNU9bQ0gyXVtDSDNd

> <s_epik_cmdline>
J2VwaWtfYXBwJywgJy1pbWFlJywgJ2xpZ2FuZF9wcm8ubWFlJywgJy1vbWFlJywgJ2xpZ2FuZF9wcmVwLm1hZScsICctbXMnLCAnMScsICctcGgnLCAnNycsICctcGh0JywgJzAuNScsICctbnQn

> <r_epik_Ionization_Penalty>
  0.0981

> <r_epik_Ionization_Penalty_Charging>
  0.0000

> <r_epik_Ionization_Penalty_Neutral>
  0.0981

> <r_epik_State_Penalty>
  0.0801

> <r_epik_Charging_Adjusted_Penalty>
0.0801451352878226

> <i_epik_Tot_Q>
0

> <i_epik_Tot_abs_Q>
0

> <s_epik_Chemistry_Notes>
This compound has an imine and may undergo hydrolysis.

$$$$
