4ipj_ligand
                    3D
 Schrodinger Suite 2020-3.
 13 12  0  0  1  0            999 V2000
   95.7030  -21.5420   52.2720 C   0  0  0  0  0  0
   95.4430  -22.7450   52.0020 O   0  0  0  0  0  0
   94.8080  -20.7380   52.6530 O   0  5  0  0  0  0
   97.1000  -21.0580   52.1110 C   0  0  1  0  0  0
   97.1410  -20.1260   51.0460 O   0  0  0  0  0  0
   97.5540  -20.4410   53.4350 C   0  0  0  0  0  0
   99.0520  -20.2280   53.4410 C   0  0  0  0  0  0
   99.6260  -19.5100   54.2900 O   0  5  0  0  0  0
   99.7600  -20.7860   52.5870 O   0  0  0  0  0  0
   97.7808  -21.8618   51.7940 H   0  0  0  0  0  0
   96.8404  -20.4340   50.0337 H   0  0  0  0  0  0
   97.0567  -19.4701   53.5767 H   0  0  0  0  0  0
   97.2876  -21.1138   54.2635 H   0  0  0  0  0  0
  1  2  2  0  0  0
  1  3  1  0  0  0
  1  4  1  0  0  0
  4  5  1  0  0  0
  4  6  1  0  0  0
  4 10  1  0  0  0
  5 11  1  0  0  0
  6  7  1  0  0  0
  6 12  1  0  0  0
  6 13  1  0  0  0
  7  8  1  0  0  0
  7  9  2  0  0  0
M  CHG  2   3  -1   8  -1
M  END
> <s_m_source_file>
../4ipj_ligand.sdf

> <i_m_source_file_index>
1

> <s_epik_input>
Tz1DKFtPSF0pW0NAQEhdKFtPSF0pW0NIMl1DKD1PKVtPSF0=

> <s_epik_cmdline>
J2VwaWtfYXBwJywgJy1pbWFlJywgJ2xpZ2FuZF9wcm8ubWFlJywgJy1vbWFlJywgJ2xpZ2FuZF9wcmVwLm1hZScsICctbXMnLCAnMScsICctcGgnLCAnNycsICctcGh0JywgJzAuNScsICctbnQn

> <r_lp_tautomer_probability>
1

> <r_epik_Ionization_Penalty>
  0.0023

> <r_epik_Ionization_Penalty_Charging>
  0.0023

> <r_epik_Ionization_Penalty_Neutral>
  0.0000

> <r_epik_State_Penalty>
 -0.0000

> <r_epik_Charging_Adjusted_Penalty>
0.00227537966929545

> <i_epik_Tot_Q>
-2

> <i_epik_Tot_abs_Q>
2

$$$$
