4ipn_ligand
                    3D
 Schrodinger Suite 2020-3.
 48 49  0  0  1  0            999 V2000
   28.8110   -1.6980   15.1760 O   0  5  0  0  0  0
   28.6840   -0.1920   15.1290 P   0  0  0  0  0  0
   28.7860    0.2650   13.6870 O   0  5  0  0  0  0
   29.7910    0.4140   15.9580 O   0  0  0  0  0  0
   27.2900    0.2710   15.7070 O   0  0  0  0  0  0
   27.0730    0.1990   17.0630 C   0  0  0  0  0  0
   27.3230   -1.1530   17.6890 C   0  0  2  0  0  0
   26.1200   -1.8550   17.8170 O   0  0  0  0  0  0
   28.1720   -1.0060   18.9590 C   0  0  1  0  0  0
   28.9380    0.1940   18.8410 O   0  0  0  0  0  0
   27.4900   -1.0420   20.2000 C   0  0  2  0  0  0
   28.4840   -1.4870   21.2350 O   0  0  0  0  0  0
   26.3560   -1.8980   20.2190 C   0  0  1  0  0  0
   25.5920   -1.7530   21.4310 O   0  0  0  0  0  0
   25.4380   -1.6630   19.0290 C   0  0  2  0  0  0
   23.9500   -2.6860   19.1050 S   0  0  0  0  0  0
   23.9040   -3.9240   17.7560 C   0  0  1  0  0  0
   23.2680   -5.1580   18.2770 C   0  0  2  0  0  0
   24.1210   -5.7130   19.3130 O   0  0  0  0  0  0
   23.0440   -6.1330   17.2930 C   0  0  1  0  0  0
   22.2880   -7.2500   17.8510 O   0  0  0  0  0  0
   22.3060   -5.5850   16.1010 C   0  0  2  0  0  0
   22.2690   -6.5260   15.1440 O   0  0  0  0  0  0
   22.9320   -4.3630   15.5670 O   0  0  0  0  0  0
   23.2140   -3.3810   16.5270 C   0  0  2  0  0  0
   24.0880   -2.3210   15.8700 C   0  0  0  0  0  0
   23.4780   -1.2290   15.2700 O   0  0  0  0  0  0
   27.7373    0.9080   17.5788 H   0  0  0  0  0  0
   26.0252    0.4534   17.2807 H   0  0  0  0  0  0
   27.8489   -1.8470   17.0168 H   0  0  0  0  0  0
   28.8289   -1.8793   19.0852 H   0  0  0  0  0  0
   29.5309    0.3810   17.9335 H   0  0  0  0  0  0
   27.0607   -0.0401   20.3481 H   0  0  0  0  0  0
   29.4283   -0.9375   21.3628 H   0  0  0  0  0  0
   26.8018   -2.9036   20.2166 H   0  0  0  0  0  0
   26.0799   -1.8858   22.4079 H   0  0  0  0  0  0
   25.3533   -0.5670   18.9882 H   0  0  0  0  0  0
   24.8228   -4.3166   17.2959 H   0  0  0  0  0  0
   22.2606   -4.9223   18.6505 H   0  0  0  0  0  0
   24.4105   -5.0958   20.1763 H   0  0  0  0  0  0
   24.0574   -6.4570   17.0137 H   0  0  0  0  0  0
   22.6684   -7.7853   18.7335 H   0  0  0  0  0  0
   21.2530   -5.3731   16.3383 H   0  0  0  0  0  0
   21.8336   -7.5129   15.3596 H   0  0  0  0  0  0
   22.2194   -3.0202   16.8280 H   0  0  0  0  0  0
   24.7620   -1.8841   16.6216 H   0  0  0  0  0  0
   24.6830   -2.7820   15.0678 H   0  0  0  0  0  0
   24.0907   -0.4519   14.7898 H   0  0  0  0  0  0
  1  2  1  0  0  0
  2  3  1  0  0  0
  2  4  2  0  0  0
  2  5  1  0  0  0
  5  6  1  0  0  0
  6  7  1  0  0  0
  6 28  1  0  0  0
  6 29  1  0  0  0
  7  8  1  0  0  0
  7  9  1  0  0  0
  7 30  1  0  0  0
  8 15  1  0  0  0
  9 10  1  0  0  0
  9 11  1  0  0  0
  9 31  1  0  0  0
 10 32  1  0  0  0
 11 12  1  0  0  0
 11 13  1  0  0  0
 11 33  1  0  0  0
 12 34  1  0  0  0
 13 14  1  0  0  0
 13 15  1  0  0  0
 13 35  1  0  0  0
 14 36  1  0  0  0
 15 16  1  0  0  0
 15 37  1  0  0  0
 16 17  1  0  0  0
 17 18  1  0  0  0
 17 25  1  0  0  0
 17 38  1  0  0  0
 18 19  1  0  0  0
 18 20  1  0  0  0
 18 39  1  0  0  0
 19 40  1  0  0  0
 20 21  1  0  0  0
 20 22  1  0  0  0
 20 41  1  0  0  0
 21 42  1  0  0  0
 22 23  1  0  0  0
 22 24  1  0  0  0
 22 43  1  0  0  0
 23 44  1  0  0  0
 24 25  1  0  0  0
 25 26  1  0  0  0
 25 45  1  0  0  0
 26 27  1  0  0  0
 26 46  1  0  0  0
 26 47  1  0  0  0
 27 48  1  0  0  0
M  CHG  2   1  -1   3  -1
M  END
> <s_m_source_file>
../4ipn_ligand.sdf

> <i_m_source_file_index>
1

> <s_epik_input>
W09IXVAoPU8pKFtPSF0pT1tDSDJdW0NAQEhdMU9bQ0BIXShbQ0BIXShbT0hdKVtDQEBIXShbT0hdKVtDQEBIXTFbT0hdKVNbQ0BIXTJbQ0BIXShbT0hdKVtDQEBIXShbT0hdKVtDQEhdKFtPSF0pT1tDQEBIXTJbQ0gyXVtPSF0=

> <s_epik_cmdline>
J2VwaWtfYXBwJywgJy1pbWFlJywgJ2xpZ2FuZF9wcm8ubWFlJywgJy1vbWFlJywgJ2xpZ2FuZF9wcmVwLm1hZScsICctbXMnLCAnMScsICctcGgnLCAnNycsICctcGh0JywgJzAuNScsICctbnQn

> <r_epik_Ionization_Penalty>
  0.1045

> <r_epik_Ionization_Penalty_Charging>
  0.1045

> <r_epik_Ionization_Penalty_Neutral>
  0.0000

> <r_epik_State_Penalty>
  0.0944

> <r_epik_Charging_Adjusted_Penalty>
0.198984989313379

> <i_epik_Tot_Q>
-2

> <i_epik_Tot_abs_Q>
2

> <s_epik_Chemistry_Notes>
This compound contains an acetal/aminal-like group ( X-CH(R)-Y where X, Y are N, S, or O) that may be acid/base labile, releasing an aldehyde.

$$$$
