4iq6_ligand
                    3D
 Schrodinger Suite 2020-3.
 41 44  0  0  1  0            999 V2000
   40.8950   -5.4570  -35.6210 C   0  0  0  0  0  0
   40.0090   -6.4270  -35.1990 C   0  0  0  0  0  0
   37.4520   -8.0540  -34.2280 C   0  0  0  0  0  0
   37.2720  -10.2230  -35.1320 C   0  0  0  0  0  0
   41.4280   -5.5230  -36.8910 C   0  0  0  0  0  0
   38.9510   -9.1600  -37.3540 C   0  0  0  0  0  0
   39.7010   -7.4250  -36.1160 C   0  0  0  0  0  0
   37.8820   -8.9870  -35.1380 C   0  0  0  0  0  0
   38.8440   -8.5620  -36.1200 C   0  0  0  0  0  0
   40.2940   -7.3670  -37.3670 C   0  0  3  0  0  0
   36.4810   -8.3290  -33.2900 C   0  0  0  0  0  0
   36.2940  -10.4340  -34.1800 C   0  0  0  0  0  0
   38.5190   -4.8500  -29.7810 C   0  0  0  0  0  0
   39.2100   -5.6730  -30.8550 C   0  0  0  0  0  0
   37.2680   -5.5420  -29.2490 C   0  0  0  0  0  0
   38.2410   -6.0530  -31.9590 C   0  0  0  0  0  0
   36.3370   -6.0410  -30.3520 C   0  0  0  0  0  0
   37.0730   -6.8690  -31.4040 C   0  0  0  0  0  0
   41.1640   -6.4550  -37.8170 N   0  0  0  0  0  0
   35.8770   -9.5340  -33.2710 N   0  0  0  0  0  0
   39.8580   -8.4450  -38.0790 N   0  0  0  0  0  0
   36.1050   -7.2600  -32.4340 N   0  0  0  0  0  0
   35.4990  -11.9600  -34.1570 Cl  0  0  0  0  0  0
   41.1736   -4.6351  -34.9451 H   0  0  0  0  0  0
   39.5874   -6.3827  -34.1840 H   0  0  0  0  0  0
   37.8952   -7.0584  -34.2481 H   0  0  0  0  0  0
   37.5489  -10.9986  -35.8461 H   0  0  0  0  0  0
   42.1323   -4.7085  -37.1157 H   0  0  0  0  0  0
   38.4631  -10.0402  -37.7980 H   0  0  0  0  0  0
   39.2092   -4.6923  -28.9391 H   0  0  0  0  0  0
   38.2222   -3.8768  -30.1990 H   0  0  0  0  0  0
   40.0315   -5.0876  -31.2937 H   0  0  0  0  0  0
   39.6136   -6.5937  -30.4085 H   0  0  0  0  0  0
   37.5600   -6.4127  -28.6436 H   0  0  0  0  0  0
   36.6961   -4.8380  -28.6267 H   0  0  0  0  0  0
   37.8434   -5.1408  -32.4279 H   0  0  0  0  0  0
   38.7650   -6.6556  -32.7155 H   0  0  0  0  0  0
   35.5515   -6.6723  -29.9110 H   0  0  0  0  0  0
   35.8748   -5.1810  -30.8587 H   0  0  0  0  0  0
   37.4759   -7.8109  -31.0033 H   0  0  0  0  0  0
   35.1435   -6.7317  -32.5140 H   0  0  0  0  0  0
  1  2  2  0  0  0
  1  5  1  0  0  0
  1 24  1  0  0  0
  2  7  1  0  0  0
  2 25  1  0  0  0
  3  8  2  0  0  0
  3 11  1  0  0  0
  3 26  1  0  0  0
  4  8  1  0  0  0
  4 12  2  0  0  0
  4 27  1  0  0  0
  5 19  2  0  0  0
  5 28  1  0  0  0
  6  9  1  0  0  0
  6 21  2  0  0  0
  6 29  1  0  0  0
  7  9  2  0  0  0
  7 10  1  0  0  0
  8  9  1  0  0  0
 10 19  1  0  0  0
 10 21  1  0  0  0
 11 20  2  0  0  0
 11 22  1  0  0  0
 12 20  1  0  0  0
 12 23  1  0  0  0
 13 14  1  0  0  0
 13 15  1  0  0  0
 13 30  1  0  0  0
 13 31  1  0  0  0
 14 16  1  0  0  0
 14 32  1  0  0  0
 14 33  1  0  0  0
 15 17  1  0  0  0
 15 34  1  0  0  0
 15 35  1  0  0  0
 16 18  1  0  0  0
 16 36  1  0  0  0
 16 37  1  0  0  0
 17 18  1  0  0  0
 17 38  1  0  0  0
 17 39  1  0  0  0
 18 22  1  0  0  0
 18 40  1  0  0  0
 22 41  1  0  0  0
M  END
> <s_m_source_file>
../4iq6_ligand.sdf

> <i_m_source_file_index>
1

> <s_epik_input>
W0NIXTE9W0NIXVtDSF09TltDSF0oQzE9MilOPVtDSF1DMmMzW2NIXWMobmMoQ2wpW2NIXTMpW05IXVtDSF00W0NIMl1bQ0gyXVtDSDJdW0NIMl1bQ0gyXTQ=

> <s_epik_cmdline>
J2VwaWtfYXBwJywgJy1pbWFlJywgJ2xpZ2FuZF9wcm8ubWFlJywgJy1vbWFlJywgJ2xpZ2FuZF9wcmVwLm1hZScsICctbXMnLCAnMScsICctcGgnLCAnNycsICctcGh0JywgJzAuNScsICctbnQn

> <r_epik_Ionization_Penalty>
  0.1544

> <r_epik_Ionization_Penalty_Charging>
  0.0000

> <r_epik_Ionization_Penalty_Neutral>
  0.1544

> <r_epik_State_Penalty>
  0.1311

> <r_epik_Charging_Adjusted_Penalty>
0.13109682463379

> <i_epik_Tot_Q>
0

> <i_epik_Tot_abs_Q>
0

> <s_epik_Chemistry_Notes>
This compound has an imine and may undergo hydrolysis.

$$$$
