4iqt_ligand
                    3D
 Schrodinger Suite 2020-3.
 38 39  0  0  1  0            999 V2000
   20.1980    7.9910   15.9300 O   0  0  0  0  0  0
   19.4620   11.0920   11.6090 O   0  5  0  0  0  0
   15.6100    8.0500   23.1790 O   0  0  0  0  0  0
   18.8370   12.2140   13.2890 O   0  0  0  0  0  0
   19.0850    8.5270   13.3250 O   0  0  0  0  0  0
   16.7290    3.9500   26.4020 F   0  0  0  0  0  0
   19.0130    9.0070   17.7840 C   0  0  0  0  0  0
   17.6510    8.3010   18.0160 C   0  0  0  0  0  0
   18.8890    9.9270   15.3500 C   0  0  0  0  0  0
   19.4760    6.0460   24.7090 C   0  0  0  0  0  0
   18.7830    5.1230   25.5600 C   0  0  0  0  0  0
   18.6970    6.7900   23.7670 C   0  0  0  0  0  0
   16.2440    6.4060   20.5210 C   0  0  0  0  0  0
   16.6390    5.6960   24.5800 C   0  0  0  0  0  0
   17.5560    8.1490   20.4950 C   0  0  0  0  0  0
   16.4570    6.7530   19.2440 N   0  0  0  0  0  0
   19.4440    8.8860   16.3210 C   0  0  0  0  0  0
   19.1780   11.1020   12.8570 C   0  0  0  0  0  0
   19.2530    9.8250   13.8320 C   0  0  2  0  0  0
   16.5440    7.3970   22.7230 C   0  0  0  0  0  0
   17.3700    4.8960   25.5470 C   0  0  0  0  0  0
   17.2760    7.8000   19.2010 C   0  0  3  0  0  0
   17.2680    6.6490   23.6730 C   0  0  0  0  0  0
   16.7930    7.3300   21.3230 C   0  0  0  0  0  0
   19.1383    7.6612   14.0014 H   0  0  0  0  0  0
   18.9218   10.0728   18.0403 H   0  0  0  0  0  0
   19.7804    8.5414   18.4198 H   0  0  0  0  0  0
   16.8324    8.9999   17.7891 H   0  0  0  0  0  0
   17.5764    7.4228   17.3578 H   0  0  0  0  0  0
   17.7896    9.8981   15.3705 H   0  0  0  0  0  0
   19.2351   10.9277   15.6480 H   0  0  0  0  0  0
   20.5561    6.1760   24.7772 H   0  0  0  0  0  0
   19.3781    4.5503   26.2714 H   0  0  0  0  0  0
   19.2028    7.4866   23.0985 H   0  0  0  0  0  0
   15.6918    5.4841   20.7556 H   0  0  0  0  0  0
   15.5567    5.5771   24.5293 H   0  0  0  0  0  0
   18.2258    8.9033   20.9335 H   0  0  0  0  0  0
   20.3415    9.6798   13.7674 H   0  0  0  0  0  0
  1 17  2  0  0  0
  2 18  1  0  0  0
  3 20  2  0  0  0
  4 18  2  0  0  0
  5 19  1  0  0  0
  5 25  1  0  0  0
  6 21  1  0  0  0
  7  8  1  0  0  0
  7 17  1  0  0  0
  7 26  1  0  0  0
  7 27  1  0  0  0
  8 22  1  0  0  0
  8 28  1  0  0  0
  8 29  1  0  0  0
  9 17  1  0  0  0
  9 19  1  0  0  0
  9 30  1  0  0  0
  9 31  1  0  0  0
 10 11  2  0  0  0
 10 12  1  0  0  0
 10 32  1  0  0  0
 11 21  1  0  0  0
 11 33  1  0  0  0
 12 23  2  0  0  0
 12 34  1  0  0  0
 13 16  2  0  0  0
 13 24  1  0  0  0
 13 35  1  0  0  0
 14 21  2  0  0  0
 14 23  1  0  0  0
 14 36  1  0  0  0
 15 22  1  0  0  0
 15 24  2  0  0  0
 15 37  1  0  0  0
 16 22  1  0  0  0
 18 19  1  0  0  0
 19 38  1  0  0  0
 20 23  1  0  0  0
 20 24  1  0  0  0
M  CHG  1   2  -1
M  END
> <s_m_source_file>
../4iqt_ligand.sdf

> <i_m_source_file_index>
1

> <s_epik_input>
W09IXUMoPU8pW0NASF0oW09IXSlbQ0gyXUMoPU8pW0NIMl1bQ0gyXVtDSF0xW0NIXT1DKFtDSF09TjEpQyg9TyljKFtjSF0yKVtjSF1bY0hdW2NIXWMyRg==

> <s_epik_cmdline>
J2VwaWtfYXBwJywgJy1pbWFlJywgJ2xpZ2FuZF9wcm8ubWFlJywgJy1vbWFlJywgJ2xpZ2FuZF9wcmVwLm1hZScsICctbXMnLCAnMScsICctcGgnLCAnNycsICctcGh0JywgJzAuNScsICctbnQn

> <r_lp_tautomer_probability>
1

> <r_epik_Ionization_Penalty>
  0.0004

> <r_epik_Ionization_Penalty_Charging>
  0.0003

> <r_epik_Ionization_Penalty_Neutral>
  0.0000

> <r_epik_State_Penalty>
 -0.0000

> <r_epik_Charging_Adjusted_Penalty>
0.000348967833134202

> <i_epik_Tot_Q>
-1

> <i_epik_Tot_abs_Q>
1

> <s_epik_Chemistry_Notes>
This compound has an imine and may undergo hydrolysis.

$$$$
