4iqu_ligand
                    3D
 Schrodinger Suite 2020-3.
 37 38  0  0  1  0            999 V2000
   18.8400    8.6700   18.6050 O   0  0  0  0  0  0
   20.6870    9.2140   13.8110 O   0  0  0  0  0  0
   12.5220    9.3800   21.8360 O   0  0  0  0  0  0
   18.6760    8.6680   13.5410 O   0  5  0  0  0  0
   20.5230    8.7140   16.6440 O   0  0  0  0  0  0
    6.9500    8.9560   18.6200 F   0  0  0  0  0  0
   16.4880    8.1160   18.2450 C   0  0  0  0  0  0
   16.0910    7.0040   19.2120 C   0  0  0  0  0  0
   18.0790    8.7680   16.4240 C   0  0  0  0  0  0
    9.0410    7.8180   18.7510 C   0  0  0  0  0  0
    8.5930    9.8500   20.1190 C   0  0  0  0  0  0
   10.3450    7.7370   19.3240 C   0  0  0  0  0  0
    9.8980    9.7610   20.6860 C   0  0  0  0  0  0
   13.4280    6.5690   21.1850 C   0  0  0  0  0  0
   13.7010    7.5690   19.2710 C   0  0  0  0  0  0
   14.3520    5.9610   20.4220 N   0  0  0  0  0  0
   17.9120    8.4800   17.8500 C   0  0  0  0  0  0
   19.5840    8.9820   14.3320 C   0  0  0  0  0  0
   19.4420    9.0950   15.8820 C   0  0  2  0  0  0
   12.1560    8.6050   20.8930 C   0  0  0  0  0  0
    8.1940    8.8780   19.1660 C   0  0  0  0  0  0
   14.8000    6.8750   19.5780 C   0  0  0  0  0  0
   10.8060    8.6950   20.2970 C   0  0  0  0  0  0
   13.0430    7.6280   20.4670 C   0  0  0  0  0  0
   20.4716    8.7754   17.7411 H   0  0  0  0  0  0
   16.0418    7.9208   17.2587 H   0  0  0  0  0  0
   16.1247    9.0814   18.6272 H   0  0  0  0  0  0
   16.8473    6.3113   19.6098 H   0  0  0  0  0  0
   17.7585    7.8967   15.8340 H   0  0  0  0  0  0
   17.4666    9.6403   16.1519 H   0  0  0  0  0  0
    8.7051    7.0868   18.0157 H   0  0  0  0  0  0
    7.9140   10.6506   20.4125 H   0  0  0  0  0  0
   11.0100    6.9294   19.0179 H   0  0  0  0  0  0
   10.2184   10.5008   21.4196 H   0  0  0  0  0  0
   13.1631    6.1498   22.1669 H   0  0  0  0  0  0
   13.2650    8.0432   18.3794 H   0  0  0  0  0  0
   19.6193   10.1349   16.1936 H   0  0  0  0  0  0
  1 17  2  0  0  0
  2 18  2  0  0  0
  3 20  2  0  0  0
  4 18  1  0  0  0
  5 19  1  0  0  0
  5 25  1  0  0  0
  6 21  1  0  0  0
  7  8  1  0  0  0
  7 17  1  0  0  0
  7 26  1  0  0  0
  7 27  1  0  0  0
  8 22  2  0  0  0
  8 28  1  0  0  0
  9 17  1  0  0  0
  9 19  1  0  0  0
  9 29  1  0  0  0
  9 30  1  0  0  0
 10 12  2  0  0  0
 10 21  1  0  0  0
 10 31  1  0  0  0
 11 13  1  0  0  0
 11 21  2  0  0  0
 11 32  1  0  0  0
 12 23  1  0  0  0
 12 33  1  0  0  0
 13 23  2  0  0  0
 13 34  1  0  0  0
 14 16  2  0  0  0
 14 24  1  0  0  0
 14 35  1  0  0  0
 15 22  1  0  0  0
 15 24  2  0  0  0
 15 36  1  0  0  0
 16 22  1  0  0  0
 18 19  1  0  0  0
 19 37  1  0  0  0
 20 23  1  0  0  0
 20 24  1  0  0  0
M  CHG  1   4  -1
M  END
> <s_m_source_file>
../4iqu_ligand.sdf

> <i_m_source_file_index>
1

> <s_epik_input>
Tz1DKFtPSF0pW0NASF0oW09IXSlbQ0gyXUMoPU8pW0NIMl0vW0NIXT1DMVxbQ0hdPUMoW0NIXT1OMSlDKD1PKWMoW2NIXVtjSF0yKVtjSF1bY0hdYzJG

> <s_epik_cmdline>
J2VwaWtfYXBwJywgJy1pbWFlJywgJ2xpZ2FuZF9wcm8ubWFlJywgJy1vbWFlJywgJ2xpZ2FuZF9wcmVwLm1hZScsICctbXMnLCAnMScsICctcGgnLCAnNycsICctcGh0JywgJzAuNScsICctbnQn

> <r_lp_tautomer_probability>
1

> <r_epik_Ionization_Penalty>
  0.0002

> <r_epik_Ionization_Penalty_Charging>
  0.0002

> <r_epik_Ionization_Penalty_Neutral>
  0.0000

> <r_epik_State_Penalty>
 -0.0000

> <r_epik_Charging_Adjusted_Penalty>
0.000182427151425371

> <i_epik_Tot_Q>
-1

> <i_epik_Tot_abs_Q>
1

> <s_epik_Chemistry_Notes>
This compound has an imine and may undergo hydrolysis.

$$$$
