4is6_ligand
                    3D
 Schrodinger Suite 2020-3.
236239  0  0  1  0            999 V2000
   26.5000   38.8080   26.5350 N   0  3  0  0  0  0
   25.4230   39.4730   25.7430 C   0  0  2  0  0  0
   24.1420   38.6420   25.7700 C   0  0  0  0  0  0
   24.0940   37.5710   26.3740 O   0  0  0  0  0  0
   25.8910   39.7000   24.2950 C   0  0  0  0  0  0
   26.8050   40.9170   24.1160 C   0  0  0  0  0  0
   27.6370   40.8670   22.8240 C   0  0  0  0  0  0
   28.4940   42.0510   22.6970 N   0  0  0  0  0  0
   29.4830   42.1920   21.8130 C   0  0  0  0  0  0
   29.7630   41.2180   20.9540 N   0  0  0  0  0  0
   30.1950   43.3130   21.7880 N   0  0  0  0  0  0
   23.1010   39.1420   25.1210 N   0  0  0  0  0  0
   21.8270   38.4440   25.1000 C   0  0  2  0  0  0
   21.2600   38.3460   23.6890 C   0  0  0  0  0  0
   21.5590   39.1720   22.8190 O   0  0  0  0  0  0
   20.8160   39.1690   25.9890 C   0  0  0  0  0  0
   20.1580   40.3640   25.3240 C   0  0  0  0  0  0
   19.0560   40.9550   26.1700 C   0  0  0  0  0  0
   19.3040   41.4630   27.2610 O   0  0  0  0  0  0
   17.8230   40.8870   25.6740 N   0  0  0  0  0  0
   20.4290   37.3360   23.4660 N   0  0  0  0  0  0
   19.8310   37.1630   22.1630 C   0  0  2  0  0  0
   18.6550   38.1230   22.0150 C   0  0  0  0  0  0
   17.8770   38.3250   22.9490 O   0  0  0  0  0  0
   19.3670   35.7140   21.9740 C   0  0  0  0  0  0
   20.4260   34.6090   21.9900 C   0  0  0  0  0  0
   21.6600   35.0520   21.2220 C   0  0  0  0  0  0
   20.7950   34.2780   23.4180 C   0  0  0  0  0  0
   18.5450   38.7270   20.8360 N   0  0  0  0  0  0
   17.4600   39.6630   20.5460 C   0  0  2  0  0  0
   16.3720   38.9770   19.7020 C   0  0  0  0  0  0
   16.6560   38.3920   18.6520 O   0  0  0  0  0  0
   17.9900   40.8900   19.7750 C   0  0  0  0  0  0
   18.8540   41.8670   20.5600 C   0  0  0  0  0  0
   19.6090   42.8390   19.8930 C   0  0  0  0  0  0
   18.9000   41.8450   21.9620 C   0  0  0  0  0  0
   20.3870   43.7630   20.5950 C   0  0  0  0  0  0
   19.6770   42.7700   22.6800 C   0  0  0  0  0  0
   20.4160   43.7220   21.9890 C   0  0  0  0  0  0
   21.1850   44.6310   22.6800 O   0  0  0  0  0  0
   15.1110   39.0310   20.1580 N   0  0  0  0  0  0
   14.0680   38.3900   19.3610 C   0  0  2  0  0  0
   13.7130   39.3210   18.2080 C   0  0  0  0  0  0
   13.7260   40.5320   18.3750 O   0  0  0  0  0  0
   12.9280   38.2470   20.3590 C   0  0  0  0  0  0
   13.0620   39.5110   21.1710 C   0  0  0  0  0  0
   14.5570   39.6010   21.4020 C   0  0  0  0  0  0
   13.4430   38.7670   17.0330 N   0  0  0  0  0  0
   13.0410   39.5910   15.8970 C   0  0  2  0  0  0
   11.5240   39.6770   16.0230 C   0  0  0  0  0  0
   10.8630   38.6610   16.2630 O   0  0  0  0  0  0
   13.4290   38.9350   14.5710 C   0  0  0  0  0  0
   12.9110   39.6590   13.3340 C   0  0  0  0  0  0
   13.4030   41.0950   13.2190 C   0  0  0  0  0  0
   13.0080   41.7690   12.2410 O   0  0  0  0  0  0
   14.1760   41.5520   14.0950 O   0  0  0  0  0  0
   10.9750   40.8810   15.8690 N   0  0  0  0  0  0
    9.5360   41.0870   16.0180 C   0  0  2  0  0  0
    8.6900   40.4450   14.9430 C   0  0  0  0  0  0
    9.1080   40.3410   13.7870 O   0  0  0  0  0  0
    9.2130   42.5830   16.0640 C   0  0  0  0  0  0
    9.9150   43.3170   17.1620 C   0  0  0  0  0  0
   10.5440   44.5280   17.0620 C   0  0  0  0  0  0
   10.0820   42.8890   18.5240 C   0  0  0  0  0  0
   11.0970   44.8770   18.2740 N   0  0  0  0  0  0
   10.8310   43.8900   19.1880 C   0  0  0  0  0  0
    9.6750   41.7580   19.2450 C   0  0  0  0  0  0
   11.1840   43.7950   20.5390 C   0  0  0  0  0  0
   10.0260   41.6630   20.5890 C   0  0  0  0  0  0
   10.7760   42.6790   21.2200 C   0  0  0  0  0  0
    7.4960   40.0130   15.3480 N   0  0  0  0  0  0
    6.5390   39.4120   14.4320 C   0  0  2  0  0  0
    5.5200   40.4860   14.1290 C   0  0  0  0  0  0
    4.7780   40.9220   15.0040 O   0  0  0  0  0  0
    5.8390   38.1790   15.0330 C   0  0  2  0  0  0
    6.7360   37.0630   15.0060 O   0  0  0  0  0  0
    4.5960   37.8260   14.2270 C   0  0  0  0  0  0
    5.5020   40.9110   12.8710 N   0  0  0  0  0  0
    4.6090   41.9640   12.4480 C   0  0  2  0  0  0
    3.1540   41.5360   12.4100 C   0  0  0  0  0  0
    2.8470   40.4020   12.0580 O   0  0  0  0  0  0
    5.0940   42.5280   11.1070 C   0  0  0  0  0  0
    5.7610   43.9170   11.2150 C   0  0  0  0  0  0
    6.9150   43.9980   12.2220 C   0  0  0  0  0  0
    7.8050   43.1090   12.2070 O   0  0  0  0  0  0
    6.9320   44.9780   13.0100 O   0  0  0  0  0  0
    2.2660   42.4470   12.8040 N   0  0  0  0  0  0
    0.8420   42.1570   12.8330 C   0  0  2  0  0  0
    0.1370   42.5020   11.5270 C   0  0  0  0  0  0
    0.4070   43.5230   10.8940 O   0  0  0  0  0  0
    0.1890   42.8900   13.9860 C   0  0  0  0  0  0
   -0.7790   41.6320   11.1340 N   0  0  0  0  0  0
   -1.5450   41.8170    9.9110 C   0  0  2  0  0  0
   -2.8230   42.6010   10.2190 C   0  0  0  0  0  0
   -3.1640   42.8080   11.3920 O   0  0  0  0  0  0
   -1.8790   40.4490    9.3200 C   0  0  0  0  0  0
   -0.6470   39.5750    9.0780 C   0  0  0  0  0  0
   -0.9670   38.0910    9.0020 C   0  0  0  0  0  0
   -1.8450   37.6710    8.2540 O   0  0  0  0  0  0
   -0.2460   37.2910    9.7730 N   0  0  0  0  0  0
   -3.5140   43.0250    9.1580 N   0  0  0  0  0  0
   -4.7520   43.8090    9.2430 C   0  0  2  0  0  0
   -5.9690   42.9760    8.8380 C   0  0  0  0  0  0
   -5.8810   42.1660    7.9200 O   0  0  0  0  0  0
   -4.6620   45.0120    8.2940 C   0  0  0  0  0  0
   -5.7930   46.0340    8.4250 C   0  0  0  0  0  0
   -5.4550   47.3360    7.7250 C   0  0  0  0  0  0
   -5.0430   47.1130    6.3450 N   0  0  0  0  0  0
   -4.4670   48.0400    5.5900 C   0  0  0  0  0  0
   -4.2380   49.2490    6.0950 N   0  0  0  0  0  0
   -4.1190   47.7600    4.3370 N   0  0  0  0  0  0
   -7.1030   43.1640    9.5060 N   0  0  0  0  0  0
   -8.3050   42.4140    9.1320 C   0  0  2  0  0  0
   -9.4170   43.3530    8.6790 C   0  0  0  0  0  0
   -9.2230   44.5840    8.7860 O   0  0  0  0  0  0
   -8.8110   41.5450   10.3010 C   0  0  0  0  0  0
  -10.0810   40.6960   10.0540 C   0  0  0  0  0  0
   -9.7630   39.1830   10.0200 C   0  0  0  0  0  0
  -11.1000   41.0080   11.1530 C   0  0  0  0  0  0
  -10.4973   42.9034    8.2116 O   0  0  0  0  0  0
   26.1529   38.6517   27.5670 H   0  0  0  0  0  0
   27.3965   39.4453   26.5422 H   0  0  0  0  0  0
   26.7440   37.8371   26.0792 H   0  0  0  0  0  0
   25.2214   40.4419   26.2232 H   0  0  0  0  0  0
   26.4527   38.8198   23.9490 H   0  0  0  0  0  0
   25.0159   39.8545   23.6467 H   0  0  0  0  0  0
   26.1951   41.8318   24.0824 H   0  0  0  0  0  0
   27.5074   40.9755   24.9606 H   0  0  0  0  0  0
   28.2758   39.9716   22.8337 H   0  0  0  0  0  0
   26.9633   40.8274   21.9553 H   0  0  0  0  0  0
   28.3433   42.9131   23.3634 H   0  0  0  0  0  0
   29.1778   40.2867   20.9686 H   0  0  0  0  0  0
   30.5800   41.3428   20.2282 H   0  0  0  0  0  0
   29.9691   44.1239   22.4961 H   0  0  0  0  0  0
   23.2118   40.1005   24.5928 H   0  0  0  0  0  0
   22.0578   37.4380   25.4804 H   0  0  0  0  0  0
   20.0136   38.4729   26.2748 H   0  0  0  0  0  0
   21.3214   39.5375   26.8939 H   0  0  0  0  0  0
   20.9107   41.1469   25.1493 H   0  0  0  0  0  0
   19.7212   40.0544   24.3631 H   0  0  0  0  0  0
   17.6500   40.4225   24.6920 H   0  0  0  0  0  0
   16.9768   41.2953   26.2460 H   0  0  0  0  0  0
   20.1959   36.6296   24.2763 H   0  0  0  0  0  0
   20.6184   37.4018   21.4330 H   0  0  0  0  0  0
   18.6645   35.4463   22.7770 H   0  0  0  0  0  0
   18.8659   35.6135   20.9999 H   0  0  0  0  0  0
   20.0218   33.7048   21.5115 H   0  0  0  0  0  0
   21.3806   35.2902   20.1851 H   0  0  0  0  0  0
   22.4039   34.2417   21.2244 H   0  0  0  0  0  0
   22.0888   35.9448   21.7006 H   0  0  0  0  0  0
   19.8954   33.9588   23.9646 H   0  0  0  0  0  0
   21.2215   35.1688   23.9024 H   0  0  0  0  0  0
   21.5366   33.4656   23.4262 H   0  0  0  0  0  0
   19.3002   38.5052   20.0675 H   0  0  0  0  0  0
   17.0682   39.9567   21.5310 H   0  0  0  0  0  0
   18.6100   40.5530   18.9311 H   0  0  0  0  0  0
   17.1420   41.4786   19.3949 H   0  0  0  0  0  0
   19.5895   42.8757   18.8038 H   0  0  0  0  0  0
   18.3223   41.0966   22.5044 H   0  0  0  0  0  0
   20.9680   44.5117   20.0565 H   0  0  0  0  0  0
   19.6996   42.7408   23.7694 H   0  0  0  0  0  0
   21.7702   45.3848   22.1329 H   0  0  0  0  0  0
   14.3729   37.4259   18.9279 H   0  0  0  0  0  0
   11.9727   38.1817   19.8175 H   0  0  0  0  0  0
   13.0747   37.3342   20.9550 H   0  0  0  0  0  0
   12.6688   40.3609   20.5939 H   0  0  0  0  0  0
   12.4924   39.4080   22.1064 H   0  0  0  0  0  0
   14.8919   39.0012   22.2611 H   0  0  0  0  0  0
   14.9081   40.6369   21.5189 H   0  0  0  0  0  0
   13.5245   37.6759   16.9195 H   0  0  0  0  0  0
   13.5492   40.5655   15.9417 H   0  0  0  0  0  0
   14.5252   38.8999   14.4862 H   0  0  0  0  0  0
   13.0257   37.9122   14.5360 H   0  0  0  0  0  0
   13.2417   39.1248   12.4311 H   0  0  0  0  0  0
   11.8117   39.6891   13.3602 H   0  0  0  0  0  0
   14.5381   42.5882   14.0225 H   0  0  0  0  0  0
   11.6298   41.7304   15.6245 H   0  0  0  0  0  0
    9.3194   40.5672   16.9629 H   0  0  0  0  0  0
    9.5109   43.0518   15.1145 H   0  0  0  0  0  0
    8.1324   42.7203   16.2175 H   0  0  0  0  0  0
   10.5994   45.1293   16.1546 H   0  0  0  0  0  0
    9.0961   40.9697   18.7638 H   0  0  0  0  0  0
   11.7611   44.5786   21.0300 H   0  0  0  0  0  0
    9.7166   40.7898   21.1634 H   0  0  0  0  0  0
   11.0363   42.5729   22.2731 H   0  0  0  0  0  0
    7.2437   40.1228   16.4130 H   0  0  0  0  0  0
    7.0978   39.0879   13.5417 H   0  0  0  0  0  0
    5.5787   38.3526   16.0876 H   0  0  0  0  0  0
    7.6994   37.1188   15.5340 H   0  0  0  0  0  0
    3.8975   38.6756   14.2394 H   0  0  0  0  0  0
    4.1095   36.9448   14.6705 H   0  0  0  0  0  0
    4.8833   37.6026   13.1889 H   0  0  0  0  0  0
    6.1850   40.4446   12.1457 H   0  0  0  0  0  0
    4.6728   42.7242   13.2405 H   0  0  0  0  0  0
    5.8360   41.8444   10.6686 H   0  0  0  0  0  0
    4.2397   42.6302   10.4217 H   0  0  0  0  0  0
    6.1731   44.2030   10.2360 H   0  0  0  0  0  0
    5.0128   44.6597   11.5290 H   0  0  0  0  0  0
    8.6389   43.1535   12.9230 H   0  0  0  0  0  0
    2.6319   43.4376   13.1119 H   0  0  0  0  0  0
    0.7895   41.0679   12.9779 H   0  0  0  0  0  0
    0.7054   42.6338   14.9229 H   0  0  0  0  0  0
   -0.8680   42.5939   14.0571 H   0  0  0  0  0  0
    0.2553   43.9747   13.8155 H   0  0  0  0  0  0
   -0.9536   40.7472   11.7638 H   0  0  0  0  0  0
   -0.9163   42.3885    9.2124 H   0  0  0  0  0  0
   -2.5409   39.9037   10.0089 H   0  0  0  0  0  0
   -2.3855   40.5813    8.3526 H   0  0  0  0  0  0
   -0.1758   39.8610    8.1261 H   0  0  0  0  0  0
    0.0705   39.7171    9.8996 H   0  0  0  0  0  0
    0.5309   37.7120   10.4281 H   0  0  0  0  0  0
   -0.4241   36.2056    9.7582 H   0  0  0  0  0  0
   -3.1020   42.7524    8.1752 H   0  0  0  0  0  0
   -4.8333   44.1123   10.2972 H   0  0  0  0  0  0
   -3.7252   45.5574    8.4812 H   0  0  0  0  0  0
   -4.6791   44.6593    7.2522 H   0  0  0  0  0  0
   -6.7098   45.6261    7.9743 H   0  0  0  0  0  0
   -5.9717   46.2488    9.4889 H   0  0  0  0  0  0
   -6.3390   47.9906    7.7215 H   0  0  0  0  0  0
   -4.6313   47.8350    8.2565 H   0  0  0  0  0  0
   -5.2049   46.1320    5.8743 H   0  0  0  0  0  0
   -4.5275   49.4759    7.1317 H   0  0  0  0  0  0
   -4.3104   46.7587    3.9237 H   0  0  0  0  0  0
   -3.6398   48.5297    3.7142 H   0  0  0  0  0  0
   -7.1395   43.8818   10.3388 H   0  0  0  0  0  0
   -7.9841   41.7815    8.2912 H   0  0  0  0  0  0
   -8.0293   40.8266   10.5890 H   0  0  0  0  0  0
   -9.0512   42.1892   11.1596 H   0  0  0  0  0  0
  -10.5060   40.9589    9.0741 H   0  0  0  0  0  0
   -9.0303   38.9801    9.2251 H   0  0  0  0  0  0
  -10.6860   38.6187    9.8207 H   0  0  0  0  0  0
   -9.3466   38.8740   10.9901 H   0  0  0  0  0  0
  -11.3122   42.0873   11.1605 H   0  0  0  0  0  0
  -10.6903   40.7081   12.1288 H   0  0  0  0  0  0
  -12.0297   40.4528   10.9593 H   0  0  0  0  0  0
  -11.2882   43.5969    7.8899 H   0  0  0  0  0  0
  1  2  1  0  0  0
  1121  1  0  0  0
  1122  1  0  0  0
  1123  1  0  0  0
  2  3  1  0  0  0
  2  5  1  0  0  0
  2124  1  0  0  0
  3  4  2  0  0  0
  3 12  1  0  0  0
  5  6  1  0  0  0
  5125  1  0  0  0
  5126  1  0  0  0
  6  7  1  0  0  0
  6127  1  0  0  0
  6128  1  0  0  0
  7  8  1  0  0  0
  7129  1  0  0  0
  7130  1  0  0  0
  8  9  1  0  0  0
  8131  1  0  0  0
  9 10  1  0  0  0
  9 11  2  0  0  0
 10132  1  0  0  0
 10133  1  0  0  0
 11134  1  0  0  0
 12 13  1  0  0  0
 12135  1  0  0  0
 13 14  1  0  0  0
 13 16  1  0  0  0
 13136  1  0  0  0
 14 15  2  0  0  0
 14 21  1  0  0  0
 16 17  1  0  0  0
 16137  1  0  0  0
 16138  1  0  0  0
 17 18  1  0  0  0
 17139  1  0  0  0
 17140  1  0  0  0
 18 19  2  0  0  0
 18 20  1  0  0  0
 20141  1  0  0  0
 20142  1  0  0  0
 21 22  1  0  0  0
 21143  1  0  0  0
 22 23  1  0  0  0
 22 25  1  0  0  0
 22144  1  0  0  0
 23 24  2  0  0  0
 23 29  1  0  0  0
 25 26  1  0  0  0
 25145  1  0  0  0
 25146  1  0  0  0
 26 27  1  0  0  0
 26 28  1  0  0  0
 26147  1  0  0  0
 27148  1  0  0  0
 27149  1  0  0  0
 27150  1  0  0  0
 28151  1  0  0  0
 28152  1  0  0  0
 28153  1  0  0  0
 29 30  1  0  0  0
 29154  1  0  0  0
 30 31  1  0  0  0
 30 33  1  0  0  0
 30155  1  0  0  0
 31 32  2  0  0  0
 31 41  1  0  0  0
 33 34  1  0  0  0
 33156  1  0  0  0
 33157  1  0  0  0
 34 35  2  0  0  0
 34 36  1  0  0  0
 35 37  1  0  0  0
 35158  1  0  0  0
 36 38  2  0  0  0
 36159  1  0  0  0
 37 39  2  0  0  0
 37160  1  0  0  0
 38 39  1  0  0  0
 38161  1  0  0  0
 39 40  1  0  0  0
 40162  1  0  0  0
 41 42  1  0  0  0
 41 47  1  0  0  0
 42 43  1  0  0  0
 42 45  1  0  0  0
 42163  1  0  0  0
 43 44  2  0  0  0
 43 48  1  0  0  0
 45 46  1  0  0  0
 45164  1  0  0  0
 45165  1  0  0  0
 46 47  1  0  0  0
 46166  1  0  0  0
 46167  1  0  0  0
 47168  1  0  0  0
 47169  1  0  0  0
 48 49  1  0  0  0
 48170  1  0  0  0
 49 50  1  0  0  0
 49 52  1  0  0  0
 49171  1  0  0  0
 50 51  2  0  0  0
 50 57  1  0  0  0
 52 53  1  0  0  0
 52172  1  0  0  0
 52173  1  0  0  0
 53 54  1  0  0  0
 53174  1  0  0  0
 53175  1  0  0  0
 54 55  2  0  0  0
 54 56  1  0  0  0
 56176  1  0  0  0
 57 58  1  0  0  0
 57177  1  0  0  0
 58 59  1  0  0  0
 58 61  1  0  0  0
 58178  1  0  0  0
 59 60  2  0  0  0
 59 71  1  0  0  0
 61 62  1  0  0  0
 61179  1  0  0  0
 61180  1  0  0  0
 62 63  2  0  0  0
 62 64  1  0  0  0
 63 65  1  0  0  0
 63181  1  0  0  0
 64 66  2  0  0  0
 64 67  1  0  0  0
 65 66  1  0  0  0
 66 68  1  0  0  0
 67 69  2  0  0  0
 67182  1  0  0  0
 68 70  2  0  0  0
 68183  1  0  0  0
 69 70  1  0  0  0
 69184  1  0  0  0
 70185  1  0  0  0
 71 72  1  0  0  0
 71186  1  0  0  0
 72 73  1  0  0  0
 72 75  1  0  0  0
 72187  1  0  0  0
 73 74  2  0  0  0
 73 78  1  0  0  0
 75 76  1  0  0  0
 75 77  1  0  0  0
 75188  1  0  0  0
 76189  1  0  0  0
 77190  1  0  0  0
 77191  1  0  0  0
 77192  1  0  0  0
 78 79  1  0  0  0
 78193  1  0  0  0
 79 80  1  0  0  0
 79 82  1  0  0  0
 79194  1  0  0  0
 80 81  2  0  0  0
 80 87  1  0  0  0
 82 83  1  0  0  0
 82195  1  0  0  0
 82196  1  0  0  0
 83 84  1  0  0  0
 83197  1  0  0  0
 83198  1  0  0  0
 84 85  1  0  0  0
 84 86  2  0  0  0
 85199  1  0  0  0
 87 88  1  0  0  0
 87200  1  0  0  0
 88 89  1  0  0  0
 88 91  1  0  0  0
 88201  1  0  0  0
 89 90  2  0  0  0
 89 92  1  0  0  0
 91202  1  0  0  0
 91203  1  0  0  0
 91204  1  0  0  0
 92 93  1  0  0  0
 92205  1  0  0  0
 93 94  1  0  0  0
 93 96  1  0  0  0
 93206  1  0  0  0
 94 95  2  0  0  0
 94101  1  0  0  0
 96 97  1  0  0  0
 96207  1  0  0  0
 96208  1  0  0  0
 97 98  1  0  0  0
 97209  1  0  0  0
 97210  1  0  0  0
 98 99  2  0  0  0
 98100  1  0  0  0
100211  1  0  0  0
100212  1  0  0  0
101102  1  0  0  0
101213  1  0  0  0
102103  1  0  0  0
102105  1  0  0  0
102214  1  0  0  0
103104  2  0  0  0
103112  1  0  0  0
105106  1  0  0  0
105215  1  0  0  0
105216  1  0  0  0
106107  1  0  0  0
106217  1  0  0  0
106218  1  0  0  0
107108  1  0  0  0
107219  1  0  0  0
107220  1  0  0  0
108109  1  0  0  0
108221  1  0  0  0
109110  2  0  0  0
109111  1  0  0  0
110222  1  0  0  0
111223  1  0  0  0
111224  1  0  0  0
112113  1  0  0  0
112225  1  0  0  0
113114  1  0  0  0
113116  1  0  0  0
113226  1  0  0  0
114115  2  0  0  0
114120  1  0  0  0
116117  1  0  0  0
116227  1  0  0  0
116228  1  0  0  0
117118  1  0  0  0
117119  1  0  0  0
117229  1  0  0  0
118230  1  0  0  0
118231  1  0  0  0
118232  1  0  0  0
119233  1  0  0  0
119234  1  0  0  0
119235  1  0  0  0
120236  1  0  0  0
M  CHG  1   1   1
M  END
> <s_m_source_file>
../4is6_ligand.sdf

> <i_m_source_file_index>
1

> <s_epik_input>
W0hdL049QyhbTkgyXSlcW05IXVtDSDJdW0NIMl1bQ0gyXVtDQEhdKFtOSDMrXSlDKD1PKVtOSF1bQ0BASF0oW0NIMl1bQ0gyXUMoPU8pW05IMl0pQyg9TylbTkhdW0NAQEhdKFtDSDJdW0NIXShbQ0gzXSlbQ0gzXSlDKD1PKVtOSF1bQ0BASF0oW0NIMl1jMVtjSF1bY0hdYyhbT0hdKVtjSF1bY0hdMSlDKD1PKU4yW0NAQEhdKFtDSDJdW0NIMl1bQ0gyXTIpQyg9TylbTkhdW0NAQEhdKFtDSDJdW0NIMl1DKD1PKVtPSF0pQyg9TylbTkhdW0NAQEhdKFtDSDJdYzNbY0hdW25IXWMoYzM0KVtjSF1bY0hdW2NIXVtjSF00KUMoPU8pW05IXVtDQEBIXShbQ0BIXShbT0hdKVtDSDNdKUMoPU8pW05IXVtDQEBIXShbQ0gyXVtDSDJdQyg9TylbT0hdKUMoPU8pW05IXVtDQEBIXShbQ0gzXSlDKD1PKVtOSF1bQ0BASF0oW0NIMl1bQ0gyXUMoPU8pW05IMl0pQyg9TylbTkhdW0NASF0oQyg9TylbTkhdW0NASF0oQyg9TylbT0hdKVtDSDJdW0NIXShbQ0gzXSlbQ0gzXSlbQ0gyXVtDSDJdW0NIMl1bTkhdL0MoPU5cW0hdKVtOSDJd

> <s_epik_cmdline>
J2VwaWtfYXBwJywgJy1pbWFlJywgJ2xpZ2FuZF9wcm8ubWFlJywgJy1vbWFlJywgJ2xpZ2FuZF9wcmVwLm1hZScsICctbXMnLCAnMScsICctcGgnLCAnNycsICctcGh0JywgJzAuNScsICctbnQn

> <s_epik_pKa_notes>
Molecule size exceeds maximum supported for generating protonation states

> <s_epik_Chemistry_Notes>
This compound has an imine and may undergo hydrolysis.

$$$$
