4isi_ligand
                    3D
 Schrodinger Suite 2020-3.
 65 68  0  0  1  0            999 V2000
    9.6070   34.4960   28.7990 C   0  0  0  0  0  0
    8.8560   35.6890   28.9060 C   0  0  0  0  0  0
    8.6010   36.4810   27.7750 C   0  0  0  0  0  0
    9.0760   36.0710   26.5200 C   0  0  0  0  0  0
    0.0240   37.3310   24.7960 Cl  0  0  0  0  0  0
    9.8520   34.8940   26.4100 C   0  0  0  0  0  0
   10.1100   34.1090   27.5420 C   0  0  0  0  0  0
    9.9050   33.6890   29.9950 C   0  0  0  0  0  0
   10.3660   32.4320   29.9110 N   0  3  0  0  0  0
    9.7210   34.2630   31.2050 N   0  0  0  0  0  0
    8.7020   36.8290   25.2920 C   0  0  0  0  0  0
    7.3590   36.4550   24.8930 N   0  0  0  0  0  0
    6.3490   37.3370   25.0000 C   0  0  0  0  0  0
    6.4150   38.4810   25.4410 O   0  0  0  0  0  0
    5.0390   36.7960   24.5150 C   0  0  2  0  0  0
    4.4360   37.1520   23.1390 C   0  0  0  0  0  0
    2.8910   37.1380   23.2870 C   0  0  0  0  0  0
    2.6950   37.0070   24.7920 C   0  0  0  0  0  0
    3.8850   36.8120   25.4050 N   0  0  0  0  0  0
    2.3130   35.9380   22.5070 C   0  0  0  0  0  0
    2.2610   38.4250   22.6850 C   0  0  0  0  0  0
    2.8990   34.5620   22.8660 C   0  0  0  0  0  0
    2.6220   39.7360   23.3950 C   0  0  0  0  0  0
    1.5430   37.0610   25.5790 C   0  0  0  0  0  0
    1.5470   36.9250   26.9060 N   0  0  0  0  0  0
    2.7160   36.7250   27.5400 C   0  0  0  0  0  0
    3.9880   36.6570   26.7910 C   0  0  0  0  0  0
    5.0800   36.4750   27.3130 O   0  0  0  0  0  0
    2.8100   36.5060   28.8790 N   0  0  0  0  0  0
    1.7690   36.7310   29.8290 C   0  0  0  0  0  0
    1.4210   35.9510   31.1180 C   0  0  0  0  0  0
    1.5590   37.3140   31.8550 C   0  0  0  0  0  0
    1.3200   38.0510   30.5020 C   0  0  0  0  0  0
    8.4705   35.9975   29.8777 H   0  0  0  0  0  0
    8.0373   37.4089   27.8714 H   0  0  0  0  0  0
   10.2513   34.5960   25.4405 H   0  0  0  0  0  0
   10.7008   33.1977   27.4493 H   0  0  0  0  0  0
   10.5154   31.9657   28.9260 H   0  0  0  0  0  0
    9.3430   35.2938   31.2730 H   0  0  0  0  0  0
    9.9493   33.6993   32.1216 H   0  0  0  0  0  0
    8.7382   37.9082   25.5020 H   0  0  0  0  0  0
    9.4082   36.5889   24.4835 H   0  0  0  0  0  0
    7.1626   35.4462   24.5008 H   0  0  0  0  0  0
    5.5227   35.8081   24.5161 H   0  0  0  0  0  0
    4.7832   38.1501   22.8337 H   0  0  0  0  0  0
    4.7570   36.4085   22.3945 H   0  0  0  0  0  0
    1.2306   35.8686   22.6903 H   0  0  0  0  0  0
    2.4944   36.0783   21.4312 H   0  0  0  0  0  0
    2.5877   38.5393   21.6409 H   0  0  0  0  0  0
    1.1643   38.3471   22.7195 H   0  0  0  0  0  0
    2.4166   33.7867   22.2527 H   0  0  0  0  0  0
    2.7178   34.3528   23.9306 H   0  0  0  0  0  0
    3.9817   34.5625   22.6715 H   0  0  0  0  0  0
    2.1247   40.5763   22.8885 H   0  0  0  0  0  0
    3.7118   39.8820   23.3635 H   0  0  0  0  0  0
    2.2884   39.6898   24.4422 H   0  0  0  0  0  0
    3.7861   36.1243   29.2128 H   0  0  0  0  0  0
    1.5222   36.4124   28.8055 H   0  0  0  0  0  0
    0.4276   35.4908   31.0112 H   0  0  0  0  0  0
    2.1728   35.1657   31.2856 H   0  0  0  0  0  0
    0.7864   37.3892   32.6344 H   0  0  0  0  0  0
    2.5546   37.3814   32.3179 H   0  0  0  0  0  0
    1.9958   38.8648   30.2002 H   0  0  0  0  0  0
    0.2934   38.2916   30.1886 H   0  0  0  0  0  0
   10.5946   31.8676   30.8271 H   0  0  0  0  0  0
  1  2  2  0  0  0
  1  7  1  0  0  0
  1  8  1  0  0  0
  2  3  1  0  0  0
  2 34  1  0  0  0
  3  4  2  0  0  0
  3 35  1  0  0  0
  4  6  1  0  0  0
  4 11  1  0  0  0
  5 24  1  0  0  0
  6  7  2  0  0  0
  6 36  1  0  0  0
  7 37  1  0  0  0
  8  9  2  0  0  0
  8 10  1  0  0  0
  9 38  1  0  0  0
  9 65  1  0  0  0
 10 39  1  0  0  0
 10 40  1  0  0  0
 11 12  1  0  0  0
 11 41  1  0  0  0
 11 42  1  0  0  0
 12 13  1  0  0  0
 12 43  1  0  0  0
 13 14  2  0  0  0
 13 15  1  0  0  0
 15 16  1  0  0  0
 15 19  1  0  0  0
 15 44  1  0  0  0
 16 17  1  0  0  0
 16 45  1  0  0  0
 16 46  1  0  0  0
 17 18  1  0  0  0
 17 20  1  0  0  0
 17 21  1  0  0  0
 18 19  1  0  0  0
 18 24  2  0  0  0
 19 27  1  0  0  0
 20 22  1  0  0  0
 20 47  1  0  0  0
 20 48  1  0  0  0
 21 23  1  0  0  0
 21 49  1  0  0  0
 21 50  1  0  0  0
 22 51  1  0  0  0
 22 52  1  0  0  0
 22 53  1  0  0  0
 23 54  1  0  0  0
 23 55  1  0  0  0
 23 56  1  0  0  0
 24 25  1  0  0  0
 25 26  2  0  0  0
 26 27  1  0  0  0
 26 29  1  0  0  0
 27 28  2  0  0  0
 29 30  1  0  0  0
 29 57  1  0  0  0
 30 31  1  0  0  0
 30 33  1  0  0  0
 30 58  1  0  0  0
 31 32  1  0  0  0
 31 59  1  0  0  0
 31 60  1  0  0  0
 32 33  1  0  0  0
 32 61  1  0  0  0
 32 62  1  0  0  0
 33 63  1  0  0  0
 33 64  1  0  0  0
M  CHG  1   9   1
M  END
> <s_m_source_file>
../4isi_ligand.sdf

> <i_m_source_file_index>
1

> <s_epik_input>
W0hdXE49QyhbTkgyXSlcYzFbY0hdW2NIXWMoW2NIXVtjSF0xKVtDSDJdW05IXUMoPU8pW0NASF0oW0NIMl1DMihbQ0gyXVtDSDNdKVtDSDJdW0NIM10pbihjMjMpYyg9TyljKG5jM0NsKVtOSF1bQ0hdNFtDSDJdW0NIMl1bQ0gyXTQ=

> <s_epik_cmdline>
J2VwaWtfYXBwJywgJy1pbWFlJywgJ2xpZ2FuZF9wcm8ubWFlJywgJy1vbWFlJywgJ2xpZ2FuZF9wcmVwLm1hZScsICctbXMnLCAnMScsICctcGgnLCAnNycsICctcGh0JywgJzAuNScsICctbnQn

> <r_lp_tautomer_probability>
1

> <r_epik_Ionization_Penalty>
  0.0002

> <r_epik_Ionization_Penalty_Charging>
  0.0002

> <r_epik_Ionization_Penalty_Neutral>
  0.0000

> <r_epik_State_Penalty>
 -0.0000

> <r_epik_Charging_Adjusted_Penalty>
0.000163084116793641

> <i_epik_Tot_Q>
1

> <i_epik_Tot_abs_Q>
1

> <s_epik_Chemistry_Notes>
This compound has an imine and may undergo hydrolysis.

$$$$
