4ith_ligand
                    3D
 Schrodinger Suite 2020-3.
 30 32  0  0  1  0            999 V2000
  -24.8020    3.7240   11.0110 O   0  0  0  0  0  0
  -25.9470    4.2550   11.3020 C   0  0  0  0  0  0
  -26.7120    5.1270   10.3800 N   0  0  0  0  0  0
  -26.7520    4.6130    8.9670 C   0  0  0  0  0  0
  -27.9970    5.2140   11.1050 C   0  0  0  0  0  0
  -29.1130    5.6800   10.6440 O   0  0  0  0  0  0
  -26.5890    4.0360   12.6170 N   0  0  0  0  0  0
  -27.8950    4.7710   12.5030 C   0  0  2  0  0  0
  -29.0590    3.9030   12.8600 C   0  0  0  0  0  0
  -29.1930    2.6680   12.0230 C   0  0  0  0  0  0
  -28.5060    1.4980   12.2200 C   0  0  0  0  0  0
  -30.0740    2.4900   10.9600 C   0  0  0  0  0  0
  -29.9500    1.2380   10.4550 N   0  0  0  0  0  0
  -28.9570    0.6290   11.2630 C   0  0  0  0  0  0
  -28.4080   -0.6350   11.2290 C   0  0  0  0  0  0
  -28.8390   -1.6300   10.2230 Cl  0  0  0  0  0  0
  -27.4290   -0.9730   12.1540 C   0  0  0  0  0  0
  -27.0080   -0.0630   13.1040 C   0  0  0  0  0  0
  -27.5420    1.1950   13.1490 C   0  0  0  0  0  0
  -25.7333    4.6015    8.5520 H   0  0  0  0  0  0
  -27.3894    5.2691    8.3561 H   0  0  0  0  0  0
  -27.1625    3.5925    8.9596 H   0  0  0  0  0  0
  -26.3344    3.5081   13.5479 H   0  0  0  0  0  0
  -27.9246    5.6300   13.1895 H   0  0  0  0  0  0
  -28.9630    3.5723   13.9047 H   0  0  0  0  0  0
  -29.9920    4.4732   12.7402 H   0  0  0  0  0  0
  -30.7985    3.1912   10.5202 H   0  0  0  0  0  0
  -26.9871   -1.9691   12.1301 H   0  0  0  0  0  0
  -26.2353   -0.3588   13.8289 H   0  0  0  0  0  0
  -27.1956    1.9128   13.9072 H   0  0  0  0  0  0
  1  2  2  0  0  0
  2  3  1  0  0  0
  2  7  1  0  0  0
  3  4  1  0  0  0
  3  5  1  0  0  0
  4 20  1  0  0  0
  4 21  1  0  0  0
  4 22  1  0  0  0
  5  6  2  0  0  0
  5  8  1  0  0  0
  7  8  1  0  0  0
  7 23  1  0  0  0
  8  9  1  0  0  0
  8 24  1  0  0  0
  9 10  1  0  0  0
  9 25  1  0  0  0
  9 26  1  0  0  0
 10 11  2  0  0  0
 10 12  1  0  0  0
 11 14  1  0  0  0
 11 19  1  0  0  0
 12 13  2  0  0  0
 12 27  1  0  0  0
 13 14  1  0  0  0
 14 15  2  0  0  0
 15 16  1  0  0  0
 15 17  1  0  0  0
 17 18  1  0  0  0
 17 28  1  0  0  0
 18 19  2  0  0  0
 18 29  1  0  0  0
 19 30  1  0  0  0
M  END
> <s_m_source_file>
../4ith_ligand.sdf

> <i_m_source_file_index>
1

> <s_epik_input>
Tz1DMU4oW0NIM10pQyg9TylbQ0BIXShbTkhdMSlbQ0gyXUM9MltDSF09TkMoQzIzKT1DKENsKVtDSDJdW0NIXT1bQ0hdMw==

> <s_epik_cmdline>
J2VwaWtfYXBwJywgJy1pbWFlJywgJ2xpZ2FuZF9wcm8ubWFlJywgJy1vbWFlJywgJ2xpZ2FuZF9wcmVwLm1hZScsICctbXMnLCAnMScsICctcGgnLCAnNycsICctcGh0JywgJzAuNScsICctbnQn

> <r_lp_tautomer_probability>
1

> <r_epik_Ionization_Penalty>
  0.0007

> <r_epik_Ionization_Penalty_Charging>
  0.0000

> <r_epik_Ionization_Penalty_Neutral>
  0.0007

> <r_epik_State_Penalty>
 -0.0000

> <r_epik_Charging_Adjusted_Penalty>
0

> <i_epik_Tot_Q>
0

> <i_epik_Tot_abs_Q>
0

> <s_epik_Chemistry_Notes>
This compound has an imine and may undergo hydrolysis.

$$$$
