4iti_ligand
                    3D
 Schrodinger Suite 2020-3.
 49 52  0  0  1  0            999 V2000
  -22.5000    6.3330  -23.4730 C   0  0  0  0  0  0
  -22.7090    7.4050  -22.6200 C   0  0  0  0  0  0
  -21.6460    7.7570  -21.6500 C   0  0  0  0  0  0
  -20.4750    7.0160  -21.6070 C   0  0  0  0  0  0
  -20.3140    5.9480  -22.4840 C   0  0  0  0  0  0
  -21.8990    8.9140  -20.7420 C   0  0  0  0  0  0
  -23.2520   10.5130  -19.6150 C   0  0  1  0  0  0
  -21.3090    5.6140  -23.4000 C   0  0  0  0  0  0
  -23.9920    8.2110  -22.6720 C   0  0  0  0  0  0
  -23.0690    9.8160  -20.9620 C   0  0  2  0  0  0
  -27.3090    5.6490  -16.3230 F   0  0  0  0  0  0
  -27.0140    6.8300  -15.8140 C   0  0  0  0  0  0
  -25.7270    6.8840  -15.5380 F   0  0  0  0  0  0
  -27.7090    7.0200  -14.7110 F   0  0  0  0  0  0
  -27.3350    7.8470  -16.7580 O   0  0  0  0  0  0
  -26.3410    8.4850  -17.4460 C   0  0  0  0  0  0
  -26.6470    9.7010  -18.2370 C   0  0  0  0  0  0
  -27.8990   10.1810  -18.2840 F   0  0  0  0  0  0
  -25.6230   10.3310  -18.9260 C   0  0  0  0  0  0
  -25.0350    8.0130  -17.4180 C   0  0  0  0  0  0
  -24.0420    8.6820  -18.1270 C   0  0  0  0  0  0
  -24.3290    9.8250  -18.8710 C   0  0  0  0  0  0
  -24.2520    8.9360  -21.3510 C   0  0  0  0  0  0
  -21.9570   10.2040  -19.0210 N   0  0  0  0  0  0
  -21.4850   10.7980  -17.9310 C   0  0  0  0  0  0
  -22.0720   11.7000  -17.3570 O   0  0  0  0  0  0
  -20.1540   10.3070  -17.4180 C   0  0  0  0  0  0
  -19.6310   11.2540  -16.4810 O   0  0  0  0  0  0
  -21.2360    9.2270  -19.7250 N   0  0  0  0  0  0
  -19.1600    5.2160  -22.4450 O   0  0  0  0  0  0
  -18.0940    5.6200  -21.5870 C   0  0  0  0  0  0
  -23.2644    6.0535  -24.1981 H   0  0  0  0  0  0
  -19.6895    7.2673  -20.8943 H   0  0  0  0  0  0
  -23.5054   11.5834  -19.6093 H   0  0  0  0  0  0
  -21.1523    4.7719  -24.0741 H   0  0  0  0  0  0
  -23.9213    8.9615  -23.4731 H   0  0  0  0  0  0
  -24.8393    7.5390  -22.8730 H   0  0  0  0  0  0
  -22.9354   10.5557  -21.7651 H   0  0  0  0  0  0
  -25.8324   11.2255  -19.5126 H   0  0  0  0  0  0
  -24.7886    7.1209  -16.8422 H   0  0  0  0  0  0
  -23.0197    8.3047  -18.1000 H   0  0  0  0  0  0
  -25.1440    9.5719  -21.4511 H   0  0  0  0  0  0
  -24.4164    8.1968  -20.5532 H   0  0  0  0  0  0
  -20.2882    9.3340  -16.9228 H   0  0  0  0  0  0
  -19.4547   10.1966  -18.2599 H   0  0  0  0  0  0
  -18.6613   11.0694  -15.9956 H   0  0  0  0  0  0
  -17.2546    4.9164  -21.6889 H   0  0  0  0  0  0
  -18.4442    5.6245  -20.5443 H   0  0  0  0  0  0
  -17.7614    6.6306  -21.8664 H   0  0  0  0  0  0
  1  2  2  0  0  0
  1  8  1  0  0  0
  1 32  1  0  0  0
  2  3  1  0  0  0
  2  9  1  0  0  0
  3  4  2  0  0  0
  3  6  1  0  0  0
  4  5  1  0  0  0
  4 33  1  0  0  0
  5  8  2  0  0  0
  5 30  1  0  0  0
  6 10  1  0  0  0
  6 29  2  0  0  0
  7 10  1  0  0  0
  7 22  1  0  0  0
  7 24  1  0  0  0
  7 34  1  0  0  0
  8 35  1  0  0  0
  9 23  1  0  0  0
  9 36  1  0  0  0
  9 37  1  0  0  0
 10 23  1  0  0  0
 10 38  1  0  0  0
 11 12  1  0  0  0
 12 13  1  0  0  0
 12 14  1  0  0  0
 12 15  1  0  0  0
 15 16  1  0  0  0
 16 17  2  0  0  0
 16 20  1  0  0  0
 17 18  1  0  0  0
 17 19  1  0  0  0
 19 22  2  0  0  0
 19 39  1  0  0  0
 20 21  2  0  0  0
 20 40  1  0  0  0
 21 22  1  0  0  0
 21 41  1  0  0  0
 23 42  1  0  0  0
 23 43  1  0  0  0
 24 25  1  0  0  0
 24 29  1  0  0  0
 25 26  2  0  0  0
 25 27  1  0  0  0
 27 28  1  0  0  0
 27 44  1  0  0  0
 27 45  1  0  0  0
 28 46  1  0  0  0
 30 31  1  0  0  0
 31 47  1  0  0  0
 31 48  1  0  0  0
 31 49  1  0  0  0
M  END
> <s_m_source_file>
../4iti_ligand.sdf

> <i_m_source_file_index>
1

> <s_epik_input>
W2NIXTFbY0hdYyhPW0NIM10pW2NIXWMoYzEyKUM9M1tDQEBIXShbQ0gyXVtDSDJdMilbQ0BIXShOKE4zKUMoPU8pW0NIMl1bT0hdKWMoW2NIXVtjSF00KVtjSF1jKEYpYzRPQyhGKShGKUY=

> <s_epik_cmdline>
J2VwaWtfYXBwJywgJy1pbWFlJywgJ2xpZ2FuZF9wcm8ubWFlJywgJy1vbWFlJywgJ2xpZ2FuZF9wcmVwLm1hZScsICctbXMnLCAnMScsICctcGgnLCAnNycsICctcGh0JywgJzAuNScsICctbnQn

> <r_lp_tautomer_probability>
1

> <r_epik_Ionization_Penalty>
  0.0000

> <r_epik_Ionization_Penalty_Charging>
  0.0000

> <r_epik_Ionization_Penalty_Neutral>
  0.0000

> <r_epik_State_Penalty>
 -0.0000

> <r_epik_Charging_Adjusted_Penalty>
0

> <i_epik_Tot_Q>
0

> <i_epik_Tot_abs_Q>
0

> <s_epik_Chemistry_Notes>
This compound has an imine and may undergo hydrolysis.

$$$$
