4iue_ligand
                    3D
 Schrodinger Suite 2020-3.
 31 33  0  0  1  0            999 V2000
    5.6550  -12.1620  -14.0950 C   0  0  0  0  0  0
    4.1680  -12.1670  -13.6220 C   0  0  0  0  0  0
    3.1370  -12.3490  -14.5700 C   0  0  0  0  0  0
    1.8010  -12.3480  -14.1670 C   0  0  0  0  0  0
    0.8650  -12.5260  -14.9580 O   0  0  0  0  0  0
    1.4970  -12.1660  -12.8020 N   0  0  0  0  0  0
    2.5030  -11.9900  -11.8470 C   0  0  0  0  0  0
    2.1490  -11.8050  -10.5090 C   0  0  0  0  0  0
    3.8510  -11.9830  -12.2460 C   0  0  0  0  0  0
    4.8400  -11.7740  -11.2390 C   0  0  0  0  0  0
    4.4700  -11.6100   -9.8830 C   0  0  0  0  0  0
    3.1170  -11.6130   -9.5170 C   0  0  0  0  0  0
    2.6980  -11.4820   -8.1820 C   0  0  0  0  0  0
    3.1420  -10.3990   -7.4080 C   0  0  0  0  0  0
    2.7400  -10.2350   -6.0880 C   0  0  0  0  0  0
    1.8950  -11.1610   -5.4970 C   0  0  0  0  0  0
    1.4450  -12.2700   -6.2350 C   0  0  0  0  0  0
    1.8160  -12.4460   -7.5810 C   0  0  0  0  0  0
    1.3250  -13.5600   -8.2320 F   0  0  0  0  0  0
    5.6941  -12.3180  -15.1832 H   0  0  0  0  0  0
    6.2035  -12.9700  -13.5888 H   0  0  0  0  0  0
    6.1156  -11.1945  -13.8465 H   0  0  0  0  0  0
    3.3861  -12.4909  -15.6216 H   0  0  0  0  0  0
    0.4490  -12.1603  -12.4679 H   0  0  0  0  0  0
    1.0950  -11.8103  -10.2311 H   0  0  0  0  0  0
    5.8933  -11.7403  -11.5176 H   0  0  0  0  0  0
    5.2390  -11.4810   -9.1214 H   0  0  0  0  0  0
    3.8183   -9.6690   -7.8528 H   0  0  0  0  0  0
    3.0902   -9.3758   -5.5159 H   0  0  0  0  0  0
    1.5798  -11.0298   -4.4618 H   0  0  0  0  0  0
    0.7982  -13.0055   -5.7567 H   0  0  0  0  0  0
  1  2  1  0  0  0
  1 20  1  0  0  0
  1 21  1  0  0  0
  1 22  1  0  0  0
  2  3  2  0  0  0
  2  9  1  0  0  0
  3  4  1  0  0  0
  3 23  1  0  0  0
  4  5  2  0  0  0
  4  6  1  0  0  0
  6  7  1  0  0  0
  6 24  1  0  0  0
  7  8  2  0  0  0
  7  9  1  0  0  0
  8 12  1  0  0  0
  8 25  1  0  0  0
  9 10  2  0  0  0
 10 11  1  0  0  0
 10 26  1  0  0  0
 11 12  2  0  0  0
 11 27  1  0  0  0
 12 13  1  0  0  0
 13 14  2  0  0  0
 13 18  1  0  0  0
 14 15  1  0  0  0
 14 28  1  0  0  0
 15 16  2  0  0  0
 15 29  1  0  0  0
 16 17  1  0  0  0
 16 30  1  0  0  0
 17 18  2  0  0  0
 17 31  1  0  0  0
 18 19  1  0  0  0
M  END
> <s_m_source_file>
../4iue_ligand.sdf

> <i_m_source_file_index>
1

> <s_epik_input>
Tz1jKFtuSF0xKVtjSF1jKFtDSDNdKWMoYzEyKVtjSF1bY0hdYyhbY0hdMiktYzNbY0hdW2NIXVtjSF1bY0hdYzNG

> <s_epik_cmdline>
J2VwaWtfYXBwJywgJy1pbWFlJywgJ2xpZ2FuZF9wcm8ubWFlJywgJy1vbWFlJywgJ2xpZ2FuZF9wcmVwLm1hZScsICctbXMnLCAnMScsICctcGgnLCAnNycsICctcGh0JywgJzAuNScsICctbnQn

> <r_lp_tautomer_probability>
1

> <r_epik_Ionization_Penalty>
  0.0000

> <r_epik_Ionization_Penalty_Charging>
  0.0000

> <r_epik_Ionization_Penalty_Neutral>
  0.0000

> <r_epik_State_Penalty>
 -0.0000

> <r_epik_Charging_Adjusted_Penalty>
1.34507869974595e-05

> <i_epik_Tot_Q>
0

> <i_epik_Tot_abs_Q>
0

$$$$
