4iuo_ligand
                    3D
 Schrodinger Suite 2020-3.
 24 24  0  0  1  0            999 V2000
    2.1610   -0.4380    0.3850 C   0  0  1  0  0  0
    1.1580    0.5740    0.5960 O   0  0  0  0  0  0
    3.4970    0.0450    0.9220 C   0  0  0  0  0  0
    2.5190    1.2680    2.7630 O   0  0  0  0  0  0
    3.4560    0.2360    2.4320 C   0  0  1  0  0  0
    3.0150   -0.7980    4.5500 O   0  0  0  0  0  0
    3.0720   -1.0510    3.1440 C   0  0  1  0  0  0
    1.4210   -2.7990    3.2890 O   0  0  0  0  0  0
    1.7370   -1.5680    2.6240 C   0  0  2  0  0  0
    1.8510    0.2380   -1.8660 O   0  0  0  0  0  0
    1.7790   -1.7410    1.0940 C   0  0  0  0  0  0
    2.8510   -1.7050   -1.5470 O   0  5  0  0  0  0
    2.2970   -0.6540   -1.1100 C   0  0  0  0  0  0
    0.8992    0.8871    1.6182 H   0  0  0  0  0  0
    4.2761   -0.6948    0.6859 H   0  0  0  0  0  0
    3.7528    1.0082    0.4563 H   0  0  0  0  0  0
    2.6374    2.2755    2.3376 H   0  0  0  0  0  0
    4.4381    0.5782    2.7903 H   0  0  0  0  0  0
    3.9031   -0.4192    5.0771 H   0  0  0  0  0  0
    3.8384   -1.8289    3.0117 H   0  0  0  0  0  0
    1.3555   -2.8301    4.3866 H   0  0  0  0  0  0
    0.9182   -0.8834    2.8903 H   0  0  0  0  0  0
    0.7836   -2.0645    0.7554 H   0  0  0  0  0  0
    2.5186   -2.5192    0.8545 H   0  0  0  0  0  0
  1  2  1  0  0  0
  1  3  1  0  0  0
  1 11  1  0  0  0
  1 13  1  0  0  0
  2 14  1  0  0  0
  3  5  1  0  0  0
  3 15  1  0  0  0
  3 16  1  0  0  0
  4  5  1  0  0  0
  4 17  1  0  0  0
  5  7  1  0  0  0
  5 18  1  0  0  0
  6  7  1  0  0  0
  6 19  1  0  0  0
  7  9  1  0  0  0
  7 20  1  0  0  0
  8  9  1  0  0  0
  8 21  1  0  0  0
  9 11  1  0  0  0
  9 22  1  0  0  0
 10 13  2  0  0  0
 11 23  1  0  0  0
 11 24  1  0  0  0
 12 13  1  0  0  0
M  CHG  1  12  -1
M  END
> <s_m_source_file>
../4iuo_ligand.sdf

> <i_m_source_file_index>
1

> <s_epik_input>
Tz1DKFtPSF0pW0NAXTEoW09IXSlbQ0gyXVtDQEBIXShbT0hdKVtDQEBIXShbT0hdKVtDQEhdKFtPSF0pW0NIMl0x

> <s_epik_cmdline>
J2VwaWtfYXBwJywgJy1pbWFlJywgJ2xpZ2FuZF9wcm8ubWFlJywgJy1vbWFlJywgJ2xpZ2FuZF9wcmVwLm1hZScsICctbXMnLCAnMScsICctcGgnLCAnNycsICctcGh0JywgJzAuNScsICctbnQn

> <r_lp_tautomer_probability>
1

> <r_epik_Ionization_Penalty>
  0.0003

> <r_epik_Ionization_Penalty_Charging>
  0.0003

> <r_epik_Ionization_Penalty_Neutral>
  0.0000

> <r_epik_State_Penalty>
 -0.0000

> <r_epik_Charging_Adjusted_Penalty>
0.000332278119309234

> <i_epik_Tot_Q>
-1

> <i_epik_Tot_abs_Q>
1

$$$$
