4iur_ligand
                    3D
 Schrodinger Suite 2020-3.
146145  0  0  1  0            999 V2000
  -20.1460  -12.4340  -14.3950 N   0  3  0  0  0  0
  -21.4910  -12.1560  -13.9140 C   0  0  2  0  0  0
  -21.4930  -11.1370  -12.8120 C   0  0  0  0  0  0
  -20.5560  -11.0480  -12.0520 O   0  0  0  0  0  0
  -22.1280  -13.3850  -13.3230 C   0  0  2  0  0  0
  -21.4310  -13.7310  -12.1300 O   0  0  0  0  0  0
  -22.0650  -14.5280  -14.2990 C   0  0  0  0  0  0
  -22.5730  -10.3840  -12.7090 N   0  0  0  0  0  0
  -22.6890   -9.3660  -11.6880 C   0  0  2  0  0  0
  -23.0890   -9.9360  -10.3410 C   0  0  0  0  0  0
  -23.5900  -11.0460  -10.2460 O   0  0  0  0  0  0
  -23.7370   -8.3450  -12.0940 C   0  0  0  0  0  0
  -23.6010   -7.7790  -13.4600 C   0  0  0  0  0  0
  -24.4020   -6.5080  -13.5480 C   0  0  0  0  0  0
  -24.3140   -5.8700  -14.9010 C   0  0  0  0  0  0
  -25.1350   -4.6560  -14.9630 N   0  3  0  0  0  0
  -22.8890   -9.1440   -9.3000 N   0  0  0  0  0  0
  -23.3530   -9.4970   -7.9730 C   0  0  2  0  0  0
  -24.8580   -9.5270   -7.9460 C   0  0  0  0  0  0
  -25.5040   -8.6800   -8.5290 O   0  0  0  0  0  0
  -22.9020   -8.4630   -6.9580 C   0  0  0  0  0  0
  -21.4460   -8.1300   -7.0110 C   0  0  0  0  0  0
  -20.6570   -8.9750   -6.0750 C   0  0  0  0  0  0
  -21.1830   -9.4890   -5.0990 O   0  0  0  0  0  0
  -19.3830   -9.1430   -6.3730 N   0  0  0  0  0  0
  -25.4220  -10.4880   -7.2420 N   0  0  0  0  0  0
  -26.8700  -10.5600   -7.1250 C   0  0  2  0  0  0
  -27.3260   -9.4460   -6.1910 C   0  0  0  0  0  0
  -27.1010   -9.4930   -4.9840 O   0  0  0  0  0  0
  -27.3420  -11.9130   -6.5930 C   0  0  2  0  0  0
  -26.7330  -12.9580   -7.3570 O   0  0  0  0  0  0
  -28.8580  -12.0310   -6.6990 C   0  0  0  0  0  0
  -27.9530   -8.4260   -6.7600 N   0  0  0  0  0  0
  -28.4040   -7.2890   -5.9760 C   0  0  2  0  0  0
  -29.5900   -7.6910   -5.1150 C   0  0  0  0  0  0
  -30.3820   -8.5400   -5.5100 O   0  0  0  0  0  0
  -28.7650   -6.1120   -6.8960 C   0  0  0  0  0  0
  -29.7600   -6.9800   -4.0100 N   0  0  0  0  0  0
  -30.8880   -7.1750   -3.1220 C   0  0  2  0  0  0
  -31.5520   -5.8460   -2.8010 C   0  0  0  0  0  0
  -30.9300   -4.9530   -2.2770 O   0  0  0  0  0  0
  -30.4390   -7.8790   -1.8510 C   0  0  0  0  0  0
  -29.6930   -7.0010   -0.8690 C   0  0  0  0  0  0
  -29.5620   -7.6590    0.5140 C   0  0  0  0  0  0
  -28.3910   -7.1770    1.2370 N   0  0  0  0  0  0
  -28.2740   -5.9610    1.7580 C   0  0  0  0  0  0
  -29.2620   -5.0820    1.6390 N   0  0  0  0  0  0
  -27.1630   -5.6230    2.4010 N   0  3  0  0  0  0
  -32.8260   -5.7190   -3.1400 N   0  0  0  0  0  0
  -33.5180   -4.4060   -3.0670 C   0  0  1  0  0  0
  -34.7300   -4.3940   -3.9920 C   0  0  0  0  0  0
  -34.3260   -4.0800   -5.4250 C   0  0  0  0  0  0
  -35.3790   -3.3420   -6.2440 C   0  0  0  0  0  0
  -35.3230   -3.8500   -7.6760 C   0  0  0  0  0  0
  -36.2730   -3.1740   -8.5520 N   0  3  0  0  0  0
  -33.9060   -4.0130   -1.6840 C   0  0  0  0  0  0
  -34.2420   -4.8430   -0.8620 O   0  0  0  0  0  0
  -36.2810   -1.7540   -8.2460 C   0  0  0  0  0  0
  -37.6120   -3.7350   -8.3760 C   0  0  0  0  0  0
  -35.8640   -3.3840   -9.9330 C   0  0  0  0  0  0
  -33.8520   -2.7200   -1.4150 N   0  0  0  0  0  0
  -34.2470   -2.2090   -0.1230 C   0  0  2  0  0  0
  -35.0710   -3.2610    0.5850 C   0  0  0  0  0  0
  -36.2859   -3.0524    0.8461 O   0  5  0  0  0  0
  -35.0690   -0.9350   -0.2820 C   0  0  0  0  0  0
  -34.9480   -0.0800    0.8290 O   0  0  0  0  0  0
  -34.5388   -4.3540    0.9162 O   0  0  0  0  0  0
  -19.7114  -11.5168  -14.8192 H   0  0  0  0  0  0
  -20.1877  -13.2128  -15.1707 H   0  0  0  0  0  0
  -19.5222  -12.7825  -13.5587 H   0  0  0  0  0  0
  -22.0139  -11.7945  -14.8117 H   0  0  0  0  0  0
  -23.1738  -13.1904  -13.0430 H   0  0  0  0  0  0
  -21.3719  -13.0122  -11.2994 H   0  0  0  0  0  0
  -22.6046  -14.2555  -15.2180 H   0  0  0  0  0  0
  -22.5300  -15.4186  -13.8511 H   0  0  0  0  0  0
  -21.0144  -14.7456  -14.5415 H   0  0  0  0  0  0
  -23.3955  -10.5445  -13.4216 H   0  0  0  0  0  0
  -21.6784   -8.9358  -11.6273 H   0  0  0  0  0  0
  -24.7343   -8.8073  -12.0534 H   0  0  0  0  0  0
  -23.7014   -7.4888  -11.4043 H   0  0  0  0  0  0
  -22.5417   -7.5638  -13.6639 H   0  0  0  0  0  0
  -23.9761   -8.5047  -14.1966 H   0  0  0  0  0  0
  -25.4605   -6.7268  -13.3438 H   0  0  0  0  0  0
  -24.0273   -5.7864  -12.8072 H   0  0  0  0  0  0
  -23.2686   -5.6005  -15.1120 H   0  0  0  0  0  0
  -24.6714   -6.5773  -15.6639 H   0  0  0  0  0  0
  -25.0527   -4.2085  -15.9645 H   0  0  0  0  0  0
  -24.7826   -3.9362  -14.2096 H   0  0  0  0  0  0
  -26.1854   -4.9130  -14.7615 H   0  0  0  0  0  0
  -22.3550   -8.1961   -9.4618 H   0  0  0  0  0  0
  -22.9223  -10.4876   -7.7650 H   0  0  0  0  0  0
  -23.4494   -7.5234   -7.1238 H   0  0  0  0  0  0
  -23.1070   -8.8324   -5.9424 H   0  0  0  0  0  0
  -21.0688   -8.2961   -8.0309 H   0  0  0  0  0  0
  -21.3007   -7.0755   -6.7335 H   0  0  0  0  0  0
  -18.9579   -8.6577   -7.2640 H   0  0  0  0  0  0
  -18.7457   -9.7684   -5.7305 H   0  0  0  0  0  0
  -24.7918  -11.2379   -6.7415 H   0  0  0  0  0  0
  -27.2630  -10.4338   -8.1446 H   0  0  0  0  0  0
  -27.0187  -12.0542   -5.5511 H   0  0  0  0  0  0
  -25.6369  -13.0386   -7.4029 H   0  0  0  0  0  0
  -29.3301  -11.2289   -6.1127 H   0  0  0  0  0  0
  -29.1779  -13.0081   -6.3079 H   0  0  0  0  0  0
  -29.1599  -11.9412   -7.7529 H   0  0  0  0  0  0
  -28.1300   -8.4506   -7.8454 H   0  0  0  0  0  0
  -27.5605   -7.0104   -5.3272 H   0  0  0  0  0  0
  -27.8906   -5.8423   -7.5065 H   0  0  0  0  0  0
  -29.0663   -5.2482   -6.2852 H   0  0  0  0  0  0
  -29.5965   -6.4032   -7.5547 H   0  0  0  0  0  0
  -29.0024   -6.2171   -3.7775 H   0  0  0  0  0  0
  -31.5979   -7.8126   -3.6694 H   0  0  0  0  0  0
  -31.3181   -8.2728   -1.3199 H   0  0  0  0  0  0
  -29.7649   -8.7088   -2.1100 H   0  0  0  0  0  0
  -28.6805   -6.8025   -1.2504 H   0  0  0  0  0  0
  -30.2313   -6.0497   -0.7454 H   0  0  0  0  0  0
  -30.4552   -7.4314    1.1144 H   0  0  0  0  0  0
  -29.4685   -8.7485    0.3944 H   0  0  0  0  0  0
  -27.5234   -7.8376    1.3816 H   0  0  0  0  0  0
  -30.1838   -5.3594    1.1067 H   0  0  0  0  0  0
  -29.1587   -4.0764    2.0727 H   0  0  0  0  0  0
  -26.3429   -6.3492    2.5011 H   0  0  0  0  0  0
  -33.3726   -6.6106   -3.4810 H   0  0  0  0  0  0
  -32.7729   -3.6609   -3.3829 H   0  0  0  0  0  0
  -35.2157   -5.3808   -3.9728 H   0  0  0  0  0  0
  -35.4427   -3.6279   -3.6527 H   0  0  0  0  0  0
  -33.4274   -3.4455   -5.4220 H   0  0  0  0  0  0
  -34.1112   -5.0173   -5.9592 H   0  0  0  0  0  0
  -36.3750   -3.5325   -5.8176 H   0  0  0  0  0  0
  -35.1708   -2.2621   -6.2212 H   0  0  0  0  0  0
  -34.3145   -3.6867   -8.0838 H   0  0  0  0  0  0
  -35.5558   -4.9249   -7.6931 H   0  0  0  0  0  0
  -36.5911   -1.6059   -7.2011 H   0  0  0  0  0  0
  -36.9866   -1.2389   -8.9144 H   0  0  0  0  0  0
  -35.2714   -1.3420   -8.3908 H   0  0  0  0  0  0
  -37.9385   -3.5854   -7.3363 H   0  0  0  0  0  0
  -37.5913   -4.8112   -8.6026 H   0  0  0  0  0  0
  -38.3133   -3.2304   -9.0568 H   0  0  0  0  0  0
  -34.8572   -2.9677  -10.0845 H   0  0  0  0  0  0
  -36.5739   -2.8811  -10.6061 H   0  0  0  0  0  0
  -35.8519   -4.4619  -10.1519 H   0  0  0  0  0  0
  -33.4988   -2.0295   -2.1950 H   0  0  0  0  0  0
  -33.3194   -1.9947    0.4280 H   0  0  0  0  0  0
  -34.7275   -0.3871   -1.1726 H   0  0  0  0  0  0
  -36.1314   -1.1960   -0.3971 H   0  0  0  0  0  0
  -35.4893    0.8774    0.8478 H   0  0  0  0  0  0
  -27.0625   -4.6167    2.8337 H   0  0  0  0  0  0
  1  2  1  0  0  0
  1 68  1  0  0  0
  1 69  1  0  0  0
  1 70  1  0  0  0
  2  3  1  0  0  0
  2  5  1  0  0  0
  2 71  1  0  0  0
  3  4  2  0  0  0
  3  8  1  0  0  0
  5  6  1  0  0  0
  5  7  1  0  0  0
  5 72  1  0  0  0
  6 73  1  0  0  0
  7 74  1  0  0  0
  7 75  1  0  0  0
  7 76  1  0  0  0
  8  9  1  0  0  0
  8 77  1  0  0  0
  9 10  1  0  0  0
  9 12  1  0  0  0
  9 78  1  0  0  0
 10 11  2  0  0  0
 10 17  1  0  0  0
 12 13  1  0  0  0
 12 79  1  0  0  0
 12 80  1  0  0  0
 13 14  1  0  0  0
 13 81  1  0  0  0
 13 82  1  0  0  0
 14 15  1  0  0  0
 14 83  1  0  0  0
 14 84  1  0  0  0
 15 16  1  0  0  0
 15 85  1  0  0  0
 15 86  1  0  0  0
 16 87  1  0  0  0
 16 88  1  0  0  0
 16 89  1  0  0  0
 17 18  1  0  0  0
 17 90  1  0  0  0
 18 19  1  0  0  0
 18 21  1  0  0  0
 18 91  1  0  0  0
 19 20  2  0  0  0
 19 26  1  0  0  0
 21 22  1  0  0  0
 21 92  1  0  0  0
 21 93  1  0  0  0
 22 23  1  0  0  0
 22 94  1  0  0  0
 22 95  1  0  0  0
 23 24  2  0  0  0
 23 25  1  0  0  0
 25 96  1  0  0  0
 25 97  1  0  0  0
 26 27  1  0  0  0
 26 98  1  0  0  0
 27 28  1  0  0  0
 27 30  1  0  0  0
 27 99  1  0  0  0
 28 29  2  0  0  0
 28 33  1  0  0  0
 30 31  1  0  0  0
 30 32  1  0  0  0
 30100  1  0  0  0
 31101  1  0  0  0
 32102  1  0  0  0
 32103  1  0  0  0
 32104  1  0  0  0
 33 34  1  0  0  0
 33105  1  0  0  0
 34 35  1  0  0  0
 34 37  1  0  0  0
 34106  1  0  0  0
 35 36  2  0  0  0
 35 38  1  0  0  0
 37107  1  0  0  0
 37108  1  0  0  0
 37109  1  0  0  0
 38 39  1  0  0  0
 38110  1  0  0  0
 39 40  1  0  0  0
 39 42  1  0  0  0
 39111  1  0  0  0
 40 41  2  0  0  0
 40 49  1  0  0  0
 42 43  1  0  0  0
 42112  1  0  0  0
 42113  1  0  0  0
 43 44  1  0  0  0
 43114  1  0  0  0
 43115  1  0  0  0
 44 45  1  0  0  0
 44116  1  0  0  0
 44117  1  0  0  0
 45 46  1  0  0  0
 45118  1  0  0  0
 46 47  1  0  0  0
 46 48  2  0  0  0
 47119  1  0  0  0
 47120  1  0  0  0
 48121  1  0  0  0
 48146  1  0  0  0
 49 50  1  0  0  0
 49122  1  0  0  0
 50 51  1  0  0  0
 50 56  1  0  0  0
 50123  1  0  0  0
 51 52  1  0  0  0
 51124  1  0  0  0
 51125  1  0  0  0
 52 53  1  0  0  0
 52126  1  0  0  0
 52127  1  0  0  0
 53 54  1  0  0  0
 53128  1  0  0  0
 53129  1  0  0  0
 54 55  1  0  0  0
 54130  1  0  0  0
 54131  1  0  0  0
 55 58  1  0  0  0
 55 59  1  0  0  0
 55 60  1  0  0  0
 56 57  2  0  0  0
 56 61  1  0  0  0
 58132  1  0  0  0
 58133  1  0  0  0
 58134  1  0  0  0
 59135  1  0  0  0
 59136  1  0  0  0
 59137  1  0  0  0
 60138  1  0  0  0
 60139  1  0  0  0
 60140  1  0  0  0
 61 62  1  0  0  0
 61141  1  0  0  0
 62 63  1  0  0  0
 62 65  1  0  0  0
 62142  1  0  0  0
 63 64  1  0  0  0
 63 67  2  0  0  0
 65 66  1  0  0  0
 65143  1  0  0  0
 65144  1  0  0  0
 66145  1  0  0  0
M  CHG  5   1   1  16   1  48   1  55   1  64  -1
M  END
> <s_m_source_file>
../4iur_ligand.sdf

> <i_m_source_file_index>
1

> <s_epik_input>
W09IXVtDQEhdKFtDSDNdKVtDQEhdKFtOSDMrXSlDKD1PKVtOSF1bQ0BASF0oW0NIMl1bQ0gyXVtDSDJdW0NIMl1bTkgzK10pQyg9TylbTkhdW0NAQEhdKFtDSDJdW0NIMl1DKD1PKVtOSDJdKUMoPU8pW05IXVtDQEBIXShbQ0BIXShbT0hdKVtDSDNdKUMoPU8pW05IXVtDQEBIXShbQ0gzXSlDKD1PKVtOSF1bQ0BASF0oW0NIMl1bQ0gyXVtDSDJdW05IXS9DKFtOSDJdKT1OXFtIXSlDKD1PKVtOSF1bQ0BIXShDKD1PKVtOSF1bQ0BIXShDKD1PKVtPSF0pW0NIMl1bT0hdKVtDSDJdW0NIMl1bQ0gyXVtDSDJdW04rXShbQ0gzXSkoW0NIM10pW0NIM10=

> <s_epik_cmdline>
J2VwaWtfYXBwJywgJy1pbWFlJywgJ2xpZ2FuZF9wcm8ubWFlJywgJy1vbWFlJywgJ2xpZ2FuZF9wcmVwLm1hZScsICctbXMnLCAnMScsICctcGgnLCAnNycsICctcGh0JywgJzAuNScsICctbnQn

> <r_epik_Ionization_Penalty>
  0.0812

> <r_epik_Ionization_Penalty_Charging>
  0.0812

> <r_epik_Ionization_Penalty_Neutral>
  0.0000

> <r_epik_State_Penalty>
  0.0714

> <r_epik_Charging_Adjusted_Penalty>
0.15263125198124

> <i_epik_Tot_Q>
3

> <i_epik_Tot_abs_Q>
5

> <s_epik_Chemistry_Notes>
This compound has an imine and may undergo hydrolysis.

$$$$
