4iut_ligand
                    3D
 Schrodinger Suite 2020-3.
143142  0  0  1  0            999 V2000
   19.6070  -41.0640   14.2780 N   0  3  0  0  0  0
   21.0070  -41.0770   13.8690 C   0  0  2  0  0  0
   21.2600  -40.0760   12.7440 C   0  0  0  0  0  0
   20.4510  -39.9430   11.8250 O   0  0  0  0  0  0
   21.4500  -42.4840   13.4170 C   0  0  2  0  0  0
   22.8290  -42.4540   13.0280 O   0  0  0  0  0  0
   20.6040  -42.9630   12.2460 C   0  0  0  0  0  0
   22.3840  -39.3700   12.8240 N   0  0  0  0  0  0
   22.7280  -38.3680   11.8210 C   0  0  2  0  0  0
   23.1860  -38.9890   10.5070 C   0  0  0  0  0  0
   23.6000  -40.1470   10.4610 O   0  0  0  0  0  0
   23.8170  -37.4270   12.3390 C   0  0  0  0  0  0
   23.3410  -36.3810   13.3270 C   0  0  0  0  0  0
   24.4220  -35.3360   13.5440 C   0  0  0  0  0  0
   24.1070  -34.4310   14.7200 C   0  0  0  0  0  0
   25.2420  -33.5100   15.0040 N   0  3  0  0  0  0
   23.1130  -38.1990    9.4410 N   0  0  0  0  0  0
   23.5980  -38.6190    8.1360 C   0  0  2  0  0  0
   25.1190  -38.6170    8.1500 C   0  0  0  0  0  0
   25.7380  -38.1620    9.1120 O   0  0  0  0  0  0
   23.0960  -37.6620    7.0550 C   0  0  0  0  0  0
   21.6750  -37.1760    7.2740 C   0  0  0  0  0  0
   20.6980  -37.7490    6.2740 C   0  0  0  0  0  0
   20.9130  -37.6680    5.0650 O   0  0  0  0  0  0
   19.6230  -38.3450    6.7720 N   0  0  0  0  0  0
   25.7210  -39.1250    7.0820 N   0  0  0  0  0  0
   27.1720  -39.1120    6.9600 C   0  0  2  0  0  0
   27.6310  -37.9370    6.1120 C   0  0  0  0  0  0
   27.1960  -37.7690    4.9710 O   0  0  0  0  0  0
   27.7130  -40.4220    6.3680 C   0  0  2  0  0  0
   27.6620  -41.4500    7.3630 O   0  0  0  0  0  0
   29.1540  -40.2420    5.9160 C   0  0  0  0  0  0
   28.5100  -37.1220    6.6810 N   0  0  0  0  0  0
   29.0050  -35.9410    5.9920 C   0  0  2  0  0  0
   29.9900  -36.3110    4.8940 C   0  0  0  0  0  0
   30.6490  -37.3490    4.9470 O   0  0  0  0  0  0
   29.6440  -34.9790    6.9800 C   0  0  0  0  0  0
   30.0650  -35.4450    3.8940 N   0  0  0  0  0  0
   31.0360  -35.5460    2.8260 C   0  0  2  0  0  0
   31.8210  -34.2450    2.9020 C   0  0  0  0  0  0
   31.3370  -33.2270    2.4150 O   0  0  0  0  0  0
   30.2980  -35.5970    1.4880 C   0  0  0  0  0  0
   30.9940  -36.3440    0.3630 C   0  0  0  0  0  0
   30.5090  -35.8500   -1.0000 C   0  0  0  0  0  0
   29.0580  -35.6750   -1.0570 N   0  0  0  0  0  0
   28.4150  -35.1110   -2.0760 C   0  0  0  0  0  0
   27.0940  -34.9890   -2.0490 N   0  0  0  0  0  0
   29.0950  -34.6660   -3.1230 N   0  3  0  0  0  0
   32.9860  -34.2320    3.5250 N   0  0  0  0  0  0
   33.7560  -32.9780    3.5340 C   0  0  1  0  0  0
   34.8940  -32.9600    4.5470 C   0  0  0  0  0  0
   34.3860  -33.0020    5.9550 C   0  0  0  0  0  0
   35.5750  -32.7570    6.8380 C   0  0  0  0  0  0
   35.1600  -32.6600    8.2710 C   0  0  0  0  0  0
   36.2520  -32.0230    9.0180 N   0  3  0  0  0  0
   35.8650  -31.8790   10.4360 C   0  0  0  0  0  0
   37.4000  -32.8980    8.9740 C   0  0  0  0  0  0
   34.2210  -32.6620    2.1280 C   0  0  0  0  0  0
   34.5930  -33.5850    1.3690 O   0  0  0  0  0  0
   34.1840  -31.3800    1.8000 N   0  0  0  0  0  0
   34.6330  -30.8780    0.5210 C   0  0  2  0  0  0
   35.9470  -31.5360    0.1200 C   0  0  0  0  0  0
   36.9424  -31.5124    0.8922 O   0  5  0  0  0  0
   34.8050  -29.3650    0.6180 C   0  0  0  0  0  0
   35.0220  -28.7960   -0.6550 O   0  0  0  0  0  0
   36.0396  -32.1108   -0.9974 O   0  0  0  0  0  0
   19.3265  -40.0481   14.5930 H   0  0  0  0  0  0
   19.4637  -41.7607   15.1171 H   0  0  0  0  0  0
   18.9751  -41.3734   13.4324 H   0  0  0  0  0  0
   21.5526  -40.7724   14.7743 H   0  0  0  0  0  0
   21.3825  -43.2021   14.2475 H   0  0  0  0  0  0
   23.5964  -42.1316   13.7471 H   0  0  0  0  0  0
   19.5453  -42.9863   12.5438 H   0  0  0  0  0  0
   20.9243  -43.9732   11.9513 H   0  0  0  0  0  0
   20.7309  -42.2757   11.3966 H   0  0  0  0  0  0
   23.0611  -39.5556   13.6708 H   0  0  0  0  0  0
   21.7816  -37.8315   11.6582 H   0  0  0  0  0  0
   24.5951  -38.0129   12.8501 H   0  0  0  0  0  0
   24.2637  -36.8827   11.4939 H   0  0  0  0  0  0
   22.4383  -35.8899   12.9346 H   0  0  0  0  0  0
   23.1077  -36.8633   14.2877 H   0  0  0  0  0  0
   25.3813  -35.8365   13.7422 H   0  0  0  0  0  0
   24.5137  -34.7109   12.6436 H   0  0  0  0  0  0
   23.2142  -33.8304   14.4916 H   0  0  0  0  0  0
   23.9179  -35.0436   15.6138 H   0  0  0  0  0  0
   24.9871  -32.8668   15.8592 H   0  0  0  0  0  0
   25.4368  -32.8848   14.1202 H   0  0  0  0  0  0
   26.1405  -34.0981   15.2424 H   0  0  0  0  0  0
   22.6693  -37.2004    9.5676 H   0  0  0  0  0  0
   23.2058  -39.6317    7.9612 H   0  0  0  0  0  0
   23.7425  -36.7726    7.0237 H   0  0  0  0  0  0
   23.1199  -38.1672    6.0782 H   0  0  0  0  0  0
   21.3377  -37.4701    8.2788 H   0  0  0  0  0  0
   21.6441  -36.0802    7.1830 H   0  0  0  0  0  0
   19.4750  -38.3919    7.8610 H   0  0  0  0  0  0
   18.8794  -38.7924    6.0961 H   0  0  0  0  0  0
   25.1056  -39.5608    6.2811 H   0  0  0  0  0  0
   27.5261  -38.9958    7.9949 H   0  0  0  0  0  0
   27.0866  -40.7629    5.5305 H   0  0  0  0  0  0
   26.6996  -41.7289    7.8169 H   0  0  0  0  0  0
   29.2024  -39.4533    5.1508 H   0  0  0  0  0  0
   29.5263  -41.1867    5.4930 H   0  0  0  0  0  0
   29.7754  -39.9559    6.7774 H   0  0  0  0  0  0
   28.8642  -37.3556    7.6959 H   0  0  0  0  0  0
   28.1172  -35.4778    5.5367 H   0  0  0  0  0  0
   28.9173  -34.7235    7.7653 H   0  0  0  0  0  0
   29.9519  -34.0636    6.4535 H   0  0  0  0  0  0
   30.5252  -35.4537    7.4362 H   0  0  0  0  0  0
   29.3401  -34.6177    3.9018 H   0  0  0  0  0  0
   31.6527  -36.4476    2.9555 H   0  0  0  0  0  0
   29.3258  -36.0932    1.6242 H   0  0  0  0  0  0
   30.1386  -34.5735    1.1179 H   0  0  0  0  0  0
   32.0798  -36.1823    0.4323 H   0  0  0  0  0  0
   30.7772  -37.4191    0.4476 H   0  0  0  0  0  0
   30.9733  -34.8783   -1.2243 H   0  0  0  0  0  0
   30.7899  -36.5782   -1.7751 H   0  0  0  0  0  0
   28.4293  -36.0196   -0.2228 H   0  0  0  0  0  0
   26.5253  -35.3568   -1.1822 H   0  0  0  0  0  0
   26.5676  -34.5201   -2.8934 H   0  0  0  0  0  0
   30.1902  -34.7649   -3.1500 H   0  0  0  0  0  0
   33.3841  -35.1255    4.0283 H   0  0  0  0  0  0
   33.0536  -32.2023    3.8730 H   0  0  0  0  0  0
   35.5410  -33.8351    4.3871 H   0  0  0  0  0  0
   35.4835  -32.0400    4.4199 H   0  0  0  0  0  0
   33.6235  -32.2213    6.0931 H   0  0  0  0  0  0
   33.9415  -33.9881    6.1552 H   0  0  0  0  0  0
   36.2887  -33.5871    6.7306 H   0  0  0  0  0  0
   36.0615  -31.8150    6.5449 H   0  0  0  0  0  0
   34.2444  -32.0552    8.3474 H   0  0  0  0  0  0
   34.9674  -33.6684    8.6660 H   0  0  0  0  0  0
   36.4883  -31.0464    8.5704 H   0  0  0  0  0  0
   34.9900  -31.2167   10.5118 H   0  0  0  0  0  0
   36.7027  -31.4462   11.0025 H   0  0  0  0  0  0
   35.6140  -32.8669   10.8497 H   0  0  0  0  0  0
   37.7199  -33.0309    7.9300 H   0  0  0  0  0  0
   37.1329  -33.8751    9.4028 H   0  0  0  0  0  0
   38.2216  -32.4545    9.5557 H   0  0  0  0  0  0
   33.7881  -30.6852    2.5553 H   0  0  0  0  0  0
   33.8552  -31.1428   -0.2103 H   0  0  0  0  0  0
   33.8977  -28.9199    1.0523 H   0  0  0  0  0  0
   35.6691  -29.1345    1.2584 H   0  0  0  0  0  0
   35.1652  -27.7099   -0.7548 H   0  0  0  0  0  0
   28.5642  -34.1978   -3.9650 H   0  0  0  0  0  0
  1  2  1  0  0  0
  1 67  1  0  0  0
  1 68  1  0  0  0
  1 69  1  0  0  0
  2  3  1  0  0  0
  2  5  1  0  0  0
  2 70  1  0  0  0
  3  4  2  0  0  0
  3  8  1  0  0  0
  5  6  1  0  0  0
  5  7  1  0  0  0
  5 71  1  0  0  0
  6 72  1  0  0  0
  7 73  1  0  0  0
  7 74  1  0  0  0
  7 75  1  0  0  0
  8  9  1  0  0  0
  8 76  1  0  0  0
  9 10  1  0  0  0
  9 12  1  0  0  0
  9 77  1  0  0  0
 10 11  2  0  0  0
 10 17  1  0  0  0
 12 13  1  0  0  0
 12 78  1  0  0  0
 12 79  1  0  0  0
 13 14  1  0  0  0
 13 80  1  0  0  0
 13 81  1  0  0  0
 14 15  1  0  0  0
 14 82  1  0  0  0
 14 83  1  0  0  0
 15 16  1  0  0  0
 15 84  1  0  0  0
 15 85  1  0  0  0
 16 86  1  0  0  0
 16 87  1  0  0  0
 16 88  1  0  0  0
 17 18  1  0  0  0
 17 89  1  0  0  0
 18 19  1  0  0  0
 18 21  1  0  0  0
 18 90  1  0  0  0
 19 20  2  0  0  0
 19 26  1  0  0  0
 21 22  1  0  0  0
 21 91  1  0  0  0
 21 92  1  0  0  0
 22 23  1  0  0  0
 22 93  1  0  0  0
 22 94  1  0  0  0
 23 24  2  0  0  0
 23 25  1  0  0  0
 25 95  1  0  0  0
 25 96  1  0  0  0
 26 27  1  0  0  0
 26 97  1  0  0  0
 27 28  1  0  0  0
 27 30  1  0  0  0
 27 98  1  0  0  0
 28 29  2  0  0  0
 28 33  1  0  0  0
 30 31  1  0  0  0
 30 32  1  0  0  0
 30 99  1  0  0  0
 31100  1  0  0  0
 32101  1  0  0  0
 32102  1  0  0  0
 32103  1  0  0  0
 33 34  1  0  0  0
 33104  1  0  0  0
 34 35  1  0  0  0
 34 37  1  0  0  0
 34105  1  0  0  0
 35 36  2  0  0  0
 35 38  1  0  0  0
 37106  1  0  0  0
 37107  1  0  0  0
 37108  1  0  0  0
 38 39  1  0  0  0
 38109  1  0  0  0
 39 40  1  0  0  0
 39 42  1  0  0  0
 39110  1  0  0  0
 40 41  2  0  0  0
 40 49  1  0  0  0
 42 43  1  0  0  0
 42111  1  0  0  0
 42112  1  0  0  0
 43 44  1  0  0  0
 43113  1  0  0  0
 43114  1  0  0  0
 44 45  1  0  0  0
 44115  1  0  0  0
 44116  1  0  0  0
 45 46  1  0  0  0
 45117  1  0  0  0
 46 47  1  0  0  0
 46 48  2  0  0  0
 47118  1  0  0  0
 47119  1  0  0  0
 48120  1  0  0  0
 48143  1  0  0  0
 49 50  1  0  0  0
 49121  1  0  0  0
 50 51  1  0  0  0
 50 58  1  0  0  0
 50122  1  0  0  0
 51 52  1  0  0  0
 51123  1  0  0  0
 51124  1  0  0  0
 52 53  1  0  0  0
 52125  1  0  0  0
 52126  1  0  0  0
 53 54  1  0  0  0
 53127  1  0  0  0
 53128  1  0  0  0
 54 55  1  0  0  0
 54129  1  0  0  0
 54130  1  0  0  0
 55 56  1  0  0  0
 55 57  1  0  0  0
 55131  1  0  0  0
 56132  1  0  0  0
 56133  1  0  0  0
 56134  1  0  0  0
 57135  1  0  0  0
 57136  1  0  0  0
 57137  1  0  0  0
 58 59  2  0  0  0
 58 60  1  0  0  0
 60 61  1  0  0  0
 60138  1  0  0  0
 61 62  1  0  0  0
 61 64  1  0  0  0
 61139  1  0  0  0
 62 63  1  0  0  0
 62 66  2  0  0  0
 64 65  1  0  0  0
 64140  1  0  0  0
 64141  1  0  0  0
 65142  1  0  0  0
M  CHG  5   1   1  16   1  48   1  55   1  63  -1
M  END
> <s_m_source_file>
../4iut_ligand.sdf

> <i_m_source_file_index>
1

> <s_epik_input>
W09IXVtDQEhdKFtDSDNdKVtDQEhdKFtOSDMrXSlDKD1PKVtOSF1bQ0BASF0oW0NIMl1bQ0gyXVtDSDJdW0NIMl1bTkgzK10pQyg9TylbTkhdW0NAQEhdKFtDSDJdW0NIMl1DKD1PKVtOSDJdKUMoPU8pW05IXVtDQEBIXShbQ0BIXShbT0hdKVtDSDNdKUMoPU8pW05IXVtDQEBIXShbQ0gzXSlDKD1PKVtOSF1bQ0BASF0oW0NIMl1bQ0gyXVtDSDJdW05IXS9DKFtOSDJdKT1OXFtIXSlDKD1PKVtOSF1bQ0BIXShDKD1PKVtOSF1bQ0BIXShDKD1PKVtPSF0pW0NIMl1bT0hdKVtDSDJdW0NIMl1bQ0gyXVtDSDJdW05IK10oW0NIM10pW0NIM10=

> <s_epik_cmdline>
J2VwaWtfYXBwJywgJy1pbWFlJywgJ2xpZ2FuZF9wcm8ubWFlJywgJy1vbWFlJywgJ2xpZ2FuZF9wcmVwLm1hZScsICctbXMnLCAnMScsICctcGgnLCAnNycsICctcGh0JywgJzAuNScsICctbnQn

> <r_epik_Ionization_Penalty>
  0.0828

> <r_epik_Ionization_Penalty_Charging>
  0.0828

> <r_epik_Ionization_Penalty_Neutral>
  0.0000

> <r_epik_State_Penalty>
  0.0714

> <r_epik_Charging_Adjusted_Penalty>
0.154250693646335

> <i_epik_Tot_Q>
3

> <i_epik_Tot_abs_Q>
5

> <s_epik_Chemistry_Notes>
This compound has an imine and may undergo hydrolysis.

$$$$
