4iuu_ligand
                    3D
 Schrodinger Suite 2020-3.
140139  0  0  1  0            999 V2000
   -1.5340  -14.3310   20.9970 N   0  3  0  0  0  0
   -2.0090  -14.4580   22.3690 C   0  0  2  0  0  0
   -2.9090  -13.2890   22.7510 C   0  0  0  0  0  0
   -2.8890  -12.2430   22.1060 O   0  0  0  0  0  0
   -0.8400  -14.5300   23.3650 C   0  0  2  0  0  0
   -0.3790  -13.2050   23.6570 O   0  0  0  0  0  0
    0.3030  -15.3440   22.7840 C   0  0  0  0  0  0
   -3.6960  -13.4740   23.8050 N   0  0  0  0  0  0
   -4.5990  -12.4330   24.2780 C   0  0  2  0  0  0
   -3.8180  -11.2360   24.8050 C   0  0  0  0  0  0
   -2.5960  -11.2860   24.9280 O   0  0  0  0  0  0
   -5.5200  -12.9780   25.3700 C   0  0  0  0  0  0
   -6.9460  -13.2300   24.9120 C   0  0  0  0  0  0
   -7.8260  -13.6770   26.0670 C   0  0  0  0  0  0
   -8.8060  -14.7550   25.6320 C   0  0  0  0  0  0
   -9.5090  -15.3680   26.7910 N   0  3  0  0  0  0
   -4.5320  -10.1600   25.1130 N   0  0  0  0  0  0
   -3.9080   -8.9550   25.6440 C   0  0  2  0  0  0
   -4.1050   -8.8660   27.1510 C   0  0  0  0  0  0
   -5.0210   -9.4740   27.7030 O   0  0  0  0  0  0
   -4.4800   -7.7100   24.9640 C   0  0  0  0  0  0
   -4.5170   -7.7950   23.4480 C   0  0  0  0  0  0
   -4.3220   -6.4480   22.7850 C   0  0  0  0  0  0
   -4.2410   -5.4200   23.4550 O   0  0  0  0  0  0
   -4.2470   -6.4460   21.4600 N   0  0  0  0  0  0
   -3.2390   -8.1080   27.8130 N   0  0  0  0  0  0
   -3.3240   -7.9400   29.2570 C   0  0  2  0  0  0
   -4.4320   -6.9610   29.6240 C   0  0  0  0  0  0
   -4.4070   -5.8010   29.2190 O   0  0  0  0  0  0
   -1.9930   -7.4500   29.8470 C   0  0  2  0  0  0
   -0.9070   -7.9790   29.0770 O   0  0  0  0  0  0
   -1.8520   -7.9050   31.2890 C   0  0  0  0  0  0
   -5.4050   -7.4380   30.3920 N   0  0  0  0  0  0
   -6.5410   -6.6180   30.7890 C   0  0  2  0  0  0
   -6.2310   -5.7770   32.0210 C   0  0  0  0  0  0
   -5.5830   -6.2430   32.9560 O   0  0  0  0  0  0
   -7.7600   -7.4900   31.0390 C   0  0  0  0  0  0
   -6.7050   -4.5360   32.0150 N   0  0  0  0  0  0
   -6.5330   -3.6460   33.1540 C   0  0  2  0  0  0
   -7.8860   -3.2560   33.7350 C   0  0  0  0  0  0
   -8.6760   -2.5740   33.0850 O   0  0  0  0  0  0
   -5.7430   -2.3980   32.7530 C   0  0  0  0  0  0
   -6.4020   -1.5600   31.6720 C   0  0  0  0  0  0
   -5.5250   -0.3830   31.2730 C   0  0  0  0  0  0
   -5.9830    0.2450   30.0360 N   0  0  0  0  0  0
   -6.8350    1.2640   29.9850 C   0  0  0  0  0  0
   -7.1970    1.7700   28.8140 N   0  0  0  0  0  0
   -7.3260    1.7770   31.1040 N   0  3  0  0  0  0
   -8.1480   -3.6980   34.9590 N   0  0  0  0  0  0
   -9.4370   -3.3990   35.6430 C   0  0  1  0  0  0
   -9.6520   -4.3760   36.7920 C   0  0  0  0  0  0
   -9.3220   -5.8010   36.3670 C   0  0  0  0  0  0
   -9.3790   -6.7560   37.5540 C   0  0  0  0  0  0
  -10.4380   -7.8300   37.3410 C   0  0  0  0  0  0
  -10.1790   -9.0160   38.1330 N   0  3  0  0  0  0
  -10.5560  -10.3200   37.6260 C   0  0  0  0  0  0
   -9.4700   -1.9940   36.1680 C   0  0  0  0  0  0
   -8.4300   -1.3860   36.4100 O   0  0  0  0  0  0
  -10.6750   -1.4640   36.3490 N   0  0  0  0  0  0
  -10.8450   -0.1070   36.8520 C   0  0  2  0  0  0
  -10.6290   -0.0450   38.3590 C   0  0  0  0  0  0
  -10.1596    0.9921   38.8991 O   0  5  0  0  0  0
  -12.2340    0.4290   36.4960 C   0  0  0  0  0  0
  -13.2340   -0.5470   36.7330 O   0  0  0  0  0  0
  -10.9227   -1.0411   39.0725 O   0  0  0  0  0  0
   -2.3949  -14.2824   20.3140 H   0  0  0  0  0  0
   -0.9124  -15.2020   20.7421 H   0  0  0  0  0  0
   -0.9363  -13.4127   20.8995 H   0  0  0  0  0  0
   -2.5804  -15.3980   22.3644 H   0  0  0  0  0  0
   -1.1641  -14.9643   24.3223 H   0  0  0  0  0  0
   -1.0696  -12.4647   24.0871 H   0  0  0  0  0  0
   -0.0489  -16.3617   22.5591 H   0  0  0  0  0  0
    1.1256  -15.3931   23.5126 H   0  0  0  0  0  0
    0.6601  -14.8668   21.8595 H   0  0  0  0  0  0
   -3.6539  -14.4430   24.3238 H   0  0  0  0  0  0
   -5.1856  -12.1339   23.3969 H   0  0  0  0  0  0
   -5.1249  -13.9362   25.7383 H   0  0  0  0  0  0
   -5.5698  -12.2584   26.2005 H   0  0  0  0  0  0
   -7.3649  -12.3041   24.4910 H   0  0  0  0  0  0
   -6.9507  -14.0171   24.1436 H   0  0  0  0  0  0
   -7.1959  -14.0822   26.8725 H   0  0  0  0  0  0
   -8.3980  -12.8174   26.4462 H   0  0  0  0  0  0
   -9.5619  -14.3156   24.9645 H   0  0  0  0  0  0
   -8.2639  -15.5500   25.0990 H   0  0  0  0  0  0
  -10.2055  -16.1396   26.4311 H   0  0  0  0  0  0
  -10.0697  -14.5916   27.3322 H   0  0  0  0  0  0
   -8.7716  -15.8260   27.4667 H   0  0  0  0  0  0
   -5.6206  -10.1932   24.9583 H   0  0  0  0  0  0
   -2.8364   -9.0542   25.4163 H   0  0  0  0  0  0
   -5.5132   -7.5480   25.3050 H   0  0  0  0  0  0
   -3.8664   -6.8351   25.2248 H   0  0  0  0  0  0
   -3.7158   -8.4628   23.0986 H   0  0  0  0  0  0
   -5.4913   -8.1919   23.1267 H   0  0  0  0  0  0
   -4.3249   -7.3915   20.9033 H   0  0  0  0  0  0
   -4.1070   -5.4988   20.9185 H   0  0  0  0  0  0
   -2.4442   -7.6010   27.2461 H   0  0  0  0  0  0
   -3.5621   -8.9458   29.6335 H   0  0  0  0  0  0
   -1.9157   -6.3544   29.7861 H   0  0  0  0  0  0
   -0.8356   -7.7571   28.0020 H   0  0  0  0  0  0
   -2.6842   -7.5009   31.8840 H   0  0  0  0  0  0
   -0.8981   -7.5396   31.6971 H   0  0  0  0  0  0
   -1.8716   -9.0041   31.3303 H   0  0  0  0  0  0
   -5.3363   -8.4828   30.7292 H   0  0  0  0  0  0
   -6.7197   -5.9482   29.9350 H   0  0  0  0  0  0
   -7.9713   -8.0906   30.1420 H   0  0  0  0  0  0
   -8.6269   -6.8520   31.2657 H   0  0  0  0  0  0
   -7.5642   -8.1586   31.8902 H   0  0  0  0  0  0
   -7.2390   -4.1860   31.1193 H   0  0  0  0  0  0
   -5.9641   -4.2250   33.8963 H   0  0  0  0  0  0
   -5.6153   -1.7472   33.6306 H   0  0  0  0  0  0
   -4.7556   -2.6962   32.3708 H   0  0  0  0  0  0
   -6.5783   -2.1822   30.7822 H   0  0  0  0  0  0
   -7.3616   -1.1711   32.0435 H   0  0  0  0  0  0
   -5.5431    0.3746   32.0703 H   0  0  0  0  0  0
   -4.4924   -0.7302   31.1205 H   0  0  0  0  0  0
   -5.6200   -0.1233   29.0651 H   0  0  0  0  0  0
   -6.7916    1.3469   27.8831 H   0  0  0  0  0  0
   -7.9027    2.6128   28.7735 H   0  0  0  0  0  0
   -7.0281    1.3600   32.0773 H   0  0  0  0  0  0
   -7.3817   -4.3004   35.4687 H   0  0  0  0  0  0
  -10.2309   -3.4974   34.8880 H   0  0  0  0  0  0
   -9.0011   -4.0999   37.6347 H   0  0  0  0  0  0
  -10.7034   -4.3386   37.1132 H   0  0  0  0  0  0
  -10.0481   -6.1357   35.6115 H   0  0  0  0  0  0
   -8.3086   -5.8310   35.9402 H   0  0  0  0  0  0
   -8.4014   -7.2447   37.6787 H   0  0  0  0  0  0
   -9.6264   -6.1930   38.4660 H   0  0  0  0  0  0
  -11.4237   -7.4350   37.6280 H   0  0  0  0  0  0
  -10.4550   -8.1231   36.2809 H   0  0  0  0  0  0
   -9.0983   -9.1043   38.3185 H   0  0  0  0  0  0
  -10.7107   -8.9392   39.0929 H   0  0  0  0  0  0
  -10.2824  -11.0920   38.3603 H   0  0  0  0  0  0
  -10.0297  -10.5115   36.6792 H   0  0  0  0  0  0
  -11.6421  -10.3464   37.4537 H   0  0  0  0  0  0
  -11.5569   -2.0762   36.1091 H   0  0  0  0  0  0
  -10.0652    0.4831   36.3482 H   0  0  0  0  0  0
  -12.4540    1.3143   37.1107 H   0  0  0  0  0  0
  -12.2584    0.7062   35.4318 H   0  0  0  0  0  0
  -14.2891   -0.3149   36.5260 H   0  0  0  0  0  0
   -8.0314    2.6198   31.0595 H   0  0  0  0  0  0
  1  2  1  0  0  0
  1 66  1  0  0  0
  1 67  1  0  0  0
  1 68  1  0  0  0
  2  3  1  0  0  0
  2  5  1  0  0  0
  2 69  1  0  0  0
  3  4  2  0  0  0
  3  8  1  0  0  0
  5  6  1  0  0  0
  5  7  1  0  0  0
  5 70  1  0  0  0
  6 71  1  0  0  0
  7 72  1  0  0  0
  7 73  1  0  0  0
  7 74  1  0  0  0
  8  9  1  0  0  0
  8 75  1  0  0  0
  9 10  1  0  0  0
  9 12  1  0  0  0
  9 76  1  0  0  0
 10 11  2  0  0  0
 10 17  1  0  0  0
 12 13  1  0  0  0
 12 77  1  0  0  0
 12 78  1  0  0  0
 13 14  1  0  0  0
 13 79  1  0  0  0
 13 80  1  0  0  0
 14 15  1  0  0  0
 14 81  1  0  0  0
 14 82  1  0  0  0
 15 16  1  0  0  0
 15 83  1  0  0  0
 15 84  1  0  0  0
 16 85  1  0  0  0
 16 86  1  0  0  0
 16 87  1  0  0  0
 17 18  1  0  0  0
 17 88  1  0  0  0
 18 19  1  0  0  0
 18 21  1  0  0  0
 18 89  1  0  0  0
 19 20  2  0  0  0
 19 26  1  0  0  0
 21 22  1  0  0  0
 21 90  1  0  0  0
 21 91  1  0  0  0
 22 23  1  0  0  0
 22 92  1  0  0  0
 22 93  1  0  0  0
 23 24  2  0  0  0
 23 25  1  0  0  0
 25 94  1  0  0  0
 25 95  1  0  0  0
 26 27  1  0  0  0
 26 96  1  0  0  0
 27 28  1  0  0  0
 27 30  1  0  0  0
 27 97  1  0  0  0
 28 29  2  0  0  0
 28 33  1  0  0  0
 30 31  1  0  0  0
 30 32  1  0  0  0
 30 98  1  0  0  0
 31 99  1  0  0  0
 32100  1  0  0  0
 32101  1  0  0  0
 32102  1  0  0  0
 33 34  1  0  0  0
 33103  1  0  0  0
 34 35  1  0  0  0
 34 37  1  0  0  0
 34104  1  0  0  0
 35 36  2  0  0  0
 35 38  1  0  0  0
 37105  1  0  0  0
 37106  1  0  0  0
 37107  1  0  0  0
 38 39  1  0  0  0
 38108  1  0  0  0
 39 40  1  0  0  0
 39 42  1  0  0  0
 39109  1  0  0  0
 40 41  2  0  0  0
 40 49  1  0  0  0
 42 43  1  0  0  0
 42110  1  0  0  0
 42111  1  0  0  0
 43 44  1  0  0  0
 43112  1  0  0  0
 43113  1  0  0  0
 44 45  1  0  0  0
 44114  1  0  0  0
 44115  1  0  0  0
 45 46  1  0  0  0
 45116  1  0  0  0
 46 47  1  0  0  0
 46 48  2  0  0  0
 47117  1  0  0  0
 47118  1  0  0  0
 48119  1  0  0  0
 48140  1  0  0  0
 49 50  1  0  0  0
 49120  1  0  0  0
 50 51  1  0  0  0
 50 57  1  0  0  0
 50121  1  0  0  0
 51 52  1  0  0  0
 51122  1  0  0  0
 51123  1  0  0  0
 52 53  1  0  0  0
 52124  1  0  0  0
 52125  1  0  0  0
 53 54  1  0  0  0
 53126  1  0  0  0
 53127  1  0  0  0
 54 55  1  0  0  0
 54128  1  0  0  0
 54129  1  0  0  0
 55 56  1  0  0  0
 55130  1  0  0  0
 55131  1  0  0  0
 56132  1  0  0  0
 56133  1  0  0  0
 56134  1  0  0  0
 57 58  2  0  0  0
 57 59  1  0  0  0
 59 60  1  0  0  0
 59135  1  0  0  0
 60 61  1  0  0  0
 60 63  1  0  0  0
 60136  1  0  0  0
 61 62  1  0  0  0
 61 65  2  0  0  0
 63 64  1  0  0  0
 63137  1  0  0  0
 63138  1  0  0  0
 64139  1  0  0  0
M  CHG  5   1   1  16   1  48   1  55   1  62  -1
M  END
> <s_m_source_file>
../4iuu_ligand.sdf

> <i_m_source_file_index>
1

> <s_epik_input>
W09IXVtDQEhdKFtDSDNdKVtDQEhdKFtOSDMrXSlDKD1PKVtOSF1bQ0BASF0oW0NIMl1bQ0gyXVtDSDJdW0NIMl1bTkgzK10pQyg9TylbTkhdW0NAQEhdKFtDSDJdW0NIMl1DKD1PKVtOSDJdKUMoPU8pW05IXVtDQEBIXShbQ0BIXShbT0hdKVtDSDNdKUMoPU8pW05IXVtDQEBIXShbQ0gzXSlDKD1PKVtOSF1bQ0BASF0oW0NIMl1bQ0gyXVtDSDJdW05IXS9DKFtOSDJdKT1OXFtIXSlDKD1PKVtOSF1bQ0BIXShDKD1PKVtOSF1bQ0BIXShDKD1PKVtPSF0pW0NIMl1bT0hdKVtDSDJdW0NIMl1bQ0gyXVtDSDJdW05IMitdW0NIM10=

> <s_epik_cmdline>
J2VwaWtfYXBwJywgJy1pbWFlJywgJ2xpZ2FuZF9wcm8ubWFlJywgJy1vbWFlJywgJ2xpZ2FuZF9wcmVwLm1hZScsICctbXMnLCAnMScsICctcGgnLCAnNycsICctcGh0JywgJzAuNScsICctbnQn

> <r_epik_Ionization_Penalty>
  0.0814

> <r_epik_Ionization_Penalty_Charging>
  0.0814

> <r_epik_Ionization_Penalty_Neutral>
  0.0000

> <r_epik_State_Penalty>
  0.0714

> <r_epik_Charging_Adjusted_Penalty>
0.152870652331759

> <i_epik_Tot_Q>
3

> <i_epik_Tot_abs_Q>
5

> <s_epik_Chemistry_Notes>
This compound has an imine and may undergo hydrolysis.

$$$$
