4iuv_ligand
                    3D
 Schrodinger Suite 2020-3.
157156  0  0  1  0            999 V2000
  -14.5290  -52.8120   20.7540 N   0  3  0  0  0  0
  -14.4770  -52.4770   22.1730 C   0  0  2  0  0  0
  -13.3950  -51.4680   22.5010 C   0  0  0  0  0  0
  -12.8250  -50.8490   21.6160 O   0  0  0  0  0  0
  -14.2150  -53.6960   23.0130 C   0  0  2  0  0  0
  -12.8110  -53.9330   23.0460 O   0  0  0  0  0  0
  -14.8910  -54.8780   22.4080 C   0  0  0  0  0  0
  -13.1240  -51.3150   23.7910 N   0  0  0  0  0  0
  -12.1760  -50.2920   24.3040 C   0  0  1  0  0  0
  -12.9010  -49.4940   25.3710 C   0  0  0  0  0  0
  -12.9360  -47.9950   25.1430 C   0  0  0  0  0  0
  -13.6880  -47.3290   26.2870 C   0  0  0  0  0  0
  -13.9550  -45.8590   26.0040 C   0  0  0  0  0  0
  -14.0740  -45.0530   27.1990 N   0  3  0  0  0  0
  -15.1610  -44.1120   27.2770 C   0  0  0  0  0  0
  -11.0060  -50.9360   24.9530 C   0  0  0  0  0  0
  -11.1540  -51.8970   25.6850 O   0  0  0  0  0  0
   -9.8200  -50.4110   24.6990 N   0  0  0  0  0  0
   -8.6200  -50.9160   25.3380 C   0  0  2  0  0  0
   -8.7190  -50.6510   26.8280 C   0  0  0  0  0  0
   -9.5070  -49.8320   27.2610 O   0  0  0  0  0  0
   -7.3870  -50.2240   24.7650 C   0  0  0  0  0  0
   -7.5450  -49.7700   23.3390 C   0  0  0  0  0  0
   -6.5690  -50.4380   22.4170 C   0  0  0  0  0  0
   -6.8460  -51.4930   21.8610 O   0  0  0  0  0  0
   -5.4150  -49.8310   22.2460 N   0  0  0  0  0  0
   -7.9280  -51.3380   27.6270 N   0  0  0  0  0  0
   -7.9700  -51.0830   29.0480 C   0  0  2  0  0  0
   -6.9640  -50.0330   29.4570 C   0  0  0  0  0  0
   -5.7820  -50.1670   29.1950 O   0  0  0  0  0  0
   -7.6690  -52.3410   29.8150 C   0  0  2  0  0  0
   -8.1830  -53.4490   29.0800 O   0  0  0  0  0  0
   -8.3250  -52.2910   31.1620 C   0  0  0  0  0  0
   -7.4280  -48.9940   30.1290 N   0  0  0  0  0  0
   -6.5290  -47.9670   30.6190 C   0  0  2  0  0  0
   -5.7030  -48.4200   31.8110 C   0  0  0  0  0  0
   -6.1410  -49.2230   32.6180 O   0  0  0  0  0  0
   -7.3070  -46.7390   30.9790 C   0  0  0  0  0  0
   -4.4970  -47.8870   31.9100 N   0  0  0  0  0  0
   -3.7380  -47.9520   33.1360 C   0  0  2  0  0  0
   -3.3620  -46.5560   33.5750 C   0  0  0  0  0  0
   -2.8450  -45.7850   32.7930 O   0  0  0  0  0  0
   -2.4970  -48.8290   33.0130 C   0  0  0  0  0  0
   -1.7790  -48.7680   31.7090 C   0  0  0  0  0  0
   -0.3260  -49.1450   31.8870 C   0  0  0  0  0  0
    0.4770  -48.6820   30.7690 N   0  0  0  0  0  0
    1.2440  -47.6050   30.8080 C   0  0  0  0  0  0
    1.9320  -47.2460   29.7420 N   0  0  0  0  0  0
    1.3210  -46.8910   31.9140 N   0  0  0  0  0  0
   -3.6300  -46.2400   34.8340 N   0  0  0  0  0  0
   -3.2980  -44.9100   35.3780 C   0  0  1  0  0  0
   -4.3520  -44.4880   36.3860 C   0  0  0  0  0  0
   -5.6050  -45.3280   36.3110 C   0  0  0  0  0  0
   -6.5550  -44.9090   37.4190 C   0  0  0  0  0  0
   -7.7630  -44.1770   36.8750 C   0  0  0  0  0  0
   -8.8910  -44.1870   37.7670 N   0  3  0  0  0  0
  -10.2030  -43.8780   37.2590 C   0  0  0  0  0  0
   -1.9360  -44.8480   36.0050 C   0  0  0  0  0  0
   -1.2740  -45.8440   36.1600 O   0  0  0  0  0  0
   -1.5270  -43.6470   36.3820 N   0  0  0  0  0  0
   -0.1870  -43.3370   36.8600 C   0  0  2  0  0  0
    0.2310  -43.9110   38.2190 C   0  0  0  0  0  0
    0.9050  -44.9250   38.2980 O   0  0  0  0  0  0
   -0.0470  -41.8180   36.9020 C   0  0  0  0  0  0
    1.1830  -41.3820   36.3640 O   0  0  0  0  0  0
   -0.1380  -43.2020   39.2770 N   0  0  0  0  0  0
    0.1620  -43.5220   40.6680 C   0  0  2  0  0  0
   -0.3400  -42.3850   41.5580 C   0  0  0  0  0  0
   -0.5846  -41.2417   41.0882 O   0  0  0  0  0  0
    1.6810  -43.7730   40.9420 C   0  0  2  0  0  0
    2.4820  -42.9300   40.1040 O   0  0  0  0  0  0
    2.0660  -45.2520   40.7350 C   0  0  0  0  0  0
   -0.5129  -42.5957   42.7882 O   0  0  0  0  0  0
  -14.7217  -51.9006   20.1689 H   0  0  0  0  0  0
  -15.3363  -53.5382   20.5781 H   0  0  0  0  0  0
  -13.5683  -53.2498   20.4452 H   0  0  0  0  0  0
  -15.4747  -52.0562   22.3668 H   0  0  0  0  0  0
  -14.5567  -53.5494   24.0483 H   0  0  0  0  0  0
  -12.1342  -53.1711   23.4601 H   0  0  0  0  0  0
  -15.9767  -54.7040   22.3783 H   0  0  0  0  0  0
  -14.6793  -55.7714   23.0138 H   0  0  0  0  0  0
  -14.5160  -55.0312   21.3853 H   0  0  0  0  0  0
  -13.6380  -51.9891   24.4920 H   0  0  0  0  0  0
  -11.8229  -49.6820   23.4595 H   0  0  0  0  0  0
  -13.9479  -49.8266   25.4297 H   0  0  0  0  0  0
  -12.4111  -49.6518   26.3432 H   0  0  0  0  0  0
  -11.9078  -47.6062   25.1027 H   0  0  0  0  0  0
  -13.4466  -47.7805   24.1926 H   0  0  0  0  0  0
  -14.6540  -47.8343   26.4341 H   0  0  0  0  0  0
  -13.0922  -47.4014   27.2088 H   0  0  0  0  0  0
  -13.1284  -45.4442   25.4084 H   0  0  0  0  0  0
  -14.8966  -45.7585   25.4443 H   0  0  0  0  0  0
  -14.2022  -45.7091   28.0725 H   0  0  0  0  0  0
  -13.1641  -44.4480   27.3253 H   0  0  0  0  0  0
  -15.1164  -43.5791   28.2383 H   0  0  0  0  0  0
  -16.1176  -44.6496   27.1998 H   0  0  0  0  0  0
  -15.0794  -43.3884   26.4525 H   0  0  0  0  0  0
   -9.7539  -49.5749   23.9872 H   0  0  0  0  0  0
   -8.5713  -51.9956   25.1327 H   0  0  0  0  0  0
   -7.1552  -49.3318   25.3652 H   0  0  0  0  0  0
   -6.5324  -50.9161   24.7918 H   0  0  0  0  0  0
   -8.5606  -50.0069   22.9892 H   0  0  0  0  0  0
   -7.3808  -48.6839   23.2796 H   0  0  0  0  0  0
   -5.2093  -48.8839   22.7663 H   0  0  0  0  0  0
   -4.6554  -50.2703   21.5826 H   0  0  0  0  0  0
   -7.2417  -52.0977   27.2246 H   0  0  0  0  0  0
   -8.9954  -50.7311   29.2342 H   0  0  0  0  0  0
   -6.5849  -52.4884   29.9292 H   0  0  0  0  0  0
   -7.8188  -53.6501   28.0617 H   0  0  0  0  0  0
   -7.9297  -51.4365   31.7309 H   0  0  0  0  0  0
   -8.1148  -53.2231   31.7070 H   0  0  0  0  0  0
   -9.4118  -52.1767   31.0365 H   0  0  0  0  0  0
   -8.5091  -48.9132   30.3154 H   0  0  0  0  0  0
   -5.8526  -47.7667   29.7749 H   0  0  0  0  0  0
   -7.9029  -46.4155   30.1129 H   0  0  0  0  0  0
   -6.6123  -45.9361   31.2666 H   0  0  0  0  0  0
   -7.9771  -46.9635   31.8219 H   0  0  0  0  0  0
   -4.0743  -47.3846   31.0274 H   0  0  0  0  0  0
   -4.4217  -48.4174   33.8612 H   0  0  0  0  0  0
   -1.7636  -48.5360   33.7787 H   0  0  0  0  0  0
   -2.7769  -49.8829   33.1577 H   0  0  0  0  0  0
   -2.2457  -49.4680   31.0004 H   0  0  0  0  0  0
   -1.8364  -47.7460   31.3063 H   0  0  0  0  0  0
    0.0608  -48.6884   32.8100 H   0  0  0  0  0  0
   -0.2367  -50.2393   31.9540 H   0  0  0  0  0  0
    0.4695  -49.2370   29.8193 H   0  0  0  0  0  0
    1.8676  -47.8417   28.8195 H   0  0  0  0  0  0
    0.7470  -47.1907   32.8032 H   0  0  0  0  0  0
    1.9593  -45.9957   31.9474 H   0  0  0  0  0  0
   -4.1098  -46.9929   35.4766 H   0  0  0  0  0  0
   -3.2789  -44.2360   34.5089 H   0  0  0  0  0  0
   -3.9450  -44.5828   37.4035 H   0  0  0  0  0  0
   -4.6379  -43.4419   36.2015 H   0  0  0  0  0  0
   -6.0886  -45.1787   35.3344 H   0  0  0  0  0  0
   -5.3427  -46.3894   36.4318 H   0  0  0  0  0  0
   -6.9054  -45.8013   37.9585 H   0  0  0  0  0  0
   -6.0311  -44.2402   38.1178 H   0  0  0  0  0  0
   -7.5009  -43.1251   36.6882 H   0  0  0  0  0  0
   -8.0838  -44.6476   35.9339 H   0  0  0  0  0  0
   -9.0014  -45.1890   38.2072 H   0  0  0  0  0  0
   -8.7316  -43.4501   38.5680 H   0  0  0  0  0  0
  -10.9357  -43.9341   38.0775 H   0  0  0  0  0  0
  -10.4725  -44.6014   36.4754 H   0  0  0  0  0  0
  -10.2027  -42.8625   36.8361 H   0  0  0  0  0  0
   -2.2844  -42.8522   36.3144 H   0  0  0  0  0  0
    0.4426  -43.8482   36.1169 H   0  0  0  0  0  0
   -0.8580  -41.3588   36.3177 H   0  0  0  0  0  0
   -0.1057  -41.4730   37.9449 H   0  0  0  0  0  0
    1.4188  -40.3081   36.3304 H   0  0  0  0  0  0
   -0.7203  -42.3012   39.0331 H   0  0  0  0  0  0
   -0.3929  -44.4554   40.8437 H   0  0  0  0  0  0
    1.9401  -43.4735   41.9682 H   0  0  0  0  0  0
    2.3395  -41.8394   40.1241 H   0  0  0  0  0  0
    1.4443  -45.8869   41.3834 H   0  0  0  0  0  0
    3.1264  -45.3941   40.9906 H   0  0  0  0  0  0
    1.9018  -45.5299   39.6834 H   0  0  0  0  0  0
   -0.8737  -41.7860   43.4395 H   0  0  0  0  0  0
  1  2  1  0  0  0
  1 74  1  0  0  0
  1 75  1  0  0  0
  1 76  1  0  0  0
  2  3  1  0  0  0
  2  5  1  0  0  0
  2 77  1  0  0  0
  3  4  2  0  0  0
  3  8  1  0  0  0
  5  6  1  0  0  0
  5  7  1  0  0  0
  5 78  1  0  0  0
  6 79  1  0  0  0
  7 80  1  0  0  0
  7 81  1  0  0  0
  7 82  1  0  0  0
  8  9  1  0  0  0
  8 83  1  0  0  0
  9 10  1  0  0  0
  9 16  1  0  0  0
  9 84  1  0  0  0
 10 11  1  0  0  0
 10 85  1  0  0  0
 10 86  1  0  0  0
 11 12  1  0  0  0
 11 87  1  0  0  0
 11 88  1  0  0  0
 12 13  1  0  0  0
 12 89  1  0  0  0
 12 90  1  0  0  0
 13 14  1  0  0  0
 13 91  1  0  0  0
 13 92  1  0  0  0
 14 15  1  0  0  0
 14 93  1  0  0  0
 14 94  1  0  0  0
 15 95  1  0  0  0
 15 96  1  0  0  0
 15 97  1  0  0  0
 16 17  2  0  0  0
 16 18  1  0  0  0
 18 19  1  0  0  0
 18 98  1  0  0  0
 19 20  1  0  0  0
 19 22  1  0  0  0
 19 99  1  0  0  0
 20 21  2  0  0  0
 20 27  1  0  0  0
 22 23  1  0  0  0
 22100  1  0  0  0
 22101  1  0  0  0
 23 24  1  0  0  0
 23102  1  0  0  0
 23103  1  0  0  0
 24 25  2  0  0  0
 24 26  1  0  0  0
 26104  1  0  0  0
 26105  1  0  0  0
 27 28  1  0  0  0
 27106  1  0  0  0
 28 29  1  0  0  0
 28 31  1  0  0  0
 28107  1  0  0  0
 29 30  2  0  0  0
 29 34  1  0  0  0
 31 32  1  0  0  0
 31 33  1  0  0  0
 31108  1  0  0  0
 32109  1  0  0  0
 33110  1  0  0  0
 33111  1  0  0  0
 33112  1  0  0  0
 34 35  1  0  0  0
 34113  1  0  0  0
 35 36  1  0  0  0
 35 38  1  0  0  0
 35114  1  0  0  0
 36 37  2  0  0  0
 36 39  1  0  0  0
 38115  1  0  0  0
 38116  1  0  0  0
 38117  1  0  0  0
 39 40  1  0  0  0
 39118  1  0  0  0
 40 41  1  0  0  0
 40 43  1  0  0  0
 40119  1  0  0  0
 41 42  2  0  0  0
 41 50  1  0  0  0
 43 44  1  0  0  0
 43120  1  0  0  0
 43121  1  0  0  0
 44 45  1  0  0  0
 44122  1  0  0  0
 44123  1  0  0  0
 45 46  1  0  0  0
 45124  1  0  0  0
 45125  1  0  0  0
 46 47  1  0  0  0
 46126  1  0  0  0
 47 48  2  0  0  0
 47 49  1  0  0  0
 48127  1  0  0  0
 49128  1  0  0  0
 49129  1  0  0  0
 50 51  1  0  0  0
 50130  1  0  0  0
 51 52  1  0  0  0
 51 58  1  0  0  0
 51131  1  0  0  0
 52 53  1  0  0  0
 52132  1  0  0  0
 52133  1  0  0  0
 53 54  1  0  0  0
 53134  1  0  0  0
 53135  1  0  0  0
 54 55  1  0  0  0
 54136  1  0  0  0
 54137  1  0  0  0
 55 56  1  0  0  0
 55138  1  0  0  0
 55139  1  0  0  0
 56 57  1  0  0  0
 56140  1  0  0  0
 56141  1  0  0  0
 57142  1  0  0  0
 57143  1  0  0  0
 57144  1  0  0  0
 58 59  2  0  0  0
 58 60  1  0  0  0
 60 61  1  0  0  0
 60145  1  0  0  0
 61 62  1  0  0  0
 61 64  1  0  0  0
 61146  1  0  0  0
 62 63  2  0  0  0
 62 66  1  0  0  0
 64 65  1  0  0  0
 64147  1  0  0  0
 64148  1  0  0  0
 65149  1  0  0  0
 66 67  1  0  0  0
 66150  1  0  0  0
 67 68  1  0  0  0
 67 70  1  0  0  0
 67151  1  0  0  0
 68 69  2  0  0  0
 68 73  1  0  0  0
 70 71  1  0  0  0
 70 72  1  0  0  0
 70152  1  0  0  0
 71153  1  0  0  0
 72154  1  0  0  0
 72155  1  0  0  0
 72156  1  0  0  0
 73157  1  0  0  0
M  CHG  3   1   1  14   1  56   1
M  END
> <s_m_source_file>
../4iuv_ligand.sdf

> <i_m_source_file_index>
1

> <s_epik_input>
W0NIM11bTkgyK11bQ0gyXVtDSDJdW0NIMl1bQ0gyXVtDQEhdKFtOSF1DKD1PKVtDQEBIXShbTkgzK10pW0NASF0oW09IXSlbQ0gzXSlDKD1PKVtOSF1bQ0BASF0oW0NIMl1bQ0gyXUMoPU8pW05IMl0pQyg9TylbTkhdW0NAQEhdKFtDQEhdKFtPSF0pW0NIM10pQyg9TylbTkhdW0NAQEhdKFtDSDNdKUMoPU8pW05IXVtDQEBIXShbQ0gyXVtDSDJdW0NIMl1bTkhdL0MoPU5cW0hdKVtOSDJdKUMoPU8pW05IXVtDQEBIXShbQ0gyXVtDSDJdW0NIMl1bQ0gyXVtOSDIrXVtDSDNdKUMoPU8pW05IXVtDQEBIXShbQ0gyXVtPSF0pQyg9TylbTkhdW0NASF0oQyg9TylbT0hdKVtDQEhdKFtPSF0pW0NIM10=

> <s_epik_cmdline>
J2VwaWtfYXBwJywgJy1pbWFlJywgJ2xpZ2FuZF9wcm8ubWFlJywgJy1vbWFlJywgJ2xpZ2FuZF9wcmVwLm1hZScsICctbXMnLCAnMScsICctcGgnLCAnNycsICctcGh0JywgJzAuNScsICctbnQn

> <s_epik_pKa_notes>
Molecule size exceeds maximum supported for generating protonation states

> <s_epik_Chemistry_Notes>
This compound has an imine and may undergo hydrolysis.

$$$$
