4iva_ligand
                    3D
 Schrodinger Suite 2020-3.
 41 44  0  0  1  0            999 V2000
  -18.8070  -11.7080  -11.9520 C   0  0  0  0  0  0
  -17.3040  -11.5290  -12.1850 C   0  0  1  0  0  0
  -16.9600  -12.0540  -13.4550 O   0  0  0  0  0  0
  -16.8930  -10.0720  -12.1260 C   0  0  0  0  0  0
  -15.7090   -9.6050  -11.6210 N   0  0  0  0  0  0
  -15.7340   -8.2230  -11.7360 C   0  0  0  0  0  0
  -16.9680   -7.9100  -12.3450 C   0  0  0  0  0  0
  -17.6140   -9.0800  -12.5570 N   0  0  0  0  0  0
  -17.3070   -6.5800  -12.6070 C   0  0  0  0  0  0
  -16.4960   -5.5890  -12.3140 N   0  0  0  0  0  0
  -15.3160   -5.8200  -11.7370 C   0  0  0  0  0  0
  -14.8850   -7.1320  -11.4300 C   0  0  0  0  0  0
  -13.5590   -6.9670  -10.8100 C   0  0  0  0  0  0
  -13.2890   -5.6470  -10.8010 C   0  0  0  0  0  0
  -14.3410   -4.9480  -11.3510 N   0  0  0  0  0  0
  -14.6430  -10.4730  -11.0710 C   0  0  1  0  0  0
  -13.3240  -10.2600  -11.8410 C   0  0  0  0  0  0
  -12.2680  -11.2480  -11.3050 C   0  0  0  0  0  0
  -12.1140  -11.0580   -9.7820 C   0  0  1  0  0  0
  -13.4360  -11.2770   -9.0290 C   0  0  0  0  0  0
  -14.4960  -10.2910   -9.5540 C   0  0  0  0  0  0
  -11.1200  -11.9960   -9.2280 C   0  0  0  0  0  0
  -10.3860  -12.7500   -8.7930 N   0  0  0  0  0  0
  -19.0612  -12.7770  -12.0031 H   0  0  0  0  0  0
  -19.3657  -11.1608  -12.7256 H   0  0  0  0  0  0
  -19.0736  -11.3147  -10.9599 H   0  0  0  0  0  0
  -16.7339  -12.1029  -11.4396 H   0  0  0  0  0  0
  -17.1794  -13.1052  -13.6934 H   0  0  0  0  0  0
  -18.2702   -6.3589  -13.0668 H   0  0  0  0  0  0
  -12.9176   -7.7623  -10.4303 H   0  0  0  0  0  0
  -12.4017   -5.1087  -10.4365 H   0  0  0  0  0  0
  -14.9715  -11.5103  -11.2328 H   0  0  0  0  0  0
  -13.4920  -10.4405  -12.9130 H   0  0  0  0  0  0
  -12.9758   -9.2271  -11.6933 H   0  0  0  0  0  0
  -12.5898  -12.2786  -11.5157 H   0  0  0  0  0  0
  -11.3035  -11.0570  -11.7981 H   0  0  0  0  0  0
  -11.7476  -10.0339   -9.6178 H   0  0  0  0  0  0
  -13.7832  -12.3083   -9.1900 H   0  0  0  0  0  0
  -13.2781  -11.1070   -7.9538 H   0  0  0  0  0  0
  -14.1816   -9.2594   -9.3373 H   0  0  0  0  0  0
  -15.4612  -10.4904   -9.0655 H   0  0  0  0  0  0
  1  2  1  0  0  0
  1 24  1  0  0  0
  1 25  1  0  0  0
  1 26  1  0  0  0
  2  3  1  0  0  0
  2  4  1  0  0  0
  2 27  1  0  0  0
  3 28  1  0  0  0
  4  5  1  0  0  0
  4  8  2  0  0  0
  5  6  1  0  0  0
  5 16  1  0  0  0
  6  7  2  0  0  0
  6 12  1  0  0  0
  7  8  1  0  0  0
  7  9  1  0  0  0
  9 10  2  0  0  0
  9 29  1  0  0  0
 10 11  1  0  0  0
 11 12  2  0  0  0
 11 15  1  0  0  0
 12 13  1  0  0  0
 13 14  1  0  0  0
 13 30  1  0  0  0
 14 15  2  0  0  0
 14 31  1  0  0  0
 16 17  1  0  0  0
 16 21  1  0  0  0
 16 32  1  0  0  0
 17 18  1  0  0  0
 17 33  1  0  0  0
 17 34  1  0  0  0
 18 19  1  0  0  0
 18 35  1  0  0  0
 18 36  1  0  0  0
 19 20  1  0  0  0
 19 22  1  0  0  0
 19 37  1  0  0  0
 20 21  1  0  0  0
 20 38  1  0  0  0
 20 39  1  0  0  0
 21 40  1  0  0  0
 21 41  1  0  0  0
 22 23  3  0  0  0
M  END
> <s_m_source_file>
../4iva_ligand.sdf

> <i_m_source_file_index>
1

> <s_epik_input>
W0NIMl0xW0NIMl1bQ0BASF0oQyNOKVtDSDJdW0NIMl1bQ0BASF0xbjJjKFtDQEBIXShbQ0gzXSlbT0hdKW5jKGMyMylbY0hdbmM0YzNbQ0gyXVtDSF09TjQ=

> <s_epik_cmdline>
J2VwaWtfYXBwJywgJy1pbWFlJywgJ2xpZ2FuZF9wcm8ubWFlJywgJy1vbWFlJywgJ2xpZ2FuZF9wcmVwLm1hZScsICctbXMnLCAnMScsICctcGgnLCAnNycsICctcGh0JywgJzAuNScsICctbnQn

> <r_epik_Ionization_Penalty>
  0.0214

> <r_epik_Ionization_Penalty_Charging>
  0.0026

> <r_epik_Ionization_Penalty_Neutral>
  0.0188

> <r_epik_State_Penalty>
  0.0150

> <r_epik_Charging_Adjusted_Penalty>
0.0175993869429088

> <i_epik_Tot_Q>
0

> <i_epik_Tot_abs_Q>
0

> <s_epik_Chemistry_Notes>
This compound has an imine and may undergo hydrolysis.

$$$$
