4ivk_ligand
                    3D
 Schrodinger Suite 2020-3.
 37 38  0  0  1  0            999 V2000
  -26.7160  -16.8840  -22.1600 S   0  0  0  0  0  0
  -24.9650  -17.0880  -22.0380 C   0  0  0  0  0  0
  -24.3130  -17.9440  -23.1120 C   0  0  0  0  0  0
  -22.8940  -18.3830  -22.8050 C   0  0  0  0  0  0
  -24.9340  -18.3290  -24.2530 C   0  0  0  0  0  0
  -24.2640  -19.1140  -25.3060 C   0  0  0  0  0  0
  -24.5630  -18.9640  -26.5200 O   0  5  0  0  0  0
  -23.3990  -19.9470  -24.9810 O   0  0  0  0  0  0
  -26.1730  -17.9510  -24.5360 N   0  0  0  0  0  0
  -26.7730  -16.7860  -23.9160 C   0  0  1  0  0  0
  -28.1670  -16.4800  -24.4770 C   0  0  1  0  0  0
  -27.9010  -16.4380  -25.9680 C   0  0  0  0  0  0
  -28.1880  -17.4070  -26.6500 O   0  0  0  0  0  0
  -29.1550  -17.4650  -24.0400 N   0  0  0  0  0  0
  -30.4420  -17.4040  -24.4020 C   0  0  0  0  0  0
  -30.8670  -16.5180  -25.1210 O   0  0  0  0  0  0
  -31.3780  -18.4920  -23.8930 C   0  0  0  0  0  0
  -32.4150  -17.9670  -22.9180 C   0  0  0  0  0  0
  -32.4730  -16.7570  -22.2530 C   0  0  0  0  0  0
  -33.5850  -16.6660  -21.4290 C   0  0  0  0  0  0
  -34.3590  -17.8080  -21.4830 C   0  0  0  0  0  0
  -33.7470  -19.0390  -22.5460 S   0  0  0  0  0  0
  -24.4764  -16.1042  -22.0957 H   0  0  0  0  0  0
  -24.7174  -17.5646  -21.0780 H   0  0  0  0  0  0
  -22.5817  -17.9635  -21.8373 H   0  0  0  0  0  0
  -22.2195  -18.0226  -23.5957 H   0  0  0  0  0  0
  -22.8517  -19.4812  -22.7594 H   0  0  0  0  0  0
  -26.7480  -18.5457  -25.2611 H   0  0  0  0  0  0
  -26.1670  -15.9991  -24.3888 H   0  0  0  0  0  0
  -28.6593  -15.5650  -24.1158 H   0  0  0  0  0  0
  -27.4550  -15.5483  -26.4365 H   0  0  0  0  0  0
  -28.8509  -18.2971  -23.3879 H   0  0  0  0  0  0
  -31.9130  -18.9422  -24.7422 H   0  0  0  0  0  0
  -30.7928  -19.2668  -23.3760 H   0  0  0  0  0  0
  -31.7311  -15.9661  -22.3632 H   0  0  0  0  0  0
  -33.8195  -15.7977  -20.8132 H   0  0  0  0  0  0
  -35.2768  -17.9274  -20.9073 H   0  0  0  0  0  0
  1  2  1  0  0  0
  1 10  1  0  0  0
  2  3  1  0  0  0
  2 23  1  0  0  0
  2 24  1  0  0  0
  3  4  1  0  0  0
  3  5  2  0  0  0
  4 25  1  0  0  0
  4 26  1  0  0  0
  4 27  1  0  0  0
  5  6  1  0  0  0
  5  9  1  0  0  0
  6  7  1  0  0  0
  6  8  2  0  0  0
  9 10  1  0  0  0
  9 28  1  0  0  0
 10 11  1  0  0  0
 10 29  1  0  0  0
 11 12  1  0  0  0
 11 14  1  0  0  0
 11 30  1  0  0  0
 12 13  2  0  0  0
 12 31  1  0  0  0
 14 15  1  0  0  0
 14 32  1  0  0  0
 15 16  2  0  0  0
 15 17  1  0  0  0
 17 18  1  0  0  0
 17 33  1  0  0  0
 17 34  1  0  0  0
 18 19  2  0  0  0
 18 22  1  0  0  0
 19 20  1  0  0  0
 19 35  1  0  0  0
 20 21  2  0  0  0
 20 36  1  0  0  0
 21 22  1  0  0  0
 21 37  1  0  0  0
M  CHG  1   7  -1
M  END
> <s_m_source_file>
../4ivk_ligand.sdf

> <i_m_source_file_index>
1

> <s_epik_input>
W0NIM11DMT1DKEMoPU8pW09IXSlbTkhdW0NASF0oU1tDSDJdMSlbQ0BASF0oW0NIXT1PKVtOSF1DKD1PKVtDSDJdYzJbY0hdW2NIXVtjSF1zMg==

> <s_epik_cmdline>
J2VwaWtfYXBwJywgJy1pbWFlJywgJ2xpZ2FuZF9wcm8ubWFlJywgJy1vbWFlJywgJ2xpZ2FuZF9wcmVwLm1hZScsICctbXMnLCAnMScsICctcGgnLCAnNycsICctcGh0JywgJzAuNScsICctbnQn

> <r_lp_tautomer_probability>
0.99990000499975

> <r_epik_Ionization_Penalty>
  0.3221

> <r_epik_Ionization_Penalty_Charging>
  0.0126

> <r_epik_Ionization_Penalty_Neutral>
  0.3095

> <r_epik_State_Penalty>
  0.3034

> <r_epik_Charging_Adjusted_Penalty>
0.31602523573993

> <i_epik_Tot_Q>
-1

> <i_epik_Tot_abs_Q>
1

> <s_epik_Chemistry_Notes>
This compound has an imine and may undergo hydrolysis. This compound contains an acetal/aminal-like group ( X-CH(R)-Y where X, Y are N, S, or O) that may be acid/base labile, releasing an aldehyde.

$$$$
