4ivs_ligand
                    3D
 Schrodinger Suite 2020-3.
 49 51  0  0  1  0            999 V2000
   17.7900  -19.0850    2.2500 C   0  0  0  0  0  0
   18.4650  -20.2450    1.5860 C   0  0  0  0  0  0
   19.6780  -20.3010    1.4990 O   0  0  0  0  0  0
   17.6350  -21.2860    1.0390 N   0  0  0  0  0  0
   18.1240  -22.4950    0.3950 C   0  0  0  0  0  0
   18.0920  -22.6580   -0.9930 C   0  0  0  0  0  0
   17.5160  -21.3610   -1.9730 Cl  0  0  0  0  0  0
   18.5430  -23.8400   -1.5910 C   0  0  0  0  0  0
   18.5920  -23.5240    1.2010 C   0  0  0  0  0  0
   18.6360  -23.3700    2.9430 Cl  0  0  0  0  0  0
   19.0380  -24.6910    0.6070 C   0  0  0  0  0  0
   19.0210  -24.8540   -0.7820 C   0  0  0  0  0  0
   19.5100  -26.1720   -1.3110 C   0  0  0  0  0  0
   20.2130  -26.1470   -2.5750 N   0  0  0  0  0  0
   21.6200  -25.9360   -2.8900 C   0  0  0  0  0  0
   21.9060  -26.0060   -4.1720 N   0  0  0  0  0  0
   22.7040  -25.6410   -1.9450 N   0  3  0  0  0  0
   22.8330  -25.4720   -0.4920 C   0  0  0  0  0  0
   21.9140  -25.5630    0.3060 O   0  0  0  0  0  0
   24.1840  -25.1890    0.1170 C   0  0  0  0  0  0
   24.6300  -26.4300    0.7120 N   0  0  0  0  0  0
   25.7960  -26.7190    1.3580 C   0  0  0  0  0  0
   26.9660  -25.9820    1.6980 C   0  0  0  0  0  0
   28.0290  -26.5890    2.3960 C   0  0  0  0  0  0
   29.2980  -25.8610    2.8070 C   0  0  0  0  0  0
   30.2670  -25.3560    3.1330 N   0  0  0  0  0  0
   27.9310  -27.9300    2.7510 C   0  0  0  0  0  0
   26.7970  -28.6710    2.4170 C   0  0  0  0  0  0
   25.7400  -28.0710    1.7280 C   0  0  0  0  0  0
   24.5220  -28.5980    1.2890 C   0  0  0  0  0  0
   23.8750  -27.5530    0.6670 C   0  0  0  0  0  0
   18.5499  -18.3783    2.6147 H   0  0  0  0  0  0
   17.1889  -19.4465    3.0973 H   0  0  0  0  0  0
   17.1354  -18.5781    1.5258 H   0  0  0  0  0  0
   16.5396  -21.2004    1.0910 H   0  0  0  0  0  0
   18.5179  -23.9590   -2.6742 H   0  0  0  0  0  0
   19.4105  -25.5005    1.2347 H   0  0  0  0  0  0
   20.2099  -26.6195   -0.5900 H   0  0  0  0  0  0
   18.6547  -26.8476   -1.4595 H   0  0  0  0  0  0
   19.6624  -26.3068   -3.5138 H   0  0  0  0  0  0
   24.8781  -24.8564   -0.6689 H   0  0  0  0  0  0
   24.0856  -24.4000    0.8771 H   0  0  0  0  0  0
   27.0405  -24.9323    1.4140 H   0  0  0  0  0  0
   28.7469  -28.4062    3.2947 H   0  0  0  0  0  0
   26.7354  -29.7232    2.6950 H   0  0  0  0  0  0
   24.1609  -29.6190    1.4126 H   0  0  0  0  0  0
   22.8912  -27.6208    0.2027 H   0  0  0  0  0  0
   21.1124  -26.2256   -4.9014 H   0  0  0  0  0  0
   23.7289  -25.4882   -2.3140 H   0  0  0  0  0  0
  1  2  1  0  0  0
  1 32  1  0  0  0
  1 33  1  0  0  0
  1 34  1  0  0  0
  2  3  2  0  0  0
  2  4  1  0  0  0
  4  5  1  0  0  0
  4 35  1  0  0  0
  5  6  2  0  0  0
  5  9  1  0  0  0
  6  7  1  0  0  0
  6  8  1  0  0  0
  8 12  2  0  0  0
  8 36  1  0  0  0
  9 10  1  0  0  0
  9 11  2  0  0  0
 11 12  1  0  0  0
 11 37  1  0  0  0
 12 13  1  0  0  0
 13 14  1  0  0  0
 13 38  1  0  0  0
 13 39  1  0  0  0
 14 15  1  0  0  0
 14 40  1  0  0  0
 15 16  2  0  0  0
 15 17  1  0  0  0
 16 48  1  0  0  0
 17 18  1  0  0  0
 17 49  1  0  0  0
 18 19  2  0  0  0
 18 20  1  0  0  0
 20 21  1  0  0  0
 20 41  1  0  0  0
 20 42  1  0  0  0
 21 22  1  0  0  0
 21 31  1  0  0  0
 22 23  2  0  0  0
 22 29  1  0  0  0
 23 24  1  0  0  0
 23 43  1  0  0  0
 24 25  1  0  0  0
 24 27  2  0  0  0
 25 26  3  0  0  0
 27 28  1  0  0  0
 27 44  1  0  0  0
 28 29  2  0  0  0
 28 45  1  0  0  0
 29 30  1  0  0  0
 30 31  2  0  0  0
 30 46  1  0  0  0
 31 47  1  0  0  0
M  CHG  1  17   1
M  END
> <s_m_source_file>
../4ivs_ligand.sdf

> <i_m_source_file_index>
1

> <s_epik_input>
W0NIM11DKD1PKVtOSF1jMWMoQ2wpW2NIXWMoW2NIXWMxQ2wpW0NIMl1bTkhdL0MoPU4vW0hdKVtOSF1DKD1PKVtDSDJdbjJbY0hdW2NIXWMoYzIzKVtjSF1bY0hdYyhbY0hdMylDI04=

> <s_epik_cmdline>
J2VwaWtfYXBwJywgJy1pbWFlJywgJ2xpZ2FuZF9wcm8ubWFlJywgJy1vbWFlJywgJ2xpZ2FuZF9wcmVwLm1hZScsICctbXMnLCAnMScsICctcGgnLCAnNycsICctcGh0JywgJzAuNScsICctbnQn

> <r_epik_Ionization_Penalty>
  0.0000

> <r_epik_Ionization_Penalty_Charging>
  0.0000

> <r_epik_Ionization_Penalty_Neutral>
  0.0000

> <r_epik_State_Penalty>
  0.4107

> <r_epik_Charging_Adjusted_Penalty>
0.410692731455599

> <i_epik_Tot_Q>
1

> <i_epik_Tot_abs_Q>
1

> <s_epik_Chemistry_Notes>
This compound has an imine and may undergo hydrolysis.

$$$$
