4ixu_ligand
                    3D
 Schrodinger Suite 2020-3.
 61 63  0  0  1  0            999 V2000
   28.0740   86.5840   77.0060 Cl  0  0  0  0  0  0
   29.3400   85.3200   77.0540 C   0  0  0  0  0  0
   29.7090   84.6680   78.2260 C   0  0  0  0  0  0
   28.9470   85.0340   79.8060 Cl  0  0  0  0  0  0
   30.6940   83.6900   78.2070 C   0  0  0  0  0  0
   31.3110   83.3630   77.0150 C   0  0  0  0  0  0
   29.9590   84.9950   75.8630 C   0  0  0  0  0  0
   30.9360   84.0180   75.8520 C   0  0  0  0  0  0
   31.6250   83.6640   74.5740 C   0  0  0  0  0  0
   33.0360   83.9790   74.8470 N   0  3  1  0  0  0
   33.9610   83.6570   73.7690 C   0  0  2  0  0  0
   35.2770   84.1780   74.3310 C   0  0  0  0  0  0
   34.8780   85.2030   75.3930 C   0  0  0  0  0  0
   33.3800   85.3670   75.2240 C   0  0  1  0  0  0
   33.2220   86.4310   74.1320 C   0  0  0  0  0  0
   33.6050   84.4440   72.5160 C   0  0  0  0  0  0
   33.0660   85.8740   72.7150 C   0  0  2  0  0  0
   33.4670   86.7700   71.5370 C   0  0  2  0  0  0
   33.8640   88.2020   71.8480 C   0  0  0  0  0  0
   34.9410   88.4580   72.4460 O   0  5  0  0  0  0
   33.0940   89.1130   71.4530 O   0  0  0  0  0  0
   32.1930   86.8180   70.8090 N   0  3  0  0  0  0
   34.5730   86.0770   70.7310 C   0  0  0  0  0  0
   35.0260   86.8270   69.4990 C   0  0  0  0  0  0
   36.1920   86.1360   68.7810 C   0  0  0  0  0  0
   36.6220   87.0270   67.6120 C   0  0  0  0  0  0
   37.1400   86.1440   66.4030 B   0  5  0  0  0  0
   37.6970   87.1970   65.4150 O   0  0  0  0  0  0
   38.3580   85.3110   66.6920 O   0  0  0  0  0  0
   36.0940   85.5300   65.5210 O   0  0  0  0  0  0
   30.9777   83.1852   79.1234 H   0  0  0  0  0  0
   32.0816   82.6010   76.9892 H   0  0  0  0  0  0
   29.6811   85.5014   74.9457 H   0  0  0  0  0  0
   31.4684   82.5972   74.3563 H   0  0  0  0  0  0
   31.2114   84.2700   73.7544 H   0  0  0  0  0  0
   33.1622   83.3118   75.7124 H   0  0  0  0  0  0
   33.9380   82.5870   73.5150 H   0  0  0  0  0  0
   35.8456   83.3433   74.7668 H   0  0  0  0  0  0
   35.8639   84.6391   73.5229 H   0  0  0  0  0  0
   35.1373   84.8177   76.3901 H   0  0  0  0  0  0
   35.4155   86.1457   75.2130 H   0  0  0  0  0  0
   32.7389   85.6811   76.0608 H   0  0  0  0  0  0
   32.3263   87.0360   74.3364 H   0  0  0  0  0  0
   34.1093   87.0811   74.1224 H   0  0  0  0  0  0
   34.4990   84.5513   71.8841 H   0  0  0  0  0  0
   32.8229   83.9094   71.9570 H   0  0  0  0  0  0
   31.9670   85.8509   72.6749 H   0  0  0  0  0  0
   31.4361   87.3226   71.4275 H   0  0  0  0  0  0
   31.8600   85.7939   70.5848 H   0  0  0  0  0  0
   32.3284   87.3735   69.8693 H   0  0  0  0  0  0
   35.4616   85.9451   71.3659 H   0  0  0  0  0  0
   34.2169   85.0937   70.3899 H   0  0  0  0  0  0
   34.1901   86.9031   68.7881 H   0  0  0  0  0  0
   35.3570   87.8362   69.7851 H   0  0  0  0  0  0
   37.0275   86.0017   69.4838 H   0  0  0  0  0  0
   35.8637   85.1540   68.4097 H   0  0  0  0  0  0
   35.7647   87.6278   67.2742 H   0  0  0  0  0  0
   37.4320   87.6955   67.9391 H   0  0  0  0  0  0
   38.5139   87.8648   65.7258 H   0  0  0  0  0  0
   39.1579   85.7102   67.3329 H   0  0  0  0  0  0
   35.1816   86.0934   65.2756 H   0  0  0  0  0  0
  1  2  1  0  0  0
  2  3  1  0  0  0
  2  7  2  0  0  0
  3  4  1  0  0  0
  3  5  2  0  0  0
  5  6  1  0  0  0
  5 31  1  0  0  0
  6  8  2  0  0  0
  6 32  1  0  0  0
  7  8  1  0  0  0
  7 33  1  0  0  0
  8  9  1  0  0  0
  9 10  1  0  0  0
  9 34  1  0  0  0
  9 35  1  0  0  0
 10 11  1  0  0  0
 10 14  1  0  0  0
 10 36  1  0  0  0
 11 12  1  0  0  0
 11 16  1  0  0  0
 11 37  1  0  0  0
 12 13  1  0  0  0
 12 38  1  0  0  0
 12 39  1  0  0  0
 13 14  1  0  0  0
 13 40  1  0  0  0
 13 41  1  0  0  0
 14 15  1  0  0  0
 14 42  1  0  0  0
 15 17  1  0  0  0
 15 43  1  0  0  0
 15 44  1  0  0  0
 16 17  1  0  0  0
 16 45  1  0  0  0
 16 46  1  0  0  0
 17 18  1  0  0  0
 17 47  1  0  0  0
 18 19  1  0  0  0
 18 22  1  0  0  0
 18 23  1  0  0  0
 19 20  1  0  0  0
 19 21  2  0  0  0
 22 48  1  0  0  0
 22 49  1  0  0  0
 22 50  1  0  0  0
 23 24  1  0  0  0
 23 51  1  0  0  0
 23 52  1  0  0  0
 24 25  1  0  0  0
 24 53  1  0  0  0
 24 54  1  0  0  0
 25 26  1  0  0  0
 25 55  1  0  0  0
 25 56  1  0  0  0
 26 27  1  0  0  0
 26 57  1  0  0  0
 26 58  1  0  0  0
 27 28  1  0  0  0
 27 29  1  0  0  0
 27 30  1  0  0  0
 28 59  1  0  0  0
 29 60  1  0  0  0
 30 61  1  0  0  0
M  CHG  4  10   1  20  -1  22   1  27  -1
M  END
> <s_m_source_file>
../4ixu_ligand.sdf

> <i_m_source_file_index>
1

> <s_epik_input>
Q2xjMWMoQ2wpW2NIXVtjSF1jKFtjSF0xKVtDSDJdW05AQEgrXShbQ0BIXTIzKVtDQEBIXShbQ0gyXVtDSDJdMilbQ0gyXVtDQEhdKFtDSDJdMylbQ0BdKEMoW08tXSk9TykoW05IMytdKVtDSDJdW0NIMl1bQ0gyXVtDSDJdW0ItXShbT0hdKShbT0hdKVtPSF0=

> <s_epik_cmdline>
J2VwaWtfYXBwJywgJy1pbWFlJywgJ2xpZ2FuZF9wcm8ubWFlJywgJy1vbWFlJywgJ2xpZ2FuZF9wcmVwLm1hZScsICctbXMnLCAnMScsICctcGgnLCAnNycsICctcGh0JywgJzAuNScsICctbnQn

> <r_epik_Ionization_Penalty>
  0.0275

> <r_epik_Ionization_Penalty_Charging>
  0.0275

> <r_epik_Ionization_Penalty_Neutral>
  0.0000

> <r_epik_State_Penalty>
  0.0199

> <r_epik_Charging_Adjusted_Penalty>
0.0474052417030317

> <i_epik_Tot_Q>
0

> <i_epik_Tot_abs_Q>
4

> <s_epik_Chemistry_Notes>
This compound contains a Lewis acid (boronic acid) which adds nucleophiles to form tetrahedral complexes, lowering the experimental pKa

$$$$
