4ixv_ligand
                    3D
 Schrodinger Suite 2020-3.
 59 60  0  0  1  0            999 V2000
   38.3980   83.0600   80.1910 Cl  0  0  0  0  0  0
   36.9570   83.5060   79.2060 C   0  0  0  0  0  0
   36.8040   84.8170   78.7510 C   0  0  0  0  0  0
   35.6910   85.1660   77.9910 C   0  0  0  0  0  0
   35.9920   82.5440   78.8930 C   0  0  0  0  0  0
   34.8840   82.8970   78.1260 C   0  0  0  0  0  0
   34.7240   84.2080   77.6770 C   0  0  0  0  0  0
   33.5130   84.5730   76.8340 C   0  0  0  0  0  0
   33.8970   85.5420   75.7850 N   0  3  2  0  0  0
   32.6480   86.1370   75.2650 C   0  0  0  0  0  0
   32.8510   87.0500   74.0540 C   0  0  0  0  0  0
   34.6800   84.8420   74.7390 C   0  0  0  0  0  0
   34.2190   85.1410   73.3110 C   0  0  0  0  0  0
   34.0410   86.6470   73.1940 C   0  0  1  0  0  0
   33.9560   87.1660   71.7510 C   0  0  2  0  0  0
   34.1880   88.6500   71.8510 C   0  0  0  0  0  0
   35.2340   89.0460   72.4050 O   0  5  0  0  0  0
   33.2980   89.4190   71.4270 O   0  0  0  0  0  0
   32.6160   86.9860   71.1730 N   0  3  0  0  0  0
   35.0170   86.4710   70.9030 C   0  0  0  0  0  0
   35.1930   87.0260   69.5060 C   0  0  0  0  0  0
   36.5080   86.5420   68.8700 C   0  0  0  0  0  0
   36.8660   87.4210   67.6640 C   0  0  0  0  0  0
   37.3880   86.5500   66.4410 B   0  5  0  0  0  0
   37.9170   87.6300   65.4620 O   0  0  0  0  0  0
   36.3560   85.8990   65.5480 O   0  0  0  0  0  0
   38.6210   85.7240   66.6930 O   0  0  0  0  0  0
   37.5525   85.5639   78.9897 H   0  0  0  0  0  0
   35.5743   86.1854   77.6414 H   0  0  0  0  0  0
   36.1057   81.5256   79.2464 H   0  0  0  0  0  0
   34.1412   82.1480   77.8764 H   0  0  0  0  0  0
   33.1109   83.6665   76.3581 H   0  0  0  0  0  0
   32.7415   85.0231   77.4760 H   0  0  0  0  0  0
   34.5357   86.3490   76.1735 H   0  0  0  0  0  0
   31.9610   85.3355   74.9558 H   0  0  0  0  0  0
   32.1747   86.7422   76.0522 H   0  0  0  0  0  0
   31.9546   87.0192   73.4173 H   0  0  0  0  0  0
   33.0220   88.0811   74.3968 H   0  0  0  0  0  0
   35.7358   85.1426   74.8086 H   0  0  0  0  0  0
   34.5979   83.7549   74.8854 H   0  0  0  0  0  0
   34.9790   84.7873   72.5987 H   0  0  0  0  0  0
   33.2669   84.6252   73.1175 H   0  0  0  0  0  0
   34.9502   87.1310   73.5802 H   0  0  0  0  0  0
   31.8731   87.4963   71.8036 H   0  0  0  0  0  0
   32.3794   85.9129   71.1230 H   0  0  0  0  0  0
   32.5931   87.4141   70.1600 H   0  0  0  0  0  0
   35.9955   86.5555   71.3983 H   0  0  0  0  0  0
   34.7555   85.4089   70.7866 H   0  0  0  0  0  0
   34.3569   86.6956   68.8722 H   0  0  0  0  0  0
   35.2096   88.1251   69.5475 H   0  0  0  0  0  0
   37.3177   86.6007   69.6123 H   0  0  0  0  0  0
   36.3920   85.5005   68.5356 H   0  0  0  0  0  0
   35.9749   87.9779   67.3388 H   0  0  0  0  0  0
   37.6575   88.1297   67.9489 H   0  0  0  0  0  0
   37.2376   88.4061   65.0799 H   0  0  0  0  0  0
   35.6156   86.4848   65.4423 H   0  0  0  0  0  0
   35.6156   86.4847   65.4423 H   0  0  0  0  0  0
   39.2126   86.2050   67.2597 H   0  0  0  0  0  0
   39.2126   86.2050   67.2597 H   0  0  0  0  0  0
  1  2  1  0  0  0
  2  3  2  0  0  0
  2  5  1  0  0  0
  3  4  1  0  0  0
  3 28  1  0  0  0
  4  7  2  0  0  0
  4 29  1  0  0  0
  5  6  2  0  0  0
  5 30  1  0  0  0
  6  7  1  0  0  0
  6 31  1  0  0  0
  7  8  1  0  0  0
  8  9  1  0  0  0
  8 32  1  0  0  0
  8 33  1  0  0  0
  9 10  1  0  0  0
  9 12  1  0  0  0
  9 34  1  0  0  0
 10 11  1  0  0  0
 10 35  1  0  0  0
 10 36  1  0  0  0
 11 14  1  0  0  0
 11 37  1  0  0  0
 11 38  1  0  0  0
 12 13  1  0  0  0
 12 39  1  0  0  0
 12 40  1  0  0  0
 13 14  1  0  0  0
 13 41  1  0  0  0
 13 42  1  0  0  0
 14 15  1  0  0  0
 14 43  1  0  0  0
 15 16  1  0  0  0
 15 19  1  0  0  0
 15 20  1  0  0  0
 16 17  1  0  0  0
 16 18  2  0  0  0
 19 44  1  0  0  0
 19 45  1  0  0  0
 19 46  1  0  0  0
 20 21  1  0  0  0
 20 47  1  0  0  0
 20 48  1  0  0  0
 21 22  1  0  0  0
 21 49  1  0  0  0
 21 50  1  0  0  0
 22 23  1  0  0  0
 22 51  1  0  0  0
 22 52  1  0  0  0
 23 24  1  0  0  0
 23 53  1  0  0  0
 23 54  1  0  0  0
 24 25  1  0  0  0
 24 26  1  0  0  0
 24 27  1  0  0  0
 25 55  1  0  0  0
 26 56  1  0  0  0
 26 57  1  0  0  0
 27 58  1  0  0  0
 27 59  1  0  0  0
M  CHG  4   9   1  17  -1  19   1  24  -1
M  END
> <s_m_source_file>
../4ixv_ligand.sdf

> <i_m_source_file_index>
1

> <s_epik_input>
Q2xjMVtjSF1bY0hdYyhbY0hdW2NIXTEpW0NIMl1bTkBASCtdMltDSDJdW0NIMl1bQ0BASF0oW0NIMl1bQ0gyXTIpW0NAXShDKFtPLV0pPU8pKFtOSDMrXSlbQ0gyXVtDSDJdW0NIMl1bQ0gyXVtCLV0oW09IXSkoW09IMl0pW09IMl0=

> <s_epik_cmdline>
J2VwaWtfYXBwJywgJy1pbWFlJywgJ2xpZ2FuZF9wcm8ubWFlJywgJy1vbWFlJywgJ2xpZ2FuZF9wcmVwLm1hZScsICctbXMnLCAnMScsICctcGgnLCAnNycsICctcGh0JywgJzAuNScsICctbnQn

> <r_lp_tautomer_probability>
1

> <r_epik_Ionization_Penalty>
  0.0108

> <r_epik_Ionization_Penalty_Charging>
  0.0108

> <r_epik_Ionization_Penalty_Neutral>
  0.0000

> <r_epik_State_Penalty>
 -0.0000

> <r_epik_Charging_Adjusted_Penalty>
0.0107551144106877

> <i_epik_Tot_Q>
0

> <i_epik_Tot_abs_Q>
4

$$$$
