4iz0_ligand
                    3D
 Schrodinger Suite 2020-3.
 25 26  0  0  1  0            999 V2000
  -26.2520   53.8740   56.1970 C   0  0  0  0  0  0
  -25.5930   55.1020   56.3040 C   0  0  0  0  0  0
  -24.2560   55.2090   55.8910 C   0  0  0  0  0  0
  -23.5810   54.0970   55.3780 C   0  0  0  0  0  0
  -24.2420   52.8690   55.2730 C   0  0  0  0  0  0
  -25.5730   52.7570   55.6840 C   0  0  0  0  0  0
  -27.9250   53.6700   56.7220 S   0  0  0  0  0  0
  -28.7770   54.4280   55.8240 O   0  0  0  0  0  0
  -27.9830   53.9470   58.1500 O   0  0  0  0  0  0
  -28.1980   52.0540   56.5260 N   0  5  0  0  0  0
  -28.4980   51.4470   55.3270 C   0  0  0  0  0  0
  -28.3520   50.1220   55.1790 N   0  0  0  0  0  0
  -28.7330   49.8450   53.8680 O   0  0  0  0  0  0
  -29.0990   51.0020   53.2540 C   0  0  0  0  0  0
  -28.9670   52.0420   54.1360 C   0  0  0  0  0  0
  -29.5320   50.8910   51.8500 C   0  0  0  0  0  0
  -26.3270   56.5480   56.8980 Cl  0  0  0  0  0  0
  -21.9380   54.3070   54.8910 Cl  0  0  0  0  0  0
  -23.4700   51.4560   54.6490 Cl  0  0  0  0  0  0
  -23.7400   56.1658   55.9707 H   0  0  0  0  0  0
  -26.0862   51.7986   55.6060 H   0  0  0  0  0  0
  -29.1777   53.0964   53.9574 H   0  0  0  0  0  0
  -29.4816   49.8389   51.5329 H   0  0  0  0  0  0
  -28.8713   51.4979   51.2135 H   0  0  0  0  0  0
  -30.5663   51.2533   51.7556 H   0  0  0  0  0  0
  1  2  2  0  0  0
  1  6  1  0  0  0
  1  7  1  0  0  0
  2  3  1  0  0  0
  2 17  1  0  0  0
  3  4  2  0  0  0
  3 20  1  0  0  0
  4  5  1  0  0  0
  4 18  1  0  0  0
  5  6  2  0  0  0
  5 19  1  0  0  0
  6 21  1  0  0  0
  7  8  2  0  0  0
  7  9  2  0  0  0
  7 10  1  0  0  0
 10 11  1  0  0  0
 11 12  2  0  0  0
 11 15  1  0  0  0
 12 13  1  0  0  0
 13 14  1  0  0  0
 14 15  2  0  0  0
 14 16  1  0  0  0
 15 22  1  0  0  0
 16 23  1  0  0  0
 16 24  1  0  0  0
 16 25  1  0  0  0
M  CHG  1  10  -1
M  END
> <s_m_source_file>
../4iz0_ligand.sdf

> <i_m_source_file_index>
1

> <s_epik_input>
W2NIXTFjKENsKWMoQ2wpW2NIXWMoQ2wpYzFTKD1PKSg9TylbTkhdYzJub2MoW2NIXTIpW0NIM10=

> <s_epik_cmdline>
J2VwaWtfYXBwJywgJy1pbWFlJywgJ2xpZ2FuZF9wcm8ubWFlJywgJy1vbWFlJywgJ2xpZ2FuZF9wcmVwLm1hZScsICctbXMnLCAnMScsICctcGgnLCAnNycsICctcGh0JywgJzAuNScsICctbnQn

> <r_epik_Ionization_Penalty>
  0.0108

> <r_epik_Ionization_Penalty_Charging>
  0.0108

> <r_epik_Ionization_Penalty_Neutral>
  0.0000

> <r_epik_State_Penalty>
  0.0083

> <r_epik_Charging_Adjusted_Penalty>
0.0190347509828055

> <i_epik_Tot_Q>
-1

> <i_epik_Tot_abs_Q>
1

$$$$
