4izm_ligand
                    3D
 Schrodinger Suite 2020-3.
 15 14  0  0  1  0            999 V2000
    7.3050   -6.8600    6.7190 N   0  3  0  0  0  0
    7.3290   -8.1590    7.4500 C   0  0  2  0  0  0
    8.1570   -8.0810    8.7310 C   0  0  0  0  0  0
    8.0290   -8.9200    9.6280 O   0  5  0  0  0  0
    7.8550   -9.2740    6.5440 C   0  0  0  0  0  0
    6.8340   -9.7180    5.5190 C   0  0  0  0  0  0
    6.8760   -9.2090    4.3810 O   0  0  0  0  0  0
    5.9630  -10.5460    5.8590 O   0  5  0  0  0  0
    8.9650   -7.1690    8.9110 O   0  0  0  0  0  0
    6.9247   -6.0715    7.3850 H   0  0  0  0  0  0
    6.6489   -6.9458    5.8403 H   0  0  0  0  0  0
    8.3238   -6.6042    6.3923 H   0  0  0  0  0  0
    6.2851   -8.3646    7.7294 H   0  0  0  0  0  0
    8.7447   -8.9183    6.0037 H   0  0  0  0  0  0
    8.1227  -10.1480    7.1559 H   0  0  0  0  0  0
  1  2  1  0  0  0
  1 10  1  0  0  0
  1 11  1  0  0  0
  1 12  1  0  0  0
  2  3  1  0  0  0
  2  5  1  0  0  0
  2 13  1  0  0  0
  3  4  1  0  0  0
  3  9  2  0  0  0
  5  6  1  0  0  0
  5 14  1  0  0  0
  5 15  1  0  0  0
  6  7  2  0  0  0
  6  8  1  0  0  0
M  CHG  3   1   1   4  -1   8  -1
M  END
> <s_m_source_file>
../4izm_ligand.sdf

> <i_m_source_file_index>
1

> <s_epik_input>
W09IXUMoPU8pW0NAQEhdKFtOSDMrXSlbQ0gyXUMoPU8pW09IXQ==

> <s_epik_cmdline>
J2VwaWtfYXBwJywgJy1pbWFlJywgJ2xpZ2FuZF9wcm8ubWFlJywgJy1vbWFlJywgJ2xpZ2FuZF9wcmVwLm1hZScsICctbXMnLCAnMScsICctcGgnLCAnNycsICctcGh0JywgJzAuNScsICctbnQn

> <r_lp_tautomer_probability>
1

> <r_epik_Ionization_Penalty>
  0.0054

> <r_epik_Ionization_Penalty_Charging>
  0.0054

> <r_epik_Ionization_Penalty_Neutral>
  0.0000

> <r_epik_State_Penalty>
 -0.0000

> <r_epik_Charging_Adjusted_Penalty>
0.00544610570333974

> <i_epik_Tot_Q>
-1

> <i_epik_Tot_abs_Q>
3

$$$$
