4izy_ligand
                    3D
 Schrodinger Suite 2020-3.
 64 68  0  0  1  0            999 V2000
  -12.8530   11.1450  -18.2320 N   0  0  0  0  0  0
  -12.1860   10.6390  -19.2580 C   0  0  0  0  0  0
  -12.5180    9.4570  -19.7740 N   0  0  0  0  0  0
  -13.5410    8.7360  -19.2950 C   0  0  0  0  0  0
  -14.2520    9.2410  -18.1980 C   0  0  0  0  0  0
  -13.8800   10.4770  -17.6930 C   0  0  0  0  0  0
  -13.8620    7.4820  -19.8350 N   0  0  0  0  0  0
  -14.7660    5.4490  -19.9270 C   0  0  0  0  0  0
  -14.6440    6.5570  -19.1840 C   0  0  0  0  0  0
  -13.9960    5.6580  -21.1600 C   0  0  0  0  0  0
  -13.4450    6.9550  -21.0490 C   0  0  0  0  0  0
  -12.6520    7.4410  -22.0920 C   0  0  0  0  0  0
  -12.4140    6.6560  -23.2050 C   0  0  0  0  0  0
  -12.9520    5.3710  -23.3100 C   0  0  0  0  0  0
  -13.7500    4.8520  -22.2960 C   0  0  0  0  0  0
  -14.3100    3.5500  -22.3910 N   0  0  0  0  0  0
  -11.1270   11.3540  -19.7940 N   0  0  0  0  0  0
  -10.2970   10.7570  -20.8520 C   0  0  2  0  0  0
   -9.2290    9.8420  -20.2290 C   0  0  0  0  0  0
   -8.3150    9.2560  -21.3140 C   0  0  0  0  0  0
   -7.6740   10.3740  -22.1460 C   0  0  2  0  0  0
   -8.7600   11.2550  -22.7690 C   0  0  0  0  0  0
   -9.6420   11.8730  -21.6770 C   0  0  0  0  0  0
   -6.9330    9.7520  -23.1920 O   0  0  0  0  0  0
  -14.3770    2.9510  -23.7460 C   0  0  0  0  0  0
  -15.4560    1.8600  -23.7380 C   0  0  0  0  0  0
  -15.1050    0.7980  -22.6750 C   0  0  0  0  0  0
  -14.9240    1.4650  -21.2930 C   0  0  0  0  0  0
  -13.8610    2.5770  -21.3760 C   0  0  0  0  0  0
  -16.3770   -0.5160  -22.6330 S   0  0  0  0  0  0
  -17.5430   -0.0820  -21.9320 O   0  0  0  0  0  0
  -16.5330   -1.0260  -23.9560 O   0  0  0  0  0  0
  -15.5400   -1.7900  -21.6320 C   0  0  0  0  0  0
  -15.0736    8.6782  -17.7548 H   0  0  0  0  0  0
  -14.4261   10.9068  -16.8533 H   0  0  0  0  0  0
  -15.3330    4.5558  -19.6645 H   0  0  0  0  0  0
  -15.0990    6.7041  -18.2045 H   0  0  0  0  0  0
  -12.2207    8.4400  -22.0280 H   0  0  0  0  0  0
  -11.7964    7.0462  -24.0139 H   0  0  0  0  0  0
  -12.7444    4.7695  -24.1950 H   0  0  0  0  0  0
  -10.9068   12.3679  -19.4285 H   0  0  0  0  0  0
  -10.9643   10.1607  -21.4916 H   0  0  0  0  0  0
   -8.6159   10.4218  -19.5234 H   0  0  0  0  0  0
   -9.7206    9.0157  -19.6946 H   0  0  0  0  0  0
   -7.5179    8.6635  -20.8412 H   0  0  0  0  0  0
   -8.9051    8.6105  -21.9812 H   0  0  0  0  0  0
   -6.9754   10.9826  -21.5530 H   0  0  0  0  0  0
   -8.2891   12.0631  -23.3480 H   0  0  0  0  0  0
   -9.3893   10.6458  -23.4345 H   0  0  0  0  0  0
  -10.4234   12.4905  -22.1440 H   0  0  0  0  0  0
   -9.0232   12.5006  -21.0188 H   0  0  0  0  0  0
   -6.1015    9.0741  -22.9490 H   0  0  0  0  0  0
  -14.6338    3.7300  -24.4790 H   0  0  0  0  0  0
  -13.4007    2.5139  -24.0024 H   0  0  0  0  0  0
  -16.4308    2.3101  -23.4990 H   0  0  0  0  0  0
  -15.5046    1.3851  -24.7290 H   0  0  0  0  0  0
  -14.0772    0.5022  -22.9323 H   0  0  0  0  0  0
  -15.8797    1.9031  -20.9693 H   0  0  0  0  0  0
  -14.6001    0.7103  -20.5612 H   0  0  0  0  0  0
  -12.8895    2.1567  -21.6754 H   0  0  0  0  0  0
  -13.7582    3.0820  -20.4042 H   0  0  0  0  0  0
  -15.4074   -1.4204  -20.6045 H   0  0  0  0  0  0
  -14.5565   -2.0137  -22.0710 H   0  0  0  0  0  0
  -16.1513   -2.7044  -21.6167 H   0  0  0  0  0  0
  1  2  2  0  0  0
  1  6  1  0  0  0
  2  3  1  0  0  0
  2 17  1  0  0  0
  3  4  2  0  0  0
  4  5  1  0  0  0
  4  7  1  0  0  0
  5  6  2  0  0  0
  5 34  1  0  0  0
  6 35  1  0  0  0
  7  9  1  0  0  0
  7 11  1  0  0  0
  8  9  2  0  0  0
  8 10  1  0  0  0
  8 36  1  0  0  0
  9 37  1  0  0  0
 10 11  2  0  0  0
 10 15  1  0  0  0
 11 12  1  0  0  0
 12 13  2  0  0  0
 12 38  1  0  0  0
 13 14  1  0  0  0
 13 39  1  0  0  0
 14 15  2  0  0  0
 14 40  1  0  0  0
 15 16  1  0  0  0
 16 25  1  0  0  0
 16 29  1  0  0  0
 17 18  1  0  0  0
 17 41  1  0  0  0
 18 19  1  0  0  0
 18 23  1  0  0  0
 18 42  1  0  0  0
 19 20  1  0  0  0
 19 43  1  0  0  0
 19 44  1  0  0  0
 20 21  1  0  0  0
 20 45  1  0  0  0
 20 46  1  0  0  0
 21 22  1  0  0  0
 21 24  1  0  0  0
 21 47  1  0  0  0
 22 23  1  0  0  0
 22 48  1  0  0  0
 22 49  1  0  0  0
 23 50  1  0  0  0
 23 51  1  0  0  0
 24 52  1  0  0  0
 25 26  1  0  0  0
 25 53  1  0  0  0
 25 54  1  0  0  0
 26 27  1  0  0  0
 26 55  1  0  0  0
 26 56  1  0  0  0
 27 28  1  0  0  0
 27 30  1  0  0  0
 27 57  1  0  0  0
 28 29  1  0  0  0
 28 58  1  0  0  0
 28 59  1  0  0  0
 29 60  1  0  0  0
 29 61  1  0  0  0
 30 31  2  0  0  0
 30 32  2  0  0  0
 30 33  1  0  0  0
 33 62  1  0  0  0
 33 63  1  0  0  0
 33 64  1  0  0  0
M  END
> <s_m_source_file>
../4izy_ligand.sdf

> <i_m_source_file_index>
1

> <s_epik_input>
W0NIMl0xW0NIMl1bQ0BIXShbT0hdKVtDSDJdW0NIMl1bQ0BIXTFbTkhdYzJuW2NIXVtjSF1jKG4yKS1uKFtjSF1bY0hdMyljKGMzNClbY0hdW2NIXVtjSF1jNE41W0NIMl1bQ0gyXVtDSF0oW0NIMl1bQ0gyXTUpUyg9TykoPU8pW0NIM10=

> <s_epik_cmdline>
J2VwaWtfYXBwJywgJy1pbWFlJywgJ2xpZ2FuZF9wcm8ubWFlJywgJy1vbWFlJywgJ2xpZ2FuZF9wcmVwLm1hZScsICctbXMnLCAnMScsICctcGgnLCAnNycsICctcGh0JywgJzAuNScsICctbnQn

> <r_lp_tautomer_probability>
1

> <r_epik_Ionization_Penalty>
  0.0006

> <r_epik_Ionization_Penalty_Charging>
  0.0000

> <r_epik_Ionization_Penalty_Neutral>
  0.0006

> <r_epik_State_Penalty>
 -0.0000

> <r_epik_Charging_Adjusted_Penalty>
0

> <i_epik_Tot_Q>
0

> <i_epik_Tot_abs_Q>
0

$$$$
