4j03_ligand
                    3D
 Schrodinger Suite 2020-3.
 89 92  0  0  1  0            999 V2000
   20.6950    8.1010   11.9250 F   0  0  0  0  0  0
   19.5470    8.2100   12.5080 C   0  0  0  0  0  0
   19.7410    8.2320   13.7950 F   0  0  0  0  0  0
   18.7700    7.1230   12.1550 F   0  0  0  0  0  0
   18.8750    9.5230   12.0650 C   0  0  0  0  0  0
   18.7340    9.4830   10.7490 F   0  0  0  0  0  0
   19.6540   10.5430   12.4230 F   0  0  0  0  0  0
   17.4960    9.6940   12.6750 C   0  0  0  0  0  0
   17.6630   10.7150   13.7930 C   0  0  0  0  0  0
   16.2720   10.8330   14.4660 C   0  0  0  0  0  0
   16.5910   11.3090   16.3280 S   0  0  2  0  0  0
   17.1260   10.0160   16.9300 O   0  0  0  0  0  0
   14.8130   11.4720   17.0650 C   0  0  0  0  0  0
   15.2740   12.2480   18.3010 C   0  0  0  0  0  0
   14.2980   12.2020   19.4840 C   0  0  0  0  0  0
   12.8470   12.1800   19.0390 C   0  0  0  0  0  0
   12.5170   10.7330   18.6470 C   0  0  0  0  0  0
   11.2430   10.2770   19.3450 C   0  0  0  0  0  0
   11.6370   10.1520   20.7930 C   0  0  0  0  0  0
   10.6950    9.1110   21.3860 C   0  0  0  0  0  0
   11.4950    8.4970   22.5320 C   0  0  0  0  0  0
   10.8960    9.0750   23.8200 C   0  0  1  0  0  0
    9.4320    8.6430   24.2910 C   0  0  1  0  0  0
    8.7900    7.2980   23.8060 C   0  0  2  0  0  0
    8.7070    6.9700   22.3000 C   0  0  0  0  0  0
    7.5620    5.9560   22.1930 C   0  0  0  0  0  0
    6.8520    5.9890   23.5530 C   0  0  2  0  0  0
    5.4270    5.9160   23.3600 O   0  0  0  0  0  0
    7.2890    7.3250   24.1770 C   0  0  2  0  0  0
    6.4930    8.4940   23.5390 C   0  0  0  0  0  0
    7.0980    7.3100   25.6690 C   0  0  0  0  0  0
    7.9200    8.4720   26.3290 C   0  0  0  0  0  0
    9.3930    8.5300   25.8470 C   0  0  2  0  0  0
   10.1740    9.5710   26.4150 C   0  0  0  0  0  0
    9.7340   10.4480   27.4110 C   0  0  0  0  0  0
   10.6010   11.4310   27.8890 C   0  0  0  0  0  0
   11.8980   11.5520   27.3890 C   0  0  0  0  0  0
   12.7370   12.5090   27.8490 O   0  0  0  0  0  0
   12.3440   10.6900   26.4050 C   0  0  0  0  0  0
   11.4840    9.7010   25.9440 C   0  0  0  0  0  0
   11.8940    8.8410   24.9490 C   0  0  0  0  0  0
   16.7969   10.0541   11.9058 H   0  0  0  0  0  0
   17.1453    8.7273   13.0655 H   0  0  0  0  0  0
   18.4223   10.3586   14.5046 H   0  0  0  0  0  0
   17.9834   11.6769   13.3663 H   0  0  0  0  0  0
   15.6838   11.6114   13.9580 H   0  0  0  0  0  0
   15.7462    9.8696   14.3926 H   0  0  0  0  0  0
   18.1392    9.6698   16.6778 H   0  0  0  0  0  0
   14.1708   12.0155   16.3564 H   0  0  0  0  0  0
   14.3964   10.4696   17.2428 H   0  0  0  0  0  0
   16.2286   11.8345   18.6586 H   0  0  0  0  0  0
   15.4086   13.3079   18.0394 H   0  0  0  0  0  0
   14.4841   11.2950   20.0778 H   0  0  0  0  0  0
   14.4453   13.0904   20.1157 H   0  0  0  0  0  0
   12.2044   12.5136   19.8671 H   0  0  0  0  0  0
   12.7168   12.8540   18.1795 H   0  0  0  0  0  0
   12.3728   10.6719   17.5582 H   0  0  0  0  0  0
   13.3462   10.0743   18.9445 H   0  0  0  0  0  0
   10.4541   11.0290   19.1961 H   0  0  0  0  0  0
   10.9173    9.3152   18.9221 H   0  0  0  0  0  0
   12.6860    9.8281   20.8609 H   0  0  0  0  0  0
   11.5213   11.1265   21.2900 H   0  0  0  0  0  0
    9.7781    9.6053   21.7395 H   0  0  0  0  0  0
   10.4378    8.3684   20.6163 H   0  0  0  0  0  0
   11.3955    7.4019   22.5031 H   0  0  0  0  0  0
   12.5550    8.7717   22.4277 H   0  0  0  0  0  0
   10.7825   10.1363   23.5538 H   0  0  0  0  0  0
    8.8269    9.4359   23.8273 H   0  0  0  0  0  0
    9.4589    6.5567   24.2675 H   0  0  0  0  0  0
    8.4953    7.8901   21.7355 H   0  0  0  0  0  0
    9.6646    6.5457   21.9638 H   0  0  0  0  0  0
    6.8837    6.2534   21.3797 H   0  0  0  0  0  0
    7.9742    4.9586   21.9804 H   0  0  0  0  0  0
    7.0472    5.1252   24.2054 H   0  0  0  0  0  0
    4.9770    5.0134   22.9209 H   0  0  0  0  0  0
    6.6444    8.4891   22.4495 H   0  0  0  0  0  0
    6.8478    9.4488   23.9542 H   0  0  0  0  0  0
    5.4225    8.3728   23.7610 H   0  0  0  0  0  0
    6.0316    7.4436   25.9035 H   0  0  0  0  0  0
    7.4446    6.3475   26.0734 H   0  0  0  0  0  0
    7.4524    9.4370   26.0839 H   0  0  0  0  0  0
    7.9331    8.3377   27.4207 H   0  0  0  0  0  0
    9.9164    7.6516   26.2525 H   0  0  0  0  0  0
    8.7232   10.3645   27.8103 H   0  0  0  0  0  0
   10.2597   12.1155   28.6656 H   0  0  0  0  0  0
   12.4011   13.2049   28.6319 H   0  0  0  0  0  0
   13.3510   10.7843   25.9985 H   0  0  0  0  0  0
   11.8478    7.7890   25.2670 H   0  0  0  0  0  0
   12.9093    9.0727   24.5948 H   0  0  0  0  0  0
  1  2  1  0  0  0
  2  3  1  0  0  0
  2  4  1  0  0  0
  2  5  1  0  0  0
  5  6  1  0  0  0
  5  7  1  0  0  0
  5  8  1  0  0  0
  8  9  1  0  0  0
  8 42  1  0  0  0
  8 43  1  0  0  0
  9 10  1  0  0  0
  9 44  1  0  0  0
  9 45  1  0  0  0
 10 11  1  0  0  0
 10 46  1  0  0  0
 10 47  1  0  0  0
 11 12  1  0  0  0
 11 13  1  0  0  0
 12 48  1  0  0  0
 13 14  1  0  0  0
 13 49  1  0  0  0
 13 50  1  0  0  0
 14 15  1  0  0  0
 14 51  1  0  0  0
 14 52  1  0  0  0
 15 16  1  0  0  0
 15 53  1  0  0  0
 15 54  1  0  0  0
 16 17  1  0  0  0
 16 55  1  0  0  0
 16 56  1  0  0  0
 17 18  1  0  0  0
 17 57  1  0  0  0
 17 58  1  0  0  0
 18 19  1  0  0  0
 18 59  1  0  0  0
 18 60  1  0  0  0
 19 20  1  0  0  0
 19 61  1  0  0  0
 19 62  1  0  0  0
 20 21  1  0  0  0
 20 63  1  0  0  0
 20 64  1  0  0  0
 21 22  1  0  0  0
 21 65  1  0  0  0
 21 66  1  0  0  0
 22 23  1  0  0  0
 22 41  1  0  0  0
 22 67  1  0  0  0
 23 24  1  0  0  0
 23 33  1  0  0  0
 23 68  1  0  0  0
 24 25  1  0  0  0
 24 29  1  0  0  0
 24 69  1  0  0  0
 25 26  1  0  0  0
 25 70  1  0  0  0
 25 71  1  0  0  0
 26 27  1  0  0  0
 26 72  1  0  0  0
 26 73  1  0  0  0
 27 28  1  0  0  0
 27 29  1  0  0  0
 27 74  1  0  0  0
 28 75  1  0  0  0
 29 30  1  0  0  0
 29 31  1  0  0  0
 30 76  1  0  0  0
 30 77  1  0  0  0
 30 78  1  0  0  0
 31 32  1  0  0  0
 31 79  1  0  0  0
 31 80  1  0  0  0
 32 33  1  0  0  0
 32 81  1  0  0  0
 32 82  1  0  0  0
 33 34  1  0  0  0
 33 83  1  0  0  0
 34 35  2  0  0  0
 34 40  1  0  0  0
 35 36  1  0  0  0
 35 84  1  0  0  0
 36 37  2  0  0  0
 36 85  1  0  0  0
 37 38  1  0  0  0
 37 39  1  0  0  0
 38 86  1  0  0  0
 39 40  2  0  0  0
 39 87  1  0  0  0
 40 41  1  0  0  0
 41 88  1  0  0  0
 41 89  1  0  0  0
M  END
> <s_m_source_file>
../4j03_ligand.sdf

> <i_m_source_file_index>
1

> <s_epik_input>
RkMoRikoRilDKEYpKEYpW0NIMl1bQ0gyXVtDSDJdW1NASF0oW09IXSlbQ0gyXVtDSDJdW0NIMl1bQ0gyXVtDSDJdW0NIMl1bQ0gyXVtDSDJdW0NIMl1bQ0BASF0xW0NIMl1jKFtjSF1jKFtPSF0pW2NIXVtjSF0yKWMyW0NAQEhdKFtDSDJdW0NIMl0zKVtDQEBIXTFbQ0BASF0oW0NAXTM0W0NIM10pW0NIMl1bQ0gyXVtDQEBIXTRbT0hd

> <s_epik_cmdline>
J2VwaWtfYXBwJywgJy1pbWFlJywgJ2xpZ2FuZF9wcm8ubWFlJywgJy1vbWFlJywgJ2xpZ2FuZF9wcmVwLm1hZScsICctbXMnLCAnMScsICctcGgnLCAnNycsICctcGh0JywgJzAuNScsICctbnQn

> <r_lp_tautomer_probability>
1

> <r_epik_Ionization_Penalty>
  0.0001

> <r_epik_Ionization_Penalty_Charging>
  0.0000

> <r_epik_Ionization_Penalty_Neutral>
  0.0001

> <r_epik_State_Penalty>
 -0.0000

> <r_epik_Charging_Adjusted_Penalty>
0

> <i_epik_Tot_Q>
0

> <i_epik_Tot_abs_Q>
0

$$$$
