4j09_ligand
                    3D
 Schrodinger Suite 2020-3.
107107  0  0  1  0            999 V2000
   -4.3990   17.8110    7.5970 N   0  3  0  0  0  0
   -3.1290   17.4270    8.2060 C   0  0  2  0  0  0
   -2.5930   18.5130    9.1060 C   0  0  0  0  0  0
   -2.2220   19.6180    8.6640 O   0  0  0  0  0  0
   -2.0800   17.0390    7.1520 C   0  0  2  0  0  0
   -2.6540   16.0820    6.2610 O   0  0  0  0  0  0
   -0.7600   16.4830    7.7710 C   0  0  0  0  0  0
   -2.5770   18.1790   10.4010 N   0  0  0  0  0  0
   -1.9930   18.9720   11.4770 C   0  0  2  0  0  0
   -0.8670   18.1250   12.0770 C   0  0  0  0  0  0
   -1.1290   17.0240   12.5770 O   0  0  0  0  0  0
   -3.0530   19.3630   12.5230 C   0  0  0  0  0  0
   -2.6360   20.5200   13.4090 C   0  0  0  0  0  0
   -1.4480   20.8040   13.6000 O   0  0  0  0  0  0
   -3.6070   21.2000   14.0000 N   0  0  0  0  0  0
    0.3900   18.5930   11.9610 N   0  0  0  0  0  0
    1.5240   17.8220   12.4600 C   0  0  2  0  0  0
    1.8750   18.1980   13.9010 C   0  0  0  0  0  0
    2.7770   17.5770   14.4960 O   0  0  0  0  0  0
    2.7430   17.9770   11.5280 C   0  0  0  0  0  0
    2.5250   17.4880   10.0860 C   0  0  0  0  0  0
    3.7290   17.8710    9.1940 C   0  0  0  0  0  0
    2.2040   15.9720   10.0490 C   0  0  0  0  0  0
    1.1180   19.1800   14.4700 N   0  0  0  0  0  0
    1.2120   19.6660   15.8490 C   0  0  2  0  0  0
    2.6310   20.1060   16.1920 C   0  0  0  0  0  0
    3.1840   19.7510   17.2360 O   0  0  0  0  0  0
    0.6820   18.6090   16.8400 C   0  0  0  0  0  0
   -0.7900   18.3720   16.6210 C   0  0  0  0  0  0
   -1.7390   19.2330   17.1700 C   0  0  0  0  0  0
   -1.2400   17.3520   15.7830 C   0  0  0  0  0  0
   -3.0940   19.0650   16.9140 C   0  0  0  0  0  0
   -2.5940   17.1660   15.5300 C   0  0  0  0  0  0
   -3.5170   18.0340   16.0900 C   0  0  0  0  0  0
   -4.8530   17.8780   15.8390 O   0  0  0  0  0  0
    3.2100   20.9050   15.3020 N   0  0  0  0  0  0
    4.5310   21.4570   15.5390 C   0  0  2  0  0  0
    4.3300   22.6840   16.4040 C   0  0  0  0  0  0
    3.3610   23.4160   16.1970 O   0  0  0  0  0  0
    5.2500   21.7470   14.2220 C   0  0  0  0  0  0
    5.5800   20.4760   13.4430 C   0  0  0  0  0  0
    6.1730   20.8110   11.7760 S   0  0  0  0  0  0
    7.6440   21.7380   12.1520 C   0  0  0  0  0  0
    5.1580   22.8430   17.4430 N   0  0  0  0  0  0
    5.0060   23.9370   18.4010 C   0  0  2  0  0  0
    6.0890   24.9970   18.2100 C   0  0  0  0  0  0
    7.1980   24.8670   18.7260 O   0  0  0  0  0  0
    5.0220   23.3820   19.8390 C   0  0  0  0  0  0
    3.9670   22.3210   20.1490 C   0  0  0  0  0  0
    4.4850   21.3050   21.1410 C   0  0  0  0  0  0
    2.6730   22.9530   20.6020 C   0  0  0  0  0  0
    5.8431   26.0184   17.5144 O   0  5  0  0  0  0
   -5.1173   18.0797    8.3855 H   0  0  0  0  0  0
   -4.7950   16.9677    7.0121 H   0  0  0  0  0  0
   -4.2416   18.6749    6.9345 H   0  0  0  0  0  0
   -3.3836   16.5524    8.8227 H   0  0  0  0  0  0
   -1.8425   17.9209    6.5390 H   0  0  0  0  0  0
   -3.5925   16.3132    5.7358 H   0  0  0  0  0  0
   -0.3315   17.2315    8.4538 H   0  0  0  0  0  0
   -0.0411   16.2658    6.9672 H   0  0  0  0  0  0
   -0.9768   15.5598    8.3283 H   0  0  0  0  0  0
   -3.0570   17.2152   10.6262 H   0  0  0  0  0  0
   -1.6047   19.9083   11.0497 H   0  0  0  0  0  0
   -3.9807   19.6596   12.0117 H   0  0  0  0  0  0
   -3.2548   18.5037   13.1795 H   0  0  0  0  0  0
   -4.6576   20.9308   13.8163 H   0  0  0  0  0  0
   -3.3628   22.0339   14.6745 H   0  0  0  0  0  0
    0.5566   19.5696   11.4829 H   0  0  0  0  0  0
    1.1747   16.7790   12.4520 H   0  0  0  0  0  0
    3.0212   19.0392   11.4618 H   0  0  0  0  0  0
    3.5887   17.4009   11.9316 H   0  0  0  0  0  0
    1.6441   18.0033    9.6755 H   0  0  0  0  0  0
    3.9060   18.9545    9.2625 H   0  0  0  0  0  0
    3.5127   17.6000    8.1501 H   0  0  0  0  0  0
    4.6245   17.3308    9.5351 H   0  0  0  0  0  0
    1.3423   15.7637   10.7002 H   0  0  0  0  0  0
    3.0768   15.4037   10.4028 H   0  0  0  0  0  0
    1.9651   15.6729    9.0178 H   0  0  0  0  0  0
    0.3792   19.6169   13.7820 H   0  0  0  0  0  0
    0.5692   20.5579   15.8854 H   0  0  0  0  0  0
    1.2225   17.6627   16.6906 H   0  0  0  0  0  0
    0.8379   18.9615   17.8703 H   0  0  0  0  0  0
   -1.4123   20.0519   17.8110 H   0  0  0  0  0  0
   -0.5141   16.6862   15.3163 H   0  0  0  0  0  0
   -3.8225   19.7421   17.3599 H   0  0  0  0  0  0
   -2.9268   16.3440   14.8962 H   0  0  0  0  0  0
   -5.5812   18.5704   16.2865 H   0  0  0  0  0  0
    2.6716   21.1462   14.3736 H   0  0  0  0  0  0
    5.1478   20.7158   16.0682 H   0  0  0  0  0  0
    4.6106   22.3771   13.5862 H   0  0  0  0  0  0
    6.1942   22.2725   14.4277 H   0  0  0  0  0  0
    6.3649   19.9153   13.9717 H   0  0  0  0  0  0
    4.6775   19.8527   13.3589 H   0  0  0  0  0  0
    8.1428   22.0297   11.2160 H   0  0  0  0  0  0
    8.3252   21.1171   12.7524 H   0  0  0  0  0  0
    7.3736   22.6403   12.7200 H   0  0  0  0  0  0
    5.9745   22.1158   17.5635 H   0  0  0  0  0  0
    4.0318   24.3957   18.1760 H   0  0  0  0  0  0
    5.9978   22.9162   20.0414 H   0  0  0  0  0  0
    4.8530   24.2033   20.5509 H   0  0  0  0  0  0
    3.7398   21.7697   19.2247 H   0  0  0  0  0  0
    5.4257   20.8744   20.7674 H   0  0  0  0  0  0
    3.7409   20.5051   21.2690 H   0  0  0  0  0  0
    4.6654   21.7962   22.1086 H   0  0  0  0  0  0
    2.3380   23.6822   19.8496 H   0  0  0  0  0  0
    2.8314   23.4642   21.5630 H   0  0  0  0  0  0
    1.9068   22.1731   20.7234 H   0  0  0  0  0  0
  1  2  1  0  0  0
  1 53  1  0  0  0
  1 54  1  0  0  0
  1 55  1  0  0  0
  2  3  1  0  0  0
  2  5  1  0  0  0
  2 56  1  0  0  0
  3  4  2  0  0  0
  3  8  1  0  0  0
  5  6  1  0  0  0
  5  7  1  0  0  0
  5 57  1  0  0  0
  6 58  1  0  0  0
  7 59  1  0  0  0
  7 60  1  0  0  0
  7 61  1  0  0  0
  8  9  1  0  0  0
  8 62  1  0  0  0
  9 10  1  0  0  0
  9 12  1  0  0  0
  9 63  1  0  0  0
 10 11  2  0  0  0
 10 16  1  0  0  0
 12 13  1  0  0  0
 12 64  1  0  0  0
 12 65  1  0  0  0
 13 14  2  0  0  0
 13 15  1  0  0  0
 15 66  1  0  0  0
 15 67  1  0  0  0
 16 17  1  0  0  0
 16 68  1  0  0  0
 17 18  1  0  0  0
 17 20  1  0  0  0
 17 69  1  0  0  0
 18 19  2  0  0  0
 18 24  1  0  0  0
 20 21  1  0  0  0
 20 70  1  0  0  0
 20 71  1  0  0  0
 21 22  1  0  0  0
 21 23  1  0  0  0
 21 72  1  0  0  0
 22 73  1  0  0  0
 22 74  1  0  0  0
 22 75  1  0  0  0
 23 76  1  0  0  0
 23 77  1  0  0  0
 23 78  1  0  0  0
 24 25  1  0  0  0
 24 79  1  0  0  0
 25 26  1  0  0  0
 25 28  1  0  0  0
 25 80  1  0  0  0
 26 27  2  0  0  0
 26 36  1  0  0  0
 28 29  1  0  0  0
 28 81  1  0  0  0
 28 82  1  0  0  0
 29 30  2  0  0  0
 29 31  1  0  0  0
 30 32  1  0  0  0
 30 83  1  0  0  0
 31 33  2  0  0  0
 31 84  1  0  0  0
 32 34  2  0  0  0
 32 85  1  0  0  0
 33 34  1  0  0  0
 33 86  1  0  0  0
 34 35  1  0  0  0
 35 87  1  0  0  0
 36 37  1  0  0  0
 36 88  1  0  0  0
 37 38  1  0  0  0
 37 40  1  0  0  0
 37 89  1  0  0  0
 38 39  2  0  0  0
 38 44  1  0  0  0
 40 41  1  0  0  0
 40 90  1  0  0  0
 40 91  1  0  0  0
 41 42  1  0  0  0
 41 92  1  0  0  0
 41 93  1  0  0  0
 42 43  1  0  0  0
 43 94  1  0  0  0
 43 95  1  0  0  0
 43 96  1  0  0  0
 44 45  1  0  0  0
 44 97  1  0  0  0
 45 46  1  0  0  0
 45 48  1  0  0  0
 45 98  1  0  0  0
 46 47  2  0  0  0
 46 52  1  0  0  0
 48 49  1  0  0  0
 48 99  1  0  0  0
 48100  1  0  0  0
 49 50  1  0  0  0
 49 51  1  0  0  0
 49101  1  0  0  0
 50102  1  0  0  0
 50103  1  0  0  0
 50104  1  0  0  0
 51105  1  0  0  0
 51106  1  0  0  0
 51107  1  0  0  0
M  CHG  2   1   1  52  -1
M  END
> <s_m_source_file>
../4j09_ligand.sdf

> <i_m_source_file_index>
1

> <s_epik_input>
W09IXVtDQEhdKFtDSDNdKVtDQEhdKFtOSDMrXSlDKD1PKVtOSF1bQ0BASF0oW0NIMl1DKD1PKVtOSDJdKUMoPU8pW05IXVtDQEBIXShbQ0gyXVtDSF0oW0NIM10pW0NIM10pQyg9TylbTkhdW0NAQEhdKFtDSDJdYzFbY0hdW2NIXWMoW09IXSlbY0hdW2NIXTEpQyg9TylbTkhdW0NAQEhdKFtDSDJdW0NIMl1TW0NIM10pQyg9TylbTkhdW0NASF0oQyg9TylbT0hdKVtDSDJdW0NIXShbQ0gzXSlbQ0gzXQ==

> <s_epik_cmdline>
J2VwaWtfYXBwJywgJy1pbWFlJywgJ2xpZ2FuZF9wcm8ubWFlJywgJy1vbWFlJywgJ2xpZ2FuZF9wcmVwLm1hZScsICctbXMnLCAnMScsICctcGgnLCAnNycsICctcGh0JywgJzAuNScsICctbnQn

> <r_lp_tautomer_probability>
0.999999999997365

> <r_epik_Ionization_Penalty>
  0.0866

> <r_epik_Ionization_Penalty_Charging>
  0.0857

> <r_epik_Ionization_Penalty_Neutral>
  0.0009

> <r_epik_State_Penalty>
  0.0761

> <r_epik_Charging_Adjusted_Penalty>
0.161768866300578

> <i_epik_Tot_Q>
0

> <i_epik_Tot_abs_Q>
2

$$$$
