4j0a_ligand
                    3D
 Schrodinger Suite 2020-3.
 43 45  0  0  1  0            999 V2000
  -27.0390   51.5330   55.3480 C   0  0  0  0  0  0
  -27.4290   51.5530   53.9920 C   0  0  0  0  0  0
  -28.0330   50.4010   53.4050 C   0  0  0  0  0  0
  -28.2410   49.2310   54.1960 C   0  0  0  0  0  0
  -27.8520   49.2040   55.5530 C   0  0  0  0  0  0
  -27.2520   50.3570   56.1200 C   0  0  0  0  0  0
  -26.7580   50.3300   57.8220 S   0  0  0  0  0  0
  -27.6760   49.4200   58.5190 O   0  0  0  0  0  0
  -26.7310   51.7400   58.2510 O   0  0  0  0  0  0
  -25.1180   49.6480   57.8580 N   0  0  0  0  0  0
  -23.9870   50.0440   56.9620 C   0  0  0  0  0  0
  -23.1540   49.0270   56.3330 C   0  0  0  0  0  0
  -22.0730   49.3970   55.4850 C   0  0  0  0  0  0
  -21.7800   50.7380   55.2390 C   0  0  0  0  0  0
  -22.5660   51.7600   55.8330 C   0  0  0  0  0  0
  -23.6720   51.4230   56.6990 C   0  0  0  0  0  0
  -23.4020   47.6080   56.5530 C   0  0  0  0  0  0
  -24.5110   47.1080   56.7170 O   0  0  0  0  0  0
  -22.2700   46.8620   56.5490 O   0  5  0  0  0  0
  -22.2990   53.1140   55.6150 O   0  0  0  0  0  0
  -21.4740   53.5660   54.5420 C   0  0  0  0  0  0
  -21.9560   53.8540   53.2270 C   0  0  0  0  0  0
  -21.0530   54.3030   52.2190 C   0  0  0  0  0  0
  -19.6660   54.4650   52.5090 C   0  0  0  0  0  0
  -19.1780   54.1850   53.8110 C   0  0  0  0  0  0
  -20.0730   53.7350   54.8280 C   0  0  0  0  0  0
  -28.4440   50.4270   51.9720 C   0  0  0  0  0  0
  -26.5784   52.4113   55.8003 H   0  0  0  0  0  0
  -27.2688   52.4491   53.3924 H   0  0  0  0  0  0
  -28.7039   48.3513   53.7487 H   0  0  0  0  0  0
  -28.0106   48.3099   56.1560 H   0  0  0  0  0  0
  -24.8646   48.8631   58.5858 H   0  0  0  0  0  0
  -21.4648   48.6207   55.0207 H   0  0  0  0  0  0
  -20.9456   51.0020   54.5892 H   0  0  0  0  0  0
  -24.2684   52.2141   57.1536 H   0  0  0  0  0  0
  -23.0138   53.7303   52.9951 H   0  0  0  0  0  0
  -21.4257   54.5242   51.2189 H   0  0  0  0  0  0
  -18.9818   54.8036   51.7310 H   0  0  0  0  0  0
  -18.1191   54.3135   54.0351 H   0  0  0  0  0  0
  -19.6937   53.5181   55.8266 H   0  0  0  0  0  0
  -28.2018   51.4087   51.5389 H   0  0  0  0  0  0
  -29.5273   50.2508   51.8980 H   0  0  0  0  0  0
  -27.9062   49.6407   51.4220 H   0  0  0  0  0  0
  1  2  2  0  0  0
  1  6  1  0  0  0
  1 28  1  0  0  0
  2  3  1  0  0  0
  2 29  1  0  0  0
  3  4  2  0  0  0
  3 27  1  0  0  0
  4  5  1  0  0  0
  4 30  1  0  0  0
  5  6  2  0  0  0
  5 31  1  0  0  0
  6  7  1  0  0  0
  7  8  2  0  0  0
  7  9  2  0  0  0
  7 10  1  0  0  0
 10 11  1  0  0  0
 10 32  1  0  0  0
 11 12  2  0  0  0
 11 16  1  0  0  0
 12 13  1  0  0  0
 12 17  1  0  0  0
 13 14  2  0  0  0
 13 33  1  0  0  0
 14 15  1  0  0  0
 14 34  1  0  0  0
 15 16  2  0  0  0
 15 20  1  0  0  0
 16 35  1  0  0  0
 17 18  2  0  0  0
 17 19  1  0  0  0
 20 21  1  0  0  0
 21 22  2  0  0  0
 21 26  1  0  0  0
 22 23  1  0  0  0
 22 36  1  0  0  0
 23 24  2  0  0  0
 23 37  1  0  0  0
 24 25  1  0  0  0
 24 38  1  0  0  0
 25 26  2  0  0  0
 25 39  1  0  0  0
 26 40  1  0  0  0
 27 41  1  0  0  0
 27 42  1  0  0  0
 27 43  1  0  0  0
M  CHG  1  19  -1
M  END
> <s_m_source_file>
../4j0a_ligand.sdf

> <i_m_source_file_index>
1

> <s_epik_input>
W0NIM11jMVtjSF1bY0hdYyhbY0hdW2NIXTEpUyg9TykoPU8pW05IXWMyYyhDKD1PKVtPSF0pW2NIXVtjSF1jKFtjSF0yKU9jM1tjSF1bY0hdW2NIXVtjSF1bY0hdMw==

> <s_epik_cmdline>
J2VwaWtfYXBwJywgJy1pbWFlJywgJ2xpZ2FuZF9wcm8ubWFlJywgJy1vbWFlJywgJ2xpZ2FuZF9wcmVwLm1hZScsICctbXMnLCAnMScsICctcGgnLCAnNycsICctcGh0JywgJzAuNScsICctbnQn

> <r_lp_tautomer_probability>
1

> <r_epik_Ionization_Penalty>
  0.0408

> <r_epik_Ionization_Penalty_Charging>
  0.0000

> <r_epik_Ionization_Penalty_Neutral>
  0.0408

> <r_epik_State_Penalty>
  0.0343

> <r_epik_Charging_Adjusted_Penalty>
0.0343835893409729

> <i_epik_Tot_Q>
-1

> <i_epik_Tot_abs_Q>
1

$$$$
