4j0p_ligand
                    3D
 Schrodinger Suite 2020-3.
 43 45  0  0  1  0            999 V2000
  -21.0880  -43.2250   -1.5400 C   0  0  0  0  0  0
  -20.1660  -42.2490   -1.9490 C   0  0  0  0  0  0
  -20.4010  -41.6840   -3.1290 N   0  0  0  0  0  0
  -21.4520  -41.9270   -3.8810 C   0  0  0  0  0  0
  -22.3970  -42.8990   -3.5370 C   0  0  0  0  0  0
  -22.2380  -43.5490   -2.3270 C   0  0  0  0  0  0
  -20.8760  -43.8770   -0.2680 C   0  0  0  0  0  0
  -18.9420  -39.7490   -7.3190 C   0  0  0  0  0  0
  -20.9720  -39.2920   -9.1390 C   0  0  0  0  0  0
  -20.2840  -40.0140   -6.9610 C   0  0  0  0  0  0
  -21.3220  -39.7760   -7.8810 C   0  0  0  0  0  0
  -17.0680  -38.9370   -8.8440 C   0  0  1  0  0  0
  -16.5760  -41.3110   -9.3870 C   0  0  0  0  0  0
  -15.6210  -40.2180   -7.4150 C   0  0  0  0  0  0
  -21.5670  -41.2520   -5.1850 C   0  0  0  0  0  0
  -22.6380  -41.2830   -5.7460 O   0  0  0  0  0  0
  -20.4590  -40.6490   -5.7090 N   0  0  0  0  0  0
  -20.7260  -44.4000    0.7370 N   0  0  0  0  0  0
  -18.5640  -39.2220   -8.5320 C   0  0  0  0  0  0
  -19.6180  -38.9720   -9.4490 C   0  0  0  0  0  0
  -19.3290  -38.4540  -10.6720 F   0  0  0  0  0  0
  -16.8440  -37.5170   -9.3240 C   0  0  0  0  0  0
  -16.2710  -39.1060   -7.6240 N   0  3  0  0  0  0
  -16.5200  -39.9010   -9.9380 C   0  0  0  0  0  0
  -15.6280  -41.2570   -8.2860 O   0  0  0  0  0  0
  -14.9290  -40.3560   -6.2510 N   0  0  0  0  0  0
  -19.3088  -41.9710   -1.3358 H   0  0  0  0  0  0
  -23.2296  -43.1358   -4.1995 H   0  0  0  0  0  0
  -22.9654  -44.2846   -1.9838 H   0  0  0  0  0  0
  -18.1621  -39.9754   -6.5919 H   0  0  0  0  0  0
  -21.7437  -39.1561   -9.8967 H   0  0  0  0  0  0
  -22.3630  -39.9638   -7.6182 H   0  0  0  0  0  0
  -17.6011  -41.5352   -9.0569 H   0  0  0  0  0  0
  -16.2793  -42.0232  -10.1711 H   0  0  0  0  0  0
  -19.6212  -40.7040   -4.9983 H   0  0  0  0  0  0
  -17.2221  -36.8111   -8.5699 H   0  0  0  0  0  0
  -17.3792  -37.3618  -10.2724 H   0  0  0  0  0  0
  -15.7681  -37.3475   -9.4781 H   0  0  0  0  0  0
  -16.2220  -38.2930   -6.8847 H   0  0  0  0  0  0
  -17.1414  -39.8207  -10.8421 H   0  0  0  0  0  0
  -15.4824  -39.6281  -10.1808 H   0  0  0  0  0  0
  -14.9047  -39.5305   -5.5244 H   0  0  0  0  0  0
  -14.3941  -41.2930   -6.0369 H   0  0  0  0  0  0
  1  2  2  0  0  0
  1  6  1  0  0  0
  1  7  1  0  0  0
  2  3  1  0  0  0
  2 27  1  0  0  0
  3  4  2  0  0  0
  4  5  1  0  0  0
  4 15  1  0  0  0
  5  6  2  0  0  0
  5 28  1  0  0  0
  6 29  1  0  0  0
  7 18  3  0  0  0
  8 10  2  0  0  0
  8 19  1  0  0  0
  8 30  1  0  0  0
  9 11  2  0  0  0
  9 20  1  0  0  0
  9 31  1  0  0  0
 10 11  1  0  0  0
 10 17  1  0  0  0
 11 32  1  0  0  0
 12 19  1  0  0  0
 12 22  1  0  0  0
 12 23  1  0  0  0
 12 24  1  0  0  0
 13 24  1  0  0  0
 13 25  1  0  0  0
 13 33  1  0  0  0
 13 34  1  0  0  0
 14 23  2  0  0  0
 14 25  1  0  0  0
 14 26  1  0  0  0
 15 16  2  0  0  0
 15 17  1  0  0  0
 17 35  1  0  0  0
 19 20  2  0  0  0
 20 21  1  0  0  0
 22 36  1  0  0  0
 22 37  1  0  0  0
 22 38  1  0  0  0
 23 39  1  0  0  0
 24 40  1  0  0  0
 24 41  1  0  0  0
 26 42  1  0  0  0
 26 43  1  0  0  0
M  CHG  1  23   1
M  END
> <s_m_source_file>
../4j0p_ligand.sdf

> <i_m_source_file_index>
1

> <s_epik_input>
TiNDYzFbY0hdbmMoW2NIXVtjSF0xKUMoPU8pW05IXWMyW2NIXWMoYyhGKVtjSF1bY0hdMilbQ0BAXTMoW0NIM10pW05IXS9DKD1OXFtIXSlPW0NIMl1bQ0gyXTM=

> <s_epik_cmdline>
J2VwaWtfYXBwJywgJy1pbWFlJywgJ2xpZ2FuZF9wcm8ubWFlJywgJy1vbWFlJywgJ2xpZ2FuZF9wcmVwLm1hZScsICctbXMnLCAnMScsICctcGgnLCAnNycsICctcGh0JywgJzAuNScsICctbnQn

> <r_epik_Ionization_Penalty>
  0.0173

> <r_epik_Ionization_Penalty_Charging>
  0.0170

> <r_epik_Ionization_Penalty_Neutral>
  0.0004

> <r_epik_State_Penalty>
  0.0145

> <r_epik_Charging_Adjusted_Penalty>
0.0314533670166971

> <i_epik_Tot_Q>
1

> <i_epik_Tot_abs_Q>
1

> <s_epik_Chemistry_Notes>
This compound has an imine and may undergo hydrolysis.

$$$$
