4j0r_ligand
                    3D
 Schrodinger Suite 2020-3.
 39 41  0  0  1  0            999 V2000
   29.3800   15.6470   -0.9940 C   0  0  0  0  0  0
   26.0090   17.9680   -3.7910 C   0  0  0  0  0  0
   28.0800   15.0940   -1.1510 C   0  0  0  0  0  0
   27.2270   14.9920   -0.0710 C   0  0  0  0  0  0
   27.8630   16.0610   -4.7090 C   0  0  0  0  0  0
   27.6940   15.4360    1.1840 C   0  0  0  0  0  0
   28.9850   15.9750    1.3560 C   0  0  0  0  0  0
   27.5930   14.6740   -2.5520 C   0  0  1  0  0  0
   27.2950   15.9130   -3.4150 C   0  0  0  0  0  0
   27.4660   17.1530   -5.5540 C   0  0  0  0  0  0
   26.5180   18.0920   -5.0640 C   0  0  0  0  0  0
   29.7960   16.0860    0.2630 C   0  0  0  0  0  0
   28.6100   13.8550   -3.1450 O   0  0  0  0  0  0
   26.3650   16.8860   -2.9600 C   0  0  0  0  0  0
   26.8850   15.3520    2.2260 O   0  0  0  0  0  0
   31.1290   16.6460    0.4310 C   0  0  0  0  0  0
   32.2630   16.0670   -0.0170 C   0  0  0  0  0  0
   32.4610   14.6970   -0.5630 C   0  0  0  0  0  0
   33.3720   16.9180    0.1810 O   0  0  0  0  0  0
   32.8010   18.0980    0.8520 N   0  0  0  0  0  0
   31.4440   17.9120    1.0110 C   0  0  0  0  0  0
   30.4610   18.8280    1.6960 C   0  0  0  0  0  0
   30.0483   15.7276   -1.8513 H   0  0  0  0  0  0
   25.3162   18.7221   -3.4176 H   0  0  0  0  0  0
   26.2237   14.5812   -0.1841 H   0  0  0  0  0  0
   28.6031   15.3429   -5.0621 H   0  0  0  0  0  0
   29.3283   16.2960    2.3395 H   0  0  0  0  0  0
   26.6910   14.0457   -2.5109 H   0  0  0  0  0  0
   27.8850   17.2597   -6.5546 H   0  0  0  0  0  0
   26.1922   18.9151   -5.7000 H   0  0  0  0  0  0
   28.9332   12.9305   -2.6441 H   0  0  0  0  0  0
   25.9258   16.7958   -1.9665 H   0  0  0  0  0  0
   25.8749   14.9334    2.1057 H   0  0  0  0  0  0
   31.4879   14.1908   -0.6449 H   0  0  0  0  0  0
   33.1163   14.1251    0.1104 H   0  0  0  0  0  0
   32.9252   14.7624   -1.5581 H   0  0  0  0  0  0
   29.4546   18.3865    1.6493 H   0  0  0  0  0  0
   30.4567   19.8050    1.1906 H   0  0  0  0  0  0
   30.7549   18.9605    2.7477 H   0  0  0  0  0  0
  1  3  2  0  0  0
  1 12  1  0  0  0
  1 23  1  0  0  0
  2 11  2  0  0  0
  2 14  1  0  0  0
  2 24  1  0  0  0
  3  4  1  0  0  0
  3  8  1  0  0  0
  4  6  2  0  0  0
  4 25  1  0  0  0
  5  9  1  0  0  0
  5 10  2  0  0  0
  5 26  1  0  0  0
  6  7  1  0  0  0
  6 15  1  0  0  0
  7 12  2  0  0  0
  7 27  1  0  0  0
  8  9  1  0  0  0
  8 13  1  0  0  0
  8 28  1  0  0  0
  9 14  2  0  0  0
 10 11  1  0  0  0
 10 29  1  0  0  0
 11 30  1  0  0  0
 12 16  1  0  0  0
 13 31  1  0  0  0
 14 32  1  0  0  0
 15 33  1  0  0  0
 16 17  2  0  0  0
 16 21  1  0  0  0
 17 18  1  0  0  0
 17 19  1  0  0  0
 18 34  1  0  0  0
 18 35  1  0  0  0
 18 36  1  0  0  0
 19 20  1  0  0  0
 20 21  2  0  0  0
 21 22  1  0  0  0
 22 37  1  0  0  0
 22 38  1  0  0  0
 22 39  1  0  0  0
M  END
> <s_m_source_file>
../4j0r_ligand.sdf

> <i_m_source_file_index>
1

> <s_epik_input>
W0NIM11jMW5vYyhbQ0gzXSljMS1jKFtjSF1jKFtjSF0yKVtPSF0pW2NIXWMyW0NASF0oW09IXSljM1tjSF1bY0hdW2NIXVtjSF1bY0hdMw==

> <s_epik_cmdline>
J2VwaWtfYXBwJywgJy1pbWFlJywgJ2xpZ2FuZF9wcm8ubWFlJywgJy1vbWFlJywgJ2xpZ2FuZF9wcmVwLm1hZScsICctbXMnLCAnMScsICctcGgnLCAnNycsICctcGh0JywgJzAuNScsICctbnQn

> <r_lp_tautomer_probability>
1

> <r_epik_Ionization_Penalty>
  0.0013

> <r_epik_Ionization_Penalty_Charging>
  0.0000

> <r_epik_Ionization_Penalty_Neutral>
  0.0013

> <r_epik_State_Penalty>
 -0.0000

> <r_epik_Charging_Adjusted_Penalty>
0

> <i_epik_Tot_Q>
0

> <i_epik_Tot_abs_Q>
0

$$$$
