4j0s_ligand
                    3D
 Schrodinger Suite 2020-3.
 39 41  0  0  1  0            999 V2000
   29.8400   15.7380   -1.0260 C   0  0  0  0  0  0
   26.3940   17.7790   -3.7460 C   0  0  0  0  0  0
   28.5520   15.1470   -1.2520 C   0  0  0  0  0  0
   27.6660   15.0400   -0.2240 C   0  0  0  0  0  0
   28.2090   15.9720   -4.7670 C   0  0  0  0  0  0
   28.0730   15.4950    1.0820 C   0  0  0  0  0  0
   29.3020   16.0550    1.3330 C   0  0  0  0  0  0
   28.1800   14.6450   -2.6530 C   0  0  2  0  0  0
   27.7110   15.7910   -3.4970 C   0  0  0  0  0  0
   27.7690   17.0610   -5.5150 C   0  0  0  0  0  0
   26.8800   17.9510   -5.0010 C   0  0  0  0  0  0
   30.1970   16.1970    0.2570 C   0  0  0  0  0  0
   27.2220   13.6040   -2.5460 O   0  0  0  0  0  0
   26.8090   16.6900   -3.0080 C   0  0  0  0  0  0
   27.1990   15.3930    2.0690 O   0  0  0  0  0  0
   31.5050   16.7390    0.4610 C   0  0  0  0  0  0
   32.7160   16.1710   -0.0050 C   0  0  0  0  0  0
   33.1030   14.8300   -0.5660 C   0  0  0  0  0  0
   33.7020   17.0330    0.2010 O   0  0  0  0  0  0
   33.1610   18.1550    0.8670 N   0  0  0  0  0  0
   31.8550   18.0050    1.0580 C   0  0  0  0  0  0
   30.9660   18.9570    1.8030 C   0  0  0  0  0  0
   30.5457   15.8322   -1.8514 H   0  0  0  0  0  0
   25.6847   18.4923   -3.3263 H   0  0  0  0  0  0
   26.6729   14.6204   -0.3845 H   0  0  0  0  0  0
   28.9365   15.2738   -5.1810 H   0  0  0  0  0  0
   29.5758   16.3799    2.3368 H   0  0  0  0  0  0
   29.0170   14.1634   -3.1798 H   0  0  0  0  0  0
   28.1436   17.2018   -6.5289 H   0  0  0  0  0  0
   26.5570   18.8041   -5.5977 H   0  0  0  0  0  0
   27.4491   12.7065   -1.9519 H   0  0  0  0  0  0
   26.4050   16.5437   -2.0063 H   0  0  0  0  0  0
   26.2105   14.9470    1.8845 H   0  0  0  0  0  0
   32.2024   14.2107   -0.6899 H   0  0  0  0  0  0
   33.7991   14.3309    0.1241 H   0  0  0  0  0  0
   33.5904   14.9679   -1.5424 H   0  0  0  0  0  0
   29.9347   18.5744    1.7997 H   0  0  0  0  0  0
   30.9931   19.9423    1.3147 H   0  0  0  0  0  0
   31.3185   19.0521    2.8406 H   0  0  0  0  0  0
  1  3  2  0  0  0
  1 12  1  0  0  0
  1 23  1  0  0  0
  2 11  2  0  0  0
  2 14  1  0  0  0
  2 24  1  0  0  0
  3  4  1  0  0  0
  3  8  1  0  0  0
  4  6  2  0  0  0
  4 25  1  0  0  0
  5  9  1  0  0  0
  5 10  2  0  0  0
  5 26  1  0  0  0
  6  7  1  0  0  0
  6 15  1  0  0  0
  7 12  2  0  0  0
  7 27  1  0  0  0
  8  9  1  0  0  0
  8 13  1  0  0  0
  8 28  1  0  0  0
  9 14  2  0  0  0
 10 11  1  0  0  0
 10 29  1  0  0  0
 11 30  1  0  0  0
 12 16  1  0  0  0
 13 31  1  0  0  0
 14 32  1  0  0  0
 15 33  1  0  0  0
 16 17  2  0  0  0
 16 21  1  0  0  0
 17 18  1  0  0  0
 17 19  1  0  0  0
 18 34  1  0  0  0
 18 35  1  0  0  0
 18 36  1  0  0  0
 19 20  1  0  0  0
 20 21  2  0  0  0
 21 22  1  0  0  0
 22 37  1  0  0  0
 22 38  1  0  0  0
 22 39  1  0  0  0
M  END
> <s_m_source_file>
../4j0s_ligand.sdf

> <i_m_source_file_index>
1

> <s_epik_input>
W0NIM11jMW5vYyhbQ0gzXSljMS1jKFtjSF1jKFtjSF0yKVtPSF0pW2NIXWMyW0NAQEhdKFtPSF0pYzNbY0hdW2NIXVtjSF1bY0hdW2NIXTM=

> <s_epik_cmdline>
J2VwaWtfYXBwJywgJy1pbWFlJywgJ2xpZ2FuZF9wcm8ubWFlJywgJy1vbWFlJywgJ2xpZ2FuZF9wcmVwLm1hZScsICctbXMnLCAnMScsICctcGgnLCAnNycsICctcGh0JywgJzAuNScsICctbnQn

> <r_lp_tautomer_probability>
1

> <r_epik_Ionization_Penalty>
  0.0013

> <r_epik_Ionization_Penalty_Charging>
  0.0000

> <r_epik_Ionization_Penalty_Neutral>
  0.0013

> <r_epik_State_Penalty>
 -0.0000

> <r_epik_Charging_Adjusted_Penalty>
0

> <i_epik_Tot_Q>
0

> <i_epik_Tot_abs_Q>
0

$$$$
