4j0t_ligand
                    3D
 Schrodinger Suite 2020-3.
 48 50  0  0  1  0            999 V2000
  -16.6150  -41.4590   -9.0870 C   0  0  0  0  0  0
  -16.6250  -40.0680   -9.7280 C   0  0  0  0  0  0
  -15.6300  -41.3270   -8.0360 O   0  0  0  0  0  0
  -15.5480  -40.1750   -7.3170 C   0  0  0  0  0  0
  -16.0940  -39.0240   -7.6640 N   0  0  0  0  0  0
  -17.0010  -38.9040   -8.7830 C   0  0  2  0  0  0
  -18.4600  -39.0900   -8.3880 C   0  0  0  0  0  0
  -18.8150  -39.7750   -7.2150 C   0  0  0  0  0  0
  -20.1670  -39.9590   -6.8630 C   0  0  0  0  0  0
  -21.2020  -39.4650   -7.6680 C   0  0  0  0  0  0
  -20.8670  -38.8290   -8.8860 C   0  0  0  0  0  0
  -19.5210  -38.6420   -9.2330 C   0  0  0  0  0  0
  -19.2110  -37.9520  -10.3810 F   0  0  0  0  0  0
  -14.7270  -40.1970   -6.2310 N   0  0  0  0  0  0
  -16.6930  -37.5560   -9.4550 C   0  0  0  0  0  0
  -20.4050  -40.6740   -5.6830 N   0  0  0  0  0  0
  -21.6290  -41.1210   -5.2750 C   0  0  0  0  0  0
  -21.5900  -41.8680   -4.0250 C   0  0  0  0  0  0
  -22.6050  -40.9680   -5.9950 O   0  0  0  0  0  0
  -20.4700  -41.6810   -3.3480 N   0  0  0  0  0  0
  -20.1940  -42.2630   -2.2200 C   0  0  0  0  0  0
  -21.0730  -43.1700   -1.6690 C   0  0  0  0  0  0
  -22.2870  -43.4150   -2.3510 C   0  0  0  0  0  0
  -22.5400  -42.7780   -3.5680 C   0  0  0  0  0  0
  -20.6990  -43.7770   -0.4650 O   0  0  0  0  0  0
  -15.3750  -39.8450  -10.2740 F   0  0  0  0  0  0
  -17.4620  -40.0710  -10.7890 F   0  0  0  0  0  0
  -21.7640  -44.6020    0.0770 C   0  0  0  0  0  0
  -21.3370  -45.2050    1.4040 C   0  0  0  0  0  0
  -17.6179  -41.6913   -8.6993 H   0  0  0  0  0  0
  -16.3307  -42.2081   -9.8407 H   0  0  0  0  0  0
  -18.0330  -40.1705   -6.5668 H   0  0  0  0  0  0
  -22.2430  -39.5687   -7.3621 H   0  0  0  0  0  0
  -21.6552  -38.4840   -9.5553 H   0  0  0  0  0  0
  -14.2566  -41.1402   -5.9161 H   0  0  0  0  0  0
  -15.6230  -37.5071   -9.7053 H   0  0  0  0  0  0
  -16.9463  -36.7366   -8.7662 H   0  0  0  0  0  0
  -17.2894  -37.4598  -10.3743 H   0  0  0  0  0  0
  -19.5707  -40.9136   -5.0073 H   0  0  0  0  0  0
  -19.2609  -42.0324   -1.7059 H   0  0  0  0  0  0
  -23.0231  -44.0988   -1.9284 H   0  0  0  0  0  0
  -23.4458  -42.9851   -4.1379 H   0  0  0  0  0  0
  -22.6615  -43.9857    0.2339 H   0  0  0  0  0  0
  -21.9951  -45.4131   -0.6292 H   0  0  0  0  0  0
  -22.1518  -45.8269    1.8033 H   0  0  0  0  0  0
  -21.1082  -44.3987    2.1164 H   0  0  0  0  0  0
  -20.4417  -45.8261    1.2533 H   0  0  0  0  0  0
  -14.5341  -39.2716   -5.6685 H   0  0  0  0  0  0
  1  2  1  0  0  0
  1  3  1  0  0  0
  1 30  1  0  0  0
  1 31  1  0  0  0
  2  6  1  0  0  0
  2 26  1  0  0  0
  2 27  1  0  0  0
  3  4  1  0  0  0
  4  5  2  0  0  0
  4 14  1  0  0  0
  5  6  1  0  0  0
  6  7  1  0  0  0
  6 15  1  0  0  0
  7  8  2  0  0  0
  7 12  1  0  0  0
  8  9  1  0  0  0
  8 32  1  0  0  0
  9 10  2  0  0  0
  9 16  1  0  0  0
 10 11  1  0  0  0
 10 33  1  0  0  0
 11 12  2  0  0  0
 11 34  1  0  0  0
 12 13  1  0  0  0
 14 35  1  0  0  0
 14 48  1  0  0  0
 15 36  1  0  0  0
 15 37  1  0  0  0
 15 38  1  0  0  0
 16 17  1  0  0  0
 16 39  1  0  0  0
 17 18  1  0  0  0
 17 19  2  0  0  0
 18 20  2  0  0  0
 18 24  1  0  0  0
 20 21  1  0  0  0
 21 22  2  0  0  0
 21 40  1  0  0  0
 22 23  1  0  0  0
 22 25  1  0  0  0
 23 24  2  0  0  0
 23 41  1  0  0  0
 24 42  1  0  0  0
 25 28  1  0  0  0
 28 29  1  0  0  0
 28 43  1  0  0  0
 28 44  1  0  0  0
 29 45  1  0  0  0
 29 46  1  0  0  0
 29 47  1  0  0  0
M  END
> <s_m_source_file>
../4j0t_ligand.sdf

> <i_m_source_file_index>
1

> <s_epik_input>
RkMxKEYpW0NIMl1PL0MoPU4vW0hdKVtOSF1bQ0BdMShbQ0gzXSljMltjSF1jKFtjSF1bY0hdYzJGKVtOSF1DKD1PKWMzbltjSF1jKFtjSF1bY0hdMylPW0NIMl1bQ0gzXQ==

> <s_epik_cmdline>
J2VwaWtfYXBwJywgJy1pbWFlJywgJ2xpZ2FuZF9wcm8ubWFlJywgJy1vbWFlJywgJ2xpZ2FuZF9wcmVwLm1hZScsICctbXMnLCAnMScsICctcGgnLCAnNycsICctcGh0JywgJzAuNScsICctbnQn

> <r_lp_tautomer_probability>
1

> <r_epik_Ionization_Penalty>
  0.1028

> <r_epik_Ionization_Penalty_Charging>
  0.0000

> <r_epik_Ionization_Penalty_Neutral>
  0.1028

> <r_epik_State_Penalty>
 -0.0000

> <r_epik_Charging_Adjusted_Penalty>
0

> <i_epik_Tot_Q>
0

> <i_epik_Tot_abs_Q>
0

> <s_epik_Chemistry_Notes>
This compound has an imine and may undergo hydrolysis.

$$$$
