4j0v_ligand
                    3D
 Schrodinger Suite 2020-3.
 43 45  0  0  1  0            999 V2000
  -22.1640  -43.3940   -2.2920 C   0  0  0  0  0  0
  -21.4190  -41.7720   -3.8720 C   0  0  0  0  0  0
  -20.0680  -42.0580   -1.9920 C   0  0  0  0  0  0
  -21.5220  -41.0930   -5.1770 C   0  0  0  0  0  0
  -20.7430  -43.6820   -0.2960 C   0  0  0  0  0  0
  -20.9580  -43.0410   -1.5460 C   0  0  0  0  0  0
  -22.3600  -42.7290   -3.4970 C   0  0  0  0  0  0
  -20.3580  -41.4630   -3.1370 N   0  0  0  0  0  0
  -20.3880  -40.4790   -5.6560 N   0  0  0  0  0  0
  -22.5690  -41.1630   -5.7800 O   0  0  0  0  0  0
  -20.5590  -44.1810    0.6800 N   0  0  0  0  0  0
  -20.1530  -39.8460   -6.9060 C   0  0  0  0  0  0
  -21.1730  -39.6050   -7.8160 C   0  0  0  0  0  0
  -20.8460  -39.1000   -9.0780 C   0  0  0  0  0  0
  -19.5040  -38.8020   -9.3670 C   0  0  0  0  0  0
  -18.4710  -39.0560   -8.4290 C   0  0  0  0  0  0
  -18.8220  -39.5760   -7.2040 C   0  0  0  0  0  0
  -16.9960  -38.7690   -8.7620 C   0  0  1  0  0  0
  -16.7710  -37.2920   -9.1470 C   0  0  0  0  0  0
  -16.4400  -41.2100   -9.2980 C   0  0  0  0  0  0
  -15.6350  -41.1310   -8.0860 O   0  0  0  0  0  0
  -15.4860  -40.0440   -7.3430 C   0  0  0  0  0  0
  -16.0800  -38.9190   -7.6070 N   0  3  0  0  0  0
  -14.6560  -40.1300   -6.2230 N   0  0  0  0  0  0
  -16.5480  -39.7710   -9.8360 C   0  0  2  0  0  0
  -15.2600  -39.4120  -10.2490 F   0  0  0  0  0  0
  -19.1870  -38.3220  -10.6080 F   0  0  0  0  0  0
  -22.8708  -44.1376   -1.9240 H   0  0  0  0  0  0
  -19.1769  -41.7947   -1.4222 H   0  0  0  0  0  0
  -23.2214  -42.9489   -4.1277 H   0  0  0  0  0  0
  -19.4832  -40.4312   -5.0323 H   0  0  0  0  0  0
  -22.2111  -39.8060   -7.5513 H   0  0  0  0  0  0
  -21.6214  -38.9398   -9.8271 H   0  0  0  0  0  0
  -18.0502  -39.7778   -6.4613 H   0  0  0  0  0  0
  -17.1164  -36.6431   -8.3287 H   0  0  0  0  0  0
  -17.3368  -37.0612  -10.0617 H   0  0  0  0  0  0
  -15.6994  -37.1187   -9.3251 H   0  0  0  0  0  0
  -15.9433  -41.8685  -10.0258 H   0  0  0  0  0  0
  -17.4323  -41.6166   -9.0532 H   0  0  0  0  0  0
  -15.9089  -38.0427   -6.9645 H   0  0  0  0  0  0
  -14.1467  -41.0760   -5.9872 H   0  0  0  0  0  0
  -17.2294  -39.7149  -10.6978 H   0  0  0  0  0  0
  -14.5116  -39.2517   -5.5767 H   0  0  0  0  0  0
  1  6  2  0  0  0
  1  7  1  0  0  0
  1 28  1  0  0  0
  2  4  1  0  0  0
  2  7  2  0  0  0
  2  8  1  0  0  0
  3  6  1  0  0  0
  3  8  2  0  0  0
  3 29  1  0  0  0
  4  9  1  0  0  0
  4 10  2  0  0  0
  5  6  1  0  0  0
  5 11  3  0  0  0
  7 30  1  0  0  0
  9 12  1  0  0  0
  9 31  1  0  0  0
 12 13  2  0  0  0
 12 17  1  0  0  0
 13 14  1  0  0  0
 13 32  1  0  0  0
 14 15  2  0  0  0
 14 33  1  0  0  0
 15 16  1  0  0  0
 15 27  1  0  0  0
 16 17  2  0  0  0
 16 18  1  0  0  0
 17 34  1  0  0  0
 18 19  1  0  0  0
 18 23  1  0  0  0
 18 25  1  0  0  0
 19 35  1  0  0  0
 19 36  1  0  0  0
 19 37  1  0  0  0
 20 21  1  0  0  0
 20 25  1  0  0  0
 20 38  1  0  0  0
 20 39  1  0  0  0
 21 22  1  0  0  0
 22 23  2  0  0  0
 22 24  1  0  0  0
 23 40  1  0  0  0
 24 41  1  0  0  0
 24 43  1  0  0  0
 25 26  1  0  0  0
 25 42  1  0  0  0
M  CHG  1  23   1
M  END
> <s_m_source_file>
../4j0v_ligand.sdf

> <i_m_source_file_index>
1

> <s_epik_input>
bjFbY0hdYyhDI04pW2NIXVtjSF1jMUMoPU8pW05IXWMyW2NIXVtjSF1jKEYpYyhbY0hdMilbQ0BAXTMoW0NIM10pW05IXUMoPU5cW0hdKVxPW0NIMl1bQ0BASF0zRg==

> <s_epik_cmdline>
J2VwaWtfYXBwJywgJy1pbWFlJywgJ2xpZ2FuZF9wcm8ubWFlJywgJy1vbWFlJywgJ2xpZ2FuZF9wcmVwLm1hZScsICctbXMnLCAnMScsICctcGgnLCAnNycsICctcGh0JywgJzAuNScsICctbnQn

> <r_lp_tautomer_probability>
1

> <r_epik_Ionization_Penalty>
  0.1609

> <r_epik_Ionization_Penalty_Charging>
  0.1605

> <r_epik_Ionization_Penalty_Neutral>
  0.0004

> <r_epik_State_Penalty>
 -0.0000

> <r_epik_Charging_Adjusted_Penalty>
0.160489074682333

> <i_epik_Tot_Q>
1

> <i_epik_Tot_abs_Q>
1

> <s_epik_Chemistry_Notes>
This compound has an imine and may undergo hydrolysis.

$$$$
