4j0y_ligand
                    3D
 Schrodinger Suite 2020-3.
 43 45  0  0  1  0            999 V2000
  -15.2930  -40.0100   -7.4680 C   0  0  0  0  0  0
  -20.7720  -38.6910   -8.9910 C   0  0  0  0  0  0
  -21.0750  -39.3030   -7.7390 C   0  0  0  0  0  0
  -20.0010  -39.7220   -6.9200 C   0  0  0  0  0  0
  -19.4230  -38.5140   -9.3960 C   0  0  0  0  0  0
  -18.3610  -38.9040   -8.5170 C   0  0  0  0  0  0
  -18.6790  -39.5470   -7.3340 C   0  0  0  0  0  0
  -16.5300  -40.0030   -9.9560 C   0  0  1  0  0  0
  -16.5670  -37.4530   -9.5570 C   0  0  0  0  0  0
  -16.8680  -38.8020   -8.9330 C   0  0  1  0  0  0
  -16.2460  -41.2860   -9.1860 C   0  0  0  0  0  0
  -19.1320  -37.9260  -10.6130 F   0  0  0  0  0  0
  -15.1530  -41.0350   -8.2950 O   0  0  0  0  0  0
  -16.0220  -38.9390   -7.7430 N   0  3  0  0  0  0
  -17.5780  -40.2420  -10.6760 F   0  0  0  0  0  0
  -14.6090  -40.0630   -6.2470 N   0  0  0  0  0  0
  -20.2000  -40.3750   -5.6920 N   0  0  0  0  0  0
  -21.3230  -40.9950   -5.2690 C   0  0  0  0  0  0
  -21.2450  -41.6750   -3.9850 C   0  0  0  0  0  0
  -22.3860  -40.9230   -5.8630 O   0  0  0  0  0  0
  -20.1920  -41.4170   -3.2070 N   0  0  0  0  0  0
  -19.9940  -42.0690   -2.0730 C   0  0  0  0  0  0
  -20.9190  -43.0230   -1.6350 C   0  0  0  0  0  0
  -22.0730  -43.3060   -2.4410 C   0  0  0  0  0  0
  -22.1950  -42.6260   -3.6430 C   0  0  0  0  0  0
  -20.7440  -43.6880   -0.3840 C   0  0  0  0  0  0
  -20.6040  -44.2200    0.5950 N   0  0  0  0  0  0
  -21.5810  -38.3572   -9.6408 H   0  0  0  0  0  0
  -22.1081  -39.4442   -7.4214 H   0  0  0  0  0  0
  -17.8735  -39.9284   -6.7064 H   0  0  0  0  0  0
  -15.7585  -39.7783  -10.7072 H   0  0  0  0  0  0
  -17.1873  -37.3180  -10.4554 H   0  0  0  0  0  0
  -15.5038  -37.4067   -9.8351 H   0  0  0  0  0  0
  -16.7917  -36.6558   -8.8331 H   0  0  0  0  0  0
  -17.1409  -41.5776   -8.6166 H   0  0  0  0  0  0
  -15.9837  -42.0873   -9.8925 H   0  0  0  0  0  0
  -16.0164  -38.0790   -7.0572 H   0  0  0  0  0  0
  -13.9974  -40.9424   -5.9969 H   0  0  0  0  0  0
  -19.3858  -40.4178   -4.9536 H   0  0  0  0  0  0
  -19.1054  -41.8618   -1.4767 H   0  0  0  0  0  0
  -22.8242  -44.0277   -2.1202 H   0  0  0  0  0  0
  -23.0290  -42.8366   -4.3125 H   0  0  0  0  0  0
  -14.6834  -39.2252   -5.5381 H   0  0  0  0  0  0
  1 13  1  0  0  0
  1 14  2  0  0  0
  1 16  1  0  0  0
  2  3  2  0  0  0
  2  5  1  0  0  0
  2 28  1  0  0  0
  3  4  1  0  0  0
  3 29  1  0  0  0
  4  7  2  0  0  0
  4 17  1  0  0  0
  5  6  2  0  0  0
  5 12  1  0  0  0
  6  7  1  0  0  0
  6 10  1  0  0  0
  7 30  1  0  0  0
  8 10  1  0  0  0
  8 11  1  0  0  0
  8 15  1  0  0  0
  8 31  1  0  0  0
  9 10  1  0  0  0
  9 32  1  0  0  0
  9 33  1  0  0  0
  9 34  1  0  0  0
 10 14  1  0  0  0
 11 13  1  0  0  0
 11 35  1  0  0  0
 11 36  1  0  0  0
 14 37  1  0  0  0
 16 38  1  0  0  0
 16 43  1  0  0  0
 17 18  1  0  0  0
 17 39  1  0  0  0
 18 19  1  0  0  0
 18 20  2  0  0  0
 19 21  2  0  0  0
 19 25  1  0  0  0
 21 22  1  0  0  0
 22 23  2  0  0  0
 22 40  1  0  0  0
 23 24  1  0  0  0
 23 26  1  0  0  0
 24 25  2  0  0  0
 24 41  1  0  0  0
 25 42  1  0  0  0
 26 27  3  0  0  0
M  CHG  1  14   1
M  END
> <s_m_source_file>
../4j0y_ligand.sdf

> <i_m_source_file_index>
1

> <s_epik_input>
W0hdL049QyhbTkhdMSlcT1tDSDJdW0NAQEhdKEYpW0NAQF0xKFtDSDNdKWMoW2NIXTIpYyhGKVtjSF1bY0hdYzJbTkhdQyg9TyljM25bY0hdYyhDI04pW2NIXVtjSF0z

> <s_epik_cmdline>
J2VwaWtfYXBwJywgJy1pbWFlJywgJ2xpZ2FuZF9wcm8ubWFlJywgJy1vbWFlJywgJ2xpZ2FuZF9wcmVwLm1hZScsICctbXMnLCAnMScsICctcGgnLCAnNycsICctcGh0JywgJzAuNScsICctbnQn

> <r_lp_tautomer_probability>
1

> <r_epik_Ionization_Penalty>
  0.1609

> <r_epik_Ionization_Penalty_Charging>
  0.1605

> <r_epik_Ionization_Penalty_Neutral>
  0.0004

> <r_epik_State_Penalty>
 -0.0000

> <r_epik_Charging_Adjusted_Penalty>
0.160489074682333

> <i_epik_Tot_Q>
1

> <i_epik_Tot_abs_Q>
1

> <s_epik_Chemistry_Notes>
This compound has an imine and may undergo hydrolysis.

$$$$
