4j0z_ligand
                    3D
 Schrodinger Suite 2020-3.
 42 44  0  0  1  0            999 V2000
   20.8010   40.2680   -7.9590 C   0  0  0  0  0  0
   20.4760   39.7600   -9.1790 C   0  0  0  0  0  0
   19.1580   39.4950   -9.4890 C   0  0  0  0  0  0
   18.1470   39.7770   -8.5990 C   0  0  0  0  0  0
   18.4540   40.2680   -7.3680 C   0  0  0  0  0  0
   16.7350   39.5410   -8.9930 C   0  0  2  0  0  0
   16.7650   38.1150   -9.4930 C   0  0  0  0  0  0
   16.2970   40.6260  -10.0440 C   0  0  2  0  0  0
   16.0810   42.0100   -9.4250 C   0  0  0  0  0  0
   15.1000   40.6910   -7.6750 C   0  0  0  0  0  0
   15.7640   39.5970   -7.9240 N   0  0  0  0  0  0
   19.7610   40.4930   -7.0490 C   0  0  0  0  0  0
   18.8410   39.0550  -10.7330 F   0  0  0  0  0  0
   15.2030   41.8740   -8.2930 O   0  0  0  0  0  0
   15.0370   40.3190  -10.5190 F   0  0  0  0  0  0
   14.1920   40.6860   -6.6620 N   0  0  0  0  0  0
   19.9500   41.0650   -5.8200 N   0  0  0  0  0  0
   21.0640   41.6530   -5.3590 C   0  0  0  0  0  0
   20.9400   42.2850   -4.0400 C   0  0  0  0  0  0
   22.0800   41.6850   -6.0030 O   0  0  0  0  0  0
   19.8070   42.0360   -3.3620 N   0  0  0  0  0  0
   19.5530   42.5760   -2.1760 C   0  0  0  0  0  0
   20.4860   43.5020   -1.6590 C   0  0  0  0  0  0
   21.6970   43.8250   -2.3880 C   0  0  0  0  0  0
   21.9210   43.2040   -3.6040 C   0  0  0  0  0  0
   20.2460   44.1130   -0.3750 C   0  0  0  0  0  0
   20.0850   44.6090    0.6470 N   0  0  0  0  0  0
   15.4420   37.7840   -9.7610 F   0  0  0  0  0  0
   21.8356   40.4921   -7.6992 H   0  0  0  0  0  0
   21.2580   39.5622   -9.9121 H   0  0  0  0  0  0
   17.6655   40.4790   -6.6456 H   0  0  0  0  0  0
   17.3839   38.0576  -10.4005 H   0  0  0  0  0  0
   17.1916   37.4630   -8.7165 H   0  0  0  0  0  0
   17.0183   40.6316  -10.8744 H   0  0  0  0  0  0
   17.0483   42.4220   -9.1016 H   0  0  0  0  0  0
   15.6287   42.6792  -10.1718 H   0  0  0  0  0  0
   14.0211   39.7677   -6.0811 H   0  0  0  0  0  0
   19.1312   41.0733   -5.0854 H   0  0  0  0  0  0
   18.6535   42.3132   -1.6192 H   0  0  0  0  0  0
   22.4147   44.5408   -1.9872 H   0  0  0  0  0  0
   22.8112   43.4135   -4.1971 H   0  0  0  0  0  0
   13.6287   41.6003   -6.4238 H   0  0  0  0  0  0
  1  2  2  0  0  0
  1 12  1  0  0  0
  1 29  1  0  0  0
  2  3  1  0  0  0
  2 30  1  0  0  0
  3  4  2  0  0  0
  3 13  1  0  0  0
  4  5  1  0  0  0
  4  6  1  0  0  0
  5 12  2  0  0  0
  5 31  1  0  0  0
  6  7  1  0  0  0
  6  8  1  0  0  0
  6 11  1  0  0  0
  7 28  1  0  0  0
  7 32  1  0  0  0
  7 33  1  0  0  0
  8  9  1  0  0  0
  8 15  1  0  0  0
  8 34  1  0  0  0
  9 14  1  0  0  0
  9 35  1  0  0  0
  9 36  1  0  0  0
 10 11  2  0  0  0
 10 14  1  0  0  0
 10 16  1  0  0  0
 12 17  1  0  0  0
 16 37  1  0  0  0
 16 42  1  0  0  0
 17 18  1  0  0  0
 17 38  1  0  0  0
 18 19  1  0  0  0
 18 20  2  0  0  0
 19 21  2  0  0  0
 19 25  1  0  0  0
 21 22  1  0  0  0
 22 23  2  0  0  0
 22 39  1  0  0  0
 23 24  1  0  0  0
 23 26  1  0  0  0
 24 25  2  0  0  0
 24 40  1  0  0  0
 25 41  1  0  0  0
 26 27  3  0  0  0
M  END
> <s_m_source_file>
../4j0z_ligand.sdf

> <i_m_source_file_index>
1

> <s_epik_input>
W2NIXTFbY0hdYyhDI04pW2NIXW5jMUMoPU8pW05IXWMoW2NIXVtjSF1jMkYpW2NIXWMyW0NAXTMoW0NIMl1GKVtDQEBIXShGKVtDSDJdT0MoXFtOSF0zKT1OXFtIXQ==

> <s_epik_cmdline>
J2VwaWtfYXBwJywgJy1pbWFlJywgJ2xpZ2FuZF9wcm8ubWFlJywgJy1vbWFlJywgJ2xpZ2FuZF9wcmVwLm1hZScsICctbXMnLCAnMScsICctcGgnLCAnNycsICctcGh0JywgJzAuNScsICctbnQn

> <r_lp_tautomer_probability>
1

> <r_epik_Ionization_Penalty>
  0.2199

> <r_epik_Ionization_Penalty_Charging>
  0.0000

> <r_epik_Ionization_Penalty_Neutral>
  0.2199

> <r_epik_State_Penalty>
 -0.0000

> <r_epik_Charging_Adjusted_Penalty>
0

> <i_epik_Tot_Q>
0

> <i_epik_Tot_abs_Q>
0

> <s_epik_Chemistry_Notes>
This compound has an imine and may undergo hydrolysis.

$$$$
