4j1f_ligand
                    3D
 Schrodinger Suite 2020-3.
 46 48  0  0  1  0            999 V2000
  -15.7050  -42.0000   -9.4990 C   0  0  2  0  0  0
  -15.9970  -40.6260  -10.1230 C   0  0  0  0  0  0
  -14.8330  -41.9060   -8.3660 O   0  0  0  0  0  0
  -14.8050  -40.7560   -7.6450 C   0  0  0  0  0  0
  -15.5480  -39.6980   -7.8860 N   0  3  0  0  0  0
  -16.4430  -39.6130   -9.0300 C   0  0  2  0  0  0
  -17.9090  -39.9350   -8.6870 C   0  0  0  0  0  0
  -18.1890  -40.4810   -7.4450 C   0  0  0  0  0  0
  -19.5110  -40.8060   -7.1170 C   0  0  0  0  0  0
  -20.5760  -40.6310   -8.0260 C   0  0  0  0  0  0
  -20.2750  -40.1130   -9.2890 C   0  0  0  0  0  0
  -18.9500  -39.7500   -9.6220 C   0  0  0  0  0  0
  -18.6970  -39.2530  -10.8980 F   0  0  0  0  0  0
  -13.9410  -40.7700   -6.5520 N   0  0  0  0  0  0
  -16.2390  -38.1930   -9.5850 C   0  0  0  0  0  0
  -19.6800  -41.3850   -5.8800 N   0  0  0  0  0  0
  -20.8110  -41.9620   -5.3680 C   0  0  0  0  0  0
  -20.6730  -42.5710   -4.0420 C   0  0  0  0  0  0
  -21.8840  -41.9830   -5.9400 O   0  0  0  0  0  0
  -19.5620  -42.2940   -3.3320 N   0  0  0  0  0  0
  -19.3710  -42.8200   -2.1230 C   0  0  0  0  0  0
  -20.3130  -43.7210   -1.5640 C   0  0  0  0  0  0
  -21.4900  -44.0540   -2.3260 C   0  0  0  0  0  0
  -21.6770  -43.4640   -3.5860 C   0  0  0  0  0  0
  -20.0910  -44.2930   -0.2600 C   0  0  0  0  0  0
  -19.9390  -44.7650    0.7820 N   0  0  0  0  0  0
  -14.9510  -42.8650  -10.5180 C   0  0  0  0  0  0
  -14.6770  -44.1010   -9.9320 F   0  0  0  0  0  0
  -15.8510  -43.1370  -11.5240 F   0  0  0  0  0  0
  -13.7790  -42.2130  -11.0150 F   0  0  0  0  0  0
  -16.6516  -42.4279   -9.1371 H   0  0  0  0  0  0
  -15.0886  -40.2453  -10.6128 H   0  0  0  0  0  0
  -16.8010  -40.7247  -10.8672 H   0  0  0  0  0  0
  -15.5073  -38.8316   -7.2094 H   0  0  0  0  0  0
  -17.3864  -40.6563   -6.7286 H   0  0  0  0  0  0
  -21.5987  -40.8909   -7.7526 H   0  0  0  0  0  0
  -21.0698  -39.9878  -10.0243 H   0  0  0  0  0  0
  -13.3206  -41.6562   -6.3526 H   0  0  0  0  0  0
  -15.1730  -38.0354   -9.8062 H   0  0  0  0  0  0
  -16.5715  -37.4564   -8.8387 H   0  0  0  0  0  0
  -16.8266  -38.0718  -10.5070 H   0  0  0  0  0  0
  -18.8408  -41.4198   -5.1697 H   0  0  0  0  0  0
  -18.4789  -42.5544   -1.5558 H   0  0  0  0  0  0
  -22.2250  -44.7544   -1.9294 H   0  0  0  0  0  0
  -22.5578  -43.6830   -4.1896 H   0  0  0  0  0  0
  -13.8793  -39.8948   -5.8885 H   0  0  0  0  0  0
  1  2  1  0  0  0
  1  3  1  0  0  0
  1 27  1  0  0  0
  1 31  1  0  0  0
  2  6  1  0  0  0
  2 32  1  0  0  0
  2 33  1  0  0  0
  3  4  1  0  0  0
  4  5  2  0  0  0
  4 14  1  0  0  0
  5  6  1  0  0  0
  5 34  1  0  0  0
  6  7  1  0  0  0
  6 15  1  0  0  0
  7  8  2  0  0  0
  7 12  1  0  0  0
  8  9  1  0  0  0
  8 35  1  0  0  0
  9 10  2  0  0  0
  9 16  1  0  0  0
 10 11  1  0  0  0
 10 36  1  0  0  0
 11 12  2  0  0  0
 11 37  1  0  0  0
 12 13  1  0  0  0
 14 38  1  0  0  0
 14 46  1  0  0  0
 15 39  1  0  0  0
 15 40  1  0  0  0
 15 41  1  0  0  0
 16 17  1  0  0  0
 16 42  1  0  0  0
 17 18  1  0  0  0
 17 19  2  0  0  0
 18 20  2  0  0  0
 18 24  1  0  0  0
 20 21  1  0  0  0
 21 22  2  0  0  0
 21 43  1  0  0  0
 22 23  1  0  0  0
 22 25  1  0  0  0
 23 24  2  0  0  0
 23 44  1  0  0  0
 24 45  1  0  0  0
 25 26  3  0  0  0
 27 28  1  0  0  0
 27 29  1  0  0  0
 27 30  1  0  0  0
M  CHG  1   5   1
M  END
> <s_m_source_file>
../4j1f_ligand.sdf

> <i_m_source_file_index>
1

> <s_epik_input>
W0hdXE49QyhbTkhdMSlcT1tDQEhdKEMoRikoRilGKVtDSDJdW0NAQF0xKFtDSDNdKWMyW2NIXWMoW2NIXVtjSF1jMkYpW05IXUMoPU8pYzNuW2NIXWMoQyNOKVtjSF1bY0hdMw==

> <s_epik_cmdline>
J2VwaWtfYXBwJywgJy1pbWFlJywgJ2xpZ2FuZF9wcm8ubWFlJywgJy1vbWFlJywgJ2xpZ2FuZF9wcmVwLm1hZScsICctbXMnLCAnMScsICctcGgnLCAnNycsICctcGh0JywgJzAuNScsICctbnQn

> <r_lp_tautomer_probability>
1

> <r_epik_Ionization_Penalty>
  0.1996

> <r_epik_Ionization_Penalty_Charging>
  0.1992

> <r_epik_Ionization_Penalty_Neutral>
  0.0004

> <r_epik_State_Penalty>
 -0.0000

> <r_epik_Charging_Adjusted_Penalty>
0.19920322672945

> <i_epik_Tot_Q>
1

> <i_epik_Tot_abs_Q>
1

> <s_epik_Chemistry_Notes>
This compound has an imine and may undergo hydrolysis.

$$$$
