4j1h_ligand
                    3D
 Schrodinger Suite 2020-3.
 46 48  0  0  1  0            999 V2000
   14.6520   40.9890   -9.7980 C   0  0  1  0  0  0
   16.0300   40.3540   -9.9920 C   0  0  0  0  0  0
   14.5460   41.3950   -8.4100 O   0  0  0  0  0  0
   14.6810   40.3910   -7.5620 C   0  0  0  0  0  0
   15.4580   39.3830   -7.7730 N   0  3  0  0  0  0
   16.2630   39.2090   -8.9670 C   0  0  2  0  0  0
   17.6800   39.3920   -8.5390 C   0  0  0  0  0  0
   17.9560   39.9510   -7.3190 C   0  0  0  0  0  0
   19.2970   40.1260   -6.9780 C   0  0  0  0  0  0
   20.3620   39.8590   -7.8600 C   0  0  0  0  0  0
   20.0530   39.3160   -9.0860 C   0  0  0  0  0  0
   18.7320   39.1010   -9.4210 C   0  0  0  0  0  0
   18.5000   38.5740  -10.6320 F   0  0  0  0  0  0
   13.9600   40.4610   -6.3950 N   0  0  0  0  0  0
   15.9510   37.8570   -9.6510 C   0  0  0  0  0  0
   19.5750   40.7300   -5.7800 N   0  0  0  0  0  0
   20.7540   41.2730   -5.4000 C   0  0  0  0  0  0
   20.7100   41.9840   -4.1100 C   0  0  0  0  0  0
   21.7740   41.2570   -6.0810 O   0  0  0  0  0  0
   19.6590   41.7760   -3.3210 N   0  0  0  0  0  0
   19.5040   42.3960   -2.1690 C   0  0  0  0  0  0
   20.4500   43.3380   -1.7790 C   0  0  0  0  0  0
   21.5950   43.6370   -2.5950 C   0  0  0  0  0  0
   21.7170   42.9250   -3.7960 C   0  0  0  0  0  0
   20.2590   43.9800   -0.5220 C   0  0  0  0  0  0
   20.0860   44.4790    0.4740 N   0  0  0  0  0  0
   14.6270   42.2980  -10.5940 C   0  0  0  0  0  0
   14.7150   41.9730  -11.9380 F   0  0  0  0  0  0
   13.3450   42.8360  -10.4220 F   0  0  0  0  0  0
   15.6820   43.2020  -10.1920 F   0  0  0  0  0  0
   13.8437   40.2889  -10.0560 H   0  0  0  0  0  0
   16.1027   39.9389  -11.0081 H   0  0  0  0  0  0
   16.8089   41.1180   -9.8515 H   0  0  0  0  0  0
   15.5402   38.5849   -7.0205 H   0  0  0  0  0  0
   17.1569   40.2481   -6.6398 H   0  0  0  0  0  0
   21.3935   40.0746   -7.5816 H   0  0  0  0  0  0
   20.8462   39.0576   -9.7875 H   0  0  0  0  0  0
   13.2958   41.3180   -6.2094 H   0  0  0  0  0  0
   14.8866   37.8224   -9.9263 H   0  0  0  0  0  0
   16.1772   37.0341   -8.9569 H   0  0  0  0  0  0
   16.5674   37.7532  -10.5561 H   0  0  0  0  0  0
   18.7938   40.8092   -5.0096 H   0  0  0  0  0  0
   18.6480   42.1743   -1.5317 H   0  0  0  0  0  0
   22.3324   44.3812   -2.2943 H   0  0  0  0  0  0
   22.5606   43.0914   -4.4659 H   0  0  0  0  0  0
   14.0468   39.6601   -5.6460 H   0  0  0  0  0  0
  1  2  1  0  0  0
  1  3  1  0  0  0
  1 27  1  0  0  0
  1 31  1  0  0  0
  2  6  1  0  0  0
  2 32  1  0  0  0
  2 33  1  0  0  0
  3  4  1  0  0  0
  4  5  2  0  0  0
  4 14  1  0  0  0
  5  6  1  0  0  0
  5 34  1  0  0  0
  6  7  1  0  0  0
  6 15  1  0  0  0
  7  8  2  0  0  0
  7 12  1  0  0  0
  8  9  1  0  0  0
  8 35  1  0  0  0
  9 10  2  0  0  0
  9 16  1  0  0  0
 10 11  1  0  0  0
 10 36  1  0  0  0
 11 12  2  0  0  0
 11 37  1  0  0  0
 12 13  1  0  0  0
 14 38  1  0  0  0
 14 46  1  0  0  0
 15 39  1  0  0  0
 15 40  1  0  0  0
 15 41  1  0  0  0
 16 17  1  0  0  0
 16 42  1  0  0  0
 17 18  1  0  0  0
 17 19  2  0  0  0
 18 20  2  0  0  0
 18 24  1  0  0  0
 20 21  1  0  0  0
 21 22  2  0  0  0
 21 43  1  0  0  0
 22 23  1  0  0  0
 22 25  1  0  0  0
 23 24  2  0  0  0
 23 44  1  0  0  0
 24 45  1  0  0  0
 25 26  3  0  0  0
 27 28  1  0  0  0
 27 29  1  0  0  0
 27 30  1  0  0  0
M  CHG  1   5   1
M  END
> <s_m_source_file>
../4j1h_ligand.sdf

> <i_m_source_file_index>
1

> <s_epik_input>
W0hdXE49QyhbTkhdMSlcT1tDQEBIXShDKEYpKEYpRilbQ0gyXVtDQEBdMShbQ0gzXSljMltjSF1jKFtjSF1bY0hdYzJGKVtOSF1DKD1PKWMzbltjSF1jKEMjTilbY0hdW2NIXTM=

> <s_epik_cmdline>
J2VwaWtfYXBwJywgJy1pbWFlJywgJ2xpZ2FuZF9wcm8ubWFlJywgJy1vbWFlJywgJ2xpZ2FuZF9wcmVwLm1hZScsICctbXMnLCAnMScsICctcGgnLCAnNycsICctcGh0JywgJzAuNScsICctbnQn

> <r_lp_tautomer_probability>
1

> <r_epik_Ionization_Penalty>
  0.1996

> <r_epik_Ionization_Penalty_Charging>
  0.1992

> <r_epik_Ionization_Penalty_Neutral>
  0.0004

> <r_epik_State_Penalty>
 -0.0000

> <r_epik_Charging_Adjusted_Penalty>
0.19920322672945

> <i_epik_Tot_Q>
1

> <i_epik_Tot_abs_Q>
1

> <s_epik_Chemistry_Notes>
This compound has an imine and may undergo hydrolysis.

$$$$
