4j1i_ligand
                    3D
 Schrodinger Suite 2020-3.
 45 47  0  0  1  0            999 V2000
   20.5320  -40.3270    8.0100 C   0  0  0  0  0  0
   15.2630  -41.3480    9.6100 C   0  0  1  0  0  0
   14.9730  -40.3870    7.4090 C   0  0  0  0  0  0
   20.1950  -39.8020    9.2570 C   0  0  0  0  0  0
   18.1700  -40.0390    7.2950 C   0  0  0  0  0  0
   17.8340  -39.5350    8.5300 C   0  0  0  0  0  0
   19.5010  -40.4240    7.0190 C   0  0  0  0  0  0
   15.8000  -39.9460    9.9840 C   0  0  1  0  0  0
   20.9170  -41.4560    5.2660 C   0  0  0  0  0  0
   20.8590  -42.1060    3.9280 C   0  0  0  0  0  0
   16.3840  -37.6470    9.3120 C   0  0  0  0  0  0
   18.8550  -39.4130    9.5020 C   0  0  0  0  0  0
   16.4180  -39.1120    8.8390 C   0  0  1  0  0  0
   15.0430  -41.4780    8.1960 O   0  0  0  0  0  0
   15.6050  -39.2720    7.6380 N   0  0  0  0  0  0
   18.5410  -38.9040   10.7140 F   0  0  0  0  0  0
   16.4480  -42.3040   11.3750 F   0  0  0  0  0  0
   15.7250  -43.6610    9.7680 F   0  0  0  0  0  0
   17.4330  -42.4490    9.3430 F   0  0  0  0  0  0
   14.6370  -39.2820   10.3370 F   0  0  0  0  0  0
   14.2540  -40.5290    6.2530 N   0  0  0  0  0  0
   19.7400  -40.9960    5.7640 N   0  0  0  0  0  0
   21.9340  -41.4220    5.9340 O   0  0  0  0  0  0
   21.7930  -43.0990    3.5790 C   0  0  0  0  0  0
   21.6350  -43.7280    2.3320 C   0  0  0  0  0  0
   20.5240  -43.3630    1.5220 C   0  0  0  0  0  0
   19.6430  -42.3750    1.9700 C   0  0  0  0  0  0
   19.8450  -41.8330    3.1440 N   0  0  0  0  0  0
   20.3210  -43.9620    0.2310 C   0  0  0  0  0  0
   20.1680  -44.4330   -0.7910 N   0  0  0  0  0  0
   16.2400  -42.4340   10.0350 C   0  0  0  0  0  0
   21.5494  -40.6540    7.7952 H   0  0  0  0  0  0
   14.2778  -41.4896   10.0783 H   0  0  0  0  0  0
   20.9525  -39.6923   10.0330 H   0  0  0  0  0  0
   17.4052  -40.1419    6.5252 H   0  0  0  0  0  0
   16.5469  -40.0123   10.7889 H   0  0  0  0  0  0
   16.9999  -37.5395   10.2170 H   0  0  0  0  0  0
   15.3468  -37.3587    9.5380 H   0  0  0  0  0  0
   16.7810  -36.9963    8.5189 H   0  0  0  0  0  0
   13.7169  -41.4675    6.0511 H   0  0  0  0  0  0
   18.9139  -41.1153    5.0476 H   0  0  0  0  0  0
   22.6080  -43.3701    4.2502 H   0  0  0  0  0  0
   22.3483  -44.4792    1.9929 H   0  0  0  0  0  0
   18.8018  -42.0611    1.3520 H   0  0  0  0  0  0
   14.2133  -39.7046    5.5258 H   0  0  0  0  0  0
  1  4  2  0  0  0
  1  7  1  0  0  0
  1 32  1  0  0  0
  2  8  1  0  0  0
  2 14  1  0  0  0
  2 31  1  0  0  0
  2 33  1  0  0  0
  3 14  1  0  0  0
  3 15  2  0  0  0
  3 21  1  0  0  0
  4 12  1  0  0  0
  4 34  1  0  0  0
  5  6  1  0  0  0
  5  7  2  0  0  0
  5 35  1  0  0  0
  6 12  2  0  0  0
  6 13  1  0  0  0
  7 22  1  0  0  0
  8 13  1  0  0  0
  8 20  1  0  0  0
  8 36  1  0  0  0
  9 10  1  0  0  0
  9 22  1  0  0  0
  9 23  2  0  0  0
 10 24  2  0  0  0
 10 28  1  0  0  0
 11 13  1  0  0  0
 11 37  1  0  0  0
 11 38  1  0  0  0
 11 39  1  0  0  0
 12 16  1  0  0  0
 13 15  1  0  0  0
 17 31  1  0  0  0
 18 31  1  0  0  0
 19 31  1  0  0  0
 21 40  1  0  0  0
 21 45  1  0  0  0
 22 41  1  0  0  0
 24 25  1  0  0  0
 24 42  1  0  0  0
 25 26  2  0  0  0
 25 43  1  0  0  0
 26 27  1  0  0  0
 26 29  1  0  0  0
 27 28  2  0  0  0
 27 44  1  0  0  0
 29 30  3  0  0  0
M  END
> <s_m_source_file>
../4j1i_ligand.sdf

> <i_m_source_file_index>
1

> <s_epik_input>
bjFbY0hdYyhDI04pW2NIXVtjSF1jMUMoPU8pW05IXWMoW2NIXVtjSF1jMkYpW2NIXWMyW0NAXTMoW0NIM10pW0NAQEhdKEYpW0NASF0oQyhGKShGKUYpTy9DKFtOSF0zKT1OXFtIXQ==

> <s_epik_cmdline>
J2VwaWtfYXBwJywgJy1pbWFlJywgJ2xpZ2FuZF9wcm8ubWFlJywgJy1vbWFlJywgJ2xpZ2FuZF9wcmVwLm1hZScsICctbXMnLCAnMScsICctcGgnLCAnNycsICctcGh0JywgJzAuNScsICctbnQn

> <r_lp_tautomer_probability>
1

> <r_epik_Ionization_Penalty>
  0.1367

> <r_epik_Ionization_Penalty_Charging>
  0.0000

> <r_epik_Ionization_Penalty_Neutral>
  0.1367

> <r_epik_State_Penalty>
 -0.0000

> <r_epik_Charging_Adjusted_Penalty>
0

> <i_epik_Tot_Q>
0

> <i_epik_Tot_abs_Q>
0

> <s_epik_Chemistry_Notes>
This compound has an imine and may undergo hydrolysis.

$$$$
