4j1p_ligand
                    3D
 Schrodinger Suite 2020-3.
 49 51  0  0  1  0            999 V2000
   14.5830   21.1100   -7.3150 O   0  0  0  0  0  0
   15.5120   22.0300   -6.7020 C   0  0  0  0  0  0
   13.3790   20.9580   -6.7520 C   0  0  0  0  0  0
   12.5510   20.0230   -7.3590 C   0  0  0  0  0  0
   11.3090   19.7610   -6.8550 C   0  0  0  0  0  0
    9.2490   20.9720   -3.9930 N   0  0  0  0  0  0
   10.7910   18.4110   -8.7730 C   0  0  0  0  0  0
   10.4280   18.9030   -7.4710 O   0  0  0  0  0  0
   10.8260   20.4160   -5.6890 C   0  0  0  0  0  0
    8.6570   24.6660    1.1930 O   0  0  0  0  0  0
   11.2900   22.1520   -4.0120 N   0  0  0  0  0  0
    9.5800   20.1500   -5.0640 C   0  0  0  0  0  0
   10.1050   21.9130   -3.4900 C   0  0  0  0  0  0
    7.1620   25.0360    3.5290 O   0  0  0  0  0  0
    8.7870   19.2520   -5.3630 O   0  0  0  0  0  0
    9.6680   22.6690   -2.2800 C   0  0  0  0  0  0
    8.4030   22.7770   -1.9070 C   0  0  0  0  0  0
    8.0130   23.3830   -0.7220 C   0  0  0  0  0  0
    6.5660   23.4710   -0.2940 C   0  0  0  0  0  0
    9.0330   24.0140    0.0230 C   0  0  0  0  0  0
    8.7930   23.8560    2.3780 C   0  0  0  0  0  0
    8.4990   24.6730    3.6170 C   0  0  0  0  0  0
   10.3550   23.9730   -0.3440 C   0  0  0  0  0  0
   11.3840   24.6510    0.4600 C   0  0  0  0  0  0
   10.6650   23.3210   -1.5340 C   0  0  0  0  0  0
   11.7010   21.4130   -5.1390 C   0  0  0  0  0  0
   12.9480   21.6510   -5.6430 C   0  0  0  0  0  0
   16.4491   22.0428   -7.2778 H   0  0  0  0  0  0
   15.7197   21.7086   -5.6707 H   0  0  0  0  0  0
   15.0748   23.0393   -6.6905 H   0  0  0  0  0  0
   12.8958   19.4928   -8.2467 H   0  0  0  0  0  0
    8.2632   20.8804   -3.5135 H   0  0  0  0  0  0
   10.0021   17.7405   -9.1446 H   0  0  0  0  0  0
   11.7397   17.8585   -8.7048 H   0  0  0  0  0  0
   10.9087   19.2578   -9.4652 H   0  0  0  0  0  0
    6.7036   25.6434    4.3233 H   0  0  0  0  0  0
    7.6317   22.3709   -2.5614 H   0  0  0  0  0  0
    5.9386   22.9148   -1.0060 H   0  0  0  0  0  0
    6.2527   24.5253   -0.2750 H   0  0  0  0  0  0
    6.4537   23.0369    0.7105 H   0  0  0  0  0  0
    8.0865   23.0143    2.3298 H   0  0  0  0  0  0
    9.8207   23.4689    2.4416 H   0  0  0  0  0  0
    9.1231   25.5781    3.6530 H   0  0  0  0  0  0
    8.6589   24.0809    4.5301 H   0  0  0  0  0  0
   10.9185   25.0951    1.3522 H   0  0  0  0  0  0
   11.8555   25.4430   -0.1403 H   0  0  0  0  0  0
   12.1472   23.9217    0.7692 H   0  0  0  0  0  0
   11.6945   23.3160   -1.8921 H   0  0  0  0  0  0
   13.5989   22.3861   -5.1695 H   0  0  0  0  0  0
  1  2  1  0  0  0
  1  3  1  0  0  0
  2 28  1  0  0  0
  2 29  1  0  0  0
  2 30  1  0  0  0
  3  4  2  0  0  0
  3 27  1  0  0  0
  4  5  1  0  0  0
  4 31  1  0  0  0
  5  8  1  0  0  0
  5  9  2  0  0  0
  6 12  1  0  0  0
  6 13  1  0  0  0
  6 32  1  0  0  0
  7  8  1  0  0  0
  7 33  1  0  0  0
  7 34  1  0  0  0
  7 35  1  0  0  0
  9 12  1  0  0  0
  9 26  1  0  0  0
 10 20  1  0  0  0
 10 21  1  0  0  0
 11 13  2  0  0  0
 11 26  1  0  0  0
 12 15  2  0  0  0
 13 16  1  0  0  0
 14 22  1  0  0  0
 14 36  1  0  0  0
 16 17  2  0  0  0
 16 25  1  0  0  0
 17 18  1  0  0  0
 17 37  1  0  0  0
 18 19  1  0  0  0
 18 20  2  0  0  0
 19 38  1  0  0  0
 19 39  1  0  0  0
 19 40  1  0  0  0
 20 23  1  0  0  0
 21 22  1  0  0  0
 21 41  1  0  0  0
 21 42  1  0  0  0
 22 43  1  0  0  0
 22 44  1  0  0  0
 23 24  1  0  0  0
 23 25  2  0  0  0
 24 45  1  0  0  0
 24 46  1  0  0  0
 24 47  1  0  0  0
 25 48  1  0  0  0
 26 27  2  0  0  0
 27 49  1  0  0  0
M  END
> <s_m_source_file>
../4j1p_ligand.sdf

> <i_m_source_file_index>
1

> <s_epik_input>
W0NIM11PYzFbY0hdYyhPW0NIM10pW2NIXWMoYzEyKW5jKFtuSF1jMj1PKS1jM1tjSF1jKFtDSDNdKWMoYyhbQ0gzXSlbY0hdMylPW0NIMl1bQ0gyXVtPSF0=

> <s_epik_cmdline>
J2VwaWtfYXBwJywgJy1pbWFlJywgJ2xpZ2FuZF9wcm8ubWFlJywgJy1vbWFlJywgJ2xpZ2FuZF9wcmVwLm1hZScsICctbXMnLCAnMScsICctcGgnLCAnNycsICctcGh0JywgJzAuNScsICctbnQn

> <r_lp_tautomer_probability>
1

> <r_epik_Ionization_Penalty>
  0.0008

> <r_epik_Ionization_Penalty_Charging>
  0.0008

> <r_epik_Ionization_Penalty_Neutral>
  0.0000

> <r_epik_State_Penalty>
 -0.0000

> <r_epik_Charging_Adjusted_Penalty>
0.00083742406417432

> <i_epik_Tot_Q>
0

> <i_epik_Tot_abs_Q>
0

$$$$
