4j22_ligand
                    3D
 Schrodinger Suite 2020-3.
 54 57  0  0  1  0            999 V2000
    7.5700   10.4100  -14.1800 C   0  0  0  0  0  0
    6.8050   10.6410  -11.9270 C   0  0  0  0  0  0
    6.1350   10.8750   -9.6250 C   0  0  0  0  0  0
    5.1710   10.1590   -6.0360 C   0  0  0  0  0  0
    6.4300   10.0890   -3.8870 C   0  0  0  0  0  0
    3.6050   10.4920    1.0310 C   0  0  0  0  0  0
    3.6560   10.6270    2.5760 C   0  0  0  0  0  0
    6.0330   10.0200    2.2010 C   0  0  0  0  0  0
    7.5610   10.5260   -6.0920 C   0  0  0  0  0  0
    4.7110   13.0300  -14.2020 C   0  0  0  0  0  0
    5.7300   11.9680  -13.7830 C   0  0  0  0  0  0
    6.6150   11.3820  -14.6990 C   0  0  0  0  0  0
    8.3660    9.8520  -14.8700 O   0  0  0  0  0  0
    7.6400   10.0670  -12.8850 N   0  0  0  0  0  0
    6.9870   10.3200  -10.5850 C   0  0  0  0  0  0
    6.2590   10.6020   -8.1630 C   0  0  0  0  0  0
    5.1130   10.3130   -7.4100 C   0  0  0  0  0  0
    6.3890   10.2310   -5.3700 C   0  0  0  0  0  0
    7.3970   10.5400   -3.3020 O   0  0  0  0  0  0
    5.3860    9.6210   -3.1830 N   0  0  0  0  0  0
    5.3900    9.5590   -1.7000 C   0  0  0  0  0  0
    4.7540   10.8710   -1.1740 C   0  0  0  0  0  0
    4.7860   11.0820    0.3050 N   0  0  0  0  0  0
    4.9930   10.4630    3.1100 O   0  0  0  0  0  0
    6.1210   10.9710    0.9810 C   0  0  0  0  0  0
    7.5200   10.7030   -7.4670 C   0  0  0  0  0  0
    9.0280   11.0640   -8.2480 Cl  0  0  0  0  0  0
    5.1790   11.8410  -10.0140 C   0  0  0  0  0  0
    4.9900   12.2100  -11.3280 C   0  0  0  0  0  0
    5.8240   11.6100  -12.3400 C   0  0  0  0  0  0
    4.2555    9.9800   -5.4722 H   0  0  0  0  0  0
    3.5645    9.4274    0.7571 H   0  0  0  0  0  0
    2.7098   11.0035    0.6476 H   0  0  0  0  0  0
    3.2972   11.6247    2.8689 H   0  0  0  0  0  0
    3.0152    9.8583    3.0326 H   0  0  0  0  0  0
    7.0005   10.0167    2.7244 H   0  0  0  0  0  0
    5.8034    9.0036    1.8484 H   0  0  0  0  0  0
    8.5107   10.6163   -5.5648 H   0  0  0  0  0  0
    4.7643   13.1800  -15.2904 H   0  0  0  0  0  0
    4.9367   13.9770  -13.6898 H   0  0  0  0  0  0
    3.6996   12.6963  -13.9269 H   0  0  0  0  0  0
    6.5901   11.6427  -15.7571 H   0  0  0  0  0  0
    8.3706    9.3141  -12.5542 H   0  0  0  0  0  0
    7.7863    9.6423  -10.2851 H   0  0  0  0  0  0
    4.1544   10.2071   -7.9180 H   0  0  0  0  0  0
    4.5059    9.2761   -3.7455 H   0  0  0  0  0  0
    4.8044    8.6891   -1.3678 H   0  0  0  0  0  0
    6.4249    9.4634   -1.3398 H   0  0  0  0  0  0
    5.2778   11.7336   -1.6117 H   0  0  0  0  0  0
    3.6921   10.9037   -1.4590 H   0  0  0  0  0  0
    6.4360   11.9700    1.3168 H   0  0  0  0  0  0
    6.8545   10.5778    0.2617 H   0  0  0  0  0  0
    4.5676   12.3123   -9.2445 H   0  0  0  0  0  0
    4.2264   12.9399  -11.5969 H   0  0  0  0  0  0
  1 12  1  0  0  0
  1 13  2  0  0  0
  1 14  1  0  0  0
  2 14  1  0  0  0
  2 15  2  0  0  0
  2 30  1  0  0  0
  3 15  1  0  0  0
  3 16  1  0  0  0
  3 28  2  0  0  0
  4 17  2  0  0  0
  4 18  1  0  0  0
  4 31  1  0  0  0
  5 18  1  0  0  0
  5 19  2  0  0  0
  5 20  1  0  0  0
  6  7  1  0  0  0
  6 23  1  0  0  0
  6 32  1  0  0  0
  6 33  1  0  0  0
  7 24  1  0  0  0
  7 34  1  0  0  0
  7 35  1  0  0  0
  8 24  1  0  0  0
  8 25  1  0  0  0
  8 36  1  0  0  0
  8 37  1  0  0  0
  9 18  2  0  0  0
  9 26  1  0  0  0
  9 38  1  0  0  0
 10 11  1  0  0  0
 10 39  1  0  0  0
 10 40  1  0  0  0
 10 41  1  0  0  0
 11 12  2  0  0  0
 11 30  1  0  0  0
 12 42  1  0  0  0
 14 43  1  0  0  0
 15 44  1  0  0  0
 16 17  1  0  0  0
 16 26  2  0  0  0
 17 45  1  0  0  0
 20 21  1  0  0  0
 20 46  1  0  0  0
 21 22  1  0  0  0
 21 47  1  0  0  0
 21 48  1  0  0  0
 22 23  1  0  0  0
 22 49  1  0  0  0
 22 50  1  0  0  0
 23 25  1  0  0  0
 25 51  1  0  0  0
 25 52  1  0  0  0
 26 27  1  0  0  0
 28 29  1  0  0  0
 28 53  1  0  0  0
 29 30  2  0  0  0
 29 54  1  0  0  0
M  END
> <s_m_source_file>
../4j22_ligand.sdf

> <i_m_source_file_index>
1

> <s_epik_input>
Tz1jKFtuSF0xKVtjSF1jKFtDSDNdKWMoYzEyKVtjSF1bY0hdYyhbY0hdMiktYzNbY0hdW2NIXWMoW2NIXWMzQ2wpQyg9TylbTkhdW0NIMl1bQ0gyXVtOSCtdNFtDSDJdW0NIMl1PW0NIMl1bQ0gyXTQ=

> <s_epik_cmdline>
J2VwaWtfYXBwJywgJy1pbWFlJywgJ2xpZ2FuZF9wcm8ubWFlJywgJy1vbWFlJywgJ2xpZ2FuZF9wcmVwLm1hZScsICctbXMnLCAnMScsICctcGgnLCAnNycsICctcGh0JywgJzAuNScsICctbnQn

> <r_epik_Ionization_Penalty>
  0.1921

> <r_epik_Ionization_Penalty_Charging>
  0.0000

> <r_epik_Ionization_Penalty_Neutral>
  0.1921

> <r_epik_State_Penalty>
  0.1817

> <r_epik_Charging_Adjusted_Penalty>
0.181753889013528

> <i_epik_Tot_Q>
0

> <i_epik_Tot_abs_Q>
0

$$$$
