4j24_ligand
                    3D
 Schrodinger Suite 2020-3.
222224  0  0  1  0            999 V2000
   -1.5760   33.7220  -18.9540 N   0  3  0  0  0  0
   -2.8710   34.4610  -18.8790 C   0  0  2  0  0  0
   -3.9480   33.6850  -18.1080 C   0  0  0  0  0  0
   -5.1460   33.9760  -18.2360 O   0  0  0  0  0  0
   -3.3630   34.7730  -20.2880 C   0  0  0  0  0  0
   -3.5730   33.5420  -21.1500 C   0  0  0  0  0  0
   -4.2860   33.9110  -22.4350 C   0  0  0  0  0  0
   -5.0290   32.7840  -22.9980 N   0  0  0  0  0  0
   -5.9190   32.8850  -23.9880 C   0  0  0  0  0  0
   -6.1870   34.0700  -24.5440 N   0  0  0  0  0  0
   -6.5520   31.7970  -24.4270 N   0  0  0  0  0  0
   -3.5240   32.7050  -17.3110 N   0  0  0  0  0  0
   -4.4450   31.9240  -16.4950 C   0  0  2  0  0  0
   -3.8270   31.5480  -15.1520 C   0  0  0  0  0  0
   -3.9300   30.4070  -14.7280 O   0  0  0  0  0  0
   -4.8860   30.6510  -17.2370 C   0  0  0  0  0  0
   -5.9080   30.8960  -18.3020 C   0  0  0  0  0  0
   -7.2210   31.2080  -18.0150 N   0  0  0  0  0  0
   -5.8170   30.8610  -19.6520 C   0  0  0  0  0  0
   -7.8900   31.3700  -19.1430 C   0  0  0  0  0  0
   -7.0630   31.1640  -20.1510 N   0  0  0  0  0  0
   -3.2030   32.5140  -14.4620 N   0  0  0  0  0  0
   -2.6230   32.1150  -13.1810 C   0  0  2  0  0  0
   -3.6340   31.5030  -12.1960 C   0  0  0  0  0  0
   -3.3300   30.4910  -11.5710 O   0  0  0  0  0  0
   -2.0150   33.4140  -12.6250 C   0  0  0  0  0  0
   -2.5100   34.5160  -13.4910 C   0  0  0  0  0  0
   -2.9320   33.9230  -14.7970 C   0  0  0  0  0  0
   -4.8350   32.0780  -12.0790 N   0  0  0  0  0  0
   -5.7890   31.5950  -11.0740 C   0  0  2  0  0  0
   -6.3840   30.2540  -11.4420 C   0  0  0  0  0  0
   -6.5060   29.3810  -10.6060 O   0  0  0  0  0  0
   -6.8990   32.6300  -10.8200 C   0  0  0  0  0  0
   -6.3850   33.9160  -10.1540 C   0  0  0  0  0  0
   -7.4740   34.9980  -10.1330 C   0  0  0  0  0  0
   -5.8620   33.6290   -8.7520 C   0  0  0  0  0  0
   -6.7920   30.1150  -12.6920 N   0  0  0  0  0  0
   -7.4480   28.9070  -13.1650 C   0  0  2  0  0  0
   -6.4800   27.7370  -13.0460 C   0  0  0  0  0  0
   -6.8510   26.6820  -12.5370 O   0  0  0  0  0  0
   -7.9460   29.1110  -14.6130 C   0  0  0  0  0  0
   -8.4040   27.8890  -15.4110 C   0  0  0  0  0  0
   -9.5200   27.1440  -14.7050 C   0  0  0  0  0  0
   -8.8730   28.2910  -16.8050 C   0  0  0  0  0  0
   -5.2290   27.9350  -13.4810 N   0  0  0  0  0  0
   -4.1890   26.9200  -13.3130 C   0  0  2  0  0  0
   -3.9890   26.5360  -11.8480 C   0  0  0  0  0  0
   -3.8420   25.3500  -11.5140 O   0  0  0  0  0  0
   -2.8410   27.3880  -13.9030 C   0  0  0  0  0  0
   -2.6190   26.9720  -15.3570 C   0  0  0  0  0  0
   -1.3230   27.5360  -15.9100 C   0  0  0  0  0  0
   -2.6240   25.4580  -15.4570 C   0  0  0  0  0  0
   -3.9710   27.5390  -10.9760 N   0  0  0  0  0  0
   -3.7950   27.2900   -9.5520 C   0  0  2  0  0  0
   -4.9630   26.5000   -8.9840 C   0  0  0  0  0  0
   -4.7590   25.5910   -8.2110 O   0  0  0  0  0  0
   -3.5540   28.6110   -8.8130 C   0  0  0  0  0  0
   -2.1030   29.0840   -8.9710 C   0  0  0  0  0  0
   -1.8750   30.5780   -8.7050 C   0  0  0  0  0  0
   -0.4680   30.9940   -8.9280 N   0  0  0  0  0  0
    0.1260   31.1430  -10.1230 C   0  0  0  0  0  0
   -0.5260   30.8990  -11.2570 N   0  0  0  0  0  0
    1.3890   31.5350  -10.1950 N   0  0  0  0  0  0
   -6.1950   26.8190   -9.3950 N   0  0  0  0  0  0
   -7.3420   26.0300   -8.9540 C   0  0  2  0  0  0
   -7.2710   24.6080   -9.5240 C   0  0  0  0  0  0
   -7.6020   23.6430   -8.8360 O   0  0  0  0  0  0
   -8.6600   26.6820   -9.3640 C   0  0  0  0  0  0
   -9.1070   27.7790   -8.4520 C   0  0  0  0  0  0
   -8.9840   29.1120   -8.7770 N   0  0  0  0  0  0
   -9.6830   27.7450   -7.2280 C   0  0  0  0  0  0
   -9.4700   29.8500   -7.7960 C   0  0  0  0  0  0
   -9.8990   29.0450   -6.8470 N   0  0  0  0  0  0
   -6.8360   24.4840  -10.7800 N   0  0  0  0  0  0
   -6.7380   23.1550  -11.4150 C   0  0  2  0  0  0
   -5.7170   22.3030  -10.6770 C   0  0  0  0  0  0
   -5.9280   21.1160  -10.5080 O   0  0  0  0  0  0
   -6.4050   23.2410  -12.9170 C   0  0  0  0  0  0
   -7.6000   23.5280  -13.8380 C   0  0  0  0  0  0
   -7.1530   23.9690  -15.2280 C   0  0  0  0  0  0
   -8.5400   22.3330  -13.9380 C   0  0  0  0  0  0
   -4.6380   22.9150  -10.1980 N   0  0  0  0  0  0
   -3.5690   22.1490   -9.5730 C   0  0  2  0  0  0
   -3.7110   21.9680   -8.0530 C   0  0  0  0  0  0
   -3.1030   21.0730   -7.4700 O   0  0  0  0  0  0
   -2.2220   22.7720   -9.9220 C   0  0  0  0  0  0
   -1.9180   22.7240  -11.4270 C   0  0  0  0  0  0
   -0.7480   23.6230  -11.8010 C   0  0  0  0  0  0
   -1.6760   21.2870  -11.8620 C   0  0  0  0  0  0
   -4.5180   22.8090   -7.4160 N   0  0  0  0  0  0
   -4.7130   22.7540   -5.9660 C   0  0  2  0  0  0
   -5.4030   21.4610   -5.5280 C   0  0  0  0  0  0
   -6.2700   20.9430   -6.2320 O   0  0  0  0  0  0
   -5.5700   23.9420   -5.5330 C   0  0  0  0  0  0
   -5.5610   24.2290   -4.0480 C   0  0  0  0  0  0
   -6.4230   25.4300   -3.7070 C   0  0  0  0  0  0
   -7.5160   25.6000   -4.2570 O   0  0  0  0  0  0
   -5.9380   26.2720   -2.8050 N   0  0  0  0  0  0
   -5.0330   20.9710   -4.3540 N   0  0  0  0  0  0
   -5.6980   19.8260   -3.7310 C   0  0  2  0  0  0
   -6.0750   20.1340   -2.2810 C   0  0  0  0  0  0
   -7.1031   19.6246   -1.7603 O   0  0  0  0  0  0
   -4.7880   18.6000   -3.7720 C   0  0  0  0  0  0
   -4.3520   18.2390   -5.1840 C   0  0  0  0  0  0
   -5.1570   18.2280   -6.1220 O   0  0  0  0  0  0
   -3.0720   17.9330   -5.3390 N   0  0  0  0  0  0
   -5.3492   20.9061   -1.5993 O   0  0  0  0  0  0
   -1.2224   33.4977  -17.9368 H   0  0  0  0  0  0
   -0.8299   34.3414  -19.4733 H   0  0  0  0  0  0
   -1.7215   32.7824  -19.5072 H   0  0  0  0  0  0
   -2.6595   35.3896  -18.3286 H   0  0  0  0  0  0
   -4.3268   35.3002  -20.2315 H   0  0  0  0  0  0
   -2.6267   35.4091  -20.8011 H   0  0  0  0  0  0
   -2.5980   33.0967  -21.3970 H   0  0  0  0  0  0
   -4.1822   32.8092  -20.6006 H   0  0  0  0  0  0
   -4.9985   34.7256  -22.2381 H   0  0  0  0  0  0
   -3.5488   34.2412  -23.1816 H   0  0  0  0  0  0
   -4.8703   31.7691  -22.6046 H   0  0  0  0  0  0
   -5.6700   34.9737  -24.1889 H   0  0  0  0  0  0
   -6.9246   34.1419  -25.3569 H   0  0  0  0  0  0
   -6.3384   30.8168  -23.9758 H   0  0  0  0  0  0
   -2.4453   32.4921  -17.2796 H   0  0  0  0  0  0
   -5.2979   32.5983  -16.3280 H   0  0  0  0  0  0
   -4.0137   30.1885  -17.7219 H   0  0  0  0  0  0
   -5.3255   29.9422  -16.5198 H   0  0  0  0  0  0
   -4.9855   30.6493  -20.3403 H   0  0  0  0  0  0
   -8.9453   31.6296  -19.2268 H   0  0  0  0  0  0
   -1.8962   31.3120  -13.3732 H   0  0  0  0  0  0
   -2.3412   33.5553  -11.5840 H   0  0  0  0  0  0
   -0.9174   33.3494  -12.6598 H   0  0  0  0  0  0
   -3.3641   35.0095  -13.0041 H   0  0  0  0  0  0
   -1.7046   35.2484  -13.6488 H   0  0  0  0  0  0
   -2.1376   33.9731  -15.5562 H   0  0  0  0  0  0
   -3.8469   34.3884  -15.1924 H   0  0  0  0  0  0
   -5.1075   32.9152  -12.7384 H   0  0  0  0  0  0
   -5.1812   31.4518  -10.1684 H   0  0  0  0  0  0
   -7.3622   32.9131  -11.7767 H   0  0  0  0  0  0
   -7.6619   32.1945  -10.1579 H   0  0  0  0  0  0
   -5.5408   34.2998  -10.7457 H   0  0  0  0  0  0
   -7.8291   35.1808  -11.1580 H   0  0  0  0  0  0
   -7.0588   35.9280   -9.7174 H   0  0  0  0  0  0
   -8.3143   34.6604   -9.5086 H   0  0  0  0  0  0
   -5.0854   32.8516   -8.8024 H   0  0  0  0  0  0
   -6.6892   33.2803   -8.1163 H   0  0  0  0  0  0
   -5.4338   34.5479   -8.3252 H   0  0  0  0  0  0
   -6.6199   30.9538  -13.3825 H   0  0  0  0  0  0
   -8.3111   28.7215  -12.5088 H   0  0  0  0  0  0
   -8.8159   29.7843  -14.6101 H   0  0  0  0  0  0
   -7.1415   29.5540  -15.2185 H   0  0  0  0  0  0
   -7.5392   27.2145  -15.4954 H   0  0  0  0  0  0
   -9.1863   26.8518  -13.6984 H   0  0  0  0  0  0
   -9.7812   26.2437  -15.2805 H   0  0  0  0  0  0
  -10.4021   27.7961  -14.6239 H   0  0  0  0  0  0
   -8.0664   28.8320  -17.3214 H   0  0  0  0  0  0
   -9.7560   28.9417  -16.7213 H   0  0  0  0  0  0
   -9.1350   27.3893  -17.3779 H   0  0  0  0  0  0
   -4.9919   28.8889  -13.9749 H   0  0  0  0  0  0
   -4.5876   26.0578  -13.8677 H   0  0  0  0  0  0
   -2.7871   28.4861  -13.8684 H   0  0  0  0  0  0
   -2.0153   26.9617  -13.3144 H   0  0  0  0  0  0
   -3.4364   27.3803  -15.9695 H   0  0  0  0  0  0
   -1.3367   28.6330  -15.8296 H   0  0  0  0  0  0
   -1.2185   27.2470  -16.9662 H   0  0  0  0  0  0
   -0.4745   27.1368  -15.3349 H   0  0  0  0  0  0
   -3.5692   25.0669  -15.0523 H   0  0  0  0  0  0
   -1.7812   25.0497  -14.8799 H   0  0  0  0  0  0
   -2.5252   25.1599  -16.5112 H   0  0  0  0  0  0
   -4.0914   28.5688  -11.3435 H   0  0  0  0  0  0
   -2.9002   26.6573   -9.4571 H   0  0  0  0  0  0
   -4.2201   29.3858   -9.2204 H   0  0  0  0  0  0
   -3.7621   28.4750   -7.7415 H   0  0  0  0  0  0
   -1.4602   28.5369   -8.2657 H   0  0  0  0  0  0
   -1.7648   28.8921  -10.0000 H   0  0  0  0  0  0
   -2.5114   31.1715   -9.3779 H   0  0  0  0  0  0
   -2.1316   30.8078   -7.6603 H   0  0  0  0  0  0
    0.1843   31.2101   -8.0691 H   0  0  0  0  0  0
   -1.5759   30.5720  -11.2284 H   0  0  0  0  0  0
   -0.0151   31.0243  -12.2231 H   0  0  0  0  0  0
    1.9533   31.7440   -9.2742 H   0  0  0  0  0  0
   -6.3435   27.6775  -10.0665 H   0  0  0  0  0  0
   -7.2648   26.0153   -7.8568 H   0  0  0  0  0  0
   -8.5565   27.1178  -10.3687 H   0  0  0  0  0  0
   -9.4568   25.9237   -9.3736 H   0  0  0  0  0  0
   -9.9745   26.9206   -6.5606 H   0  0  0  0  0  0
   -9.5093   30.9391   -7.7755 H   0  0  0  0  0  0
   -6.5491   25.3848  -11.3424 H   0  0  0  0  0  0
   -7.7374   22.7070  -11.3124 H   0  0  0  0  0  0
   -5.6790   24.0500  -13.0859 H   0  0  0  0  0  0
   -5.9743   22.2860  -13.2524 H   0  0  0  0  0  0
   -8.1602   24.3587  -13.3840 H   0  0  0  0  0  0
   -6.4759   24.8313  -15.1390 H   0  0  0  0  0  0
   -8.0332   24.2539  -15.8230 H   0  0  0  0  0  0
   -6.6275   23.1399  -15.7244 H   0  0  0  0  0  0
   -8.8531   22.0273  -12.9288 H   0  0  0  0  0  0
   -8.0199   21.4975  -14.4294 H   0  0  0  0  0  0
   -9.4256   22.6115  -14.5280 H   0  0  0  0  0  0
   -4.5570   24.0092  -10.2769 H   0  0  0  0  0  0
   -3.6813   21.1519  -10.0237 H   0  0  0  0  0  0
   -2.2142   23.8269   -9.6105 H   0  0  0  0  0  0
   -1.4206   22.2294   -9.3992 H   0  0  0  0  0  0
   -2.7903   23.1098  -11.9750 H   0  0  0  0  0  0
   -0.9565   24.6518  -11.4723 H   0  0  0  0  0  0
   -0.6081   23.6078  -12.8920 H   0  0  0  0  0  0
    0.1660   23.2590  -11.3090 H   0  0  0  0  0  0
   -2.5389   20.6673  -11.5766 H   0  0  0  0  0  0
   -0.7700   20.9028  -11.3705 H   0  0  0  0  0  0
   -1.5441   21.2516  -12.9535 H   0  0  0  0  0  0
   -5.0486   23.5645   -8.0140 H   0  0  0  0  0  0
   -3.7024   22.7914   -5.5332 H   0  0  0  0  0  0
   -5.2114   24.8542   -6.0324 H   0  0  0  0  0  0
   -6.6181   23.7591   -5.8122 H   0  0  0  0  0  0
   -5.9502   23.3561   -3.5035 H   0  0  0  0  0  0
   -4.5314   24.4361   -3.7208 H   0  0  0  0  0  0
   -4.9591   26.0783   -2.3421 H   0  0  0  0  0  0
   -6.5145   27.1643   -2.5195 H   0  0  0  0  0  0
   -4.1895   21.4607   -3.8454 H   0  0  0  0  0  0
   -6.6064   19.6539   -4.3270 H   0  0  0  0  0  0
   -3.8821   18.7958   -3.1795 H   0  0  0  0  0  0
   -5.3205   17.7339   -3.3522 H   0  0  0  0  0  0
   -2.3923   17.9565   -4.4745 H   0  0  0  0  0  0
   -2.6892   17.6555   -6.3322 H   0  0  0  0  0  0
   -5.6145   21.1319   -0.5559 H   0  0  0  0  0  0
  1  2  1  0  0  0
  1108  1  0  0  0
  1109  1  0  0  0
  1110  1  0  0  0
  2  3  1  0  0  0
  2  5  1  0  0  0
  2111  1  0  0  0
  3  4  2  0  0  0
  3 12  1  0  0  0
  5  6  1  0  0  0
  5112  1  0  0  0
  5113  1  0  0  0
  6  7  1  0  0  0
  6114  1  0  0  0
  6115  1  0  0  0
  7  8  1  0  0  0
  7116  1  0  0  0
  7117  1  0  0  0
  8  9  1  0  0  0
  8118  1  0  0  0
  9 10  1  0  0  0
  9 11  2  0  0  0
 10119  1  0  0  0
 10120  1  0  0  0
 11121  1  0  0  0
 12 13  1  0  0  0
 12122  1  0  0  0
 13 14  1  0  0  0
 13 16  1  0  0  0
 13123  1  0  0  0
 14 15  2  0  0  0
 14 22  1  0  0  0
 16 17  1  0  0  0
 16124  1  0  0  0
 16125  1  0  0  0
 17 18  2  0  0  0
 17 19  1  0  0  0
 18 20  1  0  0  0
 19 21  2  0  0  0
 19126  1  0  0  0
 20 21  1  0  0  0
 20127  1  0  0  0
 22 23  1  0  0  0
 22 28  1  0  0  0
 23 24  1  0  0  0
 23 26  1  0  0  0
 23128  1  0  0  0
 24 25  2  0  0  0
 24 29  1  0  0  0
 26 27  1  0  0  0
 26129  1  0  0  0
 26130  1  0  0  0
 27 28  1  0  0  0
 27131  1  0  0  0
 27132  1  0  0  0
 28133  1  0  0  0
 28134  1  0  0  0
 29 30  1  0  0  0
 29135  1  0  0  0
 30 31  1  0  0  0
 30 33  1  0  0  0
 30136  1  0  0  0
 31 32  2  0  0  0
 31 37  1  0  0  0
 33 34  1  0  0  0
 33137  1  0  0  0
 33138  1  0  0  0
 34 35  1  0  0  0
 34 36  1  0  0  0
 34139  1  0  0  0
 35140  1  0  0  0
 35141  1  0  0  0
 35142  1  0  0  0
 36143  1  0  0  0
 36144  1  0  0  0
 36145  1  0  0  0
 37 38  1  0  0  0
 37146  1  0  0  0
 38 39  1  0  0  0
 38 41  1  0  0  0
 38147  1  0  0  0
 39 40  2  0  0  0
 39 45  1  0  0  0
 41 42  1  0  0  0
 41148  1  0  0  0
 41149  1  0  0  0
 42 43  1  0  0  0
 42 44  1  0  0  0
 42150  1  0  0  0
 43151  1  0  0  0
 43152  1  0  0  0
 43153  1  0  0  0
 44154  1  0  0  0
 44155  1  0  0  0
 44156  1  0  0  0
 45 46  1  0  0  0
 45157  1  0  0  0
 46 47  1  0  0  0
 46 49  1  0  0  0
 46158  1  0  0  0
 47 48  2  0  0  0
 47 53  1  0  0  0
 49 50  1  0  0  0
 49159  1  0  0  0
 49160  1  0  0  0
 50 51  1  0  0  0
 50 52  1  0  0  0
 50161  1  0  0  0
 51162  1  0  0  0
 51163  1  0  0  0
 51164  1  0  0  0
 52165  1  0  0  0
 52166  1  0  0  0
 52167  1  0  0  0
 53 54  1  0  0  0
 53168  1  0  0  0
 54 55  1  0  0  0
 54 57  1  0  0  0
 54169  1  0  0  0
 55 56  2  0  0  0
 55 64  1  0  0  0
 57 58  1  0  0  0
 57170  1  0  0  0
 57171  1  0  0  0
 58 59  1  0  0  0
 58172  1  0  0  0
 58173  1  0  0  0
 59 60  1  0  0  0
 59174  1  0  0  0
 59175  1  0  0  0
 60 61  1  0  0  0
 60176  1  0  0  0
 61 62  1  0  0  0
 61 63  2  0  0  0
 62177  1  0  0  0
 62178  1  0  0  0
 63179  1  0  0  0
 64 65  1  0  0  0
 64180  1  0  0  0
 65 66  1  0  0  0
 65 68  1  0  0  0
 65181  1  0  0  0
 66 67  2  0  0  0
 66 74  1  0  0  0
 68 69  1  0  0  0
 68182  1  0  0  0
 68183  1  0  0  0
 69 70  2  0  0  0
 69 71  1  0  0  0
 70 72  1  0  0  0
 71 73  2  0  0  0
 71184  1  0  0  0
 72 73  1  0  0  0
 72185  1  0  0  0
 74 75  1  0  0  0
 74186  1  0  0  0
 75 76  1  0  0  0
 75 78  1  0  0  0
 75187  1  0  0  0
 76 77  2  0  0  0
 76 82  1  0  0  0
 78 79  1  0  0  0
 78188  1  0  0  0
 78189  1  0  0  0
 79 80  1  0  0  0
 79 81  1  0  0  0
 79190  1  0  0  0
 80191  1  0  0  0
 80192  1  0  0  0
 80193  1  0  0  0
 81194  1  0  0  0
 81195  1  0  0  0
 81196  1  0  0  0
 82 83  1  0  0  0
 82197  1  0  0  0
 83 84  1  0  0  0
 83 86  1  0  0  0
 83198  1  0  0  0
 84 85  2  0  0  0
 84 90  1  0  0  0
 86 87  1  0  0  0
 86199  1  0  0  0
 86200  1  0  0  0
 87 88  1  0  0  0
 87 89  1  0  0  0
 87201  1  0  0  0
 88202  1  0  0  0
 88203  1  0  0  0
 88204  1  0  0  0
 89205  1  0  0  0
 89206  1  0  0  0
 89207  1  0  0  0
 90 91  1  0  0  0
 90208  1  0  0  0
 91 92  1  0  0  0
 91 94  1  0  0  0
 91209  1  0  0  0
 92 93  2  0  0  0
 92 99  1  0  0  0
 94 95  1  0  0  0
 94210  1  0  0  0
 94211  1  0  0  0
 95 96  1  0  0  0
 95212  1  0  0  0
 95213  1  0  0  0
 96 97  2  0  0  0
 96 98  1  0  0  0
 98214  1  0  0  0
 98215  1  0  0  0
 99100  1  0  0  0
 99216  1  0  0  0
100101  1  0  0  0
100103  1  0  0  0
100217  1  0  0  0
101102  2  0  0  0
101107  1  0  0  0
103104  1  0  0  0
103218  1  0  0  0
103219  1  0  0  0
104105  2  0  0  0
104106  1  0  0  0
106220  1  0  0  0
106221  1  0  0  0
107222  1  0  0  0
M  CHG  1   1   1
M  END
> <s_m_source_file>
../4j24_ligand.sdf

> <i_m_source_file_index>
1

> <s_epik_input>
W0hdL049QyhbTkgyXSlcW05IXVtDSDJdW0NIMl1bQ0gyXVtDQEhdKFtOSDMrXSlDKD1PKVtOSF1bQ0BASF0oW0NIMl1DMT1OW0NIMl1OPVtDSF0xKUMoPU8pTjJbQ0BASF0oW0NIMl1bQ0gyXVtDSDJdMilDKD1PKVtOSF1bQ0BASF0oW0NIMl1bQ0hdKFtDSDNdKVtDSDNdKUMoPU8pW05IXVtDQEBIXShbQ0gyXVtDSF0oW0NIM10pW0NIM10pQyg9TylbTkhdW0NAQEhdKFtDSDJdW0NIXShbQ0gzXSlbQ0gzXSlDKD1PKVtOSF1bQ0BASF0oW0NIMl1bQ0gyXVtDSDJdW05IXS9DKFtOSDJdKT1OXFtIXSlDKD1PKVtOSF1bQ0BASF0oW0NIMl1DMz1OW0NIMl1OPVtDSF0zKUMoPU8pW05IXVtDQEBIXShbQ0gyXVtDSF0oW0NIM10pW0NIM10pQyg9TylbTkhdW0NAQEhdKFtDSDJdW0NIXShbQ0gzXSlbQ0gzXSlDKD1PKVtOSF1bQ0BASF0oW0NIMl1bQ0gyXUMoPU8pW05IMl0pQyg9TylbTkhdW0NASF0oQyg9TylbT0hdKVtDSDJdQyg9TylbTkgyXQ==

> <s_epik_cmdline>
J2VwaWtfYXBwJywgJy1pbWFlJywgJ2xpZ2FuZF9wcm8ubWFlJywgJy1vbWFlJywgJ2xpZ2FuZF9wcmVwLm1hZScsICctbXMnLCAnMScsICctcGgnLCAnNycsICctcGh0JywgJzAuNScsICctbnQn

> <s_epik_pKa_notes>
Molecule size exceeds maximum supported for generating protonation states

> <s_epik_Chemistry_Notes>
This compound has an imine and may undergo hydrolysis.

$$$$
