4j26_ligand
                    3D
 Schrodinger Suite 2020-3.
207211  0  0  1  0            999 V2000
   -7.4350   22.1830   15.8890 N   0  3  0  0  0  0
   -7.2350   20.8410   15.2440 C   0  0  2  0  0  0
   -8.1960   19.7260   15.7370 C   0  0  0  0  0  0
   -7.7670   18.5860   15.9410 O   0  0  0  0  0  0
   -5.7700   20.3850   15.4430 C   0  0  0  0  0  0
   -4.7520   21.3070   14.8450 C   0  0  0  0  0  0
   -4.2680   22.4180   15.5040 N   0  0  0  0  0  0
   -4.1130   21.2700   13.6530 C   0  0  0  0  0  0
   -3.3820   23.0290   14.7370 C   0  0  0  0  0  0
   -3.2700   22.3520   13.6100 N   0  0  0  0  0  0
   -9.5190   20.0220   15.9090 N   0  0  0  0  0  0
  -10.3460   18.9500   16.5270 C   0  0  2  0  0  0
  -10.4480   17.6190   15.7580 C   0  0  0  0  0  0
  -10.3120   16.5540   16.3660 O   0  0  0  0  0  0
  -11.7290   19.6010   16.6550 C   0  0  0  0  0  0
  -11.7560   20.6470   15.5990 C   0  0  0  0  0  0
  -10.3570   21.1870   15.5520 C   0  0  0  0  0  0
  -10.6780   17.6870   14.4490 N   0  0  0  0  0  0
  -10.8320   16.4810   13.6160 C   0  0  2  0  0  0
   -9.5390   15.6630   13.5070 C   0  0  0  0  0  0
   -9.5790   14.4370   13.6180 O   0  0  0  0  0  0
  -11.3680   16.8290   12.2210 C   0  0  0  0  0  0
  -12.7310   17.5390   12.1660 C   0  0  0  0  0  0
  -13.0350   17.9870   10.7450 C   0  0  0  0  0  0
  -13.8560   16.6610   12.6980 C   0  0  0  0  0  0
   -8.4060   16.3400   13.3060 N   0  0  0  0  0  0
   -7.0860   15.6850   13.3020 C   0  0  2  0  0  0
   -6.7850   14.9600   14.6240 C   0  0  0  0  0  0
   -6.2890   13.8280   14.6060 O   0  0  0  0  0  0
   -5.9760   16.7000   12.9980 C   0  0  0  0  0  0
   -4.5140   16.2290   12.9920 C   0  0  0  0  0  0
   -4.2980   15.0460   12.0590 C   0  0  0  0  0  0
   -3.6100   17.3860   12.5990 C   0  0  0  0  0  0
   -7.0830   15.6100   15.7500 N   0  0  0  0  0  0
   -6.8850   15.0030   17.0770 C   0  0  2  0  0  0
   -7.8110   13.8070   17.3250 C   0  0  0  0  0  0
   -7.3870   12.8260   17.9360 O   0  0  0  0  0  0
   -7.0430   16.0430   18.1950 C   0  0  0  0  0  0
   -5.8900   17.0320   18.2700 C   0  0  0  0  0  0
   -6.0250   18.2060   19.6340 S   0  0  0  0  0  0
   -7.3380   19.2810   19.0700 C   0  0  0  0  0  0
   -9.0610   13.8970   16.8590 N   0  0  0  0  0  0
  -10.0180   12.7680   16.9130 C   0  0  2  0  0  0
   -9.5040   11.5650   16.1300 C   0  0  0  0  0  0
   -9.4300   10.4670   16.6650 O   0  0  0  0  0  0
  -11.3960   13.1540   16.3420 C   0  0  0  0  0  0
  -12.2840   13.9690   17.2650 C   0  0  0  0  0  0
  -13.5310   14.4580   16.5380 C   0  0  0  0  0  0
  -14.2030   15.5480   17.2460 N   0  0  0  0  0  0
  -14.9690   15.4220   18.3360 C   0  0  0  0  0  0
  -15.1890   14.2330   18.9070 N   0  0  0  0  0  0
  -15.5210   16.5120   18.8740 N   0  0  0  0  0  0
   -9.1330   11.7960   14.8740 N   0  0  0  0  0  0
   -8.6090   10.7300   14.0060 C   0  0  2  0  0  0
   -7.2440   10.1720   14.4660 C   0  0  0  0  0  0
   -6.9390    9.0090   14.1900 O   0  0  0  0  0  0
   -8.5900   11.1920   12.5360 C   0  0  0  0  0  0
   -9.9890   11.1460   11.8720 C   0  0  0  0  0  0
  -10.3370   12.4040   11.0880 C   0  0  0  0  0  0
  -10.1340    9.9110   10.9900 C   0  0  0  0  0  0
   -6.4450   10.9820   15.1700 N   0  0  0  0  0  0
   -5.2190   10.4890   15.8310 C   0  0  2  0  0  0
   -5.5030    9.6400   17.0870 C   0  0  0  0  0  0
   -4.7080    8.7650   17.4230 O   0  0  0  0  0  0
   -4.2620   11.6420   16.1840 C   0  0  0  0  0  0
   -3.4620   12.2610   15.0290 C   0  0  0  0  0  0
   -2.8530   13.5900   15.4540 C   0  0  0  0  0  0
   -2.3760   11.3210   14.5210 C   0  0  0  0  0  0
   -6.6200    9.9030   17.7700 N   0  0  0  0  0  0
   -7.0020    9.1750   18.9960 C   0  0  2  0  0  0
   -8.0880    8.1110   18.8130 C   0  0  0  0  0  0
   -8.0860    7.1150   19.5400 O   0  0  0  0  0  0
   -7.4410   10.1610   20.0820 C   0  0  0  0  0  0
   -6.3060   10.8500   20.7680 C   0  0  0  0  0  0
   -6.3370   12.1890   21.0850 N   0  0  0  0  0  0
   -5.1120   10.3860   21.2090 C   0  0  0  0  0  0
   -5.2140   12.5210   21.6930 C   0  0  0  0  0  0
   -4.4510   11.4460   21.7770 N   0  0  0  0  0  0
   -9.0190    8.3360   17.8830 N   0  0  0  0  0  0
  -10.0550    7.3540   17.5360 C   0  0  2  0  0  0
   -9.5520    6.4430   16.4190 C   0  0  0  0  0  0
   -9.0950    6.9440   15.3870 O   0  0  0  0  0  0
  -11.3520    8.0180   17.0650 C   0  0  0  0  0  0
  -12.0450    8.8200   18.1200 C   0  0  0  0  0  0
  -13.0530    9.7140   17.8280 N   0  0  0  0  0  0
  -11.8780    8.8650   19.4630 C   0  0  0  0  0  0
  -13.4820   10.2700   18.9470 C   0  0  0  0  0  0
  -12.7840    9.7730   19.9530 N   0  0  0  0  0  0
   -9.6310    5.1110   16.6140 N   0  0  0  0  0  0
   -9.4010    4.1830   15.5010 C   0  0  2  0  0  0
  -10.6400    4.0120   14.6140 C   0  0  0  0  0  0
  -11.7690    4.0730   15.1120 O   0  0  0  0  0  0
   -9.0540    2.8610   16.2010 C   0  0  0  0  0  0
   -8.9760    3.1620   17.6640 C   0  0  0  0  0  0
   -9.7710    4.3920   17.8920 C   0  0  0  0  0  0
  -10.4200    3.8000   13.3150 N   0  0  0  0  0  0
  -11.5080    3.5460   12.3580 C   0  0  2  0  0  0
  -10.9870    2.8950   11.0760 C   0  0  0  0  0  0
  -11.7805    2.5459   10.1617 O   0  0  0  0  0  0
  -12.2420    4.8480   12.0170 C   0  0  0  0  0  0
  -13.3760    4.6020   11.2020 O   0  0  0  0  0  0
   -9.7496    2.7055   10.9324 O   0  0  0  0  0  0
   -8.4768   22.5064   15.7470 H   0  0  0  0  0  0
   -6.7573   22.9163   15.4275 H   0  0  0  0  0  0
   -7.2174   22.1089   16.9647 H   0  0  0  0  0  0
   -7.4756   21.0222   14.1860 H   0  0  0  0  0  0
   -5.5502   20.3165   16.5186 H   0  0  0  0  0  0
   -5.6260   19.3996   14.9759 H   0  0  0  0  0  0
   -4.1613   20.5762   12.8008 H   0  0  0  0  0  0
   -2.8366   23.9376   14.9920 H   0  0  0  0  0  0
   -9.8548   18.6574   17.4668 H   0  0  0  0  0  0
  -12.5081   18.8410   16.4958 H   0  0  0  0  0  0
  -11.8389   20.0338   17.6603 H   0  0  0  0  0  0
  -12.0485   20.1931   14.6407 H   0  0  0  0  0  0
  -12.4830   21.4258   15.8728 H   0  0  0  0  0  0
  -10.1963   21.9923   16.2839 H   0  0  0  0  0  0
  -10.0813   21.5433   14.5485 H   0  0  0  0  0  0
  -10.7524   18.6846   13.9915 H   0  0  0  0  0  0
  -11.5744   15.8812   14.1628 H   0  0  0  0  0  0
  -10.6596   17.4997   11.7128 H   0  0  0  0  0  0
  -11.4861   15.9069   11.6330 H   0  0  0  0  0  0
  -12.6797   18.4258   12.8148 H   0  0  0  0  0  0
  -12.2138   18.6193   10.3763 H   0  0  0  0  0  0
  -13.9731   18.5613   10.7344 H   0  0  0  0  0  0
  -13.1379   17.1045   10.0964 H   0  0  0  0  0  0
  -13.6207   16.3460   13.7253 H   0  0  0  0  0  0
  -13.9623   15.7731   12.0575 H   0  0  0  0  0  0
  -14.7975   17.2298   12.6954 H   0  0  0  0  0  0
   -8.4823   17.4246   13.1393 H   0  0  0  0  0  0
   -7.1578   14.9398   12.4961 H   0  0  0  0  0  0
   -6.1320   17.1245   11.9953 H   0  0  0  0  0  0
   -6.0017   17.5064   13.7457 H   0  0  0  0  0  0
   -4.2517   15.8877   14.0043 H   0  0  0  0  0  0
   -4.9589   14.2187   12.3569 H   0  0  0  0  0  0
   -3.2498   14.7180   12.1194 H   0  0  0  0  0  0
   -4.5293   15.3464   11.0264 H   0  0  0  0  0  0
   -3.7785   18.2314   13.2823 H   0  0  0  0  0  0
   -3.8384   17.6961   11.5686 H   0  0  0  0  0  0
   -2.5589   17.0677   12.6617 H   0  0  0  0  0  0
   -7.4879   16.6293   15.6663 H   0  0  0  0  0  0
   -5.8478   14.6381   17.0454 H   0  0  0  0  0  0
   -7.9636   16.6220   18.0297 H   0  0  0  0  0  0
   -7.1015   15.5308   19.1667 H   0  0  0  0  0  0
   -4.9453   16.4844   18.4029 H   0  0  0  0  0  0
   -5.8472   17.6165   17.3392 H   0  0  0  0  0  0
   -7.5249   20.0588   19.8251 H   0  0  0  0  0  0
   -8.2539   18.6915   18.9163 H   0  0  0  0  0  0
   -7.0428   19.7539   18.1217 H   0  0  0  0  0  0
   -9.3688   14.8585   16.4222 H   0  0  0  0  0  0
  -10.0888   12.5305   17.9847 H   0  0  0  0  0  0
  -11.2600   13.7569   15.4321 H   0  0  0  0  0  0
  -11.9598   12.2419   16.0966 H   0  0  0  0  0  0
  -12.5954   13.3473   18.1174 H   0  0  0  0  0  0
  -11.7264   14.8429   17.6329 H   0  0  0  0  0  0
  -13.2528   14.8247   15.5389 H   0  0  0  0  0  0
  -14.2462   13.6283   16.4380 H   0  0  0  0  0  0
  -14.0992   16.5829   16.8879 H   0  0  0  0  0  0
  -14.7417   13.3249   18.4765 H   0  0  0  0  0  0
  -15.8173   14.1630   19.8072 H   0  0  0  0  0  0
  -15.3501   17.4978   18.4168 H   0  0  0  0  0  0
   -9.2278   12.8220   14.4889 H   0  0  0  0  0  0
   -9.3344    9.9118   14.1258 H   0  0  0  0  0  0
   -8.2274   12.2291   12.4823 H   0  0  0  0  0  0
   -7.9217   10.5394   11.9551 H   0  0  0  0  0  0
  -10.7258   11.0899   12.6869 H   0  0  0  0  0  0
  -10.2270   13.2839   11.7390 H   0  0  0  0  0  0
  -11.3758   12.3386   10.7322 H   0  0  0  0  0  0
   -9.6595   12.4983   10.2265 H   0  0  0  0  0  0
   -9.8790    9.0130   11.5718 H   0  0  0  0  0  0
   -9.4557    9.9943   10.1281 H   0  0  0  0  0  0
  -11.1719    9.8347   10.6337 H   0  0  0  0  0  0
   -6.7237   12.0432   15.2490 H   0  0  0  0  0  0
   -4.7705    9.8426   15.0622 H   0  0  0  0  0  0
   -4.8342   12.4713   16.6255 H   0  0  0  0  0  0
   -3.5123   11.2880   16.9069 H   0  0  0  0  0  0
   -4.1576   12.4398   14.1958 H   0  0  0  0  0  0
   -3.6477   14.2578   15.8180 H   0  0  0  0  0  0
   -2.3494   14.0545   14.5934 H   0  0  0  0  0  0
   -2.1219   13.4180   16.2576 H   0  0  0  0  0  0
   -2.8300   10.3660   14.2179 H   0  0  0  0  0  0
   -1.6432   11.1409   15.3213 H   0  0  0  0  0  0
   -1.8707   11.7774   13.6571 H   0  0  0  0  0  0
   -7.2675   10.7025   17.3808 H   0  0  0  0  0  0
   -6.0734    8.6469   19.2584 H   0  0  0  0  0  0
   -8.0734   10.9418   19.6344 H   0  0  0  0  0  0
   -8.0118    9.6252   20.8547 H   0  0  0  0  0  0
   -4.6398    9.3928   21.1843 H   0  0  0  0  0  0
   -4.9591   13.5140   22.0632 H   0  0  0  0  0  0
   -8.9875    9.3075   17.3680 H   0  0  0  0  0  0
  -10.2370    6.8012   18.4694 H   0  0  0  0  0  0
  -11.1324    8.7009   16.2311 H   0  0  0  0  0  0
  -12.0589    7.2449   16.7294 H   0  0  0  0  0  0
  -11.1984    8.3403   20.1506 H   0  0  0  0  0  0
  -14.2763   11.0122   19.0268 H   0  0  0  0  0  0
   -8.6102    4.5812   14.8483 H   0  0  0  0  0  0
   -9.8394    2.1193   15.9939 H   0  0  0  0  0  0
   -8.0898    2.4888   15.8245 H   0  0  0  0  0  0
   -9.3907    2.3180   18.2346 H   0  0  0  0  0  0
   -7.9255    3.3176   17.9509 H   0  0  0  0  0  0
   -9.3700    5.0120   18.7073 H   0  0  0  0  0  0
  -10.8343    4.1819   18.0800 H   0  0  0  0  0  0
   -9.3762    3.8205   12.9684 H   0  0  0  0  0  0
  -12.1838    2.8470   12.8724 H   0  0  0  0  0  0
  -12.5771    5.3339   12.9452 H   0  0  0  0  0  0
  -11.5615    5.5216   11.4755 H   0  0  0  0  0  0
  -14.0083    5.4395   10.8720 H   0  0  0  0  0  0
   -9.3679    2.2378   10.0129 H   0  0  0  0  0  0
  1  2  1  0  0  0
  1103  1  0  0  0
  1104  1  0  0  0
  1105  1  0  0  0
  2  3  1  0  0  0
  2  5  1  0  0  0
  2106  1  0  0  0
  3  4  2  0  0  0
  3 11  1  0  0  0
  5  6  1  0  0  0
  5107  1  0  0  0
  5108  1  0  0  0
  6  7  2  0  0  0
  6  8  1  0  0  0
  7  9  1  0  0  0
  8 10  2  0  0  0
  8109  1  0  0  0
  9 10  1  0  0  0
  9110  1  0  0  0
 11 12  1  0  0  0
 11 17  1  0  0  0
 12 13  1  0  0  0
 12 15  1  0  0  0
 12111  1  0  0  0
 13 14  2  0  0  0
 13 18  1  0  0  0
 15 16  1  0  0  0
 15112  1  0  0  0
 15113  1  0  0  0
 16 17  1  0  0  0
 16114  1  0  0  0
 16115  1  0  0  0
 17116  1  0  0  0
 17117  1  0  0  0
 18 19  1  0  0  0
 18118  1  0  0  0
 19 20  1  0  0  0
 19 22  1  0  0  0
 19119  1  0  0  0
 20 21  2  0  0  0
 20 26  1  0  0  0
 22 23  1  0  0  0
 22120  1  0  0  0
 22121  1  0  0  0
 23 24  1  0  0  0
 23 25  1  0  0  0
 23122  1  0  0  0
 24123  1  0  0  0
 24124  1  0  0  0
 24125  1  0  0  0
 25126  1  0  0  0
 25127  1  0  0  0
 25128  1  0  0  0
 26 27  1  0  0  0
 26129  1  0  0  0
 27 28  1  0  0  0
 27 30  1  0  0  0
 27130  1  0  0  0
 28 29  2  0  0  0
 28 34  1  0  0  0
 30 31  1  0  0  0
 30131  1  0  0  0
 30132  1  0  0  0
 31 32  1  0  0  0
 31 33  1  0  0  0
 31133  1  0  0  0
 32134  1  0  0  0
 32135  1  0  0  0
 32136  1  0  0  0
 33137  1  0  0  0
 33138  1  0  0  0
 33139  1  0  0  0
 34 35  1  0  0  0
 34140  1  0  0  0
 35 36  1  0  0  0
 35 38  1  0  0  0
 35141  1  0  0  0
 36 37  2  0  0  0
 36 42  1  0  0  0
 38 39  1  0  0  0
 38142  1  0  0  0
 38143  1  0  0  0
 39 40  1  0  0  0
 39144  1  0  0  0
 39145  1  0  0  0
 40 41  1  0  0  0
 41146  1  0  0  0
 41147  1  0  0  0
 41148  1  0  0  0
 42 43  1  0  0  0
 42149  1  0  0  0
 43 44  1  0  0  0
 43 46  1  0  0  0
 43150  1  0  0  0
 44 45  2  0  0  0
 44 53  1  0  0  0
 46 47  1  0  0  0
 46151  1  0  0  0
 46152  1  0  0  0
 47 48  1  0  0  0
 47153  1  0  0  0
 47154  1  0  0  0
 48 49  1  0  0  0
 48155  1  0  0  0
 48156  1  0  0  0
 49 50  1  0  0  0
 49157  1  0  0  0
 50 51  1  0  0  0
 50 52  2  0  0  0
 51158  1  0  0  0
 51159  1  0  0  0
 52160  1  0  0  0
 53 54  1  0  0  0
 53161  1  0  0  0
 54 55  1  0  0  0
 54 57  1  0  0  0
 54162  1  0  0  0
 55 56  2  0  0  0
 55 61  1  0  0  0
 57 58  1  0  0  0
 57163  1  0  0  0
 57164  1  0  0  0
 58 59  1  0  0  0
 58 60  1  0  0  0
 58165  1  0  0  0
 59166  1  0  0  0
 59167  1  0  0  0
 59168  1  0  0  0
 60169  1  0  0  0
 60170  1  0  0  0
 60171  1  0  0  0
 61 62  1  0  0  0
 61172  1  0  0  0
 62 63  1  0  0  0
 62 65  1  0  0  0
 62173  1  0  0  0
 63 64  2  0  0  0
 63 69  1  0  0  0
 65 66  1  0  0  0
 65174  1  0  0  0
 65175  1  0  0  0
 66 67  1  0  0  0
 66 68  1  0  0  0
 66176  1  0  0  0
 67177  1  0  0  0
 67178  1  0  0  0
 67179  1  0  0  0
 68180  1  0  0  0
 68181  1  0  0  0
 68182  1  0  0  0
 69 70  1  0  0  0
 69183  1  0  0  0
 70 71  1  0  0  0
 70 73  1  0  0  0
 70184  1  0  0  0
 71 72  2  0  0  0
 71 79  1  0  0  0
 73 74  1  0  0  0
 73185  1  0  0  0
 73186  1  0  0  0
 74 75  2  0  0  0
 74 76  1  0  0  0
 75 77  1  0  0  0
 76 78  2  0  0  0
 76187  1  0  0  0
 77 78  1  0  0  0
 77188  1  0  0  0
 79 80  1  0  0  0
 79189  1  0  0  0
 80 81  1  0  0  0
 80 83  1  0  0  0
 80190  1  0  0  0
 81 82  2  0  0  0
 81 89  1  0  0  0
 83 84  1  0  0  0
 83191  1  0  0  0
 83192  1  0  0  0
 84 85  2  0  0  0
 84 86  1  0  0  0
 85 87  1  0  0  0
 86 88  2  0  0  0
 86193  1  0  0  0
 87 88  1  0  0  0
 87194  1  0  0  0
 89 90  1  0  0  0
 89 95  1  0  0  0
 90 91  1  0  0  0
 90 93  1  0  0  0
 90195  1  0  0  0
 91 92  2  0  0  0
 91 96  1  0  0  0
 93 94  1  0  0  0
 93196  1  0  0  0
 93197  1  0  0  0
 94 95  1  0  0  0
 94198  1  0  0  0
 94199  1  0  0  0
 95200  1  0  0  0
 95201  1  0  0  0
 96 97  1  0  0  0
 96202  1  0  0  0
 97 98  1  0  0  0
 97100  1  0  0  0
 97203  1  0  0  0
 98 99  2  0  0  0
 98102  1  0  0  0
100101  1  0  0  0
100204  1  0  0  0
100205  1  0  0  0
101206  1  0  0  0
102207  1  0  0  0
M  CHG  1   1   1
M  END
> <s_m_source_file>
../4j26_ligand.sdf

> <i_m_source_file_index>
1

> <s_epik_input>
W0NIXTE9TltDSDJdTj1DMVtDSDJdW0NASF0oW05IMytdKUMoPU8pTjJbQ0BASF0oW0NIMl1bQ0gyXVtDSDJdMilDKD1PKVtOSF1bQ0BASF0oW0NIMl1bQ0hdKFtDSDNdKVtDSDNdKUMoPU8pW05IXVtDQEBIXShbQ0gyXVtDSF0oW0NIM10pW0NIM10pQyg9TylbTkhdW0NAQEhdKFtDSDJdW0NIMl1TW0NIM10pQyg9TylbTkhdW0NAQEhdKFtDSDJdW0NIMl1bQ0gyXVtOSF0vQyhbTkgyXSk9TlxbSF0pQyg9TylbTkhdW0NAQEhdKFtDSDJdW0NIXShbQ0gzXSlbQ0gzXSlDKD1PKVtOSF1bQ0BASF0oW0NIMl1bQ0hdKFtDSDNdKVtDSDNdKUMoPU8pW05IXVtDQEBIXShbQ0gyXUMzPU5bQ0gyXU49W0NIXTMpQyg9TylbTkhdW0NAQEhdKFtDSDJdQzQ9TltDSDJdTj1bQ0hdNClDKD1PKU41W0NAQEhdKFtDSDJdW0NIMl1bQ0gyXTUpQyg9TylbTkhdW0NASF0oQyg9TylbT0hdKVtDSDJdW09IXQ==

> <s_epik_cmdline>
J2VwaWtfYXBwJywgJy1pbWFlJywgJ2xpZ2FuZF9wcm8ubWFlJywgJy1vbWFlJywgJ2xpZ2FuZF9wcmVwLm1hZScsICctbXMnLCAnMScsICctcGgnLCAnNycsICctcGh0JywgJzAuNScsICctbnQn

> <s_epik_pKa_notes>
Molecule size exceeds maximum supported for generating protonation states

> <s_epik_Chemistry_Notes>
This compound has an imine and may undergo hydrolysis.

$$$$
