4j2c_ligand
                    3D
 Schrodinger Suite 2020-3.
193195  0  0  1  0            999 V2000
   -8.2780   21.1540   13.0390 N   0  3  0  0  0  0
   -8.5110   19.8160   13.5670 C   0  0  2  0  0  0
   -7.5510   19.4890   14.7100 C   0  0  0  0  0  0
   -7.9580   18.9640   15.7520 O   0  0  0  0  0  0
   -8.3930   18.7930   12.4560 C   0  0  0  0  0  0
   -6.2730   19.8040   14.5120 N   0  0  0  0  0  0
   -5.2510   19.5000   15.5040 C   0  0  2  0  0  0
   -5.6180   20.0950   16.8680 C   0  0  0  0  0  0
   -5.6160   19.3970   17.8860 O   0  0  0  0  0  0
   -3.8900   20.0190   15.0380 C   0  0  0  0  0  0
   -2.7460   19.5340   15.8730 C   0  0  0  0  0  0
   -2.0090   20.3670   16.6870 N   0  0  0  0  0  0
   -2.2210   18.2950   16.0300 C   0  0  0  0  0  0
   -1.0760   19.6650   17.3030 C   0  0  0  0  0  0
   -1.1810   18.4050   16.9200 N   0  0  0  0  0  0
   -5.9570   21.3810   16.8690 N   0  0  0  0  0  0
   -6.2990   22.1020   18.0840 C   0  0  0  0  0  0
   -7.5190   21.5710   18.8080 C   0  0  0  0  0  0
   -7.5460   21.5480   20.0360 O   0  0  0  0  0  0
   -8.5370   21.1650   18.0540 N   0  0  0  0  0  0
   -9.7000   20.5030   18.6340 C   0  0  2  0  0  0
   -9.3010   19.2030   19.3180 C   0  0  0  0  0  0
   -9.6950   18.9330   20.4510 O   0  0  0  0  0  0
  -10.7540   20.2050   17.5630 C   0  0  0  0  0  0
  -11.6360   21.3840   17.2100 C   0  0  0  0  0  0
  -13.0020   20.9240   16.1250 S   0  0  0  0  0  0
  -12.1110   20.4690   14.6380 C   0  0  0  0  0  0
   -8.5190   18.3940   18.6180 N   0  0  0  0  0  0
   -8.0950   17.1090   19.1460 C   0  0  2  0  0  0
   -7.1820   17.2900   20.3530 C   0  0  0  0  0  0
   -7.2760   16.5510   21.3280 O   0  0  0  0  0  0
   -7.4040   16.2930   18.0510 C   0  0  0  0  0  0
   -8.3220   15.8790   16.8970 C   0  0  0  0  0  0
   -7.5780   15.0270   15.8810 C   0  0  0  0  0  0
   -9.5210   15.1240   17.4370 C   0  0  0  0  0  0
   -6.3060   18.2860   20.2810 N   0  0  0  0  0  0
   -5.3640   18.5670   21.3570 C   0  0  2  0  0  0
   -6.0950   18.9380   22.6340 C   0  0  0  0  0  0
   -5.7600   18.4550   23.7160 O   0  0  0  0  0  0
   -4.4310   19.7140   20.9650 C   0  0  0  0  0  0
   -3.4290   20.0500   22.0480 C   0  0  0  0  0  0
   -2.5120   21.1850   21.6370 C   0  0  0  0  0  0
   -1.4120   21.3710   22.6660 C   0  0  0  0  0  0
   -0.6440   20.1040   22.8450 N   0  3  0  0  0  0
   -7.0900   19.8080   22.4850 N   0  0  0  0  0  0
   -7.8780   20.3230   23.5990 C   0  0  2  0  0  0
   -8.6090   19.2100   24.3520 C   0  0  0  0  0  0
   -8.6560   19.2100   25.5820 O   0  0  0  0  0  0
   -8.8800   21.3600   23.0800 C   0  0  0  0  0  0
   -9.5450   22.3140   24.0670 C   0  0  0  0  0  0
   -8.5320   22.9220   25.0220 C   0  0  0  0  0  0
  -10.2850   23.4030   23.3120 C   0  0  0  0  0  0
   -9.1760   18.2590   23.6130 N   0  0  0  0  0  0
   -9.9670   17.2010   24.2290 C   0  0  2  0  0  0
   -9.1290   16.0030   24.6370 C   0  0  0  0  0  0
   -9.4300   15.3540   25.6320 O   0  0  0  0  0  0
  -11.0890   16.7310   23.2980 C   0  0  0  0  0  0
  -12.0260   15.7350   23.9430 C   0  0  0  0  0  0
  -11.7700   14.3690   23.8890 C   0  0  0  0  0  0
  -13.1590   16.1590   24.6220 C   0  0  0  0  0  0
  -12.6220   13.4590   24.4850 C   0  0  0  0  0  0
  -14.0140   15.2520   25.2210 C   0  0  0  0  0  0
  -13.7420   13.9080   25.1470 C   0  0  0  0  0  0
  -14.5930   13.0040   25.7420 O   0  0  0  0  0  0
   -8.0910   15.7030   23.8620 N   0  0  0  0  0  0
   -7.3100   14.4860   24.0650 C   0  0  2  0  0  0
   -5.9520   14.7440   24.7210 C   0  0  0  0  0  0
   -5.3360   13.8300   25.2640 O   0  0  0  0  0  0
   -7.1190   13.7260   22.7420 C   0  0  0  0  0  0
   -8.3950   13.1200   22.1990 C   0  0  0  0  0  0
   -8.9640   12.0090   22.8050 C   0  0  0  0  0  0
   -9.0380   13.6640   21.0850 C   0  0  0  0  0  0
  -10.1300   11.4510   22.3250 C   0  0  0  0  0  0
  -10.2070   13.1150   20.6010 C   0  0  0  0  0  0
  -10.7470   12.0060   21.2200 C   0  0  0  0  0  0
  -11.9120   11.4360   20.7460 O   0  0  0  0  0  0
   -5.4870   15.9830   24.6590 N   0  0  0  0  0  0
   -4.1950   16.3330   25.2200 C   0  0  0  0  0  0
   -3.0480   15.7270   24.4380 C   0  0  0  0  0  0
   -2.1470   15.1110   25.0150 O   0  0  0  0  0  0
   -3.0780   15.9000   23.1180 N   0  0  0  0  0  0
   -1.9760   15.4620   22.2630 C   0  0  2  0  0  0
   -0.6480   15.9520   22.8370 C   0  0  0  0  0  0
   -0.5570   17.0690   23.3570 O   0  0  0  0  0  0
   -2.1510   15.9900   20.8370 C   0  0  0  0  0  0
   -3.2060   15.3260   19.9580 C   0  0  0  0  0  0
   -4.5040   15.1960   20.7030 C   0  0  0  0  0  0
   -3.4040   16.1070   18.6810 C   0  0  0  0  0  0
    0.3760   15.1100   22.7450 N   0  0  0  0  0  0
    1.6900   15.4520   23.2740 C   0  0  2  0  0  0
    2.5800   16.0530   22.1910 C   0  0  0  0  0  0
    3.0238   17.2269   22.3035 O   0  0  0  0  0  0
    2.3570   14.2190   23.8960 C   0  0  0  0  0  0
    3.7560   14.4160   24.0580 O   0  0  0  0  0  0
    2.8742   15.3693   21.1744 O   0  0  0  0  0  0
   -8.3657   21.8895   13.8522 H   0  0  0  0  0  0
   -9.0237   21.3764   12.2615 H   0  0  0  0  0  0
   -7.2687   21.2061   12.6047 H   0  0  0  0  0  0
   -9.5398   19.8254   13.9562 H   0  0  0  0  0  0
   -9.0921   19.0489   11.6462 H   0  0  0  0  0  0
   -8.6367   17.7950   12.8492 H   0  0  0  0  0  0
   -7.3645   18.7923   12.0659 H   0  0  0  0  0  0
   -5.9961   20.3054   13.5729 H   0  0  0  0  0  0
   -5.2293   18.4026   15.5767 H   0  0  0  0  0  0
   -3.7058   19.6889   14.0050 H   0  0  0  0  0  0
   -3.8833   21.1182   15.0784 H   0  0  0  0  0  0
   -2.4741   17.3155   15.5982 H   0  0  0  0  0  0
   -0.3434   20.0582   18.0079 H   0  0  0  0  0  0
   -5.9723   21.8995   15.8990 H   0  0  0  0  0  0
   -5.4586   22.0474   18.7916 H   0  0  0  0  0  0
   -6.5052   23.1546   17.8400 H   0  0  0  0  0  0
   -8.4874   21.3390   16.9690 H   0  0  0  0  0  0
  -10.0885   21.2188   19.3735 H   0  0  0  0  0  0
  -10.2548   19.8882   16.6354 H   0  0  0  0  0  0
  -11.4176   19.4015   17.9151 H   0  0  0  0  0  0
  -12.0628   21.8109   18.1296 H   0  0  0  0  0  0
  -11.0367   22.1489   16.6945 H   0  0  0  0  0  0
  -12.8264   20.1569   13.8629 H   0  0  0  0  0  0
  -11.4260   19.6376   14.8609 H   0  0  0  0  0  0
  -11.5337   21.3332   14.2776 H   0  0  0  0  0  0
   -8.1907   18.7130   17.6178 H   0  0  0  0  0  0
   -9.0156   16.6019   19.4706 H   0  0  0  0  0  0
   -6.5858   16.8844   17.6141 H   0  0  0  0  0  0
   -6.9966   15.3679   18.4849 H   0  0  0  0  0  0
   -8.6737   16.7852   16.3820 H   0  0  0  0  0  0
   -6.7117   15.5861   15.4978 H   0  0  0  0  0  0
   -8.2516   14.7782   15.0477 H   0  0  0  0  0  0
   -7.2325   14.1003   16.3625 H   0  0  0  0  0  0
  -10.0495   15.7512   18.1700 H   0  0  0  0  0  0
   -9.1821   14.1976   17.9237 H   0  0  0  0  0  0
  -10.2012   14.8755   16.6090 H   0  0  0  0  0  0
   -6.3059   18.9077   19.3735 H   0  0  0  0  0  0
   -4.8042   17.6312   21.5015 H   0  0  0  0  0  0
   -3.8688   19.4367   20.0611 H   0  0  0  0  0  0
   -5.0251   20.6178   20.7645 H   0  0  0  0  0  0
   -3.9633   20.3521   22.9609 H   0  0  0  0  0  0
   -2.8094   19.1665   22.2612 H   0  0  0  0  0  0
   -2.0572   20.9543   20.6623 H   0  0  0  0  0  0
   -3.0928   22.1159   21.5594 H   0  0  0  0  0  0
   -0.7246   22.1609   22.3291 H   0  0  0  0  0  0
   -1.8566   21.6585   23.6302 H   0  0  0  0  0  0
    0.1476   20.2577   23.5932 H   0  0  0  0  0  0
   -0.1907   19.8115   21.8864 H   0  0  0  0  0  0
   -1.3228   19.3090   23.1874 H   0  0  0  0  0  0
   -7.3073   20.1384   21.4585 H   0  0  0  0  0  0
   -7.1460   20.7808   24.2806 H   0  0  0  0  0  0
   -8.3817   22.0207   22.3553 H   0  0  0  0  0  0
   -9.7196   20.8454   22.5899 H   0  0  0  0  0  0
  -10.2654   21.7433   24.6714 H   0  0  0  0  0  0
   -8.0065   22.1187   25.5592 H   0  0  0  0  0  0
   -9.0515   23.5679   25.7451 H   0  0  0  0  0  0
   -7.8045   23.5196   24.4531 H   0  0  0  0  0  0
  -11.0129   22.9442   22.6266 H   0  0  0  0  0  0
   -9.5657   24.0028   22.7351 H   0  0  0  0  0  0
  -10.8127   24.0512   24.0271 H   0  0  0  0  0  0
   -9.0402   18.2798   22.5216 H   0  0  0  0  0  0
  -10.3688   17.6844   25.1317 H   0  0  0  0  0  0
  -11.6914   17.5961   22.9840 H   0  0  0  0  0  0
  -10.6519   16.2476   22.4119 H   0  0  0  0  0  0
  -10.8824   14.0103   23.3678 H   0  0  0  0  0  0
  -13.3790   17.2247   24.6844 H   0  0  0  0  0  0
  -12.4083   12.3915   24.4312 H   0  0  0  0  0  0
  -14.9003   15.6025   25.7498 H   0  0  0  0  0  0
  -14.3784   11.9267   25.6848 H   0  0  0  0  0  0
   -7.8256   16.3981   23.0518 H   0  0  0  0  0  0
   -7.9298   13.9090   24.7671 H   0  0  0  0  0  0
   -6.7317   14.4143   21.9764 H   0  0  0  0  0  0
   -6.4037   12.9038   22.8914 H   0  0  0  0  0  0
   -8.4801   11.5690   23.6770 H   0  0  0  0  0  0
   -8.6095   14.5357   20.5905 H   0  0  0  0  0  0
  -10.5622   10.5779   22.8139 H   0  0  0  0  0  0
  -10.7015   13.5544   19.7347 H   0  0  0  0  0  0
  -12.3349   10.5522   21.2460 H   0  0  0  0  0  0
   -6.1013   16.7535   24.1701 H   0  0  0  0  0  0
   -4.0750   17.4264   25.2101 H   0  0  0  0  0  0
   -4.1335   15.9668   26.2554 H   0  0  0  0  0  0
   -3.9594   16.3856   22.6737 H   0  0  0  0  0  0
   -2.0145   14.3627   22.2607 H   0  0  0  0  0  0
   -2.4322   17.0529   20.8715 H   0  0  0  0  0  0
   -1.2054   15.8786   20.2861 H   0  0  0  0  0  0
   -2.8667   14.3143   19.6910 H   0  0  0  0  0  0
   -4.3398   14.6250   21.6288 H   0  0  0  0  0  0
   -5.2371   14.6706   20.0733 H   0  0  0  0  0  0
   -4.8855   16.1971   20.9524 H   0  0  0  0  0  0
   -2.4442   16.1915   18.1503 H   0  0  0  0  0  0
   -3.7802   17.1125   18.9208 H   0  0  0  0  0  0
   -4.1319   15.5860   18.0417 H   0  0  0  0  0  0
    0.2157   14.1373   22.2570 H   0  0  0  0  0  0
    1.5004   16.2119   24.0464 H   0  0  0  0  0  0
    3.6649   17.6503   21.5163 H   0  0  0  0  0  0
    1.9144   14.0217   24.8835 H   0  0  0  0  0  0
    2.1992   13.3481   23.2429 H   0  0  0  0  0  0
    4.3769   13.6190   24.4930 H   0  0  0  0  0  0
  1  2  1  0  0  0
  1 96  1  0  0  0
  1 97  1  0  0  0
  1 98  1  0  0  0
  2  3  1  0  0  0
  2  5  1  0  0  0
  2 99  1  0  0  0
  3  4  2  0  0  0
  3  6  1  0  0  0
  5100  1  0  0  0
  5101  1  0  0  0
  5102  1  0  0  0
  6  7  1  0  0  0
  6103  1  0  0  0
  7  8  1  0  0  0
  7 10  1  0  0  0
  7104  1  0  0  0
  8  9  2  0  0  0
  8 16  1  0  0  0
 10 11  1  0  0  0
 10105  1  0  0  0
 10106  1  0  0  0
 11 12  2  0  0  0
 11 13  1  0  0  0
 12 14  1  0  0  0
 13 15  2  0  0  0
 13107  1  0  0  0
 14 15  1  0  0  0
 14108  1  0  0  0
 16 17  1  0  0  0
 16109  1  0  0  0
 17 18  1  0  0  0
 17110  1  0  0  0
 17111  1  0  0  0
 18 19  2  0  0  0
 18 20  1  0  0  0
 20 21  1  0  0  0
 20112  1  0  0  0
 21 22  1  0  0  0
 21 24  1  0  0  0
 21113  1  0  0  0
 22 23  2  0  0  0
 22 28  1  0  0  0
 24 25  1  0  0  0
 24114  1  0  0  0
 24115  1  0  0  0
 25 26  1  0  0  0
 25116  1  0  0  0
 25117  1  0  0  0
 26 27  1  0  0  0
 27118  1  0  0  0
 27119  1  0  0  0
 27120  1  0  0  0
 28 29  1  0  0  0
 28121  1  0  0  0
 29 30  1  0  0  0
 29 32  1  0  0  0
 29122  1  0  0  0
 30 31  2  0  0  0
 30 36  1  0  0  0
 32 33  1  0  0  0
 32123  1  0  0  0
 32124  1  0  0  0
 33 34  1  0  0  0
 33 35  1  0  0  0
 33125  1  0  0  0
 34126  1  0  0  0
 34127  1  0  0  0
 34128  1  0  0  0
 35129  1  0  0  0
 35130  1  0  0  0
 35131  1  0  0  0
 36 37  1  0  0  0
 36132  1  0  0  0
 37 38  1  0  0  0
 37 40  1  0  0  0
 37133  1  0  0  0
 38 39  2  0  0  0
 38 45  1  0  0  0
 40 41  1  0  0  0
 40134  1  0  0  0
 40135  1  0  0  0
 41 42  1  0  0  0
 41136  1  0  0  0
 41137  1  0  0  0
 42 43  1  0  0  0
 42138  1  0  0  0
 42139  1  0  0  0
 43 44  1  0  0  0
 43140  1  0  0  0
 43141  1  0  0  0
 44142  1  0  0  0
 44143  1  0  0  0
 44144  1  0  0  0
 45 46  1  0  0  0
 45145  1  0  0  0
 46 47  1  0  0  0
 46 49  1  0  0  0
 46146  1  0  0  0
 47 48  2  0  0  0
 47 53  1  0  0  0
 49 50  1  0  0  0
 49147  1  0  0  0
 49148  1  0  0  0
 50 51  1  0  0  0
 50 52  1  0  0  0
 50149  1  0  0  0
 51150  1  0  0  0
 51151  1  0  0  0
 51152  1  0  0  0
 52153  1  0  0  0
 52154  1  0  0  0
 52155  1  0  0  0
 53 54  1  0  0  0
 53156  1  0  0  0
 54 55  1  0  0  0
 54 57  1  0  0  0
 54157  1  0  0  0
 55 56  2  0  0  0
 55 65  1  0  0  0
 57 58  1  0  0  0
 57158  1  0  0  0
 57159  1  0  0  0
 58 59  2  0  0  0
 58 60  1  0  0  0
 59 61  1  0  0  0
 59160  1  0  0  0
 60 62  2  0  0  0
 60161  1  0  0  0
 61 63  2  0  0  0
 61162  1  0  0  0
 62 63  1  0  0  0
 62163  1  0  0  0
 63 64  1  0  0  0
 64164  1  0  0  0
 65 66  1  0  0  0
 65165  1  0  0  0
 66 67  1  0  0  0
 66 69  1  0  0  0
 66166  1  0  0  0
 67 68  2  0  0  0
 67 77  1  0  0  0
 69 70  1  0  0  0
 69167  1  0  0  0
 69168  1  0  0  0
 70 71  2  0  0  0
 70 72  1  0  0  0
 71 73  1  0  0  0
 71169  1  0  0  0
 72 74  2  0  0  0
 72170  1  0  0  0
 73 75  2  0  0  0
 73171  1  0  0  0
 74 75  1  0  0  0
 74172  1  0  0  0
 75 76  1  0  0  0
 76173  1  0  0  0
 77 78  1  0  0  0
 77174  1  0  0  0
 78 79  1  0  0  0
 78175  1  0  0  0
 78176  1  0  0  0
 79 80  2  0  0  0
 79 81  1  0  0  0
 81 82  1  0  0  0
 81177  1  0  0  0
 82 83  1  0  0  0
 82 85  1  0  0  0
 82178  1  0  0  0
 83 84  2  0  0  0
 83 89  1  0  0  0
 85 86  1  0  0  0
 85179  1  0  0  0
 85180  1  0  0  0
 86 87  1  0  0  0
 86 88  1  0  0  0
 86181  1  0  0  0
 87182  1  0  0  0
 87183  1  0  0  0
 87184  1  0  0  0
 88185  1  0  0  0
 88186  1  0  0  0
 88187  1  0  0  0
 89 90  1  0  0  0
 89188  1  0  0  0
 90 91  1  0  0  0
 90 93  1  0  0  0
 90189  1  0  0  0
 91 92  1  0  0  0
 91 95  2  0  0  0
 92190  1  0  0  0
 93 94  1  0  0  0
 93191  1  0  0  0
 93192  1  0  0  0
 94193  1  0  0  0
M  CHG  2   1   1  44   1
M  END
> <s_m_source_file>
../4j2c_ligand.sdf

> <i_m_source_file_index>
1

> <s_epik_input>
W0NIXTE9TltDSDJdTj1DMVtDSDJdW0NASF0oW05IXUMoPU8pW0NAQEhdKFtOSDMrXSlbQ0gzXSlDKD1PKVtOSF1bQ0gyXUMoPU8pW05IXVtDQEBIXShbQ0gyXVtDSDJdU1tDSDNdKUMoPU8pW05IXVtDQEBIXShbQ0gyXVtDSF0oW0NIM10pW0NIM10pQyg9TylbTkhdW0NAQEhdKFtDSDJdW0NIMl1bQ0gyXVtDSDJdW05IMytdKUMoPU8pW05IXVtDQEBIXShbQ0gyXVtDSF0oW0NIM10pW0NIM10pQyg9TylbTkhdW0NAQEhdKFtDSDJdYzJbY0hdW2NIXWMoW09IXSlbY0hdW2NIXTIpQyg9TylbTkhdW0NAQEhdKFtDSDJdYzNbY0hdW2NIXWMoW09IXSlbY0hdW2NIXTMpQyg9TylbTkhdW0NIMl1DKD1PKVtOSF1bQ0BASF0oW0NIMl1bQ0hdKFtDSDNdKVtDSDNdKUMoPU8pW05IXVtDQEhdKEMoPU8pW09IXSlbQ0gyXVtPSF0=

> <s_epik_cmdline>
J2VwaWtfYXBwJywgJy1pbWFlJywgJ2xpZ2FuZF9wcm8ubWFlJywgJy1vbWFlJywgJ2xpZ2FuZF9wcmVwLm1hZScsICctbXMnLCAnMScsICctcGgnLCAnNycsICctcGh0JywgJzAuNScsICctbnQn

> <s_epik_pKa_notes>
Molecule size exceeds maximum supported for generating protonation states

> <s_epik_Chemistry_Notes>
This compound has an imine and may undergo hydrolysis.

$$$$
