4j2t_ligand
                    3D
 Schrodinger Suite 2020-3.
117119  0  0  1  0            999 V2000
   -6.2250   -3.6310  -72.7630 C   0  0  0  0  0  0
   -5.4110   -4.7960  -72.3030 C   0  0  0  0  0  0
   -5.9090   -5.5210  -71.0950 C   0  0  0  0  0  0
   -5.0530   -5.4770  -69.8300 C   0  0  0  0  0  0
   -5.6400   -6.0320  -68.5540 C   0  0  0  0  0  0
   -5.5840   -5.0060  -67.4420 C   0  0  0  0  0  0
   -5.7820   -5.5410  -66.0360 C   0  0  0  0  0  0
   -7.2140   -5.5210  -65.5120 C   0  0  0  0  0  0
   -8.0820   -5.2840  -66.3370 O   0  0  0  0  0  0
   -7.3830   -5.1550  -64.1810 O   0  0  0  0  0  0
   -8.4550   -4.4380  -63.8040 C   0  0  1  0  0  0
   -8.8350   -4.6980  -62.3710 C   0  0  2  0  0  0
  -10.1520   -5.5710  -62.0290 C   0  0  2  0  0  0
   -9.7260   -6.6010  -62.8120 O   0  0  0  0  0  0
  -10.3980   -7.7450  -63.1840 C   0  0  0  0  0  0
  -11.5070   -7.6350  -63.6690 O   0  0  0  0  0  0
   -9.5310   -8.8700  -63.6830 C   0  0  0  0  0  0
  -11.4060   -5.1220  -62.6760 C   0  0  0  0  0  0
  -10.2320   -6.1720  -60.6570 C   0  0  0  0  0  0
  -10.2150   -5.2760  -59.4280 C   0  0  2  0  0  0
  -11.3620   -4.5580  -59.3330 O   0  0  0  0  0  0
  -12.4440   -4.9980  -58.5400 C   0  0  1  0  0  0
  -12.2030   -5.2470  -57.3760 O   0  0  0  0  0  0
  -13.6620   -4.1820  -58.7910 C   0  0  0  0  0  0
  -13.8080   -3.1840  -57.6720 C   0  0  0  0  0  0
  -15.1170   -2.4670  -57.6510 C   0  0  0  0  0  0
   -9.1110   -4.1670  -59.1940 C   0  0  2  0  0  0
   -7.9710   -4.9020  -58.8660 O   0  0  0  0  0  0
   -6.6210   -4.7540  -59.2480 C   0  0  2  0  0  0
   -6.1060   -5.7290  -59.7610 O   0  0  0  0  0  0
   -5.7210   -4.0710  -58.2500 C   0  0  0  0  0  0
   -4.8020   -2.9610  -58.7030 C   0  0  0  0  0  0
   -3.9140   -2.2650  -57.6960 C   0  0  0  0  0  0
   -9.3170   -3.2330  -58.0870 C   0  0  2  0  0  0
   -9.2040   -3.8160  -56.6880 C   0  0  0  0  0  0
  -10.5840   -2.6960  -58.1450 O   0  0  0  0  0  0
   -8.3970   -2.1020  -58.4130 C   0  0  2  0  0  0
   -8.9100   -0.8440  -58.5340 O   0  0  0  0  0  0
   -7.9180   -2.4170  -59.7170 O   0  0  0  0  0  0
   -8.9550   -3.1420  -60.2360 C   0  0  1  0  0  0
   -8.9540   -3.3120  -61.7980 C   0  0  1  0  0  0
   -8.1110   -2.2860  -62.5710 C   0  0  2  0  0  0
   -8.8050   -1.0510  -62.3710 C   0  0  0  0  0  0
   -8.2620   -2.9330  -63.9680 C   0  0  2  0  0  0
   -9.2730   -2.4810  -64.7170 O   0  0  0  0  0  0
   -8.9750   -2.2350  -66.0890 C   0  0  0  0  0  0
   -7.9720   -1.5900  -66.3580 O   0  0  0  0  0  0
  -10.1150   -2.3580  -67.2270 C   0  0  1  0  0  0
   -9.6330   -3.0820  -68.5630 C   0  0  0  0  0  0
  -11.5110   -2.9690  -66.7280 C   0  0  0  0  0  0
  -12.6200   -1.9880  -66.5190 C   0  0  0  0  0  0
   -5.7573   -3.1857  -73.6535 H   0  0  0  0  0  0
   -6.2759   -2.8798  -71.9611 H   0  0  0  0  0  0
   -7.2412   -3.9697  -73.0132 H   0  0  0  0  0  0
   -5.3601   -5.5472  -73.1049 H   0  0  0  0  0  0
   -4.3948   -4.4573  -72.0528 H   0  0  0  0  0  0
   -6.8837   -5.1083  -70.7956 H   0  0  0  0  0  0
   -6.0197   -6.5902  -71.3287 H   0  0  0  0  0  0
   -4.1294   -6.0520  -69.9921 H   0  0  0  0  0  0
   -4.7985   -4.4328  -69.5956 H   0  0  0  0  0  0
   -6.6902   -6.3113  -68.7246 H   0  0  0  0  0  0
   -5.0701   -6.9204  -68.2442 H   0  0  0  0  0  0
   -4.6004   -4.5136  -67.4467 H   0  0  0  0  0  0
   -6.3714   -4.2537  -67.5972 H   0  0  0  0  0  0
   -5.4546   -6.5903  -65.9935 H   0  0  0  0  0  0
   -5.1884   -4.9428  -65.3290 H   0  0  0  0  0  0
   -9.1693   -4.8641  -64.5239 H   0  0  0  0  0  0
   -8.0097   -5.3021  -61.9662 H   0  0  0  0  0  0
   -8.5637   -8.8473  -63.1597 H   0  0  0  0  0  0
   -9.3658   -8.7537  -64.7643 H   0  0  0  0  0  0
  -10.0301   -9.8310  -63.4896 H   0  0  0  0  0  0
  -11.1783   -4.7085  -63.6696 H   0  0  0  0  0  0
  -11.8811   -4.3471  -62.0565 H   0  0  0  0  0  0
  -12.0901   -5.9768  -62.7825 H   0  0  0  0  0  0
  -11.1703   -6.7375  -60.5586 H   0  0  0  0  0  0
   -9.3784   -6.8483  -60.5026 H   0  0  0  0  0  0
  -10.1641   -6.0660  -58.6643 H   0  0  0  0  0  0
  -12.5573   -6.0845  -58.6695 H   0  0  0  0  0  0
  -11.3185   -5.8459  -57.1134 H   0  0  0  0  0  0
  -13.5595   -3.6563  -59.7518 H   0  0  0  0  0  0
  -14.5433   -4.8394  -58.8249 H   0  0  0  0  0  0
  -13.7097   -3.6999  -56.7055 H   0  0  0  0  0  0
  -13.0241   -2.4173  -57.7598 H   0  0  0  0  0  0
  -15.1357   -1.7626  -56.8063 H   0  0  0  0  0  0
  -15.9327   -3.1963  -57.5384 H   0  0  0  0  0  0
  -15.2472   -1.9138  -58.5928 H   0  0  0  0  0  0
   -6.6944   -4.2573  -60.2267 H   0  0  0  0  0  0
   -6.6613   -6.3154  -60.5078 H   0  0  0  0  0  0
   -6.3326   -3.6070  -57.4622 H   0  0  0  0  0  0
   -5.0438   -4.8118  -57.7999 H   0  0  0  0  0  0
   -4.1007   -3.3499  -59.4560 H   0  0  0  0  0  0
   -5.3982   -2.1478  -59.1427 H   0  0  0  0  0  0
   -3.3198   -1.4912  -58.2042 H   0  0  0  0  0  0
   -3.2394   -2.9998  -57.2324 H   0  0  0  0  0  0
   -4.5369   -1.7977  -56.9191 H   0  0  0  0  0  0
   -9.9285   -4.6357  -56.5727 H   0  0  0  0  0  0
   -9.4160   -3.0322  -55.9459 H   0  0  0  0  0  0
   -8.1857   -4.2021  -56.5328 H   0  0  0  0  0  0
  -11.4598   -3.3298  -57.9419 H   0  0  0  0  0  0
   -7.6819   -1.9611  -57.5892 H   0  0  0  0  0  0
   -9.3554   -0.3453  -57.6606 H   0  0  0  0  0  0
   -9.9258   -2.6247  -60.2349 H   0  0  0  0  0  0
  -10.0078   -3.1037  -62.0349 H   0  0  0  0  0  0
   -7.0764   -2.0175  -62.3111 H   0  0  0  0  0  0
   -8.6237   -0.6901  -61.3478 H   0  0  0  0  0  0
   -9.8836   -1.2085  -62.5185 H   0  0  0  0  0  0
   -8.4413   -0.3050  -63.0929 H   0  0  0  0  0  0
   -7.4289   -2.6118  -64.6104 H   0  0  0  0  0  0
  -10.3109   -1.3075  -67.4879 H   0  0  0  0  0  0
   -8.6754   -2.6499  -68.8892 H   0  0  0  0  0  0
  -10.3874   -2.9382  -69.3506 H   0  0  0  0  0  0
   -9.5036   -4.1574  -68.3711 H   0  0  0  0  0  0
  -11.8802   -3.6931  -67.4692 H   0  0  0  0  0  0
  -11.3655   -3.4749  -65.7621 H   0  0  0  0  0  0
  -13.5209   -2.5200  -66.1794 H   0  0  0  0  0  0
  -12.8348   -1.4703  -67.4655 H   0  0  0  0  0  0
  -12.3201   -1.2521  -65.7584 H   0  0  0  0  0  0
  1  2  1  0  0  0
  1 52  1  0  0  0
  1 53  1  0  0  0
  1 54  1  0  0  0
  2  3  1  0  0  0
  2 55  1  0  0  0
  2 56  1  0  0  0
  3  4  1  0  0  0
  3 57  1  0  0  0
  3 58  1  0  0  0
  4  5  1  0  0  0
  4 59  1  0  0  0
  4 60  1  0  0  0
  5  6  1  0  0  0
  5 61  1  0  0  0
  5 62  1  0  0  0
  6  7  1  0  0  0
  6 63  1  0  0  0
  6 64  1  0  0  0
  7  8  1  0  0  0
  7 65  1  0  0  0
  7 66  1  0  0  0
  8  9  2  0  0  0
  8 10  1  0  0  0
 10 11  1  0  0  0
 11 12  1  0  0  0
 11 44  1  0  0  0
 11 67  1  0  0  0
 12 13  1  0  0  0
 12 41  1  0  0  0
 12 68  1  0  0  0
 13 14  1  0  0  0
 13 18  1  0  0  0
 13 19  1  0  0  0
 14 15  1  0  0  0
 15 16  2  0  0  0
 15 17  1  0  0  0
 17 69  1  0  0  0
 17 70  1  0  0  0
 17 71  1  0  0  0
 18 72  1  0  0  0
 18 73  1  0  0  0
 18 74  1  0  0  0
 19 20  1  0  0  0
 19 75  1  0  0  0
 19 76  1  0  0  0
 20 21  1  0  0  0
 20 27  1  0  0  0
 20 77  1  0  0  0
 21 22  1  0  0  0
 22 23  1  0  0  0
 22 24  1  0  0  0
 22 78  1  0  0  0
 23 79  1  0  0  0
 24 25  1  0  0  0
 24 80  1  0  0  0
 24 81  1  0  0  0
 25 26  1  0  0  0
 25 82  1  0  0  0
 25 83  1  0  0  0
 26 84  1  0  0  0
 26 85  1  0  0  0
 26 86  1  0  0  0
 27 28  1  0  0  0
 27 34  1  0  0  0
 27 40  1  0  0  0
 28 29  1  0  0  0
 29 30  1  0  0  0
 29 31  1  0  0  0
 29 87  1  0  0  0
 30 88  1  0  0  0
 31 32  1  0  0  0
 31 89  1  0  0  0
 31 90  1  0  0  0
 32 33  1  0  0  0
 32 91  1  0  0  0
 32 92  1  0  0  0
 33 93  1  0  0  0
 33 94  1  0  0  0
 33 95  1  0  0  0
 34 35  1  0  0  0
 34 36  1  0  0  0
 34 37  1  0  0  0
 35 96  1  0  0  0
 35 97  1  0  0  0
 35 98  1  0  0  0
 36 99  1  0  0  0
 37 38  1  0  0  0
 37 39  1  0  0  0
 37100  1  0  0  0
 38101  1  0  0  0
 39 40  1  0  0  0
 40 41  1  0  0  0
 40102  1  0  0  0
 41 42  1  0  0  0
 41103  1  0  0  0
 42 43  1  0  0  0
 42 44  1  0  0  0
 42104  1  0  0  0
 43105  1  0  0  0
 43106  1  0  0  0
 43107  1  0  0  0
 44 45  1  0  0  0
 44108  1  0  0  0
 45 46  1  0  0  0
 46 47  2  0  0  0
 46 48  1  0  0  0
 48 49  1  0  0  0
 48 50  1  0  0  0
 48109  1  0  0  0
 49110  1  0  0  0
 49111  1  0  0  0
 49112  1  0  0  0
 50 51  1  0  0  0
 50113  1  0  0  0
 50114  1  0  0  0
 51115  1  0  0  0
 51116  1  0  0  0
 51117  1  0  0  0
M  END
> <s_m_source_file>
../4j2t_ligand.sdf

> <i_m_source_file_index>
1

> <s_epik_input>
W0NIM11bQ0gyXVtDSDJdW0NIMl1bQ0gyXVtDSDJdW0NIMl1DKD1PKU9bQ0BIXShbQ0BIXShbQ0BIXTFbQ0gzXSlPQyg9TylbQ0BASF0oW0NIM10pW0NIMl1bQ0gzXSlbQ0BIXShbQ0BAXShbQ0gzXSkoT0MoPU8pW0NIM10pW0NIMl1bQ0BASF0yT1tDQEBIXShbT0hdKVtDSDJdW0NIMl1bQ0gzXSlbQ0BIXTFbQ0BIXShPW0NAQEhdKFtPSF0pW0NAQF0zKFtDSDNdKVtPSF0pW0NAXTIzT1tDQEhdKFtPSF0pW0NIMl1bQ0gyXVtDSDNd

> <s_epik_cmdline>
J2VwaWtfYXBwJywgJy1pbWFlJywgJ2xpZ2FuZF9wcm8ubWFlJywgJy1vbWFlJywgJ2xpZ2FuZF9wcmVwLm1hZScsICctbXMnLCAnMScsICctcGgnLCAnNycsICctcGh0JywgJzAuNScsICctbnQn

> <r_lp_tautomer_probability>
1

> <r_epik_Ionization_Penalty>
  0.0000

> <r_epik_Ionization_Penalty_Charging>
  0.0000

> <r_epik_Ionization_Penalty_Neutral>
  0.0000

> <r_epik_State_Penalty>
 -0.0000

> <r_epik_Charging_Adjusted_Penalty>
0

> <i_epik_Tot_Q>
0

> <i_epik_Tot_abs_Q>
0

> <s_epik_Chemistry_Notes>
This compound has an ester and may undergo hydrolysis at high or low pH. This compound contains an acetal/aminal-like group ( X-CH(R)-Y where X, Y are N, S, or O) that may be acid/base labile, releasing an aldehyde.

$$$$
