4j3d_ligand
                    3D
 Schrodinger Suite 2020-3.
 56 57  0  0  1  0            999 V2000
   -3.0780   11.4870   27.5640 C   0  0  0  0  0  0
   -1.9020   12.1340   27.9460 C   0  0  0  0  0  0
   -0.8270   12.2690   27.0760 C   0  0  0  0  0  0
    0.1540   11.8100   24.8150 C   0  0  0  0  0  0
    1.0130   11.8590   24.0150 C   0  0  0  0  0  0
    2.0560   11.9040   23.0210 C   0  0  0  0  0  0
    3.3930   12.1530   23.3760 C   0  0  0  0  0  0
    4.3930   12.1780   22.4330 C   0  0  0  0  0  0
    4.0750   11.9510   21.0770 C   0  0  0  0  0  0
    2.7420   11.6840   20.7320 C   0  0  0  0  0  0
    1.7500   11.6570   21.6820 C   0  0  0  0  0  0
    5.1270   11.9790   20.0320 C   0  0  0  0  0  0
    5.8460   10.5390   16.8170 C   0  0  0  0  0  0
    5.3650    9.3230   17.6110 C   0  0  0  0  0  0
    6.5500    8.4550   17.9830 C   0  0  0  0  0  0
    5.7550    8.2660   22.7740 C   0  0  0  0  0  0
    5.7170    6.8290   22.7470 O   0  0  0  0  0  0
   -0.9260   11.7340   25.7660 C   0  0  0  0  0  0
   -2.1000   11.0600   25.3870 C   0  0  0  0  0  0
   -3.1650   10.9500   26.2790 C   0  0  0  0  0  0
    6.2860   12.1440   20.4030 O   0  0  0  0  0  0
    4.8180   11.8110   18.7050 N   0  0  0  0  0  0
    5.8330   11.8320   17.6150 C   0  0  2  0  0  0
    7.4440    8.2910   17.1800 O   0  0  0  0  0  0
    6.6530    7.8160   19.1760 N   0  0  0  0  0  0
    5.6660    7.9190   20.2610 C   0  0  0  0  0  0
    6.2290    8.7780   21.4110 C   0  0  0  0  0  0
    5.5620   12.8980   16.5880 C   0  0  0  0  0  0
    4.4210   13.1540   16.2050 O   0  0  0  0  0  0
    6.6160   13.5680   16.0610 N   0  0  0  0  0  0
    6.4020   14.5690   15.0980 O   0  0  0  0  0  0
   -3.9145   11.4025   28.2577 H   0  0  0  0  0  0
   -1.8247   12.5441   28.9530 H   0  0  0  0  0  0
    0.0812   12.7797   27.3962 H   0  0  0  0  0  0
    3.6425   12.3302   24.4222 H   0  0  0  0  0  0
    5.4236   12.3717   22.7304 H   0  0  0  0  0  0
    2.4880   11.4941   19.6891 H   0  0  0  0  0  0
    0.7222   11.4423   21.3894 H   0  0  0  0  0  0
    6.8798   10.3717   16.4806 H   0  0  0  0  0  0
    5.1952   10.6868   15.9425 H   0  0  0  0  0  0
    4.8582    9.6604   18.5271 H   0  0  0  0  0  0
    4.6632    8.7388   16.9977 H   0  0  0  0  0  0
    4.7485    8.6555   22.9869 H   0  0  0  0  0  0
    6.4507    8.5998   23.5580 H   0  0  0  0  0  0
    5.3992    6.2703   23.6397 H   0  0  0  0  0  0
   -2.1775   10.6219   24.3919 H   0  0  0  0  0  0
   -4.0764   10.4386   25.9694 H   0  0  0  0  0  0
    3.7560   11.6545   18.4647 H   0  0  0  0  0  0
    6.7723   12.0150   18.1574 H   0  0  0  0  0  0
    7.5473    7.1884   19.3038 H   0  0  0  0  0  0
    4.7473    8.3870   19.8777 H   0  0  0  0  0  0
    5.4338    6.9136   20.6422 H   0  0  0  0  0  0
    5.8898    9.8149   21.2707 H   0  0  0  0  0  0
    7.3276    8.7426   21.3678 H   0  0  0  0  0  0
    7.6388   13.3282   16.3871 H   0  0  0  0  0  0
    7.2573   15.1127   14.6704 H   0  0  0  0  0  0
  1  2  2  0  0  0
  1 20  1  0  0  0
  1 32  1  0  0  0
  2  3  1  0  0  0
  2 33  1  0  0  0
  3 18  2  0  0  0
  3 34  1  0  0  0
  4  5  3  0  0  0
  4 18  1  0  0  0
  5  6  1  0  0  0
  6  7  2  0  0  0
  6 11  1  0  0  0
  7  8  1  0  0  0
  7 35  1  0  0  0
  8  9  2  0  0  0
  8 36  1  0  0  0
  9 10  1  0  0  0
  9 12  1  0  0  0
 10 11  2  0  0  0
 10 37  1  0  0  0
 11 38  1  0  0  0
 12 21  2  0  0  0
 12 22  1  0  0  0
 13 14  1  0  0  0
 13 23  1  0  0  0
 13 39  1  0  0  0
 13 40  1  0  0  0
 14 15  1  0  0  0
 14 41  1  0  0  0
 14 42  1  0  0  0
 15 24  2  0  0  0
 15 25  1  0  0  0
 16 17  1  0  0  0
 16 27  1  0  0  0
 16 43  1  0  0  0
 16 44  1  0  0  0
 17 45  1  0  0  0
 18 19  1  0  0  0
 19 20  2  0  0  0
 19 46  1  0  0  0
 20 47  1  0  0  0
 22 23  1  0  0  0
 22 48  1  0  0  0
 23 28  1  0  0  0
 23 49  1  0  0  0
 25 26  1  0  0  0
 25 50  1  0  0  0
 26 27  1  0  0  0
 26 51  1  0  0  0
 26 52  1  0  0  0
 27 53  1  0  0  0
 27 54  1  0  0  0
 28 29  2  0  0  0
 28 30  1  0  0  0
 30 31  1  0  0  0
 30 55  1  0  0  0
 31 56  1  0  0  0
M  END
> <s_m_source_file>
../4j3d_ligand.sdf

> <i_m_source_file_index>
1

> <s_epik_input>
W2NIXTFbY0hdW2NIXVtjSF1bY0hdYzFDI0NjMltjSF1bY0hdYyhbY0hdW2NIXTIpQyg9TylbTkhdW0NASF0oQyg9TylbTkhdW09IXSlbQ0gyXVtDSDJdQyg9TylbTkhdW0NIMl1bQ0gyXVtDSDJdW09IXQ==

> <s_epik_cmdline>
J2VwaWtfYXBwJywgJy1pbWFlJywgJ2xpZ2FuZF9wcm8ubWFlJywgJy1vbWFlJywgJ2xpZ2FuZF9wcmVwLm1hZScsICctbXMnLCAnMScsICctcGgnLCAnNycsICctcGh0JywgJzAuNScsICctbnQn

> <r_epik_Ionization_Penalty>
  0.0108

> <r_epik_Ionization_Penalty_Charging>
  0.0000

> <r_epik_Ionization_Penalty_Neutral>
  0.0108

> <r_epik_State_Penalty>
  0.0082

> <r_epik_Charging_Adjusted_Penalty>
0.0082211550030666

> <i_epik_Tot_Q>
0

> <i_epik_Tot_abs_Q>
0

> <s_epik_Chemistry_Notes>
This compound has a N-S or N-O group and may undergo hydrolysis at high or low pH.

$$$$
