4j3e_ligand
                    3D
 Schrodinger Suite 2020-3.
 70 74  0  0  1  0            999 V2000
    7.9740   27.2330   34.4680 O   0  0  0  0  0  0
    8.0030   26.7450   35.6050 C   0  0  0  0  0  0
    7.7840   27.4960   36.7240 N   0  0  0  0  0  0
    7.0940   28.7840   36.5830 C   0  0  0  0  0  0
    8.0740   29.8910   36.8040 C   0  0  0  0  0  0
    8.1960   30.8610   36.0510 O   0  0  0  0  0  0
    8.8410   29.7670   37.8890 N   0  0  0  0  0  0
    8.6910   28.5980   38.7800 C   0  0  0  0  0  0
    8.5940   27.2970   37.9560 C   0  0  0  0  0  0
    8.3720   25.3900   35.7790 N   0  0  0  0  0  0
    8.1970   24.5780   36.9140 C   0  0  0  0  0  0
    7.1070   24.7980   37.8810 C   0  0  0  0  0  0
    7.3190   24.5280   39.2500 C   0  0  0  0  0  0
    6.3090   24.7440   40.1850 C   0  0  0  0  0  0
    5.8240   25.2650   37.4780 C   0  0  0  0  0  0
    5.5800   25.4340   36.1700 O   0  0  0  0  0  0
    4.3130   26.0090   35.8240 C   0  0  0  0  0  0
    4.4280   26.7620   34.4950 C   0  0  0  0  0  0
    3.2260   24.9320   35.7160 C   0  0  0  0  0  0
    4.8050   25.5130   38.4030 C   0  0  0  0  0  0
    5.0630   25.2340   39.7460 C   0  0  0  0  0  0
    4.0870   25.4200   40.6480 O   0  0  0  0  0  0
    4.4110   25.0410   41.9830 C   0  0  0  0  0  0
    9.3620   24.7990   34.8830 C   0  0  2  0  0  0
    8.6530   24.1230   33.7240 C   0  0  0  0  0  0
    7.2780   23.8420   33.8210 C   0  0  0  0  0  0
    6.6180   23.1770   32.7980 C   0  0  0  0  0  0
    7.3510   22.7790   31.6470 C   0  0  0  0  0  0
    6.5860   21.9100   30.4430 Cl  0  0  0  0  0  0
    8.7260   23.1060   31.5160 C   0  0  0  0  0  0
    9.3600   23.7730   32.5570 C   0  0  0  0  0  0
   10.0410   23.7850   35.8420 C   0  0  1  0  0  0
    9.1040   23.6340   36.9600 N   0  0  0  0  0  0
   10.4210   22.4690   35.2130 C   0  0  0  0  0  0
   11.7680   22.2420   34.8740 C   0  0  0  0  0  0
   12.1540   21.0710   34.2600 C   0  0  0  0  0  0
   11.1720   20.0950   33.9660 C   0  0  0  0  0  0
   11.6110   18.7210   33.1300 Cl  0  0  0  0  0  0
    9.8190   20.2830   34.3560 C   0  0  0  0  0  0
    9.4600   21.4720   34.9750 C   0  0  0  0  0  0
    6.6683   28.8631   35.5718 H   0  0  0  0  0  0
    6.2865   28.8508   37.3270 H   0  0  0  0  0  0
    9.5881   30.5411   38.1184 H   0  0  0  0  0  0
    9.5620   28.5325   39.4487 H   0  0  0  0  0  0
    7.7757   28.7092   39.3799 H   0  0  0  0  0  0
    8.1268   26.5214   38.5807 H   0  0  0  0  0  0
    9.6109   26.9816   37.6793 H   0  0  0  0  0  0
    8.2850   24.1457   39.5799 H   0  0  0  0  0  0
    6.4803   24.5368   41.2413 H   0  0  0  0  0  0
    4.0883   26.6938   36.6550 H   0  0  0  0  0  0
    5.2083   27.5330   34.5768 H   0  0  0  0  0  0
    3.4650   27.2384   34.2590 H   0  0  0  0  0  0
    4.6933   26.0553   33.6949 H   0  0  0  0  0  0
    3.1467   24.3939   36.6721 H   0  0  0  0  0  0
    3.4901   24.2234   34.9172 H   0  0  0  0  0  0
    2.2618   25.4065   35.4813 H   0  0  0  0  0  0
    3.8412   25.9110   38.0857 H   0  0  0  0  0  0
    3.5485   25.2329   42.6382 H   0  0  0  0  0  0
    5.2739   25.6275   42.3315 H   0  0  0  0  0  0
    4.6607   23.9700   42.0097 H   0  0  0  0  0  0
   10.0407   25.5303   34.4199 H   0  0  0  0  0  0
    6.7257   24.1499   34.7088 H   0  0  0  0  0  0
    5.5521   22.9626   32.8757 H   0  0  0  0  0  0
    9.2755   22.8382   30.6135 H   0  0  0  0  0  0
   10.4161   24.0282   32.4697 H   0  0  0  0  0  0
   11.0137   24.1415   36.2119 H   0  0  0  0  0  0
   12.5153   23.0026   35.1002 H   0  0  0  0  0  0
   13.1995   20.8986   34.0045 H   0  0  0  0  0  0
    9.0759   19.5070   34.1723 H   0  0  0  0  0  0
    8.4257   21.6335   35.2786 H   0  0  0  0  0  0
  1  2  2  0  0  0
  2  3  1  0  0  0
  2 10  1  0  0  0
  3  4  1  0  0  0
  3  9  1  0  0  0
  4  5  1  0  0  0
  4 41  1  0  0  0
  4 42  1  0  0  0
  5  6  2  0  0  0
  5  7  1  0  0  0
  7  8  1  0  0  0
  7 43  1  0  0  0
  8  9  1  0  0  0
  8 44  1  0  0  0
  8 45  1  0  0  0
  9 46  1  0  0  0
  9 47  1  0  0  0
 10 11  1  0  0  0
 10 24  1  0  0  0
 11 12  1  0  0  0
 11 33  2  0  0  0
 12 13  2  0  0  0
 12 15  1  0  0  0
 13 14  1  0  0  0
 13 48  1  0  0  0
 14 21  2  0  0  0
 14 49  1  0  0  0
 15 16  1  0  0  0
 15 20  2  0  0  0
 16 17  1  0  0  0
 17 18  1  0  0  0
 17 19  1  0  0  0
 17 50  1  0  0  0
 18 51  1  0  0  0
 18 52  1  0  0  0
 18 53  1  0  0  0
 19 54  1  0  0  0
 19 55  1  0  0  0
 19 56  1  0  0  0
 20 21  1  0  0  0
 20 57  1  0  0  0
 21 22  1  0  0  0
 22 23  1  0  0  0
 23 58  1  0  0  0
 23 59  1  0  0  0
 23 60  1  0  0  0
 24 25  1  0  0  0
 24 32  1  0  0  0
 24 61  1  0  0  0
 25 26  2  0  0  0
 25 31  1  0  0  0
 26 27  1  0  0  0
 26 62  1  0  0  0
 27 28  2  0  0  0
 27 63  1  0  0  0
 28 29  1  0  0  0
 28 30  1  0  0  0
 30 31  2  0  0  0
 30 64  1  0  0  0
 31 65  1  0  0  0
 32 33  1  0  0  0
 32 34  1  0  0  0
 32 66  1  0  0  0
 34 35  2  0  0  0
 34 40  1  0  0  0
 35 36  1  0  0  0
 35 67  1  0  0  0
 36 37  2  0  0  0
 36 68  1  0  0  0
 37 38  1  0  0  0
 37 39  1  0  0  0
 39 40  2  0  0  0
 39 69  1  0  0  0
 40 70  1  0  0  0
M  END
> <s_m_source_file>
../4j3e_ligand.sdf

> <i_m_source_file_index>
1

> <s_epik_input>
W2NIXTFbY0hdYyhDbClbY0hdW2NIXWMxW0NAQEhdMltDQEhdKGMzW2NIXVtjSF1jKENsKVtjSF1bY0hdMylOPUMoTjJDKD1PKU40W0NIMl1DKD1PKVtOSF1bQ0gyXVtDSDJdNCljNVtjSF1bY0hdYyhPW0NIM10pW2NIXWM1T1tDSF0oW0NIM10pW0NIM10=

> <s_epik_cmdline>
J2VwaWtfYXBwJywgJy1pbWFlJywgJ2xpZ2FuZF9wcm8ubWFlJywgJy1vbWFlJywgJ2xpZ2FuZF9wcmVwLm1hZScsICctbXMnLCAnMScsICctcGgnLCAnNycsICctcGh0JywgJzAuNScsICctbnQn

> <r_epik_Ionization_Penalty>
  0.0101

> <r_epik_Ionization_Penalty_Charging>
  0.0000

> <r_epik_Ionization_Penalty_Neutral>
  0.0101

> <r_epik_State_Penalty>
  0.0077

> <r_epik_Charging_Adjusted_Penalty>
0.00770064247527451

> <i_epik_Tot_Q>
0

> <i_epik_Tot_abs_Q>
0

> <s_epik_Chemistry_Notes>
This compound has an imine and may undergo hydrolysis.

$$$$
