4j3i_ligand
                    3D
 Schrodinger Suite 2020-3.
 49 51  0  0  1  0            999 V2000
   -8.6540   -6.2660   -0.7220 O   0  0  0  0  0  0
   -7.7440   -7.1740   -0.1290 C   0  0  0  0  0  0
   -9.8780   -6.1690   -0.1790 C   0  0  0  0  0  0
  -10.7000   -5.2150   -0.8430 C   0  0  0  0  0  0
  -12.0080   -4.9840   -0.4400 C   0  0  0  0  0  0
  -14.2140   -6.2910    2.2990 N   0  0  0  0  0  0
  -12.1700   -3.0510   -1.8630 C   0  0  0  0  0  0
  -12.7770   -4.0120   -0.9400 O   0  0  0  0  0  0
  -12.5340   -5.7120    0.6600 C   0  0  0  0  0  0
  -14.2170   -9.5610    7.7900 O   0  0  0  0  0  0
  -12.1400   -7.3740    2.4000 N   0  0  0  0  0  0
  -13.8850   -5.5530    1.1990 C   0  0  0  0  0  0
  -13.3290   -7.1530    2.8950 C   0  0  0  0  0  0
  -17.3310   -9.8320    6.5330 O   0  0  0  0  0  0
  -14.7850   -4.8340    0.6720 O   0  0  0  0  0  0
  -13.6150   -7.8650    4.1130 C   0  0  0  0  0  0
  -14.2040   -7.1300    5.1180 C   0  0  0  0  0  0
  -14.4460   -7.6540    6.3930 C   0  0  0  0  0  0
  -15.1640   -6.8980    7.5140 C   0  0  0  0  0  0
  -14.0260   -9.0010    6.5900 C   0  0  0  0  0  0
  -15.5430   -9.8970    8.2450 C   0  0  0  0  0  0
  -16.3590  -10.6360    7.1560 C   0  0  0  0  0  0
  -13.4240   -9.8140    5.5250 C   0  0  0  0  0  0
  -12.9600  -11.2110    5.7800 C   0  0  0  0  0  0
  -13.1410   -9.1720    4.3710 C   0  0  0  0  0  0
  -11.6860   -6.6590    1.3330 C   0  0  0  0  0  0
  -10.3880   -6.8940    0.8580 C   0  0  0  0  0  0
   -6.7898   -7.1463   -0.6755 H   0  0  0  0  0  0
   -8.1611   -8.1910   -0.1708 H   0  0  0  0  0  0
   -7.5741   -6.8902    0.9201 H   0  0  0  0  0  0
  -10.2939   -4.6545   -1.6851 H   0  0  0  0  0  0
  -15.2190   -6.2058    2.7380 H   0  0  0  0  0  0
  -12.9278   -2.3205   -2.1824 H   0  0  0  0  0  0
  -11.7804   -3.5837   -2.7430 H   0  0  0  0  0  0
  -11.3458   -2.5269   -1.3570 H   0  0  0  0  0  0
  -17.9698  -10.2539    5.7431 H   0  0  0  0  0  0
  -14.4931   -6.0994    4.9122 H   0  0  0  0  0  0
  -15.4062   -5.8805    7.1734 H   0  0  0  0  0  0
  -14.5099   -6.8433    8.3967 H   0  0  0  0  0  0
  -16.0918   -7.4271    7.7773 H   0  0  0  0  0  0
  -15.4733  -10.5519    9.1261 H   0  0  0  0  0  0
  -16.0826   -8.9769    8.5138 H   0  0  0  0  0  0
  -16.8483  -11.4941    7.6400 H   0  0  0  0  0  0
  -15.6448  -10.9985    6.4020 H   0  0  0  0  0  0
  -13.3003  -11.5346    6.7747 H   0  0  0  0  0  0
  -11.8613  -11.2456    5.7392 H   0  0  0  0  0  0
  -13.3767  -11.8814    5.0139 H   0  0  0  0  0  0
  -12.5318   -9.6741    3.6194 H   0  0  0  0  0  0
   -9.7774   -7.6673    1.3241 H   0  0  0  0  0  0
  1  2  1  0  0  0
  1  3  1  0  0  0
  2 28  1  0  0  0
  2 29  1  0  0  0
  2 30  1  0  0  0
  3  4  2  0  0  0
  3 27  1  0  0  0
  4  5  1  0  0  0
  4 31  1  0  0  0
  5  8  1  0  0  0
  5  9  2  0  0  0
  6 12  1  0  0  0
  6 13  1  0  0  0
  6 32  1  0  0  0
  7  8  1  0  0  0
  7 33  1  0  0  0
  7 34  1  0  0  0
  7 35  1  0  0  0
  9 12  1  0  0  0
  9 26  1  0  0  0
 10 20  1  0  0  0
 10 21  1  0  0  0
 11 13  2  0  0  0
 11 26  1  0  0  0
 12 15  2  0  0  0
 13 16  1  0  0  0
 14 22  1  0  0  0
 14 36  1  0  0  0
 16 17  2  0  0  0
 16 25  1  0  0  0
 17 18  1  0  0  0
 17 37  1  0  0  0
 18 19  1  0  0  0
 18 20  2  0  0  0
 19 38  1  0  0  0
 19 39  1  0  0  0
 19 40  1  0  0  0
 20 23  1  0  0  0
 21 22  1  0  0  0
 21 41  1  0  0  0
 21 42  1  0  0  0
 22 43  1  0  0  0
 22 44  1  0  0  0
 23 24  1  0  0  0
 23 25  2  0  0  0
 24 45  1  0  0  0
 24 46  1  0  0  0
 24 47  1  0  0  0
 25 48  1  0  0  0
 26 27  2  0  0  0
 27 49  1  0  0  0
M  END
> <s_m_source_file>
../4j3i_ligand.sdf

> <i_m_source_file_index>
1

> <s_epik_input>
W0NIM11PYzFbY0hdYyhPW0NIM10pW2NIXWMoYzEyKW5jKFtuSF1jMj1PKS1jM1tjSF1jKFtDSDNdKWMoYyhbQ0gzXSlbY0hdMylPW0NIMl1bQ0gyXVtPSF0=

> <s_epik_cmdline>
J2VwaWtfYXBwJywgJy1pbWFlJywgJ2xpZ2FuZF9wcm8ubWFlJywgJy1vbWFlJywgJ2xpZ2FuZF9wcmVwLm1hZScsICctbXMnLCAnMScsICctcGgnLCAnNycsICctcGh0JywgJzAuNScsICctbnQn

> <r_lp_tautomer_probability>
1

> <r_epik_Ionization_Penalty>
  0.0008

> <r_epik_Ionization_Penalty_Charging>
  0.0008

> <r_epik_Ionization_Penalty_Neutral>
  0.0000

> <r_epik_State_Penalty>
 -0.0000

> <r_epik_Charging_Adjusted_Penalty>
0.00083742406417432

> <i_epik_Tot_Q>
0

> <i_epik_Tot_abs_Q>
0

$$$$
