4j3m_ligand
                    3D
 Schrodinger Suite 2020-3.
 33 35  0  0  1  0            999 V2000
    8.3370   11.3810  -13.7720 C   0  0  0  0  0  0
    7.7520   11.6690  -11.4630 C   0  0  0  0  0  0
    7.1360   11.8770   -9.1460 C   0  0  0  0  0  0
    6.2640   11.0870   -5.5660 C   0  0  0  0  0  0
    7.6690   10.9900   -3.5060 C   0  0  0  0  0  0
    6.1990   12.9030   -9.4620 C   0  0  0  0  0  0
    6.0680   13.3030  -10.7520 C   0  0  0  0  0  0
    5.7610   14.1850  -13.5610 C   0  0  0  0  0  0
    6.7040   13.0560  -13.2230 C   0  0  0  0  0  0
    7.4010   12.4590  -14.2240 C   0  0  0  0  0  0
    9.0630   10.7660  -14.5930 O   0  0  0  0  0  0
    8.4790   11.0480  -12.4930 N   0  0  0  0  0  0
    7.8960   11.2730  -10.1330 C   0  0  0  0  0  0
    7.2760   11.5740   -7.6890 C   0  0  0  0  0  0
    6.1280   11.2850   -6.9210 C   0  0  0  0  0  0
    7.5280   11.1800   -4.9680 C   0  0  0  0  0  0
    8.5130   11.3030   -2.7860 O   0  0  0  0  0  0
    6.8330   10.4540   -2.7590 O   0  5  0  0  0  0
    8.6780   11.4470   -5.6740 C   0  0  0  0  0  0
    8.5230   11.6790   -7.0340 C   0  0  0  0  0  0
   10.0000   11.9630   -7.8220 Cl  0  0  0  0  0  0
    6.8400   12.7090  -11.7960 C   0  0  0  0  0  0
    5.3888   10.8579   -4.9580 H   0  0  0  0  0  0
    5.5955   13.3604   -8.6780 H   0  0  0  0  0  0
    5.3589   14.0940  -10.9963 H   0  0  0  0  0  0
    5.7516   14.3413  -14.6498 H   0  0  0  0  0  0
    6.0971   15.1055  -13.0613 H   0  0  0  0  0  0
    4.7471   13.9309  -13.2182 H   0  0  0  0  0  0
    7.2884   12.7414  -15.2707 H   0  0  0  0  0  0
    9.1881   10.2576  -12.2059 H   0  0  0  0  0  0
    8.6063   10.4887   -9.8712 H   0  0  0  0  0  0
    5.1481   11.2196   -7.3940 H   0  0  0  0  0  0
    9.6557   11.4748   -5.1929 H   0  0  0  0  0  0
  1 10  1  0  0  0
  1 11  2  0  0  0
  1 12  1  0  0  0
  2 12  1  0  0  0
  2 13  2  0  0  0
  2 22  1  0  0  0
  3  6  2  0  0  0
  3 13  1  0  0  0
  3 14  1  0  0  0
  4 15  2  0  0  0
  4 16  1  0  0  0
  4 23  1  0  0  0
  5 16  1  0  0  0
  5 17  2  0  0  0
  5 18  1  0  0  0
  6  7  1  0  0  0
  6 24  1  0  0  0
  7 22  2  0  0  0
  7 25  1  0  0  0
  8  9  1  0  0  0
  8 26  1  0  0  0
  8 27  1  0  0  0
  8 28  1  0  0  0
  9 10  2  0  0  0
  9 22  1  0  0  0
 10 29  1  0  0  0
 12 30  1  0  0  0
 13 31  1  0  0  0
 14 15  1  0  0  0
 14 20  2  0  0  0
 15 32  1  0  0  0
 16 19  2  0  0  0
 19 20  1  0  0  0
 19 33  1  0  0  0
 20 21  1  0  0  0
M  CHG  1  18  -1
M  END
> <s_m_source_file>
../4j3m_ligand.sdf

> <i_m_source_file_index>
1

> <s_epik_input>
Tz1jKFtuSF0xKVtjSF1jKFtDSDNdKWMoYzEyKVtjSF1bY0hdYyhbY0hdMiktYzNbY0hdW2NIXWMoQyg9TylbT0hdKVtjSF1jM0Ns

> <s_epik_cmdline>
J2VwaWtfYXBwJywgJy1pbWFlJywgJ2xpZ2FuZF9wcm8ubWFlJywgJy1vbWFlJywgJ2xpZ2FuZF9wcmVwLm1hZScsICctbXMnLCAnMScsICctcGgnLCAnNycsICctcGh0JywgJzAuNScsICctbnQn

> <r_lp_tautomer_probability>
1

> <r_epik_Ionization_Penalty>
  0.0003

> <r_epik_Ionization_Penalty_Charging>
  0.0003

> <r_epik_Ionization_Penalty_Neutral>
  0.0000

> <r_epik_State_Penalty>
 -0.0000

> <r_epik_Charging_Adjusted_Penalty>
0.000334573090875136

> <i_epik_Tot_Q>
-1

> <i_epik_Tot_abs_Q>
1

$$$$
