4j3u_ligand
                    3D
 Schrodinger Suite 2020-3.
189198  0  0  1  0            999 V2000
  139.4430   10.9060    1.3850 C   0  0  2  0  0  0
  139.1130   11.7670    0.1750 C   0  0  1  0  0  0
  139.5390   11.0710   -1.1090 C   0  0  2  0  0  0
  140.9900   10.6000   -1.0600 C   0  0  1  0  0  0
  141.3520    9.9190    0.2660 C   0  0  1  0  0  0
  142.8640    9.8140    0.4540 C   0  0  0  0  0  0
  137.7050   12.0250    0.1400 O   0  0  0  0  0  0
  139.3700   11.9820   -2.2000 O   0  0  0  0  0  0
  141.1840    9.6710   -2.1350 O   0  0  0  0  0  0
  140.8420   10.6270    1.3980 O   0  0  0  0  0  0
  143.3270    8.5250    0.0400 O   0  0  0  0  0  0
  136.2260    7.5410    3.8310 C   0  0  2  0  0  0
  135.5370    8.6790    3.0930 C   0  0  1  0  0  0
  136.4190    9.1580    1.9500 C   0  0  2  0  0  0
  137.8270    9.4740    2.4490 C   0  0  1  0  0  0
  138.4020    8.3470    3.3090 C   0  0  1  0  0  0
  139.7360    8.7170    3.9500 C   0  0  0  0  0  0
  134.2690    8.2430    2.5890 O   0  0  0  0  0  0
  135.8370   10.3320    1.3790 O   0  0  0  0  0  0
  138.6900    9.6890    1.3310 O   0  0  0  0  0  0
  137.4760    8.0080    4.3420 O   0  0  0  0  0  0
  139.6040    9.9280    4.7020 O   0  0  0  0  0  0
  135.7790    2.4380    2.6250 C   0  0  2  0  0  0
  134.5480    3.3350    2.5120 C   0  0  1  0  0  0
  134.9830    4.7600    2.2250 C   0  0  2  0  0  0
  135.9720    5.2000    3.2950 C   0  0  1  0  0  0
  137.1380    4.2200    3.4230 C   0  0  1  0  0  0
  138.1150    4.5980    4.5330 C   0  0  0  0  0  0
  133.6590    2.8750    1.4900 O   0  0  0  0  0  0
  133.8380    5.6230    2.2150 O   0  0  0  0  0  0
  136.4600    6.4770    2.9080 O   0  0  0  0  0  0
  136.6250    2.9090    3.6760 O   0  0  0  0  0  0
  137.4680    4.5570    5.8080 O   0  0  0  0  0  0
  137.8180   -0.6460   -1.1080 C   0  0  1  0  0  0
  138.5550   -0.3220    0.0760 O   0  0  0  0  0  0
  136.3230   -0.5850   -0.8100 C   0  0  2  0  0  0
  135.5890   -0.8090   -2.0200 O   0  0  0  0  0  0
  135.9490    0.7680   -0.2140 C   0  0  1  0  0  0
  134.5780    0.7670    0.2110 O   0  0  0  0  0  0
  136.8580    1.1060    0.9640 C   0  0  2  0  0  0
  136.5320    2.4180    1.4120 O   0  0  0  0  0  0
  138.3250    1.0040    0.5500 C   0  0  1  0  0  0
  139.3220    1.3060    1.6690 C   0  0  0  0  0  0
  140.9500    1.4020    0.9890 S   0  0  0  0  0  0
  140.2090    0.7460   -5.6530 C   0  0  2  0  0  0
  138.7400    0.3660   -5.8060 C   0  0  1  0  0  0
  137.9930    0.5450   -4.4900 C   0  0  2  0  0  0
  138.6970   -0.1830   -3.3470 C   0  0  1  0  0  0
  140.2050    0.0940   -3.3340 C   0  0  1  0  0  0
  140.9550   -0.8280   -2.3750 C   0  0  0  0  0  0
  138.1490    1.1800   -6.8200 O   0  0  0  0  0  0
  136.6470    0.0610   -4.6200 O   0  0  0  0  0  0
  138.1160    0.3010   -2.1360 O   0  0  0  0  0  0
  140.7740   -0.0820   -4.6360 O   0  0  0  0  0  0
  142.2580   -0.2910   -2.1100 O   0  0  0  0  0  0
  142.3590    5.6470   -6.3420 C   0  0  2  0  0  0
  141.3630    5.0970   -7.3600 C   0  0  1  0  0  0
  140.4450    4.0600   -6.7150 C   0  0  2  0  0  0
  141.2380    2.9250   -6.0870 C   0  0  1  0  0  0
  142.3670    3.4680   -5.2100 C   0  0  1  0  0  0
  143.3620    2.3590   -4.8930 C   0  0  0  0  0  0
  140.5980    6.1700   -7.9230 O   0  0  0  0  0  0
  139.5440    3.5150   -7.6840 O   0  0  0  0  0  0
  140.3320    2.1310   -5.3040 O   0  0  0  0  0  0
  143.1020    4.5340   -5.8310 O   0  0  0  0  0  0
  144.1510    2.7210   -3.7550 O   0  0  0  0  0  0
  142.2890    9.9180   -3.0170 C   0  0  2  0  0  0
  141.8040   10.0960   -4.4560 C   0  0  1  0  0  0
  141.2980    8.7840   -5.0520 C   0  0  2  0  0  0
  142.2990    7.6380   -4.8870 C   0  0  1  0  0  0
  142.7340    7.5650   -3.4220 C   0  0  1  0  0  0
  143.8330    6.5290   -3.2110 C   0  0  0  0  0  0
  140.7470   11.0610   -4.4830 O   0  0  0  0  0  0
  140.9890    8.9680   -6.4400 O   0  0  0  0  0  0
  141.7020    6.3880   -5.2940 O   0  0  0  0  0  0
  143.2210    8.8320   -2.9590 O   0  0  0  0  0  0
  144.1790    6.4670   -1.8210 O   0  0  0  0  0  0
  141.0120    2.9980    0.2090 C   0  0  2  0  0  0
  142.2470    3.2110   -0.6680 C   0  0  1  0  0  0
  143.5170    3.3860    0.1600 C   0  0  2  0  0  0
  143.3170    4.4520    1.2300 C   0  0  1  0  0  0
  142.0800    4.1230    2.0620 C   0  0  1  0  0  0
  141.7880    5.1610    3.1400 C   0  0  0  0  0  0
  142.3900    2.1230   -1.5870 O   0  0  0  0  0  0
  144.5990    3.7620   -0.7010 O   0  0  0  0  0  0
  144.4750    4.5030    2.0680 O   0  0  0  0  0  0
  140.9380    4.0270    1.2050 O   0  0  0  0  0  0
  141.7510    6.4810    2.5860 O   0  0  0  0  0  0
  145.3450    5.6150    1.8280 C   0  0  2  0  0  0
  146.7880    5.1620    2.0220 C   0  0  1  0  0  0
  147.0500    4.8310    3.4850 C   0  0  2  0  0  0
  146.6840    6.0250    4.3540 C   0  0  1  0  0  0
  145.2320    6.4160    4.1070 C   0  0  1  0  0  0
  144.8390    7.6310    4.9390 C   0  0  0  0  0  0
  147.0390    4.0140    1.2060 O   0  0  0  0  0  0
  148.4240    4.4920    3.6840 O   0  0  0  0  0  0
  146.8780    5.6980    5.7340 O   0  0  0  0  0  0
  145.0310    6.6980    2.7160 O   0  0  0  0  0  0
  143.5070    8.0480    4.6200 O   0  0  0  0  0  0
  139.2013   11.3917    2.3419 H   0  0  0  0  0  0
  139.6051   12.7474    0.2573 H   0  0  0  0  0  0
  138.8864   10.2049   -1.2935 H   0  0  0  0  0  0
  141.6631   11.4566   -1.2119 H   0  0  0  0  0  0
  140.8613    8.9345    0.2706 H   0  0  0  0  0  0
  143.3631   10.5861   -0.1500 H   0  0  0  0  0  0
  143.1126    9.9612    1.5154 H   0  0  0  0  0  0
  137.2163   12.5255    0.9889 H   0  0  0  0  0  0
  138.3843   12.4296   -2.3951 H   0  0  0  0  0  0
  144.3965    8.2769    0.1078 H   0  0  0  0  0  0
  135.6426    7.1440    4.6749 H   0  0  0  0  0  0
  135.3079    9.5068    3.7802 H   0  0  0  0  0  0
  136.4608    8.4035    1.1507 H   0  0  0  0  0  0
  137.8041   10.4102    3.0261 H   0  0  0  0  0  0
  138.5309    7.4533    2.6808 H   0  0  0  0  0  0
  140.0561    7.9081    4.6233 H   0  0  0  0  0  0
  140.4926    8.8614    3.1647 H   0  0  0  0  0  0
  133.5034    7.8625    3.2811 H   0  0  0  0  0  0
  134.8187   10.2952    0.9645 H   0  0  0  0  0  0
  140.4732   10.3430    5.2333 H   0  0  0  0  0  0
  135.4948    1.3968    2.8374 H   0  0  0  0  0  0
  133.9494    3.2826    3.4334 H   0  0  0  0  0  0
  135.4234    4.8509    1.2211 H   0  0  0  0  0  0
  135.4820    5.3054    4.2742 H   0  0  0  0  0  0
  137.6813    4.1836    2.4672 H   0  0  0  0  0  0
  138.9567    3.8899    4.5374 H   0  0  0  0  0  0
  138.4932    5.6160    4.3577 H   0  0  0  0  0  0
  133.2438    1.8575    1.5392 H   0  0  0  0  0  0
  133.0221    5.4460    1.4988 H   0  0  0  0  0  0
  138.0325    4.8035    6.7194 H   0  0  0  0  0  0
  138.1598   -1.6357   -1.4453 H   0  0  0  0  0  0
  136.0308   -1.3915   -0.1213 H   0  0  0  0  0  0
  135.7342   -1.7404   -2.5870 H   0  0  0  0  0  0
  136.0165    1.5478   -0.9869 H   0  0  0  0  0  0
  133.7787    0.5424   -0.5105 H   0  0  0  0  0  0
  136.6828    0.4477    1.8277 H   0  0  0  0  0  0
  138.5103    1.7160   -0.2678 H   0  0  0  0  0  0
  139.0630    2.2648    2.1419 H   0  0  0  0  0  0
  139.2833    0.5040    2.4209 H   0  0  0  0  0  0
  140.8001    0.6120   -6.5710 H   0  0  0  0  0  0
  138.6408   -0.6739   -6.1506 H   0  0  0  0  0  0
  137.9121    1.6169   -4.2565 H   0  0  0  0  0  0
  138.5343   -1.2693   -3.4061 H   0  0  0  0  0  0
  140.3501    1.1496   -3.0607 H   0  0  0  0  0  0
  140.3950   -0.9097   -1.4317 H   0  0  0  0  0  0
  141.0563   -1.8249   -2.8288 H   0  0  0  0  0  0
  138.5627    1.1758   -7.8392 H   0  0  0  0  0  0
  135.9866    0.4741   -5.3966 H   0  0  0  0  0  0
  142.9455   -0.8231   -1.4360 H   0  0  0  0  0  0
  143.0720    6.3694   -6.7659 H   0  0  0  0  0  0
  141.8940    4.6441   -8.2102 H   0  0  0  0  0  0
  139.8214    4.5550   -5.9560 H   0  0  0  0  0  0
  141.6635    2.2651   -6.8574 H   0  0  0  0  0  0
  141.9107    3.9129   -4.3134 H   0  0  0  0  0  0
  142.8170    1.4288   -4.6748 H   0  0  0  0  0  0
  144.0238    2.2020   -5.7575 H   0  0  0  0  0  0
  141.1083    7.0036   -8.4276 H   0  0  0  0  0  0
  138.8778    4.1814   -8.2516 H   0  0  0  0  0  0
  144.9255    2.0347   -3.3819 H   0  0  0  0  0  0
  142.7988   10.8128   -2.6304 H   0  0  0  0  0  0
  142.6216   10.4942   -5.0749 H   0  0  0  0  0  0
  140.3545    8.5084   -4.5582 H   0  0  0  0  0  0
  143.1652    7.7698   -5.5521 H   0  0  0  0  0  0
  141.8482    7.3310   -2.8132 H   0  0  0  0  0  0
  143.4756    5.5427   -3.5419 H   0  0  0  0  0  0
  144.7209    6.8122   -3.7953 H   0  0  0  0  0  0
  140.9184   12.0755   -4.0938 H   0  0  0  0  0  0
  140.2822    9.7531   -6.7467 H   0  0  0  0  0  0
  144.9586    5.7705   -1.4788 H   0  0  0  0  0  0
  140.1859    3.2641   -0.4668 H   0  0  0  0  0  0
  142.1056    4.1055   -1.2924 H   0  0  0  0  0  0
  143.8088    2.4331    0.6256 H   0  0  0  0  0  0
  143.2269    5.4531    0.7831 H   0  0  0  0  0  0
  142.2322    3.1411    2.5340 H   0  0  0  0  0  0
  140.8134    4.9454    3.6022 H   0  0  0  0  0  0
  142.5745    5.1231    3.9081 H   0  0  0  0  0  0
  141.5620    1.8608   -2.2621 H   0  0  0  0  0  0
  144.8892    3.1086   -1.5370 H   0  0  0  0  0  0
  141.5508    7.3451    3.2366 H   0  0  0  0  0  0
  145.1459    5.9856    0.8116 H   0  0  0  0  0  0
  147.4901    5.9366    1.6800 H   0  0  0  0  0  0
  146.4863    3.9348    3.7835 H   0  0  0  0  0  0
  147.3544    6.8742    4.1556 H   0  0  0  0  0  0
  144.5739    5.5677    4.3463 H   0  0  0  0  0  0
  144.8867    7.3746    6.0076 H   0  0  0  0  0  0
  145.5323    8.4588    4.7293 H   0  0  0  0  0  0
  146.8999    4.0726    0.1164 H   0  0  0  0  0  0
  148.8674    3.6483    3.1348 H   0  0  0  0  0  0
  147.8719    5.3918    6.0922 H   0  0  0  0  0  0
  143.0647    8.9152    5.1321 H   0  0  0  0  0  0
  1  2  1  0  0  0
  1 10  1  0  0  0
  1 20  1  0  0  0
  1100  1  0  0  0
  2  3  1  0  0  0
  2  7  1  0  0  0
  2101  1  0  0  0
  3  4  1  0  0  0
  3  8  1  0  0  0
  3102  1  0  0  0
  4  5  1  0  0  0
  4  9  1  0  0  0
  4103  1  0  0  0
  5  6  1  0  0  0
  5 10  1  0  0  0
  5104  1  0  0  0
  6 11  1  0  0  0
  6105  1  0  0  0
  6106  1  0  0  0
  7107  1  0  0  0
  8108  1  0  0  0
  9 67  1  0  0  0
 11109  1  0  0  0
 12 13  1  0  0  0
 12 21  1  0  0  0
 12 31  1  0  0  0
 12110  1  0  0  0
 13 14  1  0  0  0
 13 18  1  0  0  0
 13111  1  0  0  0
 14 15  1  0  0  0
 14 19  1  0  0  0
 14112  1  0  0  0
 15 16  1  0  0  0
 15 20  1  0  0  0
 15113  1  0  0  0
 16 17  1  0  0  0
 16 21  1  0  0  0
 16114  1  0  0  0
 17 22  1  0  0  0
 17115  1  0  0  0
 17116  1  0  0  0
 18117  1  0  0  0
 19118  1  0  0  0
 22119  1  0  0  0
 23 24  1  0  0  0
 23 32  1  0  0  0
 23 41  1  0  0  0
 23120  1  0  0  0
 24 25  1  0  0  0
 24 29  1  0  0  0
 24121  1  0  0  0
 25 26  1  0  0  0
 25 30  1  0  0  0
 25122  1  0  0  0
 26 27  1  0  0  0
 26 31  1  0  0  0
 26123  1  0  0  0
 27 28  1  0  0  0
 27 32  1  0  0  0
 27124  1  0  0  0
 28 33  1  0  0  0
 28125  1  0  0  0
 28126  1  0  0  0
 29127  1  0  0  0
 30128  1  0  0  0
 33129  1  0  0  0
 34 35  1  0  0  0
 34 36  1  0  0  0
 34 53  1  0  0  0
 34130  1  0  0  0
 35 42  1  0  0  0
 36 37  1  0  0  0
 36 38  1  0  0  0
 36131  1  0  0  0
 37132  1  0  0  0
 38 39  1  0  0  0
 38 40  1  0  0  0
 38133  1  0  0  0
 39134  1  0  0  0
 40 41  1  0  0  0
 40 42  1  0  0  0
 40135  1  0  0  0
 42 43  1  0  0  0
 42136  1  0  0  0
 43 44  1  0  0  0
 43137  1  0  0  0
 43138  1  0  0  0
 44 78  1  0  0  0
 45 46  1  0  0  0
 45 54  1  0  0  0
 45 64  1  0  0  0
 45139  1  0  0  0
 46 47  1  0  0  0
 46 51  1  0  0  0
 46140  1  0  0  0
 47 48  1  0  0  0
 47 52  1  0  0  0
 47141  1  0  0  0
 48 49  1  0  0  0
 48 53  1  0  0  0
 48142  1  0  0  0
 49 50  1  0  0  0
 49 54  1  0  0  0
 49143  1  0  0  0
 50 55  1  0  0  0
 50144  1  0  0  0
 50145  1  0  0  0
 51146  1  0  0  0
 52147  1  0  0  0
 55148  1  0  0  0
 56 57  1  0  0  0
 56 65  1  0  0  0
 56 75  1  0  0  0
 56149  1  0  0  0
 57 58  1  0  0  0
 57 62  1  0  0  0
 57150  1  0  0  0
 58 59  1  0  0  0
 58 63  1  0  0  0
 58151  1  0  0  0
 59 60  1  0  0  0
 59 64  1  0  0  0
 59152  1  0  0  0
 60 61  1  0  0  0
 60 65  1  0  0  0
 60153  1  0  0  0
 61 66  1  0  0  0
 61154  1  0  0  0
 61155  1  0  0  0
 62156  1  0  0  0
 63157  1  0  0  0
 66158  1  0  0  0
 67 68  1  0  0  0
 67 76  1  0  0  0
 67159  1  0  0  0
 68 69  1  0  0  0
 68 73  1  0  0  0
 68160  1  0  0  0
 69 70  1  0  0  0
 69 74  1  0  0  0
 69161  1  0  0  0
 70 71  1  0  0  0
 70 75  1  0  0  0
 70162  1  0  0  0
 71 72  1  0  0  0
 71 76  1  0  0  0
 71163  1  0  0  0
 72 77  1  0  0  0
 72164  1  0  0  0
 72165  1  0  0  0
 73166  1  0  0  0
 74167  1  0  0  0
 77168  1  0  0  0
 78 79  1  0  0  0
 78 87  1  0  0  0
 78169  1  0  0  0
 79 80  1  0  0  0
 79 84  1  0  0  0
 79170  1  0  0  0
 80 81  1  0  0  0
 80 85  1  0  0  0
 80171  1  0  0  0
 81 82  1  0  0  0
 81 86  1  0  0  0
 81172  1  0  0  0
 82 83  1  0  0  0
 82 87  1  0  0  0
 82173  1  0  0  0
 83 88  1  0  0  0
 83174  1  0  0  0
 83175  1  0  0  0
 84176  1  0  0  0
 85177  1  0  0  0
 86 89  1  0  0  0
 88178  1  0  0  0
 89 90  1  0  0  0
 89 98  1  0  0  0
 89179  1  0  0  0
 90 91  1  0  0  0
 90 95  1  0  0  0
 90180  1  0  0  0
 91 92  1  0  0  0
 91 96  1  0  0  0
 91181  1  0  0  0
 92 93  1  0  0  0
 92 97  1  0  0  0
 92182  1  0  0  0
 93 94  1  0  0  0
 93 98  1  0  0  0
 93183  1  0  0  0
 94 99  1  0  0  0
 94184  1  0  0  0
 94185  1  0  0  0
 95186  1  0  0  0
 96187  1  0  0  0
 97188  1  0  0  0
 99189  1  0  0  0
M  END
> <s_m_source_file>
../4j3u_ligand.sdf

> <i_m_source_file_index>
1

> <s_epik_input>
W0NAQEhdMTJbQ0BIXShbT0hdKVtDQEBIXShbT0hdKVtDQEBIXShbQ0BIXShPMSlbQ0gyXVtPSF0pT1tDQEBIXTNbQ0BIXShbT0hdKVtDQEBIXShbT0hdKVtDQEBIXShbQ0BIXShPMylbQ0gyXVtPSF0pT1tDQEBIXTRbQ0BIXShbT0hdKVtDQEBIXShbT0hdKVtDQEBIXShbQ0BIXShPNClbQ0gyXVtPSF0pT1tDQEBIXTVbQ0BIXShbT0hdKVtDQEBIXShbT0hdKVtDQEBIXShbQ0BIXShPNSlbQ0gyXVtPSF0pT1tDQEhdNk9bQ0BASF0oW0NASF0oW0NASF0oW09IXSlbQ0BIXTZbT0hdKU9bQ0BASF03W0NASF0oW09IXSlbQ0BASF0oW09IXSlbQ0BASF0oW0NASF0oTzcpW0NIMl1bT0hdKU9bQ0BASF04W0NASF0oW09IXSlbQ0BASF0oW09IXSlbQ0BIXShPMilbQ0BIXShPOClbQ0gyXVtPSF0pW0NIMl1TW0NAQEhdOVtDQEhdKFtPSF0pW0NAQEhdKFtPSF0pW0NAQEhdKFtDQEhdKE85KVtDSDJdW09IXSlPW0NAQEhdMVtDQEhdKFtPSF0pW0NAQEhdKFtPSF0pW0NASF0oW09IXSlbQ0BIXShPMSlbQ0gyXVtPSF0=

> <s_epik_cmdline>
J2VwaWtfYXBwJywgJy1pbWFlJywgJ2xpZ2FuZF9wcm8ubWFlJywgJy1vbWFlJywgJ2xpZ2FuZF9wcmVwLm1hZScsICctbXMnLCAnMScsICctcGgnLCAnNycsICctcGh0JywgJzAuNScsICctbnQn

> <s_epik_pKa_notes>
Molecule size exceeds maximum supported for generating protonation states

> <s_epik_Chemistry_Notes>
This compound contains an acetal/aminal-like group ( X-CH(R)-Y where X, Y are N, S, or O) that may be acid/base labile, releasing an aldehyde.

$$$$
