4j45_ligand
                    3D
 Schrodinger Suite 2020-3.
 47 46  0  0  1  0            999 V2000
   25.1090   37.9240    7.2040 N   0  3  0  0  0  0
   25.6500   37.8210    8.5540 C   0  0  2  0  0  0
   26.7070   36.7080    8.5430 C   0  0  0  0  0  0
   26.7270   35.8770    7.6360 O   0  0  0  0  0  0
   24.5120   37.4650    9.5570 C   0  0  0  0  0  0
   27.4390   36.6940    9.6360 N   0  0  0  0  0  0
   28.4560   35.6830    9.9220 C   0  0  2  0  0  0
   28.0790   34.7980   11.1320 C   0  0  0  0  0  0
   27.5730   35.2980   12.1540 O   0  0  0  0  0  0
   29.8430   36.3210   10.1610 C   0  0  2  0  0  0
   29.8730   37.0500   11.3920 O   0  0  0  0  0  0
   30.1340   37.2670    9.0610 C   0  0  0  0  0  0
   28.4440   33.5080   11.0450 N   0  0  0  0  0  0
   28.1610   32.5690   12.1460 C   0  0  2  0  0  0
   29.2060   32.8300   13.1790 C   0  0  0  0  0  0
   30.3880   32.8230   12.8750 O   0  0  0  0  0  0
   28.2400   31.1280   11.6770 C   0  0  0  0  0  0
   28.7670   33.0700   14.4020 N   0  0  0  0  0  0
   29.5880   33.6550   15.4510 C   0  0  2  0  0  0
   29.9230   32.5740   16.4580 C   0  0  0  0  0  0
   29.5370   31.4000   16.2930 O   0  5  0  0  0  0
   28.8360   34.7920   16.1220 C   0  0  0  0  0  0
   30.5850   32.8840   17.4540 O   0  0  0  0  0  0
   25.9184   38.1754    6.5028 H   0  0  0  0  0  0
   24.3415   38.7115    7.1757 H   0  0  0  0  0  0
   24.6589   36.9628    6.9151 H   0  0  0  0  0  0
   26.0934   38.7948    8.8092 H   0  0  0  0  0  0
   23.7598   38.2676    9.5581 H   0  0  0  0  0  0
   24.9341   37.3567   10.5670 H   0  0  0  0  0  0
   24.0387   36.5194    9.2540 H   0  0  0  0  0  0
   27.2505   37.5036   10.3564 H   0  0  0  0  0  0
   28.4615   35.0791    9.0026 H   0  0  0  0  0  0
   30.6294   35.5560   10.2407 H   0  0  0  0  0  0
   29.6810   36.5316   12.3430 H   0  0  0  0  0  0
   30.1168   36.7298    8.1012 H   0  0  0  0  0  0
   31.1280   37.7127    9.2140 H   0  0  0  0  0  0
   29.3735   38.0617    9.0501 H   0  0  0  0  0  0
   28.9594   33.1548   10.1397 H   0  0  0  0  0  0
   27.1462   32.7428   12.5333 H   0  0  0  0  0  0
   27.4661   30.9470   10.9166 H   0  0  0  0  0  0
   28.0787   30.4548   12.5319 H   0  0  0  0  0  0
   29.2325   30.9377   11.2426 H   0  0  0  0  0  0
   27.7201   32.8023   14.6078 H   0  0  0  0  0  0
   30.5044   34.0466   14.9854 H   0  0  0  0  0  0
   28.6014   35.5665   15.3769 H   0  0  0  0  0  0
   29.4602   35.2254   16.9174 H   0  0  0  0  0  0
   27.9020   34.4072   16.5575 H   0  0  0  0  0  0
  1  2  1  0  0  0
  1 24  1  0  0  0
  1 25  1  0  0  0
  1 26  1  0  0  0
  2  3  1  0  0  0
  2  5  1  0  0  0
  2 27  1  0  0  0
  3  4  2  0  0  0
  3  6  1  0  0  0
  5 28  1  0  0  0
  5 29  1  0  0  0
  5 30  1  0  0  0
  6  7  1  0  0  0
  6 31  1  0  0  0
  7  8  1  0  0  0
  7 10  1  0  0  0
  7 32  1  0  0  0
  8  9  2  0  0  0
  8 13  1  0  0  0
 10 11  1  0  0  0
 10 12  1  0  0  0
 10 33  1  0  0  0
 11 34  1  0  0  0
 12 35  1  0  0  0
 12 36  1  0  0  0
 12 37  1  0  0  0
 13 14  1  0  0  0
 13 38  1  0  0  0
 14 15  1  0  0  0
 14 17  1  0  0  0
 14 39  1  0  0  0
 15 16  2  0  0  0
 15 18  1  0  0  0
 17 40  1  0  0  0
 17 41  1  0  0  0
 17 42  1  0  0  0
 18 19  1  0  0  0
 18 43  1  0  0  0
 19 20  1  0  0  0
 19 22  1  0  0  0
 19 44  1  0  0  0
 20 21  1  0  0  0
 20 23  2  0  0  0
 22 45  1  0  0  0
 22 46  1  0  0  0
 22 47  1  0  0  0
M  CHG  2   1   1  21  -1
M  END
> <s_m_source_file>
../4j45_ligand.sdf

> <i_m_source_file_index>
1

> <s_epik_input>
W05IMytdW0NAQEhdKFtDSDNdKUMoPU8pW05IXVtDQEBIXShbQ0BIXShbT0hdKVtDSDNdKUMoPU8pW05IXVtDQEBIXShbQ0gzXSlDKD1PKVtOSF1bQ0BASF0oW0NIM10pQyg9TylbT0hd

> <s_epik_cmdline>
J2VwaWtfYXBwJywgJy1pbWFlJywgJ2xpZ2FuZF9wcm8ubWFlJywgJy1vbWFlJywgJ2xpZ2FuZF9wcmVwLm1hZScsICctbXMnLCAnMScsICctcGgnLCAnNycsICctcGh0JywgJzAuNScsICctbnQn

> <r_epik_Ionization_Penalty>
  0.1267

> <r_epik_Ionization_Penalty_Charging>
  0.1267

> <r_epik_Ionization_Penalty_Neutral>
  0.0000

> <r_epik_State_Penalty>
  0.1160

> <r_epik_Charging_Adjusted_Penalty>
0.242677239817082

> <i_epik_Tot_Q>
0

> <i_epik_Tot_abs_Q>
2

$$$$
