4j46_ligand
                    3D
 Schrodinger Suite 2020-3.
 62 62  0  0  1  0            999 V2000
   25.1840   37.8700    6.9680 N   0  3  0  0  0  0
   25.7180   37.7980    8.3350 C   0  0  2  0  0  0
   26.7600   36.6950    8.4660 C   0  0  0  0  0  0
   26.8130   35.8270    7.5730 O   0  0  0  0  0  0
   24.5900   37.5530    9.3810 C   0  0  0  0  0  0
   27.4380   36.7170    9.5960 N   0  0  0  0  0  0
   28.5030   35.8090    9.9810 C   0  0  2  0  0  0
   28.0030   34.8410   11.0730 C   0  0  0  0  0  0
   27.5370   35.2630   12.1340 O   0  0  0  0  0  0
   29.7080   36.6100   10.5230 C   0  0  0  0  0  0
   30.7610   35.7110   11.1680 C   0  0  0  0  0  0
   30.2710   37.4860    9.3890 C   0  0  0  0  0  0
   28.1850   33.5220   10.8390 N   0  0  0  0  0  0
   27.7360   32.5370   11.8310 C   0  0  2  0  0  0
   28.7910   32.1690   12.8760 C   0  0  0  0  0  0
   30.0040   32.1610   12.5900 O   0  0  0  0  0  0
   27.3410   31.3550   10.9400 C   0  0  0  0  0  0
   28.2580   31.4140    9.7590 C   0  0  0  0  0  0
   28.4650   32.9030    9.5170 C   0  0  0  0  0  0
   28.3980   31.9450   14.1070 N   0  0  0  0  0  0
   29.2390   31.3490   15.1650 C   0  0  2  0  0  0
   28.5810   30.1150   15.7750 C   0  0  0  0  0  0
   27.3940   30.1790   16.0720 O   0  0  0  0  0  0
   29.5400   32.3570   16.2850 C   0  0  2  0  0  0
   30.2330   33.5920   15.7370 C   0  0  0  0  0  0
   30.3620   31.7540   17.4150 C   0  0  0  0  0  0
   30.6860   34.4980   16.8520 C   0  0  0  0  0  0
   29.2040   29.0340   16.0520 O   0  5  0  0  0  0
   26.0086   38.0433    6.2609 H   0  0  0  0  0  0
   24.4622   38.6972    6.8994 H   0  0  0  0  0  0
   24.6814   36.9234    6.7204 H   0  0  0  0  0  0
   26.1945   38.7786    8.4810 H   0  0  0  0  0  0
   23.8315   38.3450    9.2946 H   0  0  0  0  0  0
   25.0198   37.5657   10.3935 H   0  0  0  0  0  0
   24.1222   36.5753    9.1935 H   0  0  0  0  0  0
   27.1272   37.5213   10.2790 H   0  0  0  0  0  0
   28.7677   35.2642    9.0628 H   0  0  0  0  0  0
   29.3809   37.2657   11.3434 H   0  0  0  0  0  0
   30.2948   35.1148   11.9662 H   0  0  0  0  0  0
   31.5621   36.3325   11.5947 H   0  0  0  0  0  0
   31.1844   35.0384   10.4075 H   0  0  0  0  0  0
   29.4648   38.1059    8.9698 H   0  0  0  0  0  0
   30.6864   36.8419    8.5999 H   0  0  0  0  0  0
   31.0641   38.1360    9.7871 H   0  0  0  0  0  0
   26.9230   32.9512   12.4453 H   0  0  0  0  0  0
   27.4683   30.4161   11.4987 H   0  0  0  0  0  0
   26.2893   31.4607   10.6355 H   0  0  0  0  0  0
   29.2006   30.9012   10.0007 H   0  0  0  0  0  0
   27.7815   30.9195    8.8997 H   0  0  0  0  0  0
   27.7649   33.3034    8.7690 H   0  0  0  0  0  0
   29.4968   33.1351    9.2146 H   0  0  0  0  0  0
   27.3604   32.2359   14.3278 H   0  0  0  0  0  0
   30.1654   31.0629   14.6454 H   0  0  0  0  0  0
   28.5724   32.6567   16.7138 H   0  0  0  0  0  0
   31.1126   33.2888   15.1501 H   0  0  0  0  0  0
   29.5361   34.1479   15.0926 H   0  0  0  0  0  0
   29.8510   30.8609   17.8040 H   0  0  0  0  0  0
   30.4737   32.4932   18.2220 H   0  0  0  0  0  0
   31.3554   31.4721   17.0358 H   0  0  0  0  0  0
   31.1834   35.3822   16.4268 H   0  0  0  0  0  0
   31.3910   33.9571   17.5004 H   0  0  0  0  0  0
   29.8144   34.8162   17.4429 H   0  0  0  0  0  0
  1  2  1  0  0  0
  1 29  1  0  0  0
  1 30  1  0  0  0
  1 31  1  0  0  0
  2  3  1  0  0  0
  2  5  1  0  0  0
  2 32  1  0  0  0
  3  4  2  0  0  0
  3  6  1  0  0  0
  5 33  1  0  0  0
  5 34  1  0  0  0
  5 35  1  0  0  0
  6  7  1  0  0  0
  6 36  1  0  0  0
  7  8  1  0  0  0
  7 10  1  0  0  0
  7 37  1  0  0  0
  8  9  2  0  0  0
  8 13  1  0  0  0
 10 11  1  0  0  0
 10 12  1  0  0  0
 10 38  1  0  0  0
 11 39  1  0  0  0
 11 40  1  0  0  0
 11 41  1  0  0  0
 12 42  1  0  0  0
 12 43  1  0  0  0
 12 44  1  0  0  0
 13 14  1  0  0  0
 13 19  1  0  0  0
 14 15  1  0  0  0
 14 17  1  0  0  0
 14 45  1  0  0  0
 15 16  2  0  0  0
 15 20  1  0  0  0
 17 18  1  0  0  0
 17 46  1  0  0  0
 17 47  1  0  0  0
 18 19  1  0  0  0
 18 48  1  0  0  0
 18 49  1  0  0  0
 19 50  1  0  0  0
 19 51  1  0  0  0
 20 21  1  0  0  0
 20 52  1  0  0  0
 21 22  1  0  0  0
 21 24  1  0  0  0
 21 53  1  0  0  0
 22 23  2  0  0  0
 22 28  1  0  0  0
 24 25  1  0  0  0
 24 26  1  0  0  0
 24 54  1  0  0  0
 25 27  1  0  0  0
 25 55  1  0  0  0
 25 56  1  0  0  0
 26 57  1  0  0  0
 26 58  1  0  0  0
 26 59  1  0  0  0
 27 60  1  0  0  0
 27 61  1  0  0  0
 27 62  1  0  0  0
M  CHG  2   1   1  28  -1
M  END
> <s_m_source_file>
../4j46_ligand.sdf

> <i_m_source_file_index>
1

> <s_epik_input>
W05IMytdW0NAQEhdKFtDSDNdKUMoPU8pW05IXVtDQEBIXShbQ0hdKFtDSDNdKVtDSDNdKUMoPU8pTjFbQ0BASF0oW0NIMl1bQ0gyXVtDSDJdMSlDKD1PKVtOSF1bQ0BIXShDKD1PKVtPSF0pW0NAQEhdKFtDSDNdKVtDSDJdW0NIM10=

> <s_epik_cmdline>
J2VwaWtfYXBwJywgJy1pbWFlJywgJ2xpZ2FuZF9wcm8ubWFlJywgJy1vbWFlJywgJ2xpZ2FuZF9wcmVwLm1hZScsICctbXMnLCAnMScsICctcGgnLCAnNycsICctcGh0JywgJzAuNScsICctbnQn

> <r_epik_Ionization_Penalty>
  0.1187

> <r_epik_Ionization_Penalty_Charging>
  0.1187

> <r_epik_Ionization_Penalty_Neutral>
  0.0000

> <r_epik_State_Penalty>
  0.1080

> <r_epik_Charging_Adjusted_Penalty>
0.22668522275432

> <i_epik_Tot_Q>
0

> <i_epik_Tot_abs_Q>
2

$$$$
