4j47_ligand
                    3D
 Schrodinger Suite 2020-3.
 63 63  0  0  1  0            999 V2000
   25.2110   37.9890    7.1900 N   0  3  0  0  0  0
   25.6930   37.7650    8.5800 C   0  0  2  0  0  0
   26.7480   36.6440    8.5590 C   0  0  0  0  0  0
   26.8210   35.9190    7.5570 O   0  0  0  0  0  0
   24.5180   37.3740    9.5190 C   0  0  0  0  0  0
   24.0890   36.0420    9.2470 O   0  0  0  0  0  0
   27.4070   36.4750    9.6920 N   0  0  0  0  0  0
   28.3680   35.3680    9.8580 C   0  0  2  0  0  0
   28.0950   34.6410   11.1670 C   0  0  0  0  0  0
   27.7190   35.2540   12.1650 O   0  0  0  0  0  0
   29.8470   35.8320    9.8200 C   0  0  0  0  0  0
   30.1710   36.4620    8.4770 C   0  0  0  0  0  0
   30.1880   36.7380   10.9680 C   0  0  0  0  0  0
   28.3560   33.3140   11.1890 N   0  0  0  0  0  0
   28.1820   32.5840   12.4530 C   0  0  2  0  0  0
   29.3020   32.8700   13.3920 C   0  0  0  0  0  0
   30.3970   33.2190   12.9550 O   0  0  0  0  0  0
   28.1790   31.1040   12.0230 C   0  0  0  0  0  0
   28.9700   31.0790   10.7510 C   0  0  0  0  0  0
   28.6970   32.4170   10.0650 C   0  0  0  0  0  0
   29.0430   32.7560   14.6840 N   0  0  0  0  0  0
   30.1030   32.8120   15.7060 C   0  0  2  0  0  0
   30.5400   31.3860   15.9620 C   0  0  0  0  0  0
   29.7000   30.5540   16.3640 O   0  0  0  0  0  0
   29.5820   33.4510   16.9750 C   0  0  2  0  0  0
   29.1160   34.8660   16.6380 C   0  0  0  0  0  0
   30.6430   33.4770   18.0780 C   0  0  0  0  0  0
   28.5280   35.5590   17.8060 C   0  0  0  0  0  0
   31.7300   31.0380   15.7480 O   0  5  0  0  0  0
   26.0603   38.2638    6.5472 H   0  0  0  0  0  0
   24.4697   38.8017    7.1855 H   0  0  0  0  0  0
   24.7467   37.0671    6.8099 H   0  0  0  0  0  0
   26.1350   38.7108    8.9266 H   0  0  0  0  0  0
   24.8487   37.4378   10.5662 H   0  0  0  0  0  0
   23.6753   38.0624    9.3580 H   0  0  0  0  0  0
   23.2616   35.6022    9.8232 H   0  0  0  0  0  0
   27.2288   37.1774   10.5196 H   0  0  0  0  0  0
   28.1771   34.7104    8.9971 H   0  0  0  0  0  0
   30.5077   34.9618    9.9474 H   0  0  0  0  0  0
   29.9047   35.7631    7.6704 H   0  0  0  0  0  0
   31.2467   36.6866    8.4274 H   0  0  0  0  0  0
   29.5963   37.3927    8.3604 H   0  0  0  0  0  0
   29.9363   36.2396   11.9157 H   0  0  0  0  0  0
   29.6135   37.6720   10.8811 H   0  0  0  0  0  0
   31.2639   36.9660   10.9481 H   0  0  0  0  0  0
   27.2751   32.9099   12.9834 H   0  0  0  0  0  0
   28.6475   30.4930   12.8086 H   0  0  0  0  0  0
   27.1427   30.7694   11.8674 H   0  0  0  0  0  0
   30.0382   30.9614   10.9858 H   0  0  0  0  0  0
   28.6365   30.2358   10.1283 H   0  0  0  0  0  0
   27.8486   32.3653    9.3668 H   0  0  0  0  0  0
   29.5810   32.8074    9.5395 H   0  0  0  0  0  0
   27.9947   32.6152   14.9860 H   0  0  0  0  0  0
   30.9378   33.4271   15.3390 H   0  0  0  0  0  0
   28.7432   32.8482   17.3531 H   0  0  0  0  0  0
   29.9724   35.4600   16.2861 H   0  0  0  0  0  0
   28.3512   34.8219   15.8486 H   0  0  0  0  0  0
   30.9628   32.4489   18.3034 H   0  0  0  0  0  0
   30.2194   33.9361   18.9834 H   0  0  0  0  0  0
   31.5092   34.0647   17.7398 H   0  0  0  0  0  0
   28.2099   36.5697   17.5107 H   0  0  0  0  0  0
   29.2791   35.6302   18.6065 H   0  0  0  0  0  0
   27.6580   34.9921   18.1689 H   0  0  0  0  0  0
  1  2  1  0  0  0
  1 30  1  0  0  0
  1 31  1  0  0  0
  1 32  1  0  0  0
  2  3  1  0  0  0
  2  5  1  0  0  0
  2 33  1  0  0  0
  3  4  2  0  0  0
  3  7  1  0  0  0
  5  6  1  0  0  0
  5 34  1  0  0  0
  5 35  1  0  0  0
  6 36  1  0  0  0
  7  8  1  0  0  0
  7 37  1  0  0  0
  8  9  1  0  0  0
  8 11  1  0  0  0
  8 38  1  0  0  0
  9 10  2  0  0  0
  9 14  1  0  0  0
 11 12  1  0  0  0
 11 13  1  0  0  0
 11 39  1  0  0  0
 12 40  1  0  0  0
 12 41  1  0  0  0
 12 42  1  0  0  0
 13 43  1  0  0  0
 13 44  1  0  0  0
 13 45  1  0  0  0
 14 15  1  0  0  0
 14 20  1  0  0  0
 15 16  1  0  0  0
 15 18  1  0  0  0
 15 46  1  0  0  0
 16 17  2  0  0  0
 16 21  1  0  0  0
 18 19  1  0  0  0
 18 47  1  0  0  0
 18 48  1  0  0  0
 19 20  1  0  0  0
 19 49  1  0  0  0
 19 50  1  0  0  0
 20 51  1  0  0  0
 20 52  1  0  0  0
 21 22  1  0  0  0
 21 53  1  0  0  0
 22 23  1  0  0  0
 22 25  1  0  0  0
 22 54  1  0  0  0
 23 24  2  0  0  0
 23 29  1  0  0  0
 25 26  1  0  0  0
 25 27  1  0  0  0
 25 55  1  0  0  0
 26 28  1  0  0  0
 26 56  1  0  0  0
 26 57  1  0  0  0
 27 58  1  0  0  0
 27 59  1  0  0  0
 27 60  1  0  0  0
 28 61  1  0  0  0
 28 62  1  0  0  0
 28 63  1  0  0  0
M  CHG  2   1   1  29  -1
M  END
> <s_m_source_file>
../4j47_ligand.sdf

> <i_m_source_file_index>
1

> <s_epik_input>
W09IXVtDSDJdW0NASF0oW05IMytdKUMoPU8pW05IXVtDQEBIXShbQ0hdKFtDSDNdKVtDSDNdKUMoPU8pTjFbQ0BASF0oW0NIMl1bQ0gyXVtDSDJdMSlDKD1PKVtOSF1bQ0BIXShDKD1PKVtPSF0pW0NAQEhdKFtDSDNdKVtDSDJdW0NIM10=

> <s_epik_cmdline>
J2VwaWtfYXBwJywgJy1pbWFlJywgJ2xpZ2FuZF9wcm8ubWFlJywgJy1vbWFlJywgJ2xpZ2FuZF9wcmVwLm1hZScsICctbXMnLCAnMScsICctcGgnLCAnNycsICctcGh0JywgJzAuNScsICctbnQn

> <r_epik_Ionization_Penalty>
  0.1439

> <r_epik_Ionization_Penalty_Charging>
  0.1439

> <r_epik_Ionization_Penalty_Neutral>
  0.0000

> <r_epik_State_Penalty>
  0.1330

> <r_epik_Charging_Adjusted_Penalty>
0.276962068562231

> <i_epik_Tot_Q>
0

> <i_epik_Tot_abs_Q>
2

$$$$
