4j48_ligand
                    3D
 Schrodinger Suite 2020-3.
 70 69  0  0  1  0            999 V2000
  -38.1350  -25.0330   -7.2830 N   0  3  0  0  0  0
  -38.0510  -25.5140   -8.6690 C   0  0  2  0  0  0
  -36.9540  -26.5990   -8.6860 C   0  0  0  0  0  0
  -36.1590  -26.7640   -7.7250 O   0  0  0  0  0  0
  -37.7430  -24.3890   -9.6490 C   0  0  0  0  0  0
  -36.9350  -27.3530   -9.7690 N   0  0  0  0  0  0
  -35.9730  -28.4180   -9.8760 C   0  0  2  0  0  0
  -35.2510  -28.3680  -11.2180 C   0  0  0  0  0  0
  -35.7500  -27.8260  -12.2260 O   0  0  0  0  0  0
  -36.6670  -29.7690   -9.5950 C   0  0  0  0  0  0
  -37.6660  -30.2410  -10.6310 C   0  0  0  0  0  0
  -38.6990  -31.6130   -9.9690 S   0  0  0  0  0  0
  -37.6590  -33.0190  -10.4230 C   0  0  0  0  0  0
  -34.0610  -28.9370  -11.2280 N   0  0  0  0  0  0
  -33.3760  -29.1840  -12.4770 C   0  0  2  0  0  0
  -34.0900  -30.1800  -13.3360 C   0  0  0  0  0  0
  -34.7850  -31.0770  -12.8570 O   0  0  0  0  0  0
  -31.9560  -29.6670  -12.2290 C   0  0  0  0  0  0
  -31.0690  -28.4710  -11.9870 C   0  0  0  0  0  0
  -29.7540  -28.8940  -11.4440 C   0  0  0  0  0  0
  -29.9780  -29.5580  -10.1920 N   0  0  0  0  0  0
  -29.0420  -30.1850   -9.5110 C   0  0  0  0  0  0
  -27.7840  -30.2400   -9.9690 N   0  0  0  0  0  0
  -29.3820  -30.7470   -8.3630 N   0  3  0  0  0  0
  -33.9120  -29.9580  -14.6250 N   0  0  0  0  0  0
  -34.5260  -30.7140  -15.6580 C   0  0  2  0  0  0
  -33.7130  -31.9650  -15.8840 C   0  0  0  0  0  0
  -34.3050  -33.0160  -16.1090 O   0  5  0  0  0  0
  -34.5750  -29.9110  -16.9490 C   0  0  0  0  0  0
  -35.0800  -30.7780  -18.0940 C   0  0  0  0  0  0
  -35.4690  -28.6990  -16.7670 C   0  0  0  0  0  0
  -32.6240  -31.9357  -15.8482 O   0  0  0  0  0  0
  -38.3582  -25.8777   -6.6147 H   0  0  0  0  0  0
  -38.9343  -24.2814   -7.2035 H   0  0  0  0  0  0
  -37.1754  -24.5799   -6.9934 H   0  0  0  0  0  0
  -39.0379  -25.9032   -8.9596 H   0  0  0  0  0  0
  -38.5451  -23.6373   -9.6082 H   0  0  0  0  0  0
  -37.6756  -24.7984  -10.6678 H   0  0  0  0  0  0
  -36.7859  -23.9190   -9.3786 H   0  0  0  0  0  0
  -37.6481  -27.1718  -10.5867 H   0  0  0  0  0  0
  -35.2152  -28.2265   -9.1020 H   0  0  0  0  0  0
  -35.9088  -30.5628   -9.5236 H   0  0  0  0  0  0
  -37.2222  -29.7060   -8.6475 H   0  0  0  0  0  0
  -38.3247  -29.4061  -10.9122 H   0  0  0  0  0  0
  -37.1290  -30.6003  -11.5213 H   0  0  0  0  0  0
  -38.1392  -33.9520  -10.0928 H   0  0  0  0  0  0
  -36.6768  -32.9204   -9.9376 H   0  0  0  0  0  0
  -37.5279  -33.0406  -11.5149 H   0  0  0  0  0  0
  -33.5900  -29.2241  -10.2763 H   0  0  0  0  0  0
  -33.3926  -28.2073  -12.9828 H   0  0  0  0  0  0
  -31.9413  -30.3255  -11.3480 H   0  0  0  0  0  0
  -31.5990  -30.2231  -13.1084 H   0  0  0  0  0  0
  -30.9069  -27.9370  -12.9349 H   0  0  0  0  0  0
  -31.5517  -27.7968  -11.2642 H   0  0  0  0  0  0
  -29.2677  -29.5796  -12.1536 H   0  0  0  0  0  0
  -29.1175  -28.0095  -11.2940 H   0  0  0  0  0  0
  -30.9827  -29.5631   -9.7442 H   0  0  0  0  0  0
  -27.5261  -29.7646  -10.9269 H   0  0  0  0  0  0
  -27.0091  -30.7605   -9.3871 H   0  0  0  0  0  0
  -30.4216  -30.6881   -8.0084 H   0  0  0  0  0  0
  -33.2384  -29.1261  -14.8783 H   0  0  0  0  0  0
  -35.5415  -30.9410  -15.3013 H   0  0  0  0  0  0
  -33.5598  -29.5666  -17.1956 H   0  0  0  0  0  0
  -34.4208  -31.6508  -18.2114 H   0  0  0  0  0  0
  -35.0815  -30.1918  -19.0248 H   0  0  0  0  0  0
  -36.1026  -31.1179  -17.8731 H   0  0  0  0  0  0
  -35.0897  -28.0850  -15.9369 H   0  0  0  0  0  0
  -36.4933  -29.0297  -16.5403 H   0  0  0  0  0  0
  -35.4722  -28.1036  -17.6919 H   0  0  0  0  0  0
  -28.6252  -31.2733   -7.7628 H   0  0  0  0  0  0
  1  2  1  0  0  0
  1 33  1  0  0  0
  1 34  1  0  0  0
  1 35  1  0  0  0
  2  3  1  0  0  0
  2  5  1  0  0  0
  2 36  1  0  0  0
  3  4  2  0  0  0
  3  6  1  0  0  0
  5 37  1  0  0  0
  5 38  1  0  0  0
  5 39  1  0  0  0
  6  7  1  0  0  0
  6 40  1  0  0  0
  7  8  1  0  0  0
  7 10  1  0  0  0
  7 41  1  0  0  0
  8  9  2  0  0  0
  8 14  1  0  0  0
 10 11  1  0  0  0
 10 42  1  0  0  0
 10 43  1  0  0  0
 11 12  1  0  0  0
 11 44  1  0  0  0
 11 45  1  0  0  0
 12 13  1  0  0  0
 13 46  1  0  0  0
 13 47  1  0  0  0
 13 48  1  0  0  0
 14 15  1  0  0  0
 14 49  1  0  0  0
 15 16  1  0  0  0
 15 18  1  0  0  0
 15 50  1  0  0  0
 16 17  2  0  0  0
 16 25  1  0  0  0
 18 19  1  0  0  0
 18 51  1  0  0  0
 18 52  1  0  0  0
 19 20  1  0  0  0
 19 53  1  0  0  0
 19 54  1  0  0  0
 20 21  1  0  0  0
 20 55  1  0  0  0
 20 56  1  0  0  0
 21 22  1  0  0  0
 21 57  1  0  0  0
 22 23  1  0  0  0
 22 24  2  0  0  0
 23 58  1  0  0  0
 23 59  1  0  0  0
 24 60  1  0  0  0
 24 70  1  0  0  0
 25 26  1  0  0  0
 25 61  1  0  0  0
 26 27  1  0  0  0
 26 29  1  0  0  0
 26 62  1  0  0  0
 27 28  1  0  0  0
 27 32  2  0  0  0
 29 30  1  0  0  0
 29 31  1  0  0  0
 29 63  1  0  0  0
 30 64  1  0  0  0
 30 65  1  0  0  0
 30 66  1  0  0  0
 31 67  1  0  0  0
 31 68  1  0  0  0
 31 69  1  0  0  0
M  CHG  3   1   1  24   1  28  -1
M  END
> <s_m_source_file>
../4j48_ligand.sdf

> <i_m_source_file_index>
1

> <s_epik_input>
W05IMytdW0NAQEhdKFtDSDNdKUMoPU8pW05IXVtDQEBIXShbQ0gyXVtDSDJdU1tDSDNdKUMoPU8pW05IXVtDQEhdKEMoPU8pW05IXVtDQEhdKEMoPU8pW09IXSlbQ0hdKFtDSDNdKVtDSDNdKVtDSDJdW0NIMl1bQ0gyXVtOSF0vQyhbTkgyXSk9TlxbSF0=

> <s_epik_cmdline>
J2VwaWtfYXBwJywgJy1pbWFlJywgJ2xpZ2FuZF9wcm8ubWFlJywgJy1vbWFlJywgJ2xpZ2FuZF9wcmVwLm1hZScsICctbXMnLCAnMScsICctcGgnLCAnNycsICctcGh0JywgJzAuNScsICctbnQn

> <r_epik_Ionization_Penalty>
  0.1277

> <r_epik_Ionization_Penalty_Charging>
  0.1277

> <r_epik_Ionization_Penalty_Neutral>
  0.0000

> <r_epik_State_Penalty>
  0.1169

> <r_epik_Charging_Adjusted_Penalty>
0.244578893417225

> <i_epik_Tot_Q>
1

> <i_epik_Tot_abs_Q>
3

> <s_epik_Chemistry_Notes>
This compound has an imine and may undergo hydrolysis.

$$$$
