4j4n_ligand
                    3D
 Schrodinger Suite 2020-3.
 37 39  0  0  1  0            999 V2000
   -9.0660   11.8840  -30.5610 O   0  0  0  0  0  0
   -9.1310   10.9730  -29.7580 C   0  0  0  0  0  0
   -9.2290    9.6750  -30.0920 N   0  0  0  0  0  0
   -9.2620    9.1960  -31.4270 C   0  0  0  0  0  0
   -8.4490    9.7780  -32.4150 C   0  0  0  0  0  0
   -8.4580    9.3310  -33.7430 C   0  0  0  0  0  0
   -9.2900    8.2770  -34.1050 C   0  0  0  0  0  0
  -10.1040    7.6880  -33.1360 C   0  0  0  0  0  0
  -10.0990    8.1310  -31.8000 C   0  0  0  0  0  0
  -11.0030    7.4550  -30.7730 C   0  0  0  0  0  0
  -11.9210    6.4070  -31.3740 C   0  0  0  0  0  0
   -9.1200   11.3560  -28.3000 C   0  0  0  0  0  0
   -8.7280   10.0240  -27.2170 S   0  0  0  0  0  0
  -10.0670    8.9380  -27.0480 C   0  0  0  0  0  0
   -9.9110    7.7310  -26.4940 N   0  0  0  0  0  0
  -11.1510    7.2200  -26.5650 C   0  0  0  0  0  0
  -11.5430    5.9950  -26.1350 N   0  0  0  0  0  0
  -12.8210    5.6320  -26.2800 C   0  0  0  0  0  0
  -13.7410    6.4990  -26.8670 C   0  0  0  0  0  0
  -13.3470    7.7570  -27.3190 C   0  0  0  0  0  0
  -12.0170    8.1320  -27.1590 C   0  0  0  0  0  0
  -11.3030    9.2400  -27.4680 N   0  0  0  0  0  0
   -9.2895    8.9079  -29.3060 H   0  0  0  0  0  0
   -7.7913   10.6024  -32.1396 H   0  0  0  0  0  0
   -7.8178    9.8057  -34.4866 H   0  0  0  0  0  0
   -9.3063    7.9152  -35.1331 H   0  0  0  0  0  0
  -10.7594    6.8650  -33.4209 H   0  0  0  0  0  0
  -10.3846    6.9551  -30.0129 H   0  0  0  0  0  0
  -11.6382    8.2116  -30.2892 H   0  0  0  0  0  0
  -12.5404    5.9636  -30.5804 H   0  0  0  0  0  0
  -11.3173    5.6206  -31.8505 H   0  0  0  0  0  0
  -12.5708    6.8771  -32.1268 H   0  0  0  0  0  0
   -8.3700   12.1433  -28.1334 H   0  0  0  0  0  0
  -10.1137   11.7293  -28.0114 H   0  0  0  0  0  0
  -13.1447    4.6401  -25.9318 H   0  0  0  0  0  0
  -14.7918    6.1931  -26.9779 H   0  0  0  0  0  0
  -14.0642    8.4313  -27.7870 H   0  0  0  0  0  0
  1  2  2  0  0  0
  2  3  1  0  0  0
  2 12  1  0  0  0
  3  4  1  0  0  0
  3 23  1  0  0  0
  4  5  2  0  0  0
  4  9  1  0  0  0
  5  6  1  0  0  0
  5 24  1  0  0  0
  6  7  2  0  0  0
  6 25  1  0  0  0
  7  8  1  0  0  0
  7 26  1  0  0  0
  8  9  2  0  0  0
  8 27  1  0  0  0
  9 10  1  0  0  0
 10 11  1  0  0  0
 10 28  1  0  0  0
 10 29  1  0  0  0
 11 30  1  0  0  0
 11 31  1  0  0  0
 11 32  1  0  0  0
 12 13  1  0  0  0
 12 33  1  0  0  0
 12 34  1  0  0  0
 13 14  1  0  0  0
 14 15  2  0  0  0
 14 22  1  0  0  0
 15 16  1  0  0  0
 16 17  2  0  0  0
 16 21  1  0  0  0
 17 18  1  0  0  0
 18 19  2  0  0  0
 18 35  1  0  0  0
 19 20  1  0  0  0
 19 36  1  0  0  0
 20 21  1  0  0  0
 20 37  1  0  0  0
 21 22  2  0  0  0
M  END
> <s_m_source_file>
../4j4n_ligand.sdf

> <i_m_source_file_index>
1

> <s_epik_input>
TjFbQ0hdPVtDSF1bQ0gyXUMoQz0xMik9TkMoPU4yKVNbQ0gyXUMoPU8pW05IXWMzW2NIXVtjSF1bY0hdW2NIXWMzW0NIMl1bQ0gzXQ==

> <s_epik_cmdline>
J2VwaWtfYXBwJywgJy1pbWFlJywgJ2xpZ2FuZF9wcm8ubWFlJywgJy1vbWFlJywgJ2xpZ2FuZF9wcmVwLm1hZScsICctbXMnLCAnMScsICctcGgnLCAnNycsICctcGh0JywgJzAuNScsICctbnQn

> <r_lp_tautomer_probability>
1

> <r_epik_Ionization_Penalty>
  0.0000

> <r_epik_Ionization_Penalty_Charging>
  0.0000

> <r_epik_Ionization_Penalty_Neutral>
  0.0000

> <r_epik_State_Penalty>
 -0.0000

> <r_epik_Charging_Adjusted_Penalty>
0

> <i_epik_Tot_Q>
0

> <i_epik_Tot_abs_Q>
0

> <s_epik_Chemistry_Notes>
This compound has an imine and may undergo hydrolysis.

$$$$
