4j4o_ligand
                    3D
 Schrodinger Suite 2020-3.
 37 39  0  0  1  0            999 V2000
  -16.0780   20.5760   -9.4090 O   0  0  0  0  0  0
  -15.1680   21.0940   -8.7800 C   0  0  0  0  0  0
  -14.4250   22.0180   -9.3460 N   0  0  0  0  0  0
  -14.8300   22.4080  -10.6160 C   0  0  0  0  0  0
  -15.0000   21.5450  -11.6970 C   0  0  0  0  0  0
  -15.4170   22.0130  -12.9320 C   0  0  0  0  0  0
  -15.7250   23.3560  -13.0490 C   0  0  0  0  0  0
  -15.6040   24.2050  -11.9560 C   0  0  0  0  0  0
  -15.1420   23.7310  -10.7250 C   0  0  0  0  0  0
  -14.9960   24.6120   -9.4890 C   0  0  0  0  0  0
  -13.5770   24.9500   -9.0560 C   0  0  0  0  0  0
  -14.7760   20.6940   -7.3820 C   0  0  0  0  0  0
  -13.5990   21.8060   -6.6110 S   0  0  0  0  0  0
  -12.0310   21.1420   -7.0750 C   0  0  0  0  0  0
  -10.8640   21.7080   -6.7130 N   0  0  0  0  0  0
   -9.9460   20.8740   -7.2680 C   0  0  0  0  0  0
   -8.5940   21.0040   -7.1910 N   0  0  0  0  0  0
   -7.8230   20.0810   -7.8090 C   0  0  0  0  0  0
   -8.3750   19.0180   -8.5270 C   0  0  0  0  0  0
   -9.7720   18.8910   -8.6120 C   0  0  0  0  0  0
  -10.5690   19.8340   -7.9480 C   0  0  0  0  0  0
  -11.9180   20.0130   -7.8120 N   0  0  0  0  0  0
  -13.5528   22.4250   -8.8134 H   0  0  0  0  0  0
  -14.8009   20.4811  -11.5680 H   0  0  0  0  0  0
  -15.5000   21.3421  -13.7870 H   0  0  0  0  0  0
  -16.0653   23.7515  -14.0060 H   0  0  0  0  0  0
  -15.8733   25.2561  -12.0600 H   0  0  0  0  0  0
  -15.4927   25.5774   -9.6661 H   0  0  0  0  0  0
  -15.4613   24.1131   -8.6261 H   0  0  0  0  0  0
  -13.6090   25.5862   -8.1592 H   0  0  0  0  0  0
  -13.0638   25.4862   -9.8679 H   0  0  0  0  0  0
  -13.0324   24.0219   -8.8279 H   0  0  0  0  0  0
  -15.6706   20.6725   -6.7423 H   0  0  0  0  0  0
  -14.3154   19.6953   -7.4019 H   0  0  0  0  0  0
   -6.7306   20.1855   -7.7339 H   0  0  0  0  0  0
   -7.7174   18.2876   -9.0210 H   0  0  0  0  0  0
  -10.2250   18.0788   -9.1805 H   0  0  0  0  0  0
  1  2  2  0  0  0
  2  3  1  0  0  0
  2 12  1  0  0  0
  3  4  1  0  0  0
  3 23  1  0  0  0
  4  5  2  0  0  0
  4  9  1  0  0  0
  5  6  1  0  0  0
  5 24  1  0  0  0
  6  7  2  0  0  0
  6 25  1  0  0  0
  7  8  1  0  0  0
  7 26  1  0  0  0
  8  9  2  0  0  0
  8 27  1  0  0  0
  9 10  1  0  0  0
 10 11  1  0  0  0
 10 28  1  0  0  0
 10 29  1  0  0  0
 11 30  1  0  0  0
 11 31  1  0  0  0
 11 32  1  0  0  0
 12 13  1  0  0  0
 12 33  1  0  0  0
 12 34  1  0  0  0
 13 14  1  0  0  0
 14 15  2  0  0  0
 14 22  1  0  0  0
 15 16  1  0  0  0
 16 17  2  0  0  0
 16 21  1  0  0  0
 17 18  1  0  0  0
 18 19  2  0  0  0
 18 35  1  0  0  0
 19 20  1  0  0  0
 19 36  1  0  0  0
 20 21  1  0  0  0
 20 37  1  0  0  0
 21 22  2  0  0  0
M  END
> <s_m_source_file>
../4j4o_ligand.sdf

> <i_m_source_file_index>
1

> <s_epik_input>
TjFbQ0hdPVtDSF1bQ0gyXUMoQz0xMik9TkMoPU4yKVNbQ0gyXUMoPU8pW05IXWMzW2NIXVtjSF1bY0hdW2NIXWMzW0NIMl1bQ0gzXQ==

> <s_epik_cmdline>
J2VwaWtfYXBwJywgJy1pbWFlJywgJ2xpZ2FuZF9wcm8ubWFlJywgJy1vbWFlJywgJ2xpZ2FuZF9wcmVwLm1hZScsICctbXMnLCAnMScsICctcGgnLCAnNycsICctcGh0JywgJzAuNScsICctbnQn

> <r_lp_tautomer_probability>
1

> <r_epik_Ionization_Penalty>
  0.0000

> <r_epik_Ionization_Penalty_Charging>
  0.0000

> <r_epik_Ionization_Penalty_Neutral>
  0.0000

> <r_epik_State_Penalty>
 -0.0000

> <r_epik_Charging_Adjusted_Penalty>
0

> <i_epik_Tot_Q>
0

> <i_epik_Tot_abs_Q>
0

> <s_epik_Chemistry_Notes>
This compound has an imine and may undergo hydrolysis.

$$$$
