4j52_ligand
                    3D
 Schrodinger Suite 2020-3.
 78 82  0  0  1  0            999 V2000
   30.8930  -36.2540  -20.9970 C   0  0  0  0  0  0
   31.6400  -35.2380  -20.3010 O   0  0  0  0  0  0
   32.7110  -35.5950  -19.5290 C   0  0  0  0  0  0
   33.3410  -36.8310  -19.6730 C   0  0  0  0  0  0
   34.4360  -37.1550  -18.8520 C   0  0  0  0  0  0
   34.8660  -36.2230  -17.8880 C   0  0  0  0  0  0
   34.2400  -34.9910  -17.7460 C   0  0  0  0  0  0
   33.1490  -34.6760  -18.5680 C   0  0  0  0  0  0
   32.4240  -33.4750  -18.4990 N   0  0  0  0  0  0
   32.5130  -32.4540  -17.5680 C   0  0  0  0  0  0
   31.6980  -31.4220  -17.7160 N   0  0  0  0  0  0
   31.7510  -30.3830  -16.8770 C   0  0  0  0  0  0
   32.6580  -30.3940  -15.8350 C   0  0  0  0  0  0
   32.7200  -29.2580  -14.9970 N   0  0  0  0  0  0
   32.6870  -27.9330  -15.6350 C   0  0  0  0  0  0
   32.8720  -29.3010  -13.6470 C   0  0  0  0  0  0
   32.9350  -28.2430  -13.0110 O   0  0  0  0  0  0
   32.9240  -30.6140  -12.9190 C   0  0  2  0  0  0
   33.1210  -30.3230  -11.5820 F   0  0  0  0  0  0
   34.1100  -31.4860  -13.2840 C   0  0  0  0  0  0
   34.4760  -31.6510  -14.6920 N   0  0  0  0  0  0
   35.3710  -32.8260  -14.8190 C   0  0  0  0  0  0
   36.7380  -32.5670  -14.1100 C   0  0  0  0  0  0
   37.1130  -33.9350  -13.4900 C   0  0  0  0  0  0
   35.7670  -34.5370  -13.0760 C   0  0  0  0  0  0
   34.7790  -34.0920  -14.1610 C   0  0  0  0  0  0
   33.5130  -31.5240  -15.6960 C   0  0  0  0  0  0
   33.3930  -32.5000  -16.5790 N   0  0  0  0  0  0
   31.6280  -31.3880  -13.0370 C   0  0  0  0  0  0
   30.9830  -31.8270  -11.9800 C   0  0  0  0  0  0
   35.0900  -38.4880  -18.9920 C   0  0  0  0  0  0
   35.2990  -38.9730  -20.0770 O   0  0  0  0  0  0
   35.4090  -39.1820  -17.8830 N   0  0  0  0  0  0
   35.9800  -40.4260  -17.8780 N   0  0  1  0  0  0
   37.3320  -40.3750  -17.2860 C   0  0  0  0  0  0
   37.9700  -41.7600  -17.3910 C   0  0  0  0  0  0
   37.1180  -42.7090  -16.6570 N   0  3  2  0  0  0
   37.7540  -44.0260  -16.5430 C   0  0  0  0  0  0
   35.7560  -42.7750  -17.2250 C   0  0  0  0  0  0
   35.1160  -41.3820  -17.1540 C   0  0  0  0  0  0
   30.0745  -35.7846  -21.5625 H   0  0  0  0  0  0
   30.4752  -36.9651  -20.2692 H   0  0  0  0  0  0
   31.5589  -36.7881  -21.6908 H   0  0  0  0  0  0
   32.9863  -37.5427  -20.4185 H   0  0  0  0  0  0
   35.7065  -36.4731  -17.2406 H   0  0  0  0  0  0
   34.5936  -34.2764  -17.0028 H   0  0  0  0  0  0
   31.6619  -33.2481  -19.2591 H   0  0  0  0  0  0
   31.0830  -29.5326  -17.0140 H   0  0  0  0  0  0
   32.5601  -28.0521  -16.7211 H   0  0  0  0  0  0
   33.6301  -27.4046  -15.4317 H   0  0  0  0  0  0
   31.8461  -27.3515  -15.2292 H   0  0  0  0  0  0
   35.0192  -31.0844  -12.8127 H   0  0  0  0  0  0
   33.9345  -32.5117  -12.9274 H   0  0  0  0  0  0
   35.4585  -32.9485  -15.9086 H   0  0  0  0  0  0
   37.4787  -32.2343  -14.8521 H   0  0  0  0  0  0
   36.6118  -31.7882  -13.3435 H   0  0  0  0  0  0
   37.6276  -34.5501  -14.2429 H   0  0  0  0  0  0
   37.7785  -33.7771  -12.6285 H   0  0  0  0  0  0
   35.8535  -35.6327  -13.0319 H   0  0  0  0  0  0
   35.4819  -34.1515  -12.0860 H   0  0  0  0  0  0
   33.7999  -33.8526  -13.7206 H   0  0  0  0  0  0
   34.6569  -34.8775  -14.9213 H   0  0  0  0  0  0
   31.2287  -31.5797  -14.0439 H   0  0  0  0  0  0
   31.3823  -31.6353  -10.9731 H   0  0  0  0  0  0
   30.0436  -32.3863  -12.1019 H   0  0  0  0  0  0
   35.1784  -38.6788  -16.9324 H   0  0  0  0  0  0
   37.9436  -39.6412  -17.8314 H   0  0  0  0  0  0
   37.2587  -40.0782  -16.2294 H   0  0  0  0  0  0
   38.0403  -42.0520  -18.4492 H   0  0  0  0  0  0
   38.9775  -41.7340  -16.9502 H   0  0  0  0  0  0
   37.0090  -42.3334  -15.6289 H   0  0  0  0  0  0
   38.7610  -43.9111  -16.1156 H   0  0  0  0  0  0
   37.8289  -44.4845  -17.5401 H   0  0  0  0  0  0
   37.1489  -44.6699  -15.8878 H   0  0  0  0  0  0
   35.8114  -43.1044  -18.2731 H   0  0  0  0  0  0
   35.1520  -43.4902  -16.6473 H   0  0  0  0  0  0
   35.0207  -41.0677  -16.1042 H   0  0  0  0  0  0
   34.1207  -41.4038  -17.6219 H   0  0  0  0  0  0
  1  2  1  0  0  0
  1 41  1  0  0  0
  1 42  1  0  0  0
  1 43  1  0  0  0
  2  3  1  0  0  0
  3  4  2  0  0  0
  3  8  1  0  0  0
  4  5  1  0  0  0
  4 44  1  0  0  0
  5  6  2  0  0  0
  5 31  1  0  0  0
  6  7  1  0  0  0
  6 45  1  0  0  0
  7  8  2  0  0  0
  7 46  1  0  0  0
  8  9  1  0  0  0
  9 10  1  0  0  0
  9 47  1  0  0  0
 10 11  2  0  0  0
 10 28  1  0  0  0
 11 12  1  0  0  0
 12 13  2  0  0  0
 12 48  1  0  0  0
 13 14  1  0  0  0
 13 27  1  0  0  0
 14 15  1  0  0  0
 14 16  1  0  0  0
 15 49  1  0  0  0
 15 50  1  0  0  0
 15 51  1  0  0  0
 16 17  2  0  0  0
 16 18  1  0  0  0
 18 19  1  0  0  0
 18 20  1  0  0  0
 18 29  1  0  0  0
 20 21  1  0  0  0
 20 52  1  0  0  0
 20 53  1  0  0  0
 21 22  1  0  0  0
 21 27  1  0  0  0
 22 23  1  0  0  0
 22 26  1  0  0  0
 22 54  1  0  0  0
 23 24  1  0  0  0
 23 55  1  0  0  0
 23 56  1  0  0  0
 24 25  1  0  0  0
 24 57  1  0  0  0
 24 58  1  0  0  0
 25 26  1  0  0  0
 25 59  1  0  0  0
 25 60  1  0  0  0
 26 61  1  0  0  0
 26 62  1  0  0  0
 27 28  2  0  0  0
 29 30  2  0  0  0
 29 63  1  0  0  0
 30 64  1  0  0  0
 30 65  1  0  0  0
 31 32  2  0  0  0
 31 33  1  0  0  0
 33 34  1  0  0  0
 33 66  1  0  0  0
 34 35  1  0  0  0
 34 40  1  0  0  0
 35 36  1  0  0  0
 35 67  1  0  0  0
 35 68  1  0  0  0
 36 37  1  0  0  0
 36 69  1  0  0  0
 36 70  1  0  0  0
 37 38  1  0  0  0
 37 39  1  0  0  0
 37 71  1  0  0  0
 38 72  1  0  0  0
 38 73  1  0  0  0
 38 74  1  0  0  0
 39 40  1  0  0  0
 39 75  1  0  0  0
 39 76  1  0  0  0
 40 77  1  0  0  0
 40 78  1  0  0  0
M  CHG  1  37   1
M  END
> <s_m_source_file>
../4j52_ligand.sdf

> <i_m_source_file_index>
1

> <s_epik_input>
W0NIMl0xW0NIMl1bTkBASCtdKFtDSDNdKVtDSDJdW0NIMl1bTkBASCtdMVtOSF1DKD1PKWMoW2NIXWMyT1tDSDNdKVtjSF1bY0hdYzJbTkhdYyhuW2NIXTMpbmMoYzM0KU4oW0NIMl1bQ0BdKEYpKFtDSF09W0NIMl0pQyg9TylONFtDSDNdKVtDSF01W0NIMl1bQ0gyXVtDSDJdW0NIMl01

> <s_epik_cmdline>
J2VwaWtfYXBwJywgJy1pbWFlJywgJ2xpZ2FuZF9wcm8ubWFlJywgJy1vbWFlJywgJ2xpZ2FuZF9wcmVwLm1hZScsICctbXMnLCAnMScsICctcGgnLCAnNycsICctcGh0JywgJzAuNScsICctbnQn

> <r_lp_tautomer_probability>
1

> <r_epik_Ionization_Penalty>
  0.2221

> <r_epik_Ionization_Penalty_Charging>
  0.1887

> <r_epik_Ionization_Penalty_Neutral>
  0.0335

> <r_epik_State_Penalty>
 -0.0000

> <r_epik_Charging_Adjusted_Penalty>
0.188667669739094

> <i_epik_Tot_Q>
1

> <i_epik_Tot_abs_Q>
1

$$$$
