4j53_ligand
                    3D
 Schrodinger Suite 2020-3.
 75 79  0  0  1  0            999 V2000
   51.0580   11.3520   31.0740 O   0  0  0  0  0  0
   50.5810   11.2080   32.1790 C   0  0  0  0  0  0
   51.3450   10.9450   33.2460 N   0  0  0  0  0  0
   52.8080   10.8340   33.2340 C   0  0  1  0  0  0
   53.3570   12.0100   34.0400 C   0  0  0  0  0  0
   54.8580   11.8870   34.2810 C   0  0  0  0  0  0
   55.1960   10.6100   34.9330 N   0  3  2  0  0  0
   56.6620   10.5090   35.1010 C   0  0  0  0  0  0
   54.7010    9.4710   34.1330 C   0  0  0  0  0  0
   53.1860    9.5450   33.9560 C   0  0  0  0  0  0
   49.0810   11.2980   32.3360 C   0  0  0  0  0  0
   48.2710   10.5160   31.5070 C   0  0  0  0  0  0
   46.8740   10.5570   31.6280 C   0  0  0  0  0  0
   46.0670    9.7880   30.8160 O   0  0  0  0  0  0
   46.3230    8.4080   30.5410 C   0  0  0  0  0  0
   48.4700   12.1330   33.2810 C   0  0  0  0  0  0
   49.1810   12.9220   34.1120 F   0  0  0  0  0  0
   47.0830   12.1710   33.3910 C   0  0  0  0  0  0
   46.2700   11.3880   32.5680 C   0  0  0  0  0  0
   44.9100   11.3330   32.6530 N   0  0  0  0  0  0
   44.1140   11.8970   33.6060 C   0  0  0  0  0  0
   42.7820   11.7280   33.4670 N   0  0  0  0  0  0
   41.9170   12.2540   34.3240 C   0  0  0  0  0  0
   42.3690   12.9840   35.4180 C   0  0  0  0  0  0
   41.4050   13.5860   36.2650 N   0  0  0  0  0  0
   40.2360   14.1190   35.5470 C   0  0  0  0  0  0
   41.4980   13.7860   37.5920 C   0  0  0  0  0  0
   40.5760   14.3630   38.1640 O   0  0  0  0  0  0
   44.5830   12.6080   34.6520 N   0  0  0  0  0  0
   43.7490   13.1800   35.5530 C   0  0  0  0  0  0
   44.2670   13.9240   36.6490 N   0  0  0  0  0  0
   44.0210   13.1510   37.8750 C   0  0  0  0  0  0
   42.6290   13.3160   38.4840 C   0  0  0  0  0  0
   42.7160   14.1890   39.4740 F   0  0  0  0  0  0
   42.3060   12.1350   38.9790 F   0  0  0  0  0  0
   45.7070   14.3130   36.5210 C   0  0  0  0  0  0
   46.0100   15.5460   37.3760 C   0  0  0  0  0  0
   47.3040   15.3080   38.1360 C   0  0  0  0  0  0
   47.6230   13.8280   38.0240 C   0  0  0  0  0  0
   46.7380   13.2490   36.9280 C   0  0  0  0  0  0
   50.7907   10.8083   34.1863 H   0  0  0  0  0  0
   53.1696   10.8353   32.1951 H   0  0  0  0  0  0
   53.1727   12.9468   33.4937 H   0  0  0  0  0  0
   52.8546   12.0508   35.0177 H   0  0  0  0  0  0
   55.3892   11.9386   33.3192 H   0  0  0  0  0  0
   55.1938   12.7093   34.9299 H   0  0  0  0  0  0
   54.7098   10.5816   35.9193 H   0  0  0  0  0  0
   57.0222   11.3602   35.6973 H   0  0  0  0  0  0
   57.1460   10.5223   34.1133 H   0  0  0  0  0  0
   56.9080    9.5694   35.6173 H   0  0  0  0  0  0
   55.1737    9.4876   33.1399 H   0  0  0  0  0  0
   54.9513    8.5288   34.6425 H   0  0  0  0  0  0
   52.7045    9.5239   34.9448 H   0  0  0  0  0  0
   52.8479    8.6810   33.3650 H   0  0  0  0  0  0
   48.7293    9.8684   30.7596 H   0  0  0  0  0  0
   45.5428    8.0167   29.8715 H   0  0  0  0  0  0
   46.3172    7.8393   31.4826 H   0  0  0  0  0  0
   47.3058    8.3067   30.0574 H   0  0  0  0  0  0
   46.6228   12.8236   34.1329 H   0  0  0  0  0  0
   44.3332   10.7847   31.8936 H   0  0  0  0  0  0
   40.8471   12.1135   34.1701 H   0  0  0  0  0  0
   40.3165   13.8690   34.4788 H   0  0  0  0  0  0
   40.1996   15.2119   35.6660 H   0  0  0  0  0  0
   39.3183   13.6744   35.9595 H   0  0  0  0  0  0
   44.1434   12.0786   37.6630 H   0  0  0  0  0  0
   44.7388   13.4557   38.6508 H   0  0  0  0  0  0
   45.7896   14.4845   35.4376 H   0  0  0  0  0  0
   46.1162   16.4264   36.7251 H   0  0  0  0  0  0
   45.1859   15.7118   38.0854 H   0  0  0  0  0  0
   48.1076   15.9124   37.6900 H   0  0  0  0  0  0
   47.1693   15.5967   39.1889 H   0  0  0  0  0  0
   48.6850   13.7002   37.7673 H   0  0  0  0  0  0
   47.4161   13.3345   38.9851 H   0  0  0  0  0  0
   46.2154   12.3555   37.3003 H   0  0  0  0  0  0
   47.3501   12.9786   36.0549 H   0  0  0  0  0  0
  1  2  2  0  0  0
  2  3  1  0  0  0
  2 11  1  0  0  0
  3  4  1  0  0  0
  3 41  1  0  0  0
  4  5  1  0  0  0
  4 10  1  0  0  0
  4 42  1  0  0  0
  5  6  1  0  0  0
  5 43  1  0  0  0
  5 44  1  0  0  0
  6  7  1  0  0  0
  6 45  1  0  0  0
  6 46  1  0  0  0
  7  8  1  0  0  0
  7  9  1  0  0  0
  7 47  1  0  0  0
  8 48  1  0  0  0
  8 49  1  0  0  0
  8 50  1  0  0  0
  9 10  1  0  0  0
  9 51  1  0  0  0
  9 52  1  0  0  0
 10 53  1  0  0  0
 10 54  1  0  0  0
 11 12  2  0  0  0
 11 16  1  0  0  0
 12 13  1  0  0  0
 12 55  1  0  0  0
 13 14  1  0  0  0
 13 19  2  0  0  0
 14 15  1  0  0  0
 15 56  1  0  0  0
 15 57  1  0  0  0
 15 58  1  0  0  0
 16 17  1  0  0  0
 16 18  2  0  0  0
 18 19  1  0  0  0
 18 59  1  0  0  0
 19 20  1  0  0  0
 20 21  1  0  0  0
 20 60  1  0  0  0
 21 22  2  0  0  0
 21 29  1  0  0  0
 22 23  1  0  0  0
 23 24  2  0  0  0
 23 61  1  0  0  0
 24 25  1  0  0  0
 24 30  1  0  0  0
 25 26  1  0  0  0
 25 27  1  0  0  0
 26 62  1  0  0  0
 26 63  1  0  0  0
 26 64  1  0  0  0
 27 28  2  0  0  0
 27 33  1  0  0  0
 29 30  2  0  0  0
 30 31  1  0  0  0
 31 32  1  0  0  0
 31 36  1  0  0  0
 32 33  1  0  0  0
 32 65  1  0  0  0
 32 66  1  0  0  0
 33 34  1  0  0  0
 33 35  1  0  0  0
 36 37  1  0  0  0
 36 40  1  0  0  0
 36 67  1  0  0  0
 37 38  1  0  0  0
 37 68  1  0  0  0
 37 69  1  0  0  0
 38 39  1  0  0  0
 38 70  1  0  0  0
 38 71  1  0  0  0
 39 40  1  0  0  0
 39 72  1  0  0  0
 39 73  1  0  0  0
 40 74  1  0  0  0
 40 75  1  0  0  0
M  CHG  1   7   1
M  END
> <s_m_source_file>
../4j53_ligand.sdf

> <i_m_source_file_index>
1

> <s_epik_input>
W0NIMl0xW0NIMl1bTkBASCtdKFtDSDNdKVtDSDJdW0NIMl1bQ0BASF0xW05IXUMoPU8pYzJbY0hdYyhPW0NIM10pYyhbY0hdYzJGKVtOSF1jKG5bY0hdMyluYyhjMzQpTihbQ0gyXUMoRikoRilDKD1PKU40W0NIM10pW0NIXTVbQ0gyXVtDSDJdW0NIMl1bQ0gyXTU=

> <s_epik_cmdline>
J2VwaWtfYXBwJywgJy1pbWFlJywgJ2xpZ2FuZF9wcm8ubWFlJywgJy1vbWFlJywgJ2xpZ2FuZF9wcmVwLm1hZScsICctbXMnLCAnMScsICctcGgnLCAnNycsICctcGh0JywgJzAuNScsICctbnQn

> <r_lp_tautomer_probability>
0.999999648617923

> <r_epik_Ionization_Penalty>
  0.0289

> <r_epik_Ionization_Penalty_Charging>
  0.0049

> <r_epik_Ionization_Penalty_Neutral>
  0.0240

> <r_epik_State_Penalty>
  0.0193

> <r_epik_Charging_Adjusted_Penalty>
0.0242566167952728

> <i_epik_Tot_Q>
1

> <i_epik_Tot_abs_Q>
1

$$$$
