4j5p_ligand
                    3D
 Schrodinger Suite 2020-3.
 52 54  0  0  1  0            999 V2000
   50.8450  -14.4360  -35.3000 C   0  0  0  0  0  0
   50.3670  -13.1140  -35.3780 C   0  0  0  0  0  0
   51.1890  -12.1180  -34.8390 C   0  0  0  0  0  0
   50.8780  -10.6710  -34.9210 C   0  0  0  0  0  0
   52.4290  -12.4410  -34.2130 C   0  0  0  0  0  0
   52.8790  -13.7010  -34.1430 N   0  0  0  0  0  0
   52.0800  -14.6840  -34.6580 C   0  0  0  0  0  0
   52.5930  -16.0140  -34.5780 C   0  0  0  0  0  0
   51.9340  -17.0900  -35.0280 O   0  0  0  0  0  0
   53.8500  -16.3450  -34.1270 C   0  0  0  0  0  0
   53.9510  -17.7100  -34.2650 N   0  0  0  0  0  0
   52.8050  -18.1340  -34.8070 C   0  0  0  0  0  0
   52.4560  -19.5640  -35.1400 C   0  0  1  0  0  0
   52.7370  -20.4150  -34.0260 O   0  0  0  0  0  0
   50.9280  -19.5740  -35.5090 C   0  0  0  0  0  0
   50.4190  -21.0080  -35.8660 C   0  0  0  0  0  0
   48.9230  -20.8690  -36.2230 C   0  0  0  0  0  0
   48.0940  -20.8860  -34.9470 C   0  0  0  0  0  0
   46.6450  -20.9880  -35.4310 C   0  0  0  0  0  0
   45.8550  -21.3790  -34.1740 C   0  0  0  0  0  0
   44.4500  -21.0940  -34.2200 C   0  0  0  0  0  0
   43.7170  -20.7470  -35.3680 C   0  0  0  0  0  0
   42.3510  -20.4460  -35.2720 C   0  0  0  0  0  0
   41.6820  -20.4760  -34.0450 C   0  0  0  0  0  0
   42.3980  -20.8290  -32.9000 C   0  0  0  0  0  0
   43.7570  -21.1450  -32.9950 C   0  0  0  0  0  0
   50.2707  -15.2572  -35.7288 H   0  0  0  0  0  0
   49.4058  -12.8784  -35.8349 H   0  0  0  0  0  0
   49.9064  -10.5324  -35.4178 H   0  0  0  0  0  0
   51.6617  -10.1597  -35.4992 H   0  0  0  0  0  0
   50.8351  -10.2472  -33.9068 H   0  0  0  0  0  0
   53.0276  -11.6400  -33.7792 H   0  0  0  0  0  0
   54.6094  -15.6656  -33.7400 H   0  0  0  0  0  0
   53.1084  -19.9774  -35.9232 H   0  0  0  0  0  0
   53.7673  -20.5099  -33.6525 H   0  0  0  0  0  0
   50.3420  -19.2053  -34.6542 H   0  0  0  0  0  0
   50.7566  -18.9231  -36.3790 H   0  0  0  0  0  0
   50.9915  -21.3981  -36.7204 H   0  0  0  0  0  0
   50.5554  -21.6718  -34.9995 H   0  0  0  0  0  0
   48.7595  -19.9197  -36.7542 H   0  0  0  0  0  0
   48.6206  -21.7070  -36.8682 H   0  0  0  0  0  0
   48.3831  -21.7521  -34.3335 H   0  0  0  0  0  0
   48.2728  -19.9598  -34.3812 H   0  0  0  0  0  0
   46.3240  -20.0164  -35.8347 H   0  0  0  0  0  0
   46.5742  -21.7534  -36.2178 H   0  0  0  0  0  0
   45.9486  -22.4618  -34.0042 H   0  0  0  0  0  0
   46.2555  -20.8357  -33.3054 H   0  0  0  0  0  0
   44.2131  -20.7117  -36.3379 H   0  0  0  0  0  0
   41.7985  -20.1828  -36.1740 H   0  0  0  0  0  0
   40.6222  -20.2286  -33.9836 H   0  0  0  0  0  0
   41.8980  -20.8584  -31.9319 H   0  0  0  0  0  0
   44.2958  -21.4395  -32.0944 H   0  0  0  0  0  0
  1  2  2  0  0  0
  1  7  1  0  0  0
  1 27  1  0  0  0
  2  3  1  0  0  0
  2 28  1  0  0  0
  3  4  1  0  0  0
  3  5  2  0  0  0
  4 29  1  0  0  0
  4 30  1  0  0  0
  4 31  1  0  0  0
  5  6  1  0  0  0
  5 32  1  0  0  0
  6  7  2  0  0  0
  7  8  1  0  0  0
  8  9  1  0  0  0
  8 10  2  0  0  0
  9 12  1  0  0  0
 10 11  1  0  0  0
 10 33  1  0  0  0
 11 12  2  0  0  0
 12 13  1  0  0  0
 13 14  1  0  0  0
 13 15  1  0  0  0
 13 34  1  0  0  0
 14 35  1  0  0  0
 15 16  1  0  0  0
 15 36  1  0  0  0
 15 37  1  0  0  0
 16 17  1  0  0  0
 16 38  1  0  0  0
 16 39  1  0  0  0
 17 18  1  0  0  0
 17 40  1  0  0  0
 17 41  1  0  0  0
 18 19  1  0  0  0
 18 42  1  0  0  0
 18 43  1  0  0  0
 19 20  1  0  0  0
 19 44  1  0  0  0
 19 45  1  0  0  0
 20 21  1  0  0  0
 20 46  1  0  0  0
 20 47  1  0  0  0
 21 22  2  0  0  0
 21 26  1  0  0  0
 22 23  1  0  0  0
 22 48  1  0  0  0
 23 24  2  0  0  0
 23 49  1  0  0  0
 24 25  1  0  0  0
 24 50  1  0  0  0
 25 26  2  0  0  0
 25 51  1  0  0  0
 26 52  1  0  0  0
M  END
> <s_m_source_file>
../4j5p_ligand.sdf

> <i_m_source_file_index>
1

> <s_epik_input>
W0NIM11jMVtjSF1bY0hdYyhuW2NIXTEpLWMyb2MobltjSF0yKVtDQEBIXShbT0hdKVtDSDJdW0NIMl1bQ0gyXVtDSDJdW0NIMl1bQ0gyXWMzW2NIXVtjSF1bY0hdW2NIXVtjSF0z

> <s_epik_cmdline>
J2VwaWtfYXBwJywgJy1pbWFlJywgJ2xpZ2FuZF9wcm8ubWFlJywgJy1vbWFlJywgJ2xpZ2FuZF9wcmVwLm1hZScsICctbXMnLCAnMScsICctcGgnLCAnNycsICctcGh0JywgJzAuNScsICctbnQn

> <r_lp_tautomer_probability>
1

> <r_epik_Ionization_Penalty>
  0.0043

> <r_epik_Ionization_Penalty_Charging>
  0.0000

> <r_epik_Ionization_Penalty_Neutral>
  0.0043

> <r_epik_State_Penalty>
 -0.0000

> <r_epik_Charging_Adjusted_Penalty>
0

> <i_epik_Tot_Q>
0

> <i_epik_Tot_abs_Q>
0

$$$$
