4j6i_ligand
                    3D
 Schrodinger Suite 2020-3.
 55 59  0  0  1  0            999 V2000
   10.7940   62.2860   21.5360 C   0  0  0  0  0  0
   11.6320   61.9160   22.7690 C   0  0  0  0  0  0
   12.4070   60.6420   22.4410 C   0  0  0  0  0  0
   10.7410   61.5500   23.8230 O   0  0  0  0  0  0
   12.4990   63.1070   23.2660 C   0  0  0  0  0  0
   13.8730   63.2870   22.7440 N   0  0  0  0  0  0
   14.9430   62.5260   23.0630 C   0  0  0  0  0  0
   16.0320   62.9840   22.3920 C   0  0  0  0  0  0
   15.6090   64.1250   21.6650 C   0  0  0  0  0  0
   14.3250   64.3010   21.8800 N   0  0  0  0  0  0
   17.3950   62.3750   22.5060 C   0  0  0  0  0  0
   18.5210   62.9350   21.8980 C   0  0  0  0  0  0
   19.7640   62.3430   22.0460 C   0  0  0  0  0  0
   19.9430   61.1820   22.7930 C   0  0  0  0  0  0
   18.8140   60.6300   23.4110 C   0  0  0  0  0  0
   18.9560   59.5250   24.1560 O   0  0  0  0  0  0
   19.7380   59.6980   25.3100 C   0  0  0  0  0  0
   21.0670   59.0320   25.0090 C   0  0  0  0  0  0
   21.8080   59.7540   23.9350 C   0  0  0  0  0  0
   21.3490   60.6300   22.9590 C   0  0  0  0  0  0
   22.3610   61.0520   22.2140 N   0  0  0  0  0  0
   23.5530   60.5950   22.4160 C   0  0  0  0  0  0
   23.5230   59.4780   23.7250 S   0  0  0  0  0  0
   24.7730   60.9140   21.6820 C   0  0  0  0  0  0
   25.9350   60.3000   21.8230 N   0  0  0  0  0  0
   26.8150   60.8450   20.9850 C   0  0  0  0  0  0
   26.2460   61.8170   20.3310 N   0  0  0  0  0  0
   24.9140   61.8900   20.7580 N   0  0  0  0  0  0
   23.8950   62.8370   20.3120 C   0  0  0  0  0  0
   23.5740   62.5790   18.8540 C   0  0  0  0  0  0
   22.8940   61.3490   18.7360 F   0  0  0  0  0  0
   22.7900   63.6600   18.4360 F   0  0  0  0  0  0
   24.7740   62.5680   18.1290 F   0  0  0  0  0  0
   17.5660   61.2200   23.2700 C   0  0  0  0  0  0
   10.1996   61.4153   21.2220 H   0  0  0  0  0  0
   11.4619   62.5889   20.7162 H   0  0  0  0  0  0
   10.1204   63.1187   21.7869 H   0  0  0  0  0  0
   11.7072   59.8646   22.1006 H   0  0  0  0  0  0
   12.9347   60.2920   23.3405 H   0  0  0  0  0  0
   13.1374   60.8517   21.6457 H   0  0  0  0  0  0
   10.0320   60.7210   23.6809 H   0  0  0  0  0  0
   11.9948   64.0540   23.0232 H   0  0  0  0  0  0
   12.6346   63.0325   24.3551 H   0  0  0  0  0  0
   14.9339   61.6794   23.7495 H   0  0  0  0  0  0
   16.2415   64.7501   21.0347 H   0  0  0  0  0  0
   18.4206   63.8432   21.3037 H   0  0  0  0  0  0
   20.6280   62.7996   21.5632 H   0  0  0  0  0  0
   19.8651   60.7723   25.5091 H   0  0  0  0  0  0
   19.2375   59.2230   26.1667 H   0  0  0  0  0  0
   21.6879   59.0256   25.9170 H   0  0  0  0  0  0
   20.8921   57.9979   24.6771 H   0  0  0  0  0  0
   27.8506   60.5270   20.8651 H   0  0  0  0  0  0
   22.9854   62.7089   20.9172 H   0  0  0  0  0  0
   24.2720   63.8637   20.4296 H   0  0  0  0  0  0
   16.7038   60.7732   23.7650 H   0  0  0  0  0  0
  1  2  1  0  0  0
  1 35  1  0  0  0
  1 36  1  0  0  0
  1 37  1  0  0  0
  2  3  1  0  0  0
  2  4  1  0  0  0
  2  5  1  0  0  0
  3 38  1  0  0  0
  3 39  1  0  0  0
  3 40  1  0  0  0
  4 41  1  0  0  0
  5  6  1  0  0  0
  5 42  1  0  0  0
  5 43  1  0  0  0
  6  7  1  0  0  0
  6 10  1  0  0  0
  7  8  2  0  0  0
  7 44  1  0  0  0
  8  9  1  0  0  0
  8 11  1  0  0  0
  9 10  2  0  0  0
  9 45  1  0  0  0
 11 12  2  0  0  0
 11 34  1  0  0  0
 12 13  1  0  0  0
 12 46  1  0  0  0
 13 14  2  0  0  0
 13 47  1  0  0  0
 14 15  1  0  0  0
 14 20  1  0  0  0
 15 16  1  0  0  0
 15 34  2  0  0  0
 16 17  1  0  0  0
 17 18  1  0  0  0
 17 48  1  0  0  0
 17 49  1  0  0  0
 18 19  1  0  0  0
 18 50  1  0  0  0
 18 51  1  0  0  0
 19 20  2  0  0  0
 19 23  1  0  0  0
 20 21  1  0  0  0
 21 22  2  0  0  0
 22 23  1  0  0  0
 22 24  1  0  0  0
 24 25  2  0  0  0
 24 28  1  0  0  0
 25 26  1  0  0  0
 26 27  2  0  0  0
 26 52  1  0  0  0
 27 28  1  0  0  0
 28 29  1  0  0  0
 29 30  1  0  0  0
 29 53  1  0  0  0
 29 54  1  0  0  0
 30 31  1  0  0  0
 30 32  1  0  0  0
 30 33  1  0  0  0
 34 55  1  0  0  0
M  END
> <s_m_source_file>
../4j6i_ligand.sdf

> <i_m_source_file_index>
1

> <s_epik_input>
W0NIM11DKFtDSDNdKShbT0hdKVtDSDJdbjFbY0hdYyhbY0hdbjEpLWMoW2NIXVtjSF0yKVtjSF1jKGMyMylPW0NIMl1bQ0gyXWM0YzNuYyhzNCktYzVuW2NIXW5uNVtDSDJdQyhGKShGKUY=

> <s_epik_cmdline>
J2VwaWtfYXBwJywgJy1pbWFlJywgJ2xpZ2FuZF9wcm8ubWFlJywgJy1vbWFlJywgJ2xpZ2FuZF9wcmVwLm1hZScsICctbXMnLCAnMScsICctcGgnLCAnNycsICctcGh0JywgJzAuNScsICctbnQn

> <r_lp_tautomer_probability>
1

> <r_epik_Ionization_Penalty>
  0.0020

> <r_epik_Ionization_Penalty_Charging>
  0.0000

> <r_epik_Ionization_Penalty_Neutral>
  0.0020

> <r_epik_State_Penalty>
 -0.0000

> <r_epik_Charging_Adjusted_Penalty>
0

> <i_epik_Tot_Q>
0

> <i_epik_Tot_abs_Q>
0

$$$$
