4j70_ligand
                    3D
 Schrodinger Suite 2020-3.
 86 88  0  0  1  0            999 V2000
   17.8480 -146.5350   12.4500 C   0  0  0  0  0  0
   17.1210 -147.3660   12.9860 O   0  0  0  0  0  0
   18.2000 -146.6020   11.1220 O   0  0  0  0  0  0
   19.4880 -146.0480   10.7410 C   0  0  0  0  0  0
   19.9160 -146.6370    9.4100 C   0  0  0  0  0  0
   19.7910 -145.8600    8.2530 C   0  0  0  0  0  0
   20.2650 -146.3910    7.0530 C   0  0  0  0  0  0
   20.8470 -147.6780    7.0260 C   0  0  0  0  0  0
   20.9790 -148.4460    8.1880 C   0  0  0  0  0  0
   20.5010 -147.9080    9.3840 C   0  0  0  0  0  0
   18.3430 -145.4720   13.1660 N   0  0  0  0  0  0
   17.5760 -144.2200   13.3680 C   0  0  2  0  0  0
   18.1000 -143.0410   12.4730 C   0  0  0  0  0  0
   18.6120 -143.3220   11.3950 O   0  0  0  0  0  0
   17.4240 -144.0060   14.9130 C   0  0  0  0  0  0
   12.6670 -141.1110   12.8060 N   0  0  0  0  0  0
   13.7610 -141.9010   13.3150 C   0  0  1  0  0  0
   14.4500 -142.8330   12.3040 C   0  0  0  0  0  0
   15.2340 -141.6470   12.9270 C   0  0  1  0  0  0
   15.7590 -140.5720   11.9160 C   0  0  0  0  0  0
   17.3170 -140.7350   11.7490 C   0  0  1  0  0  0
   18.0500 -139.3800   11.8030 C   0  0  0  0  0  0
   18.2830 -138.5330   10.5480 C   0  0  0  0  0  0
   19.4010 -137.4480   10.6360 C   0  0  0  0  0  0
   19.6660 -136.6740   11.7840 C   0  0  0  0  0  0
   20.8570 -135.9310   11.9300 C   0  0  0  0  0  0
   21.8390 -135.8730   10.9190 C   0  0  0  0  0  0
   21.6160 -136.5820    9.7230 C   0  0  0  0  0  0
   20.4170 -137.3460    9.5420 C   0  0  0  0  0  0
   17.8910 -141.7080   12.7350 N   0  0  0  0  0  0
   13.4900 -137.8060   11.5530 O   0  0  0  0  0  0
   12.3380 -138.4430   11.7090 C   0  0  0  0  0  0
   11.4760 -138.3210   12.9820 C   0  0  1  0  0  0
   10.3960 -137.2070   12.8050 C   0  0  2  0  0  0
   10.9440 -135.8290   12.2980 C   0  0  0  0  0  0
   12.1920 -135.3040   13.0660 C   0  0  0  0  0  0
    9.5610 -136.9480   14.0870 C   0  0  0  0  0  0
   10.8150 -139.6600   13.4010 C   0  0  1  0  0  0
   10.0800 -140.2840   12.3380 O   0  0  0  0  0  0
   11.8920 -140.6050   13.7840 C   0  0  0  0  0  0
   12.0560 -140.8180   14.9690 O   0  0  0  0  0  0
   19.4043 -144.9550   10.6491 H   0  0  0  0  0  0
   20.2353 -146.2952   11.5094 H   0  0  0  0  0  0
   19.3370 -144.8697    8.2882 H   0  0  0  0  0  0
   20.1860 -145.8110    6.1335 H   0  0  0  0  0  0
   21.2015 -148.0821    6.0778 H   0  0  0  0  0  0
   21.4405 -149.4331    8.1602 H   0  0  0  0  0  0
   20.5842 -148.4831   10.3062 H   0  0  0  0  0  0
   19.3496 -145.5760   13.5972 H   0  0  0  0  0  0
   16.5591 -144.3459   12.9680 H   0  0  0  0  0  0
   17.0478 -144.9302   15.3759 H   0  0  0  0  0  0
   16.7149 -143.1865   15.1016 H   0  0  0  0  0  0
   18.4026 -143.7511   15.3459 H   0  0  0  0  0  0
   12.5417 -140.9794   11.7211 H   0  0  0  0  0  0
   13.2244 -141.9573   14.2736 H   0  0  0  0  0  0
   14.4461 -143.8622   12.6923 H   0  0  0  0  0  0
   13.9086 -142.8002   11.3470 H   0  0  0  0  0  0
   16.1142 -141.4615   13.5602 H   0  0  0  0  0  0
   15.2667 -140.7129   10.9425 H   0  0  0  0  0  0
   15.5321 -139.5663   12.2995 H   0  0  0  0  0  0
   17.5218 -141.1798   10.7640 H   0  0  0  0  0  0
   17.5023 -138.6930   12.4648 H   0  0  0  0  0  0
   19.0683 -139.5292   12.1912 H   0  0  0  0  0  0
   18.5662 -139.1881    9.7109 H   0  0  0  0  0  0
   17.3595 -137.9920   10.2941 H   0  0  0  0  0  0
   18.9271 -136.6485   12.5849 H   0  0  0  0  0  0
   21.0240 -135.3824   12.8570 H   0  0  0  0  0  0
   22.7504 -135.2921   11.0605 H   0  0  0  0  0  0
   22.3614 -136.5495    8.9284 H   0  0  0  0  0  0
   20.2430 -137.8589    8.5961 H   0  0  0  0  0  0
   18.1743 -141.3680   13.7420 H   0  0  0  0  0  0
   14.0650 -137.9290   10.6234 H   0  0  0  0  0  0
   11.6374 -138.1321   10.9200 H   0  0  0  0  0  0
   12.5070 -139.5279   11.6427 H   0  0  0  0  0  0
   12.1673 -138.0481   13.7929 H   0  0  0  0  0  0
    9.7474 -137.6348   12.0263 H   0  0  0  0  0  0
   11.2345 -135.9166   11.2407 H   0  0  0  0  0  0
   10.1614 -135.0629   12.4009 H   0  0  0  0  0  0
   12.5032 -134.3375   12.6428 H   0  0  0  0  0  0
   13.0139 -136.0286   12.9688 H   0  0  0  0  0  0
   11.9408 -135.1749   14.1291 H   0  0  0  0  0  0
    9.1636 -137.9017   14.4646 H   0  0  0  0  0  0
    8.7269 -136.2710   13.8507 H   0  0  0  0  0  0
   10.2007 -136.4878   14.8545 H   0  0  0  0  0  0
   10.0822 -139.4920   14.2040 H   0  0  0  0  0  0
    9.2221 -139.7660   11.8846 H   0  0  0  0  0  0
  1  2  2  0  0  0
  1  3  1  0  0  0
  1 11  1  0  0  0
  3  4  1  0  0  0
  4  5  1  0  0  0
  4 42  1  0  0  0
  4 43  1  0  0  0
  5  6  2  0  0  0
  5 10  1  0  0  0
  6  7  1  0  0  0
  6 44  1  0  0  0
  7  8  2  0  0  0
  7 45  1  0  0  0
  8  9  1  0  0  0
  8 46  1  0  0  0
  9 10  2  0  0  0
  9 47  1  0  0  0
 10 48  1  0  0  0
 11 12  1  0  0  0
 11 49  1  0  0  0
 12 13  1  0  0  0
 12 15  1  0  0  0
 12 50  1  0  0  0
 13 14  2  0  0  0
 13 30  1  0  0  0
 15 51  1  0  0  0
 15 52  1  0  0  0
 15 53  1  0  0  0
 16 17  1  0  0  0
 16 40  1  0  0  0
 16 54  1  0  0  0
 17 18  1  0  0  0
 17 19  1  0  0  0
 17 55  1  0  0  0
 18 19  1  0  0  0
 18 56  1  0  0  0
 18 57  1  0  0  0
 19 20  1  0  0  0
 19 58  1  0  0  0
 20 21  1  0  0  0
 20 59  1  0  0  0
 20 60  1  0  0  0
 21 22  1  0  0  0
 21 30  1  0  0  0
 21 61  1  0  0  0
 22 23  1  0  0  0
 22 62  1  0  0  0
 22 63  1  0  0  0
 23 24  1  0  0  0
 23 64  1  0  0  0
 23 65  1  0  0  0
 24 25  2  0  0  0
 24 29  1  0  0  0
 25 26  1  0  0  0
 25 66  1  0  0  0
 26 27  2  0  0  0
 26 67  1  0  0  0
 27 28  1  0  0  0
 27 68  1  0  0  0
 28 29  2  0  0  0
 28 69  1  0  0  0
 29 70  1  0  0  0
 30 71  1  0  0  0
 31 32  1  0  0  0
 31 72  1  0  0  0
 32 33  1  0  0  0
 32 73  1  0  0  0
 32 74  1  0  0  0
 33 34  1  0  0  0
 33 38  1  0  0  0
 33 75  1  0  0  0
 34 35  1  0  0  0
 34 37  1  0  0  0
 34 76  1  0  0  0
 35 36  1  0  0  0
 35 77  1  0  0  0
 35 78  1  0  0  0
 36 79  1  0  0  0
 36 80  1  0  0  0
 36 81  1  0  0  0
 37 82  1  0  0  0
 37 83  1  0  0  0
 37 84  1  0  0  0
 38 39  1  0  0  0
 38 40  1  0  0  0
 38 85  1  0  0  0
 39 86  1  0  0  0
 40 41  2  0  0  0
M  END
> <s_m_source_file>
../4j70_ligand.sdf

> <i_m_source_file_index>
1

> <s_epik_input>
W2NIXTFbY0hdW2NIXVtjSF1bY0hdYzFbQ0gyXU9DKD1PKVtOSF1bQ0BASF0oW0NIM10pQyg9TylbTkhdW0NASF0oW0NIMl1bQ0gyXWMyW2NIXVtjSF1bY0hdW2NIXVtjSF0yKVtDSDJdW0NAQEhdM1tDSDJdW0NAQEhdM1tOSF1DKD1PKVtDQEhdKFtPSF0pW0NAQEhdKFtDSDJdW09IXSlbQ0BASF0oW0NIM10pW0NIMl1bQ0gzXQ==

> <s_epik_cmdline>
J2VwaWtfYXBwJywgJy1pbWFlJywgJ2xpZ2FuZF9wcm8ubWFlJywgJy1vbWFlJywgJ2xpZ2FuZF9wcmVwLm1hZScsICctbXMnLCAnMScsICctcGgnLCAnNycsICctcGh0JywgJzAuNScsICctbnQn

> <r_lp_tautomer_probability>
1

> <r_epik_Ionization_Penalty>
  0.0000

> <r_epik_Ionization_Penalty_Charging>
  0.0000

> <r_epik_Ionization_Penalty_Neutral>
  0.0000

> <r_epik_State_Penalty>
 -0.0000

> <r_epik_Charging_Adjusted_Penalty>
0

> <i_epik_Tot_Q>
0

> <i_epik_Tot_abs_Q>
0

> <s_epik_Chemistry_Notes>
This compound has an ester and may undergo hydrolysis at high or low pH.

$$$$
