4j73_ligand
                    3D
 Schrodinger Suite 2020-3.
102101  0  0  1  0            999 V2000
  -15.2580   -4.5530  -17.0180 N   0  3  0  0  0  0
  -14.4900   -5.1110  -18.1290 C   0  0  2  0  0  0
  -13.4590   -4.1160  -18.6240 C   0  0  0  0  0  0
  -12.3620   -4.5110  -19.0060 O   0  0  0  0  0  0
  -15.4450   -5.5280  -19.2650 C   0  0  0  0  0  0
  -13.7560   -2.8190  -18.5010 N   0  0  0  0  0  0
  -12.8340   -1.7530  -18.8930 C   0  0  2  0  0  0
  -11.4460   -1.8650  -18.2640 C   0  0  0  0  0  0
  -10.4380   -1.5230  -18.8910 O   0  0  0  0  0  0
  -13.4220   -0.4110  -18.5800 C   0  0  0  0  0  0
  -11.3670   -2.3160  -17.0170 N   0  0  0  0  0  0
  -10.0690   -2.4840  -16.3870 C   0  0  2  0  0  0
   -9.1960   -3.4950  -17.1470 C   0  0  0  0  0  0
   -7.9850   -3.2920  -17.2610 O   0  0  0  0  0  0
  -10.2300   -2.8780  -14.9040 C   0  0  0  0  0  0
   -8.9080   -3.0570  -14.1390 C   0  0  0  0  0  0
   -8.0420   -1.7920  -14.2330 C   0  0  0  0  0  0
   -6.7240   -1.9640  -13.4830 C   0  0  0  0  0  0
   -6.0770   -0.6170  -13.3770 N   0  3  0  0  0  0
   -9.8020   -4.5730  -17.6400 N   0  0  0  0  0  0
   -9.0610   -5.5930  -18.3730 C   0  0  2  0  0  0
   -8.5720   -5.0620  -19.7130 C   0  0  0  0  0  0
   -7.4610   -5.3730  -20.1310 O   0  0  0  0  0  0
   -9.8900   -6.8560  -18.6270 C   0  0  0  0  0  0
   -9.0290   -8.0230  -19.1740 C   0  0  0  0  0  0
   -9.9240   -9.2310  -19.4530 C   0  0  0  0  0  0
   -9.1450  -10.3250  -20.1450 C   0  0  0  0  0  0
   -8.2610  -11.1610  -19.2430 N   0  3  0  0  0  0
   -9.3700   -4.2200  -20.3480 N   0  0  0  0  0  0
   -9.1560   -3.9160  -21.7510 C   0  0  2  0  0  0
   -8.3470   -2.6640  -22.0440 C   0  0  0  0  0  0
   -7.6480   -2.6350  -23.0520 O   0  0  0  0  0  0
  -10.5100   -3.8180  -22.4550 C   0  0  0  0  0  0
  -11.2970   -5.1250  -22.4820 C   0  0  0  0  0  0
  -12.6720   -4.9080  -23.1440 C   0  0  0  0  0  0
  -10.5240   -6.2030  -23.2220 C   0  0  0  0  0  0
   -8.4540   -1.6410  -21.2050 N   0  0  0  0  0  0
   -7.9250   -0.3290  -21.5670 C   0  0  2  0  0  0
   -6.3990   -0.3720  -21.6620 C   0  0  0  0  0  0
   -5.7480   -1.2280  -21.0410 O   0  5  0  0  0  0
   -8.3780    0.7340  -20.5690 C   0  0  0  0  0  0
   -7.7210    0.5090  -19.2060 C   0  0  0  0  0  0
   -8.0630    2.1270  -21.0970 C   0  0  0  0  0  0
   -5.7780    0.4230  -22.3780 O   0  0  0  0  0  0
  -14.5723   -4.2571  -16.2104 H   0  0  0  0  0  0
  -15.9621   -5.3100  -16.6423 H   0  0  0  0  0  0
  -15.8176   -3.6719  -17.3651 H   0  0  0  0  0  0
  -13.9570   -5.9859  -17.7285 H   0  0  0  0  0  0
  -16.1811   -6.2486  -18.8792 H   0  0  0  0  0  0
  -14.8674   -5.9932  -20.0774 H   0  0  0  0  0  0
  -15.9679   -4.6397  -19.6490 H   0  0  0  0  0  0
  -14.7425   -2.5674  -18.0844 H   0  0  0  0  0  0
  -12.7346   -1.8867  -19.9803 H   0  0  0  0  0  0
  -14.4209   -0.3335  -19.0340 H   0  0  0  0  0  0
  -12.7721    0.3779  -18.9866 H   0  0  0  0  0  0
  -13.5046   -0.2922  -17.4896 H   0  0  0  0  0  0
  -12.2840   -2.5622  -16.4615 H   0  0  0  0  0  0
   -9.5992   -1.4922  -16.4616 H   0  0  0  0  0  0
  -10.7989   -2.0978  -14.3770 H   0  0  0  0  0  0
  -10.7689   -3.8344  -14.8351 H   0  0  0  0  0  0
   -9.1222   -3.2599  -13.0793 H   0  0  0  0  0  0
   -8.3475   -3.9008  -14.5678 H   0  0  0  0  0  0
   -7.8182   -1.5785  -15.2886 H   0  0  0  0  0  0
   -8.5854   -0.9422  -13.7943 H   0  0  0  0  0  0
   -6.9229   -2.3713  -12.4808 H   0  0  0  0  0  0
   -6.0740   -2.6566  -14.0379 H   0  0  0  0  0  0
   -5.1219   -0.7103  -12.8393 H   0  0  0  0  0  0
   -6.7414    0.0667  -12.8284 H   0  0  0  0  0  0
   -5.8926   -0.2185  -14.3855 H   0  0  0  0  0  0
  -10.8852   -4.6853  -17.4845 H   0  0  0  0  0  0
   -8.2187   -5.8174  -17.7021 H   0  0  0  0  0  0
  -10.3532   -7.1860  -17.6855 H   0  0  0  0  0  0
  -10.6757   -6.6367  -19.3650 H   0  0  0  0  0  0
   -8.5360   -7.7094  -20.1060 H   0  0  0  0  0  0
   -8.2664   -8.2962  -18.4298 H   0  0  0  0  0  0
  -10.3187   -9.6220  -18.5036 H   0  0  0  0  0  0
  -10.7599   -8.9264  -20.0999 H   0  0  0  0  0  0
   -9.8440  -11.0224  -20.6299 H   0  0  0  0  0  0
   -8.4845   -9.8808  -20.9042 H   0  0  0  0  0  0
   -7.7419  -11.9233  -19.8426 H   0  0  0  0  0  0
   -8.8793  -11.6542  -18.4785 H   0  0  0  0  0  0
   -7.5198  -10.5126  -18.7528 H   0  0  0  0  0  0
  -10.2016   -3.7486  -19.8037 H   0  0  0  0  0  0
   -8.5397   -4.7654  -22.0807 H   0  0  0  0  0  0
  -11.1372   -3.0742  -21.9417 H   0  0  0  0  0  0
  -10.3584   -3.5110  -23.5003 H   0  0  0  0  0  0
  -11.4366   -5.4616  -21.4441 H   0  0  0  0  0  0
  -13.2216   -4.1259  -22.5997 H   0  0  0  0  0  0
  -13.2450   -5.8465  -23.1152 H   0  0  0  0  0  0
  -12.5305   -4.5967  -24.1895 H   0  0  0  0  0  0
   -9.5457   -6.3485  -22.7406 H   0  0  0  0  0  0
  -10.3760   -5.8956  -24.2678 H   0  0  0  0  0  0
  -11.0905   -7.1455  -23.1934 H   0  0  0  0  0  0
   -8.9451   -1.7865  -20.2315 H   0  0  0  0  0  0
   -8.3501   -0.1008  -22.5555 H   0  0  0  0  0  0
   -9.4680    0.6537  -20.4443 H   0  0  0  0  0  0
   -7.9620   -0.5018  -18.8452 H   0  0  0  0  0  0
   -8.0983    1.2537  -18.4897 H   0  0  0  0  0  0
   -6.6303    0.6134  -19.3030 H   0  0  0  0  0  0
   -8.5449    2.2657  -22.0760 H   0  0  0  0  0  0
   -6.9742    2.2407  -21.2049 H   0  0  0  0  0  0
   -8.4423    2.8809  -20.3915 H   0  0  0  0  0  0
  1  2  1  0  0  0
  1 45  1  0  0  0
  1 46  1  0  0  0
  1 47  1  0  0  0
  2  3  1  0  0  0
  2  5  1  0  0  0
  2 48  1  0  0  0
  3  4  2  0  0  0
  3  6  1  0  0  0
  5 49  1  0  0  0
  5 50  1  0  0  0
  5 51  1  0  0  0
  6  7  1  0  0  0
  6 52  1  0  0  0
  7  8  1  0  0  0
  7 10  1  0  0  0
  7 53  1  0  0  0
  8  9  2  0  0  0
  8 11  1  0  0  0
 10 54  1  0  0  0
 10 55  1  0  0  0
 10 56  1  0  0  0
 11 12  1  0  0  0
 11 57  1  0  0  0
 12 13  1  0  0  0
 12 15  1  0  0  0
 12 58  1  0  0  0
 13 14  2  0  0  0
 13 20  1  0  0  0
 15 16  1  0  0  0
 15 59  1  0  0  0
 15 60  1  0  0  0
 16 17  1  0  0  0
 16 61  1  0  0  0
 16 62  1  0  0  0
 17 18  1  0  0  0
 17 63  1  0  0  0
 17 64  1  0  0  0
 18 19  1  0  0  0
 18 65  1  0  0  0
 18 66  1  0  0  0
 19 67  1  0  0  0
 19 68  1  0  0  0
 19 69  1  0  0  0
 20 21  1  0  0  0
 20 70  1  0  0  0
 21 22  1  0  0  0
 21 24  1  0  0  0
 21 71  1  0  0  0
 22 23  2  0  0  0
 22 29  1  0  0  0
 24 25  1  0  0  0
 24 72  1  0  0  0
 24 73  1  0  0  0
 25 26  1  0  0  0
 25 74  1  0  0  0
 25 75  1  0  0  0
 26 27  1  0  0  0
 26 76  1  0  0  0
 26 77  1  0  0  0
 27 28  1  0  0  0
 27 78  1  0  0  0
 27 79  1  0  0  0
 28 80  1  0  0  0
 28 81  1  0  0  0
 28 82  1  0  0  0
 29 30  1  0  0  0
 29 83  1  0  0  0
 30 31  1  0  0  0
 30 33  1  0  0  0
 30 84  1  0  0  0
 31 32  2  0  0  0
 31 37  1  0  0  0
 33 34  1  0  0  0
 33 85  1  0  0  0
 33 86  1  0  0  0
 34 35  1  0  0  0
 34 36  1  0  0  0
 34 87  1  0  0  0
 35 88  1  0  0  0
 35 89  1  0  0  0
 35 90  1  0  0  0
 36 91  1  0  0  0
 36 92  1  0  0  0
 36 93  1  0  0  0
 37 38  1  0  0  0
 37 94  1  0  0  0
 38 39  1  0  0  0
 38 41  1  0  0  0
 38 95  1  0  0  0
 39 40  1  0  0  0
 39 44  2  0  0  0
 41 42  1  0  0  0
 41 43  1  0  0  0
 41 96  1  0  0  0
 42 97  1  0  0  0
 42 98  1  0  0  0
 42 99  1  0  0  0
 43100  1  0  0  0
 43101  1  0  0  0
 43102  1  0  0  0
M  CHG  4   1   1  19   1  28   1  40  -1
M  END
> <s_m_source_file>
../4j73_ligand.sdf

> <i_m_source_file_index>
1

> <s_epik_input>
W05IMytdW0NAQEhdKFtDSDNdKUMoPU8pW05IXVtDQEBIXShbQ0gzXSlDKD1PKVtOSF1bQ0BASF0oW0NIMl1bQ0gyXVtDSDJdW0NIMl1bTkgzK10pQyg9TylbTkhdW0NAQEhdKFtDSDJdW0NIMl1bQ0gyXVtDSDJdW05IMytdKUMoPU8pW05IXVtDQEBIXShbQ0gyXVtDSF0oW0NIM10pW0NIM10pQyg9TylbTkhdW0NASF0oQyg9TylbT0hdKVtDSF0oW0NIM10pW0NIM10=

> <s_epik_cmdline>
J2VwaWtfYXBwJywgJy1pbWFlJywgJ2xpZ2FuZF9wcm8ubWFlJywgJy1vbWFlJywgJ2xpZ2FuZF9wcmVwLm1hZScsICctbXMnLCAnMScsICctcGgnLCAnNycsICctcGh0JywgJzAuNScsICctbnQn

> <r_epik_Ionization_Penalty>
  0.1250

> <r_epik_Ionization_Penalty_Charging>
  0.1250

> <r_epik_Ionization_Penalty_Neutral>
  0.0000

> <r_epik_State_Penalty>
  0.1134

> <r_epik_Charging_Adjusted_Penalty>
0.238457185875888

> <i_epik_Tot_Q>
2

> <i_epik_Tot_abs_Q>
4

$$$$
