4j74_ligand
                    3D
 Schrodinger Suite 2020-3.
 35 37  0  0  1  0            999 V2000
  -13.7500   -9.5080    2.6330 N   0  0  0  0  0  0
  -12.6710   -9.7260    1.6670 C   0  0  2  0  0  0
  -13.2230  -10.3460    0.4060 C   0  0  0  0  0  0
  -11.7030  -10.6570    2.4540 C   0  0  2  0  0  0
  -11.3800  -11.9480    1.7480 C   0  0  0  0  0  0
  -12.3850  -10.9090    3.7230 N   0  3  0  0  0  0
  -13.4820  -10.2540    3.7620 C   0  0  0  0  0  0
  -14.4600  -10.2400    4.9030 C   0  0  0  0  0  0
  -14.4750  -10.9650    0.4350 C   0  0  0  0  0  0
  -15.0140  -11.5130   -0.7240 C   0  0  0  0  0  0
  -14.2910  -11.4520   -1.9160 C   0  0  0  0  0  0
  -14.9460  -12.2010   -3.3550 Cl  0  0  0  0  0  0
  -13.0440  -10.8190   -1.9610 C   0  0  0  0  0  0
  -12.5080  -10.2730   -0.7950 C   0  0  0  0  0  0
  -10.1830  -12.0660    1.0400 C   0  0  0  0  0  0
   -9.8730  -13.2490    0.3820 C   0  0  0  0  0  0
  -10.7720  -14.3140    0.4220 C   0  0  0  0  0  0
  -10.4300  -15.7610   -0.4980 Cl  0  0  0  0  0  0
  -11.9520  -14.2220    1.1630 C   0  0  0  0  0  0
  -12.2560  -13.0350    1.8230 C   0  0  0  0  0  0
  -14.5842   -8.8358    2.3834 H   0  0  0  0  0  0
  -12.2059   -8.7908    1.3218 H   0  0  0  0  0  0
  -10.7156  -10.2016    2.6207 H   0  0  0  0  0  0
  -15.3088   -9.5875    4.6504 H   0  0  0  0  0  0
  -13.9624   -9.8607    5.8077 H   0  0  0  0  0  0
  -14.8246  -11.2616    5.0860 H   0  0  0  0  0  0
  -15.0320  -11.0187    1.3704 H   0  0  0  0  0  0
  -15.9952  -11.9872   -0.7014 H   0  0  0  0  0  0
  -12.4954  -10.7531   -2.9006 H   0  0  0  0  0  0
  -11.5316   -9.7891   -0.8190 H   0  0  0  0  0  0
   -9.4888  -11.2264    1.0034 H   0  0  0  0  0  0
   -8.9333  -13.3443   -0.1620 H   0  0  0  0  0  0
  -12.6299  -15.0734    1.2240 H   0  0  0  0  0  0
  -13.1778  -12.9528    2.3988 H   0  0  0  0  0  0
  -12.0911  -11.5408    4.5742 H   0  0  0  0  0  0
  1  2  1  0  0  0
  1  7  1  0  0  0
  1 21  1  0  0  0
  2  3  1  0  0  0
  2  4  1  0  0  0
  2 22  1  0  0  0
  3  9  2  0  0  0
  3 14  1  0  0  0
  4  5  1  0  0  0
  4  6  1  0  0  0
  4 23  1  0  0  0
  5 15  2  0  0  0
  5 20  1  0  0  0
  6  7  2  0  0  0
  6 35  1  0  0  0
  7  8  1  0  0  0
  8 24  1  0  0  0
  8 25  1  0  0  0
  8 26  1  0  0  0
  9 10  1  0  0  0
  9 27  1  0  0  0
 10 11  2  0  0  0
 10 28  1  0  0  0
 11 12  1  0  0  0
 11 13  1  0  0  0
 13 14  2  0  0  0
 13 29  1  0  0  0
 14 30  1  0  0  0
 15 16  1  0  0  0
 15 31  1  0  0  0
 16 17  2  0  0  0
 16 32  1  0  0  0
 17 18  1  0  0  0
 17 19  1  0  0  0
 19 20  2  0  0  0
 19 33  1  0  0  0
 20 34  1  0  0  0
M  CHG  1   6   1
M  END
> <s_m_source_file>
../4j74_ligand.sdf

> <i_m_source_file_index>
1

> <s_epik_input>
W2NIXTFbY0hdYyhDbClbY0hdW2NIXWMxW0NASF0yW05IXUMoW0NIM10pPU5bQ0BIXTJjM1tjSF1bY0hdYyhDbClbY0hdW2NIXTM=

> <s_epik_cmdline>
J2VwaWtfYXBwJywgJy1pbWFlJywgJ2xpZ2FuZF9wcm8ubWFlJywgJy1vbWFlJywgJ2xpZ2FuZF9wcmVwLm1hZScsICctbXMnLCAnMScsICctcGgnLCAnNycsICctcGh0JywgJzAuNScsICctbnQn

> <r_lp_tautomer_probability>
1

> <r_epik_Ionization_Penalty>
  0.0090

> <r_epik_Ionization_Penalty_Charging>
  0.0090

> <r_epik_Ionization_Penalty_Neutral>
  0.0000

> <r_epik_State_Penalty>
 -0.0000

> <r_epik_Charging_Adjusted_Penalty>
0.00895819648153559

> <i_epik_Tot_Q>
1

> <i_epik_Tot_abs_Q>
1

> <s_epik_Chemistry_Notes>
This compound has an imine and may undergo hydrolysis.

$$$$
