4j77_ligand
                    3D
 Schrodinger Suite 2020-3.
 85 84  0  0  1  0            999 V2000
  -43.5910  -19.4180  -46.2650 N   0  3  0  0  0  0
  -44.6750  -18.9860  -45.3930 C   0  0  2  0  0  0
  -45.0160  -17.5110  -45.5900 C   0  0  0  0  0  0
  -44.1790  -16.6390  -45.3600 O   0  0  0  0  0  0
  -44.2820  -19.1900  -43.9200 C   0  0  0  0  0  0
  -45.0040  -20.3260  -43.2110 C   0  0  0  0  0  0
  -46.4710  -20.0070  -42.8840 C   0  0  0  0  0  0
  -47.0960  -21.2020  -42.1550 C   0  0  0  0  0  0
  -48.5750  -21.2300  -42.0970 N   0  3  0  0  0  0
  -46.2480  -17.2150  -45.9770 N   0  0  0  0  0  0
  -46.7000  -15.8440  -45.8550 C   0  0  2  0  0  0
  -46.8540  -15.4680  -44.3860 C   0  0  0  0  0  0
  -47.1980  -16.3060  -43.5460 O   0  0  0  0  0  0
  -48.0500  -15.6580  -46.5290 C   0  0  0  0  0  0
  -47.9690  -15.3210  -47.9990 C   0  0  0  0  0  0
  -49.3430  -15.2640  -48.6180 C   0  0  0  0  0  0
  -50.0270  -14.2420  -48.4340 O   0  5  0  0  0  0
  -49.7500  -16.2590  -49.2420 O   0  0  0  0  0  0
  -46.6290  -14.1900  -44.0950 N   0  0  0  0  0  0
  -46.9890  -13.6250  -42.7990 C   0  0  2  0  0  0
  -46.1830  -14.3330  -41.7290 C   0  0  0  0  0  0
  -46.6820  -14.6460  -40.6360 O   0  0  0  0  0  0
  -48.5000  -13.7570  -42.5750 C   0  0  0  0  0  0
  -49.3120  -12.7230  -43.3680 C   0  0  0  0  0  0
  -49.2110  -11.3910  -42.6220 C   0  0  0  0  0  0
  -49.9960  -10.2840  -43.2850 C   0  0  0  0  0  0
  -49.7660   -9.0450  -42.5400 N   0  3  0  0  0  0
  -44.9280  -14.5680  -42.0940 N   0  0  0  0  0  0
  -43.9490  -15.2330  -41.2650 C   0  0  2  0  0  0
  -43.6130  -14.3820  -40.0320 C   0  0  0  0  0  0
  -43.4520  -14.9180  -38.9440 O   0  0  0  0  0  0
  -42.6910  -15.4830  -42.1100 C   0  0  0  0  0  0
  -41.7780  -16.3650  -41.5010 O   0  0  0  0  0  0
  -43.4980  -13.0650  -40.1940 N   0  0  0  0  0  0
  -43.0240  -12.2410  -39.0810 C   0  0  2  0  0  0
  -44.1130  -11.9760  -38.0460 C   0  0  0  0  0  0
  -45.3080  -12.2280  -38.2730 O   0  0  0  0  0  0
  -42.5200  -10.8660  -39.5250 C   0  0  0  0  0  0
  -41.3050  -10.9250  -40.4480 C   0  0  0  0  0  0
  -40.5720  -11.9340  -40.4640 O   0  0  0  0  0  0
  -41.1120   -9.9180  -41.1600 O   0  5  0  0  0  0
  -43.7910  -11.4160  -36.9760 O   0  5  0  0  0  0
  -43.8829  -19.2677  -47.3149 H   0  0  0  0  0  0
  -43.3834  -20.4842  -46.0912 H   0  0  0  0  0  0
  -42.6882  -18.8284  -46.0474 H   0  0  0  0  0  0
  -45.5257  -19.6143  -45.6955 H   0  0  0  0  0  0
  -43.2066  -19.4121  -43.8548 H   0  0  0  0  0  0
  -44.5024  -18.2744  -43.3515 H   0  0  0  0  0  0
  -44.9953  -21.2214  -43.8500 H   0  0  0  0  0  0
  -44.4948  -20.5481  -42.2616 H   0  0  0  0  0  0
  -46.5178  -19.1162  -42.2404 H   0  0  0  0  0  0
  -47.0212  -19.8147  -43.8169 H   0  0  0  0  0  0
  -46.7937  -22.1347  -42.6537 H   0  0  0  0  0  0
  -46.7506  -21.2160  -41.1107 H   0  0  0  0  0  0
  -48.9037  -22.1279  -41.5532 H   0  0  0  0  0  0
  -48.9817  -21.2508  -43.1189 H   0  0  0  0  0  0
  -48.9386  -20.3321  -41.5759 H   0  0  0  0  0  0
  -46.9230  -17.9826  -46.3835 H   0  0  0  0  0  0
  -45.9223  -15.2459  -46.3525 H   0  0  0  0  0  0
  -48.6336  -16.5864  -46.4432 H   0  0  0  0  0  0
  -48.5940  -14.8365  -46.0399 H   0  0  0  0  0  0
  -47.4852  -14.3411  -48.1244 H   0  0  0  0  0  0
  -47.3797  -16.0902  -48.5196 H   0  0  0  0  0  0
  -46.1590  -13.5550  -44.8604 H   0  0  0  0  0  0
  -46.7267  -12.5567  -42.7975 H   0  0  0  0  0  0
  -48.8313  -14.7575  -42.8901 H   0  0  0  0  0  0
  -48.7263  -13.6150  -41.5079 H   0  0  0  0  0  0
  -48.8955  -12.6290  -44.3817 H   0  0  0  0  0  0
  -50.3603  -13.0502  -43.4312 H   0  0  0  0  0  0
  -49.6009  -11.5123  -41.6006 H   0  0  0  0  0  0
  -48.1584  -11.0745  -42.5775 H   0  0  0  0  0  0
  -49.6573  -10.1664  -44.3249 H   0  0  0  0  0  0
  -51.0666  -10.5365  -43.2744 H   0  0  0  0  0  0
  -50.3305   -8.2253  -43.0085 H   0  0  0  0  0  0
  -48.6927   -8.8043  -42.5512 H   0  0  0  0  0  0
  -50.1020   -9.1744  -41.5006 H   0  0  0  0  0  0
  -44.6512  -14.2196  -43.1000 H   0  0  0  0  0  0
  -44.4077  -16.1772  -40.9361 H   0  0  0  0  0  0
  -42.9799  -15.9205  -43.0770 H   0  0  0  0  0  0
  -42.1683  -14.5302  -42.2802 H   0  0  0  0  0  0
  -40.8377  -16.6217  -42.0108 H   0  0  0  0  0  0
  -43.7560  -12.5957  -41.1548 H   0  0  0  0  0  0
  -42.2123  -12.8664  -38.6809 H   0  0  0  0  0  0
  -43.3188  -10.3409  -40.0692 H   0  0  0  0  0  0
  -42.2310  -10.2784  -38.6411 H   0  0  0  0  0  0
  1  2  1  0  0  0
  1 43  1  0  0  0
  1 44  1  0  0  0
  1 45  1  0  0  0
  2  3  1  0  0  0
  2  5  1  0  0  0
  2 46  1  0  0  0
  3  4  2  0  0  0
  3 10  1  0  0  0
  5  6  1  0  0  0
  5 47  1  0  0  0
  5 48  1  0  0  0
  6  7  1  0  0  0
  6 49  1  0  0  0
  6 50  1  0  0  0
  7  8  1  0  0  0
  7 51  1  0  0  0
  7 52  1  0  0  0
  8  9  1  0  0  0
  8 53  1  0  0  0
  8 54  1  0  0  0
  9 55  1  0  0  0
  9 56  1  0  0  0
  9 57  1  0  0  0
 10 11  1  0  0  0
 10 58  1  0  0  0
 11 12  1  0  0  0
 11 14  1  0  0  0
 11 59  1  0  0  0
 12 13  2  0  0  0
 12 19  1  0  0  0
 14 15  1  0  0  0
 14 60  1  0  0  0
 14 61  1  0  0  0
 15 16  1  0  0  0
 15 62  1  0  0  0
 15 63  1  0  0  0
 16 17  1  0  0  0
 16 18  2  0  0  0
 19 20  1  0  0  0
 19 64  1  0  0  0
 20 21  1  0  0  0
 20 23  1  0  0  0
 20 65  1  0  0  0
 21 22  2  0  0  0
 21 28  1  0  0  0
 23 24  1  0  0  0
 23 66  1  0  0  0
 23 67  1  0  0  0
 24 25  1  0  0  0
 24 68  1  0  0  0
 24 69  1  0  0  0
 25 26  1  0  0  0
 25 70  1  0  0  0
 25 71  1  0  0  0
 26 27  1  0  0  0
 26 72  1  0  0  0
 26 73  1  0  0  0
 27 74  1  0  0  0
 27 75  1  0  0  0
 27 76  1  0  0  0
 28 29  1  0  0  0
 28 77  1  0  0  0
 29 30  1  0  0  0
 29 32  1  0  0  0
 29 78  1  0  0  0
 30 31  2  0  0  0
 30 34  1  0  0  0
 32 33  1  0  0  0
 32 79  1  0  0  0
 32 80  1  0  0  0
 33 81  1  0  0  0
 34 35  1  0  0  0
 34 82  1  0  0  0
 35 36  1  0  0  0
 35 38  1  0  0  0
 35 83  1  0  0  0
 36 37  2  0  0  0
 36 42  1  0  0  0
 38 39  1  0  0  0
 38 84  1  0  0  0
 38 85  1  0  0  0
 39 40  2  0  0  0
 39 41  1  0  0  0
M  CHG  6   1   1   9   1  17  -1  27   1  41  -1  42  -1
M  END
> <s_m_source_file>
../4j77_ligand.sdf

> <i_m_source_file_index>
1

> <s_epik_input>
W05IMytdW0NIMl1bQ0gyXVtDSDJdW0NIMl1bQ0BIXShbTkgzK10pQyg9TylbTkhdW0NAQEhdKFtDSDJdW0NIMl1DKD1PKVtPSF0pQyg9TylbTkhdW0NAQEhdKFtDSDJdW0NIMl1bQ0gyXVtDSDJdW05IMytdKUMoPU8pW05IXVtDQEBIXShbQ0gyXVtPSF0pQyg9TylbTkhdW0NASF0oQyg9TylbT0hdKVtDSDJdQyg9TylbT0hd

> <s_epik_cmdline>
J2VwaWtfYXBwJywgJy1pbWFlJywgJ2xpZ2FuZF9wcm8ubWFlJywgJy1vbWFlJywgJ2xpZ2FuZF9wcmVwLm1hZScsICctbXMnLCAnMScsICctcGgnLCAnNycsICctcGh0JywgJzAuNScsICctbnQn

> <r_epik_Ionization_Penalty>
  0.1190

> <r_epik_Ionization_Penalty_Charging>
  0.1190

> <r_epik_Ionization_Penalty_Neutral>
  0.0000

> <r_epik_State_Penalty>
  0.1047

> <r_epik_Charging_Adjusted_Penalty>
0.223694422302948

> <i_epik_Tot_Q>
0

> <i_epik_Tot_abs_Q>
6

$$$$
