4j78_ligand
                    3D
 Schrodinger Suite 2020-3.
 99 98  0  0  1  0            999 V2000
    5.8550   -0.9140   19.9160 N   0  3  0  0  0  0
    4.4970   -0.3770   19.8750 C   0  0  2  0  0  0
    4.5210    1.1380   19.6870 C   0  0  0  0  0  0
    4.8940    1.8720   20.6010 O   0  0  0  0  0  0
    3.7440   -0.7520   21.1620 C   0  0  0  0  0  0
    2.3420   -0.1390   21.3050 C   0  0  0  0  0  0
    1.3850   -0.5730   20.1860 C   0  0  0  0  0  0
    0.8180   -1.9800   20.3910 C   0  0  0  0  0  0
   -0.0120   -2.3830   19.2020 N   0  3  0  0  0  0
    4.1320    1.6110   18.5050 N   0  0  0  0  0  0
    4.0460    3.0530   18.2870 C   0  0  2  0  0  0
    2.8110    3.6000   19.0190 C   0  0  0  0  0  0
    1.8840    2.8520   19.3320 O   0  0  0  0  0  0
    4.0180    3.4270   16.7870 C   0  0  2  0  0  0
    4.1450    4.8480   16.6360 O   0  0  0  0  0  0
    2.7380    3.0020   16.1620 C   0  0  0  0  0  0
    2.8090    4.8980   19.2930 N   0  0  0  0  0  0
    1.6830    5.5290   19.9740 C   0  0  2  0  0  0
    1.3760    4.8220   21.2930 C   0  0  0  0  0  0
    0.2210    4.5240   21.6010 O   0  0  0  0  0  0
    0.4440    5.5490   19.0730 C   0  0  0  0  0  0
    0.6410    6.3000   17.7590 C   0  0  0  0  0  0
    0.8570    7.7790   17.9970 C   0  0  0  0  0  0
   -0.3760    8.5570   17.5820 C   0  0  0  0  0  0
   -0.3260    9.9590   18.0640 N   0  3  0  0  0  0
    2.4160    4.5520   22.0700 N   0  0  0  0  0  0
    2.2500    3.9010   23.3640 C   0  0  2  0  0  0
    1.6970    4.8690   24.4090 C   0  0  0  0  0  0
    0.9640    4.4570   25.3090 O   0  0  0  0  0  0
    3.5880    3.3240   23.8400 C   0  0  0  0  0  0
    3.5710    2.5580   25.1670 C   0  0  0  0  0  0
    2.6990    1.3050   25.0820 C   0  0  0  0  0  0
    4.9940    2.2030   25.6050 C   0  0  0  0  0  0
    2.0470    6.1500   24.2910 N   0  0  0  0  0  0
    1.5840    7.1690   25.2430 C   0  0  2  0  0  0
    0.0690    7.2670   25.2710 C   0  0  0  0  0  0
   -0.5850    6.9620   24.2660 O   0  0  0  0  0  0
    2.1240    8.5510   24.8660 C   0  0  0  0  0  0
    3.5950    8.8560   25.1560 C   0  0  0  0  0  0
    3.9380   10.2340   24.6130 C   0  0  0  0  0  0
    3.8730    8.7920   26.6390 C   0  0  0  0  0  0
   -0.5050    7.7100   26.2780 O   0  5  0  0  0  0
    6.3854   -0.6408   18.9918 H   0  0  0  0  0  0
    5.8135   -2.0096   20.0047 H   0  0  0  0  0  0
    6.3886   -0.4959   20.7823 H   0  0  0  0  0  0
    4.0148   -0.8393   19.0011 H   0  0  0  0  0  0
    3.6134   -1.8433   21.2056 H   0  0  0  0  0  0
    4.3219   -0.4167   22.0359 H   0  0  0  0  0  0
    1.9013   -0.4512   22.2633 H   0  0  0  0  0  0
    2.4168    0.9581   21.2759 H   0  0  0  0  0  0
    0.5356    0.1243   20.1390 H   0  0  0  0  0  0
    1.9185   -0.5663   19.2241 H   0  0  0  0  0  0
    1.6454   -2.6947   20.5119 H   0  0  0  0  0  0
    0.1873   -1.9935   21.2921 H   0  0  0  0  0  0
   -0.4135   -3.3947   19.3611 H   0  0  0  0  0  0
    0.6145   -2.3751   18.2979 H   0  0  0  0  0  0
   -0.8437   -1.6738   19.0781 H   0  0  0  0  0  0
    3.8753    0.9156   17.6923 H   0  0  0  0  0  0
    4.9710    3.4624   18.7192 H   0  0  0  0  0  0
    4.8568    2.9632   16.2472 H   0  0  0  0  0  0
    5.0300    5.3664   17.0335 H   0  0  0  0  0  0
    2.6221    1.9132   16.2677 H   0  0  0  0  0  0
    2.7450    3.2681   15.0947 H   0  0  0  0  0  0
    1.8998    3.5101   16.6612 H   0  0  0  0  0  0
    3.6798    5.5007   18.9958 H   0  0  0  0  0  0
    2.0111    6.5586   20.1795 H   0  0  0  0  0  0
    0.1602    4.5176   18.8169 H   0  0  0  0  0  0
   -0.3871    6.0370   19.6032 H   0  0  0  0  0  0
    1.5209    5.8980   17.2353 H   0  0  0  0  0  0
   -0.2508    6.1741   17.1274 H   0  0  0  0  0  0
    1.0523    7.9538   19.0653 H   0  0  0  0  0  0
    1.7181    8.1236   17.4057 H   0  0  0  0  0  0
   -0.4492    8.5700   16.4845 H   0  0  0  0  0  0
   -1.2715    8.0771   18.0035 H   0  0  0  0  0  0
   -1.2350   10.4894   17.7440 H   0  0  0  0  0  0
    0.5582   10.4601   17.6432 H   0  0  0  0  0  0
   -0.2641    9.9672   19.1622 H   0  0  0  0  0  0
    3.4207    4.8303   21.7192 H   0  0  0  0  0  0
    1.5179    3.0988   23.1892 H   0  0  0  0  0  0
    3.9694    2.6156   23.0899 H   0  0  0  0  0  0
    4.3124    4.1408   23.9747 H   0  0  0  0  0  0
    3.1270    3.2162   25.9284 H   0  0  0  0  0  0
    1.6835    1.5858   24.7660 H   0  0  0  0  0  0
    2.6553    0.8211   26.0689 H   0  0  0  0  0  0
    3.1309    0.6067   24.3500 H   0  0  0  0  0  0
    5.6005    3.1192   25.6585 H   0  0  0  0  0  0
    5.4399    1.5102   24.8762 H   0  0  0  0  0  0
    4.9643    1.7246   26.5951 H   0  0  0  0  0  0
    2.7002    6.4362   23.4535 H   0  0  0  0  0  0
    1.9666    6.8245   26.2151 H   0  0  0  0  0  0
    2.0101    8.7062   23.7830 H   0  0  0  0  0  0
    1.5613    9.3250   25.4085 H   0  0  0  0  0  0
    4.2307    8.1013   24.6699 H   0  0  0  0  0  0
    3.7304   10.2647   23.5332 H   0  0  0  0  0  0
    5.0040   10.4419   24.7875 H   0  0  0  0  0  0
    3.3278   10.9923   25.1255 H   0  0  0  0  0  0
    3.6202    7.7902   27.0165 H   0  0  0  0  0  0
    3.2626    9.5448   27.1593 H   0  0  0  0  0  0
    4.9387    8.9944   26.8213 H   0  0  0  0  0  0
  1  2  1  0  0  0
  1 43  1  0  0  0
  1 44  1  0  0  0
  1 45  1  0  0  0
  2  3  1  0  0  0
  2  5  1  0  0  0
  2 46  1  0  0  0
  3  4  2  0  0  0
  3 10  1  0  0  0
  5  6  1  0  0  0
  5 47  1  0  0  0
  5 48  1  0  0  0
  6  7  1  0  0  0
  6 49  1  0  0  0
  6 50  1  0  0  0
  7  8  1  0  0  0
  7 51  1  0  0  0
  7 52  1  0  0  0
  8  9  1  0  0  0
  8 53  1  0  0  0
  8 54  1  0  0  0
  9 55  1  0  0  0
  9 56  1  0  0  0
  9 57  1  0  0  0
 10 11  1  0  0  0
 10 58  1  0  0  0
 11 12  1  0  0  0
 11 14  1  0  0  0
 11 59  1  0  0  0
 12 13  2  0  0  0
 12 17  1  0  0  0
 14 15  1  0  0  0
 14 16  1  0  0  0
 14 60  1  0  0  0
 15 61  1  0  0  0
 16 62  1  0  0  0
 16 63  1  0  0  0
 16 64  1  0  0  0
 17 18  1  0  0  0
 17 65  1  0  0  0
 18 19  1  0  0  0
 18 21  1  0  0  0
 18 66  1  0  0  0
 19 20  2  0  0  0
 19 26  1  0  0  0
 21 22  1  0  0  0
 21 67  1  0  0  0
 21 68  1  0  0  0
 22 23  1  0  0  0
 22 69  1  0  0  0
 22 70  1  0  0  0
 23 24  1  0  0  0
 23 71  1  0  0  0
 23 72  1  0  0  0
 24 25  1  0  0  0
 24 73  1  0  0  0
 24 74  1  0  0  0
 25 75  1  0  0  0
 25 76  1  0  0  0
 25 77  1  0  0  0
 26 27  1  0  0  0
 26 78  1  0  0  0
 27 28  1  0  0  0
 27 30  1  0  0  0
 27 79  1  0  0  0
 28 29  2  0  0  0
 28 34  1  0  0  0
 30 31  1  0  0  0
 30 80  1  0  0  0
 30 81  1  0  0  0
 31 32  1  0  0  0
 31 33  1  0  0  0
 31 82  1  0  0  0
 32 83  1  0  0  0
 32 84  1  0  0  0
 32 85  1  0  0  0
 33 86  1  0  0  0
 33 87  1  0  0  0
 33 88  1  0  0  0
 34 35  1  0  0  0
 34 89  1  0  0  0
 35 36  1  0  0  0
 35 38  1  0  0  0
 35 90  1  0  0  0
 36 37  2  0  0  0
 36 42  1  0  0  0
 38 39  1  0  0  0
 38 91  1  0  0  0
 38 92  1  0  0  0
 39 40  1  0  0  0
 39 41  1  0  0  0
 39 93  1  0  0  0
 40 94  1  0  0  0
 40 95  1  0  0  0
 40 96  1  0  0  0
 41 97  1  0  0  0
 41 98  1  0  0  0
 41 99  1  0  0  0
M  CHG  4   1   1   9   1  25   1  42  -1
M  END
> <s_m_source_file>
../4j78_ligand.sdf

> <i_m_source_file_index>
1

> <s_epik_input>
W05IMytdW0NIMl1bQ0gyXVtDSDJdW0NIMl1bQ0BIXShbTkgzK10pQyg9TylbTkhdW0NAQEhdKFtDQEhdKFtPSF0pW0NIM10pQyg9TylbTkhdW0NAQEhdKFtDSDJdW0NIMl1bQ0gyXVtDSDJdW05IMytdKUMoPU8pW05IXVtDQEBIXShbQ0gyXVtDSF0oW0NIM10pW0NIM10pQyg9TylbTkhdW0NASF0oQyg9TylbT0hdKVtDSDJdW0NIXShbQ0gzXSlbQ0gzXQ==

> <s_epik_cmdline>
J2VwaWtfYXBwJywgJy1pbWFlJywgJ2xpZ2FuZF9wcm8ubWFlJywgJy1vbWFlJywgJ2xpZ2FuZF9wcmVwLm1hZScsICctbXMnLCAnMScsICctcGgnLCAnNycsICctcGh0JywgJzAuNScsICctbnQn

> <r_epik_Ionization_Penalty>
  0.1245

> <r_epik_Ionization_Penalty_Charging>
  0.1245

> <r_epik_Ionization_Penalty_Neutral>
  0.0000

> <r_epik_State_Penalty>
  0.1128

> <r_epik_Charging_Adjusted_Penalty>
0.237266579870598

> <i_epik_Tot_Q>
2

> <i_epik_Tot_abs_Q>
4

$$$$
