4j79_ligand
                    3D
 Schrodinger Suite 2020-3.
105105  0  0  1  0            999 V2000
    8.5620  -26.4050   18.6210 N   0  3  0  0  0  0
    7.9050  -26.4360   17.3200 C   0  0  2  0  0  0
    6.4620  -25.9310   17.3730 C   0  0  0  0  0  0
    5.9930  -25.3170   16.4100 O   0  0  0  0  0  0
    7.9430  -27.8390   16.7180 C   0  0  0  0  0  0
    7.8730  -27.8590   15.1990 C   0  0  0  0  0  0
    7.9860  -29.2620   14.6220 C   0  0  0  0  0  0
    8.3840  -30.1830   15.3710 O   0  5  0  0  0  0
    7.6820  -29.4420   13.4210 O   0  0  0  0  0  0
    5.7470  -26.1980   18.4700 N   0  0  0  0  0  0
    4.4030  -25.6260   18.6030 C   0  0  2  0  0  0
    4.5200  -24.1280   18.8540 C   0  0  0  0  0  0
    5.2060  -23.6870   19.7840 O   0  0  0  0  0  0
    3.5620  -26.2950   19.7080 C   0  0  0  0  0  0
    2.0780  -25.8770   19.6600 C   0  0  0  0  0  0
    1.2290  -26.5250   20.7460 C   0  0  0  0  0  0
    0.7600  -27.9220   20.3910 C   0  0  0  0  0  0
    0.0660  -27.9240   19.0600 N   0  3  0  0  0  0
    3.8620  -23.3440   18.0060 N   0  0  0  0  0  0
    3.8420  -21.8980   18.1750 C   0  0  2  0  0  0
    2.6020  -21.4940   18.9920 C   0  0  0  0  0  0
    1.7130  -22.3200   19.2350 O   0  0  0  0  0  0
    3.8470  -21.1820   16.8170 C   0  0  0  0  0  0
    5.1790  -21.4300   16.0930 C   0  0  0  0  0  0
    2.6980  -21.6680   15.9690 C   0  0  0  0  0  0
    2.5410  -20.0850   19.4180 N   0  0  0  0  0  0
    1.4400  -19.6990   20.3000 C   0  0  2  0  0  0
    1.2110  -20.6980   21.4220 C   0  0  0  0  0  0
    0.0700  -21.0480   21.7410 O   0  0  0  0  0  0
    0.1400  -19.4750   19.5050 C   0  0  0  0  0  0
    0.2110  -18.3050   18.5720 C   0  0  0  0  0  0
    0.7710  -18.3870   17.3140 N   0  0  0  0  0  0
   -0.2330  -17.0310   18.7060 C   0  0  0  0  0  0
    0.6910  -17.2060   16.7210 C   0  0  0  0  0  0
    0.0820  -16.3700   17.5420 N   0  0  0  0  0  0
    2.2000  -21.0350   22.1110 N   0  0  0  0  0  0
    2.0320  -21.8570   23.3160 C   0  0  2  0  0  0
    1.5730  -21.0160   24.4980 C   0  0  0  0  0  0
    0.8700  -21.5060   25.3940 O   0  0  0  0  0  0
    3.3300  -22.6290   23.6540 C   0  0  0  0  0  0
    3.2790  -23.2230   25.0420 C   0  0  0  0  0  0
    3.5760  -23.7260   22.6290 C   0  0  0  0  0  0
    1.9500  -19.7430   24.5040 N   0  0  0  0  0  0
    1.5310  -18.8720   25.6060 C   0  0  2  0  0  0
    0.0670  -18.4690   25.4720 C   0  0  0  0  0  0
   -0.4980  -17.8920   26.4180 O   0  0  0  0  0  0
    2.3770  -17.6020   25.6470 C   0  0  0  0  0  0
    3.8150  -17.8140   26.0490 C   0  0  0  0  0  0
    4.4930  -16.5020   26.3760 C   0  0  0  0  0  0
    4.5940  -16.1130   27.5460 O   0  0  0  0  0  0
    4.9390  -15.7970   25.3440 N   0  0  0  0  0  0
   -0.5810  -18.6750   24.4260 O   0  5  0  0  0  0
    8.5192  -25.3844   19.0292 H   0  0  0  0  0  0
    9.6125  -26.7112   18.5086 H   0  0  0  0  0  0
    8.0500  -27.0960   19.3068 H   0  0  0  0  0  0
    8.5056  -25.7398   16.7162 H   0  0  0  0  0  0
    8.8801  -28.3370   17.0076 H   0  0  0  0  0  0
    7.0878  -28.4215   17.0913 H   0  0  0  0  0  0
    6.9116  -27.4372   14.8707 H   0  0  0  0  0  0
    8.6970  -27.2586   14.7860 H   0  0  0  0  0  0
    6.1540  -26.8374   19.2672 H   0  0  0  0  0  0
    3.9141  -25.8286   17.6387 H   0  0  0  0  0  0
    3.6086  -27.3880   19.5932 H   0  0  0  0  0  0
    3.9604  -26.0126   20.6937 H   0  0  0  0  0  0
    1.9998  -24.7872   19.7872 H   0  0  0  0  0  0
    1.6472  -26.1647   18.6896 H   0  0  0  0  0  0
    1.8150  -26.5994   21.6739 H   0  0  0  0  0  0
    0.3335  -25.9120   20.9260 H   0  0  0  0  0  0
    1.6262  -28.5982   20.3422 H   0  0  0  0  0  0
    0.0585  -28.2796   21.1592 H   0  0  0  0  0  0
   -0.2660  -28.9451   18.8212 H   0  0  0  0  0  0
    0.7616  -27.5735   18.2833 H   0  0  0  0  0  0
   -0.8061  -27.2548   19.1002 H   0  0  0  0  0  0
    3.3260  -23.8068   17.1643 H   0  0  0  0  0  0
    4.7672  -21.6497   18.7157 H   0  0  0  0  0  0
    3.7144  -20.1017   16.9764 H   0  0  0  0  0  0
    6.0091  -21.0722   16.7198 H   0  0  0  0  0  0
    5.1824  -20.8882   15.1357 H   0  0  0  0  0  0
    5.2992  -22.5072   15.9052 H   0  0  0  0  0  0
    1.7502  -21.4856   16.4966 H   0  0  0  0  0  0
    2.8114  -22.7458   15.7808 H   0  0  0  0  0  0
    2.6946  -21.1269   15.0113 H   0  0  0  0  0  0
    3.2801  -19.3348   19.1002 H   0  0  0  0  0  0
    1.7872  -18.7573   20.7502 H   0  0  0  0  0  0
   -0.7807  -20.0736   19.5674 H   0  0  0  0  0  0
   -0.7521  -16.4994   19.5171 H   0  0  0  0  0  0
    1.0640  -16.9650   15.7256 H   0  0  0  0  0  0
    3.2043  -20.7078   21.8041 H   0  0  0  0  0  0
    1.2299  -22.5667   23.0651 H   0  0  0  0  0  0
    4.1750  -21.9250   23.6348 H   0  0  0  0  0  0
    3.1009  -22.4238   25.7765 H   0  0  0  0  0  0
    4.2356  -23.7187   25.2641 H   0  0  0  0  0  0
    2.4634  -23.9591   25.0961 H   0  0  0  0  0  0
    3.6117  -23.2853   21.6218 H   0  0  0  0  0  0
    2.7610  -24.4631   22.6781 H   0  0  0  0  0  0
    4.5332  -24.2227   22.8461 H   0  0  0  0  0  0
    2.5718  -19.3405   23.6907 H   0  0  0  0  0  0
    1.6817  -19.4792   26.5108 H   0  0  0  0  0  0
    2.3913  -17.1386   24.6495 H   0  0  0  0  0  0
    1.9452  -16.8970   26.3726 H   0  0  0  0  0  0
    3.8557  -18.4602   26.9383 H   0  0  0  0  0  0
    4.3600  -18.2932   25.2223 H   0  0  0  0  0  0
    4.8254  -16.1865   24.3216 H   0  0  0  0  0  0
    5.4223  -14.8231   25.5110 H   0  0  0  0  0  0
    1.1909  -19.3401   16.9599 H   0  0  0  0  0  0
  1  2  1  0  0  0
  1 53  1  0  0  0
  1 54  1  0  0  0
  1 55  1  0  0  0
  2  3  1  0  0  0
  2  5  1  0  0  0
  2 56  1  0  0  0
  3  4  2  0  0  0
  3 10  1  0  0  0
  5  6  1  0  0  0
  5 57  1  0  0  0
  5 58  1  0  0  0
  6  7  1  0  0  0
  6 59  1  0  0  0
  6 60  1  0  0  0
  7  8  1  0  0  0
  7  9  2  0  0  0
 10 11  1  0  0  0
 10 61  1  0  0  0
 11 12  1  0  0  0
 11 14  1  0  0  0
 11 62  1  0  0  0
 12 13  2  0  0  0
 12 19  1  0  0  0
 14 15  1  0  0  0
 14 63  1  0  0  0
 14 64  1  0  0  0
 15 16  1  0  0  0
 15 65  1  0  0  0
 15 66  1  0  0  0
 16 17  1  0  0  0
 16 67  1  0  0  0
 16 68  1  0  0  0
 17 18  1  0  0  0
 17 69  1  0  0  0
 17 70  1  0  0  0
 18 71  1  0  0  0
 18 72  1  0  0  0
 18 73  1  0  0  0
 19 20  1  0  0  0
 19 74  1  0  0  0
 20 21  1  0  0  0
 20 23  1  0  0  0
 20 75  1  0  0  0
 21 22  2  0  0  0
 21 26  1  0  0  0
 23 24  1  0  0  0
 23 25  1  0  0  0
 23 76  1  0  0  0
 24 77  1  0  0  0
 24 78  1  0  0  0
 24 79  1  0  0  0
 25 80  1  0  0  0
 25 81  1  0  0  0
 25 82  1  0  0  0
 26 27  1  0  0  0
 26 83  1  0  0  0
 27 28  1  0  0  0
 27 30  1  0  0  0
 27 84  1  0  0  0
 28 29  2  0  0  0
 28 36  1  0  0  0
 30 31  2  0  0  0
 30 85  1  0  0  0
 31 32  1  0  0  0
 31 33  1  0  0  0
 32 34  1  0  0  0
 32105  1  0  0  0
 33 35  2  0  0  0
 33 86  1  0  0  0
 34 35  1  0  0  0
 34 87  1  0  0  0
 36 37  1  0  0  0
 36 88  1  0  0  0
 37 38  1  0  0  0
 37 40  1  0  0  0
 37 89  1  0  0  0
 38 39  2  0  0  0
 38 43  1  0  0  0
 40 41  1  0  0  0
 40 42  1  0  0  0
 40 90  1  0  0  0
 41 91  1  0  0  0
 41 92  1  0  0  0
 41 93  1  0  0  0
 42 94  1  0  0  0
 42 95  1  0  0  0
 42 96  1  0  0  0
 43 44  1  0  0  0
 43 97  1  0  0  0
 44 45  1  0  0  0
 44 47  1  0  0  0
 44 98  1  0  0  0
 45 46  2  0  0  0
 45 52  1  0  0  0
 47 48  1  0  0  0
 47 99  1  0  0  0
 47100  1  0  0  0
 48 49  1  0  0  0
 48101  1  0  0  0
 48102  1  0  0  0
 49 50  2  0  0  0
 49 51  1  0  0  0
 51103  1  0  0  0
 51104  1  0  0  0
M  CHG  4   1   1   8  -1  18   1  52  -1
M  END
> <s_m_source_file>
../4j79_ligand.sdf

> <i_m_source_file_index>
1

> <s_epik_input>
W09IXUMoPU8pW0NIMl1bQ0gyXVtDQEhdKFtOSDMrXSlDKD1PKVtOSF1bQ0BASF0oW0NIMl1bQ0gyXVtDSDJdW0NIMl1bTkgzK10pQyg9TylbTkhdW0NAQEhdKFtDSF0oW0NIM10pW0NIM10pQyg9TylbTkhdW0NAQEhdKFtDSDJdQzE9TltDSDJdTj1bQ0hdMSlDKD1PKVtOSF1bQ0BASF0oW0NIXShbQ0gzXSlbQ0gzXSlDKD1PKVtOSF1bQ0BIXShDKD1PKVtPSF0pW0NIMl1bQ0gyXUMoPU8pW05IMl0=

> <s_epik_cmdline>
J2VwaWtfYXBwJywgJy1pbWFlJywgJ2xpZ2FuZF9wcm8ubWFlJywgJy1vbWFlJywgJ2xpZ2FuZF9wcmVwLm1hZScsICctbXMnLCAnMScsICctcGgnLCAnNycsICctcGh0JywgJzAuNScsICctbnQn

> <r_epik_Ionization_Penalty>
  0.0778

> <r_epik_Ionization_Penalty_Charging>
  0.0778

> <r_epik_Ionization_Penalty_Neutral>
  0.0000

> <r_epik_State_Penalty>
  0.0672

> <r_epik_Charging_Adjusted_Penalty>
0.144964727435527

> <i_epik_Tot_Q>
0

> <i_epik_Tot_abs_Q>
4

> <s_epik_Chemistry_Notes>
This compound has an imine and may undergo hydrolysis.

$$$$
