4j7e_ligand
                    3D
 Schrodinger Suite 2020-3.
 71 74  0  0  1  0            999 V2000
  -12.9310   -8.6110    2.6400 N   0  0  0  0  0  0
  -12.0370   -9.2260    1.6600 C   0  0  2  0  0  0
  -10.9710   -8.2450    1.1580 C   0  0  0  0  0  0
  -12.8520   -9.8120    0.5040 C   0  0  0  0  0  0
  -11.4070  -10.3430    2.5550 C   0  0  2  0  0  0
  -10.0910   -9.8370    3.1590 C   0  0  0  0  0  0
  -11.1660  -11.6310    1.8160 C   0  0  0  0  0  0
  -12.4010  -10.5380    3.6380 N   0  0  0  0  0  0
  -13.2760   -9.6090    3.5950 C   0  0  0  0  0  0
  -14.5760   -9.5710    4.3480 C   0  0  0  0  0  0
  -14.2280  -10.0450    0.6660 C   0  0  0  0  0  0
  -14.9600  -10.6800   -0.3340 C   0  0  0  0  0  0
  -14.3210  -11.0940   -1.5050 C   0  0  0  0  0  0
  -15.2120  -12.0490   -2.6930 Cl  0  0  0  0  0  0
  -12.9720  -10.7800   -1.7200 C   0  0  0  0  0  0
  -12.2390  -10.1410   -0.7120 C   0  0  0  0  0  0
   -9.9150  -11.8730    1.2350 C   0  0  0  0  0  0
   -9.6870  -13.0560    0.5380 C   0  0  0  0  0  0
  -10.7170  -13.9920    0.4130 C   0  0  0  0  0  0
  -10.4580  -15.4410   -0.5380 Cl  0  0  0  0  0  0
  -11.9550  -13.7710    1.0190 C   0  0  0  0  0  0
  -12.1750  -12.5870    1.7190 C   0  0  0  0  0  0
  -13.6600   -7.3950    2.3510 C   0  0  0  0  0  0
  -13.6410   -6.9130    1.2010 O   0  0  0  0  0  0
  -14.3700   -6.7620    3.3980 N   0  0  0  0  0  0
  -15.6670   -6.1570    3.1190 C   0  0  0  0  0  0
  -16.5210   -6.1860    4.3670 C   0  0  0  0  0  0
  -15.9330   -5.3210    5.3980 N   0  0  0  0  0  0
  -14.4720   -5.5950    5.6230 C   0  0  0  0  0  0
  -13.9430   -6.8180    4.8210 C   0  0  0  0  0  0
  -16.2200   -4.4040    7.6850 C   0  0  0  0  0  0
  -17.2530   -4.2380    8.8070 C   0  0  0  0  0  0
  -16.5660   -4.7100   10.3830 S   0  0  0  0  0  0
  -17.8950   -4.5140   11.5520 C   0  0  0  0  0  0
  -15.4990   -3.7740   10.7290 O   0  0  0  0  0  0
  -16.1990   -6.1230   10.3270 O   0  0  0  0  0  0
  -16.7120   -5.4250    6.6550 C   0  0  0  0  0  0
  -11.4468   -7.4746    0.5335 H   0  0  0  0  0  0
  -10.2231   -8.7893    0.5627 H   0  0  0  0  0  0
  -10.4783   -7.7674    2.0177 H   0  0  0  0  0  0
   -9.3518   -9.6915    2.3575 H   0  0  0  0  0  0
   -9.7102  -10.5759    3.8794 H   0  0  0  0  0  0
  -10.2674   -8.8807    3.6732 H   0  0  0  0  0  0
  -15.1139   -8.6429    4.1043 H   0  0  0  0  0  0
  -14.3748   -9.6052    5.4289 H   0  0  0  0  0  0
  -15.1909  -10.4371    4.0619 H   0  0  0  0  0  0
  -14.7264   -9.7263    1.5815 H   0  0  0  0  0  0
  -16.0282  -10.8534   -0.2034 H   0  0  0  0  0  0
  -12.4955  -11.0320   -2.6674 H   0  0  0  0  0  0
  -11.1886   -9.8990   -0.8741 H   0  0  0  0  0  0
   -9.1191  -11.1342    1.3287 H   0  0  0  0  0  0
   -8.7115  -13.2510    0.0926 H   0  0  0  0  0  0
  -12.7438  -14.5196    0.9449 H   0  0  0  0  0  0
  -13.1402  -12.4077    2.1927 H   0  0  0  0  0  0
  -15.5240   -5.1144    2.7988 H   0  0  0  0  0  0
  -16.1700   -6.7205    2.3193 H   0  0  0  0  0  0
  -17.5328   -5.8271    4.1273 H   0  0  0  0  0  0
  -16.5782   -7.2162    4.7483 H   0  0  0  0  0  0
  -13.8830   -4.7183    5.3157 H   0  0  0  0  0  0
  -14.2971   -5.7986    6.6898 H   0  0  0  0  0  0
  -14.3348   -7.7349    5.2855 H   0  0  0  0  0  0
  -12.8443   -6.8206    4.8743 H   0  0  0  0  0  0
  -16.0633   -3.4369    7.1849 H   0  0  0  0  0  0
  -15.2686   -4.7546    8.1114 H   0  0  0  0  0  0
  -17.5697   -3.1860    8.8611 H   0  0  0  0  0  0
  -18.1263   -4.8735    8.5984 H   0  0  0  0  0  0
  -18.1829   -3.4537   11.6054 H   0  0  0  0  0  0
  -17.5638   -4.8545   12.5442 H   0  0  0  0  0  0
  -18.7592   -5.1128   11.2285 H   0  0  0  0  0  0
  -17.7745   -5.2331    6.4448 H   0  0  0  0  0  0
  -16.5979   -6.4354    7.0746 H   0  0  0  0  0  0
  1  2  1  0  0  0
  1  9  1  0  0  0
  1 23  1  0  0  0
  2  3  1  0  0  0
  2  4  1  0  0  0
  2  5  1  0  0  0
  3 38  1  0  0  0
  3 39  1  0  0  0
  3 40  1  0  0  0
  4 11  2  0  0  0
  4 16  1  0  0  0
  5  6  1  0  0  0
  5  7  1  0  0  0
  5  8  1  0  0  0
  6 41  1  0  0  0
  6 42  1  0  0  0
  6 43  1  0  0  0
  7 17  2  0  0  0
  7 22  1  0  0  0
  8  9  2  0  0  0
  9 10  1  0  0  0
 10 44  1  0  0  0
 10 45  1  0  0  0
 10 46  1  0  0  0
 11 12  1  0  0  0
 11 47  1  0  0  0
 12 13  2  0  0  0
 12 48  1  0  0  0
 13 14  1  0  0  0
 13 15  1  0  0  0
 15 16  2  0  0  0
 15 49  1  0  0  0
 16 50  1  0  0  0
 17 18  1  0  0  0
 17 51  1  0  0  0
 18 19  2  0  0  0
 18 52  1  0  0  0
 19 20  1  0  0  0
 19 21  1  0  0  0
 21 22  2  0  0  0
 21 53  1  0  0  0
 22 54  1  0  0  0
 23 24  2  0  0  0
 23 25  1  0  0  0
 25 26  1  0  0  0
 25 30  1  0  0  0
 26 27  1  0  0  0
 26 55  1  0  0  0
 26 56  1  0  0  0
 27 28  1  0  0  0
 27 57  1  0  0  0
 27 58  1  0  0  0
 28 29  1  0  0  0
 28 37  1  0  0  0
 29 30  1  0  0  0
 29 59  1  0  0  0
 29 60  1  0  0  0
 30 61  1  0  0  0
 30 62  1  0  0  0
 31 32  1  0  0  0
 31 37  1  0  0  0
 31 63  1  0  0  0
 31 64  1  0  0  0
 32 33  1  0  0  0
 32 65  1  0  0  0
 32 66  1  0  0  0
 33 34  1  0  0  0
 33 35  2  0  0  0
 33 36  2  0  0  0
 34 67  1  0  0  0
 34 68  1  0  0  0
 34 69  1  0  0  0
 37 70  1  0  0  0
 37 71  1  0  0  0
M  END
> <s_m_source_file>
../4j7e_ligand.sdf

> <i_m_source_file_index>
1

> <s_epik_input>
W2NIXTFbY0hdYyhDbClbY0hdW2NIXWMxW0NAXTIoW0NIM10pTj1DKFtDSDNdKU4oW0NAXTIoW0NIM10pYzNbY0hdW2NIXWMoQ2wpW2NIXVtjSF0zKUMoPU8pTjRbQ0gyXVtDSDJdW05IK10oW0NIMl1bQ0gyXTQpW0NIMl1bQ0gyXVtDSDJdUyg9TykoPU8pW0NIM10=

> <s_epik_cmdline>
J2VwaWtfYXBwJywgJy1pbWFlJywgJ2xpZ2FuZF9wcm8ubWFlJywgJy1vbWFlJywgJ2xpZ2FuZF9wcmVwLm1hZScsICctbXMnLCAnMScsICctcGgnLCAnNycsICctcGh0JywgJzAuNScsICctbnQn

> <r_lp_tautomer_probability>
1

> <r_epik_Ionization_Penalty>
  0.1404

> <r_epik_Ionization_Penalty_Charging>
  0.0000

> <r_epik_Ionization_Penalty_Neutral>
  0.1404

> <r_epik_State_Penalty>
 -0.0000

> <r_epik_Charging_Adjusted_Penalty>
0

> <i_epik_Tot_Q>
0

> <i_epik_Tot_abs_Q>
0

> <s_epik_Chemistry_Notes>
This compound has an imine and may undergo hydrolysis.

$$$$
