4j7i_ligand
                    3D
 Schrodinger Suite 2020-3.
 79 78  0  0  1  0            999 V2000
   45.9770   -4.6030  -18.8350 N   0  3  0  0  0  0
   47.4440   -4.7590  -19.1040 C   0  0  2  0  0  0
   48.1810   -5.6270  -18.0610 C   0  0  0  0  0  0
   48.7090   -6.6820  -18.4100 O   0  0  0  0  0  0
   48.1380   -3.3790  -19.2660 C   0  0  0  0  0  0
   49.4040   -3.4950  -19.9140 O   0  0  0  0  0  0
   48.2420   -5.1850  -16.7970 N   0  0  0  0  0  0
   49.1110   -5.8610  -15.8110 C   0  0  2  0  0  0
   48.4230   -7.0190  -14.9730 C   0  0  0  0  0  0
   48.5150   -7.0700  -13.7490 O   0  0  0  0  0  0
   49.9000   -4.8270  -14.9560 C   0  0  0  0  0  0
   47.7680   -7.9640  -15.6660 N   0  0  0  0  0  0
   46.9950   -9.0460  -15.0100 C   0  0  2  0  0  0
   46.6970  -10.1660  -15.9900 C   0  0  0  0  0  0
   46.5680   -9.9040  -17.1790 O   0  0  0  0  0  0
   45.6690   -8.5160  -14.4820 C   0  0  0  0  0  0
   44.9080   -7.9740  -15.5340 O   0  0  0  0  0  0
   46.5390  -11.3940  -15.4760 N   0  0  0  0  0  0
   46.4230  -12.5880  -16.2990 C   0  0  2  0  0  0
   45.2080  -12.5650  -17.2480 C   0  0  0  0  0  0
   44.1550  -11.9520  -16.9550 O   0  0  0  0  0  0
   46.3340  -13.8260  -15.4070 C   0  0  0  0  0  0
   47.5110  -14.0310  -14.4740 C   0  0  0  0  0  0
   47.2000  -15.0300  -13.3540 C   0  0  0  0  0  0
   48.3450  -15.0980  -12.3220 C   0  0  0  0  0  0
   48.1180  -16.0260  -11.1450 N   0  3  0  0  0  0
   45.3590  -13.2140  -18.4040 N   0  0  0  0  0  0
   44.2000  -13.7130  -19.1470 C   0  0  2  0  0  0
   43.1740  -12.6210  -19.6440 C   0  0  0  0  0  0
   41.9790  -12.9060  -19.7690 O   0  0  0  0  0  0
   43.5440  -14.8470  -18.3000 C   0  0  0  0  0  0
   42.3680  -15.5140  -18.9910 C   0  0  0  0  0  0
   42.5840  -16.2850  -19.9470 O   0  0  0  0  0  0
   41.2140  -15.2800  -18.5500 O   0  5  0  0  0  0
   43.6560  -11.4100  -20.0020 N   0  0  0  0  0  0
   42.7900  -10.3200  -20.6110 C   0  0  2  0  0  0
   41.9950  -10.6850  -21.9100 C   0  0  0  0  0  0
   42.5430  -11.2060  -22.8950 O   0  0  0  0  0  0
   43.5830   -9.0110  -20.8240 C   0  0  0  0  0  0
   40.7595  -10.4422  -21.9572 O   0  5  0  0  0  0
   45.5167   -5.5960  -18.7257 H   0  0  0  0  0  0
   45.5050   -4.0704  -19.6738 H   0  0  0  0  0  0
   45.8333   -4.0282  -17.9082 H   0  0  0  0  0  0
   47.4738   -5.3113  -20.0548 H   0  0  0  0  0  0
   47.5005   -2.7166  -19.8700 H   0  0  0  0  0  0
   48.2976   -2.9302  -18.2745 H   0  0  0  0  0  0
   50.0122   -2.5970  -20.0976 H   0  0  0  0  0  0
   47.6411   -4.3145  -16.4950 H   0  0  0  0  0  0
   49.8264   -6.3752  -16.4696 H   0  0  0  0  0  0
   50.3406   -4.0654  -15.6162 H   0  0  0  0  0  0
   50.7006   -5.3419  -14.4047 H   0  0  0  0  0  0
   49.2164   -4.3430  -14.2430 H   0  0  0  0  0  0
   47.8210   -7.9136  -16.7636 H   0  0  0  0  0  0
   47.6270   -9.4114  -14.1871 H   0  0  0  0  0  0
   45.1051   -9.3376  -14.0163 H   0  0  0  0  0  0
   45.8591   -7.7318  -13.7344 H   0  0  0  0  0  0
   43.9162   -7.5440  -15.3306 H   0  0  0  0  0  0
   46.4983  -11.4755  -14.3798 H   0  0  0  0  0  0
   47.3474  -12.5717  -16.8950 H   0  0  0  0  0  0
   45.4381  -13.7571  -14.7725 H   0  0  0  0  0  0
   46.2701  -14.7267  -16.0352 H   0  0  0  0  0  0
   48.3687  -14.4163  -15.0449 H   0  0  0  0  0  0
   47.7815  -13.0717  -14.0087 H   0  0  0  0  0  0
   46.2806  -14.7231  -12.8338 H   0  0  0  0  0  0
   47.0602  -16.0323  -13.7851 H   0  0  0  0  0  0
   49.2636  -15.4473  -12.8161 H   0  0  0  0  0  0
   48.5151  -14.0980  -11.8965 H   0  0  0  0  0  0
   48.9930  -15.9944  -10.4791 H   0  0  0  0  0  0
   47.9725  -17.0532  -11.5107 H   0  0  0  0  0  0
   47.2239  -15.7038  -10.5912 H   0  0  0  0  0  0
   46.3741  -13.3720  -18.7973 H   0  0  0  0  0  0
   44.6442  -14.1012  -20.0754 H   0  0  0  0  0  0
   44.2904  -15.6278  -18.0919 H   0  0  0  0  0  0
   43.1757  -14.4297  -17.3512 H   0  0  0  0  0  0
   44.7283  -11.2310  -19.8341 H   0  0  0  0  0  0
   42.0347  -10.1924  -19.8216 H   0  0  0  0  0  0
   44.1370   -8.7645  -19.9062 H   0  0  0  0  0  0
   42.8855   -8.1943  -21.0618 H   0  0  0  0  0  0
   44.2910   -9.1424  -21.6556 H   0  0  0  0  0  0
  1  2  1  0  0  0
  1 41  1  0  0  0
  1 42  1  0  0  0
  1 43  1  0  0  0
  2  3  1  0  0  0
  2  5  1  0  0  0
  2 44  1  0  0  0
  3  4  2  0  0  0
  3  7  1  0  0  0
  5  6  1  0  0  0
  5 45  1  0  0  0
  5 46  1  0  0  0
  6 47  1  0  0  0
  7  8  1  0  0  0
  7 48  1  0  0  0
  8  9  1  0  0  0
  8 11  1  0  0  0
  8 49  1  0  0  0
  9 10  2  0  0  0
  9 12  1  0  0  0
 11 50  1  0  0  0
 11 51  1  0  0  0
 11 52  1  0  0  0
 12 13  1  0  0  0
 12 53  1  0  0  0
 13 14  1  0  0  0
 13 16  1  0  0  0
 13 54  1  0  0  0
 14 15  2  0  0  0
 14 18  1  0  0  0
 16 17  1  0  0  0
 16 55  1  0  0  0
 16 56  1  0  0  0
 17 57  1  0  0  0
 18 19  1  0  0  0
 18 58  1  0  0  0
 19 20  1  0  0  0
 19 22  1  0  0  0
 19 59  1  0  0  0
 20 21  2  0  0  0
 20 27  1  0  0  0
 22 23  1  0  0  0
 22 60  1  0  0  0
 22 61  1  0  0  0
 23 24  1  0  0  0
 23 62  1  0  0  0
 23 63  1  0  0  0
 24 25  1  0  0  0
 24 64  1  0  0  0
 24 65  1  0  0  0
 25 26  1  0  0  0
 25 66  1  0  0  0
 25 67  1  0  0  0
 26 68  1  0  0  0
 26 69  1  0  0  0
 26 70  1  0  0  0
 27 28  1  0  0  0
 27 71  1  0  0  0
 28 29  1  0  0  0
 28 31  1  0  0  0
 28 72  1  0  0  0
 29 30  2  0  0  0
 29 35  1  0  0  0
 31 32  1  0  0  0
 31 73  1  0  0  0
 31 74  1  0  0  0
 32 33  2  0  0  0
 32 34  1  0  0  0
 35 36  1  0  0  0
 35 75  1  0  0  0
 36 37  1  0  0  0
 36 39  1  0  0  0
 36 76  1  0  0  0
 37 38  2  0  0  0
 37 40  1  0  0  0
 39 77  1  0  0  0
 39 78  1  0  0  0
 39 79  1  0  0  0
M  CHG  4   1   1  26   1  34  -1  40  -1
M  END
> <s_m_source_file>
../4j7i_ligand.sdf

> <i_m_source_file_index>
1

> <s_epik_input>
W09IXVtDSDJdW0NASF0oW05IMytdKUMoPU8pW05IXVtDQEBIXShbQ0gzXSlDKD1PKVtOSF1bQ0BASF0oW0NIMl1bT0hdKUMoPU8pW05IXVtDQEBIXShbQ0gyXVtDSDJdW0NIMl1bQ0gyXVtOSDMrXSlDKD1PKVtOSF1bQ0BASF0oW0NIMl1DKD1PKVtPSF0pQyg9TylbTkhdW0NAQEhdKFtDSDNdKUMoPU8pW09IXQ==

> <s_epik_cmdline>
J2VwaWtfYXBwJywgJy1pbWFlJywgJ2xpZ2FuZF9wcm8ubWFlJywgJy1vbWFlJywgJ2xpZ2FuZF9wcmVwLm1hZScsICctbXMnLCAnMScsICctcGgnLCAnNycsICctcGh0JywgJzAuNScsICctbnQn

> <r_epik_Ionization_Penalty>
  0.1525

> <r_epik_Ionization_Penalty_Charging>
  0.1525

> <r_epik_Ionization_Penalty_Neutral>
  0.0000

> <r_epik_State_Penalty>
  0.1395

> <r_epik_Charging_Adjusted_Penalty>
0.292018415695986

> <i_epik_Tot_Q>
0

> <i_epik_Tot_abs_Q>
4

$$$$
