4j81_ligand
                    3D
 Schrodinger Suite 2020-3.
 78 79  0  0  1  0            999 V2000
  -91.2240   70.9320  125.4250 N   0  3  0  0  0  0
  -91.8970   70.7640  124.1400 C   0  0  2  0  0  0
  -92.8520   71.9340  123.8760 C   0  0  0  0  0  0
  -93.6870   72.2560  124.7190 O   0  0  0  0  0  0
  -92.6560   69.4340  124.1170 C   0  0  0  0  0  0
  -93.3340   69.1120  122.7980 C   0  0  0  0  0  0
  -94.2380   67.8950  122.9350 C   0  0  0  0  0  0
  -93.5270   66.6010  122.5790 C   0  0  0  0  0  0
  -93.2630   66.5160  121.1190 N   0  3  0  0  0  0
  -92.7410   72.5510  122.7050 N   0  0  0  0  0  0
  -93.6580   73.6320  122.3320 C   0  0  2  0  0  0
  -95.0950   73.1310  122.2790 C   0  0  0  0  0  0
  -95.3340   71.9890  121.9080 O   0  0  0  0  0  0
  -93.1970   74.0120  120.9270 C   0  0  0  0  0  0
  -91.7650   73.6110  120.8760 C   0  0  0  0  0  0
  -91.6610   72.3770  121.7190 C   0  0  0  0  0  0
  -96.0350   73.9940  122.6450 N   0  0  0  0  0  0
  -97.4440   73.6720  122.5740 C   0  0  2  0  0  0
  -97.7830   72.4080  123.2990 C   0  0  0  0  0  0
  -98.4920   71.5380  122.7640 O   0  0  0  0  0  0
  -97.8930   73.5980  121.1230 C   0  0  0  0  0  0
  -98.0610   74.9470  120.4810 C   0  0  0  0  0  0
  -99.2630   75.4660  120.1940 N   0  0  0  0  0  0
  -97.1230   75.8960  120.0970 C   0  0  0  0  0  0
  -99.1070   76.6800  119.6450 C   0  0  0  0  0  0
  -97.7970   76.9440  119.5880 N   0  0  0  0  0  0
  -97.2970   72.2940  124.5300 N   0  0  0  0  0  0
  -97.5750   71.1310  125.3570 C   0  0  2  0  0  0
  -98.9950   71.1480  125.9140 C   0  0  0  0  0  0
  -99.5750   70.1000  126.1670 O   0  0  0  0  0  0
  -96.5600   71.0350  126.4970 C   0  0  0  0  0  0
  -95.4200   70.3080  126.0830 O   0  0  0  0  0  0
  -99.5420   72.3450  126.1060 N   0  0  0  0  0  0
 -100.8990   72.5030  126.6210 C   0  0  2  0  0  0
 -101.9300   72.1570  125.5600 C   0  0  0  0  0  0
 -103.1190   71.9850  125.8580 O   0  0  0  0  0  0
 -101.1400   73.9430  127.0960 C   0  0  0  0  0  0
 -100.4540   74.2560  128.4170 C   0  0  0  0  0  0
  -99.8390   73.3520  129.0200 O   0  5  0  0  0  0
 -100.5490   75.4200  128.8560 O   0  0  0  0  0  0
 -101.5980   72.0590  124.3680 O   0  5  0  0  0  0
  -90.6818   71.8891  125.4326 H   0  0  0  0  0  0
  -90.5130   70.1066  125.5772 H   0  0  0  0  0  0
  -91.9702   70.9269  126.2332 H   0  0  0  0  0  0
  -91.1030   70.7579  123.3788 H   0  0  0  0  0  0
  -91.9577   68.6097  124.3245 H   0  0  0  0  0  0
  -93.4444   69.4484  124.8839 H   0  0  0  0  0  0
  -93.9430   69.9709  122.4795 H   0  0  0  0  0  0
  -92.5702   68.9011  122.0350 H   0  0  0  0  0  0
  -94.5891   67.8142  123.9743 H   0  0  0  0  0  0
  -95.1024   68.0029  122.2633 H   0  0  0  0  0  0
  -92.5662   66.5518  123.1124 H   0  0  0  0  0  0
  -94.1534   65.7457  122.8723 H   0  0  0  0  0  0
  -92.7486   65.5701  120.8939 H   0  0  0  0  0  0
  -92.6289   67.3605  120.8113 H   0  0  0  0  0  0
  -94.2161   66.5545  120.5712 H   0  0  0  0  0  0
  -93.6179   74.4480  123.0686 H   0  0  0  0  0  0
  -93.7994   73.4688  120.1840 H   0  0  0  0  0  0
  -93.3228   75.0949  120.7801 H   0  0  0  0  0  0
  -91.4776   73.4093  119.8335 H   0  0  0  0  0  0
  -91.1420   74.4239  121.2773 H   0  0  0  0  0  0
  -90.6958   72.3041  122.2415 H   0  0  0  0  0  0
  -91.8360   71.4569  121.1420 H   0  0  0  0  0  0
  -95.7140   74.9803  123.0113 H   0  0  0  0  0  0
  -97.9466   74.4944  123.1042 H   0  0  0  0  0  0
  -98.0920   72.6845  120.5435 H   0  0  0  0  0  0
  -96.0241   75.9180  120.1416 H   0  0  0  0  0  0
  -99.9078   77.3365  119.3048 H   0  0  0  0  0  0
  -96.6695   73.1089  124.9200 H   0  0  0  0  0  0
  -97.4749   70.2767  124.6713 H   0  0  0  0  0  0
  -96.2497   72.0466  126.7978 H   0  0  0  0  0  0
  -97.0195   70.5222  127.3549 H   0  0  0  0  0  0
  -94.5880   70.1439  126.7836 H   0  0  0  0  0  0
  -98.9388   73.2324  125.8639 H   0  0  0  0  0  0
 -100.9636   71.7917  127.4576 H   0  0  0  0  0  0
 -100.7535   74.6467  126.3440 H   0  0  0  0  0  0
 -102.2189   74.1084  127.2325 H   0  0  0  0  0  0
 -100.1762   74.8950  120.4176 H   0  0  0  0  0  0
  1  2  1  0  0  0
  1 42  1  0  0  0
  1 43  1  0  0  0
  1 44  1  0  0  0
  2  3  1  0  0  0
  2  5  1  0  0  0
  2 45  1  0  0  0
  3  4  2  0  0  0
  3 10  1  0  0  0
  5  6  1  0  0  0
  5 46  1  0  0  0
  5 47  1  0  0  0
  6  7  1  0  0  0
  6 48  1  0  0  0
  6 49  1  0  0  0
  7  8  1  0  0  0
  7 50  1  0  0  0
  7 51  1  0  0  0
  8  9  1  0  0  0
  8 52  1  0  0  0
  8 53  1  0  0  0
  9 54  1  0  0  0
  9 55  1  0  0  0
  9 56  1  0  0  0
 10 11  1  0  0  0
 10 16  1  0  0  0
 11 12  1  0  0  0
 11 14  1  0  0  0
 11 57  1  0  0  0
 12 13  2  0  0  0
 12 17  1  0  0  0
 14 15  1  0  0  0
 14 58  1  0  0  0
 14 59  1  0  0  0
 15 16  1  0  0  0
 15 60  1  0  0  0
 15 61  1  0  0  0
 16 62  1  0  0  0
 16 63  1  0  0  0
 17 18  1  0  0  0
 17 64  1  0  0  0
 18 19  1  0  0  0
 18 21  1  0  0  0
 18 65  1  0  0  0
 19 20  2  0  0  0
 19 27  1  0  0  0
 21 22  2  0  0  0
 21 66  1  0  0  0
 22 23  1  0  0  0
 22 24  1  0  0  0
 23 25  1  0  0  0
 23 78  1  0  0  0
 24 26  2  0  0  0
 24 67  1  0  0  0
 25 26  1  0  0  0
 25 68  1  0  0  0
 27 28  1  0  0  0
 27 69  1  0  0  0
 28 29  1  0  0  0
 28 31  1  0  0  0
 28 70  1  0  0  0
 29 30  2  0  0  0
 29 33  1  0  0  0
 31 32  1  0  0  0
 31 71  1  0  0  0
 31 72  1  0  0  0
 32 73  1  0  0  0
 33 34  1  0  0  0
 33 74  1  0  0  0
 34 35  1  0  0  0
 34 37  1  0  0  0
 34 75  1  0  0  0
 35 36  2  0  0  0
 35 41  1  0  0  0
 37 38  1  0  0  0
 37 76  1  0  0  0
 37 77  1  0  0  0
 38 39  1  0  0  0
 38 40  2  0  0  0
M  CHG  4   1   1   9   1  39  -1  41  -1
M  END
> <s_m_source_file>
../4j81_ligand.sdf

> <i_m_source_file_index>
1

> <s_epik_input>
W05IMytdW0NIMl1bQ0gyXVtDSDJdW0NIMl1bQ0BIXShbTkgzK10pQyg9TylOMVtDQEBIXShbQ0gyXVtDSDJdW0NIMl0xKUMoPU8pW05IXVtDQEBIXShbQ0gyXUMyPU5bQ0gyXU49W0NIXTIpQyg9TylbTkhdW0NAQEhdKFtDSDJdW09IXSlDKD1PKVtOSF1bQ0BIXShDKD1PKVtPSF0pW0NIMl1DKD1PKVtPSF0=

> <s_epik_cmdline>
J2VwaWtfYXBwJywgJy1pbWFlJywgJ2xpZ2FuZF9wcm8ubWFlJywgJy1vbWFlJywgJ2xpZ2FuZF9wcmVwLm1hZScsICctbXMnLCAnMScsICctcGgnLCAnNycsICctcGh0JywgJzAuNScsICctbnQn

> <r_epik_Ionization_Penalty>
  0.1153

> <r_epik_Ionization_Penalty_Charging>
  0.1153

> <r_epik_Ionization_Penalty_Neutral>
  0.0000

> <r_epik_State_Penalty>
  0.1031

> <r_epik_Charging_Adjusted_Penalty>
0.218344688050173

> <i_epik_Tot_Q>
0

> <i_epik_Tot_abs_Q>
4

> <s_epik_Chemistry_Notes>
This compound has an imine and may undergo hydrolysis.

$$$$
