4j82_ligand
                    3D
 Schrodinger Suite 2020-3.
 84 84  0  0  1  0            999 V2000
  -25.0470  104.6090 -133.1060 N   0  3  0  0  0  0
  -24.2120  105.4600 -132.2630 C   0  0  2  0  0  0
  -24.9000  106.7830 -131.9630 C   0  0  0  0  0  0
  -25.0070  107.6500 -132.8370 O   0  0  0  0  0  0
  -22.8660  105.7340 -132.9390 C   0  0  0  0  0  0
  -21.6630  105.0880 -132.2560 C   0  0  0  0  0  0
  -21.2820  105.7980 -130.9630 C   0  0  0  0  0  0
  -19.9180  105.3150 -130.4680 C   0  0  0  0  0  0
  -19.9160  104.9490 -129.0190 N   0  3  0  0  0  0
  -25.3640  106.9400 -130.7270 N   0  0  0  0  0  0
  -25.9620  108.1970 -130.3020 C   0  0  2  0  0  0
  -24.8930  109.2700 -130.1970 C   0  0  0  0  0  0
  -23.7770  109.0030 -129.7490 O   0  0  0  0  0  0
  -26.6720  108.0350 -128.9570 C   0  0  0  0  0  0
  -27.1880  109.2790 -128.5100 O   0  0  0  0  0  0
  -25.2460  110.4790 -130.6230 N   0  0  0  0  0  0
  -24.3620  111.6340 -130.5170 C   0  0  2  0  0  0
  -23.0640  111.4360 -131.2710 C   0  0  0  0  0  0
  -21.9950  111.7600 -130.7620 O   0  0  0  0  0  0
  -24.0770  111.9570 -129.0460 C   0  0  0  0  0  0
  -25.2740  112.4660 -128.3080 C   0  0  0  0  0  0
  -26.4110  111.7100 -128.1210 N   0  0  0  0  0  0
  -25.5150  113.6610 -127.7190 C   0  0  0  0  0  0
  -27.3000  112.4150 -127.4470 C   0  0  0  0  0  0
  -26.7830  113.6040 -127.1920 N   0  0  0  0  0  0
  -23.1630  110.9170 -132.4920 N   0  0  0  0  0  0
  -21.9950  110.7690 -133.3490 C   0  0  2  0  0  0
  -21.4360  112.1380 -133.7350 C   0  0  0  0  0  0
  -20.2200  112.3390 -133.7690 O   0  0  0  0  0  0
  -22.3630  109.9850 -134.6110 C   0  0  0  0  0  0
  -21.2330  109.8750 -135.6260 C   0  0  0  0  0  0
  -19.9590  109.3090 -135.0210 C   0  0  0  0  0  0
  -19.9930  108.3520 -134.2430 O   0  0  0  0  0  0
  -18.8240  109.9050 -135.3730 N   0  0  0  0  0  0
  -22.3290  113.0820 -134.0080 N   0  0  0  0  0  0
  -21.9190  114.4050 -134.4740 C   0  0  2  0  0  0
  -21.2280  115.2610 -133.4160 C   0  0  0  0  0  0
  -21.3110  115.0290 -132.2030 O   0  5  0  0  0  0
  -23.1100  115.1610 -135.0620 C   0  0  0  0  0  0
  -23.6750  114.5110 -136.3130 C   0  0  0  0  0  0
  -24.7950  115.3180 -136.9270 C   0  0  0  0  0  0
  -25.9060  115.3210 -136.3540 O   0  0  0  0  0  0
  -24.5610  115.9520 -137.9800 O   0  5  0  0  0  0
  -20.5540  116.2270 -133.7850 O   0  0  0  0  0  0
  -26.0077  104.4244 -132.6031 H   0  0  0  0  0  0
  -24.5350  103.6514 -133.2815 H   0  0  0  0  0  0
  -25.2272  105.1102 -134.0685 H   0  0  0  0  0  0
  -24.0768  104.8902 -131.3319 H   0  0  0  0  0  0
  -22.8887  105.3508 -133.9699 H   0  0  0  0  0  0
  -22.6774  106.8176 -132.9547 H   0  0  0  0  0  0
  -21.8977  104.0411 -132.0133 H   0  0  0  0  0  0
  -20.7956  105.1222 -132.9317 H   0  0  0  0  0  0
  -21.2339  106.8825 -131.1407 H   0  0  0  0  0  0
  -22.0373  105.5859 -130.1919 H   0  0  0  0  0  0
  -19.6161  104.4235 -131.0372 H   0  0  0  0  0  0
  -19.1728  106.1113 -130.6115 H   0  0  0  0  0  0
  -18.9105  104.6115 -128.7275 H   0  0  0  0  0  0
  -20.6396  104.1391 -128.8444 H   0  0  0  0  0  0
  -20.1964  105.8270 -128.4187 H   0  0  0  0  0  0
  -25.2901  106.0997 -130.0210 H   0  0  0  0  0  0
  -26.6908  108.4605 -131.0826 H   0  0  0  0  0  0
  -27.5035  107.3230 -129.0648 H   0  0  0  0  0  0
  -25.9595  107.6561 -128.2095 H   0  0  0  0  0  0
  -27.7300  109.3383 -127.5546 H   0  0  0  0  0  0
  -26.2456  110.5905 -131.0685 H   0  0  0  0  0  0
  -24.9165  112.4511 -131.0017 H   0  0  0  0  0  0
  -23.1145  111.8484 -128.5246 H   0  0  0  0  0  0
  -24.9142  114.5758 -127.6088 H   0  0  0  0  0  0
  -28.2922  112.0744 -127.1510 H   0  0  0  0  0  0
  -24.1524  110.5968 -132.8506 H   0  0  0  0  0  0
  -21.2565  110.2149 -132.7511 H   0  0  0  0  0  0
  -22.6511  108.9599 -134.3349 H   0  0  0  0  0  0
  -23.2056  110.4790 -135.1169 H   0  0  0  0  0  0
  -21.5412  109.2114 -136.4473 H   0  0  0  0  0  0
  -21.0024  110.8728 -136.0276 H   0  0  0  0  0  0
  -18.8427  110.7556 -136.0703 H   0  0  0  0  0  0
  -17.8662  109.5476 -134.9670 H   0  0  0  0  0  0
  -23.3966  112.8515 -133.8768 H   0  0  0  0  0  0
  -21.1703  114.1672 -135.2440 H   0  0  0  0  0  0
  -23.9189  115.2066 -134.3179 H   0  0  0  0  0  0
  -22.8002  116.1819 -135.3299 H   0  0  0  0  0  0
  -22.8786  114.4092 -137.0649 H   0  0  0  0  0  0
  -24.0718  113.5162 -136.0621 H   0  0  0  0  0  0
  -26.4611  110.6848 -128.5167 H   0  0  0  0  0  0
  1  2  1  0  0  0
  1 45  1  0  0  0
  1 46  1  0  0  0
  1 47  1  0  0  0
  2  3  1  0  0  0
  2  5  1  0  0  0
  2 48  1  0  0  0
  3  4  2  0  0  0
  3 10  1  0  0  0
  5  6  1  0  0  0
  5 49  1  0  0  0
  5 50  1  0  0  0
  6  7  1  0  0  0
  6 51  1  0  0  0
  6 52  1  0  0  0
  7  8  1  0  0  0
  7 53  1  0  0  0
  7 54  1  0  0  0
  8  9  1  0  0  0
  8 55  1  0  0  0
  8 56  1  0  0  0
  9 57  1  0  0  0
  9 58  1  0  0  0
  9 59  1  0  0  0
 10 11  1  0  0  0
 10 60  1  0  0  0
 11 12  1  0  0  0
 11 14  1  0  0  0
 11 61  1  0  0  0
 12 13  2  0  0  0
 12 16  1  0  0  0
 14 15  1  0  0  0
 14 62  1  0  0  0
 14 63  1  0  0  0
 15 64  1  0  0  0
 16 17  1  0  0  0
 16 65  1  0  0  0
 17 18  1  0  0  0
 17 20  1  0  0  0
 17 66  1  0  0  0
 18 19  2  0  0  0
 18 26  1  0  0  0
 20 21  2  0  0  0
 20 67  1  0  0  0
 21 22  1  0  0  0
 21 23  1  0  0  0
 22 24  1  0  0  0
 22 84  1  0  0  0
 23 25  2  0  0  0
 23 68  1  0  0  0
 24 25  1  0  0  0
 24 69  1  0  0  0
 26 27  1  0  0  0
 26 70  1  0  0  0
 27 28  1  0  0  0
 27 30  1  0  0  0
 27 71  1  0  0  0
 28 29  2  0  0  0
 28 35  1  0  0  0
 30 31  1  0  0  0
 30 72  1  0  0  0
 30 73  1  0  0  0
 31 32  1  0  0  0
 31 74  1  0  0  0
 31 75  1  0  0  0
 32 33  2  0  0  0
 32 34  1  0  0  0
 34 76  1  0  0  0
 34 77  1  0  0  0
 35 36  1  0  0  0
 35 78  1  0  0  0
 36 37  1  0  0  0
 36 39  1  0  0  0
 36 79  1  0  0  0
 37 38  1  0  0  0
 37 44  2  0  0  0
 39 40  1  0  0  0
 39 80  1  0  0  0
 39 81  1  0  0  0
 40 41  1  0  0  0
 40 82  1  0  0  0
 40 83  1  0  0  0
 41 42  2  0  0  0
 41 43  1  0  0  0
M  CHG  4   1   1   9   1  38  -1  43  -1
M  END
> <s_m_source_file>
../4j82_ligand.sdf

> <i_m_source_file_index>
1

> <s_epik_input>
W05IMytdW0NIMl1bQ0gyXVtDSDJdW0NIMl1bQ0BIXShbTkgzK10pQyg9TylbTkhdW0NAQEhdKFtDSDJdW09IXSlDKD1PKVtOSF1bQ0BASF0oW0NIMl1DMT1OW0NIMl1OPVtDSF0xKUMoPU8pW05IXVtDQEBIXShbQ0gyXVtDSDJdQyg9TylbTkgyXSlDKD1PKVtOSF1bQ0BIXShDKD1PKVtPSF0pW0NIMl1bQ0gyXUMoPU8pW09IXQ==

> <s_epik_cmdline>
J2VwaWtfYXBwJywgJy1pbWFlJywgJ2xpZ2FuZF9wcm8ubWFlJywgJy1vbWFlJywgJ2xpZ2FuZF9wcmVwLm1hZScsICctbXMnLCAnMScsICctcGgnLCAnNycsICctcGh0JywgJzAuNScsICctbnQn

> <r_epik_Ionization_Penalty>
  0.1355

> <r_epik_Ionization_Penalty_Charging>
  0.1355

> <r_epik_Ionization_Penalty_Neutral>
  0.0000

> <r_epik_State_Penalty>
  0.1206

> <r_epik_Charging_Adjusted_Penalty>
0.256116790697816

> <i_epik_Tot_Q>
0

> <i_epik_Tot_abs_Q>
4

> <s_epik_Chemistry_Notes>
This compound has an imine and may undergo hydrolysis.

$$$$
