4j84_ligand
                    3D
 Schrodinger Suite 2020-3.
 90 89  0  0  1  0            999 V2000
   -7.2540 -126.3900  116.9300 N   0  3  0  0  0  0
   -6.3040 -125.5320  117.6340 C   0  0  2  0  0  0
   -4.9050 -126.1360  117.5990 C   0  0  0  0  0  0
   -4.5770 -126.9960  118.4160 O   0  0  0  0  0  0
   -6.7490 -125.3270  119.0660 C   0  0  0  0  0  0
   -4.0730 -125.6740  116.6720 N   0  0  0  0  0  0
   -2.8010 -126.3470  116.4170 C   0  0  2  0  0  0
   -1.6300 -125.9530  117.3140 C   0  0  0  0  0  0
   -1.4520 -124.7810  117.6670 O   0  0  0  0  0  0
   -2.4030 -126.2370  114.9430 C   0  0  0  0  0  0
   -2.8530 -127.4300  114.1050 C   0  0  0  0  0  0
   -2.0850 -127.5080  112.8030 C   0  0  0  0  0  0
   -0.8650 -128.3050  112.9210 N   0  0  0  0  0  0
   -0.0100 -128.4890  111.9220 C   0  0  0  0  0  0
   -0.2500 -127.9270  110.7500 N   0  3  0  0  0  0
    1.0770 -129.2310  112.0900 N   0  0  0  0  0  0
   -0.8420 -126.9650  117.6740 N   0  0  0  0  0  0
    0.4050 -126.7880  118.4130 C   0  0  2  0  0  0
    0.2120 -126.0880  119.7520 C   0  0  0  0  0  0
    0.9990 -125.2130  120.1050 O   0  0  0  0  0  0
    1.4120 -125.9960  117.5690 C   0  0  0  0  0  0
    1.9460 -126.7230  116.3430 C   0  0  0  0  0  0
    2.9230 -127.8070  116.7510 C   0  0  0  0  0  0
    3.4020 -128.6150  115.5500 C   0  0  0  0  0  0
    4.2410 -129.7440  116.0060 N   0  3  0  0  0  0
   -0.8150 -126.4700  120.5070 N   0  0  0  0  0  0
   -1.0510 -125.8340  121.8030 C   0  0  2  0  0  0
   -0.1190 -126.3740  122.8820 C   0  0  0  0  0  0
    0.2760 -125.6300  123.7860 O   0  0  0  0  0  0
   -2.5190 -125.9600  122.2360 C   0  0  0  0  0  0
   -3.5700 -125.2210  121.3930 C   0  0  0  0  0  0
   -4.9610 -125.3620  122.0070 C   0  0  0  0  0  0
   -3.2160 -123.7540  121.2260 C   0  0  0  0  0  0
    0.2400 -127.6550  122.7810 N   0  0  0  0  0  0
    1.1340 -128.2890  123.7580 C   0  0  2  0  0  0
    2.5700 -127.7600  123.6830 C   0  0  0  0  0  0
    3.3490 -127.9780  124.6130 O   0  0  0  0  0  0
    1.1640 -129.8080  123.5730 C   0  0  0  0  0  0
   -0.1100 -130.4780  124.0220 C   0  0  0  0  0  0
   -1.0930 -129.7680  124.3210 O   0  5  0  0  0  0
   -0.1260 -131.7250  124.0710 O   0  0  0  0  0  0
    2.9860 -127.1340  122.7030 O   0  5  0  0  0  0
   -6.9203 -126.5316  115.8914 H   0  0  0  0  0  0
   -8.2476 -125.9181  116.9348 H   0  0  0  0  0  0
   -7.3093 -127.3663  117.4337 H   0  0  0  0  0  0
   -6.3071 -124.5687  117.1029 H   0  0  0  0  0  0
   -7.7589 -124.8911  119.0773 H   0  0  0  0  0  0
   -6.0499 -124.6458  119.5732 H   0  0  0  0  0  0
   -6.7616 -126.2951  119.5882 H   0  0  0  0  0  0
   -4.3470 -124.7787  116.0946 H   0  0  0  0  0  0
   -3.0611 -127.3779  116.6990 H   0  0  0  0  0  0
   -2.8580 -125.3356  114.5067 H   0  0  0  0  0  0
   -1.3079 -126.1705  114.8628 H   0  0  0  0  0  0
   -2.6821 -128.3592  114.6684 H   0  0  0  0  0  0
   -3.9241 -127.3329  113.8743 H   0  0  0  0  0  0
   -2.7182 -127.9695  112.0309 H   0  0  0  0  0  0
   -1.7987 -126.4947  112.4849 H   0  0  0  0  0  0
   -0.6154 -128.7904  113.8760 H   0  0  0  0  0  0
   -1.1508 -127.3116  110.6093 H   0  0  0  0  0  0
    1.2780 -129.6993  113.0648 H   0  0  0  0  0  0
    1.7772 -129.3779  111.2545 H   0  0  0  0  0  0
   -1.1725 -127.9740  117.3865 H   0  0  0  0  0  0
    0.7438 -127.8170  118.6039 H   0  0  0  0  0  0
    0.9382 -125.0731  117.2033 H   0  0  0  0  0  0
    2.2861 -125.7399  118.1857 H   0  0  0  0  0  0
    1.1097 -127.1836  115.7966 H   0  0  0  0  0  0
    2.4618 -126.0061  115.6873 H   0  0  0  0  0  0
    3.7997 -127.3484  117.2318 H   0  0  0  0  0  0
    2.4345 -128.4938  117.4579 H   0  0  0  0  0  0
    2.5328 -129.0070  115.0016 H   0  0  0  0  0  0
    3.9937 -127.9683  114.8854 H   0  0  0  0  0  0
    4.5828 -130.3221  115.1348 H   0  0  0  0  0  0
    3.6517 -130.3942  116.6693 H   0  0  0  0  0  0
    5.1126 -129.3555  116.5531 H   0  0  0  0  0  0
   -1.4873 -127.2661  120.1544 H   0  0  0  0  0  0
   -0.8072 -124.7758  121.6274 H   0  0  0  0  0  0
   -2.8183 -127.0183  122.2137 H   0  0  0  0  0  0
   -2.6351 -125.5676  123.2570 H   0  0  0  0  0  0
   -3.5809 -125.6766  120.3918 H   0  0  0  0  0  0
   -5.2045 -126.4285  122.1223 H   0  0  0  0  0  0
   -5.7024 -124.8857  121.3486 H   0  0  0  0  0  0
   -4.9781 -124.8734  122.9924 H   0  0  0  0  0  0
   -2.2128 -123.6670  120.7833 H   0  0  0  0  0  0
   -3.2272 -123.2599  122.2087 H   0  0  0  0  0  0
   -3.9515 -123.2723  120.5650 H   0  0  0  0  0  0
   -0.1537 -128.2388  121.9359 H   0  0  0  0  0  0
    0.6873 -128.0110  124.7240 H   0  0  0  0  0  0
    1.3105 -130.0449  122.5089 H   0  0  0  0  0  0
    1.9914 -130.2327  124.1605 H   0  0  0  0  0  0
    0.4511 -128.0747  109.9153 H   0  0  0  0  0  0
  1  2  1  0  0  0
  1 43  1  0  0  0
  1 44  1  0  0  0
  1 45  1  0  0  0
  2  3  1  0  0  0
  2  5  1  0  0  0
  2 46  1  0  0  0
  3  4  2  0  0  0
  3  6  1  0  0  0
  5 47  1  0  0  0
  5 48  1  0  0  0
  5 49  1  0  0  0
  6  7  1  0  0  0
  6 50  1  0  0  0
  7  8  1  0  0  0
  7 10  1  0  0  0
  7 51  1  0  0  0
  8  9  2  0  0  0
  8 17  1  0  0  0
 10 11  1  0  0  0
 10 52  1  0  0  0
 10 53  1  0  0  0
 11 12  1  0  0  0
 11 54  1  0  0  0
 11 55  1  0  0  0
 12 13  1  0  0  0
 12 56  1  0  0  0
 12 57  1  0  0  0
 13 14  1  0  0  0
 13 58  1  0  0  0
 14 15  2  0  0  0
 14 16  1  0  0  0
 15 59  1  0  0  0
 15 90  1  0  0  0
 16 60  1  0  0  0
 16 61  1  0  0  0
 17 18  1  0  0  0
 17 62  1  0  0  0
 18 19  1  0  0  0
 18 21  1  0  0  0
 18 63  1  0  0  0
 19 20  2  0  0  0
 19 26  1  0  0  0
 21 22  1  0  0  0
 21 64  1  0  0  0
 21 65  1  0  0  0
 22 23  1  0  0  0
 22 66  1  0  0  0
 22 67  1  0  0  0
 23 24  1  0  0  0
 23 68  1  0  0  0
 23 69  1  0  0  0
 24 25  1  0  0  0
 24 70  1  0  0  0
 24 71  1  0  0  0
 25 72  1  0  0  0
 25 73  1  0  0  0
 25 74  1  0  0  0
 26 27  1  0  0  0
 26 75  1  0  0  0
 27 28  1  0  0  0
 27 30  1  0  0  0
 27 76  1  0  0  0
 28 29  2  0  0  0
 28 34  1  0  0  0
 30 31  1  0  0  0
 30 77  1  0  0  0
 30 78  1  0  0  0
 31 32  1  0  0  0
 31 33  1  0  0  0
 31 79  1  0  0  0
 32 80  1  0  0  0
 32 81  1  0  0  0
 32 82  1  0  0  0
 33 83  1  0  0  0
 33 84  1  0  0  0
 33 85  1  0  0  0
 34 35  1  0  0  0
 34 86  1  0  0  0
 35 36  1  0  0  0
 35 38  1  0  0  0
 35 87  1  0  0  0
 36 37  2  0  0  0
 36 42  1  0  0  0
 38 39  1  0  0  0
 38 88  1  0  0  0
 38 89  1  0  0  0
 39 40  1  0  0  0
 39 41  2  0  0  0
M  CHG  5   1   1  15   1  25   1  40  -1  42  -1
M  END
> <s_m_source_file>
../4j84_ligand.sdf

> <i_m_source_file_index>
1

> <s_epik_input>
W0hdL049QyhbTkgyXSlcW05IXVtDSDJdW0NIMl1bQ0gyXVtDQEhdKFtOSF1DKD1PKVtDQEBIXShbTkgzK10pW0NIM10pQyg9TylbTkhdW0NAQEhdKFtDSDJdW0NIMl1bQ0gyXVtDSDJdW05IMytdKUMoPU8pW05IXVtDQEBIXShbQ0gyXVtDSF0oW0NIM10pW0NIM10pQyg9TylbTkhdW0NASF0oQyg9TylbT0hdKVtDSDJdQyg9TylbT0hd

> <s_epik_cmdline>
J2VwaWtfYXBwJywgJy1pbWFlJywgJ2xpZ2FuZF9wcm8ubWFlJywgJy1vbWFlJywgJ2xpZ2FuZF9wcmVwLm1hZScsICctbXMnLCAnMScsICctcGgnLCAnNycsICctcGh0JywgJzAuNScsICctbnQn

> <r_epik_Ionization_Penalty>
  0.1269

> <r_epik_Ionization_Penalty_Charging>
  0.1269

> <r_epik_Ionization_Penalty_Neutral>
  0.0000

> <r_epik_State_Penalty>
  0.1145

> <r_epik_Charging_Adjusted_Penalty>
0.241479241498528

> <i_epik_Tot_Q>
1

> <i_epik_Tot_abs_Q>
5

> <s_epik_Chemistry_Notes>
This compound has an imine and may undergo hydrolysis.

$$$$
