4j86_ligand
                    3D
 Schrodinger Suite 2020-3.
109109  0  0  1  0            999 V2000
  -27.1220  -13.8860  -19.5650 N   0  3  0  0  0  0
  -27.4830  -12.4960  -19.1990 C   0  0  2  0  0  0
  -26.6560  -11.5210  -20.0160 C   0  0  0  0  0  0
  -25.6230  -11.8860  -20.5740 O   0  0  0  0  0  0
  -27.1630  -12.2210  -17.7350 C   0  0  2  0  0  0
  -25.7660  -12.4540  -17.5260 O   0  0  0  0  0  0
  -27.9810  -13.1340  -16.8120 C   0  0  0  0  0  0
  -27.0950  -10.2710  -20.0650 N   0  0  0  0  0  0
  -26.3250   -9.2500  -20.7280 C   0  0  2  0  0  0
  -24.9690   -9.0910  -20.0370 C   0  0  0  0  0  0
  -23.9650   -8.8330  -20.7110 O   0  0  0  0  0  0
  -27.0720   -7.9260  -20.7160 C   0  0  0  0  0  0
  -28.2920   -7.8990  -21.5960 C   0  0  0  0  0  0
  -28.2320   -8.3340  -22.9080 C   0  0  0  0  0  0
  -29.4950   -7.4200  -21.1050 C   0  0  0  0  0  0
  -29.3650   -8.2930  -23.7230 C   0  0  0  0  0  0
  -30.6230   -7.3730  -21.9040 C   0  0  0  0  0  0
  -30.5560   -7.8080  -23.2170 C   0  0  0  0  0  0
  -24.9240   -9.2290  -18.7090 N   0  0  0  0  0  0
  -23.6190   -9.1170  -18.0340 C   0  0  2  0  0  0
  -22.6510  -10.1750  -18.5330 C   0  0  0  0  0  0
  -21.4900   -9.8830  -18.8170 O   0  0  0  0  0  0
  -23.7420   -9.1850  -16.5030 C   0  0  0  0  0  0
  -22.3920   -9.0420  -15.7890 C   0  0  0  0  0  0
  -21.7160   -7.7180  -16.1240 C   0  0  0  0  0  0
  -20.4050   -7.5610  -15.3590 C   0  0  0  0  0  0
  -19.8140   -6.2170  -15.6180 N   0  3  0  0  0  0
  -23.1290  -11.4020  -18.6690 N   0  0  0  0  0  0
  -22.3210  -12.4890  -19.1860 C   0  0  2  0  0  0
  -21.8320  -12.1880  -20.6040 C   0  0  0  0  0  0
  -20.6570  -12.3420  -20.9040 O   0  0  0  0  0  0
  -23.1820  -13.7620  -19.1870 C   0  0  0  0  0  0
  -22.6310  -14.9690  -19.9220 C   0  0  0  0  0  0
  -21.5780  -15.6180  -19.0880 C   0  0  0  0  0  0
  -21.1480  -16.9990  -19.5820 C   0  0  0  0  0  0
  -20.0980  -17.5380  -18.6500 N   0  3  0  0  0  0
  -22.7260  -11.7440  -21.4820 N   0  0  0  0  0  0
  -22.3970  -11.7290  -22.9060 C   0  0  2  0  0  0
  -21.9230  -10.4110  -23.5220 C   0  0  0  0  0  0
  -21.2560  -10.4600  -24.5520 O   0  0  0  0  0  0
  -23.5680  -12.2740  -23.7500 C   0  0  2  0  0  0
  -24.6990  -11.4110  -23.6180 O   0  0  0  0  0  0
  -23.9210  -13.6740  -23.3110 C   0  0  0  0  0  0
  -22.2560   -9.2680  -22.9130 N   0  0  0  0  0  0
  -21.8990   -7.9730  -23.4740 C   0  0  2  0  0  0
  -20.4150   -7.8880  -23.7820 C   0  0  0  0  0  0
  -19.6030   -8.4280  -23.0090 O   0  5  0  0  0  0
  -22.2170   -6.8520  -22.4780 C   0  0  0  0  0  0
  -23.6730   -6.4010  -22.5160 C   0  0  0  0  0  0
  -24.4330   -6.7820  -23.4010 O   0  0  0  0  0  0
  -24.0570   -5.5810  -21.5390 N   0  0  0  0  0  0
  -20.0210   -7.2420  -24.7590 O   0  0  0  0  0  0
  -27.3618  -14.0603  -20.6243 H   0  0  0  0  0  0
  -27.6913  -14.5894  -18.9396 H   0  0  0  0  0  0
  -26.0450  -14.0399  -19.4027 H   0  0  0  0  0  0
  -28.5599  -12.3960  -19.3997 H   0  0  0  0  0  0
  -27.3552  -11.1663  -17.4886 H   0  0  0  0  0  0
  -25.0213  -11.8866  -18.1035 H   0  0  0  0  0  0
  -29.0538  -12.9532  -16.9744 H   0  0  0  0  0  0
  -27.7272  -12.9178  -15.7637 H   0  0  0  0  0  0
  -27.7483  -14.1854  -17.0363 H   0  0  0  0  0  0
  -28.0559  -10.0164  -19.5939 H   0  0  0  0  0  0
  -26.2029   -9.6002  -21.7636 H   0  0  0  0  0  0
  -27.4072   -7.7034  -19.6922 H   0  0  0  0  0  0
  -26.4040   -7.1249  -21.0654 H   0  0  0  0  0  0
  -27.2917   -8.7122  -23.3091 H   0  0  0  0  0  0
  -29.5538   -7.0747  -20.0728 H   0  0  0  0  0  0
  -29.3103   -8.6421  -24.7541 H   0  0  0  0  0  0
  -31.5624   -6.9945  -21.5012 H   0  0  0  0  0  0
  -31.4419   -7.7679  -23.8508 H   0  0  0  0  0  0
  -25.8329   -9.4221  -18.1203 H   0  0  0  0  0  0
  -23.2491   -8.1216  -18.3210 H   0  0  0  0  0  0
  -24.3948   -8.3726  -16.1512 H   0  0  0  0  0  0
  -24.1737  -10.1541  -16.2125 H   0  0  0  0  0  0
  -22.5462   -9.0869  -14.7008 H   0  0  0  0  0  0
  -21.7249   -9.8599  -16.0988 H   0  0  0  0  0  0
  -21.5009   -7.6786  -17.2020 H   0  0  0  0  0  0
  -22.3832   -6.8866  -15.8526 H   0  0  0  0  0  0
  -20.5945   -7.6687  -14.2808 H   0  0  0  0  0  0
  -19.6949   -8.3350  -15.6856 H   0  0  0  0  0  0
  -18.8706   -6.1178  -15.0610 H   0  0  0  0  0  0
  -20.5174   -5.4377  -15.2896 H   0  0  0  0  0  0
  -19.6179   -6.1040  -16.6945 H   0  0  0  0  0  0
  -24.1734  -11.5843  -18.3758 H   0  0  0  0  0  0
  -21.4497  -12.5739  -18.5200 H   0  0  0  0  0  0
  -23.3434  -14.0963  -18.1515 H   0  0  0  0  0  0
  -24.1524  -13.5479  -19.6586 H   0  0  0  0  0  0
  -23.4438  -15.6857  -20.1110 H   0  0  0  0  0  0
  -22.1953  -14.6478  -20.8796 H   0  0  0  0  0  0
  -20.6781  -14.9856  -19.0762 H   0  0  0  0  0  0
  -21.9503  -15.7450  -18.0608 H   0  0  0  0  0  0
  -22.0184  -17.6716  -19.5938 H   0  0  0  0  0  0
  -20.7371  -16.9132  -20.5988 H   0  0  0  0  0  0
  -19.7786  -18.5329  -18.9936 H   0  0  0  0  0  0
  -20.5144  -17.6169  -17.6349 H   0  0  0  0  0  0
  -19.2331  -16.8584  -18.6398 H   0  0  0  0  0  0
  -23.7097  -11.3889  -21.1410 H   0  0  0  0  0  0
  -21.5126  -12.3824  -22.8750 H   0  0  0  0  0  0
  -23.3304  -12.2801  -24.8240 H   0  0  0  0  0  0
  -24.6164  -10.3498  -23.8955 H   0  0  0  0  0  0
  -23.0408  -14.3249  -23.4187 H   0  0  0  0  0  0
  -24.7402  -14.0587  -23.9362 H   0  0  0  0  0  0
  -24.2393  -13.6588  -22.2582 H   0  0  0  0  0  0
  -22.8130   -9.3225  -21.9660 H   0  0  0  0  0  0
  -22.4959   -7.9073  -24.3956 H   0  0  0  0  0  0
  -22.0060   -7.1990  -21.4557 H   0  0  0  0  0  0
  -21.5939   -5.9739  -22.7030 H   0  0  0  0  0  0
  -23.3369   -5.2684  -20.7685 H   0  0  0  0  0  0
  -25.0942   -5.2165  -21.5027 H   0  0  0  0  0  0
  1  2  1  0  0  0
  1 53  1  0  0  0
  1 54  1  0  0  0
  1 55  1  0  0  0
  2  3  1  0  0  0
  2  5  1  0  0  0
  2 56  1  0  0  0
  3  4  2  0  0  0
  3  8  1  0  0  0
  5  6  1  0  0  0
  5  7  1  0  0  0
  5 57  1  0  0  0
  6 58  1  0  0  0
  7 59  1  0  0  0
  7 60  1  0  0  0
  7 61  1  0  0  0
  8  9  1  0  0  0
  8 62  1  0  0  0
  9 10  1  0  0  0
  9 12  1  0  0  0
  9 63  1  0  0  0
 10 11  2  0  0  0
 10 19  1  0  0  0
 12 13  1  0  0  0
 12 64  1  0  0  0
 12 65  1  0  0  0
 13 14  2  0  0  0
 13 15  1  0  0  0
 14 16  1  0  0  0
 14 66  1  0  0  0
 15 17  2  0  0  0
 15 67  1  0  0  0
 16 18  2  0  0  0
 16 68  1  0  0  0
 17 18  1  0  0  0
 17 69  1  0  0  0
 18 70  1  0  0  0
 19 20  1  0  0  0
 19 71  1  0  0  0
 20 21  1  0  0  0
 20 23  1  0  0  0
 20 72  1  0  0  0
 21 22  2  0  0  0
 21 28  1  0  0  0
 23 24  1  0  0  0
 23 73  1  0  0  0
 23 74  1  0  0  0
 24 25  1  0  0  0
 24 75  1  0  0  0
 24 76  1  0  0  0
 25 26  1  0  0  0
 25 77  1  0  0  0
 25 78  1  0  0  0
 26 27  1  0  0  0
 26 79  1  0  0  0
 26 80  1  0  0  0
 27 81  1  0  0  0
 27 82  1  0  0  0
 27 83  1  0  0  0
 28 29  1  0  0  0
 28 84  1  0  0  0
 29 30  1  0  0  0
 29 32  1  0  0  0
 29 85  1  0  0  0
 30 31  2  0  0  0
 30 37  1  0  0  0
 32 33  1  0  0  0
 32 86  1  0  0  0
 32 87  1  0  0  0
 33 34  1  0  0  0
 33 88  1  0  0  0
 33 89  1  0  0  0
 34 35  1  0  0  0
 34 90  1  0  0  0
 34 91  1  0  0  0
 35 36  1  0  0  0
 35 92  1  0  0  0
 35 93  1  0  0  0
 36 94  1  0  0  0
 36 95  1  0  0  0
 36 96  1  0  0  0
 37 38  1  0  0  0
 37 97  1  0  0  0
 38 39  1  0  0  0
 38 41  1  0  0  0
 38 98  1  0  0  0
 39 40  2  0  0  0
 39 44  1  0  0  0
 41 42  1  0  0  0
 41 43  1  0  0  0
 41 99  1  0  0  0
 42100  1  0  0  0
 43101  1  0  0  0
 43102  1  0  0  0
 43103  1  0  0  0
 44 45  1  0  0  0
 44104  1  0  0  0
 45 46  1  0  0  0
 45 48  1  0  0  0
 45105  1  0  0  0
 46 47  1  0  0  0
 46 52  2  0  0  0
 48 49  1  0  0  0
 48106  1  0  0  0
 48107  1  0  0  0
 49 50  2  0  0  0
 49 51  1  0  0  0
 51108  1  0  0  0
 51109  1  0  0  0
M  CHG  4   1   1  27   1  36   1  47  -1
M  END
> <s_m_source_file>
../4j86_ligand.sdf

> <i_m_source_file_index>
1

> <s_epik_input>
W2NIXTFbY0hdW2NIXVtjSF1bY0hdYzFbQ0gyXVtDQEhdKFtOSF1DKD1PKVtDQEBIXShbTkgzK10pW0NASF0oW09IXSlbQ0gzXSlDKD1PKVtOSF1bQ0BASF0oW0NIMl1bQ0gyXVtDSDJdW0NIMl1bTkgzK10pQyg9TylbTkhdW0NAQEhdKFtDSDJdW0NIMl1bQ0gyXVtDSDJdW05IMytdKUMoPU8pW05IXVtDQEBIXShbQ0BIXShbT0hdKVtDSDNdKUMoPU8pW05IXVtDQEhdKEMoPU8pW09IXSlbQ0gyXUMoPU8pW05IMl0=

> <s_epik_cmdline>
J2VwaWtfYXBwJywgJy1pbWFlJywgJ2xpZ2FuZF9wcm8ubWFlJywgJy1vbWFlJywgJ2xpZ2FuZF9wcmVwLm1hZScsICctbXMnLCAnMScsICctcGgnLCAnNycsICctcGh0JywgJzAuNScsICctbnQn

> <r_epik_Ionization_Penalty>
  0.0859

> <r_epik_Ionization_Penalty_Charging>
  0.0859

> <r_epik_Ionization_Penalty_Neutral>
  0.0000

> <r_epik_State_Penalty>
  0.0755

> <r_epik_Charging_Adjusted_Penalty>
0.161429449234741

> <i_epik_Tot_Q>
2

> <i_epik_Tot_abs_Q>
4

$$$$
