4j8b_ligand
                    3D
 Schrodinger Suite 2020-3.
118117  0  0  1  0            999 V2000
  -37.7270  -23.5090    8.2270 N   0  3  0  0  0  0
  -37.3280  -24.0530    9.5270 C   0  0  2  0  0  0
  -35.9710  -23.6480   10.1530 C   0  0  0  0  0  0
  -35.9060  -23.5710   11.3160 O   0  0  0  0  0  0
  -37.4450  -25.5610    9.5850 C   0  0  0  0  0  0
  -36.6460  -26.1920   10.6790 C   0  0  0  0  0  0
  -37.4050  -27.1630   11.5700 C   0  0  0  0  0  0
  -35.3550  -26.7870   10.2100 C   0  0  0  0  0  0
  -34.9150  -23.4470    9.3920 N   0  0  0  0  0  0
  -33.7990  -22.6680    9.8570 C   0  0  2  0  0  0
  -33.7540  -21.3710    9.0830 C   0  0  0  0  0  0
  -34.2220  -21.2800    7.9890 O   0  0  0  0  0  0
  -32.4560  -23.3810    9.7090 C   0  0  0  0  0  0
  -32.0260  -24.0340   10.9860 C   0  0  0  0  0  0
  -30.6090  -24.4860   10.9470 C   0  0  0  0  0  0
  -29.6870  -23.4930   11.5520 C   0  0  0  0  0  0
  -30.0930  -23.0450   12.8670 N   0  3  0  0  0  0
  -33.1650  -20.3790    9.6730 N   0  0  0  0  0  0
  -32.9730  -19.1390    8.9920 C   0  0  2  0  0  0
  -31.5020  -18.7210    9.0530 C   0  0  0  0  0  0
  -30.7120  -19.3690    9.6620 O   0  0  0  0  0  0
  -33.9600  -18.0920    9.5330 C   0  0  2  0  0  0
  -33.9630  -16.9480    8.6920 O   0  0  0  0  0  0
  -33.6130  -17.7150   10.8710 C   0  0  0  0  0  0
  -31.1700  -17.6390    8.3780 N   0  0  0  0  0  0
  -29.8130  -17.1500    8.3100 C   0  0  2  0  0  0
  -28.8390  -18.2300    7.7950 C   0  0  0  0  0  0
  -27.8500  -18.5060    8.3980 O   0  0  0  0  0  0
  -29.3460  -16.6660    9.6550 C   0  0  0  0  0  0
  -30.0230  -15.4360   10.1820 C   0  0  0  0  0  0
  -29.8790  -14.2490    9.2560 C   0  0  0  0  0  0
  -30.5720  -13.0230    9.8270 C   0  0  0  0  0  0
  -30.1420  -11.7890    9.1560 N   0  3  0  0  0  0
  -29.1750  -18.8240    6.6780 N   0  0  0  0  0  0
  -28.3320  -19.8160    6.0950 C   0  0  2  0  0  0
  -27.3400  -19.2770    5.1160 C   0  0  0  0  0  0
  -26.4050  -19.9250    4.8290 O   0  0  0  0  0  0
  -29.1490  -20.8470    5.3810 C   0  0  0  0  0  0
  -30.2380  -21.4420    6.2010 C   0  0  0  0  0  0
  -31.1330  -22.1290    5.2270 C   0  0  0  0  0  0
  -29.7000  -22.3540    7.2400 C   0  0  0  0  0  0
  -27.5650  -18.1060    4.5710 N   0  0  0  0  0  0
  -26.5870  -17.5710    3.6670 C   0  0  2  0  0  0
  -25.2920  -17.1960    4.3860 C   0  0  0  0  0  0
  -24.2820  -17.2140    3.7470 O   0  5  0  0  0  0
  -27.1240  -16.3890    2.8430 C   0  0  0  0  0  0
  -28.2210  -16.6550    1.8470 C   0  0  0  0  0  0
  -28.7620  -15.3690    1.3100 C   0  0  0  0  0  0
  -27.7770  -17.5010    0.6880 C   0  0  0  0  0  0
  -25.3390  -16.9460    5.4880 O   0  0  0  0  0  0
  -37.6230  -22.4140    8.2402 H   0  0  0  0  0  0
  -38.7748  -23.7754    8.0241 H   0  0  0  0  0  0
  -37.0829  -23.9291    7.4404 H   0  0  0  0  0  0
  -38.1101  -23.5332   10.0998 H   0  0  0  0  0  0
  -38.4961  -25.8412    9.7482 H   0  0  0  0  0  0
  -37.0935  -25.9928    8.6363 H   0  0  0  0  0  0
  -36.3975  -25.3219   11.3044 H   0  0  0  0  0  0
  -38.3469  -26.6995   11.8985 H   0  0  0  0  0  0
  -36.7917  -27.4100   12.4491 H   0  0  0  0  0  0
  -37.6253  -28.0818   11.0068 H   0  0  0  0  0  0
  -34.8293  -26.0637    9.5693 H   0  0  0  0  0  0
  -35.5603  -27.7032    9.6369 H   0  0  0  0  0  0
  -34.7267  -27.0313   11.0792 H   0  0  0  0  0  0
  -34.8965  -23.8874    8.3842 H   0  0  0  0  0  0
  -34.0087  -22.5177   10.9263 H   0  0  0  0  0  0
  -32.5370  -24.1585    8.9351 H   0  0  0  0  0  0
  -31.6845  -22.6530    9.4179 H   0  0  0  0  0  0
  -32.1305  -23.3200   11.8162 H   0  0  0  0  0  0
  -32.6567  -24.9145   11.1781 H   0  0  0  0  0  0
  -30.5094  -25.4288   11.5048 H   0  0  0  0  0  0
  -30.3031  -24.6440    9.9023 H   0  0  0  0  0  0
  -28.6854  -23.9365   11.6528 H   0  0  0  0  0  0
  -29.6311  -22.6038   10.9068 H   0  0  0  0  0  0
  -29.3635  -22.3146   13.2469 H   0  0  0  0  0  0
  -30.1392  -23.9063   13.5497 H   0  0  0  0  0  0
  -31.0849  -22.5737   12.8037 H   0  0  0  0  0  0
  -32.8117  -20.4986   10.7078 H   0  0  0  0  0  0
  -33.2136  -19.3244    7.9348 H   0  0  0  0  0  0
  -34.9957  -18.4609    9.5672 H   0  0  0  0  0  0
  -34.2089  -17.0506    7.6248 H   0  0  0  0  0  0
  -33.6132  -18.6068   11.5149 H   0  0  0  0  0  0
  -34.3477  -16.9892   11.2496 H   0  0  0  0  0  0
  -32.6117  -17.2596   10.8756 H   0  0  0  0  0  0
  -31.9747  -17.1031    7.8533 H   0  0  0  0  0  0
  -29.8785  -16.3041    7.6099 H   0  0  0  0  0  0
  -29.5132  -17.4522   10.4059 H   0  0  0  0  0  0
  -28.2733  -16.4273    9.6066 H   0  0  0  0  0  0
  -31.0972  -15.6351   10.3102 H   0  0  0  0  0  0
  -29.5826  -15.1621   11.1521 H   0  0  0  0  0  0
  -28.8122  -14.0183    9.1188 H   0  0  0  0  0  0
  -30.3310  -14.4870    8.2818 H   0  0  0  0  0  0
  -31.6599  -13.1238    9.6989 H   0  0  0  0  0  0
  -30.3356  -12.9335   10.8976 H   0  0  0  0  0  0
  -30.6662  -10.9292    9.5986 H   0  0  0  0  0  0
  -30.3811  -11.8521    8.0841 H   0  0  0  0  0  0
  -29.0568  -11.6618    9.2828 H   0  0  0  0  0  0
  -30.1210  -18.5494    6.1885 H   0  0  0  0  0  0
  -27.8028  -20.2121    6.9743 H   0  0  0  0  0  0
  -29.6230  -20.3925    4.4985 H   0  0  0  0  0  0
  -28.4980  -21.6745    5.0623 H   0  0  0  0  0  0
  -30.7918  -20.6824    6.7722 H   0  0  0  0  0  0
  -31.4966  -21.4012    4.4867 H   0  0  0  0  0  0
  -31.9888  -22.5672    5.7614 H   0  0  0  0  0  0
  -30.5740  -22.9256    4.7142 H   0  0  0  0  0  0
  -29.0504  -21.7880    7.9239 H   0  0  0  0  0  0
  -29.1180  -23.1543    6.7596 H   0  0  0  0  0  0
  -30.5327  -22.7959    7.8068 H   0  0  0  0  0  0
  -28.4790  -17.5356    4.7930 H   0  0  0  0  0  0
  -26.4031  -18.4254    2.9990 H   0  0  0  0  0  0
  -27.5354  -15.6265    3.5207 H   0  0  0  0  0  0
  -26.3053  -15.9515    2.2527 H   0  0  0  0  0  0
  -29.0011  -17.2057    2.3931 H   0  0  0  0  0  0
  -29.0934  -14.7337    2.1446 H   0  0  0  0  0  0
  -29.6148  -15.5782    0.6474 H   0  0  0  0  0  0
  -27.9759  -14.8489    0.7429 H   0  0  0  0  0  0
  -27.3748  -18.4539    1.0625 H   0  0  0  0  0  0
  -26.9961  -16.9697    0.1241 H   0  0  0  0  0  0
  -28.6350  -17.6990    0.0287 H   0  0  0  0  0  0
  1  2  1  0  0  0
  1 51  1  0  0  0
  1 52  1  0  0  0
  1 53  1  0  0  0
  2  3  1  0  0  0
  2  5  1  0  0  0
  2 54  1  0  0  0
  3  4  2  0  0  0
  3  9  1  0  0  0
  5  6  1  0  0  0
  5 55  1  0  0  0
  5 56  1  0  0  0
  6  7  1  0  0  0
  6  8  1  0  0  0
  6 57  1  0  0  0
  7 58  1  0  0  0
  7 59  1  0  0  0
  7 60  1  0  0  0
  8 61  1  0  0  0
  8 62  1  0  0  0
  8 63  1  0  0  0
  9 10  1  0  0  0
  9 64  1  0  0  0
 10 11  1  0  0  0
 10 13  1  0  0  0
 10 65  1  0  0  0
 11 12  2  0  0  0
 11 18  1  0  0  0
 13 14  1  0  0  0
 13 66  1  0  0  0
 13 67  1  0  0  0
 14 15  1  0  0  0
 14 68  1  0  0  0
 14 69  1  0  0  0
 15 16  1  0  0  0
 15 70  1  0  0  0
 15 71  1  0  0  0
 16 17  1  0  0  0
 16 72  1  0  0  0
 16 73  1  0  0  0
 17 74  1  0  0  0
 17 75  1  0  0  0
 17 76  1  0  0  0
 18 19  1  0  0  0
 18 77  1  0  0  0
 19 20  1  0  0  0
 19 22  1  0  0  0
 19 78  1  0  0  0
 20 21  2  0  0  0
 20 25  1  0  0  0
 22 23  1  0  0  0
 22 24  1  0  0  0
 22 79  1  0  0  0
 23 80  1  0  0  0
 24 81  1  0  0  0
 24 82  1  0  0  0
 24 83  1  0  0  0
 25 26  1  0  0  0
 25 84  1  0  0  0
 26 27  1  0  0  0
 26 29  1  0  0  0
 26 85  1  0  0  0
 27 28  2  0  0  0
 27 34  1  0  0  0
 29 30  1  0  0  0
 29 86  1  0  0  0
 29 87  1  0  0  0
 30 31  1  0  0  0
 30 88  1  0  0  0
 30 89  1  0  0  0
 31 32  1  0  0  0
 31 90  1  0  0  0
 31 91  1  0  0  0
 32 33  1  0  0  0
 32 92  1  0  0  0
 32 93  1  0  0  0
 33 94  1  0  0  0
 33 95  1  0  0  0
 33 96  1  0  0  0
 34 35  1  0  0  0
 34 97  1  0  0  0
 35 36  1  0  0  0
 35 38  1  0  0  0
 35 98  1  0  0  0
 36 37  2  0  0  0
 36 42  1  0  0  0
 38 39  1  0  0  0
 38 99  1  0  0  0
 38100  1  0  0  0
 39 40  1  0  0  0
 39 41  1  0  0  0
 39101  1  0  0  0
 40102  1  0  0  0
 40103  1  0  0  0
 40104  1  0  0  0
 41105  1  0  0  0
 41106  1  0  0  0
 41107  1  0  0  0
 42 43  1  0  0  0
 42108  1  0  0  0
 43 44  1  0  0  0
 43 46  1  0  0  0
 43109  1  0  0  0
 44 45  1  0  0  0
 44 50  2  0  0  0
 46 47  1  0  0  0
 46110  1  0  0  0
 46111  1  0  0  0
 47 48  1  0  0  0
 47 49  1  0  0  0
 47112  1  0  0  0
 48113  1  0  0  0
 48114  1  0  0  0
 48115  1  0  0  0
 49116  1  0  0  0
 49117  1  0  0  0
 49118  1  0  0  0
M  CHG  4   1   1  17   1  33   1  45  -1
M  END
> <s_m_source_file>
../4j8b_ligand.sdf

> <i_m_source_file_index>
1

> <s_epik_input>
W0NIM11bQ0hdKFtDSDNdKVtDSDJdW0NASF0oW05IMytdKUMoPU8pW05IXVtDQEBIXShbQ0gyXVtDSDJdW0NIMl1bQ0gyXVtOSDMrXSlDKD1PKVtOSF1bQ0BASF0oW0NASF0oW09IXSlbQ0gzXSlDKD1PKVtOSF1bQ0BASF0oW0NIMl1bQ0gyXVtDSDJdW0NIMl1bTkgzK10pQyg9TylbTkhdW0NAQEhdKFtDSDJdW0NIXShbQ0gzXSlbQ0gzXSlDKD1PKVtOSF1bQ0BIXShDKD1PKVtPSF0pW0NIMl1bQ0hdKFtDSDNdKVtDSDNd

> <s_epik_cmdline>
J2VwaWtfYXBwJywgJy1pbWFlJywgJ2xpZ2FuZF9wcm8ubWFlJywgJy1vbWFlJywgJ2xpZ2FuZF9wcmVwLm1hZScsICctbXMnLCAnMScsICctcGgnLCAnNycsICctcGh0JywgJzAuNScsICctbnQn

> <r_epik_Ionization_Penalty>
  0.0901

> <r_epik_Ionization_Penalty_Charging>
  0.0901

> <r_epik_Ionization_Penalty_Neutral>
  0.0000

> <r_epik_State_Penalty>
  0.0794

> <r_epik_Charging_Adjusted_Penalty>
0.169486872564883

> <i_epik_Tot_Q>
2

> <i_epik_Tot_abs_Q>
4

$$$$
