4j8g_ligand
                    3D
 Schrodinger Suite 2020-3.
172173  0  0  1  0            999 V2000
  -19.9520   21.5590  -91.5790 N   0  3  0  0  0  0
  -20.3120   21.4870  -92.9850 C   0  0  2  0  0  0
  -19.8200   20.1970  -93.6850 C   0  0  0  0  0  0
  -20.5280   19.6550  -94.5310 O   0  0  0  0  0  0
  -19.8170   22.7200  -93.6960 C   0  0  0  0  0  0
  -18.6120   19.7250  -93.3560 N   0  0  0  0  0  0
  -18.1730   18.3580  -93.7150 C   0  0  2  0  0  0
  -18.2890   17.4080  -92.4960 C   0  0  0  0  0  0
  -18.4500   17.8730  -91.3720 O   0  0  0  0  0  0
  -16.7640   18.3550  -94.2740 C   0  0  0  0  0  0
  -18.2210   16.0950  -92.7200 N   0  0  0  0  0  0
  -18.6550   15.0980  -91.7160 C   0  0  2  0  0  0
  -17.9030   15.1830  -90.3810 C   0  0  0  0  0  0
  -18.5000   15.1790  -89.2990 O   0  0  0  0  0  0
  -18.5400   13.6700  -92.2930 C   0  0  0  0  0  0
  -18.9410   12.6870  -91.3390 O   0  0  0  0  0  0
  -16.5850   15.2720  -90.4730 N   0  0  0  0  0  0
  -15.7430   15.3590  -89.2840 C   0  0  2  0  0  0
  -15.9150   16.6710  -88.4990 C   0  0  0  0  0  0
  -15.9980   16.6580  -87.2570 O   0  0  0  0  0  0
  -14.2850   15.1620  -89.6850 C   0  0  0  0  0  0
  -13.3350   15.3410  -88.5520 C   0  0  0  0  0  0
  -12.7040   16.5570  -88.3530 C   0  0  0  0  0  0
  -13.1050   14.3030  -87.6600 C   0  0  0  0  0  0
  -11.8250   16.7370  -87.2970 C   0  0  0  0  0  0
  -12.2230   14.4690  -86.5930 C   0  0  0  0  0  0
  -11.5830   15.6970  -86.4100 C   0  0  0  0  0  0
  -15.9580   17.8000  -89.2100 N   0  0  0  0  0  0
  -16.1780   19.1020  -88.5620 C   0  0  2  0  0  0
  -17.4890   19.0850  -87.8040 C   0  0  0  0  0  0
  -17.5550   19.4650  -86.6390 O   0  0  0  0  0  0
  -16.2020   20.2920  -89.5730 C   0  0  2  0  0  0
  -14.7850   20.7170  -89.9330 C   0  0  0  0  0  0
  -16.9280   21.4980  -88.9900 C   0  0  0  0  0  0
  -14.0160   19.6870  -90.7010 C   0  0  0  0  0  0
  -18.5340   18.6190  -88.4630 N   0  0  0  0  0  0
  -19.8480   18.5920  -87.8230 C   0  0  2  0  0  0
  -19.9670   17.6000  -86.6520 C   0  0  0  0  0  0
  -20.6280   17.8990  -85.6590 O   0  0  0  0  0  0
  -20.9280   18.2930  -88.8540 C   0  0  0  0  0  0
  -21.0780   19.3970  -89.8860 C   0  0  0  0  0  0
  -20.7190   20.5630  -89.5970 O   0  0  0  0  0  0
  -21.5750   19.0930  -90.9920 O   0  0  0  0  0  0
  -19.3580   16.4200  -86.7730 N   0  0  0  0  0  0
  -19.5100   15.3830  -85.7370 C   0  0  2  0  0  0
  -18.5180   15.5160  -84.5990 C   0  0  0  0  0  0
  -18.8300   15.2030  -83.4360 O   0  0  0  0  0  0
  -19.3990   13.9920  -86.3530 C   0  0  0  0  0  0
  -17.3090   15.9500  -84.9260 N   0  0  0  0  0  0
  -16.2570   15.9870  -83.9320 C   0  0  2  0  0  0
  -15.8490   17.3850  -83.4940 C   0  0  0  0  0  0
  -15.6750   17.6260  -82.3000 O   0  0  0  0  0  0
  -15.0180   15.2130  -84.4130 C   0  0  0  0  0  0
  -15.1820   13.7020  -84.4530 C   0  0  0  0  0  0
  -15.5610   13.0980  -83.0940 C   0  0  0  0  0  0
  -14.6720   13.5410  -81.9420 C   0  0  0  0  0  0
  -15.0630   12.7640  -80.7140 N   0  3  0  0  0  0
  -15.6460   18.3040  -84.4380 N   0  0  0  0  0  0
  -15.0340   19.5730  -84.0430 C   0  0  2  0  0  0
  -16.0280   20.4740  -83.3150 C   0  0  0  0  0  0
  -15.7110   21.0310  -82.2480 O   0  0  0  0  0  0
  -14.3970   20.3190  -85.2210 C   0  0  0  0  0  0
  -13.4910   21.4700  -84.7610 C   0  0  0  0  0  0
  -13.1160   22.4210  -85.8950 C   0  0  0  0  0  0
  -12.1060   23.4880  -85.4520 C   0  0  0  0  0  0
  -10.8820   22.9020  -84.8220 N   0  3  0  0  0  0
  -17.2300   20.5770  -83.8790 N   0  0  0  0  0  0
  -18.2180   21.5690  -83.4580 C   0  0  2  0  0  0
  -19.0630   21.2830  -82.2000 C   0  0  0  0  0  0
  -19.2480   22.1900  -81.4070 O   0  0  0  0  0  0
  -19.1460   21.9560  -84.6300 C   0  0  0  0  0  0
  -18.3950   22.5470  -85.8410 C   0  0  0  0  0  0
  -17.1820   23.8350  -85.4340 S   0  0  0  0  0  0
  -18.2800   25.2650  -85.4640 C   0  0  0  0  0  0
  -19.5880   20.0500  -82.0240 N   0  0  0  0  0  0
  -20.5810   19.9080  -80.9450 C   0  0  2  0  0  0
  -20.0090   19.9690  -79.5130 C   0  0  0  0  0  0
  -18.7950   19.8520  -79.3160 O   0  0  0  0  0  0
  -21.2220   18.5440  -81.2210 C   0  0  0  0  0  0
  -20.2210   17.7780  -81.9610 C   0  0  0  0  0  0
  -19.4520   18.8040  -82.8000 C   0  0  0  0  0  0
  -20.7640   20.1480  -78.5260 O   0  0  0  0  0  0
  -20.3139   20.6584  -91.0613 H   0  0  0  0  0  0
  -20.4116   22.4508  -91.1280 H   0  0  0  0  0  0
  -18.8580   21.6222  -91.4834 H   0  0  0  0  0  0
  -21.4119   21.4748  -92.9809 H   0  0  0  0  0  0
  -20.1837   23.6162  -93.1741 H   0  0  0  0  0  0
  -20.1890   22.7205  -94.7312 H   0  0  0  0  0  0
  -18.7170   22.7233  -93.7016 H   0  0  0  0  0  0
  -17.9364   20.3913  -92.7996 H   0  0  0  0  0  0
  -18.8476   18.0310  -94.5200 H   0  0  0  0  0  0
  -16.7102   19.0360  -95.1362 H   0  0  0  0  0  0
  -16.4987   17.3366  -94.5940 H   0  0  0  0  0  0
  -16.0607   18.6902  -93.4974 H   0  0  0  0  0  0
  -17.8257   15.7617  -93.6909 H   0  0  0  0  0  0
  -19.7007   15.3761  -91.5183 H   0  0  0  0  0  0
  -19.1858   13.5794  -93.1789 H   0  0  0  0  0  0
  -17.4962   13.4728  -92.5785 H   0  0  0  0  0  0
  -18.9140   11.6198  -91.6044 H   0  0  0  0  0  0
  -16.1270   15.2795  -91.4731 H   0  0  0  0  0  0
  -16.0971   14.5391  -88.6419 H   0  0  0  0  0  0
  -14.1468   14.1433  -90.0763 H   0  0  0  0  0  0
  -14.0164   15.8928  -90.4620 H   0  0  0  0  0  0
  -12.9011   17.3835  -89.0358 H   0  0  0  0  0  0
  -13.6178   13.3506  -87.7946 H   0  0  0  0  0  0
  -11.3235   17.6954  -87.1628 H   0  0  0  0  0  0
  -12.0339   13.6448  -85.9052 H   0  0  0  0  0  0
  -10.8969   15.8379  -85.5748 H   0  0  0  0  0  0
  -15.8252   17.7438  -90.3005 H   0  0  0  0  0  0
  -15.3259   19.2006  -87.8734 H   0  0  0  0  0  0
  -16.7289   19.9670  -90.4823 H   0  0  0  0  0  0
  -14.8209   21.6244  -90.5537 H   0  0  0  0  0  0
  -14.2194   20.9245  -89.0126 H   0  0  0  0  0  0
  -17.9561   21.2129  -88.7223 H   0  0  0  0  0  0
  -16.9540   22.3061  -89.7358 H   0  0  0  0  0  0
  -16.3980   21.8457  -88.0910 H   0  0  0  0  0  0
  -13.0084   20.0699  -90.9204 H   0  0  0  0  0  0
  -14.5381   19.4673  -91.6439 H   0  0  0  0  0  0
  -13.9366   18.7673  -90.1029 H   0  0  0  0  0  0
  -18.4162   18.2512  -89.4930 H   0  0  0  0  0  0
  -19.9407   19.6112  -87.4198 H   0  0  0  0  0  0
  -20.6775   17.3649  -89.3888 H   0  0  0  0  0  0
  -21.8966   18.1737  -88.3464 H   0  0  0  0  0  0
  -20.8233   21.3700  -90.3372 H   0  0  0  0  0  0
  -18.7363   16.2251  -87.6593 H   0  0  0  0  0  0
  -20.5147   15.5599  -85.3255 H   0  0  0  0  0  0
  -20.1199   13.8980  -87.1785 H   0  0  0  0  0  0
  -19.6177   13.2333  -85.5871 H   0  0  0  0  0  0
  -18.3794   13.8416  -86.7376 H   0  0  0  0  0  0
  -17.1057   16.2824  -85.9547 H   0  0  0  0  0  0
  -16.7484   15.5022  -83.0756 H   0  0  0  0  0  0
  -14.7615   15.5299  -85.4347 H   0  0  0  0  0  0
  -14.1721   15.4211  -83.7413 H   0  0  0  0  0  0
  -15.9765   13.4382  -85.1666 H   0  0  0  0  0  0
  -14.2360   13.2387  -84.7698 H   0  0  0  0  0  0
  -16.5899   13.3902  -82.8370 H   0  0  0  0  0  0
  -15.4941   12.0014  -83.1486 H   0  0  0  0  0  0
  -13.6197   13.3425  -82.1936 H   0  0  0  0  0  0
  -14.8099   14.6180  -81.7655 H   0  0  0  0  0  0
  -14.4298   13.0712  -79.8687 H   0  0  0  0  0  0
  -14.9274   11.6887  -80.9019 H   0  0  0  0  0  0
  -16.1176   12.9641  -80.4739 H   0  0  0  0  0  0
  -15.9241   18.1308  -85.4881 H   0  0  0  0  0  0
  -14.2386   19.2627  -83.3494 H   0  0  0  0  0  0
  -13.7861   19.6197  -85.8107 H   0  0  0  0  0  0
  -15.1878   20.7419  -85.8580 H   0  0  0  0  0  0
  -14.0085   22.0577  -83.9885 H   0  0  0  0  0  0
  -12.5586   21.0594  -84.3462 H   0  0  0  0  0  0
  -12.6664   21.8487  -86.7199 H   0  0  0  0  0  0
  -14.0187   22.9360  -86.2553 H   0  0  0  0  0  0
  -11.7859   24.0750  -86.3255 H   0  0  0  0  0  0
  -12.5768   24.1549  -84.7147 H   0  0  0  0  0  0
  -10.1984   23.7115  -84.5265 H   0  0  0  0  0  0
  -10.3784   22.2419  -85.5436 H   0  0  0  0  0  0
  -11.1693   22.3218  -83.9328 H   0  0  0  0  0  0
  -17.4667   19.8762  -84.6931 H   0  0  0  0  0  0
  -17.5181   22.3634  -83.1593 H   0  0  0  0  0  0
  -19.6853   21.0637  -84.9807 H   0  0  0  0  0  0
  -19.8695   22.7119  -84.2906 H   0  0  0  0  0  0
  -17.8448   21.7467  -86.3574 H   0  0  0  0  0  0
  -19.1178   23.0015  -86.5345 H   0  0  0  0  0  0
  -17.7050   26.1737  -85.2322 H   0  0  0  0  0  0
  -19.0747   25.1329  -84.7150 H   0  0  0  0  0  0
  -18.7301   25.3608  -86.4631 H   0  0  0  0  0  0
  -21.2651   20.7675  -81.0020 H   0  0  0  0  0  0
  -21.4730   18.0571  -80.2671 H   0  0  0  0  0  0
  -22.1380   18.6826  -81.8141 H   0  0  0  0  0  0
  -19.5567   17.2618  -81.2523 H   0  0  0  0  0  0
  -20.7244   17.0362  -82.5984 H   0  0  0  0  0  0
  -19.8920   18.9440  -83.7984 H   0  0  0  0  0  0
  -18.3866   18.5495  -82.9012 H   0  0  0  0  0  0
  -20.3419   20.1893  -77.5110 H   0  0  0  0  0  0
  1  2  1  0  0  0
  1 83  1  0  0  0
  1 84  1  0  0  0
  1 85  1  0  0  0
  2  3  1  0  0  0
  2  5  1  0  0  0
  2 86  1  0  0  0
  3  4  2  0  0  0
  3  6  1  0  0  0
  5 87  1  0  0  0
  5 88  1  0  0  0
  5 89  1  0  0  0
  6  7  1  0  0  0
  6 90  1  0  0  0
  7  8  1  0  0  0
  7 10  1  0  0  0
  7 91  1  0  0  0
  8  9  2  0  0  0
  8 11  1  0  0  0
 10 92  1  0  0  0
 10 93  1  0  0  0
 10 94  1  0  0  0
 11 12  1  0  0  0
 11 95  1  0  0  0
 12 13  1  0  0  0
 12 15  1  0  0  0
 12 96  1  0  0  0
 13 14  2  0  0  0
 13 17  1  0  0  0
 15 16  1  0  0  0
 15 97  1  0  0  0
 15 98  1  0  0  0
 16 99  1  0  0  0
 17 18  1  0  0  0
 17100  1  0  0  0
 18 19  1  0  0  0
 18 21  1  0  0  0
 18101  1  0  0  0
 19 20  2  0  0  0
 19 28  1  0  0  0
 21 22  1  0  0  0
 21102  1  0  0  0
 21103  1  0  0  0
 22 23  2  0  0  0
 22 24  1  0  0  0
 23 25  1  0  0  0
 23104  1  0  0  0
 24 26  2  0  0  0
 24105  1  0  0  0
 25 27  2  0  0  0
 25106  1  0  0  0
 26 27  1  0  0  0
 26107  1  0  0  0
 27108  1  0  0  0
 28 29  1  0  0  0
 28109  1  0  0  0
 29 30  1  0  0  0
 29 32  1  0  0  0
 29110  1  0  0  0
 30 31  2  0  0  0
 30 36  1  0  0  0
 32 33  1  0  0  0
 32 34  1  0  0  0
 32111  1  0  0  0
 33 35  1  0  0  0
 33112  1  0  0  0
 33113  1  0  0  0
 34114  1  0  0  0
 34115  1  0  0  0
 34116  1  0  0  0
 35117  1  0  0  0
 35118  1  0  0  0
 35119  1  0  0  0
 36 37  1  0  0  0
 36120  1  0  0  0
 37 38  1  0  0  0
 37 40  1  0  0  0
 37121  1  0  0  0
 38 39  2  0  0  0
 38 44  1  0  0  0
 40 41  1  0  0  0
 40122  1  0  0  0
 40123  1  0  0  0
 41 42  1  0  0  0
 41 43  2  0  0  0
 42124  1  0  0  0
 44 45  1  0  0  0
 44125  1  0  0  0
 45 46  1  0  0  0
 45 48  1  0  0  0
 45126  1  0  0  0
 46 47  2  0  0  0
 46 49  1  0  0  0
 48127  1  0  0  0
 48128  1  0  0  0
 48129  1  0  0  0
 49 50  1  0  0  0
 49130  1  0  0  0
 50 51  1  0  0  0
 50 53  1  0  0  0
 50131  1  0  0  0
 51 52  2  0  0  0
 51 58  1  0  0  0
 53 54  1  0  0  0
 53132  1  0  0  0
 53133  1  0  0  0
 54 55  1  0  0  0
 54134  1  0  0  0
 54135  1  0  0  0
 55 56  1  0  0  0
 55136  1  0  0  0
 55137  1  0  0  0
 56 57  1  0  0  0
 56138  1  0  0  0
 56139  1  0  0  0
 57140  1  0  0  0
 57141  1  0  0  0
 57142  1  0  0  0
 58 59  1  0  0  0
 58143  1  0  0  0
 59 60  1  0  0  0
 59 62  1  0  0  0
 59144  1  0  0  0
 60 61  2  0  0  0
 60 67  1  0  0  0
 62 63  1  0  0  0
 62145  1  0  0  0
 62146  1  0  0  0
 63 64  1  0  0  0
 63147  1  0  0  0
 63148  1  0  0  0
 64 65  1  0  0  0
 64149  1  0  0  0
 64150  1  0  0  0
 65 66  1  0  0  0
 65151  1  0  0  0
 65152  1  0  0  0
 66153  1  0  0  0
 66154  1  0  0  0
 66155  1  0  0  0
 67 68  1  0  0  0
 67156  1  0  0  0
 68 69  1  0  0  0
 68 71  1  0  0  0
 68157  1  0  0  0
 69 70  2  0  0  0
 69 75  1  0  0  0
 71 72  1  0  0  0
 71158  1  0  0  0
 71159  1  0  0  0
 72 73  1  0  0  0
 72160  1  0  0  0
 72161  1  0  0  0
 73 74  1  0  0  0
 74162  1  0  0  0
 74163  1  0  0  0
 74164  1  0  0  0
 75 76  1  0  0  0
 75 81  1  0  0  0
 76 77  1  0  0  0
 76 79  1  0  0  0
 76165  1  0  0  0
 77 78  2  0  0  0
 77 82  1  0  0  0
 79 80  1  0  0  0
 79166  1  0  0  0
 79167  1  0  0  0
 80 81  1  0  0  0
 80168  1  0  0  0
 80169  1  0  0  0
 81170  1  0  0  0
 81171  1  0  0  0
 82172  1  0  0  0
M  CHG  3   1   1  57   1  66   1
M  END
> <s_m_source_file>
../4j8g_ligand.sdf

> <i_m_source_file_index>
1

> <s_epik_input>
W05IMytdW0NAQEhdKFtDSDNdKUMoPU8pW05IXVtDQEBIXShbQ0gzXSlDKD1PKVtOSF1bQ0BASF0oW0NIMl1bT0hdKUMoPU8pW05IXVtDQEBIXShbQ0gyXWMxW2NIXVtjSF1bY0hdW2NIXVtjSF0xKUMoPU8pW05IXVtDQEBIXShbQ0BASF0oW0NIM10pW0NIMl1bQ0gzXSlDKD1PKVtOSF1bQ0BASF0oW0NIMl1DKD1PKVtPSF0pQyg9TylbTkhdW0NAQEhdKFtDSDNdKUMoPU8pW05IXVtDQEBIXShbQ0gyXVtDSDJdW0NIMl1bQ0gyXVtOSDMrXSlDKD1PKVtOSF1bQ0BASF0oW0NIMl1bQ0gyXVtDSDJdW0NIMl1bTkgzK10pQyg9TylbTkhdW0NAQEhdKFtDSDJdW0NIMl1TW0NIM10pQyg9TylOMltDQEhdKEMoPU8pW09IXSlbQ0gyXVtDSDJdW0NIMl0y

> <s_epik_cmdline>
J2VwaWtfYXBwJywgJy1pbWFlJywgJ2xpZ2FuZF9wcm8ubWFlJywgJy1vbWFlJywgJ2xpZ2FuZF9wcmVwLm1hZScsICctbXMnLCAnMScsICctcGgnLCAnNycsICctcGh0JywgJzAuNScsICctbnQn

> <s_epik_pKa_notes>
Molecule size exceeds maximum supported for generating protonation states

$$$$
