4j8r_ligand
                    3D
 Schrodinger Suite 2020-3.
120124  0  0  1  0            999 V2000
  -17.0440    3.5680   47.9090 N   0  3  0  0  0  0
  -17.5960    4.6590   48.6990 C   0  0  2  0  0  0
  -16.8830    5.0310   50.0200 C   0  0  0  0  0  0
  -16.2790    6.0640   49.9980 O   0  0  0  0  0  0
  -19.0310    4.2550   48.8330 C   0  0  0  0  0  0
  -19.3190    3.6770   47.4870 C   0  0  0  0  0  0
  -18.0520    3.0450   46.9880 C   0  0  0  0  0  0
  -16.9110    4.2900   51.1160 N   0  0  0  0  0  0
  -15.9660    4.6210   52.1790 C   0  0  2  0  0  0
  -15.5510    3.5580   53.2120 C   0  0  0  0  0  0
  -16.3240    3.2340   54.0880 O   0  0  0  0  0  0
  -16.4340    5.8630   52.8990 C   0  0  0  0  0  0
  -16.5080    7.0800   52.0450 C   0  0  0  0  0  0
  -15.4880    7.9950   51.9650 N   0  0  0  0  0  0
  -17.4940    7.5510   51.2590 C   0  0  0  0  0  0
  -15.8360    8.9770   51.1600 C   0  0  0  0  0  0
  -17.0500    8.7310   50.7140 N   0  0  0  0  0  0
  -14.3110    3.0780   53.1220 N   0  0  0  0  0  0
  -13.6690    2.1900   54.0750 C   0  0  0  0  0  0
  -12.7940    1.3140   53.2200 C   0  0  0  0  0  0
  -12.8820    1.5070   52.0390 O   0  0  0  0  0  0
  -12.0190    0.3630   53.7560 N   0  0  0  0  0  0
  -11.1780   -0.5380   52.9620 C   0  0  0  0  0  0
  -11.2100   -2.0510   53.2470 C   0  0  0  0  0  0
  -11.2370   -2.4710   54.3940 O   0  0  0  0  0  0
  -11.1890   -2.8990   52.2330 N   0  0  0  0  0  0
  -11.4640   -4.3090   52.4980 C   0  0  2  0  0  0
  -10.9660   -5.4470   51.5990 C   0  0  0  0  0  0
  -10.2570   -5.2570   50.6460 O   0  0  0  0  0  0
  -12.9340   -4.4960   52.7160 C   0  0  0  0  0  0
  -13.6380   -3.7040   51.8370 O   0  0  0  0  0  0
  -11.3020   -6.6490   52.0340 N   0  0  0  0  0  0
  -11.2590   -7.9300   51.3110 C   0  0  2  0  0  0
   -9.9380   -8.5390   51.0820 C   0  0  0  0  0  0
   -9.0420   -8.2540   51.8340 O   0  0  0  0  0  0
  -12.2440   -8.0100   50.1590 C   0  0  0  0  0  0
  -11.8270   -8.0770   48.7270 C   0  0  0  0  0  0
  -12.2970   -8.9670   47.8180 C   0  0  0  0  0  0
  -10.9450   -7.2090   48.0020 C   0  0  0  0  0  0
  -11.7620   -8.7190   46.5930 N   0  3  0  0  0  0
  -10.9270   -7.6420   46.6850 C   0  0  0  0  0  0
  -10.1700   -6.1160   48.3430 C   0  0  0  0  0  0
  -10.1890   -7.0200   45.7260 C   0  0  0  0  0  0
   -9.4360   -5.5280   47.3830 C   0  0  0  0  0  0
   -9.4490   -5.9750   46.1010 C   0  0  0  0  0  0
   -9.8070   -9.4520   50.1290 N   0  0  0  0  0  0
  -10.8510  -10.0580   49.3080 C   0  0  0  0  0  0
  -11.5690  -11.1880   50.0170 C   0  0  0  0  0  0
  -11.3820  -11.3910   51.1950 O   0  0  0  0  0  0
  -12.4640  -11.8960   49.3630 N   0  0  0  0  0  0
  -13.2410  -12.8330   50.1620 C   0  0  2  0  0  0
  -13.0870  -14.3550   50.0180 C   0  0  0  0  0  0
  -12.7660  -15.0350   50.9850 O   0  0  0  0  0  0
  -14.6980  -12.4700   50.0440 C   0  0  0  0  0  0
  -15.3920  -12.4580   51.3670 C   0  0  0  0  0  0
  -16.1820  -11.2000   51.5470 C   0  0  0  0  0  0
  -16.0260  -10.2430   50.7790 O   0  0  0  0  0  0
  -17.0340  -11.1780   52.5700 N   0  0  0  0  0  0
  -13.3150  -14.9000   48.8350 N   0  0  0  0  0  0
  -13.4530  -16.3480   48.7300 C   0  0  2  0  0  0
  -12.3020  -17.0480   49.4170 C   0  0  0  0  0  0
  -11.9292  -18.1642   48.9668 O   0  0  0  0  0  0
  -13.4240  -16.5980   47.2210 C   0  0  0  0  0  0
  -13.7590  -15.2910   46.6160 C   0  0  0  0  0  0
  -13.1170  -14.2940   47.5160 C   0  0  0  0  0  0
  -11.7309  -16.5289   50.4130 O   0  5  0  0  0  0
  -16.1841    3.9340   47.3288 H   0  0  0  0  0  0
  -16.7168    2.7592   48.5789 H   0  0  0  0  0  0
  -17.4539    5.5976   48.1432 H   0  0  0  0  0  0
  -19.1310    3.5218   49.6469 H   0  0  0  0  0  0
  -19.6417    5.1411   49.0607 H   0  0  0  0  0  0
  -20.1161    2.9240   47.5742 H   0  0  0  0  0  0
  -19.6438    4.4775   46.8060 H   0  0  0  0  0  0
  -17.8025    3.3485   45.9606 H   0  0  0  0  0  0
  -18.0720    1.9470   47.0513 H   0  0  0  0  0  0
  -17.6110    3.4512   51.2439 H   0  0  0  0  0  0
  -15.0682    4.7577   51.5583 H   0  0  0  0  0  0
  -16.7095    5.9197   53.9624 H   0  0  0  0  0  0
  -18.4975    7.1742   51.0119 H   0  0  0  0  0  0
  -15.2250    9.8434   50.9067 H   0  0  0  0  0  0
  -13.7646    3.4130   52.2280 H   0  0  0  0  0  0
  -13.0859    2.7839   54.7942 H   0  0  0  0  0  0
  -14.4358    1.6128   54.6125 H   0  0  0  0  0  0
  -12.0348    0.2769   54.8525 H   0  0  0  0  0  0
  -11.4535   -0.4561   51.9002 H   0  0  0  0  0  0
  -10.1212   -0.2603   53.0891 H   0  0  0  0  0  0
  -10.9709   -2.5643   51.2081 H   0  0  0  0  0  0
  -10.8132   -4.3884   53.3813 H   0  0  0  0  0  0
  -13.1983   -5.5506   52.5485 H   0  0  0  0  0  0
  -13.1906   -4.2131   53.7475 H   0  0  0  0  0  0
  -14.7379   -3.7102   51.8509 H   0  0  0  0  0  0
  -11.6497   -6.6176   53.0771 H   0  0  0  0  0  0
  -11.6047   -8.6285   52.0873 H   0  0  0  0  0  0
  -12.8586   -8.9162   50.2644 H   0  0  0  0  0  0
  -12.8941   -7.1227   50.1701 H   0  0  0  0  0  0
  -13.0099   -9.7452   48.1280 H   0  0  0  0  0  0
  -10.1547   -5.7402   49.3660 H   0  0  0  0  0  0
  -10.2018   -7.3622   44.6912 H   0  0  0  0  0  0
   -8.8144   -4.6703   47.6401 H   0  0  0  0  0  0
   -8.8372   -5.4654   45.3566 H   0  0  0  0  0  0
   -8.7566   -9.7470   49.9890 H   0  0  0  0  0  0
  -11.5991   -9.2958   49.0447 H   0  0  0  0  0  0
  -10.4044  -10.4661   48.3893 H   0  0  0  0  0  0
  -12.6443  -11.8145   48.2809 H   0  0  0  0  0  0
  -12.7608  -12.6303   51.1307 H   0  0  0  0  0  0
  -14.7913  -11.4667   49.6029 H   0  0  0  0  0  0
  -15.2074  -13.2023   49.4004 H   0  0  0  0  0  0
  -16.0769  -13.3165   51.4296 H   0  0  0  0  0  0
  -14.6463  -12.5244   52.1729 H   0  0  0  0  0  0
  -17.1330  -12.0582   53.2223 H   0  0  0  0  0  0
  -17.6388  -10.2797   52.7628 H   0  0  0  0  0  0
  -14.3701  -16.6945   49.2289 H   0  0  0  0  0  0
  -12.4211  -16.9395   46.9251 H   0  0  0  0  0  0
  -14.1648  -17.3690   46.9627 H   0  0  0  0  0  0
  -13.3535  -15.2451   45.5945 H   0  0  0  0  0  0
  -14.8520  -15.1719   46.5823 H   0  0  0  0  0  0
  -13.6073  -13.3097   47.4874 H   0  0  0  0  0  0
  -12.0403  -14.1730   47.3260 H   0  0  0  0  0  0
  -12.0328   -9.3531   45.7359 H   0  0  0  0  0  0
  -14.5590    7.8340   52.5316 H   0  0  0  0  0  0
  1  2  1  0  0  0
  1  7  1  0  0  0
  1 67  1  0  0  0
  1 68  1  0  0  0
  2  3  1  0  0  0
  2  5  1  0  0  0
  2 69  1  0  0  0
  3  4  2  0  0  0
  3  8  1  0  0  0
  5  6  1  0  0  0
  5 70  1  0  0  0
  5 71  1  0  0  0
  6  7  1  0  0  0
  6 72  1  0  0  0
  6 73  1  0  0  0
  7 74  1  0  0  0
  7 75  1  0  0  0
  8  9  1  0  0  0
  8 76  1  0  0  0
  9 10  1  0  0  0
  9 12  1  0  0  0
  9 77  1  0  0  0
 10 11  2  0  0  0
 10 18  1  0  0  0
 12 13  2  0  0  0
 12 78  1  0  0  0
 13 14  1  0  0  0
 13 15  1  0  0  0
 14 16  1  0  0  0
 14120  1  0  0  0
 15 17  2  0  0  0
 15 79  1  0  0  0
 16 17  1  0  0  0
 16 80  1  0  0  0
 18 19  1  0  0  0
 18 81  1  0  0  0
 19 20  1  0  0  0
 19 82  1  0  0  0
 19 83  1  0  0  0
 20 21  2  0  0  0
 20 22  1  0  0  0
 22 23  1  0  0  0
 22 84  1  0  0  0
 23 24  1  0  0  0
 23 85  1  0  0  0
 23 86  1  0  0  0
 24 25  2  0  0  0
 24 26  1  0  0  0
 26 27  1  0  0  0
 26 87  1  0  0  0
 27 28  1  0  0  0
 27 30  1  0  0  0
 27 88  1  0  0  0
 28 29  2  0  0  0
 28 32  1  0  0  0
 30 31  1  0  0  0
 30 89  1  0  0  0
 30 90  1  0  0  0
 31 91  1  0  0  0
 32 33  1  0  0  0
 32 92  1  0  0  0
 33 34  1  0  0  0
 33 36  1  0  0  0
 33 93  1  0  0  0
 34 35  2  0  0  0
 34 46  1  0  0  0
 36 37  1  0  0  0
 36 94  1  0  0  0
 36 95  1  0  0  0
 37 38  2  0  0  0
 37 39  1  0  0  0
 38 40  1  0  0  0
 38 96  1  0  0  0
 39 41  2  0  0  0
 39 42  1  0  0  0
 40 41  1  0  0  0
 40119  1  0  0  0
 41 43  1  0  0  0
 42 44  2  0  0  0
 42 97  1  0  0  0
 43 45  2  0  0  0
 43 98  1  0  0  0
 44 45  1  0  0  0
 44 99  1  0  0  0
 45100  1  0  0  0
 46 47  1  0  0  0
 46101  1  0  0  0
 47 48  1  0  0  0
 47102  1  0  0  0
 47103  1  0  0  0
 48 49  2  0  0  0
 48 50  1  0  0  0
 50 51  1  0  0  0
 50104  1  0  0  0
 51 52  1  0  0  0
 51 54  1  0  0  0
 51105  1  0  0  0
 52 53  2  0  0  0
 52 59  1  0  0  0
 54 55  1  0  0  0
 54106  1  0  0  0
 54107  1  0  0  0
 55 56  1  0  0  0
 55108  1  0  0  0
 55109  1  0  0  0
 56 57  2  0  0  0
 56 58  1  0  0  0
 58110  1  0  0  0
 58111  1  0  0  0
 59 60  1  0  0  0
 59 65  1  0  0  0
 60 61  1  0  0  0
 60 63  1  0  0  0
 60112  1  0  0  0
 61 62  2  0  0  0
 61 66  1  0  0  0
 63 64  1  0  0  0
 63113  1  0  0  0
 63114  1  0  0  0
 64 65  1  0  0  0
 64115  1  0  0  0
 64116  1  0  0  0
 65117  1  0  0  0
 65118  1  0  0  0
M  CHG  3   1   1  40   1  66  -1
M  END
> <s_m_source_file>
../4j8r_ligand.sdf

> <i_m_source_file_index>
1

> <s_epik_input>
W0NIMl0xW0NIMl1bQ0gyXVtOSDIrXVtDQEBIXTFDKD1PKVtOSF1bQ0BASF0oW0NIMl1DMj1OW0NIMl1OPVtDSF0yKUMoPU8pW05IXVtDSDJdQyg9TylbTkhdW0NIMl1DKD1PKVtOSF1bQ0BASF0oW0NIMl1bT0hdKUMoPU8pW05IXVtDQEBIXShbQ0gyXWMzW2NIXVtuSF1jKGMzNClbY0hdW2NIXVtjSF1bY0hdNClDKD1PKVtOSF1bQ0gyXUMoPU8pW05IXVtDQEBIXShbQ0gyXVtDSDJdQyg9TylbTkgyXSlDKD1PKU41W0NASF0oQyg9TylbT0hdKVtDSDJdW0NIMl1bQ0gyXTU=

> <s_epik_cmdline>
J2VwaWtfYXBwJywgJy1pbWFlJywgJ2xpZ2FuZF9wcm8ubWFlJywgJy1vbWFlJywgJ2xpZ2FuZF9wcmVwLm1hZScsICctbXMnLCAnMScsICctcGgnLCAnNycsICctcGh0JywgJzAuNScsICctbnQn

> <r_epik_Ionization_Penalty>
  0.0540

> <r_epik_Ionization_Penalty_Charging>
  0.0539

> <r_epik_Ionization_Penalty_Neutral>
  0.0000

> <r_epik_State_Penalty>
  0.0460

> <r_epik_Charging_Adjusted_Penalty>
0.0999912831780108

> <i_epik_Tot_Q>
1

> <i_epik_Tot_abs_Q>
3

> <s_epik_Chemistry_Notes>
This compound has an imine and may undergo hydrolysis.

$$$$
