4j8t_ligand
                    3D
 Schrodinger Suite 2020-3.
 62 66  0  0  1  0            999 V2000
  -12.0240  -30.5510    9.6190 O   0  0  0  0  0  0
  -11.7260  -31.7090    9.5270 C   0  0  0  0  0  0
  -12.2980  -32.8330   10.1970 C   0  0  0  0  0  0
  -11.0270  -32.0860    8.5490 O   0  0  0  0  0  0
  -10.8140  -33.3650    8.6670 C   0  0  0  0  0  0
  -11.7170  -33.8530    9.7140 C   0  0  0  0  0  0
  -12.1320  -35.2140   10.0060 C   0  0  1  0  0  0
  -12.5580  -35.8950    8.7840 C   0  0  0  0  0  0
  -10.9820  -36.0770   10.6050 C   0  0  1  0  0  0
   -9.8220  -35.2870   11.1960 C   0  0  0  0  0  0
  -11.5850  -37.0110   11.7050 C   0  0  2  0  0  0
  -11.8980  -36.2560   12.7560 O   0  0  0  0  0  0
  -10.5890  -36.9240    9.4150 C   0  0  1  0  0  0
  -11.8930  -37.2280    8.8070 C   0  0  0  0  0  0
   -9.9290  -36.1990    8.5660 O   0  0  0  0  0  0
   -9.6960  -38.1450    9.8230 C   0  0  2  0  0  0
   -9.4280  -39.0140    8.6310 C   0  0  0  0  0  0
  -10.2710  -38.9420   10.9730 C   0  0  2  0  0  0
  -10.6020  -38.0500   12.1280 C   0  0  0  0  0  0
   -9.3330  -40.1010   11.3670 C   0  0  2  0  0  0
   -8.1010  -39.5980   11.9090 C   0  0  0  0  0  0
   -8.9940  -40.9490   10.1440 C   0  0  2  0  0  0
   -8.5060  -40.0950    8.9640 C   0  0  0  0  0  0
  -10.1610  -41.7800    9.6960 C   0  0  0  0  0  0
  -10.8250  -42.5600   10.8190 C   0  0  1  0  0  0
   -9.9820  -43.5840   11.2700 O   0  0  0  0  0  0
  -11.1910  -41.6090   11.8930 C   0  0  0  0  0  0
   -9.9930  -40.9760   12.4060 C   0  0  0  0  0  0
  -13.0687  -32.9547   10.9724 H   0  0  0  0  0  0
  -11.0246  -33.8617    7.7084 H   0  0  0  0  0  0
   -9.7642  -33.5377    8.9465 H   0  0  0  0  0  0
  -12.9829  -35.0773   10.6896 H   0  0  0  0  0  0
  -13.6533  -35.9962    8.7835 H   0  0  0  0  0  0
  -12.2436  -35.3080    7.9085 H   0  0  0  0  0  0
  -10.1791  -34.6971   12.0531 H   0  0  0  0  0  0
   -9.4113  -34.6112   10.4314 H   0  0  0  0  0  0
   -9.0377  -35.9820   11.5304 H   0  0  0  0  0  0
  -12.5328  -37.4949   11.4266 H   0  0  0  0  0  0
  -12.6142  -35.4285   12.6450 H   0  0  0  0  0  0
  -12.4922  -37.9263    9.4097 H   0  0  0  0  0  0
  -11.8056  -37.6120    7.7799 H   0  0  0  0  0  0
  -10.3829  -35.2864    8.1522 H   0  0  0  0  0  0
   -8.7230  -37.7842   10.1879 H   0  0  0  0  0  0
  -10.3725  -39.4540    8.2782 H   0  0  0  0  0  0
   -8.9834  -38.4079    7.8279 H   0  0  0  0  0  0
  -11.2302  -39.3721   10.6492 H   0  0  0  0  0  0
   -9.6825  -37.5618   12.4832 H   0  0  0  0  0  0
  -11.0335  -38.6541   12.9397 H   0  0  0  0  0  0
   -7.6069  -38.9576   11.1635 H   0  0  0  0  0  0
   -7.4413  -40.4406   12.1635 H   0  0  0  0  0  0
   -8.3117  -39.0107   12.8149 H   0  0  0  0  0  0
   -8.1939  -41.6335   10.4623 H   0  0  0  0  0  0
   -8.3891  -40.7582    8.0942 H   0  0  0  0  0  0
   -7.5279  -39.6718    9.2365 H   0  0  0  0  0  0
  -10.9279  -41.1270    9.2539 H   0  0  0  0  0  0
   -9.8244  -42.5104    8.9455 H   0  0  0  0  0  0
  -11.7207  -43.1150   10.5034 H   0  0  0  0  0  0
   -9.6348  -44.3587   10.5705 H   0  0  0  0  0  0
  -11.8669  -40.8413   11.4883 H   0  0  0  0  0  0
  -11.6964  -42.1508   12.7060 H   0  0  0  0  0  0
   -9.2929  -41.7643   12.7198 H   0  0  0  0  0  0
  -10.2711  -40.3647   13.2772 H   0  0  0  0  0  0
  1  2  2  0  0  0
  2  3  1  0  0  0
  2  4  1  0  0  0
  3  6  2  0  0  0
  3 29  1  0  0  0
  4  5  1  0  0  0
  5  6  1  0  0  0
  5 30  1  0  0  0
  5 31  1  0  0  0
  6  7  1  0  0  0
  7  8  1  0  0  0
  7  9  1  0  0  0
  7 32  1  0  0  0
  8 14  1  0  0  0
  8 33  1  0  0  0
  8 34  1  0  0  0
  9 10  1  0  0  0
  9 11  1  0  0  0
  9 13  1  0  0  0
 10 35  1  0  0  0
 10 36  1  0  0  0
 10 37  1  0  0  0
 11 12  1  0  0  0
 11 19  1  0  0  0
 11 38  1  0  0  0
 12 39  1  0  0  0
 13 14  1  0  0  0
 13 15  1  0  0  0
 13 16  1  0  0  0
 14 40  1  0  0  0
 14 41  1  0  0  0
 15 42  1  0  0  0
 16 17  1  0  0  0
 16 18  1  0  0  0
 16 43  1  0  0  0
 17 23  1  0  0  0
 17 44  1  0  0  0
 17 45  1  0  0  0
 18 19  1  0  0  0
 18 20  1  0  0  0
 18 46  1  0  0  0
 19 47  1  0  0  0
 19 48  1  0  0  0
 20 21  1  0  0  0
 20 22  1  0  0  0
 20 28  1  0  0  0
 21 49  1  0  0  0
 21 50  1  0  0  0
 21 51  1  0  0  0
 22 23  1  0  0  0
 22 24  1  0  0  0
 22 52  1  0  0  0
 23 53  1  0  0  0
 23 54  1  0  0  0
 24 25  1  0  0  0
 24 55  1  0  0  0
 24 56  1  0  0  0
 25 26  1  0  0  0
 25 27  1  0  0  0
 25 57  1  0  0  0
 26 58  1  0  0  0
 27 28  1  0  0  0
 27 59  1  0  0  0
 27 60  1  0  0  0
 28 61  1  0  0  0
 28 62  1  0  0  0
M  END
> <s_m_source_file>
../4j8t_ligand.sdf

> <i_m_source_file_index>
1

> <s_epik_input>
Tz1DMVtDSF09QyhbQ0gyXU8xKVtDQEhdMltDSDJdW0NIMl1bQ0BAXShbT0hdKShbQ0BAXTIzW0NIM10pW0NASF00W0NASF0oW0NIMl1bQ0BIXTNbT0hdKVtDQF01KFtDSDNdKVtDQEhdKFtDSDJdW0NIMl00KVtDSDJdW0NAQEhdKFtPSF0pW0NIMl1bQ0gyXTU=

> <s_epik_cmdline>
J2VwaWtfYXBwJywgJy1pbWFlJywgJ2xpZ2FuZF9wcm8ubWFlJywgJy1vbWFlJywgJ2xpZ2FuZF9wcmVwLm1hZScsICctbXMnLCAnMScsICctcGgnLCAnNycsICctcGh0JywgJzAuNScsICctbnQn

> <r_lp_tautomer_probability>
1

> <r_epik_Ionization_Penalty>
  0.0000

> <r_epik_Ionization_Penalty_Charging>
  0.0000

> <r_epik_Ionization_Penalty_Neutral>
  0.0000

> <r_epik_State_Penalty>
 -0.0000

> <r_epik_Charging_Adjusted_Penalty>
0

> <i_epik_Tot_Q>
0

> <i_epik_Tot_abs_Q>
0

> <s_epik_Chemistry_Notes>
This compound has an ester and may undergo hydrolysis at high or low pH.

$$$$
