4j9a_ligand
                    3D
 Schrodinger Suite 2020-3.
 62 66  0  0  1  0            999 V2000
   -4.8120    3.6040   12.3870 O   0  0  0  0  0  0
   -5.2660    2.4810   12.3410 C   0  0  0  0  0  0
   -4.6420    1.2110   12.7380 C   0  0  0  0  0  0
   -6.6060    2.2090   11.9050 O   0  0  0  0  0  0
   -6.8860    0.8260   12.1890 C   0  0  0  0  0  0
   -5.5630    0.2400   12.6490 C   0  0  0  0  0  0
   -5.2890   -1.2040   12.9830 C   0  0  1  0  0  0
   -6.1970   -1.6430   14.1220 C   0  0  0  0  0  0
   -5.4480   -2.2660   11.8990 C   0  0  1  0  0  0
   -5.4650   -1.7570   10.4690 C   0  0  0  0  0  0
   -4.3230   -3.2820   12.0520 C   0  0  2  0  0  0
   -3.1160   -2.6960   11.5400 O   0  0  0  0  0  0
   -6.7370   -2.9330   12.2540 C   0  0  1  0  0  0
   -6.7720   -2.9900   13.7410 C   0  0  0  0  0  0
   -7.7250   -1.9760   11.9810 O   0  0  0  0  0  0
   -7.0120   -4.2530   11.5080 C   0  0  2  0  0  0
   -8.3250   -4.8960   11.9430 C   0  0  0  0  0  0
   -5.8960   -5.2670   11.6430 C   0  0  2  0  0  0
   -4.5580   -4.6150   11.3210 C   0  0  0  0  0  0
   -6.1740   -6.5320   10.8180 C   0  0  2  0  0  0
   -6.3090   -6.3180    9.3280 C   0  0  0  0  0  0
   -7.4470   -7.1790   11.3320 C   0  0  2  0  0  0
   -8.6220   -6.2340   11.2640 C   0  0  0  0  0  0
   -7.3470   -7.6550   12.7730 C   0  0  0  0  0  0
   -6.1230   -8.5450   13.0120 C   0  0  1  0  0  0
   -6.4060   -9.8760   12.5050 O   0  0  0  0  0  0
   -4.8460   -7.9660   12.3730 C   0  0  0  0  0  0
   -5.0680   -7.5510   10.9230 C   0  0  0  0  0  0
   -3.6200    0.9713   13.0668 H   0  0  0  0  0  0
   -7.6527    0.7611   12.9751 H   0  0  0  0  0  0
   -7.2527    0.3314   11.2775 H   0  0  0  0  0  0
   -4.2130   -1.1583   13.2069 H   0  0  0  0  0  0
   -5.6105   -1.7206   15.0494 H   0  0  0  0  0  0
   -6.9999   -0.9033   14.2568 H   0  0  0  0  0  0
   -4.5040   -1.2729   10.2407 H   0  0  0  0  0  0
   -6.2803   -1.0284   10.3488 H   0  0  0  0  0  0
   -5.6230   -2.6009    9.7813 H   0  0  0  0  0  0
   -4.2053   -3.4889   13.1259 H   0  0  0  0  0  0
   -2.7640   -1.7305   11.9322 H   0  0  0  0  0  0
   -6.1404   -3.7890   14.1564 H   0  0  0  0  0  0
   -7.7912   -3.0811   14.1447 H   0  0  0  0  0  0
   -7.6671   -0.9789   12.4418 H   0  0  0  0  0  0
   -7.0751   -3.9806   10.4441 H   0  0  0  0  0  0
   -8.3007   -5.0821   13.0269 H   0  0  0  0  0  0
   -9.1603   -4.2208   11.7056 H   0  0  0  0  0  0
   -5.8502   -5.5951   12.6919 H   0  0  0  0  0  0
   -4.5306   -4.4470   10.2343 H   0  0  0  0  0  0
   -3.7710   -5.3306   11.6013 H   0  0  0  0  0  0
   -7.1017   -5.5805    9.1339 H   0  0  0  0  0  0
   -6.5677   -7.2707    8.8427 H   0  0  0  0  0  0
   -5.3559   -5.9471    8.9230 H   0  0  0  0  0  0
   -7.6001   -8.0422   10.6676 H   0  0  0  0  0  0
   -9.4775   -6.7152   11.7605 H   0  0  0  0  0  0
   -8.8622   -6.0621   10.2044 H   0  0  0  0  0  0
   -7.2696   -6.7852   13.4419 H   0  0  0  0  0  0
   -8.2446   -8.2366   13.0302 H   0  0  0  0  0  0
   -5.9437   -8.6526   14.0919 H   0  0  0  0  0  0
   -7.2879  -10.4258   12.8654 H   0  0  0  0  0  0
   -4.5232   -7.0789   12.9377 H   0  0  0  0  0  0
   -4.0492   -8.7241   12.3943 H   0  0  0  0  0  0
   -5.3344   -8.4429   10.3369 H   0  0  0  0  0  0
   -4.1344   -7.1205   10.5317 H   0  0  0  0  0  0
  1  2  2  0  0  0
  2  3  1  0  0  0
  2  4  1  0  0  0
  3  6  2  0  0  0
  3 29  1  0  0  0
  4  5  1  0  0  0
  5  6  1  0  0  0
  5 30  1  0  0  0
  5 31  1  0  0  0
  6  7  1  0  0  0
  7  8  1  0  0  0
  7  9  1  0  0  0
  7 32  1  0  0  0
  8 14  1  0  0  0
  8 33  1  0  0  0
  8 34  1  0  0  0
  9 10  1  0  0  0
  9 11  1  0  0  0
  9 13  1  0  0  0
 10 35  1  0  0  0
 10 36  1  0  0  0
 10 37  1  0  0  0
 11 12  1  0  0  0
 11 19  1  0  0  0
 11 38  1  0  0  0
 12 39  1  0  0  0
 13 14  1  0  0  0
 13 15  1  0  0  0
 13 16  1  0  0  0
 14 40  1  0  0  0
 14 41  1  0  0  0
 15 42  1  0  0  0
 16 17  1  0  0  0
 16 18  1  0  0  0
 16 43  1  0  0  0
 17 23  1  0  0  0
 17 44  1  0  0  0
 17 45  1  0  0  0
 18 19  1  0  0  0
 18 20  1  0  0  0
 18 46  1  0  0  0
 19 47  1  0  0  0
 19 48  1  0  0  0
 20 21  1  0  0  0
 20 22  1  0  0  0
 20 28  1  0  0  0
 21 49  1  0  0  0
 21 50  1  0  0  0
 21 51  1  0  0  0
 22 23  1  0  0  0
 22 24  1  0  0  0
 22 52  1  0  0  0
 23 53  1  0  0  0
 23 54  1  0  0  0
 24 25  1  0  0  0
 24 55  1  0  0  0
 24 56  1  0  0  0
 25 26  1  0  0  0
 25 27  1  0  0  0
 25 57  1  0  0  0
 26 58  1  0  0  0
 27 28  1  0  0  0
 27 59  1  0  0  0
 27 60  1  0  0  0
 28 61  1  0  0  0
 28 62  1  0  0  0
M  END
> <s_m_source_file>
../4j9a_ligand.sdf

> <i_m_source_file_index>
1

> <s_epik_input>
Tz1DMVtDSF09QyhbQ0gyXU8xKVtDQEhdMltDSDJdW0NIMl1bQ0BAXShbT0hdKShbQ0BAXTIzW0NIM10pW0NASF00W0NASF0oW0NIMl1bQ0BIXTNbT0hdKVtDQF01KFtDSDNdKVtDQEhdKFtDSDJdW0NIMl00KVtDSDJdW0NAQEhdKFtPSF0pW0NIMl1bQ0gyXTU=

> <s_epik_cmdline>
J2VwaWtfYXBwJywgJy1pbWFlJywgJ2xpZ2FuZF9wcm8ubWFlJywgJy1vbWFlJywgJ2xpZ2FuZF9wcmVwLm1hZScsICctbXMnLCAnMScsICctcGgnLCAnNycsICctcGh0JywgJzAuNScsICctbnQn

> <r_lp_tautomer_probability>
1

> <r_epik_Ionization_Penalty>
  0.0000

> <r_epik_Ionization_Penalty_Charging>
  0.0000

> <r_epik_Ionization_Penalty_Neutral>
  0.0000

> <r_epik_State_Penalty>
 -0.0000

> <r_epik_Charging_Adjusted_Penalty>
0

> <i_epik_Tot_Q>
0

> <i_epik_Tot_abs_Q>
0

> <s_epik_Chemistry_Notes>
This compound has an ester and may undergo hydrolysis at high or low pH.

$$$$
