4jal_ligand
                    3D
 Schrodinger Suite 2020-3.
 46 48  0  0  1  0            999 V2000
    2.1330   13.6740   16.4560 N   0  3  0  0  0  0
    1.8710   12.5410   17.3370 C   0  0  1  0  0  0
    3.0730   12.3290   18.2290 C   0  0  0  0  0  0
    3.7110   11.0060   17.8650 C   0  0  0  0  0  0
    5.4810   11.0610   18.1350 S   0  0  0  0  0  0
    0.6270   12.7290   18.1920 C   0  0  0  0  0  0
    0.0510   11.7590   18.6840 O   0  0  0  0  0  0
    0.1750   13.8530   18.4130 O   0  5  0  0  0  0
    5.1730   10.0030   19.5670 C   0  0  0  0  0  0
    5.7480    8.6020   19.4340 C   0  0  1  0  0  0
    5.1320    7.8950   18.3740 O   0  0  0  0  0  0
    7.2360    8.6130   19.1060 C   0  0  1  0  0  0
    8.0040    8.7940   20.2610 O   0  0  0  0  0  0
    7.4290    7.2440   18.5050 C   0  0  1  0  0  0
    7.6100    6.2780   19.5240 O   0  0  0  0  0  0
    6.0820    6.9880   17.8450 C   0  0  2  0  0  0
    6.2010    7.2030   16.3860 N   0  0  0  0  0  0
    5.6260    8.1720   15.6150 C   0  0  0  0  0  0
    5.9980    7.9790   14.3300 N   0  0  0  0  0  0
    6.8020    6.8940   14.2740 C   0  0  0  0  0  0
    7.4620    6.2520   13.2300 C   0  0  0  0  0  0
    7.3630    6.6920   11.9710 N   0  0  0  0  0  0
    8.2310    5.1450   13.5190 N   0  0  0  0  0  0
    8.3570    4.6770   14.8090 C   0  0  0  0  0  0
    7.6900    5.3190   15.8340 N   0  0  0  0  0  0
    6.9330    6.4010   15.5660 C   0  0  0  0  0  0
    3.0411   13.4781   15.8669 H   0  0  0  0  0  0
    2.2763   14.5823   17.0596 H   0  0  0  0  0  0
    1.2791   13.8158   15.7772 H   0  0  0  0  0  0
    1.7011   11.6844   16.6681 H   0  0  0  0  0  0
    3.7916   13.1477   18.0766 H   0  0  0  0  0  0
    2.7511   12.3147   19.2808 H   0  0  0  0  0  0
    3.2810   10.2079   18.4880 H   0  0  0  0  0  0
    3.5199   10.7863   16.8042 H   0  0  0  0  0  0
    5.6247   10.4563   20.4617 H   0  0  0  0  0  0
    4.0886    9.8964   19.7177 H   0  0  0  0  0  0
    5.5257    8.0744   20.3733 H   0  0  0  0  0  0
    7.6031    9.4483   18.4916 H   0  0  0  0  0  0
    7.9618    9.7489   20.8055 H   0  0  0  0  0  0
    8.3240    7.1472   17.8728 H   0  0  0  0  0  0
    8.5277    6.2837   20.1305 H   0  0  0  0  0  0
    5.7026    5.9748   18.0435 H   0  0  0  0  0  0
    4.9753    8.9686   15.9757 H   0  0  0  0  0  0
    6.7485    7.5756   11.7439 H   0  0  0  0  0  0
    7.8961    6.1703   11.1625 H   0  0  0  0  0  0
    8.9785    3.8065   15.0189 H   0  0  0  0  0  0
  1  2  1  0  0  0
  1 27  1  0  0  0
  1 28  1  0  0  0
  1 29  1  0  0  0
  2  3  1  0  0  0
  2  6  1  0  0  0
  2 30  1  0  0  0
  3  4  1  0  0  0
  3 31  1  0  0  0
  3 32  1  0  0  0
  4  5  1  0  0  0
  4 33  1  0  0  0
  4 34  1  0  0  0
  5  9  1  0  0  0
  6  7  2  0  0  0
  6  8  1  0  0  0
  9 10  1  0  0  0
  9 35  1  0  0  0
  9 36  1  0  0  0
 10 11  1  0  0  0
 10 12  1  0  0  0
 10 37  1  0  0  0
 11 16  1  0  0  0
 12 13  1  0  0  0
 12 14  1  0  0  0
 12 38  1  0  0  0
 13 39  1  0  0  0
 14 15  1  0  0  0
 14 16  1  0  0  0
 14 40  1  0  0  0
 15 41  1  0  0  0
 16 17  1  0  0  0
 16 42  1  0  0  0
 17 18  1  0  0  0
 17 26  1  0  0  0
 18 19  2  0  0  0
 18 43  1  0  0  0
 19 20  1  0  0  0
 20 21  2  0  0  0
 20 26  1  0  0  0
 21 22  1  0  0  0
 21 23  1  0  0  0
 22 44  1  0  0  0
 22 45  1  0  0  0
 23 24  2  0  0  0
 24 25  1  0  0  0
 24 46  1  0  0  0
 25 26  2  0  0  0
M  CHG  2   1   1   8  -1
M  END
> <s_m_source_file>
../4jal_ligand.sdf

> <i_m_source_file_index>
1

> <s_epik_input>
Tz1DKFtPSF0pW0NAQEhdKFtOSDMrXSlbQ0gyXVtDSDJdU1tDSDJdW0NASF0xT1tDQEhdKFtDQEhdKFtPSF0pW0NAQEhdMVtPSF0pbihbY0hdbjIpYyhjMjMpbltjSF1uYzNbTkgyXQ==

> <s_epik_cmdline>
J2VwaWtfYXBwJywgJy1pbWFlJywgJ2xpZ2FuZF9wcm8ubWFlJywgJy1vbWFlJywgJ2xpZ2FuZF9wcmVwLm1hZScsICctbXMnLCAnMScsICctcGgnLCAnNycsICctcGh0JywgJzAuNScsICctbnQn

> <r_lp_tautomer_probability>
1

> <r_epik_Ionization_Penalty>
  0.0026

> <r_epik_Ionization_Penalty_Charging>
  0.0022

> <r_epik_Ionization_Penalty_Neutral>
  0.0004

> <r_epik_State_Penalty>
 -0.0000

> <r_epik_Charging_Adjusted_Penalty>
0.00216156469931729

> <i_epik_Tot_Q>
0

> <i_epik_Tot_abs_Q>
2

> <s_epik_Chemistry_Notes>
This compound contains an acetal/aminal-like group ( X-CH(R)-Y where X, Y are N, S, or O) that may be acid/base labile, releasing an aldehyde.

$$$$
