4jaz_ligand
                    3D
 Schrodinger Suite 2020-3.
 29 30  0  0  1  0            999 V2000
   15.8670   19.4060    9.8370 C   0  0  0  0  0  0
   14.4270   19.4980    9.8600 C   0  0  0  0  0  0
   13.8340   20.7400    9.4010 C   0  0  0  0  0  0
   14.6700   21.8450    8.9410 C   0  0  0  0  0  0
   16.1150   21.7000    8.9210 C   0  0  0  0  0  0
   16.7160   20.4740    9.3740 C   0  0  0  0  0  0
   17.0230   22.7370    8.4410 C   0  0  0  0  0  0
   16.5370   23.9320    7.8390 C   0  0  0  0  0  0
   17.3800   24.9920    7.3160 C   0  0  0  0  0  0
   18.8390   24.9170    7.3580 C   0  0  0  0  0  0
   19.6290   26.0230    6.8040 C   0  0  0  0  0  0
   18.9470   27.1540    6.2310 C   0  0  0  0  0  0
   17.4920   27.2470    6.1790 C   0  0  0  0  0  0
   16.7420   26.1330    6.7380 C   0  0  0  0  0  0
   19.6270   28.2120    5.6990 O   0  0  0  0  0  0
   12.4710   20.5070    9.4390 O   0  0  0  0  0  0
   16.3430   18.2240   10.2830 O   0  0  0  0  0  0
   13.8106   18.6690   10.2077 H   0  0  0  0  0  0
   14.2104   22.7774    8.6131 H   0  0  0  0  0  0
   17.7994   20.3546    9.3670 H   0  0  0  0  0  0
   18.1057   22.5787    8.5532 H   0  0  0  0  0  0
   15.4539   24.0997    7.7457 H   0  0  0  0  0  0
   19.3344   24.0502    7.7954 H   0  0  0  0  0  0
   20.7182   25.9885    6.8261 H   0  0  0  0  0  0
   16.9906   28.1105    5.7419 H   0  0  0  0  0  0
   15.6529   26.1697    6.7152 H   0  0  0  0  0  0
   20.7270   28.2158    5.7009 H   0  0  0  0  0  0
   12.0858   19.5617    9.8489 H   0  0  0  0  0  0
   15.6464   17.4442   10.6247 H   0  0  0  0  0  0
  1  2  2  0  0  0
  1  6  1  0  0  0
  1 17  1  0  0  0
  2  3  1  0  0  0
  2 18  1  0  0  0
  3  4  2  0  0  0
  3 16  1  0  0  0
  4  5  1  0  0  0
  4 19  1  0  0  0
  5  6  2  0  0  0
  5  7  1  0  0  0
  6 20  1  0  0  0
  7  8  2  0  0  0
  7 21  1  0  0  0
  8  9  1  0  0  0
  8 22  1  0  0  0
  9 10  2  0  0  0
  9 14  1  0  0  0
 10 11  1  0  0  0
 10 23  1  0  0  0
 11 12  2  0  0  0
 11 24  1  0  0  0
 12 13  1  0  0  0
 12 15  1  0  0  0
 13 14  2  0  0  0
 13 25  1  0  0  0
 14 26  1  0  0  0
 15 27  1  0  0  0
 16 28  1  0  0  0
 17 29  1  0  0  0
M  END
> <s_m_source_file>
../4jaz_ligand.sdf

> <i_m_source_file_index>
1

> <s_epik_input>
W09IXWMxW2NIXWMoW09IXSlbY0hdYyhbY0hdMSkvW0NIXT1bQ0hdL2MyW2NIXVtjSF1jKFtPSF0pW2NIXVtjSF0y

> <s_epik_cmdline>
J2VwaWtfYXBwJywgJy1pbWFlJywgJ2xpZ2FuZF9wcm8ubWFlJywgJy1vbWFlJywgJ2xpZ2FuZF9wcmVwLm1hZScsICctbXMnLCAnMScsICctcGgnLCAnNycsICctcGh0JywgJzAuNScsICctbnQn

> <r_lp_tautomer_probability>
1

> <r_epik_Ionization_Penalty>
  0.0064

> <r_epik_Ionization_Penalty_Charging>
  0.0000

> <r_epik_Ionization_Penalty_Neutral>
  0.0064

> <r_epik_State_Penalty>
 -0.0000

> <r_epik_Charging_Adjusted_Penalty>
0

> <i_epik_Tot_Q>
0

> <i_epik_Tot_abs_Q>
0

$$$$
