4jbl_ligand
                    3D
 Schrodinger Suite 2020-3.
 20 19  0  0  1  0            999 V2000
  -15.1820   26.3450    0.8650 N   0  3  0  0  0  0
  -15.4060   25.2420    1.8980 C   0  0  2  0  0  0
  -14.1190   24.4750    2.1820 C   0  0  0  0  0  0
  -14.0860   23.2800    2.4460 O   0  0  0  0  0  0
  -16.5440   24.3850    1.4270 C   0  0  0  0  0  0
  -17.7540   25.2960    1.2140 C   0  0  0  0  0  0
  -19.0500   24.5040    0.2350 S   0  0  0  0  0  0
  -18.4210   24.5600   -1.4790 C   0  0  0  0  0  0
  -13.0380   25.0760    2.1260 O   0  5  0  0  0  0
  -14.3503   26.9877    1.1894 H   0  0  0  0  0  0
  -16.0964   26.9489    0.7693 H   0  0  0  0  0  0
  -14.9380   25.8925   -0.1075 H   0  0  0  0  0  0
  -15.7037   25.6579    2.8719 H   0  0  0  0  0  0
  -16.2656   23.8916    0.4841 H   0  0  0  0  0  0
  -16.7681   23.6225    2.1876 H   0  0  0  0  0  0
  -18.1840   25.5684    2.1891 H   0  0  0  0  0  0
  -17.4383   26.2073    0.6850 H   0  0  0  0  0  0
  -19.1539   24.0939   -2.1539 H   0  0  0  0  0  0
  -17.4685   24.0130   -1.5380 H   0  0  0  0  0  0
  -18.2618   25.6068   -1.7771 H   0  0  0  0  0  0
  1  2  1  0  0  0
  1 10  1  0  0  0
  1 11  1  0  0  0
  1 12  1  0  0  0
  2  3  1  0  0  0
  2  5  1  0  0  0
  2 13  1  0  0  0
  3  4  2  0  0  0
  3  9  1  0  0  0
  5  6  1  0  0  0
  5 14  1  0  0  0
  5 15  1  0  0  0
  6  7  1  0  0  0
  6 16  1  0  0  0
  6 17  1  0  0  0
  7  8  1  0  0  0
  8 18  1  0  0  0
  8 19  1  0  0  0
  8 20  1  0  0  0
M  CHG  2   1   1   9  -1
M  END
> <s_m_source_file>
../4jbl_ligand.sdf

> <i_m_source_file_index>
1

> <s_epik_input>
Tz1DKFtPSF0pW0NAQEhdKFtOSDMrXSlbQ0gyXVtDSDJdU1tDSDNd

> <s_epik_cmdline>
J2VwaWtfYXBwJywgJy1pbWFlJywgJ2xpZ2FuZF9wcm8ubWFlJywgJy1vbWFlJywgJ2xpZ2FuZF9wcmVwLm1hZScsICctbXMnLCAnMScsICctcGgnLCAnNycsICctcGh0JywgJzAuNScsICctbnQn

> <r_lp_tautomer_probability>
1

> <r_epik_Ionization_Penalty>
  0.0022

> <r_epik_Ionization_Penalty_Charging>
  0.0022

> <r_epik_Ionization_Penalty_Neutral>
  0.0000

> <r_epik_State_Penalty>
 -0.0000

> <r_epik_Charging_Adjusted_Penalty>
0.00220828419267234

> <i_epik_Tot_Q>
0

> <i_epik_Tot_abs_Q>
2

$$$$
