4jbo_ligand
                    3D
 Schrodinger Suite 2020-3.
 73 77  0  0  1  0            999 V2000
   -0.3580  -37.7430   -0.2280 C   0  0  0  0  0  0
   -0.8140  -37.4240    1.1390 N   0  3  0  0  0  0
   -1.8140  -38.4010    1.6240 C   0  0  0  0  0  0
    0.3440  -37.3860    2.0540 C   0  0  0  0  0  0
    0.0170  -36.4670    3.2330 C   0  0  0  0  0  0
   -0.6120  -35.2720    2.7170 O   0  0  0  0  0  0
   -1.2470  -34.4650    3.6170 C   0  0  0  0  0  0
   -1.0630  -34.6130    4.9890 C   0  0  0  0  0  0
   -1.7230  -33.7600    5.8700 C   0  0  0  0  0  0
   -2.0910  -33.4580    3.1430 C   0  0  0  0  0  0
   -2.7570  -32.6020    4.0250 C   0  0  0  0  0  0
   -2.5690  -32.7480    5.4030 C   0  0  0  0  0  0
   -3.2200  -31.9410    6.3390 C   0  0  0  0  0  0
   -2.9480  -32.1060    7.6650 O   0  0  0  0  0  0
   -4.1580  -30.9880    6.1990 C   0  0  0  0  0  0
   -4.4770  -30.5270    7.4180 C   0  0  0  0  0  0
   -3.7150  -31.2300    8.3490 C   0  0  0  0  0  0
   -3.8280  -30.9780    9.6600 N   0  0  0  0  0  0
   -4.6730  -30.0520   10.0850 C   0  0  0  0  0  0
   -5.4180  -29.3560    9.2400 N   0  0  0  0  0  0
   -5.3570  -29.5580    7.9120 C   0  0  0  0  0  0
   -6.1470  -28.8320    7.1210 N   0  0  0  0  0  0
   -6.9990  -27.7540    7.6680 C   0  0  0  0  0  0
   -8.4130  -28.2390    8.0190 C   0  0  0  0  0  0
   -9.2530  -27.0500    8.5060 C   0  0  0  0  0  0
  -10.2150  -26.4720    7.6810 C   0  0  0  0  0  0
  -10.9610  -25.3800    8.1220 C   0  0  0  0  0  0
   -9.0390  -26.5220    9.7760 C   0  0  0  0  0  0
   -9.7860  -25.4350   10.2220 C   0  0  0  0  0  0
  -10.7390  -24.8430    9.3950 C   0  0  0  0  0  0
  -11.4570  -23.8120    9.8750 N   0  0  0  0  0  0
  -11.7590  -22.6860    9.2090 C   0  0  0  0  0  0
  -11.3650  -22.4670    8.0640 O   0  0  0  0  0  0
  -12.5210  -21.8190    9.8960 N   0  0  0  0  0  0
  -12.9760  -20.6320    9.4570 C   0  0  0  0  0  0
  -13.6420  -19.8140   10.3710 C   0  0  0  0  0  0
  -14.1560  -18.5760    9.9960 C   0  0  0  0  0  0
  -14.0110  -18.1450    8.6830 C   0  0  0  0  0  0
  -13.3570  -18.9530    7.7570 C   0  0  0  0  0  0
  -12.8450  -20.1930    8.1390 C   0  0  0  0  0  0
   -1.2236  -37.7703   -0.9062 H   0  0  0  0  0  0
    0.1397  -38.7240   -0.2289 H   0  0  0  0  0  0
    0.3498  -36.9724   -0.5676 H   0  0  0  0  0  0
   -1.2963  -36.4357    1.1131 H   0  0  0  0  0  0
   -2.6714  -38.4207    0.9352 H   0  0  0  0  0  0
   -2.1564  -38.1078    2.6274 H   0  0  0  0  0  0
   -1.3575  -39.4007    1.6700 H   0  0  0  0  0  0
    0.5540  -38.4011    2.4220 H   0  0  0  0  0  0
    1.2235  -37.0015    1.5167 H   0  0  0  0  0  0
   -0.6658  -36.9845    3.9229 H   0  0  0  0  0  0
    0.9450  -36.2058    3.7627 H   0  0  0  0  0  0
   -0.4052  -35.3932    5.3720 H   0  0  0  0  0  0
   -1.5779  -33.8830    6.9433 H   0  0  0  0  0  0
   -2.2325  -33.3378    2.0689 H   0  0  0  0  0  0
   -3.4187  -31.8256    3.6410 H   0  0  0  0  0  0
   -4.5862  -30.6479    5.2561 H   0  0  0  0  0  0
   -4.7575  -29.8581   11.1543 H   0  0  0  0  0  0
   -6.1574  -29.0475    6.0424 H   0  0  0  0  0  0
   -6.5416  -27.3550    8.5854 H   0  0  0  0  0  0
   -7.0932  -26.9484    6.9250 H   0  0  0  0  0  0
   -8.8817  -28.6791    7.1265 H   0  0  0  0  0  0
   -8.3539  -28.9972    8.8137 H   0  0  0  0  0  0
  -10.3858  -26.8764    6.6833 H   0  0  0  0  0  0
  -11.7198  -24.9430    7.4730 H   0  0  0  0  0  0
   -8.2821  -26.9621   10.4252 H   0  0  0  0  0  0
   -9.6242  -25.0437   11.2264 H   0  0  0  0  0  0
  -11.8539  -23.8483   10.9003 H   0  0  0  0  0  0
  -12.8318  -22.0550   10.9244 H   0  0  0  0  0  0
  -13.7622  -20.1518   11.4003 H   0  0  0  0  0  0
  -14.6681  -17.9497   10.7264 H   0  0  0  0  0  0
  -14.4083  -17.1767    8.3788 H   0  0  0  0  0  0
  -13.2443  -18.6145    6.7270 H   0  0  0  0  0  0
  -12.3406  -20.8215    7.4051 H   0  0  0  0  0  0
  1  2  1  0  0  0
  1 41  1  0  0  0
  1 42  1  0  0  0
  1 43  1  0  0  0
  2  3  1  0  0  0
  2  4  1  0  0  0
  2 44  1  0  0  0
  3 45  1  0  0  0
  3 46  1  0  0  0
  3 47  1  0  0  0
  4  5  1  0  0  0
  4 48  1  0  0  0
  4 49  1  0  0  0
  5  6  1  0  0  0
  5 50  1  0  0  0
  5 51  1  0  0  0
  6  7  1  0  0  0
  7  8  2  0  0  0
  7 10  1  0  0  0
  8  9  1  0  0  0
  8 52  1  0  0  0
  9 12  2  0  0  0
  9 53  1  0  0  0
 10 11  2  0  0  0
 10 54  1  0  0  0
 11 12  1  0  0  0
 11 55  1  0  0  0
 12 13  1  0  0  0
 13 14  1  0  0  0
 13 15  2  0  0  0
 14 17  1  0  0  0
 15 16  1  0  0  0
 15 56  1  0  0  0
 16 17  2  0  0  0
 16 21  1  0  0  0
 17 18  1  0  0  0
 18 19  2  0  0  0
 19 20  1  0  0  0
 19 57  1  0  0  0
 20 21  2  0  0  0
 21 22  1  0  0  0
 22 23  1  0  0  0
 22 58  1  0  0  0
 23 24  1  0  0  0
 23 59  1  0  0  0
 23 60  1  0  0  0
 24 25  1  0  0  0
 24 61  1  0  0  0
 24 62  1  0  0  0
 25 26  2  0  0  0
 25 28  1  0  0  0
 26 27  1  0  0  0
 26 63  1  0  0  0
 27 30  2  0  0  0
 27 64  1  0  0  0
 28 29  2  0  0  0
 28 65  1  0  0  0
 29 30  1  0  0  0
 29 66  1  0  0  0
 30 31  1  0  0  0
 31 32  1  0  0  0
 31 67  1  0  0  0
 32 33  2  0  0  0
 32 34  1  0  0  0
 34 35  1  0  0  0
 34 68  1  0  0  0
 35 36  2  0  0  0
 35 40  1  0  0  0
 36 37  1  0  0  0
 36 69  1  0  0  0
 37 38  2  0  0  0
 37 70  1  0  0  0
 38 39  1  0  0  0
 38 71  1  0  0  0
 39 40  2  0  0  0
 39 72  1  0  0  0
 40 73  1  0  0  0
M  CHG  1   2   1
M  END
> <s_m_source_file>
../4jbo_ligand.sdf

> <i_m_source_file_index>
1

> <s_epik_input>
W0NIM11bTkgrXShbQ0gzXSlbQ0gyXVtDSDJdT2MxW2NIXVtjSF1jKFtjSF1bY0hdMSktYyhbY0hdMilvYyhjMjMpbltjSF1uYzNbTkhdW0NIMl1bQ0gyXWM0W2NIXVtjSF1jKFtjSF1bY0hdNClbTkhdQyg9TylbTkhdYzVbY0hdW2NIXVtjSF1bY0hdW2NIXTU=

> <s_epik_cmdline>
J2VwaWtfYXBwJywgJy1pbWFlJywgJ2xpZ2FuZF9wcm8ubWFlJywgJy1vbWFlJywgJ2xpZ2FuZF9wcmVwLm1hZScsICctbXMnLCAnMScsICctcGgnLCAnNycsICctcGh0JywgJzAuNScsICctbnQn

> <r_lp_tautomer_probability>
1

> <r_epik_Ionization_Penalty>
  0.0248

> <r_epik_Ionization_Penalty_Charging>
  0.0248

> <r_epik_Ionization_Penalty_Neutral>
  0.0000

> <r_epik_State_Penalty>
  0.0202

> <r_epik_Charging_Adjusted_Penalty>
0.0449633694247609

> <i_epik_Tot_Q>
1

> <i_epik_Tot_abs_Q>
1

$$$$
