4jbp_ligand
                    3D
 Schrodinger Suite 2020-3.
 81 86  0  0  1  0            999 V2000
    1.5620   38.5130    2.2140 C   0  0  0  0  0  0
    2.7080   38.8140    1.2540 C   0  0  0  0  0  0
    2.2220   39.5470   -0.0120 C   0  0  1  0  0  0
    3.2860   39.6140   -0.9720 O   0  0  0  0  0  0
    1.0180   38.8170   -0.6280 C   0  0  0  0  0  0
   -0.0520   38.5450    0.4350 C   0  0  0  0  0  0
    0.5300   37.7310    1.5160 N   0  3  2  0  0  0
   -0.5220   37.3180    2.4510 C   0  0  0  0  0  0
    0.0520   36.3780    3.5020 C   0  0  0  0  0  0
    0.8320   35.3130    2.8700 O   0  0  0  0  0  0
    1.4900   34.5080    3.7430 C   0  0  0  0  0  0
    2.3320   33.5130    3.2510 C   0  0  0  0  0  0
    3.0100   32.6740    4.1330 C   0  0  0  0  0  0
    1.3180   34.6620    5.1200 C   0  0  0  0  0  0
    2.0080   33.8320    5.9950 C   0  0  0  0  0  0
    2.8490   32.8260    5.5140 C   0  0  0  0  0  0
    3.5070   32.0080    6.4380 C   0  0  0  0  0  0
    3.2800   32.2240    7.7600 O   0  0  0  0  0  0
    4.3990   31.0020    6.2970 C   0  0  0  0  0  0
    4.7320   30.5710    7.5300 C   0  0  0  0  0  0
    4.0220   31.3440    8.4570 C   0  0  0  0  0  0
    4.1360   31.1470    9.7720 N   0  0  0  0  0  0
    4.9400   30.1920   10.2170 C   0  0  0  0  0  0
    5.6390   29.4330    9.3820 N   0  0  0  0  0  0
    5.5790   29.5860    8.0440 C   0  0  0  0  0  0
    6.3330   28.7870    7.2760 N   0  0  0  0  0  0
    7.1850   27.7220    7.8720 C   0  0  0  0  0  0
    8.5440   28.2650    8.3840 C   0  0  0  0  0  0
    9.4290   27.1050    8.8600 C   0  0  0  0  0  0
    9.2820   26.6070   10.1490 C   0  0  0  0  0  0
   10.0590   25.5510   10.6120 C   0  0  0  0  0  0
   10.3720   26.5270    8.0180 C   0  0  0  0  0  0
   11.1420   25.4590    8.4760 C   0  0  0  0  0  0
   10.9880   24.9550    9.7740 C   0  0  0  0  0  0
   11.7440   23.9450   10.2470 N   0  0  0  0  0  0
   11.9340   22.7720    9.6150 C   0  0  0  0  0  0
   11.3930   22.5110    8.5460 O   0  0  0  0  0  0
   12.7550   21.9000   10.2220 N   0  0  0  0  0  0
   13.0860   20.6890    9.7520 C   0  0  0  0  0  0
   14.0170   19.9400   10.4750 C   0  0  0  0  0  0
   14.4170   18.6750   10.0450 C   0  0  0  0  0  0
   13.8870   18.1470    8.8710 C   0  0  0  0  0  0
   12.9570   18.8880    8.1420 C   0  0  0  0  0  0
   12.5600   20.1540    8.5780 C   0  0  0  0  0  0
    1.9426   37.9364    3.0699 H   0  0  0  0  0  0
    1.1265   39.4573    2.5726 H   0  0  0  0  0  0
    3.4498   39.4517    1.7571 H   0  0  0  0  0  0
    3.1841   37.8719    0.9444 H   0  0  0  0  0  0
    1.9633   40.5907    0.2198 H   0  0  0  0  0  0
    4.2348   40.1041   -0.7082 H   0  0  0  0  0  0
    0.5798   39.4385   -1.4228 H   0  0  0  0  0  0
    1.3489   37.8579   -1.0530 H   0  0  0  0  0  0
   -0.4113   39.4999    0.8462 H   0  0  0  0  0  0
   -0.8931   38.0028   -0.0217 H   0  0  0  0  0  0
    0.9906   36.8258    1.0936 H   0  0  0  0  0  0
   -0.9387   38.2057    2.9495 H   0  0  0  0  0  0
   -1.3197   36.7989    1.8994 H   0  0  0  0  0  0
    0.7065   36.9436    4.1815 H   0  0  0  0  0  0
   -0.7694   35.9250    4.0766 H   0  0  0  0  0  0
    2.4604   33.3908    2.1755 H   0  0  0  0  0  0
    3.6682   31.8964    3.7453 H   0  0  0  0  0  0
    0.6465   35.4288    5.5063 H   0  0  0  0  0  0
    1.8915   33.9677    7.0702 H   0  0  0  0  0  0
    4.7808   30.6095    5.3545 H   0  0  0  0  0  0
    5.0291   30.0264   11.2907 H   0  0  0  0  0  0
    6.3139   28.9301    6.1855 H   0  0  0  0  0  0
    6.6598   27.2665    8.7245 H   0  0  0  0  0  0
    7.3921   26.9515    7.1148 H   0  0  0  0  0  0
    9.0556   28.7992    7.5698 H   0  0  0  0  0  0
    8.3706   28.9549    9.2230 H   0  0  0  0  0  0
    8.5411   27.0541   10.8118 H   0  0  0  0  0  0
    9.9374   25.1920   11.6340 H   0  0  0  0  0  0
   10.5086   26.9067    7.0054 H   0  0  0  0  0  0
   11.8783   25.0073    7.8112 H   0  0  0  0  0  0
   12.2578   24.0488   11.2141 H   0  0  0  0  0  0
   13.2166   22.1589   11.1863 H   0  0  0  0  0  0
   14.4387   20.3516   11.3920 H   0  0  0  0  0  0
   15.1409   18.1027   10.6252 H   0  0  0  0  0  0
   14.1967   17.1613    8.5239 H   0  0  0  0  0  0
   12.5367   18.4757    7.2247 H   0  0  0  0  0  0
   11.8359   20.7257    7.9976 H   0  0  0  0  0  0
  1  2  1  0  0  0
  1  7  1  0  0  0
  1 45  1  0  0  0
  1 46  1  0  0  0
  2  3  1  0  0  0
  2 47  1  0  0  0
  2 48  1  0  0  0
  3  4  1  0  0  0
  3  5  1  0  0  0
  3 49  1  0  0  0
  4 50  1  0  0  0
  5  6  1  0  0  0
  5 51  1  0  0  0
  5 52  1  0  0  0
  6  7  1  0  0  0
  6 53  1  0  0  0
  6 54  1  0  0  0
  7  8  1  0  0  0
  7 55  1  0  0  0
  8  9  1  0  0  0
  8 56  1  0  0  0
  8 57  1  0  0  0
  9 10  1  0  0  0
  9 58  1  0  0  0
  9 59  1  0  0  0
 10 11  1  0  0  0
 11 12  2  0  0  0
 11 14  1  0  0  0
 12 13  1  0  0  0
 12 60  1  0  0  0
 13 16  2  0  0  0
 13 61  1  0  0  0
 14 15  2  0  0  0
 14 62  1  0  0  0
 15 16  1  0  0  0
 15 63  1  0  0  0
 16 17  1  0  0  0
 17 18  1  0  0  0
 17 19  2  0  0  0
 18 21  1  0  0  0
 19 20  1  0  0  0
 19 64  1  0  0  0
 20 21  2  0  0  0
 20 25  1  0  0  0
 21 22  1  0  0  0
 22 23  2  0  0  0
 23 24  1  0  0  0
 23 65  1  0  0  0
 24 25  2  0  0  0
 25 26  1  0  0  0
 26 27  1  0  0  0
 26 66  1  0  0  0
 27 28  1  0  0  0
 27 67  1  0  0  0
 27 68  1  0  0  0
 28 29  1  0  0  0
 28 69  1  0  0  0
 28 70  1  0  0  0
 29 30  2  0  0  0
 29 32  1  0  0  0
 30 31  1  0  0  0
 30 71  1  0  0  0
 31 34  2  0  0  0
 31 72  1  0  0  0
 32 33  2  0  0  0
 32 73  1  0  0  0
 33 34  1  0  0  0
 33 74  1  0  0  0
 34 35  1  0  0  0
 35 36  1  0  0  0
 35 75  1  0  0  0
 36 37  2  0  0  0
 36 38  1  0  0  0
 38 39  1  0  0  0
 38 76  1  0  0  0
 39 40  2  0  0  0
 39 44  1  0  0  0
 40 41  1  0  0  0
 40 77  1  0  0  0
 41 42  2  0  0  0
 41 78  1  0  0  0
 42 43  1  0  0  0
 42 79  1  0  0  0
 43 44  2  0  0  0
 43 80  1  0  0  0
 44 81  1  0  0  0
M  CHG  1   7   1
M  END
> <s_m_source_file>
../4jbp_ligand.sdf

> <i_m_source_file_index>
1

> <s_epik_input>
W09IXVtDQEBIXTFbQ0gyXVtDSDJdW05ASCtdKFtDSDJdW0NIMl0xKVtDSDJdW0NIMl1PYzJbY0hdW2NIXWMoW2NIXVtjSF0yKS1jKFtjSF0zKW9jKGMzNCluW2NIXW5jNFtOSF1bQ0gyXVtDSDJdYzVbY0hdW2NIXWMoW2NIXVtjSF01KVtOSF1DKD1PKVtOSF1jNltjSF1bY0hdW2NIXVtjSF1bY0hdNg==

> <s_epik_cmdline>
J2VwaWtfYXBwJywgJy1pbWFlJywgJ2xpZ2FuZF9wcm8ubWFlJywgJy1vbWFlJywgJ2xpZ2FuZF9wcmVwLm1hZScsICctbXMnLCAnMScsICctcGgnLCAnNycsICctcGh0JywgJzAuNScsICctbnQn

> <r_lp_tautomer_probability>
1

> <r_epik_Ionization_Penalty>
  0.0458

> <r_epik_Ionization_Penalty_Charging>
  0.0458

> <r_epik_Ionization_Penalty_Neutral>
  0.0000

> <r_epik_State_Penalty>
  0.0389

> <r_epik_Charging_Adjusted_Penalty>
0.0846207225870838

> <i_epik_Tot_Q>
1

> <i_epik_Tot_abs_Q>
1

$$$$
