4jbs_ligand
                    3D
 Schrodinger Suite 2020-3.
 72 74  0  0  1  0            999 V2000
   20.5360    5.5820    0.7930 O   0  0  0  0  0  0
   20.1780    3.2700    0.2710 O   0  5  0  0  0  0
   16.8340    3.4090    3.0480 C   0  0  0  0  0  0
   15.8140    2.2780    3.0250 C   0  0  0  0  0  0
   14.4530    2.4320    2.8050 C   0  0  0  0  0  0
   13.6460    1.2870    2.7930 C   0  0  0  0  0  0
   14.1200    0.0270    2.9840 C   0  0  0  0  0  0
   15.4950   -0.1410    3.2040 C   0  0  0  0  0  0
   17.6300    5.1390    0.5840 N   0  3  0  0  0  0
   16.3150    0.9970    3.2190 C   0  0  0  0  0  0
   17.6830    3.3060    1.7870 C   0  0  0  0  0  0
   19.5300    1.0650    2.3080 O   0  0  0  0  0  0
   18.2340    4.5180    1.5380 C   0  0  1  0  0  0
   20.5060    1.3720    2.9700 C   0  0  0  0  0  0
   20.6630    3.9370    2.6540 C   0  0  0  0  0  0
   21.3810    2.5530    2.5660 C   0  0  1  0  0  0
   20.6530    0.7810    4.2640 N   0  0  0  0  0  0
   22.6460    2.6050    3.4800 C   0  0  0  0  0  0
   23.9490    2.1440    2.8080 C   0  0  0  0  0  0
   24.9390    3.3000    2.6390 C   0  0  0  0  0  0
   23.5850    1.5330    1.4510 C   0  0  0  0  0  0
   21.0760   -0.3830    5.0410 C   0  0  2  0  0  0
   18.8140   -2.0220    1.4600 N   0  0  0  0  0  0
   19.9710    4.3240    1.2620 P   0  0  2  0  0  0
   22.4550   -0.8760    4.6060 C   0  0  0  0  0  0
   20.0550   -1.5140    4.9130 C   0  0  0  0  0  0
   19.7780   -1.8930    3.4870 C   0  0  3  0  0  0
   18.7280   -1.4770    2.7220 C   0  0  0  0  0  0
   20.5720   -2.7490    2.6480 C   0  0  0  0  0  0
   19.9360   -2.8080    1.3900 C   0  0  0  0  0  0
   21.7540   -3.4770    2.8410 C   0  0  0  0  0  0
   20.4450   -3.5650    0.3260 C   0  0  0  0  0  0
   22.2550   -4.2280    1.7780 C   0  0  0  0  0  0
   21.6000   -4.2630    0.5420 C   0  0  0  0  0  0
   22.8200   -0.7700    3.4380 O   0  0  0  0  0  0
   23.2750   -1.6050    5.5220 N   0  0  0  0  0  0
   16.3093    4.3755    3.0739 H   0  0  0  0  0  0
   17.4686    3.3123    3.9413 H   0  0  0  0  0  0
   14.0218    3.4203    2.6453 H   0  0  0  0  0  0
   12.5771    1.4134    2.6207 H   0  0  0  0  0  0
   13.4482   -0.8312    2.9666 H   0  0  0  0  0  0
   15.9170   -1.1338    3.3599 H   0  0  0  0  0  0
   16.5592    5.2231    0.8214 H   0  0  0  0  0  0
   17.7546    4.5791   -0.3546 H   0  0  0  0  0  0
   18.0606    6.1449    0.4709 H   0  0  0  0  0  0
   17.3843    0.8715    3.3891 H   0  0  0  0  0  0
   18.4752    2.5580    1.9385 H   0  0  0  0  0  0
   17.0484    3.0019    0.9415 H   0  0  0  0  0  0
   17.7717    5.1416    2.3173 H   0  0  0  0  0  0
   19.8862    3.8982    3.4318 H   0  0  0  0  0  0
   21.3974    4.7156    2.9078 H   0  0  0  0  0  0
   21.6271    2.3617    1.5111 H   0  0  0  0  0  0
   20.2481    1.6664    4.7759 H   0  0  0  0  0  0
   22.8127    3.6388    3.8168 H   0  0  0  0  0  0
   22.4939    1.9546    4.3540 H   0  0  0  0  0  0
   24.4511    1.3979    3.4414 H   0  0  0  0  0  0
   25.1836    3.7204    3.6256 H   0  0  0  0  0  0
   24.4870    4.0807    2.0096 H   0  0  0  0  0  0
   25.8574    2.9292    2.1604 H   0  0  0  0  0  0
   22.8743    0.7067    1.5997 H   0  0  0  0  0  0
   24.4949    1.1511    0.9650 H   0  0  0  0  0  0
   23.1245    2.3026    0.8141 H   0  0  0  0  0  0
   21.1264   -0.0262    6.0803 H   0  0  0  0  0  0
   20.4322   -2.4087    5.4300 H   0  0  0  0  0  0
   19.1031   -1.2019    5.3674 H   0  0  0  0  0  0
   17.8905   -0.8112    2.9777 H   0  0  0  0  0  0
   22.2703   -3.4567    3.8008 H   0  0  0  0  0  0
   19.9382   -3.5959   -0.6385 H   0  0  0  0  0  0
   23.1740   -4.7984    1.9125 H   0  0  0  0  0  0
   22.0205   -4.8605   -0.2669 H   0  0  0  0  0  0
   22.9658   -1.7114    6.5723 H   0  0  0  0  0  0
   24.2153   -2.0596    5.1767 H   0  0  0  0  0  0
  1 24  2  0  0  0
  2 24  1  0  0  0
  3  4  1  0  0  0
  3 11  1  0  0  0
  3 37  1  0  0  0
  3 38  1  0  0  0
  4  5  2  0  0  0
  4 10  1  0  0  0
  5  6  1  0  0  0
  5 39  1  0  0  0
  6  7  2  0  0  0
  6 40  1  0  0  0
  7  8  1  0  0  0
  7 41  1  0  0  0
  8 10  2  0  0  0
  8 42  1  0  0  0
  9 13  1  0  0  0
  9 43  1  0  0  0
  9 44  1  0  0  0
  9 45  1  0  0  0
 10 46  1  0  0  0
 11 13  1  0  0  0
 11 47  1  0  0  0
 11 48  1  0  0  0
 12 14  2  0  0  0
 13 24  1  0  0  0
 13 49  1  0  0  0
 14 16  1  0  0  0
 14 17  1  0  0  0
 15 16  1  0  0  0
 15 24  1  0  0  0
 15 50  1  0  0  0
 15 51  1  0  0  0
 16 18  1  0  0  0
 16 52  1  0  0  0
 17 22  1  0  0  0
 17 53  1  0  0  0
 18 19  1  0  0  0
 18 54  1  0  0  0
 18 55  1  0  0  0
 19 20  1  0  0  0
 19 21  1  0  0  0
 19 56  1  0  0  0
 20 57  1  0  0  0
 20 58  1  0  0  0
 20 59  1  0  0  0
 21 60  1  0  0  0
 21 61  1  0  0  0
 21 62  1  0  0  0
 22 25  1  0  0  0
 22 26  1  0  0  0
 22 63  1  0  0  0
 23 28  2  0  0  0
 23 30  1  0  0  0
 25 35  2  0  0  0
 25 36  1  0  0  0
 26 27  1  0  0  0
 26 64  1  0  0  0
 26 65  1  0  0  0
 27 28  1  0  0  0
 27 29  1  0  0  0
 28 66  1  0  0  0
 29 30  2  0  0  0
 29 31  1  0  0  0
 30 32  1  0  0  0
 31 33  2  0  0  0
 31 67  1  0  0  0
 32 34  2  0  0  0
 32 68  1  0  0  0
 33 34  1  0  0  0
 33 69  1  0  0  0
 34 70  1  0  0  0
 36 71  1  0  0  0
 36 72  1  0  0  0
M  CHG  2   2  -1   9   1
M  END
> <s_m_source_file>
../4jbs_ligand.sdf

> <i_m_source_file_index>
1

> <s_epik_input>
W2NIXTFbY0hdW2NIXVtjSF1bY0hdYzFbQ0gyXVtDSDJdW0NASF0oW05IMytdKVtQQF0oPU8pKFtPSF0pW0NIMl1bQ0BASF0oW0NIMl1bQ0hdKFtDSDNdKVtDSDNdKUMoPU8pW05IXVtDQEhdKEMoPU8pW05IMl0pW0NIMl1bQ0hdMltDSF09TmMoYzIzKVtjSF1bY0hdW2NIXVtjSF0z

> <s_epik_cmdline>
J2VwaWtfYXBwJywgJy1pbWFlJywgJ2xpZ2FuZF9wcm8ubWFlJywgJy1vbWFlJywgJ2xpZ2FuZF9wcmVwLm1hZScsICctbXMnLCAnMScsICctcGgnLCAnNycsICctcGh0JywgJzAuNScsICctbnQn

> <r_epik_Ionization_Penalty>
  0.0148

> <r_epik_Ionization_Penalty_Charging>
  0.0006

> <r_epik_Ionization_Penalty_Neutral>
  0.0142

> <r_epik_State_Penalty>
  0.0111

> <r_epik_Charging_Adjusted_Penalty>
0.0117045087994312

> <i_epik_Tot_Q>
0

> <i_epik_Tot_abs_Q>
2

> <s_epik_Chemistry_Notes>
This compound has an imine and may undergo hydrolysis.

$$$$
