4jck_ligand
                    3D
 Schrodinger Suite 2020-3.
 45 46  0  0  1  0            999 V2000
   24.5260   39.7420   34.9920 C   0  0  1  0  0  0
   23.4560   38.7500   35.4500 C   0  0  1  0  0  0
   23.4200   38.7010   36.9750 C   0  0  0  0  0  0
   22.6330   41.4290   33.4270 O   0  0  0  0  0  0
   23.0820   40.1350   32.9860 C   0  0  1  0  0  0
   24.5050   39.8780   33.4690 C   0  0  1  0  0  0
   25.3670   40.9580   33.0570 O   0  0  0  0  0  0
   24.3050   41.0270   35.6060 O   0  0  0  0  0  0
   22.3270   37.8690   37.3830 O   0  0  0  0  0  0
   22.1530   39.1380   34.9620 O   0  0  0  0  0  0
   22.1520   39.0760   33.5400 C   0  0  1  0  0  0
   20.5170   39.4790   32.9960 S   0  0  0  0  0  0
   19.6680   37.9470   33.2890 C   0  0  2  0  0  0
   20.1540   36.9400   32.3810 O   0  0  0  0  0  0
   19.5290   35.6770   32.6390 C   0  0  2  0  0  0
   20.1860   34.6550   31.7200 C   0  0  0  0  0  0
   21.5600   34.5020   32.0840 O   0  0  0  0  0  0
   18.0290   35.7840   32.3720 C   0  0  2  0  0  0
   17.8050   36.1580   31.0170 O   0  0  0  0  0  0
   17.4300   36.8280   33.3160 C   0  0  2  0  0  0
   16.0360   36.9860   33.0520 O   0  0  0  0  0  0
   18.1540   38.1650   33.1660 C   0  0  2  0  0  0
   17.8530   38.7820   31.9030 O   0  0  0  0  0  0
   25.5198   39.4170   35.3336 H   0  0  0  0  0  0
   23.6564   37.7582   35.0186 H   0  0  0  0  0  0
   24.3664   38.2851   37.3509 H   0  0  0  0  0  0
   23.2833   39.7179   37.3714 H   0  0  0  0  0  0
   23.1822   42.3335   33.1267 H   0  0  0  0  0  0
   23.0493   40.1514   31.8866 H   0  0  0  0  0  0
   24.9122   38.9725   32.9955 H   0  0  0  0  0  0
   26.4350   40.9401   33.3197 H   0  0  0  0  0  0
   24.2879   41.1171   36.7022 H   0  0  0  0  0  0
   22.1302   37.7049   38.4527 H   0  0  0  0  0  0
   22.6049   38.0955   33.3315 H   0  0  0  0  0  0
   19.7968   37.4124   34.2417 H   0  0  0  0  0  0
   19.6887   35.4220   33.6970 H   0  0  0  0  0  0
   19.6704   33.6884   31.8186 H   0  0  0  0  0  0
   20.1187   35.0019   30.6783 H   0  0  0  0  0  0
   22.2013   33.8014   31.5291 H   0  0  0  0  0  0
   17.5267   34.8112   32.4788 H   0  0  0  0  0  0
   18.1715   35.5169   30.2017 H   0  0  0  0  0  0
   17.4845   36.4817   34.3587 H   0  0  0  0  0  0
   15.3625   36.1186   33.1154 H   0  0  0  0  0  0
   17.7827   38.8772   33.9176 H   0  0  0  0  0  0
   18.2999   39.7535   31.6451 H   0  0  0  0  0  0
  1  2  1  0  0  0
  1  6  1  0  0  0
  1  8  1  0  0  0
  1 24  1  0  0  0
  2  3  1  0  0  0
  2 10  1  0  0  0
  2 25  1  0  0  0
  3  9  1  0  0  0
  3 26  1  0  0  0
  3 27  1  0  0  0
  4  5  1  0  0  0
  4 28  1  0  0  0
  5  6  1  0  0  0
  5 11  1  0  0  0
  5 29  1  0  0  0
  6  7  1  0  0  0
  6 30  1  0  0  0
  7 31  1  0  0  0
  8 32  1  0  0  0
  9 33  1  0  0  0
 10 11  1  0  0  0
 11 12  1  0  0  0
 11 34  1  0  0  0
 12 13  1  0  0  0
 13 14  1  0  0  0
 13 22  1  0  0  0
 13 35  1  0  0  0
 14 15  1  0  0  0
 15 16  1  0  0  0
 15 18  1  0  0  0
 15 36  1  0  0  0
 16 17  1  0  0  0
 16 37  1  0  0  0
 16 38  1  0  0  0
 17 39  1  0  0  0
 18 19  1  0  0  0
 18 20  1  0  0  0
 18 40  1  0  0  0
 19 41  1  0  0  0
 20 21  1  0  0  0
 20 22  1  0  0  0
 20 42  1  0  0  0
 21 43  1  0  0  0
 22 23  1  0  0  0
 22 44  1  0  0  0
 23 45  1  0  0  0
M  END
> <s_m_source_file>
../4jck_ligand.sdf

> <i_m_source_file_index>
1

> <s_epik_input>
W09IXVtDQEhdMVtDQEBIXShbQ0gyXVtPSF0pT1tDQEhdKFtDQEBIXShbT0hdKVtDQEhdMVtPSF0pU1tDQEBIXTJPW0NASF0oW0NIMl1bT0hdKVtDQEhdKFtPSF0pW0NASF0oW09IXSlbQ0BASF0yW09IXQ==

> <s_epik_cmdline>
J2VwaWtfYXBwJywgJy1pbWFlJywgJ2xpZ2FuZF9wcm8ubWFlJywgJy1vbWFlJywgJ2xpZ2FuZF9wcmVwLm1hZScsICctbXMnLCAnMScsICctcGgnLCAnNycsICctcGh0JywgJzAuNScsICctbnQn

> <r_lp_tautomer_probability>
1

> <r_epik_Ionization_Penalty>
  0.0000

> <r_epik_Ionization_Penalty_Charging>
  0.0000

> <r_epik_Ionization_Penalty_Neutral>
  0.0000

> <r_epik_State_Penalty>
 -0.0000

> <r_epik_Charging_Adjusted_Penalty>
0

> <i_epik_Tot_Q>
0

> <i_epik_Tot_abs_Q>
0

> <s_epik_Chemistry_Notes>
This compound contains an acetal/aminal-like group ( X-CH(R)-Y where X, Y are N, S, or O) that may be acid/base labile, releasing an aldehyde.

$$$$
