4je7_ligand
                    3D
 Schrodinger Suite 2020-3.
 62 62  0  0  1  0            999 V2000
   10.6310   -7.9090  -15.4270 C   0  0  0  0  0  0
   11.1860   -9.3360  -15.2060 C   0  0  0  0  0  0
   12.0860   -9.8360  -15.9160 O   0  0  0  0  0  0
   10.6010   -9.9840  -14.2000 N   0  0  0  0  0  0
   10.9730  -11.2680  -13.8680 O   0  0  0  0  0  0
    9.5180   -7.8200  -16.5150 C   0  0  2  0  0  0
    9.3570   -6.3460  -16.9640 C   0  0  0  0  0  0
    8.9970   -5.4850  -16.1580 O   0  0  0  0  0  0
    8.1560   -8.3980  -16.0340 C   0  0  0  0  0  0
    7.1640   -8.5060  -17.2160 C   0  0  0  0  0  0
    5.9690   -9.3860  -16.8950 C   0  0  0  0  0  0
    5.2200   -9.8470  -18.1860 C   0  0  0  0  0  0
    4.7870   -8.6430  -19.0230 C   0  0  0  0  0  0
    9.6640   -6.0480  -18.2370 N   0  0  0  0  0  0
    9.5920   -4.6730  -18.7200 C   0  0  1  0  0  0
   10.2220   -4.5270  -20.1040 C   0  0  0  0  0  0
   11.3180   -5.5360  -20.4040 C   0  0  0  0  0  0
    9.1910   -4.5110  -21.2000 C   0  0  0  0  0  0
    8.1230   -4.1400  -18.6870 C   0  0  0  0  0  0
    7.2270   -4.9630  -18.9960 O   0  0  0  0  0  0
    7.8970   -2.8010  -18.3290 N   0  0  0  0  0  0
    6.5850   -2.1060  -18.2280 C   0  0  1  0  0  0
    8.9730   -1.8330  -17.9750 C   0  0  0  0  0  0
    8.3180   -0.5940  -17.3520 C   0  0  0  0  0  0
    6.8200   -0.7320  -17.5390 C   0  0  0  0  0  0
    5.9650   -1.8520  -19.6110 C   0  0  0  0  0  0
    6.8780   -1.0620  -20.4310 O   0  0  0  0  0  0
   10.1964   -7.5352  -14.4882 H   0  0  0  0  0  0
   11.4472   -7.2431  -15.7439 H   0  0  0  0  0  0
    9.8083   -9.4764  -13.6307 H   0  0  0  0  0  0
   10.4774  -11.7858  -13.0336 H   0  0  0  0  0  0
    9.8312   -8.4364  -17.3705 H   0  0  0  0  0  0
    8.3130   -9.3996  -15.6073 H   0  0  0  0  0  0
    7.7269   -7.7360  -15.2674 H   0  0  0  0  0  0
    6.7876   -7.5045  -17.4714 H   0  0  0  0  0  0
    7.6777   -8.9379  -18.0875 H   0  0  0  0  0  0
    6.3083  -10.2826  -16.3555 H   0  0  0  0  0  0
    5.2599   -8.8267  -16.2671 H   0  0  0  0  0  0
    5.8874  -10.4777  -18.7916 H   0  0  0  0  0  0
    4.3260  -10.4231  -17.9053 H   0  0  0  0  0  0
    4.2629   -8.9927  -19.9247 H   0  0  0  0  0  0
    5.6740   -8.0624  -19.3164 H   0  0  0  0  0  0
    4.1126   -8.0077  -18.4300 H   0  0  0  0  0  0
    9.9726   -6.8548  -18.9181 H   0  0  0  0  0  0
   10.2163   -4.1065  -18.0134 H   0  0  0  0  0  0
   10.7108   -3.5416  -20.0936 H   0  0  0  0  0  0
   12.0570   -5.5277  -19.5893 H   0  0  0  0  0  0
   11.8122   -5.2701  -21.3501 H   0  0  0  0  0  0
   10.8781   -6.5405  -20.4898 H   0  0  0  0  0  0
    8.4108   -3.7740  -20.9588 H   0  0  0  0  0  0
    8.7372   -5.5089  -21.2911 H   0  0  0  0  0  0
    9.6714   -4.2384  -22.1513 H   0  0  0  0  0  0
    5.9215   -2.7738  -17.6590 H   0  0  0  0  0  0
    9.6624   -2.2982  -17.2550 H   0  0  0  0  0  0
    9.5263   -1.5515  -18.8831 H   0  0  0  0  0  0
    8.5701   -0.5447  -16.2824 H   0  0  0  0  0  0
    8.6880    0.3099  -17.8579 H   0  0  0  0  0  0
    6.4285    0.0714  -18.1803 H   0  0  0  0  0  0
    6.2998   -0.7140  -16.5699 H   0  0  0  0  0  0
    5.7724   -2.8139  -20.1087 H   0  0  0  0  0  0
    5.0185   -1.3040  -19.4935 H   0  0  0  0  0  0
    6.5955   -0.7848  -21.4573 H   0  0  0  0  0  0
  1  2  1  0  0  0
  1  6  1  0  0  0
  1 28  1  0  0  0
  1 29  1  0  0  0
  2  3  2  0  0  0
  2  4  1  0  0  0
  4  5  1  0  0  0
  4 30  1  0  0  0
  5 31  1  0  0  0
  6  7  1  0  0  0
  6  9  1  0  0  0
  6 32  1  0  0  0
  7  8  2  0  0  0
  7 14  1  0  0  0
  9 10  1  0  0  0
  9 33  1  0  0  0
  9 34  1  0  0  0
 10 11  1  0  0  0
 10 35  1  0  0  0
 10 36  1  0  0  0
 11 12  1  0  0  0
 11 37  1  0  0  0
 11 38  1  0  0  0
 12 13  1  0  0  0
 12 39  1  0  0  0
 12 40  1  0  0  0
 13 41  1  0  0  0
 13 42  1  0  0  0
 13 43  1  0  0  0
 14 15  1  0  0  0
 14 44  1  0  0  0
 15 16  1  0  0  0
 15 19  1  0  0  0
 15 45  1  0  0  0
 16 17  1  0  0  0
 16 18  1  0  0  0
 16 46  1  0  0  0
 17 47  1  0  0  0
 17 48  1  0  0  0
 17 49  1  0  0  0
 18 50  1  0  0  0
 18 51  1  0  0  0
 18 52  1  0  0  0
 19 20  2  0  0  0
 19 21  1  0  0  0
 21 22  1  0  0  0
 21 23  1  0  0  0
 22 25  1  0  0  0
 22 26  1  0  0  0
 22 53  1  0  0  0
 23 24  1  0  0  0
 23 54  1  0  0  0
 23 55  1  0  0  0
 24 25  1  0  0  0
 24 56  1  0  0  0
 24 57  1  0  0  0
 25 58  1  0  0  0
 25 59  1  0  0  0
 26 27  1  0  0  0
 26 60  1  0  0  0
 26 61  1  0  0  0
 27 62  1  0  0  0
M  END
> <s_m_source_file>
../4je7_ligand.sdf

> <i_m_source_file_index>
1

> <s_epik_input>
W0NIM11bQ0gyXVtDSDJdW0NIMl1bQ0gyXVtDQEhdKFtDSDJdQyg9TylbTkhdW09IXSlDKD1PKVtOSF1bQ0BASF0oW0NIXShbQ0gzXSlbQ0gzXSlDKD1PKU4xW0NASF0oW0NIMl1bT0hdKVtDSDJdW0NIMl1bQ0gyXTE=

> <s_epik_cmdline>
J2VwaWtfYXBwJywgJy1pbWFlJywgJ2xpZ2FuZF9wcm8ubWFlJywgJy1vbWFlJywgJ2xpZ2FuZF9wcmVwLm1hZScsICctbXMnLCAnMScsICctcGgnLCAnNycsICctcGh0JywgJzAuNScsICctbnQn

> <r_lp_tautomer_probability>
1

> <r_epik_Ionization_Penalty>
  0.0055

> <r_epik_Ionization_Penalty_Charging>
  0.0000

> <r_epik_Ionization_Penalty_Neutral>
  0.0055

> <r_epik_State_Penalty>
 -0.0000

> <r_epik_Charging_Adjusted_Penalty>
0

> <i_epik_Tot_Q>
0

> <i_epik_Tot_abs_Q>
0

> <s_epik_Chemistry_Notes>
This compound has a N-S or N-O group and may undergo hydrolysis at high or low pH.

$$$$
