4je8_ligand
                    3D
 Schrodinger Suite 2020-3.
 41 40  0  0  1  0            999 V2000
    9.0080   -8.1660  -14.9720 N   0  3  0  0  0  0
    8.6800   -8.2320  -16.3920 C   0  0  2  0  0  0
    8.9440   -6.8100  -16.8490 C   0  0  0  0  0  0
    8.8030   -5.8880  -16.0550 O   0  0  0  0  0  0
    7.1970   -8.5950  -16.5340 C   0  0  0  0  0  0
    6.9210   -9.2650  -17.8330 C   0  0  0  0  0  0
    5.2560   -9.7790  -18.0990 S   0  0  0  0  0  0
    4.4390   -8.2250  -18.3880 C   0  0  0  0  0  0
    9.3360   -6.6190  -18.1110 N   0  0  0  0  0  0
    9.5480   -5.2750  -18.7110 C   0  0  2  0  0  0
    8.2670   -4.4730  -18.5900 C   0  0  0  0  0  0
    7.2140   -5.0520  -18.7770 O   0  0  0  0  0  0
    9.9010   -5.4810  -20.1590 C   0  0  0  0  0  0
    8.3430   -3.1840  -18.2800 N   0  0  0  0  0  0
    7.1590   -2.3680  -18.0520 C   0  0  2  0  0  0
    6.6850   -1.6280  -19.2910 C   0  0  0  0  0  0
    7.3420   -1.6840  -20.3500 O   0  0  0  0  0  0
    7.4670   -1.3090  -17.0410 C   0  0  0  0  0  0
    8.1700   -0.2660  -17.6620 O   0  0  0  0  0  0
    5.6216   -0.9534  -19.2489 O   0  5  0  0  0  0
   10.0702   -7.9062  -14.8527 H   0  0  0  0  0  0
    8.8149   -9.1432  -14.5053 H   0  0  0  0  0  0
    8.3862   -7.3989  -14.4873 H   0  0  0  0  0  0
    9.2728   -8.9805  -16.9382 H   0  0  0  0  0  0
    6.9073   -9.2780  -15.7219 H   0  0  0  0  0  0
    6.5886   -7.6803  -16.4783 H   0  0  0  0  0  0
    7.1644   -8.5795  -18.6581 H   0  0  0  0  0  0
    7.5376  -10.1722  -17.9160 H   0  0  0  0  0  0
    3.3691   -8.4020  -18.5724 H   0  0  0  0  0  0
    4.8858   -7.7334  -19.2647 H   0  0  0  0  0  0
    4.5571   -7.5790  -17.5055 H   0  0  0  0  0  0
    9.5031   -7.5233  -18.7145 H   0  0  0  0  0  0
   10.3595   -4.7425  -18.1935 H   0  0  0  0  0  0
   10.8313   -6.0636  -20.2303 H   0  0  0  0  0  0
   10.0420   -4.5041  -20.6446 H   0  0  0  0  0  0
    9.0877   -6.0259  -20.6607 H   0  0  0  0  0  0
    9.3441   -2.7358  -18.1973 H   0  0  0  0  0  0
    6.4058   -3.0953  -17.7146 H   0  0  0  0  0  0
    6.5282   -0.9206  -16.6193 H   0  0  0  0  0  0
    8.0808   -1.7385  -16.2355 H   0  0  0  0  0  0
    8.4863    0.6095  -17.0759 H   0  0  0  0  0  0
  1  2  1  0  0  0
  1 21  1  0  0  0
  1 22  1  0  0  0
  1 23  1  0  0  0
  2  3  1  0  0  0
  2  5  1  0  0  0
  2 24  1  0  0  0
  3  4  2  0  0  0
  3  9  1  0  0  0
  5  6  1  0  0  0
  5 25  1  0  0  0
  5 26  1  0  0  0
  6  7  1  0  0  0
  6 27  1  0  0  0
  6 28  1  0  0  0
  7  8  1  0  0  0
  8 29  1  0  0  0
  8 30  1  0  0  0
  8 31  1  0  0  0
  9 10  1  0  0  0
  9 32  1  0  0  0
 10 11  1  0  0  0
 10 13  1  0  0  0
 10 33  1  0  0  0
 11 12  2  0  0  0
 11 14  1  0  0  0
 13 34  1  0  0  0
 13 35  1  0  0  0
 13 36  1  0  0  0
 14 15  1  0  0  0
 14 37  1  0  0  0
 15 16  1  0  0  0
 15 18  1  0  0  0
 15 38  1  0  0  0
 16 17  2  0  0  0
 16 20  1  0  0  0
 18 19  1  0  0  0
 18 39  1  0  0  0
 18 40  1  0  0  0
 19 41  1  0  0  0
M  CHG  2   1   1  20  -1
M  END
> <s_m_source_file>
../4je8_ligand.sdf

> <i_m_source_file_index>
1

> <s_epik_input>
W0NIM11TW0NIMl1bQ0gyXVtDQEhdKFtOSDMrXSlDKD1PKVtOSF1bQ0BASF0oW0NIM10pQyg9TylbTkhdW0NASF0oQyg9TylbT0hdKVtDSDJdW09IXQ==

> <s_epik_cmdline>
J2VwaWtfYXBwJywgJy1pbWFlJywgJ2xpZ2FuZF9wcm8ubWFlJywgJy1vbWFlJywgJ2xpZ2FuZF9wcmVwLm1hZScsICctbXMnLCAnMScsICctcGgnLCAnNycsICctcGh0JywgJzAuNScsICctbnQn

> <r_epik_Ionization_Penalty>
  0.1603

> <r_epik_Ionization_Penalty_Charging>
  0.1603

> <r_epik_Ionization_Penalty_Neutral>
  0.0000

> <r_epik_State_Penalty>
  0.1495

> <r_epik_Charging_Adjusted_Penalty>
0.309824114625443

> <i_epik_Tot_Q>
0

> <i_epik_Tot_abs_Q>
2

$$$$
