4jfd_ligand
                    3D
 Schrodinger Suite 2020-3.
153152  0  0  1  0            999 V2000
   50.0500  -14.5100   31.7160 N   0  3  0  0  0  0
   49.2960  -13.3220   32.1500 C   0  0  2  0  0  0
   49.9840  -12.0170   31.6930 C   0  0  0  0  0  0
   50.9850  -11.5830   32.2870 O   0  0  0  0  0  0
   49.1850  -13.3330   33.6750 C   0  0  0  0  0  0
   48.4700  -12.1070   34.2790 C   0  0  0  0  0  0
   46.9870  -12.0770   34.0120 C   0  0  0  0  0  0
   46.4060  -13.1380   33.6580 O   0  0  0  0  0  0
   46.3720  -11.0310   34.2970 O   0  0  0  0  0  0
   49.4200  -11.3660   30.6870 N   0  0  0  0  0  0
   49.9890  -10.0950   30.1970 C   0  0  2  0  0  0
   49.8980   -9.0170   31.2480 C   0  0  0  0  0  0
   48.9630   -9.0170   32.0940 O   0  0  0  0  0  0
   49.2400   -9.6040   28.9370 C   0  0  0  0  0  0
   49.3630  -10.3790   27.6310 C   0  0  0  0  0  0
   48.3190   -9.8950   26.6070 C   0  0  0  0  0  0
   50.7390  -10.2790   27.0780 C   0  0  0  0  0  0
   50.8310   -8.0570   31.1810 N   0  0  0  0  0  0
   50.8010   -6.8760   32.0800 C   0  0  2  0  0  0
   49.5860   -6.0890   31.7540 C   0  0  0  0  0  0
   49.2520   -5.9360   30.5890 O   0  0  0  0  0  0
   51.9960   -6.0220   31.8520 C   0  0  0  0  0  0
   48.9050   -5.5990   32.7720 N   0  0  0  0  0  0
   47.7160   -4.7580   32.5810 C   0  0  2  0  0  0
   47.9600   -3.3860   33.1780 C   0  0  0  0  0  0
   47.0560   -2.6810   33.4290 O   0  0  0  0  0  0
   46.4510   -5.4050   33.2290 C   0  0  0  0  0  0
   49.1930   -3.1280   33.5570 N   0  0  0  0  0  0
   49.6000   -1.8460   34.0500 C   0  0  2  0  0  0
   51.0540   -1.6100   33.6000 C   0  0  0  0  0  0
   51.7120   -2.5230   33.1370 O   0  0  0  0  0  0
   49.5050   -1.7580   35.5450 C   0  0  2  0  0  0
   50.4720   -2.7680   36.2260 C   0  0  0  0  0  0
   47.9980   -1.9690   36.0140 C   0  0  0  0  0  0
   50.4840   -2.6530   37.8180 C   0  0  0  0  0  0
   51.5150   -0.3720   33.6980 N   0  0  0  0  0  0
   52.8640   -0.0260   33.3240 C   0  0  0  0  0  0
   53.1870   -0.0710   31.8490 C   0  0  0  0  0  0
   54.3530   -0.0260   31.4780 O   0  0  0  0  0  0
   52.1570   -0.0740   31.0070 N   0  0  0  0  0  0
   52.3390   -0.1240   29.5670 C   0  0  2  0  0  0
   51.8220    1.1610   28.9190 C   0  0  0  0  0  0
   50.6250    1.2910   28.6300 O   0  0  0  0  0  0
   51.6120   -1.3130   28.9610 C   0  0  2  0  0  0
   52.1160   -2.6150   29.5800 C   0  0  0  0  0  0
   51.7940   -1.3350   27.4450 C   0  0  0  0  0  0
   53.6260   -2.8640   29.4000 C   0  0  0  0  0  0
   52.7370    2.0940   28.6740 N   0  0  0  0  0  0
   52.3970    3.3680   28.0930 C   0  0  2  0  0  0
   53.0760    3.6000   26.8060 C   0  0  0  0  0  0
   54.0670    2.9510   26.4930 O   0  0  0  0  0  0
   52.7750    4.5140   29.0450 C   0  0  0  0  0  0
   51.8090    4.8020   30.1750 C   0  0  0  0  0  0
   51.6040    3.5630   31.0710 C   0  0  0  0  0  0
   52.3000    6.0100   30.9830 C   0  0  0  0  0  0
   52.5950    4.6110   26.0770 N   0  0  0  0  0  0
   53.1730    4.9700   24.8290 C   0  0  2  0  0  0
   54.4540    5.7030   25.1390 C   0  0  0  0  0  0
   54.6180    6.2170   26.2320 O   0  0  0  0  0  0
   52.2190    5.8510   23.9660 C   0  0  2  0  0  0
   51.9680    7.1080   24.6260 O   0  0  0  0  0  0
   50.9490    5.1650   23.7640 C   0  0  0  0  0  0
   55.3780    5.6930   24.1870 N   0  0  0  0  0  0
   56.6920    6.3200   24.3620 C   0  0  2  0  0  0
   56.6030    7.8310   24.2370 C   0  0  0  0  0  0
   57.6100    8.5680   24.4680 O   0  0  0  0  0  0
   57.6940    5.7770   23.3280 C   0  0  0  0  0  0
   57.7940    4.2250   23.4360 C   0  0  0  0  0  0
   57.2870    6.1640   21.9720 C   0  0  0  0  0  0
   55.5050    8.3720   23.9120 O   0  0  0  0  0  0
   50.1347  -14.5101   30.6193 H   0  0  0  0  0  0
   49.5230  -15.4184   32.0431 H   0  0  0  0  0  0
   51.0556  -14.4889   32.1614 H   0  0  0  0  0  0
   48.3055  -13.4009   31.6782 H   0  0  0  0  0  0
   48.6190  -14.2202   33.9950 H   0  0  0  0  0  0
   50.1924  -13.3621   34.1158 H   0  0  0  0  0  0
   48.6059  -12.1042   35.3706 H   0  0  0  0  0  0
   48.8975  -11.1869   33.8539 H   0  0  0  0  0  0
   45.3241  -13.1326   33.4594 H   0  0  0  0  0  0
   48.5176  -11.7825   30.2157 H   0  0  0  0  0  0
   51.0453  -10.3184   29.9863 H   0  0  0  0  0  0
   48.1584   -9.5871   29.1367 H   0  0  0  0  0  0
   49.5811   -8.5905   28.6793 H   0  0  0  0  0  0
   49.1990  -11.4457   27.8437 H   0  0  0  0  0  0
   47.3122   -9.9799   27.0418 H   0  0  0  0  0  0
   48.3802  -10.5146   25.7002 H   0  0  0  0  0  0
   48.5191   -8.8449   26.3478 H   0  0  0  0  0  0
   51.4623  -10.6303   27.8287 H   0  0  0  0  0  0
   50.9560   -9.2315   26.8218 H   0  0  0  0  0  0
   50.8171  -10.9012   26.1743 H   0  0  0  0  0  0
   51.6334   -8.1606   30.4357 H   0  0  0  0  0  0
   50.7938   -7.2080   33.1287 H   0  0  0  0  0  0
   52.9055   -6.5931   32.0899 H   0  0  0  0  0  0
   51.9408   -5.1340   32.4988 H   0  0  0  0  0  0
   52.0259   -5.7070   30.7985 H   0  0  0  0  0  0
   49.2524   -5.8377   33.7880 H   0  0  0  0  0  0
   47.5886   -4.6700   31.4920 H   0  0  0  0  0  0
   46.2820   -6.3993   32.7900 H   0  0  0  0  0  0
   45.5751   -4.7670   33.0398 H   0  0  0  0  0  0
   46.6048   -5.5044   34.3136 H   0  0  0  0  0  0
   49.9243   -3.9464   33.4832 H   0  0  0  0  0  0
   48.8823   -1.1237   33.6338 H   0  0  0  0  0  0
   49.8485   -0.7475   35.8113 H   0  0  0  0  0  0
   50.1702   -3.7943   35.9697 H   0  0  0  0  0  0
   51.4981   -2.5885   35.8726 H   0  0  0  0  0  0
   47.3510   -1.2363   35.5095 H   0  0  0  0  0  0
   47.9300   -1.8297   37.1030 H   0  0  0  0  0  0
   47.6720   -2.9868   35.7534 H   0  0  0  0  0  0
   51.1852   -3.3916   38.2337 H   0  0  0  0  0  0
   49.4736   -2.8470   38.2072 H   0  0  0  0  0  0
   50.8015   -1.6411   38.1101 H   0  0  0  0  0  0
   50.8337    0.4033   34.0785 H   0  0  0  0  0  0
   53.0821    1.0023   33.6482 H   0  0  0  0  0  0
   53.5678   -0.7197   33.8071 H   0  0  0  0  0  0
   51.1432   -0.0371   31.4323 H   0  0  0  0  0  0
   53.4242   -0.2351   29.4255 H   0  0  0  0  0  0
   50.5393   -1.2105   29.1819 H   0  0  0  0  0  0
   51.9195   -2.6066   30.6623 H   0  0  0  0  0  0
   51.5938   -3.4664   29.1191 H   0  0  0  0  0  0
   51.4259   -0.3905   27.0178 H   0  0  0  0  0  0
   51.2262   -2.1757   27.0197 H   0  0  0  0  0  0
   52.8609   -1.4546   27.2055 H   0  0  0  0  0  0
   53.8993   -3.8183   29.8740 H   0  0  0  0  0  0
   54.1911   -2.0458   29.8704 H   0  0  0  0  0  0
   53.8654   -2.9056   28.3272 H   0  0  0  0  0  0
   53.7826    1.8677   28.9300 H   0  0  0  0  0  0
   51.3166    3.2876   27.9027 H   0  0  0  0  0  0
   53.7391    4.2894   29.5246 H   0  0  0  0  0  0
   52.8584    5.4514   28.4755 H   0  0  0  0  0  0
   50.8349    5.0502   29.7284 H   0  0  0  0  0  0
   51.2528    2.7206   30.4570 H   0  0  0  0  0  0
   50.8557    3.7898   31.8447 H   0  0  0  0  0  0
   52.5573    3.2952   31.5501 H   0  0  0  0  0  0
   52.4338    6.8706   30.3111 H   0  0  0  0  0  0
   53.2599    5.7655   31.4613 H   0  0  0  0  0  0
   51.5583    6.2601   31.7559 H   0  0  0  0  0  0
   51.7305    5.1704   26.4640 H   0  0  0  0  0  0
   53.3626    4.0221   24.3041 H   0  0  0  0  0  0
   52.6431    6.0829   22.9779 H   0  0  0  0  0  0
   52.8055    7.7786   24.8689 H   0  0  0  0  0  0
   51.1277    4.2034   23.2606 H   0  0  0  0  0  0
   50.2907    5.7883   23.1410 H   0  0  0  0  0  0
   50.4702    4.9856   24.7380 H   0  0  0  0  0  0
   55.1297    5.1913   23.2401 H   0  0  0  0  0  0
   56.9996    6.0584   25.3852 H   0  0  0  0  0  0
   57.5256    9.6605   24.3720 H   0  0  0  0  0  0
   58.6769    6.2440   23.4887 H   0  0  0  0  0  0
   58.0994    3.9473   24.4556 H   0  0  0  0  0  0
   58.5390    3.8546   22.7164 H   0  0  0  0  0  0
   56.8141    3.7780   23.2122 H   0  0  0  0  0  0
   57.2199    7.2601   21.9081 H   0  0  0  0  0  0
   56.3056    5.7227   21.7438 H   0  0  0  0  0  0
   58.0304    5.7993   21.2479 H   0  0  0  0  0  0
  1  2  1  0  0  0
  1 71  1  0  0  0
  1 72  1  0  0  0
  1 73  1  0  0  0
  2  3  1  0  0  0
  2  5  1  0  0  0
  2 74  1  0  0  0
  3  4  2  0  0  0
  3 10  1  0  0  0
  5  6  1  0  0  0
  5 75  1  0  0  0
  5 76  1  0  0  0
  6  7  1  0  0  0
  6 77  1  0  0  0
  6 78  1  0  0  0
  7  8  1  0  0  0
  7  9  2  0  0  0
  8 79  1  0  0  0
 10 11  1  0  0  0
 10 80  1  0  0  0
 11 12  1  0  0  0
 11 14  1  0  0  0
 11 81  1  0  0  0
 12 13  2  0  0  0
 12 18  1  0  0  0
 14 15  1  0  0  0
 14 82  1  0  0  0
 14 83  1  0  0  0
 15 16  1  0  0  0
 15 17  1  0  0  0
 15 84  1  0  0  0
 16 85  1  0  0  0
 16 86  1  0  0  0
 16 87  1  0  0  0
 17 88  1  0  0  0
 17 89  1  0  0  0
 17 90  1  0  0  0
 18 19  1  0  0  0
 18 91  1  0  0  0
 19 20  1  0  0  0
 19 22  1  0  0  0
 19 92  1  0  0  0
 20 21  2  0  0  0
 20 23  1  0  0  0
 22 93  1  0  0  0
 22 94  1  0  0  0
 22 95  1  0  0  0
 23 24  1  0  0  0
 23 96  1  0  0  0
 24 25  1  0  0  0
 24 27  1  0  0  0
 24 97  1  0  0  0
 25 26  2  0  0  0
 25 28  1  0  0  0
 27 98  1  0  0  0
 27 99  1  0  0  0
 27100  1  0  0  0
 28 29  1  0  0  0
 28101  1  0  0  0
 29 30  1  0  0  0
 29 32  1  0  0  0
 29102  1  0  0  0
 30 31  2  0  0  0
 30 36  1  0  0  0
 32 33  1  0  0  0
 32 34  1  0  0  0
 32103  1  0  0  0
 33 35  1  0  0  0
 33104  1  0  0  0
 33105  1  0  0  0
 34106  1  0  0  0
 34107  1  0  0  0
 34108  1  0  0  0
 35109  1  0  0  0
 35110  1  0  0  0
 35111  1  0  0  0
 36 37  1  0  0  0
 36112  1  0  0  0
 37 38  1  0  0  0
 37113  1  0  0  0
 37114  1  0  0  0
 38 39  2  0  0  0
 38 40  1  0  0  0
 40 41  1  0  0  0
 40115  1  0  0  0
 41 42  1  0  0  0
 41 44  1  0  0  0
 41116  1  0  0  0
 42 43  2  0  0  0
 42 48  1  0  0  0
 44 45  1  0  0  0
 44 46  1  0  0  0
 44117  1  0  0  0
 45 47  1  0  0  0
 45118  1  0  0  0
 45119  1  0  0  0
 46120  1  0  0  0
 46121  1  0  0  0
 46122  1  0  0  0
 47123  1  0  0  0
 47124  1  0  0  0
 47125  1  0  0  0
 48 49  1  0  0  0
 48126  1  0  0  0
 49 50  1  0  0  0
 49 52  1  0  0  0
 49127  1  0  0  0
 50 51  2  0  0  0
 50 56  1  0  0  0
 52 53  1  0  0  0
 52128  1  0  0  0
 52129  1  0  0  0
 53 54  1  0  0  0
 53 55  1  0  0  0
 53130  1  0  0  0
 54131  1  0  0  0
 54132  1  0  0  0
 54133  1  0  0  0
 55134  1  0  0  0
 55135  1  0  0  0
 55136  1  0  0  0
 56 57  1  0  0  0
 56137  1  0  0  0
 57 58  1  0  0  0
 57 60  1  0  0  0
 57138  1  0  0  0
 58 59  2  0  0  0
 58 63  1  0  0  0
 60 61  1  0  0  0
 60 62  1  0  0  0
 60139  1  0  0  0
 61140  1  0  0  0
 62141  1  0  0  0
 62142  1  0  0  0
 62143  1  0  0  0
 63 64  1  0  0  0
 63144  1  0  0  0
 64 65  1  0  0  0
 64 67  1  0  0  0
 64145  1  0  0  0
 65 66  1  0  0  0
 65 70  2  0  0  0
 66146  1  0  0  0
 67 68  1  0  0  0
 67 69  1  0  0  0
 67147  1  0  0  0
 68148  1  0  0  0
 68149  1  0  0  0
 68150  1  0  0  0
 69151  1  0  0  0
 69152  1  0  0  0
 69153  1  0  0  0
M  CHG  1   1   1
M  END
> <s_m_source_file>
../4jfd_ligand.sdf

> <i_m_source_file_index>
1

> <s_epik_input>
W09IXUMoPU8pW0NIMl1bQ0gyXVtDQEhdKFtOSDMrXSlDKD1PKVtOSF1bQ0BASF0oW0NIMl1bQ0hdKFtDSDNdKVtDSDNdKUMoPU8pW05IXVtDQEBIXShbQ0gzXSlDKD1PKVtOSF1bQ0BASF0oW0NIM10pQyg9TylbTkhdW0NAQEhdKFtDQEBIXShbQ0gzXSlbQ0gyXVtDSDNdKUMoPU8pW05IXVtDSDJdQyg9TylbTkhdW0NAQEhdKFtDQEBIXShbQ0gzXSlbQ0gyXVtDSDNdKUMoPU8pW05IXVtDQEBIXShbQ0gyXVtDSF0oW0NIM10pW0NIM10pQyg9TylbTkhdW0NAQEhdKFtDQEhdKFtPSF0pW0NIM10pQyg9TylbTkhdW0NASF0oQyg9TylbT0hdKVtDSF0oW0NIM10pW0NIM10=

> <s_epik_cmdline>
J2VwaWtfYXBwJywgJy1pbWFlJywgJ2xpZ2FuZF9wcm8ubWFlJywgJy1vbWFlJywgJ2xpZ2FuZF9wcmVwLm1hZScsICctbXMnLCAnMScsICctcGgnLCAnNycsICctcGh0JywgJzAuNScsICctbnQn

> <s_epik_pKa_notes>
Molecule size exceeds maximum supported for generating protonation states

$$$$
