4jfe_ligand
                    3D
 Schrodinger Suite 2020-3.
139138  0  0  1  0            999 V2000
   50.1260  -14.4560   31.4840 N   0  3  0  0  0  0
   49.1950  -13.4090   31.9220 C   0  0  2  0  0  0
   49.8310  -12.0770   31.5390 C   0  0  0  0  0  0
   50.8590  -11.6610   32.1360 O   0  0  0  0  0  0
   49.0070  -13.4980   33.4270 C   0  0  0  0  0  0
   47.5650  -13.2080   33.9320 C   0  0  0  0  0  0
   47.1050  -11.8220   33.7220 C   0  0  0  0  0  0
   46.0500  -11.4610   34.3020 O   0  5  0  0  0  0
   47.7780  -11.0740   32.9990 O   0  0  0  0  0  0
   49.2520  -11.4150   30.5320 N   0  0  0  0  0  0
   49.7620  -10.1280   30.0660 C   0  0  2  0  0  0
   49.7070   -9.1080   31.1290 C   0  0  0  0  0  0
   48.8750   -9.1720   32.0080 O   0  0  0  0  0  0
   48.9520   -9.6390   28.8550 C   0  0  0  0  0  0
   49.2500  -10.2990   27.5110 C   0  0  0  0  0  0
   48.1830  -10.0060   26.5300 C   0  0  0  0  0  0
   50.5550   -9.8430   27.0180 C   0  0  0  0  0  0
   50.6140   -8.1540   31.0710 N   0  0  0  0  0  0
   50.6120   -7.0770   32.0270 C   0  0  2  0  0  0
   49.4090   -6.1950   31.6860 C   0  0  0  0  0  0
   49.1330   -5.9480   30.5140 O   0  0  0  0  0  0
   51.8900   -6.2900   31.9460 C   0  0  0  0  0  0
   48.6770   -5.7580   32.7150 N   0  0  0  0  0  0
   47.4930   -4.9040   32.5250 C   0  0  0  0  0  0
   47.7720   -3.4980   32.9490 C   0  0  0  0  0  0
   46.8960   -2.7250   33.0910 O   0  0  0  0  0  0
   49.0300   -3.1960   33.1750 N   0  0  0  0  0  0
   49.4370   -1.8740   33.5590 C   0  0  2  0  0  0
   50.8160   -1.6400   33.0780 C   0  0  0  0  0  0
   51.4920   -2.5630   32.6650 O   0  0  0  0  0  0
   49.4240   -1.6890   35.0900 C   0  0  2  0  0  0
   50.4290   -2.6310   35.7570 C   0  0  0  0  0  0
   48.0210   -1.8970   35.6470 C   0  0  0  0  0  0
   50.4780   -2.5110   37.2940 C   0  0  0  0  0  0
   51.2400   -0.3880   33.1080 N   0  0  0  0  0  0
   52.6260   -0.0140   32.7200 C   0  0  0  0  0  0
   52.9360   -0.0150   31.2500 C   0  0  0  0  0  0
   54.0800    0.1900   30.8630 O   0  0  0  0  0  0
   51.9250   -0.2300   30.4200 N   0  0  0  0  0  0
   52.1180   -0.2390   28.9800 C   0  0  2  0  0  0
   51.6190    1.0540   28.3940 C   0  0  0  0  0  0
   50.4200    1.2430   28.2240 O   0  0  0  0  0  0
   51.3990   -1.3890   28.3780 C   0  0  0  0  0  0
   52.5350    1.9590   28.0990 N   0  0  0  0  0  0
   52.1760    3.2200   27.5280 C   0  0  2  0  0  0
   52.8450    3.4440   26.2020 C   0  0  0  0  0  0
   53.7770    2.7000   25.8250 O   0  0  0  0  0  0
   52.5550    4.3600   28.4530 C   0  0  0  0  0  0
   51.9630    4.3890   29.8290 C   0  0  0  0  0  0
   52.0560    5.8350   30.3430 C   0  0  0  0  0  0
   50.5580    3.9540   29.7820 C   0  0  0  0  0  0
   52.3730    4.4760   25.4710 N   0  0  0  0  0  0
   52.9670    4.8260   24.2020 C   0  0  2  0  0  0
   54.2030    5.5730   24.5050 C   0  0  0  0  0  0
   54.2770    6.2730   25.5170 O   0  0  0  0  0  0
   52.0320    5.7270   23.2920 C   0  0  2  0  0  0
   51.6710    6.9160   23.9870 O   0  0  0  0  0  0
   50.8230    5.0160   22.9300 C   0  0  0  0  0  0
   55.1910    5.4230   23.6320 N   0  0  0  0  0  0
   56.4580    6.0730   23.7690 C   0  0  2  0  0  0
   56.3250    7.6290   23.6240 C   0  0  0  0  0  0
   57.2880    8.4210   23.8990 O   0  5  0  0  0  0
   57.4600    5.5260   22.7070 C   0  0  0  0  0  0
   57.7410    4.0430   22.9510 C   0  0  0  0  0  0
   56.9280    5.7360   21.3390 C   0  0  0  0  0  0
   55.2630    8.1350   23.2430 O   0  0  0  0  0  0
   50.2629  -14.3925   30.3944 H   0  0  0  0  0  0
   49.7169  -15.4431   31.7453 H   0  0  0  0  0  0
   51.0958  -14.3169   31.9841 H   0  0  0  0  0  0
   48.2175  -13.5479   31.4371 H   0  0  0  0  0  0
   49.2606  -14.5123   33.7688 H   0  0  0  0  0  0
   49.6650  -12.7689   33.9225 H   0  0  0  0  0  0
   46.8539  -13.8620   33.4061 H   0  0  0  0  0  0
   47.5095  -13.4008   35.0136 H   0  0  0  0  0  0
   48.3698  -11.8635   30.0519 H   0  0  0  0  0  0
   50.8207  -10.2989   29.8212 H   0  0  0  0  0  0
   47.8807   -9.8095   29.0374 H   0  0  0  0  0  0
   49.1317   -8.5644   28.7034 H   0  0  0  0  0  0
   49.2966  -11.3934   27.6120 H   0  0  0  0  0  0
   47.2173  -10.3569   26.9228 H   0  0  0  0  0  0
   48.4032  -10.5219   25.5837 H   0  0  0  0  0  0
   48.1348   -8.9213   26.3537 H   0  0  0  0  0  0
   51.3295  -10.0723   27.7647 H   0  0  0  0  0  0
   50.5225   -8.7572   26.8449 H   0  0  0  0  0  0
   50.7909  -10.3578   26.0749 H   0  0  0  0  0  0
   51.3786   -8.1866   30.2808 H   0  0  0  0  0  0
   50.5556   -7.5106   33.0363 H   0  0  0  0  0  0
   52.7393   -6.9433   32.1946 H   0  0  0  0  0  0
   51.8507   -5.4527   32.6583 H   0  0  0  0  0  0
   52.0152   -5.8981   30.9258 H   0  0  0  0  0  0
   48.9835   -6.0556   33.7286 H   0  0  0  0  0  0
   47.2092   -4.9019   31.4622 H   0  0  0  0  0  0
   46.6589   -5.2945   33.1264 H   0  0  0  0  0  0
   49.7811   -3.9917   33.0621 H   0  0  0  0  0  0
   48.7223   -1.2010   33.0627 H   0  0  0  0  0  0
   49.7216   -0.6570   35.3273 H   0  0  0  0  0  0
   50.1671   -3.6730   35.5213 H   0  0  0  0  0  0
   51.4401   -2.4133   35.3823 H   0  0  0  0  0  0
   47.3230   -1.2076   35.1494 H   0  0  0  0  0  0
   48.0230   -1.6990   36.7290 H   0  0  0  0  0  0
   47.7042   -2.9345   35.4646 H   0  0  0  0  0  0
   51.2206   -3.2174   37.6934 H   0  0  0  0  0  0
   49.4877   -2.7449   37.7118 H   0  0  0  0  0  0
   50.7606   -1.4852   37.5728 H   0  0  0  0  0  0
   50.5314    0.3881   33.4328 H   0  0  0  0  0  0
   52.8426    1.0057   33.0713 H   0  0  0  0  0  0
   53.3372   -0.7179   33.1767 H   0  0  0  0  0  0
   50.9241   -0.4039   30.8419 H   0  0  0  0  0  0
   53.1948   -0.3550   28.7877 H   0  0  0  0  0  0
   51.7742   -2.3258   28.8158 H   0  0  0  0  0  0
   51.5679   -1.3987   27.2911 H   0  0  0  0  0  0
   50.3220   -1.2949   28.5809 H   0  0  0  0  0  0
   53.5912    1.7273   28.3008 H   0  0  0  0  0  0
   51.0868    3.1403   27.3964 H   0  0  0  0  0  0
   53.6430    4.3547   28.6148 H   0  0  0  0  0  0
   52.2567    5.3160   27.9980 H   0  0  0  0  0  0
   52.4842    3.6781   30.4870 H   0  0  0  0  0  0
   53.1106    6.1464   30.3728 H   0  0  0  0  0  0
   51.6278    5.8928   31.3546 H   0  0  0  0  0  0
   51.4961    6.5003   29.6693 H   0  0  0  0  0  0
   50.5068    2.9190   29.4129 H   0  0  0  0  0  0
   49.9927    4.6127   29.1063 H   0  0  0  0  0  0
   50.1244    4.0051   30.7916 H   0  0  0  0  0  0
   51.5207    5.0542   25.8575 H   0  0  0  0  0  0
   53.1839    3.8653   23.7120 H   0  0  0  0  0  0
   52.5109    6.0460   22.3545 H   0  0  0  0  0  0
   52.4525    7.5999   24.3496 H   0  0  0  0  0  0
   51.0872    4.0939   22.3916 H   0  0  0  0  0  0
   50.2026    5.6535   22.2829 H   0  0  0  0  0  0
   50.2612    4.7608   23.8406 H   0  0  0  0  0  0
   55.0014    4.7633   22.7725 H   0  0  0  0  0  0
   56.7606    5.8001   24.7907 H   0  0  0  0  0  0
   58.4109    6.0770   22.7541 H   0  0  0  0  0  0
   58.1344    3.9071   23.9692 H   0  0  0  0  0  0
   58.4819    3.6852   22.2209 H   0  0  0  0  0  0
   56.8089    3.4698   22.8384 H   0  0  0  0  0  0
   56.7322    6.8070   21.1822 H   0  0  0  0  0  0
   55.9921    5.1707   21.2188 H   0  0  0  0  0  0
   57.6651    5.3861   20.6012 H   0  0  0  0  0  0
  1  2  1  0  0  0
  1 67  1  0  0  0
  1 68  1  0  0  0
  1 69  1  0  0  0
  2  3  1  0  0  0
  2  5  1  0  0  0
  2 70  1  0  0  0
  3  4  2  0  0  0
  3 10  1  0  0  0
  5  6  1  0  0  0
  5 71  1  0  0  0
  5 72  1  0  0  0
  6  7  1  0  0  0
  6 73  1  0  0  0
  6 74  1  0  0  0
  7  8  1  0  0  0
  7  9  2  0  0  0
 10 11  1  0  0  0
 10 75  1  0  0  0
 11 12  1  0  0  0
 11 14  1  0  0  0
 11 76  1  0  0  0
 12 13  2  0  0  0
 12 18  1  0  0  0
 14 15  1  0  0  0
 14 77  1  0  0  0
 14 78  1  0  0  0
 15 16  1  0  0  0
 15 17  1  0  0  0
 15 79  1  0  0  0
 16 80  1  0  0  0
 16 81  1  0  0  0
 16 82  1  0  0  0
 17 83  1  0  0  0
 17 84  1  0  0  0
 17 85  1  0  0  0
 18 19  1  0  0  0
 18 86  1  0  0  0
 19 20  1  0  0  0
 19 22  1  0  0  0
 19 87  1  0  0  0
 20 21  2  0  0  0
 20 23  1  0  0  0
 22 88  1  0  0  0
 22 89  1  0  0  0
 22 90  1  0  0  0
 23 24  1  0  0  0
 23 91  1  0  0  0
 24 25  1  0  0  0
 24 92  1  0  0  0
 24 93  1  0  0  0
 25 26  2  0  0  0
 25 27  1  0  0  0
 27 28  1  0  0  0
 27 94  1  0  0  0
 28 29  1  0  0  0
 28 31  1  0  0  0
 28 95  1  0  0  0
 29 30  2  0  0  0
 29 35  1  0  0  0
 31 32  1  0  0  0
 31 33  1  0  0  0
 31 96  1  0  0  0
 32 34  1  0  0  0
 32 97  1  0  0  0
 32 98  1  0  0  0
 33 99  1  0  0  0
 33100  1  0  0  0
 33101  1  0  0  0
 34102  1  0  0  0
 34103  1  0  0  0
 34104  1  0  0  0
 35 36  1  0  0  0
 35105  1  0  0  0
 36 37  1  0  0  0
 36106  1  0  0  0
 36107  1  0  0  0
 37 38  2  0  0  0
 37 39  1  0  0  0
 39 40  1  0  0  0
 39108  1  0  0  0
 40 41  1  0  0  0
 40 43  1  0  0  0
 40109  1  0  0  0
 41 42  2  0  0  0
 41 44  1  0  0  0
 43110  1  0  0  0
 43111  1  0  0  0
 43112  1  0  0  0
 44 45  1  0  0  0
 44113  1  0  0  0
 45 46  1  0  0  0
 45 48  1  0  0  0
 45114  1  0  0  0
 46 47  2  0  0  0
 46 52  1  0  0  0
 48 49  1  0  0  0
 48115  1  0  0  0
 48116  1  0  0  0
 49 50  1  0  0  0
 49 51  1  0  0  0
 49117  1  0  0  0
 50118  1  0  0  0
 50119  1  0  0  0
 50120  1  0  0  0
 51121  1  0  0  0
 51122  1  0  0  0
 51123  1  0  0  0
 52 53  1  0  0  0
 52124  1  0  0  0
 53 54  1  0  0  0
 53 56  1  0  0  0
 53125  1  0  0  0
 54 55  2  0  0  0
 54 59  1  0  0  0
 56 57  1  0  0  0
 56 58  1  0  0  0
 56126  1  0  0  0
 57127  1  0  0  0
 58128  1  0  0  0
 58129  1  0  0  0
 58130  1  0  0  0
 59 60  1  0  0  0
 59131  1  0  0  0
 60 61  1  0  0  0
 60 63  1  0  0  0
 60132  1  0  0  0
 61 62  1  0  0  0
 61 66  2  0  0  0
 63 64  1  0  0  0
 63 65  1  0  0  0
 63133  1  0  0  0
 64134  1  0  0  0
 64135  1  0  0  0
 64136  1  0  0  0
 65137  1  0  0  0
 65138  1  0  0  0
 65139  1  0  0  0
M  CHG  3   1   1   8  -1  62  -1
M  END
> <s_m_source_file>
../4jfe_ligand.sdf

> <i_m_source_file_index>
1

> <s_epik_input>
W09IXUMoPU8pW0NIMl1bQ0gyXVtDQEhdKFtOSDMrXSlDKD1PKVtOSF1bQ0BASF0oW0NIMl1bQ0hdKFtDSDNdKVtDSDNdKUMoPU8pW05IXVtDQEBIXShbQ0gzXSlDKD1PKVtOSF1bQ0gyXUMoPU8pW05IXVtDQEBIXShbQ0BASF0oW0NIM10pW0NIMl1bQ0gzXSlDKD1PKVtOSF1bQ0gyXUMoPU8pW05IXVtDQEBIXShbQ0gzXSlDKD1PKVtOSF1bQ0BASF0oW0NIMl1bQ0hdKFtDSDNdKVtDSDNdKUMoPU8pW05IXVtDQEBIXShbQ0BIXShbT0hdKVtDSDNdKUMoPU8pW05IXVtDQEhdKEMoPU8pW09IXSlbQ0hdKFtDSDNdKVtDSDNd

> <s_epik_cmdline>
J2VwaWtfYXBwJywgJy1pbWFlJywgJ2xpZ2FuZF9wcm8ubWFlJywgJy1vbWFlJywgJ2xpZ2FuZF9wcmVwLm1hZScsICctbXMnLCAnMScsICctcGgnLCAnNycsICctcGh0JywgJzAuNScsICctbnQn

> <r_epik_Ionization_Penalty>
  0.0750

> <r_epik_Ionization_Penalty_Charging>
  0.0750

> <r_epik_Ionization_Penalty_Neutral>
  0.0000

> <r_epik_State_Penalty>
  0.0649

> <r_epik_Charging_Adjusted_Penalty>
0.139988261612658

> <i_epik_Tot_Q>
-1

> <i_epik_Tot_abs_Q>
3

$$$$
