4jff_ligand
                    3D
 Schrodinger Suite 2020-3.
148147  0  0  1  0            999 V2000
   49.9980  -14.4250   31.4030 N   0  3  0  0  0  0
   49.2720  -13.2030   31.8160 C   0  0  2  0  0  0
   49.9930  -11.9460   31.3420 C   0  0  0  0  0  0
   51.0340  -11.5930   31.8740 O   0  0  0  0  0  0
   49.1780  -13.1560   33.3180 C   0  0  0  0  0  0
   48.5030  -11.8990   33.8710 C   0  0  0  0  0  0
   47.0120  -11.9120   33.7090 C   0  0  0  0  0  0
   46.4710  -12.9440   33.2730 O   0  0  0  0  0  0
   46.3720  -10.9310   34.1290 O   0  5  0  0  0  0
   49.3810  -11.2290   30.3880 N   0  0  0  0  0  0
   49.9430  -10.0010   29.8870 C   0  0  2  0  0  0
   49.8950   -8.9170   30.9510 C   0  0  0  0  0  0
   49.0720   -8.9580   31.8760 O   0  0  0  0  0  0
   49.1570   -9.5190   28.6540 C   0  0  0  0  0  0
   49.2800  -10.3110   27.3640 C   0  0  0  0  0  0
   48.0900  -10.0440   26.4320 C   0  0  0  0  0  0
   50.5570  -10.0130   26.6940 C   0  0  0  0  0  0
   50.7640   -7.9470   30.8070 N   0  0  0  0  0  0
   50.7910   -6.8040   31.6830 C   0  0  2  0  0  0
   49.5420   -6.0510   31.4340 C   0  0  0  0  0  0
   49.1490   -5.8840   30.2850 O   0  0  0  0  0  0
   51.9520   -5.9420   31.3690 C   0  0  0  0  0  0
   48.8680   -5.6430   32.5100 N   0  0  0  0  0  0
   47.6550   -4.8810   32.4020 C   0  0  0  0  0  0
   47.8510   -3.4510   32.9050 C   0  0  0  0  0  0
   46.9030   -2.7210   33.0470 O   0  0  0  0  0  0
   49.0820   -3.1370   33.2940 N   0  0  0  0  0  0
   49.4780   -1.8230   33.7430 C   0  0  2  0  0  0
   50.9520   -1.5670   33.2550 C   0  0  0  0  0  0
   51.6060   -2.4710   32.7310 O   0  0  0  0  0  0
   49.4430   -1.7130   35.2670 C   0  0  2  0  0  0
   50.4420   -2.6910   35.9120 C   0  0  0  0  0  0
   47.9890   -1.9540   35.8150 C   0  0  0  0  0  0
   50.4460   -2.6510   37.4500 C   0  0  0  0  0  0
   51.4020   -0.3230   33.3350 N   0  0  0  0  0  0
   52.7780    0.0300   32.9600 C   0  0  0  0  0  0
   53.1190   -0.0220   31.4840 C   0  0  0  0  0  0
   54.3280    0.0840   31.1080 O   0  0  0  0  0  0
   52.0760   -0.1080   30.6260 N   0  0  0  0  0  0
   52.2550   -0.1360   29.1850 C   0  0  2  0  0  0
   51.7650    1.1980   28.5620 C   0  0  0  0  0  0
   50.5540    1.3920   28.3620 O   0  0  0  0  0  0
   51.4370   -1.2680   28.5550 C   0  0  2  0  0  0
   51.8460   -2.6210   29.1370 C   0  0  0  0  0  0
   51.5860   -1.2510   27.0640 C   0  0  0  0  0  0
   53.3340   -2.9340   29.0260 C   0  0  0  0  0  0
   52.6920    2.0810   28.2130 N   0  0  0  0  0  0
   52.3240    3.3600   27.6570 C   0  0  2  0  0  0
   53.0380    3.6570   26.3450 C   0  0  0  0  0  0
   54.0610    3.0780   26.0580 O   0  0  0  0  0  0
   52.6580    4.4900   28.6190 C   0  0  0  0  0  0
   52.2470    4.4470   30.0640 C   0  0  0  0  0  0
   52.1090    5.9190   30.5090 C   0  0  0  0  0  0
   50.9500    3.7030   30.2880 C   0  0  0  0  0  0
   52.5350    4.6580   25.6200 N   0  0  0  0  0  0
   53.1270    5.0740   24.3720 C   0  0  2  0  0  0
   54.4900    5.7470   24.6680 C   0  0  0  0  0  0
   54.7010    6.3200   25.7770 O   0  0  0  0  0  0
   52.2430    6.0840   23.6160 C   0  0  2  0  0  0
   50.9140    5.5840   23.5070 O   0  0  0  0  0  0
   52.7860    6.3140   22.2230 C   0  0  0  0  0  0
   55.4190    5.6290   23.7310 N   0  0  0  0  0  0
   56.7290    6.2220   23.9010 C   0  0  2  0  0  0
   56.6150    7.7190   23.7700 C   0  0  0  0  0  0
   57.5760    8.4720   24.1370 O   0  0  0  0  0  0
   57.7100    5.7040   22.9040 C   0  0  0  0  0  0
   57.7930    4.1430   23.0010 C   0  0  0  0  0  0
   57.3350    6.1420   21.5040 C   0  0  0  0  0  0
   55.5020    8.2360   23.3860 O   0  5  0  0  0  0
   50.0658  -14.4579   30.3056 H   0  0  0  0  0  0
   49.4572  -15.3123   31.7637 H   0  0  0  0  0  0
   51.0105  -14.4128   31.8328 H   0  0  0  0  0  0
   48.2721  -13.2636   31.3615 H   0  0  0  0  0  0
   48.5944  -14.0169   33.6760 H   0  0  0  0  0  0
   50.1889  -13.1933   33.7500 H   0  0  0  0  0  0
   48.7205  -11.8086   34.9455 H   0  0  0  0  0  0
   48.8877  -11.0139   33.3432 H   0  0  0  0  0  0
   48.4263  -11.6006   29.9875 H   0  0  0  0  0  0
   50.9846  -10.2532   29.6393 H   0  0  0  0  0  0
   48.0810   -9.5180   28.8825 H   0  0  0  0  0  0
   49.4768   -8.5000   28.3906 H   0  0  0  0  0  0
   49.3084  -11.3827   27.6104 H   0  0  0  0  0  0
   47.1525  -10.2751   26.9590 H   0  0  0  0  0  0
   48.1745  -10.6796   25.5382 H   0  0  0  0  0  0
   48.0903   -8.9860   26.1309 H   0  0  0  0  0  0
   51.3891  -10.2134   27.3850 H   0  0  0  0  0  0
   50.5758   -8.9547   26.3947 H   0  0  0  0  0  0
   50.6600  -10.6483   25.8019 H   0  0  0  0  0  0
   51.4892   -8.0262   29.9837 H   0  0  0  0  0  0
   50.8743   -7.1459   32.7252 H   0  0  0  0  0  0
   52.8826   -6.4989   31.5531 H   0  0  0  0  0  0
   51.9277   -5.0471   32.0081 H   0  0  0  0  0  0
   51.9087   -5.6393   30.3124 H   0  0  0  0  0  0
   49.2659   -5.9059   33.5012 H   0  0  0  0  0  0
   47.3394   -4.8414   31.3490 H   0  0  0  0  0  0
   46.8672   -5.3585   33.0031 H   0  0  0  0  0  0
   49.8200   -3.9520   33.2594 H   0  0  0  0  0  0
   48.7266   -1.1400   33.3201 H   0  0  0  0  0  0
   49.7655   -0.6925   35.5212 H   0  0  0  0  0  0
   50.1929   -3.7199   35.6130 H   0  0  0  0  0  0
   51.4612   -2.4484   35.5767 H   0  0  0  0  0  0
   47.2958   -1.2444   35.3398 H   0  0  0  0  0  0
   47.9782   -1.8033   36.9046 H   0  0  0  0  0  0
   47.6760   -2.9829   35.5840 H   0  0  0  0  0  0
   51.1814   -3.3735   37.8336 H   0  0  0  0  0  0
   49.4456   -2.9112   37.8261 H   0  0  0  0  0  0
   50.7139   -1.6397   37.7898 H   0  0  0  0  0  0
   50.7129    0.4555   33.6943 H   0  0  0  0  0  0
   52.9918    1.0609   33.2786 H   0  0  0  0  0  0
   53.4804   -0.6589   33.4520 H   0  0  0  0  0  0
   51.0646   -0.1574   31.0557 H   0  0  0  0  0  0
   53.3337   -0.3028   29.0486 H   0  0  0  0  0  0
   50.3701   -1.1098   28.7713 H   0  0  0  0  0  0
   51.5919   -2.6519   30.2068 H   0  0  0  0  0  0
   51.3103   -3.4241   28.6096 H   0  0  0  0  0  0
   51.2847   -0.2666   26.6766 H   0  0  0  0  0  0
   50.9469   -2.0300   26.6228 H   0  0  0  0  0  0
   52.6358   -1.4440   26.7982 H   0  0  0  0  0  0
   53.5350   -3.9211   29.4678 H   0  0  0  0  0  0
   53.9111   -2.1673   29.5637 H   0  0  0  0  0  0
   53.6295   -2.9394   27.9664 H   0  0  0  0  0  0
   53.7531    1.8268   28.3527 H   0  0  0  0  0  0
   51.2412    3.2468   27.4995 H   0  0  0  0  0  0
   53.7497    4.6127   28.6756 H   0  0  0  0  0  0
   52.2021    5.4243   28.2596 H   0  0  0  0  0  0
   52.9987    3.8810   30.6337 H   0  0  0  0  0  0
   53.0605    6.4441   30.3391 H   0  0  0  0  0  0
   51.8555    5.9564   31.5787 H   0  0  0  0  0  0
   51.3127    6.4051   29.9262 H   0  0  0  0  0  0
   51.0666    2.6577   29.9659 H   0  0  0  0  0  0
   50.1485    4.1794   29.7043 H   0  0  0  0  0  0
   50.6913    3.7307   31.3568 H   0  0  0  0  0  0
   51.6399    5.1707   26.0021 H   0  0  0  0  0  0
   53.2101    4.1426   23.7927 H   0  0  0  0  0  0
   52.1704    7.0323   24.1687 H   0  0  0  0  0  0
   50.3381    5.3503   24.4146 H   0  0  0  0  0  0
   53.8136    6.7009   22.2893 H   0  0  0  0  0  0
   52.1523    7.0443   21.6984 H   0  0  0  0  0  0
   52.7869    5.3641   21.6684 H   0  0  0  0  0  0
   55.1830    5.0704   22.8132 H   0  0  0  0  0  0
   57.0710    5.9240   24.9031 H   0  0  0  0  0  0
   58.6809    6.1654   23.1374 H   0  0  0  0  0  0
   58.0665    3.8534   24.0263 H   0  0  0  0  0  0
   58.5549    3.7721   22.2996 H   0  0  0  0  0  0
   56.8159    3.7073   22.7452 H   0  0  0  0  0  0
   57.2840    7.2401   21.4647 H   0  0  0  0  0  0
   56.3548    5.7196   21.2379 H   0  0  0  0  0  0
   58.0938    5.7844   20.7924 H   0  0  0  0  0  0
  1  2  1  0  0  0
  1 70  1  0  0  0
  1 71  1  0  0  0
  1 72  1  0  0  0
  2  3  1  0  0  0
  2  5  1  0  0  0
  2 73  1  0  0  0
  3  4  2  0  0  0
  3 10  1  0  0  0
  5  6  1  0  0  0
  5 74  1  0  0  0
  5 75  1  0  0  0
  6  7  1  0  0  0
  6 76  1  0  0  0
  6 77  1  0  0  0
  7  8  2  0  0  0
  7  9  1  0  0  0
 10 11  1  0  0  0
 10 78  1  0  0  0
 11 12  1  0  0  0
 11 14  1  0  0  0
 11 79  1  0  0  0
 12 13  2  0  0  0
 12 18  1  0  0  0
 14 15  1  0  0  0
 14 80  1  0  0  0
 14 81  1  0  0  0
 15 16  1  0  0  0
 15 17  1  0  0  0
 15 82  1  0  0  0
 16 83  1  0  0  0
 16 84  1  0  0  0
 16 85  1  0  0  0
 17 86  1  0  0  0
 17 87  1  0  0  0
 17 88  1  0  0  0
 18 19  1  0  0  0
 18 89  1  0  0  0
 19 20  1  0  0  0
 19 22  1  0  0  0
 19 90  1  0  0  0
 20 21  2  0  0  0
 20 23  1  0  0  0
 22 91  1  0  0  0
 22 92  1  0  0  0
 22 93  1  0  0  0
 23 24  1  0  0  0
 23 94  1  0  0  0
 24 25  1  0  0  0
 24 95  1  0  0  0
 24 96  1  0  0  0
 25 26  2  0  0  0
 25 27  1  0  0  0
 27 28  1  0  0  0
 27 97  1  0  0  0
 28 29  1  0  0  0
 28 31  1  0  0  0
 28 98  1  0  0  0
 29 30  2  0  0  0
 29 35  1  0  0  0
 31 32  1  0  0  0
 31 33  1  0  0  0
 31 99  1  0  0  0
 32 34  1  0  0  0
 32100  1  0  0  0
 32101  1  0  0  0
 33102  1  0  0  0
 33103  1  0  0  0
 33104  1  0  0  0
 34105  1  0  0  0
 34106  1  0  0  0
 34107  1  0  0  0
 35 36  1  0  0  0
 35108  1  0  0  0
 36 37  1  0  0  0
 36109  1  0  0  0
 36110  1  0  0  0
 37 38  2  0  0  0
 37 39  1  0  0  0
 39 40  1  0  0  0
 39111  1  0  0  0
 40 41  1  0  0  0
 40 43  1  0  0  0
 40112  1  0  0  0
 41 42  2  0  0  0
 41 47  1  0  0  0
 43 44  1  0  0  0
 43 45  1  0  0  0
 43113  1  0  0  0
 44 46  1  0  0  0
 44114  1  0  0  0
 44115  1  0  0  0
 45116  1  0  0  0
 45117  1  0  0  0
 45118  1  0  0  0
 46119  1  0  0  0
 46120  1  0  0  0
 46121  1  0  0  0
 47 48  1  0  0  0
 47122  1  0  0  0
 48 49  1  0  0  0
 48 51  1  0  0  0
 48123  1  0  0  0
 49 50  2  0  0  0
 49 55  1  0  0  0
 51 52  1  0  0  0
 51124  1  0  0  0
 51125  1  0  0  0
 52 53  1  0  0  0
 52 54  1  0  0  0
 52126  1  0  0  0
 53127  1  0  0  0
 53128  1  0  0  0
 53129  1  0  0  0
 54130  1  0  0  0
 54131  1  0  0  0
 54132  1  0  0  0
 55 56  1  0  0  0
 55133  1  0  0  0
 56 57  1  0  0  0
 56 59  1  0  0  0
 56134  1  0  0  0
 57 58  2  0  0  0
 57 62  1  0  0  0
 59 60  1  0  0  0
 59 61  1  0  0  0
 59135  1  0  0  0
 60136  1  0  0  0
 61137  1  0  0  0
 61138  1  0  0  0
 61139  1  0  0  0
 62 63  1  0  0  0
 62140  1  0  0  0
 63 64  1  0  0  0
 63 66  1  0  0  0
 63141  1  0  0  0
 64 65  2  0  0  0
 64 69  1  0  0  0
 66 67  1  0  0  0
 66 68  1  0  0  0
 66142  1  0  0  0
 67143  1  0  0  0
 67144  1  0  0  0
 67145  1  0  0  0
 68146  1  0  0  0
 68147  1  0  0  0
 68148  1  0  0  0
M  CHG  3   1   1   9  -1  69  -1
M  END
> <s_m_source_file>
../4jff_ligand.sdf

> <i_m_source_file_index>
1

> <s_epik_input>
Tz1DKFtPSF0pW0NIMl1bQ0gyXVtDQEhdKFtOSDMrXSlDKD1PKVtOSF1bQ0BASF0oW0NIMl1bQ0hdKFtDSDNdKVtDSDNdKUMoPU8pW05IXVtDQEBIXShbQ0gzXSlDKD1PKVtOSF1bQ0gyXUMoPU8pW05IXVtDQEBIXShbQ0BASF0oW0NIM10pW0NIMl1bQ0gzXSlDKD1PKVtOSF1bQ0gyXUMoPU8pW05IXVtDQEBIXShbQ0BASF0oW0NIM10pW0NIMl1bQ0gzXSlDKD1PKVtOSF1bQ0BASF0oW0NIMl1bQ0hdKFtDSDNdKVtDSDNdKUMoPU8pW05IXVtDQEBIXShbQ0BIXShbT0hdKVtDSDNdKUMoPU8pW05IXVtDQEhdKEMoPU8pW09IXSlbQ0hdKFtDSDNdKVtDSDNd

> <s_epik_cmdline>
J2VwaWtfYXBwJywgJy1pbWFlJywgJ2xpZ2FuZF9wcm8ubWFlJywgJy1vbWFlJywgJ2xpZ2FuZF9wcmVwLm1hZScsICctbXMnLCAnMScsICctcGgnLCAnNycsICctcGh0JywgJzAuNScsICctbnQn

> <r_epik_Ionization_Penalty>
  0.0750

> <r_epik_Ionization_Penalty_Charging>
  0.0750

> <r_epik_Ionization_Penalty_Neutral>
  0.0000

> <r_epik_State_Penalty>
  0.0649

> <r_epik_Charging_Adjusted_Penalty>
0.139988261612658

> <i_epik_Tot_Q>
-1

> <i_epik_Tot_abs_Q>
3

$$$$
