4jfi_ligand
                    3D
 Schrodinger Suite 2020-3.
 70 74  0  0  1  0            999 V2000
   33.0840   13.0470  -16.9900 O   0  0  0  0  0  0
   32.0100   12.5710  -17.2590 C   0  0  0  0  0  0
   30.8540   13.1660  -16.7030 C   0  0  2  0  0  0
   31.8830   11.4380  -17.9970 N   0  0  0  0  0  0
   32.9930   10.9040  -18.7870 C   0  0  0  0  0  0
   32.6740   11.5930  -20.1930 C   0  0  0  0  0  0
   31.3540   11.0640  -20.6970 C   0  0  0  0  0  0
   31.1020   10.9140  -22.0410 C   0  0  0  0  0  0
   29.8900   10.3820  -22.4720 C   0  0  0  0  0  0
   29.6080   10.2390  -23.8220 O   0  0  0  0  0  0
   30.5780   10.8570  -24.6730 C   0  0  0  0  0  0
   28.9590    9.8650  -21.5870 C   0  0  0  0  0  0
   29.2280    9.9710  -20.2340 C   0  0  0  0  0  0
   28.4510    9.4330  -19.2870 O   0  0  0  0  0  0
   27.2110    8.7150  -19.6970 C   0  0  0  0  0  0
   30.4090   10.6070  -19.7590 C   0  0  0  0  0  0
   30.6300   10.7290  -18.2680 C   0  0  2  0  0  0
   29.4540   11.3930  -17.5040 C   0  0  1  0  0  0
   29.2470   10.8670  -16.1040 C   0  0  0  0  0  0
   30.3620   11.2500  -15.1880 C   0  0  0  0  0  0
   30.6830   12.7360  -15.2690 C   0  0  0  0  0  0
   29.6570   12.8580  -17.4740 N   0  0  0  0  0  0
   28.8370   13.7640  -18.0640 C   0  0  0  0  0  0
   29.1160   15.0100  -18.0200 O   0  0  0  0  0  0
   27.5860   13.2880  -18.7420 C   0  0  0  0  0  0
   26.6450   13.0260  -18.0230 O   0  0  0  0  0  0
   27.5690   13.1990  -20.2020 C   0  0  0  0  0  0
   28.6880   13.6840  -20.9280 C   0  0  0  0  0  0
   26.4380   12.6320  -20.8260 C   0  0  0  0  0  0
   26.3970   12.5900  -22.2240 C   0  0  0  0  0  0
   25.3040   12.0790  -22.8960 O   0  0  0  0  0  0
   24.1430   11.6720  -22.1800 C   0  0  0  0  0  0
   27.4830   13.0840  -22.9650 C   0  0  0  0  0  0
   27.4770   13.0680  -24.3690 O   0  0  0  0  0  0
   26.9690   11.9060  -25.0510 C   0  0  0  0  0  0
   28.6040   13.5960  -22.3340 C   0  0  0  0  0  0
   29.5990   13.9730  -23.1600 O   0  0  0  0  0  0
   30.7460   14.5130  -22.5550 C   0  0  0  0  0  0
   31.0262   14.2489  -16.7899 H   0  0  0  0  0  0
   33.9469   11.2176  -18.3379 H   0  0  0  0  0  0
   32.9380    9.8055  -18.8010 H   0  0  0  0  0  0
   32.6159   12.6836  -20.0621 H   0  0  0  0  0  0
   33.4732   11.3517  -20.9093 H   0  0  0  0  0  0
   31.8541   11.2128  -22.7711 H   0  0  0  0  0  0
   30.2929   10.7053  -25.7245 H   0  0  0  0  0  0
   31.5649   10.4062  -24.4919 H   0  0  0  0  0  0
   30.6219   11.9347  -24.4568 H   0  0  0  0  0  0
   28.0450    9.3905  -21.9442 H   0  0  0  0  0  0
   26.6934    8.3373  -18.8029 H   0  0  0  0  0  0
   27.4752    7.8713  -20.3515 H   0  0  0  0  0  0
   26.5492    9.4064  -20.2392 H   0  0  0  0  0  0
   30.7483    9.7015  -17.8935 H   0  0  0  0  0  0
   28.5169   11.1731  -18.0365 H   0  0  0  0  0  0
   28.3117   11.2752  -15.6935 H   0  0  0  0  0  0
   29.1876    9.7689  -16.1299 H   0  0  0  0  0  0
   30.0811   11.0157  -14.1506 H   0  0  0  0  0  0
   31.2681   10.6880  -15.4584 H   0  0  0  0  0  0
   31.6132   12.9297  -14.7147 H   0  0  0  0  0  0
   29.8589   13.3033  -14.8118 H   0  0  0  0  0  0
   29.5624   14.1007  -20.4281 H   0  0  0  0  0  0
   25.6144   12.2354  -20.2323 H   0  0  0  0  0  0
   23.3890   11.2963  -22.8873 H   0  0  0  0  0  0
   23.7327   12.5307  -21.6284 H   0  0  0  0  0  0
   24.4102   10.8745  -21.4711 H   0  0  0  0  0  0
   27.0371   12.0599  -26.1380 H   0  0  0  0  0  0
   25.9181   11.7453  -24.7685 H   0  0  0  0  0  0
   27.5637   11.0252  -24.7674 H   0  0  0  0  0  0
   31.4789   14.7793  -23.3309 H   0  0  0  0  0  0
   31.1863   13.7692  -21.8746 H   0  0  0  0  0  0
   30.4710   15.4132  -21.9858 H   0  0  0  0  0  0
  1  2  2  0  0  0
  2  3  1  0  0  0
  2  4  1  0  0  0
  3 21  1  0  0  0
  3 22  1  0  0  0
  3 39  1  0  0  0
  4  5  1  0  0  0
  4 17  1  0  0  0
  5  6  1  0  0  0
  5 40  1  0  0  0
  5 41  1  0  0  0
  6  7  1  0  0  0
  6 42  1  0  0  0
  6 43  1  0  0  0
  7  8  2  0  0  0
  7 16  1  0  0  0
  8  9  1  0  0  0
  8 44  1  0  0  0
  9 10  1  0  0  0
  9 12  2  0  0  0
 10 11  1  0  0  0
 11 45  1  0  0  0
 11 46  1  0  0  0
 11 47  1  0  0  0
 12 13  1  0  0  0
 12 48  1  0  0  0
 13 14  1  0  0  0
 13 16  2  0  0  0
 14 15  1  0  0  0
 15 49  1  0  0  0
 15 50  1  0  0  0
 15 51  1  0  0  0
 16 17  1  0  0  0
 17 18  1  0  0  0
 17 52  1  0  0  0
 18 19  1  0  0  0
 18 22  1  0  0  0
 18 53  1  0  0  0
 19 20  1  0  0  0
 19 54  1  0  0  0
 19 55  1  0  0  0
 20 21  1  0  0  0
 20 56  1  0  0  0
 20 57  1  0  0  0
 21 58  1  0  0  0
 21 59  1  0  0  0
 22 23  1  0  0  0
 23 24  2  0  0  0
 23 25  1  0  0  0
 25 26  2  0  0  0
 25 27  1  0  0  0
 27 28  2  0  0  0
 27 29  1  0  0  0
 28 36  1  0  0  0
 28 60  1  0  0  0
 29 30  2  0  0  0
 29 61  1  0  0  0
 30 31  1  0  0  0
 30 33  1  0  0  0
 31 32  1  0  0  0
 32 62  1  0  0  0
 32 63  1  0  0  0
 32 64  1  0  0  0
 33 34  1  0  0  0
 33 36  2  0  0  0
 34 35  1  0  0  0
 35 65  1  0  0  0
 35 66  1  0  0  0
 35 67  1  0  0  0
 36 37  1  0  0  0
 37 38  1  0  0  0
 38 68  1  0  0  0
 38 69  1  0  0  0
 38 70  1  0  0  0
M  END
> <s_m_source_file>
../4jfi_ligand.sdf

> <i_m_source_file_index>
1

> <s_epik_input>
W0NIM11PYzFbY0hdYyhPW0NIM10pW2NIXWMoW0NIMl1bQ0gyXTIpYzFbQ0BASF0oTjJDKD1PKVtDQEhdMzQpW0NAQEhdKFtDSDJdW0NIMl1bQ0gyXTMpTjRDKD1PKUMoPU8pYzVbY0hdYyhPW0NIM10pYyhPW0NIM10pYyhbY0hdNSlPW0NIM10=

> <s_epik_cmdline>
J2VwaWtfYXBwJywgJy1pbWFlJywgJ2xpZ2FuZF9wcm8ubWFlJywgJy1vbWFlJywgJ2xpZ2FuZF9wcmVwLm1hZScsICctbXMnLCAnMScsICctcGgnLCAnNycsICctcGh0JywgJzAuNScsICctbnQn

> <r_lp_tautomer_probability>
1

> <r_epik_Ionization_Penalty>
  0.0000

> <r_epik_Ionization_Penalty_Charging>
  0.0000

> <r_epik_Ionization_Penalty_Neutral>
  0.0000

> <r_epik_State_Penalty>
 -0.0000

> <r_epik_Charging_Adjusted_Penalty>
0

> <i_epik_Tot_Q>
0

> <i_epik_Tot_abs_Q>
0

$$$$
