4jfj_ligand
                    3D
 Schrodinger Suite 2020-3.
 65 69  0  0  1  0            999 V2000
    9.7600   40.0780   17.9400 C   0  0  0  0  0  0
   12.1960   40.3520   18.1350 N   0  0  1  0  0  0
    8.6780   40.3930   17.4660 O   0  0  0  0  0  0
   11.0020   40.7080   17.3160 C   0  0  1  0  0  0
   11.1040   40.2700   15.8600 C   0  0  0  0  0  0
    5.3490   44.8200   20.3450 C   0  0  0  0  0  0
    4.3270   43.9620   19.8420 O   0  0  0  0  0  0
    4.7510   42.6790   19.7080 C   0  0  0  0  0  0
    5.9430   42.2600   20.2850 C   0  0  0  0  0  0
    3.9690   41.7840   18.9930 C   0  0  0  0  0  0
    2.8010   42.2250   18.4350 O   0  0  0  0  0  0
    1.7600   41.2570   18.5460 C   0  0  0  0  0  0
    4.3990   40.4660   18.8600 C   0  0  0  0  0  0
    5.5990   40.0450   19.4340 C   0  0  0  0  0  0
    6.3800   40.9460   20.1520 C   0  0  0  0  0  0
    7.5700   40.5960   20.7380 O   0  0  0  0  0  0
    7.9220   39.2020   20.7640 C   0  0  0  0  0  0
    8.3930   38.6830   19.4040 C   0  0  0  0  0  0
    9.7030   39.2240   18.9700 N   0  0  0  0  0  0
   10.9180   38.7490   19.6590 C   0  0  0  0  0  0
   11.8350   37.9970   18.6890 C   0  0  0  0  0  0
   12.7360   38.9760   17.9270 C   0  0  1  0  0  0
   12.7780   38.5460   16.4630 C   0  0  0  0  0  0
   11.4280   38.7890   15.8060 C   0  0  0  0  0  0
   13.3740   41.5500   18.2230 S   0  0  0  0  0  0
   12.7700   42.8460   17.8250 O   0  0  0  0  0  0
   14.5800   41.1900   17.4140 O   0  0  0  0  0  0
   13.8030   41.5760   19.9160 C   0  0  0  0  0  0
   14.9200   40.8840   20.3320 C   0  0  0  0  0  0
   15.3030   40.8600   21.6700 C   0  0  0  0  0  0
   16.5900   40.1320   22.4830 S   0  0  0  0  0  0
   16.1690   40.6970   24.0190 C   0  0  0  0  0  0
   15.0530   41.4310   23.8810 N   0  0  0  0  0  0
   14.5530   41.5460   22.6310 C   0  0  0  0  0  0
   13.4220   42.2430   22.2050 C   0  0  0  0  0  0
   13.0490   42.2510   20.8630 C   0  0  0  0  0  0
   10.9603   41.8072   17.3260 H   0  0  0  0  0  0
   10.1459   40.4570   15.3529 H   0  0  0  0  0  0
   11.9007   40.8406   15.3604 H   0  0  0  0  0  0
    4.9569   45.8438   20.4349 H   0  0  0  0  0  0
    6.2051   44.8146   19.6543 H   0  0  0  0  0  0
    5.6733   44.4634   21.3338 H   0  0  0  0  0  0
    6.5450   42.9714   20.8504 H   0  0  0  0  0  0
    0.8420   41.6515   18.0860 H   0  0  0  0  0  0
    1.5737   41.0391   19.6080 H   0  0  0  0  0  0
    2.0613   40.3337   18.0296 H   0  0  0  0  0  0
    3.7908   39.7549   18.3009 H   0  0  0  0  0  0
    5.9247   39.0110   19.3202 H   0  0  0  0  0  0
    8.7378   39.0432   21.4846 H   0  0  0  0  0  0
    7.0463   38.6082   21.0648 H   0  0  0  0  0  0
    8.4922   37.5882   19.4437 H   0  0  0  0  0  0
    7.6583   38.9568   18.6325 H   0  0  0  0  0  0
   11.4663   39.6093   20.0703 H   0  0  0  0  0  0
   10.6342   38.0702   20.4768 H   0  0  0  0  0  0
   12.4681   37.2955   19.2522 H   0  0  0  0  0  0
   11.2237   37.4387   17.9647 H   0  0  0  0  0  0
   13.7730   39.0005   18.2932 H   0  0  0  0  0  0
   13.5468   39.1267   15.9322 H   0  0  0  0  0  0
   13.0206   37.4748   16.4023 H   0  0  0  0  0  0
   10.6507   38.2239   16.3413 H   0  0  0  0  0  0
   11.4641   38.4595   14.7571 H   0  0  0  0  0  0
   15.5166   40.3436   19.5970 H   0  0  0  0  0  0
   16.7037   40.5020   24.9486 H   0  0  0  0  0  0
   12.8217   42.7891   22.9327 H   0  0  0  0  0  0
   12.1553   42.7935   20.5545 H   0  0  0  0  0  0
  1  3  2  0  0  0
  1  4  1  0  0  0
  1 19  1  0  0  0
  2  4  1  0  0  0
  2 22  1  0  0  0
  2 25  1  0  0  0
  4  5  1  0  0  0
  4 37  1  0  0  0
  5 24  1  0  0  0
  5 38  1  0  0  0
  5 39  1  0  0  0
  6  7  1  0  0  0
  6 40  1  0  0  0
  6 41  1  0  0  0
  6 42  1  0  0  0
  7  8  1  0  0  0
  8  9  2  0  0  0
  8 10  1  0  0  0
  9 15  1  0  0  0
  9 43  1  0  0  0
 10 11  1  0  0  0
 10 13  2  0  0  0
 11 12  1  0  0  0
 12 44  1  0  0  0
 12 45  1  0  0  0
 12 46  1  0  0  0
 13 14  1  0  0  0
 13 47  1  0  0  0
 14 15  2  0  0  0
 14 48  1  0  0  0
 15 16  1  0  0  0
 16 17  1  0  0  0
 17 18  1  0  0  0
 17 49  1  0  0  0
 17 50  1  0  0  0
 18 19  1  0  0  0
 18 51  1  0  0  0
 18 52  1  0  0  0
 19 20  1  0  0  0
 20 21  1  0  0  0
 20 53  1  0  0  0
 20 54  1  0  0  0
 21 22  1  0  0  0
 21 55  1  0  0  0
 21 56  1  0  0  0
 22 23  1  0  0  0
 22 57  1  0  0  0
 23 24  1  0  0  0
 23 58  1  0  0  0
 23 59  1  0  0  0
 24 60  1  0  0  0
 24 61  1  0  0  0
 25 26  2  0  0  0
 25 27  2  0  0  0
 25 28  1  0  0  0
 28 29  2  0  0  0
 28 36  1  0  0  0
 29 30  1  0  0  0
 29 62  1  0  0  0
 30 31  1  0  0  0
 30 34  2  0  0  0
 31 32  1  0  0  0
 32 33  2  0  0  0
 32 63  1  0  0  0
 33 34  1  0  0  0
 34 35  1  0  0  0
 35 36  2  0  0  0
 35 64  1  0  0  0
 36 65  1  0  0  0
M  END
> <s_m_source_file>
../4jfj_ligand.sdf

> <i_m_source_file_index>
1

> <s_epik_input>
W0NIM11PYzFbY0hdW2NIXWMoW2NIXWMxT1tDSDNdKU9bQ0gyXVtDSDJdTihDKD1PKVtDQEBIXTIzKVtDSDJdW0NIMl1bQ0BASF0oW0NIMl1bQ0gyXVtDSDJdMylOMlMoPU8pKD1PKWMoW2NIXTQpW2NIXVtjSF1jKGM0NSluW2NIXXM1

> <s_epik_cmdline>
J2VwaWtfYXBwJywgJy1pbWFlJywgJ2xpZ2FuZF9wcm8ubWFlJywgJy1vbWFlJywgJ2xpZ2FuZF9wcmVwLm1hZScsICctbXMnLCAnMScsICctcGgnLCAnNycsICctcGh0JywgJzAuNScsICctbnQn

> <r_lp_tautomer_probability>
1

> <r_epik_Ionization_Penalty>
  0.0000

> <r_epik_Ionization_Penalty_Charging>
  0.0000

> <r_epik_Ionization_Penalty_Neutral>
  0.0000

> <r_epik_State_Penalty>
 -0.0000

> <r_epik_Charging_Adjusted_Penalty>
0

> <i_epik_Tot_Q>
0

> <i_epik_Tot_abs_Q>
0

$$$$
