4jfk_ligand
                    3D
 Schrodinger Suite 2020-3.
 66 70  0  0  1  0            999 V2000
   11.3330  -14.2970  -17.9040 C   0  0  0  0  0  0
    8.9850  -14.0180  -18.1440 N   0  0  1  0  0  0
   12.4180  -14.0440  -17.3880 O   0  0  0  0  0  0
   10.1920  -13.6970  -17.3300 C   0  0  1  0  0  0
   10.0560  -14.1450  -15.8830 C   0  0  0  0  0  0
   19.0940  -13.1060  -17.6740 C   0  0  0  0  0  0
   15.9110   -9.6510  -20.3990 C   0  0  0  0  0  0
    6.2230  -11.6080  -25.5340 O   0  0  0  0  0  0
    8.4240  -11.4810  -17.8280 O   0  0  0  0  0  0
    6.6180  -13.1830  -17.3090 O   0  0  0  0  0  0
   15.5980  -14.4320  -19.4120 C   0  0  0  0  0  0
   16.8120  -14.0090  -18.8640 C   0  0  0  0  0  0
    6.0940  -13.5180  -20.1110 C   0  0  0  0  0  0
    5.5500  -13.5410  -21.3840 C   0  0  0  0  0  0
   15.1710  -12.1890  -20.1480 C   0  0  0  0  0  0
    7.7040  -11.9750  -20.8470 C   0  0  0  0  0  0
    9.7310  -15.6250  -15.8600 C   0  0  0  0  0  0
   13.2260  -15.2260  -20.7210 C   0  0  0  0  0  0
    8.3830  -15.8680  -16.5170 C   0  0  0  0  0  0
    9.2710  -16.3600  -18.8360 C   0  0  0  0  0  0
   12.6950  -15.6750  -19.3560 C   0  0  0  0  0  0
   10.1690  -15.5030  -19.7340 C   0  0  0  0  0  0
    5.6550  -12.7040  -23.6240 N   0  0  0  0  0  0
   18.3600  -12.1590  -18.4520 O   0  0  0  0  0  0
   16.8070  -10.4840  -19.6590 O   0  0  0  0  0  0
   13.5640  -13.8600  -20.6150 O   0  0  0  0  0  0
    7.5170  -11.2530  -23.4650 S   0  0  0  0  0  0
   14.7710  -13.5170  -20.0600 C   0  0  0  0  0  0
    7.1800  -12.7420  -19.8180 C   0  0  0  0  0  0
   17.1960  -12.6740  -18.9550 C   0  0  0  0  0  0
   16.3710  -11.7710  -19.6000 C   0  0  0  0  0  0
    6.3920  -11.8660  -24.3470 C   0  0  0  0  0  0
    6.0760  -12.7940  -22.3460 C   0  0  0  0  0  0
    7.1450  -12.0180  -22.0690 C   0  0  0  0  0  0
    8.4320  -15.3950  -17.9690 C   0  0  2  0  0  0
   11.3560  -15.1200  -18.9740 N   0  0  0  0  0  0
    7.7870  -12.7950  -18.1780 S   0  0  0  0  0  0
   10.3524  -12.6098  -17.3769 H   0  0  0  0  0  0
   11.0020  -13.9623  -15.3522 H   0  0  0  0  0  0
    9.2479  -13.5778  -15.3979 H   0  0  0  0  0  0
   20.0151  -12.6365  -17.2984 H   0  0  0  0  0  0
   19.3530  -13.9726  -18.3000 H   0  0  0  0  0  0
   18.4789  -13.4380  -16.8246 H   0  0  0  0  0  0
   16.3007   -8.6226  -20.4216 H   0  0  0  0  0  0
   14.9219   -9.6579  -19.9176 H   0  0  0  0  0  0
   15.8211  -10.0317  -21.4271 H   0  0  0  0  0  0
   15.2984  -15.4770  -19.3325 H   0  0  0  0  0  0
   17.4610  -14.7274  -18.3632 H   0  0  0  0  0  0
    5.6476  -14.1305  -19.3277 H   0  0  0  0  0  0
    4.6882  -14.1738  -21.5961 H   0  0  0  0  0  0
   14.5311  -11.4671  -20.6554 H   0  0  0  0  0  0
    8.5690  -11.3372  -20.6654 H   0  0  0  0  0  0
   10.5071  -16.1794  -16.4080 H   0  0  0  0  0  0
    9.6958  -15.9765  -14.8183 H   0  0  0  0  0  0
   14.1121  -15.8224  -20.9839 H   0  0  0  0  0  0
   12.4467  -15.3715  -21.4836 H   0  0  0  0  0  0
    8.1498  -16.9426  -16.4889 H   0  0  0  0  0  0
    7.6052  -15.3098  -15.9754 H   0  0  0  0  0  0
    8.6165  -16.9849  -19.4614 H   0  0  0  0  0  0
    9.8960  -17.0049  -18.2008 H   0  0  0  0  0  0
   12.5932  -16.7702  -19.3444 H   0  0  0  0  0  0
   13.3974  -15.3637  -18.5688 H   0  0  0  0  0  0
   10.4627  -16.0842  -20.6205 H   0  0  0  0  0  0
    9.6200  -14.6038  -20.0505 H   0  0  0  0  0  0
    4.8082  -13.2317  -24.0872 H   0  0  0  0  0  0
    7.3809  -15.3473  -18.2899 H   0  0  0  0  0  0
  1  3  2  0  0  0
  1  4  1  0  0  0
  1 36  1  0  0  0
  2  4  1  0  0  0
  2 35  1  0  0  0
  2 37  1  0  0  0
  4  5  1  0  0  0
  4 38  1  0  0  0
  5 17  1  0  0  0
  5 39  1  0  0  0
  5 40  1  0  0  0
  6 24  1  0  0  0
  6 41  1  0  0  0
  6 42  1  0  0  0
  6 43  1  0  0  0
  7 25  1  0  0  0
  7 44  1  0  0  0
  7 45  1  0  0  0
  7 46  1  0  0  0
  8 32  2  0  0  0
  9 37  2  0  0  0
 10 37  2  0  0  0
 11 12  2  0  0  0
 11 28  1  0  0  0
 11 47  1  0  0  0
 12 30  1  0  0  0
 12 48  1  0  0  0
 13 14  2  0  0  0
 13 29  1  0  0  0
 13 49  1  0  0  0
 14 33  1  0  0  0
 14 50  1  0  0  0
 15 28  2  0  0  0
 15 31  1  0  0  0
 15 51  1  0  0  0
 16 29  2  0  0  0
 16 34  1  0  0  0
 16 52  1  0  0  0
 17 19  1  0  0  0
 17 53  1  0  0  0
 17 54  1  0  0  0
 18 21  1  0  0  0
 18 26  1  0  0  0
 18 55  1  0  0  0
 18 56  1  0  0  0
 19 35  1  0  0  0
 19 57  1  0  0  0
 19 58  1  0  0  0
 20 22  1  0  0  0
 20 35  1  0  0  0
 20 59  1  0  0  0
 20 60  1  0  0  0
 21 36  1  0  0  0
 21 61  1  0  0  0
 21 62  1  0  0  0
 22 36  1  0  0  0
 22 63  1  0  0  0
 22 64  1  0  0  0
 23 32  1  0  0  0
 23 33  1  0  0  0
 23 65  1  0  0  0
 24 30  1  0  0  0
 25 31  1  0  0  0
 26 28  1  0  0  0
 27 32  1  0  0  0
 27 34  1  0  0  0
 29 37  1  0  0  0
 30 31  2  0  0  0
 33 34  2  0  0  0
 35 66  1  0  0  0
M  END
> <s_m_source_file>
../4jfk_ligand.sdf

> <i_m_source_file_index>
1

> <s_epik_input>
W0NIM11PYyhbY0hdMSljKE9bQ0gzXSlbY0hdW2NIXWMxT1tDSDJdW0NIMl1OKEMoPU8pW0NAQEhdMjMpW0NIMl1bQ0gyXVtDQEBIXShbQ0gyXVtDSDJdW0NIMl0zKU4yUyg9TykoPU8pYyhbY0hdW2NIXTQpW2NIXWMoYzQ1KXNjKD1PKVtuSF01

> <s_epik_cmdline>
J2VwaWtfYXBwJywgJy1pbWFlJywgJ2xpZ2FuZF9wcm8ubWFlJywgJy1vbWFlJywgJ2xpZ2FuZF9wcmVwLm1hZScsICctbXMnLCAnMScsICctcGgnLCAnNycsICctcGh0JywgJzAuNScsICctbnQn

> <r_lp_tautomer_probability>
1

> <r_epik_Ionization_Penalty>
  0.0022

> <r_epik_Ionization_Penalty_Charging>
  0.0022

> <r_epik_Ionization_Penalty_Neutral>
  0.0000

> <r_epik_State_Penalty>
 -0.0000

> <r_epik_Charging_Adjusted_Penalty>
0.00222398753308473

> <i_epik_Tot_Q>
0

> <i_epik_Tot_abs_Q>
0

$$$$
