4jfl_ligand
                    3D
 Schrodinger Suite 2020-3.
 63 67  0  0  1  0            999 V2000
   11.2910  -14.2790  -17.5280 C   0  0  0  0  0  0
    9.1300  -13.8320  -18.0610 N   0  0  1  0  0  0
   12.4150  -13.8470  -17.2910 O   0  0  0  0  0  0
   10.1720  -13.5930  -17.0540 C   0  0  1  0  0  0
    9.7810  -14.0850  -15.6840 C   0  0  0  0  0  0
   18.9910  -13.2400  -17.8350 C   0  0  0  0  0  0
   16.9250  -10.4000  -20.9670 C   0  0  0  0  0  0
    4.2210  -14.1070  -24.6980 O   0  0  0  0  0  0
    8.2450  -11.3690  -17.6210 O   0  0  0  0  0  0
    6.6000  -13.2540  -17.2770 O   0  0  0  0  0  0
   15.3920  -14.6560  -19.2740 C   0  0  0  0  0  0
   16.6650  -14.2280  -18.8950 C   0  0  0  0  0  0
    7.9510  -11.9860  -20.8030 C   0  0  0  0  0  0
    7.4960  -12.0560  -22.1140 C   0  0  0  0  0  0
   14.8440  -12.4160  -19.9010 C   0  0  0  0  0  0
    6.2390  -13.4870  -20.2330 C   0  0  0  0  0  0
    9.6740  -15.5510  -15.7420 C   0  0  0  0  0  0
   12.9240  -15.5260  -20.2050 C   0  0  0  0  0  0
    8.4900  -15.8060  -16.6620 C   0  0  0  0  0  0
   12.4650  -15.9900  -18.8010 C   0  0  0  0  0  0
    9.9190  -16.0130  -18.7020 C   0  0  0  0  0  0
    5.9140  -12.9740  -23.6810 N   0  0  0  0  0  0
   18.2380  -12.3690  -18.6780 O   0  0  0  0  0  0
   16.5080  -10.6900  -19.6280 O   0  0  0  0  0  0
   13.2020  -14.1340  -20.1590 O   0  0  0  0  0  0
    4.5940  -14.3600  -22.2340 S   0  0  0  0  0  0
   14.4670  -13.7520  -19.7820 C   0  0  0  0  0  0
    7.3000  -12.7140  -19.8250 C   0  0  0  0  0  0
   17.0210  -12.8880  -19.0190 C   0  0  0  0  0  0
   16.1070  -11.9880  -19.5260 C   0  0  0  0  0  0
    4.8720  -13.8080  -23.6980 C   0  0  0  0  0  0
    6.4550  -12.8150  -22.4540 C   0  0  0  0  0  0
    5.8330  -13.5300  -21.5030 C   0  0  0  0  0  0
    8.7700  -15.2490  -18.0580 C   0  0  2  0  0  0
   11.1940  -15.3610  -18.3370 N   0  0  0  0  0  0
    7.7840  -12.7370  -18.0890 S   0  0  0  0  0  0
   10.4093  -12.5222  -16.9701 H   0  0  0  0  0  0
   10.5493  -13.7884  -14.9548 H   0  0  0  0  0  0
    8.8146  -13.6442  -15.3981 H   0  0  0  0  0  0
   19.9570  -12.7723  -17.5939 H   0  0  0  0  0  0
   19.1650  -14.1936  -18.3550 H   0  0  0  0  0  0
   18.4315  -13.4255  -16.9063 H   0  0  0  0  0  0
   17.2451   -9.3496  -21.0319 H   0  0  0  0  0  0
   16.0859  -10.5710  -21.6575 H   0  0  0  0  0  0
   17.7642  -11.0567  -21.2400 H   0  0  0  0  0  0
   15.1213  -15.7068  -19.1708 H   0  0  0  0  0  0
   17.3837  -14.9461  -18.5001 H   0  0  0  0  0  0
    8.8101  -11.3651  -20.5492 H   0  0  0  0  0  0
    8.0037  -11.4751  -22.8840 H   0  0  0  0  0  0
   14.1309  -11.6931  -20.2971 H   0  0  0  0  0  0
    5.7103  -14.0865  -19.4920 H   0  0  0  0  0  0
   10.6070  -15.9710  -16.1458 H   0  0  0  0  0  0
    9.5017  -15.9464  -14.7301 H   0  0  0  0  0  0
   13.8303  -16.0776  -20.4953 H   0  0  0  0  0  0
   12.1254  -15.7226  -20.9354 H   0  0  0  0  0  0
    8.3110  -16.8887  -16.7376 H   0  0  0  0  0  0
    7.5952  -15.3141  -16.2529 H   0  0  0  0  0  0
   12.3036  -17.0781  -18.8090 H   0  0  0  0  0  0
   13.2392  -15.7396  -18.0608 H   0  0  0  0  0  0
    9.9166  -17.0519  -18.3406 H   0  0  0  0  0  0
    9.7976  -16.0048  -19.7953 H   0  0  0  0  0  0
    6.2499  -12.4945  -24.6122 H   0  0  0  0  0  0
    7.8328  -15.3222  -18.6292 H   0  0  0  0  0  0
  1  3  2  0  0  0
  1  4  1  0  0  0
  1 35  1  0  0  0
  2  4  1  0  0  0
  2 34  1  0  0  0
  2 36  1  0  0  0
  4  5  1  0  0  0
  4 37  1  0  0  0
  5 17  1  0  0  0
  5 38  1  0  0  0
  5 39  1  0  0  0
  6 23  1  0  0  0
  6 40  1  0  0  0
  6 41  1  0  0  0
  6 42  1  0  0  0
  7 24  1  0  0  0
  7 43  1  0  0  0
  7 44  1  0  0  0
  7 45  1  0  0  0
  8 31  2  0  0  0
  9 36  2  0  0  0
 10 36  2  0  0  0
 11 12  2  0  0  0
 11 27  1  0  0  0
 11 46  1  0  0  0
 12 29  1  0  0  0
 12 47  1  0  0  0
 13 14  2  0  0  0
 13 28  1  0  0  0
 13 48  1  0  0  0
 14 32  1  0  0  0
 14 49  1  0  0  0
 15 27  2  0  0  0
 15 30  1  0  0  0
 15 50  1  0  0  0
 16 28  2  0  0  0
 16 33  1  0  0  0
 16 51  1  0  0  0
 17 19  1  0  0  0
 17 52  1  0  0  0
 17 53  1  0  0  0
 18 20  1  0  0  0
 18 25  1  0  0  0
 18 54  1  0  0  0
 18 55  1  0  0  0
 19 34  1  0  0  0
 19 56  1  0  0  0
 19 57  1  0  0  0
 20 35  1  0  0  0
 20 58  1  0  0  0
 20 59  1  0  0  0
 21 34  1  0  0  0
 21 35  1  0  0  0
 21 60  1  0  0  0
 21 61  1  0  0  0
 22 31  1  0  0  0
 22 32  1  0  0  0
 22 62  1  0  0  0
 23 29  1  0  0  0
 24 30  1  0  0  0
 25 27  1  0  0  0
 26 31  1  0  0  0
 26 33  1  0  0  0
 28 36  1  0  0  0
 29 30  2  0  0  0
 32 33  2  0  0  0
 34 63  1  0  0  0
M  END
> <s_m_source_file>
../4jfl_ligand.sdf

> <i_m_source_file_index>
1

> <s_epik_input>
Tz1jKFtuSF0xKXNjKGMxMilbY0hdYyhbY0hdW2NIXTIpUyg9TykoPU8pTjNbQ0BIXShbQ0gyXVtDSDJdW0NIMl00KVtDSDJdTihDKD1PKVtDQEBIXTM0KVtDSDJdW0NIMl1PYzVbY0hdW2NIXWMoT1tDSDNdKWMoW2NIXTUpT1tDSDNd

> <s_epik_cmdline>
J2VwaWtfYXBwJywgJy1pbWFlJywgJ2xpZ2FuZF9wcm8ubWFlJywgJy1vbWFlJywgJ2xpZ2FuZF9wcmVwLm1hZScsICctbXMnLCAnMScsICctcGgnLCAnNycsICctcGh0JywgJzAuNScsICctbnQn

> <r_lp_tautomer_probability>
1

> <r_epik_Ionization_Penalty>
  0.0022

> <r_epik_Ionization_Penalty_Charging>
  0.0022

> <r_epik_Ionization_Penalty_Neutral>
  0.0000

> <r_epik_State_Penalty>
 -0.0000

> <r_epik_Charging_Adjusted_Penalty>
0.00223953338924367

> <i_epik_Tot_Q>
0

> <i_epik_Tot_abs_Q>
0

$$$$
