4jfm_ligand
                    3D
 Schrodinger Suite 2020-3.
 61 64  0  0  1  0            999 V2000
    6.1240   19.6950   20.3490 C   0  0  0  0  0  0
    6.3010   19.0420   21.6000 O   0  0  0  0  0  0
    7.6210   18.7160   21.8160 C   0  0  0  0  0  0
    8.4070   18.2160   20.7660 C   0  0  0  0  0  0
    8.1570   18.8600   23.1220 C   0  0  0  0  0  0
    7.3640   19.3190   24.1360 O   0  0  0  0  0  0
    7.3600   20.7680   24.2750 C   0  0  0  0  0  0
    9.4870   18.5150   23.3460 C   0  0  0  0  0  0
   10.2740   18.0280   22.2950 C   0  0  0  0  0  0
    9.7290   17.8870   21.0040 C   0  0  0  0  0  0
   10.4390   17.4240   19.9540 O   0  0  0  0  0  0
   11.2320   16.3970   20.4180 C   0  0  0  0  0  0
   11.7950   15.8680   19.1660 C   0  0  0  0  0  0
   10.7830   15.0820   18.5630 O   0  0  0  0  0  0
   11.0880   14.3770   17.5240 C   0  0  0  0  0  0
   12.2050   14.2100   17.1070 O   0  0  0  0  0  0
    9.9540   13.8030   16.8230 C   0  0  2  0  0  0
   10.0200   14.1370   15.3780 C   0  0  0  0  0  0
    9.6530   15.6150   15.1200 C   0  0  0  0  0  0
    8.2870   15.9950   15.6630 C   0  0  0  0  0  0
    8.1920   15.6080   17.1320 C   0  0  0  0  0  0
    8.5850   14.1810   17.2470 N   0  0  3  0  0  0
    7.6320   13.1760   18.0740 S   0  0  0  0  0  0
    8.2250   11.9030   17.9950 O   0  0  0  0  0  0
    6.3030   13.3030   17.5370 O   0  0  0  0  0  0
    7.5340   13.7220   19.7090 C   0  0  0  0  0  0
    6.4850   14.4870   20.1330 C   0  0  0  0  0  0
    6.4200   14.8530   21.4160 C   0  0  0  0  0  0
    5.2450   15.7570   22.2800 S   0  0  0  0  0  0
    6.0680   15.6820   23.7080 C   0  0  0  0  0  0
    5.7130   16.1590   24.7820 O   0  0  0  0  0  0
    7.2170   14.9820   23.5360 N   0  0  0  0  0  0
    7.4330   14.5180   22.2900 C   0  0  0  0  0  0
    8.5190   13.8200   21.9020 C   0  0  0  0  0  0
    8.5610   13.4030   20.5520 C   0  0  0  0  0  0
    5.0606   19.9399   20.2105 H   0  0  0  0  0  0
    6.4558   19.0299   19.5381 H   0  0  0  0  0  0
    6.7188   20.6202   20.3309 H   0  0  0  0  0  0
    7.9791   18.0881   19.7717 H   0  0  0  0  0  0
    6.7015   21.0546   25.1082 H   0  0  0  0  0  0
    6.9931   21.2246   23.3439 H   0  0  0  0  0  0
    8.3823   21.1197   24.4779 H   0  0  0  0  0  0
    9.9168   18.6242   24.3417 H   0  0  0  0  0  0
   11.3139   17.7566   22.4771 H   0  0  0  0  0  0
   11.9945   16.8018   21.0997 H   0  0  0  0  0  0
   10.6092   15.6673   20.9562 H   0  0  0  0  0  0
   12.0827   16.7039   18.5114 H   0  0  0  0  0  0
   12.6816   15.2573   19.3918 H   0  0  0  0  0  0
   10.0932   12.7441   17.0865 H   0  0  0  0  0  0
   11.0410   13.9626   15.0076 H   0  0  0  0  0  0
    9.3148   13.5016   14.8222 H   0  0  0  0  0  0
   10.3958   16.2669   15.6029 H   0  0  0  0  0  0
    9.6455   15.8073   14.0370 H   0  0  0  0  0  0
    8.1414   17.0806   15.5621 H   0  0  0  0  0  0
    7.5069   15.4662   15.0958 H   0  0  0  0  0  0
    8.8705   16.2412   17.7226 H   0  0  0  0  0  0
    7.1592   15.7506   17.4827 H   0  0  0  0  0  0
    5.7093   14.7955   19.4321 H   0  0  0  0  0  0
    7.8990   14.8270   24.3851 H   0  0  0  0  0  0
    9.3265   13.5881   22.5964 H   0  0  0  0  0  0
    9.4109   12.8281   20.1842 H   0  0  0  0  0  0
  1  2  1  0  0  0
  1 36  1  0  0  0
  1 37  1  0  0  0
  1 38  1  0  0  0
  2  3  1  0  0  0
  3  4  2  0  0  0
  3  5  1  0  0  0
  4 10  1  0  0  0
  4 39  1  0  0  0
  5  6  1  0  0  0
  5  8  2  0  0  0
  6  7  1  0  0  0
  7 40  1  0  0  0
  7 41  1  0  0  0
  7 42  1  0  0  0
  8  9  1  0  0  0
  8 43  1  0  0  0
  9 10  2  0  0  0
  9 44  1  0  0  0
 10 11  1  0  0  0
 11 12  1  0  0  0
 12 13  1  0  0  0
 12 45  1  0  0  0
 12 46  1  0  0  0
 13 14  1  0  0  0
 13 47  1  0  0  0
 13 48  1  0  0  0
 14 15  1  0  0  0
 15 16  2  0  0  0
 15 17  1  0  0  0
 17 18  1  0  0  0
 17 22  1  0  0  0
 17 49  1  0  0  0
 18 19  1  0  0  0
 18 50  1  0  0  0
 18 51  1  0  0  0
 19 20  1  0  0  0
 19 52  1  0  0  0
 19 53  1  0  0  0
 20 21  1  0  0  0
 20 54  1  0  0  0
 20 55  1  0  0  0
 21 22  1  0  0  0
 21 56  1  0  0  0
 21 57  1  0  0  0
 22 23  1  0  0  0
 23 24  2  0  0  0
 23 25  2  0  0  0
 23 26  1  0  0  0
 26 27  2  0  0  0
 26 35  1  0  0  0
 27 28  1  0  0  0
 27 58  1  0  0  0
 28 29  1  0  0  0
 28 33  2  0  0  0
 29 30  1  0  0  0
 30 31  2  0  0  0
 30 32  1  0  0  0
 32 33  1  0  0  0
 32 59  1  0  0  0
 33 34  1  0  0  0
 34 35  2  0  0  0
 34 60  1  0  0  0
 35 61  1  0  0  0
M  END
> <s_m_source_file>
../4jfm_ligand.sdf

> <i_m_source_file_index>
1

> <s_epik_input>
W0NIM11PYzFbY0hdW2NIXWMoW2NIXWMxT1tDSDNdKU9bQ0gyXVtDSDJdT0MoPU8pW0NAQEhdMltDSDJdW0NIMl1bQ0gyXVtDSDJdTjJTKD1PKSg9TyljKFtjSF0zKVtjSF1bY0hdYyhjMzQpW25IXWMoczQpPU8=

> <s_epik_cmdline>
J2VwaWtfYXBwJywgJy1pbWFlJywgJ2xpZ2FuZF9wcm8ubWFlJywgJy1vbWFlJywgJ2xpZ2FuZF9wcmVwLm1hZScsICctbXMnLCAnMScsICctcGgnLCAnNycsICctcGh0JywgJzAuNScsICctbnQn

> <r_lp_tautomer_probability>
1

> <r_epik_Ionization_Penalty>
  0.0023

> <r_epik_Ionization_Penalty_Charging>
  0.0023

> <r_epik_Ionization_Penalty_Neutral>
  0.0000

> <r_epik_State_Penalty>
 -0.0000

> <r_epik_Charging_Adjusted_Penalty>
0.00227337275161018

> <i_epik_Tot_Q>
0

> <i_epik_Tot_abs_Q>
0

> <s_epik_Chemistry_Notes>
This compound has an ester and may undergo hydrolysis at high or low pH.

$$$$
