4jft_ligand
                    3D
 Schrodinger Suite 2020-3.
 34 35  0  0  1  0            999 V2000
  -18.1530   14.7740   37.0720 C   0  0  0  0  0  0
  -18.1630   15.0560   35.6450 O   0  0  0  0  0  0
  -17.7670   14.0940   34.7430 C   0  0  0  0  0  0
  -17.0370   12.9660   35.0920 C   0  0  0  0  0  0
  -16.6620   12.0460   34.1110 C   0  0  0  0  0  0
  -18.0680   14.3010   33.4120 C   0  0  0  0  0  0
  -17.7040   13.3980   32.4420 C   0  0  0  0  0  0
  -16.9870   12.2630   32.7710 C   0  0  0  0  0  0
  -16.6610   11.3210   31.7540 C   0  0  2  0  0  0
  -17.3620    9.9910   32.0650 N   0  3  0  0  0  0
  -16.2650    9.0070   32.1260 C   0  0  1  0  0  0
  -16.6710    7.5670   31.9020 C   0  0  0  0  0  0
  -15.2520    9.5450   31.0230 C   0  0  1  0  0  0
  -15.8070    9.4100   29.7050 O   0  0  0  0  0  0
  -15.1890   10.9860   31.6330 C   0  0  1  0  0  0
  -14.4300   11.9690   30.8940 O   0  0  0  0  0  0
  -18.5003   15.6603   37.6233 H   0  0  0  0  0  0
  -17.1301   14.5226   37.3889 H   0  0  0  0  0  0
  -18.8211   13.9259   37.2828 H   0  0  0  0  0  0
  -16.7566   12.7985   36.1319 H   0  0  0  0  0  0
  -16.1102   11.1497   34.3943 H   0  0  0  0  0  0
  -18.6077   15.2029   33.1231 H   0  0  0  0  0  0
  -17.9832   13.5785   31.4039 H   0  0  0  0  0  0
  -16.9927   11.8599   30.8543 H   0  0  0  0  0  0
  -17.8956   10.0731   33.0234 H   0  0  0  0  0  0
  -18.0798    9.7588   31.2644 H   0  0  0  0  0  0
  -15.8994    8.9458   33.1617 H   0  0  0  0  0  0
  -17.3685    7.2554   32.6934 H   0  0  0  0  0  0
  -15.7775    6.9259   31.9274 H   0  0  0  0  0  0
  -17.1622    7.4727   30.9223 H   0  0  0  0  0  0
  -14.2979    9.0581   30.7726 H   0  0  0  0  0  0
  -15.8723    8.4178   29.2347 H   0  0  0  0  0  0
  -14.6035   11.0788   32.5596 H   0  0  0  0  0  0
  -14.3489   12.9989   31.2717 H   0  0  0  0  0  0
  1  2  1  0  0  0
  1 17  1  0  0  0
  1 18  1  0  0  0
  1 19  1  0  0  0
  2  3  1  0  0  0
  3  4  2  0  0  0
  3  6  1  0  0  0
  4  5  1  0  0  0
  4 20  1  0  0  0
  5  8  2  0  0  0
  5 21  1  0  0  0
  6  7  2  0  0  0
  6 22  1  0  0  0
  7  8  1  0  0  0
  7 23  1  0  0  0
  8  9  1  0  0  0
  9 10  1  0  0  0
  9 15  1  0  0  0
  9 24  1  0  0  0
 10 11  1  0  0  0
 10 25  1  0  0  0
 10 26  1  0  0  0
 11 12  1  0  0  0
 11 13  1  0  0  0
 11 27  1  0  0  0
 12 28  1  0  0  0
 12 29  1  0  0  0
 12 30  1  0  0  0
 13 14  1  0  0  0
 13 15  1  0  0  0
 13 31  1  0  0  0
 14 32  1  0  0  0
 15 16  1  0  0  0
 15 33  1  0  0  0
 16 34  1  0  0  0
M  CHG  1  10   1
M  END
> <s_m_source_file>
../4jft_ligand.sdf

> <i_m_source_file_index>
1

> <s_epik_input>
W0NIM11PYzFbY0hdW2NIXWMoW2NIXVtjSF0xKVtDQEBIXTJbTkgyK11bQ0BASF0oW0NIM10pW0NAQEhdKFtPSF0pW0NASF0yW09IXQ==

> <s_epik_cmdline>
J2VwaWtfYXBwJywgJy1pbWFlJywgJ2xpZ2FuZF9wcm8ubWFlJywgJy1vbWFlJywgJ2xpZ2FuZF9wcmVwLm1hZScsICctbXMnLCAnMScsICctcGgnLCAnNycsICctcGh0JywgJzAuNScsICctbnQn

> <r_lp_tautomer_probability>
1

> <r_epik_Ionization_Penalty>
  0.0088

> <r_epik_Ionization_Penalty_Charging>
  0.0088

> <r_epik_Ionization_Penalty_Neutral>
  0.0000

> <r_epik_State_Penalty>
 -0.0000

> <r_epik_Charging_Adjusted_Penalty>
0.00875178064508594

> <i_epik_Tot_Q>
1

> <i_epik_Tot_abs_Q>
1

$$$$
