4jfv_ligand
                    3D
 Schrodinger Suite 2020-3.
 43 52  0  0  1  0            999 V2000
   28.9110    4.5060   53.5430 O   0  0  0  0  0  0
   29.1890    3.9140   54.8120 C   0  0  2  0  0  0
   28.3140    4.6080   55.8680 C   0  0  2  0  0  0
   26.8330    4.6680   55.5410 C   0  0  0  0  0  0
   28.9610    5.9330   55.9160 N   0  3  0  0  0  0
   30.4230    5.7630   55.8330 C   0  0  2  0  0  0
   30.5140    4.2550   55.5000 C   0  0  2  0  0  0
   31.6790    3.8740   54.7740 O   0  0  0  0  0  0
   31.2590    6.1980   57.0460 C   0  0  0  0  0  0
   30.8100    7.4450   57.8110 C   0  0  0  0  0  0
   31.6910    7.8620   58.9810 N   0  0  1  0  0  0
   32.5130    9.0690   58.7370 C   0  0  0  0  0  0
   33.0510    9.9030   59.8720 C   0  0  0  0  0  0
   33.1210    9.5800   61.2500 C   0  0  0  0  0  0
   33.5510   10.7610   61.8910 C   0  0  0  0  0  0
   33.8010   11.7600   60.9190 C   0  0  0  0  0  0
   33.5190   11.2230   59.6450 C   0  0  1  0  0  0
   36.1060    8.4350   60.2390 C   0  0  0  0  0  0
   36.4110    8.9760   61.5020 C   0  0  0  0  0  0
   36.9020   10.2820   61.3000 C   0  0  0  0  0  0
   36.8800   10.5640   59.9200 C   0  0  0  0  0  0
   36.3960    9.4110   59.2680 C   0  0  0  0  0  0
   34.9910   10.1330   60.5770 Fe  0  0  0  0  0  0
   27.9673    4.2794   53.0253 H   0  0  0  0  0  0
   29.0779    2.8635   54.5053 H   0  0  0  0  0  0
   28.2840    4.1025   56.8445 H   0  0  0  0  0  0
   26.4200    3.6486   55.5225 H   0  0  0  0  0  0
   26.6937    5.1380   54.5562 H   0  0  0  0  0  0
   26.3121    5.2609   56.3072 H   0  0  0  0  0  0
   28.6119    6.5424   55.0693 H   0  0  0  0  0  0
   28.7010    6.4340   56.8601 H   0  0  0  0  0  0
   30.8361    6.4603   55.0893 H   0  0  0  0  0  0
   30.7170    3.6192   56.3744 H   0  0  0  0  0  0
   31.8315    2.8219   54.4916 H   0  0  0  0  0  0
   31.2696    5.3903   57.7926 H   0  0  0  0  0  0
   32.2885    6.4129   56.7237 H   0  0  0  0  0  0
   30.7834    8.3055   57.1262 H   0  0  0  0  0  0
   29.8062    7.2775   58.2285 H   0  0  0  0  0  0
   31.0604    8.0784   59.8559 H   0  0  0  0  0  0
   33.4206    8.7885   58.1823 H   0  0  0  0  0  0
   31.9330    9.7948   58.1481 H   0  0  0  0  0  0
   33.0941   11.8419   58.8410 H   0  0  0  0  0  0
   36.8000    9.1111   58.2898 H   0  0  0  0  0  0
  1  2  1  0  0  0
  1 24  1  0  0  0
  2  3  1  0  0  0
  2  7  1  0  0  0
  2 25  1  0  0  0
  3  4  1  0  0  0
  3  5  1  0  0  0
  3 26  1  0  0  0
  4 27  1  0  0  0
  4 28  1  0  0  0
  4 29  1  0  0  0
  5  6  1  0  0  0
  5 30  1  0  0  0
  5 31  1  0  0  0
  6  7  1  0  0  0
  6  9  1  0  0  0
  6 32  1  0  0  0
  7  8  1  0  0  0
  7 33  1  0  0  0
  8 34  1  0  0  0
  9 10  1  0  0  0
  9 35  1  0  0  0
  9 36  1  0  0  0
 10 11  1  0  0  0
 10 37  1  0  0  0
 10 38  1  0  0  0
 11 12  1  0  0  0
 11 39  1  0  0  0
 12 13  1  0  0  0
 12 40  1  0  0  0
 12 41  1  0  0  0
 13 14  2  0  0  0
 13 17  1  0  0  0
 14 15  1  0  0  0
 14 23  1  0  0  0
 15 16  2  0  0  0
 15 23  1  0  0  0
 16 17  1  0  0  0
 16 23  1  0  0  0
 17 23  1  0  0  0
 17 42  1  0  0  0
 18 19  2  0  0  0
 18 22  1  0  0  0
 18 23  1  0  0  0
 19 20  1  0  0  0
 19 23  1  0  0  0
 20 21  2  0  0  0
 20 23  1  0  0  0
 21 22  1  0  0  0
 21 23  1  0  0  0
 22 23  1  0  0  0
 22 43  1  0  0  0
M  CHG  1   5   1
M  END
> <s_m_source_file>
../4jfv_ligand.sdf

> <i_m_source_file_index>
1

> <s_epik_input>
W09IXVtDQEBIXTFbQ0BIXShbQ0gzXSlbTkgyK11bQ0BIXShbQ0BASF0xW09IXSlbQ0gyXVtDSDJdW05IMitdW0NIMl1DPTJbQ0BIXTNDND1DNUMyW0ZlXTM0NTY3ODlDMT1DNkM3PUM4W0NIXTE5

> <s_epik_cmdline>
J2VwaWtfYXBwJywgJy1pbWFlJywgJ2xpZ2FuZF9wcm8ubWFlJywgJy1vbWFlJywgJ2xpZ2FuZF9wcmVwLm1hZScsICctbXMnLCAnMScsICctcGgnLCAnNycsICctcGh0JywgJzAuNScsICctbnQn

> <r_epik_Ionization_Penalty>
  0.0539

> <r_epik_Ionization_Penalty_Charging>
  0.0005

> <r_epik_Ionization_Penalty_Neutral>
  0.0534

> <r_epik_State_Penalty>
  0.0458

> <r_epik_Charging_Adjusted_Penalty>
0.0463604103512105

> <i_epik_Tot_Q>
1

> <i_epik_Tot_abs_Q>
1

$$$$
