4jfw_ligand
                    3D
 Schrodinger Suite 2020-3.
 50 59  0  0  1  0            999 V2000
   -6.5560    4.0920    3.0030 O   0  0  0  0  0  0
   -6.6740    4.4960    4.3570 C   0  0  2  0  0  0
   -6.3710    3.3310    5.3110 C   0  0  2  0  0  0
   -5.0810    2.5760    5.0530 C   0  0  0  0  0  0
   -7.5780    2.4800    5.2800 N   0  3  0  0  0  0
   -8.7480    3.3680    5.0830 C   0  0  2  0  0  0
   -8.1060    4.7540    4.8170 C   0  0  2  0  0  0
   -8.8200    5.5610    3.8870 O   0  0  0  0  0  0
   -9.6640    3.2800    6.2990 C   0  0  0  0  0  0
  -11.0330    3.9340    6.1310 C   0  0  0  0  0  0
  -11.9720    3.6760    7.2640 N   0  3  0  0  0  0
  -14.5290    0.8990    8.1770 C   0  0  0  0  0  0
  -13.6810    2.1720    8.2880 C   0  0  0  0  0  0
  -12.4390    2.2740    7.4180 C   0  0  0  0  0  0
  -15.9640    0.8820    8.6500 C   0  0  0  0  0  0
  -16.4580    1.2320    9.9400 C   0  0  0  0  0  0
  -17.8550    1.0040    9.9710 C   0  0  0  0  0  0
  -18.2390    0.5070    8.7210 C   0  0  0  0  0  0
  -17.0850    0.4250    7.9090 C   0  0  1  0  0  0
  -16.6200    4.2550    8.3260 C   0  0  0  0  0  0
  -17.7740    4.3130    9.1270 C   0  0  0  0  0  0
  -18.8450    3.8440    8.3610 C   0  0  0  0  0  0
  -18.3710    3.5030    7.0980 C   0  0  0  0  0  0
  -16.9930    3.7530    7.0690 C   0  0  0  0  0  0
  -17.4230    2.3710    8.5170 Fe  0  0  0  0  0  0
   -5.5642    3.8818    2.5762 H   0  0  0  0  0  0
   -6.0027    5.3665    4.3172 H   0  0  0  0  0  0
   -6.1900    3.6938    6.3336 H   0  0  0  0  0  0
   -4.2328    3.2752    5.0925 H   0  0  0  0  0  0
   -5.1234    2.1067    4.0591 H   0  0  0  0  0  0
   -4.9514    1.7986    5.8204 H   0  0  0  0  0  0
   -7.4986    1.7611    4.4512 H   0  0  0  0  0  0
   -7.6667    1.9346    6.2311 H   0  0  0  0  0  0
   -9.3998    3.0697    4.2486 H   0  0  0  0  0  0
   -8.1656    5.4100    5.6980 H   0  0  0  0  0  0
   -8.4476    6.5634    3.6291 H   0  0  0  0  0  0
   -9.8498    2.2235    6.5424 H   0  0  0  0  0  0
   -9.1840    3.7748    7.1562 H   0  0  0  0  0  0
  -10.9112    5.0244    6.0518 H   0  0  0  0  0  0
  -11.5126    3.5514    5.2180 H   0  0  0  0  0  0
  -11.4828    3.9404    8.2131 H   0  0  0  0  0  0
  -12.8779    4.2867    7.1358 H   0  0  0  0  0  0
  -14.6018    0.5978    7.1215 H   0  0  0  0  0  0
  -14.0569    0.0922    8.7568 H   0  0  0  0  0  0
  -14.2935    3.0452    8.0189 H   0  0  0  0  0  0
  -13.3189    2.2825    9.3208 H   0  0  0  0  0  0
  -12.6807    1.8573    6.4291 H   0  0  0  0  0  0
  -11.6455    1.6724    7.8853 H   0  0  0  0  0  0
  -16.9619   -0.3998    7.1917 H   0  0  0  0  0  0
  -16.5129    4.1310    6.1543 H   0  0  0  0  0  0
  1  2  1  0  0  0
  1 26  1  0  0  0
  2  3  1  0  0  0
  2  7  1  0  0  0
  2 27  1  0  0  0
  3  4  1  0  0  0
  3  5  1  0  0  0
  3 28  1  0  0  0
  4 29  1  0  0  0
  4 30  1  0  0  0
  4 31  1  0  0  0
  5  6  1  0  0  0
  5 32  1  0  0  0
  5 33  1  0  0  0
  6  7  1  0  0  0
  6  9  1  0  0  0
  6 34  1  0  0  0
  7  8  1  0  0  0
  7 35  1  0  0  0
  8 36  1  0  0  0
  9 10  1  0  0  0
  9 37  1  0  0  0
  9 38  1  0  0  0
 10 11  1  0  0  0
 10 39  1  0  0  0
 10 40  1  0  0  0
 11 14  1  0  0  0
 11 41  1  0  0  0
 11 42  1  0  0  0
 12 13  1  0  0  0
 12 15  1  0  0  0
 12 43  1  0  0  0
 12 44  1  0  0  0
 13 14  1  0  0  0
 13 45  1  0  0  0
 13 46  1  0  0  0
 14 47  1  0  0  0
 14 48  1  0  0  0
 15 16  2  0  0  0
 15 19  1  0  0  0
 16 17  1  0  0  0
 16 25  1  0  0  0
 17 18  2  0  0  0
 17 25  1  0  0  0
 18 19  1  0  0  0
 18 25  1  0  0  0
 19 25  1  0  0  0
 19 49  1  0  0  0
 20 21  2  0  0  0
 20 24  1  0  0  0
 20 25  1  0  0  0
 21 22  1  0  0  0
 21 25  1  0  0  0
 22 23  2  0  0  0
 22 25  1  0  0  0
 23 24  1  0  0  0
 23 25  1  0  0  0
 24 25  1  0  0  0
 24 50  1  0  0  0
M  CHG  2   5   1  11   1
M  END
> <s_m_source_file>
../4jfw_ligand.sdf

> <i_m_source_file_index>
1

> <s_epik_input>
W09IXVtDQEBIXTFbQ0BIXShbQ0gzXSlbTkgyK11bQ0BIXShbQ0BASF0xW09IXSlbQ0gyXVtDSDJdW05IMitdW0NIMl1bQ0gyXVtDSDJdQz0yW0NASF0zQzQ9QzVDMltGZV0zNDU2Nzg5QzE9QzZDNz1DOFtDSF0xOQ==

> <s_epik_cmdline>
J2VwaWtfYXBwJywgJy1pbWFlJywgJ2xpZ2FuZF9wcm8ubWFlJywgJy1vbWFlJywgJ2xpZ2FuZF9wcmVwLm1hZScsICctbXMnLCAnMScsICctcGgnLCAnNycsICctcGh0JywgJzAuNScsICctbnQn

> <r_lp_tautomer_probability>
1

> <r_epik_Ionization_Penalty>
  0.0106

> <r_epik_Ionization_Penalty_Charging>
  0.0106

> <r_epik_Ionization_Penalty_Neutral>
  0.0000

> <r_epik_State_Penalty>
 -0.0000

> <r_epik_Charging_Adjusted_Penalty>
0.0106218473442491

> <i_epik_Tot_Q>
2

> <i_epik_Tot_abs_Q>
2

$$$$
