4jfx_ligand
                    3D
 Schrodinger Suite 2020-3.
125126  0  0  1  0            999 V2000
   39.1000  -52.5680  -62.3200 N   0  3  0  0  0  0
   39.6760  -51.9200  -61.1520 C   0  0  0  0  0  0
   40.4130  -52.8860  -60.2390 C   0  0  0  0  0  0
   40.1570  -54.0940  -60.2610 O   0  0  0  0  0  0
   41.3250  -52.3530  -59.4270 N   0  0  0  0  0  0
   42.1320  -53.1810  -58.5270 C   0  0  2  0  0  0
   41.9060  -52.9180  -57.0380 C   0  0  0  0  0  0
   42.7760  -53.2160  -56.2190 O   0  0  0  0  0  0
   43.6340  -53.0500  -58.8560 C   0  0  0  0  0  0
   44.2160  -51.6840  -58.4720 C   0  0  0  0  0  0
   43.4840  -50.7540  -58.1440 O   0  0  0  0  0  0
   45.5450  -51.5670  -58.5190 N   0  0  0  0  0  0
   40.7560  -52.3510  -56.6850 N   0  0  0  0  0  0
   40.4610  -52.0940  -55.2750 C   0  0  2  0  0  0
   38.9690  -52.1730  -54.9340 C   0  0  0  0  0  0
   38.1180  -52.0060  -55.8020 O   0  0  0  0  0  0
   41.0390  -50.7420  -54.8410 C   0  0  0  0  0  0
   40.3410  -49.5300  -55.4200 C   0  0  0  0  0  0
   39.1740  -49.0460  -54.8480 C   0  0  0  0  0  0
   40.8590  -48.8530  -56.5250 C   0  0  0  0  0  0
   38.5360  -47.9480  -55.3520 C   0  0  0  0  0  0
   40.2190  -47.7430  -57.0420 C   0  0  0  0  0  0
   39.0550  -47.2960  -56.4440 C   0  0  0  0  0  0
   38.3860  -46.1910  -56.9110 O   0  0  0  0  0  0
   38.6620  -52.4210  -53.6640 N   0  0  0  0  0  0
   37.2780  -52.3940  -53.1940 C   0  0  2  0  0  0
   37.0650  -51.2210  -52.2460 C   0  0  0  0  0  0
   38.0180  -50.6990  -51.6520 O   0  0  0  0  0  0
   36.8560  -53.7160  -52.5010 C   0  0  0  0  0  0
   36.8900  -54.8640  -53.4900 C   0  0  0  0  0  0
   37.7490  -54.0080  -51.3150 C   0  0  0  0  0  0
   35.8110  -50.7980  -52.1230 N   0  0  0  0  0  0
   35.4510  -49.6750  -51.2660 C   0  0  2  0  0  0
   34.4550  -50.1290  -50.1970 C   0  0  0  0  0  0
   34.6640  -49.9170  -48.9990 O   0  0  0  0  0  0
   34.8650  -48.4980  -52.0820 C   0  0  0  0  0  0
   34.2740  -47.4480  -51.1530 C   0  0  0  0  0  0
   35.9410  -47.8880  -52.9770 C   0  0  0  0  0  0
   33.3700  -50.7580  -50.6320 N   0  0  0  0  0  0
   32.4210  -51.3300  -49.6910 C   0  0  2  0  0  0
   32.8480  -52.7470  -49.3490 C   0  0  0  0  0  0
   32.6950  -53.6530  -50.1700 O   0  0  0  0  0  0
   30.9960  -51.3650  -50.2630 C   0  0  2  0  0  0
   30.6080  -50.0450  -50.6540 O   0  0  0  0  0  0
   30.0150  -51.9050  -49.2100 C   0  0  0  0  0  0
   33.3740  -52.9390  -48.1390 N   0  0  0  0  0  0
   33.8990  -54.2390  -47.7320 C   0  0  2  0  0  0
   33.6360  -54.3860  -46.2770 C   0  0  0  0  0  0
   34.2320  -53.6830  -45.4810 O   0  0  0  0  0  0
   35.3900  -54.4090  -47.9600 C   0  0  0  0  0  0
   35.9550  -55.8350  -47.9560 C   0  0  0  0  0  0
   36.5770  -56.3930  -46.8270 C   0  0  0  0  0  0
   35.8450  -56.5860  -49.1240 C   0  0  0  0  0  0
   37.0760  -57.7070  -46.8780 C   0  0  0  0  0  0
   36.3440  -57.8850  -49.1760 C   0  0  0  0  0  0
   36.9650  -58.4530  -48.0610 C   0  0  0  0  0  0
   37.4070  -59.7290  -48.1780 O   0  0  0  0  0  0
   38.5950  -60.3340  -47.3760 P   0  0  0  0  0  0
   38.1520  -60.5960  -45.9420 O   0  5  0  0  0  0
   38.9800  -61.6390  -48.0170 O   0  0  0  0  0  0
   39.7730  -59.3910  -47.4030 O   0  5  0  0  0  0
   32.7400  -55.3000  -45.9170 N   0  0  0  0  0  0
   32.4640  -55.5850  -44.5160 C   0  0  2  0  0  0
   33.5590  -56.4850  -43.9460 C   0  0  0  0  0  0
   34.1880  -56.1820  -42.9300 O   0  5  0  0  0  0
   31.0920  -56.2460  -44.3640 C   0  0  0  0  0  0
   33.8510  -57.5430  -44.5030 O   0  0  0  0  0  0
   38.5829  -51.8187  -62.9374 H   0  0  0  0  0  0
   38.3815  -53.3355  -61.9965 H   0  0  0  0  0  0
   39.9000  -53.0398  -62.9094 H   0  0  0  0  0  0
   40.3945  -51.1525  -61.4755 H   0  0  0  0  0  0
   38.8760  -51.4481  -60.5626 H   0  0  0  0  0  0
   41.4645  -51.2620  -59.4438 H   0  0  0  0  0  0
   41.7454  -54.1883  -58.7413 H   0  0  0  0  0  0
   44.1979  -53.8189  -58.3076 H   0  0  0  0  0  0
   43.7857  -53.1853  -59.9371 H   0  0  0  0  0  0
   46.1626  -52.4266  -58.8185 H   0  0  0  0  0  0
   46.0225  -50.6110  -58.2582 H   0  0  0  0  0  0
   40.0248  -52.0749  -57.4591 H   0  0  0  0  0  0
   40.9659  -52.9227  -54.7570 H   0  0  0  0  0  0
   40.9735  -50.6495  -53.7469 H   0  0  0  0  0  0
   42.0921  -50.6765  -55.1521 H   0  0  0  0  0  0
   38.7568  -49.5525  -53.9776 H   0  0  0  0  0  0
   41.7815  -49.2049  -56.9867 H   0  0  0  0  0  0
   37.6168  -47.5900  -54.8884 H   0  0  0  0  0  0
   40.6266  -47.2259  -57.9107 H   0  0  0  0  0  0
   37.4620  -45.8575  -56.4159 H   0  0  0  0  0  0
   39.4770  -52.6502  -52.9617 H   0  0  0  0  0  0
   36.6900  -52.2558  -54.1133 H   0  0  0  0  0  0
   35.8270  -53.6260  -52.1227 H   0  0  0  0  0  0
   36.2355  -54.6324  -54.3432 H   0  0  0  0  0  0
   36.5390  -55.7828  -52.9974 H   0  0  0  0  0  0
   37.9201  -55.0099  -53.8471 H   0  0  0  0  0  0
   37.7103  -53.1642  -50.6104 H   0  0  0  0  0  0
   38.7835  -54.1496  -51.6610 H   0  0  0  0  0  0
   37.4024  -54.9225  -50.8114 H   0  0  0  0  0  0
   35.0329  -51.3252  -52.6945 H   0  0  0  0  0  0
   36.3972  -49.3653  -50.7983 H   0  0  0  0  0  0
   34.0526  -48.8644  -52.7268 H   0  0  0  0  0  0
   33.5029  -47.9110  -50.5198 H   0  0  0  0  0  0
   33.8226  -46.6422  -51.7504 H   0  0  0  0  0  0
   35.0692  -47.0317  -50.5172 H   0  0  0  0  0  0
   36.3521  -48.6653  -53.6380 H   0  0  0  0  0  0
   36.7464  -47.4744  -52.3523 H   0  0  0  0  0  0
   35.4998  -47.0849  -53.5855 H   0  0  0  0  0  0
   33.1918  -50.8446  -51.7140 H   0  0  0  0  0  0
   32.4578  -50.6695  -48.8121 H   0  0  0  0  0  0
   30.9544  -51.9708  -51.1802 H   0  0  0  0  0  0
   31.1978  -49.4979  -51.4042 H   0  0  0  0  0  0
   30.3180  -52.9199  -48.9130 H   0  0  0  0  0  0
   29.0008  -51.9346  -49.6348 H   0  0  0  0  0  0
   30.0243  -51.2469  -48.3286 H   0  0  0  0  0  0
   33.4069  -52.0895  -47.4409 H   0  0  0  0  0  0
   33.3695  -54.9794  -48.3496 H   0  0  0  0  0  0
   35.6603  -53.9946  -48.9425 H   0  0  0  0  0  0
   35.9443  -53.8771  -47.1727 H   0  0  0  0  0  0
   36.6729  -55.8082  -45.9122 H   0  0  0  0  0  0
   35.3655  -56.1543  -50.0025 H   0  0  0  0  0  0
   37.5486  -58.1454  -45.9991 H   0  0  0  0  0  0
   36.2492  -58.4637  -50.0948 H   0  0  0  0  0  0
   32.2019  -55.8462  -46.7057 H   0  0  0  0  0  0
   32.4648  -54.6139  -43.9993 H   0  0  0  0  0  0
   30.3180  -55.5839  -44.7794 H   0  0  0  0  0  0
   30.8875  -56.4255  -43.2982 H   0  0  0  0  0  0
   31.0844  -57.2037  -44.9051 H   0  0  0  0  0  0
  1  2  1  0  0  0
  1 68  1  0  0  0
  1 69  1  0  0  0
  1 70  1  0  0  0
  2  3  1  0  0  0
  2 71  1  0  0  0
  2 72  1  0  0  0
  3  4  2  0  0  0
  3  5  1  0  0  0
  5  6  1  0  0  0
  5 73  1  0  0  0
  6  7  1  0  0  0
  6  9  1  0  0  0
  6 74  1  0  0  0
  7  8  2  0  0  0
  7 13  1  0  0  0
  9 10  1  0  0  0
  9 75  1  0  0  0
  9 76  1  0  0  0
 10 11  2  0  0  0
 10 12  1  0  0  0
 12 77  1  0  0  0
 12 78  1  0  0  0
 13 14  1  0  0  0
 13 79  1  0  0  0
 14 15  1  0  0  0
 14 17  1  0  0  0
 14 80  1  0  0  0
 15 16  2  0  0  0
 15 25  1  0  0  0
 17 18  1  0  0  0
 17 81  1  0  0  0
 17 82  1  0  0  0
 18 19  2  0  0  0
 18 20  1  0  0  0
 19 21  1  0  0  0
 19 83  1  0  0  0
 20 22  2  0  0  0
 20 84  1  0  0  0
 21 23  2  0  0  0
 21 85  1  0  0  0
 22 23  1  0  0  0
 22 86  1  0  0  0
 23 24  1  0  0  0
 24 87  1  0  0  0
 25 26  1  0  0  0
 25 88  1  0  0  0
 26 27  1  0  0  0
 26 29  1  0  0  0
 26 89  1  0  0  0
 27 28  2  0  0  0
 27 32  1  0  0  0
 29 30  1  0  0  0
 29 31  1  0  0  0
 29 90  1  0  0  0
 30 91  1  0  0  0
 30 92  1  0  0  0
 30 93  1  0  0  0
 31 94  1  0  0  0
 31 95  1  0  0  0
 31 96  1  0  0  0
 32 33  1  0  0  0
 32 97  1  0  0  0
 33 34  1  0  0  0
 33 36  1  0  0  0
 33 98  1  0  0  0
 34 35  2  0  0  0
 34 39  1  0  0  0
 36 37  1  0  0  0
 36 38  1  0  0  0
 36 99  1  0  0  0
 37100  1  0  0  0
 37101  1  0  0  0
 37102  1  0  0  0
 38103  1  0  0  0
 38104  1  0  0  0
 38105  1  0  0  0
 39 40  1  0  0  0
 39106  1  0  0  0
 40 41  1  0  0  0
 40 43  1  0  0  0
 40107  1  0  0  0
 41 42  2  0  0  0
 41 46  1  0  0  0
 43 44  1  0  0  0
 43 45  1  0  0  0
 43108  1  0  0  0
 44109  1  0  0  0
 45110  1  0  0  0
 45111  1  0  0  0
 45112  1  0  0  0
 46 47  1  0  0  0
 46113  1  0  0  0
 47 48  1  0  0  0
 47 50  1  0  0  0
 47114  1  0  0  0
 48 49  2  0  0  0
 48 62  1  0  0  0
 50 51  1  0  0  0
 50115  1  0  0  0
 50116  1  0  0  0
 51 52  2  0  0  0
 51 53  1  0  0  0
 52 54  1  0  0  0
 52117  1  0  0  0
 53 55  2  0  0  0
 53118  1  0  0  0
 54 56  2  0  0  0
 54119  1  0  0  0
 55 56  1  0  0  0
 55120  1  0  0  0
 56 57  1  0  0  0
 57 58  1  0  0  0
 58 59  1  0  0  0
 58 60  2  0  0  0
 58 61  1  0  0  0
 62 63  1  0  0  0
 62121  1  0  0  0
 63 64  1  0  0  0
 63 66  1  0  0  0
 63122  1  0  0  0
 64 65  1  0  0  0
 64 67  2  0  0  0
 66123  1  0  0  0
 66124  1  0  0  0
 66125  1  0  0  0
M  CHG  4   1   1  59  -1  61  -1  65  -1
M  END
> <s_m_source_file>
../4jfx_ligand.sdf

> <i_m_source_file_index>
1

> <s_epik_input>
W05IMytdW0NIMl1DKD1PKVtOSF1bQ0BASF0oW0NIMl1DKD1PKVtOSDJdKUMoPU8pW05IXVtDQEBIXShbQ0gyXWMxW2NIXVtjSF1jKFtPSF0pW2NIXVtjSF0xKUMoPU8pW05IXVtDQEBIXShbQ0hdKFtDSDNdKVtDSDNdKUMoPU8pW05IXVtDQEBIXShbQ0hdKFtDSDNdKVtDSDNdKUMoPU8pW05IXVtDQEBIXShbQ0BIXShbT0hdKVtDSDNdKUMoPU8pW05IXVtDQEhdKEMoPU8pW05IXVtDQEBIXShbQ0gzXSlDKD1PKVtPSF0pW0NIMl1jMltjSF1bY0hdYyhbY0hdW2NIXTIpT1AoPU8pKFtPSF0pW09IXQ==

> <s_epik_cmdline>
J2VwaWtfYXBwJywgJy1pbWFlJywgJ2xpZ2FuZF9wcm8ubWFlJywgJy1vbWFlJywgJ2xpZ2FuZF9wcmVwLm1hZScsICctbXMnLCAnMScsICctcGgnLCAnNycsICctcGh0JywgJzAuNScsICctbnQn

> <r_lp_tautomer_probability>
1

> <r_epik_Ionization_Penalty>
  0.2160

> <r_epik_Ionization_Penalty_Charging>
  0.2151

> <r_epik_Ionization_Penalty_Neutral>
  0.0009

> <r_epik_State_Penalty>
 -0.0000

> <r_epik_Charging_Adjusted_Penalty>
0.215134461245821

> <i_epik_Tot_Q>
-2

> <i_epik_Tot_abs_Q>
4

$$$$
