4jfz_ligand
                    3D
 Schrodinger Suite 2020-3.
143144  0  0  1  0            999 V2000
   -4.4650   39.0300    4.7560 N   0  3  0  0  0  0
   -4.4750   37.5430    4.5860 C   0  0  2  0  0  0
   -3.3490   37.0670    3.6690 C   0  0  0  0  0  0
   -3.2710   37.4850    2.5220 O   0  0  0  0  0  0
   -5.8220   37.0740    4.0130 C   0  0  0  0  0  0
   -5.8530   35.5840    3.6610 C   0  0  0  0  0  0
   -7.1700   35.1630    2.9950 C   0  0  0  0  0  0
   -7.3680   35.8160    1.6190 C   0  0  0  0  0  0
   -6.2160   35.6180    0.6710 N   0  3  0  0  0  0
   -2.4840   36.1880    4.1690 N   0  0  0  0  0  0
   -1.5100   35.5410    3.3040 C   0  0  0  0  0  0
   -0.6970   36.5650    2.5340 C   0  0  0  0  0  0
   -0.5430   36.4730    1.3120 O   0  0  0  0  0  0
   -0.1820   37.5520    3.2580 N   0  0  0  0  0  0
    0.5170   38.6570    2.6220 C   0  0  2  0  0  0
    1.9700   38.3350    2.4240 C   0  0  0  0  0  0
    2.7980   39.2570    2.4710 O   0  0  0  0  0  0
    0.3900   39.9650    3.4500 C   0  0  0  0  0  0
    1.0450   39.8760    4.8310 C   0  0  0  0  0  0
    1.3620   38.7970    5.3170 O   0  0  0  0  0  0
    1.2400   41.0270    5.4660 N   0  0  0  0  0  0
    2.3030   37.0500    2.2030 N   0  0  0  0  0  0
    3.7120   36.7130    2.0700 C   0  0  2  0  0  0
    4.0720   35.4980    1.2090 C   0  0  0  0  0  0
    3.3210   34.5400    1.0380 O   0  0  0  0  0  0
    4.3830   36.6340    3.4560 C   0  0  0  0  0  0
    4.0450   35.4170    4.2810 C   0  0  0  0  0  0
    4.7250   34.2280    4.0880 C   0  0  0  0  0  0
    3.0800   35.4720    5.2810 C   0  0  0  0  0  0
    4.4450   33.1110    4.8470 C   0  0  0  0  0  0
    2.7920   34.3700    6.0620 C   0  0  0  0  0  0
    3.4710   33.1940    5.8330 C   0  0  0  0  0  0
    3.2190   32.1070    6.6060 O   0  0  0  0  0  0
    5.2840   35.5720    0.6840 N   0  0  0  0  0  0
    5.8140   34.5680   -0.2090 C   0  0  2  0  0  0
    6.9110   33.7440    0.4800 C   0  0  0  0  0  0
    7.8370   34.2940    1.0810 O   0  0  0  0  0  0
    6.3790   35.2770   -1.4480 C   0  0  0  0  0  0
    7.2670   34.3400   -2.2900 C   0  0  0  0  0  0
    5.2170   35.8420   -2.2970 C   0  0  0  0  0  0
    6.8000   32.4220    0.3850 N   0  0  0  0  0  0
    7.8510   31.5520    0.8910 C   0  0  2  0  0  0
    8.6740   30.9260   -0.2390 C   0  0  0  0  0  0
    9.9070   30.8510   -0.1740 O   0  0  0  0  0  0
    7.2300   30.4440    1.7710 C   0  0  0  0  0  0
    8.2770   29.4450    2.2460 C   0  0  0  0  0  0
    6.5410   31.0840    2.9850 C   0  0  0  0  0  0
    7.9850   30.4450   -1.2680 N   0  0  0  0  0  0
    8.6400   29.8690   -2.4300 C   0  0  2  0  0  0
    8.6000   30.9030   -3.5360 C   0  0  0  0  0  0
    7.5360   31.2540   -4.0190 O   0  0  0  0  0  0
    7.9250   28.5700   -2.8950 C   0  0  2  0  0  0
    8.0590   27.5730   -1.8790 O   0  0  0  0  0  0
    8.5400   28.0170   -4.2080 C   0  0  0  0  0  0
    9.7700   31.3940   -3.9270 N   0  0  0  0  0  0
    9.8700   32.4090   -4.9330 C   0  0  1  0  0  0
   11.3020   32.7660   -5.1970 C   0  0  0  0  0  0
   12.0400   33.3410   -4.1690 O   0  0  0  0  0  0
    9.2230   31.9560   -6.2110 C   0  0  0  0  0  0
    9.2390   30.7770   -6.5780 O   0  0  0  0  0  0
   12.4920   34.8350   -4.3010 P   0  0  0  0  0  0
   13.3190   35.1950   -3.0830 O   0  5  0  0  0  0
   11.1970   35.6110   -4.4030 O   0  5  0  0  0  0
   13.2560   34.8720   -5.5940 O   0  0  0  0  0  0
    8.6120   32.9080   -6.8980 N   0  0  0  0  0  0
    7.9580   32.6140   -8.1850 C   0  0  2  0  0  0
    8.2000   33.7490   -9.1740 C   0  0  0  0  0  0
    9.1140   34.5630   -8.9980 O   0  5  0  0  0  0
    6.4560   32.3830   -7.9920 C   0  0  0  0  0  0
    5.7620   33.5050   -7.2750 C   0  0  0  0  0  0
    5.5940   33.5220   -5.9060 N   0  0  0  0  0  0
    5.2060   34.6480   -7.7410 C   0  0  0  0  0  0
    4.9550   34.6310   -5.5610 C   0  0  0  0  0  0
    4.7120   35.3320   -6.6520 N   0  0  0  0  0  0
    7.4930   33.8740  -10.1770 O   0  0  0  0  0  0
   -3.4944   39.3456    5.1664 H   0  0  0  0  0  0
   -5.2686   39.3255    5.4465 H   0  0  0  0  0  0
   -4.6246   39.5117    3.7800 H   0  0  0  0  0  0
   -4.3141   37.1297    5.5926 H   0  0  0  0  0  0
   -6.6171   37.2536    4.7516 H   0  0  0  0  0  0
   -6.0436   37.6336    3.0923 H   0  0  0  0  0  0
   -5.0334   35.3548    2.9640 H   0  0  0  0  0  0
   -5.7322   34.9881    4.5777 H   0  0  0  0  0  0
   -7.1784   34.0718    2.8564 H   0  0  0  0  0  0
   -8.0150   35.4578    3.6346 H   0  0  0  0  0  0
   -8.2601   35.3905    1.1362 H   0  0  0  0  0  0
   -7.5007   36.9008    1.7436 H   0  0  0  0  0  0
   -6.4385   36.1144   -0.2851 H   0  0  0  0  0  0
   -6.0635   34.5423    0.4989 H   0  0  0  0  0  0
   -5.3041   36.0526    1.1063 H   0  0  0  0  0  0
   -2.5085   35.9517    5.2430 H   0  0  0  0  0  0
   -0.8244   34.9340    3.9135 H   0  0  0  0  0  0
   -2.0319   34.8932    2.5843 H   0  0  0  0  0  0
   -0.2896   37.5263    4.3524 H   0  0  0  0  0  0
    0.0305   38.7493    1.6397 H   0  0  0  0  0  0
    0.8736   40.7907    2.9075 H   0  0  0  0  0  0
   -0.6736   40.2001    3.6033 H   0  0  0  0  0  0
    0.9403   41.9738    4.9929 H   0  0  0  0  0  0
    1.7011   41.0329    6.4647 H   0  0  0  0  0  0
    1.5392   36.2625    2.1225 H   0  0  0  0  0  0
    4.0524   37.5749    1.4774 H   0  0  0  0  0  0
    5.4762   36.6287    3.3343 H   0  0  0  0  0  0
    4.0853   37.5054    4.0577 H   0  0  0  0  0  0
    5.4974   34.1728    3.3209 H   0  0  0  0  0  0
    2.5402   36.4034    5.4517 H   0  0  0  0  0  0
    4.9803   32.1771    4.6754 H   0  0  0  0  0  0
    2.0388   34.4301    6.8476 H   0  0  0  0  0  0
    3.7599   31.1663    6.4254 H   0  0  0  0  0  0
    5.8954   36.4455    0.9544 H   0  0  0  0  0  0
    4.9725   33.9071   -0.4640 H   0  0  0  0  0  0
    7.0194   36.1021   -1.1030 H   0  0  0  0  0  0
    8.0850   33.9512   -1.6658 H   0  0  0  0  0  0
    7.6874   34.8985   -3.1393 H   0  0  0  0  0  0
    6.6623   33.5015   -2.6658 H   0  0  0  0  0  0
    4.5984   36.5065   -1.6758 H   0  0  0  0  0  0
    4.6004   35.0123   -2.6729 H   0  0  0  0  0  0
    5.6255   36.4093   -3.1463 H   0  0  0  0  0  0
    5.9034   31.9876   -0.0813 H   0  0  0  0  0  0
    8.5050   32.2176    1.4734 H   0  0  0  0  0  0
    6.4996   29.8852    1.1674 H   0  0  0  0  0  0
    8.7693   28.9878    1.3750 H   0  0  0  0  0  0
    7.7907   28.6614    2.8456 H   0  0  0  0  0  0
    9.0272   29.9644    2.8604 H   0  0  0  0  0  0
    5.7854   31.8050    2.6398 H   0  0  0  0  0  0
    7.2903   31.6042    3.5998 H   0  0  0  0  0  0
    6.0538   30.3012    3.5849 H   0  0  0  0  0  0
    6.8869   30.4921   -1.2226 H   0  0  0  0  0  0
    9.6735   29.6410   -2.1302 H   0  0  0  0  0  0
    6.8477   28.7547   -3.0186 H   0  0  0  0  0  0
    7.6830   27.7682   -0.8639 H   0  0  0  0  0  0
    8.4462   28.7714   -5.0030 H   0  0  0  0  0  0
    8.0067   27.1022   -4.5058 H   0  0  0  0  0  0
    9.6031   27.7854   -4.0459 H   0  0  0  0  0  0
   10.6802   30.9976   -3.4532 H   0  0  0  0  0  0
    9.3360   33.2751   -4.5151 H   0  0  0  0  0  0
   11.8610   31.8596   -5.4725 H   0  0  0  0  0  0
   11.3528   33.4928   -6.0211 H   0  0  0  0  0  0
    8.5971   33.9312   -6.4946 H   0  0  0  0  0  0
    8.4243   31.6922   -8.5628 H   0  0  0  0  0  0
    5.8833   31.5039   -8.3226 H   0  0  0  0  0  0
    5.0991   35.0708   -8.7508 H   0  0  0  0  0  0
    4.6770   34.9159   -4.5463 H   0  0  0  0  0  0
    5.9728   32.6894   -5.2950 H   0  0  0  0  0  0
  1  2  1  0  0  0
  1 76  1  0  0  0
  1 77  1  0  0  0
  1 78  1  0  0  0
  2  3  1  0  0  0
  2  5  1  0  0  0
  2 79  1  0  0  0
  3  4  2  0  0  0
  3 10  1  0  0  0
  5  6  1  0  0  0
  5 80  1  0  0  0
  5 81  1  0  0  0
  6  7  1  0  0  0
  6 82  1  0  0  0
  6 83  1  0  0  0
  7  8  1  0  0  0
  7 84  1  0  0  0
  7 85  1  0  0  0
  8  9  1  0  0  0
  8 86  1  0  0  0
  8 87  1  0  0  0
  9 88  1  0  0  0
  9 89  1  0  0  0
  9 90  1  0  0  0
 10 11  1  0  0  0
 10 91  1  0  0  0
 11 12  1  0  0  0
 11 92  1  0  0  0
 11 93  1  0  0  0
 12 13  2  0  0  0
 12 14  1  0  0  0
 14 15  1  0  0  0
 14 94  1  0  0  0
 15 16  1  0  0  0
 15 18  1  0  0  0
 15 95  1  0  0  0
 16 17  2  0  0  0
 16 22  1  0  0  0
 18 19  1  0  0  0
 18 96  1  0  0  0
 18 97  1  0  0  0
 19 20  2  0  0  0
 19 21  1  0  0  0
 21 98  1  0  0  0
 21 99  1  0  0  0
 22 23  1  0  0  0
 22100  1  0  0  0
 23 24  1  0  0  0
 23 26  1  0  0  0
 23101  1  0  0  0
 24 25  2  0  0  0
 24 34  1  0  0  0
 26 27  1  0  0  0
 26102  1  0  0  0
 26103  1  0  0  0
 27 28  2  0  0  0
 27 29  1  0  0  0
 28 30  1  0  0  0
 28104  1  0  0  0
 29 31  2  0  0  0
 29105  1  0  0  0
 30 32  2  0  0  0
 30106  1  0  0  0
 31 32  1  0  0  0
 31107  1  0  0  0
 32 33  1  0  0  0
 33108  1  0  0  0
 34 35  1  0  0  0
 34109  1  0  0  0
 35 36  1  0  0  0
 35 38  1  0  0  0
 35110  1  0  0  0
 36 37  2  0  0  0
 36 41  1  0  0  0
 38 39  1  0  0  0
 38 40  1  0  0  0
 38111  1  0  0  0
 39112  1  0  0  0
 39113  1  0  0  0
 39114  1  0  0  0
 40115  1  0  0  0
 40116  1  0  0  0
 40117  1  0  0  0
 41 42  1  0  0  0
 41118  1  0  0  0
 42 43  1  0  0  0
 42 45  1  0  0  0
 42119  1  0  0  0
 43 44  2  0  0  0
 43 48  1  0  0  0
 45 46  1  0  0  0
 45 47  1  0  0  0
 45120  1  0  0  0
 46121  1  0  0  0
 46122  1  0  0  0
 46123  1  0  0  0
 47124  1  0  0  0
 47125  1  0  0  0
 47126  1  0  0  0
 48 49  1  0  0  0
 48127  1  0  0  0
 49 50  1  0  0  0
 49 52  1  0  0  0
 49128  1  0  0  0
 50 51  2  0  0  0
 50 55  1  0  0  0
 52 53  1  0  0  0
 52 54  1  0  0  0
 52129  1  0  0  0
 53130  1  0  0  0
 54131  1  0  0  0
 54132  1  0  0  0
 54133  1  0  0  0
 55 56  1  0  0  0
 55134  1  0  0  0
 56 57  1  0  0  0
 56 59  1  0  0  0
 56135  1  0  0  0
 57 58  1  0  0  0
 57136  1  0  0  0
 57137  1  0  0  0
 58 61  1  0  0  0
 59 60  2  0  0  0
 59 65  1  0  0  0
 61 62  1  0  0  0
 61 63  1  0  0  0
 61 64  2  0  0  0
 65 66  1  0  0  0
 65138  1  0  0  0
 66 67  1  0  0  0
 66 69  1  0  0  0
 66139  1  0  0  0
 67 68  1  0  0  0
 67 75  2  0  0  0
 69 70  2  0  0  0
 69140  1  0  0  0
 70 71  1  0  0  0
 70 72  1  0  0  0
 71 73  1  0  0  0
 71143  1  0  0  0
 72 74  2  0  0  0
 72141  1  0  0  0
 73 74  1  0  0  0
 73142  1  0  0  0
M  CHG  5   1   1   9   1  62  -1  63  -1  68  -1
M  END
> <s_m_source_file>
../4jfz_ligand.sdf

> <i_m_source_file_index>
1

> <s_epik_input>
W05IMytdW0NIMl1bQ0gyXVtDSDJdW0NIMl1bQ0BIXShbTkgzK10pQyg9TylbTkhdW0NIMl1DKD1PKVtOSF1bQ0BASF0oW0NIMl1DKD1PKVtOSDJdKUMoPU8pW05IXVtDQEBIXShbQ0gyXWMxW2NIXVtjSF1jKFtPSF0pW2NIXVtjSF0xKUMoPU8pW05IXVtDQEBIXShbQ0hdKFtDSDNdKVtDSDNdKUMoPU8pW05IXVtDQEBIXShbQ0hdKFtDSDNdKVtDSDNdKUMoPU8pW05IXVtDQEBIXShbQ0BIXShbT0hdKVtDSDNdKUMoPU8pW05IXVtDQEBIXShbQ0gyXU9QKD1PKShbT0hdKVtPSF0pQyg9TylbTkhdW0NASF0oQyg9TylbT0hdKVtDSDJdQzI9TltDSDJdTj1bQ0hdMg==

> <s_epik_cmdline>
J2VwaWtfYXBwJywgJy1pbWFlJywgJ2xpZ2FuZF9wcm8ubWFlJywgJy1vbWFlJywgJ2xpZ2FuZF9wcmVwLm1hZScsICctbXMnLCAnMScsICctcGgnLCAnNycsICctcGh0JywgJzAuNScsICctbnQn

> <r_epik_Ionization_Penalty>
  0.2128

> <r_epik_Ionization_Penalty_Charging>
  0.2119

> <r_epik_Ionization_Penalty_Neutral>
  0.0009

> <r_epik_State_Penalty>
  0.1782

> <r_epik_Charging_Adjusted_Penalty>
0.390126118971087

> <i_epik_Tot_Q>
-1

> <i_epik_Tot_abs_Q>
5

> <s_epik_Chemistry_Notes>
This compound has an imine and may undergo hydrolysis.

$$$$
