4jg0_ligand
                    3D
 Schrodinger Suite 2020-3.
127127  0  0  1  0            999 V2000
   -3.6210   39.9750    4.8050 N   0  3  0  0  0  0
   -4.3420   38.7010    4.5300 C   0  0  2  0  0  0
   -3.5410   37.8470    3.5590 C   0  0  0  0  0  0
   -3.7710   37.8840    2.3530 O   0  0  0  0  0  0
   -5.7310   38.9910    3.9570 C   0  0  0  0  0  0
   -6.6020   39.8690    4.8470 C   0  0  0  0  0  0
   -7.8790   40.3020    4.1360 C   0  0  0  0  0  0
   -8.7060   41.2450    5.0020 C   0  0  0  0  0  0
   -9.9090   41.7730    4.2930 N   0  3  0  0  0  0
   -2.6010   37.0720    4.0890 N   0  0  0  0  0  0
   -1.6730   36.3420    3.2490 C   0  0  0  0  0  0
   -0.8550   37.3460    2.4640 C   0  0  0  0  0  0
   -0.7850   37.2880    1.2380 O   0  0  0  0  0  0
   -0.2390   38.2760    3.1860 N   0  0  0  0  0  0
    0.4750   39.3820    2.5650 C   0  0  2  0  0  0
    1.9510   39.0910    2.3430 C   0  0  0  0  0  0
    2.7620   40.0160    2.3090 O   0  0  0  0  0  0
    0.3310   40.6470    3.4220 C   0  0  0  0  0  0
    1.0390   40.5290    4.7620 C   0  0  0  0  0  0
    1.4820   39.4500    5.1510 O   0  0  0  0  0  0
    1.1400   41.6430    5.4780 N   0  0  0  0  0  0
    2.3140   37.8180    2.1930 N   0  0  0  0  0  0
    3.7190   37.4890    1.9610 C   0  0  2  0  0  0
    3.9750   36.2840    1.0550 C   0  0  0  0  0  0
    3.1350   35.3970    0.8990 O   0  0  0  0  0  0
    4.4670   37.3270    3.2890 C   0  0  0  0  0  0
    4.1180   36.0940    4.1000 C   0  0  0  0  0  0
    4.7310   34.8760    3.8480 C   0  0  0  0  0  0
    3.2060   36.1600    5.1460 C   0  0  0  0  0  0
    4.4310   33.7530    4.6000 C   0  0  0  0  0  0
    2.8990   35.0410    5.9030 C   0  0  0  0  0  0
    3.5160   33.8420    5.6250 C   0  0  0  0  0  0
    3.2200   32.7290    6.3770 O   0  0  0  0  0  0
    5.1600   36.2890    0.4570 N   0  0  0  0  0  0
    5.5980   35.2400   -0.4510 C   0  0  2  0  0  0
    6.7170   34.4330    0.1960 C   0  0  0  0  0  0
    7.6290   35.0000    0.8110 O   0  0  0  0  0  0
    6.1040   35.8500   -1.7790 C   0  0  0  0  0  0
    6.7900   34.8010   -2.6430 C   0  0  0  0  0  0
    4.9540   36.5000   -2.5310 C   0  0  0  0  0  0
    6.6270   33.1110    0.0760 N   0  0  0  0  0  0
    7.6970   32.2210    0.5160 C   0  0  2  0  0  0
    8.4360   31.6740   -0.7040 C   0  0  0  0  0  0
    9.6470   31.8330   -0.8250 O   0  0  0  0  0  0
    7.1520   31.0670    1.3790 C   0  0  0  0  0  0
    8.2490   30.0660    1.7070 C   0  0  0  0  0  0
    6.5420   31.6240    2.6560 C   0  0  0  0  0  0
    7.6950   31.0420   -1.6070 N   0  0  0  0  0  0
    8.2610   30.5560   -2.8640 C   0  0  2  0  0  0
    8.0430   31.6090   -3.9470 C   0  0  0  0  0  0
    6.9090   31.8930   -4.3230 O   0  0  0  0  0  0
    7.6110   29.2250   -3.2800 C   0  0  2  0  0  0
    7.8460   28.2460   -2.2630 O   0  0  0  0  0  0
    8.1810   28.7240   -4.5980 C   0  0  0  0  0  0
    9.1330   32.1890   -4.4420 N   0  0  0  0  0  0
    9.0750   33.3050   -5.3500 C   0  0  1  0  0  0
   10.3680   34.0520   -5.2730 C   0  0  0  0  0  0
   11.5120   33.3250   -5.5140 O   0  0  0  0  0  0
    8.8510   32.8610   -6.7580 C   0  0  0  0  0  0
    8.8253   31.6342   -7.0441 O   0  0  0  0  0  0
   12.9360   33.9600   -5.5140 P   0  0  0  0  0  0
   13.4340   34.1050   -4.0910 O   0  5  0  0  0  0
   13.8350   33.0340   -6.3040 O   0  5  0  0  0  0
   12.9180   35.3080   -6.1870 O   0  0  0  0  0  0
    8.6866   33.7190   -7.6660 O   0  5  0  0  0  0
   -2.6254   39.7515    5.2159 H   0  0  0  0  0  0
   -4.1927   40.5702    5.5322 H   0  0  0  0  0  0
   -3.5124   40.5441    3.8699 H   0  0  0  0  0  0
   -4.4422   38.1661    5.4860 H   0  0  0  0  0  0
   -5.6287   39.5097    2.9924 H   0  0  0  0  0  0
   -6.2715   38.0445    3.8088 H   0  0  0  0  0  0
   -6.8823   39.3099    5.7519 H   0  0  0  0  0  0
   -6.0419   40.7716    5.1325 H   0  0  0  0  0  0
   -7.6202   40.8227    3.2022 H   0  0  0  0  0  0
   -8.4885   39.4159    3.9049 H   0  0  0  0  0  0
   -9.0515   40.7106    5.8993 H   0  0  0  0  0  0
   -8.0880   42.1041    5.3021 H   0  0  0  0  0  0
  -10.4646   42.4447    4.9639 H   0  0  0  0  0  0
  -10.5562   40.9349    3.9949 H   0  0  0  0  0  0
   -9.5926   42.3284    3.3978 H   0  0  0  0  0  0
   -2.5338   36.9894    5.1838 H   0  0  0  0  0  0
   -1.0135   35.7273    3.8793 H   0  0  0  0  0  0
   -2.2341   35.6916    2.5618 H   0  0  0  0  0  0
   -0.2791   38.1935    4.2822 H   0  0  0  0  0  0
   -0.0085   39.4853    1.5824 H   0  0  0  0  0  0
    0.7638   41.5044    2.8857 H   0  0  0  0  0  0
   -0.7344   40.8374    3.6186 H   0  0  0  0  0  0
    0.7284   42.5860    5.0891 H   0  0  0  0  0  0
    1.6353   41.6227    6.4600 H   0  0  0  0  0  0
    1.5624   37.0164    2.2430 H   0  0  0  0  0  0
    4.0607   38.3736    1.4036 H   0  0  0  0  0  0
    5.5485   37.2707    3.0961 H   0  0  0  0  0  0
    4.2546   38.1900    3.9371 H   0  0  0  0  0  0
    5.4623   34.8014    3.0432 H   0  0  0  0  0  0
    2.7230   37.1099    5.3753 H   0  0  0  0  0  0
    4.9172   32.8022    4.3815 H   0  0  0  0  0  0
    2.1735   35.1094    6.7136 H   0  0  0  0  0  0
    3.7116   31.7699    6.1569 H   0  0  0  0  0  0
    5.8230   37.1389    0.6762 H   0  0  0  0  0  0
    4.7150   34.6062   -0.6199 H   0  0  0  0  0  0
    6.8507   36.6267   -1.5573 H   0  0  0  0  0  0
    7.6171   34.3452   -2.0789 H   0  0  0  0  0  0
    7.1849   35.2766   -3.5529 H   0  0  0  0  0  0
    6.0636   34.0233   -2.9215 H   0  0  0  0  0  0
    4.4745   37.2529   -1.8881 H   0  0  0  0  0  0
    4.2170   35.7321   -2.8088 H   0  0  0  0  0  0
    5.3383   36.9854   -3.4402 H   0  0  0  0  0  0
    5.7125   32.6930   -0.3701 H   0  0  0  0  0  0
    8.3683   32.8425    1.1268 H   0  0  0  0  0  0
    6.3723   30.5306    0.8184 H   0  0  0  0  0  0
    8.6785   29.6738    0.7734 H   0  0  0  0  0  0
    7.8255   29.2367    2.2926 H   0  0  0  0  0  0
    9.0363   30.5636    2.2922 H   0  0  0  0  0  0
    5.7516   32.3452    2.4006 H   0  0  0  0  0  0
    7.3220   32.1283    3.2453 H   0  0  0  0  0  0
    6.1112   30.8014    3.2457 H   0  0  0  0  0  0
    6.6280   30.8879   -1.3883 H   0  0  0  0  0  0
    9.3347   30.4003   -2.6828 H   0  0  0  0  0  0
    6.5201   29.3367   -3.3662 H   0  0  0  0  0  0
    7.5037   28.4291   -1.2338 H   0  0  0  0  0  0
    8.0027   29.4735   -5.3831 H   0  0  0  0  0  0
    7.6898   27.7794   -4.8745 H   0  0  0  0  0  0
    9.2628   28.5567   -4.4896 H   0  0  0  0  0  0
   10.1069   31.7829   -4.1312 H   0  0  0  0  0  0
    8.2216   33.9207   -5.0297 H   0  0  0  0  0  0
   10.3665   34.8649   -6.0141 H   0  0  0  0  0  0
   10.4875   34.4753   -4.2648 H   0  0  0  0  0  0
  1  2  1  0  0  0
  1 66  1  0  0  0
  1 67  1  0  0  0
  1 68  1  0  0  0
  2  3  1  0  0  0
  2  5  1  0  0  0
  2 69  1  0  0  0
  3  4  2  0  0  0
  3 10  1  0  0  0
  5  6  1  0  0  0
  5 70  1  0  0  0
  5 71  1  0  0  0
  6  7  1  0  0  0
  6 72  1  0  0  0
  6 73  1  0  0  0
  7  8  1  0  0  0
  7 74  1  0  0  0
  7 75  1  0  0  0
  8  9  1  0  0  0
  8 76  1  0  0  0
  8 77  1  0  0  0
  9 78  1  0  0  0
  9 79  1  0  0  0
  9 80  1  0  0  0
 10 11  1  0  0  0
 10 81  1  0  0  0
 11 12  1  0  0  0
 11 82  1  0  0  0
 11 83  1  0  0  0
 12 13  2  0  0  0
 12 14  1  0  0  0
 14 15  1  0  0  0
 14 84  1  0  0  0
 15 16  1  0  0  0
 15 18  1  0  0  0
 15 85  1  0  0  0
 16 17  2  0  0  0
 16 22  1  0  0  0
 18 19  1  0  0  0
 18 86  1  0  0  0
 18 87  1  0  0  0
 19 20  2  0  0  0
 19 21  1  0  0  0
 21 88  1  0  0  0
 21 89  1  0  0  0
 22 23  1  0  0  0
 22 90  1  0  0  0
 23 24  1  0  0  0
 23 26  1  0  0  0
 23 91  1  0  0  0
 24 25  2  0  0  0
 24 34  1  0  0  0
 26 27  1  0  0  0
 26 92  1  0  0  0
 26 93  1  0  0  0
 27 28  2  0  0  0
 27 29  1  0  0  0
 28 30  1  0  0  0
 28 94  1  0  0  0
 29 31  2  0  0  0
 29 95  1  0  0  0
 30 32  2  0  0  0
 30 96  1  0  0  0
 31 32  1  0  0  0
 31 97  1  0  0  0
 32 33  1  0  0  0
 33 98  1  0  0  0
 34 35  1  0  0  0
 34 99  1  0  0  0
 35 36  1  0  0  0
 35 38  1  0  0  0
 35100  1  0  0  0
 36 37  2  0  0  0
 36 41  1  0  0  0
 38 39  1  0  0  0
 38 40  1  0  0  0
 38101  1  0  0  0
 39102  1  0  0  0
 39103  1  0  0  0
 39104  1  0  0  0
 40105  1  0  0  0
 40106  1  0  0  0
 40107  1  0  0  0
 41 42  1  0  0  0
 41108  1  0  0  0
 42 43  1  0  0  0
 42 45  1  0  0  0
 42109  1  0  0  0
 43 44  2  0  0  0
 43 48  1  0  0  0
 45 46  1  0  0  0
 45 47  1  0  0  0
 45110  1  0  0  0
 46111  1  0  0  0
 46112  1  0  0  0
 46113  1  0  0  0
 47114  1  0  0  0
 47115  1  0  0  0
 47116  1  0  0  0
 48 49  1  0  0  0
 48117  1  0  0  0
 49 50  1  0  0  0
 49 52  1  0  0  0
 49118  1  0  0  0
 50 51  2  0  0  0
 50 55  1  0  0  0
 52 53  1  0  0  0
 52 54  1  0  0  0
 52119  1  0  0  0
 53120  1  0  0  0
 54121  1  0  0  0
 54122  1  0  0  0
 54123  1  0  0  0
 55 56  1  0  0  0
 55124  1  0  0  0
 56 57  1  0  0  0
 56 59  1  0  0  0
 56125  1  0  0  0
 57 58  1  0  0  0
 57126  1  0  0  0
 57127  1  0  0  0
 58 61  1  0  0  0
 59 60  2  0  0  0
 59 65  1  0  0  0
 61 62  1  0  0  0
 61 63  1  0  0  0
 61 64  2  0  0  0
M  CHG  5   1   1   9   1  62  -1  63  -1  65  -1
M  END
> <s_m_source_file>
../4jg0_ligand.sdf

> <i_m_source_file_index>
1

> <s_epik_input>
W05IMytdW0NIMl1bQ0gyXVtDSDJdW0NIMl1bQ0BIXShbTkgzK10pQyg9TylbTkhdW0NIMl1DKD1PKVtOSF1bQ0BASF0oW0NIMl1DKD1PKVtOSDJdKUMoPU8pW05IXVtDQEBIXShbQ0gyXWMxW2NIXVtjSF1jKFtPSF0pW2NIXVtjSF0xKUMoPU8pW05IXVtDQEBIXShbQ0hdKFtDSDNdKVtDSDNdKUMoPU8pW05IXVtDQEBIXShbQ0hdKFtDSDNdKVtDSDNdKUMoPU8pW05IXVtDQEBIXShbQ0BIXShbT0hdKVtDSDNdKUMoPU8pW05IXVtDQEhdKEMoPU8pW09IXSlbQ0gyXU9QKD1PKShbT0hdKVtPSF0=

> <s_epik_cmdline>
J2VwaWtfYXBwJywgJy1pbWFlJywgJ2xpZ2FuZF9wcm8ubWFlJywgJy1vbWFlJywgJ2xpZ2FuZF9wcmVwLm1hZScsICctbXMnLCAnMScsICctcGgnLCAnNycsICctcGh0JywgJzAuNScsICctbnQn

> <r_lp_tautomer_probability>
1

> <r_epik_Ionization_Penalty>
  0.2512

> <r_epik_Ionization_Penalty_Charging>
  0.2504

> <r_epik_Ionization_Penalty_Neutral>
  0.0009

> <r_epik_State_Penalty>
 -0.0000

> <r_epik_Charging_Adjusted_Penalty>
0.25037203868955

> <i_epik_Tot_Q>
-1

> <i_epik_Tot_abs_Q>
5

$$$$
