4jg1_ligand
                    3D
 Schrodinger Suite 2020-3.
146147  0  0  1  0            999 V2000
   -6.5280   36.2070    2.8090 N   0  3  0  0  0  0
   -5.2510   35.8170    2.2210 C   0  0  2  0  0  0
   -4.0820   36.5660    2.8660 C   0  0  0  0  0  0
   -4.1370   37.7820    3.0600 O   0  0  0  0  0  0
   -5.2290   36.0780    0.7070 C   0  0  0  0  0  0
   -3.9260   35.6020    0.0470 C   0  0  0  0  0  0
   -3.3450   36.5900   -0.9760 C   0  0  0  0  0  0
   -4.2310   36.6950   -2.2270 C   0  0  0  0  0  0
   -3.4980   37.1360   -3.4790 N   0  3  0  0  0  0
   -3.0130   35.8370    3.1700 N   0  0  0  0  0  0
   -1.8370   36.4390    3.7680 C   0  0  0  0  0  0
   -1.1120   37.4070    2.8470 C   0  0  0  0  0  0
   -1.3370   37.4210    1.6340 O   0  0  0  0  0  0
   -0.2230   38.2020    3.4440 N   0  0  0  0  0  0
    0.4690   39.2930    2.7610 C   0  0  2  0  0  0
    1.9320   39.0080    2.4620 C   0  0  0  0  0  0
    2.7560   39.9460    2.3680 O   0  0  0  0  0  0
    0.3860   40.5620    3.6260 C   0  0  0  0  0  0
    1.1180   40.4050    4.9570 C   0  0  0  0  0  0
    1.6320   39.3440    5.2600 O   0  0  0  0  0  0
    1.1750   41.4790    5.7450 N   0  0  0  0  0  0
    2.2920   37.7360    2.2910 N   0  0  0  0  0  0
    3.6740   37.4170    2.0240 C   0  0  2  0  0  0
    3.8590   36.1910    1.1490 C   0  0  0  0  0  0
    2.9600   35.3370    1.0260 O   0  0  0  0  0  0
    4.4340   37.2190    3.3360 C   0  0  0  0  0  0
    4.0920   35.9780    4.1430 C   0  0  0  0  0  0
    4.7100   34.7590    3.8800 C   0  0  0  0  0  0
    3.1930   36.0360    5.2070 C   0  0  0  0  0  0
    4.4340   33.6060    4.6580 C   0  0  0  0  0  0
    2.9110   34.8980    5.9790 C   0  0  0  0  0  0
    3.5380   33.6930    5.6960 C   0  0  0  0  0  0
    3.2980   32.5800    6.4670 O   0  0  0  0  0  0
    5.0370   36.1340    0.5450 N   0  0  0  0  0  0
    5.4370   35.0510   -0.3500 C   0  0  2  0  0  0
    6.6180   34.2920    0.2510 C   0  0  0  0  0  0
    7.5460   34.9240    0.7890 O   0  0  0  0  0  0
    5.8420   35.6040   -1.7270 C   0  0  0  0  0  0
    6.4650   34.5320   -2.6150 C   0  0  0  0  0  0
    4.6320   36.2150   -2.4000 C   0  0  0  0  0  0
    6.5810   32.9660    0.1360 N   0  0  0  0  0  0
    7.6890   32.0940    0.5180 C   0  0  2  0  0  0
    8.4000   31.5720   -0.7300 C   0  0  0  0  0  0
    9.5940   31.7820   -0.8920 O   0  0  0  0  0  0
    7.1870   30.9300    1.4070 C   0  0  0  0  0  0
    8.3320   29.9880    1.7340 C   0  0  0  0  0  0
    6.5530   31.4900    2.6880 C   0  0  0  0  0  0
    7.6620   30.9370   -1.6440 N   0  0  0  0  0  0
    8.2760   30.3870   -2.8630 C   0  0  2  0  0  0
    8.0760   31.3570   -4.0430 C   0  0  0  0  0  0
    6.9260   31.6470   -4.3970 O   0  0  0  0  0  0
    7.6990   28.9990   -3.2030 C   0  0  2  0  0  0
    7.9690   28.0870   -2.1290 O   0  0  0  0  0  0
    8.3210   28.4290   -4.4680 C   0  0  0  0  0  0
    9.1810   31.8700   -4.6010 N   0  0  0  0  0  0
    9.1770   32.6460   -5.7050 C   0  0  1  0  0  0
   10.1440   33.7800   -5.4660 C   0  0  1  0  0  0
    9.7670   34.5940   -4.2690 C   0  0  0  0  0  0
   11.4020   33.1950   -5.2800 O   0  0  0  0  0  0
   12.7950   33.9100   -5.4780 P   0  0  0  0  0  0
   13.3810   34.1070   -4.1210 O   0  5  0  0  0  0
   13.6890   32.9570   -6.2420 O   0  5  0  0  0  0
   12.6670   35.1820   -6.2390 O   0  0  0  0  0  0
    9.3900   31.9910   -6.9080 C   0  0  0  0  0  0
    9.6460   30.8020   -6.9520 O   0  0  0  0  0  0
    9.3470   32.7260   -8.0140 N   0  0  0  0  0  0
    9.5930   32.1040   -9.3150 C   0  0  2  0  0  0
   10.0940   33.0900  -10.3630 C   0  0  0  0  0  0
   10.0540   34.3090  -10.1690 O   0  5  0  0  0  0
    8.3160   31.4290   -9.8200 C   0  0  0  0  0  0
    7.1360   32.3480   -9.8900 C   0  0  0  0  0  0
    7.0430   33.3720  -10.8100 N   0  0  0  0  0  0
    5.9990   32.3980   -9.1550 C   0  0  0  0  0  0
    5.8990   34.0120  -10.6400 C   0  0  0  0  0  0
    5.2480   33.4420   -9.6410 N   0  0  0  0  0  0
   10.5400   32.6730  -11.4350 O   0  0  0  0  0  0
   -6.5098   36.0074    3.8906 H   0  0  0  0  0  0
   -7.3385   35.6276    2.3428 H   0  0  0  0  0  0
   -6.6984   37.2800    2.6369 H   0  0  0  0  0  0
   -5.1849   34.7405    2.4371 H   0  0  0  0  0  0
   -6.0646   35.5441    0.2307 H   0  0  0  0  0  0
   -5.3290   37.1573    0.5195 H   0  0  0  0  0  0
   -3.1588   35.4472    0.8199 H   0  0  0  0  0  0
   -4.1081   34.6558   -0.4836 H   0  0  0  0  0  0
   -3.2690   37.5880   -0.5196 H   0  0  0  0  0  0
   -2.3453   36.2514   -1.2859 H   0  0  0  0  0  0
   -4.6755   35.7127   -2.4449 H   0  0  0  0  0  0
   -5.0314   37.4283   -2.0490 H   0  0  0  0  0  0
   -4.2051   37.1835   -4.3203 H   0  0  0  0  0  0
   -2.7007   36.4144   -3.7104 H   0  0  0  0  0  0
   -3.0565   38.1300   -3.3145 H   0  0  0  0  0  0
   -3.0316   34.7575    2.9596 H   0  0  0  0  0  0
   -2.1295   36.9996    4.6681 H   0  0  0  0  0  0
   -1.1213   35.6504    4.0437 H   0  0  0  0  0  0
   -0.0204   38.0020    4.5065 H   0  0  0  0  0  0
   -0.0602   39.3753    1.8002 H   0  0  0  0  0  0
    0.8403   41.4050    3.0848 H   0  0  0  0  0  0
   -0.6682   40.7903    3.8419 H   0  0  0  0  0  0
    0.6958   42.4179    5.4306 H   0  0  0  0  0  0
    1.7013   41.4262    6.7095 H   0  0  0  0  0  0
    1.5438   36.9319    2.3522 H   0  0  0  0  0  0
    4.0220   38.2971    1.4633 H   0  0  0  0  0  0
    5.5122   37.1523    3.1287 H   0  0  0  0  0  0
    4.2411   38.0716    4.0038 H   0  0  0  0  0  0
    5.4220   34.6890    3.0577 H   0  0  0  0  0  0
    2.7014   36.9798    5.4431 H   0  0  0  0  0  0
    4.9277   32.6602    4.4348 H   0  0  0  0  0  0
    2.1987   34.9610    6.8017 H   0  0  0  0  0  0
    3.8009   31.6300    6.2331 H   0  0  0  0  0  0
    5.7303   36.9632    0.7491 H   0  0  0  0  0  0
    4.5554   34.3991   -0.4385 H   0  0  0  0  0  0
    6.6048   36.3838   -1.5855 H   0  0  0  0  0  0
    7.3414   34.1007   -2.1092 H   0  0  0  0  0  0
    6.7769   34.9820   -3.5691 H   0  0  0  0  0  0
    5.7260   33.7402   -2.8072 H   0  0  0  0  0  0
    4.1976   36.9845   -1.7449 H   0  0  0  0  0  0
    3.8841   35.4314   -2.5912 H   0  0  0  0  0  0
    4.9349   36.6732   -3.3531 H   0  0  0  0  0  0
    5.6553   32.5329   -0.2708 H   0  0  0  0  0  0
    8.3848   32.7240    1.0915 H   0  0  0  0  0  0
    6.4279   30.3440    0.8682 H   0  0  0  0  0  0
    8.7673   29.6021    0.8004 H   0  0  0  0  0  0
    7.9555   29.1488    2.3374 H   0  0  0  0  0  0
    9.1027   30.5307    2.3011 H   0  0  0  0  0  0
    5.7282   32.1678    2.4229 H   0  0  0  0  0  0
    7.3119   32.0426    3.2614 H   0  0  0  0  0  0
    6.1647   30.6608    3.2977 H   0  0  0  0  0  0
    6.5805   30.8278   -1.4756 H   0  0  0  0  0  0
    9.3465   30.2854   -2.6313 H   0  0  0  0  0  0
    6.6068   29.0689   -3.3138 H   0  0  0  0  0  0
    7.6050   28.3084   -1.1148 H   0  0  0  0  0  0
    8.1287   29.1101   -5.3101 H   0  0  0  0  0  0
    7.8780   27.4454   -4.6833 H   0  0  0  0  0  0
    9.4062   28.3191   -4.3256 H   0  0  0  0  0  0
   10.1315   31.6246   -4.1046 H   0  0  0  0  0  0
    8.1170   32.9119   -5.8303 H   0  0  0  0  0  0
   10.2087   34.4613   -6.3272 H   0  0  0  0  0  0
    8.7775   35.0466   -4.4302 H   0  0  0  0  0  0
   10.5128   35.3880   -4.1159 H   0  0  0  0  0  0
    9.7336   33.9460   -3.3807 H   0  0  0  0  0  0
    9.1265   33.8019   -7.9516 H   0  0  0  0  0  0
   10.3922   31.3744   -9.1179 H   0  0  0  0  0  0
    8.2110   30.3754  -10.1181 H   0  0  0  0  0  0
    5.6233   31.7941   -8.3159 H   0  0  0  0  0  0
    5.5518   34.8643  -11.2240 H   0  0  0  0  0  0
    7.8574   33.5400  -11.5301 H   0  0  0  0  0  0
  1  2  1  0  0  0
  1 77  1  0  0  0
  1 78  1  0  0  0
  1 79  1  0  0  0
  2  3  1  0  0  0
  2  5  1  0  0  0
  2 80  1  0  0  0
  3  4  2  0  0  0
  3 10  1  0  0  0
  5  6  1  0  0  0
  5 81  1  0  0  0
  5 82  1  0  0  0
  6  7  1  0  0  0
  6 83  1  0  0  0
  6 84  1  0  0  0
  7  8  1  0  0  0
  7 85  1  0  0  0
  7 86  1  0  0  0
  8  9  1  0  0  0
  8 87  1  0  0  0
  8 88  1  0  0  0
  9 89  1  0  0  0
  9 90  1  0  0  0
  9 91  1  0  0  0
 10 11  1  0  0  0
 10 92  1  0  0  0
 11 12  1  0  0  0
 11 93  1  0  0  0
 11 94  1  0  0  0
 12 13  2  0  0  0
 12 14  1  0  0  0
 14 15  1  0  0  0
 14 95  1  0  0  0
 15 16  1  0  0  0
 15 18  1  0  0  0
 15 96  1  0  0  0
 16 17  2  0  0  0
 16 22  1  0  0  0
 18 19  1  0  0  0
 18 97  1  0  0  0
 18 98  1  0  0  0
 19 20  2  0  0  0
 19 21  1  0  0  0
 21 99  1  0  0  0
 21100  1  0  0  0
 22 23  1  0  0  0
 22101  1  0  0  0
 23 24  1  0  0  0
 23 26  1  0  0  0
 23102  1  0  0  0
 24 25  2  0  0  0
 24 34  1  0  0  0
 26 27  1  0  0  0
 26103  1  0  0  0
 26104  1  0  0  0
 27 28  2  0  0  0
 27 29  1  0  0  0
 28 30  1  0  0  0
 28105  1  0  0  0
 29 31  2  0  0  0
 29106  1  0  0  0
 30 32  2  0  0  0
 30107  1  0  0  0
 31 32  1  0  0  0
 31108  1  0  0  0
 32 33  1  0  0  0
 33109  1  0  0  0
 34 35  1  0  0  0
 34110  1  0  0  0
 35 36  1  0  0  0
 35 38  1  0  0  0
 35111  1  0  0  0
 36 37  2  0  0  0
 36 41  1  0  0  0
 38 39  1  0  0  0
 38 40  1  0  0  0
 38112  1  0  0  0
 39113  1  0  0  0
 39114  1  0  0  0
 39115  1  0  0  0
 40116  1  0  0  0
 40117  1  0  0  0
 40118  1  0  0  0
 41 42  1  0  0  0
 41119  1  0  0  0
 42 43  1  0  0  0
 42 45  1  0  0  0
 42120  1  0  0  0
 43 44  2  0  0  0
 43 48  1  0  0  0
 45 46  1  0  0  0
 45 47  1  0  0  0
 45121  1  0  0  0
 46122  1  0  0  0
 46123  1  0  0  0
 46124  1  0  0  0
 47125  1  0  0  0
 47126  1  0  0  0
 47127  1  0  0  0
 48 49  1  0  0  0
 48128  1  0  0  0
 49 50  1  0  0  0
 49 52  1  0  0  0
 49129  1  0  0  0
 50 51  2  0  0  0
 50 55  1  0  0  0
 52 53  1  0  0  0
 52 54  1  0  0  0
 52130  1  0  0  0
 53131  1  0  0  0
 54132  1  0  0  0
 54133  1  0  0  0
 54134  1  0  0  0
 55 56  1  0  0  0
 55135  1  0  0  0
 56 57  1  0  0  0
 56 64  1  0  0  0
 56136  1  0  0  0
 57 58  1  0  0  0
 57 59  1  0  0  0
 57137  1  0  0  0
 58138  1  0  0  0
 58139  1  0  0  0
 58140  1  0  0  0
 59 60  1  0  0  0
 60 61  1  0  0  0
 60 62  1  0  0  0
 60 63  2  0  0  0
 64 65  2  0  0  0
 64 66  1  0  0  0
 66 67  1  0  0  0
 66141  1  0  0  0
 67 68  1  0  0  0
 67 70  1  0  0  0
 67142  1  0  0  0
 68 69  1  0  0  0
 68 76  2  0  0  0
 70 71  2  0  0  0
 70143  1  0  0  0
 71 72  1  0  0  0
 71 73  1  0  0  0
 72 74  1  0  0  0
 72146  1  0  0  0
 73 75  2  0  0  0
 73144  1  0  0  0
 74 75  1  0  0  0
 74145  1  0  0  0
M  CHG  5   1   1   9   1  61  -1  62  -1  69  -1
M  END
> <s_m_source_file>
../4jg1_ligand.sdf

> <i_m_source_file_index>
1

> <s_epik_input>
W05IMytdW0NIMl1bQ0gyXVtDSDJdW0NIMl1bQ0BIXShbTkgzK10pQyg9TylbTkhdW0NIMl1DKD1PKVtOSF1bQ0BASF0oW0NIMl1DKD1PKVtOSDJdKUMoPU8pW05IXVtDQEBIXShbQ0gyXWMxW2NIXVtjSF1jKFtPSF0pW2NIXVtjSF0xKUMoPU8pW05IXVtDQEBIXShbQ0hdKFtDSDNdKVtDSDNdKUMoPU8pW05IXVtDQEBIXShbQ0hdKFtDSDNdKVtDSDNdKUMoPU8pW05IXVtDQEBIXShbQ0BIXShbT0hdKVtDSDNdKUMoPU8pW05IXVtDQEBIXShbQ0BASF0oW0NIM10pT1AoPU8pKFtPSF0pW09IXSlDKD1PKVtOSF1bQ0BIXShDKD1PKVtPSF0pW0NIMl1DMj1OW0NIMl1OPVtDSF0y

> <s_epik_cmdline>
J2VwaWtfYXBwJywgJy1pbWFlJywgJ2xpZ2FuZF9wcm8ubWFlJywgJy1vbWFlJywgJ2xpZ2FuZF9wcmVwLm1hZScsICctbXMnLCAnMScsICctcGgnLCAnNycsICctcGh0JywgJzAuNScsICctbnQn

> <r_epik_Ionization_Penalty>
  0.2128

> <r_epik_Ionization_Penalty_Charging>
  0.2119

> <r_epik_Ionization_Penalty_Neutral>
  0.0009

> <r_epik_State_Penalty>
  0.1782

> <r_epik_Charging_Adjusted_Penalty>
0.390126318909477

> <i_epik_Tot_Q>
-1

> <i_epik_Tot_abs_Q>
5

> <s_epik_Chemistry_Notes>
This compound has an imine and may undergo hydrolysis.

$$$$
