4jg6_ligand
                    3D
 Schrodinger Suite 2020-3.
 25 26  0  0  1  0            999 V2000
   11.9170  -27.3320   21.1630 C   0  0  1  0  0  0
   12.5920  -26.7010   22.3320 C   0  0  0  0  0  0
   13.1130  -26.2170   23.2270 N   0  0  0  0  0  0
   12.8260  -27.2810   19.9800 C   0  0  0  0  0  0
   12.2790  -27.1690   18.6640 N   0  0  0  0  0  0
   14.0360  -27.3460   20.1330 O   0  0  0  0  0  0
   11.5910  -28.7560   21.4680 C   0  0  0  0  0  0
   12.6250  -29.8120   21.2590 C   0  0  0  0  0  0
   12.7460  -30.4280   20.0110 C   0  0  0  0  0  0
   13.7100  -31.4160   19.8070 C   0  0  0  0  0  0
   14.5400  -31.7740   20.8620 C   0  0  0  0  0  0
   15.5670  -32.7000   20.9650 N   0  0  0  0  0  0
   16.0690  -32.6880   22.1720 N   0  0  0  0  0  0
   15.4180  -31.7700   22.9270 C   0  0  0  0  0  0
   14.4140  -31.1540   22.1080 C   0  0  0  0  0  0
   13.4620  -30.1770   22.3040 C   0  0  0  0  0  0
   10.9878  -26.7839   20.9481 H   0  0  0  0  0  0
   11.1895  -27.1104   18.5244 H   0  0  0  0  0  0
   12.9476  -27.1415   17.7910 H   0  0  0  0  0  0
   11.3205  -28.8508   22.5300 H   0  0  0  0  0  0
   10.7453  -29.0804   20.8438 H   0  0  0  0  0  0
   12.0856  -30.1361   19.1944 H   0  0  0  0  0  0
   13.8103  -31.8993   18.8352 H   0  0  0  0  0  0
   15.6215  -31.5400   23.9729 H   0  0  0  0  0  0
   13.3668  -29.6929   23.2759 H   0  0  0  0  0  0
  1  2  1  0  0  0
  1  4  1  0  0  0
  1  7  1  0  0  0
  1 17  1  0  0  0
  2  3  3  0  0  0
  4  5  1  0  0  0
  4  6  2  0  0  0
  5 18  1  0  0  0
  5 19  1  0  0  0
  7  8  1  0  0  0
  7 20  1  0  0  0
  7 21  1  0  0  0
  8  9  2  0  0  0
  8 16  1  0  0  0
  9 10  1  0  0  0
  9 22  1  0  0  0
 10 11  2  0  0  0
 10 23  1  0  0  0
 11 12  1  0  0  0
 11 15  1  0  0  0
 12 13  2  0  0  0
 13 14  1  0  0  0
 14 15  1  0  0  0
 14 24  1  0  0  0
 15 16  2  0  0  0
 16 25  1  0  0  0
M  END
> <s_m_source_file>
../4jg6_ligand.sdf

> <i_m_source_file_index>
1

> <s_epik_input>
TiNDW0NAQEhdKEMoPU8pW05IMl0pW0NIMl1jKFtjSF1bY0hdMSlbY0hdYyhjMTIpW0NIMl1OPU4y

> <s_epik_cmdline>
J2VwaWtfYXBwJywgJy1pbWFlJywgJ2xpZ2FuZF9wcm8ubWFlJywgJy1vbWFlJywgJ2xpZ2FuZF9wcmVwLm1hZScsICctbXMnLCAnMScsICctcGgnLCAnNycsICctcGh0JywgJzAuNScsICctbnQn

> <r_lp_tautomer_probability>
1

> <r_epik_Ionization_Penalty>
  0.0000

> <r_epik_Ionization_Penalty_Charging>
  0.0000

> <r_epik_Ionization_Penalty_Neutral>
  0.0000

> <r_epik_State_Penalty>
 -0.0000

> <r_epik_Charging_Adjusted_Penalty>
0

> <i_epik_Tot_Q>
0

> <i_epik_Tot_abs_Q>
0

$$$$
