4jg7_ligand
                    3D
 Schrodinger Suite 2020-3.
 38 40  0  0  1  0            999 V2000
    7.8240    7.5290  -22.8530 O   0  0  0  0  0  0
    6.8850    8.3050  -23.0060 C   0  0  0  0  0  0
    6.4950    9.2520  -21.8860 C   0  0  0  0  0  0
    5.4740   10.1760  -22.0590 C   0  0  0  0  0  0
    5.0960   11.1140  -20.9460 C   0  0  0  0  0  0
    3.9740   12.1180  -21.1310 C   0  0  0  0  0  0
    2.5660   11.6480  -20.9550 C   0  0  2  0  0  0
    2.3610   11.2560  -19.5210 C   0  0  0  0  0  0
    2.2130   10.9620  -18.4260 N   0  0  0  0  0  0
    2.3010   10.4500  -21.8080 C   0  0  0  0  0  0
    1.9500   10.6050  -23.1960 N   0  0  0  0  0  0
    2.3880    9.3350  -21.3220 O   0  0  0  0  0  0
    5.7650   11.0480  -19.7530 C   0  0  0  0  0  0
    6.8730   10.0500  -19.5640 C   0  0  0  0  0  0
    7.2170    9.1930  -20.5840 C   0  0  0  0  0  0
    6.1230    8.2880  -24.3180 C   0  0  0  0  0  0
    4.7380    8.2800  -24.4990 C   0  0  0  0  0  0
    4.4900    8.2660  -25.8640 N   0  3  0  0  0  0
    5.6920    8.2630  -26.5610 C   0  0  0  0  0  0
    5.9500    8.2500  -27.8730 N   0  0  0  0  0  0
    7.2120    8.2500  -28.3200 C   0  0  0  0  0  0
    8.2960    8.2630  -27.4430 C   0  0  0  0  0  0
    8.0500    8.2760  -26.0700 C   0  0  0  0  0  0
    6.7330    8.2760  -25.6260 C   0  0  0  0  0  0
    4.9419   10.2222  -23.0092 H   0  0  0  0  0  0
    4.0914   12.9368  -20.4059 H   0  0  0  0  0  0
    4.0106   12.5247  -22.1524 H   0  0  0  0  0  0
    1.8854   12.4607  -21.2489 H   0  0  0  0  0  0
    1.8715   11.6108  -23.6345 H   0  0  0  0  0  0
    1.7604    9.7176  -23.8178 H   0  0  0  0  0  0
    5.4936   11.7203  -18.9391 H   0  0  0  0  0  0
    7.4064   10.0050  -18.6145 H   0  0  0  0  0  0
    8.0193    8.4695  -20.4392 H   0  0  0  0  0  0
    4.0692    8.2852  -23.6257 H   0  0  0  0  0  0
    7.3963    8.2396  -29.3942 H   0  0  0  0  0  0
    9.3174    8.2630  -27.8235 H   0  0  0  0  0  0
    8.8756    8.2860  -25.3584 H   0  0  0  0  0  0
    3.4544    8.2592  -26.2348 H   0  0  0  0  0  0
  1  2  2  0  0  0
  2  3  1  0  0  0
  2 16  1  0  0  0
  3  4  2  0  0  0
  3 15  1  0  0  0
  4  5  1  0  0  0
  4 25  1  0  0  0
  5  6  1  0  0  0
  5 13  2  0  0  0
  6  7  1  0  0  0
  6 26  1  0  0  0
  6 27  1  0  0  0
  7  8  1  0  0  0
  7 10  1  0  0  0
  7 28  1  0  0  0
  8  9  3  0  0  0
 10 11  1  0  0  0
 10 12  2  0  0  0
 11 29  1  0  0  0
 11 30  1  0  0  0
 13 14  1  0  0  0
 13 31  1  0  0  0
 14 15  2  0  0  0
 14 32  1  0  0  0
 15 33  1  0  0  0
 16 17  2  0  0  0
 16 24  1  0  0  0
 17 18  1  0  0  0
 17 34  1  0  0  0
 18 19  1  0  0  0
 18 38  1  0  0  0
 19 20  1  0  0  0
 19 24  2  0  0  0
 20 21  2  0  0  0
 21 22  1  0  0  0
 21 35  1  0  0  0
 22 23  2  0  0  0
 22 36  1  0  0  0
 23 24  1  0  0  0
 23 37  1  0  0  0
M  CHG  1  18   1
M  END
> <s_m_source_file>
../4jg7_ligand.sdf

> <i_m_source_file_index>
1

> <s_epik_input>
bjFbY0hdW2NIXVtjSF1jKGMxMiljKFtjSF1bbkhdMilDKD1PKWMzW2NIXWMoW2NIXVtjSF1bY0hdMylbQ0gyXVtDQEhdKEMjTilDKD1PKVtOSDJd

> <s_epik_cmdline>
J2VwaWtfYXBwJywgJy1pbWFlJywgJ2xpZ2FuZF9wcm8ubWFlJywgJy1vbWFlJywgJ2xpZ2FuZF9wcmVwLm1hZScsICctbXMnLCAnMScsICctcGgnLCAnNycsICctcGh0JywgJzAuNScsICctbnQn

> <r_lp_tautomer_probability>
1

> <r_epik_Ionization_Penalty>
  0.0021

> <r_epik_Ionization_Penalty_Charging>
  0.0000

> <r_epik_Ionization_Penalty_Neutral>
  0.0021

> <r_epik_State_Penalty>
 -0.0000

> <r_epik_Charging_Adjusted_Penalty>
0

> <i_epik_Tot_Q>
1

> <i_epik_Tot_abs_Q>
1

$$$$
