4jg8_ligand
                    3D
 Schrodinger Suite 2020-3.
 60 62  0  0  1  0            999 V2000
   14.6460    4.5620   21.2290 O   0  0  0  0  0  0
   13.7010    4.2330   20.5260 C   0  0  0  0  0  0
   13.7110    2.9380   19.8620 N   0  0  0  0  0  0
   14.8340    2.0260   20.0240 C   0  0  0  0  0  0
   16.0850    2.6650   19.5250 C   0  0  0  0  0  0
   14.9970    1.6560   21.4530 C   0  0  0  0  0  0
   14.5730    0.7860   19.2310 C   0  0  0  0  0  0
   14.1640    1.1410   17.9600 O   0  0  0  0  0  0
   12.5310    5.1790   20.3490 C   0  0  2  0  0  0
   12.1040    5.1020   18.9330 C   0  0  0  0  0  0
   11.7790    5.0300   17.8360 N   0  0  0  0  0  0
   12.9290    6.5940   20.7480 C   0  0  0  0  0  0
   11.7750    7.5820   20.6410 C   0  0  0  0  0  0
   11.3930    8.0870   19.4060 C   0  0  0  0  0  0
   10.3380    8.9990   19.3140 C   0  0  0  0  0  0
    9.6690    9.4170   20.4690 C   0  0  0  0  0  0
    8.6070   10.3000   20.6680 N   0  0  0  0  0  0
    8.3090   10.3820   21.9620 N   0  0  0  0  0  0
    9.1530    9.5650   22.6620 C   0  0  3  0  0  0
    9.1490    9.3680   24.1720 C   0  0  0  0  0  0
    9.0630   10.4620   25.0020 C   0  0  0  0  0  0
    9.0610   10.2790   26.4960 C   0  0  0  0  0  0
    8.9760   11.3800   27.3380 O   0  0  0  0  0  0
    7.7450   11.8320   27.7750 C   0  0  0  0  0  0
    9.1490    9.0200   27.0340 C   0  0  0  0  0  0
    9.1460    8.8610   28.4040 O   0  0  0  0  0  0
   10.3120    9.0650   29.1190 C   0  0  0  0  0  0
    9.2430    7.8250   26.1360 C   0  0  0  0  0  0
    9.3270    6.5630   26.6900 O   0  0  0  0  0  0
    8.1890    5.9720   27.2270 C   0  0  0  0  0  0
    9.2430    7.9900   24.7640 C   0  0  0  0  0  0
   10.0510    8.9240   21.7110 C   0  0  0  0  0  0
   11.1040    8.0080   21.8010 C   0  0  0  0  0  0
   12.8563    2.6515   19.2316 H   0  0  0  0  0  0
   16.2855    3.5792   20.1030 H   0  0  0  0  0  0
   15.9667    2.9219   18.4620 H   0  0  0  0  0  0
   16.9258    1.9655   19.6418 H   0  0  0  0  0  0
   15.1897    2.5618   22.0466 H   0  0  0  0  0  0
   15.8439    0.9619   21.5577 H   0  0  0  0  0  0
   14.0781    1.1703   21.8131 H   0  0  0  0  0  0
   15.4948    0.1889   19.1702 H   0  0  0  0  0  0
   13.7854    0.1956   19.7221 H   0  0  0  0  0  0
   13.9226    0.3617   17.2222 H   0  0  0  0  0  0
   11.6772    4.8857   20.9775 H   0  0  0  0  0  0
   13.2785    6.5962   21.7910 H   0  0  0  0  0  0
   13.7366    6.9471   20.0899 H   0  0  0  0  0  0
   11.9178    7.7711   18.5044 H   0  0  0  0  0  0
   10.0360    9.3852   18.3405 H   0  0  0  0  0  0
    8.9962   11.4634   24.5767 H   0  0  0  0  0  0
    7.8860   12.7062   28.4276 H   0  0  0  0  0  0
    7.2393   11.0328   28.3367 H   0  0  0  0  0  0
    7.1302   12.1167   26.9084 H   0  0  0  0  0  0
   10.1207    8.8944   30.1887 H   0  0  0  0  0  0
   10.6583   10.0982   28.9686 H   0  0  0  0  0  0
   11.0844    8.3647   28.7684 H   0  0  0  0  0  0
    8.4434    4.9765   27.6197 H   0  0  0  0  0  0
    7.4231    5.8725   26.4437 H   0  0  0  0  0  0
    7.8001    6.5994   28.0425 H   0  0  0  0  0  0
    9.3112    7.1201   24.1108 H   0  0  0  0  0  0
   11.4059    7.6225   22.7748 H   0  0  0  0  0  0
  1  2  2  0  0  0
  2  3  1  0  0  0
  2  9  1  0  0  0
  3  4  1  0  0  0
  3 34  1  0  0  0
  4  5  1  0  0  0
  4  6  1  0  0  0
  4  7  1  0  0  0
  5 35  1  0  0  0
  5 36  1  0  0  0
  5 37  1  0  0  0
  6 38  1  0  0  0
  6 39  1  0  0  0
  6 40  1  0  0  0
  7  8  1  0  0  0
  7 41  1  0  0  0
  7 42  1  0  0  0
  8 43  1  0  0  0
  9 10  1  0  0  0
  9 12  1  0  0  0
  9 44  1  0  0  0
 10 11  3  0  0  0
 12 13  1  0  0  0
 12 45  1  0  0  0
 12 46  1  0  0  0
 13 14  2  0  0  0
 13 33  1  0  0  0
 14 15  1  0  0  0
 14 47  1  0  0  0
 15 16  2  0  0  0
 15 48  1  0  0  0
 16 17  1  0  0  0
 16 32  1  0  0  0
 17 18  2  0  0  0
 18 19  1  0  0  0
 19 20  1  0  0  0
 19 32  1  0  0  0
 20 21  2  0  0  0
 20 31  1  0  0  0
 21 22  1  0  0  0
 21 49  1  0  0  0
 22 23  1  0  0  0
 22 25  2  0  0  0
 23 24  1  0  0  0
 24 50  1  0  0  0
 24 51  1  0  0  0
 24 52  1  0  0  0
 25 26  1  0  0  0
 25 28  1  0  0  0
 26 27  1  0  0  0
 27 53  1  0  0  0
 27 54  1  0  0  0
 27 55  1  0  0  0
 28 29  1  0  0  0
 28 31  2  0  0  0
 29 30  1  0  0  0
 30 56  1  0  0  0
 30 57  1  0  0  0
 30 58  1  0  0  0
 31 59  1  0  0  0
 32 33  2  0  0  0
 33 60  1  0  0  0
M  END
> <s_m_source_file>
../4jg8_ligand.sdf

> <i_m_source_file_index>
1

> <s_epik_input>
W09IXVtDSDJdQyhbQ0gzXSkoW0NIM10pW05IXUMoPU8pW0NASF0oQyNOKVtDSDJdYyhbY0hdW2NIXTEpW2NIXWMoYzEyKVtDSF0oTj1OMiljM1tjSF1jKE9bQ0gzXSljKE9bQ0gzXSljKFtjSF0zKU9bQ0gzXQ==

> <s_epik_cmdline>
J2VwaWtfYXBwJywgJy1pbWFlJywgJ2xpZ2FuZF9wcm8ubWFlJywgJy1vbWFlJywgJ2xpZ2FuZF9wcmVwLm1hZScsICctbXMnLCAnMScsICctcGgnLCAnNycsICctcGh0JywgJzAuNScsICctbnQn

> <r_lp_tautomer_probability>
1

> <r_epik_Ionization_Penalty>
  0.0000

> <r_epik_Ionization_Penalty_Charging>
  0.0000

> <r_epik_Ionization_Penalty_Neutral>
  0.0000

> <r_epik_State_Penalty>
 -0.0000

> <r_epik_Charging_Adjusted_Penalty>
0

> <i_epik_Tot_Q>
0

> <i_epik_Tot_abs_Q>
0

$$$$
