4jgv_ligand
                    3D
 Schrodinger Suite 2020-3.
 41 41  0  0  1  0            999 V2000
  -16.2890   20.2170   -4.9680 C   0  0  0  0  0  0
  -17.2470   19.5270   -4.2280 C   0  0  0  0  0  0
  -16.9250   18.3430   -3.5930 C   0  0  0  0  0  0
  -15.6190   17.8570   -3.7240 C   0  0  0  0  0  0
  -14.6960   18.5720   -4.4530 C   0  0  0  0  0  0
  -15.0250   19.7290   -5.0790 C   0  0  0  0  0  0
  -17.8700   17.6690   -2.8570 O   0  0  0  0  0  0
  -18.5170   19.9930   -4.0940 O   0  0  0  0  0  0
  -16.5390   21.3790   -5.6090 O   0  0  0  0  0  0
  -13.3360   18.0940   -4.6610 C   0  0  0  0  0  0
  -12.1620   18.7890   -4.0490 C   0  0  0  0  0  0
  -10.9590   18.6150   -4.9760 C   0  0  0  0  0  0
  -10.2690   17.2610   -4.8160 C   0  0  0  0  0  0
   -8.7890   17.3840   -5.1820 C   0  0  0  0  0  0
   -7.8920   17.1700   -3.9720 C   0  0  0  0  0  0
   -7.9700   15.7220   -3.4850 C   0  0  0  0  0  0
   -6.6110   15.2000   -3.0540 C   0  0  0  0  0  0
   -5.6430   15.2040   -4.2160 C   0  0  0  0  0  0
  -13.2150   17.1500   -5.4040 O   0  0  0  0  0  0
  -15.3343   16.9171   -3.2511 H   0  0  0  0  0  0
  -14.2803   20.2646   -5.6678 H   0  0  0  0  0  0
  -18.8896   18.0724   -2.7697 H   0  0  0  0  0  0
  -18.8128   20.9323   -4.5842 H   0  0  0  0  0  0
  -17.5414   21.8293   -5.5604 H   0  0  0  0  0  0
  -12.3912   19.8580   -3.9275 H   0  0  0  0  0  0
  -11.9456   18.3463   -3.0655 H   0  0  0  0  0  0
  -11.2872   18.6998   -6.0225 H   0  0  0  0  0  0
  -10.2144   19.3956   -4.7609 H   0  0  0  0  0  0
  -10.3578   16.9253   -3.7722 H   0  0  0  0  0  0
  -10.7468   16.5253   -5.4797 H   0  0  0  0  0  0
   -8.5348   16.6285   -5.9400 H   0  0  0  0  0  0
   -8.5933   18.3885   -5.5854 H   0  0  0  0  0  0
   -6.8503   17.3965   -4.2432 H   0  0  0  0  0  0
   -8.2115   17.8354   -3.1564 H   0  0  0  0  0  0
   -8.6529   15.6608   -2.6248 H   0  0  0  0  0  0
   -8.3449   15.0817   -4.2971 H   0  0  0  0  0  0
   -6.2091   15.8399   -2.2546 H   0  0  0  0  0  0
   -6.7150   14.1701   -2.6818 H   0  0  0  0  0  0
   -4.6670   14.8227   -3.8814 H   0  0  0  0  0  0
   -5.5261   16.2310   -4.5922 H   0  0  0  0  0  0
   -6.0320   14.5612   -5.0194 H   0  0  0  0  0  0
  1  2  2  0  0  0
  1  6  1  0  0  0
  1  9  1  0  0  0
  2  3  1  0  0  0
  2  8  1  0  0  0
  3  4  2  0  0  0
  3  7  1  0  0  0
  4  5  1  0  0  0
  4 20  1  0  0  0
  5  6  2  0  0  0
  5 10  1  0  0  0
  6 21  1  0  0  0
  7 22  1  0  0  0
  8 23  1  0  0  0
  9 24  1  0  0  0
 10 11  1  0  0  0
 10 19  2  0  0  0
 11 12  1  0  0  0
 11 25  1  0  0  0
 11 26  1  0  0  0
 12 13  1  0  0  0
 12 27  1  0  0  0
 12 28  1  0  0  0
 13 14  1  0  0  0
 13 29  1  0  0  0
 13 30  1  0  0  0
 14 15  1  0  0  0
 14 31  1  0  0  0
 14 32  1  0  0  0
 15 16  1  0  0  0
 15 33  1  0  0  0
 15 34  1  0  0  0
 16 17  1  0  0  0
 16 35  1  0  0  0
 16 36  1  0  0  0
 17 18  1  0  0  0
 17 37  1  0  0  0
 17 38  1  0  0  0
 18 39  1  0  0  0
 18 40  1  0  0  0
 18 41  1  0  0  0
M  END
> <s_m_source_file>
../4jgv_ligand.sdf

> <i_m_source_file_index>
1

> <s_epik_input>
W09IXWMxYyhbT0hdKWMoW09IXSlbY0hdYyhbY0hdMSlDKD1PKVtDSDJdW0NIMl1bQ0gyXVtDSDJdW0NIMl1bQ0gyXVtDSDJdW0NIM10=

> <s_epik_cmdline>
J2VwaWtfYXBwJywgJy1pbWFlJywgJ2xpZ2FuZF9wcm8ubWFlJywgJy1vbWFlJywgJ2xpZ2FuZF9wcmVwLm1hZScsICctbXMnLCAnMScsICctcGgnLCAnNycsICctcGh0JywgJzAuNScsICctbnQn

> <r_lp_tautomer_probability>
0.99990000499975

> <r_epik_Ionization_Penalty>
  0.0438

> <r_epik_Ionization_Penalty_Charging>
  0.0000

> <r_epik_Ionization_Penalty_Neutral>
  0.0438

> <r_epik_State_Penalty>
  0.0353

> <r_epik_Charging_Adjusted_Penalty>
0.0352881174251491

> <i_epik_Tot_Q>
0

> <i_epik_Tot_abs_Q>
0

$$$$
