4jh0_ligand
                    3D
 Schrodinger Suite 2020-3.
 48 50  0  0  1  0            999 V2000
   48.1730   50.1170   35.3990 C   0  0  0  0  0  0
   47.1440   50.8880   34.7480 C   0  0  0  0  0  0
   47.4070   51.4600   33.4580 C   0  0  0  0  0  0
   48.5600   51.2460   32.7850 N   0  0  0  0  0  0
   49.3750   49.9770   34.7070 C   0  0  0  0  0  0
   49.5200   50.5450   33.4480 C   0  0  0  0  0  0
   50.8990   50.3260   32.9490 C   0  0  0  0  0  0
   51.4650   49.5310   34.0270 N   0  0  0  0  0  0
   50.6310   49.3320   35.0640 C   0  0  0  0  0  0
   52.6410   48.6600   33.9380 C   0  0  0  0  0  0
   52.2580   47.4020   33.1460 C   0  0  0  0  0  0
   46.4890   52.3870   32.7320 C   0  0  0  0  0  0
   48.0560   49.6090   36.7950 C   0  0  0  0  0  0
   45.7540   51.0100   35.3220 C   0  0  0  0  0  0
   45.6990   51.8600   36.5090 N   0  3  0  0  0  0
   47.4410   48.3470   37.0770 C   0  0  0  0  0  0
   47.3590   47.9240   38.4580 C   0  0  0  0  0  0
   47.8810   48.7450   39.5120 C   0  0  0  0  0  0
   48.4800   50.0440   39.2760 C   0  0  0  0  0  0
   48.5310   50.4060   37.8950 C   0  0  0  0  0  0
   49.2330   51.9130   37.6040 Cl  0  0  0  0  0  0
   47.8160   48.1780   41.1200 Cl  0  0  0  0  0  0
   53.3280   46.5760   32.8840 N   0  0  0  0  0  0
   53.2030   45.2730   32.1460 C   0  0  0  0  0  0
   51.0660   47.1990   32.8010 O   0  0  0  0  0  0
   50.9730   48.7140   36.0820 O   0  0  0  0  0  0
   54.6110   46.9730   33.5230 C   0  0  0  0  0  0
   50.8606   49.7947   31.9866 H   0  0  0  0  0  0
   51.3979   51.2967   32.8122 H   0  0  0  0  0  0
   53.4543   49.1935   33.4242 H   0  0  0  0  0  0
   52.9679   48.3807   34.9505 H   0  0  0  0  0  0
   45.5696   52.5272   33.3195 H   0  0  0  0  0  0
   46.2356   51.9584   31.7511 H   0  0  0  0  0  0
   46.9854   53.3584   32.5906 H   0  0  0  0  0  0
   45.0827   51.4461   34.5675 H   0  0  0  0  0  0
   45.3864   50.0133   35.6076 H   0  0  0  0  0  0
   44.6638   51.9082   36.8778 H   0  0  0  0  0  0
   46.0440   52.8722   36.2514 H   0  0  0  0  0  0
   46.3478   51.4395   37.2915 H   0  0  0  0  0  0
   47.0463   47.7235   36.2748 H   0  0  0  0  0  0
   46.8942   46.9684   38.7009 H   0  0  0  0  0  0
   48.8553   50.6829   40.0754 H   0  0  0  0  0  0
   52.1811   45.1715   31.7518 H   0  0  0  0  0  0
   53.4153   44.4406   32.8331 H   0  0  0  0  0  0
   53.9211   45.2531   31.3129 H   0  0  0  0  0  0
   54.4915   47.9534   34.0072 H   0  0  0  0  0  0
   55.3980   47.0358   32.7571 H   0  0  0  0  0  0
   54.8923   46.2234   34.2772 H   0  0  0  0  0  0
  1  2  2  0  0  0
  1  5  1  0  0  0
  1 13  1  0  0  0
  2  3  1  0  0  0
  2 14  1  0  0  0
  3  4  2  0  0  0
  3 12  1  0  0  0
  4  6  1  0  0  0
  5  6  2  0  0  0
  5  9  1  0  0  0
  6  7  1  0  0  0
  7  8  1  0  0  0
  7 28  1  0  0  0
  7 29  1  0  0  0
  8  9  1  0  0  0
  8 10  1  0  0  0
  9 26  2  0  0  0
 10 11  1  0  0  0
 10 30  1  0  0  0
 10 31  1  0  0  0
 11 23  1  0  0  0
 11 25  2  0  0  0
 12 32  1  0  0  0
 12 33  1  0  0  0
 12 34  1  0  0  0
 13 16  2  0  0  0
 13 20  1  0  0  0
 14 15  1  0  0  0
 14 35  1  0  0  0
 14 36  1  0  0  0
 15 37  1  0  0  0
 15 38  1  0  0  0
 15 39  1  0  0  0
 16 17  1  0  0  0
 16 40  1  0  0  0
 17 18  2  0  0  0
 17 41  1  0  0  0
 18 19  1  0  0  0
 18 22  1  0  0  0
 19 20  2  0  0  0
 19 42  1  0  0  0
 20 21  1  0  0  0
 23 24  1  0  0  0
 23 27  1  0  0  0
 24 43  1  0  0  0
 24 44  1  0  0  0
 24 45  1  0  0  0
 27 46  1  0  0  0
 27 47  1  0  0  0
 27 48  1  0  0  0
M  CHG  1  15   1
M  END
> <s_m_source_file>
../4jh0_ligand.sdf

> <i_m_source_file_index>
1

> <s_epik_input>
Q2xjMVtjSF1jKENsKVtjSF1bY0hdYzEtYzJjKFtDSDJdW05IMytdKWMoW0NIM10pbmMoYzIzKVtDSDJdTihDMz1PKVtDSDJdQyg9TylOKFtDSDNdKVtDSDNd

> <s_epik_cmdline>
J2VwaWtfYXBwJywgJy1pbWFlJywgJ2xpZ2FuZF9wcm8ubWFlJywgJy1vbWFlJywgJ2xpZ2FuZF9wcmVwLm1hZScsICctbXMnLCAnMScsICctcGgnLCAnNycsICctcGh0JywgJzAuNScsICctbnQn

> <r_epik_Ionization_Penalty>
  0.0698

> <r_epik_Ionization_Penalty_Charging>
  0.0698

> <r_epik_Ionization_Penalty_Neutral>
  0.0000

> <r_epik_State_Penalty>
  0.0612

> <r_epik_Charging_Adjusted_Penalty>
0.130985006462791

> <i_epik_Tot_Q>
1

> <i_epik_Tot_abs_Q>
1

$$$$
