4jhq_ligand
                    3D
 Schrodinger Suite 2020-3.
 81 91  0  0  1  0            999 V2000
    4.0260   -6.2680   -7.3020 C   0  0  0  0  0  0
   -0.3370  -12.0720    0.1430 N   0  0  0  0  0  0
    2.7090   -9.9120   -0.9120 S   0  0  0  0  0  0
    1.7210  -10.5000   -2.3300 C   0  0  2  0  0  0
    0.6500  -12.7710   -1.6510 N   0  0  0  0  0  0
   -0.0360  -13.1630   -0.5580 C   0  0  0  0  0  0
    3.5140    0.5330   -7.1270 N   0  0  0  0  0  0
   -0.3500  -14.3160   -0.2180 O   0  0  0  0  0  0
    0.5510  -11.3230   -1.7860 C   0  0  1  0  0  0
    0.2950  -10.8860   -0.3690 C   0  0  2  0  0  0
    1.5990  -10.5590    0.2930 C   0  0  0  0  0  0
    2.3560  -11.1950   -3.5240 C   0  0  0  0  0  0
    3.3600  -10.2550   -4.1410 C   0  0  0  0  0  0
    4.0600  -10.7730   -5.4000 C   0  0  0  0  0  0
    5.0270   -9.7990   -6.0580 C   0  0  0  0  0  0
    4.2660   -8.5750   -6.5480 C   0  0  0  0  0  0
    3.0600   -8.6490   -6.6460 O   0  0  0  0  0  0
    4.6020   -4.8620   -7.3670 C   0  0  0  0  0  0
    4.2920   -4.0710   -8.6770 C   0  0  0  0  0  0
    3.1990   -2.9750   -8.6460 C   0  0  0  0  0  0
    3.3900   -1.8480   -7.6230 C   0  0  0  0  0  0
    2.9990   -0.4130   -7.9580 C   0  0  0  0  0  0
    2.2500   -0.1580   -8.9090 O   0  0  0  0  0  0
    3.2930    1.9740   -7.2310 C   0  0  0  0  0  0
    3.3640    2.5160   -8.6680 C   0  0  0  0  0  0
    2.0120    2.4420   -9.4040 C   0  0  0  0  0  0
    1.7020    3.6090  -10.3460 C   0  0  0  0  0  0
    2.8410    3.9090  -11.3450 C   0  0  0  0  0  0
    2.6750    3.2990  -12.7390 C   0  0  0  0  0  0
    1.5730    3.0600  -13.1890 O   0  0  0  0  0  0
    3.8860    2.9920  -13.5700 C   0  0  0  0  0  0
    4.0070    1.9560  -14.4910 C   0  0  0  0  0  0
    5.2670    2.0160  -15.0580 C   0  0  0  0  0  0
    5.9240    3.0880  -14.4940 C   0  0  0  0  0  0
    5.0800    3.6910  -13.5800 C   0  0  2  0  0  0
    5.5170   -0.1690  -12.6480 C   0  0  0  0  0  0
    4.7340    0.4960  -11.7270 C   0  0  0  0  0  0
    5.5220    1.4520  -11.1180 C   0  0  0  0  0  0
    6.7770    1.3650  -11.6690 C   0  0  0  0  0  0
    4.9230   -7.3710   -6.8600 N   0  0  0  0  0  0
    6.7760    0.3690  -12.6150 C   0  0  0  0  0  0
    5.4230    1.7790  -13.0850 Fe  0  0  0  0  0  0
    3.1819   -6.2862   -6.5969 H   0  0  0  0  0  0
    3.6758   -6.5674   -8.3009 H   0  0  0  0  0  0
   -0.9893  -12.0099    1.0265 H   0  0  0  0  0  0
    1.3342   -9.7060   -2.9857 H   0  0  0  0  0  0
    1.2231  -13.3541   -2.3869 H   0  0  0  0  0  0
    4.1456    0.1302   -6.3216 H   0  0  0  0  0  0
   -0.2221  -11.1795   -2.5553 H   0  0  0  0  0  0
   -0.3381  -10.0019   -0.2032 H   0  0  0  0  0  0
    2.0285  -11.4698    0.7356 H   0  0  0  0  0  0
    1.4365   -9.8096    1.0817 H   0  0  0  0  0  0
    2.8574  -12.1149   -3.1888 H   0  0  0  0  0  0
    1.5767  -11.4487   -4.2577 H   0  0  0  0  0  0
    2.8581   -9.3191   -4.4277 H   0  0  0  0  0  0
    4.1542  -10.0366   -3.4119 H   0  0  0  0  0  0
    4.6445  -11.6710   -5.1513 H   0  0  0  0  0  0
    3.3067  -11.0249   -6.1610 H   0  0  0  0  0  0
    5.7878   -9.4876   -5.3271 H   0  0  0  0  0  0
    5.5177  -10.2897   -6.9115 H   0  0  0  0  0  0
    4.1984   -4.2618   -6.5383 H   0  0  0  0  0  0
    5.6979   -4.9105   -7.2848 H   0  0  0  0  0  0
    5.1997   -3.5484   -9.0133 H   0  0  0  0  0  0
    3.9612   -4.7710   -9.4584 H   0  0  0  0  0  0
    3.1447   -2.4834   -9.6286 H   0  0  0  0  0  0
    2.2269   -3.4331   -8.4110 H   0  0  0  0  0  0
    2.8035   -2.0699   -6.7193 H   0  0  0  0  0  0
    4.4549   -1.7692   -7.3588 H   0  0  0  0  0  0
    2.2949    2.2210   -6.8401 H   0  0  0  0  0  0
    4.0578    2.5055   -6.6457 H   0  0  0  0  0  0
    3.6769    3.5703   -8.6471 H   0  0  0  0  0  0
    4.0927    1.9286   -9.2459 H   0  0  0  0  0  0
    1.9797    1.5318  -10.0209 H   0  0  0  0  0  0
    1.1949    2.4153   -8.6681 H   0  0  0  0  0  0
    0.8005    3.3775  -10.9322 H   0  0  0  0  0  0
    1.5312    4.5213   -9.7557 H   0  0  0  0  0  0
    2.9239    4.9961  -11.4908 H   0  0  0  0  0  0
    3.7896    3.5190  -10.9475 H   0  0  0  0  0  0
    5.0824    4.7822  -13.4411 H   0  0  0  0  0  0
    6.0088   -7.2059   -6.7990 H   0  0  0  0  0  0
    7.6622   -0.2650  -12.7654 H   0  0  0  0  0  0
  1 18  1  0  0  0
  1 40  1  0  0  0
  1 43  1  0  0  0
  1 44  1  0  0  0
  2  6  1  0  0  0
  2 10  1  0  0  0
  2 45  1  0  0  0
  3  4  1  0  0  0
  3 11  1  0  0  0
  4  9  1  0  0  0
  4 12  1  0  0  0
  4 46  1  0  0  0
  5  6  1  0  0  0
  5  9  1  0  0  0
  5 47  1  0  0  0
  6  8  2  0  0  0
  7 22  1  0  0  0
  7 24  1  0  0  0
  7 48  1  0  0  0
  9 10  1  0  0  0
  9 49  1  0  0  0
 10 11  1  0  0  0
 10 50  1  0  0  0
 11 51  1  0  0  0
 11 52  1  0  0  0
 12 13  1  0  0  0
 12 53  1  0  0  0
 12 54  1  0  0  0
 13 14  1  0  0  0
 13 55  1  0  0  0
 13 56  1  0  0  0
 14 15  1  0  0  0
 14 57  1  0  0  0
 14 58  1  0  0  0
 15 16  1  0  0  0
 15 59  1  0  0  0
 15 60  1  0  0  0
 16 17  2  0  0  0
 16 40  1  0  0  0
 18 19  1  0  0  0
 18 61  1  0  0  0
 18 62  1  0  0  0
 19 20  1  0  0  0
 19 63  1  0  0  0
 19 64  1  0  0  0
 20 21  1  0  0  0
 20 65  1  0  0  0
 20 66  1  0  0  0
 21 22  1  0  0  0
 21 67  1  0  0  0
 21 68  1  0  0  0
 22 23  2  0  0  0
 24 25  1  0  0  0
 24 69  1  0  0  0
 24 70  1  0  0  0
 25 26  1  0  0  0
 25 71  1  0  0  0
 25 72  1  0  0  0
 26 27  1  0  0  0
 26 73  1  0  0  0
 26 74  1  0  0  0
 27 28  1  0  0  0
 27 75  1  0  0  0
 27 76  1  0  0  0
 28 29  1  0  0  0
 28 77  1  0  0  0
 28 78  1  0  0  0
 29 30  2  0  0  0
 29 31  1  0  0  0
 31 32  2  0  0  0
 31 35  1  0  0  0
 32 33  1  0  0  0
 32 42  1  0  0  0
 33 34  2  0  0  0
 33 42  1  0  0  0
 34 35  1  0  0  0
 34 42  1  0  0  0
 35 42  1  0  0  0
 35 79  1  0  0  0
 36 37  2  0  0  0
 36 41  1  0  0  0
 36 42  1  0  0  0
 37 38  1  0  0  0
 37 42  1  0  0  0
 38 39  2  0  0  0
 38 42  1  0  0  0
 39 41  1  0  0  0
 39 42  1  0  0  0
 40 80  1  0  0  0
 41 42  1  0  0  0
 41 81  1  0  0  0
M  END
> <s_m_source_file>
../4jhq_ligand.sdf

> <i_m_source_file_index>
1

> <s_epik_input>
W05IXTFDKD1PKVtOSF1bQ0BIXShbQ0BIXTEyKVtDSDJdU1tDQEhdMltDSDJdW0NIMl1bQ0gyXVtDSDJdQyg9TylbTkhdW0NIMl1bQ0gyXVtDSDJdW0NIMl1bQ0gyXUMoPU8pW05IXVtDSDJdW0NIMl1bQ0gyXVtDSDJdW0NIMl1DKD1PKUM9M1tDQEBIXTRDNT1DNkMzW0ZlXTE0NTY3ODlDMj1DN0M4PUM5W0NIXTEy

> <s_epik_cmdline>
J2VwaWtfYXBwJywgJy1pbWFlJywgJ2xpZ2FuZF9wcm8ubWFlJywgJy1vbWFlJywgJ2xpZ2FuZF9wcmVwLm1hZScsICctbXMnLCAnMScsICctcGgnLCAnNycsICctcGh0JywgJzAuNScsICctbnQn

> <r_lp_tautomer_probability>
1

> <r_epik_Ionization_Penalty>
  0.0000

> <r_epik_Ionization_Penalty_Charging>
  0.0000

> <r_epik_Ionization_Penalty_Neutral>
  0.0000

> <r_epik_State_Penalty>
 -0.0000

> <r_epik_Charging_Adjusted_Penalty>
0

> <i_epik_Tot_Q>
0

> <i_epik_Tot_abs_Q>
0

$$$$
