4jht_ligand
                    3D
 Schrodinger Suite 2020-3.
 20 21  0  0  1  0            999 V2000
   -4.2110    3.6990   -1.4620 O   0  5  0  0  0  0
   -2.6560    4.6800   -0.3180 O   0  0  0  0  0  0
   -4.0790   -0.6340    3.0870 O   0  0  0  0  0  0
   -1.1070    3.2420    3.2310 C   0  0  0  0  0  0
   -1.3090    2.1450    4.0420 C   0  0  0  0  0  0
   -4.6550    0.5420    1.0920 C   0  0  0  0  0  0
   -4.4860    1.6150    0.2540 C   0  0  0  0  0  0
   -1.8450    3.4310    2.0890 C   0  0  0  0  0  0
   -2.2570    1.2180    3.6790 N   0  0  0  0  0  0
   -3.4530    3.7180   -0.4550 C   0  0  0  0  0  0
   -3.9050    0.4250    2.2410 C   0  0  0  0  0  0
   -3.5540    2.5990    0.5300 C   0  0  0  0  0  0
   -2.7810    2.4890    1.6960 C   0  0  0  0  0  0
   -2.9650    1.3810    2.5390 C   0  0  0  0  0  0
   -4.8295   -1.4045    2.8565 H   0  0  0  0  0  0
   -0.3460    3.9737    3.5022 H   0  0  0  0  0  0
   -0.7273    2.0153    4.9546 H   0  0  0  0  0  0
   -5.3896   -0.2248    0.8461 H   0  0  0  0  0  0
   -5.0970    1.6934   -0.6452 H   0  0  0  0  0  0
   -1.6934    4.3277    1.4881 H   0  0  0  0  0  0
  1 10  1  0  0  0
  2 10  2  0  0  0
  3 11  1  0  0  0
  3 15  1  0  0  0
  4  5  2  0  0  0
  4  8  1  0  0  0
  4 16  1  0  0  0
  5  9  1  0  0  0
  5 17  1  0  0  0
  6  7  1  0  0  0
  6 11  2  0  0  0
  6 18  1  0  0  0
  7 12  2  0  0  0
  7 19  1  0  0  0
  8 13  2  0  0  0
  8 20  1  0  0  0
  9 14  2  0  0  0
 10 12  1  0  0  0
 11 14  1  0  0  0
 12 13  1  0  0  0
 13 14  1  0  0  0
M  CHG  1   1  -1
M  END
> <s_m_source_file>
../4jht_ligand.sdf

> <i_m_source_file_index>
1

> <s_epik_input>
W09IXUMoPU8pYzFbY0hdW2NIXWMoW09IXSljKGMxMiluW2NIXVtjSF1bY0hdMg==

> <s_epik_cmdline>
J2VwaWtfYXBwJywgJy1pbWFlJywgJ2xpZ2FuZF9wcm8ubWFlJywgJy1vbWFlJywgJ2xpZ2FuZF9wcmVwLm1hZScsICctbXMnLCAnMScsICctcGgnLCAnNycsICctcGh0JywgJzAuNScsICctbnQn

> <r_epik_Ionization_Penalty>
  0.0271

> <r_epik_Ionization_Penalty_Charging>
  0.0003

> <r_epik_Ionization_Penalty_Neutral>
  0.0268

> <r_epik_State_Penalty>
  0.0166

> <r_epik_Charging_Adjusted_Penalty>
0.0168330803425217

> <i_epik_Tot_Q>
-1

> <i_epik_Tot_abs_Q>
1

$$$$
