4jhz_ligand
                    3D
 Schrodinger Suite 2020-3.
 64 67  0  0  1  0            999 V2000
   83.9630  -33.7690  161.5390 C   0  0  0  0  0  0
   84.7740  -33.8210  162.6950 O   0  0  0  0  0  0
   84.4510  -32.8640  163.6770 C   0  0  1  0  0  0
   83.9420  -33.6420  164.9070 C   0  0  0  0  0  0
   83.7460  -32.8480  166.1950 C   0  0  0  0  0  0
   85.0870  -32.1600  166.4720 C   0  0  2  0  0  0
   84.9330  -31.2760  167.5710 O   0  0  0  0  0  0
   86.1470  -30.7110  168.0460 C   0  0  0  0  0  0
   85.5190  -31.2560  165.2830 C   0  0  0  0  0  0
   85.7330  -32.0210  163.9640 C   0  0  2  0  0  0
   85.9770  -31.1930  162.7660 N   0  0  0  0  0  0
   86.6220  -29.9930  162.5390 C   0  0  0  0  0  0
   87.1530  -29.3960  163.5390 O   0  0  0  0  0  0
   86.7480  -29.3630  161.1980 C   0  0  0  0  0  0
   86.3450  -30.3290  160.0230 N   0  0  2  0  0  0
   87.4850  -30.6600  158.9890 C   0  0  0  0  0  0
   87.0880  -31.7630  158.0730 C   0  0  0  0  0  0
   85.0660  -29.8850  159.2620 C   0  0  0  0  0  0
   84.5640  -31.0320  158.4500 C   0  0  0  0  0  0
   85.6580  -31.5320  157.3810 N   0  3  2  0  0  0
   85.2080  -32.7260  156.4130 C   0  0  0  0  0  0
   84.8590  -34.0980  156.9960 C   0  0  0  0  0  0
   85.6150  -35.2720  156.6960 C   0  0  0  0  0  0
   85.2530  -36.5030  157.2410 C   0  0  0  0  0  0
   85.8270  -37.7470  157.0970 O   0  0  0  0  0  0
   85.2140  -38.6420  158.0570 C   0  0  0  0  0  0
   84.0200  -37.9480  158.4810 O   0  0  0  0  0  0
   84.1520  -36.6500  158.0900 C   0  0  0  0  0  0
   83.3930  -35.5310  158.4010 C   0  0  0  0  0  0
   83.7660  -34.2850  157.8400 C   0  0  0  0  0  0
   84.2842  -34.5467  160.8305 H   0  0  0  0  0  0
   84.0603  -32.7802  161.0670 H   0  0  0  0  0  0
   82.9132  -33.9396  161.8197 H   0  0  0  0  0  0
   83.6531  -32.2146  163.2875 H   0  0  0  0  0  0
   82.9611  -34.0853  164.6803 H   0  0  0  0  0  0
   84.6561  -34.4404  165.1572 H   0  0  0  0  0  0
   82.9420  -32.1109  166.0526 H   0  0  0  0  0  0
   83.4742  -33.5339  167.0109 H   0  0  0  0  0  0
   85.8303  -32.9292  166.7286 H   0  0  0  0  0  0
   85.9336  -30.0429  168.8934 H   0  0  0  0  0  0
   86.6252  -30.1375  167.2383 H   0  0  0  0  0  0
   86.8220  -31.5152  168.3740 H   0  0  0  0  0  0
   84.7434  -30.4982  165.0979 H   0  0  0  0  0  0
   86.4682  -30.7569  165.5278 H   0  0  0  0  0  0
   86.6706  -32.5827  164.0883 H   0  0  0  0  0  0
   85.6002  -31.5197  161.7856 H   0  0  0  0  0  0
   86.0929  -28.4810  161.1443 H   0  0  0  0  0  0
   87.7913  -29.0554  161.0340 H   0  0  0  0  0  0
   87.7022  -29.7671  158.3845 H   0  0  0  0  0  0
   88.3927  -30.9665  159.5295 H   0  0  0  0  0  0
   87.8329  -31.8581  157.2692 H   0  0  0  0  0  0
   87.0342  -32.7062  158.6365 H   0  0  0  0  0  0
   84.2970  -29.5771  159.9858 H   0  0  0  0  0  0
   85.3074  -29.0392  158.6014 H   0  0  0  0  0  0
   84.3215  -31.8738  159.1152 H   0  0  0  0  0  0
   83.6607  -30.7258  157.9020 H   0  0  0  0  0  0
   85.7605  -30.7005  156.6682 H   0  0  0  0  0  0
   84.2999  -32.4322  155.8662 H   0  0  0  0  0  0
   86.0143  -32.9406  155.6962 H   0  0  0  0  0  0
   86.4805  -35.2051  156.0368 H   0  0  0  0  0  0
   84.9819  -39.6001  157.5689 H   0  0  0  0  0  0
   85.9083  -38.8149  158.8925 H   0  0  0  0  0  0
   82.5296  -35.6089  159.0618 H   0  0  0  0  0  0
   83.1575  -33.4144  158.0848 H   0  0  0  0  0  0
  1  2  1  0  0  0
  1 31  1  0  0  0
  1 32  1  0  0  0
  1 33  1  0  0  0
  2  3  1  0  0  0
  3  4  1  0  0  0
  3 10  1  0  0  0
  3 34  1  0  0  0
  4  5  1  0  0  0
  4 35  1  0  0  0
  4 36  1  0  0  0
  5  6  1  0  0  0
  5 37  1  0  0  0
  5 38  1  0  0  0
  6  7  1  0  0  0
  6  9  1  0  0  0
  6 39  1  0  0  0
  7  8  1  0  0  0
  8 40  1  0  0  0
  8 41  1  0  0  0
  8 42  1  0  0  0
  9 10  1  0  0  0
  9 43  1  0  0  0
  9 44  1  0  0  0
 10 11  1  0  0  0
 10 45  1  0  0  0
 11 12  1  0  0  0
 11 46  1  0  0  0
 12 13  2  0  0  0
 12 14  1  0  0  0
 14 15  1  0  0  0
 14 47  1  0  0  0
 14 48  1  0  0  0
 15 16  1  0  0  0
 15 18  1  0  0  0
 16 17  1  0  0  0
 16 49  1  0  0  0
 16 50  1  0  0  0
 17 20  1  0  0  0
 17 51  1  0  0  0
 17 52  1  0  0  0
 18 19  1  0  0  0
 18 53  1  0  0  0
 18 54  1  0  0  0
 19 20  1  0  0  0
 19 55  1  0  0  0
 19 56  1  0  0  0
 20 21  1  0  0  0
 20 57  1  0  0  0
 21 22  1  0  0  0
 21 58  1  0  0  0
 21 59  1  0  0  0
 22 23  2  0  0  0
 22 30  1  0  0  0
 23 24  1  0  0  0
 23 60  1  0  0  0
 24 25  1  0  0  0
 24 28  2  0  0  0
 25 26  1  0  0  0
 26 27  1  0  0  0
 26 61  1  0  0  0
 26 62  1  0  0  0
 27 28  1  0  0  0
 28 29  1  0  0  0
 29 30  2  0  0  0
 29 63  1  0  0  0
 30 64  1  0  0  0
M  CHG  1  20   1
M  END
> <s_m_source_file>
../4jhz_ligand.sdf

> <i_m_source_file_index>
1

> <s_epik_input>
W0NIM11PW0NASF0xW0NIMl1bQ0gyXVtDQEhdKE9bQ0gzXSlbQ0gyXVtDQEBIXTFbTkhdQyg9TylbQ0gyXVtOQEBIK10yW0NIMl1bQ0gyXVtOQEgrXShbQ0gyXVtDSDJdMilbQ0gyXWMoW2NIXTMpW2NIXVtjSF1jKGMzNClPW0NIMl1PNA==

> <s_epik_cmdline>
J2VwaWtfYXBwJywgJy1pbWFlJywgJ2xpZ2FuZF9wcm8ubWFlJywgJy1vbWFlJywgJ2xpZ2FuZF9wcmVwLm1hZScsICctbXMnLCAnMScsICctcGgnLCAnNycsICctcGh0JywgJzAuNScsICctbnQn

> <r_lp_tautomer_probability>
1

> <r_epik_Ionization_Penalty>
  0.0273

> <r_epik_Ionization_Penalty_Charging>
  0.0231

> <r_epik_Ionization_Penalty_Neutral>
  0.0042

> <r_epik_State_Penalty>
 -0.0000

> <r_epik_Charging_Adjusted_Penalty>
0.0230528900251015

> <i_epik_Tot_Q>
1

> <i_epik_Tot_abs_Q>
1

> <s_epik_Chemistry_Notes>
This compound contains an acetal/aminal-like group ( X-CH(R)-Y where X, Y are N, S, or O) that may be acid/base labile, releasing an aldehyde.

$$$$
