4jib_ligand
                    3D
 Schrodinger Suite 2020-3.
 61 64  0  0  1  0            999 V2000
    7.3050   -3.7460   -4.9260 N   0  0  0  0  0  0
    7.6260   -3.8660   -2.2390 C   0  0  0  0  0  0
   10.0000   -4.2890   -2.8300 C   0  0  0  0  0  0
    6.9070   -6.6120   -2.8910 C   0  0  0  0  0  0
   12.6240   -9.5770   -7.7860 C   0  0  0  0  0  0
   14.0960  -11.7690   -5.3470 C   0  0  0  0  0  0
   14.6590  -13.0100   -5.6290 C   0  0  0  0  0  0
    8.3400   -6.1980   -2.6790 C   0  0  0  0  0  0
   11.9010   -8.3640   -7.8450 C   0  0  0  0  0  0
   11.3060   -8.6230   -5.5110 C   0  0  0  0  0  0
    8.4590   -4.9950   -8.2650 C   0  0  0  0  0  0
    7.5670   -4.8310   -9.0820 O   0  0  0  0  0  0
    8.2120   -4.6530   -6.8290 C   0  0  0  0  0  0
    7.2830   -3.8050   -6.3430 N   0  0  0  0  0  0
    6.3040   -2.9450   -7.0110 C   0  0  0  0  0  0
    5.0040   -3.6750   -7.2470 C   0  0  0  0  0  0
    4.2000   -2.8280   -8.0580 O   0  0  0  0  0  0
    9.5870   -5.5110   -8.6800 N   0  0  0  0  0  0
   10.7330   -5.7180   -7.8400 C   0  0  0  0  0  0
   10.4950   -6.6220   -6.6570 C   0  0  2  0  0  0
    9.8750   -6.1310   -5.6540 N   0  0  0  0  0  0
    8.8720   -5.1600   -5.7050 C   0  0  0  0  0  0
    8.3090   -4.5970   -4.5550 C   0  0  0  0  0  0
    8.5700   -4.7410   -3.0690 C   0  0  0  0  0  0
   11.2360   -7.9160   -6.6890 C   0  0  0  0  0  0
   12.0230   -9.8000   -5.4890 C   0  0  0  0  0  0
   12.7000  -10.3280   -6.5950 C   0  0  0  0  0  0
   13.3910  -11.4900   -6.4560 N   0  0  0  0  0  0
   13.4560  -12.4150   -7.4130 C   0  0  0  0  0  0
   12.7700  -12.3690   -8.7530 C   0  0  0  0  0  0
   14.2530  -13.3830   -6.8810 N   0  0  0  0  0  0
    7.8476   -3.9993   -1.1698 H   0  0  0  0  0  0
    6.5846   -4.1599   -2.4370 H   0  0  0  0  0  0
    7.7677   -2.8104   -2.5141 H   0  0  0  0  0  0
   10.2379   -4.3757   -1.7595 H   0  0  0  0  0  0
   10.1112   -3.2415   -3.1467 H   0  0  0  0  0  0
   10.6867   -4.9225   -3.4107 H   0  0  0  0  0  0
    6.7826   -7.6653   -2.5992 H   0  0  0  0  0  0
    6.6439   -6.4920   -3.9523 H   0  0  0  0  0  0
    6.2483   -5.9810   -2.2763 H   0  0  0  0  0  0
   13.1331   -9.9392   -8.6791 H   0  0  0  0  0  0
   14.2016  -11.1680   -4.4438 H   0  0  0  0  0  0
   15.3091  -13.5839   -4.9685 H   0  0  0  0  0  0
    8.6031   -6.3180   -1.6177 H   0  0  0  0  0  0
    8.9988   -6.8290   -3.2937 H   0  0  0  0  0  0
   11.8594   -7.7866   -8.7686 H   0  0  0  0  0  0
   10.8049   -8.2600   -4.6137 H   0  0  0  0  0  0
    6.1019   -2.0639   -6.3842 H   0  0  0  0  0  0
    6.7042   -2.6198   -7.9826 H   0  0  0  0  0  0
    5.2062   -4.6282   -7.7575 H   0  0  0  0  0  0
    4.5140   -3.8726   -6.2822 H   0  0  0  0  0  0
    3.1943   -3.1522   -8.3638 H   0  0  0  0  0  0
    9.6260   -5.7924   -9.7427 H   0  0  0  0  0  0
   11.5421   -6.1738   -8.4295 H   0  0  0  0  0  0
   11.0720   -4.7520   -7.4376 H   0  0  0  0  0  0
    9.5745   -6.8810   -6.1134 H   0  0  0  0  0  0
   10.1176   -6.4720   -4.6367 H   0  0  0  0  0  0
   12.0656  -10.3546   -4.5516 H   0  0  0  0  0  0
   12.2059  -11.4291   -8.8440 H   0  0  0  0  0  0
   12.0797  -13.2209   -8.8410 H   0  0  0  0  0  0
   13.5234  -12.4234   -9.5526 H   0  0  0  0  0  0
  1 14  1  0  0  0
  1 23  2  0  0  0
  2 24  1  0  0  0
  2 32  1  0  0  0
  2 33  1  0  0  0
  2 34  1  0  0  0
  3 24  1  0  0  0
  3 35  1  0  0  0
  3 36  1  0  0  0
  3 37  1  0  0  0
  4  8  1  0  0  0
  4 38  1  0  0  0
  4 39  1  0  0  0
  4 40  1  0  0  0
  5  9  2  0  0  0
  5 27  1  0  0  0
  5 41  1  0  0  0
  6  7  2  0  0  0
  6 28  1  0  0  0
  6 42  1  0  0  0
  7 31  1  0  0  0
  7 43  1  0  0  0
  8 24  1  0  0  0
  8 44  1  0  0  0
  8 45  1  0  0  0
  9 25  1  0  0  0
  9 46  1  0  0  0
 10 25  2  0  0  0
 10 26  1  0  0  0
 10 47  1  0  0  0
 11 12  2  0  0  0
 11 13  1  0  0  0
 11 18  1  0  0  0
 13 14  1  0  0  0
 13 22  2  0  0  0
 14 15  1  0  0  0
 15 16  1  0  0  0
 15 48  1  0  0  0
 15 49  1  0  0  0
 16 17  1  0  0  0
 16 50  1  0  0  0
 16 51  1  0  0  0
 17 52  1  0  0  0
 18 19  1  0  0  0
 18 53  1  0  0  0
 19 20  1  0  0  0
 19 54  1  0  0  0
 19 55  1  0  0  0
 20 21  1  0  0  0
 20 25  1  0  0  0
 20 56  1  0  0  0
 21 22  1  0  0  0
 21 57  1  0  0  0
 22 23  1  0  0  0
 23 24  1  0  0  0
 26 27  2  0  0  0
 26 58  1  0  0  0
 27 28  1  0  0  0
 28 29  1  0  0  0
 29 30  1  0  0  0
 29 31  2  0  0  0
 30 59  1  0  0  0
 30 60  1  0  0  0
 30 61  1  0  0  0
M  END
> <s_m_source_file>
../4jib_ligand.sdf

> <i_m_source_file_index>
1

> <s_epik_input>
W09IXVtDSDJdW0NIMl1uMW5jKEMoW0NIM10pKFtDSDNdKVtDSDJdW0NIM10pYyhjMTIpW05IXVtDQEBIXShbQ0gyXVtOSF1DMj1PKWMzW2NIXVtjSF1jKFtjSF1bY0hdMyktbjRbY0hdW2NIXW5jNFtDSDNd

> <s_epik_cmdline>
J2VwaWtfYXBwJywgJy1pbWFlJywgJ2xpZ2FuZF9wcm8ubWFlJywgJy1vbWFlJywgJ2xpZ2FuZF9wcmVwLm1hZScsICctbXMnLCAnMScsICctcGgnLCAnNycsICctcGh0JywgJzAuNScsICctbnQn

> <r_lp_tautomer_probability>
1

> <r_epik_Ionization_Penalty>
  0.1811

> <r_epik_Ionization_Penalty_Charging>
  0.1808

> <r_epik_Ionization_Penalty_Neutral>
  0.0003

> <r_epik_State_Penalty>
  0.1703

> <r_epik_Charging_Adjusted_Penalty>
0.351094036590248

> <i_epik_Tot_Q>
0

> <i_epik_Tot_abs_Q>
0

$$$$
