4jik_ligand
                    3D
 Schrodinger Suite 2020-3.
 46 49  0  0  1  0            999 V2000
   14.7660   -2.9850    8.2380 N   0  0  0  0  0  0
   15.1530   -2.0000    7.3650 C   0  0  0  0  0  0
   14.1210   -1.1750    7.1160 C   0  0  0  0  0  0
   13.0410   -1.6450    7.8430 N   0  0  0  0  0  0
   13.4920   -2.7540    8.5150 C   0  0  0  0  0  0
   11.7510   -1.2340    7.9920 C   0  0  0  0  0  0
   10.9030   -1.8390    8.7630 N   0  0  0  0  0  0
   11.3170   -2.9310    9.4290 C   0  0  0  0  0  0
   12.5880   -3.4330    9.3520 C   0  0  0  0  0  0
   12.9960   -4.5350   10.0400 N   0  0  0  0  0  0
   16.4990   -1.9590    6.8480 C   0  0  0  0  0  0
   11.2900   -0.0260    7.2650 C   0  0  0  0  0  0
   12.4670   -5.0050   11.2850 C   0  0  2  0  0  0
   12.7980   -4.0320   12.4410 C   0  0  0  0  0  0
   12.2150   -4.5370   13.6820 N   0  3  0  0  0  0
   12.7400   -5.8650   14.0300 C   0  0  0  0  0  0
   12.4120   -6.8700   12.8950 C   0  0  0  0  0  0
   13.0270   -6.3780   11.5870 C   0  0  0  0  0  0
   16.9450   -0.8470    6.0970 C   0  0  0  0  0  0
   18.2420   -0.8110    5.5990 C   0  0  0  0  0  0
   19.1060   -1.8780    5.8370 C   0  0  0  0  0  0
   18.6770   -2.9960    6.5830 C   0  0  0  0  0  0
   17.3690   -3.0330    7.0880 C   0  0  0  0  0  0
   20.7310   -1.8220    5.2240 Cl  0  0  0  0  0  0
   10.0500    0.3880    7.5580 N   0  0  0  0  0  0
   12.0050    0.5670    6.4580 O   0  0  0  0  0  0
   14.1326   -0.3011    6.4646 H   0  0  0  0  0  0
   10.5991   -3.4463   10.0671 H   0  0  0  0  0  0
   13.8140   -5.0820    9.5484 H   0  0  0  0  0  0
   11.3805   -5.0586   11.1220 H   0  0  0  0  0  0
   13.8895   -3.9536   12.5530 H   0  0  0  0  0  0
   12.3803   -3.0396   12.2160 H   0  0  0  0  0  0
   12.4497   -3.8460   14.5051 H   0  0  0  0  0  0
   11.1236   -4.6155   13.5691 H   0  0  0  0  0  0
   13.8306   -5.8054   14.1607 H   0  0  0  0  0  0
   12.2767   -6.2085   14.9667 H   0  0  0  0  0  0
   12.8275   -7.8567   13.1475 H   0  0  0  0  0  0
   11.3210   -6.9501   12.7802 H   0  0  0  0  0  0
   12.7717   -7.0664   10.7679 H   0  0  0  0  0  0
   14.1208   -6.3145   11.6851 H   0  0  0  0  0  0
   16.2682   -0.0138    5.9077 H   0  0  0  0  0  0
   18.5826    0.0498    5.0236 H   0  0  0  0  0  0
   19.3586   -3.8267    6.7660 H   0  0  0  0  0  0
   17.0297   -3.8933    7.6649 H   0  0  0  0  0  0
    9.4415   -0.1695    8.2853 H   0  0  0  0  0  0
    9.6404    1.2854    7.0713 H   0  0  0  0  0  0
  1  2  1  0  0  0
  1  5  2  0  0  0
  2  3  2  0  0  0
  2 11  1  0  0  0
  3  4  1  0  0  0
  3 27  1  0  0  0
  4  5  1  0  0  0
  4  6  1  0  0  0
  5  9  1  0  0  0
  6  7  2  0  0  0
  6 12  1  0  0  0
  7  8  1  0  0  0
  8  9  2  0  0  0
  8 28  1  0  0  0
  9 10  1  0  0  0
 10 13  1  0  0  0
 10 29  1  0  0  0
 11 19  2  0  0  0
 11 23  1  0  0  0
 12 25  1  0  0  0
 12 26  2  0  0  0
 13 14  1  0  0  0
 13 18  1  0  0  0
 13 30  1  0  0  0
 14 15  1  0  0  0
 14 31  1  0  0  0
 14 32  1  0  0  0
 15 16  1  0  0  0
 15 33  1  0  0  0
 15 34  1  0  0  0
 16 17  1  0  0  0
 16 35  1  0  0  0
 16 36  1  0  0  0
 17 18  1  0  0  0
 17 37  1  0  0  0
 17 38  1  0  0  0
 18 39  1  0  0  0
 18 40  1  0  0  0
 19 20  1  0  0  0
 19 41  1  0  0  0
 20 21  2  0  0  0
 20 42  1  0  0  0
 21 22  1  0  0  0
 21 24  1  0  0  0
 22 23  2  0  0  0
 22 43  1  0  0  0
 23 44  1  0  0  0
 25 45  1  0  0  0
 25 46  1  0  0  0
M  CHG  1  15   1
M  END
> <s_m_source_file>
../4jik_ligand.sdf

> <i_m_source_file_index>
1

> <s_epik_input>
W2NIXTFbY0hdYyhDbClbY0hdW2NIXWMxLWMoW2NIXTIpbmMobjIzKWMoW2NIXW5jM0MoPU8pW05IMl0pW05IXVtDQEBIXTRbQ0gyXVtOSDIrXVtDSDJdW0NIMl1bQ0gyXTQ=

> <s_epik_cmdline>
J2VwaWtfYXBwJywgJy1pbWFlJywgJ2xpZ2FuZF9wcm8ubWFlJywgJy1vbWFlJywgJ2xpZ2FuZF9wcmVwLm1hZScsICctbXMnLCAnMScsICctcGgnLCAnNycsICctcGh0JywgJzAuNScsICctbnQn

> <r_lp_tautomer_probability>
1

> <r_epik_Ionization_Penalty>
  0.0013

> <r_epik_Ionization_Penalty_Charging>
  0.0013

> <r_epik_Ionization_Penalty_Neutral>
  0.0000

> <r_epik_State_Penalty>
 -0.0000

> <r_epik_Charging_Adjusted_Penalty>
0.00132440902004022

> <i_epik_Tot_Q>
1

> <i_epik_Tot_abs_Q>
1

$$$$
