4jit_ligand
                    3D
 Schrodinger Suite 2020-3.
 37 39  0  0  1  0            999 V2000
  -40.6980   22.5210  -11.7260 N   0  0  0  0  0  0
  -40.0660   23.0760  -12.7750 C   0  0  0  0  0  0
  -38.9580   23.9710  -12.5480 N   0  0  0  0  0  0
  -40.4450   22.8180  -14.0590 N   0  0  0  0  0  0
  -41.5030   21.9680  -14.3040 C   0  0  0  0  0  0
  -42.1730   21.3760  -13.2460 C   0  0  0  0  0  0
  -41.7500   21.6680  -11.9000 C   0  0  0  0  0  0
  -42.3900   21.1030  -10.8220 O   0  0  0  0  0  0
  -43.1790   20.5770  -13.7920 N   0  0  0  0  0  0
  -43.1200   20.6770  -15.1530 C   0  0  0  0  0  0
  -42.1160   21.5160  -15.4820 N   0  0  0  0  0  0
  -41.6290   17.7150  -18.8410 O   0  0  0  0  0  0
  -43.9010   16.0750  -18.7520 O   0  0  0  0  0  0
  -46.0830   17.2600  -19.0230 O   0  5  0  0  0  0
  -44.5260   16.9070  -21.0400 O   0  0  0  0  0  0
  -40.3150   21.4950  -17.0870 C   0  0  0  0  0  0
  -40.3970   20.0910  -17.5640 C   0  0  0  0  0  0
  -43.7870   18.7670  -19.1350 C   0  0  0  0  0  0
  -42.5130   21.1770  -17.8360 C   0  0  0  0  0  0
  -42.3170   18.7240  -18.6820 C   0  0  0  0  0  0
  -41.6950   21.9090  -16.8400 C   0  0  1  0  0  0
  -41.7610   19.9210  -18.0610 N   0  0  0  0  0  0
  -44.5950   17.1730  -19.4900 P   0  0  0  0  0  0
  -40.3700   22.7512  -10.7016 H   0  0  0  0  0  0
  -38.6333   24.1949  -11.5211 H   0  0  0  0  0  0
  -38.4376   24.4297  -13.4017 H   0  0  0  0  0  0
  -43.7755   20.1639  -15.8567 H   0  0  0  0  0  0
  -44.9620   15.9887  -21.4604 H   0  0  0  0  0  0
  -39.7142   21.5350  -16.1665 H   0  0  0  0  0  0
  -39.8425   22.1181  -17.8606 H   0  0  0  0  0  0
  -39.6576   19.9313  -18.3626 H   0  0  0  0  0  0
  -40.1877   19.4070  -16.7283 H   0  0  0  0  0  0
  -44.3985   19.2385  -18.3515 H   0  0  0  0  0  0
  -43.8675   19.3507  -20.0639 H   0  0  0  0  0  0
  -43.5154   20.9922  -17.4225 H   0  0  0  0  0  0
  -42.5997   21.7788  -18.7527 H   0  0  0  0  0  0
  -41.7951   23.0014  -16.9216 H   0  0  0  0  0  0
  1  2  1  0  0  0
  1  7  1  0  0  0
  1 24  1  0  0  0
  2  3  1  0  0  0
  2  4  2  0  0  0
  3 25  1  0  0  0
  3 26  1  0  0  0
  4  5  1  0  0  0
  5  6  2  0  0  0
  5 11  1  0  0  0
  6  7  1  0  0  0
  6  9  1  0  0  0
  7  8  2  0  0  0
  9 10  2  0  0  0
 10 11  1  0  0  0
 10 27  1  0  0  0
 11 21  1  0  0  0
 12 20  2  0  0  0
 13 23  2  0  0  0
 14 23  1  0  0  0
 15 23  1  0  0  0
 15 28  1  0  0  0
 16 17  1  0  0  0
 16 21  1  0  0  0
 16 29  1  0  0  0
 16 30  1  0  0  0
 17 22  1  0  0  0
 17 31  1  0  0  0
 17 32  1  0  0  0
 18 20  1  0  0  0
 18 23  1  0  0  0
 18 33  1  0  0  0
 18 34  1  0  0  0
 19 21  1  0  0  0
 19 22  1  0  0  0
 19 35  1  0  0  0
 19 36  1  0  0  0
 20 22  1  0  0  0
 21 37  1  0  0  0
M  CHG  1  14  -1
M  END
> <s_m_source_file>
../4jit_ligand.sdf

> <i_m_source_file_index>
1

> <s_epik_input>
W05IMl1jKG4xKVtuSF1jKD1PKWMoYzEyKW5bY0hdbjJbQ0BIXTNbQ0gyXVtDSDJdTihbQ0gyXTMpQyg9TylbQ0gyXVAoPU8pKFtPSF0pW09IXQ==

> <s_epik_cmdline>
J2VwaWtfYXBwJywgJy1pbWFlJywgJ2xpZ2FuZF9wcm8ubWFlJywgJy1vbWFlJywgJ2xpZ2FuZF9wcmVwLm1hZScsICctbXMnLCAnMScsICctcGgnLCAnNycsICctcGh0JywgJzAuNScsICctbnQn

> <r_lp_tautomer_probability>
0.999940409345307

> <r_epik_Ionization_Penalty>
  0.1964

> <r_epik_Ionization_Penalty_Charging>
  0.0010

> <r_epik_Ionization_Penalty_Neutral>
  0.1954

> <r_epik_State_Penalty>
  0.1850

> <r_epik_Charging_Adjusted_Penalty>
0.185917951244244

> <i_epik_Tot_Q>
-1

> <i_epik_Tot_abs_Q>
1

$$$$
