4jiz_ligand
                    3D
 Schrodinger Suite 2020-3.
141143  0  0  1  0            999 V2000
   -4.3830   25.9260   -8.7220 N   0  3  0  0  0  0
   -4.8360   25.0940   -7.5670 C   0  0  2  0  0  0
   -4.1640   23.7290   -7.6070 C   0  0  0  0  0  0
   -3.8710   23.1950   -8.6780 O   0  0  0  0  0  0
   -6.3610   24.9210   -7.5740 C   0  0  0  0  0  0
   -7.1270   26.2080   -7.3560 C   0  0  0  0  0  0
   -7.1100   26.8500   -6.1240 C   0  0  0  0  0  0
   -7.8720   26.7770   -8.3810 C   0  0  0  0  0  0
   -7.8060   28.0270   -5.9210 C   0  0  0  0  0  0
   -8.5740   27.9520   -8.1870 C   0  0  0  0  0  0
   -8.5360   28.5730   -6.9560 C   0  0  0  0  0  0
   -9.2340   29.7420   -6.7610 O   0  0  0  0  0  0
   -3.9230   23.1740   -6.4250 N   0  0  0  0  0  0
   -3.3100   21.8620   -6.3050 C   0  0  2  0  0  0
   -4.2180   20.9190   -5.5290 C   0  0  0  0  0  0
   -4.6070   21.1990   -4.3960 O   0  0  0  0  0  0
   -1.9610   21.9730   -5.6020 C   0  0  0  0  0  0
   -1.0210   22.9410   -6.2490 C   0  0  0  0  0  0
   -0.2280   22.6010   -7.3210 N   0  0  0  0  0  0
   -0.7460   24.2380   -5.9700 C   0  0  0  0  0  0
    0.4960   23.6480   -7.6790 C   0  0  0  0  0  0
    0.2000   24.6530   -6.8750 N   0  0  0  0  0  0
   -4.5460   19.7960   -6.1540 N   0  0  0  0  0  0
   -5.4330   18.8030   -5.5620 C   0  0  1  0  0  0
   -5.9810   17.8860   -6.6570 C   0  0  0  0  0  0
   -4.9610   17.5320   -7.5750 O   0  0  0  0  0  0
   -4.7180   17.9700   -4.5010 C   0  0  0  0  0  0
   -5.3500   17.2100   -3.7630 O   0  0  0  0  0  0
   -5.5630   16.9000   -8.9230 P   0  0  0  0  0  0
   -6.8170   15.9550   -8.5850 O   0  5  0  0  0  0
   -6.0560   18.0590   -9.9170 O   0  0  0  0  0  0
   -4.4270   16.0400   -9.6640 O   0  5  0  0  0  0
   -3.4210   17.7400   -4.6870 N   0  0  0  0  0  0
   -2.6480   16.9430   -3.7370 C   0  0  2  0  0  0
   -1.8180   17.8230   -2.8070 C   0  0  0  0  0  0
   -1.0010   18.6250   -3.2590 O   0  0  0  0  0  0
   -1.6950   15.9680   -4.4500 C   0  0  0  0  0  0
   -1.1490   14.9580   -3.4580 C   0  0  0  0  0  0
   -2.4030   15.2610   -5.5930 C   0  0  0  0  0  0
   -2.0350   17.6600   -1.5050 N   0  0  0  0  0  0
   -1.2610   18.3640   -0.4930 C   0  0  2  0  0  0
   -0.3600   17.3700    0.2370 C   0  0  0  0  0  0
   -0.8400   16.4180    0.8520 O   0  0  0  0  0  0
   -2.1740   19.0550    0.5360 C   0  0  0  0  0  0
   -1.3450   19.8790    1.5140 C   0  0  0  0  0  0
   -3.2010   19.9320   -0.1630 C   0  0  0  0  0  0
    0.9470   17.5910    0.1610 N   0  0  0  0  0  0
    1.9080   16.6770    0.7680 C   0  0  2  0  0  0
    2.4140   17.1980    2.1100 C   0  0  0  0  0  0
    2.6290   18.3980    2.2780 O   0  0  0  0  0  0
    3.0710   16.4320   -0.1950 C   0  0  0  0  0  0
    2.6300   15.7780   -1.4980 C   0  0  0  0  0  0
    3.7570   15.6440   -2.5070 C   0  0  0  0  0  0
    3.2380   15.2980   -3.8290 N   0  0  0  0  0  0
    2.5750   16.1400   -4.6180 C   0  0  0  0  0  0
    2.3400   17.3860   -4.2260 N   0  0  0  0  0  0
    2.1390   15.7360   -5.8020 N   0  3  0  0  0  0
    2.5940   16.2850    3.0620 N   0  0  0  0  0  0
    3.0520   16.6370    4.4050 C   0  0  2  0  0  0
    4.1930   15.7240    4.8530 C   0  0  0  0  0  0
    4.4040   14.6520    4.2870 O   0  0  0  0  0  0
    1.9030   16.5400    5.4160 C   0  0  0  0  0  0
    0.8660   17.6370    5.3060 C   0  0  0  0  0  0
    1.1610   18.9420    5.6800 C   0  0  0  0  0  0
   -0.4170   17.3610    4.8520 C   0  0  0  0  0  0
    0.2150   19.9440    5.5870 C   0  0  0  0  0  0
   -1.3720   18.3580    4.7560 C   0  0  0  0  0  0
   -1.0500   19.6470    5.1260 C   0  0  0  0  0  0
   -1.9950   20.6420    5.0350 O   0  0  0  0  0  0
    4.9160   16.1590    5.8820 N   0  0  0  0  0  0
    6.0110   15.3870    6.4610 C   0  0  2  0  0  0
    5.8370   15.2950    7.9740 C   0  0  0  0  0  0
    4.9124   14.6008    8.4747 O   0  0  0  0  0  0
    7.3450   16.0280    6.1250 C   0  0  0  0  0  0
    6.6266   15.9201    8.7312 O   0  5  0  0  0  0
   -3.2886   26.0322   -8.6904 H   0  0  0  0  0  0
   -4.8498   26.9203   -8.6630 H   0  0  0  0  0  0
   -4.6771   25.4381   -9.6630 H   0  0  0  0  0  0
   -4.5326   25.6295   -6.6553 H   0  0  0  0  0  0
   -6.6794   24.5140   -8.5451 H   0  0  0  0  0  0
   -6.6551   24.2281   -6.7719 H   0  0  0  0  0  0
   -6.5378   26.4180   -5.3030 H   0  0  0  0  0  0
   -7.9036   26.2887   -9.3550 H   0  0  0  0  0  0
   -7.7781   28.5203   -4.9494 H   0  0  0  0  0  0
   -9.1540   28.3851   -9.0019 H   0  0  0  0  0  0
   -9.2073   30.2416   -5.7814 H   0  0  0  0  0  0
   -4.2010   23.7359   -5.5211 H   0  0  0  0  0  0
   -3.1797   21.4982   -7.3349 H   0  0  0  0  0  0
   -1.6495   21.4213   -4.7028 H   0  0  0  0  0  0
   -1.1240   24.9374   -5.2097 H   0  0  0  0  0  0
    1.2146   23.6767   -8.4981 H   0  0  0  0  0  0
   -4.1220   19.6276   -7.1549 H   0  0  0  0  0  0
   -6.2377   19.3810   -5.0841 H   0  0  0  0  0  0
   -6.3810   16.9685   -6.2007 H   0  0  0  0  0  0
   -6.7837   18.4045   -7.2018 H   0  0  0  0  0  0
   -2.9314   18.1629   -5.5766 H   0  0  0  0  0  0
   -3.4239   16.4037   -3.1739 H   0  0  0  0  0  0
   -0.8506   16.5299   -4.8756 H   0  0  0  0  0  0
   -0.6405   15.4870   -2.6385 H   0  0  0  0  0  0
   -0.4335   14.2949   -3.9662 H   0  0  0  0  0  0
   -1.9773   14.3600   -3.0502 H   0  0  0  0  0  0
   -2.7917   16.0075   -6.3012 H   0  0  0  0  0  0
   -3.2369   14.6643   -5.1947 H   0  0  0  0  0  0
   -1.6930   14.5992   -6.1107 H   0  0  0  0  0  0
   -2.8318   16.9644   -1.2028 H   0  0  0  0  0  0
   -0.6767   19.1125   -1.0483 H   0  0  0  0  0  0
   -2.7175   18.2872    1.1061 H   0  0  0  0  0  0
   -0.6088   19.2287    2.0092 H   0  0  0  0  0  0
   -2.0072   20.3256    2.2703 H   0  0  0  0  0  0
   -0.8207   20.6773    0.9683 H   0  0  0  0  0  0
   -3.7888   19.3209   -0.8637 H   0  0  0  0  0  0
   -2.6853   20.7306   -0.7165 H   0  0  0  0  0  0
   -3.8718   20.3789    0.5856 H   0  0  0  0  0  0
    1.3003   18.4852   -0.3734 H   0  0  0  0  0  0
    1.3530   15.7442    0.9467 H   0  0  0  0  0  0
    3.5483   17.3910   -0.4450 H   0  0  0  0  0  0
    3.8080   15.7688    0.2814 H   0  0  0  0  0  0
    2.2466   14.7682   -1.2900 H   0  0  0  0  0  0
    1.8370   16.3829   -1.9619 H   0  0  0  0  0  0
    4.2995   16.5982   -2.5796 H   0  0  0  0  0  0
    4.4486   14.8530   -2.1814 H   0  0  0  0  0  0
    3.3865   14.2846   -4.2302 H   0  0  0  0  0  0
    2.6980   17.7306   -3.2447 H   0  0  0  0  0  0
    1.7872   18.0741   -4.8824 H   0  0  0  0  0  0
    2.3289   14.7052   -6.1356 H   0  0  0  0  0  0
    2.3855   15.2348    2.8096 H   0  0  0  0  0  0
    3.4069   17.6744    4.3166 H   0  0  0  0  0  0
    1.3719   15.5868    5.2771 H   0  0  0  0  0  0
    2.3083   16.5884    6.4375 H   0  0  0  0  0  0
    2.1571   19.1794    6.0536 H   0  0  0  0  0  0
   -0.6764   16.3416    4.5663 H   0  0  0  0  0  0
    0.4671   20.9641    5.8765 H   0  0  0  0  0  0
   -2.3723   18.1260    4.3903 H   0  0  0  0  0  0
   -1.7405   21.6708    5.3295 H   0  0  0  0  0  0
    4.6587   17.1448    6.2966 H   0  0  0  0  0  0
    5.9617   14.3859    6.0078 H   0  0  0  0  0  0
    7.4580   16.0884    5.0325 H   0  0  0  0  0  0
    8.1600   15.4201    6.5449 H   0  0  0  0  0  0
    7.3839   17.0401    6.5541 H   0  0  0  0  0  0
    1.5871   16.4314   -6.4515 H   0  0  0  0  0  0
   -0.2713   21.5833   -7.7363 H   0  0  0  0  0  0
  1  2  1  0  0  0
  1 76  1  0  0  0
  1 77  1  0  0  0
  1 78  1  0  0  0
  2  3  1  0  0  0
  2  5  1  0  0  0
  2 79  1  0  0  0
  3  4  2  0  0  0
  3 13  1  0  0  0
  5  6  1  0  0  0
  5 80  1  0  0  0
  5 81  1  0  0  0
  6  7  2  0  0  0
  6  8  1  0  0  0
  7  9  1  0  0  0
  7 82  1  0  0  0
  8 10  2  0  0  0
  8 83  1  0  0  0
  9 11  2  0  0  0
  9 84  1  0  0  0
 10 11  1  0  0  0
 10 85  1  0  0  0
 11 12  1  0  0  0
 12 86  1  0  0  0
 13 14  1  0  0  0
 13 87  1  0  0  0
 14 15  1  0  0  0
 14 17  1  0  0  0
 14 88  1  0  0  0
 15 16  2  0  0  0
 15 23  1  0  0  0
 17 18  2  0  0  0
 17 89  1  0  0  0
 18 19  1  0  0  0
 18 20  1  0  0  0
 19 21  1  0  0  0
 19141  1  0  0  0
 20 22  2  0  0  0
 20 90  1  0  0  0
 21 22  1  0  0  0
 21 91  1  0  0  0
 23 24  1  0  0  0
 23 92  1  0  0  0
 24 25  1  0  0  0
 24 27  1  0  0  0
 24 93  1  0  0  0
 25 26  1  0  0  0
 25 94  1  0  0  0
 25 95  1  0  0  0
 26 29  1  0  0  0
 27 28  2  0  0  0
 27 33  1  0  0  0
 29 30  1  0  0  0
 29 31  2  0  0  0
 29 32  1  0  0  0
 33 34  1  0  0  0
 33 96  1  0  0  0
 34 35  1  0  0  0
 34 37  1  0  0  0
 34 97  1  0  0  0
 35 36  2  0  0  0
 35 40  1  0  0  0
 37 38  1  0  0  0
 37 39  1  0  0  0
 37 98  1  0  0  0
 38 99  1  0  0  0
 38100  1  0  0  0
 38101  1  0  0  0
 39102  1  0  0  0
 39103  1  0  0  0
 39104  1  0  0  0
 40 41  1  0  0  0
 40105  1  0  0  0
 41 42  1  0  0  0
 41 44  1  0  0  0
 41106  1  0  0  0
 42 43  2  0  0  0
 42 47  1  0  0  0
 44 45  1  0  0  0
 44 46  1  0  0  0
 44107  1  0  0  0
 45108  1  0  0  0
 45109  1  0  0  0
 45110  1  0  0  0
 46111  1  0  0  0
 46112  1  0  0  0
 46113  1  0  0  0
 47 48  1  0  0  0
 47114  1  0  0  0
 48 49  1  0  0  0
 48 51  1  0  0  0
 48115  1  0  0  0
 49 50  2  0  0  0
 49 58  1  0  0  0
 51 52  1  0  0  0
 51116  1  0  0  0
 51117  1  0  0  0
 52 53  1  0  0  0
 52118  1  0  0  0
 52119  1  0  0  0
 53 54  1  0  0  0
 53120  1  0  0  0
 53121  1  0  0  0
 54 55  1  0  0  0
 54122  1  0  0  0
 55 56  1  0  0  0
 55 57  2  0  0  0
 56123  1  0  0  0
 56124  1  0  0  0
 57125  1  0  0  0
 57140  1  0  0  0
 58 59  1  0  0  0
 58126  1  0  0  0
 59 60  1  0  0  0
 59 62  1  0  0  0
 59127  1  0  0  0
 60 61  2  0  0  0
 60 70  1  0  0  0
 62 63  1  0  0  0
 62128  1  0  0  0
 62129  1  0  0  0
 63 64  2  0  0  0
 63 65  1  0  0  0
 64 66  1  0  0  0
 64130  1  0  0  0
 65 67  2  0  0  0
 65131  1  0  0  0
 66 68  2  0  0  0
 66132  1  0  0  0
 67 68  1  0  0  0
 67133  1  0  0  0
 68 69  1  0  0  0
 69134  1  0  0  0
 70 71  1  0  0  0
 70135  1  0  0  0
 71 72  1  0  0  0
 71 74  1  0  0  0
 71136  1  0  0  0
 72 73  2  0  0  0
 72 75  1  0  0  0
 74137  1  0  0  0
 74138  1  0  0  0
 74139  1  0  0  0
M  CHG  5   1   1  30  -1  32  -1  57   1  75  -1
M  END
> <s_m_source_file>
../4jiz_ligand.sdf

> <i_m_source_file_index>
1

> <s_epik_input>
W2NIXTFbY0hdYyhbT0hdKVtjSF1bY0hdYzFbQ0gyXVtDQEhdKFtOSDMrXSlDKD1PKVtOSF1bQ0BASF0oW0NIMl1DMj1OW0NIMl1OPVtDSF0yKUMoPU8pW05IXVtDQEBIXShbQ0gyXU9QKD1PKShbT0hdKVtPSF0pQyg9TylbTkhdW0NAQEhdKFtDSF0oW0NIM10pW0NIM10pQyg9TylbTkhdW0NAQEhdKFtDSF0oW0NIM10pW0NIM10pQyg9TylbTkhdW0NAQEhdKFtDSDJdW0NIMl1bQ0gyXVtOSF0vQyhbTkgyXSk9TlxbSF0pQyg9TylbTkhdW0NASF0oQyg9TylbTkhdW0NAQEhdKFtDSDNdKUMoPU8pW09IXSlbQ0gyXWMzW2NIXVtjSF1jKFtPSF0pW2NIXVtjSF0z

> <s_epik_cmdline>
J2VwaWtfYXBwJywgJy1pbWFlJywgJ2xpZ2FuZF9wcm8ubWFlJywgJy1vbWFlJywgJ2xpZ2FuZF9wcmVwLm1hZScsICctbXMnLCAnMScsICctcGgnLCAnNycsICctcGh0JywgJzAuNScsICctbnQn

> <r_epik_Ionization_Penalty>
  0.3520

> <r_epik_Ionization_Penalty_Charging>
  0.3485

> <r_epik_Ionization_Penalty_Neutral>
  0.0035

> <r_epik_State_Penalty>
  0.1157

> <r_epik_Charging_Adjusted_Penalty>
0.464171164783244

> <i_epik_Tot_Q>
-1

> <i_epik_Tot_abs_Q>
5

> <s_epik_Chemistry_Notes>
This compound has an imine and may undergo hydrolysis.

$$$$
