4jj7_ligand
                    3D
 Schrodinger Suite 2020-3.
 97 97  0  0  1  0            999 V2000
   59.6150   81.4910  154.9560 C   0  0  0  0  0  0
   59.2250   80.9570  153.9200 O   0  0  0  0  0  0
   59.3310   82.9360  155.2880 C   0  0  0  0  0  0
   60.2980   80.8370  155.9040 N   0  0  0  0  0  0
   60.6720   79.4310  155.6410 C   0  0  2  0  0  0
   59.4870   78.4910  155.5250 C   0  0  0  0  0  0
   59.4610   77.6260  154.6590 O   0  0  0  0  0  0
   61.5900   78.9680  156.8080 C   0  0  0  0  0  0
   61.9140   77.5090  156.6760 C   0  0  0  0  0  0
   62.9680   77.0830  155.8520 C   0  0  0  0  0  0
   63.2770   75.8010  155.6700 N   0  0  0  0  0  0
   62.5600   74.8590  156.3100 C   0  0  0  0  0  0
   61.5160   75.1810  157.1740 C   0  0  0  0  0  0
   61.1860   76.5250  157.3480 C   0  0  0  0  0  0
   58.4870   78.6200  156.4050 N   0  0  0  0  0  0
   57.3980   77.6630  156.4200 C   0  0  2  0  0  0
   56.4920   77.7820  155.2110 C   0  0  0  0  0  0
   55.7710   76.8420  154.8930 O   0  0  0  0  0  0
   56.5480   77.7680  157.6870 C   0  0  0  0  0  0
   57.2460   77.2580  158.9410 C   0  0  0  0  0  0
   58.2080   76.4380  158.8750 O   0  0  0  0  0  0
   56.7270   77.6590  160.0280 O   0  5  0  0  0  0
   55.0870   78.5930  150.5110 O   0  0  0  0  0  0
   56.1120   79.2440  150.8050 C   0  0  0  0  0  0
   56.7630   79.0100  152.1630 C   0  0  0  0  0  0
   55.7680   79.0730  153.3010 C   0  0  1  0  0  0
   56.5010   78.9440  154.5620 N   0  0  0  0  0  0
   54.8740   80.2510  153.3420 C   0  0  0  0  0  0
   53.7720   80.0210  154.4400 C   0  0  0  0  0  0
   52.9640   81.2860  154.5410 C   0  0  0  0  0  0
   52.7530   78.9020  154.2220 C   0  0  0  0  0  0
   56.7080   80.1150  150.0290 N   0  0  0  0  0  0
   56.1660   80.3940  148.7000 C   0  0  2  0  0  0
   57.2920   80.5390  147.7270 C   0  0  0  0  0  0
   58.4410   80.7440  148.0840 O   0  0  0  0  0  0
   55.2860   81.5690  148.7450 C   0  0  0  0  0  0
   56.0350   82.7530  149.1470 C   0  0  0  0  0  0
   55.0750   83.9260  149.2000 C   0  0  0  0  0  0
   55.6000   85.0420  150.0640 C   0  0  0  0  0  0
   53.7920   83.6560  149.9390 C   0  0  0  0  0  0
   56.9360   80.4140  146.4600 N   0  0  0  0  0  0
   57.8870   80.4450  145.3370 C   0  0  2  0  0  0
   57.8290   81.7330  144.5370 C   0  0  0  0  0  0
   58.2210   81.7750  143.3880 O   0  0  0  0  0  0
   57.6490   79.2180  144.4760 C   0  0  0  0  0  0
   58.2260   77.9680  145.1250 C   0  0  0  0  0  0
   57.7470   76.8570  144.8060 O   0  0  0  0  0  0
   59.1980   78.0870  145.9280 O   0  5  0  0  0  0
   57.1560   82.8910  145.1110 C   0  0  0  0  0  0
   58.7698   83.3984  154.4626 H   0  0  0  0  0  0
   60.2804   83.4726  155.4318 H   0  0  0  0  0  0
   58.7359   82.9899  156.2115 H   0  0  0  0  0  0
   60.5811   81.3129  156.8545 H   0  0  0  0  0  0
   61.1543   79.4287  154.6524 H   0  0  0  0  0  0
   62.5265   79.5447  156.7888 H   0  0  0  0  0  0
   61.0766   79.1343  157.7665 H   0  0  0  0  0  0
   63.5616   77.8381  155.3367 H   0  0  0  0  0  0
   62.8043   73.8093  156.1469 H   0  0  0  0  0  0
   60.9691   74.4001  157.7024 H   0  0  0  0  0  0
   60.3634   76.8060  158.0057 H   0  0  0  0  0  0
   58.4938   79.4567  157.1190 H   0  0  0  0  0  0
   57.9387   76.7057  156.3851 H   0  0  0  0  0  0
   56.2849   78.8210  157.8658 H   0  0  0  0  0  0
   55.6290   77.1766  157.5621 H   0  0  0  0  0  0
   57.2322   78.0152  152.1781 H   0  0  0  0  0  0
   57.5290   79.7794  152.3399 H   0  0  0  0  0  0
   55.0633   78.2398  153.1624 H   0  0  0  0  0  0
   57.0543   79.8041  154.9670 H   0  0  0  0  0  0
   55.4608   81.1482  153.5883 H   0  0  0  0  0  0
   54.3965   80.3833  152.3599 H   0  0  0  0  0  0
   54.3167   79.7385  155.3529 H   0  0  0  0  0  0
   53.6386   82.1402  154.6998 H   0  0  0  0  0  0
   52.2654   81.2083  155.3871 H   0  0  0  0  0  0
   52.3973   81.4344  153.6100 H   0  0  0  0  0  0
   53.2781   77.9391  154.1384 H   0  0  0  0  0  0
   52.1899   79.0941  153.2968 H   0  0  0  0  0  0
   52.0580   78.8679  155.0739 H   0  0  0  0  0  0
   57.6133   80.6358  150.3742 H   0  0  0  0  0  0
   55.5314   79.5556  148.3770 H   0  0  0  0  0  0
   54.8533   81.7414  147.7485 H   0  0  0  0  0  0
   54.4778   81.3943  149.4704 H   0  0  0  0  0  0
   56.4818   82.5852  150.1381 H   0  0  0  0  0  0
   56.8315   82.9493  148.4142 H   0  0  0  0  0  0
   54.9359   84.1512  148.1323 H   0  0  0  0  0  0
   56.5676   85.3865  149.6701 H   0  0  0  0  0  0
   55.7319   84.6776  151.0935 H   0  0  0  0  0  0
   54.8840   85.8770  150.0595 H   0  0  0  0  0  0
   53.2465   82.8409  149.4409 H   0  0  0  0  0  0
   53.1719   84.5646  149.9411 H   0  0  0  0  0  0
   54.0199   83.3652  150.9751 H   0  0  0  0  0  0
   55.8613   80.2807  146.2671 H   0  0  0  0  0  0
   58.8968   80.4207  145.7726 H   0  0  0  0  0  0
   56.5677   79.0726  144.3358 H   0  0  0  0  0  0
   58.1301   79.3582  143.4968 H   0  0  0  0  0  0
   56.8740   82.6727  146.1516 H   0  0  0  0  0  0
   56.2524   83.1172  144.5259 H   0  0  0  0  0  0
   57.8336   83.7572  145.0888 H   0  0  0  0  0  0
  1  2  2  0  0  0
  1  3  1  0  0  0
  1  4  1  0  0  0
  3 50  1  0  0  0
  3 51  1  0  0  0
  3 52  1  0  0  0
  4  5  1  0  0  0
  4 53  1  0  0  0
  5  6  1  0  0  0
  5  8  1  0  0  0
  5 54  1  0  0  0
  6  7  2  0  0  0
  6 15  1  0  0  0
  8  9  1  0  0  0
  8 55  1  0  0  0
  8 56  1  0  0  0
  9 10  2  0  0  0
  9 14  1  0  0  0
 10 11  1  0  0  0
 10 57  1  0  0  0
 11 12  2  0  0  0
 12 13  1  0  0  0
 12 58  1  0  0  0
 13 14  2  0  0  0
 13 59  1  0  0  0
 14 60  1  0  0  0
 15 16  1  0  0  0
 15 61  1  0  0  0
 16 17  1  0  0  0
 16 19  1  0  0  0
 16 62  1  0  0  0
 17 18  2  0  0  0
 17 27  1  0  0  0
 19 20  1  0  0  0
 19 63  1  0  0  0
 19 64  1  0  0  0
 20 21  2  0  0  0
 20 22  1  0  0  0
 23 24  2  0  0  0
 24 25  1  0  0  0
 24 32  1  0  0  0
 25 26  1  0  0  0
 25 65  1  0  0  0
 25 66  1  0  0  0
 26 27  1  0  0  0
 26 28  1  0  0  0
 26 67  1  0  0  0
 27 68  1  0  0  0
 28 29  1  0  0  0
 28 69  1  0  0  0
 28 70  1  0  0  0
 29 30  1  0  0  0
 29 31  1  0  0  0
 29 71  1  0  0  0
 30 72  1  0  0  0
 30 73  1  0  0  0
 30 74  1  0  0  0
 31 75  1  0  0  0
 31 76  1  0  0  0
 31 77  1  0  0  0
 32 33  1  0  0  0
 32 78  1  0  0  0
 33 34  1  0  0  0
 33 36  1  0  0  0
 33 79  1  0  0  0
 34 35  2  0  0  0
 34 41  1  0  0  0
 36 37  1  0  0  0
 36 80  1  0  0  0
 36 81  1  0  0  0
 37 38  1  0  0  0
 37 82  1  0  0  0
 37 83  1  0  0  0
 38 39  1  0  0  0
 38 40  1  0  0  0
 38 84  1  0  0  0
 39 85  1  0  0  0
 39 86  1  0  0  0
 39 87  1  0  0  0
 40 88  1  0  0  0
 40 89  1  0  0  0
 40 90  1  0  0  0
 41 42  1  0  0  0
 41 91  1  0  0  0
 42 43  1  0  0  0
 42 45  1  0  0  0
 42 92  1  0  0  0
 43 44  2  0  0  0
 43 49  1  0  0  0
 45 46  1  0  0  0
 45 93  1  0  0  0
 45 94  1  0  0  0
 46 47  2  0  0  0
 46 48  1  0  0  0
 49 95  1  0  0  0
 49 96  1  0  0  0
 49 97  1  0  0  0
M  CHG  2  22  -1  48  -1
M  END
> <s_m_source_file>
../4jj7_ligand.sdf

> <i_m_source_file_index>
1

> <s_epik_input>
W2NIXTFbY0hdW2NIXW5bY0hdYzFbQ0gyXVtDQEhdKFtOSF1DKD1PKVtDSDNdKUMoPU8pW05IXVtDQEBIXShbQ0gyXUMoPU8pW09IXSlDKD1PKVtOSF1bQ0BASF0oW0NIMl1bQ0hdKFtDSDNdKVtDSDNdKVtDSDJdQyg9TylbTkhdW0NAQEhdKFtDSDJdW0NIMl1bQ0hdKFtDSDNdKVtDSDNdKUMoPU8pW05IXVtDQEhdKEMoPU8pW0NIM10pW0NIMl1DKD1PKVtPSF0=

> <s_epik_cmdline>
J2VwaWtfYXBwJywgJy1pbWFlJywgJ2xpZ2FuZF9wcm8ubWFlJywgJy1vbWFlJywgJ2xpZ2FuZF9wcmVwLm1hZScsICctbXMnLCAnMScsICctcGgnLCAnNycsICctcGh0JywgJzAuNScsICctbnQn

> <r_lp_tautomer_probability>
1

> <r_epik_Ionization_Penalty>
  0.0123

> <r_epik_Ionization_Penalty_Charging>
  0.0056

> <r_epik_Ionization_Penalty_Neutral>
  0.0067

> <r_epik_State_Penalty>
 -0.0000

> <r_epik_Charging_Adjusted_Penalty>
0.00559227335990462

> <i_epik_Tot_Q>
-2

> <i_epik_Tot_abs_Q>
2

$$$$
