4jj8_ligand
                    3D
 Schrodinger Suite 2020-3.
 97 97  0  0  1  0            999 V2000
   29.7240   26.5520   -6.6640 C   0  0  0  0  0  0
   30.6370   25.7910   -6.9380 O   0  0  0  0  0  0
   28.6860   26.1520   -5.6410 C   0  0  0  0  0  0
   29.5180   27.6250   -7.4210 N   0  0  0  0  0  0
   29.9260   29.0280   -7.1450 C   0  0  2  0  0  0
   30.4780   29.1920   -5.7490 C   0  0  0  0  0  0
   31.6790   29.1200   -5.5500 O   0  0  0  0  0  0
   28.7320   29.9600   -7.3120 C   0  0  0  0  0  0
   29.2320   31.3860   -7.3690 C   0  0  0  0  0  0
   29.9780   31.8180   -8.4600 C   0  0  0  0  0  0
   30.4270   33.0790   -8.5210 N   0  0  0  0  0  0
   30.1710   33.9540   -7.5400 C   0  0  0  0  0  0
   29.4290   33.5750   -6.4270 C   0  0  0  0  0  0
   28.9500   32.2740   -6.3390 C   0  0  0  0  0  0
   29.5970   29.3640   -4.7620 N   0  0  0  0  0  0
   29.9860   29.6960   -3.3910 C   0  0  2  0  0  0
   30.7860   28.6060   -2.6710 C   0  0  0  0  0  0
   31.0590   28.7270   -1.4750 O   0  0  0  0  0  0
   28.7360   30.0220   -2.5700 C   0  0  0  0  0  0
   27.8080   30.9890   -3.2810 C   0  0  0  0  0  0
   26.9850   30.5300   -4.1010 O   0  5  0  0  0  0
   27.9000   32.2060   -3.0180 O   0  0  0  0  0  0
   35.4770   26.5380   -1.9160 O   0  0  0  0  0  0
   34.6890   26.0270   -2.7420 C   0  0  0  0  0  0
   33.6430   26.9040   -3.3910 C   0  0  0  0  0  0
   32.2770   26.6720   -2.7500 C   0  0  1  0  0  0
   31.3020   27.5740   -3.3350 N   0  0  0  0  0  0
   31.8330   25.2310   -2.9800 C   0  0  0  0  0  0
   30.4690   24.9530   -2.3590 C   0  0  0  0  0  0
   30.0690   23.4970   -2.5670 C   0  0  0  0  0  0
   30.4420   25.3190   -0.8790 C   0  0  0  0  0  0
   34.9850   24.8450   -3.2780 N   0  0  0  0  0  0
   36.2050   24.2930   -2.7230 C   0  0  2  0  0  0
   37.2190   24.0940   -3.8240 C   0  0  0  0  0  0
   37.0410   24.5790   -4.9300 O   0  0  0  0  0  0
   35.9180   22.9600   -2.0410 C   0  0  0  0  0  0
   34.5770   22.3960   -2.4950 C   0  0  0  0  0  0
   34.4800   20.9000   -2.2280 C   0  0  0  0  0  0
   35.0790   20.1020   -3.3800 C   0  0  0  0  0  0
   33.0360   20.4890   -1.9760 C   0  0  0  0  0  0
   38.3010   23.3880   -3.5040 N   0  0  0  0  0  0
   39.3700   23.1480   -4.4560 C   0  0  2  0  0  0
   39.6410   21.6720   -4.5180 C   0  0  0  0  0  0
   40.6040   21.2610   -5.1450 O   0  0  0  0  0  0
   40.6230   23.8930   -4.0030 C   0  0  0  0  0  0
   40.4950   25.3710   -4.2960 C   0  0  0  0  0  0
   39.6260   25.7530   -5.1080 O   0  0  0  0  0  0
   41.2710   26.1640   -3.7190 O   0  5  0  0  0  0
   38.7060   20.7340   -3.8120 C   0  0  0  0  0  0
   29.0222   25.2483   -5.1116 H   0  0  0  0  0  0
   27.7317   25.9463   -6.1480 H   0  0  0  0  0  0
   28.5486   26.9703   -4.9188 H   0  0  0  0  0  0
   28.9771   27.3816   -8.3474 H   0  0  0  0  0  0
   30.7221   29.2608   -7.8675 H   0  0  0  0  0  0
   28.2017   29.7132   -8.2436 H   0  0  0  0  0  0
   28.0493   29.8380   -6.4581 H   0  0  0  0  0  0
   30.1993   31.1254   -9.2720 H   0  0  0  0  0  0
   30.5483   34.9739   -7.6149 H   0  0  0  0  0  0
   29.2251   34.2916   -5.6314 H   0  0  0  0  0  0
   28.3634   31.9558   -5.4771 H   0  0  0  0  0  0
   28.5340   29.2447   -5.0185 H   0  0  0  0  0  0
   30.6496   30.5629   -3.5255 H   0  0  0  0  0  0
   28.1744   29.0967   -2.3741 H   0  0  0  0  0  0
   29.0336   30.4794   -1.6149 H   0  0  0  0  0  0
   33.9214   27.9608   -3.2655 H   0  0  0  0  0  0
   33.5792   26.6665   -4.4632 H   0  0  0  0  0  0
   32.3162   26.8988   -1.6743 H   0  0  0  0  0  0
   30.9598   27.4186   -4.3688 H   0  0  0  0  0  0
   31.7667   25.0358   -4.0605 H   0  0  0  0  0  0
   32.5646   24.5453   -2.5277 H   0  0  0  0  0  0
   29.7330   25.5908   -2.8704 H   0  0  0  0  0  0
   30.0965   23.2590   -3.6406 H   0  0  0  0  0  0
   29.0509   23.3379   -2.1821 H   0  0  0  0  0  0
   30.7710   22.8434   -2.0284 H   0  0  0  0  0  0
   30.7339   26.3725   -0.7564 H   0  0  0  0  0  0
   31.1463   24.6770   -0.3296 H   0  0  0  0  0  0
   29.4263   25.1715   -0.4833 H   0  0  0  0  0  0
   34.4298   24.2885   -4.0474 H   0  0  0  0  0  0
   36.5747   25.0278   -1.9927 H   0  0  0  0  0  0
   36.7095   22.2399   -2.2958 H   0  0  0  0  0  0
   35.8906   23.1043   -0.9508 H   0  0  0  0  0  0
   33.7643   22.8996   -1.9509 H   0  0  0  0  0  0
   34.4549   22.5649   -3.5751 H   0  0  0  0  0  0
   35.0613   20.6770   -1.3211 H   0  0  0  0  0  0
   36.1205   20.4170   -3.5417 H   0  0  0  0  0  0
   34.4949   20.2833   -4.2943 H   0  0  0  0  0  0
   35.0539   19.0298   -3.1354 H   0  0  0  0  0  0
   32.6274   21.0781   -1.1418 H   0  0  0  0  0  0
   32.9982   19.4192   -1.7226 H   0  0  0  0  0  0
   32.4391   20.6727   -2.8816 H   0  0  0  0  0  0
   38.3712   22.9817   -2.4842 H   0  0  0  0  0  0
   39.0365   23.5079   -5.4405 H   0  0  0  0  0  0
   40.7611   23.7539   -2.9206 H   0  0  0  0  0  0
   41.4987   23.4971   -4.5382 H   0  0  0  0  0  0
   37.9138   21.3121   -3.3137 H   0  0  0  0  0  0
   39.2647   20.1551   -3.0618 H   0  0  0  0  0  0
   38.2543   20.0474   -4.5431 H   0  0  0  0  0  0
  1  2  2  0  0  0
  1  3  1  0  0  0
  1  4  1  0  0  0
  3 50  1  0  0  0
  3 51  1  0  0  0
  3 52  1  0  0  0
  4  5  1  0  0  0
  4 53  1  0  0  0
  5  6  1  0  0  0
  5  8  1  0  0  0
  5 54  1  0  0  0
  6  7  2  0  0  0
  6 15  1  0  0  0
  8  9  1  0  0  0
  8 55  1  0  0  0
  8 56  1  0  0  0
  9 10  2  0  0  0
  9 14  1  0  0  0
 10 11  1  0  0  0
 10 57  1  0  0  0
 11 12  2  0  0  0
 12 13  1  0  0  0
 12 58  1  0  0  0
 13 14  2  0  0  0
 13 59  1  0  0  0
 14 60  1  0  0  0
 15 16  1  0  0  0
 15 61  1  0  0  0
 16 17  1  0  0  0
 16 19  1  0  0  0
 16 62  1  0  0  0
 17 18  2  0  0  0
 17 27  1  0  0  0
 19 20  1  0  0  0
 19 63  1  0  0  0
 19 64  1  0  0  0
 20 21  1  0  0  0
 20 22  2  0  0  0
 23 24  2  0  0  0
 24 25  1  0  0  0
 24 32  1  0  0  0
 25 26  1  0  0  0
 25 65  1  0  0  0
 25 66  1  0  0  0
 26 27  1  0  0  0
 26 28  1  0  0  0
 26 67  1  0  0  0
 27 68  1  0  0  0
 28 29  1  0  0  0
 28 69  1  0  0  0
 28 70  1  0  0  0
 29 30  1  0  0  0
 29 31  1  0  0  0
 29 71  1  0  0  0
 30 72  1  0  0  0
 30 73  1  0  0  0
 30 74  1  0  0  0
 31 75  1  0  0  0
 31 76  1  0  0  0
 31 77  1  0  0  0
 32 33  1  0  0  0
 32 78  1  0  0  0
 33 34  1  0  0  0
 33 36  1  0  0  0
 33 79  1  0  0  0
 34 35  2  0  0  0
 34 41  1  0  0  0
 36 37  1  0  0  0
 36 80  1  0  0  0
 36 81  1  0  0  0
 37 38  1  0  0  0
 37 82  1  0  0  0
 37 83  1  0  0  0
 38 39  1  0  0  0
 38 40  1  0  0  0
 38 84  1  0  0  0
 39 85  1  0  0  0
 39 86  1  0  0  0
 39 87  1  0  0  0
 40 88  1  0  0  0
 40 89  1  0  0  0
 40 90  1  0  0  0
 41 42  1  0  0  0
 41 91  1  0  0  0
 42 43  1  0  0  0
 42 45  1  0  0  0
 42 92  1  0  0  0
 43 44  2  0  0  0
 43 49  1  0  0  0
 45 46  1  0  0  0
 45 93  1  0  0  0
 45 94  1  0  0  0
 46 47  2  0  0  0
 46 48  1  0  0  0
 49 95  1  0  0  0
 49 96  1  0  0  0
 49 97  1  0  0  0
M  CHG  2  21  -1  48  -1
M  END
> <s_m_source_file>
../4jj8_ligand.sdf

> <i_m_source_file_index>
1

> <s_epik_input>
W2NIXTFbY0hdW2NIXW5bY0hdYzFbQ0gyXVtDQEhdKFtOSF1DKD1PKVtDSDNdKUMoPU8pW05IXVtDQEBIXShbQ0gyXUMoPU8pW09IXSlDKD1PKVtOSF1bQ0BASF0oW0NIMl1bQ0hdKFtDSDNdKVtDSDNdKVtDSDJdQyg9TylbTkhdW0NAQEhdKFtDSDJdW0NIMl1bQ0hdKFtDSDNdKVtDSDNdKUMoPU8pW05IXVtDQEhdKEMoPU8pW0NIM10pW0NIMl1DKD1PKVtPSF0=

> <s_epik_cmdline>
J2VwaWtfYXBwJywgJy1pbWFlJywgJ2xpZ2FuZF9wcm8ubWFlJywgJy1vbWFlJywgJ2xpZ2FuZF9wcmVwLm1hZScsICctbXMnLCAnMScsICctcGgnLCAnNycsICctcGh0JywgJzAuNScsICctbnQn

> <r_lp_tautomer_probability>
1

> <r_epik_Ionization_Penalty>
  0.0123

> <r_epik_Ionization_Penalty_Charging>
  0.0056

> <r_epik_Ionization_Penalty_Neutral>
  0.0067

> <r_epik_State_Penalty>
 -0.0000

> <r_epik_Charging_Adjusted_Penalty>
0.00559227335990462

> <i_epik_Tot_Q>
-2

> <i_epik_Tot_abs_Q>
2

$$$$
