4jje_ligand
                    3D
 Schrodinger Suite 2020-3.
 97 97  0  0  1  0            999 V2000
   41.0090   16.4700   77.5930 C   0  0  0  0  0  0
   42.1160   16.2230   78.0500 O   0  0  0  0  0  0
   40.3840   17.8210   77.8370 C   0  0  0  0  0  0
   40.2650   15.4820   77.0940 N   0  0  0  0  0  0
   41.2390   14.6200   76.3840 C   0  0  2  0  0  0
   40.7960   14.4500   74.9670 C   0  0  0  0  0  0
   39.6050   14.4220   74.7030 O   0  0  0  0  0  0
   41.2670   13.2020   76.9470 C   0  0  0  0  0  0
   41.6170   13.1820   78.4220 C   0  0  0  0  0  0
   42.8740   12.7500   78.8390 C   0  0  0  0  0  0
   43.1770   12.7360   80.1510 N   0  0  0  0  0  0
   42.2930   13.1180   81.0880 C   0  0  0  0  0  0
   41.0270   13.5520   80.7240 C   0  0  0  0  0  0
   40.6840   13.5800   79.3780 C   0  0  0  0  0  0
   41.7480   14.3540   74.0480 N   0  0  0  0  0  0
   41.4180   13.7850   72.7600 C   0  0  2  0  0  0
   41.2970   12.3180   73.1990 C   0  0  0  0  0  0
   41.9310   11.9210   74.1770 O   0  0  0  0  0  0
   42.5430   13.9740   71.7090 C   0  0  0  0  0  0
   43.0250   15.4290   71.5430 C   0  0  0  0  0  0
   42.2250   16.4040   71.4300 O   0  5  0  0  0  0
   44.2680   15.5900   71.4770 O   0  0  0  0  0  0
   39.3970   11.9080   69.1290 O   0  0  0  0  0  0
   38.8300   10.9170   69.5950 C   0  0  0  0  0  0
   38.8750   10.7140   71.1030 C   0  0  0  0  0  0
   40.3180   11.0290   71.4430 C   0  0  1  0  0  0
   40.2930   11.5650   72.7630 N   0  0  0  0  0  0
   41.1750    9.7790   71.1310 C   0  0  0  0  0  0
   42.5730    9.5760   71.7650 C   0  0  0  0  0  0
   43.2480    8.3530   71.1650 C   0  0  0  0  0  0
   43.5630   10.7270   71.5700 C   0  0  0  0  0  0
   38.1940    9.8910   69.0950 N   0  0  0  0  0  0
   38.0330    9.9750   67.6480 C   0  0  2  0  0  0
   36.7210    9.3010   67.3180 C   0  0  0  0  0  0
   36.1780    8.4740   68.0600 O   0  0  0  0  0  0
   39.2090    9.3530   66.8940 C   0  0  0  0  0  0
   39.4380    7.9290   67.4080 C   0  0  0  0  0  0
   40.4060    7.1800   66.5120 C   0  0  0  0  0  0
   40.8270    5.8490   67.1170 C   0  0  0  0  0  0
   41.6050    8.0670   66.1960 C   0  0  0  0  0  0
   36.1620    9.6870   66.1570 N   0  0  0  0  0  0
   34.8230    9.2450   65.7380 C   0  0  2  0  0  0
   34.8660    8.2040   64.6330 C   0  0  0  0  0  0
   33.8780    8.0390   63.8910 O   0  0  0  0  0  0
   34.0470   10.4900   65.2620 C   0  0  0  0  0  0
   33.6070   11.2610   66.4710 C   0  0  0  0  0  0
   33.3750   12.4880   66.4300 O   0  5  0  0  0  0
   33.4270   10.6660   67.5530 O   0  0  0  0  0  0
   36.0870    7.3540   64.4970 C   0  0  0  0  0  0
   41.1404   18.5062   78.2472 H   0  0  0  0  0  0
   39.5557   17.7178   78.5534 H   0  0  0  0  0  0
   40.0001   18.2241   76.8882 H   0  0  0  0  0  0
   39.1983   15.2135   77.1046 H   0  0  0  0  0  0
   42.2098   15.1274   76.4846 H   0  0  0  0  0  0
   40.2770   12.7387   76.8231 H   0  0  0  0  0  0
   42.0198   12.6082   76.4078 H   0  0  0  0  0  0
   43.6108   12.4240   78.1048 H   0  0  0  0  0  0
   42.5726   13.0866   82.1411 H   0  0  0  0  0  0
   40.3112   13.8667   81.4834 H   0  0  0  0  0  0
   39.6917   13.9111   79.0716 H   0  0  0  0  0  0
   42.7730   14.6977   74.2511 H   0  0  0  0  0  0
   40.5314   14.2562   72.3107 H   0  0  0  0  0  0
   43.4204   13.3777   71.9998 H   0  0  0  0  0  0
   42.1840   13.6417   70.7238 H   0  0  0  0  0  0
   38.1657   11.4016   71.5868 H   0  0  0  0  0  0
   38.6001    9.6760   71.3416 H   0  0  0  0  0  0
   40.8084   11.8549   70.9069 H   0  0  0  0  0  0
   39.4401   11.3559   73.4255 H   0  0  0  0  0  0
   40.6285    8.8744   71.4359 H   0  0  0  0  0  0
   41.3815    9.7362   70.0514 H   0  0  0  0  0  0
   42.3718    9.4773   72.8419 H   0  0  0  0  0  0
   42.5868    7.4803   71.2710 H   0  0  0  0  0  0
   44.1949    8.1617   71.6911 H   0  0  0  0  0  0
   43.4506    8.5321   70.0988 H   0  0  0  0  0  0
   43.1361   11.6521   71.9847 H   0  0  0  0  0  0
   43.7600   10.8632   70.4964 H   0  0  0  0  0  0
   44.5043   10.4928   72.0887 H   0  0  0  0  0  0
   37.7959    9.0245   69.6433 H   0  0  0  0  0  0
   38.0137   11.0386   67.3682 H   0  0  0  0  0  0
   38.9815    9.3256   65.8181 H   0  0  0  0  0  0
   40.1130    9.9567   67.0623 H   0  0  0  0  0  0
   39.8557    7.9690   68.4248 H   0  0  0  0  0  0
   38.4808    7.3872   67.4258 H   0  0  0  0  0  0
   39.8887    6.9380   65.5719 H   0  0  0  0  0  0
   39.9334    5.2433   67.3284 H   0  0  0  0  0  0
   41.3775    6.0291   68.0521 H   0  0  0  0  0  0
   41.4744    5.3123   66.4079 H   0  0  0  0  0  0
   41.2553    9.0153   65.7620 H   0  0  0  0  0  0
   42.2608    7.5544   65.4769 H   0  0  0  0  0  0
   42.1640    8.2712   67.1211 H   0  0  0  0  0  0
   36.7463   10.3592   65.5115 H   0  0  0  0  0  0
   34.3668    8.7587   66.6128 H   0  0  0  0  0  0
   34.7021   11.1128   64.6351 H   0  0  0  0  0  0
   33.1710   10.1743   64.6764 H   0  0  0  0  0  0
   36.8341    7.6635   65.2427 H   0  0  0  0  0  0
   36.5060    7.4730   63.4869 H   0  0  0  0  0  0
   35.8199    6.2996   64.6613 H   0  0  0  0  0  0
  1  2  2  0  0  0
  1  3  1  0  0  0
  1  4  1  0  0  0
  3 50  1  0  0  0
  3 51  1  0  0  0
  3 52  1  0  0  0
  4  5  1  0  0  0
  4 53  1  0  0  0
  5  6  1  0  0  0
  5  8  1  0  0  0
  5 54  1  0  0  0
  6  7  2  0  0  0
  6 15  1  0  0  0
  8  9  1  0  0  0
  8 55  1  0  0  0
  8 56  1  0  0  0
  9 10  2  0  0  0
  9 14  1  0  0  0
 10 11  1  0  0  0
 10 57  1  0  0  0
 11 12  2  0  0  0
 12 13  1  0  0  0
 12 58  1  0  0  0
 13 14  2  0  0  0
 13 59  1  0  0  0
 14 60  1  0  0  0
 15 16  1  0  0  0
 15 61  1  0  0  0
 16 17  1  0  0  0
 16 19  1  0  0  0
 16 62  1  0  0  0
 17 18  2  0  0  0
 17 27  1  0  0  0
 19 20  1  0  0  0
 19 63  1  0  0  0
 19 64  1  0  0  0
 20 21  1  0  0  0
 20 22  2  0  0  0
 23 24  2  0  0  0
 24 25  1  0  0  0
 24 32  1  0  0  0
 25 26  1  0  0  0
 25 65  1  0  0  0
 25 66  1  0  0  0
 26 27  1  0  0  0
 26 28  1  0  0  0
 26 67  1  0  0  0
 27 68  1  0  0  0
 28 29  1  0  0  0
 28 69  1  0  0  0
 28 70  1  0  0  0
 29 30  1  0  0  0
 29 31  1  0  0  0
 29 71  1  0  0  0
 30 72  1  0  0  0
 30 73  1  0  0  0
 30 74  1  0  0  0
 31 75  1  0  0  0
 31 76  1  0  0  0
 31 77  1  0  0  0
 32 33  1  0  0  0
 32 78  1  0  0  0
 33 34  1  0  0  0
 33 36  1  0  0  0
 33 79  1  0  0  0
 34 35  2  0  0  0
 34 41  1  0  0  0
 36 37  1  0  0  0
 36 80  1  0  0  0
 36 81  1  0  0  0
 37 38  1  0  0  0
 37 82  1  0  0  0
 37 83  1  0  0  0
 38 39  1  0  0  0
 38 40  1  0  0  0
 38 84  1  0  0  0
 39 85  1  0  0  0
 39 86  1  0  0  0
 39 87  1  0  0  0
 40 88  1  0  0  0
 40 89  1  0  0  0
 40 90  1  0  0  0
 41 42  1  0  0  0
 41 91  1  0  0  0
 42 43  1  0  0  0
 42 45  1  0  0  0
 42 92  1  0  0  0
 43 44  2  0  0  0
 43 49  1  0  0  0
 45 46  1  0  0  0
 45 93  1  0  0  0
 45 94  1  0  0  0
 46 47  1  0  0  0
 46 48  2  0  0  0
 49 95  1  0  0  0
 49 96  1  0  0  0
 49 97  1  0  0  0
M  CHG  2  21  -1  47  -1
M  END
> <s_m_source_file>
../4jje_ligand.sdf

> <i_m_source_file_index>
1

> <s_epik_input>
W2NIXTFbY0hdW2NIXW5bY0hdYzFbQ0gyXVtDQEhdKFtOSF1DKD1PKVtDSDNdKUMoPU8pW05IXVtDQEBIXShbQ0gyXUMoPU8pW09IXSlDKD1PKVtOSF1bQ0BASF0oW0NIMl1bQ0hdKFtDSDNdKVtDSDNdKVtDSDJdQyg9TylbTkhdW0NAQEhdKFtDSDJdW0NIMl1bQ0hdKFtDSDNdKVtDSDNdKUMoPU8pW05IXVtDQEhdKEMoPU8pW0NIM10pW0NIMl1DKD1PKVtPSF0=

> <s_epik_cmdline>
J2VwaWtfYXBwJywgJy1pbWFlJywgJ2xpZ2FuZF9wcm8ubWFlJywgJy1vbWFlJywgJ2xpZ2FuZF9wcmVwLm1hZScsICctbXMnLCAnMScsICctcGgnLCAnNycsICctcGh0JywgJzAuNScsICctbnQn

> <r_lp_tautomer_probability>
1

> <r_epik_Ionization_Penalty>
  0.0123

> <r_epik_Ionization_Penalty_Charging>
  0.0056

> <r_epik_Ionization_Penalty_Neutral>
  0.0067

> <r_epik_State_Penalty>
 -0.0000

> <r_epik_Charging_Adjusted_Penalty>
0.00559227335990462

> <i_epik_Tot_Q>
-2

> <i_epik_Tot_abs_Q>
2

$$$$
