4jjf_ligand
                    3D
 Schrodinger Suite 2020-3.
 82 89  0  0  1  0            999 V2000
  -16.5840  -15.5820  -20.7280 O   0  0  0  0  0  0
  -15.7010  -18.6130  -21.8810 C   0  0  0  0  0  0
  -16.1630  -19.6020  -21.3570 O   0  0  0  0  0  0
  -15.3590  -17.8570  -24.4580 C   0  0  0  0  0  0
  -15.5660  -18.3700  -25.5500 O   0  0  0  0  0  0
  -13.1090  -17.6790  -22.4180 C   0  0  0  0  0  0
  -12.5310  -18.2250  -23.6130 O   0  0  0  0  0  0
  -12.2620  -17.0730  -21.3220 C   0  0  0  0  0  0
  -13.2610  -16.3990  -20.4470 C   0  0  0  0  0  0
  -14.5180  -16.2660  -20.9050 N   0  0  0  0  0  0
  -12.8580  -15.8650  -19.2210 C   0  0  0  0  0  0
  -11.4400  -15.9660  -18.7210 C   0  0  0  0  0  0
  -13.7830  -15.2050  -18.4300 C   0  0  3  0  0  0
  -15.0910  -15.0580  -18.9020 C   0  0  0  0  0  0
  -16.1540  -14.3230  -18.1070 C   0  0  0  0  0  0
  -15.3950  -15.6300  -20.1340 C   0  0  0  0  0  0
  -13.3680  -14.6790  -17.2280 O   0  0  0  0  0  0
  -13.7600  -15.3410  -15.7940 P   0  0  1  0  0  0
  -14.1220  -14.2780  -14.8080 O   0  0  0  0  0  0
  -14.6380  -16.5680  -16.0230 O   0  5  0  0  0  0
  -12.3210  -15.9720  -15.3940 O   0  0  0  0  0  0
  -11.2170  -15.1270  -15.0650 C   0  0  0  0  0  0
  -10.5180  -15.8820  -13.9520 C   0  0  1  0  0  0
   -9.2400  -15.3360  -13.7420 O   0  0  0  0  0  0
   -9.0260  -15.4480  -12.3780 C   0  0  2  0  0  0
  -10.3430  -15.1170  -11.7450 C   0  0  2  0  0  0
  -10.3930  -15.5560  -10.3960 O   0  0  0  0  0  0
  -11.2750  -15.9030  -12.6180 C   0  0  2  0  0  0
  -11.3840  -17.2390  -12.1110 O   0  0  0  0  0  0
   -7.8790  -14.5900  -11.9650 N   0  0  0  0  0  0
   -6.6840  -15.1260  -11.8040 C   0  0  0  0  0  0
   -6.1710  -16.3850  -11.9060 N   0  0  0  0  0  0
   -4.8600  -16.6170  -11.6280 C   0  0  0  0  0  0
   -4.3810  -17.8760  -11.7150 N   0  0  0  0  0  0
   -4.0440  -15.6080  -11.2620 N   0  0  0  0  0  0
   -4.5450  -14.3480  -11.1480 C   0  0  0  0  0  0
   -3.7440  -13.3390  -10.7930 O   0  0  0  0  0  0
   -5.8850  -14.0720  -11.4180 C   0  0  0  0  0  0
   -6.6460  -12.9410  -11.4000 N   0  0  0  0  0  0
   -7.9250  -13.2590  -11.7340 C   0  0  0  0  0  0
  -16.4800  -16.0690  -22.1040 C   0  0  0  0  0  0
  -17.5220  -15.8350  -22.7520 N   0  0  0  0  0  0
  -17.8640  -16.1640  -24.0600 C   0  0  0  0  0  0
  -19.0680  -16.8850  -24.1720 C   0  0  0  0  0  0
  -19.5430  -17.2810  -25.4210 C   0  0  0  0  0  0
  -18.8090  -16.9470  -26.5610 C   0  0  0  0  0  0
  -17.6020  -16.2080  -26.4490 C   0  0  0  0  0  0
  -17.1250  -15.7930  -25.1950 C   0  0  0  0  0  0
  -19.3050  -17.3480  -27.8120 C   0  0  0  0  0  0
  -18.5740  -17.0230  -28.9580 C   0  0  0  0  0  0
  -17.3740  -16.2990  -28.8450 C   0  0  0  0  0  0
  -16.8810  -15.8890  -27.6040 C   0  0  0  0  0  0
  -14.9870  -17.1060  -22.7460 Fe  0  0  0  0  0  0
  -15.4519  -17.7325  -21.2705 H   0  0  0  0  0  0
  -15.9459  -16.9823  -24.1411 H   0  0  0  0  0  0
  -11.7154  -17.8706  -20.7976 H   0  0  0  0  0  0
  -11.5444  -16.3650  -21.7622 H   0  0  0  0  0  0
  -10.8306  -16.5139  -19.4548 H   0  0  0  0  0  0
  -11.4272  -16.5020  -17.7605 H   0  0  0  0  0  0
  -11.0272  -14.9558  -18.5827 H   0  0  0  0  0  0
  -15.7170  -13.9477  -17.1699 H   0  0  0  0  0  0
  -16.9806  -15.0111  -17.8764 H   0  0  0  0  0  0
  -16.5350  -13.4774  -18.6984 H   0  0  0  0  0  0
  -10.5776  -14.9977  -15.9507 H   0  0  0  0  0  0
  -11.5911  -14.1461  -14.7365 H   0  0  0  0  0  0
  -10.3743  -16.9156  -14.3000 H   0  0  0  0  0  0
   -8.7228  -16.4752  -12.1269 H   0  0  0  0  0  0
  -10.5734  -14.0468  -11.6370 H   0  0  0  0  0  0
   -9.7619  -15.0717   -9.6363 H   0  0  0  0  0  0
  -12.3177  -15.5539  -12.6484 H   0  0  0  0  0  0
  -12.0277  -17.9703  -12.6217 H   0  0  0  0  0  0
   -5.0474  -18.6986  -12.0137 H   0  0  0  0  0  0
   -3.3242  -18.0794  -11.4872 H   0  0  0  0  0  0
   -8.7869  -12.5951  -11.8001 H   0  0  0  0  0  0
  -19.6334  -17.1356  -23.2744 H   0  0  0  0  0  0
  -20.4731  -17.8428  -25.5066 H   0  0  0  0  0  0
  -16.2127  -15.2033  -25.1058 H   0  0  0  0  0  0
  -20.2410  -17.9014  -27.8878 H   0  0  0  0  0  0
  -18.9342  -17.3309  -29.9396 H   0  0  0  0  0  0
  -16.8150  -16.0517  -29.7475 H   0  0  0  0  0  0
  -15.9484  -15.3289  -27.5369 H   0  0  0  0  0  0
   -2.9815  -15.8064  -11.0579 H   0  0  0  0  0  0
  1 16  1  0  0  0
  1 41  1  0  0  0
  2  3  2  0  0  0
  2 53  1  0  0  0
  2 54  1  0  0  0
  4  5  2  0  0  0
  4 53  1  0  0  0
  4 55  1  0  0  0
  6  7  2  0  0  0
  6  8  1  0  0  0
  6 53  1  0  0  0
  8  9  1  0  0  0
  8 56  1  0  0  0
  8 57  1  0  0  0
  9 10  1  0  0  0
  9 11  2  0  0  0
 10 16  1  0  0  0
 10 53  1  0  0  0
 11 12  1  0  0  0
 11 13  1  0  0  0
 12 58  1  0  0  0
 12 59  1  0  0  0
 12 60  1  0  0  0
 13 14  1  0  0  0
 13 17  1  0  0  0
 14 15  1  0  0  0
 14 16  2  0  0  0
 15 61  1  0  0  0
 15 62  1  0  0  0
 15 63  1  0  0  0
 17 18  1  0  0  0
 18 19  2  0  0  0
 18 20  1  0  0  0
 18 21  1  0  0  0
 21 22  1  0  0  0
 22 23  1  0  0  0
 22 64  1  0  0  0
 22 65  1  0  0  0
 23 24  1  0  0  0
 23 28  1  0  0  0
 23 66  1  0  0  0
 24 25  1  0  0  0
 25 26  1  0  0  0
 25 30  1  0  0  0
 25 67  1  0  0  0
 26 27  1  0  0  0
 26 28  1  0  0  0
 26 68  1  0  0  0
 27 69  1  0  0  0
 28 29  1  0  0  0
 28 70  1  0  0  0
 29 71  1  0  0  0
 30 31  1  0  0  0
 30 40  1  0  0  0
 31 32  1  0  0  0
 31 38  2  0  0  0
 32 33  2  0  0  0
 33 34  1  0  0  0
 33 35  1  0  0  0
 34 72  1  0  0  0
 34 73  1  0  0  0
 35 36  1  0  0  0
 35 82  1  0  0  0
 36 37  2  0  0  0
 36 38  1  0  0  0
 38 39  1  0  0  0
 39 40  2  0  0  0
 40 74  1  0  0  0
 41 42  2  0  0  0
 41 53  1  0  0  0
 42 43  1  0  0  0
 43 44  2  0  0  0
 43 48  1  0  0  0
 44 45  1  0  0  0
 44 75  1  0  0  0
 45 46  2  0  0  0
 45 76  1  0  0  0
 46 47  1  0  0  0
 46 49  1  0  0  0
 47 48  2  0  0  0
 47 52  1  0  0  0
 48 77  1  0  0  0
 49 50  2  0  0  0
 49 78  1  0  0  0
 50 51  1  0  0  0
 50 79  1  0  0  0
 51 52  2  0  0  0
 51 80  1  0  0  0
 52 81  1  0  0  0
M  CHG  1  20  -1
M  END
> <s_m_source_file>
../4jjf_ligand.sdf

> <i_m_source_file_index>
1

> <s_epik_input>
W2NIXTFbY0hdW2NIXVtjSF1jKGMxMilbY0hdYyhbY0hdW2NIXTIpXE49QzNcT0M0PUMoW0NIM10pW0NIXShDKFtDSDNdKT1DKFtDSDJdQzU9TylONFtGZV0zNShbQ0hdPU8pW0NIXT1PKU9bUEBAXSg9TykoW09IXSlPW0NIMl1bQ0BIXTZPW0NASF0oW0NASF0oW09IXSlbQ0BASF02W09IXSluN1tjSF1uYyhjNzgpYyhbT0hdKW5jKG44KVtOSDJd

> <s_epik_cmdline>
J2VwaWtfYXBwJywgJy1pbWFlJywgJ2xpZ2FuZF9wcm8ubWFlJywgJy1vbWFlJywgJ2xpZ2FuZF9wcmVwLm1hZScsICctbXMnLCAnMScsICctcGgnLCAnNycsICctcGh0JywgJzAuNScsICctbnQn

> <r_lp_tautomer_probability>
1

> <r_epik_Ionization_Penalty>
  0.0019

> <r_epik_Ionization_Penalty_Charging>
  0.0019

> <r_epik_Ionization_Penalty_Neutral>
  0.0001

> <r_epik_State_Penalty>
 -0.0000

> <r_epik_Charging_Adjusted_Penalty>
0.00186767328653537

> <i_epik_Tot_Q>
-1

> <i_epik_Tot_abs_Q>
1

> <s_epik_Chemistry_Notes>
This compound has an imine and may undergo hydrolysis. This compound contains an acetal/aminal-like group ( X-CH(R)-Y where X, Y are N, S, or O) that may be acid/base labile, releasing an aldehyde.

$$$$
