4jjg_ligand
                    3D
 Schrodinger Suite 2020-3.
 88 94  0  0  1  0            999 V2000
   -5.5000  -22.0930  -29.1620 O   0  0  0  0  0  0
   -7.4540  -21.4650  -27.0910 Fe  0  0  0  0  0  0
   -8.4720  -22.7400  -27.9370 C   0  0  0  0  0  0
   -9.1350  -23.5720  -28.4690 O   0  0  0  0  0  0
   -7.7410  -22.2040  -25.4160 C   0  0  0  0  0  0
   -7.9540  -22.6780  -24.3300 O   0  0  0  0  0  0
   -8.7670  -19.9990  -27.3370 C   0  0  0  0  0  0
   -9.5750  -20.0020  -26.1650 O   0  0  0  0  0  0
   -8.9010  -19.0390  -28.4610 C   0  0  0  0  0  0
   -7.8090  -19.5400  -29.3600 C   0  0  0  0  0  0
   -7.1180  -20.5950  -28.9340 N   0  0  0  0  0  0
   -7.5750  -18.9240  -30.5830 C   0  0  0  0  0  0
   -8.3940  -17.7290  -31.0230 C   0  0  0  0  0  0
   -6.5680  -19.4130  -31.3850 C   0  0  3  0  0  0
   -5.7970  -20.5080  -30.9280 C   0  0  0  0  0  0
   -4.6720  -21.1140  -31.7360 C   0  0  0  0  0  0
   -6.1520  -21.0390  -29.6830 C   0  0  0  0  0  0
   -6.3270  -18.7950  -32.5840 O   0  0  0  0  0  0
   -6.7210  -19.4020  -34.0190 P   0  0  1  0  0  0
   -5.6010  -19.1140  -35.0200 O   0  5  0  0  0  0
   -7.2400  -20.8230  -33.8630 O   0  0  0  0  0  0
   -8.0180  -18.5120  -34.2990 O   0  0  0  0  0  0
   -7.8960  -17.1440  -34.7080 C   0  0  0  0  0  0
   -8.8500  -16.9360  -35.8850 C   0  0  1  0  0  0
   -9.0340  -15.5480  -36.1250 O   0  0  0  0  0  0
   -9.2710  -15.3790  -37.5180 C   0  0  2  0  0  0
   -8.2940  -16.3370  -38.1520 C   0  0  2  0  0  0
   -8.7820  -16.6680  -39.4520 O   0  0  0  0  0  0
   -8.3360  -17.5040  -37.1880 C   0  0  2  0  0  0
   -9.3450  -18.4220  -37.5970 O   0  0  0  0  0  0
   -9.1410  -13.9530  -37.9150 N   0  0  0  0  0  0
  -10.1790  -13.1280  -38.0510 C   0  0  0  0  0  0
  -11.5230  -13.2940  -37.9200 N   0  0  0  0  0  0
  -12.3910  -12.2950  -38.1530 C   0  0  0  0  0  0
  -13.7240  -12.5540  -37.9980 N   0  0  0  0  0  0
  -11.9370  -11.0620  -38.5090 N   0  0  0  0  0  0
  -10.5950  -10.8390  -38.6470 C   0  0  0  0  0  0
  -10.1170   -9.6080  -38.9950 O   0  0  0  0  0  0
   -9.6880  -11.8870  -38.4260 C   0  0  0  0  0  0
   -8.3490  -12.0020  -38.4870 N   0  0  0  0  0  0
   -8.0190  -13.2670  -38.1690 C   0  0  0  0  0  0
   -2.3980  -24.2360  -29.3210 O   0  0  0  0  0  0
   -2.8610  -24.0260  -27.9780 S   0  0  0  0  0  0
   -2.5270  -25.1830  -27.1820 O   0  0  0  0  0  0
   -2.1460  -22.6670  -27.2810 C   0  0  0  0  0  0
   -2.1040  -21.3490  -28.0560 C   0  0  0  0  0  0
   -2.7740  -20.2240  -27.5380 C   0  0  0  0  0  0
   -2.7500  -18.9920  -28.2070 C   0  0  0  0  0  0
   -2.0420  -18.8750  -29.4070 C   0  0  0  0  0  0
   -2.0180  -17.5600  -30.1500 C   0  0  0  0  0  0
   -1.3590  -19.9890  -29.9210 C   0  0  0  0  0  0
   -1.3790  -21.2200  -29.2490 C   0  0  0  0  0  0
   -4.4440  -23.9430  -28.0250 C   0  0  0  0  0  0
   -5.4420  -23.2830  -27.2890 N   0  0  0  0  0  0
   -6.0020  -22.3560  -27.8980 C   0  0  0  0  0  0
   -7.9432  -21.9885  -28.5416 H   0  0  0  0  0  0
   -6.7202  -22.2046  -25.8258 H   0  0  0  0  0  0
   -9.9092  -19.1193  -28.8935 H   0  0  0  0  0  0
   -8.7416  -18.0157  -28.0902 H   0  0  0  0  0  0
   -9.1423  -17.4934  -30.2519 H   0  0  0  0  0  0
   -8.9037  -17.9623  -31.9695 H   0  0  0  0  0  0
   -7.7310  -16.8632  -31.1672 H   0  0  0  0  0  0
   -4.5530  -20.5548  -32.6758 H   0  0  0  0  0  0
   -4.9073  -22.1646  -31.9617 H   0  0  0  0  0  0
   -3.7372  -21.0635  -31.1584 H   0  0  0  0  0  0
   -8.1668  -16.4852  -33.8698 H   0  0  0  0  0  0
   -6.8580  -16.9432  -35.0116 H   0  0  0  0  0  0
   -9.8117  -17.3944  -35.6109 H   0  0  0  0  0  0
  -10.3095  -15.6100  -37.7977 H   0  0  0  0  0  0
   -7.2760  -15.9722  -38.3533 H   0  0  0  0  0  0
   -8.8027  -15.9036  -40.2428 H   0  0  0  0  0  0
   -7.3737  -18.0349  -37.1425 H   0  0  0  0  0  0
   -9.5239  -19.3380  -37.0148 H   0  0  0  0  0  0
  -14.0586  -13.5614  -37.7095 H   0  0  0  0  0  0
  -14.4622  -11.7551  -38.1618 H   0  0  0  0  0  0
  -12.6501  -10.2433  -38.6861 H   0  0  0  0  0  0
   -7.0061  -13.6673  -38.1253 H   0  0  0  0  0  0
   -2.6722  -22.4132  -26.3490 H   0  0  0  0  0  0
   -1.0901  -22.8812  -27.0592 H   0  0  0  0  0  0
   -3.3214  -20.3126  -26.5996 H   0  0  0  0  0  0
   -3.2789  -18.1326  -27.7950 H   0  0  0  0  0  0
   -2.6054  -16.8142  -29.5944 H   0  0  0  0  0  0
   -2.4522  -17.6967  -31.1514 H   0  0  0  0  0  0
   -0.9790  -17.2116  -30.2452 H   0  0  0  0  0  0
   -0.8055  -19.8958  -30.8554 H   0  0  0  0  0  0
   -0.8331  -22.0728  -29.6526 H   0  0  0  0  0  0
   -4.7614  -23.5437  -28.9996 H   0  0  0  0  0  0
   -4.8682  -24.9482  -27.8849 H   0  0  0  0  0  0
  1 17  1  0  0  0
  1 55  1  0  0  0
  2  3  1  0  0  0
  2  5  1  0  0  0
  2 55  1  0  0  0
  2  7  1  0  0  0
  2 11  1  0  0  0
  3  4  2  0  0  0
  3 56  1  0  0  0
  5  6  2  0  0  0
  5 57  1  0  0  0
  7  8  2  0  0  0
  7  9  1  0  0  0
  9 10  1  0  0  0
  9 58  1  0  0  0
  9 59  1  0  0  0
 10 11  1  0  0  0
 10 12  2  0  0  0
 11 17  1  0  0  0
 12 13  1  0  0  0
 12 14  1  0  0  0
 13 60  1  0  0  0
 13 61  1  0  0  0
 13 62  1  0  0  0
 14 15  1  0  0  0
 14 18  1  0  0  0
 15 16  1  0  0  0
 15 17  2  0  0  0
 16 63  1  0  0  0
 16 64  1  0  0  0
 16 65  1  0  0  0
 18 19  1  0  0  0
 19 20  1  0  0  0
 19 21  2  0  0  0
 19 22  1  0  0  0
 22 23  1  0  0  0
 23 24  1  0  0  0
 23 66  1  0  0  0
 23 67  1  0  0  0
 24 25  1  0  0  0
 24 29  1  0  0  0
 24 68  1  0  0  0
 25 26  1  0  0  0
 26 27  1  0  0  0
 26 31  1  0  0  0
 26 69  1  0  0  0
 27 28  1  0  0  0
 27 29  1  0  0  0
 27 70  1  0  0  0
 28 71  1  0  0  0
 29 30  1  0  0  0
 29 72  1  0  0  0
 30 73  1  0  0  0
 31 32  1  0  0  0
 31 41  1  0  0  0
 32 33  1  0  0  0
 32 39  2  0  0  0
 33 34  2  0  0  0
 34 35  1  0  0  0
 34 36  1  0  0  0
 35 74  1  0  0  0
 35 75  1  0  0  0
 36 37  1  0  0  0
 36 76  1  0  0  0
 37 38  2  0  0  0
 37 39  1  0  0  0
 39 40  1  0  0  0
 40 41  2  0  0  0
 41 77  1  0  0  0
 42 43  2  0  0  0
 43 44  2  0  0  0
 43 45  1  0  0  0
 43 53  1  0  0  0
 45 46  1  0  0  0
 45 78  1  0  0  0
 45 79  1  0  0  0
 46 47  2  0  0  0
 46 52  1  0  0  0
 47 48  1  0  0  0
 47 80  1  0  0  0
 48 49  2  0  0  0
 48 81  1  0  0  0
 49 50  1  0  0  0
 49 51  1  0  0  0
 50 82  1  0  0  0
 50 83  1  0  0  0
 50 84  1  0  0  0
 51 52  2  0  0  0
 51 85  1  0  0  0
 52 86  1  0  0  0
 53 54  1  0  0  0
 53 87  1  0  0  0
 53 88  1  0  0  0
 54 55  2  0  0  0
M  CHG  1  20  -1
M  END
> <s_m_source_file>
../4jjg_ligand.sdf

> <i_m_source_file_index>
1

> <s_epik_input>
W2NIXTFbY0hdYyhbQ0gzXSlbY0hdW2NIXWMxW0NIMl1TKD1PKSg9TylbQ0gyXS9OPUMyXE9DMz1DKFtDSDNdKVtDSF0oQyhbQ0gzXSk9QyhbQ0gyXUM0PU8pTjNbRmVdMjQoW0NIXT1PKVtDSF09TylPW1BAXSg9TykoW09IXSlPW0NIMl1bQ0BIXTVPW0NASF0oW0NASF0oW09IXSlbQ0BASF01W09IXSluNltjSF1uYyhjNjcpYyg9TylbbkhdYyhuNylbTkgyXQ==

> <s_epik_cmdline>
J2VwaWtfYXBwJywgJy1pbWFlJywgJ2xpZ2FuZF9wcm8ubWFlJywgJy1vbWFlJywgJ2xpZ2FuZF9wcmVwLm1hZScsICctbXMnLCAnMScsICctcGgnLCAnNycsICctcGh0JywgJzAuNScsICctbnQn

> <r_lp_tautomer_probability>
1

> <r_epik_Ionization_Penalty>
  0.0019

> <r_epik_Ionization_Penalty_Charging>
  0.0019

> <r_epik_Ionization_Penalty_Neutral>
  0.0001

> <r_epik_State_Penalty>
 -0.0000

> <r_epik_Charging_Adjusted_Penalty>
0.0018608163717078

> <i_epik_Tot_Q>
-1

> <i_epik_Tot_abs_Q>
1

> <s_epik_Chemistry_Notes>
This compound has an imine and may undergo hydrolysis. This compound contains an acetal/aminal-like group ( X-CH(R)-Y where X, Y are N, S, or O) that may be acid/base labile, releasing an aldehyde.

$$$$
