4jjm_ligand
                    3D
 Schrodinger Suite 2020-3.
196196  0  0  1  0            999 V2000
  -24.7580   56.9640  -10.0970 N   0  0  0  0  0  0
  -23.4130   57.3650   -9.6920 C   0  0  2  0  0  0
  -22.4370   57.1530  -10.8360 C   0  0  0  0  0  0
  -22.9480   56.6090   -8.4460 C   0  0  0  0  0  0
  -23.1330   55.3950   -8.3470 O   0  0  0  0  0  0
  -22.3380   57.3250   -7.5000 N   0  0  0  0  0  0
  -22.1430   58.7620   -7.6050 C   0  0  0  0  0  0
  -21.8920   56.7020   -6.2620 C   0  0  1  0  0  0
  -20.3700   56.7350   -6.1620 C   0  0  0  0  0  0
  -19.6960   56.0230   -7.3260 C   0  0  0  0  0  0
  -18.1850   56.2110   -7.2730 C   0  0  0  0  0  0
  -20.0520   54.5430   -7.3350 C   0  0  0  0  0  0
  -22.4450   57.4070   -5.0530 C   0  0  0  0  0  0
  -21.6090   58.2530   -4.2990 O   0  0  0  0  0  0
  -23.7190   57.1800   -4.7350 N   0  0  0  0  0  0
  -24.5490   56.2480   -5.4890 C   0  0  0  0  0  0
  -24.3450   57.8980   -3.6280 C   0  0  1  0  0  0
  -25.6080   58.5930   -4.1560 C   0  0  0  0  0  0
  -25.2940   59.6490   -5.2210 C   0  0  0  0  0  0
  -26.5240   60.4810   -5.5680 C   0  0  0  0  0  0
  -24.1380   60.5490   -4.8000 C   0  0  0  0  0  0
  -24.6310   57.0280   -2.4190 C   0  0  0  0  0  0
  -24.8290   55.6430   -2.5680 O   0  0  0  0  0  0
  -24.9110   57.5440   -1.3160 N   0  0  0  0  0  0
  -24.7860   58.8730   -0.8740 C   0  0  0  0  0  0
  -25.4660   56.6040   -0.3400 C   0  0  1  0  0  0
  -24.4150   55.9350    0.5850 C   0  0  0  0  0  0
  -24.8240   55.4670    1.9740 C   0  0  0  0  0  0
  -22.9270   56.2740    0.4690 C   0  0  0  0  0  0
  -26.7780   57.0200    0.3230 C   0  0  0  0  0  0
  -26.7310   57.6730    1.3500 O   0  0  0  0  0  0
  -27.7420   56.6240   -0.4540 N   0  0  0  0  0  0
  -27.6810   55.7600   -1.5650 C   0  0  0  0  0  0
  -29.0150   57.0220    0.0750 C   0  0  2  0  0  0
  -29.8840   55.9440    0.6960 C   0  0  0  0  0  0
  -29.5660   54.7870    0.6800 O   0  0  0  0  0  0
  -29.8240   57.8540   -0.8990 C   0  0  2  0  0  0
  -30.3670   57.0720   -1.9160 O   0  0  0  0  0  0
  -29.0330   58.9930   -1.5210 C   0  0  2  0  0  0
  -28.3240   59.9570   -0.5760 C   0  0  0  0  0  0
  -29.8680   59.7010   -2.5920 C   0  0  0  0  0  0
  -30.9980   60.4760   -2.0280 C   0  0  0  0  0  0
  -32.2040   60.2010   -2.4100 C   0  0  0  0  0  0
  -33.3750   60.9810   -1.8930 C   0  0  0  0  0  0
  -31.0580   56.4070    1.2660 N   0  0  0  0  0  0
  -31.9300   55.5170    2.0290 C   0  0  2  0  0  0
  -33.3660   55.5120    1.5080 C   0  0  0  0  0  0
  -34.2350   56.1830    2.0630 O   0  0  0  0  0  0
  -31.9120   55.8830    3.5160 C   0  0  0  0  0  0
  -30.5340   55.7390    4.1380 C   0  0  0  0  0  0
  -33.6160   54.7570    0.4410 N   0  0  0  0  0  0
  -34.9400   54.7460   -0.1580 C   0  0  0  0  0  0
  -34.8730   54.7770   -1.6680 C   0  0  0  0  0  0
  -35.1940   53.6260   -2.4190 O   0  0  0  0  0  0
  -32.5890   53.9790   -0.2260 C   0  0  0  0  0  0
  -34.5070   55.9270   -2.2310 N   0  0  0  0  0  0
  -34.2410   57.1390   -1.4700 C   0  0  0  0  0  0
  -34.3570   56.0250   -3.6710 C   0  0  1  0  0  0
  -35.0720   57.2660   -4.2060 C   0  0  0  0  0  0
  -36.5650   57.0290   -4.4580 C   0  0  0  0  0  0
  -36.8250   55.6810   -5.1240 C   0  0  0  0  0  0
  -37.4020   57.1720   -3.1910 C   0  0  0  0  0  0
  -32.9060   56.0550   -4.0610 C   0  0  0  0  0  0
  -32.1550   57.2400   -3.9290 O   0  0  0  0  0  0
  -32.3920   54.9190   -4.5270 N   0  0  0  0  0  0
  -30.9970   54.8170   -4.9460 C   0  0  2  0  0  0
  -30.7990   55.5540   -6.2700 C   0  0  0  0  0  0
  -31.4690   55.2510   -7.2580 O   0  0  0  0  0  0
  -30.5710   53.3450   -5.0990 C   0  0  0  0  0  0
  -29.0990   53.2450   -5.4460 C   0  0  0  0  0  0
  -30.8560   52.5790   -3.8190 C   0  0  0  0  0  0
  -29.8890   56.5250   -6.2920 N   0  0  0  0  0  0
  -29.0470   56.8250   -5.1430 C   0  0  0  0  0  0
  -29.7010   57.3130   -7.5030 C   0  0  1  0  0  0
  -29.7050   58.8110   -7.1980 C   0  0  0  0  0  0
  -31.0390   59.2730   -6.6120 C   0  0  0  0  0  0
  -31.0580   60.7830   -6.4090 C   0  0  0  0  0  0
  -32.2130   58.8280   -7.4750 C   0  0  0  0  0  0
  -28.4600   56.9290   -8.2630 C   0  0  0  0  0  0
  -27.5310   56.0220   -7.7160 O   0  0  0  0  0  0
  -28.3020   57.4850   -9.4600 N   0  0  0  0  0  0
  -27.1700   57.1490  -10.3210 C   0  0  2  0  0  0
  -25.8400   57.6680   -9.7700 C   0  0  0  0  0  0
  -25.7970   58.6750   -9.0630 O   0  0  0  0  0  0
  -27.4030   57.6710  -11.7300 C   0  0  0  0  0  0
  -24.9036   56.0514  -10.6936 H   0  0  0  0  0  0
  -23.4881   58.4365   -9.4548 H   0  0  0  0  0  0
  -22.7862   57.7027  -11.7225 H   0  0  0  0  0  0
  -22.3748   56.0802  -11.0708 H   0  0  0  0  0  0
  -21.4431   57.5226  -10.5433 H   0  0  0  0  0  0
  -22.5170   59.1126   -8.5782 H   0  0  0  0  0  0
  -21.0712   58.9938   -7.5190 H   0  0  0  0  0  0
  -22.6933   59.2667   -6.7972 H   0  0  0  0  0  0
  -22.2861   55.6764   -6.3155 H   0  0  0  0  0  0
  -20.0254   57.7796   -6.1577 H   0  0  0  0  0  0
  -20.0528   56.2404   -5.2321 H   0  0  0  0  0  0
  -20.0676   56.4711   -8.2593 H   0  0  0  0  0  0
  -17.9492   57.2854   -7.2673 H   0  0  0  0  0  0
  -17.7257   55.7395   -8.1543 H   0  0  0  0  0  0
  -17.7892   55.7438   -6.3591 H   0  0  0  0  0  0
  -21.1454   54.4291   -7.3734 H   0  0  0  0  0  0
  -19.6657   54.0674   -6.4215 H   0  0  0  0  0  0
  -19.6022   54.0630   -8.2166 H   0  0  0  0  0  0
  -23.9487   55.7842   -6.2856 H   0  0  0  0  0  0
  -25.3955   56.7899   -5.9361 H   0  0  0  0  0  0
  -24.9290   55.4668   -4.8142 H   0  0  0  0  0  0
  -23.5946   58.6240   -3.2817 H   0  0  0  0  0  0
  -26.2767   57.8451   -4.6071 H   0  0  0  0  0  0
  -26.1258   59.0937   -3.3246 H   0  0  0  0  0  0
  -24.9848   59.1102   -6.1288 H   0  0  0  0  0  0
  -27.3452   59.8137   -5.8686 H   0  0  0  0  0  0
  -26.2835   61.1629   -6.3969 H   0  0  0  0  0  0
  -26.8306   61.0665   -4.6887 H   0  0  0  0  0  0
  -23.2623   59.9303   -4.5544 H   0  0  0  0  0  0
  -24.4323   61.1349   -3.9168 H   0  0  0  0  0  0
  -23.8852   61.2312   -5.6250 H   0  0  0  0  0  0
  -24.3618   59.4892   -1.6804 H   0  0  0  0  0  0
  -24.1214   58.9071    0.0018 H   0  0  0  0  0  0
  -25.7770   59.2622   -0.5977 H   0  0  0  0  0  0
  -25.8008   55.8216   -1.0370 H   0  0  0  0  0  0
  -24.4629   55.0112   -0.0103 H   0  0  0  0  0  0
  -25.9008   55.2424    1.9829 H   0  0  0  0  0  0
  -24.6086   56.2593    2.7060 H   0  0  0  0  0  0
  -24.2583   54.5610    2.2370 H   0  0  0  0  0  0
  -22.7048   56.6032   -0.5568 H   0  0  0  0  0  0
  -22.3282   55.3821    0.7057 H   0  0  0  0  0  0
  -22.6786   57.0804    1.1747 H   0  0  0  0  0  0
  -26.6290   55.5697   -1.8241 H   0  0  0  0  0  0
  -28.1908   56.2266   -2.4208 H   0  0  0  0  0  0
  -28.1755   54.8091   -1.3176 H   0  0  0  0  0  0
  -28.6325   57.6302    0.9080 H   0  0  0  0  0  0
  -30.6942   58.2451   -0.3515 H   0  0  0  0  0  0
  -30.9781   56.1920   -1.6665 H   0  0  0  0  0  0
  -28.1715   58.4923   -1.9870 H   0  0  0  0  0  0
  -27.7453   59.3854    0.1645 H   0  0  0  0  0  0
  -29.0699   60.5781   -0.0583 H   0  0  0  0  0  0
  -27.6454   60.6029   -1.1524 H   0  0  0  0  0  0
  -29.2297   60.4008   -3.1513 H   0  0  0  0  0  0
  -30.2871   58.9547   -3.2829 H   0  0  0  0  0  0
  -30.8226   61.2761   -1.2938 H   0  0  0  0  0  0
  -32.3817   59.3840   -3.1248 H   0  0  0  0  0  0
  -34.3015   60.5901   -2.3388 H   0  0  0  0  0  0
  -33.2572   62.0410   -2.1624 H   0  0  0  0  0  0
  -33.4255   60.8843   -0.7984 H   0  0  0  0  0  0
  -31.3298   57.4650    1.1363 H   0  0  0  0  0  0
  -31.4948   54.5198    1.8672 H   0  0  0  0  0  0
  -32.2302   56.9286    3.6401 H   0  0  0  0  0  0
  -32.6000   55.2228    4.0645 H   0  0  0  0  0  0
  -30.5815   56.0140    5.2020 H   0  0  0  0  0  0
  -29.8264   56.4023    3.6191 H   0  0  0  0  0  0
  -30.1962   54.6964    4.0434 H   0  0  0  0  0  0
  -35.4721   53.8324    0.1455 H   0  0  0  0  0  0
  -35.5032   55.6280    0.1810 H   0  0  0  0  0  0
  -31.6419   54.0725    0.3257 H   0  0  0  0  0  0
  -32.4543   54.3526   -1.2518 H   0  0  0  0  0  0
  -32.8922   52.9221   -0.2575 H   0  0  0  0  0  0
  -34.3874   56.9386   -0.3984 H   0  0  0  0  0  0
  -34.9307   57.9330   -1.7922 H   0  0  0  0  0  0
  -33.2038   57.4612   -1.6444 H   0  0  0  0  0  0
  -34.8146   55.1091   -4.0731 H   0  0  0  0  0  0
  -34.9802   58.0848   -3.4772 H   0  0  0  0  0  0
  -34.6147   57.5704   -5.1590 H   0  0  0  0  0  0
  -36.8878   57.8180   -5.1532 H   0  0  0  0  0  0
  -36.2130   55.5977   -6.0342 H   0  0  0  0  0  0
  -37.8896   55.6025   -5.3894 H   0  0  0  0  0  0
  -36.5598   54.8712   -4.4284 H   0  0  0  0  0  0
  -37.2005   58.1486   -2.7267 H   0  0  0  0  0  0
  -37.1397   56.3696   -2.4858 H   0  0  0  0  0  0
  -38.4695   57.1009   -3.4468 H   0  0  0  0  0  0
  -33.0513   54.0409   -4.5918 H   0  0  0  0  0  0
  -30.4138   55.2958   -4.1457 H   0  0  0  0  0  0
  -31.1451   52.8878   -5.9183 H   0  0  0  0  0  0
  -28.9023   53.8024   -6.3737 H   0  0  0  0  0  0
  -28.8267   52.1887   -5.5881 H   0  0  0  0  0  0
  -28.4997   53.6713   -4.6280 H   0  0  0  0  0  0
  -31.9258   52.6572   -3.5754 H   0  0  0  0  0  0
  -30.2608   53.0038   -2.9973 H   0  0  0  0  0  0
  -30.5878   51.5212   -3.9573 H   0  0  0  0  0  0
  -29.3059   56.1513   -4.3129 H   0  0  0  0  0  0
  -29.2081   57.8680   -4.8327 H   0  0  0  0  0  0
  -27.9908   56.6824   -5.4152 H   0  0  0  0  0  0
  -30.5663   57.0441   -8.1266 H   0  0  0  0  0  0
  -28.9128   59.0390   -6.4697 H   0  0  0  0  0  0
  -29.5238   59.3745   -8.1252 H   0  0  0  0  0  0
  -31.1505   58.7963   -5.6270 H   0  0  0  0  0  0
  -30.2027   61.0797   -5.7842 H   0  0  0  0  0  0
  -31.9945   61.0742   -5.9109 H   0  0  0  0  0  0
  -30.9905   61.2851   -7.3854 H   0  0  0  0  0  0
  -32.1779   57.7365   -7.6072 H   0  0  0  0  0  0
  -32.1523   59.3185   -8.4577 H   0  0  0  0  0  0
  -33.1563   59.1077   -6.9832 H   0  0  0  0  0  0
  -29.0518   58.2157   -9.7974 H   0  0  0  0  0  0
  -27.1421   56.0494  -10.3234 H   0  0  0  0  0  0
  -28.3621   57.2881  -12.1089 H   0  0  0  0  0  0
  -26.5878   57.3319  -12.3861 H   0  0  0  0  0  0
  -27.4276   58.7706  -11.7142 H   0  0  0  0  0  0
  1  2  1  0  0  0
  1 83  1  0  0  0
  1 86  1  0  0  0
  2  3  1  0  0  0
  2  4  1  0  0  0
  2 87  1  0  0  0
  3 88  1  0  0  0
  3 89  1  0  0  0
  3 90  1  0  0  0
  4  5  2  0  0  0
  4  6  1  0  0  0
  6  7  1  0  0  0
  6  8  1  0  0  0
  7 91  1  0  0  0
  7 92  1  0  0  0
  7 93  1  0  0  0
  8  9  1  0  0  0
  8 13  1  0  0  0
  8 94  1  0  0  0
  9 10  1  0  0  0
  9 95  1  0  0  0
  9 96  1  0  0  0
 10 11  1  0  0  0
 10 12  1  0  0  0
 10 97  1  0  0  0
 11 98  1  0  0  0
 11 99  1  0  0  0
 11100  1  0  0  0
 12101  1  0  0  0
 12102  1  0  0  0
 12103  1  0  0  0
 13 14  2  0  0  0
 13 15  1  0  0  0
 15 16  1  0  0  0
 15 17  1  0  0  0
 16104  1  0  0  0
 16105  1  0  0  0
 16106  1  0  0  0
 17 18  1  0  0  0
 17 22  1  0  0  0
 17107  1  0  0  0
 18 19  1  0  0  0
 18108  1  0  0  0
 18109  1  0  0  0
 19 20  1  0  0  0
 19 21  1  0  0  0
 19110  1  0  0  0
 20111  1  0  0  0
 20112  1  0  0  0
 20113  1  0  0  0
 21114  1  0  0  0
 21115  1  0  0  0
 21116  1  0  0  0
 22 23  2  0  0  0
 22 24  1  0  0  0
 24 25  1  0  0  0
 24 26  1  0  0  0
 25117  1  0  0  0
 25118  1  0  0  0
 25119  1  0  0  0
 26 27  1  0  0  0
 26 30  1  0  0  0
 26120  1  0  0  0
 27 28  1  0  0  0
 27 29  1  0  0  0
 27121  1  0  0  0
 28122  1  0  0  0
 28123  1  0  0  0
 28124  1  0  0  0
 29125  1  0  0  0
 29126  1  0  0  0
 29127  1  0  0  0
 30 31  2  0  0  0
 30 32  1  0  0  0
 32 33  1  0  0  0
 32 34  1  0  0  0
 33128  1  0  0  0
 33129  1  0  0  0
 33130  1  0  0  0
 34 35  1  0  0  0
 34 37  1  0  0  0
 34131  1  0  0  0
 35 36  2  0  0  0
 35 45  1  0  0  0
 37 38  1  0  0  0
 37 39  1  0  0  0
 37132  1  0  0  0
 38133  1  0  0  0
 39 40  1  0  0  0
 39 41  1  0  0  0
 39134  1  0  0  0
 40135  1  0  0  0
 40136  1  0  0  0
 40137  1  0  0  0
 41 42  1  0  0  0
 41138  1  0  0  0
 41139  1  0  0  0
 42 43  2  0  0  0
 42140  1  0  0  0
 43 44  1  0  0  0
 43141  1  0  0  0
 44142  1  0  0  0
 44143  1  0  0  0
 44144  1  0  0  0
 45 46  1  0  0  0
 45145  1  0  0  0
 46 47  1  0  0  0
 46 49  1  0  0  0
 46146  1  0  0  0
 47 48  2  0  0  0
 47 51  1  0  0  0
 49 50  1  0  0  0
 49147  1  0  0  0
 49148  1  0  0  0
 50149  1  0  0  0
 50150  1  0  0  0
 50151  1  0  0  0
 51 52  1  0  0  0
 51 55  1  0  0  0
 52 53  1  0  0  0
 52152  1  0  0  0
 52153  1  0  0  0
 53 54  2  0  0  0
 53 56  1  0  0  0
 55154  1  0  0  0
 55155  1  0  0  0
 55156  1  0  0  0
 56 57  1  0  0  0
 56 58  1  0  0  0
 57157  1  0  0  0
 57158  1  0  0  0
 57159  1  0  0  0
 58 59  1  0  0  0
 58 63  1  0  0  0
 58160  1  0  0  0
 59 60  1  0  0  0
 59161  1  0  0  0
 59162  1  0  0  0
 60 61  1  0  0  0
 60 62  1  0  0  0
 60163  1  0  0  0
 61164  1  0  0  0
 61165  1  0  0  0
 61166  1  0  0  0
 62167  1  0  0  0
 62168  1  0  0  0
 62169  1  0  0  0
 63 64  2  0  0  0
 63 65  1  0  0  0
 65 66  1  0  0  0
 65170  1  0  0  0
 66 67  1  0  0  0
 66 69  1  0  0  0
 66171  1  0  0  0
 67 68  2  0  0  0
 67 72  1  0  0  0
 69 70  1  0  0  0
 69 71  1  0  0  0
 69172  1  0  0  0
 70173  1  0  0  0
 70174  1  0  0  0
 70175  1  0  0  0
 71176  1  0  0  0
 71177  1  0  0  0
 71178  1  0  0  0
 72 73  1  0  0  0
 72 74  1  0  0  0
 73179  1  0  0  0
 73180  1  0  0  0
 73181  1  0  0  0
 74 75  1  0  0  0
 74 79  1  0  0  0
 74182  1  0  0  0
 75 76  1  0  0  0
 75183  1  0  0  0
 75184  1  0  0  0
 76 77  1  0  0  0
 76 78  1  0  0  0
 76185  1  0  0  0
 77186  1  0  0  0
 77187  1  0  0  0
 77188  1  0  0  0
 78189  1  0  0  0
 78190  1  0  0  0
 78191  1  0  0  0
 79 80  2  0  0  0
 79 81  1  0  0  0
 81 82  1  0  0  0
 81192  1  0  0  0
 82 83  1  0  0  0
 82 85  1  0  0  0
 82193  1  0  0  0
 83 84  2  0  0  0
 85194  1  0  0  0
 85195  1  0  0  0
 85196  1  0  0  0
M  END
> <s_m_source_file>
../4jjm_ligand.sdf

> <i_m_source_file_index>
1

> <s_epik_input>
W0NIM11bQ0BIXTFbTkhdQyg9TylbQ0BIXShbQ0gzXSlbTkhdQyg9TylbQ0BIXShbQ0gyXVtDSF0oW0NIM10pW0NIM10pTihbQ0gzXSlDKD1PKVtDQEhdKFtDSF0oW0NIM10pW0NIM10pW05IXUMoPU8pW0NASF0oW0NIMl1bQ0hdKFtDSDNdKVtDSDNdKU4oW0NIM10pQyg9TylbQ0gyXU4oW0NIM10pQyg9TylbQ0BIXShbQ0gyXVtDSDNdKVtOSF1DKD1PKVtDQEhdKFtDQEhdKFtPSF0pW0NASF0oW0NIM10pW0NIMl0vW0NIXT1bQ0hdL1tDSDNdKU4oW0NIM10pQyg9TylbQ0BIXShbQ0hdKFtDSDNdKVtDSDNdKU4oW0NIM10pQyg9TylbQ0BIXShbQ0gyXVtDSF0oW0NIM10pW0NIM10pTihbQ0gzXSlDKD1PKVtDQEBIXShOKEMxPU8pW0NIM10pW0NIMl1bQ0hdKFtDSDNdKVtDSDNd

> <s_epik_cmdline>
J2VwaWtfYXBwJywgJy1pbWFlJywgJ2xpZ2FuZF9wcm8ubWFlJywgJy1vbWFlJywgJ2xpZ2FuZF9wcmVwLm1hZScsICctbXMnLCAnMScsICctcGgnLCAnNycsICctcGh0JywgJzAuNScsICctbnQn

> <s_epik_pKa_notes>
Molecule size exceeds maximum supported for generating protonation states

$$$$
