4jjq_ligand
                    3D
 Schrodinger Suite 2020-3.
 49 48  0  0  1  0            999 V2000
   31.8560  -15.7300   -7.0450 N   0  3  0  0  0  0
   32.1210  -14.5460   -7.9140 C   0  0  2  0  0  0
   33.5450  -14.0510   -7.6960 C   0  0  0  0  0  0
   34.0830  -14.1650   -6.5940 O   0  0  0  0  0  0
   31.1240  -13.4330   -7.6030 C   0  0  0  0  0  0
   34.1490  -13.5020   -8.7460 N   0  0  0  0  0  0
   35.5140  -12.9920   -8.6680 C   0  0  2  0  0  0
   35.8670  -12.2470   -9.9500 C   0  0  0  0  0  0
   35.0410  -12.1230  -10.8540 O   0  0  0  0  0  0
   36.5020  -14.1480   -8.4870 C   0  0  0  0  0  0
   36.5930  -14.9240   -9.6750 O   0  0  0  0  0  0
   37.0970  -11.7470  -10.0200 N   0  0  0  0  0  0
   37.5630  -11.0500  -11.2140 C   0  0  2  0  0  0
   38.0310  -12.1370  -12.1730 C   0  0  0  0  0  0
   38.2880  -13.2660  -11.7490 O   0  0  0  0  0  0
   38.7550  -10.1280  -10.9070 C   0  0  2  0  0  0
   39.8320  -10.9090  -10.3750 O   0  0  0  0  0  0
   38.3610   -9.0570   -9.9020 C   0  0  0  0  0  0
   38.1440  -11.8070  -13.4550 N   0  0  0  0  0  0
   38.5830  -12.7890  -14.4410 C   0  0  2  0  0  0
   40.0520  -13.1350  -14.2470 C   0  0  0  0  0  0
   40.4500  -14.1790  -14.8060 O   0  0  0  0  0  0
   38.3690  -12.2590  -15.8610 C   0  0  0  0  0  0
   39.1750  -11.1200  -16.1070 O   0  0  0  0  0  0
   32.5798  -16.5250   -7.2777 H   0  0  0  0  0  0
   30.8357  -16.0981   -7.2279 H   0  0  0  0  0  0
   31.9572  -15.4396   -5.9889 H   0  0  0  0  0  0
   31.9998  -14.8633   -8.9602 H   0  0  0  0  0  0
   30.1004  -13.8022   -7.7639 H   0  0  0  0  0  0
   31.3131  -12.5757   -8.2658 H   0  0  0  0  0  0
   31.2401  -13.1190   -6.5552 H   0  0  0  0  0  0
   33.5911  -13.4379   -9.6919 H   0  0  0  0  0  0
   35.5316  -12.3149   -7.8013 H   0  0  0  0  0  0
   37.4976  -13.7455   -8.2489 H   0  0  0  0  0  0
   36.1622  -14.7955   -7.6653 H   0  0  0  0  0  0
   37.2624  -15.7961   -9.7124 H   0  0  0  0  0  0
   37.7674  -11.8666   -9.1561 H   0  0  0  0  0  0
   36.7260  -10.4458  -11.5939 H   0  0  0  0  0  0
   39.1350   -9.6562  -11.8252 H   0  0  0  0  0  0
   40.2541  -11.7369  -10.9636 H   0  0  0  0  0  0
   37.5342   -8.4574  -10.3104 H   0  0  0  0  0  0
   39.2242   -8.4046   -9.7041 H   0  0  0  0  0  0
   38.0396   -9.5344   -8.9645 H   0  0  0  0  0  0
   37.9026  -10.7811  -13.7702 H   0  0  0  0  0  0
   37.9611  -13.6777  -14.2581 H   0  0  0  0  0  0
   40.7523  -12.5261  -13.6565 H   0  0  0  0  0  0
   38.6336  -13.0410  -16.5880 H   0  0  0  0  0  0
   37.3136  -11.9782  -15.9924 H   0  0  0  0  0  0
   39.1361  -10.6197  -17.0859 H   0  0  0  0  0  0
  1  2  1  0  0  0
  1 25  1  0  0  0
  1 26  1  0  0  0
  1 27  1  0  0  0
  2  3  1  0  0  0
  2  5  1  0  0  0
  2 28  1  0  0  0
  3  4  2  0  0  0
  3  6  1  0  0  0
  5 29  1  0  0  0
  5 30  1  0  0  0
  5 31  1  0  0  0
  6  7  1  0  0  0
  6 32  1  0  0  0
  7  8  1  0  0  0
  7 10  1  0  0  0
  7 33  1  0  0  0
  8  9  2  0  0  0
  8 12  1  0  0  0
 10 11  1  0  0  0
 10 34  1  0  0  0
 10 35  1  0  0  0
 11 36  1  0  0  0
 12 13  1  0  0  0
 12 37  1  0  0  0
 13 14  1  0  0  0
 13 16  1  0  0  0
 13 38  1  0  0  0
 14 15  2  0  0  0
 14 19  1  0  0  0
 16 17  1  0  0  0
 16 18  1  0  0  0
 16 39  1  0  0  0
 17 40  1  0  0  0
 18 41  1  0  0  0
 18 42  1  0  0  0
 18 43  1  0  0  0
 19 20  1  0  0  0
 19 44  1  0  0  0
 20 21  1  0  0  0
 20 23  1  0  0  0
 20 45  1  0  0  0
 21 22  2  0  0  0
 21 46  1  0  0  0
 23 24  1  0  0  0
 23 47  1  0  0  0
 23 48  1  0  0  0
 24 49  1  0  0  0
M  CHG  1   1   1
M  END
> <s_m_source_file>
../4jjq_ligand.sdf

> <i_m_source_file_index>
1

> <s_epik_input>
W05IMytdW0NAQEhdKFtDSDNdKUMoPU8pW05IXVtDQEBIXShbQ0gyXVtPSF0pQyg9TylbTkhdW0NAQEhdKFtDQEhdKFtPSF0pW0NIM10pQyg9TylbTkhdW0NASF0oW0NIXT1PKVtDSDJdW09IXQ==

> <s_epik_cmdline>
J2VwaWtfYXBwJywgJy1pbWFlJywgJ2xpZ2FuZF9wcm8ubWFlJywgJy1vbWFlJywgJ2xpZ2FuZF9wcmVwLm1hZScsICctbXMnLCAnMScsICctcGgnLCAnNycsICctcGh0JywgJzAuNScsICctbnQn

> <r_lp_tautomer_probability>
0.99990000499975

> <r_epik_Ionization_Penalty>
  0.1380

> <r_epik_Ionization_Penalty_Charging>
  0.1347

> <r_epik_Ionization_Penalty_Neutral>
  0.0033

> <r_epik_State_Penalty>
  0.1240

> <r_epik_Charging_Adjusted_Penalty>
0.258668602031839

> <i_epik_Tot_Q>
1

> <i_epik_Tot_abs_Q>
1

$$$$
