4jjs_ligand
                    3D
 Schrodinger Suite 2020-3.
 60 62  0  0  1  0            999 V2000
  -27.0710   47.3740   55.3270 C   0  0  0  0  0  0
  -27.4580   47.7690   53.8720 C   0  0  0  0  0  0
  -28.1150   49.1690   53.7900 C   0  0  1  0  0  0
  -27.2200   50.2250   54.4610 C   0  0  0  0  0  0
  -26.8680   49.8560   55.9130 C   0  0  0  0  0  0
  -26.1780   48.4640   55.9750 C   0  0  1  0  0  0
  -25.8670   48.1260   57.4560 C   0  0  0  0  0  0
  -26.7700   47.7270   58.1870 O   0  0  0  0  0  0
  -24.2470   47.9710   59.3850 C   0  0  0  0  0  0
  -24.5320   48.2980   57.9310 N   0  0  0  0  0  0
  -23.4460   48.7730   57.0930 C   0  0  0  0  0  0
  -22.6080   47.9020   56.2760 C   0  0  0  0  0  0
  -21.5620   48.4760   55.5010 C   0  0  0  0  0  0
  -21.3380   49.8580   55.5280 C   0  0  0  0  0  0
  -22.1700   50.7180   56.3250 C   0  0  0  0  0  0
  -23.2030   50.1850   57.0980 C   0  0  0  0  0  0
  -22.8110   46.4450   56.2150 C   0  0  0  0  0  0
  -21.6420   45.7530   56.0390 O   0  5  0  0  0  0
  -23.8840   45.8660   56.3000 O   0  0  0  0  0  0
  -20.2890   50.3140   54.7550 O   0  0  0  0  0  0
  -19.4290   51.2720   55.2960 C   0  0  0  0  0  0
  -18.8310   51.1060   56.5970 C   0  0  0  0  0  0
  -17.9650   52.1010   57.1220 C   0  0  0  0  0  0
  -17.6680   53.2580   56.3550 C   0  0  0  0  0  0
  -18.2490   53.4330   55.0590 C   0  0  0  0  0  0
  -19.1350   52.4310   54.5050 C   0  0  0  0  0  0
  -19.7560   52.6000   53.1140 C   0  0  0  0  0  0
  -28.3700   49.6040   52.3320 C   0  0  0  0  0  0
  -22.9310   47.1980   59.7020 C   0  0  0  0  0  0
  -24.2860   49.2430   60.2430 C   0  0  0  0  0  0
  -19.4010   53.7750   52.4950 F   0  0  0  0  0  0
  -19.3660   51.6320   52.2650 F   0  0  0  0  0  0
  -21.1200   52.5250   53.0860 F   0  0  0  0  0  0
  -27.9834   47.2584   55.9305 H   0  0  0  0  0  0
  -26.5171   46.4237   55.3140 H   0  0  0  0  0  0
  -26.5555   47.7821   53.2433 H   0  0  0  0  0  0
  -28.1736   47.0361   53.4711 H   0  0  0  0  0  0
  -29.0796   49.1013   54.3143 H   0  0  0  0  0  0
  -26.2805   50.3212   53.8970 H   0  0  0  0  0  0
  -27.7414   51.1935   54.4728 H   0  0  0  0  0  0
  -26.1834   50.6107   56.3274 H   0  0  0  0  0  0
  -27.7872   49.8241   56.5164 H   0  0  0  0  0  0
  -25.2376   48.4906   55.4050 H   0  0  0  0  0  0
  -25.0732   47.2830   59.6174 H   0  0  0  0  0  0
  -20.9317   47.8366   54.8830 H   0  0  0  0  0  0
  -21.9930   51.7935   56.3257 H   0  0  0  0  0  0
  -23.8246   50.8429   57.7053 H   0  0  0  0  0  0
  -19.0450   50.2111   57.1813 H   0  0  0  0  0  0
  -17.5286   51.9766   58.1131 H   0  0  0  0  0  0
  -16.9947   54.0162   56.7548 H   0  0  0  0  0  0
  -18.0221   54.3301   54.4829 H   0  0  0  0  0  0
  -29.0095   48.8603   51.8340 H   0  0  0  0  0  0
  -27.4109   49.6788   51.7986 H   0  0  0  0  0  0
  -28.8715   50.5830   52.3238 H   0  0  0  0  0  0
  -22.8881   46.2823   59.0940 H   0  0  0  0  0  0
  -22.9105   46.9310   60.7689 H   0  0  0  0  0  0
  -22.0658   47.8352   59.4668 H   0  0  0  0  0  0
  -25.2102   49.8004   60.0305 H   0  0  0  0  0  0
  -23.4155   49.8722   60.0056 H   0  0  0  0  0  0
  -24.2603   48.9680   61.3078 H   0  0  0  0  0  0
  1  2  1  0  0  0
  1  6  1  0  0  0
  1 34  1  0  0  0
  1 35  1  0  0  0
  2  3  1  0  0  0
  2 36  1  0  0  0
  2 37  1  0  0  0
  3  4  1  0  0  0
  3 28  1  0  0  0
  3 38  1  0  0  0
  4  5  1  0  0  0
  4 39  1  0  0  0
  4 40  1  0  0  0
  5  6  1  0  0  0
  5 41  1  0  0  0
  5 42  1  0  0  0
  6  7  1  0  0  0
  6 43  1  0  0  0
  7  8  2  0  0  0
  7 10  1  0  0  0
  9 10  1  0  0  0
  9 29  1  0  0  0
  9 30  1  0  0  0
  9 44  1  0  0  0
 10 11  1  0  0  0
 11 12  2  0  0  0
 11 16  1  0  0  0
 12 13  1  0  0  0
 12 17  1  0  0  0
 13 14  2  0  0  0
 13 45  1  0  0  0
 14 15  1  0  0  0
 14 20  1  0  0  0
 15 16  2  0  0  0
 15 46  1  0  0  0
 16 47  1  0  0  0
 17 18  1  0  0  0
 17 19  2  0  0  0
 20 21  1  0  0  0
 21 22  2  0  0  0
 21 26  1  0  0  0
 22 23  1  0  0  0
 22 48  1  0  0  0
 23 24  2  0  0  0
 23 49  1  0  0  0
 24 25  1  0  0  0
 24 50  1  0  0  0
 25 26  2  0  0  0
 25 51  1  0  0  0
 26 27  1  0  0  0
 27 31  1  0  0  0
 27 32  1  0  0  0
 27 33  1  0  0  0
 28 52  1  0  0  0
 28 53  1  0  0  0
 28 54  1  0  0  0
 29 55  1  0  0  0
 29 56  1  0  0  0
 29 57  1  0  0  0
 30 58  1  0  0  0
 30 59  1  0  0  0
 30 60  1  0  0  0
M  CHG  1  18  -1
M  END
> <s_m_source_file>
../4jjs_ligand.sdf

> <i_m_source_file_index>
1

> <s_epik_input>
W0NIM11bQ0BIXTFbQ0gyXVtDSDJdW0NAQEhdKFtDSDJdW0NIMl0xKUMoPU8pTihbQ0hdKFtDSDNdKVtDSDNdKWMyYyhDKD1PKVtPSF0pW2NIXWMoW2NIXVtjSF0yKU9jM1tjSF1bY0hdW2NIXVtjSF1jM0MoRikoRilG

> <s_epik_cmdline>
J2VwaWtfYXBwJywgJy1pbWFlJywgJ2xpZ2FuZF9wcm8ubWFlJywgJy1vbWFlJywgJ2xpZ2FuZF9wcmVwLm1hZScsICctbXMnLCAnMScsICctcGgnLCAnNycsICctcGh0JywgJzAuNScsICctbnQn

> <r_lp_tautomer_probability>
1

> <r_epik_Ionization_Penalty>
  0.0002

> <r_epik_Ionization_Penalty_Charging>
  0.0001

> <r_epik_Ionization_Penalty_Neutral>
  0.0001

> <r_epik_State_Penalty>
 -0.0000

> <r_epik_Charging_Adjusted_Penalty>
0.000103789957771581

> <i_epik_Tot_Q>
-1

> <i_epik_Tot_abs_Q>
1

$$$$
