4jk5_ligand
                    3D
 Schrodinger Suite 2020-3.
255258  0  0  1  0            999 V2000
  -16.1170    9.1330  -39.3050 N   0  3  0  0  0  0
  -16.5060    8.2870  -38.1370 C   0  0  2  0  0  0
  -16.6000    9.1010  -36.8470 C   0  0  0  0  0  0
  -16.7370   10.3370  -36.8630 O   0  0  0  0  0  0
  -15.5280    7.1120  -37.9860 C   0  0  0  0  0  0
  -16.5030    8.4060  -35.7390 N   0  0  0  0  0  0
  -16.6410    9.0110  -34.4270 C   0  0  2  0  0  0
  -15.8900    8.0500  -33.5390 C   0  0  0  0  0  0
  -16.0010    6.8170  -33.7160 O   0  0  0  0  0  0
  -18.1130    9.2380  -34.1330 C   0  0  0  0  0  0
  -18.9630    8.2720  -32.8790 S   0  0  0  0  0  0
  -15.0500    8.6410  -32.6940 N   0  0  0  0  0  0
  -14.0330    7.9380  -31.9270 C   0  0  2  0  0  0
  -14.4450    7.9530  -30.4690 C   0  0  0  0  0  0
  -15.5140    8.4740  -30.1180 O   0  0  0  0  0  0
  -12.6640    8.6340  -32.0910 C   0  0  0  0  0  0
  -12.6610    9.9420  -31.5480 O   0  0  0  0  0  0
  -13.5800    7.4190  -29.6130 N   0  0  0  0  0  0
  -13.8600    7.3010  -28.1810 C   0  0  2  0  0  0
  -13.7490    8.6260  -27.4620 C   0  0  0  0  0  0
  -14.0980    8.6860  -26.2860 O   0  0  0  0  0  0
  -12.8640    6.3410  -27.5280 C   0  0  0  0  0  0
  -11.4290    6.8690  -27.4670 C   0  0  0  0  0  0
  -10.3780    5.7540  -27.6170 C   0  0  0  0  0  0
   -9.3890    6.0700  -28.6530 N   0  0  0  0  0  0
   -9.6150    6.0460  -29.9750 C   0  0  0  0  0  0
  -10.8070    5.7270  -30.4860 N   0  0  0  0  0  0
   -8.6350    6.3610  -30.8020 N   0  0  0  0  0  0
  -13.2220    9.6610  -28.1350 N   0  0  0  0  0  0
  -13.1060   11.0240  -27.5660 C   0  0  2  0  0  0
  -14.3210   11.8740  -27.8310 C   0  0  0  0  0  0
  -14.3360   13.0490  -27.4810 O   0  0  0  0  0  0
  -11.9190   11.7550  -28.1830 C   0  0  0  0  0  0
  -10.6470   10.9970  -27.9940 C   0  0  0  0  0  0
  -10.0360   10.9670  -26.7570 C   0  0  0  0  0  0
  -10.0690   10.2850  -29.0530 C   0  0  0  0  0  0
   -8.8720   10.2630  -26.5330 C   0  0  0  0  0  0
   -8.8930    9.5720  -28.8490 C   0  0  0  0  0  0
   -8.3000    9.5760  -27.5630 C   0  0  0  0  0  0
   -7.1390    8.8900  -27.3050 O   0  0  0  0  0  0
  -15.3150   11.2940  -28.4830 N   0  0  0  0  0  0
  -16.4600   12.0540  -28.8960 C   0  0  2  0  0  0
  -17.2360   12.5090  -27.6700 C   0  0  0  0  0  0
  -17.4480   11.7640  -26.6990 O   0  0  0  0  0  0
  -17.3960   11.2850  -29.8370 C   0  0  0  0  0  0
  -18.6690   12.0830  -30.0970 C   0  0  0  0  0  0
  -19.1730   12.0170  -31.4960 C   0  0  0  0  0  0
  -19.2880   10.8910  -32.0000 O   0  0  0  0  0  0
  -19.4960   13.0810  -32.0690 O   0  0  0  0  0  0
  -17.6300   13.7650  -27.7370 N   0  0  0  0  0  0
  -18.4990   14.3480  -26.7280 C   0  0  2  0  0  0
  -19.9110   13.8440  -26.9350 C   0  0  0  0  0  0
  -20.4060   13.8540  -28.0520 O   0  0  0  0  0  0
  -18.4680   15.8860  -26.8030 C   0  0  0  0  0  0
  -19.4620   16.5110  -25.8030 C   0  0  0  0  0  0
  -17.0800   16.3790  -26.4660 C   0  0  0  0  0  0
  -20.5680   13.4190  -25.8550 N   0  0  0  0  0  0
  -22.0010   13.1020  -25.8560 C   0  0  2  0  0  0
  -22.3640   12.3200  -27.1280 C   0  0  0  0  0  0
  -23.2060   12.7260  -27.9420 O   0  0  0  0  0  0
  -22.8090   14.4090  -25.7050 C   0  0  0  0  0  0
  -24.3160   14.1960  -25.5520 C   0  0  0  0  0  0
  -24.7520   13.0600  -25.1840 O   0  0  0  0  0  0
  -25.0740   15.1450  -25.7950 O   0  0  0  0  0  0
  -21.6930   11.1980  -27.3010 N   0  0  0  0  0  0
  -21.8030   10.4550  -28.5790 C   0  0  2  0  0  0
  -23.2270    9.9820  -28.9900 C   0  0  0  0  0  0
  -23.4880    9.6580  -30.1620 O   0  0  0  0  0  0
  -20.8510    9.2860  -28.4830 C   0  0  0  0  0  0
  -21.4020    7.9560  -27.3620 S   0  0  0  0  0  0
  -24.1310    9.8780  -28.0130 N   0  0  0  0  0  0
  -25.5120    9.4820  -28.2300 C   0  0  2  0  0  0
  -26.4840   10.6210  -28.0910 C   0  0  0  0  0  0
  -27.7040   10.4070  -28.0030 O   0  0  0  0  0  0
  -25.9320    8.3760  -27.2780 C   0  0  0  0  0  0
  -25.1650    7.1310  -27.5020 C   0  0  0  0  0  0
  -25.6660    5.9700  -26.6820 C   0  0  0  0  0  0
  -24.9490    4.7630  -27.0700 N   0  0  0  0  0  0
  -25.3010    3.8660  -28.0070 C   0  0  0  0  0  0
  -24.5100    2.8700  -28.1950 N   0  0  0  0  0  0
  -26.3620    3.9970  -28.8020 N   0  0  0  0  0  0
  -25.9610   11.8310  -28.0030 N   0  0  0  0  0  0
  -26.7770   13.0070  -27.9200 C   0  0  0  0  0  0
  -27.4400   13.3520  -29.2100 C   0  0  0  0  0  0
  -27.1320   12.7710  -30.2640 O   0  0  0  0  0  0
  -28.3690   14.2860  -29.1030 N   0  0  0  0  0  0
  -29.0840   14.8090  -30.2180 C   0  0  2  0  0  0
  -28.0930   15.5010  -31.1070 C   0  0  0  0  0  0
  -27.2610   16.2320  -30.6430 O   0  0  0  0  0  0
  -30.2420   15.7090  -29.7470 C   0  0  0  0  0  0
  -29.8420   17.0010  -29.1120 C   0  0  0  0  0  0
  -31.0720   17.7550  -28.6540 C   0  0  0  0  0  0
  -31.9790   18.0850  -29.7360 N   0  0  0  0  0  0
  -32.9480   18.9710  -29.6210 C   0  0  0  0  0  0
  -33.1790   19.5350  -28.4600 N   0  0  0  0  0  0
  -33.7420   19.2310  -30.6570 N   0  0  0  0  0  0
  -28.1760   15.2460  -32.3980 N   0  0  0  0  0  0
  -27.1940   15.7780  -33.2860 C   0  0  1  0  0  0
  -26.1500   14.7390  -33.6680 C   0  0  0  0  0  0
  -25.5070   14.8950  -34.6670 O   0  0  0  0  0  0
  -27.9210   16.3510  -34.5010 C   0  0  0  0  0  0
  -28.6210   15.2880  -35.1570 O   0  0  0  0  0  0
  -25.9400   13.6830  -32.8840 N   0  0  0  0  0  0
  -24.7780   12.8580  -33.1370 C   0  0  2  0  0  0
  -24.9720   11.8600  -34.2680 C   0  0  0  0  0  0
  -26.0800   11.3420  -34.5110 O   0  0  0  0  0  0
  -24.2830   12.1510  -31.8760 C   0  0  0  0  0  0
  -25.0610   11.0110  -31.5610 O   0  0  0  0  0  0
  -23.8560   11.5820  -34.9310 N   0  0  0  0  0  0
  -23.7730   10.5540  -35.9590 C   0  0  2  0  0  0
  -23.7710    9.1720  -35.3100 C   0  0  0  0  0  0
  -22.8300    8.4160  -35.4820 O   0  0  0  0  0  0
  -22.4990   10.7630  -36.7790 C   0  0  0  0  0  0
  -24.7980    8.8540  -34.5310 N   0  0  0  0  0  0
  -24.8510    7.5600  -33.8540 C   0  0  2  0  0  0
  -26.0970    6.8230  -34.2920 C   0  0  0  0  0  0
  -27.2060    7.3130  -34.1600 O   0  0  0  0  0  0
  -24.8000    7.7100  -32.3370 C   0  0  0  0  0  0
  -24.9950    6.1610  -31.4150 S   0  0  0  0  0  0
  -25.8810    5.6330  -34.8270 N   0  0  0  0  0  0
  -26.9290    4.8180  -35.4040 C   0  0  0  0  0  0
  -26.3480    4.0130  -36.5450 C   0  0  0  0  0  0
  -27.0400    3.2020  -37.1570 O   0  0  0  0  0  0
  -25.0590    4.2190  -36.8200 N   0  0  0  0  0  0
  -20.6800    6.2790  -29.4510 C   0  0  0  0  0  0
  -19.7610    6.5310  -30.4860 C   0  0  0  0  0  0
  -20.0770    6.2320  -31.8450 C   0  0  0  0  0  0
  -21.3580    5.7610  -32.1410 C   0  0  0  0  0  0
  -22.2890    5.5530  -31.1170 C   0  0  0  0  0  0
  -21.9630    5.8220  -29.7760 C   0  0  0  0  0  0
  -20.4000    6.5690  -28.0510 C   0  0  0  0  0  0
  -19.1520    6.4640  -32.9110 C   0  0  0  0  0  0
  -23.5290    5.0860  -31.5270 C   0  0  0  0  0  0
  -16.8238    9.9702  -39.4029 H   0  0  0  0  0  0
  -16.1393    8.5252  -40.2216 H   0  0  0  0  0  0
  -15.1015    9.5266  -39.1506 H   0  0  0  0  0  0
  -17.5139    7.9030  -38.3531 H   0  0  0  0  0  0
  -15.4838    6.5482  -38.9295 H   0  0  0  0  0  0
  -15.8729    6.4493  -37.1786 H   0  0  0  0  0  0
  -14.5270    7.4972  -37.7418 H   0  0  0  0  0  0
  -16.3098    7.3269  -35.8295 H   0  0  0  0  0  0
  -16.2036   10.0156  -34.3295 H   0  0  0  0  0  0
  -18.2653   10.2765  -33.8040 H   0  0  0  0  0  0
  -18.7017    9.0517  -35.0433 H   0  0  0  0  0  0
  -15.1593    9.7309  -32.5934 H   0  0  0  0  0  0
  -13.9893    6.9081  -32.3109 H   0  0  0  0  0  0
  -11.8902    8.0475  -31.5740 H   0  0  0  0  0  0
  -12.4155    8.7071  -33.1601 H   0  0  0  0  0  0
  -11.7489   10.5550  -31.5952 H   0  0  0  0  0  0
  -12.6229    7.0582  -30.0178 H   0  0  0  0  0  0
  -14.8979    6.9396  -28.1361 H   0  0  0  0  0  0
  -13.1762    6.1367  -26.4932 H   0  0  0  0  0  0
  -12.8367    5.3991  -28.0955 H   0  0  0  0  0  0
  -11.2699    7.5931  -28.2796 H   0  0  0  0  0  0
  -11.2606    7.3622  -26.4983 H   0  0  0  0  0  0
   -9.8467    5.6202  -26.6632 H   0  0  0  0  0  0
  -10.8777    4.8138  -27.8933 H   0  0  0  0  0  0
   -8.3656    6.3550  -28.3677 H   0  0  0  0  0  0
  -11.6388    5.4610  -29.8171 H   0  0  0  0  0  0
  -10.9570    5.7302  -31.5757 H   0  0  0  0  0  0
   -7.6444    6.6273  -30.4048 H   0  0  0  0  0  0
  -12.8669    9.4593  -29.1564 H   0  0  0  0  0  0
  -12.9986   10.8613  -26.4834 H   0  0  0  0  0  0
  -12.0886   11.8842  -29.2621 H   0  0  0  0  0  0
  -11.8088   12.7412  -27.7085 H   0  0  0  0  0  0
  -10.4877   11.5170  -25.9314 H   0  0  0  0  0  0
  -10.5407   10.2900  -30.0357 H   0  0  0  0  0  0
   -8.4140   10.2555  -25.5439 H   0  0  0  0  0  0
   -8.4338    9.0176  -29.6675 H   0  0  0  0  0  0
   -6.7005    8.9107  -26.2964 H   0  0  0  0  0  0
  -15.2582   10.2188  -28.7081 H   0  0  0  0  0  0
  -16.0147   12.8974  -29.4441 H   0  0  0  0  0  0
  -16.8861   11.1052  -30.7949 H   0  0  0  0  0  0
  -17.6662   10.3220  -29.3790 H   0  0  0  0  0  0
  -19.4761   11.7064  -29.4515 H   0  0  0  0  0  0
  -18.4877   13.1451  -29.8754 H   0  0  0  0  0  0
  -19.8711   13.0570  -33.1028 H   0  0  0  0  0  0
  -17.2841   14.3754  -28.5842 H   0  0  0  0  0  0
  -18.1133   14.0083  -25.7555 H   0  0  0  0  0  0
  -18.7312   16.1905  -27.8267 H   0  0  0  0  0  0
  -20.4801   16.1634  -26.0323 H   0  0  0  0  0  0
  -19.4221   17.6074  -25.8830 H   0  0  0  0  0  0
  -19.1927   16.2079  -24.7804 H   0  0  0  0  0  0
  -16.3553   15.9434  -27.1696 H   0  0  0  0  0  0
  -16.8225   16.0765  -25.4402 H   0  0  0  0  0  0
  -17.0518   17.4760  -26.5428 H   0  0  0  0  0  0
  -19.9812   13.3098  -24.9310 H   0  0  0  0  0  0
  -22.2032   12.4523  -24.9917 H   0  0  0  0  0  0
  -22.4659   14.9510  -24.8114 H   0  0  0  0  0  0
  -22.6592   15.0376  -26.5952 H   0  0  0  0  0  0
  -25.8339   12.8964  -25.0709 H   0  0  0  0  0  0
  -21.0508   10.8136  -26.4949 H   0  0  0  0  0  0
  -21.5115   11.1788  -29.3543 H   0  0  0  0  0  0
  -20.7231    8.8347  -29.4780 H   0  0  0  0  0  0
  -19.8767    9.6361  -28.1112 H   0  0  0  0  0  0
  -23.7791   10.1121  -26.9975 H   0  0  0  0  0  0
  -25.5032    9.1392  -29.2752 H   0  0  0  0  0  0
  -25.7634    8.7013  -26.2408 H   0  0  0  0  0  0
  -26.9993    8.1527  -27.4233 H   0  0  0  0  0  0
  -25.2336    6.8437  -28.5616 H   0  0  0  0  0  0
  -24.1109    7.2965  -27.2345 H   0  0  0  0  0  0
  -25.4943    6.1737  -25.6148 H   0  0  0  0  0  0
  -26.7427    5.8326  -26.8604 H   0  0  0  0  0  0
  -24.0026    4.5020  -26.5738 H   0  0  0  0  0  0
  -23.6271    2.7398  -27.5519 H   0  0  0  0  0  0
  -27.0538    4.8406  -28.6614 H   0  0  0  0  0  0
  -26.5463    3.2615  -29.5990 H   0  0  0  0  0  0
  -24.8647   11.9205  -27.9945 H   0  0  0  0  0  0
  -27.5672   12.8528  -27.1704 H   0  0  0  0  0  0
  -26.1548   13.8650  -27.6256 H   0  0  0  0  0  0
  -28.5798   14.6596  -28.0901 H   0  0  0  0  0  0
  -29.5180   13.9623  -30.7700 H   0  0  0  0  0  0
  -30.8755   15.9715  -30.6071 H   0  0  0  0  0  0
  -30.8435   15.1714  -28.9992 H   0  0  0  0  0  0
  -29.1973   16.7988  -28.2440 H   0  0  0  0  0  0
  -29.2927   17.6137  -29.8419 H   0  0  0  0  0  0
  -31.6293   17.1423  -27.9301 H   0  0  0  0  0  0
  -30.7675   18.6987  -28.1779 H   0  0  0  0  0  0
  -31.8761   17.5867  -30.7113 H   0  0  0  0  0  0
  -32.5227   19.3200  -27.6038 H   0  0  0  0  0  0
  -33.5481   18.7578  -31.6309 H   0  0  0  0  0  0
  -34.5921   19.9191  -30.5393 H   0  0  0  0  0  0
  -28.9959   14.6273  -32.7916 H   0  0  0  0  0  0
  -26.6689   16.5660  -32.7262 H   0  0  0  0  0  0
  -28.6334   17.1219  -34.1721 H   0  0  0  0  0  0
  -27.1887   16.7982  -35.1893 H   0  0  0  0  0  0
  -29.2117   15.4944  -36.0617 H   0  0  0  0  0  0
  -26.6243   13.4315  -32.0603 H   0  0  0  0  0  0
  -24.0434   13.6088  -33.4638 H   0  0  0  0  0  0
  -23.2429   11.8245  -32.0230 H   0  0  0  0  0  0
  -24.3326   12.8443  -31.0235 H   0  0  0  0  0  0
  -24.8160   10.4054  -30.6760 H   0  0  0  0  0  0
  -22.9653   12.1727  -34.6707 H   0  0  0  0  0  0
  -24.6621   10.6621  -36.5977 H   0  0  0  0  0  0
  -22.5183   11.7624  -37.2382 H   0  0  0  0  0  0
  -22.4409    9.9982  -37.5675 H   0  0  0  0  0  0
  -21.6215   10.6787  -36.1210 H   0  0  0  0  0  0
  -25.6153    9.5781  -34.3981 H   0  0  0  0  0  0
  -23.9550    7.0053  -34.1694 H   0  0  0  0  0  0
  -23.8288    8.1346  -32.0430 H   0  0  0  0  0  0
  -25.6079    8.3798  -32.0074 H   0  0  0  0  0  0
  -24.8428    5.2694  -34.8193 H   0  0  0  0  0  0
  -27.3310    4.1403  -34.6365 H   0  0  0  0  0  0
  -27.7344    5.4672  -35.7780 H   0  0  0  0  0  0
  -24.4844    4.9573  -36.2415 H   0  0  0  0  0  0
  -24.5708    3.6506  -37.6253 H   0  0  0  0  0  0
  -18.7895    6.9627  -30.2453 H   0  0  0  0  0  0
  -21.6341    5.5543  -33.1750 H   0  0  0  0  0  0
  -22.7063    5.6753  -28.9923 H   0  0  0  0  0  0
  -19.3309    6.8169  -27.9768 H   0  0  0  0  0  0
  -20.6039    5.6508  -27.4807 H   0  0  0  0  0  0
  -19.5429    6.1535  -33.8912 H   0  0  0  0  0  0
  -18.1743    5.9900  -32.7393 H   0  0  0  0  0  0
  -23.6872    4.1853  -30.9156 H   0  0  0  0  0  0
  -23.3677    4.7939  -32.5752 H   0  0  0  0  0  0
  1  2  1  0  0  0
  1134  1  0  0  0
  1135  1  0  0  0
  1136  1  0  0  0
  2  3  1  0  0  0
  2  5  1  0  0  0
  2137  1  0  0  0
  3  4  2  0  0  0
  3  6  1  0  0  0
  5138  1  0  0  0
  5139  1  0  0  0
  5140  1  0  0  0
  6  7  1  0  0  0
  6141  1  0  0  0
  7  8  1  0  0  0
  7 10  1  0  0  0
  7142  1  0  0  0
  8  9  2  0  0  0
  8 12  1  0  0  0
 10 11  1  0  0  0
 10143  1  0  0  0
 10144  1  0  0  0
 11132  1  0  0  0
 12 13  1  0  0  0
 12145  1  0  0  0
 13 14  1  0  0  0
 13 16  1  0  0  0
 13146  1  0  0  0
 14 15  2  0  0  0
 14 18  1  0  0  0
 16 17  1  0  0  0
 16147  1  0  0  0
 16148  1  0  0  0
 17149  1  0  0  0
 18 19  1  0  0  0
 18150  1  0  0  0
 19 20  1  0  0  0
 19 22  1  0  0  0
 19151  1  0  0  0
 20 21  2  0  0  0
 20 29  1  0  0  0
 22 23  1  0  0  0
 22152  1  0  0  0
 22153  1  0  0  0
 23 24  1  0  0  0
 23154  1  0  0  0
 23155  1  0  0  0
 24 25  1  0  0  0
 24156  1  0  0  0
 24157  1  0  0  0
 25 26  1  0  0  0
 25158  1  0  0  0
 26 27  1  0  0  0
 26 28  2  0  0  0
 27159  1  0  0  0
 27160  1  0  0  0
 28161  1  0  0  0
 29 30  1  0  0  0
 29162  1  0  0  0
 30 31  1  0  0  0
 30 33  1  0  0  0
 30163  1  0  0  0
 31 32  2  0  0  0
 31 41  1  0  0  0
 33 34  1  0  0  0
 33164  1  0  0  0
 33165  1  0  0  0
 34 35  2  0  0  0
 34 36  1  0  0  0
 35 37  1  0  0  0
 35166  1  0  0  0
 36 38  2  0  0  0
 36167  1  0  0  0
 37 39  2  0  0  0
 37168  1  0  0  0
 38 39  1  0  0  0
 38169  1  0  0  0
 39 40  1  0  0  0
 40170  1  0  0  0
 41 42  1  0  0  0
 41171  1  0  0  0
 42 43  1  0  0  0
 42 45  1  0  0  0
 42172  1  0  0  0
 43 44  2  0  0  0
 43 50  1  0  0  0
 45 46  1  0  0  0
 45173  1  0  0  0
 45174  1  0  0  0
 46 47  1  0  0  0
 46175  1  0  0  0
 46176  1  0  0  0
 47 48  2  0  0  0
 47 49  1  0  0  0
 49177  1  0  0  0
 50 51  1  0  0  0
 50178  1  0  0  0
 51 52  1  0  0  0
 51 54  1  0  0  0
 51179  1  0  0  0
 52 53  2  0  0  0
 52 57  1  0  0  0
 54 55  1  0  0  0
 54 56  1  0  0  0
 54180  1  0  0  0
 55181  1  0  0  0
 55182  1  0  0  0
 55183  1  0  0  0
 56184  1  0  0  0
 56185  1  0  0  0
 56186  1  0  0  0
 57 58  1  0  0  0
 57187  1  0  0  0
 58 59  1  0  0  0
 58 61  1  0  0  0
 58188  1  0  0  0
 59 60  2  0  0  0
 59 65  1  0  0  0
 61 62  1  0  0  0
 61189  1  0  0  0
 61190  1  0  0  0
 62 63  1  0  0  0
 62 64  2  0  0  0
 63191  1  0  0  0
 65 66  1  0  0  0
 65192  1  0  0  0
 66 67  1  0  0  0
 66 69  1  0  0  0
 66193  1  0  0  0
 67 68  2  0  0  0
 67 71  1  0  0  0
 69 70  1  0  0  0
 69194  1  0  0  0
 69195  1  0  0  0
 70131  1  0  0  0
 71 72  1  0  0  0
 71196  1  0  0  0
 72 73  1  0  0  0
 72 75  1  0  0  0
 72197  1  0  0  0
 73 74  2  0  0  0
 73 82  1  0  0  0
 75 76  1  0  0  0
 75198  1  0  0  0
 75199  1  0  0  0
 76 77  1  0  0  0
 76200  1  0  0  0
 76201  1  0  0  0
 77 78  1  0  0  0
 77202  1  0  0  0
 77203  1  0  0  0
 78 79  1  0  0  0
 78204  1  0  0  0
 79 80  2  0  0  0
 79 81  1  0  0  0
 80205  1  0  0  0
 81206  1  0  0  0
 81207  1  0  0  0
 82 83  1  0  0  0
 82208  1  0  0  0
 83 84  1  0  0  0
 83209  1  0  0  0
 83210  1  0  0  0
 84 85  2  0  0  0
 84 86  1  0  0  0
 86 87  1  0  0  0
 86211  1  0  0  0
 87 88  1  0  0  0
 87 90  1  0  0  0
 87212  1  0  0  0
 88 89  2  0  0  0
 88 97  1  0  0  0
 90 91  1  0  0  0
 90213  1  0  0  0
 90214  1  0  0  0
 91 92  1  0  0  0
 91215  1  0  0  0
 91216  1  0  0  0
 92 93  1  0  0  0
 92217  1  0  0  0
 92218  1  0  0  0
 93 94  1  0  0  0
 93219  1  0  0  0
 94 95  2  0  0  0
 94 96  1  0  0  0
 95220  1  0  0  0
 96221  1  0  0  0
 96222  1  0  0  0
 97 98  1  0  0  0
 97223  1  0  0  0
 98 99  1  0  0  0
 98101  1  0  0  0
 98224  1  0  0  0
 99100  2  0  0  0
 99103  1  0  0  0
101102  1  0  0  0
101225  1  0  0  0
101226  1  0  0  0
102227  1  0  0  0
103104  1  0  0  0
103228  1  0  0  0
104105  1  0  0  0
104107  1  0  0  0
104229  1  0  0  0
105106  2  0  0  0
105109  1  0  0  0
107108  1  0  0  0
107230  1  0  0  0
107231  1  0  0  0
108232  1  0  0  0
109110  1  0  0  0
109233  1  0  0  0
110111  1  0  0  0
110113  1  0  0  0
110234  1  0  0  0
111112  2  0  0  0
111114  1  0  0  0
113235  1  0  0  0
113236  1  0  0  0
113237  1  0  0  0
114115  1  0  0  0
114238  1  0  0  0
115116  1  0  0  0
115118  1  0  0  0
115239  1  0  0  0
116117  2  0  0  0
116120  1  0  0  0
118119  1  0  0  0
118240  1  0  0  0
118241  1  0  0  0
119133  1  0  0  0
120121  1  0  0  0
120242  1  0  0  0
121122  1  0  0  0
121243  1  0  0  0
121244  1  0  0  0
122123  2  0  0  0
122124  1  0  0  0
124245  1  0  0  0
124246  1  0  0  0
125126  2  0  0  0
125130  1  0  0  0
125131  1  0  0  0
126127  1  0  0  0
126247  1  0  0  0
127128  2  0  0  0
127132  1  0  0  0
128129  1  0  0  0
128248  1  0  0  0
129130  2  0  0  0
129133  1  0  0  0
130249  1  0  0  0
131250  1  0  0  0
131251  1  0  0  0
132252  1  0  0  0
132253  1  0  0  0
133254  1  0  0  0
133255  1  0  0  0
M  CHG  1   1   1
M  END
> <s_m_source_file>
../4jk5_ligand.sdf

> <i_m_source_file_index>
1

> <s_epik_input>
W09IXUMoPU8pW0NIMl1bQ0BASF0oQyg9TylbTkhdW0NASF0xMilbTkhdQyg9TylbQ0BIXShbQ0hdKFtDSDNdKVtDSDNdKVtOSF1DKD1PKVtDQEhdKFtDSDJdW0NIMl1DKD1PKVtPSF0pW05IXUMoPU8pW0NASF0oW0NIMl1jM1tjSF1bY0hdYyhbT0hdKVtjSF1bY0hdMylbTkhdQyg9TylbQ0BIXShbQ0gyXVtDSDJdW0NIMl1bTkhdL0MoW05IMl0pPU5cW0hdKVtOSF1DKD1PKVtDQEhdKFtDSDJdW09IXSlbTkhdQyg9TylbQ0BASF0oW05IXUMoPU8pW0NAQEhdKFtOSDMrXSlbQ0gzXSlbQ0gyXVNbQ0gyXWM0W2NIXWMoW0NIMl1TW0NIMl0yKVtjSF1jKFtjSF00KVtDSDJdU1tDSDJdW0NAQEhdKEMoPU8pW05IXVtDSDJdQyg9TylbTkgyXSlbTkhdQyg9TylbQ0BIXShbQ0gzXSlbTkhdQyg9TylbQ0BIXShbQ0gyXVtPSF0pW05IXUMoPU8pW0NAQEhdKFtDSDJdW09IXSlbTkhdQyg9TylbQ0BIXShbQ0gyXVtDSDJdW0NIMl1bTkhdL0MoPU5cW0hdKVtOSDJdKVtOSF1DKD1PKVtDSDJdW05IXUMoPU8pW0NAQEhdKFtOSF1DMT1PKVtDSDJdW0NIMl1bQ0gyXVtOSF0vQyg9TlxbSF0pW05IMl0=

> <s_epik_cmdline>
J2VwaWtfYXBwJywgJy1pbWFlJywgJ2xpZ2FuZF9wcm8ubWFlJywgJy1vbWFlJywgJ2xpZ2FuZF9wcmVwLm1hZScsICctbXMnLCAnMScsICctcGgnLCAnNycsICctcGh0JywgJzAuNScsICctbnQn

> <s_epik_pKa_notes>
Molecule size exceeds maximum supported for generating protonation states

> <s_epik_Chemistry_Notes>
This compound has an imine and may undergo hydrolysis.

$$$$
