4jk6_ligand
                    3D
 Schrodinger Suite 2020-3.
257260  0  0  1  0            999 V2000
  -44.9210  114.2550  -25.0800 N   0  3  0  0  0  0
  -45.7900  114.5240  -23.8920 C   0  0  2  0  0  0
  -45.0070  114.4130  -22.5690 C   0  0  0  0  0  0
  -43.9360  113.8040  -22.5210 O   0  0  0  0  0  0
  -47.0030  113.5890  -23.8990 C   0  0  0  0  0  0
  -45.5500  115.0130  -21.5060 N   0  0  0  0  0  0
  -44.8930  115.0450  -20.1830 C   0  0  2  0  0  0
  -45.9500  114.9660  -19.0390 C   0  0  0  0  0  0
  -46.9150  115.7510  -19.0200 O   0  0  0  0  0  0
  -43.9150  116.2590  -20.1270 C   0  0  0  0  0  0
  -44.2210  117.8600  -19.2750 S   0  0  0  0  0  0
  -45.7760  114.0050  -18.1130 N   0  0  0  0  0  0
  -46.8490  113.6060  -17.1590 C   0  0  2  0  0  0
  -46.6320  113.9800  -15.6660 C   0  0  0  0  0  0
  -45.8350  114.8540  -15.3360 O   0  0  0  0  0  0
  -47.1740  112.0970  -17.3310 C   0  0  0  0  0  0
  -46.1260  111.2510  -16.9060 O   0  0  0  0  0  0
  -47.4170  113.3630  -14.7880 N   0  0  0  0  0  0
  -47.2990  113.5120  -13.3260 C   0  0  2  0  0  0
  -46.2660  112.5430  -12.7360 C   0  0  0  0  0  0
  -45.9980  112.5820  -11.5490 O   0  0  0  0  0  0
  -48.6610  113.2220  -12.6640 C   0  0  0  0  0  0
  -49.1650  111.7750  -12.8370 C   0  0  0  0  0  0
  -50.5960  111.6670  -13.3990 C   0  0  0  0  0  0
  -50.8120  110.4570  -14.2180 N   0  0  0  0  0  0
  -50.6950  110.3750  -15.5550 C   0  0  0  0  0  0
  -50.3620  111.4240  -16.3140 N   0  0  0  0  0  0
  -50.9250  109.2130  -16.1520 N   0  0  0  0  0  0
  -45.7290  111.6560  -13.5740 N   0  0  0  0  0  0
  -44.6910  110.7090  -13.1870 C   0  0  2  0  0  0
  -43.3200  111.2660  -13.5110 C   0  0  0  0  0  0
  -42.3300  110.5700  -13.3430 O   0  0  0  0  0  0
  -44.8800  109.3710  -13.9380 C   0  0  0  0  0  0
  -46.1610  108.6820  -13.5340 C   0  0  0  0  0  0
  -46.2480  108.0500  -12.3110 C   0  0  0  0  0  0
  -47.2800  108.6820  -14.3530 C   0  0  0  0  0  0
  -47.3940  107.4410  -11.8950 C   0  0  0  0  0  0
  -48.4450  108.0570  -13.9340 C   0  0  0  0  0  0
  -48.4760  107.4460  -12.6910 C   0  0  0  0  0  0
  -49.5690  106.8030  -12.1970 O   0  0  0  0  0  0
  -43.2740  112.5100  -13.9720 N   0  0  0  0  0  0
  -42.0500  113.0490  -14.4860 C   0  0  2  0  0  0
  -41.1960  113.5910  -13.3330 C   0  0  0  0  0  0
  -41.6730  114.2790  -12.4590 O   0  0  0  0  0  0
  -42.2980  114.1580  -15.4880 C   0  0  0  0  0  0
  -41.0060  114.8970  -15.7950 C   0  0  0  0  0  0
  -40.8950  115.3540  -17.2200 C   0  0  0  0  0  0
  -41.5880  116.3250  -17.5700 O   0  0  0  0  0  0
  -40.0900  114.7550  -17.9710 O   0  0  0  0  0  0
  -39.9210  113.2700  -13.3880 N   0  0  0  0  0  0
  -38.9380  113.7700  -12.4440 C   0  0  2  0  0  0
  -38.6680  115.2690  -12.6490 C   0  0  0  0  0  0
  -38.3580  115.6920  -13.7620 O   0  0  0  0  0  0
  -37.6140  112.9650  -12.6320 C   0  0  0  0  0  0
  -36.5590  113.4380  -11.6630 C   0  0  0  0  0  0
  -37.8730  111.4630  -12.4610 C   0  0  0  0  0  0
  -38.7250  116.0540  -11.5610 N   0  0  0  0  0  0
  -38.2710  117.4790  -11.5740 C   0  0  2  0  0  0
  -38.7330  118.1600  -12.8980 C   0  0  0  0  0  0
  -37.9150  118.5860  -13.7230 O   0  0  0  0  0  0
  -36.7380  117.5170  -11.4180 C   0  0  0  0  0  0
  -36.1530  118.9090  -11.4100 C   0  0  0  0  0  0
  -36.8840  119.8510  -11.1540 O   0  0  0  0  0  0
  -34.9210  119.0800  -11.6260 O   0  0  0  0  0  0
  -40.0530  118.2270  -13.0660 N   0  0  0  0  0  0
  -40.6730  118.6060  -14.3460 C   0  0  2  0  0  0
  -40.4160  120.0710  -14.7100 C   0  0  0  0  0  0
  -40.5280  120.4450  -15.8600 O   0  0  0  0  0  0
  -42.1620  118.2900  -14.3190 C   0  0  0  0  0  0
  -43.0970  119.4210  -13.2800 S   0  0  0  0  0  0
  -40.0140  120.9010  -13.7550 N   0  0  0  0  0  0
  -39.6180  122.2680  -14.0590 C   0  0  2  0  0  0
  -38.1500  122.5170  -13.8690 C   0  0  0  0  0  0
  -37.7080  123.6610  -13.6690 O   0  0  0  0  0  0
  -40.4270  123.2250  -13.2220 C   0  0  0  0  0  0
  -41.9110  123.1510  -13.5060 C   0  0  0  0  0  0
  -42.6500  124.1430  -12.6010 C   0  0  0  0  0  0
  -44.0980  124.1970  -12.8740 N   0  0  0  0  0  0
  -44.6600  124.7930  -13.9260 C   0  0  0  0  0  0
  -45.9670  124.7170  -14.0820 N   0  0  0  0  0  0
  -43.9310  125.4100  -14.8430 N   0  0  0  0  0  0
  -37.3560  121.4510  -13.9810 N   0  0  0  0  0  0
  -35.9180  121.5760  -13.8480 C   0  0  0  0  0  0
  -35.2800  122.0360  -15.1260 C   0  0  0  0  0  0
  -35.8580  121.9740  -16.2000 O   0  0  0  0  0  0
  -34.0760  122.5570  -14.9790 N   0  0  0  0  0  0
  -33.2270  122.8570  -16.1200 C   0  0  2  0  0  0
  -33.1440  121.6030  -16.9360 C   0  0  0  0  0  0
  -33.0010  120.5130  -16.3980 O   0  0  0  0  0  0
  -31.8410  123.3910  -15.6950 C   0  0  0  0  0  0
  -30.9490  122.3630  -15.1080 C   0  0  0  0  0  0
  -29.6930  123.0270  -14.6130 C   0  0  0  0  0  0
  -28.8760  123.5310  -15.7050 N   0  0  0  0  0  0
  -27.6380  123.9900  -15.5510 C   0  0  0  0  0  0
  -27.0880  123.9910  -14.3490 N   0  0  0  0  0  0
  -26.9340  124.4390  -16.6090 N   0  0  0  0  0  0
  -33.3060  121.7710  -18.2360 N   0  0  0  0  0  0
  -33.2700  120.6850  -19.1440 C   0  0  1  0  0  0
  -34.6570  120.2390  -19.4430 C   0  0  0  0  0  0
  -34.8620  119.5040  -20.3850 O   0  0  0  0  0  0
  -32.5000  121.0960  -20.4310 C   0  0  0  0  0  0
  -33.4320  121.9070  -21.3290 C   0  0  0  0  0  0
  -35.6520  120.6280  -18.6470 N   0  0  0  0  0  0
  -36.9800  120.0770  -18.8760 C   0  0  2  0  0  0
  -37.6230  120.7560  -20.0640 C   0  0  0  0  0  0
  -37.2930  121.9010  -20.3820 O   0  0  0  0  0  0
  -37.8820  120.1720  -17.6560 C   0  0  0  0  0  0
  -38.5080  121.4240  -17.5430 O   0  0  0  0  0  0
  -38.5160  120.0070  -20.7110 N   0  0  0  0  0  0
  -39.3810  120.5160  -21.7690 C   0  0  2  0  0  0
  -40.6600  120.9140  -21.0880 C   0  0  0  0  0  0
  -41.6190  120.1370  -21.0220 O   0  0  0  0  0  0
  -39.6530  119.4430  -22.8240 C   0  0  0  0  0  0
  -40.6500  122.1110  -20.5240 N   0  0  0  0  0  0
  -41.8540  122.6880  -19.9450 C   0  0  2  0  0  0
  -41.8140  124.1880  -20.2440 C   0  0  0  0  0  0
  -40.7580  124.8220  -20.1790 O   0  0  0  0  0  0
  -41.9590  122.3450  -18.4510 C   0  0  0  0  0  0
  -43.0700  123.3600  -17.4430 S   0  0  0  0  0  0
  -42.9640  124.7330  -20.6260 N   0  0  0  0  0  0
  -43.0480  126.0900  -21.1480 C   0  0  0  0  0  0
  -43.2960  126.1050  -22.6520 C   0  0  0  0  0  0
  -43.6220  127.1500  -23.2230 O   0  0  0  0  0  0
  -43.1490  124.9490  -23.2980 N   0  0  0  0  0  0
  -45.0550  119.6790  -15.2010 C   0  0  0  0  0  0
  -45.3890  118.7080  -16.1590 C   0  0  0  0  0  0
  -45.5530  119.0920  -17.5030 C   0  0  0  0  0  0
  -45.3210  120.4170  -17.8960 C   0  0  0  0  0  0
  -44.9680  121.3860  -16.9620 C   0  0  0  0  0  0
  -44.8360  121.0220  -15.6110 C   0  0  0  0  0  0
  -44.8790  119.2700  -13.8480 C   0  0  0  0  0  0
  -45.8550  118.1590  -18.4880 C   0  0  0  0  0  0
  -44.7760  122.6760  -17.4330 C   0  0  0  0  0  0
  -44.0549  114.9330  -25.0618 H   0  0  0  0  0  0
  -45.4979  114.4218  -26.0016 H   0  0  0  0  0  0
  -44.5713  113.2125  -25.0499 H   0  0  0  0  0  0
  -46.1369  115.5630  -23.9931 H   0  0  0  0  0  0
  -47.5394  113.6914  -24.8539 H   0  0  0  0  0  0
  -47.6757  113.8549  -23.0703 H   0  0  0  0  0  0
  -46.6651  112.5492  -23.7779 H   0  0  0  0  0  0
  -46.5279  115.4967  -21.6463 H   0  0  0  0  0  0
  -44.2851  114.1339  -20.0814 H   0  0  0  0  0  0
  -42.9747  115.9505  -19.6467 H   0  0  0  0  0  0
  -43.7070  116.6098  -21.1486 H   0  0  0  0  0  0
  -44.7953  113.5080  -18.0770 H   0  0  0  0  0  0
  -47.6862  114.2445  -17.4774 H   0  0  0  0  0  0
  -48.0661  111.8443  -16.7391 H   0  0  0  0  0  0
  -47.3653  111.8818  -18.3926 H   0  0  0  0  0  0
  -46.2372  110.1590  -16.9779 H   0  0  0  0  0  0
  -48.1919  112.7083  -15.2134 H   0  0  0  0  0  0
  -46.9695  114.5500  -13.1712 H   0  0  0  0  0  0
  -48.5896  113.4071  -11.5820 H   0  0  0  0  0  0
  -49.4276  113.8803  -13.0988 H   0  0  0  0  0  0
  -48.5039  111.2372  -13.5325 H   0  0  0  0  0  0
  -49.1624  111.2667  -11.8615 H   0  0  0  0  0  0
  -51.3152  111.6369  -12.5673 H   0  0  0  0  0  0
  -50.8071  112.5395  -14.0348 H   0  0  0  0  0  0
  -51.0964  109.5101  -13.7359 H   0  0  0  0  0  0
  -50.1654  112.4004  -15.8471 H   0  0  0  0  0  0
  -50.2846  111.3107  -17.4054 H   0  0  0  0  0  0
  -51.2008  108.3323  -15.5535 H   0  0  0  0  0  0
  -46.1099  111.6632  -14.6059 H   0  0  0  0  0  0
  -44.7981  110.5855  -12.0992 H   0  0  0  0  0  0
  -44.9146  109.5602  -15.0211 H   0  0  0  0  0  0
  -44.0386  108.7003  -13.7097 H   0  0  0  0  0  0
  -45.3750  108.0373  -11.6585 H   0  0  0  0  0  0
  -47.2440  109.1729  -15.3255 H   0  0  0  0  0  0
  -47.4324  106.9524  -10.9214 H   0  0  0  0  0  0
  -49.3263  108.0466  -14.5754 H   0  0  0  0  0  0
  -49.5298  106.3373  -11.2012 H   0  0  0  0  0  0
  -44.1839  113.1280  -13.9576 H   0  0  0  0  0  0
  -41.5764  112.1969  -14.9956 H   0  0  0  0  0  0
  -42.6938  113.7283  -16.4200 H   0  0  0  0  0  0
  -43.0271  114.8700  -15.0739 H   0  0  0  0  0  0
  -40.9350  115.7913  -15.1584 H   0  0  0  0  0  0
  -40.1494  114.2362  -15.5959 H   0  0  0  0  0  0
  -39.9835  115.0641  -19.0213 H   0  0  0  0  0  0
  -39.6118  112.5902  -14.1957 H   0  0  0  0  0  0
  -39.3913  113.6261  -11.4521 H   0  0  0  0  0  0
  -37.2125  113.1353  -13.6418 H   0  0  0  0  0  0
  -36.3895  114.5158  -11.8029 H   0  0  0  0  0  0
  -35.6216  112.8925  -11.8466 H   0  0  0  0  0  0
  -36.8967  113.2505  -10.6330 H   0  0  0  0  0  0
  -38.6441  111.1402  -13.1760 H   0  0  0  0  0  0
  -38.2179  111.2648  -11.4354 H   0  0  0  0  0  0
  -36.9428  110.9068  -12.6489 H   0  0  0  0  0  0
  -39.1240  115.6123  -10.6360 H   0  0  0  0  0  0
  -38.7272  118.0010  -10.7200 H   0  0  0  0  0  0
  -36.4543  117.0414  -10.4676 H   0  0  0  0  0  0
  -36.2709  116.9746  -12.2532 H   0  0  0  0  0  0
  -34.4972  120.0951  -11.6196 H   0  0  0  0  0  0
  -40.6852  117.9849  -12.1990 H   0  0  0  0  0  0
  -40.1789  117.9844  -15.1073 H   0  0  0  0  0  0
  -42.5695  118.3564  -15.3386 H   0  0  0  0  0  0
  -42.3140  117.2727  -13.9290 H   0  0  0  0  0  0
  -39.9837  120.5375  -12.7173 H   0  0  0  0  0  0
  -39.8297  122.3976  -15.1306 H   0  0  0  0  0  0
  -40.2793  122.9953  -12.1564 H   0  0  0  0  0  0
  -40.0996  124.2556  -13.4237 H   0  0  0  0  0  0
  -42.0958  123.4059  -14.5600 H   0  0  0  0  0  0
  -42.2721  122.1312  -13.3067 H   0  0  0  0  0  0
  -42.5173  123.8489  -11.5494 H   0  0  0  0  0  0
  -42.2417  125.1529  -12.7536 H   0  0  0  0  0  0
  -44.8066  123.7207  -12.1805 H   0  0  0  0  0  0
  -46.5823  124.2067  -13.3264 H   0  0  0  0  0  0
  -42.8398  125.4793  -14.7230 H   0  0  0  0  0  0
  -44.4166  125.8533  -15.7249 H   0  0  0  0  0  0
  -37.8067  120.4669  -14.1771 H   0  0  0  0  0  0
  -35.6849  122.3088  -13.0615 H   0  0  0  0  0  0
  -35.4884  120.5998  -13.5786 H   0  0  0  0  0  0
  -33.7199  122.7639  -13.9590 H   0  0  0  0  0  0
  -33.7108  123.6529  -16.7052 H   0  0  0  0  0  0
  -31.3230  123.8055  -16.5724 H   0  0  0  0  0  0
  -31.9680  124.1790  -14.9381 H   0  0  0  0  0  0
  -31.4615  121.8683  -14.2698 H   0  0  0  0  0  0
  -30.6956  121.6162  -15.8749 H   0  0  0  0  0  0
  -29.9578  123.8741  -13.9631 H   0  0  0  0  0  0
  -29.0944  122.3009  -14.0433 H   0  0  0  0  0  0
  -29.2763  123.5468  -16.7295 H   0  0  0  0  0  0
  -27.6588  123.6255  -13.4827 H   0  0  0  0  0  0
  -27.3877  124.4400  -17.6111 H   0  0  0  0  0  0
  -25.9058  124.8044  -16.4704 H   0  0  0  0  0  0
  -33.4730  122.7929  -18.6072 H   0  0  0  0  0  0
  -32.7609  119.8656  -18.6154 H   0  0  0  0  0  0
  -31.6260  121.7049  -20.1566 H   0  0  0  0  0  0
  -32.1654  120.1928  -20.9623 H   0  0  0  0  0  0
  -32.8954  122.2024  -22.2427 H   0  0  0  0  0  0
  -33.7661  122.8074  -20.7927 H   0  0  0  0  0  0
  -34.3056  121.2953  -21.5983 H   0  0  0  0  0  0
  -35.4884  121.3481  -17.8317 H   0  0  0  0  0  0
  -36.8055  119.0114  -19.0859 H   0  0  0  0  0  0
  -38.6687  119.4059  -17.7211 H   0  0  0  0  0  0
  -37.2861  120.0092  -16.7458 H   0  0  0  0  0  0
  -39.1885  121.6248  -16.7024 H   0  0  0  0  0  0
  -38.5805  118.9515  -20.4079 H   0  0  0  0  0  0
  -38.8877  121.3673  -22.2608 H   0  0  0  0  0  0
  -38.7087  119.1622  -23.3133 H   0  0  0  0  0  0
  -40.3525  119.8371  -23.5759 H   0  0  0  0  0  0
  -40.0934  118.5579  -22.3417 H   0  0  0  0  0  0
  -39.7042  122.6721  -20.4987 H   0  0  0  0  0  0
  -42.7370  122.2383  -20.4226 H   0  0  0  0  0  0
  -42.3206  121.3125  -18.3364 H   0  0  0  0  0  0
  -40.9685  122.4408  -17.9823 H   0  0  0  0  0  0
  -43.8735  124.1208  -20.5368 H   0  0  0  0  0  0
  -43.8764  126.6212  -20.6566 H   0  0  0  0  0  0
  -42.1041  126.6186  -20.9489 H   0  0  0  0  0  0
  -42.8569  124.0436  -22.7458 H   0  0  0  0  0  0
  -43.3197  124.9000  -24.3836 H   0  0  0  0  0  0
  -45.5200  117.6668  -15.8644 H   0  0  0  0  0  0
  -45.4183  120.6919  -18.9463 H   0  0  0  0  0  0
  -44.5636  121.7755  -14.8720 H   0  0  0  0  0  0
  -45.2025  118.2219  -13.7655 H   0  0  0  0  0  0
  -45.5201  119.9024  -13.2162 H   0  0  0  0  0  0
  -46.5586  118.5464  -19.2396 H   0  0  0  0  0  0
  -46.2417  117.2153  -18.0759 H   0  0  0  0  0  0
  -45.4195  123.3050  -16.8003 H   0  0  0  0  0  0
  -45.1716  122.6624  -18.4593 H   0  0  0  0  0  0
  1  2  1  0  0  0
  1134  1  0  0  0
  1135  1  0  0  0
  1136  1  0  0  0
  2  3  1  0  0  0
  2  5  1  0  0  0
  2137  1  0  0  0
  3  4  2  0  0  0
  3  6  1  0  0  0
  5138  1  0  0  0
  5139  1  0  0  0
  5140  1  0  0  0
  6  7  1  0  0  0
  6141  1  0  0  0
  7  8  1  0  0  0
  7 10  1  0  0  0
  7142  1  0  0  0
  8  9  2  0  0  0
  8 12  1  0  0  0
 10 11  1  0  0  0
 10143  1  0  0  0
 10144  1  0  0  0
 11132  1  0  0  0
 12 13  1  0  0  0
 12145  1  0  0  0
 13 14  1  0  0  0
 13 16  1  0  0  0
 13146  1  0  0  0
 14 15  2  0  0  0
 14 18  1  0  0  0
 16 17  1  0  0  0
 16147  1  0  0  0
 16148  1  0  0  0
 17149  1  0  0  0
 18 19  1  0  0  0
 18150  1  0  0  0
 19 20  1  0  0  0
 19 22  1  0  0  0
 19151  1  0  0  0
 20 21  2  0  0  0
 20 29  1  0  0  0
 22 23  1  0  0  0
 22152  1  0  0  0
 22153  1  0  0  0
 23 24  1  0  0  0
 23154  1  0  0  0
 23155  1  0  0  0
 24 25  1  0  0  0
 24156  1  0  0  0
 24157  1  0  0  0
 25 26  1  0  0  0
 25158  1  0  0  0
 26 27  1  0  0  0
 26 28  2  0  0  0
 27159  1  0  0  0
 27160  1  0  0  0
 28161  1  0  0  0
 29 30  1  0  0  0
 29162  1  0  0  0
 30 31  1  0  0  0
 30 33  1  0  0  0
 30163  1  0  0  0
 31 32  2  0  0  0
 31 41  1  0  0  0
 33 34  1  0  0  0
 33164  1  0  0  0
 33165  1  0  0  0
 34 35  2  0  0  0
 34 36  1  0  0  0
 35 37  1  0  0  0
 35166  1  0  0  0
 36 38  2  0  0  0
 36167  1  0  0  0
 37 39  2  0  0  0
 37168  1  0  0  0
 38 39  1  0  0  0
 38169  1  0  0  0
 39 40  1  0  0  0
 40170  1  0  0  0
 41 42  1  0  0  0
 41171  1  0  0  0
 42 43  1  0  0  0
 42 45  1  0  0  0
 42172  1  0  0  0
 43 44  2  0  0  0
 43 50  1  0  0  0
 45 46  1  0  0  0
 45173  1  0  0  0
 45174  1  0  0  0
 46 47  1  0  0  0
 46175  1  0  0  0
 46176  1  0  0  0
 47 48  2  0  0  0
 47 49  1  0  0  0
 49177  1  0  0  0
 50 51  1  0  0  0
 50178  1  0  0  0
 51 52  1  0  0  0
 51 54  1  0  0  0
 51179  1  0  0  0
 52 53  2  0  0  0
 52 57  1  0  0  0
 54 55  1  0  0  0
 54 56  1  0  0  0
 54180  1  0  0  0
 55181  1  0  0  0
 55182  1  0  0  0
 55183  1  0  0  0
 56184  1  0  0  0
 56185  1  0  0  0
 56186  1  0  0  0
 57 58  1  0  0  0
 57187  1  0  0  0
 58 59  1  0  0  0
 58 61  1  0  0  0
 58188  1  0  0  0
 59 60  2  0  0  0
 59 65  1  0  0  0
 61 62  1  0  0  0
 61189  1  0  0  0
 61190  1  0  0  0
 62 63  2  0  0  0
 62 64  1  0  0  0
 64191  1  0  0  0
 65 66  1  0  0  0
 65192  1  0  0  0
 66 67  1  0  0  0
 66 69  1  0  0  0
 66193  1  0  0  0
 67 68  2  0  0  0
 67 71  1  0  0  0
 69 70  1  0  0  0
 69194  1  0  0  0
 69195  1  0  0  0
 70131  1  0  0  0
 71 72  1  0  0  0
 71196  1  0  0  0
 72 73  1  0  0  0
 72 75  1  0  0  0
 72197  1  0  0  0
 73 74  2  0  0  0
 73 82  1  0  0  0
 75 76  1  0  0  0
 75198  1  0  0  0
 75199  1  0  0  0
 76 77  1  0  0  0
 76200  1  0  0  0
 76201  1  0  0  0
 77 78  1  0  0  0
 77202  1  0  0  0
 77203  1  0  0  0
 78 79  1  0  0  0
 78204  1  0  0  0
 79 80  2  0  0  0
 79 81  1  0  0  0
 80205  1  0  0  0
 81206  1  0  0  0
 81207  1  0  0  0
 82 83  1  0  0  0
 82208  1  0  0  0
 83 84  1  0  0  0
 83209  1  0  0  0
 83210  1  0  0  0
 84 85  2  0  0  0
 84 86  1  0  0  0
 86 87  1  0  0  0
 86211  1  0  0  0
 87 88  1  0  0  0
 87 90  1  0  0  0
 87212  1  0  0  0
 88 89  2  0  0  0
 88 97  1  0  0  0
 90 91  1  0  0  0
 90213  1  0  0  0
 90214  1  0  0  0
 91 92  1  0  0  0
 91215  1  0  0  0
 91216  1  0  0  0
 92 93  1  0  0  0
 92217  1  0  0  0
 92218  1  0  0  0
 93 94  1  0  0  0
 93219  1  0  0  0
 94 95  2  0  0  0
 94 96  1  0  0  0
 95220  1  0  0  0
 96221  1  0  0  0
 96222  1  0  0  0
 97 98  1  0  0  0
 97223  1  0  0  0
 98 99  1  0  0  0
 98101  1  0  0  0
 98224  1  0  0  0
 99100  2  0  0  0
 99103  1  0  0  0
101102  1  0  0  0
101225  1  0  0  0
101226  1  0  0  0
102227  1  0  0  0
102228  1  0  0  0
102229  1  0  0  0
103104  1  0  0  0
103230  1  0  0  0
104105  1  0  0  0
104107  1  0  0  0
104231  1  0  0  0
105106  2  0  0  0
105109  1  0  0  0
107108  1  0  0  0
107232  1  0  0  0
107233  1  0  0  0
108234  1  0  0  0
109110  1  0  0  0
109235  1  0  0  0
110111  1  0  0  0
110113  1  0  0  0
110236  1  0  0  0
111112  2  0  0  0
111114  1  0  0  0
113237  1  0  0  0
113238  1  0  0  0
113239  1  0  0  0
114115  1  0  0  0
114240  1  0  0  0
115116  1  0  0  0
115118  1  0  0  0
115241  1  0  0  0
116117  2  0  0  0
116120  1  0  0  0
118119  1  0  0  0
118242  1  0  0  0
118243  1  0  0  0
119133  1  0  0  0
120121  1  0  0  0
120244  1  0  0  0
121122  1  0  0  0
121245  1  0  0  0
121246  1  0  0  0
122123  2  0  0  0
122124  1  0  0  0
124247  1  0  0  0
124248  1  0  0  0
125126  2  0  0  0
125130  1  0  0  0
125131  1  0  0  0
126127  1  0  0  0
126249  1  0  0  0
127128  2  0  0  0
127132  1  0  0  0
128129  1  0  0  0
128250  1  0  0  0
129130  2  0  0  0
129133  1  0  0  0
130251  1  0  0  0
131252  1  0  0  0
131253  1  0  0  0
132254  1  0  0  0
132255  1  0  0  0
133256  1  0  0  0
133257  1  0  0  0
M  CHG  1   1   1
M  END
> <s_m_source_file>
../4jk6_ligand.sdf

> <i_m_source_file_index>
1

> <s_epik_input>
Tz1DKFtPSF0pW0NIMl1bQ0BASF0oQyg9TylbTkhdW0NASF0xMilbTkhdQyg9TylbQ0BIXShbQ0hdKFtDSDNdKVtDSDNdKVtOSF1DKD1PKVtDQEhdKFtDSDJdW0NIMl1DKD1PKVtPSF0pW05IXUMoPU8pW0NASF0oW0NIMl1jM1tjSF1bY0hdYyhbT0hdKVtjSF1bY0hdMylbTkhdQyg9TylbQ0BIXShbQ0gyXVtDSDJdW0NIMl1bTkhdL0MoW05IMl0pPU5cW0hdKVtOSF1DKD1PKVtDQEhdKFtDSDJdW09IXSlbTkhdQyg9TylbQ0BASF0oW05IXUMoPU8pW0NAQEhdKFtOSDMrXSlbQ0gzXSlbQ0gyXVNbQ0gyXWM0W2NIXWMoW0NIMl1TW0NIMl0yKVtjSF1jKFtjSF00KVtDSDJdU1tDSDJdW0NAQEhdKEMoPU8pW05IXVtDSDJdQyg9TylbTkgyXSlbTkhdQyg9TylbQ0BIXShbQ0gzXSlbTkhdQyg9TylbQ0BIXShbQ0gyXVtPSF0pW05IXUMoPU8pW0NAQEhdKFtDSDJdW0NIM10pW05IXUMoPU8pW0NASF0oW0NIMl1bQ0gyXVtDSDJdW05IXS9DKD1OXFtIXSlbTkgyXSlbTkhdQyg9TylbQ0gyXVtOSF1DKD1PKVtDQEBIXShbTkhdQzE9TylbQ0gyXVtDSDJdW0NIMl1bTkhdL0MoPU5cW0hdKVtOSDJd

> <s_epik_cmdline>
J2VwaWtfYXBwJywgJy1pbWFlJywgJ2xpZ2FuZF9wcm8ubWFlJywgJy1vbWFlJywgJ2xpZ2FuZF9wcmVwLm1hZScsICctbXMnLCAnMScsICctcGgnLCAnNycsICctcGh0JywgJzAuNScsICctbnQn

> <s_epik_pKa_notes>
Molecule size exceeds maximum supported for generating protonation states

> <s_epik_Chemistry_Notes>
This compound has an imine and may undergo hydrolysis.

$$$$
