4jkt_ligand
                    3D
 Schrodinger Suite 2020-3.
 59 62  0  0  1  0            999 V2000
   27.7460  -27.1070   -3.7930 O   0  0  0  0  0  0
   14.3820  -26.5930   -0.0930 O   0  0  0  0  0  0
   29.4820  -31.0090   -2.1260 C   0  0  0  0  0  0
   14.3500  -31.5390   -0.9900 C   0  0  0  0  0  0
   29.9070  -29.8820   -1.4840 C   0  0  0  0  0  0
   28.1070  -31.0800   -2.6960 C   0  0  0  0  0  0
   13.0490  -30.9200   -0.6070 C   0  0  0  0  0  0
   15.5220  -31.0320   -0.5080 C   0  0  0  0  0  0
   28.9890  -28.7150   -1.3450 C   0  0  0  0  0  0
   27.2700  -30.0110   -2.5680 C   0  0  0  0  0  0
   13.0300  -29.8420    0.2300 C   0  0  0  0  0  0
   15.5000  -29.8560    0.4080 C   0  0  0  0  0  0
   21.5880  -23.9440    0.1980 C   0  0  0  0  0  0
   19.7710  -22.3890   -1.3000 C   0  0  0  0  0  0
   22.6650  -22.9550   -0.0900 C   0  0  0  0  0  0
   19.0250  -22.1220   -0.0380 C   0  0  0  0  0  0
   26.8080  -27.6150   -1.7300 C   0  0  0  0  0  0
   14.3040  -28.1140    1.6740 C   0  0  0  0  0  0
   24.7810  -24.3040    0.1240 N   0  0  0  0  0  0
   17.1430  -23.6170   -0.7820 N   0  0  0  0  0  0
   25.7860  -24.9540   -0.6190 N   0  0  0  0  0  0
   16.3540  -24.7200   -0.3910 N   0  0  0  0  0  0
   26.4310  -25.4040   -2.9710 N   0  0  0  0  0  0
   16.0570  -26.3060    1.4880 N   0  0  0  0  0  0
   20.4970  -23.9890   -1.1820 S   0  0  0  0  0  0
   24.1590  -23.9360   -2.3240 S   0  0  0  0  0  0
   17.9810  -24.2830    1.5290 S   0  0  0  0  0  0
   27.0300  -26.7080   -2.8910 C   0  0  0  0  0  0
   14.8980  -26.9570    0.9510 C   0  0  0  0  0  0
   27.7290  -28.7780   -1.8640 C   0  0  0  0  0  0
   14.3100  -29.2890    0.7600 C   0  0  0  0  0  0
   23.8260  -23.7000   -0.6410 C   0  0  0  0  0  0
   18.0730  -23.2500    0.1460 C   0  0  0  0  0  0
   25.5800  -24.8490   -1.9590 C   0  0  0  0  0  0
   16.6860  -25.1930    0.8410 C   0  0  0  0  0  0
   30.1528  -31.8627   -2.2224 H   0  0  0  0  0  0
   14.3654  -32.4003   -1.6579 H   0  0  0  0  0  0
   30.9157  -29.8350   -1.0736 H   0  0  0  0  0  0
   27.7725  -31.9802   -3.2117 H   0  0  0  0  0  0
   12.1152  -31.3273   -0.9945 H   0  0  0  0  0  0
   16.4715  -31.4857   -0.7920 H   0  0  0  0  0  0
   29.3238  -27.8144   -0.8303 H   0  0  0  0  0  0
   26.2625  -30.0574   -2.9813 H   0  0  0  0  0  0
   12.0807  -29.3858    0.5108 H   0  0  0  0  0  0
   16.4339  -29.4495    0.7962 H   0  0  0  0  0  0
   22.0348  -24.9363    0.3585 H   0  0  0  0  0  0
   21.0410  -23.6377    1.1018 H   0  0  0  0  0  0
   19.0760  -22.3511   -2.1518 H   0  0  0  0  0  0
   20.5538  -21.6274   -1.4314 H   0  0  0  0  0  0
   22.3006  -22.2187   -0.8215 H   0  0  0  0  0  0
   22.9475  -22.4393    0.8397 H   0  0  0  0  0  0
   19.7331  -22.0679    0.8020 H   0  0  0  0  0  0
   18.4863  -21.1669   -0.1255 H   0  0  0  0  0  0
   27.0175  -27.0730   -0.7960 H   0  0  0  0  0  0
   25.7632  -27.9589   -1.7279 H   0  0  0  0  0  0
   14.9014  -28.3313    2.5717 H   0  0  0  0  0  0
   13.2727  -27.8713    1.9698 H   0  0  0  0  0  0
   26.6159  -24.7667   -3.8483 H   0  0  0  0  0  0
   16.4975  -26.6580    2.4325 H   0  0  0  0  0  0
  1 28  2  0  0  0
  2 29  2  0  0  0
  3  5  2  0  0  0
  3  6  1  0  0  0
  3 36  1  0  0  0
  4  7  2  0  0  0
  4  8  1  0  0  0
  4 37  1  0  0  0
  5  9  1  0  0  0
  5 38  1  0  0  0
  6 10  2  0  0  0
  6 39  1  0  0  0
  7 11  1  0  0  0
  7 40  1  0  0  0
  8 12  2  0  0  0
  8 41  1  0  0  0
  9 30  2  0  0  0
  9 42  1  0  0  0
 10 30  1  0  0  0
 10 43  1  0  0  0
 11 31  2  0  0  0
 11 44  1  0  0  0
 12 31  1  0  0  0
 12 45  1  0  0  0
 13 15  1  0  0  0
 13 25  1  0  0  0
 13 46  1  0  0  0
 13 47  1  0  0  0
 14 16  1  0  0  0
 14 25  1  0  0  0
 14 48  1  0  0  0
 14 49  1  0  0  0
 15 32  1  0  0  0
 15 50  1  0  0  0
 15 51  1  0  0  0
 16 33  1  0  0  0
 16 52  1  0  0  0
 16 53  1  0  0  0
 17 28  1  0  0  0
 17 30  1  0  0  0
 17 54  1  0  0  0
 17 55  1  0  0  0
 18 29  1  0  0  0
 18 31  1  0  0  0
 18 56  1  0  0  0
 18 57  1  0  0  0
 19 21  1  0  0  0
 19 32  2  0  0  0
 20 22  1  0  0  0
 20 33  2  0  0  0
 21 34  2  0  0  0
 22 35  2  0  0  0
 23 28  1  0  0  0
 23 34  1  0  0  0
 23 58  1  0  0  0
 24 29  1  0  0  0
 24 35  1  0  0  0
 24 59  1  0  0  0
 26 32  1  0  0  0
 26 34  1  0  0  0
 27 33  1  0  0  0
 27 35  1  0  0  0
M  END
> <s_m_source_file>
../4jkt_ligand.sdf

> <i_m_source_file_index>
1

> <s_epik_input>
W2NIXTFbY0hdW2NIXVtjSF1bY0hdYzFbQ0gyXUMoPU8pW05IXWMoczIpbm5jMltDSDJdW0NIMl1TW0NIMl1bQ0gyXWMzbm5jKHMzKVtOSF1DKD1PKVtDSDJdYzRbY0hdW2NIXVtjSF1bY0hdW2NIXTQ=

> <s_epik_cmdline>
J2VwaWtfYXBwJywgJy1pbWFlJywgJ2xpZ2FuZF9wcm8ubWFlJywgJy1vbWFlJywgJ2xpZ2FuZF9wcmVwLm1hZScsICctbXMnLCAnMScsICctcGgnLCAnNycsICctcGh0JywgJzAuNScsICctbnQn

> <r_lp_tautomer_probability>
1

> <r_epik_Ionization_Penalty>
  0.0799

> <r_epik_Ionization_Penalty_Charging>
  0.0000

> <r_epik_Ionization_Penalty_Neutral>
  0.0799

> <r_epik_State_Penalty>
 -0.0000

> <r_epik_Charging_Adjusted_Penalty>
0

> <i_epik_Tot_Q>
0

> <i_epik_Tot_abs_Q>
0

$$$$
