4jlg_ligand
                    3D
 Schrodinger Suite 2020-3.
 60 63  0  0  1  0            999 V2000
  -19.1350    0.5040   -8.7550 F   0  0  0  0  0  0
  -18.3150    0.9600   -9.7730 C   0  0  0  0  0  0
  -18.2630    2.2420   -9.7070 F   0  0  0  0  0  0
  -18.8660    0.6330  -10.8360 F   0  0  0  0  0  0
  -17.0030    0.3870   -9.7230 C   0  0  0  0  0  0
  -16.5220   -0.2050   -8.5520 C   0  0  0  0  0  0
  -16.1710    0.3900  -10.8500 C   0  0  0  0  0  0
  -14.8870   -0.1890  -10.8020 C   0  0  0  0  0  0
  -14.4250   -0.7730   -9.6250 C   0  0  0  0  0  0
  -15.2410   -0.7820   -8.4900 C   0  0  0  0  0  0
  -14.7910   -1.3760   -7.2960 C   0  0  0  0  0  0
  -14.0300   -0.4020   -6.3710 C   0  0  2  0  0  0
  -13.3710   -1.1680   -5.2130 C   0  0  0  0  0  0
  -13.8660   -1.1290   -4.0890 O   0  0  0  0  0  0
  -12.2420   -1.8480   -5.4920 N   0  0  0  0  0  0
  -11.5590   -1.9850   -6.8070 C   0  0  0  0  0  0
  -10.1950   -2.5540   -6.5060 C   0  0  0  0  0  0
  -10.3810   -3.3380   -5.2180 C   0  0  0  0  0  0
  -11.5030   -2.6230   -4.4710 C   0  0  0  0  0  0
  -14.9390    0.6090   -5.7820 N   0  0  3  0  0  0
  -14.3470    2.1290   -5.8790 S   0  0  0  0  0  0
  -12.8440    2.1680   -5.5540 O   0  0  0  0  0  0
  -15.0960    2.9750   -4.8490 O   0  0  0  0  0  0
  -14.5980    2.8460   -7.4810 C   0  0  0  0  0  0
  -15.6460    3.7460   -7.7210 C   0  0  0  0  0  0
  -15.8390    4.3000   -8.9920 C   0  0  0  0  0  0
  -16.9090    5.1940   -9.1770 C   0  0  0  0  0  0
  -17.3090    5.2470  -10.6510 C   0  0  0  0  0  0
  -16.1180    5.5350  -11.4760 N   0  3  0  0  0  0
  -15.1170    4.4530  -11.3490 C   0  0  0  0  0  0
  -14.9760    3.9400  -10.0440 C   0  0  0  0  0  0
  -13.9250    3.0450   -9.7870 C   0  0  0  0  0  0
  -13.1120    2.6960  -10.7210 F   0  0  0  0  0  0
  -13.7440    2.5030   -8.5220 C   0  0  0  0  0  0
  -17.1553   -0.2199   -7.6649 H   0  0  0  0  0  0
  -16.5212    0.8460  -11.7760 H   0  0  0  0  0  0
  -14.2534   -0.1797  -11.6889 H   0  0  0  0  0  0
  -13.4319   -1.2209   -9.5890 H   0  0  0  0  0  0
  -15.6525   -1.7610   -6.7307 H   0  0  0  0  0  0
  -14.1082   -2.2051   -7.5335 H   0  0  0  0  0  0
  -13.2852    0.1351   -6.9766 H   0  0  0  0  0  0
  -12.1390   -2.6607   -7.4528 H   0  0  0  0  0  0
  -11.4822   -0.9972   -7.2850 H   0  0  0  0  0  0
   -9.8764   -3.2014   -7.3363 H   0  0  0  0  0  0
   -9.4737   -1.7325   -6.3840 H   0  0  0  0  0  0
  -10.6530   -4.3767   -5.4570 H   0  0  0  0  0  0
   -9.4429   -3.3276   -4.6436 H   0  0  0  0  0  0
  -11.1008   -1.9375   -3.7105 H   0  0  0  0  0  0
  -12.1840   -3.3424   -3.9928 H   0  0  0  0  0  0
  -15.9619    0.3266   -5.4924 H   0  0  0  0  0  0
  -16.3189    4.0177   -6.9077 H   0  0  0  0  0  0
  -17.7725    4.8602   -8.5829 H   0  0  0  0  0  0
  -16.6067    6.2002   -8.8511 H   0  0  0  0  0  0
  -17.7360    4.2784  -10.9501 H   0  0  0  0  0  0
  -18.0575    6.0392  -10.7996 H   0  0  0  0  0  0
  -16.4152    5.6210  -12.5316 H   0  0  0  0  0  0
  -15.6626    6.4801  -11.1452 H   0  0  0  0  0  0
  -15.4038    3.6105  -11.9954 H   0  0  0  0  0  0
  -14.1294    4.8295  -11.6539 H   0  0  0  0  0  0
  -12.9268    1.8039   -8.3442 H   0  0  0  0  0  0
  1  2  1  0  0  0
  2  3  1  0  0  0
  2  4  1  0  0  0
  2  5  1  0  0  0
  5  6  2  0  0  0
  5  7  1  0  0  0
  6 10  1  0  0  0
  6 35  1  0  0  0
  7  8  2  0  0  0
  7 36  1  0  0  0
  8  9  1  0  0  0
  8 37  1  0  0  0
  9 10  2  0  0  0
  9 38  1  0  0  0
 10 11  1  0  0  0
 11 12  1  0  0  0
 11 39  1  0  0  0
 11 40  1  0  0  0
 12 13  1  0  0  0
 12 20  1  0  0  0
 12 41  1  0  0  0
 13 14  2  0  0  0
 13 15  1  0  0  0
 15 16  1  0  0  0
 15 19  1  0  0  0
 16 17  1  0  0  0
 16 42  1  0  0  0
 16 43  1  0  0  0
 17 18  1  0  0  0
 17 44  1  0  0  0
 17 45  1  0  0  0
 18 19  1  0  0  0
 18 46  1  0  0  0
 18 47  1  0  0  0
 19 48  1  0  0  0
 19 49  1  0  0  0
 20 21  1  0  0  0
 20 50  1  0  0  0
 21 22  2  0  0  0
 21 23  2  0  0  0
 21 24  1  0  0  0
 24 25  2  0  0  0
 24 34  1  0  0  0
 25 26  1  0  0  0
 25 51  1  0  0  0
 26 27  1  0  0  0
 26 31  2  0  0  0
 27 28  1  0  0  0
 27 52  1  0  0  0
 27 53  1  0  0  0
 28 29  1  0  0  0
 28 54  1  0  0  0
 28 55  1  0  0  0
 29 30  1  0  0  0
 29 56  1  0  0  0
 29 57  1  0  0  0
 30 31  1  0  0  0
 30 58  1  0  0  0
 30 59  1  0  0  0
 31 32  1  0  0  0
 32 33  1  0  0  0
 32 34  2  0  0  0
 34 60  1  0  0  0
M  CHG  1  29   1
M  END
> <s_m_source_file>
../4jlg_ligand.sdf

> <i_m_source_file_index>
1

> <s_epik_input>
RkMoRikoRiljMVtjSF1jKFtjSF1bY0hdW2NIXTEpW0NIMl1bQ0BIXShDKD1PKU4yW0NIMl1bQ0gyXVtDSDJdW0NIMl0yKVtOSF1TKD1PKSg9TyljKFtjSF0zKVtjSF1jKEYpYyhjMzQpW0NIMl1bTkgyK11bQ0gyXVtDSDJdNA==

> <s_epik_cmdline>
J2VwaWtfYXBwJywgJy1pbWFlJywgJ2xpZ2FuZF9wcm8ubWFlJywgJy1vbWFlJywgJ2xpZ2FuZF9wcmVwLm1hZScsICctbXMnLCAnMScsICctcGgnLCAnNycsICctcGh0JywgJzAuNScsICctbnQn

> <r_lp_tautomer_probability>
1

> <r_epik_Ionization_Penalty>
  0.0419

> <r_epik_Ionization_Penalty_Charging>
  0.0162

> <r_epik_Ionization_Penalty_Neutral>
  0.0257

> <r_epik_State_Penalty>
 -0.0000

> <r_epik_Charging_Adjusted_Penalty>
0.0162394014040076

> <i_epik_Tot_Q>
1

> <i_epik_Tot_abs_Q>
1

$$$$
