4jlh_ligand
                    3D
 Schrodinger Suite 2020-3.
 39 41  0  0  1  0            999 V2000
  -32.2180   14.7870  -18.5140 Cl  0  0  0  0  0  0
  -30.5310   14.8500  -18.0540 C   0  0  0  0  0  0
  -29.5640   14.6030  -19.0320 C   0  0  0  0  0  0
  -28.2340   14.6940  -18.6320 C   0  0  0  0  0  0
  -30.2580   15.1240  -16.7320 C   0  0  0  0  0  0
  -28.9280   15.2020  -16.3520 C   0  0  0  0  0  0
  -27.9230   14.9840  -17.3120 C   0  0  0  0  0  0
  -26.4990   15.0230  -16.8690 C   0  0  0  0  0  0
  -25.7740   13.8300  -16.7240 C   0  0  0  0  0  0
  -26.4010   12.5300  -17.0910 C   0  0  2  0  0  0
  -26.2490   11.5800  -16.0260 O   0  0  0  0  0  0
  -27.3330   11.7290  -15.0730 C   0  0  0  0  0  0
  -25.8110   12.0410  -18.4120 C   0  0  0  0  0  0
  -25.5970   10.8160  -18.5660 O   0  0  0  0  0  0
  -25.5740   12.8720  -19.3450 O   0  5  0  0  0  0
  -25.8860   16.2280  -16.5190 C   0  0  0  0  0  0
  -26.5570   17.4570  -16.6180 C   0  0  0  0  0  0
  -25.8410   18.6080  -16.2640 C   0  0  0  0  0  0
  -26.7060   20.2660  -16.3770 Br  0  0  0  0  0  0
  -24.5290   18.6030  -15.8360 C   0  0  0  0  0  0
  -23.8610   17.3970  -15.7610 C   0  0  0  0  0  0
  -24.5630   16.2280  -16.1030 C   0  0  0  0  0  0
  -23.8800   15.0820  -15.9940 N   0  0  0  0  0  0
  -24.4290   13.8950  -16.2910 C   0  0  0  0  0  0
  -23.4760   12.7480  -16.1220 C   0  0  0  0  0  0
  -29.8376   14.3517  -20.0567 H   0  0  0  0  0  0
  -27.4356   14.5371  -19.3573 H   0  0  0  0  0  0
  -31.0605   15.2742  -16.0099 H   0  0  0  0  0  0
  -28.6629   15.4300  -15.3196 H   0  0  0  0  0  0
  -27.4918   12.6408  -17.1794 H   0  0  0  0  0  0
  -27.2097   10.9981  -14.2603 H   0  0  0  0  0  0
  -28.2935   11.5550  -15.5801 H   0  0  0  0  0  0
  -27.3175   12.7469  -14.6562 H   0  0  0  0  0  0
  -27.5917   17.5134  -16.9561 H   0  0  0  0  0  0
  -24.0300   19.5327  -15.5626 H   0  0  0  0  0  0
  -22.8186   17.3525  -15.4455 H   0  0  0  0  0  0
  -23.9848   11.8075  -16.3800 H   0  0  0  0  0  0
  -23.1349   12.7057  -15.0771 H   0  0  0  0  0  0
  -22.6099   12.8902  -16.7850 H   0  0  0  0  0  0
  1  2  1  0  0  0
  2  3  2  0  0  0
  2  5  1  0  0  0
  3  4  1  0  0  0
  3 26  1  0  0  0
  4  7  2  0  0  0
  4 27  1  0  0  0
  5  6  2  0  0  0
  5 28  1  0  0  0
  6  7  1  0  0  0
  6 29  1  0  0  0
  7  8  1  0  0  0
  8  9  2  0  0  0
  8 16  1  0  0  0
  9 10  1  0  0  0
  9 24  1  0  0  0
 10 11  1  0  0  0
 10 13  1  0  0  0
 10 30  1  0  0  0
 11 12  1  0  0  0
 12 31  1  0  0  0
 12 32  1  0  0  0
 12 33  1  0  0  0
 13 14  2  0  0  0
 13 15  1  0  0  0
 16 17  2  0  0  0
 16 22  1  0  0  0
 17 18  1  0  0  0
 17 34  1  0  0  0
 18 19  1  0  0  0
 18 20  2  0  0  0
 20 21  1  0  0  0
 20 35  1  0  0  0
 21 22  2  0  0  0
 21 36  1  0  0  0
 22 23  1  0  0  0
 23 24  2  0  0  0
 24 25  1  0  0  0
 25 37  1  0  0  0
 25 38  1  0  0  0
 25 39  1  0  0  0
M  CHG  1  15  -1
M  END
> <s_m_source_file>
../4jlh_ligand.sdf

> <i_m_source_file_index>
1

> <s_epik_input>
Q2xjMVtjSF1bY0hdYyhbY0hdW2NIXTEpLWMyYyhbQ0BIXShPW0NIM10pQyg9TylbT0hdKWMoW0NIM10pbmMoYzIzKVtjSF1bY0hdYyhCcilbY0hdMw==

> <s_epik_cmdline>
J2VwaWtfYXBwJywgJy1pbWFlJywgJ2xpZ2FuZF9wcm8ubWFlJywgJy1vbWFlJywgJ2xpZ2FuZF9wcmVwLm1hZScsICctbXMnLCAnMScsICctcGgnLCAnNycsICctcGh0JywgJzAuNScsICctbnQn

> <r_lp_tautomer_probability>
1

> <r_epik_Ionization_Penalty>
  0.0025

> <r_epik_Ionization_Penalty_Charging>
  0.0001

> <r_epik_Ionization_Penalty_Neutral>
  0.0025

> <r_epik_State_Penalty>
 -0.0000

> <r_epik_Charging_Adjusted_Penalty>
5.14316122647753e-05

> <i_epik_Tot_Q>
-1

> <i_epik_Tot_abs_Q>
1

$$$$
