4jlj_ligand
                    3D
 Schrodinger Suite 2020-3.
 45 47  0  0  1  0            999 V2000
  -35.9100    8.4440    2.0140 F   0  0  0  0  0  0
  -36.4120    8.0900    0.5490 C   0  0  0  0  0  0
  -35.8030    9.0180   -0.5170 C   0  0  0  0  0  0
  -36.7030    9.0820   -1.6540 O   0  0  0  0  0  0
  -36.4710   10.0710   -2.5640 C   0  0  0  0  0  0
  -35.1850   10.4850   -2.9530 C   0  0  0  0  0  0
  -37.6160   10.6490   -3.1250 C   0  0  0  0  0  0
  -38.8160   10.1820   -2.7070 O   0  0  0  0  0  0
  -39.8940   10.8620   -3.3820 C   0  0  0  0  0  0
  -37.5220   11.6630   -4.0700 C   0  0  0  0  0  0
  -36.2490   12.0870   -4.4420 C   0  0  0  0  0  0
  -35.0940   11.5060   -3.9010 C   0  0  0  0  0  0
  -33.9400   12.0090   -4.3180 C   0  0  0  0  0  0
  -32.7530   11.8760   -3.7250 N   0  0  0  0  0  0
  -33.7910   12.9730   -5.6440 S   0  0  0  0  0  0
  -32.1390   13.2200   -5.4650 C   0  0  0  0  0  0
  -31.7700   12.5410   -4.3680 C   0  0  0  0  0  0
  -30.3100   12.5150   -3.8740 C   0  0  0  0  0  0
  -29.4760   10.9250   -4.2650 S   0  0  0  0  0  0
  -27.7830   11.2900   -4.1340 C   0  0  0  0  0  0
  -26.9000   10.2650   -4.2370 N   0  0  0  0  0  0
  -27.3620   12.5660   -3.9650 N   0  0  0  0  0  0
  -26.0600   12.8160   -3.8850 C   0  0  0  0  0  0
  -25.6720   14.0660   -3.7360 N   0  0  0  0  0  0
  -25.1240   11.7680   -3.9700 C   0  0  0  0  0  0
  -25.5900   10.4680   -4.1490 C   0  0  0  0  0  0
  -24.7310    9.4440   -4.2640 N   0  0  0  0  0  0
  -36.1272    7.0562    0.3036 H   0  0  0  0  0  0
  -37.5065    8.1897    0.5023 H   0  0  0  0  0  0
  -35.6673   10.0239   -0.0931 H   0  0  0  0  0  0
  -34.8284    8.6200   -0.8361 H   0  0  0  0  0  0
  -34.2916   10.0257   -2.5300 H   0  0  0  0  0  0
  -40.8568   10.4662   -3.0265 H   0  0  0  0  0  0
  -39.8084   10.6988   -4.4665 H   0  0  0  0  0  0
  -39.8389   11.9395   -3.1678 H   0  0  0  0  0  0
  -38.4148   12.1116   -4.5056 H   0  0  0  0  0  0
  -36.1483   12.8904   -5.1718 H   0  0  0  0  0  0
  -31.4941   13.8145   -6.1122 H   0  0  0  0  0  0
  -29.7450   13.3259   -4.3569 H   0  0  0  0  0  0
  -30.2896   12.6532   -2.7829 H   0  0  0  0  0  0
  -26.4199   14.8701   -3.6717 H   0  0  0  0  0  0
  -24.6001   14.3057   -3.6759 H   0  0  0  0  0  0
  -24.0554   11.9701   -3.8971 H   0  0  0  0  0  0
  -25.1103    8.4211   -4.4051 H   0  0  0  0  0  0
  -23.6474    9.6272   -4.2172 H   0  0  0  0  0  0
  1  2  1  0  0  0
  2  3  1  0  0  0
  2 28  1  0  0  0
  2 29  1  0  0  0
  3  4  1  0  0  0
  3 30  1  0  0  0
  3 31  1  0  0  0
  4  5  1  0  0  0
  5  6  2  0  0  0
  5  7  1  0  0  0
  6 12  1  0  0  0
  6 32  1  0  0  0
  7  8  1  0  0  0
  7 10  2  0  0  0
  8  9  1  0  0  0
  9 33  1  0  0  0
  9 34  1  0  0  0
  9 35  1  0  0  0
 10 11  1  0  0  0
 10 36  1  0  0  0
 11 12  2  0  0  0
 11 37  1  0  0  0
 12 13  1  0  0  0
 13 14  2  0  0  0
 13 15  1  0  0  0
 14 17  1  0  0  0
 15 16  1  0  0  0
 16 17  2  0  0  0
 16 38  1  0  0  0
 17 18  1  0  0  0
 18 19  1  0  0  0
 18 39  1  0  0  0
 18 40  1  0  0  0
 19 20  1  0  0  0
 20 21  2  0  0  0
 20 22  1  0  0  0
 21 26  1  0  0  0
 22 23  2  0  0  0
 23 24  1  0  0  0
 23 25  1  0  0  0
 24 41  1  0  0  0
 24 42  1  0  0  0
 25 26  2  0  0  0
 25 43  1  0  0  0
 26 27  1  0  0  0
 27 44  1  0  0  0
 27 45  1  0  0  0
M  END
> <s_m_source_file>
../4jlj_ligand.sdf

> <i_m_source_file_index>
1

> <s_epik_input>
RltDSDJdW0NIMl1PYzFbY0hdYyhbY0hdW2NIXWMxT1tDSDNdKS1jMm5jKFtjSF1zMilbQ0gyXVNjM25jKFtOSDJdKVtjSF1jKG4zKVtOSDJd

> <s_epik_cmdline>
J2VwaWtfYXBwJywgJy1pbWFlJywgJ2xpZ2FuZF9wcm8ubWFlJywgJy1vbWFlJywgJ2xpZ2FuZF9wcmVwLm1hZScsICctbXMnLCAnMScsICctcGgnLCAnNycsICctcGh0JywgJzAuNScsICctbnQn

> <r_lp_tautomer_probability>
1

> <r_epik_Ionization_Penalty>
  0.0026

> <r_epik_Ionization_Penalty_Charging>
  0.0000

> <r_epik_Ionization_Penalty_Neutral>
  0.0026

> <r_epik_State_Penalty>
 -0.0000

> <r_epik_Charging_Adjusted_Penalty>
0

> <i_epik_Tot_Q>
0

> <i_epik_Tot_abs_Q>
0

$$$$
