4jlm_ligand
                    3D
 Schrodinger Suite 2020-3.
 51 53  0  0  1  0            999 V2000
  -34.9970    7.1020    0.9140 F   0  0  0  0  0  0
  -35.9710    7.9880    0.5270 C   0  0  0  0  0  0
  -35.4420    8.7270   -0.6870 C   0  0  0  0  0  0
  -36.5600    8.9910   -1.5340 O   0  0  0  0  0  0
  -36.2370    9.9820   -2.3930 C   0  0  0  0  0  0
  -34.9010   10.3480   -2.6350 C   0  0  0  0  0  0
  -37.3180   10.6020   -3.0410 C   0  0  0  0  0  0
  -38.5840   10.1760   -2.7420 O   0  0  0  0  0  0
  -39.6130   10.9690   -3.4030 C   0  0  0  0  0  0
  -37.0870   11.6270   -3.9540 C   0  0  0  0  0  0
  -35.7730   12.0120   -4.1900 C   0  0  0  0  0  0
  -34.7000   11.3780   -3.5640 C   0  0  0  0  0  0
  -33.4890   11.8460   -3.8510 C   0  0  0  0  0  0
  -32.3600   11.6260   -3.1480 N   0  0  0  0  0  0
  -33.2070   12.8700   -5.0860 S   0  0  0  0  0  0
  -31.6060   13.0360   -4.7610 C   0  0  0  0  0  0
  -30.7030   13.9030   -5.6630 C   0  0  0  0  0  0
  -29.8090   14.8540   -4.8520 C   0  0  0  0  0  0
  -31.2980   12.2690   -3.6750 C   0  0  0  0  0  0
  -29.9030   12.1100   -3.0280 C   0  0  0  0  0  0
  -29.0630   10.4600   -3.2470 S   0  0  0  0  0  0
  -27.3900   10.9170   -3.5990 C   0  0  0  0  0  0
  -26.9740   12.1760   -3.5390 N   0  0  0  0  0  0
  -26.5040    9.9530   -3.9200 N   0  0  0  0  0  0
  -25.2210   10.2130   -4.1760 C   0  0  0  0  0  0
  -24.4170    9.2020   -4.4760 N   0  0  0  0  0  0
  -24.7560   11.5150   -4.1300 C   0  0  0  0  0  0
  -25.6940   12.4960   -3.8220 C   0  0  0  0  0  0
  -25.3000   13.7520   -3.7530 N   0  0  0  0  0  0
  -36.8894    7.4369    0.2766 H   0  0  0  0  0  0
  -36.1767    8.6890    1.3494 H   0  0  0  0  0  0
  -34.9667    9.6658   -0.3664 H   0  0  0  0  0  0
  -34.7016    8.0993   -1.2046 H   0  0  0  0  0  0
  -34.0690    9.8585   -2.1288 H   0  0  0  0  0  0
  -40.6059   10.5838   -3.1279 H   0  0  0  0  0  0
  -39.4831   10.9027   -4.4933 H   0  0  0  0  0  0
  -39.5265   12.0190   -3.0866 H   0  0  0  0  0  0
  -37.9144   12.1143   -4.4698 H   0  0  0  0  0  0
  -35.5757   12.8306   -4.8822 H   0  0  0  0  0  0
  -30.0508   13.2517   -6.2633 H   0  0  0  0  0  0
  -31.3291   14.5118   -6.3319 H   0  0  0  0  0  0
  -29.1872   15.4474   -5.5385 H   0  0  0  0  0  0
  -29.1608   14.2676   -4.1842 H   0  0  0  0  0  0
  -30.4391   15.5277   -4.2527 H   0  0  0  0  0  0
  -29.2145   12.8549   -3.4534 H   0  0  0  0  0  0
  -29.9831   12.2630   -1.9416 H   0  0  0  0  0  0
  -24.8116    8.1756   -4.5059 H   0  0  0  0  0  0
  -23.3555    9.3897   -4.6950 H   0  0  0  0  0  0
  -23.7117   11.7594   -4.3244 H   0  0  0  0  0  0
  -26.0248   14.5433   -3.5111 H   0  0  0  0  0  0
  -24.2464   14.0088   -3.9374 H   0  0  0  0  0  0
  1  2  1  0  0  0
  2  3  1  0  0  0
  2 30  1  0  0  0
  2 31  1  0  0  0
  3  4  1  0  0  0
  3 32  1  0  0  0
  3 33  1  0  0  0
  4  5  1  0  0  0
  5  6  2  0  0  0
  5  7  1  0  0  0
  6 12  1  0  0  0
  6 34  1  0  0  0
  7  8  1  0  0  0
  7 10  2  0  0  0
  8  9  1  0  0  0
  9 35  1  0  0  0
  9 36  1  0  0  0
  9 37  1  0  0  0
 10 11  1  0  0  0
 10 38  1  0  0  0
 11 12  2  0  0  0
 11 39  1  0  0  0
 12 13  1  0  0  0
 13 14  2  0  0  0
 13 15  1  0  0  0
 14 19  1  0  0  0
 15 16  1  0  0  0
 16 17  1  0  0  0
 16 19  2  0  0  0
 17 18  1  0  0  0
 17 40  1  0  0  0
 17 41  1  0  0  0
 18 42  1  0  0  0
 18 43  1  0  0  0
 18 44  1  0  0  0
 19 20  1  0  0  0
 20 21  1  0  0  0
 20 45  1  0  0  0
 20 46  1  0  0  0
 21 22  1  0  0  0
 22 23  2  0  0  0
 22 24  1  0  0  0
 23 28  1  0  0  0
 24 25  2  0  0  0
 25 26  1  0  0  0
 25 27  1  0  0  0
 26 47  1  0  0  0
 26 48  1  0  0  0
 27 28  2  0  0  0
 27 49  1  0  0  0
 28 29  1  0  0  0
 29 50  1  0  0  0
 29 51  1  0  0  0
M  END
> <s_m_source_file>
../4jlm_ligand.sdf

> <i_m_source_file_index>
1

> <s_epik_input>
RltDSDJdW0NIMl1PYzFbY0hdYyhbY0hdW2NIXWMxT1tDSDNdKS1jMm5jKGMoczIpW0NIMl1bQ0gzXSlbQ0gyXVNjM25jKFtOSDJdKVtjSF1jKG4zKVtOSDJd

> <s_epik_cmdline>
J2VwaWtfYXBwJywgJy1pbWFlJywgJ2xpZ2FuZF9wcm8ubWFlJywgJy1vbWFlJywgJ2xpZ2FuZF9wcmVwLm1hZScsICctbXMnLCAnMScsICctcGgnLCAnNycsICctcGh0JywgJzAuNScsICctbnQn

> <r_lp_tautomer_probability>
1

> <r_epik_Ionization_Penalty>
  0.0026

> <r_epik_Ionization_Penalty_Charging>
  0.0000

> <r_epik_Ionization_Penalty_Neutral>
  0.0026

> <r_epik_State_Penalty>
 -0.0000

> <r_epik_Charging_Adjusted_Penalty>
0

> <i_epik_Tot_Q>
0

> <i_epik_Tot_abs_Q>
0

$$$$
