4jln_ligand
                    3D
 Schrodinger Suite 2020-3.
 54 56  0  0  1  0            999 V2000
  -36.8990    8.1830    0.2640 F   0  0  0  0  0  0
  -36.3200    7.5720   -0.9430 C   0  0  0  0  0  0
  -35.4290    8.5850   -1.6630 C   0  0  0  0  0  0
  -36.3010    9.6010   -2.1510 O   0  0  0  0  0  0
  -35.8010   10.6330   -2.8840 C   0  0  0  0  0  0
  -34.4360   10.9360   -3.0490 C   0  0  0  0  0  0
  -36.7860   11.4090   -3.4790 C   0  0  0  0  0  0
  -38.0750   11.0070   -3.2350 O   0  0  0  0  0  0
  -39.0660   11.2220   -4.2630 C   0  0  0  0  0  0
  -36.4370   12.5190   -4.2460 C   0  0  0  0  0  0
  -35.0830   12.8180   -4.4150 C   0  0  0  0  0  0
  -34.0740   12.0340   -3.8350 C   0  0  0  0  0  0
  -32.7890   12.3860   -4.0070 C   0  0  0  0  0  0
  -31.7940   12.0650   -3.1870 N   0  0  0  0  0  0
  -32.1670   13.3220   -5.2090 S   0  0  0  0  0  0
  -30.6660   13.3100   -4.6920 C   0  0  0  0  0  0
  -29.4860   14.0130   -5.3720 C   0  0  0  0  0  0
  -29.7520   15.5220   -5.4510 C   0  0  0  0  0  0
  -28.9060   16.2520   -4.4020 C   0  0  0  0  0  0
  -30.6200   12.5880   -3.5710 C   0  0  0  0  0  0
  -29.3470   12.3250   -2.7830 C   0  0  0  0  0  0
  -28.6010   10.7820   -3.3820 S   0  0  0  0  0  0
  -26.9200   11.1960   -3.6660 C   0  0  0  0  0  0
  -26.5340   12.4780   -3.7210 N   0  0  0  0  0  0
  -26.0240   10.2070   -3.8390 N   0  0  0  0  0  0
  -24.7120   10.4580   -4.0590 C   0  0  0  0  0  0
  -23.8390    9.4470   -4.2120 N   0  0  0  0  0  0
  -24.2790   11.7850   -4.1070 C   0  0  0  0  0  0
  -25.2360   12.7880   -3.9270 C   0  0  0  0  0  0
  -24.8800   14.0650   -3.9780 N   0  0  0  0  0  0
  -35.7175    6.6970   -0.6580 H   0  0  0  0  0  0
  -37.1289    7.2560   -1.6181 H   0  0  0  0  0  0
  -34.6963    8.9979   -0.9540 H   0  0  0  0  0  0
  -34.8997    8.0864   -2.4884 H   0  0  0  0  0  0
  -33.6721   10.3230   -2.5706 H   0  0  0  0  0  0
  -40.0408   10.8482   -3.9165 H   0  0  0  0  0  0
  -38.7702   10.6839   -5.1757 H   0  0  0  0  0  0
  -39.1419   12.2977   -4.4799 H   0  0  0  0  0  0
  -37.2052   13.1414   -4.7049 H   0  0  0  0  0  0
  -34.8024   13.6843   -5.0140 H   0  0  0  0  0  0
  -28.5693   13.8362   -4.7903 H   0  0  0  0  0  0
  -29.3577   13.6136   -6.3889 H   0  0  0  0  0  0
  -29.4862   15.8892   -6.4533 H   0  0  0  0  0  0
  -30.8175   15.7170   -5.2597 H   0  0  0  0  0  0
  -29.0999   17.3331   -4.4623 H   0  0  0  0  0  0
  -27.8398   16.0595   -4.5922 H   0  0  0  0  0  0
  -29.1712   15.8873   -3.3987 H   0  0  0  0  0  0
  -28.6463   13.1603   -2.9289 H   0  0  0  0  0  0
  -29.5899   12.2326   -1.7141 H   0  0  0  0  0  0
  -24.1910    8.4056   -4.1724 H   0  0  0  0  0  0
  -22.7727    9.6612   -4.3768 H   0  0  0  0  0  0
  -23.2309   12.0301   -4.2789 H   0  0  0  0  0  0
  -25.6348   14.8525   -3.8361 H   0  0  0  0  0  0
  -23.8300   14.3363   -4.1622 H   0  0  0  0  0  0
  1  2  1  0  0  0
  2  3  1  0  0  0
  2 31  1  0  0  0
  2 32  1  0  0  0
  3  4  1  0  0  0
  3 33  1  0  0  0
  3 34  1  0  0  0
  4  5  1  0  0  0
  5  6  2  0  0  0
  5  7  1  0  0  0
  6 12  1  0  0  0
  6 35  1  0  0  0
  7  8  1  0  0  0
  7 10  2  0  0  0
  8  9  1  0  0  0
  9 36  1  0  0  0
  9 37  1  0  0  0
  9 38  1  0  0  0
 10 11  1  0  0  0
 10 39  1  0  0  0
 11 12  2  0  0  0
 11 40  1  0  0  0
 12 13  1  0  0  0
 13 14  2  0  0  0
 13 15  1  0  0  0
 14 20  1  0  0  0
 15 16  1  0  0  0
 16 17  1  0  0  0
 16 20  2  0  0  0
 17 18  1  0  0  0
 17 41  1  0  0  0
 17 42  1  0  0  0
 18 19  1  0  0  0
 18 43  1  0  0  0
 18 44  1  0  0  0
 19 45  1  0  0  0
 19 46  1  0  0  0
 19 47  1  0  0  0
 20 21  1  0  0  0
 21 22  1  0  0  0
 21 48  1  0  0  0
 21 49  1  0  0  0
 22 23  1  0  0  0
 23 24  2  0  0  0
 23 25  1  0  0  0
 24 29  1  0  0  0
 25 26  2  0  0  0
 26 27  1  0  0  0
 26 28  1  0  0  0
 27 50  1  0  0  0
 27 51  1  0  0  0
 28 29  2  0  0  0
 28 52  1  0  0  0
 29 30  1  0  0  0
 30 53  1  0  0  0
 30 54  1  0  0  0
M  END
> <s_m_source_file>
../4jln_ligand.sdf

> <i_m_source_file_index>
1

> <s_epik_input>
RltDSDJdW0NIMl1PYzFbY0hdYyhbY0hdW2NIXWMxT1tDSDNdKS1jMm5jKGMoczIpW0NIMl1bQ0gyXVtDSDNdKVtDSDJdU2MzbmMoW05IMl0pW2NIXWMobjMpW05IMl0=

> <s_epik_cmdline>
J2VwaWtfYXBwJywgJy1pbWFlJywgJ2xpZ2FuZF9wcm8ubWFlJywgJy1vbWFlJywgJ2xpZ2FuZF9wcmVwLm1hZScsICctbXMnLCAnMScsICctcGgnLCAnNycsICctcGh0JywgJzAuNScsICctbnQn

> <r_lp_tautomer_probability>
1

> <r_epik_Ionization_Penalty>
  0.0026

> <r_epik_Ionization_Penalty_Charging>
  0.0000

> <r_epik_Ionization_Penalty_Neutral>
  0.0026

> <r_epik_State_Penalty>
 -0.0000

> <r_epik_Charging_Adjusted_Penalty>
0

> <i_epik_Tot_Q>
0

> <i_epik_Tot_abs_Q>
0

$$$$
