4jls_ligand
                    3D
 Schrodinger Suite 2020-3.
 38 40  0  0  1  0            999 V2000
    2.4600  -20.1480  -59.8550 C   0  0  0  0  0  0
    1.8100  -21.3110  -59.4300 C   0  0  0  0  0  0
    1.6670  -21.5400  -58.0250 C   0  0  0  0  0  0
    1.8490  -21.3120  -61.6520 C   0  0  0  0  0  0
    2.1600  -20.6130  -57.1670 N   0  0  0  0  0  0
    3.3030  -18.5220  -56.6380 N   0  0  0  0  0  0
    2.9370  -19.2530  -58.9060 N   0  0  0  0  0  0
    6.3010  -22.0210  -66.6650 O   0  5  0  0  0  0
    5.4530  -20.7070  -66.6530 P   0  0  0  0  0  0
    3.9550  -21.0990  -66.4860 O   0  0  0  0  0  0
    5.6800  -19.9310  -67.9120 O   0  0  0  0  0  0
    5.9690  -19.6010  -65.2710 C   0  0  0  0  0  0
    5.0690  -18.3950  -65.1080 C   0  0  0  0  0  0
    5.2530  -17.3890  -65.7810 O   0  0  0  0  0  0
    3.9720  -18.5020  -64.1460 N   0  0  0  0  0  0
    3.7270  -19.6920  -63.3300 C   0  0  0  0  0  0
    2.9740  -17.5140  -63.8120 C   0  0  0  0  0  0
    2.3190  -17.9550  -62.5620 C   0  0  1  0  0  0
    1.0580  -18.3770  -62.8250 O   0  0  0  0  0  0
    3.1030  -19.1200  -62.0880 C   0  0  1  0  0  0
    2.4580  -20.1710  -61.2490 N   0  0  0  0  0  0
    2.7890  -19.4800  -57.5930 C   0  0  0  0  0  0
    1.0260  -22.6740  -57.5390 O   0  0  0  0  0  0
    1.4380  -22.0240  -60.5610 N   0  0  0  0  0  0
    1.7083  -21.6158  -62.6893 H   0  0  0  0  0  0
    2.0599  -20.7600  -56.0815 H   0  0  0  0  0  0
    3.1845  -18.7028  -55.5595 H   0  0  0  0  0  0
    3.8122  -17.6129  -56.9906 H   0  0  0  0  0  0
    3.4736  -21.7584  -67.2232 H   0  0  0  0  0  0
    5.9486  -20.1622  -64.3251 H   0  0  0  0  0  0
    6.9888  -19.2330  -65.4571 H   0  0  0  0  0  0
    3.0526  -20.3737  -63.8690 H   0  0  0  0  0  0
    4.6808  -20.2022  -63.1299 H   0  0  0  0  0  0
    3.4587  -16.5368  -63.6697 H   0  0  0  0  0  0
    2.2400  -17.4438  -64.6283 H   0  0  0  0  0  0
    2.1933  -17.1454  -61.8280 H   0  0  0  0  0  0
    0.3048  -17.6642  -63.1920 H   0  0  0  0  0  0
    3.7972  -18.7250  -61.3317 H   0  0  0  0  0  0
  1  2  2  0  0  0
  1  7  1  0  0  0
  1 21  1  0  0  0
  2  3  1  0  0  0
  2 24  1  0  0  0
  3  5  1  0  0  0
  3 23  2  0  0  0
  4 21  1  0  0  0
  4 24  2  0  0  0
  4 25  1  0  0  0
  5 22  1  0  0  0
  5 26  1  0  0  0
  6 22  1  0  0  0
  6 27  1  0  0  0
  6 28  1  0  0  0
  7 22  2  0  0  0
  8  9  1  0  0  0
  9 10  1  0  0  0
  9 11  2  0  0  0
  9 12  1  0  0  0
 10 29  1  0  0  0
 12 13  1  0  0  0
 12 30  1  0  0  0
 12 31  1  0  0  0
 13 14  2  0  0  0
 13 15  1  0  0  0
 15 16  1  0  0  0
 15 17  1  0  0  0
 16 20  1  0  0  0
 16 32  1  0  0  0
 16 33  1  0  0  0
 17 18  1  0  0  0
 17 34  1  0  0  0
 17 35  1  0  0  0
 18 19  1  0  0  0
 18 20  1  0  0  0
 18 36  1  0  0  0
 19 37  1  0  0  0
 20 21  1  0  0  0
 20 38  1  0  0  0
M  CHG  1   8  -1
M  END
> <s_m_source_file>
../4jls_ligand.sdf

> <i_m_source_file_index>
1

> <s_epik_input>
W05IMl1jKG4xKVtuSF1jKD1PKWMoYzEyKW5bY0hdbjJbQ0BIXShbQ0BASF0oW0NIMl0zKVtPSF0pW0NIMl1OM0MoPU8pW0NIMl1QKD1PKShbT0hdKVtPSF0=

> <s_epik_cmdline>
J2VwaWtfYXBwJywgJy1pbWFlJywgJ2xpZ2FuZF9wcm8ubWFlJywgJy1vbWFlJywgJ2xpZ2FuZF9wcmVwLm1hZScsICctbXMnLCAnMScsICctcGgnLCAnNycsICctcGh0JywgJzAuNScsICctbnQn

> <r_lp_tautomer_probability>
0.999940409345307

> <r_epik_Ionization_Penalty>
  0.2097

> <r_epik_Ionization_Penalty_Charging>
  0.0013

> <r_epik_Ionization_Penalty_Neutral>
  0.2084

> <r_epik_State_Penalty>
  0.1984

> <r_epik_Charging_Adjusted_Penalty>
0.199669801836516

> <i_epik_Tot_Q>
-1

> <i_epik_Tot_abs_Q>
1

$$$$
