4jmg_ligand
                    3D
 Schrodinger Suite 2020-3.
131131  0  0  1  0            999 V2000
   35.6100  -10.6600   13.0170 N   0  3  0  0  0  0
   34.6940  -10.3420   14.1050 C   0  0  2  0  0  0
   33.9680   -9.0260   13.8150 C   0  0  0  0  0  0
   32.7460   -8.9490   13.9140 O   0  0  0  0  0  0
   35.4240  -10.2750   15.4610 C   0  0  0  0  0  0
   34.4350  -10.0440   16.5690 C   0  0  0  0  0  0
   36.1970  -11.5620   15.7130 C   0  0  0  0  0  0
   34.7290   -8.0050   13.4350 N   0  0  0  0  0  0
   34.1900   -6.7160   13.0180 C   0  0  2  0  0  0
   34.7850   -6.3370   11.6680 C   0  0  0  0  0  0
   35.9160   -6.7210   11.3570 O   0  0  0  0  0  0
   34.4990   -5.5920   14.0130 C   0  0  0  0  0  0
   33.9520   -5.8020   15.4170 C   0  0  0  0  0  0
   34.7580   -6.2920   16.4320 C   0  0  0  0  0  0
   32.6270   -5.5100   15.7240 C   0  0  0  0  0  0
   34.2600   -6.4900   17.7130 C   0  0  0  0  0  0
   32.1190   -5.6980   17.0010 C   0  0  0  0  0  0
   32.9380   -6.2030   17.9990 C   0  0  0  0  0  0
   32.5390   -6.3890   19.2490 O   0  0  0  0  0  0
   31.1740   -7.0760   19.7750 P   0  0  0  0  0  0
   31.5450   -8.0920   20.7940 O   0  0  0  0  0  0
   30.4400   -7.6890   18.5860 O   0  5  0  0  0  0
   30.3270   -6.0010   20.4460 O   0  5  0  0  0  0
   34.0560   -5.5610   10.8770 N   0  0  0  0  0  0
   34.5250   -5.1930    9.5460 C   0  0  2  0  0  0
   35.6340   -4.1330    9.5330 C   0  0  0  0  0  0
   36.4890   -4.1390    8.6400 O   0  0  0  0  0  0
   33.3530   -4.7150    8.6850 C   0  0  0  0  0  0
   32.2090   -5.7150    8.5780 C   0  0  0  0  0  0
   32.6580   -7.0300    7.9760 C   0  0  0  0  0  0
   33.2350   -7.0110    6.8650 O   0  5  0  0  0  0
   32.4520   -8.0810    8.6220 O   0  0  0  0  0  0
   35.6210   -3.2370   10.5210 N   0  0  0  0  0  0
   36.4600   -2.0360   10.4930 C   0  0  2  0  0  0
   37.7320   -2.1120   11.3260 C   0  0  0  0  0  0
   38.5830   -1.2190   11.2400 O   0  0  0  0  0  0
   35.6470   -0.7920   10.8750 C   0  0  0  0  0  0
   35.0110   -0.8950   12.2610 C   0  0  0  0  0  0
   34.5890   -1.9760   12.7050 O   0  0  0  0  0  0
   34.9540    0.2350   12.9550 N   0  0  0  0  0  0
   37.8710   -3.1980   12.0820 N   0  0  0  0  0  0
   39.0730   -3.4400   12.8890 C   0  0  2  0  0  0
   39.4860   -4.8980   12.7500 C   0  0  0  0  0  0
   38.6670   -5.7420   12.3840 O   0  0  0  0  0  0
   38.8610   -3.0840   14.3900 C   0  0  0  0  0  0
   38.7430   -1.5790   14.5640 C   0  0  0  0  0  0
   37.6260   -3.7900   14.9520 C   0  0  0  0  0  0
   40.7650   -5.1880   12.9760 N   0  0  0  0  0  0
   41.2400   -6.5650   12.9830 C   0  0  0  0  0  0
   41.8010   -6.9440   14.3450 C   0  0  0  0  0  0
   42.0920   -6.0760   15.1590 O   0  0  0  0  0  0
   41.9270   -8.2410   14.6030 N   0  0  0  0  0  0
   42.4570   -8.7330   15.8720 C   0  0  2  0  0  0
   43.9720   -8.7310   15.8530 C   0  0  0  0  0  0
   44.5750   -9.3840   15.0050 O   0  0  0  0  0  0
   41.9730  -10.1580   16.1290 C   0  0  0  0  0  0
   40.5280  -10.3360   16.5790 C   0  0  0  0  0  0
   40.1480  -11.8180   16.6050 C   0  0  0  0  0  0
   40.3360   -9.7110   17.9500 C   0  0  0  0  0  0
   44.5940   -8.0160   16.7880 N   0  0  0  0  0  0
   46.0480   -8.0430   16.9220 C   0  0  2  0  0  0
   46.5150   -9.4550   17.2440 C   0  0  0  0  0  0
   45.9570  -10.1060   18.1280 O   0  0  0  0  0  0
   46.5090   -7.1010   18.0360 C   0  0  0  0  0  0
   46.6630   -5.6390   17.6290 C   0  0  0  0  0  0
   48.0170   -5.3020   16.4720 S   0  0  0  0  0  0
   48.1310   -3.5360   16.7230 C   0  0  0  0  0  0
   47.4758   -9.9598   16.6040 O   0  5  0  0  0  0
   35.0537  -10.6988   12.0688 H   0  0  0  0  0  0
   36.0797  -11.6364   13.2067 H   0  0  0  0  0  0
   36.3879   -9.8848   12.9543 H   0  0  0  0  0  0
   33.9750  -11.1743   14.1222 H   0  0  0  0  0  0
   36.1327   -9.4337   15.4580 H   0  0  0  0  0  0
   33.8817   -9.1126   16.3783 H   0  0  0  0  0  0
   34.9698   -9.9633   17.5269 H   0  0  0  0  0  0
   33.7298  -10.8871   16.6127 H   0  0  0  0  0  0
   36.9177  -11.7225   14.8976 H   0  0  0  0  0  0
   35.4959  -12.4086   15.7546 H   0  0  0  0  0  0
   36.7359  -11.4848   16.6688 H   0  0  0  0  0  0
   35.8167   -8.1690   13.4454 H   0  0  0  0  0  0
   33.1029   -6.8772   12.9713 H   0  0  0  0  0  0
   35.5887   -5.4816   14.1146 H   0  0  0  0  0  0
   34.0675   -4.6489   13.6465 H   0  0  0  0  0  0
   35.8015   -6.5262   16.2212 H   0  0  0  0  0  0
   31.9724   -5.1243   14.9425 H   0  0  0  0  0  0
   34.9139   -6.8733   18.4963 H   0  0  0  0  0  0
   31.0803   -5.4497   17.2188 H   0  0  0  0  0  0
   33.0841   -5.1940   11.2387 H   0  0  0  0  0  0
   34.9540   -6.1365    9.1775 H   0  0  0  0  0  0
   32.9359   -3.7918    9.1135 H   0  0  0  0  0  0
   33.7061   -4.5176    7.6621 H   0  0  0  0  0  0
   31.8038   -5.9172    9.5805 H   0  0  0  0  0  0
   31.4162   -5.2983    7.9393 H   0  0  0  0  0  0
   34.9535   -3.4218   11.3755 H   0  0  0  0  0  0
   36.7815   -2.0081    9.4414 H   0  0  0  0  0  0
   36.3043    0.0900   10.8743 H   0  0  0  0  0  0
   34.8363   -0.6457   10.1460 H   0  0  0  0  0  0
   35.3408    1.1681   12.5194 H   0  0  0  0  0  0
   34.5200    0.2384   13.9658 H   0  0  0  0  0  0
   37.0474   -3.9272   12.0896 H   0  0  0  0  0  0
   39.8421   -2.7792   12.4626 H   0  0  0  0  0  0
   39.7306   -3.4216   14.9730 H   0  0  0  0  0  0
   39.6396   -1.0911   14.1541 H   0  0  0  0  0  0
   38.6519   -1.3396   15.6338 H   0  0  0  0  0  0
   37.8520   -1.2169   14.0301 H   0  0  0  0  0  0
   37.7313   -4.8765   14.8164 H   0  0  0  0  0  0
   36.7293   -3.4392   14.4201 H   0  0  0  0  0  0
   37.5292   -3.5619   16.0237 H   0  0  0  0  0  0
   41.4685   -4.3626   13.1600 H   0  0  0  0  0  0
   40.4060   -7.2418   12.7454 H   0  0  0  0  0  0
   42.0336   -6.6830   12.2305 H   0  0  0  0  0  0
   41.6169   -8.9526   13.8236 H   0  0  0  0  0  0
   42.0838   -8.0395   16.6400 H   0  0  0  0  0  0
   42.0665  -10.7490   15.2060 H   0  0  0  0  0  0
   42.5841  -10.6156   16.9209 H   0  0  0  0  0  0
   39.8685   -9.8230   15.8636 H   0  0  0  0  0  0
   40.2938  -12.2515   15.6046 H   0  0  0  0  0  0
   39.0930  -11.9209   16.8990 H   0  0  0  0  0  0
   40.7840  -12.3469   17.3301 H   0  0  0  0  0  0
   40.6141   -8.6475   17.9103 H   0  0  0  0  0  0
   40.9729  -10.2295   18.6818 H   0  0  0  0  0  0
   39.2820   -9.8035   18.2507 H   0  0  0  0  0  0
   43.9905   -7.3963   17.4675 H   0  0  0  0  0  0
   46.4409   -7.7121   15.9493 H   0  0  0  0  0  0
   45.7792   -7.1214   18.8588 H   0  0  0  0  0  0
   47.4912   -7.4270   18.4088 H   0  0  0  0  0  0
   45.7393   -5.2952   17.1405 H   0  0  0  0  0  0
   46.8543   -5.0276   18.5232 H   0  0  0  0  0  0
   48.9275   -3.1256   16.0849 H   0  0  0  0  0  0
   48.3637   -3.3299   17.7782 H   0  0  0  0  0  0
   47.1719   -3.0657   16.4604 H   0  0  0  0  0  0
  1  2  1  0  0  0
  1 69  1  0  0  0
  1 70  1  0  0  0
  1 71  1  0  0  0
  2  3  1  0  0  0
  2  5  1  0  0  0
  2 72  1  0  0  0
  3  4  2  0  0  0
  3  8  1  0  0  0
  5  6  1  0  0  0
  5  7  1  0  0  0
  5 73  1  0  0  0
  6 74  1  0  0  0
  6 75  1  0  0  0
  6 76  1  0  0  0
  7 77  1  0  0  0
  7 78  1  0  0  0
  7 79  1  0  0  0
  8  9  1  0  0  0
  8 80  1  0  0  0
  9 10  1  0  0  0
  9 12  1  0  0  0
  9 81  1  0  0  0
 10 11  2  0  0  0
 10 24  1  0  0  0
 12 13  1  0  0  0
 12 82  1  0  0  0
 12 83  1  0  0  0
 13 14  2  0  0  0
 13 15  1  0  0  0
 14 16  1  0  0  0
 14 84  1  0  0  0
 15 17  2  0  0  0
 15 85  1  0  0  0
 16 18  2  0  0  0
 16 86  1  0  0  0
 17 18  1  0  0  0
 17 87  1  0  0  0
 18 19  1  0  0  0
 19 20  1  0  0  0
 20 21  2  0  0  0
 20 22  1  0  0  0
 20 23  1  0  0  0
 24 25  1  0  0  0
 24 88  1  0  0  0
 25 26  1  0  0  0
 25 28  1  0  0  0
 25 89  1  0  0  0
 26 27  2  0  0  0
 26 33  1  0  0  0
 28 29  1  0  0  0
 28 90  1  0  0  0
 28 91  1  0  0  0
 29 30  1  0  0  0
 29 92  1  0  0  0
 29 93  1  0  0  0
 30 31  1  0  0  0
 30 32  2  0  0  0
 33 34  1  0  0  0
 33 94  1  0  0  0
 34 35  1  0  0  0
 34 37  1  0  0  0
 34 95  1  0  0  0
 35 36  2  0  0  0
 35 41  1  0  0  0
 37 38  1  0  0  0
 37 96  1  0  0  0
 37 97  1  0  0  0
 38 39  2  0  0  0
 38 40  1  0  0  0
 40 98  1  0  0  0
 40 99  1  0  0  0
 41 42  1  0  0  0
 41100  1  0  0  0
 42 43  1  0  0  0
 42 45  1  0  0  0
 42101  1  0  0  0
 43 44  2  0  0  0
 43 48  1  0  0  0
 45 46  1  0  0  0
 45 47  1  0  0  0
 45102  1  0  0  0
 46103  1  0  0  0
 46104  1  0  0  0
 46105  1  0  0  0
 47106  1  0  0  0
 47107  1  0  0  0
 47108  1  0  0  0
 48 49  1  0  0  0
 48109  1  0  0  0
 49 50  1  0  0  0
 49110  1  0  0  0
 49111  1  0  0  0
 50 51  2  0  0  0
 50 52  1  0  0  0
 52 53  1  0  0  0
 52112  1  0  0  0
 53 54  1  0  0  0
 53 56  1  0  0  0
 53113  1  0  0  0
 54 55  2  0  0  0
 54 60  1  0  0  0
 56 57  1  0  0  0
 56114  1  0  0  0
 56115  1  0  0  0
 57 58  1  0  0  0
 57 59  1  0  0  0
 57116  1  0  0  0
 58117  1  0  0  0
 58118  1  0  0  0
 58119  1  0  0  0
 59120  1  0  0  0
 59121  1  0  0  0
 59122  1  0  0  0
 60 61  1  0  0  0
 60123  1  0  0  0
 61 62  1  0  0  0
 61 64  1  0  0  0
 61124  1  0  0  0
 62 63  2  0  0  0
 62 68  1  0  0  0
 64 65  1  0  0  0
 64125  1  0  0  0
 64126  1  0  0  0
 65 66  1  0  0  0
 65127  1  0  0  0
 65128  1  0  0  0
 66 67  1  0  0  0
 67129  1  0  0  0
 67130  1  0  0  0
 67131  1  0  0  0
M  CHG  5   1   1  22  -1  23  -1  31  -1  68  -1
M  END
> <s_m_source_file>
../4jmg_ligand.sdf

> <i_m_source_file_index>
1

> <s_epik_input>
Tz1QKFtPSF0pKFtPSF0pT2MoW2NIXVtjSF0xKVtjSF1bY0hdYzFbQ0gyXVtDQEhdKFtOSF1DKD1PKVtDQEBIXShbTkgzK10pW0NIXShbQ0gzXSlbQ0gzXSlDKD1PKVtOSF1bQ0BASF0oW0NIMl1bQ0gyXUMoPU8pW09IXSlDKD1PKVtOSF1bQ0BASF0oW0NIMl1DKD1PKVtOSDJdKUMoPU8pW05IXVtDQEBIXShbQ0hdKFtDSDNdKVtDSDNdKUMoPU8pW05IXVtDSDJdQyg9TylbTkhdW0NAQEhdKFtDSDJdW0NIXShbQ0gzXSlbQ0gzXSlDKD1PKVtOSF1bQ0BIXShDKD1PKVtPSF0pW0NIMl1bQ0gyXVNbQ0gzXQ==

> <s_epik_cmdline>
J2VwaWtfYXBwJywgJy1pbWFlJywgJ2xpZ2FuZF9wcm8ubWFlJywgJy1vbWFlJywgJ2xpZ2FuZF9wcmVwLm1hZScsICctbXMnLCAnMScsICctcGgnLCAnNycsICctcGh0JywgJzAuNScsICctbnQn

> <r_epik_Ionization_Penalty>
  0.1734

> <r_epik_Ionization_Penalty_Charging>
  0.1733

> <r_epik_Ionization_Penalty_Neutral>
  0.0000

> <r_epik_State_Penalty>
  0.1439

> <r_epik_Charging_Adjusted_Penalty>
0.317278029509227

> <i_epik_Tot_Q>
-3

> <i_epik_Tot_abs_Q>
5

$$$$
