4jmh_ligand
                    3D
 Schrodinger Suite 2020-3.
146150  0  0  1  0            999 V2000
  -41.5380  -19.3810    3.1860 N   0  3  0  0  0  0
  -41.3240  -20.6890    3.8030 C   0  0  2  0  0  0
  -40.5750  -21.7330    2.9450 C   0  0  0  0  0  0
  -40.2420  -22.8040    3.4470 O   0  0  0  0  0  0
  -42.6360  -21.2700    4.3750 C   0  0  0  0  0  0
  -43.7380  -21.4170    3.3670 C   0  0  0  0  0  0
  -43.5360  -21.9330    2.1030 N   0  0  0  0  0  0
  -45.0590  -21.1260    3.4480 C   0  0  0  0  0  0
  -44.6830  -21.9440    1.4470 C   0  0  0  0  0  0
  -45.6230  -21.4580    2.2380 N   0  0  0  0  0  0
  -40.2900  -21.4320    1.6790 N   0  0  0  0  0  0
  -39.4780  -22.3420    0.8470 C   0  0  2  0  0  0
  -38.0420  -21.8350    0.6330 C   0  0  0  0  0  0
  -37.8350  -20.6570    0.3190 O   0  0  0  0  0  0
  -40.1400  -22.5920   -0.5100 C   0  0  0  0  0  0
  -40.8920  -23.9010   -0.6000 C   0  0  0  0  0  0
  -41.1340  -24.3300   -2.0340 C   0  0  0  0  0  0
  -41.3120  -23.4910   -2.9210 O   0  0  0  0  0  0
  -41.1270  -25.6450   -2.2740 N   0  0  0  0  0  0
  -37.0620  -22.7320    0.7800 N   0  0  0  0  0  0
  -35.6400  -22.3560    0.7460 C   0  0  2  0  0  0
  -34.8230  -23.0450   -0.3450 C   0  0  0  0  0  0
  -34.9930  -24.2430   -0.5780 O   0  0  0  0  0  0
  -34.9650  -22.6770    2.0870 C   0  0  0  0  0  0
  -35.5870  -21.9460    3.2510 C   0  0  0  0  0  0
  -35.1780  -20.6520    3.5880 C   0  0  0  0  0  0
  -36.5950  -22.5410    4.0060 C   0  0  0  0  0  0
  -35.7510  -19.9840    4.6530 C   0  0  0  0  0  0
  -37.1770  -21.8740    5.0680 C   0  0  0  0  0  0
  -36.7610  -20.5940    5.3810 C   0  0  0  0  0  0
  -37.3160  -19.9980    6.3980 O   0  0  0  0  0  0
  -37.7900  -18.4510    6.4300 P   0  0  0  0  0  0
  -36.8830  -17.7390    7.3520 O   0  0  0  0  0  0
  -39.2300  -18.4370    6.9850 O   0  5  0  0  0  0
  -37.7590  -17.7610    5.0490 O   0  0  0  0  0  0
  -33.9090  -22.2950   -0.9610 N   0  0  0  0  0  0
  -33.0540  -22.7860   -2.0410 C   0  0  2  0  0  0
  -32.2610  -24.0590   -1.7200 C   0  0  0  0  0  0
  -31.9660  -24.8290   -2.6420 O   0  0  0  0  0  0
  -32.0870  -21.6600   -2.3970 C   0  0  0  0  0  0
  -31.0720  -21.9390   -3.5040 C   0  0  0  0  0  0
  -31.3410  -21.6120   -4.8300 C   0  0  0  0  0  0
  -29.8190  -22.4560   -3.2080 C   0  0  0  0  0  0
  -30.4070  -21.8330   -5.8260 C   0  0  0  0  0  0
  -28.8780  -22.6740   -4.1880 C   0  0  0  0  0  0
  -29.1750  -22.3630   -5.5020 C   0  0  0  0  0  0
  -28.2730  -22.5650   -6.4300 O   0  0  0  0  0  0
  -27.7570  -24.0680   -6.7400 P   0  0  0  0  0  0
  -26.9790  -24.0180   -7.9990 O   0  0  0  0  0  0
  -29.0210  -24.9140   -6.8510 O   0  5  0  0  0  0
  -26.8390  -24.5860   -5.6010 O   0  0  0  0  0  0
  -31.9200  -24.2700   -0.4450 N   0  0  0  0  0  0
  -31.1150  -25.4230   -0.0260 C   0  0  2  0  0  0
  -31.9010  -26.4270    0.8090 C   0  0  0  0  0  0
  -31.3140  -27.1550    1.6100 O   0  0  0  0  0  0
  -29.8730  -24.9690    0.7510 C   0  0  0  0  0  0
  -30.2170  -24.3840    2.1120 C   0  0  0  0  0  0
  -31.3070  -23.8420    2.3040 O   0  0  0  0  0  0
  -29.2880  -24.5050    3.0740 N   0  0  0  0  0  0
  -33.2200  -26.4650    0.6260 N   0  0  0  0  0  0
  -34.0810  -27.4320    1.3230 C   0  0  2  0  0  0
  -33.7580  -28.8890    0.9620 C   0  0  0  0  0  0
  -33.0190  -29.1560    0.0160 O   0  0  0  0  0  0
  -35.5560  -27.1520    1.0090 C   0  0  0  0  0  0
  -36.1870  -26.1380    1.9610 C   0  0  0  0  0  0
  -35.8280  -26.1240    3.1580 O   0  5  0  0  0  0
  -37.0540  -25.3640    1.5110 O   0  0  0  0  0  0
  -34.3200  -29.8250    1.7260 N   0  0  0  0  0  0
  -34.2760  -31.2470    1.3880 C   0  0  2  0  0  0
  -35.5540  -31.6430    0.6890 C   0  0  0  0  0  0
  -36.5520  -30.9270    0.7580 O   0  0  0  0  0  0
  -34.1810  -32.1080    2.6440 C   0  0  0  0  0  0
  -33.0240  -31.7740    3.5160 C   0  0  0  0  0  0
  -31.7350  -32.0150    3.0860 C   0  0  0  0  0  0
  -33.2250  -31.2050    4.7700 C   0  0  0  0  0  0
  -30.6620  -31.6850    3.8920 C   0  0  0  0  0  0
  -32.1630  -30.8770    5.5790 C   0  0  0  0  0  0
  -30.8810  -31.1170    5.1430 C   0  0  0  0  0  0
  -35.5320  -32.7940    0.0080 N   0  0  0  0  0  0
  -36.8080  -33.4410   -0.3030 C   0  0  2  0  0  0
  -37.5030  -33.7960    1.0010 C   0  0  0  0  0  0
  -36.7920  -34.2850    1.8900 O   0  0  0  0  0  0
  -36.3900  -34.7300   -1.0320 C   0  0  0  0  0  0
  -34.9170  -34.8920   -0.7840 C   0  0  0  0  0  0
  -34.3790  -33.5000   -0.5790 C   0  0  0  0  0  0
  -38.7368  -33.6033    1.1691 O   0  5  0  0  0  0
  -40.5840  -19.0011    2.7916 H   0  0  0  0  0  0
  -41.9288  -18.6802    3.9384 H   0  0  0  0  0  0
  -42.2622  -19.4776    2.3637 H   0  0  0  0  0  0
  -40.6307  -20.4061    4.6088 H   0  0  0  0  0  0
  -42.8039  -21.5672    5.4207 H   0  0  0  0  0  0
  -45.6848  -20.7081    4.2503 H   0  0  0  0  0  0
  -44.8290  -22.2949    0.4254 H   0  0  0  0  0  0
  -40.6688  -20.4903    1.2552 H   0  0  0  0  0  0
  -39.4477  -23.2710    1.4353 H   0  0  0  0  0  0
  -40.8625  -21.7893   -0.7189 H   0  0  0  0  0  0
  -39.3707  -22.6066   -1.2961 H   0  0  0  0  0  0
  -40.3122  -24.6919   -0.1017 H   0  0  0  0  0  0
  -41.8696  -23.7969   -0.1066 H   0  0  0  0  0  0
  -40.9640  -26.3538   -1.4488 H   0  0  0  0  0  0
  -41.2843  -26.0183   -3.2967 H   0  0  0  0  0  0
  -37.3495  -23.7830    0.9306 H   0  0  0  0  0  0
  -35.6944  -21.2797    0.5255 H   0  0  0  0  0  0
  -35.0450  -23.7553    2.2889 H   0  0  0  0  0  0
  -33.9040  -22.3903    2.0414 H   0  0  0  0  0  0
  -34.3978  -20.1645    3.0035 H   0  0  0  0  0  0
  -36.9300  -23.5476    3.7558 H   0  0  0  0  0  0
  -35.4110  -18.9832    4.9193 H   0  0  0  0  0  0
  -37.9594  -22.3550    5.6550 H   0  0  0  0  0  0
  -36.8110  -17.6764    4.4976 H   0  0  0  0  0  0
  -33.8164  -21.2546   -0.6160 H   0  0  0  0  0  0
  -33.7528  -23.0516   -2.8479 H   0  0  0  0  0  0
  -32.6560  -20.7808   -2.7335 H   0  0  0  0  0  0
  -31.4915  -21.3943   -1.5111 H   0  0  0  0  0  0
  -32.3051  -21.1739   -5.0881 H   0  0  0  0  0  0
  -29.5739  -22.6955   -2.1733 H   0  0  0  0  0  0
  -30.6431  -21.5896   -6.8619 H   0  0  0  0  0  0
  -27.9039  -23.0895   -3.9298 H   0  0  0  0  0  0
  -25.8843  -24.0814   -5.3916 H   0  0  0  0  0  0
  -32.2659  -23.5402    0.3018 H   0  0  0  0  0  0
  -30.8371  -25.9031   -0.9759 H   0  0  0  0  0  0
  -29.2063  -25.8291    0.9115 H   0  0  0  0  0  0
  -29.3425  -24.1963    0.1753 H   0  0  0  0  0  0
  -28.3292  -24.9973    2.8539 H   0  0  0  0  0  0
  -29.4858  -24.1119    4.0821 H   0  0  0  0  0  0
  -33.6613  -25.7404   -0.0741 H   0  0  0  0  0  0
  -33.8553  -27.2691    2.3872 H   0  0  0  0  0  0
  -35.6439  -26.7515   -0.0117 H   0  0  0  0  0  0
  -36.1313  -28.0863    1.0871 H   0  0  0  0  0  0
  -34.8314  -29.4929    2.6415 H   0  0  0  0  0  0
  -33.3925  -31.3658    0.7436 H   0  0  0  0  0  0
  -35.0918  -31.9784    3.2471 H   0  0  0  0  0  0
  -34.0785  -33.1650    2.3571 H   0  0  0  0  0  0
  -31.5629  -32.4664    2.1089 H   0  0  0  0  0  0
  -34.2411  -31.0163    5.1164 H   0  0  0  0  0  0
  -29.6444  -31.8697    3.5477 H   0  0  0  0  0  0
  -32.3357  -30.4303    6.5581 H   0  0  0  0  0  0
  -30.0339  -30.8614    5.7795 H   0  0  0  0  0  0
  -37.4674  -32.7829   -0.8878 H   0  0  0  0  0  0
  -36.9559  -35.5811   -0.6254 H   0  0  0  0  0  0
  -36.6018  -34.6286   -2.1066 H   0  0  0  0  0  0
  -34.7619  -35.5150    0.1092 H   0  0  0  0  0  0
  -34.4497  -35.3760   -1.6543 H   0  0  0  0  0  0
  -34.0907  -33.0112   -1.5213 H   0  0  0  0  0  0
  -33.5334  -33.4689    0.1238 H   0  0  0  0  0  0
  -42.5304  -22.2551    1.7946 H   0  0  0  0  0  0
  1  2  1  0  0  0
  1 87  1  0  0  0
  1 88  1  0  0  0
  1 89  1  0  0  0
  2  3  1  0  0  0
  2  5  1  0  0  0
  2 90  1  0  0  0
  3  4  2  0  0  0
  3 11  1  0  0  0
  5  6  2  0  0  0
  5 91  1  0  0  0
  6  7  1  0  0  0
  6  8  1  0  0  0
  7  9  1  0  0  0
  7146  1  0  0  0
  8 10  2  0  0  0
  8 92  1  0  0  0
  9 10  1  0  0  0
  9 93  1  0  0  0
 11 12  1  0  0  0
 11 94  1  0  0  0
 12 13  1  0  0  0
 12 15  1  0  0  0
 12 95  1  0  0  0
 13 14  2  0  0  0
 13 20  1  0  0  0
 15 16  1  0  0  0
 15 96  1  0  0  0
 15 97  1  0  0  0
 16 17  1  0  0  0
 16 98  1  0  0  0
 16 99  1  0  0  0
 17 18  2  0  0  0
 17 19  1  0  0  0
 19100  1  0  0  0
 19101  1  0  0  0
 20 21  1  0  0  0
 20102  1  0  0  0
 21 22  1  0  0  0
 21 24  1  0  0  0
 21103  1  0  0  0
 22 23  2  0  0  0
 22 36  1  0  0  0
 24 25  1  0  0  0
 24104  1  0  0  0
 24105  1  0  0  0
 25 26  2  0  0  0
 25 27  1  0  0  0
 26 28  1  0  0  0
 26106  1  0  0  0
 27 29  2  0  0  0
 27107  1  0  0  0
 28 30  2  0  0  0
 28108  1  0  0  0
 29 30  1  0  0  0
 29109  1  0  0  0
 30 31  1  0  0  0
 31 32  1  0  0  0
 32 33  2  0  0  0
 32 34  1  0  0  0
 32 35  1  0  0  0
 35110  1  0  0  0
 36 37  1  0  0  0
 36111  1  0  0  0
 37 38  1  0  0  0
 37 40  1  0  0  0
 37112  1  0  0  0
 38 39  2  0  0  0
 38 52  1  0  0  0
 40 41  1  0  0  0
 40113  1  0  0  0
 40114  1  0  0  0
 41 42  2  0  0  0
 41 43  1  0  0  0
 42 44  1  0  0  0
 42115  1  0  0  0
 43 45  2  0  0  0
 43116  1  0  0  0
 44 46  2  0  0  0
 44117  1  0  0  0
 45 46  1  0  0  0
 45118  1  0  0  0
 46 47  1  0  0  0
 47 48  1  0  0  0
 48 49  2  0  0  0
 48 50  1  0  0  0
 48 51  1  0  0  0
 51119  1  0  0  0
 52 53  1  0  0  0
 52120  1  0  0  0
 53 54  1  0  0  0
 53 56  1  0  0  0
 53121  1  0  0  0
 54 55  2  0  0  0
 54 60  1  0  0  0
 56 57  1  0  0  0
 56122  1  0  0  0
 56123  1  0  0  0
 57 58  2  0  0  0
 57 59  1  0  0  0
 59124  1  0  0  0
 59125  1  0  0  0
 60 61  1  0  0  0
 60126  1  0  0  0
 61 62  1  0  0  0
 61 64  1  0  0  0
 61127  1  0  0  0
 62 63  2  0  0  0
 62 68  1  0  0  0
 64 65  1  0  0  0
 64128  1  0  0  0
 64129  1  0  0  0
 65 66  1  0  0  0
 65 67  2  0  0  0
 68 69  1  0  0  0
 68130  1  0  0  0
 69 70  1  0  0  0
 69 72  1  0  0  0
 69131  1  0  0  0
 70 71  2  0  0  0
 70 79  1  0  0  0
 72 73  1  0  0  0
 72132  1  0  0  0
 72133  1  0  0  0
 73 74  2  0  0  0
 73 75  1  0  0  0
 74 76  1  0  0  0
 74134  1  0  0  0
 75 77  2  0  0  0
 75135  1  0  0  0
 76 78  2  0  0  0
 76136  1  0  0  0
 77 78  1  0  0  0
 77137  1  0  0  0
 78138  1  0  0  0
 79 80  1  0  0  0
 79 85  1  0  0  0
 80 81  1  0  0  0
 80 83  1  0  0  0
 80139  1  0  0  0
 81 82  2  0  0  0
 81 86  1  0  0  0
 83 84  1  0  0  0
 83140  1  0  0  0
 83141  1  0  0  0
 84 85  1  0  0  0
 84142  1  0  0  0
 84143  1  0  0  0
 85144  1  0  0  0
 85145  1  0  0  0
M  CHG  5   1   1  34  -1  50  -1  66  -1  86  -1
M  END
> <s_m_source_file>
../4jmh_ligand.sdf

> <i_m_source_file_index>
1

> <s_epik_input>
W0NIXTE9TltDSDJdTj1DMVtDSDJdW0NASF0oW05IMytdKUMoPU8pW05IXVtDQEBIXShbQ0gyXVtDSDJdQyg9TylbTkgyXSlDKD1PKVtOSF1bQ0BASF0oW0NIMl1jMltjSF1bY0hdYyhbY0hdW2NIXTIpT1AoPU8pKFtPSF0pW09IXSlDKD1PKVtOSF1bQ0BASF0oW0NIMl1jM1tjSF1bY0hdYyhbY0hdW2NIXTMpT1AoPU8pKFtPSF0pW09IXSlDKD1PKVtOSF1bQ0BASF0oW0NIMl1DKD1PKVtOSDJdKUMoPU8pW05IXVtDQEBIXShbQ0gyXUMoPU8pW09IXSlDKD1PKVtOSF1bQ0BIXShDKD1PKU40W0NASF0oQyg9TylbT0hdKVtDSDJdW0NIMl1bQ0gyXTQpW0NIMl1jNVtjSF1bY0hdW2NIXVtjSF1bY0hdNQ==

> <s_epik_cmdline>
J2VwaWtfYXBwJywgJy1pbWFlJywgJ2xpZ2FuZF9wcm8ubWFlJywgJy1vbWFlJywgJ2xpZ2FuZF9wcmVwLm1hZScsICctbXMnLCAnMScsICctcGgnLCAnNycsICctcGh0JywgJzAuNScsICctbnQn

> <r_lp_tautomer_probability>
1

> <r_epik_Ionization_Penalty>
  3.5086

> <r_epik_Ionization_Penalty_Charging>
  1.1137

> <r_epik_Ionization_Penalty_Neutral>
  2.3950

> <r_epik_State_Penalty>
 -0.0000

> <r_epik_Charging_Adjusted_Penalty>
1.11368046581068

> <i_epik_Tot_Q>
-3

> <i_epik_Tot_abs_Q>
5

> <s_epik_Chemistry_Notes>
This compound has an imine and may undergo hydrolysis.

$$$$
