4jmu_ligand
                    3D
 Schrodinger Suite 2020-3.
 75 78  0  0  1  0            999 V2000
   19.0790    1.5030   13.2800 C   0  0  0  0  0  0
   19.3680    1.6130   14.6400 C   0  0  0  0  0  0
   18.3740    2.1030   15.5560 C   0  0  0  0  0  0
   17.1050    2.4830   15.1070 C   0  0  0  0  0  0
   16.7960    2.3880   13.7410 C   0  0  0  0  0  0
   17.7820    1.8910   12.8040 C   0  0  0  0  0  0
   18.6700    2.2400   16.8900 O   0  0  0  0  0  0
   19.4470    1.2950   17.5430 C   0  0  0  0  0  0
   20.1960    1.8310   18.6160 C   0  0  0  0  0  0
   21.0370    0.9870   19.3810 C   0  0  0  0  0  0
   21.1450   -0.3560   19.0860 C   0  0  0  0  0  0
   20.3930   -0.9240   17.9920 C   0  0  0  0  0  0
   19.5570   -0.1130   17.2060 C   0  0  0  0  0  0
   20.1550    0.9600   12.3830 C   0  0  0  0  0  0
   21.2770    1.6030   12.3970 O   0  5  0  0  0  0
   19.8540   -0.0440   11.6480 O   0  0  0  0  0  0
   17.4140    1.8000   11.4330 N   0  0  0  0  0  0
   17.6960    2.9210   10.4630 C   0  0  0  0  0  0
   17.3510    4.3140   11.0070 C   0  0  0  0  0  0
   19.1680    2.9420    9.9590 C   0  0  0  0  0  0
   16.7700    0.6730   10.9480 C   0  0  0  0  0  0
   16.4310   -0.5260   11.9490 C   0  0  1  0  0  0
   16.4450    0.6070    9.7790 O   0  0  0  0  0  0
   14.9600   -0.3200   12.4090 C   0  0  0  0  0  0
   14.5260   -1.3980   13.4170 C   0  0  0  0  0  0
   14.5860   -2.7810   12.7610 C   0  0  1  0  0  0
   16.0150   -3.0660   12.1880 C   0  0  0  0  0  0
   16.5490   -1.9140   11.2620 C   0  0  0  0  0  0
   14.1930   -3.8680   13.8010 C   0  0  0  0  0  0
   21.9490   -1.1280   19.9370 N   0  0  0  0  0  0
   22.2020   -2.4630   20.0190 C   0  0  0  0  0  0
   21.7930   -3.3260   19.2150 O   0  0  0  0  0  0
   23.0460   -2.9140   21.1900 C   0  0  0  0  0  0
   23.4270   -4.2830   21.3020 C   0  0  0  0  0  0
   24.2150   -4.6900   22.3620 C   0  0  0  0  0  0
   24.6580   -3.7660   23.3270 C   0  0  0  0  0  0
   24.2760   -2.4040   23.2360 C   0  0  0  0  0  0
   23.4850   -1.9660   22.1530 C   0  0  0  0  0  0
   25.4500   -4.0880   24.3870 O   0  0  0  0  0  0
   26.4210   -5.1320   24.1350 C   0  0  0  0  0  0
   20.3522    1.3261   15.0102 H   0  0  0  0  0  0
   16.3607    2.8506   15.8134 H   0  0  0  0  0  0
   15.8110    2.6892   13.3845 H   0  0  0  0  0  0
   20.1260    2.8924   18.8539 H   0  0  0  0  0  0
   21.6056    1.4034   20.2125 H   0  0  0  0  0  0
   20.4744   -1.9890   17.7744 H   0  0  0  0  0  0
   19.0047   -0.5306   16.3641 H   0  0  0  0  0  0
   17.0070    2.6821    9.6395 H   0  0  0  0  0  0
   16.3122    4.3194   11.3688 H   0  0  0  0  0  0
   17.4640    5.0589   10.2056 H   0  0  0  0  0  0
   18.0295    4.5621   11.8365 H   0  0  0  0  0  0
   19.4346    1.9504    9.5645 H   0  0  0  0  0  0
   19.8377    3.1968   10.7936 H   0  0  0  0  0  0
   19.2722    3.6937    9.1627 H   0  0  0  0  0  0
   17.1314   -0.5377   12.7972 H   0  0  0  0  0  0
   14.8605    0.6647   12.8892 H   0  0  0  0  0  0
   14.2923   -0.3715   11.5364 H   0  0  0  0  0  0
   15.1998   -1.3796   14.2863 H   0  0  0  0  0  0
   13.4960   -1.1979   13.7472 H   0  0  0  0  0  0
   13.8644   -2.7891   11.9308 H   0  0  0  0  0  0
   16.7266   -3.1826   13.0187 H   0  0  0  0  0  0
   15.9933   -3.9899   11.5914 H   0  0  0  0  0  0
   15.9600   -1.9145   10.3330 H   0  0  0  0  0  0
   17.6040   -2.1185   11.0273 H   0  0  0  0  0  0
   13.1880   -3.6536   14.1934 H   0  0  0  0  0  0
   14.9183   -3.8634   14.6280 H   0  0  0  0  0  0
   14.1947   -4.8559   13.3172 H   0  0  0  0  0  0
   22.5326   -0.6421   20.7328 H   0  0  0  0  0  0
   23.0984   -5.0056   20.5550 H   0  0  0  0  0  0
   24.4968   -5.7391   22.4518 H   0  0  0  0  0  0
   24.5930   -1.6960   24.0017 H   0  0  0  0  0  0
   23.2143   -0.9146   22.0563 H   0  0  0  0  0  0
   27.0066   -5.3161   25.0478 H   0  0  0  0  0  0
   27.0948   -4.8181   23.3241 H   0  0  0  0  0  0
   25.8993   -6.0549   23.8417 H   0  0  0  0  0  0
  1  2  2  0  0  0
  1  6  1  0  0  0
  1 14  1  0  0  0
  2  3  1  0  0  0
  2 41  1  0  0  0
  3  4  2  0  0  0
  3  7  1  0  0  0
  4  5  1  0  0  0
  4 42  1  0  0  0
  5  6  2  0  0  0
  5 43  1  0  0  0
  6 17  1  0  0  0
  7  8  1  0  0  0
  8  9  2  0  0  0
  8 13  1  0  0  0
  9 10  1  0  0  0
  9 44  1  0  0  0
 10 11  2  0  0  0
 10 45  1  0  0  0
 11 12  1  0  0  0
 11 30  1  0  0  0
 12 13  2  0  0  0
 12 46  1  0  0  0
 13 47  1  0  0  0
 14 15  1  0  0  0
 14 16  2  0  0  0
 17 18  1  0  0  0
 17 21  1  0  0  0
 18 19  1  0  0  0
 18 20  1  0  0  0
 18 48  1  0  0  0
 19 49  1  0  0  0
 19 50  1  0  0  0
 19 51  1  0  0  0
 20 52  1  0  0  0
 20 53  1  0  0  0
 20 54  1  0  0  0
 21 22  1  0  0  0
 21 23  2  0  0  0
 22 24  1  0  0  0
 22 28  1  0  0  0
 22 55  1  0  0  0
 24 25  1  0  0  0
 24 56  1  0  0  0
 24 57  1  0  0  0
 25 26  1  0  0  0
 25 58  1  0  0  0
 25 59  1  0  0  0
 26 27  1  0  0  0
 26 29  1  0  0  0
 26 60  1  0  0  0
 27 28  1  0  0  0
 27 61  1  0  0  0
 27 62  1  0  0  0
 28 63  1  0  0  0
 28 64  1  0  0  0
 29 65  1  0  0  0
 29 66  1  0  0  0
 29 67  1  0  0  0
 30 31  1  0  0  0
 30 68  1  0  0  0
 31 32  2  0  0  0
 31 33  1  0  0  0
 33 34  2  0  0  0
 33 38  1  0  0  0
 34 35  1  0  0  0
 34 69  1  0  0  0
 35 36  2  0  0  0
 35 70  1  0  0  0
 36 37  1  0  0  0
 36 39  1  0  0  0
 37 38  2  0  0  0
 37 71  1  0  0  0
 38 72  1  0  0  0
 39 40  1  0  0  0
 40 73  1  0  0  0
 40 74  1  0  0  0
 40 75  1  0  0  0
M  CHG  1  15  -1
M  END
> <s_m_source_file>
../4jmu_ligand.sdf

> <i_m_source_file_index>
1

> <s_epik_input>
W0NIMl0xW0NIMl1bQ0BASF0oW0NIM10pW0NIMl1bQ0gyXVtDQEBIXTFDKD1PKU4oW0NIXShbQ0gzXSlbQ0gzXSljMltjSF1bY0hdYyhbY0hdYzJDKD1PKVtPSF0pT2MzW2NIXVtjSF1jKFtjSF1bY0hdMylbTkhdQyg9TyljNFtjSF1bY0hdYyhbY0hdW2NIXTQpT1tDSDNd

> <s_epik_cmdline>
J2VwaWtfYXBwJywgJy1pbWFlJywgJ2xpZ2FuZF9wcm8ubWFlJywgJy1vbWFlJywgJ2xpZ2FuZF9wcmVwLm1hZScsICctbXMnLCAnMScsICctcGgnLCAnNycsICctcGh0JywgJzAuNScsICctbnQn

> <r_lp_tautomer_probability>
1

> <r_epik_Ionization_Penalty>
  0.0002

> <r_epik_Ionization_Penalty_Charging>
  0.0001

> <r_epik_Ionization_Penalty_Neutral>
  0.0001

> <r_epik_State_Penalty>
 -0.0000

> <r_epik_Charging_Adjusted_Penalty>
0.000143572331959068

> <i_epik_Tot_Q>
-1

> <i_epik_Tot_abs_Q>
1

$$$$
