4jmx_ligand
                    3D
 Schrodinger Suite 2020-3.
 27 27  0  0  1  0            999 V2000
   -8.0030   16.6780  -12.8940 C   0  0  0  0  0  0
  -10.9090   13.5380  -14.1040 C   0  0  0  0  0  0
   -9.2670   16.4050  -13.6970 C   0  0  1  0  0  0
  -10.3500   15.5530  -13.0160 C   0  0  2  0  0  0
   -9.9560   13.3050  -13.2290 C   0  0  0  0  0  0
   -6.9450   17.0620  -13.4740 O   0  0  0  0  0  0
   -9.6770   17.8460  -14.0000 C   0  0  2  0  0  0
   -8.5060   18.5530  -14.4130 O   0  0  0  0  0  0
  -10.2760   18.5860  -12.8160 C   0  0  0  0  0  0
   -9.7620   14.3540  -12.4510 N   0  0  0  0  0  0
   -9.1690   12.0970  -13.1620 C   0  0  0  0  0  0
   -8.6120   11.6830  -14.1900 O   0  5  0  0  0  0
   -9.0660   11.5290  -12.0720 O   0  0  0  0  0  0
  -11.5350   12.4160  -15.1690 S   0  0  0  0  0  0
  -11.3460   14.9750  -14.0220 C   0  0  0  0  0  0
   -8.0128   16.5396  -11.8028 H   0  0  0  0  0  0
   -9.0968   15.7643  -14.5748 H   0  0  0  0  0  0
  -10.8131   16.1877  -12.2461 H   0  0  0  0  0  0
  -10.4193   17.8415  -14.8118 H   0  0  0  0  0  0
   -7.9127   18.1853  -15.2632 H   0  0  0  0  0  0
  -11.1817   18.0622  -12.4763 H   0  0  0  0  0  0
  -10.5368   19.6110  -13.1181 H   0  0  0  0  0  0
   -9.5432   18.6205  -11.9964 H   0  0  0  0  0  0
   -9.2357   14.4016  -11.4863 H   0  0  0  0  0  0
  -11.2716   15.4382  -15.0170 H   0  0  0  0  0  0
  -12.3880   15.0220  -13.6726 H   0  0  0  0  0  0
  -11.1583   11.3825  -15.1634 H   0  0  0  0  0  0
  1  3  1  0  0  0
  1  6  2  0  0  0
  1 16  1  0  0  0
  2  5  2  0  0  0
  2 14  1  0  0  0
  2 15  1  0  0  0
  3  4  1  0  0  0
  3  7  1  0  0  0
  3 17  1  0  0  0
  4 10  1  0  0  0
  4 15  1  0  0  0
  4 18  1  0  0  0
  5 10  1  0  0  0
  5 11  1  0  0  0
  7  8  1  0  0  0
  7  9  1  0  0  0
  7 19  1  0  0  0
  8 20  1  0  0  0
  9 21  1  0  0  0
  9 22  1  0  0  0
  9 23  1  0  0  0
 10 24  1  0  0  0
 11 12  1  0  0  0
 11 13  2  0  0  0
 14 27  1  0  0  0
 15 25  1  0  0  0
 15 26  1  0  0  0
M  CHG  1  12  -1
M  END
> <s_m_source_file>
../4jmx_ligand.sdf

> <i_m_source_file_index>
1

> <s_epik_input>
Tz1bQ0hdW0NASF0oW0NASF0oW09IXSlbQ0gzXSlbQ0BASF0oW0NIMl0xKVtOSF1DKD1DMVtTSF0pQyg9TylbT0hd

> <s_epik_cmdline>
J2VwaWtfYXBwJywgJy1pbWFlJywgJ2xpZ2FuZF9wcm8ubWFlJywgJy1vbWFlJywgJ2xpZ2FuZF9wcmVwLm1hZScsICctbXMnLCAnMScsICctcGgnLCAnNycsICctcGh0JywgJzAuNScsICctbnQn

> <r_lp_tautomer_probability>
1

> <r_epik_Ionization_Penalty>
  0.0036

> <r_epik_Ionization_Penalty_Charging>
  0.0000

> <r_epik_Ionization_Penalty_Neutral>
  0.0036

> <r_epik_State_Penalty>
 -0.0000

> <r_epik_Charging_Adjusted_Penalty>
3.81893309590208e-05

> <i_epik_Tot_Q>
-1

> <i_epik_Tot_abs_Q>
1

> <s_epik_Chemistry_Notes>
This compound has an imine and may undergo hydrolysis.

$$$$
