4jn2_ligand
                    3D
 Schrodinger Suite 2020-3.
 60 63  0  0  1  0            999 V2000
  -37.6250   52.8690    0.1470 C   0  0  0  0  0  0
  -39.0170   53.0290    0.0480 N   0  0  0  0  0  0
  -39.9370   52.8580    1.1890 C   0  0  0  0  0  0
  -39.6760   53.9330    2.2230 C   0  0  0  0  0  0
  -39.3420   55.1590    1.9430 N   0  0  0  0  0  0
  -39.1060   55.8450    3.1040 C   0  0  0  0  0  0
  -38.7090   57.1600    3.4110 C   0  0  0  0  0  0
  -38.5660   57.5290    4.7600 C   0  0  0  0  0  0
  -38.0740   58.8830    5.1270 C   0  0  0  0  0  0
  -38.3480   59.8250    4.4020 O   0  0  0  0  0  0
  -37.2980   59.0420    6.2420 N   0  0  0  0  0  0
  -36.2080   58.1760    6.4670 C   0  0  0  0  0  0
  -35.4870   57.5720    5.4260 C   0  0  0  0  0  0
  -34.4590   56.6870    5.7430 C   0  0  0  0  0  0
  -34.1630   56.4250    7.0800 C   0  0  0  0  0  0
  -34.9190   57.0470    8.0620 C   0  0  0  0  0  0
  -35.9100   57.8630    7.7270 N   0  0  0  0  0  0
  -37.0810   60.4290    6.6980 C   0  0  0  0  0  0
  -36.1000   61.1930    5.8010 C   0  0  0  0  0  0
  -35.7670   62.5420    6.4030 C   0  0  0  0  0  0
  -35.1340   63.3580    5.7540 O   0  0  0  0  0  0
  -36.1230   62.8150    7.5380 O   0  5  0  0  0  0
  -38.8100   56.6030    5.7830 C   0  0  0  0  0  0
  -39.1680   55.3150    5.4820 C   0  0  0  0  0  0
  -39.3240   54.9390    4.1530 C   0  0  0  0  0  0
  -39.6410   53.7380    3.5670 N   0  0  0  0  0  0
  -39.8480   52.5090    4.3280 C   0  0  0  0  0  0
  -37.0130   52.6210    1.3800 C   0  0  0  0  0  0
  -35.6350   52.4810    1.4670 C   0  0  0  0  0  0
  -34.8580   52.5560    0.3050 C   0  0  0  0  0  0
  -33.3830   52.3730    0.4070 C   0  0  0  0  0  0
  -32.8710   51.7260    1.4570 N   0  0  0  0  0  0
  -32.6080   52.8440   -0.5580 N   0  3  0  0  0  0
  -35.4690   52.8040   -0.9370 C   0  0  0  0  0  0
  -36.8470   52.9600   -1.0150 C   0  0  0  0  0  0
  -39.4133   53.2954   -0.9429 H   0  0  0  0  0  0
  -40.9762   52.9362    0.8370 H   0  0  0  0  0  0
  -39.7774   51.8692    1.6437 H   0  0  0  0  0  0
  -38.5156   57.8803    2.6161 H   0  0  0  0  0  0
  -35.7274   57.7917    4.3858 H   0  0  0  0  0  0
  -33.8893   56.2021    4.9503 H   0  0  0  0  0  0
  -33.3541   55.7453    7.3478 H   0  0  0  0  0  0
  -34.6981   56.8647    9.1137 H   0  0  0  0  0  0
  -38.0383   60.9707    6.6926 H   0  0  0  0  0  0
  -36.6708   60.4195    7.7186 H   0  0  0  0  0  0
  -35.1722   60.6118    5.6940 H   0  0  0  0  0  0
  -36.5526   61.3469    4.8103 H   0  0  0  0  0  0
  -38.7144   56.9092    6.8247 H   0  0  0  0  0  0
  -39.3294   54.5899    6.2797 H   0  0  0  0  0  0
  -40.0899   51.6870    3.6382 H   0  0  0  0  0  0
  -40.6788   52.6510    5.0349 H   0  0  0  0  0  0
  -38.9313   52.2633    4.8841 H   0  0  0  0  0  0
  -37.6230   52.5370    2.2794 H   0  0  0  0  0  0
  -35.1607   52.3137    2.4340 H   0  0  0  0  0  0
  -33.5361   51.3443    2.2456 H   0  0  0  0  0  0
  -31.7841   51.5748    1.5333 H   0  0  0  0  0  0
  -33.0542   53.3736   -1.4127 H   0  0  0  0  0  0
  -34.8610   52.8738   -1.8389 H   0  0  0  0  0  0
  -37.3218   53.1526   -1.9771 H   0  0  0  0  0  0
  -31.5180   52.7057   -0.5049 H   0  0  0  0  0  0
  1  2  1  0  0  0
  1 28  2  0  0  0
  1 35  1  0  0  0
  2  3  1  0  0  0
  2 36  1  0  0  0
  3  4  1  0  0  0
  3 37  1  0  0  0
  3 38  1  0  0  0
  4  5  2  0  0  0
  4 26  1  0  0  0
  5  6  1  0  0  0
  6  7  2  0  0  0
  6 25  1  0  0  0
  7  8  1  0  0  0
  7 39  1  0  0  0
  8  9  1  0  0  0
  8 23  2  0  0  0
  9 10  2  0  0  0
  9 11  1  0  0  0
 11 12  1  0  0  0
 11 18  1  0  0  0
 12 13  2  0  0  0
 12 17  1  0  0  0
 13 14  1  0  0  0
 13 40  1  0  0  0
 14 15  2  0  0  0
 14 41  1  0  0  0
 15 16  1  0  0  0
 15 42  1  0  0  0
 16 17  2  0  0  0
 16 43  1  0  0  0
 18 19  1  0  0  0
 18 44  1  0  0  0
 18 45  1  0  0  0
 19 20  1  0  0  0
 19 46  1  0  0  0
 19 47  1  0  0  0
 20 21  2  0  0  0
 20 22  1  0  0  0
 23 24  1  0  0  0
 23 48  1  0  0  0
 24 25  2  0  0  0
 24 49  1  0  0  0
 25 26  1  0  0  0
 26 27  1  0  0  0
 27 50  1  0  0  0
 27 51  1  0  0  0
 27 52  1  0  0  0
 28 29  1  0  0  0
 28 53  1  0  0  0
 29 30  2  0  0  0
 29 54  1  0  0  0
 30 31  1  0  0  0
 30 34  1  0  0  0
 31 32  1  0  0  0
 31 33  2  0  0  0
 32 55  1  0  0  0
 32 56  1  0  0  0
 33 57  1  0  0  0
 33 60  1  0  0  0
 34 35  2  0  0  0
 34 58  1  0  0  0
 35 59  1  0  0  0
M  CHG  2  22  -1  33   1
M  END
> <s_m_source_file>
../4jn2_ligand.sdf

> <i_m_source_file_index>
1

> <s_epik_input>
W0hdL049QyhbTkgyXSlcYyhbY0hdW2NIXTEpW2NIXVtjSF1jMVtOSF1bQ0gyXWMobjIpbihbQ0gzXSljKGMyMylbY0hdW2NIXWMoW2NIXTMpQyg9TylOKFtDSDJdW0NIMl1DKD1PKVtPSF0pYzRbY0hdW2NIXVtjSF1bY0hdbjQ=

> <s_epik_cmdline>
J2VwaWtfYXBwJywgJy1pbWFlJywgJ2xpZ2FuZF9wcm8ubWFlJywgJy1vbWFlJywgJ2xpZ2FuZF9wcmVwLm1hZScsICctbXMnLCAnMScsICctcGgnLCAnNycsICctcGh0JywgJzAuNScsICctbnQn

> <r_epik_Ionization_Penalty>
  0.1532

> <r_epik_Ionization_Penalty_Charging>
  0.0015

> <r_epik_Ionization_Penalty_Neutral>
  0.1517

> <r_epik_State_Penalty>
  0.1410

> <r_epik_Charging_Adjusted_Penalty>
0.14247882112508

> <i_epik_Tot_Q>
0

> <i_epik_Tot_abs_Q>
2

> <s_epik_Chemistry_Notes>
This compound has an imine and may undergo hydrolysis.

$$$$
