4jn4_ligand
                    3D
 Schrodinger Suite 2020-3.
 43 45  0  0  1  0            999 V2000
   13.1630   76.6180   28.2450 P   0  0  0  0  0  0
   12.3930   77.1020   27.0380 O   0  5  0  0  0  0
   12.9790   77.4850   29.4750 O   0  5  0  0  0  0
   12.9910   75.1590   28.5400 O   0  0  0  0  0  0
   15.9000   75.9330   27.3100 P   0  0  1  0  0  0
   15.4520   74.5120   27.1910 O   0  0  0  0  0  0
   16.5310   76.6230   26.1180 O   0  5  0  0  0  0
   14.7290   76.8880   27.8990 O   0  0  0  0  0  0
   18.1810   75.0940   28.8420 P   0  0  2  0  0  0
   19.0900   75.0040   27.6380 O   0  5  0  0  0  0
   17.6530   73.8500   29.4890 O   0  0  0  0  0  0
   16.9500   76.0840   28.5310 O   0  0  0  0  0  0
   18.9410   75.9510   29.9660 O   0  0  0  0  0  0
   19.4560   77.2300   29.6500 C   0  0  0  0  0  0
   19.5140   78.0680   30.9230 C   0  0  1  0  0  0
   20.2800   77.3720   31.9080 O   0  0  0  0  0  0
   20.2010   79.4060   30.6990 C   0  0  1  0  0  0
   19.5170   80.3930   31.4810 O   0  0  0  0  0  0
   21.5990   79.2010   31.2420 C   0  0  1  0  0  0
   22.1890   80.4060   31.7490 O   0  0  0  0  0  0
   21.3300   78.2200   32.3570 C   0  0  2  0  0  0
   22.5300   77.4390   32.7290 N   0  0  0  0  0  0
   23.3320   76.7160   31.9290 C   0  0  0  0  0  0
   24.3350   76.1390   32.6460 N   0  0  0  0  0  0
   24.1690   76.5090   33.9300 C   0  0  0  0  0  0
   24.8650   76.2670   35.2110 C   0  0  0  0  0  0
   25.9740   75.4930   35.2520 N   0  0  0  0  0  0
   24.3540   76.8510   36.3200 N   0  0  0  0  0  0
   23.2540   77.6280   36.2880 C   0  0  0  0  0  0
   22.5680   77.8880   35.1610 N   0  0  0  0  0  0
   22.9810   77.3690   33.9770 C   0  0  0  0  0  0
   20.4664   77.1244   29.2282 H   0  0  0  0  0  0
   18.8003   77.7176   28.9136 H   0  0  0  0  0  0
   18.4902   78.2118   31.2988 H   0  0  0  0  0  0
   20.1830   79.7776   29.6638 H   0  0  0  0  0  0
   18.4830   80.6730   31.2311 H   0  0  0  0  0  0
   22.3470   78.9030   30.4926 H   0  0  0  0  0  0
   22.4467   81.2242   31.0604 H   0  0  0  0  0  0
   21.0054   78.7220   33.2804 H   0  0  0  0  0  0
   23.1977   76.6065   30.8529 H   0  0  0  0  0  0
   26.3595   75.0350   34.3291 H   0  0  0  0  0  0
   26.4901   75.3217   36.2082 H   0  0  0  0  0  0
   22.9027   78.0676   37.2215 H   0  0  0  0  0  0
  1  2  1  0  0  0
  1  3  1  0  0  0
  1  4  2  0  0  0
  1  8  1  0  0  0
  5  6  2  0  0  0
  5  7  1  0  0  0
  5  8  1  0  0  0
  5 12  1  0  0  0
  9 10  1  0  0  0
  9 11  2  0  0  0
  9 12  1  0  0  0
  9 13  1  0  0  0
 13 14  1  0  0  0
 14 15  1  0  0  0
 14 32  1  0  0  0
 14 33  1  0  0  0
 15 16  1  0  0  0
 15 17  1  0  0  0
 15 34  1  0  0  0
 16 21  1  0  0  0
 17 18  1  0  0  0
 17 19  1  0  0  0
 17 35  1  0  0  0
 18 36  1  0  0  0
 19 20  1  0  0  0
 19 21  1  0  0  0
 19 37  1  0  0  0
 20 38  1  0  0  0
 21 22  1  0  0  0
 21 39  1  0  0  0
 22 23  1  0  0  0
 22 31  1  0  0  0
 23 24  2  0  0  0
 23 40  1  0  0  0
 24 25  1  0  0  0
 25 26  2  0  0  0
 25 31  1  0  0  0
 26 27  1  0  0  0
 26 28  1  0  0  0
 27 41  1  0  0  0
 27 42  1  0  0  0
 28 29  2  0  0  0
 29 30  1  0  0  0
 29 43  1  0  0  0
 30 31  2  0  0  0
M  CHG  4   2  -1   3  -1   7  -1  10  -1
M  END
> <s_m_source_file>
../4jn4_ligand.sdf

> <i_m_source_file_index>
1

> <s_epik_input>
W09IXVAoPU8pKFtPSF0pT1tQQEBdKD1PKShbT0hdKU9bUEBAXSg9TykoW09IXSlPW0NIMl1bQ0BIXTFPW0NASF0oW0NASF0oW09IXSlbQ0BASF0xW09IXSluKFtjSF1uMiljKGMyMyluW2NIXW5jM1tOSDJd

> <s_epik_cmdline>
J2VwaWtfYXBwJywgJy1pbWFlJywgJ2xpZ2FuZF9wcm8ubWFlJywgJy1vbWFlJywgJ2xpZ2FuZF9wcmVwLm1hZScsICctbXMnLCAnMScsICctcGgnLCAnNycsICctcGh0JywgJzAuNScsICctbnQn

> <r_lp_tautomer_probability>
0.999997216410988

> <r_epik_Ionization_Penalty>
  0.0818

> <r_epik_Ionization_Penalty_Charging>
  0.0813

> <r_epik_Ionization_Penalty_Neutral>
  0.0004

> <r_epik_State_Penalty>
  0.0708

> <r_epik_Charging_Adjusted_Penalty>
0.152157994418768

> <i_epik_Tot_Q>
-4

> <i_epik_Tot_abs_Q>
4

> <s_epik_Chemistry_Notes>
This compound contains an acetal/aminal-like group ( X-CH(R)-Y where X, Y are N, S, or O) that may be acid/base labile, releasing an aldehyde.

$$$$
