4jnc_ligand
                    3D
 Schrodinger Suite 2020-3.
 52 54  0  0  1  0            999 V2000
  -13.9560   24.1020  -11.9650 N   0  0  0  0  0  0
  -10.1360   26.3950  -13.9430 C   0  0  0  0  0  0
  -16.3840   24.2060  -11.3790 C   0  0  0  0  0  0
  -17.8940   24.8920  -13.1780 C   0  0  0  0  0  0
  -18.7710   24.4510  -10.9590 C   0  0  0  0  0  0
   -6.9660   30.6950  -15.7960 C   0  0  0  0  0  0
   -8.3790   30.8360  -15.4030 N   0  0  0  0  0  0
   -9.3370   29.9620  -15.9610 C   0  0  0  0  0  0
   -9.9710   30.2850  -17.1030 N   0  0  0  0  0  0
  -10.8780   29.4510  -17.6310 C   0  0  0  0  0  0
  -11.5870   29.8190  -18.9130 C   0  0  0  0  0  0
  -11.1510   28.2880  -17.0180 N   0  0  0  0  0  0
  -10.5180   27.9670  -15.8730 C   0  0  0  0  0  0
   -9.6100   28.8030  -15.3450 N   0  0  0  0  0  0
  -10.7890   26.7470  -15.2180 N   0  0  0  0  0  0
  -11.9060   25.8700  -15.6070 C   0  0  0  0  0  0
  -12.9600   25.7920  -14.4890 C   0  0  0  0  0  0
  -12.2810   25.3740  -13.1680 C   0  0  0  0  0  0
  -11.1360   26.3300  -12.7740 C   0  0  0  0  0  0
  -13.3120   25.2600  -12.0750 C   0  0  0  0  0  0
  -13.5410   26.2060  -11.3190 O   0  0  0  0  0  0
  -14.9680   23.8740  -10.9340 C   0  0  0  0  0  0
  -16.6060   24.5830  -12.7180 C   0  0  0  0  0  0
  -18.9790   24.8240  -12.2960 C   0  0  0  0  0  0
  -17.4790   24.1350  -10.4840 C   0  0  0  0  0  0
  -17.2860   23.7400   -9.0240 C   0  0  0  0  0  0
  -16.5090   24.6470   -8.4410 F   0  0  0  0  0  0
  -16.7170   22.5360   -8.9120 F   0  0  0  0  0  0
  -18.4410   23.7150   -8.3740 F   0  0  0  0  0  0
  -13.7081   23.3025  -12.6787 H   0  0  0  0  0  0
   -9.6563   25.4096  -14.0366 H   0  0  0  0  0  0
   -9.3754   27.1514  -13.6995 H   0  0  0  0  0  0
  -18.0496   25.1836  -14.2167 H   0  0  0  0  0  0
  -19.6198   24.4045  -10.2767 H   0  0  0  0  0  0
   -6.3623   31.4498  -15.2709 H   0  0  0  0  0  0
   -6.8713   30.8406  -16.8822 H   0  0  0  0  0  0
   -6.6096   29.6894  -15.5283 H   0  0  0  0  0  0
   -8.6749   31.6142  -14.6841 H   0  0  0  0  0  0
  -11.2318   30.8006  -19.2597 H   0  0  0  0  0  0
  -12.6711   29.8642  -18.7324 H   0  0  0  0  0  0
  -11.3744   29.0601  -19.6804 H   0  0  0  0  0  0
  -12.3837   26.2657  -16.5154 H   0  0  0  0  0  0
  -11.5253   24.8570  -15.8045 H   0  0  0  0  0  0
  -13.4331   26.7769  -14.3618 H   0  0  0  0  0  0
  -13.7257   25.0494  -14.7580 H   0  0  0  0  0  0
  -11.8341   24.3775  -13.2993 H   0  0  0  0  0  0
  -10.6249   25.9557  -11.8747 H   0  0  0  0  0  0
  -11.5355   27.3357  -12.5769 H   0  0  0  0  0  0
  -14.9587   22.8143  -10.6391 H   0  0  0  0  0  0
  -14.7461   24.5005  -10.0575 H   0  0  0  0  0  0
  -15.7633   24.6353  -13.4073 H   0  0  0  0  0  0
  -19.9835   25.0603  -12.6469 H   0  0  0  0  0  0
  1 20  1  0  0  0
  1 22  1  0  0  0
  1 30  1  0  0  0
  2 15  1  0  0  0
  2 19  1  0  0  0
  2 31  1  0  0  0
  2 32  1  0  0  0
  3 22  1  0  0  0
  3 23  2  0  0  0
  3 25  1  0  0  0
  4 23  1  0  0  0
  4 24  2  0  0  0
  4 33  1  0  0  0
  5 24  1  0  0  0
  5 25  2  0  0  0
  5 34  1  0  0  0
  6  7  1  0  0  0
  6 35  1  0  0  0
  6 36  1  0  0  0
  6 37  1  0  0  0
  7  8  1  0  0  0
  7 38  1  0  0  0
  8  9  2  0  0  0
  8 14  1  0  0  0
  9 10  1  0  0  0
 10 11  1  0  0  0
 10 12  2  0  0  0
 11 39  1  0  0  0
 11 40  1  0  0  0
 11 41  1  0  0  0
 12 13  1  0  0  0
 13 14  2  0  0  0
 13 15  1  0  0  0
 15 16  1  0  0  0
 16 17  1  0  0  0
 16 42  1  0  0  0
 16 43  1  0  0  0
 17 18  1  0  0  0
 17 44  1  0  0  0
 17 45  1  0  0  0
 18 19  1  0  0  0
 18 20  1  0  0  0
 18 46  1  0  0  0
 19 47  1  0  0  0
 19 48  1  0  0  0
 20 21  2  0  0  0
 22 49  1  0  0  0
 22 50  1  0  0  0
 23 51  1  0  0  0
 24 52  1  0  0  0
 25 26  1  0  0  0
 26 27  1  0  0  0
 26 28  1  0  0  0
 26 29  1  0  0  0
M  END
> <s_m_source_file>
../4jnc_ligand.sdf

> <i_m_source_file_index>
1

> <s_epik_input>
RkMoRikoRiljMVtjSF1bY0hdW2NIXVtjSF1jMVtDSDJdW05IXUMoPU8pW0NIXShbQ0gyXVtDSDJdMilbQ0gyXVtDSDJdTjJjKG4zKW5jKFtDSDNdKW5jM1tOSF1bQ0gzXQ==

> <s_epik_cmdline>
J2VwaWtfYXBwJywgJy1pbWFlJywgJ2xpZ2FuZF9wcm8ubWFlJywgJy1vbWFlJywgJ2xpZ2FuZF9wcmVwLm1hZScsICctbXMnLCAnMScsICctcGgnLCAnNycsICctcGh0JywgJzAuNScsICctbnQn

> <r_lp_tautomer_probability>
1

> <r_epik_Ionization_Penalty>
  0.0131

> <r_epik_Ionization_Penalty_Charging>
  0.0000

> <r_epik_Ionization_Penalty_Neutral>
  0.0131

> <r_epik_State_Penalty>
 -0.0000

> <r_epik_Charging_Adjusted_Penalty>
0

> <i_epik_Tot_Q>
0

> <i_epik_Tot_abs_Q>
0

$$$$
