4jne_ligand
                    3D
 Schrodinger Suite 2020-3.
 43 45  0  0  1  0            999 V2000
   13.0360   76.3780   28.1870 P   0  0  0  0  0  0
   12.3240   76.8740   26.9370 O   0  5  0  0  0  0
   12.8220   77.2350   29.4160 O   0  5  0  0  0  0
   12.7900   74.9390   28.4730 O   0  0  0  0  0  0
   15.7640   75.6640   27.2730 P   0  0  1  0  0  0
   15.3140   74.2370   27.1670 O   0  0  0  0  0  0
   16.3450   76.3020   26.0400 O   0  5  0  0  0  0
   14.6150   76.6190   27.9180 O   0  0  0  0  0  0
   18.0500   74.8520   28.8250 P   0  0  2  0  0  0
   18.9570   74.7950   27.6240 O   0  5  0  0  0  0
   17.5370   73.6240   29.5060 O   0  0  0  0  0  0
   16.8090   75.8270   28.4900 O   0  0  0  0  0  0
   18.7840   75.7520   29.9420 O   0  0  0  0  0  0
   19.2860   77.0370   29.5910 C   0  0  0  0  0  0
   19.4310   77.8380   30.8860 C   0  0  1  0  0  0
   20.2570   77.0930   31.7800 O   0  0  0  0  0  0
   20.1080   79.1910   30.6890 C   0  0  1  0  0  0
   19.3970   80.1480   31.4870 O   0  0  0  0  0  0
   21.5080   78.9790   31.2330 C   0  0  1  0  0  0
   22.1510   80.1510   31.7420 O   0  0  0  0  0  0
   21.2240   77.9790   32.3250 C   0  0  2  0  0  0
   22.4140   77.2010   32.6960 N   0  0  0  0  0  0
   23.2050   76.4750   31.8840 C   0  0  0  0  0  0
   24.1990   75.8870   32.6020 N   0  0  0  0  0  0
   24.0320   76.2460   33.8890 C   0  0  0  0  0  0
   24.7320   75.9910   35.1580 C   0  0  0  0  0  0
   25.8370   75.2010   35.1770 N   0  0  0  0  0  0
   24.2280   76.5650   36.2790 N   0  0  0  0  0  0
   23.1310   77.3510   36.2540 C   0  0  0  0  0  0
   22.4510   77.6370   35.1280 N   0  0  0  0  0  0
   22.8530   77.1170   33.9450 C   0  0  0  0  0  0
   20.2612   76.9265   29.0942 H   0  0  0  0  0  0
   18.5804   77.5322   28.9077 H   0  0  0  0  0  0
   18.4327   77.9799   31.3256 H   0  0  0  0  0  0
   20.1000   79.5952   29.6660 H   0  0  0  0  0  0
   18.3625   80.4188   31.2293 H   0  0  0  0  0  0
   22.2552   78.7034   30.4743 H   0  0  0  0  0  0
   22.4207   80.9706   31.0597 H   0  0  0  0  0  0
   20.8563   78.4605   33.2431 H   0  0  0  0  0  0
   23.0686   76.3732   30.8074 H   0  0  0  0  0  0
   26.2109   74.7558   34.2432 H   0  0  0  0  0  0
   26.3578   75.0065   36.1262 H   0  0  0  0  0  0
   22.7777   77.7759   37.1936 H   0  0  0  0  0  0
  1  2  1  0  0  0
  1  3  1  0  0  0
  1  4  2  0  0  0
  1  8  1  0  0  0
  5  6  2  0  0  0
  5  7  1  0  0  0
  5  8  1  0  0  0
  5 12  1  0  0  0
  9 10  1  0  0  0
  9 11  2  0  0  0
  9 12  1  0  0  0
  9 13  1  0  0  0
 13 14  1  0  0  0
 14 15  1  0  0  0
 14 32  1  0  0  0
 14 33  1  0  0  0
 15 16  1  0  0  0
 15 17  1  0  0  0
 15 34  1  0  0  0
 16 21  1  0  0  0
 17 18  1  0  0  0
 17 19  1  0  0  0
 17 35  1  0  0  0
 18 36  1  0  0  0
 19 20  1  0  0  0
 19 21  1  0  0  0
 19 37  1  0  0  0
 20 38  1  0  0  0
 21 22  1  0  0  0
 21 39  1  0  0  0
 22 23  1  0  0  0
 22 31  1  0  0  0
 23 24  2  0  0  0
 23 40  1  0  0  0
 24 25  1  0  0  0
 25 26  2  0  0  0
 25 31  1  0  0  0
 26 27  1  0  0  0
 26 28  1  0  0  0
 27 41  1  0  0  0
 27 42  1  0  0  0
 28 29  2  0  0  0
 29 30  1  0  0  0
 29 43  1  0  0  0
 30 31  2  0  0  0
M  CHG  4   2  -1   3  -1   7  -1  10  -1
M  END
> <s_m_source_file>
../4jne_ligand.sdf

> <i_m_source_file_index>
1

> <s_epik_input>
W09IXVAoPU8pKFtPSF0pT1tQQEBdKD1PKShbT0hdKU9bUEBAXSg9TykoW09IXSlPW0NIMl1bQ0BIXTFPW0NASF0oW0NASF0oW09IXSlbQ0BASF0xW09IXSluKFtjSF1uMiljKGMyMyluW2NIXW5jM1tOSDJd

> <s_epik_cmdline>
J2VwaWtfYXBwJywgJy1pbWFlJywgJ2xpZ2FuZF9wcm8ubWFlJywgJy1vbWFlJywgJ2xpZ2FuZF9wcmVwLm1hZScsICctbXMnLCAnMScsICctcGgnLCAnNycsICctcGh0JywgJzAuNScsICctbnQn

> <r_lp_tautomer_probability>
0.999997216410988

> <r_epik_Ionization_Penalty>
  0.0818

> <r_epik_Ionization_Penalty_Charging>
  0.0813

> <r_epik_Ionization_Penalty_Neutral>
  0.0004

> <r_epik_State_Penalty>
  0.0708

> <r_epik_Charging_Adjusted_Penalty>
0.152157994418768

> <i_epik_Tot_Q>
-4

> <i_epik_Tot_abs_Q>
4

> <s_epik_Chemistry_Notes>
This compound contains an acetal/aminal-like group ( X-CH(R)-Y where X, Y are N, S, or O) that may be acid/base labile, releasing an aldehyde.

$$$$
