4jnj_ligand
                    3D
 Schrodinger Suite 2020-3.
 31 32  0  0  1  0            999 V2000
   32.6240  -10.6610  -26.6080 C   0  0  0  0  0  0
   31.5020  -10.5000  -26.0930 O   0  5  0  0  0  0
   33.5670  -11.1680  -25.9810 O   0  0  0  0  0  0
   32.8300  -10.2460  -28.0640 C   0  0  0  0  0  0
   34.2600   -9.7520  -28.3220 C   0  0  0  0  0  0
   34.4980   -8.3410  -27.7850 C   0  0  0  0  0  0
   35.9390   -7.8860  -28.0130 C   0  0  0  0  0  0
   36.1900   -6.5900  -27.2460 C   0  0  2  0  0  0
   35.2910   -5.2070  -27.8970 S   0  0  0  0  0  0
   36.2900   -4.0110  -27.0880 C   0  0  0  0  0  0
   37.6990   -4.6100  -27.0960 C   0  0  2  0  0  0
   38.4130   -4.1220  -28.2610 N   0  0  0  0  0  0
   38.7160   -5.1970  -29.1780 C   0  0  0  0  0  0
   39.2630   -5.0640  -30.2830 O   0  0  0  0  0  0
   38.2680   -6.4310  -28.5630 N   0  0  0  0  0  0
   37.6500   -6.1430  -27.2700 C   0  0  2  0  0  0
   32.6395  -11.1073  -28.7212 H   0  0  0  0  0  0
   32.1340   -9.4321  -28.3153 H   0  0  0  0  0  0
   34.9755  -10.4268  -27.8294 H   0  0  0  0  0  0
   34.4538   -9.7393  -29.4047 H   0  0  0  0  0  0
   33.8268   -7.6358  -28.2970 H   0  0  0  0  0  0
   34.2952   -8.3210  -26.7040 H   0  0  0  0  0  0
   36.6300   -8.6637  -27.6555 H   0  0  0  0  0  0
   36.1038   -7.7146  -29.0870 H   0  0  0  0  0  0
   35.9726   -6.9645  -26.2348 H   0  0  0  0  0  0
   36.2470   -3.0618  -27.6423 H   0  0  0  0  0  0
   35.9187   -3.8550  -26.0644 H   0  0  0  0  0  0
   38.2141   -4.3012  -26.1744 H   0  0  0  0  0  0
   38.6517   -3.0520  -28.3515 H   0  0  0  0  0  0
   38.3324   -7.4685  -28.9229 H   0  0  0  0  0  0
   38.2056   -6.7021  -26.5028 H   0  0  0  0  0  0
  1  2  1  0  0  0
  1  3  2  0  0  0
  1  4  1  0  0  0
  4  5  1  0  0  0
  4 17  1  0  0  0
  4 18  1  0  0  0
  5  6  1  0  0  0
  5 19  1  0  0  0
  5 20  1  0  0  0
  6  7  1  0  0  0
  6 21  1  0  0  0
  6 22  1  0  0  0
  7  8  1  0  0  0
  7 23  1  0  0  0
  7 24  1  0  0  0
  8  9  1  0  0  0
  8 16  1  0  0  0
  8 25  1  0  0  0
  9 10  1  0  0  0
 10 11  1  0  0  0
 10 26  1  0  0  0
 10 27  1  0  0  0
 11 12  1  0  0  0
 11 16  1  0  0  0
 11 28  1  0  0  0
 12 13  1  0  0  0
 12 29  1  0  0  0
 13 14  2  0  0  0
 13 15  1  0  0  0
 15 16  1  0  0  0
 15 30  1  0  0  0
 16 31  1  0  0  0
M  CHG  1   2  -1
M  END
> <s_m_source_file>
../4jnj_ligand.sdf

> <i_m_source_file_index>
1

> <s_epik_input>
W09IXUMoPU8pW0NIMl1bQ0gyXVtDSDJdW0NIMl1bQ0BIXShTW0NIMl0xKVtDQEhdKFtDQEhdMTIpW05IXUMoPU8pW05IXTI=

> <s_epik_cmdline>
J2VwaWtfYXBwJywgJy1pbWFlJywgJ2xpZ2FuZF9wcm8ubWFlJywgJy1vbWFlJywgJ2xpZ2FuZF9wcmVwLm1hZScsICctbXMnLCAnMScsICctcGgnLCAnNycsICctcGh0JywgJzAuNScsICctbnQn

> <r_lp_tautomer_probability>
1

> <r_epik_Ionization_Penalty>
  0.0045

> <r_epik_Ionization_Penalty_Charging>
  0.0044

> <r_epik_Ionization_Penalty_Neutral>
  0.0000

> <r_epik_State_Penalty>
 -0.0000

> <r_epik_Charging_Adjusted_Penalty>
0.00443833021372702

> <i_epik_Tot_Q>
-1

> <i_epik_Tot_abs_Q>
1

$$$$
