4jnm_ligand
                    3D
 Schrodinger Suite 2020-3.
 46 48  0  0  1  0            999 V2000
   14.4820    4.8960   -4.4990 C   0  0  0  0  0  0
   13.8160    5.2090   -5.6690 C   0  0  0  0  0  0
   14.5250    5.3850   -6.8420 C   0  0  0  0  0  0
   14.1080    5.9200   -1.8810 C   0  0  0  0  0  0
   14.9720    7.8630   -0.0970 C   0  0  0  0  0  0
   15.1580    5.6520   -1.0230 C   0  0  0  0  0  0
   14.7060    9.7080    1.5000 C   0  0  0  0  0  0
   14.5880   11.5080    3.1530 C   0  0  0  0  0  0
   14.7360   11.1190    4.6010 C   0  0  0  0  0  0
   15.8900   10.4680    5.0290 C   0  0  0  0  0  0
   14.9540   10.4250    7.2270 C   0  0  0  0  0  0
   13.7370   11.3900    5.5130 C   0  0  0  0  0  0
   15.9010    5.2470   -6.8440 C   0  0  0  0  0  0
   16.5680    4.9330   -5.6750 C   0  0  0  0  0  0
   15.8580    4.7580   -4.5020 C   0  0  0  0  0  0
   13.5710    4.6750   -3.0070 S   0  0  0  0  0  0
   12.2170    4.9590   -3.3290 O   0  0  0  0  0  0
   13.9940    3.4430   -2.4410 O   0  0  0  0  0  0
   13.4890    7.1550   -1.8510 C   0  0  0  0  0  0
   13.9180    8.1270   -0.9660 C   0  0  0  0  0  0
   15.5880    6.6180   -0.1360 C   0  0  0  0  0  0
   15.4550    8.8020    0.8290 N   0  0  0  0  0  0
   13.5020    9.8190    1.3420 O   0  0  0  0  0  0
   15.3330   10.5170    2.3760 N   0  0  0  0  0  0
   16.0010   10.1160    6.3620 C   0  0  0  0  0  0
   13.8710   11.0440    6.7800 N   0  3  0  0  0  0
   15.0460   10.0820    8.5710 N   0  0  0  0  0  0
   12.7314    5.3170   -5.6664 H   0  0  0  0  0  0
   14.0002    5.6324   -7.7648 H   0  0  0  0  0  0
   15.6464    4.6778   -1.0469 H   0  0  0  0  0  0
   13.5228   11.5015    2.8786 H   0  0  0  0  0  0
   14.9998   12.5165    3.0003 H   0  0  0  0  0  0
   16.6914   10.2399    4.3263 H   0  0  0  0  0  0
   12.8284   11.8946    5.1844 H   0  0  0  0  0  0
   16.4604    5.3861   -7.7691 H   0  0  0  0  0  0
   17.6525    4.8235   -5.6780 H   0  0  0  0  0  0
   16.3828    4.5112   -3.5791 H   0  0  0  0  0  0
   12.6599    7.3637   -2.5271 H   0  0  0  0  0  0
   13.4298    9.1014   -0.9492 H   0  0  0  0  0  0
   16.4166    6.4028    0.5387 H   0  0  0  0  0  0
   16.5293    8.8425    1.0618 H   0  0  0  0  0  0
   16.4217   10.4242    2.5026 H   0  0  0  0  0  0
   16.8917    9.6060    6.7289 H   0  0  0  0  0  0
   15.9428    9.5681    8.9473 H   0  0  0  0  0  0
   14.2220   10.3245    9.2582 H   0  0  0  0  0  0
   13.0499   11.2842    7.4715 H   0  0  0  0  0  0
  1  2  2  0  0  0
  1 15  1  0  0  0
  1 16  1  0  0  0
  2  3  1  0  0  0
  2 28  1  0  0  0
  3 13  2  0  0  0
  3 29  1  0  0  0
  4  6  2  0  0  0
  4 16  1  0  0  0
  4 19  1  0  0  0
  5 20  1  0  0  0
  5 21  2  0  0  0
  5 22  1  0  0  0
  6 21  1  0  0  0
  6 30  1  0  0  0
  7 22  1  0  0  0
  7 23  2  0  0  0
  7 24  1  0  0  0
  8  9  1  0  0  0
  8 24  1  0  0  0
  8 31  1  0  0  0
  8 32  1  0  0  0
  9 10  2  0  0  0
  9 12  1  0  0  0
 10 25  1  0  0  0
 10 33  1  0  0  0
 11 25  2  0  0  0
 11 26  1  0  0  0
 11 27  1  0  0  0
 12 26  2  0  0  0
 12 34  1  0  0  0
 13 14  1  0  0  0
 13 35  1  0  0  0
 14 15  2  0  0  0
 14 36  1  0  0  0
 15 37  1  0  0  0
 16 17  2  0  0  0
 16 18  2  0  0  0
 19 20  2  0  0  0
 19 38  1  0  0  0
 20 39  1  0  0  0
 21 40  1  0  0  0
 22 41  1  0  0  0
 24 42  1  0  0  0
 25 43  1  0  0  0
 26 46  1  0  0  0
 27 44  1  0  0  0
 27 45  1  0  0  0
M  CHG  1  26   1
M  END
> <s_m_source_file>
../4jnm_ligand.sdf

> <i_m_source_file_index>
1

> <s_epik_input>
W2NIXTFbY0hdW2NIXVtjSF1bY0hdYzFTKD1PKSg9TyljMltjSF1bY0hdYyhbY0hdW2NIXTIpW05IXUMoPU8pW05IXVtDSDJdYzNbY0hdW2NIXWMoW05IMl0pbltjSF0z

> <s_epik_cmdline>
J2VwaWtfYXBwJywgJy1pbWFlJywgJ2xpZ2FuZF9wcm8ubWFlJywgJy1vbWFlJywgJ2xpZ2FuZF9wcmVwLm1hZScsICctbXMnLCAnMScsICctcGgnLCAnNycsICctcGh0JywgJzAuNScsICctbnQn

> <r_lp_tautomer_probability>
0.999993852037798

> <r_epik_Ionization_Penalty>
  0.3740

> <r_epik_Ionization_Penalty_Charging>
  0.3740

> <r_epik_Ionization_Penalty_Neutral>
  0.0000

> <r_epik_State_Penalty>
  0.3716

> <r_epik_Charging_Adjusted_Penalty>
0.745579335826364

> <i_epik_Tot_Q>
1

> <i_epik_Tot_abs_Q>
1

$$$$
