4joe_ligand
                    3D
 Schrodinger Suite 2020-3.
149149  0  0  1  0            999 V2000
   36.2110   22.3800   42.7850 N   0  3  0  0  0  0
   35.8450   22.3180   41.3750 C   0  0  2  0  0  0
   36.7700   21.3780   40.6110 C   0  0  0  0  0  0
   37.4930   20.5810   41.2110 O   0  0  0  0  0  0
   35.8660   23.7090   40.7570 C   0  0  0  0  0  0
   36.7460   21.4760   39.2860 N   0  0  0  0  0  0
   37.5430   20.5950   38.4420 C   0  0  2  0  0  0
   37.9980   21.2880   37.1610 C   0  0  0  0  0  0
   37.2270   21.4180   36.2090 O   0  0  0  0  0  0
   36.7470   19.3350   38.1030 C   0  0  0  0  0  0
   37.5920   18.2750   37.4280 C   0  0  0  0  0  0
   38.6800   18.5590   36.9280 O   0  0  0  0  0  0
   37.0930   17.0430   37.4080 N   0  0  0  0  0  0
   39.2550   21.7240   37.1410 N   0  0  0  0  0  0
   39.8050   22.4530   36.0010 C   0  0  2  0  0  0
   39.7560   21.6320   34.7170 C   0  0  0  0  0  0
   39.8830   22.1700   33.6150 O   0  0  0  0  0  0
   41.2460   22.8850   36.2900 C   0  0  0  0  0  0
   42.0860   21.7610   36.4870 O   0  0  0  0  0  0
   39.5700   20.3260   34.8670 N   0  0  0  0  0  0
   39.5550   19.4140   33.7310 C   0  0  2  0  0  0
   38.1960   19.3680   33.0340 C   0  0  0  0  0  0
   38.0810   18.8400   31.9310 O   0  0  0  0  0  0
   39.9680   18.0100   34.1810 C   0  0  0  0  0  0
   41.3090   17.9700   34.9000 C   0  0  0  0  0  0
   41.5280   16.6370   35.5940 C   0  0  0  0  0  0
   40.5680   16.4200   36.6730 N   0  0  0  0  0  0
   40.5310   15.3270   37.4290 C   0  0  0  0  0  0
   41.4070   14.3520   37.2260 N   0  3  0  0  0  0
   39.6260   15.2070   38.3920 N   0  0  0  0  0  0
   37.1690   19.9150   33.6800 N   0  0  0  0  0  0
   35.8450   19.9760   33.0720 C   0  0  2  0  0  0
   35.8570   21.0130   31.9580 C   0  0  0  0  0  0
   36.5690   22.0150   32.0470 O   0  0  0  0  0  0
   34.7960   20.3290   34.1110 C   0  0  0  0  0  0
   35.0630   20.7870   30.9070 N   0  0  0  0  0  0
   35.0430   21.7710   29.8280 C   0  0  2  0  0  0
   34.1730   22.9610   30.1910 C   0  0  0  0  0  0
   33.5070   22.9700   31.2330 O   0  0  0  0  0  0
   34.4060   20.9990   28.6750 C   0  0  0  0  0  0
   33.4580   20.0860   29.3500 C   0  0  0  0  0  0
   34.1440   19.6670   30.6390 C   0  0  0  0  0  0
   34.1980   23.9510   29.3150 N   0  0  0  0  0  0
   33.4100   25.1510   29.4720 C   0  0  2  0  0  0
   32.6090   25.3650   28.2030 C   0  0  0  0  0  0
   33.1500   25.2360   27.0990 O   0  0  0  0  0  0
   34.3310   26.3560   29.7070 C   0  0  2  0  0  0
   35.0050   26.1870   30.9610 O   0  0  0  0  0  0
   33.5380   27.6560   29.7340 C   0  0  0  0  0  0
   31.3200   25.6650   28.3530 N   0  0  0  0  0  0
   30.4610   25.9720   27.2180 C   0  0  2  0  0  0
   29.8540   27.3510   27.4070 C   0  0  0  0  0  0
   29.4150   27.7030   28.5070 O   0  0  0  0  0  0
   29.3440   24.9350   27.0690 C   0  0  0  0  0  0
   29.8710   23.6540   26.7580 O   0  0  0  0  0  0
   29.8510   28.1220   26.3270 N   0  0  0  0  0  0
   29.1970   29.4210   26.2790 C   0  0  2  0  0  0
   27.7660   29.1800   25.8270 C   0  0  0  0  0  0
   27.5500   28.5690   24.7780 O   0  0  0  0  0  0
   29.8880   30.3340   25.2440 C   0  0  2  0  0  0
   31.3990   30.4150   25.5000 C   0  0  0  0  0  0
   29.2270   31.7050   25.2030 C   0  0  0  0  0  0
   32.1780   31.0780   24.3710 C   0  0  0  0  0  0
   26.8000   29.6540   26.6130 N   0  0  0  0  0  0
   25.3790   29.3930   26.3720 C   0  0  2  0  0  0
   24.4840   30.6080   26.6160 C   0  0  0  0  0  0
   24.9480   31.6600   27.1030 O   0  5  0  0  0  0
   24.8540   28.1980   27.2140 C   0  0  2  0  0  0
   24.9350   28.5020   28.7070 C   0  0  0  0  0  0
   25.6340   26.9290   26.8840 C   0  0  0  0  0  0
   24.2840   27.4330   29.5600 C   0  0  0  0  0  0
   23.2850   30.5110   26.3070 O   0  0  0  0  0  0
   36.1904   21.3673   43.2140 H   0  0  0  0  0  0
   35.4954   23.0202   43.3217 H   0  0  0  0  0  0
   37.2233   22.7992   42.8829 H   0  0  0  0  0  0
   34.8207   21.9175   41.3531 H   0  0  0  0  0  0
   35.1933   24.3713   41.3217 H   0  0  0  0  0  0
   35.5302   23.6506   39.7111 H   0  0  0  0  0  0
   36.8896   24.1102   40.7916 H   0  0  0  0  0  0
   36.1053   22.2443   38.8286 H   0  0  0  0  0  0
   38.4291   20.3505   39.0462 H   0  0  0  0  0  0
   36.3363   18.9012   39.0267 H   0  0  0  0  0  0
   35.9232   19.5940   37.4216 H   0  0  0  0  0  0
   36.1154   16.8380   37.8687 H   0  0  0  0  0  0
   37.6577   16.2285   36.9308 H   0  0  0  0  0  0
   39.8851   21.5199   38.0192 H   0  0  0  0  0  0
   39.1468   23.3270   35.8876 H   0  0  0  0  0  0
   41.6315   23.4675   35.4403 H   0  0  0  0  0  0
   41.2679   23.5041   37.1990 H   0  0  0  0  0  0
   43.1546   21.9044   36.7050 H   0  0  0  0  0  0
   39.4245   19.9378   35.8859 H   0  0  0  0  0  0
   40.2890   19.8382   33.0301 H   0  0  0  0  0  0
   39.2124   17.6097   34.8730 H   0  0  0  0  0  0
   40.0465   17.3518   33.3031 H   0  0  0  0  0  0
   42.1199   18.1213   34.1723 H   0  0  0  0  0  0
   41.3428   18.7669   35.6575 H   0  0  0  0  0  0
   41.4163   15.8212   34.8646 H   0  0  0  0  0  0
   42.5404   16.6090   36.0232 H   0  0  0  0  0  0
   39.8146   17.1882   36.9016 H   0  0  0  0  0  0
   42.1595   14.4458   36.4292 H   0  0  0  0  0  0
   38.8969   16.0123   38.5651 H   0  0  0  0  0  0
   39.6048   14.3022   39.0172 H   0  0  0  0  0  0
   37.3308   20.3249   34.6879 H   0  0  0  0  0  0
   35.6288   18.9750   32.6705 H   0  0  0  0  0  0
   34.7999   19.5710   34.9082 H   0  0  0  0  0  0
   33.8042   20.3565   33.6360 H   0  0  0  0  0  0
   35.0238   21.3152   34.5416 H   0  0  0  0  0  0
   36.0545   22.1560   29.6314 H   0  0  0  0  0  0
   33.8988   21.7027   27.9986 H   0  0  0  0  0  0
   35.1865   20.4564   28.1215 H   0  0  0  0  0  0
   32.5166   20.6182   29.5511 H   0  0  0  0  0  0
   33.2584   19.2200   28.7018 H   0  0  0  0  0  0
   34.7216   18.7376   30.5269 H   0  0  0  0  0  0
   33.4395   19.5621   31.4773 H   0  0  0  0  0  0
   34.8529   23.8337   28.4390 H   0  0  0  0  0  0
   32.7501   24.9918   30.3376 H   0  0  0  0  0  0
   35.1056   26.4111   28.9279 H   0  0  0  0  0  0
   35.6325   25.3001   31.1330 H   0  0  0  0  0  0
   33.0193   27.7891   28.7731 H   0  0  0  0  0  0
   34.2233   28.5001   29.9008 H   0  0  0  0  0  0
   32.7987   27.6176   30.5476 H   0  0  0  0  0  0
   30.9086   25.6765   29.3731 H   0  0  0  0  0  0
   31.1129   25.9456   26.3324 H   0  0  0  0  0  0
   28.7818   24.8637   28.0118 H   0  0  0  0  0  0
   28.6651   25.2411   26.2595 H   0  0  0  0  0  0
   29.1928   22.7992   26.6190 H   0  0  0  0  0  0
   30.3751   27.7369   25.4398 H   0  0  0  0  0  0
   29.2572   29.8597   27.2859 H   0  0  0  0  0  0
   29.7604   29.9014   24.2407 H   0  0  0  0  0  0
   31.5854   30.9995   26.4130 H   0  0  0  0  0  0
   31.8046   29.4002   25.6251 H   0  0  0  0  0  0
   28.1492   31.5870   25.0174 H   0  0  0  0  0  0
   29.6746   32.3039   24.3962 H   0  0  0  0  0  0
   29.3796   32.2146   26.1658 H   0  0  0  0  0  0
   33.2477   31.0987   24.6265 H   0  0  0  0  0  0
   31.8147   32.1066   24.2296 H   0  0  0  0  0  0
   32.0340   30.5073   23.4417 H   0  0  0  0  0  0
   27.1087   30.2652   27.4739 H   0  0  0  0  0  0
   25.3782   29.1651   25.2959 H   0  0  0  0  0  0
   23.7961   28.0224   26.9690 H   0  0  0  0  0  0
   25.9900   28.5766   29.0093 H   0  0  0  0  0  0
   24.4256   29.4544   28.9154 H   0  0  0  0  0  0
   25.5644   26.7260   25.8051 H   0  0  0  0  0  0
   25.2109   26.0824   27.4445 H   0  0  0  0  0  0
   26.6891   27.0638   27.1645 H   0  0  0  0  0  0
   24.3736   27.7062   30.6218 H   0  0  0  0  0  0
   24.7850   26.4694   29.3858 H   0  0  0  0  0  0
   23.2206   27.3472   29.2919 H   0  0  0  0  0  0
   41.3810   13.4496   37.8544 H   0  0  0  0  0  0
  1  2  1  0  0  0
  1 73  1  0  0  0
  1 74  1  0  0  0
  1 75  1  0  0  0
  2  3  1  0  0  0
  2  5  1  0  0  0
  2 76  1  0  0  0
  3  4  2  0  0  0
  3  6  1  0  0  0
  5 77  1  0  0  0
  5 78  1  0  0  0
  5 79  1  0  0  0
  6  7  1  0  0  0
  6 80  1  0  0  0
  7  8  1  0  0  0
  7 10  1  0  0  0
  7 81  1  0  0  0
  8  9  2  0  0  0
  8 14  1  0  0  0
 10 11  1  0  0  0
 10 82  1  0  0  0
 10 83  1  0  0  0
 11 12  2  0  0  0
 11 13  1  0  0  0
 13 84  1  0  0  0
 13 85  1  0  0  0
 14 15  1  0  0  0
 14 86  1  0  0  0
 15 16  1  0  0  0
 15 18  1  0  0  0
 15 87  1  0  0  0
 16 17  2  0  0  0
 16 20  1  0  0  0
 18 19  1  0  0  0
 18 88  1  0  0  0
 18 89  1  0  0  0
 19 90  1  0  0  0
 20 21  1  0  0  0
 20 91  1  0  0  0
 21 22  1  0  0  0
 21 24  1  0  0  0
 21 92  1  0  0  0
 22 23  2  0  0  0
 22 31  1  0  0  0
 24 25  1  0  0  0
 24 93  1  0  0  0
 24 94  1  0  0  0
 25 26  1  0  0  0
 25 95  1  0  0  0
 25 96  1  0  0  0
 26 27  1  0  0  0
 26 97  1  0  0  0
 26 98  1  0  0  0
 27 28  1  0  0  0
 27 99  1  0  0  0
 28 29  2  0  0  0
 28 30  1  0  0  0
 29100  1  0  0  0
 29149  1  0  0  0
 30101  1  0  0  0
 30102  1  0  0  0
 31 32  1  0  0  0
 31103  1  0  0  0
 32 33  1  0  0  0
 32 35  1  0  0  0
 32104  1  0  0  0
 33 34  2  0  0  0
 33 36  1  0  0  0
 35105  1  0  0  0
 35106  1  0  0  0
 35107  1  0  0  0
 36 37  1  0  0  0
 36 42  1  0  0  0
 37 38  1  0  0  0
 37 40  1  0  0  0
 37108  1  0  0  0
 38 39  2  0  0  0
 38 43  1  0  0  0
 40 41  1  0  0  0
 40109  1  0  0  0
 40110  1  0  0  0
 41 42  1  0  0  0
 41111  1  0  0  0
 41112  1  0  0  0
 42113  1  0  0  0
 42114  1  0  0  0
 43 44  1  0  0  0
 43115  1  0  0  0
 44 45  1  0  0  0
 44 47  1  0  0  0
 44116  1  0  0  0
 45 46  2  0  0  0
 45 50  1  0  0  0
 47 48  1  0  0  0
 47 49  1  0  0  0
 47117  1  0  0  0
 48118  1  0  0  0
 49119  1  0  0  0
 49120  1  0  0  0
 49121  1  0  0  0
 50 51  1  0  0  0
 50122  1  0  0  0
 51 52  1  0  0  0
 51 54  1  0  0  0
 51123  1  0  0  0
 52 53  2  0  0  0
 52 56  1  0  0  0
 54 55  1  0  0  0
 54124  1  0  0  0
 54125  1  0  0  0
 55126  1  0  0  0
 56 57  1  0  0  0
 56127  1  0  0  0
 57 58  1  0  0  0
 57 60  1  0  0  0
 57128  1  0  0  0
 58 59  2  0  0  0
 58 64  1  0  0  0
 60 61  1  0  0  0
 60 62  1  0  0  0
 60129  1  0  0  0
 61 63  1  0  0  0
 61130  1  0  0  0
 61131  1  0  0  0
 62132  1  0  0  0
 62133  1  0  0  0
 62134  1  0  0  0
 63135  1  0  0  0
 63136  1  0  0  0
 63137  1  0  0  0
 64 65  1  0  0  0
 64138  1  0  0  0
 65 66  1  0  0  0
 65 68  1  0  0  0
 65139  1  0  0  0
 66 67  1  0  0  0
 66 72  2  0  0  0
 68 69  1  0  0  0
 68 70  1  0  0  0
 68140  1  0  0  0
 69 71  1  0  0  0
 69141  1  0  0  0
 69142  1  0  0  0
 70143  1  0  0  0
 70144  1  0  0  0
 70145  1  0  0  0
 71146  1  0  0  0
 71147  1  0  0  0
 71148  1  0  0  0
M  CHG  3   1   1  29   1  67  -1
M  END
> <s_m_source_file>
../4joe_ligand.sdf

> <i_m_source_file_index>
1

> <s_epik_input>
W05IMytdW0NAQEhdKFtDSDNdKUMoPU8pW05IXVtDQEBIXShbQ0gyXUMoPU8pW05IMl0pQyg9TylbTkhdW0NAQEhdKFtDSDJdW09IXSlDKD1PKVtOSF1bQ0BASF0oW0NIMl1bQ0gyXVtDSDJdW05IXS9DKD1OXFtIXSlbTkgyXSlDKD1PKVtOSF1bQ0BASF0oW0NIM10pQyg9TylOMVtDQEBIXShbQ0gyXVtDSDJdW0NIMl0xKUMoPU8pW05IXVtDQEBIXShbQ0BIXShbT0hdKVtDSDNdKUMoPU8pW05IXVtDQEBIXShbQ0gyXVtPSF0pQyg9TylbTkhdW0NAQEhdKFtDQEBIXShbQ0gzXSlbQ0gyXVtDSDNdKUMoPU8pW05IXVtDQEhdKEMoPU8pW09IXSlbQ0BASF0oW0NIM10pW0NIMl1bQ0gzXQ==

> <s_epik_cmdline>
J2VwaWtfYXBwJywgJy1pbWFlJywgJ2xpZ2FuZF9wcm8ubWFlJywgJy1vbWFlJywgJ2xpZ2FuZF9wcmVwLm1hZScsICctbXMnLCAnMScsICctcGgnLCAnNycsICctcGh0JywgJzAuNScsICctbnQn

> <r_epik_Ionization_Penalty>
  0.1310

> <r_epik_Ionization_Penalty_Charging>
  0.1310

> <r_epik_Ionization_Penalty_Neutral>
  0.0000

> <r_epik_State_Penalty>
  0.1202

> <r_epik_Charging_Adjusted_Penalty>
0.251142154401265

> <i_epik_Tot_Q>
1

> <i_epik_Tot_abs_Q>
3

> <s_epik_Chemistry_Notes>
This compound has an imine and may undergo hydrolysis.

$$$$
