4jof_ligand
                    3D
 Schrodinger Suite 2020-3.
123123  0  0  1  0            999 V2000
   22.6960   27.3320   16.2490 N   0  3  0  0  0  0
   22.0110   28.5070   15.7280 C   0  0  2  0  0  0
   20.4940   28.3340   15.8380 C   0  0  0  0  0  0
   19.7630   29.2940   16.1100 O   0  0  0  0  0  0
   22.4230   28.7630   14.2780 C   0  0  0  0  0  0
   22.3020   30.2120   13.8510 C   0  0  0  0  0  0
   23.5140   30.6540   13.0390 C   0  0  0  0  0  0
   24.7370   30.6700   13.8400 N   0  0  0  0  0  0
   25.4890   31.7460   14.0580 C   0  0  0  0  0  0
   26.5850   31.6540   14.8050 N   0  0  0  0  0  0
   25.1520   32.9120   13.5250 N   0  3  0  0  0  0
   20.0250   27.1030   15.6450 N   0  0  0  0  0  0
   18.5920   26.8290   15.6810 C   0  0  2  0  0  0
   18.1860   26.0700   16.9380 C   0  0  0  0  0  0
   18.8250   25.0880   17.3060 O   0  0  0  0  0  0
   18.1760   26.0290   14.4520 C   0  0  0  0  0  0
   18.2610   26.7380   13.1020 C   0  0  0  0  0  0
   18.1210   25.7360   11.9680 C   0  0  0  0  0  0
   17.2000   27.8130   13.0020 C   0  0  0  0  0  0
   17.1130   26.5300   17.5940 N   0  0  0  0  0  0
   16.5680   25.8530   18.7720 C   0  0  2  0  0  0
   15.8470   24.5630   18.3890 C   0  0  0  0  0  0
   15.3270   24.4560   17.2790 O   0  0  0  0  0  0
   15.5550   26.8660   19.3080 C   0  0  0  0  0  0
   15.0990   27.5990   18.0970 C   0  0  0  0  0  0
   16.3320   27.7290   17.2400 C   0  0  0  0  0  0
   15.8240   23.6090   19.3120 N   0  0  0  0  0  0
   15.0240   22.4080   19.1510 C   0  0  2  0  0  0
   14.2000   22.2510   20.4070 C   0  0  0  0  0  0
   14.7080   22.4370   21.5170 O   0  0  0  0  0  0
   15.8990   21.1630   18.9720 C   0  0  2  0  0  0
   16.6530   21.2790   17.7620 O   0  0  0  0  0  0
   15.0500   19.9020   18.8940 C   0  0  0  0  0  0
   12.9260   21.9180   20.2400 N   0  0  0  0  0  0
   12.0730   21.6030   21.3720 C   0  0  2  0  0  0
   11.4600   20.2350   21.1790 C   0  0  0  0  0  0
   10.9990   19.9000   20.0780 O   0  0  0  0  0  0
   10.9520   22.6300   21.5310 C   0  0  0  0  0  0
   11.4570   23.9150   21.8460 O   0  0  0  0  0  0
   11.4450   19.4550   22.2510 N   0  0  0  0  0  0
   10.7650   18.1680   22.2510 C   0  0  2  0  0  0
    9.3530   18.4140   22.7480 C   0  0  0  0  0  0
    9.1710   19.0120   23.8190 O   0  0  0  0  0  0
   11.4710   17.1820   23.2090 C   0  0  2  0  0  0
   12.9360   16.9820   22.8080 C   0  0  0  0  0  0
   10.7380   15.8690   23.2630 C   0  0  0  0  0  0
   13.8020   16.4300   23.9280 C   0  0  0  0  0  0
    8.3600   17.9480   22.0000 N   0  0  0  0  0  0
    6.9560   18.2320   22.3020 C   0  0  2  0  0  0
    6.0500   17.0340   22.0520 C   0  0  0  0  0  0
    6.4750   15.9900   21.5200 O   0  5  0  0  0  0
    6.4160   19.4230   21.4770 C   0  0  2  0  0  0
    6.4740   19.1330   19.9750 C   0  0  0  0  0  0
    7.1780   20.7020   21.8000 C   0  0  0  0  0  0
    5.8450   20.2350   19.1170 C   0  0  0  0  0  0
    4.8650   17.1240   22.3940 O   0  0  0  0  0  0
   22.3896   27.1612   17.2916 H   0  0  0  0  0  0
   23.7833   27.4933   16.2081 H   0  0  0  0  0  0
   22.4324   26.4542   15.6408 H   0  0  0  0  0  0
   22.3345   29.3481   16.3588 H   0  0  0  0  0  0
   23.4738   28.4695   14.1381 H   0  0  0  0  0  0
   21.7845   28.1714   13.6055 H   0  0  0  0  0  0
   21.4016   30.3378   13.2318 H   0  0  0  0  0  0
   22.2262   30.8519   14.7425 H   0  0  0  0  0  0
   23.6645   29.9610   12.1981 H   0  0  0  0  0  0
   23.3452   31.6695   12.6515 H   0  0  0  0  0  0
   25.0959   29.7447   14.3145 H   0  0  0  0  0  0
   26.8684   30.6884   15.2492 H   0  0  0  0  0  0
   27.2084   32.5435   14.9788 H   0  0  0  0  0  0
   24.2461   32.9926   12.9063 H   0  0  0  0  0  0
   20.7366   26.2858   15.4561 H   0  0  0  0  0  0
   18.1197   27.8224   15.6872 H   0  0  0  0  0  0
   18.8164   25.1394   14.3596 H   0  0  0  0  0  0
   17.1266   25.7161   14.5561 H   0  0  0  0  0  0
   19.2438   27.2240   13.0133 H   0  0  0  0  0  0
   18.9008   24.9658   12.0610 H   0  0  0  0  0  0
   18.2313   26.2550   11.0044 H   0  0  0  0  0  0
   17.1296   25.2620   12.0179 H   0  0  0  0  0  0
   17.3207   28.5255   13.8313 H   0  0  0  0  0  0
   16.2034   27.3508   13.0577 H   0  0  0  0  0  0
   17.3050   28.3438   12.0443 H   0  0  0  0  0  0
   17.3754   25.5814   19.4680 H   0  0  0  0  0  0
   14.7303   26.3327   19.8034 H   0  0  0  0  0  0
   16.0491   27.5307   20.0319 H   0  0  0  0  0  0
   14.3110   27.0201   17.5931 H   0  0  0  0  0  0
   14.7011   28.5814   18.3912 H   0  0  0  0  0  0
   16.9167   28.6303   17.4760 H   0  0  0  0  0  0
   16.1019   27.7124   16.1645 H   0  0  0  0  0  0
   16.4329   23.7469   20.2176 H   0  0  0  0  0  0
   14.4064   22.5539   18.2525 H   0  0  0  0  0  0
   16.6215   21.0885   19.7981 H   0  0  0  0  0  0
   17.3350   22.1300   17.6184 H   0  0  0  0  0  0
   14.4628   19.7976   19.8183 H   0  0  0  0  0  0
   15.7046   19.0261   18.7745 H   0  0  0  0  0  0
   14.3691   19.9711   18.0329 H   0  0  0  0  0  0
   12.5194   21.8834   19.2185 H   0  0  0  0  0  0
   12.7360   21.6226   22.2495 H   0  0  0  0  0  0
   10.3852   22.7025   20.5911 H   0  0  0  0  0  0
   10.2786   22.3152   22.3419 H   0  0  0  0  0  0
   10.7649   24.7577   21.9903 H   0  0  0  0  0  0
   11.9641   19.8028   23.1563 H   0  0  0  0  0  0
   10.7834   17.7810   21.2215 H   0  0  0  0  0  0
   11.4507   17.5938   24.2288 H   0  0  0  0  0  0
   12.9929   16.2734   21.9685 H   0  0  0  0  0  0
   13.3678   17.9468   22.5034 H   0  0  0  0  0  0
    9.6916   16.0449   23.5529 H   0  0  0  0  0  0
   11.2178   15.2114   24.0028 H   0  0  0  0  0  0
   10.7688   15.3909   22.2728 H   0  0  0  0  0  0
   14.8352   16.3133   23.5690 H   0  0  0  0  0  0
   13.4114   15.4519   24.2454 H   0  0  0  0  0  0
   13.7862   17.1252   24.7803 H   0  0  0  0  0  0
    8.6209   17.3297   21.1284 H   0  0  0  0  0  0
    6.9888   18.4593   23.3778 H   0  0  0  0  0  0
    5.3623   19.5795   21.7513 H   0  0  0  0  0  0
    7.5234   19.0295   19.6618 H   0  0  0  0  0  0
    5.9336   18.1991   19.7607 H   0  0  0  0  0  0
    7.1268   20.8961   22.8815 H   0  0  0  0  0  0
    6.7279   21.5446   21.2546 H   0  0  0  0  0  0
    8.2294   20.5888   21.4971 H   0  0  0  0  0  0
    5.9219   19.9612   18.0544 H   0  0  0  0  0  0
    6.3756   21.1828   19.2908 H   0  0  0  0  0  0
    4.7858   20.3524   19.3897 H   0  0  0  0  0  0
   25.7783   33.7989   13.7014 H   0  0  0  0  0  0
  1  2  1  0  0  0
  1 57  1  0  0  0
  1 58  1  0  0  0
  1 59  1  0  0  0
  2  3  1  0  0  0
  2  5  1  0  0  0
  2 60  1  0  0  0
  3  4  2  0  0  0
  3 12  1  0  0  0
  5  6  1  0  0  0
  5 61  1  0  0  0
  5 62  1  0  0  0
  6  7  1  0  0  0
  6 63  1  0  0  0
  6 64  1  0  0  0
  7  8  1  0  0  0
  7 65  1  0  0  0
  7 66  1  0  0  0
  8  9  1  0  0  0
  8 67  1  0  0  0
  9 10  1  0  0  0
  9 11  2  0  0  0
 10 68  1  0  0  0
 10 69  1  0  0  0
 11 70  1  0  0  0
 11123  1  0  0  0
 12 13  1  0  0  0
 12 71  1  0  0  0
 13 14  1  0  0  0
 13 16  1  0  0  0
 13 72  1  0  0  0
 14 15  2  0  0  0
 14 20  1  0  0  0
 16 17  1  0  0  0
 16 73  1  0  0  0
 16 74  1  0  0  0
 17 18  1  0  0  0
 17 19  1  0  0  0
 17 75  1  0  0  0
 18 76  1  0  0  0
 18 77  1  0  0  0
 18 78  1  0  0  0
 19 79  1  0  0  0
 19 80  1  0  0  0
 19 81  1  0  0  0
 20 21  1  0  0  0
 20 26  1  0  0  0
 21 22  1  0  0  0
 21 24  1  0  0  0
 21 82  1  0  0  0
 22 23  2  0  0  0
 22 27  1  0  0  0
 24 25  1  0  0  0
 24 83  1  0  0  0
 24 84  1  0  0  0
 25 26  1  0  0  0
 25 85  1  0  0  0
 25 86  1  0  0  0
 26 87  1  0  0  0
 26 88  1  0  0  0
 27 28  1  0  0  0
 27 89  1  0  0  0
 28 29  1  0  0  0
 28 31  1  0  0  0
 28 90  1  0  0  0
 29 30  2  0  0  0
 29 34  1  0  0  0
 31 32  1  0  0  0
 31 33  1  0  0  0
 31 91  1  0  0  0
 32 92  1  0  0  0
 33 93  1  0  0  0
 33 94  1  0  0  0
 33 95  1  0  0  0
 34 35  1  0  0  0
 34 96  1  0  0  0
 35 36  1  0  0  0
 35 38  1  0  0  0
 35 97  1  0  0  0
 36 37  2  0  0  0
 36 40  1  0  0  0
 38 39  1  0  0  0
 38 98  1  0  0  0
 38 99  1  0  0  0
 39100  1  0  0  0
 40 41  1  0  0  0
 40101  1  0  0  0
 41 42  1  0  0  0
 41 44  1  0  0  0
 41102  1  0  0  0
 42 43  2  0  0  0
 42 48  1  0  0  0
 44 45  1  0  0  0
 44 46  1  0  0  0
 44103  1  0  0  0
 45 47  1  0  0  0
 45104  1  0  0  0
 45105  1  0  0  0
 46106  1  0  0  0
 46107  1  0  0  0
 46108  1  0  0  0
 47109  1  0  0  0
 47110  1  0  0  0
 47111  1  0  0  0
 48 49  1  0  0  0
 48112  1  0  0  0
 49 50  1  0  0  0
 49 52  1  0  0  0
 49113  1  0  0  0
 50 51  1  0  0  0
 50 56  2  0  0  0
 52 53  1  0  0  0
 52 54  1  0  0  0
 52114  1  0  0  0
 53 55  1  0  0  0
 53115  1  0  0  0
 53116  1  0  0  0
 54117  1  0  0  0
 54118  1  0  0  0
 54119  1  0  0  0
 55120  1  0  0  0
 55121  1  0  0  0
 55122  1  0  0  0
M  CHG  3   1   1  11   1  51  -1
M  END
> <s_m_source_file>
../4jof_ligand.sdf

> <i_m_source_file_index>
1

> <s_epik_input>
W0hdL049QyhbTkgyXSlcW05IXVtDSDJdW0NIMl1bQ0gyXVtDQEhdKFtOSDMrXSlDKD1PKVtOSF1bQ0BASF0oW0NIMl1bQ0hdKFtDSDNdKVtDSDNdKUMoPU8pTjFbQ0BASF0oW0NIMl1bQ0gyXVtDSDJdMSlDKD1PKVtOSF1bQ0BASF0oW0NASF0oW09IXSlbQ0gzXSlDKD1PKVtOSF1bQ0BASF0oW0NIMl1bT0hdKUMoPU8pW05IXVtDQEBIXShbQ0BASF0oW0NIM10pW0NIMl1bQ0gzXSlDKD1PKVtOSF1bQ0BIXShDKD1PKVtPSF0pW0NAQEhdKFtDSDNdKVtDSDJdW0NIM10=

> <s_epik_cmdline>
J2VwaWtfYXBwJywgJy1pbWFlJywgJ2xpZ2FuZF9wcm8ubWFlJywgJy1vbWFlJywgJ2xpZ2FuZF9wcmVwLm1hZScsICctbXMnLCAnMScsICctcGgnLCAnNycsICctcGh0JywgJzAuNScsICctbnQn

> <r_epik_Ionization_Penalty>
  0.1306

> <r_epik_Ionization_Penalty_Charging>
  0.1306

> <r_epik_Ionization_Penalty_Neutral>
  0.0000

> <r_epik_State_Penalty>
  0.1198

> <r_epik_Charging_Adjusted_Penalty>
0.250391775185727

> <i_epik_Tot_Q>
1

> <i_epik_Tot_abs_Q>
3

> <s_epik_Chemistry_Notes>
This compound has an imine and may undergo hydrolysis.

$$$$
