4jog_ligand
                    3D
 Schrodinger Suite 2020-3.
131131  0  0  1  0            999 V2000
   13.8530   25.1560   82.2610 N   0  3  0  0  0  0
   13.5200   25.6870   80.9420 C   0  0  2  0  0  0
   14.1440   27.0630   80.7030 C   0  0  0  0  0  0
   14.6010   27.3640   79.5960 O   0  0  0  0  0  0
   12.0000   25.7470   80.7550 C   0  0  0  0  0  0
   11.6500   26.5190   79.6160 O   0  0  0  0  0  0
   14.1570   27.8950   81.7420 N   0  0  0  0  0  0
   14.7940   29.2040   81.6660 C   0  0  2  0  0  0
   16.2970   29.0370   81.4790 C   0  0  0  0  0  0
   16.9570   29.8760   80.8640 O   0  0  0  0  0  0
   14.5330   30.0080   82.9460 C   0  0  0  0  0  0
   13.1230   30.5740   83.0590 C   0  0  0  0  0  0
   12.8030   31.0160   84.4820 C   0  0  0  0  0  0
   13.5060   32.2330   84.8830 N   0  0  0  0  0  0
   13.0170   33.4660   84.7490 C   0  0  0  0  0  0
   11.8170   33.6660   84.2120 N   0  0  0  0  0  0
   13.7300   34.5060   85.1570 N   0  3  0  0  0  0
   16.8260   27.9470   82.0290 N   0  0  0  0  0  0
   18.2630   27.7260   82.0570 C   0  0  2  0  0  0
   18.6700   26.7330   80.9700 C   0  0  0  0  0  0
   18.1000   25.6480   80.8690 O   0  0  0  0  0  0
   18.7100   27.2140   83.4330 C   0  0  0  0  0  0
   20.2200   27.0890   83.4850 C   0  0  0  0  0  0
   18.2150   28.1510   84.5400 C   0  0  0  0  0  0
   19.6550   27.1100   80.1470 N   0  0  0  0  0  0
   20.0570   26.2910   78.9980 C   0  0  2  0  0  0
   20.8700   25.0500   79.3800 C   0  0  0  0  0  0
   21.5100   25.0140   80.4350 O   0  0  0  0  0  0
   20.9300   27.2510   78.1820 C   0  0  0  0  0  0
   21.5230   28.1570   79.2050 C   0  0  0  0  0  0
   20.4280   28.3610   80.2300 C   0  0  0  0  0  0
   20.8290   24.0560   78.4990 N   0  0  0  0  0  0
   21.6310   22.8450   78.6220 C   0  0  2  0  0  0
   22.4200   22.6740   77.3430 C   0  0  0  0  0  0
   21.8840   22.8770   76.2480 O   0  0  0  0  0  0
   20.7390   21.6200   78.8020 C   0  0  2  0  0  0
   19.9910   21.7680   80.0120 O   0  0  0  0  0  0
   21.5760   20.3330   78.8780 C   0  0  0  0  0  0
   23.6870   22.2850   77.4670 N   0  0  0  0  0  0
   24.5020   21.9690   76.2980 C   0  0  2  0  0  0
   25.1080   20.5880   76.4680 C   0  0  0  0  0  0
   25.5500   20.2280   77.5620 O   0  0  0  0  0  0
   25.6260   22.9910   76.1100 C   0  0  0  0  0  0
   25.1130   24.2680   75.7520 O   0  0  0  0  0  0
   25.1160   19.8210   75.3830 N   0  0  0  0  0  0
   25.7680   18.5170   75.3270 C   0  0  2  0  0  0
   27.2080   18.7630   74.8960 C   0  0  0  0  0  0
   27.4360   19.4140   73.8710 O   0  0  0  0  0  0
   25.0860   17.6050   74.2780 C   0  0  2  0  0  0
   23.6040   17.4160   74.6020 C   0  0  0  0  0  0
   25.7870   16.2650   74.2030 C   0  0  0  0  0  0
   22.7920   16.8310   73.4370 C   0  0  0  0  0  0
   28.1770   18.2620   75.6680 N   0  0  0  0  0  0
   29.5980   18.5230   75.4070 C   0  0  2  0  0  0
   30.5010   17.3040   75.6280 C   0  0  0  0  0  0
   30.0770   16.2430   76.1040 O   0  5  0  0  0  0
   30.1470   19.6970   76.2680 C   0  0  2  0  0  0
   30.0670   19.3830   77.7630 C   0  0  0  0  0  0
   29.4150   21.0050   75.9540 C   0  0  0  0  0  0
   30.7570   20.4430   78.6320 C   0  0  0  0  0  0
   31.6990   17.3680   75.3310 O   0  0  0  0  0  0
   14.9463   25.1205   82.3766 H   0  0  0  0  0  0
   13.4404   24.1414   82.3627 H   0  0  0  0  0  0
   13.4231   25.8062   83.0372 H   0  0  0  0  0  0
   13.9654   24.9711   80.2356 H   0  0  0  0  0  0
   11.6065   24.7285   80.6215 H   0  0  0  0  0  0
   11.5391   26.2047   81.6428 H   0  0  0  0  0  0
   10.5919   26.6559   79.3483 H   0  0  0  0  0  0
   13.6709   27.5732   82.6748 H   0  0  0  0  0  0
   14.3437   29.7042   80.7959 H   0  0  0  0  0  0
   14.6902   29.3626   83.8228 H   0  0  0  0  0  0
   15.2252   30.8617   82.9903 H   0  0  0  0  0  0
   13.0238   31.4461   82.3959 H   0  0  0  0  0  0
   12.3943   29.8045   82.7643 H   0  0  0  0  0  0
   11.7244   31.2127   84.5710 H   0  0  0  0  0  0
   13.0901   30.2212   85.1862 H   0  0  0  0  0  0
   14.5091   32.1669   85.3296 H   0  0  0  0  0  0
   11.2176   32.8093   83.8704 H   0  0  0  0  0  0
   11.4238   34.6882   84.1094 H   0  0  0  0  0  0
   14.7237   34.3508   85.6025 H   0  0  0  0  0  0
   16.1464   27.2028   82.4699 H   0  0  0  0  0  0
   18.7102   28.7109   81.8568 H   0  0  0  0  0  0
   18.2812   26.2144   83.5968 H   0  0  0  0  0  0
   20.5598   26.4142   82.6855 H   0  0  0  0  0  0
   20.5207   26.6813   84.4614 H   0  0  0  0  0  0
   20.6750   28.0808   83.3458 H   0  0  0  0  0  0
   17.1191   28.2315   84.4894 H   0  0  0  0  0  0
   18.6624   29.1468   84.4048 H   0  0  0  0  0  0
   18.5082   27.7473   85.5203 H   0  0  0  0  0  0
   19.1545   25.9129   78.4955 H   0  0  0  0  0  0
   21.6976   26.6784   77.6408 H   0  0  0  0  0  0
   20.3019   27.7948   77.4610 H   0  0  0  0  0  0
   22.4096   27.6796   79.6478 H   0  0  0  0  0  0
   21.8158   29.1048   78.7298 H   0  0  0  0  0  0
   19.7753   29.2122   79.9862 H   0  0  0  0  0  0
   20.8221   28.4816   81.2499 H   0  0  0  0  0  0
   20.1474   24.1799   77.6445 H   0  0  0  0  0  0
   22.2809   22.9778   79.4995 H   0  0  0  0  0  0
   20.0103   21.5561   77.9805 H   0  0  0  0  0  0
   19.3279   22.6353   80.1461 H   0  0  0  0  0  0
   22.1530   20.2155   77.9489 H   0  0  0  0  0  0
   20.9082   19.4684   79.0068 H   0  0  0  0  0  0
   22.2657   20.3941   79.7327 H   0  0  0  0  0  0
   24.1176   22.2037   78.4759 H   0  0  0  0  0  0
   23.8178   22.0012   75.4373 H   0  0  0  0  0  0
   26.1900   23.0926   77.0489 H   0  0  0  0  0  0
   26.3016   22.6504   75.3115 H   0  0  0  0  0  0
   25.8011   25.1092   75.5820 H   0  0  0  0  0  0
   24.5968   20.2148   74.4968 H   0  0  0  0  0  0
   25.6934   18.0683   76.3285 H   0  0  0  0  0  0
   25.1616   18.0761   73.2869 H   0  0  0  0  0  0
   23.4998   16.7282   75.4541 H   0  0  0  0  0  0
   23.1579   18.3881   74.8588 H   0  0  0  0  0  0
   26.8506   16.4202   73.9694 H   0  0  0  0  0  0
   25.3241   15.6526   73.4151 H   0  0  0  0  0  0
   25.6955   15.7487   75.1700 H   0  0  0  0  0  0
   21.7403   16.7233   73.7408 H   0  0  0  0  0  0
   23.1980   15.8454   73.1656 H   0  0  0  0  0  0
   22.8562   17.5053   72.5703 H   0  0  0  0  0  0
   27.8807   17.6358   76.5224 H   0  0  0  0  0  0
   29.5733   18.7673   74.3348 H   0  0  0  0  0  0
   31.2090   19.8375   76.0183 H   0  0  0  0  0  0
   29.0122   19.3314   78.0709 H   0  0  0  0  0  0
   30.5546   18.4171   77.9614 H   0  0  0  0  0  0
   29.4833   21.2138   74.8762 H   0  0  0  0  0  0
   29.8782   21.8287   76.5171 H   0  0  0  0  0  0
   28.3578   20.9121   76.2432 H   0  0  0  0  0  0
   30.6666   20.1636   79.6921 H   0  0  0  0  0  0
   30.2783   21.4197   78.4681 H   0  0  0  0  0  0
   31.8207   20.5055   78.3587 H   0  0  0  0  0  0
   13.3281   35.5244   85.0501 H   0  0  0  0  0  0
  1  2  1  0  0  0
  1 62  1  0  0  0
  1 63  1  0  0  0
  1 64  1  0  0  0
  2  3  1  0  0  0
  2  5  1  0  0  0
  2 65  1  0  0  0
  3  4  2  0  0  0
  3  7  1  0  0  0
  5  6  1  0  0  0
  5 66  1  0  0  0
  5 67  1  0  0  0
  6 68  1  0  0  0
  7  8  1  0  0  0
  7 69  1  0  0  0
  8  9  1  0  0  0
  8 11  1  0  0  0
  8 70  1  0  0  0
  9 10  2  0  0  0
  9 18  1  0  0  0
 11 12  1  0  0  0
 11 71  1  0  0  0
 11 72  1  0  0  0
 12 13  1  0  0  0
 12 73  1  0  0  0
 12 74  1  0  0  0
 13 14  1  0  0  0
 13 75  1  0  0  0
 13 76  1  0  0  0
 14 15  1  0  0  0
 14 77  1  0  0  0
 15 16  1  0  0  0
 15 17  2  0  0  0
 16 78  1  0  0  0
 16 79  1  0  0  0
 17 80  1  0  0  0
 17131  1  0  0  0
 18 19  1  0  0  0
 18 81  1  0  0  0
 19 20  1  0  0  0
 19 22  1  0  0  0
 19 82  1  0  0  0
 20 21  2  0  0  0
 20 25  1  0  0  0
 22 23  1  0  0  0
 22 24  1  0  0  0
 22 83  1  0  0  0
 23 84  1  0  0  0
 23 85  1  0  0  0
 23 86  1  0  0  0
 24 87  1  0  0  0
 24 88  1  0  0  0
 24 89  1  0  0  0
 25 26  1  0  0  0
 25 31  1  0  0  0
 26 27  1  0  0  0
 26 29  1  0  0  0
 26 90  1  0  0  0
 27 28  2  0  0  0
 27 32  1  0  0  0
 29 30  1  0  0  0
 29 91  1  0  0  0
 29 92  1  0  0  0
 30 31  1  0  0  0
 30 93  1  0  0  0
 30 94  1  0  0  0
 31 95  1  0  0  0
 31 96  1  0  0  0
 32 33  1  0  0  0
 32 97  1  0  0  0
 33 34  1  0  0  0
 33 36  1  0  0  0
 33 98  1  0  0  0
 34 35  2  0  0  0
 34 39  1  0  0  0
 36 37  1  0  0  0
 36 38  1  0  0  0
 36 99  1  0  0  0
 37100  1  0  0  0
 38101  1  0  0  0
 38102  1  0  0  0
 38103  1  0  0  0
 39 40  1  0  0  0
 39104  1  0  0  0
 40 41  1  0  0  0
 40 43  1  0  0  0
 40105  1  0  0  0
 41 42  2  0  0  0
 41 45  1  0  0  0
 43 44  1  0  0  0
 43106  1  0  0  0
 43107  1  0  0  0
 44108  1  0  0  0
 45 46  1  0  0  0
 45109  1  0  0  0
 46 47  1  0  0  0
 46 49  1  0  0  0
 46110  1  0  0  0
 47 48  2  0  0  0
 47 53  1  0  0  0
 49 50  1  0  0  0
 49 51  1  0  0  0
 49111  1  0  0  0
 50 52  1  0  0  0
 50112  1  0  0  0
 50113  1  0  0  0
 51114  1  0  0  0
 51115  1  0  0  0
 51116  1  0  0  0
 52117  1  0  0  0
 52118  1  0  0  0
 52119  1  0  0  0
 53 54  1  0  0  0
 53120  1  0  0  0
 54 55  1  0  0  0
 54 57  1  0  0  0
 54121  1  0  0  0
 55 56  1  0  0  0
 55 61  2  0  0  0
 57 58  1  0  0  0
 57 59  1  0  0  0
 57122  1  0  0  0
 58 60  1  0  0  0
 58123  1  0  0  0
 58124  1  0  0  0
 59125  1  0  0  0
 59126  1  0  0  0
 59127  1  0  0  0
 60128  1  0  0  0
 60129  1  0  0  0
 60130  1  0  0  0
M  CHG  3   1   1  17   1  56  -1
M  END
> <s_m_source_file>
../4jog_ligand.sdf

> <i_m_source_file_index>
1

> <s_epik_input>
W0hdL049QyhbTkgyXSlcW05IXVtDSDJdW0NIMl1bQ0gyXVtDQEhdKFtOSF1DKD1PKVtDQEBIXShbTkgzK10pW0NIMl1bT0hdKUMoPU8pW05IXVtDQEBIXShbQ0hdKFtDSDNdKVtDSDNdKUMoPU8pTjFbQ0BASF0oW0NIMl1bQ0gyXVtDSDJdMSlDKD1PKVtOSF1bQ0BASF0oW0NASF0oW09IXSlbQ0gzXSlDKD1PKVtOSF1bQ0BASF0oW0NIMl1bT0hdKUMoPU8pW05IXVtDQEBIXShbQ0BASF0oW0NIM10pW0NIMl1bQ0gzXSlDKD1PKVtOSF1bQ0BIXShDKD1PKVtPSF0pW0NAQEhdKFtDSDNdKVtDSDJdW0NIM10=

> <s_epik_cmdline>
J2VwaWtfYXBwJywgJy1pbWFlJywgJ2xpZ2FuZF9wcm8ubWFlJywgJy1vbWFlJywgJ2xpZ2FuZF9wcmVwLm1hZScsICctbXMnLCAnMScsICctcGgnLCAnNycsICctcGh0JywgJzAuNScsICctbnQn

> <r_epik_Ionization_Penalty>
  0.1518

> <r_epik_Ionization_Penalty_Charging>
  0.1518

> <r_epik_Ionization_Penalty_Neutral>
  0.0000

> <r_epik_State_Penalty>
  0.1409

> <r_epik_Charging_Adjusted_Penalty>
0.292645212011716

> <i_epik_Tot_Q>
1

> <i_epik_Tot_abs_Q>
3

> <s_epik_Chemistry_Notes>
This compound has an imine and may undergo hydrolysis.

$$$$
