4joh_ligand
                    3D
 Schrodinger Suite 2020-3.
 80 80  0  0  1  0            999 V2000
   22.1280   26.3330   42.6190 N   0  3  0  0  0  0
   21.0100   26.8750   43.4010 C   0  0  2  0  0  0
   19.8070   25.9350   43.4400 C   0  0  0  0  0  0
   19.3770   25.4310   42.4080 O   0  0  0  0  0  0
   20.6540   28.1730   42.6620 C   0  0  0  0  0  0
   21.3680   28.1010   41.3450 C   0  0  0  0  0  0
   22.5880   27.2810   41.5930 C   0  0  0  0  0  0
   19.2740   25.7070   44.6340 N   0  0  0  0  0  0
   18.1480   24.7990   44.8060 C   0  0  2  0  0  0
   16.9620   25.5500   45.3770 C   0  0  0  0  0  0
   17.1050   26.3270   46.3300 O   0  0  0  0  0  0
   18.5030   23.6520   45.7680 C   0  0  2  0  0  0
   19.6020   22.9080   45.2330 O   0  0  0  0  0  0
   17.3170   22.7250   45.9520 C   0  0  0  0  0  0
   15.7930   25.3270   44.7890 N   0  0  0  0  0  0
   14.5550   25.8600   45.3310 C   0  0  2  0  0  0
   13.6670   24.7120   45.7420 C   0  0  0  0  0  0
   13.7850   23.6060   45.2190 O   0  0  0  0  0  0
   13.8280   26.7180   44.2930 C   0  0  0  0  0  0
   14.5870   27.8690   43.9890 O   0  0  0  0  0  0
   12.7860   24.9770   46.6940 N   0  0  0  0  0  0
   11.7610   24.0200   47.0660 C   0  0  2  0  0  0
   10.3980   24.6440   46.8080 C   0  0  0  0  0  0
   10.1770   25.8280   47.0880 O   0  0  0  0  0  0
   11.9170   23.5800   48.5360 C   0  0  2  0  0  0
   13.2850   22.9310   48.7190 C   0  0  0  0  0  0
   10.7840   22.6280   48.9360 C   0  0  0  0  0  0
   13.5790   22.4700   50.1440 C   0  0  0  0  0  0
    9.4970   23.8500   46.2420 N   0  0  0  0  0  0
    8.1600   24.3250   45.9010 C   0  0  2  0  0  0
    7.1230   23.3650   46.4420 C   0  0  0  0  0  0
    7.4860   22.2950   46.9400 O   0  5  0  0  0  0
    7.9820   24.4660   44.3820 C   0  0  2  0  0  0
    8.3290   23.1530   43.6780 C   0  0  0  0  0  0
    8.8790   25.5770   43.8500 C   0  0  0  0  0  0
    8.0740   23.1770   42.1790 C   0  0  0  0  0  0
    5.9300   23.6530   46.4000 O   0  0  0  0  0  0
   22.9721   26.1137   43.2894 H   0  0  0  0  0  0
   21.8093   25.4080   42.1161 H   0  0  0  0  0  0
   21.3215   27.0050   44.4479 H   0  0  0  0  0  0
   19.5642   28.2287   42.5230 H   0  0  0  0  0  0
   20.9928   29.0364   43.2534 H   0  0  0  0  0  0
   20.7130   27.6285   40.5982 H   0  0  0  0  0  0
   21.6290   29.1168   41.0134 H   0  0  0  0  0  0
   23.4271   27.8716   41.9894 H   0  0  0  0  0  0
   22.9186   26.7259   40.7027 H   0  0  0  0  0  0
   19.7028   26.2228   45.5058 H   0  0  0  0  0  0
   17.9293   24.4194   43.7970 H   0  0  0  0  0  0
   18.8313   24.0411   46.7431 H   0  0  0  0  0  0
   20.5589   23.4106   45.0287 H   0  0  0  0  0  0
   16.4688   23.2920   46.3633 H   0  0  0  0  0  0
   17.5883   21.9159   46.6461 H   0  0  0  0  0  0
   17.0337   22.2947   44.9801 H   0  0  0  0  0  0
   15.7759   24.7226   43.8701 H   0  0  0  0  0  0
   14.8355   26.4723   46.2007 H   0  0  0  0  0  0
   13.6792   26.1332   43.3733 H   0  0  0  0  0  0
   12.8511   27.0278   44.6926 H   0  0  0  0  0  0
   14.2101   28.5990   43.2575 H   0  0  0  0  0  0
   12.8435   25.9485   47.2067 H   0  0  0  0  0  0
   11.9011   23.1414   46.4192 H   0  0  0  0  0  0
   11.8576   24.4528   49.2028 H   0  0  0  0  0  0
   13.3592   22.0436   48.0732 H   0  0  0  0  0  0
   14.0714   23.6500   48.4459 H   0  0  0  0  0  0
    9.8156   23.1292   48.7910 H   0  0  0  0  0  0
   10.8970   22.3475   49.9936 H   0  0  0  0  0  0
   10.8265   21.7242   48.3104 H   0  0  0  0  0  0
   14.5805   22.0168   50.1835 H   0  0  0  0  0  0
   12.8281   21.7273   50.4514 H   0  0  0  0  0  0
   13.5403   23.3337   50.8241 H   0  0  0  0  0  0
    9.7812   22.8086   46.0307 H   0  0  0  0  0  0
    8.0673   25.3084   46.3851 H   0  0  0  0  0  0
    6.9321   24.7192   44.1731 H   0  0  0  0  0  0
    9.3959   22.9289   43.8250 H   0  0  0  0  0  0
    7.7218   22.3388   44.1004 H   0  0  0  0  0  0
    8.6309   26.5221   44.3552 H   0  0  0  0  0  0
    8.7221   25.6879   42.7669 H   0  0  0  0  0  0
    9.9315   25.3229   44.0439 H   0  0  0  0  0  0
    8.3458   22.2034   41.7452 H   0  0  0  0  0  0
    8.6829   23.9675   41.7161 H   0  0  0  0  0  0
    7.0088   23.3775   41.9915 H   0  0  0  0  0  0
  1  2  1  0  0  0
  1  7  1  0  0  0
  1 38  1  0  0  0
  1 39  1  0  0  0
  2  3  1  0  0  0
  2  5  1  0  0  0
  2 40  1  0  0  0
  3  4  2  0  0  0
  3  8  1  0  0  0
  5  6  1  0  0  0
  5 41  1  0  0  0
  5 42  1  0  0  0
  6  7  1  0  0  0
  6 43  1  0  0  0
  6 44  1  0  0  0
  7 45  1  0  0  0
  7 46  1  0  0  0
  8  9  1  0  0  0
  8 47  1  0  0  0
  9 10  1  0  0  0
  9 12  1  0  0  0
  9 48  1  0  0  0
 10 11  2  0  0  0
 10 15  1  0  0  0
 12 13  1  0  0  0
 12 14  1  0  0  0
 12 49  1  0  0  0
 13 50  1  0  0  0
 14 51  1  0  0  0
 14 52  1  0  0  0
 14 53  1  0  0  0
 15 16  1  0  0  0
 15 54  1  0  0  0
 16 17  1  0  0  0
 16 19  1  0  0  0
 16 55  1  0  0  0
 17 18  2  0  0  0
 17 21  1  0  0  0
 19 20  1  0  0  0
 19 56  1  0  0  0
 19 57  1  0  0  0
 20 58  1  0  0  0
 21 22  1  0  0  0
 21 59  1  0  0  0
 22 23  1  0  0  0
 22 25  1  0  0  0
 22 60  1  0  0  0
 23 24  2  0  0  0
 23 29  1  0  0  0
 25 26  1  0  0  0
 25 27  1  0  0  0
 25 61  1  0  0  0
 26 28  1  0  0  0
 26 62  1  0  0  0
 26 63  1  0  0  0
 27 64  1  0  0  0
 27 65  1  0  0  0
 27 66  1  0  0  0
 28 67  1  0  0  0
 28 68  1  0  0  0
 28 69  1  0  0  0
 29 30  1  0  0  0
 29 70  1  0  0  0
 30 31  1  0  0  0
 30 33  1  0  0  0
 30 71  1  0  0  0
 31 32  1  0  0  0
 31 37  2  0  0  0
 33 34  1  0  0  0
 33 35  1  0  0  0
 33 72  1  0  0  0
 34 36  1  0  0  0
 34 73  1  0  0  0
 34 74  1  0  0  0
 35 75  1  0  0  0
 35 76  1  0  0  0
 35 77  1  0  0  0
 36 78  1  0  0  0
 36 79  1  0  0  0
 36 80  1  0  0  0
M  CHG  2   1   1  32  -1
M  END
> <s_m_source_file>
../4joh_ligand.sdf

> <i_m_source_file_index>
1

> <s_epik_input>
W0NIMl0xW0NIMl1bQ0gyXVtOSDIrXVtDQEBIXTFDKD1PKVtOSF1bQ0BASF0oW0NASF0oW09IXSlbQ0gzXSlDKD1PKVtOSF1bQ0BASF0oW0NIMl1bT0hdKUMoPU8pW05IXVtDQEBIXShbQ0BASF0oW0NIM10pW0NIMl1bQ0gzXSlDKD1PKVtOSF1bQ0BIXShDKD1PKVtPSF0pW0NAQEhdKFtDSDNdKVtDSDJdW0NIM10=

> <s_epik_cmdline>
J2VwaWtfYXBwJywgJy1pbWFlJywgJ2xpZ2FuZF9wcm8ubWFlJywgJy1vbWFlJywgJ2xpZ2FuZF9wcmVwLm1hZScsICctbXMnLCAnMScsICctcGgnLCAnNycsICctcGh0JywgJzAuNScsICctbnQn

> <r_epik_Ionization_Penalty>
  0.0418

> <r_epik_Ionization_Penalty_Charging>
  0.0418

> <r_epik_Ionization_Penalty_Neutral>
  0.0000

> <r_epik_State_Penalty>
  0.0351

> <r_epik_Charging_Adjusted_Penalty>
0.0769730650404338

> <i_epik_Tot_Q>
0

> <i_epik_Tot_abs_Q>
2

$$$$
