4joj_ligand
                    3D
 Schrodinger Suite 2020-3.
135136  0  0  1  0            999 V2000
   21.7660   21.7120   17.2320 N   0  3  0  0  0  0
   20.9710   22.1420   16.0860 C   0  0  2  0  0  0
   21.3350   23.5630   15.6490 C   0  0  0  0  0  0
   21.7250   24.3920   16.4730 O   0  0  0  0  0  0
   19.4740   22.0360   16.4010 C   0  0  0  0  0  0
   19.1490   22.6830   17.6230 O   0  0  0  0  0  0
   21.2150   23.8330   14.3510 N   0  0  0  0  0  0
   21.5010   25.1600   13.8120 C   0  0  2  0  0  0
   20.7120   26.2170   14.5730 C   0  0  0  0  0  0
   21.2470   27.2580   14.9550 O   0  0  0  0  0  0
   21.1600   25.2220   12.3200 C   0  0  0  0  0  0
   21.4050   26.5840   11.6810 C   0  0  0  0  0  0
   21.3110   26.5280   10.1580 C   0  0  0  0  0  0
   19.9680   26.1980    9.6850 N   0  0  0  0  0  0
   19.5980   24.9970    9.2510 C   0  0  0  0  0  0
   20.4740   24.0010    9.2240 N   0  3  0  0  0  0
   18.3530   24.7910    8.8390 N   0  0  0  0  0  0
   19.4330   25.9380   14.7880 N   0  0  0  0  0  0
   18.5790   26.8130   15.5730 C   0  0  2  0  0  0
   18.0310   26.0340   16.7600 C   0  0  0  0  0  0
   18.1790   24.8170   16.8140 O   0  0  0  0  0  0
   17.4430   27.3390   14.7060 C   0  0  0  0  0  0
   17.9080   28.0500   13.4720 C   0  0  0  0  0  0
   18.5830   29.2560   13.5640 C   0  0  0  0  0  0
   17.6660   27.5190   12.2160 C   0  0  0  0  0  0
   19.0110   29.9160   12.4270 C   0  0  0  0  0  0
   18.0910   28.1780   11.0770 C   0  0  0  0  0  0
   18.7650   29.3740   11.1850 C   0  0  0  0  0  0
   17.3880   26.7280   17.7140 N   0  0  0  0  0  0
   16.8760   26.0350   18.9040 C   0  0  2  0  0  0
   15.9270   24.8830   18.5680 C   0  0  0  0  0  0
   15.2290   24.9260   17.5570 O   0  0  0  0  0  0
   16.1370   27.1410   19.6750 C   0  0  0  0  0  0
   15.9250   28.2360   18.6900 C   0  0  0  0  0  0
   17.0730   28.1650   17.7360 C   0  0  0  0  0  0
   15.9280   23.8610   19.4140 N   0  0  0  0  0  0
   15.0630   22.7070   19.2300 C   0  0  2  0  0  0
   14.2440   22.5250   20.4920 C   0  0  0  0  0  0
   14.7640   22.6690   21.5970 O   0  0  0  0  0  0
   15.8930   21.4470   18.9730 C   0  0  2  0  0  0
   16.5940   21.6020   17.7370 O   0  0  0  0  0  0
   15.0040   20.2010   18.8940 C   0  0  0  0  0  0
   12.9620   22.2050   20.3350 N   0  0  0  0  0  0
   12.1060   21.8720   21.4610 C   0  0  2  0  0  0
   11.5170   20.4860   21.2640 C   0  0  0  0  0  0
   11.0890   20.1370   20.1530 O   0  0  0  0  0  0
   10.9690   22.8830   21.6120 C   0  0  0  0  0  0
   11.4700   24.1670   21.9440 O   0  0  0  0  0  0
   11.5010   19.6990   22.3350 N   0  0  0  0  0  0
   10.8250   18.4070   22.3370 C   0  0  2  0  0  0
    9.4060   18.6450   22.8300 C   0  0  0  0  0  0
    9.2080   19.2610   23.8790 O   0  0  0  0  0  0
   11.5400   17.4310   23.2900 C   0  0  2  0  0  0
   13.0030   17.2350   22.8830 C   0  0  0  0  0  0
   10.8020   16.1080   23.3820 C   0  0  0  0  0  0
   13.8870   16.7590   24.0310 C   0  0  0  0  0  0
    8.4230   18.1630   22.0740 N   0  0  0  0  0  0
    7.0140   18.4250   22.3630 C   0  0  2  0  0  0
    6.1430   17.1970   22.1300 C   0  0  0  0  0  0
    6.6050   16.1580   21.6120 O   0  5  0  0  0  0
    6.4620   19.6010   21.5140 C   0  0  2  0  0  0
    6.5080   19.2830   20.0220 C   0  0  0  0  0  0
    7.2230   20.8950   21.7970 C   0  0  0  0  0  0
    5.8750   20.3600   19.1410 C   0  0  0  0  0  0
    4.9500   17.2520   22.4590 O   0  0  0  0  0  0
   22.8354   21.7947   16.9881 H   0  0  0  0  0  0
   21.5249   20.6664   17.4739 H   0  0  0  0  0  0
   21.5368   22.3509   18.0976 H   0  0  0  0  0  0
   21.2375   21.4442   15.2785 H   0  0  0  0  0  0
   18.8951   22.5084   15.5937 H   0  0  0  0  0  0
   19.1908   20.9763   16.4835 H   0  0  0  0  0  0
   18.1092   22.6906   17.9817 H   0  0  0  0  0  0
   20.8908   23.0246   13.6791 H   0  0  0  0  0  0
   22.5797   25.3184   13.9583 H   0  0  0  0  0  0
   21.7752   24.4926   11.7727 H   0  0  0  0  0  0
   20.0955   24.9845   12.1770 H   0  0  0  0  0  0
   20.6536   27.3002   12.0449 H   0  0  0  0  0  0
   22.4107   26.9395   11.9497 H   0  0  0  0  0  0
   21.5840   27.5071    9.7376 H   0  0  0  0  0  0
   21.9998   25.7600    9.7761 H   0  0  0  0  0  0
   19.1841   26.9696    9.6727 H   0  0  0  0  0  0
   21.5067   24.1674    9.5645 H   0  0  0  0  0  0
   17.6235   25.6141    8.8597 H   0  0  0  0  0  0
   18.0508   23.7972    8.4769 H   0  0  0  0  0  0
   19.0229   25.0147   14.3530 H   0  0  0  0  0  0
   19.1977   27.6539   15.9196 H   0  0  0  0  0  0
   16.8102   26.4996   14.3819 H   0  0  0  0  0  0
   16.8382   28.0513   15.2865 H   0  0  0  0  0  0
   18.7791   29.6899   14.5445 H   0  0  0  0  0  0
   17.1349   26.5716   12.1243 H   0  0  0  0  0  0
   19.5423   30.8638   12.5134 H   0  0  0  0  0  0
   17.8926   27.7509   10.0940 H   0  0  0  0  0  0
   19.1038   29.8917   10.2876 H   0  0  0  0  0  0
   17.7160   25.5729   19.4433 H   0  0  0  0  0  0
   15.1812   26.7488   20.0526 H   0  0  0  0  0  0
   16.7561   27.4748   20.5207 H   0  0  0  0  0  0
   14.9679   28.0814   18.1703 H   0  0  0  0  0  0
   15.9053   29.2025   19.2148 H   0  0  0  0  0  0
   17.9513   28.7276   18.0854 H   0  0  0  0  0  0
   16.8043   28.4971   16.7223 H   0  0  0  0  0  0
   16.6106   23.9049   20.2755 H   0  0  0  0  0  0
   14.4226   22.9175   18.3608 H   0  0  0  0  0  0
   16.6507   21.3212   19.7605 H   0  0  0  0  0  0
   17.2864   22.4456   17.5994 H   0  0  0  0  0  0
   14.4618   20.0767   19.8430 H   0  0  0  0  0  0
   15.6298   19.3152   18.7104 H   0  0  0  0  0  0
   14.2824   20.3170   18.0719 H   0  0  0  0  0  0
   12.5546   22.1975   19.3133 H   0  0  0  0  0  0
   12.7614   21.9036   22.3439 H   0  0  0  0  0  0
   10.4145   22.9554   20.6647 H   0  0  0  0  0  0
   10.2886   22.5530   22.4108 H   0  0  0  0  0  0
   10.7757   25.0080   22.0877 H   0  0  0  0  0  0
   12.0194   20.0499   23.2395 H   0  0  0  0  0  0
   10.8449   18.0130   21.3102 H   0  0  0  0  0  0
   11.5320   17.8640   24.3012 H   0  0  0  0  0  0
   13.0633   16.4824   22.0830 H   0  0  0  0  0  0
   13.4138   18.1889   22.5207 H   0  0  0  0  0  0
    9.7578   16.2903   23.6759 H   0  0  0  0  0  0
   11.2881   15.4685   24.1335 H   0  0  0  0  0  0
   10.8253   15.6064   22.4033 H   0  0  0  0  0  0
   14.9201   16.6388   23.6727 H   0  0  0  0  0  0
   13.5140   15.7942   24.4052 H   0  0  0  0  0  0
   13.8645   17.5007   24.8430 H   0  0  0  0  0  0
    8.7012   17.5480   21.2055 H   0  0  0  0  0  0
    7.0249   18.6706   23.4352 H   0  0  0  0  0  0
    5.4093   19.7559   21.7929 H   0  0  0  0  0  0
    7.5549   19.1740   19.7025 H   0  0  0  0  0  0
    5.9665   18.3449   19.8302 H   0  0  0  0  0  0
    7.1840   21.1152   22.8740 H   0  0  0  0  0  0
    6.7617   21.7216   21.2367 H   0  0  0  0  0  0
    8.2712   20.7798   21.4840 H   0  0  0  0  0  0
    5.9471   20.0593   18.0854 H   0  0  0  0  0  0
    6.4054   21.3124   19.2880 H   0  0  0  0  0  0
    4.8170   20.4833   19.4157 H   0  0  0  0  0  0
   20.1677   23.0088    8.8611 H   0  0  0  0  0  0
  1  2  1  0  0  0
  1 66  1  0  0  0
  1 67  1  0  0  0
  1 68  1  0  0  0
  2  3  1  0  0  0
  2  5  1  0  0  0
  2 69  1  0  0  0
  3  4  2  0  0  0
  3  7  1  0  0  0
  5  6  1  0  0  0
  5 70  1  0  0  0
  5 71  1  0  0  0
  6 72  1  0  0  0
  7  8  1  0  0  0
  7 73  1  0  0  0
  8  9  1  0  0  0
  8 11  1  0  0  0
  8 74  1  0  0  0
  9 10  2  0  0  0
  9 18  1  0  0  0
 11 12  1  0  0  0
 11 75  1  0  0  0
 11 76  1  0  0  0
 12 13  1  0  0  0
 12 77  1  0  0  0
 12 78  1  0  0  0
 13 14  1  0  0  0
 13 79  1  0  0  0
 13 80  1  0  0  0
 14 15  1  0  0  0
 14 81  1  0  0  0
 15 16  2  0  0  0
 15 17  1  0  0  0
 16 82  1  0  0  0
 16135  1  0  0  0
 17 83  1  0  0  0
 17 84  1  0  0  0
 18 19  1  0  0  0
 18 85  1  0  0  0
 19 20  1  0  0  0
 19 22  1  0  0  0
 19 86  1  0  0  0
 20 21  2  0  0  0
 20 29  1  0  0  0
 22 23  1  0  0  0
 22 87  1  0  0  0
 22 88  1  0  0  0
 23 24  2  0  0  0
 23 25  1  0  0  0
 24 26  1  0  0  0
 24 89  1  0  0  0
 25 27  2  0  0  0
 25 90  1  0  0  0
 26 28  2  0  0  0
 26 91  1  0  0  0
 27 28  1  0  0  0
 27 92  1  0  0  0
 28 93  1  0  0  0
 29 30  1  0  0  0
 29 35  1  0  0  0
 30 31  1  0  0  0
 30 33  1  0  0  0
 30 94  1  0  0  0
 31 32  2  0  0  0
 31 36  1  0  0  0
 33 34  1  0  0  0
 33 95  1  0  0  0
 33 96  1  0  0  0
 34 35  1  0  0  0
 34 97  1  0  0  0
 34 98  1  0  0  0
 35 99  1  0  0  0
 35100  1  0  0  0
 36 37  1  0  0  0
 36101  1  0  0  0
 37 38  1  0  0  0
 37 40  1  0  0  0
 37102  1  0  0  0
 38 39  2  0  0  0
 38 43  1  0  0  0
 40 41  1  0  0  0
 40 42  1  0  0  0
 40103  1  0  0  0
 41104  1  0  0  0
 42105  1  0  0  0
 42106  1  0  0  0
 42107  1  0  0  0
 43 44  1  0  0  0
 43108  1  0  0  0
 44 45  1  0  0  0
 44 47  1  0  0  0
 44109  1  0  0  0
 45 46  2  0  0  0
 45 49  1  0  0  0
 47 48  1  0  0  0
 47110  1  0  0  0
 47111  1  0  0  0
 48112  1  0  0  0
 49 50  1  0  0  0
 49113  1  0  0  0
 50 51  1  0  0  0
 50 53  1  0  0  0
 50114  1  0  0  0
 51 52  2  0  0  0
 51 57  1  0  0  0
 53 54  1  0  0  0
 53 55  1  0  0  0
 53115  1  0  0  0
 54 56  1  0  0  0
 54116  1  0  0  0
 54117  1  0  0  0
 55118  1  0  0  0
 55119  1  0  0  0
 55120  1  0  0  0
 56121  1  0  0  0
 56122  1  0  0  0
 56123  1  0  0  0
 57 58  1  0  0  0
 57124  1  0  0  0
 58 59  1  0  0  0
 58 61  1  0  0  0
 58125  1  0  0  0
 59 60  1  0  0  0
 59 65  2  0  0  0
 61 62  1  0  0  0
 61 63  1  0  0  0
 61126  1  0  0  0
 62 64  1  0  0  0
 62127  1  0  0  0
 62128  1  0  0  0
 63129  1  0  0  0
 63130  1  0  0  0
 63131  1  0  0  0
 64132  1  0  0  0
 64133  1  0  0  0
 64134  1  0  0  0
M  CHG  3   1   1  16   1  60  -1
M  END
> <s_m_source_file>
../4joj_ligand.sdf

> <i_m_source_file_index>
1

> <s_epik_input>
W0hdL049QyhbTkgyXSlcW05IXVtDSDJdW0NIMl1bQ0gyXVtDQEhdKFtOSF1DKD1PKVtDQEBIXShbTkgzK10pW0NIMl1bT0hdKUMoPU8pW05IXVtDQEBIXShbQ0gyXWMxW2NIXVtjSF1bY0hdW2NIXVtjSF0xKUMoPU8pTjJbQ0BASF0oW0NIMl1bQ0gyXVtDSDJdMilDKD1PKVtOSF1bQ0BASF0oW0NASF0oW09IXSlbQ0gzXSlDKD1PKVtOSF1bQ0BASF0oW0NIMl1bT0hdKUMoPU8pW05IXVtDQEBIXShbQ0BASF0oW0NIM10pW0NIMl1bQ0gzXSlDKD1PKVtOSF1bQ0BIXShDKD1PKVtPSF0pW0NAQEhdKFtDSDNdKVtDSDJdW0NIM10=

> <s_epik_cmdline>
J2VwaWtfYXBwJywgJy1pbWFlJywgJ2xpZ2FuZF9wcm8ubWFlJywgJy1vbWFlJywgJ2xpZ2FuZF9wcmVwLm1hZScsICctbXMnLCAnMScsICctcGgnLCAnNycsICctcGh0JywgJzAuNScsICctbnQn

> <r_epik_Ionization_Penalty>
  0.1518

> <r_epik_Ionization_Penalty_Charging>
  0.1518

> <r_epik_Ionization_Penalty_Neutral>
  0.0000

> <r_epik_State_Penalty>
  0.1409

> <r_epik_Charging_Adjusted_Penalty>
0.292658073099575

> <i_epik_Tot_Q>
1

> <i_epik_Tot_abs_Q>
3

> <s_epik_Chemistry_Notes>
This compound has an imine and may undergo hydrolysis.

$$$$
