4jok_ligand
                    3D
 Schrodinger Suite 2020-3.
150151  0  0  1  0            999 V2000
   24.9420   20.5190   18.3320 N   0  3  0  0  0  0
   23.7340   21.3310   18.4340 C   0  0  2  0  0  0
   23.0150   21.4930   17.1000 C   0  0  0  0  0  0
   23.6350   21.4660   16.0360 O   0  0  0  0  0  0
   24.0520   22.7150   19.0100 C   0  0  0  0  0  0
   24.5550   22.6520   20.4380 C   0  0  0  0  0  0
   25.1000   23.6270   20.9590 O   0  0  0  0  0  0
   24.3810   21.5020   21.0790 N   0  0  0  0  0  0
   21.6990   21.6630   17.1710 N   0  0  0  0  0  0
   20.8970   21.9360   15.9880 C   0  0  2  0  0  0
   21.2280   23.3210   15.4390 C   0  0  0  0  0  0
   21.6750   24.1970   16.1790 O   0  0  0  0  0  0
   19.4080   21.8350   16.3270 C   0  0  0  0  0  0
   19.1040   22.5430   17.5200 O   0  0  0  0  0  0
   21.0170   23.5120   14.1410 N   0  0  0  0  0  0
   21.2860   24.7990   13.5100 C   0  0  2  0  0  0
   20.5470   25.9160   14.2380 C   0  0  0  0  0  0
   21.0790   27.0100   14.4280 O   0  0  0  0  0  0
   20.8770   24.7730   12.0380 C   0  0  0  0  0  0
   21.3050   26.0080   11.2650 C   0  0  0  0  0  0
   20.8990   25.9170    9.8030 C   0  0  0  0  0  0
   21.2410   24.6240    9.2190 N   0  0  0  0  0  0
   20.3490   23.7450    8.7730 C   0  0  0  0  0  0
   19.0540   24.0230    8.8320 N   0  3  0  0  0  0
   20.7520   22.5910    8.2590 N   0  0  0  0  0  0
   19.3160   25.6250   14.6400 N   0  0  0  0  0  0
   18.5050   26.5560   15.4130 C   0  0  2  0  0  0
   17.9420   25.8100   16.6140 C   0  0  0  0  0  0
   17.9520   24.5800   16.6290 O   0  0  0  0  0  0
   17.3710   27.1030   14.5500 C   0  0  0  0  0  0
   17.8490   27.7560   13.2780 C   0  0  0  0  0  0
   18.4010   29.0290   13.2970 C   0  0  0  0  0  0
   17.7470   27.1030   12.0570 C   0  0  0  0  0  0
   18.8410   29.6330   12.1380 C   0  0  0  0  0  0
   18.1840   27.7020   10.8910 C   0  0  0  0  0  0
   18.7290   28.9660   10.9400 C   0  0  0  0  0  0
   19.1660   29.5680    9.7830 O   0  0  0  0  0  0
   17.4490   26.5480   17.6250 N   0  0  0  0  0  0
   16.8710   25.9000   18.8070 C   0  0  2  0  0  0
   15.8950   24.7710   18.4690 C   0  0  0  0  0  0
   15.2020   24.7990   17.4500 O   0  0  0  0  0  0
   16.1430   27.0480   19.5090 C   0  0  0  0  0  0
   16.9510   28.2500   19.1600 C   0  0  0  0  0  0
   17.4760   28.0160   17.7580 C   0  0  0  0  0  0
   15.8580   23.7840   19.3500 N   0  0  0  0  0  0
   15.0000   22.6270   19.1880 C   0  0  2  0  0  0
   14.1970   22.4330   20.4620 C   0  0  0  0  0  0
   14.7250   22.6120   21.5590 O   0  0  0  0  0  0
   15.8460   21.3810   18.9290 C   0  0  2  0  0  0
   16.5420   21.5400   17.6880 O   0  0  0  0  0  0
   14.9800   20.1340   18.8630 C   0  0  0  0  0  0
   12.9250   22.0740   20.3150 N   0  0  0  0  0  0
   12.0810   21.7390   21.4520 C   0  0  2  0  0  0
   11.4950   20.3550   21.2500 C   0  0  0  0  0  0
   11.0690   20.0100   20.1440 O   0  0  0  0  0  0
   10.9430   22.7440   21.6170 C   0  0  0  0  0  0
   11.4430   24.0210   21.9610 O   0  0  0  0  0  0
   11.4800   19.5680   22.3190 N   0  0  0  0  0  0
   10.7970   18.2840   22.3120 C   0  0  2  0  0  0
    9.3830   18.5100   22.8220 C   0  0  0  0  0  0
    9.1910   19.1350   23.8660 O   0  0  0  0  0  0
   11.5300   17.2250   23.1620 C   0  0  2  0  0  0
   11.6960   17.6800   24.6090 C   0  0  0  0  0  0
   12.8900   16.8920   22.5530 C   0  0  0  0  0  0
   12.2720   16.6030   25.5090 C   0  0  0  0  0  0
    8.3980   18.0300   22.0690 N   0  0  0  0  0  0
    6.9910   18.3000   22.3500 C   0  0  2  0  0  0
    6.1180   17.0820   22.1130 C   0  0  0  0  0  0
    6.5840   16.0380   21.6100 O   0  5  0  0  0  0
    6.4420   19.4860   21.5200 C   0  0  2  0  0  0
    6.4930   19.1770   20.0210 C   0  0  0  0  0  0
    7.2090   20.7710   21.8210 C   0  0  0  0  0  0
    5.8220   20.2240   19.1510 C   0  0  0  0  0  0
    4.9300   17.1560   22.4540 O   0  0  0  0  0  0
   24.6869   19.5328   17.9168 H   0  0  0  0  0  0
   25.3844   20.3929   19.3312 H   0  0  0  0  0  0
   25.6653   21.0192   17.6712 H   0  0  0  0  0  0
   23.0950   20.7498   19.1150 H   0  0  0  0  0  0
   24.8302   23.1963   18.3994 H   0  0  0  0  0  0
   23.1428   23.3341   18.9999 H   0  0  0  0  0  0
   23.8887   20.6589   20.5722 H   0  0  0  0  0  0
   24.7292   21.3926   22.1167 H   0  0  0  0  0  0
   21.2176   21.5925   18.1576 H   0  0  0  0  0  0
   21.1675   21.1678   15.2486 H   0  0  0  0  0  0
   18.8150   22.2619   15.5047 H   0  0  0  0  0  0
   19.1345   20.7787   16.4664 H   0  0  0  0  0  0
   18.0713   22.5657   17.8981 H   0  0  0  0  0  0
   20.6314   22.6749   13.5405 H   0  0  0  0  0  0
   22.3722   24.9492   13.5966 H   0  0  0  0  0  0
   21.3352   23.9027   11.5455 H   0  0  0  0  0  0
   19.7818   24.7023   11.9629 H   0  0  0  0  0  0
   20.8303   26.8980   11.7038 H   0  0  0  0  0  0
   22.3988   26.1125   11.3172 H   0  0  0  0  0  0
   19.8114   26.0562    9.7152 H   0  0  0  0  0  0
   21.4163   26.7001    9.2293 H   0  0  0  0  0  0
   22.2952   24.3241    9.1260 H   0  0  0  0  0  0
   18.7156   24.9792    9.2576 H   0  0  0  0  0  0
   21.8255   22.3565    8.2082 H   0  0  0  0  0  0
   20.0128   21.8682    7.8834 H   0  0  0  0  0  0
   18.9125   24.6384   14.3684 H   0  0  0  0  0  0
   19.1546   27.3845   15.7319 H   0  0  0  0  0  0
   16.6968   26.2813   14.2666 H   0  0  0  0  0  0
   16.8092   27.8587   15.1186 H   0  0  0  0  0  0
   18.4883   29.5608   14.2445 H   0  0  0  0  0  0
   17.3157   26.1027   12.0176 H   0  0  0  0  0  0
   19.2747   30.6324   12.1709 H   0  0  0  0  0  0
   18.0980   27.1779    9.9391 H   0  0  0  0  0  0
   19.6017   30.5774    9.8189 H   0  0  0  0  0  0
   17.6735   25.4246   19.3900 H   0  0  0  0  0  0
   15.1128   27.1154   19.1295 H   0  0  0  0  0  0
   16.1230   26.8612   20.5928 H   0  0  0  0  0  0
   16.3125   29.1449   19.1986 H   0  0  0  0  0  0
   17.7770   28.3578   19.8784 H   0  0  0  0  0  0
   18.5072   28.3768   17.6301 H   0  0  0  0  0  0
   16.8320   28.4659   16.9880 H   0  0  0  0  0  0
   16.5113   23.8652   20.2312 H   0  0  0  0  0  0
   14.3432   22.8333   18.3300 H   0  0  0  0  0  0
   16.6072   21.2626   19.7142 H   0  0  0  0  0  0
   17.2224   22.3923   17.5443 H   0  0  0  0  0  0
   14.4438   20.0091   19.8153 H   0  0  0  0  0  0
   15.6161   19.2550   18.6823 H   0  0  0  0  0  0
   14.2532   20.2353   18.0436 H   0  0  0  0  0  0
   12.5149   22.0345   19.2951 H   0  0  0  0  0  0
   12.7405   21.7720   22.3318 H   0  0  0  0  0  0
   10.3858   22.8254   20.6720 H   0  0  0  0  0  0
   10.2656   22.4033   22.4139 H   0  0  0  0  0  0
   10.7487   24.8599   22.1164 H   0  0  0  0  0  0
   12.0015   19.9087   23.2257 H   0  0  0  0  0  0
   10.7955   17.9394   21.2674 H   0  0  0  0  0  0
   10.9168   16.3118   23.1713 H   0  0  0  0  0  0
   12.3759   18.5439   24.6460 H   0  0  0  0  0  0
   10.7160   17.9669   25.0179 H   0  0  0  0  0  0
   12.7552   16.5659   21.5111 H   0  0  0  0  0  0
   13.3631   16.0849   23.1316 H   0  0  0  0  0  0
   13.5314   17.7853   22.5776 H   0  0  0  0  0  0
   12.3660   16.9928   26.5333 H   0  0  0  0  0  0
   13.2638   16.3062   25.1372 H   0  0  0  0  0  0
   11.6038   15.7292   25.5090 H   0  0  0  0  0  0
    8.6769   17.4077   21.2059 H   0  0  0  0  0  0
    7.0029   18.5405   23.4233 H   0  0  0  0  0  0
    5.3913   19.6474   21.8028 H   0  0  0  0  0  0
    7.5417   19.1091   19.6961 H   0  0  0  0  0  0
    5.9862   18.2203   19.8264 H   0  0  0  0  0  0
    7.1641   20.9806   22.8999 H   0  0  0  0  0  0
    6.7570   21.6063   21.2661 H   0  0  0  0  0  0
    8.2585   20.6520   21.5139 H   0  0  0  0  0  0
    5.9021   19.9288   18.0944 H   0  0  0  0  0  0
    6.3166   21.1953   19.2989 H   0  0  0  0  0  0
    4.7610   20.3066   19.4292 H   0  0  0  0  0  0
   18.3180   23.2975    8.4553 H   0  0  0  0  0  0
  1  2  1  0  0  0
  1 75  1  0  0  0
  1 76  1  0  0  0
  1 77  1  0  0  0
  2  3  1  0  0  0
  2  5  1  0  0  0
  2 78  1  0  0  0
  3  4  2  0  0  0
  3  9  1  0  0  0
  5  6  1  0  0  0
  5 79  1  0  0  0
  5 80  1  0  0  0
  6  7  2  0  0  0
  6  8  1  0  0  0
  8 81  1  0  0  0
  8 82  1  0  0  0
  9 10  1  0  0  0
  9 83  1  0  0  0
 10 11  1  0  0  0
 10 13  1  0  0  0
 10 84  1  0  0  0
 11 12  2  0  0  0
 11 15  1  0  0  0
 13 14  1  0  0  0
 13 85  1  0  0  0
 13 86  1  0  0  0
 14 87  1  0  0  0
 15 16  1  0  0  0
 15 88  1  0  0  0
 16 17  1  0  0  0
 16 19  1  0  0  0
 16 89  1  0  0  0
 17 18  2  0  0  0
 17 26  1  0  0  0
 19 20  1  0  0  0
 19 90  1  0  0  0
 19 91  1  0  0  0
 20 21  1  0  0  0
 20 92  1  0  0  0
 20 93  1  0  0  0
 21 22  1  0  0  0
 21 94  1  0  0  0
 21 95  1  0  0  0
 22 23  1  0  0  0
 22 96  1  0  0  0
 23 24  2  0  0  0
 23 25  1  0  0  0
 24 97  1  0  0  0
 24150  1  0  0  0
 25 98  1  0  0  0
 25 99  1  0  0  0
 26 27  1  0  0  0
 26100  1  0  0  0
 27 28  1  0  0  0
 27 30  1  0  0  0
 27101  1  0  0  0
 28 29  2  0  0  0
 28 38  1  0  0  0
 30 31  1  0  0  0
 30102  1  0  0  0
 30103  1  0  0  0
 31 32  2  0  0  0
 31 33  1  0  0  0
 32 34  1  0  0  0
 32104  1  0  0  0
 33 35  2  0  0  0
 33105  1  0  0  0
 34 36  2  0  0  0
 34106  1  0  0  0
 35 36  1  0  0  0
 35107  1  0  0  0
 36 37  1  0  0  0
 37108  1  0  0  0
 38 39  1  0  0  0
 38 44  1  0  0  0
 39 40  1  0  0  0
 39 42  1  0  0  0
 39109  1  0  0  0
 40 41  2  0  0  0
 40 45  1  0  0  0
 42 43  1  0  0  0
 42110  1  0  0  0
 42111  1  0  0  0
 43 44  1  0  0  0
 43112  1  0  0  0
 43113  1  0  0  0
 44114  1  0  0  0
 44115  1  0  0  0
 45 46  1  0  0  0
 45116  1  0  0  0
 46 47  1  0  0  0
 46 49  1  0  0  0
 46117  1  0  0  0
 47 48  2  0  0  0
 47 52  1  0  0  0
 49 50  1  0  0  0
 49 51  1  0  0  0
 49118  1  0  0  0
 50119  1  0  0  0
 51120  1  0  0  0
 51121  1  0  0  0
 51122  1  0  0  0
 52 53  1  0  0  0
 52123  1  0  0  0
 53 54  1  0  0  0
 53 56  1  0  0  0
 53124  1  0  0  0
 54 55  2  0  0  0
 54 58  1  0  0  0
 56 57  1  0  0  0
 56125  1  0  0  0
 56126  1  0  0  0
 57127  1  0  0  0
 58 59  1  0  0  0
 58128  1  0  0  0
 59 60  1  0  0  0
 59 62  1  0  0  0
 59129  1  0  0  0
 60 61  2  0  0  0
 60 66  1  0  0  0
 62 63  1  0  0  0
 62 64  1  0  0  0
 62130  1  0  0  0
 63 65  1  0  0  0
 63131  1  0  0  0
 63132  1  0  0  0
 64133  1  0  0  0
 64134  1  0  0  0
 64135  1  0  0  0
 65136  1  0  0  0
 65137  1  0  0  0
 65138  1  0  0  0
 66 67  1  0  0  0
 66139  1  0  0  0
 67 68  1  0  0  0
 67 70  1  0  0  0
 67140  1  0  0  0
 68 69  1  0  0  0
 68 74  2  0  0  0
 70 71  1  0  0  0
 70 72  1  0  0  0
 70141  1  0  0  0
 71 73  1  0  0  0
 71142  1  0  0  0
 71143  1  0  0  0
 72144  1  0  0  0
 72145  1  0  0  0
 72146  1  0  0  0
 73147  1  0  0  0
 73148  1  0  0  0
 73149  1  0  0  0
M  CHG  3   1   1  24   1  69  -1
M  END
> <s_m_source_file>
../4jok_ligand.sdf

> <i_m_source_file_index>
1

> <s_epik_input>
Tz1DKFtOSDJdKVtDSDJdW0NASF0oW05IMytdKUMoPU8pW05IXVtDQEBIXShbQ0gyXVtPSF0pQyg9TylbTkhdW0NAQEhdKFtDSDJdW0NIMl1bQ0gyXVtOSF0vQyg9TlxbSF0pW05IMl0pQyg9TylbTkhdW0NAQEhdKFtDSDJdYzFbY0hdW2NIXWMoW09IXSlbY0hdW2NIXTEpQyg9TylOMltDQEBIXShbQ0gyXVtDSDJdW0NIMl0yKUMoPU8pW05IXVtDQEBIXShbQ0BIXShbT0hdKVtDSDNdKUMoPU8pW05IXVtDQEBIXShbQ0gyXVtPSF0pQyg9TylbTkhdW0NAQEhdKFtDQEBIXShbQ0gzXSlbQ0gyXVtDSDNdKUMoPU8pW05IXVtDQEhdKEMoPU8pW09IXSlbQ0BASF0oW0NIM10pW0NIMl1bQ0gzXQ==

> <s_epik_cmdline>
J2VwaWtfYXBwJywgJy1pbWFlJywgJ2xpZ2FuZF9wcm8ubWFlJywgJy1vbWFlJywgJ2xpZ2FuZF9wcmVwLm1hZScsICctbXMnLCAnMScsICctcGgnLCAnNycsICctcGh0JywgJzAuNScsICctbnQn

> <r_lp_tautomer_probability>
0.999999999997365

> <r_epik_Ionization_Penalty>
  0.2247

> <r_epik_Ionization_Penalty_Charging>
  0.2237

> <r_epik_Ionization_Penalty_Neutral>
  0.0010

> <r_epik_State_Penalty>
  0.2139

> <r_epik_Charging_Adjusted_Penalty>
0.437589587935634

> <i_epik_Tot_Q>
1

> <i_epik_Tot_abs_Q>
3

> <s_epik_Chemistry_Notes>
This compound has an imine and may undergo hydrolysis.

$$$$
