4joo_ligand
                    3D
 Schrodinger Suite 2020-3.
 37 39  0  0  1  0            999 V2000
   25.0700   14.0570    8.7330 C   0  0  0  0  0  0
   25.7590   12.8500    8.4570 C   0  0  0  0  0  0
   27.1330   12.7480    8.7560 C   0  0  0  0  0  0
   27.8280   13.8320    9.3390 C   0  0  0  0  0  0
   27.1410   15.0340    9.6220 C   0  0  0  0  0  0
   25.7620   15.1400    9.3190 C   0  0  0  0  0  0
   23.5820   14.1840    8.3890 C   0  0  2  0  0  0
   22.9810   12.9320    7.7120 C   0  0  0  0  0  0
   23.6850   11.6130    8.1110 C   0  0  0  0  0  0
   25.0890   11.7810    7.8950 O   0  0  0  0  0  0
   23.4210   15.4070    7.4710 C   0  0  0  0  0  0
   22.6260   16.3370    8.1220 N   0  0  0  0  0  0
   22.2650   15.8240    9.3570 C   0  0  0  0  0  0
   22.7700   14.5970    9.5480 N   0  3  0  0  0  0
   23.9210   15.5760    6.3590 O   0  0  0  0  0  0
   21.4910   16.4480   10.2550 N   0  0  0  0  0  0
   22.2500   17.6520    7.5800 C   0  0  0  0  0  0
   28.0570   16.4980   10.4030 Br  0  0  0  0  0  0
   23.3730   11.2440    9.5880 C   0  0  0  0  0  0
   23.2330   10.4600    7.1940 C   0  0  0  0  0  0
   27.6653   11.8228    8.5351 H   0  0  0  0  0  0
   28.8895   13.7411    9.5693 H   0  0  0  0  0  0
   25.2298   16.0653    9.5398 H   0  0  0  0  0  0
   21.9217   12.8364    7.9925 H   0  0  0  0  0  0
   23.0636   13.0306    6.6195 H   0  0  0  0  0  0
   21.1051   17.4559   10.0425 H   0  0  0  0  0  0
   22.6871   17.7742    6.5780 H   0  0  0  0  0  0
   22.6276   18.4437    8.2438 H   0  0  0  0  0  0
   21.1542   17.7213    7.5130 H   0  0  0  0  0  0
   23.6941   12.0645   10.2466 H   0  0  0  0  0  0
   23.9128   10.3244    9.8580 H   0  0  0  0  0  0
   22.2913   11.0820    9.7048 H   0  0  0  0  0  0
   23.4519   10.7168    6.1470 H   0  0  0  0  0  0
   22.1515   10.2989    7.3136 H   0  0  0  0  0  0
   23.7730    9.5413    7.4668 H   0  0  0  0  0  0
   21.2414   15.9524   11.2048 H   0  0  0  0  0  0
   22.5515   14.0509   10.4775 H   0  0  0  0  0  0
  1  2  2  0  0  0
  1  6  1  0  0  0
  1  7  1  0  0  0
  2  3  1  0  0  0
  2 10  1  0  0  0
  3  4  2  0  0  0
  3 21  1  0  0  0
  4  5  1  0  0  0
  4 22  1  0  0  0
  5  6  2  0  0  0
  5 18  1  0  0  0
  6 23  1  0  0  0
  7  8  1  0  0  0
  7 11  1  0  0  0
  7 14  1  0  0  0
  8  9  1  0  0  0
  8 24  1  0  0  0
  8 25  1  0  0  0
  9 10  1  0  0  0
  9 19  1  0  0  0
  9 20  1  0  0  0
 11 12  1  0  0  0
 11 15  2  0  0  0
 12 13  1  0  0  0
 12 17  1  0  0  0
 13 14  2  0  0  0
 13 16  1  0  0  0
 14 37  1  0  0  0
 16 26  1  0  0  0
 16 36  1  0  0  0
 17 27  1  0  0  0
 17 28  1  0  0  0
 17 29  1  0  0  0
 19 30  1  0  0  0
 19 31  1  0  0  0
 19 32  1  0  0  0
 20 33  1  0  0  0
 20 34  1  0  0  0
 20 35  1  0  0  0
M  CHG  1  14   1
M  END
> <s_m_source_file>
../4joo_ligand.sdf

> <i_m_source_file_index>
1

> <s_epik_input>
W2NIXTFjKEJyKVtjSF1bY0hdYyhPQyhbQ0gyXTIpKFtDSDNdKVtDSDNdKWMxW0NAQF0yM0MoPU8pTihbQ0gzXSkvQyhbTkhdMyk9TlxbSF0=

> <s_epik_cmdline>
J2VwaWtfYXBwJywgJy1pbWFlJywgJ2xpZ2FuZF9wcm8ubWFlJywgJy1vbWFlJywgJ2xpZ2FuZF9wcmVwLm1hZScsICctbXMnLCAnMScsICctcGgnLCAnNycsICctcGh0JywgJzAuNScsICctbnQn

> <r_lp_tautomer_probability>
1

> <r_epik_Ionization_Penalty>
  0.4469

> <r_epik_Ionization_Penalty_Charging>
  0.4469

> <r_epik_Ionization_Penalty_Neutral>
  0.0000

> <r_epik_State_Penalty>
  0.0018

> <r_epik_Charging_Adjusted_Penalty>
0.448667287445104

> <i_epik_Tot_Q>
1

> <i_epik_Tot_abs_Q>
1

> <s_epik_Chemistry_Notes>
This compound has an imine and may undergo hydrolysis.

$$$$
