4jpa_ligand
                    3D
 Schrodinger Suite 2020-3.
 57 60  0  0  1  0            999 V2000
   37.3230  -14.2930   21.5680 C   0  0  0  0  0  0
   38.6160  -13.9970   20.8310 C   0  0  2  0  0  0
   39.6920  -14.9920   21.2150 C   0  0  0  0  0  0
   38.8090  -10.7690   19.5630 O   0  0  0  0  0  0
   38.0670  -15.1270   18.7770 O   0  0  0  0  0  0
   38.9960  -12.6230   20.9200 N   0  0  0  0  0  0
   42.0010  -12.7800   18.8470 C   0  0  0  0  0  0
   43.2750  -13.7380   15.5340 C   0  0  0  0  0  0
   43.4940  -14.5280   13.3940 C   0  0  0  0  0  0
   44.4370  -13.5730   13.1080 C   0  0  0  0  0  0
   44.9100  -14.6190   11.1030 C   0  0  0  0  0  0
   45.7440  -14.4650    9.8760 C   0  0  0  0  0  0
   45.1640  -14.3840    8.6250 C   0  0  0  0  0  0
   45.9510  -14.2400    7.5040 C   0  0  0  0  0  0
   47.3240  -14.1800    7.6240 C   0  0  0  0  0  0
   47.8990  -14.2600    8.8750 C   0  0  0  0  0  0
   44.7470  -12.7090   14.1290 C   0  0  0  0  0  0
   38.7470  -11.9780   19.7410 C   0  0  0  0  0  0
   38.3290  -14.0830   19.3620 C   0  0  0  0  0  0
   41.3760  -14.5140   20.8900 S   0  0  0  0  0  0
   41.6920  -13.3600   21.7070 O   0  0  0  0  0  0
   42.1150  -15.7450   21.0770 O   0  0  0  0  0  0
   41.4010  -14.0960   19.2250 N   0  0  0  0  0  0
   41.3100  -15.1750   18.1970 C   0  0  0  0  0  0
   42.5220  -15.1870   17.2970 C   0  0  0  0  0  0
   42.6460  -13.8360   16.7930 N   0  0  0  0  0  0
   43.0750  -12.8690   17.7790 C   0  0  0  0  0  0
   42.9090  -14.6270   14.5950 N   0  0  0  0  0  0
   45.0730  -13.4340   11.8740 O   0  0  0  0  0  0
   49.3080  -14.2020    9.0280 C   0  0  0  0  0  0
   50.4640  -14.1700    9.1210 N   0  0  0  0  0  0
   47.1150  -14.4020    9.9960 C   0  0  0  0  0  0
   44.1830  -12.7680   15.3370 N   0  0  0  0  0  0
   38.4150  -12.8780   18.8150 N   0  0  0  0  0  0
   37.4983  -14.2381   22.6525 H   0  0  0  0  0  0
   36.9730  -15.3018   21.3037 H   0  0  0  0  0  0
   36.5604  -13.5536   21.2820 H   0  0  0  0  0  0
   39.6407  -15.1885   22.2961 H   0  0  0  0  0  0
   39.5365  -15.9312   20.6639 H   0  0  0  0  0  0
   39.4230  -12.2298   21.8544 H   0  0  0  0  0  0
   41.2144  -12.1164   18.4586 H   0  0  0  0  0  0
   42.4642  -12.3203   19.7325 H   0  0  0  0  0  0
   43.2098  -15.2337   12.6134 H   0  0  0  0  0  0
   43.8565  -14.7520   10.8159 H   0  0  0  0  0  0
   45.2496  -15.4988   11.6692 H   0  0  0  0  0  0
   44.0798  -14.4342    8.5247 H   0  0  0  0  0  0
   45.4879  -14.1733    6.5195 H   0  0  0  0  0  0
   47.9490  -14.0703    6.7377 H   0  0  0  0  0  0
   45.4919  -11.9352   13.9434 H   0  0  0  0  0  0
   41.2383  -16.1523   18.6967 H   0  0  0  0  0  0
   40.4168  -15.0147   17.5752 H   0  0  0  0  0  0
   43.4080  -15.4806   17.8791 H   0  0  0  0  0  0
   42.3650  -15.9067   16.4801 H   0  0  0  0  0  0
   43.2089  -11.8828   17.3106 H   0  0  0  0  0  0
   44.0224  -13.1888   18.2374 H   0  0  0  0  0  0
   47.5788  -14.4648   10.9804 H   0  0  0  0  0  0
   38.2572  -12.5626   17.7731 H   0  0  0  0  0  0
  1  2  1  0  0  0
  1 35  1  0  0  0
  1 36  1  0  0  0
  1 37  1  0  0  0
  2  3  1  0  0  0
  2  6  1  0  0  0
  2 19  1  0  0  0
  3 20  1  0  0  0
  3 38  1  0  0  0
  3 39  1  0  0  0
  4 18  2  0  0  0
  5 19  2  0  0  0
  6 18  1  0  0  0
  6 40  1  0  0  0
  7 23  1  0  0  0
  7 27  1  0  0  0
  7 41  1  0  0  0
  7 42  1  0  0  0
  8 26  1  0  0  0
  8 28  2  0  0  0
  8 33  1  0  0  0
  9 10  2  0  0  0
  9 28  1  0  0  0
  9 43  1  0  0  0
 10 17  1  0  0  0
 10 29  1  0  0  0
 11 12  1  0  0  0
 11 29  1  0  0  0
 11 44  1  0  0  0
 11 45  1  0  0  0
 12 13  2  0  0  0
 12 32  1  0  0  0
 13 14  1  0  0  0
 13 46  1  0  0  0
 14 15  2  0  0  0
 14 47  1  0  0  0
 15 16  1  0  0  0
 15 48  1  0  0  0
 16 30  1  0  0  0
 16 32  2  0  0  0
 17 33  2  0  0  0
 17 49  1  0  0  0
 18 34  1  0  0  0
 19 34  1  0  0  0
 20 21  2  0  0  0
 20 22  2  0  0  0
 20 23  1  0  0  0
 23 24  1  0  0  0
 24 25  1  0  0  0
 24 50  1  0  0  0
 24 51  1  0  0  0
 25 26  1  0  0  0
 25 52  1  0  0  0
 25 53  1  0  0  0
 26 27  1  0  0  0
 27 54  1  0  0  0
 27 55  1  0  0  0
 30 31  3  0  0  0
 32 56  1  0  0  0
 34 57  1  0  0  0
M  END
> <s_m_source_file>
../4jpa_ligand.sdf

> <i_m_source_file_index>
1

> <s_epik_input>
Tz1DMVtOSF1DKD1PKVtOSF1bQ0BdMShbQ0gzXSlbQ0gyXVMoPU8pKD1PKU4yW0NIMl1bQ0gyXU4oW0NIMl1bQ0gyXTIpYzNuW2NIXWMoW2NIXW4zKU9bQ0gyXWM0W2NIXVtjSF1bY0hdYyhDI04pW2NIXTQ=

> <s_epik_cmdline>
J2VwaWtfYXBwJywgJy1pbWFlJywgJ2xpZ2FuZF9wcm8ubWFlJywgJy1vbWFlJywgJ2xpZ2FuZF9wcmVwLm1hZScsICctbXMnLCAnMScsICctcGgnLCAnNycsICctcGh0JywgJzAuNScsICctbnQn

> <r_lp_tautomer_probability>
0.99999999978137

> <r_epik_Ionization_Penalty>
  0.0418

> <r_epik_Ionization_Penalty_Charging>
  0.0000

> <r_epik_Ionization_Penalty_Neutral>
  0.0418

> <r_epik_State_Penalty>
  0.0349

> <r_epik_Charging_Adjusted_Penalty>
0.0348878500074756

> <i_epik_Tot_Q>
0

> <i_epik_Tot_abs_Q>
0

$$$$
