4jpc_ligand
                    3D
 Schrodinger Suite 2020-3.
 48 51  0  0  1  0            999 V2000
   26.9470   15.3250    9.1860 C   0  0  0  0  0  0
   27.6320   14.0950    9.0140 C   0  0  0  0  0  0
   26.9220   12.9310    8.6410 C   0  0  0  0  0  0
   25.5210   12.9940    8.4420 C   0  0  0  0  0  0
   24.8260   14.2190    8.6190 C   0  0  0  0  0  0
   25.5440   15.3800    8.9820 C   0  0  0  0  0  0
   24.8500   11.8510    8.0940 O   0  0  0  0  0  0
   23.4360   11.7100    8.2520 C   0  0  0  0  0  0
   22.7180   13.0050    7.7980 C   0  0  0  0  0  0
   23.3110   14.3040    8.3820 C   0  0  2  0  0  0
   23.0360   15.4900    7.4390 C   0  0  0  0  0  0
   22.3290   16.4140    8.1240 N   0  0  0  0  0  0
   22.0880   15.9170    9.3720 C   0  0  0  0  0  0
   22.5740   14.7390    9.5680 N   0  3  0  0  0  0
   27.6390   16.5060    9.5380 C   0  0  0  0  0  0
   21.9330   17.7200    7.5940 C   0  0  0  0  0  0
   21.3210   16.6530   10.2630 N   0  0  0  0  0  0
   27.0450   17.4570   10.4030 C   0  0  0  0  0  0
   27.7420   18.6460   10.7270 C   0  0  0  0  0  0
   29.0290   18.9000   10.1880 C   0  0  0  0  0  0
   29.6220   17.9540    9.3150 C   0  0  0  0  0  0
   28.9240   16.7660    8.9880 C   0  0  0  0  0  0
   23.5150   15.6060    6.3060 O   0  0  0  0  0  0
   23.0150   10.5220    7.3590 C   0  0  0  0  0  0
   23.0750   11.3910    9.7230 C   0  0  0  0  0  0
   27.1330   19.6280   11.5960 C   0  0  0  0  0  0
   26.6290   20.3930   12.3010 N   0  0  0  0  0  0
   28.7097   14.0471    9.1700 H   0  0  0  0  0  0
   27.4512   11.9875    8.5069 H   0  0  0  0  0  0
   25.0161   16.3255    9.1064 H   0  0  0  0  0  0
   22.7754   13.0914    6.7029 H   0  0  0  0  0  0
   21.6633   12.9674    8.1080 H   0  0  0  0  0  0
   22.2794   17.8141    6.5542 H   0  0  0  0  0  0
   22.3848   18.5157    8.2045 H   0  0  0  0  0  0
   20.8372   17.8114    7.6251 H   0  0  0  0  0  0
   20.9604   17.6536    9.9823 H   0  0  0  0  0  0
   26.0539   17.2741   10.8182 H   0  0  0  0  0  0
   29.5590   19.8175   10.4437 H   0  0  0  0  0  0
   30.6113   18.1401    8.8970 H   0  0  0  0  0  0
   29.3763   16.0440    8.3081 H   0  0  0  0  0  0
   23.2690   10.7425    6.3117 H   0  0  0  0  0  0
   21.9301   10.3631    7.4476 H   0  0  0  0  0  0
   23.5461    9.6144    7.6818 H   0  0  0  0  0  0
   23.3724   12.2336   10.3645 H   0  0  0  0  0  0
   23.6060   10.4820   10.0420 H   0  0  0  0  0  0
   21.9900   11.2307    9.8078 H   0  0  0  0  0  0
   21.0733   16.2361   11.2503 H   0  0  0  0  0  0
   22.4003   14.2246   10.5246 H   0  0  0  0  0  0
  1  2  2  0  0  0
  1  6  1  0  0  0
  1 15  1  0  0  0
  2  3  1  0  0  0
  2 28  1  0  0  0
  3  4  2  0  0  0
  3 29  1  0  0  0
  4  5  1  0  0  0
  4  7  1  0  0  0
  5  6  2  0  0  0
  5 10  1  0  0  0
  6 30  1  0  0  0
  7  8  1  0  0  0
  8  9  1  0  0  0
  8 24  1  0  0  0
  8 25  1  0  0  0
  9 10  1  0  0  0
  9 31  1  0  0  0
  9 32  1  0  0  0
 10 11  1  0  0  0
 10 14  1  0  0  0
 11 12  1  0  0  0
 11 23  2  0  0  0
 12 13  1  0  0  0
 12 16  1  0  0  0
 13 14  2  0  0  0
 13 17  1  0  0  0
 14 48  1  0  0  0
 15 18  2  0  0  0
 15 22  1  0  0  0
 16 33  1  0  0  0
 16 34  1  0  0  0
 16 35  1  0  0  0
 17 36  1  0  0  0
 17 47  1  0  0  0
 18 19  1  0  0  0
 18 37  1  0  0  0
 19 20  2  0  0  0
 19 26  1  0  0  0
 20 21  1  0  0  0
 20 38  1  0  0  0
 21 22  2  0  0  0
 21 39  1  0  0  0
 22 40  1  0  0  0
 24 41  1  0  0  0
 24 42  1  0  0  0
 24 43  1  0  0  0
 25 44  1  0  0  0
 25 45  1  0  0  0
 25 46  1  0  0  0
 26 27  3  0  0  0
M  CHG  1  14   1
M  END
> <s_m_source_file>
../4jpc_ligand.sdf

> <i_m_source_file_index>
1

> <s_epik_input>
W2NIXTFbY0hdW2NIXWMoQyNOKVtjSF1jMS1jKFtjSF0yKVtjSF1bY0hdYyhPQyhbQ0gyXTMpKFtDSDNdKVtDSDNdKWMyW0NAQF0zNEMoPU8pTihbQ0gzXSkvQyhbTkhdNCk9TlxbSF0=

> <s_epik_cmdline>
J2VwaWtfYXBwJywgJy1pbWFlJywgJ2xpZ2FuZF9wcm8ubWFlJywgJy1vbWFlJywgJ2xpZ2FuZF9wcmVwLm1hZScsICctbXMnLCAnMScsICctcGgnLCAnNycsICctcGh0JywgJzAuNScsICctbnQn

> <r_lp_tautomer_probability>
1

> <r_epik_Ionization_Penalty>
  0.3568

> <r_epik_Ionization_Penalty_Charging>
  0.3568

> <r_epik_Ionization_Penalty_Neutral>
  0.0000

> <r_epik_State_Penalty>
 -0.0000

> <r_epik_Charging_Adjusted_Penalty>
0.356792462646482

> <i_epik_Tot_Q>
1

> <i_epik_Tot_abs_Q>
1

> <s_epik_Chemistry_Notes>
This compound has an imine and may undergo hydrolysis.

$$$$
