4jpe_ligand
                    3D
 Schrodinger Suite 2020-3.
 47 50  0  0  1  0            999 V2000
   26.9220   15.5280    9.4710 C   0  0  0  0  0  0
   27.6930   14.3620    9.1990 C   0  0  0  0  0  0
   27.0620   13.1950    8.6920 C   0  0  0  0  0  0
   25.6610   13.1670    8.4420 C   0  0  0  0  0  0
   24.8860   14.3290    8.7110 C   0  0  0  0  0  0
   25.5200   15.4950    9.2170 C   0  0  0  0  0  0
   24.9900   11.8980    7.9020 C   0  0  0  0  0  0
   23.4720   11.7820    8.1960 C   0  0  0  0  0  0
   22.7700   13.0920    7.7680 C   0  0  0  0  0  0
   23.3790   14.3520    8.4320 C   0  0  2  0  0  0
   27.5100   16.7270    9.9630 C   0  0  0  0  0  0
   23.0830   15.5720    7.5430 C   0  0  0  0  0  0
   22.2800   16.4100    8.2250 N   0  0  0  0  0  0
   22.0470   15.8540    9.4480 C   0  0  0  0  0  0
   22.6180   14.7120    9.6310 N   0  3  0  0  0  0
   23.5120   15.7300    6.3950 O   0  0  0  0  0  0
   21.7750   17.6870    7.7060 C   0  0  0  0  0  0
   21.2500   16.5310   10.3440 N   0  0  0  0  0  0
   28.7330   17.2280    9.4320 C   0  0  0  0  0  0
   29.2650   18.3750    9.8890 N   0  0  0  0  0  0
   28.5880   19.0290   10.8520 C   0  0  0  0  0  0
   27.4230   18.6560   11.4060 N   0  0  0  0  0  0
   26.8810   17.5100   10.9660 C   0  0  0  0  0  0
   22.8510   10.6230    7.3770 C   0  0  0  0  0  0
   23.2220   11.4870    9.7010 C   0  0  0  0  0  0
   28.7679   14.3652    9.3800 H   0  0  0  0  0  0
   27.6603   12.3063    8.4911 H   0  0  0  0  0  0
   24.9212   16.3839    9.4154 H   0  0  0  0  0  0
   25.1023   11.8609    6.8084 H   0  0  0  0  0  0
   25.4656   11.0129    8.3496 H   0  0  0  0  0  0
   22.8559   13.2149    6.6783 H   0  0  0  0  0  0
   21.7075   13.0475    8.0493 H   0  0  0  0  0  0
   22.1500   17.8412    6.6835 H   0  0  0  0  0  0
   22.1214   18.5077    8.3513 H   0  0  0  0  0  0
   20.6752   17.6689    7.6944 H   0  0  0  0  0  0
   20.8176   17.5044   10.0692 H   0  0  0  0  0  0
   29.2444   16.6741    8.6447 H   0  0  0  0  0  0
   29.0305   19.9550   11.2190 H   0  0  0  0  0  0
   25.9349   17.1723   11.3890 H   0  0  0  0  0  0
   23.0127   10.8044    6.3042 H   0  0  0  0  0  0
   21.7715   10.5673    7.5809 H   0  0  0  0  0  0
   23.3279    9.6743    7.6644 H   0  0  0  0  0  0
   23.6532   12.2955   10.3096 H   0  0  0  0  0  0
   23.6961   10.5319    9.9711 H   0  0  0  0  0  0
   22.1397   11.4248    9.8876 H   0  0  0  0  0  0
   21.0458   16.0984   11.3345 H   0  0  0  0  0  0
   22.4851   14.1769   10.5828 H   0  0  0  0  0  0
  1  2  2  0  0  0
  1  6  1  0  0  0
  1 11  1  0  0  0
  2  3  1  0  0  0
  2 26  1  0  0  0
  3  4  2  0  0  0
  3 27  1  0  0  0
  4  5  1  0  0  0
  4  7  1  0  0  0
  5  6  2  0  0  0
  5 10  1  0  0  0
  6 28  1  0  0  0
  7  8  1  0  0  0
  7 29  1  0  0  0
  7 30  1  0  0  0
  8  9  1  0  0  0
  8 24  1  0  0  0
  8 25  1  0  0  0
  9 10  1  0  0  0
  9 31  1  0  0  0
  9 32  1  0  0  0
 10 12  1  0  0  0
 10 15  1  0  0  0
 11 19  2  0  0  0
 11 23  1  0  0  0
 12 13  1  0  0  0
 12 16  2  0  0  0
 13 14  1  0  0  0
 13 17  1  0  0  0
 14 15  2  0  0  0
 14 18  1  0  0  0
 15 47  1  0  0  0
 17 33  1  0  0  0
 17 34  1  0  0  0
 17 35  1  0  0  0
 18 36  1  0  0  0
 18 46  1  0  0  0
 19 20  1  0  0  0
 19 37  1  0  0  0
 20 21  2  0  0  0
 21 22  1  0  0  0
 21 38  1  0  0  0
 22 23  2  0  0  0
 23 39  1  0  0  0
 24 40  1  0  0  0
 24 41  1  0  0  0
 24 42  1  0  0  0
 25 43  1  0  0  0
 25 44  1  0  0  0
 25 45  1  0  0  0
M  CHG  1  15   1
M  END
> <s_m_source_file>
../4jpe_ligand.sdf

> <i_m_source_file_index>
1

> <s_epik_input>
W2NIXTFuW2NIXW5bY0hdYzEtYyhbY0hdMilbY0hdW2NIXWMoW0NIMl1DKFtDSDJdMykoW0NIM10pW0NIM10pYzJbQ0BAXTM0Qyg9TylOKFtDSDNdKS9DKFtOSF00KT1OXFtIXQ==

> <s_epik_cmdline>
J2VwaWtfYXBwJywgJy1pbWFlJywgJ2xpZ2FuZF9wcm8ubWFlJywgJy1vbWFlJywgJ2xpZ2FuZF9wcmVwLm1hZScsICctbXMnLCAnMScsICctcGgnLCAnNycsICctcGh0JywgJzAuNScsICctbnQn

> <r_lp_tautomer_probability>
1

> <r_epik_Ionization_Penalty>
  0.2688

> <r_epik_Ionization_Penalty_Charging>
  0.2688

> <r_epik_Ionization_Penalty_Neutral>
  0.0000

> <r_epik_State_Penalty>
 -0.0000

> <r_epik_Charging_Adjusted_Penalty>
0.268780641227226

> <i_epik_Tot_Q>
1

> <i_epik_Tot_abs_Q>
1

> <s_epik_Chemistry_Notes>
This compound has an imine and may undergo hydrolysis.

$$$$
