4jps_ligand
                    3D
 Schrodinger Suite 2020-3.
 52 54  0  0  1  0            999 V2000
   -3.0800  -11.7290   15.7730 C   0  0  0  0  0  0
   -1.6030  -10.4210   14.7720 C   0  0  0  0  0  0
    0.0440   -8.8630   13.8080 C   0  0  0  0  0  0
    1.6100   -5.2050   13.6960 O   0  0  0  0  0  0
   -4.2730  -11.6290   18.7320 C   0  0  0  0  0  0
   -4.6390  -11.5270   20.0560 C   0  0  0  0  0  0
   -2.9160  -10.0900   20.5290 C   0  0  0  0  0  0
   -2.4780  -10.1140   19.1970 C   0  0  0  0  0  0
   -2.1400   -9.3030   21.6130 C   0  0  0  0  0  0
   -1.0640   -8.4030   20.9840 C   0  0  0  0  0  0
   -3.1110   -8.4460   22.4440 C   0  0  0  0  0  0
   -1.3810  -10.3370   22.6220 C   0  0  0  0  0  0
   -0.6820   -9.6680   23.5380 F   0  0  0  0  0  0
   -2.2190  -11.1320   23.2770 F   0  0  0  0  0  0
   -0.5360  -11.1320   21.9750 F   0  0  0  0  0  0
   -3.9910  -10.7690   20.9520 N   0  0  0  0  0  0
   -3.1840  -10.8900   18.2830 C   0  0  0  0  0  0
   -2.7500  -10.9380   16.8690 C   0  0  0  0  0  0
   -4.0520  -12.8640   15.7720 C   0  0  0  0  0  0
   -1.5770   -9.7460   16.3620 S   0  0  0  0  0  0
   -2.4190  -11.4290   14.5990 N   0  0  0  0  0  0
   -0.8290   -9.9580   13.7250 N   0  0  0  0  0  0
    0.1900   -8.2350   14.8460 O   0  0  0  0  0  0
    0.7390   -8.5170   12.6650 N   0  0  0  0  0  0
    1.6800   -7.3850   12.6910 C   0  0  2  0  0  0
    1.0160   -6.0450   13.0140 C   0  0  0  0  0  0
   -0.2270   -5.8810   12.5910 N   0  0  0  0  0  0
    2.3070   -7.3990   11.2880 C   0  0  0  0  0  0
    1.3280   -8.1590   10.4240 C   0  0  0  0  0  0
    0.6760   -9.1660   11.3460 C   0  0  0  0  0  0
   -4.8256  -12.2756   18.0503 H   0  0  0  0  0  0
   -5.5053  -12.0953   20.3947 H   0  0  0  0  0  0
   -1.6060   -9.5390   18.8854 H   0  0  0  0  0  0
   -1.5397   -7.6897   20.2948 H   0  0  0  0  0  0
   -0.3446   -9.0240   20.4301 H   0  0  0  0  0  0
   -0.5379   -7.8514   21.7771 H   0  0  0  0  0  0
   -3.6349   -7.7401   21.7828 H   0  0  0  0  0  0
   -2.5470   -7.8863   23.2047 H   0  0  0  0  0  0
   -3.8452   -9.0990   22.9385 H   0  0  0  0  0  0
   -4.4901  -12.9724   16.7752 H   0  0  0  0  0  0
   -3.5308  -13.7929   15.4971 H   0  0  0  0  0  0
   -4.8506  -12.6622   15.0430 H   0  0  0  0  0  0
   -0.8740  -10.4564   12.7454 H   0  0  0  0  0  0
    2.4025   -7.5283   13.5080 H   0  0  0  0  0  0
   -0.7569   -4.9385   12.7931 H   0  0  0  0  0  0
   -0.7304   -6.6872   12.0372 H   0  0  0  0  0  0
    2.4397   -6.3655   10.9354 H   0  0  0  0  0  0
    3.2849   -7.9010   11.3284 H   0  0  0  0  0  0
    0.5895   -7.4599   10.0047 H   0  0  0  0  0  0
    1.8698   -8.6548    9.6050 H   0  0  0  0  0  0
    1.2246  -10.1188   11.3796 H   0  0  0  0  0  0
   -0.3744   -9.3569   11.0810 H   0  0  0  0  0  0
  1 18  2  0  0  0
  1 19  1  0  0  0
  1 21  1  0  0  0
  2 20  1  0  0  0
  2 21  2  0  0  0
  2 22  1  0  0  0
  3 22  1  0  0  0
  3 23  2  0  0  0
  3 24  1  0  0  0
  4 26  2  0  0  0
  5  6  2  0  0  0
  5 17  1  0  0  0
  5 31  1  0  0  0
  6 16  1  0  0  0
  6 32  1  0  0  0
  7  8  1  0  0  0
  7  9  1  0  0  0
  7 16  2  0  0  0
  8 17  2  0  0  0
  8 33  1  0  0  0
  9 10  1  0  0  0
  9 11  1  0  0  0
  9 12  1  0  0  0
 10 34  1  0  0  0
 10 35  1  0  0  0
 10 36  1  0  0  0
 11 37  1  0  0  0
 11 38  1  0  0  0
 11 39  1  0  0  0
 12 13  1  0  0  0
 12 14  1  0  0  0
 12 15  1  0  0  0
 17 18  1  0  0  0
 18 20  1  0  0  0
 19 40  1  0  0  0
 19 41  1  0  0  0
 19 42  1  0  0  0
 22 43  1  0  0  0
 24 25  1  0  0  0
 24 30  1  0  0  0
 25 26  1  0  0  0
 25 28  1  0  0  0
 25 44  1  0  0  0
 26 27  1  0  0  0
 27 45  1  0  0  0
 27 46  1  0  0  0
 28 29  1  0  0  0
 28 47  1  0  0  0
 28 48  1  0  0  0
 29 30  1  0  0  0
 29 49  1  0  0  0
 29 50  1  0  0  0
 30 51  1  0  0  0
 30 52  1  0  0  0
M  END
> <s_m_source_file>
../4jps_ligand.sdf

> <i_m_source_file_index>
1

> <s_epik_input>
RkMoRikoRilDKFtDSDNdKShbQ0gzXSljMVtjSF1jKFtjSF1bY0hdbjEpLWMoYzJbQ0gzXSlzYyhuMilbTkhdQyg9TylOM1tDQEhdKEMoPU8pW05IMl0pW0NIMl1bQ0gyXVtDSDJdMw==

> <s_epik_cmdline>
J2VwaWtfYXBwJywgJy1pbWFlJywgJ2xpZ2FuZF9wcm8ubWFlJywgJy1vbWFlJywgJ2xpZ2FuZF9wcmVwLm1hZScsICctbXMnLCAnMScsICctcGgnLCAnNycsICctcGh0JywgJzAuNScsICctbnQn

> <r_lp_tautomer_probability>
1

> <r_epik_Ionization_Penalty>
  0.0005

> <r_epik_Ionization_Penalty_Charging>
  0.0000

> <r_epik_Ionization_Penalty_Neutral>
  0.0005

> <r_epik_State_Penalty>
 -0.0000

> <r_epik_Charging_Adjusted_Penalty>
0

> <i_epik_Tot_Q>
0

> <i_epik_Tot_abs_Q>
0

$$$$
