4jpx_ligand
                    3D
 Schrodinger Suite 2020-3.
 23 23  0  0  1  0            999 V2000
    5.1600   -7.9300  -16.9480 N   0  3  0  0  0  0
    6.3100   -7.6630  -16.0820 C   0  0  2  0  0  0
    7.5950   -8.2560  -16.6440 C   0  0  0  0  0  0
    7.6780   -8.6040  -17.8160 O   0  5  0  0  0  0
    6.0510   -8.1800  -14.6620 C   0  0  0  0  0  0
    5.1140   -7.3120  -13.8780 C   0  0  0  0  0  0
    5.5470   -6.0980  -13.3440 C   0  0  0  0  0  0
    3.7990   -7.6820  -13.6970 C   0  0  0  0  0  0
    4.6770   -5.2910  -12.6280 C   0  0  0  0  0  0
    2.9240   -6.8760  -12.9840 C   0  0  0  0  0  0
    3.3580   -5.6800  -12.4520 C   0  0  0  0  0  0
    8.5950   -8.3940  -15.9520 O   0  0  0  0  0  0
    5.3673   -7.5515  -17.9598 H   0  0  0  0  0  0
    4.2707   -7.4251  -16.5427 H   0  0  0  0  0  0
    4.9781   -9.0140  -16.9921 H   0  0  0  0  0  0
    6.4087   -6.5675  -16.0756 H   0  0  0  0  0  0
    5.6075   -9.1853  -14.7130 H   0  0  0  0  0  0
    7.0011   -8.2260  -14.1095 H   0  0  0  0  0  0
    6.5795   -5.7812  -13.4913 H   0  0  0  0  0  0
    3.4416   -8.6209  -14.1199 H   0  0  0  0  0  0
    5.0296   -4.3510  -12.2035 H   0  0  0  0  0  0
    1.8894   -7.1891  -12.8436 H   0  0  0  0  0  0
    2.6683   -5.0445  -11.8966 H   0  0  0  0  0  0
  1  2  1  0  0  0
  1 13  1  0  0  0
  1 14  1  0  0  0
  1 15  1  0  0  0
  2  3  1  0  0  0
  2  5  1  0  0  0
  2 16  1  0  0  0
  3  4  1  0  0  0
  3 12  2  0  0  0
  5  6  1  0  0  0
  5 17  1  0  0  0
  5 18  1  0  0  0
  6  7  2  0  0  0
  6  8  1  0  0  0
  7  9  1  0  0  0
  7 19  1  0  0  0
  8 10  2  0  0  0
  8 20  1  0  0  0
  9 11  2  0  0  0
  9 21  1  0  0  0
 10 11  1  0  0  0
 10 22  1  0  0  0
 11 23  1  0  0  0
M  CHG  2   1   1   4  -1
M  END
> <s_m_source_file>
../4jpx_ligand.sdf

> <i_m_source_file_index>
1

> <s_epik_input>
W09IXUMoPU8pW0NAQEhdKFtOSDMrXSlbQ0gyXWMxW2NIXVtjSF1bY0hdW2NIXVtjSF0x

> <s_epik_cmdline>
J2VwaWtfYXBwJywgJy1pbWFlJywgJ2xpZ2FuZF9wcm8ubWFlJywgJy1vbWFlJywgJ2xpZ2FuZF9wcmVwLm1hZScsICctbXMnLCAnMScsICctcGgnLCAnNycsICctcGh0JywgJzAuNScsICctbnQn

> <r_lp_tautomer_probability>
1

> <r_epik_Ionization_Penalty>
  0.0030

> <r_epik_Ionization_Penalty_Charging>
  0.0030

> <r_epik_Ionization_Penalty_Neutral>
  0.0000

> <r_epik_State_Penalty>
 -0.0000

> <r_epik_Charging_Adjusted_Penalty>
0.00304771503799203

> <i_epik_Tot_Q>
0

> <i_epik_Tot_abs_Q>
2

$$$$
