4jq7_ligand
                    3D
 Schrodinger Suite 2020-3.
 52 56  0  0  1  0            999 V2000
  -52.7060    0.1530  -22.0870 C   0  0  0  0  0  0
  -51.7920   -0.2730  -21.1710 C   0  0  0  0  0  0
  -53.9750    0.6220  -24.0290 N   0  0  0  0  0  0
  -54.8850    1.3640  -23.2920 C   0  0  0  0  0  0
  -52.9210    0.0310  -23.4330 C   0  0  0  0  0  0
  -53.5950    0.8790  -21.3710 C   0  0  0  0  0  0
  -52.1610    0.2000  -19.9560 C   0  0  0  0  0  0
  -52.9010   -0.2000  -27.8520 C   0  0  0  0  0  0
  -52.9280    0.8140  -28.8070 C   0  0  0  0  0  0
  -52.4840    2.0910  -28.4790 C   0  0  0  0  0  0
  -52.0140    2.3450  -27.1940 C   0  0  0  0  0  0
  -51.9760    1.3260  -26.2400 C   0  0  0  0  0  0
  -52.4240    0.0350  -26.5560 C   0  0  0  0  0  0
  -52.4240   -1.0470  -25.6260 C   0  0  1  0  0  0
  -51.4420   -2.1050  -26.1200 C   0  0  0  0  0  0
  -51.6530   -3.2570  -25.2920 O   0  0  0  0  0  0
  -52.0700   -0.6560  -24.2260 N   0  0  0  0  0  0
  -54.6630    1.4770  -21.9260 N   0  0  0  0  0  0
  -53.2450    0.8810  -20.1220 O   0  0  0  0  0  0
  -51.6490    0.0740  -18.7130 C   0  0  0  0  0  0
  -50.7470   -0.9200  -18.3030 C   0  0  0  0  0  0
  -50.3020   -0.9810  -16.9770 C   0  0  0  0  0  0
  -50.7600   -0.0640  -16.0340 C   0  0  0  0  0  0
  -51.6670    0.9170  -16.4210 C   0  0  0  0  0  0
  -52.1100    0.9780  -17.7410 C   0  0  0  0  0  0
  -50.7230   -1.0460  -21.4300 C   0  0  0  0  0  0
  -49.4200   -0.5680  -21.2700 C   0  0  0  0  0  0
  -48.3300   -1.4010  -21.5370 C   0  0  0  0  0  0
  -48.5280   -2.7120  -21.9670 C   0  0  0  0  0  0
  -49.8250   -3.1950  -22.1270 C   0  0  0  0  0  0
  -50.9150   -2.3680  -21.8520 C   0  0  0  0  0  0
  -55.7425    1.8407  -23.7669 H   0  0  0  0  0  0
  -53.2578   -1.1950  -28.1183 H   0  0  0  0  0  0
  -53.2971    0.6068  -29.8114 H   0  0  0  0  0  0
  -52.5041    2.8870  -29.2233 H   0  0  0  0  0  0
  -51.6732    3.3462  -26.9304 H   0  0  0  0  0  0
  -51.5947    1.5358  -25.2406 H   0  0  0  0  0  0
  -53.4743   -1.3733  -25.6071 H   0  0  0  0  0  0
  -51.6480   -2.3317  -27.1765 H   0  0  0  0  0  0
  -50.4141   -1.7264  -26.0199 H   0  0  0  0  0  0
  -51.0560   -4.1668  -25.4529 H   0  0  0  0  0  0
  -51.0885   -0.9280  -23.8105 H   0  0  0  0  0  0
  -50.3887   -1.6532  -19.0256 H   0  0  0  0  0  0
  -49.5914   -1.7524  -16.6802 H   0  0  0  0  0  0
  -50.4110   -0.1146  -15.0026 H   0  0  0  0  0  0
  -52.0319    1.6392  -15.6907 H   0  0  0  0  0  0
  -52.8306    1.7446  -18.0259 H   0  0  0  0  0  0
  -49.2533    0.4562  -20.9364 H   0  0  0  0  0  0
  -47.3162   -1.0221  -21.4078 H   0  0  0  0  0  0
  -47.6735   -3.3553  -22.1768 H   0  0  0  0  0  0
  -49.9882   -4.2178  -22.4666 H   0  0  0  0  0  0
  -51.9274   -2.7551  -21.9669 H   0  0  0  0  0  0
  1  2  1  0  0  0
  1  5  2  0  0  0
  1  6  1  0  0  0
  2  7  2  0  0  0
  2 26  1  0  0  0
  3  4  2  0  0  0
  3  5  1  0  0  0
  4 18  1  0  0  0
  4 32  1  0  0  0
  5 17  1  0  0  0
  6 18  2  0  0  0
  6 19  1  0  0  0
  7 19  1  0  0  0
  7 20  1  0  0  0
  8  9  2  0  0  0
  8 13  1  0  0  0
  8 33  1  0  0  0
  9 10  1  0  0  0
  9 34  1  0  0  0
 10 11  2  0  0  0
 10 35  1  0  0  0
 11 12  1  0  0  0
 11 36  1  0  0  0
 12 13  2  0  0  0
 12 37  1  0  0  0
 13 14  1  0  0  0
 14 15  1  0  0  0
 14 17  1  0  0  0
 14 38  1  0  0  0
 15 16  1  0  0  0
 15 39  1  0  0  0
 15 40  1  0  0  0
 16 41  1  0  0  0
 17 42  1  0  0  0
 20 21  2  0  0  0
 20 25  1  0  0  0
 21 22  1  0  0  0
 21 43  1  0  0  0
 22 23  2  0  0  0
 22 44  1  0  0  0
 23 24  1  0  0  0
 23 45  1  0  0  0
 24 25  2  0  0  0
 24 46  1  0  0  0
 25 47  1  0  0  0
 26 27  2  0  0  0
 26 31  1  0  0  0
 27 28  1  0  0  0
 27 48  1  0  0  0
 28 29  2  0  0  0
 28 49  1  0  0  0
 29 30  1  0  0  0
 29 50  1  0  0  0
 30 31  2  0  0  0
 30 51  1  0  0  0
 31 52  1  0  0  0
M  END
> <s_m_source_file>
../4jq7_ligand.sdf

> <i_m_source_file_index>
1

> <s_epik_input>
W2NIXTFbY0hdW2NIXVtjSF1bY0hdYzEtYzJjKC1jM1tjSF1bY0hdW2NIXVtjSF1bY0hdMylvYyhjMjQpbltjSF1uYzRbTkhdW0NASF0oW0NIMl1bT0hdKWM1W2NIXVtjSF1bY0hdW2NIXVtjSF01

> <s_epik_cmdline>
J2VwaWtfYXBwJywgJy1pbWFlJywgJ2xpZ2FuZF9wcm8ubWFlJywgJy1vbWFlJywgJ2xpZ2FuZF9wcmVwLm1hZScsICctbXMnLCAnMScsICctcGgnLCAnNycsICctcGh0JywgJzAuNScsICctbnQn

> <r_lp_tautomer_probability>
1

> <r_epik_Ionization_Penalty>
  0.0000

> <r_epik_Ionization_Penalty_Charging>
  0.0000

> <r_epik_Ionization_Penalty_Neutral>
  0.0000

> <r_epik_State_Penalty>
 -0.0000

> <r_epik_Charging_Adjusted_Penalty>
0

> <i_epik_Tot_Q>
0

> <i_epik_Tot_abs_Q>
0

$$$$
