4jq8_ligand
                    3D
 Schrodinger Suite 2020-3.
 71 75  0  0  1  0            999 V2000
  155.6730  120.1920  196.2610 C   0  0  0  0  0  0
  154.3330  120.7330  196.5650 N   0  3  0  0  0  0
  153.2940  119.8090  196.0690 C   0  0  0  0  0  0
  154.1330  122.1350  196.1470 C   0  0  0  0  0  0
  153.4990  122.9410  197.2770 C   0  0  0  0  0  0
  152.1640  123.5670  196.7710 C   0  0  0  0  0  0
  152.1110  124.0380  195.6440 O   0  0  0  0  0  0
  151.1450  123.6630  197.6740 N   0  0  0  0  0  0
  149.9490  124.2320  197.3340 C   0  0  0  0  0  0
  149.0610  124.5510  198.3820 C   0  0  0  0  0  0
  149.5380  124.5230  196.0210 C   0  0  0  0  0  0
  148.2850  125.0940  195.7960 C   0  0  0  0  0  0
  147.4190  125.3870  196.8500 C   0  0  0  0  0  0
  147.7970  125.1300  198.1740 C   0  0  0  0  0  0
  146.9610  125.3930  199.2200 C   0  0  0  0  0  0
  146.5090  124.4600  200.1160 C   0  0  0  0  0  0
  146.3940  126.5800  199.5480 C   0  0  0  0  0  0
  146.5280  127.8050  199.0400 C   0  0  0  0  0  0
  147.5520  128.1700  198.1520 C   0  0  0  0  0  0
  147.6440  129.4830  197.7040 C   0  0  0  0  0  0
  146.7540  130.4470  198.1670 C   0  0  0  0  0  0
  145.7640  130.1090  199.0800 C   0  0  0  0  0  0
  145.6560  128.7960  199.5200 C   0  0  0  0  0  0
  145.6290  126.4140  200.6270 O   0  0  0  0  0  0
  145.6910  125.1240  200.9760 C   0  0  0  0  0  0
  145.0710  124.5160  201.9980 N   0  0  0  0  0  0
  145.2770  123.1540  202.2020 C   0  0  0  0  0  0
  146.1150  122.4720  201.3340 N   0  0  0  0  0  0
  146.7090  123.1240  200.3130 C   0  0  0  0  0  0
  147.4820  122.4160  199.4480 N   0  0  0  0  0  0
  147.8220  120.9760  199.6370 C   0  0  2  0  0  0
  148.7770  120.5070  198.5660 C   0  0  0  0  0  0
  150.0700  121.0460  198.8070 O   0  0  0  0  0  0
  146.6880  120.1040  199.6130 C   0  0  0  0  0  0
  145.4330  120.4960  199.1440 C   0  0  0  0  0  0
  144.3500  119.6110  199.1490 C   0  0  0  0  0  0
  144.4990  118.3090  199.6090 C   0  0  0  0  0  0
  145.7420  117.9030  200.0660 C   0  0  0  0  0  0
  146.8180  118.7910  200.0750 C   0  0  0  0  0  0
  155.7338  119.1488  196.6045 H   0  0  0  0  0  0
  156.4366  120.7929  196.7766 H   0  0  0  0  0  0
  155.8467  120.2314  195.1755 H   0  0  0  0  0  0
  154.2422  120.7896  197.6598 H   0  0  0  0  0  0
  153.5117  118.7897  196.4206 H   0  0  0  0  0  0
  153.2852  119.8235  194.9691 H   0  0  0  0  0  0
  152.3109  120.1254  196.4478 H   0  0  0  0  0  0
  155.1040  122.5826  195.8885 H   0  0  0  0  0  0
  153.4702  122.1651  195.2696 H   0  0  0  0  0  0
  153.2963  122.2782  198.1312 H   0  0  0  0  0  0
  154.1876  123.7403  197.5884 H   0  0  0  0  0  0
  151.2779  123.2789  198.6962 H   0  0  0  0  0  0
  149.3704  124.3378  199.4052 H   0  0  0  0  0  0
  150.1968  124.3030  195.1810 H   0  0  0  0  0  0
  147.9759  125.3160  194.7746 H   0  0  0  0  0  0
  146.4404  125.8194  196.6414 H   0  0  0  0  0  0
  148.2734  127.4258  197.8144 H   0  0  0  0  0  0
  148.4171  129.7584  196.9866 H   0  0  0  0  0  0
  146.8344  131.4740  197.8108 H   0  0  0  0  0  0
  145.0758  130.8694  199.4492 H   0  0  0  0  0  0
  144.8865  128.5319  200.2454 H   0  0  0  0  0  0
  144.7893  122.6350  203.0272 H   0  0  0  0  0  0
  147.8627  122.9605  198.5713 H   0  0  0  0  0  0
  148.2332  120.8976  200.6542 H   0  0  0  0  0  0
  148.8318  119.4084  198.5791 H   0  0  0  0  0  0
  148.4190  120.8445  197.5821 H   0  0  0  0  0  0
  150.8999  120.8107  198.1245 H   0  0  0  0  0  0
  145.2947  121.5095  198.7673 H   0  0  0  0  0  0
  143.3780  119.9469  198.7878 H   0  0  0  0  0  0
  143.6543  117.6201  199.6104 H   0  0  0  0  0  0
  145.8805  116.8819  200.4213 H   0  0  0  0  0  0
  147.7834  118.4528  200.4514 H   0  0  0  0  0  0
  1  2  1  0  0  0
  1 40  1  0  0  0
  1 41  1  0  0  0
  1 42  1  0  0  0
  2  3  1  0  0  0
  2  4  1  0  0  0
  2 43  1  0  0  0
  3 44  1  0  0  0
  3 45  1  0  0  0
  3 46  1  0  0  0
  4  5  1  0  0  0
  4 47  1  0  0  0
  4 48  1  0  0  0
  5  6  1  0  0  0
  5 49  1  0  0  0
  5 50  1  0  0  0
  6  7  2  0  0  0
  6  8  1  0  0  0
  8  9  1  0  0  0
  8 51  1  0  0  0
  9 10  2  0  0  0
  9 11  1  0  0  0
 10 14  1  0  0  0
 10 52  1  0  0  0
 11 12  2  0  0  0
 11 53  1  0  0  0
 12 13  1  0  0  0
 12 54  1  0  0  0
 13 14  2  0  0  0
 13 55  1  0  0  0
 14 15  1  0  0  0
 15 16  1  0  0  0
 15 17  2  0  0  0
 16 25  2  0  0  0
 16 29  1  0  0  0
 17 18  1  0  0  0
 17 24  1  0  0  0
 18 19  2  0  0  0
 18 23  1  0  0  0
 19 20  1  0  0  0
 19 56  1  0  0  0
 20 21  2  0  0  0
 20 57  1  0  0  0
 21 22  1  0  0  0
 21 58  1  0  0  0
 22 23  2  0  0  0
 22 59  1  0  0  0
 23 60  1  0  0  0
 24 25  1  0  0  0
 25 26  1  0  0  0
 26 27  2  0  0  0
 27 28  1  0  0  0
 27 61  1  0  0  0
 28 29  2  0  0  0
 29 30  1  0  0  0
 30 31  1  0  0  0
 30 62  1  0  0  0
 31 32  1  0  0  0
 31 34  1  0  0  0
 31 63  1  0  0  0
 32 33  1  0  0  0
 32 64  1  0  0  0
 32 65  1  0  0  0
 33 66  1  0  0  0
 34 35  2  0  0  0
 34 39  1  0  0  0
 35 36  1  0  0  0
 35 67  1  0  0  0
 36 37  2  0  0  0
 36 68  1  0  0  0
 37 38  1  0  0  0
 37 69  1  0  0  0
 38 39  2  0  0  0
 38 70  1  0  0  0
 39 71  1  0  0  0
M  CHG  1   2   1
M  END
> <s_m_source_file>
../4jq8_ligand.sdf

> <i_m_source_file_index>
1

> <s_epik_input>
W0NIM11bTkgrXShbQ0gzXSlbQ0gyXVtDSDJdQyg9TylbTkhdYzFbY0hdYyhbY0hdW2NIXVtjSF0xKS1jMmMoLWMzW2NIXVtjSF1bY0hdW2NIXVtjSF0zKW9jKGMyNCluW2NIXW5jNFtOSF1bQ0BIXShbQ0gyXVtPSF0pYzVbY0hdW2NIXVtjSF1bY0hdW2NIXTU=

> <s_epik_cmdline>
J2VwaWtfYXBwJywgJy1pbWFlJywgJ2xpZ2FuZF9wcm8ubWFlJywgJy1vbWFlJywgJ2xpZ2FuZF9wcmVwLm1hZScsICctbXMnLCAnMScsICctcGgnLCAnNycsICctcGh0JywgJzAuNScsICctbnQn

> <r_lp_tautomer_probability>
1

> <r_epik_Ionization_Penalty>
  0.0066

> <r_epik_Ionization_Penalty_Charging>
  0.0066

> <r_epik_Ionization_Penalty_Neutral>
  0.0000

> <r_epik_State_Penalty>
 -0.0000

> <r_epik_Charging_Adjusted_Penalty>
0.00655050731282295

> <i_epik_Tot_Q>
1

> <i_epik_Tot_abs_Q>
1

$$$$
