4jql_ligand
                    3D
 Schrodinger Suite 2020-3.
 81 82  0  0  1  0            999 V2000
   36.0510    2.6890   54.9920 C   0  0  0  0  0  0
   35.6220    3.6320   54.0140 N   0  0  0  0  0  0
   36.8820    1.8830   54.6220 O   0  0  0  0  0  0
   35.5370    2.6770   56.3990 C   0  0  0  0  0  0
   38.5200    9.8190   60.2360 N   0  0  0  0  0  0
   37.0830    5.5800   59.9720 O   0  0  0  0  0  0
   35.6480    3.7930   57.2290 C   0  0  0  0  0  0
   39.3400    6.0360   60.6730 N   0  0  0  0  0  0
   37.0070    8.1680   59.3500 O   0  0  0  0  0  0
   35.1860    3.7900   58.6680 C   0  0  0  0  0  0
   36.3170    9.6770   60.8950 O   0  0  0  0  0  0
   34.8910    5.1980   59.1160 C   0  0  0  0  0  0
   30.2080    9.3360   58.0830 O   0  0  0  0  0  0
   36.1270    6.0370   59.0780 C   0  0  1  0  0  0
   29.9530    6.7190   59.2540 O   0  0  0  0  0  0
   35.8370    7.4530   59.4460 C   0  0  2  0  0  0
   38.7780    5.6210   58.5120 O   0  0  0  0  0  0
   34.8220    8.0760   58.5360 C   0  0  0  0  0  0
   34.2320    8.1620   53.2020 O   0  0  0  0  0  0
   33.6390    8.4990   59.1350 C   0  0  0  0  0  0
   31.1900    5.5730   56.9650 O   0  0  0  0  0  0
   32.5450    9.2560   58.4340 C   0  0  1  0  0  0
   31.1850    8.7340   58.8440 C   0  0  2  0  0  0
   31.0790    7.2340   58.6760 C   0  0  2  0  0  0
   31.0310    6.9270   57.2080 C   0  0  0  0  0  0
   29.0030    9.7390   58.6620 C   0  0  0  0  0  0
   31.1240    5.1400   55.6420 C   0  0  0  0  0  0
   32.4210    5.3950   54.9520 C   0  0  0  0  0  0
   32.7100    6.7390   54.3740 C   0  0  0  0  0  0
   33.9040    6.9530   53.7640 C   0  0  0  0  0  0
   34.9080    5.8680   53.6430 C   0  0  0  0  0  0
   34.6480    4.6530   54.1760 C   0  0  0  0  0  0
   33.3380    4.3920   54.8460 C   0  0  0  0  0  0
   34.9370    1.4130   56.9210 C   0  0  0  0  0  0
   38.4310    5.5340   59.6840 C   0  0  0  0  0  0
   37.2090    9.2530   60.1740 C   0  0  0  0  0  0
   35.1570    8.2560   57.0780 C   0  0  0  0  0  0
   32.6570   10.6910   58.8090 C   0  0  0  0  0  0
   29.7680    6.8480   60.6120 C   0  0  0  0  0  0
   34.9010    8.0330   51.9950 C   0  0  0  0  0  0
   36.0587    3.6147   53.0045 H   0  0  0  0  0  0
   39.3174    9.4324   59.5843 H   0  0  0  0  0  0
   38.7316   10.6412   60.9354 H   0  0  0  0  0  0
   36.0866    4.7247   56.8422 H   0  0  0  0  0  0
   39.0769    5.9821   61.7397 H   0  0  0  0  0  0
   40.3004    6.4750   60.3649 H   0  0  0  0  0  0
   34.2737    3.1821   58.7589 H   0  0  0  0  0  0
   35.9750    3.3647   59.3056 H   0  0  0  0  0  0
   34.1386    5.6448   58.4495 H   0  0  0  0  0  0
   34.5050    5.1818   60.1459 H   0  0  0  0  0  0
   36.5671    5.9443   58.0742 H   0  0  0  0  0  0
   35.4986    7.5123   60.4910 H   0  0  0  0  0  0
   33.4528    8.2834   60.1975 H   0  0  0  0  0  0
   32.6578    9.1418   57.3458 H   0  0  0  0  0  0
   30.9701    9.0257   59.8826 H   0  0  0  0  0  0
   31.8856    6.7220   59.2213 H   0  0  0  0  0  0
   31.8368    7.4860   56.7098 H   0  0  0  0  0  0
   30.0582    7.2582   56.8156 H   0  0  0  0  0  0
   28.3612   10.1945   57.8935 H   0  0  0  0  0  0
   29.2049   10.4748   59.4544 H   0  0  0  0  0  0
   28.4936    8.8651   59.0943 H   0  0  0  0  0  0
   30.9100    4.0613   55.6195 H   0  0  0  0  0  0
   30.3241    5.6835   55.1178 H   0  0  0  0  0  0
   31.9725    7.5389   54.4404 H   0  0  0  0  0  0
   35.8508    6.0493   53.1269 H   0  0  0  0  0  0
   33.1166    3.4035   55.2484 H   0  0  0  0  0  0
   34.9356    0.6523   56.1264 H   0  0  0  0  0  0
   33.9040    1.6047   57.2469 H   0  0  0  0  0  0
   35.5295    1.0509   57.7742 H   0  0  0  0  0  0
   36.1509    7.8307   56.8750 H   0  0  0  0  0  0
   35.1597    9.3282   56.8321 H   0  0  0  0  0  0
   34.4049    7.7405   56.4626 H   0  0  0  0  0  0
   33.6452   11.0717   58.5115 H   0  0  0  0  0  0
   32.5360   10.7961   59.8973 H   0  0  0  0  0  0
   31.8726   11.2664   58.2956 H   0  0  0  0  0  0
   28.8156    6.3782   60.8985 H   0  0  0  0  0  0
   29.7457    7.9148   60.8793 H   0  0  0  0  0  0
   30.5950    6.3541   61.1432 H   0  0  0  0  0  0
   35.1351    9.0314   51.5970 H   0  0  0  0  0  0
   34.2644    7.4928   51.2788 H   0  0  0  0  0  0
   35.8344    7.4724   52.1513 H   0  0  0  0  0  0
  1  2  1  0  0  0
  1  3  2  0  0  0
  1  4  1  0  0  0
  2 32  1  0  0  0
  2 41  1  0  0  0
  4  7  2  0  0  0
  4 34  1  0  0  0
  5 36  1  0  0  0
  5 42  1  0  0  0
  5 43  1  0  0  0
  6 14  1  0  0  0
  6 35  1  0  0  0
  7 10  1  0  0  0
  7 44  1  0  0  0
  8 35  1  0  0  0
  8 45  1  0  0  0
  8 46  1  0  0  0
  9 16  1  0  0  0
  9 36  1  0  0  0
 10 12  1  0  0  0
 10 47  1  0  0  0
 10 48  1  0  0  0
 11 36  2  0  0  0
 12 14  1  0  0  0
 12 49  1  0  0  0
 12 50  1  0  0  0
 13 23  1  0  0  0
 13 26  1  0  0  0
 14 16  1  0  0  0
 14 51  1  0  0  0
 15 24  1  0  0  0
 15 39  1  0  0  0
 16 18  1  0  0  0
 16 52  1  0  0  0
 17 35  2  0  0  0
 18 20  2  0  0  0
 18 37  1  0  0  0
 19 30  1  0  0  0
 19 40  1  0  0  0
 20 22  1  0  0  0
 20 53  1  0  0  0
 21 25  1  0  0  0
 21 27  1  0  0  0
 22 23  1  0  0  0
 22 38  1  0  0  0
 22 54  1  0  0  0
 23 24  1  0  0  0
 23 55  1  0  0  0
 24 25  1  0  0  0
 24 56  1  0  0  0
 25 57  1  0  0  0
 25 58  1  0  0  0
 26 59  1  0  0  0
 26 60  1  0  0  0
 26 61  1  0  0  0
 27 28  1  0  0  0
 27 62  1  0  0  0
 27 63  1  0  0  0
 28 29  2  0  0  0
 28 33  1  0  0  0
 29 30  1  0  0  0
 29 64  1  0  0  0
 30 31  2  0  0  0
 31 32  1  0  0  0
 31 65  1  0  0  0
 32 33  2  0  0  0
 33 66  1  0  0  0
 34 67  1  0  0  0
 34 68  1  0  0  0
 34 69  1  0  0  0
 37 70  1  0  0  0
 37 71  1  0  0  0
 37 72  1  0  0  0
 38 73  1  0  0  0
 38 74  1  0  0  0
 38 75  1  0  0  0
 39 76  1  0  0  0
 39 77  1  0  0  0
 39 78  1  0  0  0
 40 79  1  0  0  0
 40 80  1  0  0  0
 40 81  1  0  0  0
M  END
> <s_m_source_file>
../4jql_ligand.sdf

> <i_m_source_file_index>
1

> <s_epik_input>
YzEyW2NIXWMoT1tDSDNdKVtjSF1jKFtjSF0yKVtOSF1DKD1PKS9DKFtDSDNdKT1bQ0hdL1tDSDJdW0NIMl1bQ0BIXShPQyg9TylbTkgyXSlbQ0BASF0oT0MoPU8pW05IMl0pL0MoW0NIM10pPVtDSF0vW0NASF0oW0NIM10pW0NAQEhdKE9bQ0gzXSlbQ0BASF0oT1tDSDNdKVtDSDJdT1tDSDJdMQ==

> <s_epik_cmdline>
J2VwaWtfYXBwJywgJy1pbWFlJywgJ2xpZ2FuZF9wcm8ubWFlJywgJy1vbWFlJywgJ2xpZ2FuZF9wcmVwLm1hZScsICctbXMnLCAnMScsICctcGgnLCAnNycsICctcGh0JywgJzAuNScsICctbnQn

> <r_lp_tautomer_probability>
1

> <r_epik_Ionization_Penalty>
  0.0061

> <r_epik_Ionization_Penalty_Charging>
  0.0000

> <r_epik_Ionization_Penalty_Neutral>
  0.0061

> <r_epik_State_Penalty>
 -0.0000

> <r_epik_Charging_Adjusted_Penalty>
0

> <i_epik_Tot_Q>
0

> <i_epik_Tot_abs_Q>
0

> <s_epik_Chemistry_Notes>
This compound has an ester and may undergo hydrolysis at high or low pH.

$$$$
