4jr0_ligand
                    3D
 Schrodinger Suite 2020-3.
 67 66  0  0  1  0            999 V2000
   -9.0890    6.2680   36.9690 C   0  0  0  0  0  0
   -7.8690    6.2300   36.8890 O   0  0  0  0  0  0
   -9.7250    6.1810   38.3440 C   0  0  0  0  0  0
   -9.8910    6.5750   35.9410 N   0  0  0  0  0  0
   -9.3970    6.7490   34.5740 C   0  0  2  0  0  0
   -8.9080    8.1640   34.3110 C   0  0  0  0  0  0
   -9.5420    9.1410   34.7110 O   0  0  0  0  0  0
  -10.4730    6.4070   33.5520 C   0  0  0  0  0  0
  -10.8750    4.9560   33.6020 C   0  0  0  0  0  0
  -10.0340    4.1070   33.9830 O   0  5  0  0  0  0
  -12.0310    4.6720   33.2460 O   0  0  0  0  0  0
   -7.7700    8.2570   33.6470 N   0  0  0  0  0  0
   -7.1630    9.5360   33.3040 C   0  0  2  0  0  0
   -6.6270    9.4260   31.8830 C   0  0  0  0  0  0
   -6.3870    8.3200   31.3920 O   0  0  0  0  0  0
   -6.0300    9.8660   34.2870 C   0  0  0  0  0  0
   -6.5320    9.9810   35.7450 C   0  0  0  0  0  0
   -5.4190   10.1630   36.7800 C   0  0  0  0  0  0
   -4.2360   10.2780   36.3900 O   0  0  0  0  0  0
   -5.7400   10.1870   37.9950 O   0  5  0  0  0  0
   -6.4670   10.5620   31.2190 N   0  0  0  0  0  0
   -5.8890   10.5440   29.8820 C   0  0  2  0  0  0
   -4.4300   10.9180   29.9020 C   0  0  0  0  0  0
   -3.9460   11.6050   30.8140 O   0  0  0  0  0  0
   -6.6060   11.4800   28.8750 C   0  0  0  0  0  0
   -7.9770   10.9510   28.5360 C   0  0  0  0  0  0
   -6.6580   12.9340   29.3790 C   0  0  0  0  0  0
   -2.2660   11.8540   27.4980 C   0  0  1  0  0  0
   -3.7440   10.4550   28.8760 N   0  0  0  0  0  0
   -1.1730   11.9040   26.8500 O   0  0  0  0  0  0
   -2.3620   10.8230   28.6250 C   0  0  1  0  0  0
   -1.5030    9.5630   28.3510 C   0  0  0  0  0  0
   -1.1560    8.7310   29.5780 C   0  0  0  0  0  0
   -0.9780    7.5140   29.5040 O   0  0  0  0  0  0
   -1.0800    9.3400   30.6600 O   0  5  0  0  0  0
   -2.8400   13.2340   28.0410 C   0  0  0  0  0  0
   -8.9566    5.9233   39.0877 H   0  0  0  0  0  0
  -10.5050    5.4054   38.3388 H   0  0  0  0  0  0
  -10.1744    7.1513   38.6022 H   0  0  0  0  0  0
  -10.9625    6.6964   36.1582 H   0  0  0  0  0  0
   -8.5527    6.0468   34.5100 H   0  0  0  0  0  0
  -11.3696    7.0139   33.7465 H   0  0  0  0  0  0
  -10.0985    6.6201   32.5399 H   0  0  0  0  0  0
   -7.2788    7.3182   33.3515 H   0  0  0  0  0  0
   -7.9404   10.3112   33.3735 H   0  0  0  0  0  0
   -5.2699    9.0717   34.2504 H   0  0  0  0  0  0
   -5.5708   10.8260   34.0084 H   0  0  0  0  0  0
   -7.2011   10.8494   35.8350 H   0  0  0  0  0  0
   -7.0794    9.0666   36.0175 H   0  0  0  0  0  0
   -6.7692   11.5164   31.6747 H   0  0  0  0  0  0
   -6.0194    9.4878   29.6036 H   0  0  0  0  0  0
   -6.0384   11.4888   27.9328 H   0  0  0  0  0  0
   -7.8922    9.9131   28.1816 H   0  0  0  0  0  0
   -8.4250   11.5726   27.7467 H   0  0  0  0  0  0
   -8.6137   10.9815   29.4325 H   0  0  0  0  0  0
   -5.6396   13.2774   29.6134 H   0  0  0  0  0  0
   -7.2801   12.9861   30.2847 H   0  0  0  0  0  0
   -7.0914   13.5772   28.5989 H   0  0  0  0  0  0
   -2.6617   11.4807   26.5419 H   0  0  0  0  0  0
   -4.2611    9.7626   28.1954 H   0  0  0  0  0  0
   -0.7279   10.9809   26.4502 H   0  0  0  0  0  0
   -2.0177   11.3044   29.5522 H   0  0  0  0  0  0
   -2.0417    8.8944   27.6634 H   0  0  0  0  0  0
   -0.5468    9.8626   27.8971 H   0  0  0  0  0  0
   -2.7816   13.9932   27.2471 H   0  0  0  0  0  0
   -2.2466   13.5626   28.9069 H   0  0  0  0  0  0
   -3.8889   13.1008   28.3446 H   0  0  0  0  0  0
  1  2  2  0  0  0
  1  3  1  0  0  0
  1  4  1  0  0  0
  3 37  1  0  0  0
  3 38  1  0  0  0
  3 39  1  0  0  0
  4  5  1  0  0  0
  4 40  1  0  0  0
  5  6  1  0  0  0
  5  8  1  0  0  0
  5 41  1  0  0  0
  6  7  2  0  0  0
  6 12  1  0  0  0
  8  9  1  0  0  0
  8 42  1  0  0  0
  8 43  1  0  0  0
  9 10  1  0  0  0
  9 11  2  0  0  0
 12 13  1  0  0  0
 12 44  1  0  0  0
 13 14  1  0  0  0
 13 16  1  0  0  0
 13 45  1  0  0  0
 14 15  2  0  0  0
 14 21  1  0  0  0
 16 17  1  0  0  0
 16 46  1  0  0  0
 16 47  1  0  0  0
 17 18  1  0  0  0
 17 48  1  0  0  0
 17 49  1  0  0  0
 18 19  2  0  0  0
 18 20  1  0  0  0
 21 22  1  0  0  0
 21 50  1  0  0  0
 22 23  1  0  0  0
 22 25  1  0  0  0
 22 51  1  0  0  0
 23 24  2  0  0  0
 23 29  1  0  0  0
 25 26  1  0  0  0
 25 27  1  0  0  0
 25 52  1  0  0  0
 26 53  1  0  0  0
 26 54  1  0  0  0
 26 55  1  0  0  0
 27 56  1  0  0  0
 27 57  1  0  0  0
 27 58  1  0  0  0
 28 30  1  0  0  0
 28 31  1  0  0  0
 28 36  1  0  0  0
 28 59  1  0  0  0
 29 31  1  0  0  0
 29 60  1  0  0  0
 30 61  1  0  0  0
 31 32  1  0  0  0
 31 62  1  0  0  0
 32 33  1  0  0  0
 32 63  1  0  0  0
 32 64  1  0  0  0
 33 34  2  0  0  0
 33 35  1  0  0  0
 36 65  1  0  0  0
 36 66  1  0  0  0
 36 67  1  0  0  0
M  CHG  3  10  -1  20  -1  35  -1
M  END
> <s_m_source_file>
../4jr0_ligand.sdf

> <i_m_source_file_index>
1

> <s_epik_input>
Tz1DKFtDSDNdKVtOSF1bQ0BASF0oW0NIMl1DKD1PKVtPSF0pQyg9TylbTkhdW0NAQEhdKFtDSDJdW0NIMl1DKD1PKVtPSF0pQyg9TylbTkhdW0NAQEhdKFtDSF0oW0NIM10pW0NIM10pQyg9TylbTkhdW0NASF0oW0NASF0oW09IXSlbQ0gzXSlbQ0gyXUMoPU8pW09IXQ==

> <s_epik_cmdline>
J2VwaWtfYXBwJywgJy1pbWFlJywgJ2xpZ2FuZF9wcm8ubWFlJywgJy1vbWFlJywgJ2xpZ2FuZF9wcmVwLm1hZScsICctbXMnLCAnMScsICctcGgnLCAnNycsICctcGh0JywgJzAuNScsICctbnQn

> <r_lp_tautomer_probability>
1

> <r_epik_Ionization_Penalty>
  0.0050

> <r_epik_Ionization_Penalty_Charging>
  0.0050

> <r_epik_Ionization_Penalty_Neutral>
  0.0000

> <r_epik_State_Penalty>
 -0.0000

> <r_epik_Charging_Adjusted_Penalty>
0.00502915245049606

> <i_epik_Tot_Q>
-3

> <i_epik_Tot_abs_Q>
3

$$$$
