4jr3_ligand
                    3D
 Schrodinger Suite 2020-3.
 59 63  0  0  1  0            999 V2000
   50.0260   23.0730    6.6860 C   0  0  0  0  0  0
   49.5430   22.3480    5.4260 C   0  0  0  0  0  0
   48.5880   21.5740    5.4930 O   0  0  0  0  0  0
   50.2520   22.6420    4.3100 N   0  0  0  0  0  0
   49.9530   22.1100    3.1040 C   0  0  0  0  0  0
   51.0130   21.8170    2.2400 C   0  0  0  0  0  0
   48.6450   21.8850    2.6520 C   0  0  0  0  0  0
   48.4290   21.3560    1.3780 C   0  0  0  0  0  0
   49.4990   21.0660    0.5280 C   0  0  0  0  0  0
   50.8080   21.2990    0.9520 C   0  0  0  0  0  0
   51.8760   21.0320    0.1690 C   0  0  0  0  0  0
   52.7670   21.9520   -0.2920 C   0  0  0  0  0  0
   52.2600   19.8170   -0.2660 C   0  0  0  0  0  0
   51.7170   18.5950   -0.0900 C   0  0  0  0  0  0
   50.9340   18.2360    1.0180 C   0  0  0  0  0  0
   50.4150   16.9450    1.1340 C   0  0  0  0  0  0
   50.6750   15.9900    0.1570 C   0  0  0  0  0  0
   51.4570   16.3290   -0.9420 C   0  0  0  0  0  0
   51.9750   17.6190   -1.0630 C   0  0  0  0  0  0
   53.3460   19.9760   -0.9810 O   0  0  0  0  0  0
   53.6730   21.2640   -1.0110 C   0  0  0  0  0  0
   54.7080   21.8690   -1.6210 N   0  0  0  0  0  0
   54.8700   23.2490   -1.5180 C   0  0  0  0  0  0
   53.9380   23.9550   -0.7790 N   0  0  0  0  0  0
   52.9280   23.3000   -0.1790 C   0  0  0  0  0  0
   52.0210   24.0090    0.5000 N   0  0  0  0  0  0
   52.2610   25.3610    1.0540 C   0  0  2  0  0  0
   51.1360   25.6170    2.0440 C   0  0  0  0  0  0
   51.7850   26.1120    3.2120 O   0  0  0  0  0  0
   52.2810   26.3510    0.0410 C   0  0  0  0  0  0
   51.7830   26.1210   -1.2540 C   0  0  0  0  0  0
   51.8330   27.1180   -2.2290 C   0  0  0  0  0  0
   52.3730   28.3620   -1.9200 C   0  0  0  0  0  0
   52.8680   28.6000   -0.6390 C   0  0  0  0  0  0
   52.8260   27.6010    0.3340 C   0  0  0  0  0  0
   49.3994   22.7791    7.5410 H   0  0  0  0  0  0
   49.9529   24.1600    6.5343 H   0  0  0  0  0  0
   51.0725   22.8004    6.8874 H   0  0  0  0  0  0
   51.1040   23.3354    4.3665 H   0  0  0  0  0  0
   52.0333   21.9972    2.5786 H   0  0  0  0  0  0
   47.7974   22.1229    3.2947 H   0  0  0  0  0  0
   47.4097   21.1664    1.0415 H   0  0  0  0  0  0
   49.3117   20.6582   -0.4653 H   0  0  0  0  0  0
   50.7291   18.9720    1.7954 H   0  0  0  0  0  0
   49.8017   16.6838    1.9964 H   0  0  0  0  0  0
   50.2688   14.9830    0.2519 H   0  0  0  0  0  0
   51.6658   15.5851   -1.7108 H   0  0  0  0  0  0
   52.5895   17.8718   -1.9270 H   0  0  0  0  0  0
   55.7039   23.7556   -2.0039 H   0  0  0  0  0  0
   51.0431   23.5242    0.6368 H   0  0  0  0  0  0
   53.2693   25.4405    1.4865 H   0  0  0  0  0  0
   50.4372   26.3544    1.6223 H   0  0  0  0  0  0
   50.6010   24.6766    2.2423 H   0  0  0  0  0  0
   51.1919   26.3816    4.0983 H   0  0  0  0  0  0
   51.3520   25.1504   -1.4995 H   0  0  0  0  0  0
   51.4498   26.9224   -3.2305 H   0  0  0  0  0  0
   52.4089   29.1467   -2.6757 H   0  0  0  0  0  0
   53.2913   29.5745   -0.3954 H   0  0  0  0  0  0
   53.2219   27.7988    1.3301 H   0  0  0  0  0  0
  1  2  1  0  0  0
  1 36  1  0  0  0
  1 37  1  0  0  0
  1 38  1  0  0  0
  2  3  2  0  0  0
  2  4  1  0  0  0
  4  5  1  0  0  0
  4 39  1  0  0  0
  5  6  2  0  0  0
  5  7  1  0  0  0
  6 10  1  0  0  0
  6 40  1  0  0  0
  7  8  2  0  0  0
  7 41  1  0  0  0
  8  9  1  0  0  0
  8 42  1  0  0  0
  9 10  2  0  0  0
  9 43  1  0  0  0
 10 11  1  0  0  0
 11 12  1  0  0  0
 11 13  2  0  0  0
 12 21  2  0  0  0
 12 25  1  0  0  0
 13 14  1  0  0  0
 13 20  1  0  0  0
 14 15  2  0  0  0
 14 19  1  0  0  0
 15 16  1  0  0  0
 15 44  1  0  0  0
 16 17  2  0  0  0
 16 45  1  0  0  0
 17 18  1  0  0  0
 17 46  1  0  0  0
 18 19  2  0  0  0
 18 47  1  0  0  0
 19 48  1  0  0  0
 20 21  1  0  0  0
 21 22  1  0  0  0
 22 23  2  0  0  0
 23 24  1  0  0  0
 23 49  1  0  0  0
 24 25  2  0  0  0
 25 26  1  0  0  0
 26 27  1  0  0  0
 26 50  1  0  0  0
 27 28  1  0  0  0
 27 30  1  0  0  0
 27 51  1  0  0  0
 28 29  1  0  0  0
 28 52  1  0  0  0
 28 53  1  0  0  0
 29 54  1  0  0  0
 30 31  2  0  0  0
 30 35  1  0  0  0
 31 32  1  0  0  0
 31 55  1  0  0  0
 32 33  2  0  0  0
 32 56  1  0  0  0
 33 34  1  0  0  0
 33 57  1  0  0  0
 34 35  2  0  0  0
 34 58  1  0  0  0
 35 59  1  0  0  0
M  END
> <s_m_source_file>
../4jr3_ligand.sdf

> <i_m_source_file_index>
1

> <s_epik_input>
W0NIM11DKD1PKVtOSF1jMVtjSF1jKFtjSF1bY0hdW2NIXTEpLWMyYygtYzNbY0hdW2NIXVtjSF1bY0hdW2NIXTMpb2MoYzI0KW5bY0hdbmM0W05IXVtDQEhdKFtDSDJdW09IXSljNVtjSF1bY0hdW2NIXVtjSF1bY0hdNQ==

> <s_epik_cmdline>
J2VwaWtfYXBwJywgJy1pbWFlJywgJ2xpZ2FuZF9wcm8ubWFlJywgJy1vbWFlJywgJ2xpZ2FuZF9wcmVwLm1hZScsICctbXMnLCAnMScsICctcGgnLCAnNycsICctcGh0JywgJzAuNScsICctbnQn

> <r_lp_tautomer_probability>
1

> <r_epik_Ionization_Penalty>
  0.0000

> <r_epik_Ionization_Penalty_Charging>
  0.0000

> <r_epik_Ionization_Penalty_Neutral>
  0.0000

> <r_epik_State_Penalty>
 -0.0000

> <r_epik_Charging_Adjusted_Penalty>
0

> <i_epik_Tot_Q>
0

> <i_epik_Tot_abs_Q>
0

$$$$
