4jr5_ligand
                    3D
 Schrodinger Suite 2020-3.
 48 50  0  0  1  0            999 V2000
   13.8910   11.2630    6.1310 C   0  0  0  0  0  0
   14.9700   10.2990    7.9430 C   0  0  0  0  0  0
   14.8020   11.2430    3.7750 C   0  0  0  0  0  0
   14.6590    8.3860   -0.9950 C   0  0  0  0  0  0
   14.0420    6.1540   -1.6610 C   0  0  0  0  0  0
   14.9830    6.5490    0.5000 C   0  0  0  0  0  0
   14.8360    5.5510   -5.0670 C   0  0  0  0  0  0
   16.8770    4.2330   -5.5700 C   0  0  0  0  0  0
   15.7220    3.7890   -3.3820 C   0  0  0  0  0  0
   16.0140    9.8760    7.1360 C   0  0  0  0  0  0
   15.9770   10.1690    5.7720 C   0  0  0  0  0  0
   14.8940   10.8840    5.2570 C   0  0  0  0  0  0
   13.9510   10.9700    7.4210 N   0  0  0  0  0  0
   15.5170   10.2440    2.9760 N   0  0  0  0  0  0
   14.9130    9.6280    1.9340 C   0  0  0  0  0  0
   13.3160   10.0560    1.4720 S   0  0  0  0  0  0
   15.6080    8.6870    1.2690 N   0  0  0  0  0  0
   15.0810    7.9110    0.2330 C   0  0  0  0  0  0
   14.1420    7.5030   -1.9370 C   0  0  0  0  0  0
   14.4700    5.6770   -0.4380 C   0  0  0  0  0  0
   13.3910    5.0250   -2.8600 S   0  0  0  0  0  0
   13.1260    3.8060   -2.1760 O   0  0  0  0  0  0
   12.3920    5.7340   -3.5640 O   0  0  0  0  0  0
   14.7030    4.7650   -3.8290 N   0  0  0  0  0  0
   15.5780    4.7780   -6.1550 C   0  0  0  0  0  0
   16.5170    3.1600   -4.5430 C   0  0  0  0  0  0
   13.0322   11.8151    5.7494 H   0  0  0  0  0  0
   14.9858   10.0798    9.0106 H   0  0  0  0  0  0
   13.7459   11.2656    3.4681 H   0  0  0  0  0  0
   15.2534   12.2322    3.6086 H   0  0  0  0  0  0
   14.7313    9.4492   -1.2241 H   0  0  0  0  0  0
   15.3164    6.1654    1.4643 H   0  0  0  0  0  0
   13.8363    5.8076   -5.4475 H   0  0  0  0  0  0
   15.3964    6.4739   -4.8570 H   0  0  0  0  0  0
   17.4881    3.7992   -6.3752 H   0  0  0  0  0  0
   17.4331    5.0502   -5.0874 H   0  0  0  0  0  0
   16.4439    4.2898   -2.7202 H   0  0  0  0  0  0
   15.2308    2.9702   -2.8359 H   0  0  0  0  0  0
   16.8518    9.3226    7.5603 H   0  0  0  0  0  0
   16.7844    9.8433    5.1162 H   0  0  0  0  0  0
   16.5581    9.9866    3.2207 H   0  0  0  0  0  0
   16.6581    8.4906    1.5314 H   0  0  0  0  0  0
   13.8118    7.8806   -2.9047 H   0  0  0  0  0  0
   14.4026    4.6124   -0.2138 H   0  0  0  0  0  0
   14.9497    3.9467   -6.5074 H   0  0  0  0  0  0
   15.8009    5.4512   -6.9959 H   0  0  0  0  0  0
   15.9035    2.3837   -5.0235 H   0  0  0  0  0  0
   17.4382    2.7069   -4.1478 H   0  0  0  0  0  0
  1 12  2  0  0  0
  1 13  1  0  0  0
  1 27  1  0  0  0
  2 10  1  0  0  0
  2 13  2  0  0  0
  2 28  1  0  0  0
  3 12  1  0  0  0
  3 14  1  0  0  0
  3 29  1  0  0  0
  3 30  1  0  0  0
  4 18  2  0  0  0
  4 19  1  0  0  0
  4 31  1  0  0  0
  5 19  2  0  0  0
  5 20  1  0  0  0
  5 21  1  0  0  0
  6 18  1  0  0  0
  6 20  2  0  0  0
  6 32  1  0  0  0
  7 24  1  0  0  0
  7 25  1  0  0  0
  7 33  1  0  0  0
  7 34  1  0  0  0
  8 25  1  0  0  0
  8 26  1  0  0  0
  8 35  1  0  0  0
  8 36  1  0  0  0
  9 24  1  0  0  0
  9 26  1  0  0  0
  9 37  1  0  0  0
  9 38  1  0  0  0
 10 11  2  0  0  0
 10 39  1  0  0  0
 11 12  1  0  0  0
 11 40  1  0  0  0
 14 15  1  0  0  0
 14 41  1  0  0  0
 15 16  2  0  0  0
 15 17  1  0  0  0
 17 18  1  0  0  0
 17 42  1  0  0  0
 19 43  1  0  0  0
 20 44  1  0  0  0
 21 22  2  0  0  0
 21 23  2  0  0  0
 21 24  1  0  0  0
 25 45  1  0  0  0
 25 46  1  0  0  0
 26 47  1  0  0  0
 26 48  1  0  0  0
M  END
> <s_m_source_file>
../4jr5_ligand.sdf

> <i_m_source_file_index>
1

> <s_epik_input>
W2NIXTFbY0hdW2NIXW5bY0hdYzFbQ0gyXVtOSF1DKD1TKVtOSF1jKFtjSF1bY0hdMilbY0hdW2NIXWMyUyg9TykoPU8pTjNbQ0gyXVtDSDJdW0NIMl1bQ0gyXVtDSDJdMw==

> <s_epik_cmdline>
J2VwaWtfYXBwJywgJy1pbWFlJywgJ2xpZ2FuZF9wcm8ubWFlJywgJy1vbWFlJywgJ2xpZ2FuZF9wcmVwLm1hZScsICctbXMnLCAnMScsICctcGgnLCAnNycsICctcGh0JywgJzAuNScsICctbnQn

> <r_lp_tautomer_probability>
1

> <r_epik_Ionization_Penalty>
  0.0050

> <r_epik_Ionization_Penalty_Charging>
  0.0000

> <r_epik_Ionization_Penalty_Neutral>
  0.0050

> <r_epik_State_Penalty>
 -0.0000

> <r_epik_Charging_Adjusted_Penalty>
0

> <i_epik_Tot_Q>
0

> <i_epik_Tot_abs_Q>
0

$$$$
