4jrg_ligand
                    3D
 Schrodinger Suite 2020-3.
 68 70  0  0  1  0            999 V2000
   11.7810   10.7380   -1.0430 C   0  0  2  0  0  0
   12.4140   11.9570   -0.4310 C   0  0  0  0  0  0
   11.5560   12.8170    0.2200 N   0  0  0  0  0  0
   12.0330   14.0230    0.8900 C   0  0  0  0  0  0
   12.2410   15.1490   -0.1230 C   0  0  0  0  0  0
   12.6460   16.4230    0.6160 C   0  0  2  0  0  0
   11.5000   17.0540    1.1820 O   0  0  0  0  0  0
   13.4030   17.3850   -0.3100 C   0  0  0  0  0  0
   12.5640   17.8250   -1.3690 O   0  0  0  0  0  0
   13.6340   12.1920   -0.4790 O   0  0  0  0  0  0
   10.3500   10.6320   -0.5890 N   0  0  1  0  0  0
   12.4670    9.4660   -0.5490 C   0  0  2  0  0  0
   13.5950    9.0070   -1.4350 C   0  0  0  0  0  0
   13.6010    9.2920   -2.8020 C   0  0  0  0  0  0
   14.6410    8.8170   -3.6130 C   0  0  0  0  0  0
   14.6300    8.2690   -0.8770 C   0  0  0  0  0  0
   15.6690    7.8010   -1.6850 C   0  0  0  0  0  0
   16.9850    6.8940   -0.9550 Cl  0  0  0  0  0  0
   15.6780    8.0630   -3.0630 C   0  0  0  0  0  0
   11.3300    8.4560   -0.4380 C   0  0  1  0  0  0
   10.9650    7.9770   -1.7800 C   0  0  0  0  0  0
   10.6890    7.6040   -2.8200 N   0  0  0  0  0  0
   11.6620    7.2930    0.4690 C   0  0  0  0  0  0
   12.2180    7.5160    1.7450 C   0  0  0  0  0  0
   12.5380    6.4290    2.5610 C   0  0  0  0  0  0
   11.4260    5.9880    0.0240 C   0  0  0  0  0  0
   11.7420    4.9010    0.8410 C   0  0  0  0  0  0
   12.2990    5.1220    2.1040 C   0  0  0  0  0  0
   12.7180    3.7450    3.1190 Cl  0  0  0  0  0  0
   10.1870    9.3030    0.0950 C   0  0  2  0  0  0
    8.8160    8.6700   -0.2080 C   0  0  0  0  0  0
    7.7200    9.1860    0.7580 C   0  0  0  0  0  0
    7.8030   10.7240    0.8970 C   0  0  0  0  0  0
    7.9010    8.5440    2.1420 C   0  0  0  0  0  0
    6.3360    8.7960    0.2100 C   0  0  0  0  0  0
   11.8594   10.8493   -2.1345 H   0  0  0  0  0  0
   10.4835   12.5725    0.2253 H   0  0  0  0  0  0
   11.2920   14.3452    1.6364 H   0  0  0  0  0  0
   12.9892   13.8105    1.3906 H   0  0  0  0  0  0
   13.0347   14.8646   -0.8295 H   0  0  0  0  0  0
   11.3051   15.3241   -0.6739 H   0  0  0  0  0  0
   13.2731   16.1711    1.4839 H   0  0  0  0  0  0
   10.8487   16.4959    1.8707 H   0  0  0  0  0  0
   13.7383   18.2603    0.2657 H   0  0  0  0  0  0
   14.2764   16.8710   -0.7378 H   0  0  0  0  0  0
   12.9532   18.5222   -2.1256 H   0  0  0  0  0  0
   10.1249   11.4523    0.1085 H   0  0  0  0  0  0
   12.9906    9.6144    0.4070 H   0  0  0  0  0  0
   12.7967    9.8841   -3.2386 H   0  0  0  0  0  0
   14.6395    9.0382   -4.6803 H   0  0  0  0  0  0
   14.6319    8.0547    0.1917 H   0  0  0  0  0  0
   16.4820    7.6837   -3.6937 H   0  0  0  0  0  0
   12.3975    8.5331    2.0934 H   0  0  0  0  0  0
   12.9711    6.5936    3.5476 H   0  0  0  0  0  0
   10.9945    5.8195   -0.9627 H   0  0  0  0  0  0
   11.5552    3.8842    0.4956 H   0  0  0  0  0  0
   10.2338    9.4116    1.1886 H   0  0  0  0  0  0
    8.5162    8.9196   -1.2365 H   0  0  0  0  0  0
    8.8849    7.5774   -0.1011 H   0  0  0  0  0  0
    8.7921   11.0039    1.2887 H   0  0  0  0  0  0
    7.0224   11.0722    1.5894 H   0  0  0  0  0  0
    7.6536   11.1898   -0.0883 H   0  0  0  0  0  0
    8.8877    8.8151    2.5457 H   0  0  0  0  0  0
    7.8301    7.4501    2.0508 H   0  0  0  0  0  0
    7.1148    8.9072    2.8203 H   0  0  0  0  0  0
    6.1932    9.2497   -0.7819 H   0  0  0  0  0  0
    5.5551    9.1583    0.8948 H   0  0  0  0  0  0
    6.2704    7.7012    0.1254 H   0  0  0  0  0  0
  1  2  1  0  0  0
  1 11  1  0  0  0
  1 12  1  0  0  0
  1 36  1  0  0  0
  2  3  1  0  0  0
  2 10  2  0  0  0
  3  4  1  0  0  0
  3 37  1  0  0  0
  4  5  1  0  0  0
  4 38  1  0  0  0
  4 39  1  0  0  0
  5  6  1  0  0  0
  5 40  1  0  0  0
  5 41  1  0  0  0
  6  7  1  0  0  0
  6  8  1  0  0  0
  6 42  1  0  0  0
  7 43  1  0  0  0
  8  9  1  0  0  0
  8 44  1  0  0  0
  8 45  1  0  0  0
  9 46  1  0  0  0
 11 30  1  0  0  0
 11 47  1  0  0  0
 12 13  1  0  0  0
 12 20  1  0  0  0
 12 48  1  0  0  0
 13 14  2  0  0  0
 13 16  1  0  0  0
 14 15  1  0  0  0
 14 49  1  0  0  0
 15 19  2  0  0  0
 15 50  1  0  0  0
 16 17  2  0  0  0
 16 51  1  0  0  0
 17 18  1  0  0  0
 17 19  1  0  0  0
 19 52  1  0  0  0
 20 21  1  0  0  0
 20 23  1  0  0  0
 20 30  1  0  0  0
 21 22  3  0  0  0
 23 24  2  0  0  0
 23 26  1  0  0  0
 24 25  1  0  0  0
 24 53  1  0  0  0
 25 28  2  0  0  0
 25 54  1  0  0  0
 26 27  2  0  0  0
 26 55  1  0  0  0
 27 28  1  0  0  0
 27 56  1  0  0  0
 28 29  1  0  0  0
 30 31  1  0  0  0
 30 57  1  0  0  0
 31 32  1  0  0  0
 31 58  1  0  0  0
 31 59  1  0  0  0
 32 33  1  0  0  0
 32 34  1  0  0  0
 32 35  1  0  0  0
 33 60  1  0  0  0
 33 61  1  0  0  0
 33 62  1  0  0  0
 34 63  1  0  0  0
 34 64  1  0  0  0
 34 65  1  0  0  0
 35 66  1  0  0  0
 35 67  1  0  0  0
 35 68  1  0  0  0
M  END
> <s_m_source_file>
../4jrg_ligand.sdf

> <i_m_source_file_index>
1

> <s_epik_input>
W09IXVtDSDJdW0NAQEhdKFtPSF0pW0NIMl1bQ0gyXVtOSF1DKD1PKVtDQEhdKFtOSDIrXVtDQEhdMVtDSDJdQyhbQ0gzXSkoW0NIM10pW0NIM10pW0NASF0oYzJbY0hdW2NIXVtjSF1jKENsKVtjSF0yKVtDQEBdMShDI04pYzNbY0hdW2NIXWMoQ2wpW2NIXVtjSF0z

> <s_epik_cmdline>
J2VwaWtfYXBwJywgJy1pbWFlJywgJ2xpZ2FuZF9wcm8ubWFlJywgJy1vbWFlJywgJ2xpZ2FuZF9wcmVwLm1hZScsICctbXMnLCAnMScsICctcGgnLCAnNycsICctcGh0JywgJzAuNScsICctbnQn

> <r_epik_Ionization_Penalty>
  0.0638

> <r_epik_Ionization_Penalty_Charging>
  0.0000

> <r_epik_Ionization_Penalty_Neutral>
  0.0638

> <r_epik_State_Penalty>
  0.0556

> <r_epik_Charging_Adjusted_Penalty>
0.0555505872201519

> <i_epik_Tot_Q>
0

> <i_epik_Tot_abs_Q>
0

$$$$
