4jrv_ligand
                    3D
 Schrodinger Suite 2020-3.
 74 78  0  0  1  0            999 V2000
  -26.7360  -48.0110   -7.9210 C   0  0  0  0  0  0
  -26.4660  -49.4550   -8.0070 N   0  3  0  0  0  0
  -27.2270  -50.0130   -9.1360 C   0  0  0  0  0  0
  -25.0120  -49.6800   -8.1880 C   0  0  0  0  0  0
  -24.3630  -50.1710   -6.8890 C   0  0  0  0  0  0
  -22.8430  -50.0140   -6.9330 C   0  0  0  0  0  0
  -22.3710  -49.5790   -5.5370 C   0  0  0  0  0  0
  -21.9280  -48.4440   -5.3580 O   0  0  0  0  0  0
  -22.5020  -50.5280   -4.5800 N   0  0  0  0  0  0
  -22.1700  -50.2890   -3.2950 C   0  0  0  0  0  0
  -21.9650  -51.3770   -2.4500 C   0  0  0  0  0  0
  -22.0720  -48.9950   -2.7650 C   0  0  0  0  0  0
  -21.7520  -48.8160   -1.4230 C   0  0  0  0  0  0
  -21.5450  -49.9120   -0.5880 C   0  0  0  0  0  0
  -21.6490  -51.2070   -1.0970 C   0  0  0  0  0  0
  -21.4590  -52.2770   -0.3020 C   0  0  0  0  0  0
  -22.4300  -53.1510    0.0770 C   0  0  0  0  0  0
  -20.2980  -52.6620    0.2630 C   0  0  0  0  0  0
  -19.0500  -52.1600    0.2010 C   0  0  0  0  0  0
  -18.6110  -51.2790   -0.7990 C   0  0  0  0  0  0
  -17.2920  -50.8190   -0.8130 C   0  0  0  0  0  0
  -16.3880  -51.2480    0.1550 C   0  0  0  0  0  0
  -16.8060  -52.1360    1.1410 C   0  0  0  0  0  0
  -18.1230  -52.5910    1.1580 C   0  0  0  0  0  0
  -20.5380  -53.7420    0.9600 O   0  0  0  0  0  0
  -21.8100  -54.0550    0.8650 C   0  0  0  0  0  0
  -22.4590  -55.0910    1.4260 N   0  0  0  0  0  0
  -23.8190  -55.2580    1.2080 C   0  0  0  0  0  0
  -24.4560  -54.3310    0.3990 N   0  0  0  0  0  0
  -23.7660  -53.3120   -0.1530 C   0  0  0  0  0  0
  -24.4510  -52.4300   -0.9080 N   0  0  0  0  0  0
  -25.8790  -52.6430   -1.2730 C   0  0  2  0  0  0
  -26.3680  -51.5350   -2.1850 C   0  0  0  0  0  0
  -25.3670  -51.4590   -3.2060 O   0  0  0  0  0  0
  -26.7360  -52.6930   -0.1480 C   0  0  0  0  0  0
  -26.2830  -52.4990    1.1640 C   0  0  0  0  0  0
  -27.1710  -52.5690    2.2340 C   0  0  0  0  0  0
  -28.5210  -52.8220    2.0120 C   0  0  0  0  0  0
  -28.9790  -53.0110    0.7120 C   0  0  0  0  0  0
  -28.0900  -52.9470   -0.3600 C   0  0  0  0  0  0
  -27.8154  -47.8472   -7.7867 H   0  0  0  0  0  0
  -26.4030  -47.5199   -8.8473 H   0  0  0  0  0  0
  -26.1914  -47.5865   -7.0647 H   0  0  0  0  0  0
  -26.7860  -49.9551   -7.0810 H   0  0  0  0  0  0
  -28.3008  -49.8337   -8.9786 H   0  0  0  0  0  0
  -27.0419  -51.0952   -9.2037 H   0  0  0  0  0  0
  -26.9071  -49.5272  -10.0696 H   0  0  0  0  0  0
  -24.8527  -50.4381   -8.9690 H   0  0  0  0  0  0
  -24.5297  -48.7379   -8.4877 H   0  0  0  0  0  0
  -24.7506  -49.5863   -6.0417 H   0  0  0  0  0  0
  -24.6005  -51.2346   -6.7397 H   0  0  0  0  0  0
  -22.3830  -50.9747   -7.2077 H   0  0  0  0  0  0
  -22.5745  -49.2522   -7.6797 H   0  0  0  0  0  0
  -22.8878  -51.5242   -4.8424 H   0  0  0  0  0  0
  -22.0528  -52.3862   -2.8524 H   0  0  0  0  0  0
  -22.2464  -48.1294   -3.4041 H   0  0  0  0  0  0
  -21.6622  -47.8071   -1.0203 H   0  0  0  0  0  0
  -21.3017  -49.7577    0.4632 H   0  0  0  0  0  0
  -19.3056  -50.9505   -1.5721 H   0  0  0  0  0  0
  -16.9691  -50.1210   -1.5854 H   0  0  0  0  0  0
  -15.3585  -50.8901    0.1404 H   0  0  0  0  0  0
  -16.1026  -52.4762    1.9010 H   0  0  0  0  0  0
  -18.4369  -53.2943    1.9293 H   0  0  0  0  0  0
  -24.3658  -56.0875    1.6564 H   0  0  0  0  0  0
  -23.9225  -51.5304   -1.2565 H   0  0  0  0  0  0
  -25.9435  -53.6426   -1.7276 H   0  0  0  0  0  0
  -27.3545  -51.8030   -2.5911 H   0  0  0  0  0  0
  -26.4488  -50.5986   -1.6135 H   0  0  0  0  0  0
  -25.4655  -50.7249   -4.0192 H   0  0  0  0  0  0
  -25.2287  -52.2920    1.3479 H   0  0  0  0  0  0
  -26.8066  -52.4248    3.2511 H   0  0  0  0  0  0
  -29.2151  -52.8718    2.8510 H   0  0  0  0  0  0
  -30.0354  -53.2096    0.5312 H   0  0  0  0  0  0
  -28.4578  -53.0972   -1.3750 H   0  0  0  0  0  0
  1  2  1  0  0  0
  1 41  1  0  0  0
  1 42  1  0  0  0
  1 43  1  0  0  0
  2  3  1  0  0  0
  2  4  1  0  0  0
  2 44  1  0  0  0
  3 45  1  0  0  0
  3 46  1  0  0  0
  3 47  1  0  0  0
  4  5  1  0  0  0
  4 48  1  0  0  0
  4 49  1  0  0  0
  5  6  1  0  0  0
  5 50  1  0  0  0
  5 51  1  0  0  0
  6  7  1  0  0  0
  6 52  1  0  0  0
  6 53  1  0  0  0
  7  8  2  0  0  0
  7  9  1  0  0  0
  9 10  1  0  0  0
  9 54  1  0  0  0
 10 11  2  0  0  0
 10 12  1  0  0  0
 11 15  1  0  0  0
 11 55  1  0  0  0
 12 13  2  0  0  0
 12 56  1  0  0  0
 13 14  1  0  0  0
 13 57  1  0  0  0
 14 15  2  0  0  0
 14 58  1  0  0  0
 15 16  1  0  0  0
 16 17  1  0  0  0
 16 18  2  0  0  0
 17 26  2  0  0  0
 17 30  1  0  0  0
 18 19  1  0  0  0
 18 25  1  0  0  0
 19 20  2  0  0  0
 19 24  1  0  0  0
 20 21  1  0  0  0
 20 59  1  0  0  0
 21 22  2  0  0  0
 21 60  1  0  0  0
 22 23  1  0  0  0
 22 61  1  0  0  0
 23 24  2  0  0  0
 23 62  1  0  0  0
 24 63  1  0  0  0
 25 26  1  0  0  0
 26 27  1  0  0  0
 27 28  2  0  0  0
 28 29  1  0  0  0
 28 64  1  0  0  0
 29 30  2  0  0  0
 30 31  1  0  0  0
 31 32  1  0  0  0
 31 65  1  0  0  0
 32 33  1  0  0  0
 32 35  1  0  0  0
 32 66  1  0  0  0
 33 34  1  0  0  0
 33 67  1  0  0  0
 33 68  1  0  0  0
 34 69  1  0  0  0
 35 36  2  0  0  0
 35 40  1  0  0  0
 36 37  1  0  0  0
 36 70  1  0  0  0
 37 38  2  0  0  0
 37 71  1  0  0  0
 38 39  1  0  0  0
 38 72  1  0  0  0
 39 40  2  0  0  0
 39 73  1  0  0  0
 40 74  1  0  0  0
M  CHG  1   2   1
M  END
> <s_m_source_file>
../4jrv_ligand.sdf

> <i_m_source_file_index>
1

> <s_epik_input>
W0NIM11bTkgrXShbQ0gzXSlbQ0gyXVtDSDJdW0NIMl1DKD1PKVtOSF1jMVtjSF1jKFtjSF1bY0hdW2NIXTEpLWMyYygtYzNbY0hdW2NIXVtjSF1bY0hdW2NIXTMpb2MoYzI0KW5bY0hdbmM0W05IXVtDQEhdKFtDSDJdW09IXSljNVtjSF1bY0hdW2NIXVtjSF1bY0hdNQ==

> <s_epik_cmdline>
J2VwaWtfYXBwJywgJy1pbWFlJywgJ2xpZ2FuZF9wcm8ubWFlJywgJy1vbWFlJywgJ2xpZ2FuZF9wcmVwLm1hZScsICctbXMnLCAnMScsICctcGgnLCAnNycsICctcGh0JywgJzAuNScsICctbnQn

> <r_lp_tautomer_probability>
1

> <r_epik_Ionization_Penalty>
  0.0030

> <r_epik_Ionization_Penalty_Charging>
  0.0030

> <r_epik_Ionization_Penalty_Neutral>
  0.0000

> <r_epik_State_Penalty>
 -0.0000

> <r_epik_Charging_Adjusted_Penalty>
0.00303718406299064

> <i_epik_Tot_Q>
1

> <i_epik_Tot_abs_Q>
1

$$$$
