4jsa_ligand
                    3D
 Schrodinger Suite 2020-3.
 17 17  0  0  1  0            999 V2000
   16.5460    4.5980   14.2460 C   0  0  0  0  0  0
   17.3480    3.5240   14.6260 C   0  0  0  0  0  0
   16.8700    2.4000   15.3100 C   0  0  0  0  0  0
   15.4820    2.4030   15.5800 C   0  0  0  0  0  0
   14.6810    3.4610   15.1490 C   0  0  0  0  0  0
   15.2040    4.5910   14.4710 C   0  0  0  0  0  0
   14.9430    0.9370   16.4320 S   0  0  0  0  0  0
   13.4490    1.0210   16.6330 O   0  0  0  0  0  0
   15.5400    0.8390   17.8140 O   0  0  0  0  0  0
   15.4680   -0.4640   15.5280 N   0  0  0  0  0  0
   17.0021    5.4601   13.7593 H   0  0  0  0  0  0
   18.4084    3.5610   14.3764 H   0  0  0  0  0  0
   17.5217    1.5805   15.6130 H   0  0  0  0  0  0
   13.6090    3.4170   15.3415 H   0  0  0  0  0  0
   14.5642    5.4117   14.1467 H   0  0  0  0  0  0
   15.1404   -1.3779   16.0452 H   0  0  0  0  0  0
   16.5652   -0.4600   15.4501 H   0  0  0  0  0  0
  1  2  2  0  0  0
  1  6  1  0  0  0
  1 11  1  0  0  0
  2  3  1  0  0  0
  2 12  1  0  0  0
  3  4  2  0  0  0
  3 13  1  0  0  0
  4  5  1  0  0  0
  4  7  1  0  0  0
  5  6  2  0  0  0
  5 14  1  0  0  0
  6 15  1  0  0  0
  7  8  2  0  0  0
  7  9  2  0  0  0
  7 10  1  0  0  0
 10 16  1  0  0  0
 10 17  1  0  0  0
M  END
> <s_m_source_file>
../4jsa_ligand.sdf

> <i_m_source_file_index>
1

> <s_epik_input>
W2NIXTFbY0hdW2NIXVtjSF1bY0hdYzFTKD1PKSg9TylbTkgyXQ==

> <s_epik_cmdline>
J2VwaWtfYXBwJywgJy1pbWFlJywgJ2xpZ2FuZF9wcm8ubWFlJywgJy1vbWFlJywgJ2xpZ2FuZF9wcmVwLm1hZScsICctbXMnLCAnMScsICctcGgnLCAnNycsICctcGh0JywgJzAuNScsICctbnQn

> <r_lp_tautomer_probability>
1

> <r_epik_Ionization_Penalty>
  0.0006

> <r_epik_Ionization_Penalty_Charging>
  0.0000

> <r_epik_Ionization_Penalty_Neutral>
  0.0006

> <r_epik_State_Penalty>
 -0.0000

> <r_epik_Charging_Adjusted_Penalty>
0

> <i_epik_Tot_Q>
0

> <i_epik_Tot_abs_Q>
0

$$$$
