4jsc_ligand
                    3D
 Schrodinger Suite 2020-3.
 68 70  0  0  1  0            999 V2000
  -11.5110   20.8680    0.8390 C   0  0  2  0  0  0
  -12.2880   22.0650    0.4180 C   0  0  0  0  0  0
  -11.6200   22.9450   -0.3750 N   0  0  0  0  0  0
  -12.1560   24.2630   -0.7000 C   0  0  0  0  0  0
  -11.0050   25.2690   -0.6510 C   0  0  0  0  0  0
  -11.4250   26.5980   -1.2560 C   0  0  2  0  0  0
  -10.2700   27.3480   -1.6630 O   0  0  0  0  0  0
  -12.2870   27.3920   -0.2640 C   0  0  0  0  0  0
  -11.5350   27.7190    0.9060 O   0  0  0  0  0  0
  -13.4430   22.3030    0.7910 O   0  0  0  0  0  0
  -10.1840   20.8320    0.1460 N   0  0  1  0  0  0
  -12.1930   19.5750    0.4470 C   0  0  2  0  0  0
  -13.2610   19.1570    1.4000 C   0  0  0  0  0  0
  -13.1450   19.3740    2.7710 C   0  0  0  0  0  0
  -14.1610   18.9140    3.6300 C   0  0  0  0  0  0
  -14.3870   18.5340    0.9260 C   0  0  0  0  0  0
  -14.5680   18.4350   -0.3950 F   0  0  0  0  0  0
  -15.3710   18.0350    1.7360 C   0  0  0  0  0  0
  -16.7150   17.1480    1.0210 Cl  0  0  0  0  0  0
  -15.2750   18.2330    3.1140 C   0  0  0  0  0  0
  -11.0330   18.6000    0.3470 C   0  0  1  0  0  0
  -10.4990   18.2800    1.6760 C   0  0  0  0  0  0
  -10.0660   18.0310    2.7070 N   0  0  0  0  0  0
  -11.3580   17.3210   -0.3700 C   0  0  0  0  0  0
  -11.9690   17.3190   -1.6070 C   0  0  0  0  0  0
  -12.1800   18.5050   -2.2300 F   0  0  0  0  0  0
  -12.3660   16.1710   -2.2490 C   0  0  0  0  0  0
  -11.0680   16.0950    0.2300 C   0  0  0  0  0  0
  -11.4460   14.9080   -0.3980 C   0  0  0  0  0  0
  -12.1180   14.9590   -1.6270 C   0  0  0  0  0  0
  -12.6830   13.4820   -2.3790 Cl  0  0  0  0  0  0
   -9.9990   19.4320   -0.3790 C   0  0  2  0  0  0
   -8.5930   18.9140   -0.1070 C   0  0  0  0  0  0
   -7.6640   19.2440   -1.2790 C   0  0  0  0  0  0
   -8.0400   20.6030   -1.8770 C   0  0  0  0  0  0
   -7.8180   18.1560   -2.3480 C   0  0  0  0  0  0
   -6.2090   19.2820   -0.7840 C   0  0  0  0  0  0
  -11.4153   20.9637    1.9306 H   0  0  0  0  0  0
  -10.6438   22.6342   -0.7755 H   0  0  0  0  0  0
  -12.5976   24.2410   -1.7072 H   0  0  0  0  0  0
  -12.9291   24.5355    0.0335 H   0  0  0  0  0  0
  -10.7063   25.4337    0.3948 H   0  0  0  0  0  0
  -10.1493   24.8751   -1.2190 H   0  0  0  0  0  0
  -11.9837   26.4295   -2.1885 H   0  0  0  0  0  0
   -9.5533   26.9114   -2.3741 H   0  0  0  0  0  0
  -12.6294   28.3231   -0.7393 H   0  0  0  0  0  0
  -13.1584   26.7882    0.0296 H   0  0  0  0  0  0
  -12.0054   28.2892    1.7206 H   0  0  0  0  0  0
  -10.1812   21.5599   -0.6787 H   0  0  0  0  0  0
  -12.7724   19.6499   -0.4850 H   0  0  0  0  0  0
  -12.2765   19.8946    3.1746 H   0  0  0  0  0  0
  -14.0822   19.0878    4.7032 H   0  0  0  0  0  0
  -16.0544   17.8639    3.7807 H   0  0  0  0  0  0
  -12.8614   16.2131   -3.2190 H   0  0  0  0  0  0
  -10.5473   16.0648    1.1871 H   0  0  0  0  0  0
  -11.2202   13.9470    0.0641 H   0  0  0  0  0  0
  -10.1330   19.3962   -1.4702 H   0  0  0  0  0  0
   -8.1987   19.3854    0.8053 H   0  0  0  0  0  0
   -8.6240   17.8228    0.0282 H   0  0  0  0  0  0
   -9.0813   20.5727   -2.2302 H   0  0  0  0  0  0
   -7.3727   20.8291   -2.7217 H   0  0  0  0  0  0
   -7.9360   21.3831   -1.1085 H   0  0  0  0  0  0
   -8.8601   18.1321   -2.6994 H   0  0  0  0  0  0
   -7.5538   17.1789   -1.9174 H   0  0  0  0  0  0
   -7.1506   18.3764   -3.1942 H   0  0  0  0  0  0
   -6.1028   20.0637   -0.0174 H   0  0  0  0  0  0
   -5.5400   19.5035   -1.6286 H   0  0  0  0  0  0
   -5.9431   18.3060   -0.3518 H   0  0  0  0  0  0
  1  2  1  0  0  0
  1 11  1  0  0  0
  1 12  1  0  0  0
  1 38  1  0  0  0
  2  3  1  0  0  0
  2 10  2  0  0  0
  3  4  1  0  0  0
  3 39  1  0  0  0
  4  5  1  0  0  0
  4 40  1  0  0  0
  4 41  1  0  0  0
  5  6  1  0  0  0
  5 42  1  0  0  0
  5 43  1  0  0  0
  6  7  1  0  0  0
  6  8  1  0  0  0
  6 44  1  0  0  0
  7 45  1  0  0  0
  8  9  1  0  0  0
  8 46  1  0  0  0
  8 47  1  0  0  0
  9 48  1  0  0  0
 11 32  1  0  0  0
 11 49  1  0  0  0
 12 13  1  0  0  0
 12 21  1  0  0  0
 12 50  1  0  0  0
 13 14  2  0  0  0
 13 16  1  0  0  0
 14 15  1  0  0  0
 14 51  1  0  0  0
 15 20  2  0  0  0
 15 52  1  0  0  0
 16 17  1  0  0  0
 16 18  2  0  0  0
 18 19  1  0  0  0
 18 20  1  0  0  0
 20 53  1  0  0  0
 21 22  1  0  0  0
 21 24  1  0  0  0
 21 32  1  0  0  0
 22 23  3  0  0  0
 24 25  2  0  0  0
 24 28  1  0  0  0
 25 26  1  0  0  0
 25 27  1  0  0  0
 27 30  2  0  0  0
 27 54  1  0  0  0
 28 29  2  0  0  0
 28 55  1  0  0  0
 29 30  1  0  0  0
 29 56  1  0  0  0
 30 31  1  0  0  0
 32 33  1  0  0  0
 32 57  1  0  0  0
 33 34  1  0  0  0
 33 58  1  0  0  0
 33 59  1  0  0  0
 34 35  1  0  0  0
 34 36  1  0  0  0
 34 37  1  0  0  0
 35 60  1  0  0  0
 35 61  1  0  0  0
 35 62  1  0  0  0
 36 63  1  0  0  0
 36 64  1  0  0  0
 36 65  1  0  0  0
 37 66  1  0  0  0
 37 67  1  0  0  0
 37 68  1  0  0  0
M  END
> <s_m_source_file>
../4jsc_ligand.sdf

> <i_m_source_file_index>
1

> <s_epik_input>
W09IXVtDSDJdW0NAQEhdKFtPSF0pW0NIMl1bQ0gyXVtOSF1DKD1PKVtDQEhdKFtOSDIrXVtDQEhdMVtDSDJdQyhbQ0gzXSkoW0NIM10pW0NIM10pW0NASF0oYzJbY0hdW2NIXVtjSF1jKENsKWMyRilbQ0BAXTEoQyNOKWMzYyhGKVtjSF1jKENsKVtjSF1bY0hdMw==

> <s_epik_cmdline>
J2VwaWtfYXBwJywgJy1pbWFlJywgJ2xpZ2FuZF9wcm8ubWFlJywgJy1vbWFlJywgJ2xpZ2FuZF9wcmVwLm1hZScsICctbXMnLCAnMScsICctcGgnLCAnNycsICctcGh0JywgJzAuNScsICctbnQn

> <r_epik_Ionization_Penalty>
  0.0638

> <r_epik_Ionization_Penalty_Charging>
  0.0000

> <r_epik_Ionization_Penalty_Neutral>
  0.0638

> <r_epik_State_Penalty>
  0.0556

> <r_epik_Charging_Adjusted_Penalty>
0.0555505872201519

> <i_epik_Tot_Q>
0

> <i_epik_Tot_abs_Q>
0

$$$$
