4jsr_ligand
                    3D
 Schrodinger Suite 2020-3.
 59 62  0  0  1  0            999 V2000
   21.1630   54.2790   -6.4830 C   0  0  0  0  0  0
   21.3500   53.3760   -7.7050 C   0  0  0  0  0  0
   21.9500   52.1010   -7.2860 N   0  0  0  0  0  0
   22.1560   51.8070   -6.0050 C   0  0  0  0  0  0
   21.8720   52.5560   -5.0720 O   0  0  0  0  0  0
   22.7890   50.4370   -5.7510 C   0  0  0  0  0  0
   23.2900   49.8570   -4.2580 S   0  0  0  0  0  0
   23.0320   49.5080   -6.6850 C   0  0  0  0  0  0
   23.5990   48.3780   -6.2060 C   0  0  0  0  0  0
   23.8160   48.3910   -4.8850 C   0  0  0  0  0  0
   24.4430   47.2530   -4.0770 C   0  0  0  0  0  0
   24.7330   47.4040   -2.8910 O   0  0  0  0  0  0
   24.6380   46.1250   -4.7530 N   0  0  0  0  0  0
   25.2300   44.9340   -4.1270 C   0  0  0  0  0  0
   24.1200   44.0600   -3.5400 C   0  0  0  0  0  0
   23.7960   44.4750   -2.1040 C   0  0  0  0  0  0
   22.8210   43.4690   -1.4890 C   0  0  0  0  0  0
   22.4780   43.8490   -0.0470 C   0  0  0  0  0  0
   25.0840   44.5090   -1.2790 C   0  0  0  0  0  0
   24.7990   44.9150    0.1690 C   0  0  0  0  0  0
   23.7260   44.0560    0.7200 N   0  0  0  0  0  0
   23.8940   43.4400    1.9650 C   0  0  0  0  0  0
   24.7080   43.9750    2.8840 N   0  0  0  0  0  0
   24.8640   43.3910    4.0590 C   0  0  0  0  0  0
   24.2340   42.2710    4.3740 N   0  0  0  0  0  0
   23.3990   41.6660    3.5150 C   0  0  0  0  0  0
   22.6840   40.5300    3.6770 C   0  0  0  0  0  0
   23.2190   42.2670    2.2650 C   0  0  0  0  0  0
   22.1380   41.3090    1.4050 S   0  0  0  0  0  0
   21.9360   40.1800    2.6250 C   0  0  0  0  0  0
   21.0380   38.9440    2.5490 C   0  0  0  0  0  0
   20.5150   38.6050    1.4890 O   0  0  0  0  0  0
   20.8800   38.2920    3.6980 N   0  0  0  0  0  0
   20.7140   55.2328   -6.7972 H   0  0  0  0  0  0
   22.1401   54.4701   -6.0154 H   0  0  0  0  0  0
   20.5005   53.7829   -5.7585 H   0  0  0  0  0  0
   20.3729   53.1849   -8.1726 H   0  0  0  0  0  0
   22.0125   53.8721   -8.4296 H   0  0  0  0  0  0
   22.2432   51.3567   -8.0410 H   0  0  0  0  0  0
   22.7935   49.6506   -7.7390 H   0  0  0  0  0  0
   23.8571   47.5300   -6.8403 H   0  0  0  0  0  0
   24.3415   46.0998   -5.8120 H   0  0  0  0  0  0
   25.7864   44.3607   -4.8831 H   0  0  0  0  0  0
   25.9153   45.2439   -3.3243 H   0  0  0  0  0  0
   23.2107   44.1632   -4.1503 H   0  0  0  0  0  0
   24.4433   43.0086   -3.5385 H   0  0  0  0  0  0
   23.3369   45.4746   -2.1069 H   0  0  0  0  0  0
   21.8929   43.4502   -2.0791 H   0  0  0  0  0  0
   23.2771   42.4680   -1.4910 H   0  0  0  0  0  0
   21.8875   44.7771   -0.0430 H   0  0  0  0  0  0
   21.8934   43.0404    0.4161 H   0  0  0  0  0  0
   25.5468   43.5111   -1.2804 H   0  0  0  0  0  0
   25.7817   45.2373   -1.7182 H   0  0  0  0  0  0
   25.7119   44.7929    0.7705 H   0  0  0  0  0  0
   24.4784   45.9668    0.1986 H   0  0  0  0  0  0
   25.5318   43.8456    4.7908 H   0  0  0  0  0  0
   22.7148   39.9438    4.5954 H   0  0  0  0  0  0
   21.3795   38.6537    4.6088 H   0  0  0  0  0  0
   20.2499   37.3912    3.7371 H   0  0  0  0  0  0
  1  2  1  0  0  0
  1 34  1  0  0  0
  1 35  1  0  0  0
  1 36  1  0  0  0
  2  3  1  0  0  0
  2 37  1  0  0  0
  2 38  1  0  0  0
  3  4  1  0  0  0
  3 39  1  0  0  0
  4  5  2  0  0  0
  4  6  1  0  0  0
  6  7  1  0  0  0
  6  8  2  0  0  0
  7 10  1  0  0  0
  8  9  1  0  0  0
  8 40  1  0  0  0
  9 10  2  0  0  0
  9 41  1  0  0  0
 10 11  1  0  0  0
 11 12  2  0  0  0
 11 13  1  0  0  0
 13 14  1  0  0  0
 13 42  1  0  0  0
 14 15  1  0  0  0
 14 43  1  0  0  0
 14 44  1  0  0  0
 15 16  1  0  0  0
 15 45  1  0  0  0
 15 46  1  0  0  0
 16 17  1  0  0  0
 16 19  1  0  0  0
 16 47  1  0  0  0
 17 18  1  0  0  0
 17 48  1  0  0  0
 17 49  1  0  0  0
 18 21  1  0  0  0
 18 50  1  0  0  0
 18 51  1  0  0  0
 19 20  1  0  0  0
 19 52  1  0  0  0
 19 53  1  0  0  0
 20 21  1  0  0  0
 20 54  1  0  0  0
 20 55  1  0  0  0
 21 22  1  0  0  0
 22 23  1  0  0  0
 22 28  2  0  0  0
 23 24  2  0  0  0
 24 25  1  0  0  0
 24 56  1  0  0  0
 25 26  2  0  0  0
 26 27  1  0  0  0
 26 28  1  0  0  0
 27 30  2  0  0  0
 27 57  1  0  0  0
 28 29  1  0  0  0
 29 30  1  0  0  0
 30 31  1  0  0  0
 31 32  2  0  0  0
 31 33  1  0  0  0
 33 58  1  0  0  0
 33 59  1  0  0  0
M  END
> <s_m_source_file>
../4jsr_ligand.sdf

> <i_m_source_file_index>
1

> <s_epik_input>
W0NIM11bQ0gyXVtOSF1DKD1PKWMxc2MoW2NIXVtjSF0xKUMoPU8pW05IXVtDSDJdW0NIMl1bQ0hdMltDSDJdW0NIMl1OKFtDSDJdW0NIMl0yKWMobltjSF1uMyljKGMzNClzYyhbY0hdNClDKD1PKVtOSDJd

> <s_epik_cmdline>
J2VwaWtfYXBwJywgJy1pbWFlJywgJ2xpZ2FuZF9wcm8ubWFlJywgJy1vbWFlJywgJ2xpZ2FuZF9wcmVwLm1hZScsICctbXMnLCAnMScsICctcGgnLCAnNycsICctcGh0JywgJzAuNScsICctbnQn

> <r_lp_tautomer_probability>
1

> <r_epik_Ionization_Penalty>
  0.0017

> <r_epik_Ionization_Penalty_Charging>
  0.0000

> <r_epik_Ionization_Penalty_Neutral>
  0.0017

> <r_epik_State_Penalty>
 -0.0000

> <r_epik_Charging_Adjusted_Penalty>
0

> <i_epik_Tot_Q>
0

> <i_epik_Tot_abs_Q>
0

$$$$
