4jt8_ligand
                    3D
 Schrodinger Suite 2020-3.
 54 56  0  0  1  0            999 V2000
   24.3620   48.1330  -15.7750 C   0  0  0  0  0  0
   23.4820   47.2480  -14.9290 C   0  0  0  0  0  0
   22.9140   48.0810  -13.7810 C   0  0  0  0  0  0
   22.3370   46.7530  -15.7980 C   0  0  0  0  0  0
   24.3160   46.0840  -14.3640 C   0  0  0  0  0  0
   24.9770   46.2380  -13.3400 O   0  0  0  0  0  0
   24.2820   44.9270  -15.0450 N   0  0  0  0  0  0
   25.0530   43.7440  -14.6150 C   0  0  0  0  0  0
   24.1740   42.7190  -13.8550 C   0  0  0  0  0  0
   23.7290   43.2310  -12.4550 C   0  0  0  0  0  0
   22.6360   42.2990  -11.9010 C   0  0  0  0  0  0
   22.2080   42.7150  -10.4790 C   0  0  0  0  0  0
   24.9320   43.3580  -11.4740 C   0  0  0  0  0  0
   24.4530   43.7810  -10.0640 C   0  0  0  0  0  0
   23.4000   42.8280   -9.5890 N   0  0  0  0  0  0
   23.5590   42.1400   -8.4180 C   0  0  0  0  0  0
   24.4270   42.6770   -7.5330 N   0  0  0  0  0  0
   24.6810   42.0730   -6.3110 C   0  0  0  0  0  0
   24.0030   40.8880   -6.0390 N   0  0  0  0  0  0
   23.1320   40.3560   -6.9220 C   0  0  0  0  0  0
   22.4150   39.2150   -6.7630 C   0  0  0  0  0  0
   22.9170   40.9870   -8.1060 C   0  0  0  0  0  0
   21.7900   40.0240   -8.9220 S   0  0  0  0  0  0
   21.6170   38.8980   -7.7880 C   0  0  0  0  0  0
   20.7890   37.8470   -7.8850 C   0  0  0  0  0  0
   20.2420   37.5980   -8.9550 O   0  0  0  0  0  0
   20.5200   37.1670   -6.7650 N   0  0  0  0  0  0
   23.7658   48.9647  -16.1786 H   0  0  0  0  0  0
   24.7821   47.5463  -16.6052 H   0  0  0  0  0  0
   25.1801   48.5337  -15.1584 H   0  0  0  0  0  0
   22.3191   48.9111  -14.1897 H   0  0  0  0  0  0
   23.7401   48.4845  -13.1770 H   0  0  0  0  0  0
   22.2739   47.4471  -13.1498 H   0  0  0  0  0  0
   21.7683   47.6135  -16.1803 H   0  0  0  0  0  0
   21.6734   46.1115  -15.1996 H   0  0  0  0  0  0
   22.7409   46.1759  -16.6428 H   0  0  0  0  0  0
   23.6557   44.8769  -15.9479 H   0  0  0  0  0  0
   25.4779   43.2428  -15.4972 H   0  0  0  0  0  0
   25.8666   44.0600  -13.9455 H   0  0  0  0  0  0
   23.2670   42.5084  -14.4406 H   0  0  0  0  0  0
   24.7404   41.7875  -13.7086 H   0  0  0  0  0  0
   23.3037   44.2402  -12.5584 H   0  0  0  0  0  0
   21.7535   42.3388  -12.5564 H   0  0  0  0  0  0
   23.0180   41.2682  -11.8626 H   0  0  0  0  0  0
   21.6979   43.6887  -10.5198 H   0  0  0  0  0  0
   21.5233   41.9594  -10.0664 H   0  0  0  0  0  0
   25.4460   42.3885  -11.3967 H   0  0  0  0  0  0
   25.6341   44.1162  -11.8510 H   0  0  0  0  0  0
   25.3042   43.7646   -9.3674 H   0  0  0  0  0  0
   24.0351   44.7975  -10.1084 H   0  0  0  0  0  0
   25.3800   42.5065   -5.5957 H   0  0  0  0  0  0
   22.4845   38.6014   -5.8648 H   0  0  0  0  0  0
   21.0349   37.4251   -5.8278 H   0  0  0  0  0  0
   19.7839   36.3497   -6.7811 H   0  0  0  0  0  0
  1  2  1  0  0  0
  1 28  1  0  0  0
  1 29  1  0  0  0
  1 30  1  0  0  0
  2  3  1  0  0  0
  2  4  1  0  0  0
  2  5  1  0  0  0
  3 31  1  0  0  0
  3 32  1  0  0  0
  3 33  1  0  0  0
  4 34  1  0  0  0
  4 35  1  0  0  0
  4 36  1  0  0  0
  5  6  2  0  0  0
  5  7  1  0  0  0
  7  8  1  0  0  0
  7 37  1  0  0  0
  8  9  1  0  0  0
  8 38  1  0  0  0
  8 39  1  0  0  0
  9 10  1  0  0  0
  9 40  1  0  0  0
  9 41  1  0  0  0
 10 11  1  0  0  0
 10 13  1  0  0  0
 10 42  1  0  0  0
 11 12  1  0  0  0
 11 43  1  0  0  0
 11 44  1  0  0  0
 12 15  1  0  0  0
 12 45  1  0  0  0
 12 46  1  0  0  0
 13 14  1  0  0  0
 13 47  1  0  0  0
 13 48  1  0  0  0
 14 15  1  0  0  0
 14 49  1  0  0  0
 14 50  1  0  0  0
 15 16  1  0  0  0
 16 17  1  0  0  0
 16 22  2  0  0  0
 17 18  2  0  0  0
 18 19  1  0  0  0
 18 51  1  0  0  0
 19 20  2  0  0  0
 20 21  1  0  0  0
 20 22  1  0  0  0
 21 24  2  0  0  0
 21 52  1  0  0  0
 22 23  1  0  0  0
 23 24  1  0  0  0
 24 25  1  0  0  0
 25 26  2  0  0  0
 25 27  1  0  0  0
 27 53  1  0  0  0
 27 54  1  0  0  0
M  END
> <s_m_source_file>
../4jt8_ligand.sdf

> <i_m_source_file_index>
1

> <s_epik_input>
W0NIM11DKFtDSDNdKShbQ0gzXSlDKD1PKVtOSF1bQ0gyXVtDSDJdW0NIXTFbQ0gyXVtDSDJdTihbQ0gyXVtDSDJdMSljKG5bY0hdbjIpYyhjMjMpc2MoW2NIXTMpQyg9TylbTkgyXQ==

> <s_epik_cmdline>
J2VwaWtfYXBwJywgJy1pbWFlJywgJ2xpZ2FuZF9wcm8ubWFlJywgJy1vbWFlJywgJ2xpZ2FuZF9wcmVwLm1hZScsICctbXMnLCAnMScsICctcGgnLCAnNycsICctcGh0JywgJzAuNScsICctbnQn

> <r_lp_tautomer_probability>
1

> <r_epik_Ionization_Penalty>
  0.0017

> <r_epik_Ionization_Penalty_Charging>
  0.0000

> <r_epik_Ionization_Penalty_Neutral>
  0.0017

> <r_epik_State_Penalty>
 -0.0000

> <r_epik_Charging_Adjusted_Penalty>
0

> <i_epik_Tot_Q>
0

> <i_epik_Tot_abs_Q>
0

$$$$
