4jt9_ligand
                    3D
 Schrodinger Suite 2020-3.
 46 48  0  0  1  0            999 V2000
   25.3710   48.3880  -12.9830 C   0  0  0  0  0  0
   25.1120   47.8130  -14.6100 S   0  0  0  0  0  0
   25.5350   46.2060  -14.8120 N   0  0  3  0  0  0
   24.5380   45.2740  -14.5540 C   0  0  0  0  0  0
   24.9100   44.3190  -13.4170 C   0  0  0  0  0  0
   24.4930   44.9190  -12.0900 C   0  0  0  0  0  0
   23.3580   44.1370  -11.5840 C   0  0  0  0  0  0
   22.9100   44.7520  -10.3010 C   0  0  0  0  0  0
   24.0420   44.8620   -9.3810 N   0  0  0  0  0  0
   24.3440   44.2040   -8.1130 C   0  0  0  0  0  0
   23.6990   43.0050   -7.7600 C   0  0  0  0  0  0
   24.0090   42.4130   -6.5080 C   0  0  0  0  0  0
   23.2530   41.1230   -6.2430 C   0  0  0  0  0  0
   22.4230   40.8320   -7.3710 C   0  0  0  0  0  0
   21.5560   39.7110   -7.5090 C   0  0  0  0  0  0
   21.2030   38.9470   -6.3380 N   0  0  0  0  0  0
   21.0900   39.4320   -8.6170 O   0  0  0  0  0  0
   22.6080   42.0260   -8.5590 S   0  0  0  0  0  0
   24.9030   43.0550   -5.6870 N   0  0  0  0  0  0
   25.4960   44.2020   -6.0290 C   0  0  0  0  0  0
   25.2090   44.7900   -7.2300 N   0  0  0  0  0  0
   25.1870   45.6250   -9.8250 C   0  0  0  0  0  0
   25.6410   45.0860  -11.1540 C   0  0  0  0  0  0
   23.8920   48.1640  -15.1430 O   0  0  0  0  0  0
   26.0240   48.5720  -15.5770 O   0  0  0  0  0  0
   24.7139   47.8401  -12.2916 H   0  0  0  0  0  0
   25.1415   49.4626  -12.9330 H   0  0  0  0  0  0
   26.4209   48.2237  -12.6988 H   0  0  0  0  0  0
   26.5719   45.8734  -14.9675 H   0  0  0  0  0  0
   23.6127   45.7962  -14.2691 H   0  0  0  0  0  0
   24.3563   44.6721  -15.4566 H   0  0  0  0  0  0
   24.3939   43.3584  -13.5614 H   0  0  0  0  0  0
   25.9976   44.1545  -13.4173 H   0  0  0  0  0  0
   24.1275   45.9519  -12.1878 H   0  0  0  0  0  0
   22.5413   44.1574  -12.3206 H   0  0  0  0  0  0
   23.6748   43.0970  -11.4165 H   0  0  0  0  0  0
   22.5029   45.7548  -10.4976 H   0  0  0  0  0  0
   22.1312   44.1230   -9.8451 H   0  0  0  0  0  0
   23.3303   40.5173   -5.3401 H   0  0  0  0  0  0
   21.6294   39.2120   -5.3593 H   0  0  0  0  0  0
   20.5073   38.0992   -6.4235 H   0  0  0  0  0  0
   26.2092   44.6698   -5.3503 H   0  0  0  0  0  0
   24.9049   46.6832   -9.9280 H   0  0  0  0  0  0
   25.9980   45.5319   -9.0877 H   0  0  0  0  0  0
   26.1252   44.1120  -10.9902 H   0  0  0  0  0  0
   26.3681   45.7886  -11.5872 H   0  0  0  0  0  0
  1  2  1  0  0  0
  1 26  1  0  0  0
  1 27  1  0  0  0
  1 28  1  0  0  0
  2  3  1  0  0  0
  2 24  2  0  0  0
  2 25  2  0  0  0
  3  4  1  0  0  0
  3 29  1  0  0  0
  4  5  1  0  0  0
  4 30  1  0  0  0
  4 31  1  0  0  0
  5  6  1  0  0  0
  5 32  1  0  0  0
  5 33  1  0  0  0
  6  7  1  0  0  0
  6 23  1  0  0  0
  6 34  1  0  0  0
  7  8  1  0  0  0
  7 35  1  0  0  0
  7 36  1  0  0  0
  8  9  1  0  0  0
  8 37  1  0  0  0
  8 38  1  0  0  0
  9 10  1  0  0  0
  9 22  1  0  0  0
 10 11  1  0  0  0
 10 21  2  0  0  0
 11 12  2  0  0  0
 11 18  1  0  0  0
 12 13  1  0  0  0
 12 19  1  0  0  0
 13 14  2  0  0  0
 13 39  1  0  0  0
 14 15  1  0  0  0
 14 18  1  0  0  0
 15 16  1  0  0  0
 15 17  2  0  0  0
 16 40  1  0  0  0
 16 41  1  0  0  0
 19 20  2  0  0  0
 20 21  1  0  0  0
 20 42  1  0  0  0
 22 23  1  0  0  0
 22 43  1  0  0  0
 22 44  1  0  0  0
 23 45  1  0  0  0
 23 46  1  0  0  0
M  END
> <s_m_source_file>
../4jt9_ligand.sdf

> <i_m_source_file_index>
1

> <s_epik_input>
W0NIM11TKD1PKSg9TylbTkhdW0NIMl1bQ0gyXVtDSF0xW0NIMl1bQ0gyXU4oW0NIMl1bQ0gyXTEpYzJuW2NIXW5jKGMyMylbY0hdYyhzMylDKD1PKVtOSDJd

> <s_epik_cmdline>
J2VwaWtfYXBwJywgJy1pbWFlJywgJ2xpZ2FuZF9wcm8ubWFlJywgJy1vbWFlJywgJ2xpZ2FuZF9wcmVwLm1hZScsICctbXMnLCAnMScsICctcGgnLCAnNycsICctcGh0JywgJzAuNScsICctbnQn

> <r_lp_tautomer_probability>
1

> <r_epik_Ionization_Penalty>
  0.0018

> <r_epik_Ionization_Penalty_Charging>
  0.0000

> <r_epik_Ionization_Penalty_Neutral>
  0.0018

> <r_epik_State_Penalty>
 -0.0000

> <r_epik_Charging_Adjusted_Penalty>
0

> <i_epik_Tot_Q>
0

> <i_epik_Tot_abs_Q>
0

$$$$
