4ju3_ligand
                    3D
 Schrodinger Suite 2020-3.
 45 47  0  0  1  0            999 V2000
  -27.4370   47.6420   55.5520 C   0  0  0  0  0  0
  -27.9100   47.6400   54.2140 C   0  0  0  0  0  0
  -27.9150   48.8420   53.4390 C   0  0  0  0  0  0
  -27.4390   50.0530   54.0130 C   0  0  0  0  0  0
  -26.9660   50.0710   55.3480 C   0  0  0  0  0  0
  -26.9620   48.8590   56.1160 C   0  0  0  0  0  0
  -26.3630   48.8770   57.8020 S   0  0  0  0  0  0
  -26.4050   50.2600   58.2850 O   0  0  0  0  0  0
  -27.1730   47.8840   58.4950 O   0  0  0  0  0  0
  -24.7170   48.2860   57.7400 N   0  0  0  0  0  0
  -23.7400   48.8420   56.8080 C   0  0  0  0  0  0
  -22.8500   47.9900   56.0400 C   0  0  0  0  0  0
  -21.9100   48.5930   55.1420 C   0  0  0  0  0  0
  -21.8660   50.0070   54.9540 C   0  0  0  0  0  0
  -22.7540   50.8320   55.7150 C   0  0  0  0  0  0
  -23.6840   50.2530   56.6130 C   0  0  0  0  0  0
  -22.8800   46.5120   56.2120 C   0  0  0  0  0  0
  -21.7780   45.8770   55.7670 O   0  5  0  0  0  0
  -23.8090   45.8880   56.7050 O   0  0  0  0  0  0
  -20.9060   50.3940   54.0290 O   0  0  0  0  0  0
  -20.5260   51.8040   54.1060 C   0  0  0  0  0  0
  -21.0310   52.7390   53.1280 C   0  0  0  0  0  0
  -20.6520   54.1310   53.2000 C   0  0  0  0  0  0
  -19.7660   54.5930   54.2540 C   0  0  0  0  0  0
  -19.2620   53.6490   55.2310 C   0  0  0  0  0  0
  -19.6350   52.2660   55.1600 C   0  0  0  0  0  0
  -19.3880   55.9140   54.3310 C   0  0  0  0  0  0
  -28.4170   48.8250   52.0310 C   0  0  0  0  0  0
  -18.2450   56.3280   54.5890 O   0  0  0  0  0  0
  -20.4100   56.7490   54.0830 O   0  5  0  0  0  0
  -27.4376   46.7239   56.1396 H   0  0  0  0  0  0
  -28.2735   46.7122   53.7721 H   0  0  0  0  0  0
  -27.4382   50.9700   53.4238 H   0  0  0  0  0  0
  -26.6070   51.0006   55.7896 H   0  0  0  0  0  0
  -24.3974   47.4770   58.4133 H   0  0  0  0  0  0
  -21.2148   47.9591   54.5916 H   0  0  0  0  0  0
  -22.7143   51.9155   55.6026 H   0  0  0  0  0  0
  -24.3686   50.8975   57.1644 H   0  0  0  0  0  0
  -21.6971   52.3948   52.3368 H   0  0  0  0  0  0
  -21.0320   54.8366   52.4612 H   0  0  0  0  0  0
  -18.5965   53.9915   56.0234 H   0  0  0  0  0  0
  -19.2507   51.5601   55.8963 H   0  0  0  0  0  0
  -28.7393   47.8064   51.7689 H   0  0  0  0  0  0
  -27.6123   49.1414   51.3510 H   0  0  0  0  0  0
  -29.2688   49.5147   51.9371 H   0  0  0  0  0  0
  1  2  2  0  0  0
  1  6  1  0  0  0
  1 31  1  0  0  0
  2  3  1  0  0  0
  2 32  1  0  0  0
  3  4  2  0  0  0
  3 28  1  0  0  0
  4  5  1  0  0  0
  4 33  1  0  0  0
  5  6  2  0  0  0
  5 34  1  0  0  0
  6  7  1  0  0  0
  7  8  2  0  0  0
  7  9  2  0  0  0
  7 10  1  0  0  0
 10 11  1  0  0  0
 10 35  1  0  0  0
 11 12  2  0  0  0
 11 16  1  0  0  0
 12 13  1  0  0  0
 12 17  1  0  0  0
 13 14  2  0  0  0
 13 36  1  0  0  0
 14 15  1  0  0  0
 14 20  1  0  0  0
 15 16  2  0  0  0
 15 37  1  0  0  0
 16 38  1  0  0  0
 17 18  1  0  0  0
 17 19  2  0  0  0
 20 21  1  0  0  0
 21 22  2  0  0  0
 21 26  1  0  0  0
 22 23  1  0  0  0
 22 39  1  0  0  0
 23 24  2  0  0  0
 23 40  1  0  0  0
 24 25  1  0  0  0
 24 27  1  0  0  0
 25 26  2  0  0  0
 25 41  1  0  0  0
 26 42  1  0  0  0
 27 29  2  0  0  0
 27 30  1  0  0  0
 28 43  1  0  0  0
 28 44  1  0  0  0
 28 45  1  0  0  0
M  CHG  2  18  -1  30  -1
M  END
> <s_m_source_file>
../4ju3_ligand.sdf

> <i_m_source_file_index>
1

> <s_epik_input>
W0NIM11jMVtjSF1bY0hdYyhbY0hdW2NIXTEpUyg9TykoPU8pW05IXWMyYyhDKD1PKVtPSF0pW2NIXWMoW2NIXVtjSF0yKU9jM1tjSF1bY0hdYyhbY0hdW2NIXTMpQyg9TylbT0hd

> <s_epik_cmdline>
J2VwaWtfYXBwJywgJy1pbWFlJywgJ2xpZ2FuZF9wcm8ubWFlJywgJy1vbWFlJywgJ2xpZ2FuZF9wcmVwLm1hZScsICctbXMnLCAnMScsICctcGgnLCAnNycsICctcGh0JywgJzAuNScsICctbnQn

> <r_epik_Ionization_Penalty>
  0.0124

> <r_epik_Ionization_Penalty_Charging>
  0.0009

> <r_epik_Ionization_Penalty_Neutral>
  0.0115

> <r_epik_State_Penalty>
  0.0089

> <r_epik_Charging_Adjusted_Penalty>
0.0097838817314498

> <i_epik_Tot_Q>
-2

> <i_epik_Tot_abs_Q>
2

$$$$
