4ju4_ligand
                    3D
 Schrodinger Suite 2020-3.
 40 42  0  0  1  0            999 V2000
  -27.3540   49.1110   56.0190 C   0  0  0  0  0  0
  -27.7880   49.1330   54.6890 C   0  0  0  0  0  0
  -27.7730   50.3490   53.9830 C   0  0  0  0  0  0
  -27.3220   51.5600   54.5890 C   0  0  0  0  0  0
  -26.8890   51.5360   55.9310 C   0  0  0  0  0  0
  -26.9050   50.2990   56.6540 C   0  0  0  0  0  0
  -26.3840   50.2440   58.3340 S   0  0  0  0  0  0
  -27.3310   49.4040   59.0490 O   0  0  0  0  0  0
  -26.3040   51.6440   58.7640 O   0  0  0  0  0  0
  -24.8220   49.5220   58.3940 N   0  0  0  0  0  0
  -23.6870   50.0060   57.6240 C   0  0  0  0  0  0
  -22.9560   49.1710   56.6860 C   0  0  0  0  0  0
  -21.8530   49.7210   55.9580 C   0  0  0  0  0  0
  -21.4690   51.0610   56.1370 C   0  0  0  0  0  0
  -22.1790   51.8930   57.0700 C   0  0  0  0  0  0
  -23.2800   51.3650   57.8000 C   0  0  0  0  0  0
  -23.3080   47.7650   56.4570 C   0  0  0  0  0  0
  -24.3900   47.2550   56.7230 O   0  0  0  0  0  0
  -22.2810   47.0660   55.9090 O   0  5  0  0  0  0
  -20.3800   51.4840   55.3650 O   0  0  0  0  0  0
  -20.4950   52.5870   54.5200 C   0  0  0  0  0  0
  -21.6410   52.8530   53.7040 C   0  0  0  0  0  0
  -21.6590   54.0060   52.8770 C   0  0  0  0  0  0
  -20.5440   54.8920   52.8590 C   0  0  0  0  0  0
  -19.4020   54.6290   53.6690 C   0  0  0  0  0  0
  -19.3800   53.4760   54.4990 C   0  0  0  0  0  0
  -27.3860   47.9290   56.6470 F   0  0  0  0  0  0
  -28.3650   50.3750   52.2110 Br  0  0  0  0  0  0
  -28.1334   48.2189   54.2061 H   0  0  0  0  0  0
  -27.3124   52.4910   54.0222 H   0  0  0  0  0  0
  -26.5451   52.4506   56.4141 H   0  0  0  0  0  0
  -24.6441   48.6488   59.0389 H   0  0  0  0  0  0
  -21.3043   49.0929   55.2563 H   0  0  0  0  0  0
  -21.8736   52.9288   57.2181 H   0  0  0  0  0  0
  -23.8186   52.0031   58.5006 H   0  0  0  0  0  0
  -22.4939   52.1744   53.7179 H   0  0  0  0  0  0
  -22.5287   54.2142   52.2537 H   0  0  0  0  0  0
  -20.5646   55.7762   52.2219 H   0  0  0  0  0  0
  -18.5499   55.3085   53.6521 H   0  0  0  0  0  0
  -18.5089   53.2704   55.1211 H   0  0  0  0  0  0
  1  2  2  0  0  0
  1  6  1  0  0  0
  1 27  1  0  0  0
  2  3  1  0  0  0
  2 29  1  0  0  0
  3  4  2  0  0  0
  3 28  1  0  0  0
  4  5  1  0  0  0
  4 30  1  0  0  0
  5  6  2  0  0  0
  5 31  1  0  0  0
  6  7  1  0  0  0
  7  8  2  0  0  0
  7  9  2  0  0  0
  7 10  1  0  0  0
 10 11  1  0  0  0
 10 32  1  0  0  0
 11 12  2  0  0  0
 11 16  1  0  0  0
 12 13  1  0  0  0
 12 17  1  0  0  0
 13 14  2  0  0  0
 13 33  1  0  0  0
 14 15  1  0  0  0
 14 20  1  0  0  0
 15 16  2  0  0  0
 15 34  1  0  0  0
 16 35  1  0  0  0
 17 18  2  0  0  0
 17 19  1  0  0  0
 20 21  1  0  0  0
 21 22  2  0  0  0
 21 26  1  0  0  0
 22 23  1  0  0  0
 22 36  1  0  0  0
 23 24  2  0  0  0
 23 37  1  0  0  0
 24 25  1  0  0  0
 24 38  1  0  0  0
 25 26  2  0  0  0
 25 39  1  0  0  0
 26 40  1  0  0  0
M  CHG  1  19  -1
M  END
> <s_m_source_file>
../4ju4_ligand.sdf

> <i_m_source_file_index>
1

> <s_epik_input>
RmMxW2NIXWMoQnIpW2NIXVtjSF1jMVMoPU8pKD1PKVtOSF1jMmMoQyg9TylbT0hdKVtjSF1jKFtjSF1bY0hdMilPYzNbY0hdW2NIXVtjSF1bY0hdW2NIXTM=

> <s_epik_cmdline>
J2VwaWtfYXBwJywgJy1pbWFlJywgJ2xpZ2FuZF9wcm8ubWFlJywgJy1vbWFlJywgJ2xpZ2FuZF9wcmVwLm1hZScsICctbXMnLCAnMScsICctcGgnLCAnNycsICctcGh0JywgJzAuNScsICctbnQn

> <r_lp_tautomer_probability>
1

> <r_epik_Ionization_Penalty>
  0.0475

> <r_epik_Ionization_Penalty_Charging>
  0.0000

> <r_epik_Ionization_Penalty_Neutral>
  0.0475

> <r_epik_State_Penalty>
  0.0404

> <r_epik_Charging_Adjusted_Penalty>
0.040464209448733

> <i_epik_Tot_Q>
-1

> <i_epik_Tot_abs_Q>
1

$$$$
