4ju6_ligand
                    3D
 Schrodinger Suite 2020-3.
 57 59  0  0  1  0            999 V2000
  -27.2340   48.8880   55.5040 C   0  0  0  0  0  0
  -27.5880   49.2040   54.0540 C   0  0  0  0  0  0
  -28.1340   50.6360   53.8950 C   0  0  1  0  0  0
  -27.1420   51.6860   54.4690 C   0  0  0  0  0  0
  -26.7380   51.3690   55.9290 C   0  0  0  0  0  0
  -26.2260   49.9220   56.0850 C   0  0  1  0  0  0
  -25.9450   49.6030   57.5810 C   0  0  0  0  0  0
  -26.8990   49.2700   58.3180 O   0  0  0  0  0  0
  -24.3890   49.3490   59.5600 C   0  0  0  0  0  0
  -24.5970   49.6890   58.0850 N   0  0  0  0  0  0
  -23.4470   50.0740   57.2700 C   0  0  0  0  0  0
  -22.7060   49.1500   56.4340 C   0  0  0  0  0  0
  -21.5960   49.6210   55.6800 C   0  0  0  0  0  0
  -21.2040   50.9750   55.7320 C   0  0  0  0  0  0
  -21.9260   51.8970   56.5490 C   0  0  0  0  0  0
  -23.0390   51.4440   57.3080 C   0  0  0  0  0  0
  -23.0600   47.7380   56.3260 C   0  0  0  0  0  0
  -21.9830   46.9280   56.3070 O   0  5  0  0  0  0
  -24.1860   47.2850   56.2410 O   0  0  0  0  0  0
  -20.1010   51.2930   54.9530 O   0  0  0  0  0  0
  -19.9600   52.5320   54.3570 C   0  0  0  0  0  0
  -18.9010   53.3990   54.7550 C   0  0  0  0  0  0
  -18.7540   54.6630   54.1360 C   0  0  0  0  0  0
  -19.6620   55.0680   53.1210 C   0  0  0  0  0  0
  -20.7230   54.2050   52.7190 C   0  0  0  0  0  0
  -20.8830   52.9260   53.3320 C   0  0  0  0  0  0
  -28.4060   50.9210   52.4200 C   0  0  0  0  0  0
  -23.4410   48.1850   59.8850 C   0  0  0  0  0  0
  -23.9420   50.5850   60.3930 C   0  0  0  0  0  0
  -28.1468   48.9100   56.1174 H   0  0  0  0  0  0
  -26.7781   47.8885   55.5607 H   0  0  0  0  0  0
  -26.6891   49.1065   53.4275 H   0  0  0  0  0  0
  -28.3576   48.5009   53.7028 H   0  0  0  0  0  0
  -29.0809   50.7086   54.4500 H   0  0  0  0  0  0
  -26.2284   51.7005   53.8565 H   0  0  0  0  0  0
  -27.6107   52.6810   54.4519 H   0  0  0  0  0  0
  -25.9364   52.0531   56.2444 H   0  0  0  0  0  0
  -27.6100   51.4979   56.5870 H   0  0  0  0  0  0
  -25.2900   49.8510   55.5116 H   0  0  0  0  0  0
  -25.3966   48.9993   59.8291 H   0  0  0  0  0  0
  -21.0396   48.9250   55.0522 H   0  0  0  0  0  0
  -21.6249   52.9438   56.5904 H   0  0  0  0  0  0
  -23.5897   52.1513   57.9282 H   0  0  0  0  0  0
  -18.2055   53.0889   55.5349 H   0  0  0  0  0  0
  -17.9436   55.3264   54.4381 H   0  0  0  0  0  0
  -19.5468   56.0430   52.6476 H   0  0  0  0  0  0
  -21.4154   54.5234   51.9397 H   0  0  0  0  0  0
  -21.6912   52.2612   53.0271 H   0  0  0  0  0  0
  -29.1085   50.1722   52.0254 H   0  0  0  0  0  0
  -27.4624   50.8711   51.8569 H   0  0  0  0  0  0
  -28.8430   51.9250   52.3151 H   0  0  0  0  0  0
  -23.7379   47.2978   59.3065 H   0  0  0  0  0  0
  -23.4954   47.9570   60.9597 H   0  0  0  0  0  0
  -22.4108   48.4666   59.6215 H   0  0  0  0  0  0
  -24.6079   51.4334   60.1764 H   0  0  0  0  0  0
  -22.9088   50.8525   60.1266 H   0  0  0  0  0  0
  -23.9933   50.3428   61.4648 H   0  0  0  0  0  0
  1  2  1  0  0  0
  1  6  1  0  0  0
  1 30  1  0  0  0
  1 31  1  0  0  0
  2  3  1  0  0  0
  2 32  1  0  0  0
  2 33  1  0  0  0
  3  4  1  0  0  0
  3 27  1  0  0  0
  3 34  1  0  0  0
  4  5  1  0  0  0
  4 35  1  0  0  0
  4 36  1  0  0  0
  5  6  1  0  0  0
  5 37  1  0  0  0
  5 38  1  0  0  0
  6  7  1  0  0  0
  6 39  1  0  0  0
  7  8  2  0  0  0
  7 10  1  0  0  0
  9 10  1  0  0  0
  9 28  1  0  0  0
  9 29  1  0  0  0
  9 40  1  0  0  0
 10 11  1  0  0  0
 11 12  2  0  0  0
 11 16  1  0  0  0
 12 13  1  0  0  0
 12 17  1  0  0  0
 13 14  2  0  0  0
 13 41  1  0  0  0
 14 15  1  0  0  0
 14 20  1  0  0  0
 15 16  2  0  0  0
 15 42  1  0  0  0
 16 43  1  0  0  0
 17 18  1  0  0  0
 17 19  2  0  0  0
 20 21  1  0  0  0
 21 22  2  0  0  0
 21 26  1  0  0  0
 22 23  1  0  0  0
 22 44  1  0  0  0
 23 24  2  0  0  0
 23 45  1  0  0  0
 24 25  1  0  0  0
 24 46  1  0  0  0
 25 26  2  0  0  0
 25 47  1  0  0  0
 26 48  1  0  0  0
 27 49  1  0  0  0
 27 50  1  0  0  0
 27 51  1  0  0  0
 28 52  1  0  0  0
 28 53  1  0  0  0
 28 54  1  0  0  0
 29 55  1  0  0  0
 29 56  1  0  0  0
 29 57  1  0  0  0
M  CHG  1  18  -1
M  END
> <s_m_source_file>
../4ju6_ligand.sdf

> <i_m_source_file_index>
1

> <s_epik_input>
W0NIM11bQ0BIXTFbQ0gyXVtDSDJdW0NAQEhdKFtDSDJdW0NIMl0xKUMoPU8pTihbQ0hdKFtDSDNdKVtDSDNdKWMyYyhDKD1PKVtPSF0pW2NIXWMoW2NIXVtjSF0yKU9jM1tjSF1bY0hdW2NIXVtjSF1bY0hdMw==

> <s_epik_cmdline>
J2VwaWtfYXBwJywgJy1pbWFlJywgJ2xpZ2FuZF9wcm8ubWFlJywgJy1vbWFlJywgJ2xpZ2FuZF9wcmVwLm1hZScsICctbXMnLCAnMScsICctcGgnLCAnNycsICctcGh0JywgJzAuNScsICctbnQn

> <r_lp_tautomer_probability>
1

> <r_epik_Ionization_Penalty>
  0.0002

> <r_epik_Ionization_Penalty_Charging>
  0.0001

> <r_epik_Ionization_Penalty_Neutral>
  0.0001

> <r_epik_State_Penalty>
 -0.0000

> <r_epik_Charging_Adjusted_Penalty>
0.000143572331959068

> <i_epik_Tot_Q>
-1

> <i_epik_Tot_abs_Q>
1

$$$$
