4jv8_ligand
                    3D
 Schrodinger Suite 2020-3.
 37 41  0  0  1  0            999 V2000
   23.4990   -8.5450  -15.9360 C   0  0  0  0  0  0
   22.7650   -9.5290  -16.4750 C   0  0  0  0  0  0
   23.0890  -10.8660  -16.4890 C   0  0  0  0  0  0
   24.2050  -11.2500  -15.8690 C   0  0  0  0  0  0
   24.9670  -10.2790  -15.2320 N   0  0  0  0  0  0
   24.6170   -8.9640  -15.2950 C   0  0  0  0  0  0
   25.3790   -7.8380  -14.6190 C   0  0  1  0  0  0
   24.7030   -7.4720  -13.3480 N   0  0  0  0  0  0
   23.4970   -6.8040  -13.1730 C   0  0  0  0  0  0
   22.6650   -6.1290  -14.1280 C   0  0  0  0  0  0
   21.5000   -5.5560  -13.6380 C   0  0  0  0  0  0
   21.1960   -5.6070  -12.2620 C   0  0  0  0  0  0
   22.0390   -6.2890  -11.3410 C   0  0  0  0  0  0
   23.1780   -6.9150  -11.8730 C   0  0  0  0  0  0
   24.1780   -7.5840  -11.1960 N   0  0  0  0  0  0
   25.0420   -8.0120  -12.1240 C   0  0  0  0  0  0
   26.2740   -8.6970  -11.9670 C   0  0  0  0  0  0
   26.6660   -9.1790  -10.6840 C   0  0  0  0  0  0
   27.9500   -9.7470  -10.6140 C   0  0  0  0  0  0
   28.8330   -9.8350  -11.7230 C   0  0  0  0  0  0
   28.4190   -9.3060  -12.9210 C   0  0  0  0  0  0
   27.1570   -8.6910  -13.0300 C   0  0  0  0  0  0
   26.7920   -8.1530  -14.3180 N   0  0  0  0  0  0
   23.2193   -7.4939  -16.0075 H   0  0  0  0  0  0
   21.8244   -9.2432  -16.9458 H   0  0  0  0  0  0
   22.4507  -11.5915  -16.9932 H   0  0  0  0  0  0
   24.5108  -12.2962  -15.8622 H   0  0  0  0  0  0
   25.3986   -6.9932  -15.3232 H   0  0  0  0  0  0
   22.9340   -6.0696  -15.1826 H   0  0  0  0  0  0
   20.8126   -5.0612  -14.3241 H   0  0  0  0  0  0
   20.2957   -5.1133  -11.8961 H   0  0  0  0  0  0
   21.8121   -6.3239  -10.2754 H   0  0  0  0  0  0
   26.0128   -9.1115   -9.8140 H   0  0  0  0  0  0
   28.2866  -10.1418   -9.6554 H   0  0  0  0  0  0
   29.8101  -10.3083  -11.6262 H   0  0  0  0  0  0
   29.0712   -9.3626  -13.7925 H   0  0  0  0  0  0
   27.5684   -7.9773  -15.0771 H   0  0  0  0  0  0
  1  2  2  0  0  0
  1  6  1  0  0  0
  1 24  1  0  0  0
  2  3  1  0  0  0
  2 25  1  0  0  0
  3  4  2  0  0  0
  3 26  1  0  0  0
  4  5  1  0  0  0
  4 27  1  0  0  0
  5  6  2  0  0  0
  6  7  1  0  0  0
  7  8  1  0  0  0
  7 23  1  0  0  0
  7 28  1  0  0  0
  8  9  1  0  0  0
  8 16  1  0  0  0
  9 10  1  0  0  0
  9 14  2  0  0  0
 10 11  2  0  0  0
 10 29  1  0  0  0
 11 12  1  0  0  0
 11 30  1  0  0  0
 12 13  2  0  0  0
 12 31  1  0  0  0
 13 14  1  0  0  0
 13 32  1  0  0  0
 14 15  1  0  0  0
 15 16  2  0  0  0
 16 17  1  0  0  0
 17 18  2  0  0  0
 17 22  1  0  0  0
 18 19  1  0  0  0
 18 33  1  0  0  0
 19 20  2  0  0  0
 19 34  1  0  0  0
 20 21  1  0  0  0
 20 35  1  0  0  0
 21 22  2  0  0  0
 21 36  1  0  0  0
 22 23  1  0  0  0
 23 37  1  0  0  0
M  END
> <s_m_source_file>
../4jv8_ligand.sdf

> <i_m_source_file_index>
1

> <s_epik_input>
bjFbY0hdW2NIXVtjSF1bY0hdYzFbQ0BASF0yW05IXWMoW2NIXVtjSF1bY0hdW2NIXTMpYzNjNG5jKGM1bjI0KVtjSF1bY0hdW2NIXVtjSF01

> <s_epik_cmdline>
J2VwaWtfYXBwJywgJy1pbWFlJywgJ2xpZ2FuZF9wcm8ubWFlJywgJy1vbWFlJywgJ2xpZ2FuZF9wcmVwLm1hZScsICctbXMnLCAnMScsICctcGgnLCAnNycsICctcGh0JywgJzAuNScsICctbnQn

> <r_epik_Ionization_Penalty>
  0.4144

> <r_epik_Ionization_Penalty_Charging>
  0.0000

> <r_epik_Ionization_Penalty_Neutral>
  0.4144

> <r_epik_State_Penalty>
  0.4105

> <r_epik_Charging_Adjusted_Penalty>
0.410457874811655

> <i_epik_Tot_Q>
0

> <i_epik_Tot_abs_Q>
0

> <s_epik_Chemistry_Notes>
This compound contains an acetal/aminal-like group ( X-CH(R)-Y where X, Y are N, S, or O) that may be acid/base labile, releasing an aldehyde.

$$$$
