4jv9_ligand
                    3D
 Schrodinger Suite 2020-3.
 50 53  0  0  1  0            999 V2000
    4.6440  -33.5680    1.0790 C   0  0  0  0  0  0
    5.5310  -33.4550    2.1750 C   0  0  0  0  0  0
    6.6680  -32.6600    2.0640 C   0  0  0  0  0  0
    7.8140  -32.5990    3.3670 Cl  0  0  0  0  0  0
    6.8980  -31.9670    0.8440 C   0  0  0  0  0  0
    6.0360  -32.0700   -0.2360 C   0  0  0  0  0  0
    4.9050  -32.8800   -0.1360 C   0  0  0  0  0  0
    3.9600  -33.0910   -1.3080 C   0  0  1  0  0  0
    3.6670  -31.8300   -1.9110 N   0  0  0  0  0  0
    2.7270  -30.9560   -1.2050 C   0  0  0  0  0  0
    4.2810  -31.4550   -3.0990 C   0  0  0  0  0  0
    4.0740  -30.3440   -3.5840 O   0  0  0  0  0  0
    5.2550  -32.4530   -3.8420 C   0  0  2  0  0  0
    4.7180  -32.7660   -5.2500 C   0  0  0  0  0  0
    5.7050  -33.3900   -6.2290 C   0  0  0  0  0  0
    5.8930  -34.7800   -6.3690 C   0  0  0  0  0  0
    6.8230  -35.2750   -7.3110 C   0  0  0  0  0  0
    7.5530  -34.3820   -8.1000 C   0  0  0  0  0  0
    7.3630  -33.0110   -7.9610 C   0  0  0  0  0  0
    6.4550  -32.5260   -7.0400 C   0  0  0  0  0  0
    5.4880  -33.6080   -3.0700 O   0  0  0  0  0  0
    4.4010  -34.1430   -2.3850 C   0  0  1  0  0  0
    4.8330  -35.4320   -1.7880 C   0  0  0  0  0  0
    3.8930  -36.3510   -1.2610 C   0  0  0  0  0  0
    4.3520  -37.5240   -0.6290 C   0  0  0  0  0  0
    5.7430  -37.8030   -0.5140 C   0  0  0  0  0  0
    6.3040  -39.1850    0.3000 Cl  0  0  0  0  0  0
    6.6590  -36.8810   -1.0550 C   0  0  0  0  0  0
    6.2200  -35.7100   -1.6890 C   0  0  0  0  0  0
    3.7523  -34.1885    1.1676 H   0  0  0  0  0  0
    5.3249  -33.9885    3.1029 H   0  0  0  0  0  0
    7.7811  -31.3342    0.7554 H   0  0  0  0  0  0
    6.2401  -31.5225   -1.1561 H   0  0  0  0  0  0
    3.0180  -33.4530   -0.8702 H   0  0  0  0  0  0
    2.3703  -31.4603   -0.2948 H   0  0  0  0  0  0
    1.8716  -30.7327   -1.8596 H   0  0  0  0  0  0
    3.2332  -30.0188   -0.9305 H   0  0  0  0  0  0
    6.2842  -32.0745   -3.9282 H   0  0  0  0  0  0
    3.8804  -33.4750   -5.1737 H   0  0  0  0  0  0
    4.3697  -31.8368   -5.7246 H   0  0  0  0  0  0
    5.3215  -35.4726   -5.7511 H   0  0  0  0  0  0
    6.9703  -36.3493   -7.4217 H   0  0  0  0  0  0
    8.2727  -34.7605   -8.8258 H   0  0  0  0  0  0
    7.9321  -32.3177   -8.5804 H   0  0  0  0  0  0
    6.3185  -31.4491   -6.9415 H   0  0  0  0  0  0
    3.6068  -34.3626   -3.1137 H   0  0  0  0  0  0
    2.8243  -36.1528   -1.3435 H   0  0  0  0  0  0
    3.6289  -38.2302   -0.2210 H   0  0  0  0  0  0
    7.7279  -37.0809   -0.9797 H   0  0  0  0  0  0
    6.9460  -35.0123   -2.1064 H   0  0  0  0  0  0
  1  2  2  0  0  0
  1  7  1  0  0  0
  1 30  1  0  0  0
  2  3  1  0  0  0
  2 31  1  0  0  0
  3  4  1  0  0  0
  3  5  2  0  0  0
  5  6  1  0  0  0
  5 32  1  0  0  0
  6  7  2  0  0  0
  6 33  1  0  0  0
  7  8  1  0  0  0
  8  9  1  0  0  0
  8 22  1  0  0  0
  8 34  1  0  0  0
  9 10  1  0  0  0
  9 11  1  0  0  0
 10 35  1  0  0  0
 10 36  1  0  0  0
 10 37  1  0  0  0
 11 12  2  0  0  0
 11 13  1  0  0  0
 13 14  1  0  0  0
 13 21  1  0  0  0
 13 38  1  0  0  0
 14 15  1  0  0  0
 14 39  1  0  0  0
 14 40  1  0  0  0
 15 16  2  0  0  0
 15 20  1  0  0  0
 16 17  1  0  0  0
 16 41  1  0  0  0
 17 18  2  0  0  0
 17 42  1  0  0  0
 18 19  1  0  0  0
 18 43  1  0  0  0
 19 20  2  0  0  0
 19 44  1  0  0  0
 20 45  1  0  0  0
 21 22  1  0  0  0
 22 23  1  0  0  0
 22 46  1  0  0  0
 23 24  2  0  0  0
 23 29  1  0  0  0
 24 25  1  0  0  0
 24 47  1  0  0  0
 25 26  2  0  0  0
 25 48  1  0  0  0
 26 27  1  0  0  0
 26 28  1  0  0  0
 28 29  2  0  0  0
 28 49  1  0  0  0
 29 50  1  0  0  0
M  END
> <s_m_source_file>
../4jv9_ligand.sdf

> <i_m_source_file_index>
1

> <s_epik_input>
Q2xjMVtjSF1bY0hdYyhbY0hdW2NIXTEpW0NASF0yTihbQ0gzXSlDKD1PKVtDQEhdKFtDSDJdYzNbY0hdW2NIXVtjSF1bY0hdW2NIXTMpT1tDQEhdMmM0W2NIXVtjSF1jKENsKVtjSF1bY0hdNA==

> <s_epik_cmdline>
J2VwaWtfYXBwJywgJy1pbWFlJywgJ2xpZ2FuZF9wcm8ubWFlJywgJy1vbWFlJywgJ2xpZ2FuZF9wcmVwLm1hZScsICctbXMnLCAnMScsICctcGgnLCAnNycsICctcGh0JywgJzAuNScsICctbnQn

> <r_lp_tautomer_probability>
1

> <r_epik_Ionization_Penalty>
  0.0000

> <r_epik_Ionization_Penalty_Charging>
  0.0000

> <r_epik_Ionization_Penalty_Neutral>
  0.0000

> <r_epik_State_Penalty>
 -0.0000

> <r_epik_Charging_Adjusted_Penalty>
0

> <i_epik_Tot_Q>
0

> <i_epik_Tot_abs_Q>
0

$$$$
