4jvb_ligand
                    3D
 Schrodinger Suite 2020-3.
 77 83  0  0  1  0            999 V2000
   24.6040   -8.6720  -16.3760 C   0  0  0  0  0  0
   23.9030   -9.7190  -16.9840 C   0  0  0  0  0  0
   23.3590  -10.8250  -16.3100 C   0  0  0  0  0  0
   23.5910  -10.8230  -14.9100 C   0  0  0  0  0  0
   24.2460   -9.7200  -14.3190 C   0  0  0  0  0  0
   24.7630   -8.6550  -14.9910 C   0  0  0  0  0  0
   25.5080   -7.5510  -14.3680 C   0  0  0  0  0  0
   25.5820   -7.8320  -12.8900 N   0  0  0  0  0  0
   26.6060   -8.5470  -12.3020 C   0  0  0  0  0  0
   27.7650   -9.0690  -12.7880 C   0  0  0  0  0  0
   28.6870   -9.7380  -11.9300 C   0  0  0  0  0  0
   28.3050   -9.8340  -10.5680 C   0  0  0  0  0  0
   27.1010   -9.2580  -10.0870 C   0  0  0  0  0  0
   26.2760   -8.6350  -10.9590 C   0  0  0  0  0  0
   25.0780   -7.9920  -10.7420 N   0  0  0  0  0  0
   24.6400   -7.5300  -11.9210 C   0  0  0  0  0  0
   23.4970   -6.8380  -12.1980 C   0  0  0  0  0  0
   22.2260   -7.3530  -12.4840 C   0  0  0  0  0  0
   21.1740   -6.4220  -12.8330 C   0  0  0  0  0  0
   23.6350   -5.4660  -12.2620 C   0  0  0  0  0  0
   22.6380   -4.5610  -12.5580 C   0  0  0  0  0  0
   21.3910   -5.0240  -12.8700 C   0  0  0  0  0  0
   20.5910   -3.9290  -13.2210 O   0  0  0  0  0  0
   19.2330   -3.6680  -13.3040 C   0  0  0  0  0  0
   18.5530   -3.8570  -14.6740 C   0  0  1  0  0  0
   17.0570   -3.5260  -14.4440 C   0  0  0  0  0  0
   16.8400   -2.4410  -13.3660 C   0  0  0  0  0  0
   15.9270   -2.9940  -12.2480 C   0  0  0  0  0  0
   19.0160   -3.1840  -16.0240 N   0  0  0  0  0  0
   19.0530   -1.9210  -16.5500 C   0  0  0  0  0  0
   18.8040   -0.6970  -16.0530 C   0  0  0  0  0  0
   18.9330    0.4730  -16.8150 C   0  0  0  0  0  0
   19.3870    0.4210  -18.1490 C   0  0  0  0  0  0
   19.6790   -0.8840  -18.6010 C   0  0  0  0  0  0
   19.5070   -1.9980  -17.8390 C   0  0  0  0  0  0
   19.7330   -3.3000  -18.1020 N   0  0  0  0  0  0
   19.3850   -3.9970  -17.0300 C   0  0  0  0  0  0
   19.5420   -5.3160  -16.9070 C   0  0  0  0  0  0
   20.7480   -5.7280  -16.3580 C   0  0  0  0  0  0
   21.0590   -7.0680  -16.1560 C   0  0  0  0  0  0
   20.1240   -8.0080  -16.5140 C   0  0  0  0  0  0
   18.9150   -7.6020  -17.0600 C   0  0  0  0  0  0
   18.6130   -6.2580  -17.2580 C   0  0  0  0  0  0
   25.0250   -7.8712  -16.9839 H   0  0  0  0  0  0
   23.7685   -9.6730  -18.0647 H   0  0  0  0  0  0
   22.8069  -11.6157  -16.8180 H   0  0  0  0  0  0
   23.2670  -11.6641  -14.2970 H   0  0  0  0  0  0
   24.3459   -9.7217  -13.2336 H   0  0  0  0  0  0
   26.5181   -7.5002  -14.8006 H   0  0  0  0  0  0
   24.9817   -6.6030  -14.5531 H   0  0  0  0  0  0
   27.9922   -8.9743  -13.8498 H   0  0  0  0  0  0
   29.6266  -10.1498  -12.2983 H   0  0  0  0  0  0
   28.9540  -10.3648   -9.8715 H   0  0  0  0  0  0
   26.8444   -9.3167   -9.0293 H   0  0  0  0  0  0
   22.0345   -8.4253  -12.4448 H   0  0  0  0  0  0
   20.1843   -6.8096  -13.0747 H   0  0  0  0  0  0
   24.6260   -5.0597  -12.0593 H   0  0  0  0  0  0
   22.8419   -3.4903  -12.5433 H   0  0  0  0  0  0
   18.6893   -4.3323  -12.6162 H   0  0  0  0  0  0
   19.0435   -2.6201  -13.0282 H   0  0  0  0  0  0
   18.8590   -4.8911  -14.8907 H   0  0  0  0  0  0
   16.6142   -3.1596  -15.3819 H   0  0  0  0  0  0
   16.5267   -4.4329  -14.1179 H   0  0  0  0  0  0
   17.8103   -2.1526  -12.9356 H   0  0  0  0  0  0
   16.3651   -1.5601  -13.8227 H   0  0  0  0  0  0
   15.7746   -2.2191  -11.4823 H   0  0  0  0  0  0
   16.4010   -3.8744  -11.7895 H   0  0  0  0  0  0
   14.9558   -3.2820  -12.6767 H   0  0  0  0  0  0
   18.4884   -0.6104  -15.0133 H   0  0  0  0  0  0
   18.6790    1.4352  -16.3704 H   0  0  0  0  0  0
   19.5019    1.3069  -18.7736 H   0  0  0  0  0  0
   20.0625   -1.0057  -19.6140 H   0  0  0  0  0  0
   21.4799   -4.9718  -16.0741 H   0  0  0  0  0  0
   22.0162   -7.3636  -15.7264 H   0  0  0  0  0  0
   20.3309   -9.0684  -16.3698 H   0  0  0  0  0  0
   18.1810   -8.3569  -17.3418 H   0  0  0  0  0  0
   17.6549   -5.9611  -17.6845 H   0  0  0  0  0  0
  1  2  2  0  0  0
  1  6  1  0  0  0
  1 44  1  0  0  0
  2  3  1  0  0  0
  2 45  1  0  0  0
  3  4  2  0  0  0
  3 46  1  0  0  0
  4  5  1  0  0  0
  4 47  1  0  0  0
  5  6  2  0  0  0
  5 48  1  0  0  0
  6  7  1  0  0  0
  7  8  1  0  0  0
  7 49  1  0  0  0
  7 50  1  0  0  0
  8  9  1  0  0  0
  8 16  1  0  0  0
  9 10  1  0  0  0
  9 14  2  0  0  0
 10 11  2  0  0  0
 10 51  1  0  0  0
 11 12  1  0  0  0
 11 52  1  0  0  0
 12 13  2  0  0  0
 12 53  1  0  0  0
 13 14  1  0  0  0
 13 54  1  0  0  0
 14 15  1  0  0  0
 15 16  2  0  0  0
 16 17  1  0  0  0
 17 18  2  0  0  0
 17 20  1  0  0  0
 18 19  1  0  0  0
 18 55  1  0  0  0
 19 22  2  0  0  0
 19 56  1  0  0  0
 20 21  2  0  0  0
 20 57  1  0  0  0
 21 22  1  0  0  0
 21 58  1  0  0  0
 22 23  1  0  0  0
 23 24  1  0  0  0
 24 25  1  0  0  0
 24 59  1  0  0  0
 24 60  1  0  0  0
 25 26  1  0  0  0
 25 29  1  0  0  0
 25 61  1  0  0  0
 26 27  1  0  0  0
 26 62  1  0  0  0
 26 63  1  0  0  0
 27 28  1  0  0  0
 27 64  1  0  0  0
 27 65  1  0  0  0
 28 66  1  0  0  0
 28 67  1  0  0  0
 28 68  1  0  0  0
 29 30  1  0  0  0
 29 37  1  0  0  0
 30 31  1  0  0  0
 30 35  2  0  0  0
 31 32  2  0  0  0
 31 69  1  0  0  0
 32 33  1  0  0  0
 32 70  1  0  0  0
 33 34  2  0  0  0
 33 71  1  0  0  0
 34 35  1  0  0  0
 34 72  1  0  0  0
 35 36  1  0  0  0
 36 37  2  0  0  0
 37 38  1  0  0  0
 38 39  2  0  0  0
 38 43  1  0  0  0
 39 40  1  0  0  0
 39 73  1  0  0  0
 40 41  2  0  0  0
 40 74  1  0  0  0
 41 42  1  0  0  0
 41 75  1  0  0  0
 42 43  2  0  0  0
 42 76  1  0  0  0
 43 77  1  0  0  0
M  END
> <s_m_source_file>
../4jvb_ligand.sdf

> <i_m_source_file_index>
1

> <s_epik_input>
W2NIXTFbY0hdW2NIXVtjSF1bY0hdYzFbQ0gyXW4yYyhuYyhjMjMpW2NIXVtjSF1bY0hdW2NIXTMpLWM0W2NIXVtjSF1jKFtjSF1bY0hdNClPW0NIMl1bQ0BASF0oW0NIMl1bQ0gyXVtDSDNdKW41YyhuYyhjNTYpW2NIXVtjSF1bY0hdW2NIXTYpLWM3W2NIXVtjSF1bY0hdW2NIXVtjSF03

> <s_epik_cmdline>
J2VwaWtfYXBwJywgJy1pbWFlJywgJ2xpZ2FuZF9wcm8ubWFlJywgJy1vbWFlJywgJ2xpZ2FuZF9wcmVwLm1hZScsICctbXMnLCAnMScsICctcGgnLCAnNycsICctcGh0JywgJzAuNScsICctbnQn

> <r_lp_tautomer_probability>
1

> <r_epik_Ionization_Penalty>
  0.6154

> <r_epik_Ionization_Penalty_Charging>
  0.0000

> <r_epik_Ionization_Penalty_Neutral>
  0.6154

> <r_epik_State_Penalty>
  0.3807

> <r_epik_Charging_Adjusted_Penalty>
0.380748519334412

> <i_epik_Tot_Q>
0

> <i_epik_Tot_abs_Q>
0

$$$$
