4jve_ligand
                    3D
 Schrodinger Suite 2020-3.
 61 64  0  0  1  0            999 V2000
    5.2620  -12.9850   57.1290 C   0  0  0  0  0  0
    6.5980  -13.2650   57.3210 C   0  0  0  0  0  0
    7.4190  -13.4690   56.2100 C   0  0  0  0  0  0
    9.0850  -13.7550   56.5450 Cl  0  0  0  0  0  0
    6.9520  -13.4120   54.8920 C   0  0  0  0  0  0
    5.6040  -13.1270   54.7220 C   0  0  0  0  0  0
    4.7540  -12.9110   55.8300 C   0  0  0  0  0  0
    3.2900  -12.5750   55.7250 C   0  0  1  0  0  0
    3.0980  -11.4210   54.8720 N   0  0  0  0  0  0
    3.3850  -10.0370   55.3250 C   0  0  2  0  0  0
    2.6320  -11.6020   53.5890 C   0  0  0  0  0  0
    2.3120  -10.6300   52.9050 O   0  0  0  0  0  0
    2.4920  -13.0140   52.9690 C   0  0  2  0  0  0
    1.0710  -13.1040   52.3110 C   0  0  0  0  0  0
    0.6140  -14.5070   52.0270 C   0  0  0  0  0  0
   -0.1700  -15.2150   52.9450 C   0  0  0  0  0  0
   -0.5790  -16.5280   52.6600 C   0  0  0  0  0  0
   -0.1900  -17.1180   51.4420 C   0  0  0  0  0  0
    0.5960  -16.4040   50.5280 C   0  0  0  0  0  0
    0.9940  -15.1030   50.8200 C   0  0  0  0  0  0
    2.8120  -14.0540   53.8460 O   0  0  0  0  0  0
    2.4410  -13.7720   55.1840 C   0  0  1  0  0  0
    2.5060  -14.9690   56.0850 C   0  0  0  0  0  0
    1.8930  -14.9030   57.3460 C   0  0  0  0  0  0
    1.9870  -15.9830   58.2480 C   0  0  0  0  0  0
    2.7160  -17.1250   57.8350 C   0  0  0  0  0  0
    2.9550  -18.5930   58.8080 Cl  0  0  0  0  0  0
    3.3260  -17.2080   56.5860 C   0  0  0  0  0  0
    3.2150  -16.1250   55.7130 C   0  0  0  0  0  0
    4.5540   -9.7770   56.3380 C   0  0  0  0  0  0
    2.0880   -9.5840   55.9560 C   0  0  0  0  0  0
    1.2730   -8.8430   55.4600 O   0  0  0  0  0  0
    1.9270  -10.1050   57.1880 O   0  5  0  0  0  0
    5.7390   -8.8670   55.9160 C   0  0  0  0  0  0
    6.8540   -8.6990   56.9800 C   0  0  0  0  0  0
   -0.5500  -18.3770   51.1080 F   0  0  0  0  0  0
    4.6067  -12.8225   57.9847 H   0  0  0  0  0  0
    7.0089  -13.3265   58.3287 H   0  0  0  0  0  0
    7.6130  -13.5827   54.0422 H   0  0  0  0  0  0
    5.1932  -13.0687   53.7141 H   0  0  0  0  0  0
    2.9597  -12.2790   56.7316 H   0  0  0  0  0  0
    3.7045   -9.5203   54.4080 H   0  0  0  0  0  0
    3.3011  -13.2514   52.2626 H   0  0  0  0  0  0
    0.3267  -12.6509   52.9824 H   0  0  0  0  0  0
    1.0761  -12.5650   51.3521 H   0  0  0  0  0  0
   -0.4641  -14.7460   53.8840 H   0  0  0  0  0  0
   -1.1895  -17.0830   53.3723 H   0  0  0  0  0  0
    0.8957  -16.8676   49.5882 H   0  0  0  0  0  0
    1.6030  -14.5474   50.1069 H   0  0  0  0  0  0
    1.3699  -13.5369   55.0973 H   0  0  0  0  0  0
    1.3391  -14.0085   57.6308 H   0  0  0  0  0  0
    1.5148  -15.9404   59.2295 H   0  0  0  0  0  0
    3.8793  -18.1012   56.2959 H   0  0  0  0  0  0
    3.6838  -16.1758   54.7303 H   0  0  0  0  0  0
    4.1540   -9.2998   57.2448 H   0  0  0  0  0  0
    5.0272  -10.7334   56.6052 H   0  0  0  0  0  0
    6.2215   -9.2852   55.0203 H   0  0  0  0  0  0
    5.3644   -7.8571   55.6930 H   0  0  0  0  0  0
    7.6415   -8.0403   56.5850 H   0  0  0  0  0  0
    7.2844   -9.6828   57.2186 H   0  0  0  0  0  0
    6.4272   -8.2547   57.8913 H   0  0  0  0  0  0
  1  2  2  0  0  0
  1  7  1  0  0  0
  1 37  1  0  0  0
  2  3  1  0  0  0
  2 38  1  0  0  0
  3  4  1  0  0  0
  3  5  2  0  0  0
  5  6  1  0  0  0
  5 39  1  0  0  0
  6  7  2  0  0  0
  6 40  1  0  0  0
  7  8  1  0  0  0
  8  9  1  0  0  0
  8 22  1  0  0  0
  8 41  1  0  0  0
  9 10  1  0  0  0
  9 11  1  0  0  0
 10 30  1  0  0  0
 10 31  1  0  0  0
 10 42  1  0  0  0
 11 12  2  0  0  0
 11 13  1  0  0  0
 13 14  1  0  0  0
 13 21  1  0  0  0
 13 43  1  0  0  0
 14 15  1  0  0  0
 14 44  1  0  0  0
 14 45  1  0  0  0
 15 16  2  0  0  0
 15 20  1  0  0  0
 16 17  1  0  0  0
 16 46  1  0  0  0
 17 18  2  0  0  0
 17 47  1  0  0  0
 18 19  1  0  0  0
 18 36  1  0  0  0
 19 20  2  0  0  0
 19 48  1  0  0  0
 20 49  1  0  0  0
 21 22  1  0  0  0
 22 23  1  0  0  0
 22 50  1  0  0  0
 23 24  2  0  0  0
 23 29  1  0  0  0
 24 25  1  0  0  0
 24 51  1  0  0  0
 25 26  2  0  0  0
 25 52  1  0  0  0
 26 27  1  0  0  0
 26 28  1  0  0  0
 28 29  2  0  0  0
 28 53  1  0  0  0
 29 54  1  0  0  0
 30 34  1  0  0  0
 30 55  1  0  0  0
 30 56  1  0  0  0
 31 32  2  0  0  0
 31 33  1  0  0  0
 34 35  1  0  0  0
 34 57  1  0  0  0
 34 58  1  0  0  0
 35 59  1  0  0  0
 35 60  1  0  0  0
 35 61  1  0  0  0
M  CHG  1  33  -1
M  END
> <s_m_source_file>
../4jve_ligand.sdf

> <i_m_source_file_index>
1

> <s_epik_input>
Q2xjMVtjSF1bY0hdYyhbY0hdW2NIXTEpW0NASF0yTihbQ0BASF0oQyg9TylbT0hdKVtDSDJdW0NIMl1bQ0gzXSlDKD1PKVtDQEhdKFtDSDJdYzNbY0hdW2NIXWMoRilbY0hdW2NIXTMpT1tDQEhdMmM0W2NIXVtjSF1jKENsKVtjSF1bY0hdNA==

> <s_epik_cmdline>
J2VwaWtfYXBwJywgJy1pbWFlJywgJ2xpZ2FuZF9wcm8ubWFlJywgJy1vbWFlJywgJ2xpZ2FuZF9wcmVwLm1hZScsICctbXMnLCAnMScsICctcGgnLCAnNycsICctcGh0JywgJzAuNScsICctbnQn

> <r_lp_tautomer_probability>
1

> <r_epik_Ionization_Penalty>
  0.0001

> <r_epik_Ionization_Penalty_Charging>
  0.0001

> <r_epik_Ionization_Penalty_Neutral>
  0.0000

> <r_epik_State_Penalty>
 -0.0000

> <r_epik_Charging_Adjusted_Penalty>
0.000122934887556505

> <i_epik_Tot_Q>
-1

> <i_epik_Tot_abs_Q>
1

$$$$
