4jvi_ligand
                    3D
 Schrodinger Suite 2020-3.
 46 47  0  0  1  0            999 V2000
  -40.7710   53.4920    7.1100 C   0  0  0  0  0  0
  -39.7020   54.3530    7.7590 C   0  0  0  0  0  0
  -38.5730   53.4950    8.3000 C   0  0  0  0  0  0
  -37.4700   54.4480    8.6420 C   0  0  0  0  0  0
  -37.3420   54.4680   10.1410 C   0  0  0  0  0  0
  -35.9100   54.1830   10.4840 C   0  0  0  0  0  0
  -35.4240   55.2270   11.4640 C   0  0  0  0  0  0
  -34.4650   56.1820   10.7400 C   0  0  0  0  0  0
  -33.0150   56.0090   11.2250 C   0  0  0  0  0  0
  -32.1900   56.7270   10.2020 C   0  0  0  0  0  0
  -32.1870   58.0450   10.3220 N   0  0  0  0  0  0
  -31.5060   58.7960    9.4450 C   0  0  0  0  0  0
  -31.5170   60.1700    9.5980 C   0  0  0  0  0  0
  -30.8300   60.9930    8.7000 C   0  0  0  0  0  0
  -30.8830   62.7460    8.8870 Cl  0  0  0  0  0  0
  -30.1220   60.4020    7.6610 C   0  0  0  0  0  0
  -30.1050   59.0220    7.4850 C   0  0  0  0  0  0
  -30.7960   58.2230    8.3820 C   0  0  0  0  0  0
  -30.8050   56.8460    8.2270 C   0  0  0  0  0  0
  -30.2020   56.3030    7.3150 O   0  0  0  0  0  0
  -31.4920   56.0680    9.1380 N   0  0  0  0  0  0
  -31.4500   54.8410    8.9770 N   0  0  0  0  0  0
  -41.5768   54.1351    6.7264 H   0  0  0  0  0  0
  -41.1818   52.7942    7.8546 H   0  0  0  0  0  0
  -40.3289   52.9230    6.2789 H   0  0  0  0  0  0
  -39.2912   55.0508    7.0144 H   0  0  0  0  0  0
  -40.1441   54.9221    8.5901 H   0  0  0  0  0  0
  -38.9210   52.9494    9.1895 H   0  0  0  0  0  0
  -38.2569   52.7764    7.5294 H   0  0  0  0  0  0
  -36.5326   54.1050    8.1797 H   0  0  0  0  0  0
  -37.7204   55.4499    8.2632 H   0  0  0  0  0  0
  -37.6352   55.4578   10.5208 H   0  0  0  0  0  0
  -37.9982   53.6994   10.5753 H   0  0  0  0  0  0
  -35.8334   53.1835   10.9370 H   0  0  0  0  0  0
  -35.2998   54.2188    9.5695 H   0  0  0  0  0  0
  -36.2837   55.7904   11.8559 H   0  0  0  0  0  0
  -34.8993   54.7335   12.2954 H   0  0  0  0  0  0
  -34.4945   55.9813    9.6589 H   0  0  0  0  0  0
  -34.7712   57.2216   10.9284 H   0  0  0  0  0  0
  -32.9073   56.4541   12.2251 H   0  0  0  0  0  0
  -32.7694   54.9378   11.2721 H   0  0  0  0  0  0
  -32.0666   60.6162   10.4268 H   0  0  0  0  0  0
  -29.5670   61.0340    6.9677 H   0  0  0  0  0  0
  -29.5569   58.5764    6.6548 H   0  0  0  0  0  0
  -31.9802   54.1763    9.6748 H   0  0  0  0  0  0
  -30.8824   54.4157    8.1362 H   0  0  0  0  0  0
  1  2  1  0  0  0
  1 23  1  0  0  0
  1 24  1  0  0  0
  1 25  1  0  0  0
  2  3  1  0  0  0
  2 26  1  0  0  0
  2 27  1  0  0  0
  3  4  1  0  0  0
  3 28  1  0  0  0
  3 29  1  0  0  0
  4  5  1  0  0  0
  4 30  1  0  0  0
  4 31  1  0  0  0
  5  6  1  0  0  0
  5 32  1  0  0  0
  5 33  1  0  0  0
  6  7  1  0  0  0
  6 34  1  0  0  0
  6 35  1  0  0  0
  7  8  1  0  0  0
  7 36  1  0  0  0
  7 37  1  0  0  0
  8  9  1  0  0  0
  8 38  1  0  0  0
  8 39  1  0  0  0
  9 10  1  0  0  0
  9 40  1  0  0  0
  9 41  1  0  0  0
 10 11  2  0  0  0
 10 21  1  0  0  0
 11 12  1  0  0  0
 12 13  2  0  0  0
 12 18  1  0  0  0
 13 14  1  0  0  0
 13 42  1  0  0  0
 14 15  1  0  0  0
 14 16  2  0  0  0
 16 17  1  0  0  0
 16 43  1  0  0  0
 17 18  2  0  0  0
 17 44  1  0  0  0
 18 19  1  0  0  0
 19 20  2  0  0  0
 19 21  1  0  0  0
 21 22  1  0  0  0
 22 45  1  0  0  0
 22 46  1  0  0  0
M  END
> <s_m_source_file>
../4jvi_ligand.sdf

> <i_m_source_file_index>
1

> <s_epik_input>
W0NIM11bQ0gyXVtDSDJdW0NIMl1bQ0gyXVtDSDJdW0NIMl1bQ0gyXVtDSDJdYyhuMSluKFtOSDMrXSljKD1PKWMoYzEyKVtjSF1bY0hdYyhDbClbY0hdMg==

> <s_epik_cmdline>
J2VwaWtfYXBwJywgJy1pbWFlJywgJ2xpZ2FuZF9wcm8ubWFlJywgJy1vbWFlJywgJ2xpZ2FuZF9wcmVwLm1hZScsICctbXMnLCAnMScsICctcGgnLCAnNycsICctcGh0JywgJzAuNScsICctbnQn

> <r_lp_tautomer_probability>
1

> <r_epik_Ionization_Penalty>
  0.0001

> <r_epik_Ionization_Penalty_Charging>
  0.0000

> <r_epik_Ionization_Penalty_Neutral>
  0.0001

> <r_epik_State_Penalty>
 -0.0000

> <r_epik_Charging_Adjusted_Penalty>
2.97670709844815e-10

> <i_epik_Tot_Q>
0

> <i_epik_Tot_abs_Q>
0

$$$$
