4jvj_ligand
                    3D
 Schrodinger Suite 2020-3.
 38 40  0  0  1  0            999 V2000
   15.9610   32.3150  -10.2440 O   0  5  0  0  0  0
   16.3110   33.7740   -9.7350 P   0  0  0  0  0  0
   17.5570   33.6370   -8.9470 O   0  0  0  0  0  0
   16.2570   34.7280  -10.8700 O   0  5  0  0  0  0
   14.8690   34.1420   -8.5700 C   0  0  2  0  0  0
   15.2550   35.6150   -7.5260 P   0  0  0  0  0  0
   14.9220   35.0810   -6.0500 O   0  5  0  0  0  0
   16.7050   35.8710   -7.6260 O   0  0  0  0  0  0
   14.3090   36.7220   -7.8550 O   0  0  0  0  0  0
   14.5410   32.9530   -7.7370 N   0  0  0  0  0  0
   13.8710   31.9480   -8.2990 C   0  0  0  0  0  0
   12.7620   32.2600   -8.9890 N   0  0  0  0  0  0
   12.0430   31.2580   -9.6210 C   0  0  0  0  0  0
   12.5260   29.9510   -9.5200 N   0  0  0  0  0  0
   13.6530   29.7060   -8.8170 C   0  0  0  0  0  0
   14.4350   28.3020   -8.5330 S   0  0  0  0  0  0
   14.3500   30.6820   -8.1960 C   0  0  0  0  0  0
   15.4480   30.1770   -7.5500 C   0  0  0  0  0  0
   15.6110   28.8360   -7.6760 C   0  0  0  0  0  0
   16.5530   28.0070   -7.1560 C   0  0  0  0  0  0
   16.8100   26.7570   -7.7420 C   0  0  0  0  0  0
   17.7550   25.8670   -7.2050 C   0  0  0  0  0  0
   18.4750   26.1880   -6.0580 C   0  0  0  0  0  0
   19.4090   25.2720   -5.5550 C   0  0  0  0  0  0
   18.2280   27.4280   -5.4520 C   0  0  0  0  0  0
   17.2780   28.3160   -5.9940 C   0  0  0  0  0  0
   13.8765   34.1976   -9.0411 H   0  0  0  0  0  0
   13.2236   36.5561   -7.7881 H   0  0  0  0  0  0
   14.8510   32.9180   -6.6822 H   0  0  0  0  0  0
   11.1327   31.4817  -10.1773 H   0  0  0  0  0  0
   16.1354   30.8026   -6.9805 H   0  0  0  0  0  0
   16.2609   26.4693   -8.6386 H   0  0  0  0  0  0
   17.9273   24.9087   -7.6950 H   0  0  0  0  0  0
   19.4267   24.3776   -6.1951 H   0  0  0  0  0  0
   19.1264   24.9849   -4.5314 H   0  0  0  0  0  0
   20.4069   25.7347   -5.5437 H   0  0  0  0  0  0
   18.7765   27.7078   -4.5525 H   0  0  0  0  0  0
   17.1008   29.2699   -5.4972 H   0  0  0  0  0  0
  1  2  1  0  0  0
  2  3  2  0  0  0
  2  4  1  0  0  0
  2  5  1  0  0  0
  5  6  1  0  0  0
  5 10  1  0  0  0
  5 27  1  0  0  0
  6  7  1  0  0  0
  6  8  2  0  0  0
  6  9  1  0  0  0
  9 28  1  0  0  0
 10 11  1  0  0  0
 10 29  1  0  0  0
 11 12  1  0  0  0
 11 17  2  0  0  0
 12 13  2  0  0  0
 13 14  1  0  0  0
 13 30  1  0  0  0
 14 15  2  0  0  0
 15 16  1  0  0  0
 15 17  1  0  0  0
 16 19  1  0  0  0
 17 18  1  0  0  0
 18 19  2  0  0  0
 18 31  1  0  0  0
 19 20  1  0  0  0
 20 21  2  0  0  0
 20 26  1  0  0  0
 21 22  1  0  0  0
 21 32  1  0  0  0
 22 23  2  0  0  0
 22 33  1  0  0  0
 23 24  1  0  0  0
 23 25  1  0  0  0
 24 34  1  0  0  0
 24 35  1  0  0  0
 24 36  1  0  0  0
 25 26  2  0  0  0
 25 37  1  0  0  0
 26 38  1  0  0  0
M  CHG  3   1  -1   4  -1   7  -1
M  END
> <s_m_source_file>
../4jvj_ligand.sdf

> <i_m_source_file_index>
1

> <s_epik_input>
W09IXVAoPU8pKFtPSF0pW0NIXShQKD1PKShbT0hdKVtPSF0pW05IXWMobltjSF1uMSljKGMxMilbY0hdYyhzMiktYzNbY0hdW2NIXWMoW0NIM10pW2NIXVtjSF0z

> <s_epik_cmdline>
J2VwaWtfYXBwJywgJy1pbWFlJywgJ2xpZ2FuZF9wcm8ubWFlJywgJy1vbWFlJywgJ2xpZ2FuZF9wcmVwLm1hZScsICctbXMnLCAnMScsICctcGgnLCAnNycsICctcGh0JywgJzAuNScsICctbnQn

> <r_epik_Ionization_Penalty>
  0.3353

> <r_epik_Ionization_Penalty_Charging>
  0.3350

> <r_epik_Ionization_Penalty_Neutral>
  0.0003

> <r_epik_State_Penalty>
  0.3302

> <r_epik_Charging_Adjusted_Penalty>
0.665189692377137

> <i_epik_Tot_Q>
-3

> <i_epik_Tot_abs_Q>
3

$$$$
