4jwk_ligand
                    3D
 Schrodinger Suite 2020-3.
 30 31  0  0  1  0            999 V2000
   -1.0750   12.3730   25.3260 O   0  0  0  0  0  0
   -0.5530   13.6980   25.5890 C   0  0  0  0  0  0
   -0.0030   13.7640   27.0110 C   0  0  1  0  0  0
    1.1770   14.5570   27.2290 O   0  0  0  0  0  0
    1.3810   14.5620   28.6540 C   0  0  1  0  0  0
    1.9470   15.7830   29.2660 N   0  3  0  0  0  0
    2.4740   15.6380   30.4950 C   0  0  0  0  0  0
    3.0270   16.7060   31.1910 C   0  0  0  0  0  0
    3.0350   17.9630   30.6030 C   0  0  0  0  0  0
    2.4990   18.1300   29.3670 N   0  0  0  0  0  0
    1.9550   17.0860   28.6760 C   0  0  0  0  0  0
    1.4840   17.3100   27.5370 O   0  0  0  0  0  0
    3.5790   19.0090   31.2800 N   0  0  0  0  0  0
   -0.0100   14.3050   29.2340 C   0  0  2  0  0  0
    0.0120   13.0300   29.8930 O   0  0  0  0  0  0
   -0.9510   14.2910   28.0440 C   0  0  2  0  0  0
   -2.0440   13.3870   28.1980 O   0  0  0  0  0  0
   -1.5145   12.1397   24.3450 H   0  0  0  0  0  0
    0.2541   13.9223   24.8761 H   0  0  0  0  0  0
   -1.3584   14.4386   25.4758 H   0  0  0  0  0  0
    0.2651   12.7069   27.1551 H   0  0  0  0  0  0
    2.1749   13.8221   28.8338 H   0  0  0  0  0  0
    2.4671   14.6519   30.9595 H   0  0  0  0  0  0
    3.4487   16.5585   32.1852 H   0  0  0  0  0  0
    4.0083   18.8529   32.2807 H   0  0  0  0  0  0
   -0.3369   15.0198   30.0035 H   0  0  0  0  0  0
    0.6485   12.8789   30.7774 H   0  0  0  0  0  0
   -1.4801   15.2330   27.8373 H   0  0  0  0  0  0
   -2.7939   13.2895   27.3991 H   0  0  0  0  0  0
    3.5898   20.0114   30.8271 H   0  0  0  0  0  0
  1  2  1  0  0  0
  1 18  1  0  0  0
  2  3  1  0  0  0
  2 19  1  0  0  0
  2 20  1  0  0  0
  3  4  1  0  0  0
  3 16  1  0  0  0
  3 21  1  0  0  0
  4  5  1  0  0  0
  5  6  1  0  0  0
  5 14  1  0  0  0
  5 22  1  0  0  0
  6  7  2  0  0  0
  6 11  1  0  0  0
  7  8  1  0  0  0
  7 23  1  0  0  0
  8  9  2  0  0  0
  8 24  1  0  0  0
  9 10  1  0  0  0
  9 13  1  0  0  0
 10 11  1  0  0  0
 11 12  2  0  0  0
 13 25  1  0  0  0
 13 30  1  0  0  0
 14 15  1  0  0  0
 14 16  1  0  0  0
 14 26  1  0  0  0
 15 27  1  0  0  0
 16 17  1  0  0  0
 16 28  1  0  0  0
 17 29  1  0  0  0
M  CHG  1   6   1
M  END
> <s_m_source_file>
../4jwk_ligand.sdf

> <i_m_source_file_index>
1

> <s_epik_input>
W09IXVtDSDJdW0NASF0xT1tDQEhdKFtDQEhdKFtPSF0pW0NAQEhdMVtPSF0pbjJbY0hdW2NIXS9jKD1OL1tIXSlbbkhdYzI9Tw==

> <s_epik_cmdline>
J2VwaWtfYXBwJywgJy1pbWFlJywgJ2xpZ2FuZF9wcm8ubWFlJywgJy1vbWFlJywgJ2xpZ2FuZF9wcmVwLm1hZScsICctbXMnLCAnMScsICctcGgnLCAnNycsICctcGh0JywgJzAuNScsICctbnQn

> <r_lp_tautomer_probability>
1

> <r_epik_Ionization_Penalty>
  0.0007

> <r_epik_Ionization_Penalty_Charging>
  0.0000

> <r_epik_Ionization_Penalty_Neutral>
  0.0007

> <r_epik_State_Penalty>
 -0.0000

> <r_epik_Charging_Adjusted_Penalty>
2.45224844442545e-07

> <i_epik_Tot_Q>
1

> <i_epik_Tot_abs_Q>
1

> <s_epik_Chemistry_Notes>
This compound has an imine and may undergo hydrolysis. This compound contains an acetal/aminal-like group ( X-CH(R)-Y where X, Y are N, S, or O) that may be acid/base labile, releasing an aldehyde.

$$$$
