4jwr_ligand
                    3D
 Schrodinger Suite 2020-3.
 52 54  0  0  1  0            999 V2000
    4.9710  -11.2980   -2.1870 C   0  0  0  0  0  0
    3.6130  -11.1410   -2.4690 C   0  0  0  0  0  0
    2.7990  -12.3050   -3.4520 Cl  0  0  0  0  0  0
    2.9150  -10.0490   -1.9610 C   0  0  0  0  0  0
    3.5740   -9.1160   -1.1650 C   0  0  0  0  0  0
    4.9290   -9.2670   -0.8800 C   0  0  0  0  0  0
    5.6280  -10.3580   -1.3870 C   0  0  0  0  0  0
    7.1190  -10.4980   -1.0700 C   0  0  2  0  0  0
    7.8100  -11.0850   -2.1930 O   0  0  0  0  0  0
    9.2480  -10.9200   -2.1160 C   0  0  1  0  0  0
    9.6870   -9.4730   -2.4850 C   0  0  0  0  0  0
    9.2100   -9.1110   -3.8990 C   0  0  0  0  0  0
    8.4750   -8.1050   -3.9980 O   0  0  0  0  0  0
    9.5770   -9.8480   -4.8460 O   0  5  0  0  0  0
    9.7580  -11.3320   -0.7280 C   0  0  0  0  0  0
   10.9690  -11.5020   -0.6030 O   0  0  0  0  0  0
    8.8590  -11.5500    0.3570 N   0  0  0  0  0  0
    9.3180  -11.9380    1.7150 C   0  0  1  0  0  0
   10.3670  -13.0810    1.7210 C   0  0  0  0  0  0
    9.8380  -14.4260    1.1910 C   0  0  0  0  0  0
    9.8630  -10.6990    2.4460 C   0  0  0  0  0  0
    8.9090   -9.6300    2.3620 O   0  0  0  0  0  0
    7.4040  -11.3150    0.2050 C   0  0  2  0  0  0
    6.6090  -12.6320    0.2380 C   0  0  0  0  0  0
    5.6230  -12.7660    1.2160 C   0  0  0  0  0  0
    4.8870  -13.9460    1.2840 C   0  0  0  0  0  0
    5.1210  -14.9760    0.3710 C   0  0  0  0  0  0
    4.1790  -16.4220    0.4750 Cl  0  0  0  0  0  0
    6.1040  -14.8450   -0.6150 C   0  0  0  0  0  0
    6.8510  -13.6670   -0.6750 C   0  0  0  0  0  0
    5.5177  -12.1509   -2.5892 H   0  0  0  0  0  0
    1.8557   -9.9247   -2.1857 H   0  0  0  0  0  0
    3.0269   -8.2633   -0.7629 H   0  0  0  0  0  0
    5.4414   -8.5311   -0.2603 H   0  0  0  0  0  0
    7.5311   -9.4867   -0.9380 H   0  0  0  0  0  0
    9.6400  -11.6173   -2.8710 H   0  0  0  0  0  0
    9.2498   -8.7630   -1.7675 H   0  0  0  0  0  0
   10.7841   -9.4022   -2.4487 H   0  0  0  0  0  0
    8.4142  -12.3234    2.2095 H   0  0  0  0  0  0
   11.2210  -12.7982    1.0880 H   0  0  0  0  0  0
   10.7148  -13.2541    2.7501 H   0  0  0  0  0  0
   10.6411  -15.1767    1.2297 H   0  0  0  0  0  0
    9.5006  -14.3032    0.1513 H   0  0  0  0  0  0
    8.9944  -14.7591    1.8134 H   0  0  0  0  0  0
   10.0421  -10.9461    3.5028 H   0  0  0  0  0  0
   10.8072  -10.3831    1.9783 H   0  0  0  0  0  0
    9.1282   -8.6592    2.8305 H   0  0  0  0  0  0
    7.1023  -10.7236    1.0820 H   0  0  0  0  0  0
    5.4309  -11.9557    1.9193 H   0  0  0  0  0  0
    4.1246  -14.0662    2.0536 H   0  0  0  0  0  0
    6.2844  -15.6509   -1.3264 H   0  0  0  0  0  0
    7.6246  -13.5521   -1.4342 H   0  0  0  0  0  0
  1  2  2  0  0  0
  1  7  1  0  0  0
  1 31  1  0  0  0
  2  3  1  0  0  0
  2  4  1  0  0  0
  4  5  2  0  0  0
  4 32  1  0  0  0
  5  6  1  0  0  0
  5 33  1  0  0  0
  6  7  2  0  0  0
  6 34  1  0  0  0
  7  8  1  0  0  0
  8  9  1  0  0  0
  8 23  1  0  0  0
  8 35  1  0  0  0
  9 10  1  0  0  0
 10 11  1  0  0  0
 10 15  1  0  0  0
 10 36  1  0  0  0
 11 12  1  0  0  0
 11 37  1  0  0  0
 11 38  1  0  0  0
 12 13  2  0  0  0
 12 14  1  0  0  0
 15 16  2  0  0  0
 15 17  1  0  0  0
 17 18  1  0  0  0
 17 23  1  0  0  0
 18 19  1  0  0  0
 18 21  1  0  0  0
 18 39  1  0  0  0
 19 20  1  0  0  0
 19 40  1  0  0  0
 19 41  1  0  0  0
 20 42  1  0  0  0
 20 43  1  0  0  0
 20 44  1  0  0  0
 21 22  1  0  0  0
 21 45  1  0  0  0
 21 46  1  0  0  0
 22 47  1  0  0  0
 23 24  1  0  0  0
 23 48  1  0  0  0
 24 25  2  0  0  0
 24 30  1  0  0  0
 25 26  1  0  0  0
 25 49  1  0  0  0
 26 27  2  0  0  0
 26 50  1  0  0  0
 27 28  1  0  0  0
 27 29  1  0  0  0
 29 30  2  0  0  0
 29 51  1  0  0  0
 30 52  1  0  0  0
M  CHG  1  14  -1
M  END
> <s_m_source_file>
../4jwr_ligand.sdf

> <i_m_source_file_index>
1

> <s_epik_input>
Q2xjMVtjSF1jKFtjSF1bY0hdW2NIXTEpW0NAQEhdMk9bQ0BASF0oW0NIMl1DKD1PKVtPSF0pQyg9TylOKFtDQEBIXShbQ0gyXVtDSDNdKVtDSDJdW09IXSlbQ0BASF0yYzNbY0hdW2NIXWMoQ2wpW2NIXVtjSF0z

> <s_epik_cmdline>
J2VwaWtfYXBwJywgJy1pbWFlJywgJ2xpZ2FuZF9wcm8ubWFlJywgJy1vbWFlJywgJ2xpZ2FuZF9wcmVwLm1hZScsICctbXMnLCAnMScsICctcGgnLCAnNycsICctcGh0JywgJzAuNScsICctbnQn

> <r_lp_tautomer_probability>
1

> <r_epik_Ionization_Penalty>
  0.0016

> <r_epik_Ionization_Penalty_Charging>
  0.0016

> <r_epik_Ionization_Penalty_Neutral>
  0.0000

> <r_epik_State_Penalty>
 -0.0000

> <r_epik_Charging_Adjusted_Penalty>
0.0015981226391326

> <i_epik_Tot_Q>
-1

> <i_epik_Tot_abs_Q>
1

$$$$
