4jx7_ligand
                    3D
 Schrodinger Suite 2020-3.
 52 55  0  0  1  0            999 V2000
   22.2860  -41.6210   -5.8780 F   0  0  0  0  0  0
   21.5900  -40.8570   -4.9470 C   0  0  0  0  0  0
   20.4030  -41.4230   -4.7580 F   0  0  0  0  0  0
   21.3960  -39.5570   -5.4060 F   0  0  0  0  0  0
   22.3030  -40.8130   -3.7300 C   0  0  0  0  0  0
   21.6370  -40.4090   -2.5590 C   0  0  0  0  0  0
   23.6640  -41.1630   -3.6830 C   0  0  0  0  0  0
   24.3500  -41.1130   -2.4670 C   0  0  0  0  0  0
   23.6670  -40.7110   -1.3040 C   0  0  0  0  0  0
   22.3140  -40.3410   -1.3380 C   0  0  0  0  0  0
   21.7100  -39.9900   -0.1840 N   0  0  0  0  0  0
   20.8550  -38.9490   -0.0160 C   0  0  0  0  0  0
   20.3180  -38.1920   -1.0210 N   0  0  0  0  0  0
   20.5170  -38.6700    1.3260 C   0  0  0  0  0  0
   21.0130  -39.4050    2.4310 C   0  0  0  0  0  0
   21.8000  -40.3590    2.2860 O   0  0  0  0  0  0
   20.5940  -39.0470    3.7470 N   0  0  0  0  0  0
   19.7540  -38.0380    3.9540 C   0  0  0  0  0  0
   19.2560  -37.3000    2.8910 C   0  0  0  0  0  0
   19.6320  -37.6160    1.5850 C   0  0  0  0  0  0
   19.1370  -36.9000    0.5620 N   0  0  0  0  0  0
   19.4540  -37.1830   -0.7250 C   0  0  0  0  0  0
   18.8940  -36.3490   -1.6100 N   0  0  0  0  0  0
   18.3950  -36.5190   -2.9820 C   0  0  1  0  0  0
   19.1890  -35.5330   -3.8510 C   0  0  0  0  0  0
   18.5770  -35.4660   -5.2470 C   0  0  0  0  0  0
   18.6310  -36.8560   -5.8910 C   0  0  2  0  0  0
   18.0680  -36.7850   -7.2340 N   0  3  0  0  0  0
   17.9440  -37.9530   -5.0130 C   0  0  0  0  0  0
   18.4610  -37.9400   -3.5590 C   0  0  0  0  0  0
   20.5802  -40.1458   -2.6041 H   0  0  0  0  0  0
   24.1815  -41.4719   -4.5912 H   0  0  0  0  0  0
   25.4050  -41.3830   -2.4194 H   0  0  0  0  0  0
   24.2017  -40.6865   -0.3545 H   0  0  0  0  0  0
   21.8955  -40.5696    0.7323 H   0  0  0  0  0  0
   19.4461  -37.7799    4.9780 H   0  0  0  0  0  0
   18.1585  -37.3728    2.8764 H   0  0  0  0  0  0
   19.5521  -36.2468    3.0052 H   0  0  0  0  0  0
   18.8381  -35.3645   -1.1225 H   0  0  0  0  0  0
   17.3169  -36.3088   -2.9233 H   0  0  0  0  0  0
   19.1590  -34.5336   -3.3923 H   0  0  0  0  0  0
   20.2333  -35.8702   -3.9274 H   0  0  0  0  0  0
   17.5307  -35.1348   -5.1731 H   0  0  0  0  0  0
   19.1448  -34.7527   -5.8624 H   0  0  0  0  0  0
   19.6814  -37.1492   -6.0352 H   0  0  0  0  0  0
   18.5846  -36.0010   -7.8072 H   0  0  0  0  0  0
   16.9961  -36.5464   -7.1701 H   0  0  0  0  0  0
   18.1986  -37.7540   -7.7380 H   0  0  0  0  0  0
   16.8580  -37.7790   -4.9922 H   0  0  0  0  0  0
   18.1481  -38.9458   -5.4405 H   0  0  0  0  0  0
   19.5027  -38.2932   -3.5454 H   0  0  0  0  0  0
   17.8380  -38.6121   -2.9506 H   0  0  0  0  0  0
  1  2  1  0  0  0
  2  3  1  0  0  0
  2  4  1  0  0  0
  2  5  1  0  0  0
  5  6  2  0  0  0
  5  7  1  0  0  0
  6 10  1  0  0  0
  6 31  1  0  0  0
  7  8  2  0  0  0
  7 32  1  0  0  0
  8  9  1  0  0  0
  8 33  1  0  0  0
  9 10  2  0  0  0
  9 34  1  0  0  0
 10 11  1  0  0  0
 11 12  1  0  0  0
 11 35  1  0  0  0
 12 13  2  0  0  0
 12 14  1  0  0  0
 13 22  1  0  0  0
 14 15  1  0  0  0
 14 20  2  0  0  0
 15 16  2  0  0  0
 15 17  1  0  0  0
 17 18  2  0  0  0
 18 19  1  0  0  0
 18 36  1  0  0  0
 19 20  1  0  0  0
 19 37  1  0  0  0
 19 38  1  0  0  0
 20 21  1  0  0  0
 21 22  2  0  0  0
 22 23  1  0  0  0
 23 24  1  0  0  0
 23 39  1  0  0  0
 24 25  1  0  0  0
 24 30  1  0  0  0
 24 40  1  0  0  0
 25 26  1  0  0  0
 25 41  1  0  0  0
 25 42  1  0  0  0
 26 27  1  0  0  0
 26 43  1  0  0  0
 26 44  1  0  0  0
 27 28  1  0  0  0
 27 29  1  0  0  0
 27 45  1  0  0  0
 28 46  1  0  0  0
 28 47  1  0  0  0
 28 48  1  0  0  0
 29 30  1  0  0  0
 29 49  1  0  0  0
 29 50  1  0  0  0
 30 51  1  0  0  0
 30 52  1  0  0  0
M  CHG  1  28   1
M  END
> <s_m_source_file>
../4jx7_ligand.sdf

> <i_m_source_file_index>
1

> <s_epik_input>
RkMoRikoRiljMVtjSF1jKFtjSF1bY0hdW2NIXTEpW05IXWMybmMobmMoYzIzKVtDSDJdW0NIXT1OQzM9TylbTkhdW0NASF00W0NIMl1bQ0gyXVtDQEhdKFtOSDMrXSlbQ0gyXVtDSDJdNA==

> <s_epik_cmdline>
J2VwaWtfYXBwJywgJy1pbWFlJywgJ2xpZ2FuZF9wcm8ubWFlJywgJy1vbWFlJywgJ2xpZ2FuZF9wcmVwLm1hZScsICctbXMnLCAnMScsICctcGgnLCAnNycsICctcGh0JywgJzAuNScsICctbnQn

> <r_lp_tautomer_probability>
1

> <r_epik_Ionization_Penalty>
  0.0003

> <r_epik_Ionization_Penalty_Charging>
  0.0002

> <r_epik_Ionization_Penalty_Neutral>
  0.0001

> <r_epik_State_Penalty>
 -0.0000

> <r_epik_Charging_Adjusted_Penalty>
0.000233472693678441

> <i_epik_Tot_Q>
1

> <i_epik_Tot_abs_Q>
1

> <s_epik_Chemistry_Notes>
This compound has an imine and may undergo hydrolysis.

$$$$
