4jx9_ligand
                    3D
 Schrodinger Suite 2020-3.
 29 30  0  0  1  0            999 V2000
    2.4070   15.9010   31.0260 N   0  0  0  0  0  0
    2.8060   17.1980   31.3390 C   0  0  0  0  0  0
    3.6210   17.4470   32.3280 N   0  0  0  0  0  0
    4.1530   16.4440   33.0410 C   0  0  0  0  0  0
    3.7850   15.1350   32.7600 C   0  0  0  0  0  0
    2.9310   14.8900   31.6830 C   0  0  0  0  0  0
    2.3230   18.1570   30.6760 O   0  0  0  0  0  0
    4.9530   16.6410   34.0200 O   0  0  0  0  0  0
    1.4450   15.7230   29.9060 C   0  0  1  0  0  0
    2.2330   15.3050   28.7630 C   0  0  1  0  0  0
    1.8840   13.9540   28.9190 C   0  0  1  0  0  0
    0.4250   13.9670   28.7880 C   0  0  2  0  0  0
    1.6640   16.1170   27.7590 O   0  0  0  0  0  0
    2.5680   13.0440   28.3530 O   0  0  0  0  0  0
    0.3900   14.7280   29.9630 O   0  0  0  0  0  0
   -0.0810   12.5370   28.5300 C   0  0  0  0  0  0
    0.0760   12.4530   27.1010 O   0  0  0  0  0  0
    3.8762   18.4864   32.5820 H   0  0  0  0  0  0
    4.1568   14.3120   33.3703 H   0  0  0  0  0  0
    2.7000   13.8663   31.3886 H   0  0  0  0  0  0
    0.9057   16.6814   29.8796 H   0  0  0  0  0  0
    3.3143   15.3817   28.5760 H   0  0  0  0  0  0
    2.3277   13.4811   29.8075 H   0  0  0  0  0  0
   -0.2260   14.4506   28.0448 H   0  0  0  0  0  0
    1.9637   17.1716   27.6691 H   0  0  0  0  0  0
    3.6634   13.0367   28.4531 H   0  0  0  0  0  0
    0.5427   11.8215   29.0859 H   0  0  0  0  0  0
   -1.1250   12.4513   28.8656 H   0  0  0  0  0  0
   -0.2023   11.5305   26.5704 H   0  0  0  0  0  0
  1  2  1  0  0  0
  1  6  1  0  0  0
  1  9  1  0  0  0
  2  3  1  0  0  0
  2  7  2  0  0  0
  3  4  1  0  0  0
  3 18  1  0  0  0
  4  5  1  0  0  0
  4  8  2  0  0  0
  5  6  2  0  0  0
  5 19  1  0  0  0
  6 20  1  0  0  0
  9 10  1  0  0  0
  9 15  1  0  0  0
  9 21  1  0  0  0
 10 11  1  0  0  0
 10 13  1  0  0  0
 10 22  1  0  0  0
 11 12  1  0  0  0
 11 14  1  0  0  0
 11 23  1  0  0  0
 12 15  1  0  0  0
 12 16  1  0  0  0
 12 24  1  0  0  0
 13 25  1  0  0  0
 14 26  1  0  0  0
 16 17  1  0  0  0
 16 27  1  0  0  0
 16 28  1  0  0  0
 17 29  1  0  0  0
M  END
> <s_m_source_file>
../4jx9_ligand.sdf

> <i_m_source_file_index>
1

> <s_epik_input>
W2NIXTFbY0hdYyg9TylbbkhdYyg9TyluMVtDQEhdMltDQEhdKFtPSF0pW0NASF0oW09IXSlbQ0BIXShPMilbQ0gyXVtPSF0=

> <s_epik_cmdline>
J2VwaWtfYXBwJywgJy1pbWFlJywgJ2xpZ2FuZF9wcm8ubWFlJywgJy1vbWFlJywgJ2xpZ2FuZF9wcmVwLm1hZScsICctbXMnLCAnMScsICctcGgnLCAnNycsICctcGh0JywgJzAuNScsICctbnQn

> <r_lp_tautomer_probability>
1

> <r_epik_Ionization_Penalty>
  0.0026

> <r_epik_Ionization_Penalty_Charging>
  0.0026

> <r_epik_Ionization_Penalty_Neutral>
  0.0000

> <r_epik_State_Penalty>
 -0.0000

> <r_epik_Charging_Adjusted_Penalty>
0.00262925139162556

> <i_epik_Tot_Q>
0

> <i_epik_Tot_abs_Q>
0

> <s_epik_Chemistry_Notes>
This compound contains an acetal/aminal-like group ( X-CH(R)-Y where X, Y are N, S, or O) that may be acid/base labile, releasing an aldehyde.

$$$$
