4jxv_ligand
                    3D
 Schrodinger Suite 2020-3.
 34 35  0  0  1  0            999 V2000
   23.4070    6.1610   10.4880 C   0  0  0  0  0  0
   23.2750    5.9920    9.1200 C   0  0  0  0  0  0
   22.7130    4.8140    8.6250 C   0  0  0  0  0  0
   22.5730    4.5240    7.1180 C   0  0  0  0  0  0
   21.4440    4.1730    6.7220 O   0  5  0  0  0  0
   23.5660    4.5940    6.3770 O   0  0  0  0  0  0
   22.2770    3.8330    9.5100 C   0  0  0  0  0  0
   22.3940    4.0120   10.8700 C   0  0  0  0  0  0
   22.9460    5.1710   11.3510 C   0  0  0  0  0  0
   23.0550    5.3100   12.8510 C   0  0  0  0  0  0
   24.1890    4.3590   13.2450 C   0  0  0  0  0  0
   24.6760    4.7240   14.5610 N   0  0  3  0  0  0
   25.9250    5.7100   14.4130 S   0  0  0  0  0  0
   25.7970    6.5290   13.1610 O   0  0  0  0  0  0
   27.1860    4.9080   14.3910 O   0  0  0  0  0  0
   25.8290    6.7340   15.8040 C   0  0  0  0  0  0
   25.8040    8.0710   15.6610 C   0  0  0  0  0  0
   25.7210    8.7600   16.8070 C   0  0  0  0  0  0
   25.6470    7.6440   18.0890 S   0  0  0  0  0  0
   25.7400    6.3030   17.1330 C   0  0  0  0  0  0
   25.6930    4.9150   17.7260 C   0  0  0  0  0  0
   25.5520    4.8530   18.9730 O   0  5  0  0  0  0
   25.7430    3.9530   16.9520 O   0  0  0  0  0  0
   23.8692    7.0640   10.8867 H   0  0  0  0  0  0
   23.6072    6.7724    8.4353 H   0  0  0  0  0  0
   21.8383    2.9134    9.1227 H   0  0  0  0  0  0
   22.0509    3.2393   11.5580 H   0  0  0  0  0  0
   23.2888    6.3541   13.1064 H   0  0  0  0  0  0
   22.1002    5.0237   13.3161 H   0  0  0  0  0  0
   23.8116    3.3259   13.2627 H   0  0  0  0  0  0
   25.0056    4.4386   12.5123 H   0  0  0  0  0  0
   24.0922    4.4620   15.4557 H   0  0  0  0  0  0
   25.8479    8.5573   14.6865 H   0  0  0  0  0  0
   25.7039    9.8458   16.9015 H   0  0  0  0  0  0
  1  2  2  0  0  0
  1  9  1  0  0  0
  1 24  1  0  0  0
  2  3  1  0  0  0
  2 25  1  0  0  0
  3  4  1  0  0  0
  3  7  2  0  0  0
  4  5  1  0  0  0
  4  6  2  0  0  0
  7  8  1  0  0  0
  7 26  1  0  0  0
  8  9  2  0  0  0
  8 27  1  0  0  0
  9 10  1  0  0  0
 10 11  1  0  0  0
 10 28  1  0  0  0
 10 29  1  0  0  0
 11 12  1  0  0  0
 11 30  1  0  0  0
 11 31  1  0  0  0
 12 13  1  0  0  0
 12 32  1  0  0  0
 13 14  2  0  0  0
 13 15  2  0  0  0
 13 16  1  0  0  0
 16 17  1  0  0  0
 16 20  2  0  0  0
 17 18  2  0  0  0
 17 33  1  0  0  0
 18 19  1  0  0  0
 18 34  1  0  0  0
 19 20  1  0  0  0
 20 21  1  0  0  0
 21 22  1  0  0  0
 21 23  2  0  0  0
M  CHG  2   5  -1  22  -1
M  END
> <s_m_source_file>
../4jxv_ligand.sdf

> <i_m_source_file_index>
1

> <s_epik_input>
W09IXUMoPU8pYzFbY0hdW2NIXWMoW2NIXVtjSF0xKVtDSDJdW0NIMl1bTkhdUyg9TykoPU8pYzJbY0hdW2NIXXNjMkMoPU8pW09IXQ==

> <s_epik_cmdline>
J2VwaWtfYXBwJywgJy1pbWFlJywgJ2xpZ2FuZF9wcm8ubWFlJywgJy1vbWFlJywgJ2xpZ2FuZF9wcmVwLm1hZScsICctbXMnLCAnMScsICctcGgnLCAnNycsICctcGh0JywgJzAuNScsICctbnQn

> <r_lp_tautomer_probability>
1

> <r_epik_Ionization_Penalty>
  0.0014

> <r_epik_Ionization_Penalty_Charging>
  0.0010

> <r_epik_Ionization_Penalty_Neutral>
  0.0004

> <r_epik_State_Penalty>
 -0.0000

> <r_epik_Charging_Adjusted_Penalty>
0.000965204052455145

> <i_epik_Tot_Q>
-2

> <i_epik_Tot_abs_Q>
2

$$$$
