4jxw_ligand
                    3D
 Schrodinger Suite 2020-3.
 37 38  0  0  1  0            999 V2000
   20.9990    3.8200    9.1250 C   0  0  0  0  0  0
   19.8250    3.0870    8.7820 C   0  0  0  0  0  0
   19.0500    2.5750    9.8490 C   0  0  0  0  0  0
   17.7110    1.7830    9.7010 C   0  0  0  0  0  0
   17.3260    1.1450   10.7240 O   0  0  0  0  0  0
   17.0780    1.8740    8.5910 O   0  5  0  0  0  0
   19.4350    2.7900   11.1470 C   0  0  0  0  0  0
   20.5630    3.5150   11.4470 C   0  0  0  0  0  0
   21.3910    4.0260   10.4740 C   0  0  0  0  0  0
   22.6410    4.7840   10.9670 C   0  0  0  0  0  0
   23.1970    4.1090   12.2620 C   0  0  0  0  0  0
   23.2380    5.0240   13.5570 C   0  0  0  0  0  0
   24.3010    4.6020   14.5150 N   0  0  3  0  0  0
   25.7680    5.5610   14.5290 S   0  0  0  0  0  0
   25.7660    6.3050   13.2100 O   0  0  0  0  0  0
   27.0070    4.7360   14.7300 O   0  0  0  0  0  0
   25.6210    6.6280   15.8960 C   0  0  0  0  0  0
   25.6620    7.9740   15.7320 C   0  0  0  0  0  0
   25.4880    8.7160   16.8550 C   0  0  0  0  0  0
   25.2730    7.6450   18.1970 S   0  0  0  0  0  0
   25.4150    6.2190   17.2350 C   0  0  0  0  0  0
   25.2920    4.8390   17.8800 C   0  0  0  0  0  0
   25.1060    4.8860   19.1340 O   0  5  0  0  0  0
   25.3860    3.7940   17.1910 O   0  0  0  0  0  0
   21.6145    4.2350    8.3269 H   0  0  0  0  0  0
   19.5372    2.9281    7.7428 H   0  0  0  0  0  0
   18.8341    2.3775   11.9575 H   0  0  0  0  0  0
   20.8109    3.6917   12.4936 H   0  0  0  0  0  0
   23.4150    4.7619   10.1857 H   0  0  0  0  0  0
   22.3733    5.8277   11.1885 H   0  0  0  0  0  0
   22.5727    3.2408   12.5199 H   0  0  0  0  0  0
   24.2315    3.7780   12.0878 H   0  0  0  0  0  0
   23.4374    6.0653   13.2640 H   0  0  0  0  0  0
   22.2699    4.9682   14.0762 H   0  0  0  0  0  0
   24.0836    3.8385   15.2764 H   0  0  0  0  0  0
   25.8250    8.4322   14.7565 H   0  0  0  0  0  0
   25.4843    9.8049   16.9035 H   0  0  0  0  0  0
  1  2  2  0  0  0
  1  9  1  0  0  0
  1 25  1  0  0  0
  2  3  1  0  0  0
  2 26  1  0  0  0
  3  4  1  0  0  0
  3  7  2  0  0  0
  4  5  2  0  0  0
  4  6  1  0  0  0
  7  8  1  0  0  0
  7 27  1  0  0  0
  8  9  2  0  0  0
  8 28  1  0  0  0
  9 10  1  0  0  0
 10 11  1  0  0  0
 10 29  1  0  0  0
 10 30  1  0  0  0
 11 12  1  0  0  0
 11 31  1  0  0  0
 11 32  1  0  0  0
 12 13  1  0  0  0
 12 33  1  0  0  0
 12 34  1  0  0  0
 13 14  1  0  0  0
 13 35  1  0  0  0
 14 15  2  0  0  0
 14 16  2  0  0  0
 14 17  1  0  0  0
 17 18  1  0  0  0
 17 21  2  0  0  0
 18 19  2  0  0  0
 18 36  1  0  0  0
 19 20  1  0  0  0
 19 37  1  0  0  0
 20 21  1  0  0  0
 21 22  1  0  0  0
 22 23  1  0  0  0
 22 24  2  0  0  0
M  CHG  2   6  -1  23  -1
M  END
> <s_m_source_file>
../4jxw_ligand.sdf

> <i_m_source_file_index>
1

> <s_epik_input>
Tz1DKFtPSF0pYzFbY0hdW2NIXWMoW2NIXVtjSF0xKVtDSDJdW0NIMl1bQ0gyXVtOSF1TKD1PKSg9TyljMltjSF1bY0hdc2MyQyg9TylbT0hd

> <s_epik_cmdline>
J2VwaWtfYXBwJywgJy1pbWFlJywgJ2xpZ2FuZF9wcm8ubWFlJywgJy1vbWFlJywgJ2xpZ2FuZF9wcmVwLm1hZScsICctbXMnLCAnMScsICctcGgnLCAnNycsICctcGh0JywgJzAuNScsICctbnQn

> <r_lp_tautomer_probability>
1

> <r_epik_Ionization_Penalty>
  0.0014

> <r_epik_Ionization_Penalty_Charging>
  0.0011

> <r_epik_Ionization_Penalty_Neutral>
  0.0003

> <r_epik_State_Penalty>
 -0.0000

> <r_epik_Charging_Adjusted_Penalty>
0.00110035299346371

> <i_epik_Tot_Q>
-2

> <i_epik_Tot_abs_Q>
2

$$$$
