4jyu_ligand
                    3D
 Schrodinger Suite 2020-3.
 68 71  0  0  1  0            999 V2000
    9.4140   33.7690   28.6870 C   0  0  0  0  0  0
    9.5970   33.3860   27.3270 C   0  0  0  0  0  0
    9.2020   34.1950   26.3030 C   0  0  0  0  0  0
    8.5830   35.4190   26.5570 C   0  0  0  0  0  0
    8.3870   35.8370   27.8580 C   0  0  0  0  0  0
    7.3350   37.3890   25.7060 C   0  0  2  0  0  0
    5.8600   37.0720   25.9150 C   0  0  0  0  0  0
    7.3550   38.2210   24.4690 C   0  0  0  0  0  0
    5.1750   36.3120   24.9660 C   0  0  0  0  0  0
    8.6550   35.4570   30.2890 C   0  0  0  0  0  0
    8.7990   35.0320   28.9480 C   0  0  0  0  0  0
   -0.4390   36.4350   27.0370 C   0  0  0  0  0  0
    3.8140   37.3490   27.1740 C   0  0  0  0  0  0
    0.9740   36.5580   27.4940 C   0  0  0  0  0  0
    6.9920   39.5190   24.6590 N   0  0  0  0  0  0
    6.7880   40.5710   23.4320 S   0  0  0  0  0  0
    5.4640   39.8680   22.4970 C   0  0  0  0  0  0
    4.4300   39.2160   23.1610 C   0  0  0  0  0  0
    3.4110   38.6340   22.4210 C   0  0  0  0  0  0
    3.4130   38.7160   21.0400 C   0  0  0  0  0  0
    4.4330   39.3830   20.3910 C   0  0  0  0  0  0
    5.4710   39.9610   21.1120 C   0  0  0  0  0  0
    9.6950   33.4620   31.0860 N   0  3  0  0  0  0
    9.1200   34.6580   31.2890 C   0  0  0  0  0  0
    9.8430   33.0020   29.8400 C   0  0  0  0  0  0
   10.4320   31.7970   29.6820 N   0  0  0  0  0  0
    8.1420   36.1990   25.4890 N   0  0  0  0  0  0
    3.8220   36.0530   25.1180 C   0  0  0  0  0  0
    3.1260   36.5830   26.2340 C   0  0  0  0  0  0
    5.1700   37.5760   27.0110 C   0  0  0  0  0  0
    1.7840   36.2660   26.3060 O   0  0  0  0  0  0
    3.0950   35.2120   24.3060 O   0  0  0  0  0  0
    3.7410   34.5900   23.1770 C   0  0  0  0  0  0
    2.7630   33.7310   22.5170 C   0  0  0  0  0  0
    1.2940   35.6270   28.6210 C   0  0  0  0  0  0
    7.6950   37.7830   23.3730 O   0  5  0  0  0  0
    6.3120   41.7820   24.0350 O   0  0  0  0  0  0
    7.9670   40.5990   22.6190 O   0  0  0  0  0  0
   10.0623   32.4267   27.1005 H   0  0  0  0  0  0
    9.3720   33.8814   25.2730 H   0  0  0  0  0  0
    7.9094   36.7981   28.0486 H   0  0  0  0  0  0
    7.7927   37.8657   26.5853 H   0  0  0  0  0  0
    5.7075   35.9196   24.0997 H   0  0  0  0  0  0
    8.1788   36.4101   30.5189 H   0  0  0  0  0  0
   -0.6197   37.1385   26.2109 H   0  0  0  0  0  0
   -1.1160   36.6683   27.8720 H   0  0  0  0  0  0
   -0.6242   35.4075   26.6908 H   0  0  0  0  0  0
    3.2875   37.7667   28.0321 H   0  0  0  0  0  0
    1.1858   37.5654   27.8817 H   0  0  0  0  0  0
    4.4205   39.1630   24.2497 H   0  0  0  0  0  0
    2.6035   38.1087   22.9310 H   0  0  0  0  0  0
    2.6102   38.2546   20.4649 H   0  0  0  0  0  0
    4.4240   39.4569   19.3035 H   0  0  0  0  0  0
    6.2794   40.4801   20.5971 H   0  0  0  0  0  0
    9.0193   35.0106   32.3155 H   0  0  0  0  0  0
   10.5731   31.3818   28.6732 H   0  0  0  0  0  0
   10.7707   31.2307   30.5621 H   0  0  0  0  0  0
    8.4158   35.8990   24.4667 H   0  0  0  0  0  0
    5.7070   38.1617   27.7571 H   0  0  0  0  0  0
    4.0947   35.3668   22.4832 H   0  0  0  0  0  0
    4.5966   33.9937   23.5268 H   0  0  0  0  0  0
    3.2305   33.2424   21.6494 H   0  0  0  0  0  0
    1.9098   34.3382   22.1803 H   0  0  0  0  0  0
    2.4116   32.9650   23.2239 H   0  0  0  0  0  0
    0.6689   35.8762   29.4912 H   0  0  0  0  0  0
    2.3555   35.7291   28.8908 H   0  0  0  0  0  0
    1.0928   34.5914   28.3095 H   0  0  0  0  0  0
   10.0416   32.8658   31.9430 H   0  0  0  0  0  0
  1  2  2  0  0  0
  1 11  1  0  0  0
  1 25  1  0  0  0
  2  3  1  0  0  0
  2 39  1  0  0  0
  3  4  2  0  0  0
  3 40  1  0  0  0
  4  5  1  0  0  0
  4 27  1  0  0  0
  5 11  2  0  0  0
  5 41  1  0  0  0
  6  7  1  0  0  0
  6  8  1  0  0  0
  6 27  1  0  0  0
  6 42  1  0  0  0
  7  9  2  0  0  0
  7 30  1  0  0  0
  8 15  2  0  0  0
  8 36  1  0  0  0
  9 28  1  0  0  0
  9 43  1  0  0  0
 10 11  1  0  0  0
 10 24  2  0  0  0
 10 44  1  0  0  0
 12 14  1  0  0  0
 12 45  1  0  0  0
 12 46  1  0  0  0
 12 47  1  0  0  0
 13 29  1  0  0  0
 13 30  2  0  0  0
 13 48  1  0  0  0
 14 31  1  0  0  0
 14 35  1  0  0  0
 14 49  1  0  0  0
 15 16  1  0  0  0
 16 17  1  0  0  0
 16 37  2  0  0  0
 16 38  2  0  0  0
 17 18  2  0  0  0
 17 22  1  0  0  0
 18 19  1  0  0  0
 18 50  1  0  0  0
 19 20  2  0  0  0
 19 51  1  0  0  0
 20 21  1  0  0  0
 20 52  1  0  0  0
 21 22  2  0  0  0
 21 53  1  0  0  0
 22 54  1  0  0  0
 23 24  1  0  0  0
 23 25  2  0  0  0
 23 68  1  0  0  0
 24 55  1  0  0  0
 25 26  1  0  0  0
 26 56  1  0  0  0
 26 57  1  0  0  0
 27 58  1  0  0  0
 28 29  2  0  0  0
 28 32  1  0  0  0
 29 31  1  0  0  0
 30 59  1  0  0  0
 32 33  1  0  0  0
 33 34  1  0  0  0
 33 60  1  0  0  0
 33 61  1  0  0  0
 34 62  1  0  0  0
 34 63  1  0  0  0
 34 64  1  0  0  0
 35 65  1  0  0  0
 35 66  1  0  0  0
 35 67  1  0  0  0
M  CHG  2  23   1  36  -1
M  END
> <s_m_source_file>
../4jyu_ligand.sdf

> <i_m_source_file_index>
1

> <s_epik_input>
W05IMl1jMW5bY0hdW2NIXWMoYzEyKVtjSF1jKFtjSF1bY0hdMilbTkhdW0NASF0oYzNbY0hdYyhPW0NIMl1bQ0gzXSljKFtjSF1bY0hdMylPW0NIXShbQ0gzXSlbQ0gzXSlDKD1PKVtOSF1TKD1PKSg9TyljNFtjSF1bY0hdW2NIXVtjSF1bY0hdNA==

> <s_epik_cmdline>
J2VwaWtfYXBwJywgJy1pbWFlJywgJ2xpZ2FuZF9wcm8ubWFlJywgJy1vbWFlJywgJ2xpZ2FuZF9wcmVwLm1hZScsICctbXMnLCAnMScsICctcGgnLCAnNycsICctcGh0JywgJzAuNScsICctbnQn

> <r_lp_tautomer_probability>
1

> <r_epik_Ionization_Penalty>
  0.0184

> <r_epik_Ionization_Penalty_Charging>
  0.0184

> <r_epik_Ionization_Penalty_Neutral>
  0.0000

> <r_epik_State_Penalty>
  0.0103

> <r_epik_Charging_Adjusted_Penalty>
0.0286967201878074

> <i_epik_Tot_Q>
0

> <i_epik_Tot_abs_Q>
2

$$$$
