4jyv_ligand
                    3D
 Schrodinger Suite 2020-3.
 71 74  0  0  1  0            999 V2000
    7.1830   38.2750   24.3170 C   0  0  0  0  0  0
    3.8120   36.2650   25.1010 C   0  0  0  0  0  0
    5.1740   36.4310   24.9260 C   0  0  0  0  0  0
    5.9210   37.1750   25.8340 C   0  0  0  0  0  0
    3.1660   36.8800   26.2050 C   0  0  0  0  0  0
    3.9260   37.5880   27.1350 C   0  0  0  0  0  0
    5.2900   37.7300   26.9400 C   0  0  0  0  0  0
    3.6750   35.0850   23.0230 C   0  0  0  0  0  0
    7.3860   37.4600   25.5340 C   0  0  1  0  0  0
    4.2970   38.9290   20.6590 C   0  0  0  0  0  0
    1.3760   36.2050   28.6360 C   0  0  0  0  0  0
    5.3590   39.5850   21.2700 C   0  0  0  0  0  0
   10.3450   32.3460   29.5310 C   0  0  0  0  0  0
    9.9820   33.0200   30.6280 N   0  3  0  0  0  0
    9.3950   34.1930   30.4580 C   0  0  0  0  0  0
    9.1230   34.7600   29.1950 C   0  0  0  0  0  0
    9.5420   34.0350   28.0550 C   0  0  0  0  0  0
   10.1700   32.7990   28.2590 C   0  0  0  0  0  0
    8.4300   35.9670   29.0170 C   0  0  0  0  0  0
    8.1610   36.4380   27.7740 C   0  0  0  0  0  0
    8.5650   35.7390   26.6360 C   0  0  0  0  0  0
    9.2630   34.5580   26.7690 C   0  0  0  0  0  0
    8.1900   36.2540   25.4010 N   0  0  0  0  0  0
    7.1660   37.7890   23.1930 O   0  5  0  0  0  0
    6.9500   39.5950   24.5930 N   0  0  0  0  0  0
    1.7850   36.8870   26.2050 O   0  0  0  0  0  0
    3.0860   35.4270   24.2880 O   0  0  0  0  0  0
    2.8460   34.2130   22.3970 C   0  0  0  0  0  0
    0.9830   36.1400   27.1830 C   0  0  0  0  0  0
   -0.4230   36.5950   26.9460 C   0  0  0  0  0  0
    6.6090   40.6990   23.4400 S   0  0  0  0  0  0
    6.1860   41.9160   24.0630 O   0  0  0  0  0  0
    7.7490   40.7030   22.5760 O   0  0  0  0  0  0
    5.2300   39.9950   22.5890 C   0  0  0  0  0  0
    3.1130   38.6890   21.3440 C   0  0  0  0  0  0
    2.9910   39.1240   22.6570 C   0  0  0  0  0  0
    4.0480   39.7710   23.2840 C   0  0  0  0  0  0
    1.4500   38.9120   23.5060 S   0  0  0  0  0  0
    1.5910   39.4760   24.8170 O   0  0  0  0  0  0
    1.0700   37.5340   23.3880 O   0  0  0  0  0  0
    0.3340   39.7720   22.7420 N   0  0  0  0  0  0
    5.6672   35.9743   24.0679 H   0  0  0  0  0  0
    3.4492   38.0276   28.0111 H   0  0  0  0  0  0
    5.8792   38.2877   27.6680 H   0  0  0  0  0  0
    3.7968   35.9951   22.4172 H   0  0  0  0  0  0
    4.6584   34.6213   23.1898 H   0  0  0  0  0  0
    8.0119   37.9497   26.2946 H   0  0  0  0  0  0
    4.3950   38.5975   19.6253 H   0  0  0  0  0  0
    2.4144   35.8606   28.7507 H   0  0  0  0  0  0
    0.7083   35.5596   29.2256 H   0  0  0  0  0  0
    1.2922   37.2423   28.9924 H   0  0  0  0  0  0
    6.2809   39.7748   20.7202 H   0  0  0  0  0  0
   10.8116   31.3700   29.6642 H   0  0  0  0  0  0
    9.1043   34.7546   31.3458 H   0  0  0  0  0  0
   10.5140   32.2078   27.4103 H   0  0  0  0  0  0
    8.1036   36.5335   29.8892 H   0  0  0  0  0  0
    7.6204   37.3779   27.6622 H   0  0  0  0  0  0
    9.6016   34.0245   25.8808 H   0  0  0  0  0  0
    8.4293   35.8599   24.4023 H   0  0  0  0  0  0
    3.2748   33.9342   21.4231 H   0  0  0  0  0  0
    1.8646   34.6857   22.2438 H   0  0  0  0  0  0
    2.7263   33.3119   23.0164 H   0  0  0  0  0  0
    1.1607   35.0731   26.9826 H   0  0  0  0  0  0
   -1.0980   36.0789   27.6446 H   0  0  0  0  0  0
   -0.7153   36.3593   25.9121 H   0  0  0  0  0  0
   -0.4890   37.6811   27.1072 H   0  0  0  0  0  0
    2.2900   38.1658   20.8571 H   0  0  0  0  0  0
    3.9505   40.1020   24.3180 H   0  0  0  0  0  0
   -0.6329   39.6548   23.2532 H   0  0  0  0  0  0
    0.2453   39.4183   21.7042 H   0  0  0  0  0  0
   10.1748   32.5945   31.6239 H   0  0  0  0  0  0
  1  9  1  0  0  0
  1 24  1  0  0  0
  1 25  2  0  0  0
  2  3  2  0  0  0
  2  5  1  0  0  0
  2 27  1  0  0  0
  3  4  1  0  0  0
  3 42  1  0  0  0
  4  7  2  0  0  0
  4  9  1  0  0  0
  5  6  2  0  0  0
  5 26  1  0  0  0
  6  7  1  0  0  0
  6 43  1  0  0  0
  7 44  1  0  0  0
  8 27  1  0  0  0
  8 28  1  0  0  0
  8 45  1  0  0  0
  8 46  1  0  0  0
  9 23  1  0  0  0
  9 47  1  0  0  0
 10 12  2  0  0  0
 10 35  1  0  0  0
 10 48  1  0  0  0
 11 29  1  0  0  0
 11 49  1  0  0  0
 11 50  1  0  0  0
 11 51  1  0  0  0
 12 34  1  0  0  0
 12 52  1  0  0  0
 13 14  2  0  0  0
 13 18  1  0  0  0
 13 53  1  0  0  0
 14 15  1  0  0  0
 14 71  1  0  0  0
 15 16  2  0  0  0
 15 54  1  0  0  0
 16 17  1  0  0  0
 16 19  1  0  0  0
 17 18  2  0  0  0
 17 22  1  0  0  0
 18 55  1  0  0  0
 19 20  2  0  0  0
 19 56  1  0  0  0
 20 21  1  0  0  0
 20 57  1  0  0  0
 21 22  2  0  0  0
 21 23  1  0  0  0
 22 58  1  0  0  0
 23 59  1  0  0  0
 25 31  1  0  0  0
 26 29  1  0  0  0
 28 60  1  0  0  0
 28 61  1  0  0  0
 28 62  1  0  0  0
 29 30  1  0  0  0
 29 63  1  0  0  0
 30 64  1  0  0  0
 30 65  1  0  0  0
 30 66  1  0  0  0
 31 32  2  0  0  0
 31 33  2  0  0  0
 31 34  1  0  0  0
 34 37  2  0  0  0
 35 36  2  0  0  0
 35 67  1  0  0  0
 36 37  1  0  0  0
 36 38  1  0  0  0
 37 68  1  0  0  0
 38 39  2  0  0  0
 38 40  2  0  0  0
 38 41  1  0  0  0
 41 69  1  0  0  0
 41 70  1  0  0  0
M  CHG  2  14   1  24  -1
M  END
> <s_m_source_file>
../4jyv_ligand.sdf

> <i_m_source_file_index>
1

> <s_epik_input>
Tz1TKD1PKShbTkgyXSljKFtjSF0xKVtjSF1bY0hdW2NIXWMxUyg9TykoPU8pW05IXUMoPU8pW0NAQEhdKGMoW2NIXWMyT1tDSDJdW0NIM10pW2NIXVtjSF1jMk9bQ0hdKFtDSDNdKVtDSDNdKVtOSF1jKFtjSF1bY0hdMylbY0hdYyhjMzQpW2NIXVtjSF1uW2NIXTQ=

> <s_epik_cmdline>
J2VwaWtfYXBwJywgJy1pbWFlJywgJ2xpZ2FuZF9wcm8ubWFlJywgJy1vbWFlJywgJ2xpZ2FuZF9wcmVwLm1hZScsICctbXMnLCAnMScsICctcGgnLCAnNycsICctcGh0JywgJzAuNScsICctbnQn

> <r_lp_tautomer_probability>
1

> <r_epik_Ionization_Penalty>
  0.3689

> <r_epik_Ionization_Penalty_Charging>
  0.3683

> <r_epik_Ionization_Penalty_Neutral>
  0.0006

> <r_epik_State_Penalty>
  0.3606

> <r_epik_Charging_Adjusted_Penalty>
0.728908664765786

> <i_epik_Tot_Q>
0

> <i_epik_Tot_abs_Q>
2

$$$$
