4jz1_ligand
                    3D
 Schrodinger Suite 2020-3.
 60 63  0  0  1  0            999 V2000
   18.0270   63.9700   19.9250 O   0  0  0  0  0  0
   17.0260   64.4780   20.8280 S   0  0  0  0  0  0
   17.8590   65.2170   21.6980 O   0  0  0  0  0  0
   16.0120   65.6210   20.3290 C   0  0  0  0  0  0
   15.6010   66.5810   21.2650 C   0  0  0  0  0  0
   14.6950   67.5740   20.9300 C   0  0  0  0  0  0
   14.1860   67.6280   19.6500 C   0  0  0  0  0  0
   13.3020   68.6040   19.3380 F   0  0  0  0  0  0
   14.5760   66.6780   18.7090 C   0  0  0  0  0  0
   15.4830   65.6730   19.0520 C   0  0  0  0  0  0
   16.3450   63.9130   22.0590 N   0  0  0  0  0  0
   16.2450   63.7630   23.3500 C   0  0  0  0  0  0
   16.9020   62.7940   24.0230 C   0  0  0  0  0  0
   17.9420   62.1560   23.4230 O   0  0  0  0  0  0
   18.4810   61.0760   24.0730 C   0  0  0  0  0  0
   19.1510   61.2990   25.2650 C   0  0  0  0  0  0
   19.7110   60.2370   25.9480 C   0  0  0  0  0  0
   19.6220   58.9420   25.4450 C   0  0  0  0  0  0
   20.2500   57.8050   26.1890 C   0  0  0  0  0  0
   20.2100   56.6440   25.7050 N   0  3  0  0  0  0
   20.8750   58.0070   27.3400 N   0  0  0  0  0  0
   18.9430   58.7110   24.2470 C   0  0  0  0  0  0
   18.3680   59.7840   23.5640 C   0  0  0  0  0  0
   15.1050   64.3870   23.8740 C   0  0  0  0  0  0
   14.7270   64.1150   25.1570 C   0  0  0  0  0  0
   15.4560   63.1590   25.8360 C   0  0  0  0  0  0
   16.5170   62.5310   25.2780 N   0  0  0  0  0  0
   15.1830   62.8990   27.1360 O   0  0  0  0  0  0
   14.0480   62.4650   27.6800 C   0  0  0  0  0  0
   12.8760   62.3870   26.9460 C   0  0  0  0  0  0
   11.7540   61.9000   27.5700 C   0  0  0  0  0  0
   11.8360   61.5080   28.8940 C   0  0  0  0  0  0
   10.6220   60.9660   29.5410 C   0  0  0  0  0  0
   10.7580   60.0000   30.3380 N   0  3  0  0  0  0
    9.4350   61.4770   29.2390 N   0  0  0  0  0  0
   13.0130   61.5870   29.6230 C   0  0  0  0  0  0
   14.1460   62.0710   29.0050 C   0  0  0  0  0  0
   16.0029   66.5451   22.2776 H   0  0  0  0  0  0
   14.3864   68.3083   21.6741 H   0  0  0  0  0  0
   14.1705   66.7193   17.6981 H   0  0  0  0  0  0
   15.7747   64.9279   18.3118 H   0  0  0  0  0  0
   15.4537   63.2773   21.9515 H   0  0  0  0  0  0
   19.2360   62.3102   25.6629 H   0  0  0  0  0  0
   20.2281   60.4148   26.8909 H   0  0  0  0  0  0
   19.6943   56.4636   24.7503 H   0  0  0  0  0  0
   20.9168   59.0172   27.7733 H   0  0  0  0  0  0
   21.3520   57.1645   27.8621 H   0  0  0  0  0  0
   18.8625   57.6999   23.8479 H   0  0  0  0  0  0
   17.8302   59.6110   22.6318 H   0  0  0  0  0  0
   14.5270   65.0814   23.2642 H   0  0  0  0  0  0
   13.8874   64.6294   25.6245 H   0  0  0  0  0  0
   12.8452   62.7030   25.9033 H   0  0  0  0  0  0
   10.8109   61.8233   27.0290 H   0  0  0  0  0  0
   11.7612   59.6074   30.5603 H   0  0  0  0  0  0
    9.3620   62.3212   28.5376 H   0  0  0  0  0  0
    8.5242   61.0563   29.6901 H   0  0  0  0  0  0
   13.0417   61.2720   30.6661 H   0  0  0  0  0  0
   15.0915   62.1418   29.5428 H   0  0  0  0  0  0
   20.6908   55.8096   26.2367 H   0  0  0  0  0  0
    9.8735   59.5491   30.8117 H   0  0  0  0  0  0
  1  2  2  0  0  0
  2  3  2  0  0  0
  2  4  1  0  0  0
  2 11  1  0  0  0
  4  5  2  0  0  0
  4 10  1  0  0  0
  5  6  1  0  0  0
  5 38  1  0  0  0
  6  7  2  0  0  0
  6 39  1  0  0  0
  7  8  1  0  0  0
  7  9  1  0  0  0
  9 10  2  0  0  0
  9 40  1  0  0  0
 10 41  1  0  0  0
 11 12  1  0  0  0
 11 42  1  0  0  0
 12 13  2  0  0  0
 12 24  1  0  0  0
 13 14  1  0  0  0
 13 27  1  0  0  0
 14 15  1  0  0  0
 15 16  2  0  0  0
 15 23  1  0  0  0
 16 17  1  0  0  0
 16 43  1  0  0  0
 17 18  2  0  0  0
 17 44  1  0  0  0
 18 19  1  0  0  0
 18 22  1  0  0  0
 19 20  2  0  0  0
 19 21  1  0  0  0
 20 45  1  0  0  0
 20 59  1  0  0  0
 21 46  1  0  0  0
 21 47  1  0  0  0
 22 23  2  0  0  0
 22 48  1  0  0  0
 23 49  1  0  0  0
 24 25  2  0  0  0
 24 50  1  0  0  0
 25 26  1  0  0  0
 25 51  1  0  0  0
 26 27  2  0  0  0
 26 28  1  0  0  0
 28 29  1  0  0  0
 29 30  2  0  0  0
 29 37  1  0  0  0
 30 31  1  0  0  0
 30 52  1  0  0  0
 31 32  2  0  0  0
 31 53  1  0  0  0
 32 33  1  0  0  0
 32 36  1  0  0  0
 33 34  2  0  0  0
 33 35  1  0  0  0
 34 54  1  0  0  0
 34 60  1  0  0  0
 35 55  1  0  0  0
 35 56  1  0  0  0
 36 37  2  0  0  0
 36 57  1  0  0  0
 37 58  1  0  0  0
M  CHG  2  20   1  34   1
M  END
> <s_m_source_file>
../4jz1_ligand.sdf

> <i_m_source_file_index>
1

> <s_epik_input>
W2NIXTFbY0hdYyhGKVtjSF1bY0hdYzFTKD1PKSg9TylbTkhdYzJjKE9jM1tjSF1bY0hdYygvQyg9TlxbSF0pW05IMl0pW2NIXVtjSF0zKW5jKFtjSF1bY0hdMilPYzRbY0hdW2NIXWMoL0MoPU5cW0hdKVtOSDJdKVtjSF1bY0hdNA==

> <s_epik_cmdline>
J2VwaWtfYXBwJywgJy1pbWFlJywgJ2xpZ2FuZF9wcm8ubWFlJywgJy1vbWFlJywgJ2xpZ2FuZF9wcmVwLm1hZScsICctbXMnLCAnMScsICctcGgnLCAnNycsICctcGh0JywgJzAuNScsICctbnQn

> <r_epik_Ionization_Penalty>
  0.1627

> <r_epik_Ionization_Penalty_Charging>
  0.0006

> <r_epik_Ionization_Penalty_Neutral>
  0.1621

> <r_epik_State_Penalty>
  0.1514

> <r_epik_Charging_Adjusted_Penalty>
0.15202580895715

> <i_epik_Tot_Q>
2

> <i_epik_Tot_abs_Q>
2

> <s_epik_Chemistry_Notes>
This compound has an imine and may undergo hydrolysis.

$$$$
