4jzb_ligand
                    3D
 Schrodinger Suite 2020-3.
 36 37  0  0  1  0            999 V2000
   54.9420   44.2800   38.4620 C   0  0  0  0  0  0
   54.8560   45.5830   39.2760 C   0  0  1  0  0  0
   56.4060   45.9330   40.1850 P   0  0  0  0  0  0
   56.6590   44.8460   41.2030 O   0  5  0  0  0  0
   56.1870   47.2900   40.8060 O   0  0  0  0  0  0
   55.9330   44.1720   37.3790 N   0  0  0  0  0  0
   57.5040   45.9920   39.1500 O   0  5  0  0  0  0
   56.1550   45.1770   36.5010 C   0  0  0  0  0  0
   54.6160   46.7070   38.4030 O   0  0  0  0  0  0
   57.0920   45.0370   35.4760 C   0  0  0  0  0  0
   53.3750   45.3750   40.3370 P   0  0  0  0  0  0
   57.7970   43.8420   35.3550 C   0  0  0  0  0  0
   53.2480   46.6490   41.1350 O   0  5  0  0  0  0
   57.5570   42.8050   36.2570 C   0  0  0  0  0  0
   53.6510   44.1620   41.1870 O   0  0  0  0  0  0
   56.6040   43.0060   37.2590 C   0  0  0  0  0  0
   52.2240   45.1590   39.3820 O   0  0  0  0  0  0
   58.2930   41.5030   36.1600 C   0  0  0  0  0  0
   58.8120   41.0660   34.9420 C   0  0  0  0  0  0
   59.5020   39.8590   34.8520 C   0  0  0  0  0  0
   59.6660   39.0530   35.9800 C   0  0  0  0  0  0
   59.1450   39.4760   37.2060 C   0  0  0  0  0  0
   58.4750   40.7020   37.2890 C   0  0  0  0  0  0
   55.1800   43.4426   39.1344 H   0  0  0  0  0  0
   53.9770   44.0913   37.9689 H   0  0  0  0  0  0
   55.5864   46.1132   36.6023 H   0  0  0  0  0  0
   55.3827   47.0120   37.6756 H   0  0  0  0  0  0
   57.2673   45.8656   34.7741 H   0  0  0  0  0  0
   58.5322   43.7176   34.5600 H   0  0  0  0  0  0
   56.3831   42.2025   37.9771 H   0  0  0  0  0  0
   51.9153   45.9660   38.7012 H   0  0  0  0  0  0
   58.6762   41.6762   34.0491 H   0  0  0  0  0  0
   59.9163   39.5420   33.8949 H   0  0  0  0  0  0
   60.1952   38.1030   35.9053 H   0  0  0  0  0  0
   59.2600   38.8538   38.0936 H   0  0  0  0  0  0
   58.0887   41.0372   38.2515 H   0  0  0  0  0  0
  1  2  1  0  0  0
  1  6  1  0  0  0
  1 24  1  0  0  0
  1 25  1  0  0  0
  2  3  1  0  0  0
  2  9  1  0  0  0
  2 11  1  0  0  0
  3  4  1  0  0  0
  3  5  2  0  0  0
  3  7  1  0  0  0
  6  8  1  0  0  0
  6 16  1  0  0  0
  8 10  2  0  0  0
  8 26  1  0  0  0
  9 27  1  0  0  0
 10 12  1  0  0  0
 10 28  1  0  0  0
 11 13  1  0  0  0
 11 15  2  0  0  0
 11 17  1  0  0  0
 12 14  1  0  0  0
 12 29  1  0  0  0
 14 16  2  0  0  0
 14 18  1  0  0  0
 16 30  1  0  0  0
 17 31  1  0  0  0
 18 19  2  0  0  0
 18 23  1  0  0  0
 19 20  1  0  0  0
 19 32  1  0  0  0
 20 21  2  0  0  0
 20 33  1  0  0  0
 21 22  1  0  0  0
 21 34  1  0  0  0
 22 23  2  0  0  0
 22 35  1  0  0  0
 23 36  1  0  0  0
M  CHG  3   4  -1   7  -1  13  -1
M  END
> <s_m_source_file>
../4jzb_ligand.sdf

> <i_m_source_file_index>
1

> <s_epik_input>
W09IXVAoPU8pKFtPSF0pQyhbT0hdKShQKD1PKShbT0hdKVtPSF0pW0NIMl1OMVtDSF09W0NIXVtDSDJdQyg9W0NIXTEpYzJbY0hdW2NIXVtjSF1bY0hdW2NIXTI=

> <s_epik_cmdline>
J2VwaWtfYXBwJywgJy1pbWFlJywgJ2xpZ2FuZF9wcm8ubWFlJywgJy1vbWFlJywgJ2xpZ2FuZF9wcmVwLm1hZScsICctbXMnLCAnMScsICctcGgnLCAnNycsICctcGh0JywgJzAuNScsICctbnQn

> <r_epik_Ionization_Penalty>
  0.1128

> <r_epik_Ionization_Penalty_Charging>
  0.1127

> <r_epik_Ionization_Penalty_Neutral>
  0.0001

> <r_epik_State_Penalty>
  0.1024

> <r_epik_Charging_Adjusted_Penalty>
0.215088754238722

> <i_epik_Tot_Q>
-3

> <i_epik_Tot_abs_Q>
3

> <s_epik_Chemistry_Notes>
This compound has an imine and may undergo hydrolysis.

$$$$
