4jzd_ligand
                    3D
 Schrodinger Suite 2020-3.
 70 72  0  0  1  0            999 V2000
   86.1770   39.6170   55.0000 O   0  0  0  0  0  0
   85.2330   40.0400   54.3390 C   0  0  0  0  0  0
   83.9650   39.5890   54.5090 N   0  0  0  0  0  0
   83.3660   39.0670   55.6870 C   0  0  0  0  0  0
   83.9110   39.2290   56.9580 C   0  0  0  0  0  0
   83.2380   38.7580   58.0750 C   0  0  0  0  0  0
   82.0210   38.0870   57.9440 C   0  0  0  0  0  0
   81.2390   37.6320   59.1510 C   0  0  0  0  0  0
   81.9140   37.7160   60.3630 N   0  0  0  0  0  0
   80.0060   37.2430   58.9870 N   0  3  0  0  0  0
   81.5170   37.8650   56.6630 C   0  0  0  0  0  0
   82.1820   38.3490   55.5460 C   0  0  0  0  0  0
   85.4760   40.9730   53.1850 C   0  0  0  0  0  0
   84.5690   41.9500   53.0120 N   0  0  0  0  0  0
   84.8060   42.8480   52.0540 C   0  0  0  0  0  0
   83.8680   43.7680   51.7500 O   0  0  0  0  0  0
   82.6830   43.8100   52.5460 C   0  0  0  0  0  0
   85.9510   42.8460   51.2550 C   0  0  0  0  0  0
   86.8580   41.8090   51.4140 C   0  0  0  0  0  0
   86.6520   40.8170   52.3790 C   0  0  0  0  0  0
   87.6390   39.6900   52.4760 C   0  0  0  0  0  0
   88.9790   40.0120   52.7370 C   0  0  0  0  0  0
   89.9540   39.0240   52.7940 C   0  0  0  0  0  0
   87.3060   38.3300   52.2920 C   0  0  0  0  0  0
   85.9360   37.8540   51.9020 C   0  0  0  0  0  0
   85.4310   38.4010   50.8180 O   0  5  0  0  0  0
   85.3590   36.9830   52.5480 O   0  0  0  0  0  0
   88.2880   37.3400   52.3890 C   0  0  0  0  0  0
   89.6180   37.6820   52.6230 C   0  0  0  0  0  0
   90.6410   36.5920   52.6570 C   0  0  0  0  0  0
   91.4880   36.5420   53.5470 O   0  0  0  0  0  0
   90.5610   35.6590   51.6900 N   0  0  0  0  0  0
   91.3630   34.4430   51.6040 C   0  0  2  0  0  0
   92.1570   34.4330   50.2320 C   0  0  0  0  0  0
   92.7410   35.6950   49.9690 O   0  0  0  0  0  0
   90.6050   33.1250   51.9370 C   0  0  0  0  0  0
   89.9240   33.2250   53.3130 C   0  0  0  0  0  0
   89.5340   32.8390   50.8740 C   0  0  0  0  0  0
   91.5960   31.9510   51.9620 C   0  0  0  0  0  0
   83.2589   39.6019   53.6656 H   0  0  0  0  0  0
   84.8724   39.7290   57.0756 H   0  0  0  0  0  0
   83.6639   38.9134   59.0662 H   0  0  0  0  0  0
   82.9589   38.0588   60.3880 H   0  0  0  0  0  0
   81.4033   37.4397   61.2973 H   0  0  0  0  0  0
   79.5680   37.2140   57.9784 H   0  0  0  0  0  0
   80.5903   37.3050   56.5380 H   0  0  0  0  0  0
   81.7748   38.1659   54.5516 H   0  0  0  0  0  0
   82.0209   44.6068   52.1761 H   0  0  0  0  0  0
   82.9517   44.0131   53.5932 H   0  0  0  0  0  0
   82.1637   42.8424   52.4818 H   0  0  0  0  0  0
   86.1271   43.6375   50.5265 H   0  0  0  0  0  0
   87.7429   41.7662   50.7789 H   0  0  0  0  0  0
   89.2595   41.0530   52.8975 H   0  0  0  0  0  0
   90.9926   39.3011   52.9743 H   0  0  0  0  0  0
   88.0107   36.2914   52.2806 H   0  0  0  0  0  0
   89.8089   35.8776   50.9176 H   0  0  0  0  0  0
   92.0493   34.5433   52.4578 H   0  0  0  0  0  0
   92.9567   33.6790   50.2766 H   0  0  0  0  0  0
   91.4673   34.1878   49.4109 H   0  0  0  0  0  0
   93.3272   35.8492   49.0511 H   0  0  0  0  0  0
   89.2109   34.0626   53.3092 H   0  0  0  0  0  0
   90.6860   33.3957   54.0877 H   0  0  0  0  0  0
   89.3882   32.2882   53.5259 H   0  0  0  0  0  0
   88.8158   33.6717   50.8438 H   0  0  0  0  0  0
   89.0056   31.9080   51.1271 H   0  0  0  0  0  0
   90.0135   32.7325   49.8898 H   0  0  0  0  0  0
   92.3705   32.1411   52.7196 H   0  0  0  0  0  0
   92.0674   31.8480   50.9735 H   0  0  0  0  0  0
   91.0595   31.0235   52.2108 H   0  0  0  0  0  0
   79.4034   36.9437   59.8572 H   0  0  0  0  0  0
  1  2  2  0  0  0
  2  3  1  0  0  0
  2 13  1  0  0  0
  3  4  1  0  0  0
  3 40  1  0  0  0
  4  5  2  0  0  0
  4 12  1  0  0  0
  5  6  1  0  0  0
  5 41  1  0  0  0
  6  7  2  0  0  0
  6 42  1  0  0  0
  7  8  1  0  0  0
  7 11  1  0  0  0
  8  9  1  0  0  0
  8 10  2  0  0  0
  9 43  1  0  0  0
  9 44  1  0  0  0
 10 45  1  0  0  0
 10 70  1  0  0  0
 11 12  2  0  0  0
 11 46  1  0  0  0
 12 47  1  0  0  0
 13 14  2  0  0  0
 13 20  1  0  0  0
 14 15  1  0  0  0
 15 16  1  0  0  0
 15 18  2  0  0  0
 16 17  1  0  0  0
 17 48  1  0  0  0
 17 49  1  0  0  0
 17 50  1  0  0  0
 18 19  1  0  0  0
 18 51  1  0  0  0
 19 20  2  0  0  0
 19 52  1  0  0  0
 20 21  1  0  0  0
 21 22  2  0  0  0
 21 24  1  0  0  0
 22 23  1  0  0  0
 22 53  1  0  0  0
 23 29  2  0  0  0
 23 54  1  0  0  0
 24 25  1  0  0  0
 24 28  2  0  0  0
 25 26  1  0  0  0
 25 27  2  0  0  0
 28 29  1  0  0  0
 28 55  1  0  0  0
 29 30  1  0  0  0
 30 31  2  0  0  0
 30 32  1  0  0  0
 32 33  1  0  0  0
 32 56  1  0  0  0
 33 34  1  0  0  0
 33 36  1  0  0  0
 33 57  1  0  0  0
 34 35  1  0  0  0
 34 58  1  0  0  0
 34 59  1  0  0  0
 35 60  1  0  0  0
 36 37  1  0  0  0
 36 38  1  0  0  0
 36 39  1  0  0  0
 37 61  1  0  0  0
 37 62  1  0  0  0
 37 63  1  0  0  0
 38 64  1  0  0  0
 38 65  1  0  0  0
 38 66  1  0  0  0
 39 67  1  0  0  0
 39 68  1  0  0  0
 39 69  1  0  0  0
M  CHG  2  10   1  26  -1
M  END
> <s_m_source_file>
../4jzd_ligand.sdf

> <i_m_source_file_index>
1

> <s_epik_input>
W0hdXE49QyhbTkgyXSlcYyhbY0hdW2NIXTEpW2NIXVtjSF1jMVtOSF1DKD1PKWMybmMoT1tDSDNdKVtjSF1bY0hdYzItYzNbY0hdW2NIXWMoW2NIXWMzQyg9TylbT0hdKUMoPU8pW05IXVtDQEhdKFtDSDJdW09IXSlDKFtDSDNdKShbQ0gzXSlbQ0gzXQ==

> <s_epik_cmdline>
J2VwaWtfYXBwJywgJy1pbWFlJywgJ2xpZ2FuZF9wcm8ubWFlJywgJy1vbWFlJywgJ2xpZ2FuZF9wcmVwLm1hZScsICctbXMnLCAnMScsICctcGgnLCAnNycsICctcGh0JywgJzAuNScsICctbnQn

> <r_lp_tautomer_probability>
1

> <r_epik_Ionization_Penalty>
  0.0006

> <r_epik_Ionization_Penalty_Charging>
  0.0006

> <r_epik_Ionization_Penalty_Neutral>
  0.0000

> <r_epik_State_Penalty>
 -0.0000

> <r_epik_Charging_Adjusted_Penalty>
0.000607697152521901

> <i_epik_Tot_Q>
0

> <i_epik_Tot_abs_Q>
2

> <s_epik_Chemistry_Notes>
This compound has an imine and may undergo hydrolysis.

$$$$
