4jzf_ligand
                    3D
 Schrodinger Suite 2020-3.
 68 70  0  0  1  0            999 V2000
   14.7740   41.9080   23.7590 C   0  0  0  0  0  0
   14.7230   42.4460   22.3180 C   0  0  0  0  0  0
   16.0050   43.2760   22.1320 C   0  0  0  0  0  0
   14.8530   41.2580   21.3410 C   0  0  0  0  0  0
   13.4020   43.2350   22.1690 C   0  0  1  0  0  0
   13.2630   44.1230   20.9170 C   0  0  0  0  0  0
   12.0300   44.8540   20.9740 O   0  0  0  0  0  0
   12.1700   42.5160   22.5100 N   0  0  0  0  0  0
   11.3510   42.6270   23.5700 C   0  0  0  0  0  0
   11.4640   43.4870   24.4280 O   0  0  0  0  0  0
   10.1970   41.6780   23.6420 C   0  0  0  0  0  0
    8.8800   42.0590   23.9400 C   0  0  0  0  0  0
    7.8280   41.1330   23.9330 C   0  0  0  0  0  0
    8.0660   39.7920   23.5870 C   0  0  0  0  0  0
    9.3790   39.4160   23.2700 C   0  0  0  0  0  0
   10.4410   40.3350   23.2840 C   0  0  0  0  0  0
    9.8300   38.0470   22.8720 C   0  0  0  0  0  0
    9.2160   37.5020   21.9580 O   0  0  0  0  0  0
   10.7890   37.3710   23.4620 O   0  5  0  0  0  0
    6.9310   38.8090   23.5460 C   0  0  0  0  0  0
    5.9440   39.0190   22.5620 C   0  0  0  0  0  0
    4.8710   38.1370   22.3840 C   0  0  0  0  0  0
    4.8630   36.9640   23.1590 C   0  0  0  0  0  0
    5.8430   36.7410   24.0750 N   0  0  0  0  0  0
    6.8470   37.6230   24.2740 C   0  0  0  0  0  0
    7.7770   37.1550   25.3270 C   0  0  0  0  0  0
    8.2440   38.0620   26.0140 O   0  0  0  0  0  0
    8.1620   35.9020   25.6200 N   0  0  0  0  0  0
    8.9280   35.3050   26.5480 C   0  0  0  0  0  0
    9.9840   34.4280   26.2700 C   0  0  0  0  0  0
   10.7750   33.8850   27.2870 C   0  0  0  0  0  0
   10.5480   34.2350   28.6190 C   0  0  0  0  0  0
    9.5160   35.1290   28.9310 C   0  0  0  0  0  0
    8.7280   35.6770   27.9050 C   0  0  0  0  0  0
    9.2360   35.4980   30.3630 C   0  0  0  0  0  0
    8.7890   36.6040   30.6440 O   0  0  0  0  0  0
    9.4870   34.5970   31.3230 N   0  0  0  0  0  0
    3.8740   36.0980   22.9330 O   0  0  0  0  0  0
    3.8100   34.8050   23.6140 C   0  0  0  0  0  0
   15.7036   41.3383   23.9050 H   0  0  0  0  0  0
   13.9096   41.2510   23.9359 H   0  0  0  0  0  0
   14.7452   42.7502   24.4660 H   0  0  0  0  0  0
   16.8838   42.6263   22.2570 H   0  0  0  0  0  0
   16.0335   44.0798   22.8824 H   0  0  0  0  0  0
   16.0143   43.7154   21.1236 H   0  0  0  0  0  0
   15.8140   40.7495   21.5079 H   0  0  0  0  0  0
   14.8088   41.6279   20.3060 H   0  0  0  0  0  0
   14.0288   40.5500   21.5129 H   0  0  0  0  0  0
   13.4579   43.9283   23.0211 H   0  0  0  0  0  0
   14.1038   44.8310   20.8744 H   0  0  0  0  0  0
   13.2698   43.4911   20.0166 H   0  0  0  0  0  0
   11.7608   45.5428   20.1597 H   0  0  0  0  0  0
   11.7828   41.7378   21.8358 H   0  0  0  0  0  0
    8.6699   43.1006   24.1829 H   0  0  0  0  0  0
    6.8205   41.4545   24.1972 H   0  0  0  0  0  0
   11.4482   40.0126   23.0198 H   0  0  0  0  0  0
    6.0183   39.8960   21.9190 H   0  0  0  0  0  0
    4.0734   38.3514   21.6726 H   0  0  0  0  0  0
    7.8169   35.0614   25.0000 H   0  0  0  0  0  0
   10.1946   34.1619   25.2342 H   0  0  0  0  0  0
   11.5727   33.1850   27.0385 H   0  0  0  0  0  0
   11.1692   33.8157   29.4104 H   0  0  0  0  0  0
    7.9505   36.3993   28.1538 H   0  0  0  0  0  0
    9.8882   33.6078   31.0575 H   0  0  0  0  0  0
    9.2918   34.8468   32.3763 H   0  0  0  0  0  0
    2.9170   34.2575   23.2781 H   0  0  0  0  0  0
    3.7546   34.9654   24.7008 H   0  0  0  0  0  0
    4.7103   34.2198   23.3751 H   0  0  0  0  0  0
  1  2  1  0  0  0
  1 40  1  0  0  0
  1 41  1  0  0  0
  1 42  1  0  0  0
  2  3  1  0  0  0
  2  4  1  0  0  0
  2  5  1  0  0  0
  3 43  1  0  0  0
  3 44  1  0  0  0
  3 45  1  0  0  0
  4 46  1  0  0  0
  4 47  1  0  0  0
  4 48  1  0  0  0
  5  6  1  0  0  0
  5  8  1  0  0  0
  5 49  1  0  0  0
  6  7  1  0  0  0
  6 50  1  0  0  0
  6 51  1  0  0  0
  7 52  1  0  0  0
  8  9  1  0  0  0
  8 53  1  0  0  0
  9 10  2  0  0  0
  9 11  1  0  0  0
 11 12  2  0  0  0
 11 16  1  0  0  0
 12 13  1  0  0  0
 12 54  1  0  0  0
 13 14  2  0  0  0
 13 55  1  0  0  0
 14 15  1  0  0  0
 14 20  1  0  0  0
 15 16  2  0  0  0
 15 17  1  0  0  0
 16 56  1  0  0  0
 17 18  2  0  0  0
 17 19  1  0  0  0
 20 21  2  0  0  0
 20 25  1  0  0  0
 21 22  1  0  0  0
 21 57  1  0  0  0
 22 23  2  0  0  0
 22 58  1  0  0  0
 23 24  1  0  0  0
 23 38  1  0  0  0
 24 25  2  0  0  0
 25 26  1  0  0  0
 26 27  2  0  0  0
 26 28  1  0  0  0
 28 29  1  0  0  0
 28 59  1  0  0  0
 29 30  2  0  0  0
 29 34  1  0  0  0
 30 31  1  0  0  0
 30 60  1  0  0  0
 31 32  2  0  0  0
 31 61  1  0  0  0
 32 33  1  0  0  0
 32 62  1  0  0  0
 33 34  2  0  0  0
 33 35  1  0  0  0
 34 63  1  0  0  0
 35 36  2  0  0  0
 35 37  1  0  0  0
 37 64  1  0  0  0
 37 65  1  0  0  0
 38 39  1  0  0  0
 39 66  1  0  0  0
 39 67  1  0  0  0
 39 68  1  0  0  0
M  CHG  1  19  -1
M  END
> <s_m_source_file>
../4jzf_ligand.sdf

> <i_m_source_file_index>
1

> <s_epik_input>
W0NIM11DKFtDSDNdKShbQ0gzXSlbQ0BASF0oW0NIMl1bT0hdKVtOSF1DKD1PKWMxW2NIXVtjSF1jKGMoW2NIXTEpQyg9TylbT0hdKS1jMltjSF1bY0hdYyhPW0NIM10pbmMyQyg9TylbTkhdYzNbY0hdW2NIXVtjSF1jKFtjSF0zKUMoPU8pW05IMl0=

> <s_epik_cmdline>
J2VwaWtfYXBwJywgJy1pbWFlJywgJ2xpZ2FuZF9wcm8ubWFlJywgJy1vbWFlJywgJ2xpZ2FuZF9wcmVwLm1hZScsICctbXMnLCAnMScsICctcGgnLCAnNycsICctcGh0JywgJzAuNScsICctbnQn

> <r_lp_tautomer_probability>
1

> <r_epik_Ionization_Penalty>
  0.0003

> <r_epik_Ionization_Penalty_Charging>
  0.0003

> <r_epik_Ionization_Penalty_Neutral>
  0.0000

> <r_epik_State_Penalty>
 -0.0000

> <r_epik_Charging_Adjusted_Penalty>
0.0002960998340383

> <i_epik_Tot_Q>
-1

> <i_epik_Tot_abs_Q>
1

$$$$
