4jzi_ligand
                    3D
 Schrodinger Suite 2020-3.
 68 71  0  0  1  0            999 V2000
   12.9620   62.5560   26.5210 O   0  0  0  0  0  0
   14.1550   62.7850   26.6470 C   0  0  0  0  0  0
   14.8300   62.7040   27.7910 N   0  0  0  0  0  0
   14.3010   62.3530   29.1030 C   0  0  2  0  0  0
   12.8900   61.7880   29.1160 C   0  0  0  0  0  0
   12.4430   61.5960   30.5600 C   0  0  0  0  0  0
   12.2390   62.9710   31.1620 C   0  0  1  0  0  0
   11.6240   62.9010   32.4670 N   0  3  0  0  0  0
   13.6390   63.5640   31.2750 C   0  0  0  0  0  0
   14.3090   63.6570   29.9020 C   0  0  0  0  0  0
   14.9550   63.2060   25.4600 C   0  0  0  0  0  0
   15.9390   62.3930   24.9100 C   0  0  0  0  0  0
   14.7220   64.4550   24.9160 C   0  0  0  0  0  0
   15.4640   64.8630   23.8230 C   0  0  0  0  0  0
   15.2300   66.1020   23.3040 O   0  0  0  0  0  0
   14.8340   66.3180   22.0180 C   0  0  0  0  0  0
   13.4800   66.3280   21.7440 C   0  0  0  0  0  0
   13.0560   66.5900   20.4490 C   0  0  0  0  0  0
   13.9720   66.8280   19.4220 C   0  0  0  0  0  0
   13.4570   67.1100   18.0270 C   0  0  0  0  0  0
   12.2680   67.5360   17.8710 N   0  3  0  0  0  0
   14.2380   66.9320   16.9600 N   0  0  0  0  0  0
   15.3350   66.8270   19.7130 C   0  0  0  0  0  0
   15.7630   66.5740   21.0120 C   0  0  0  0  0  0
   16.4150   64.0660   23.2830 N   0  0  0  0  0  0
   16.6660   62.8450   23.8020 C   0  0  0  0  0  0
   17.6420   62.0920   23.2160 O   0  0  0  0  0  0
   18.2510   61.0910   23.9140 C   0  0  0  0  0  0
   18.8820   61.3510   25.1370 C   0  0  0  0  0  0
   19.4840   60.3160   25.8410 C   0  0  0  0  0  0
   19.4680   59.0220   25.3220 C   0  0  0  0  0  0
   20.1350   57.9210   26.0960 C   0  0  0  0  0  0
   20.0970   56.6710   25.6770 N   0  0  0  0  0  0
   20.7560   58.1900   27.1480 N   0  3  0  0  0  0
   18.8390   58.7760   24.1050 C   0  0  0  0  0  0
   18.2250   59.8060   23.4010 C   0  0  0  0  0  0
   15.8984   62.9377   27.6733 H   0  0  0  0  0  0
   14.9489   61.5450   29.4736 H   0  0  0  0  0  0
   12.2101   62.4879   28.6082 H   0  0  0  0  0  0
   12.8777   60.8203   28.5931 H   0  0  0  0  0  0
   11.5030   61.0250   30.5800 H   0  0  0  0  0  0
   13.2180   61.0458   31.1137 H   0  0  0  0  0  0
   11.5323   63.5798   30.5789 H   0  0  0  0  0  0
   10.6153   62.4722   32.3744 H   0  0  0  0  0  0
   11.5548   63.9122   32.8944 H   0  0  0  0  0  0
   12.2336   62.2653   33.1260 H   0  0  0  0  0  0
   13.5756   64.5744   31.7052 H   0  0  0  0  0  0
   14.2558   62.9266   31.9255 H   0  0  0  0  0  0
   15.3478   63.9753   30.0739 H   0  0  0  0  0  0
   13.7754   64.4360   29.3378 H   0  0  0  0  0  0
   16.1431   61.4114   25.3378 H   0  0  0  0  0  0
   13.9628   65.1101   25.3433 H   0  0  0  0  0  0
   12.7549   66.1328   22.5340 H   0  0  0  0  0  0
   11.9886   66.6104   20.2293 H   0  0  0  0  0  0
   11.6180   67.6853   18.7458 H   0  0  0  0  0  0
   15.2669   66.5641   17.0867 H   0  0  0  0  0  0
   13.8530   67.1532   15.9536 H   0  0  0  0  0  0
   16.0627   67.0237   18.9257 H   0  0  0  0  0  0
   16.8281   66.5760   21.2435 H   0  0  0  0  0  0
   18.9007   62.3651   25.5362 H   0  0  0  0  0  0
   19.9679   60.5150   26.7972 H   0  0  0  0  0  0
   19.5555   56.4166   24.7539 H   0  0  0  0  0  0
   20.6068   55.8829   26.2506 H   0  0  0  0  0  0
   20.7979   59.2272   27.5120 H   0  0  0  0  0  0
   18.8276   57.7644   23.6992 H   0  0  0  0  0  0
   17.7273   59.6029   22.4528 H   0  0  0  0  0  0
   11.8902   67.7549   16.8614 H   0  0  0  0  0  0
   21.2601   57.3894   27.7091 H   0  0  0  0  0  0
  1  2  2  0  0  0
  2  3  1  0  0  0
  2 11  1  0  0  0
  3  4  1  0  0  0
  3 37  1  0  0  0
  4  5  1  0  0  0
  4 10  1  0  0  0
  4 38  1  0  0  0
  5  6  1  0  0  0
  5 39  1  0  0  0
  5 40  1  0  0  0
  6  7  1  0  0  0
  6 41  1  0  0  0
  6 42  1  0  0  0
  7  8  1  0  0  0
  7  9  1  0  0  0
  7 43  1  0  0  0
  8 44  1  0  0  0
  8 45  1  0  0  0
  8 46  1  0  0  0
  9 10  1  0  0  0
  9 47  1  0  0  0
  9 48  1  0  0  0
 10 49  1  0  0  0
 10 50  1  0  0  0
 11 12  2  0  0  0
 11 13  1  0  0  0
 12 26  1  0  0  0
 12 51  1  0  0  0
 13 14  2  0  0  0
 13 52  1  0  0  0
 14 15  1  0  0  0
 14 25  1  0  0  0
 15 16  1  0  0  0
 16 17  2  0  0  0
 16 24  1  0  0  0
 17 18  1  0  0  0
 17 53  1  0  0  0
 18 19  2  0  0  0
 18 54  1  0  0  0
 19 20  1  0  0  0
 19 23  1  0  0  0
 20 21  2  0  0  0
 20 22  1  0  0  0
 21 55  1  0  0  0
 21 67  1  0  0  0
 22 56  1  0  0  0
 22 57  1  0  0  0
 23 24  2  0  0  0
 23 58  1  0  0  0
 24 59  1  0  0  0
 25 26  2  0  0  0
 26 27  1  0  0  0
 27 28  1  0  0  0
 28 29  2  0  0  0
 28 36  1  0  0  0
 29 30  1  0  0  0
 29 60  1  0  0  0
 30 31  2  0  0  0
 30 61  1  0  0  0
 31 32  1  0  0  0
 31 35  1  0  0  0
 32 33  1  0  0  0
 32 34  2  0  0  0
 33 62  1  0  0  0
 33 63  1  0  0  0
 34 64  1  0  0  0
 34 68  1  0  0  0
 35 36  2  0  0  0
 35 65  1  0  0  0
 36 66  1  0  0  0
M  CHG  3   8   1  21   1  34   1
M  END
> <s_m_source_file>
../4jzi_ligand.sdf

> <i_m_source_file_index>
1

> <s_epik_input>
W0NIMl0xW0NIMl1bQ0BIXShbTkgzK10pW0NIMl1bQ0gyXVtDQEhdMVtOSF1DKD1PKWMyW2NIXWMoT2MzW2NIXVtjSF1jKC9DKFtOSDJdKT1OXFtIXSlbY0hdW2NIXTMpbmMoW2NIXTIpT2M0W2NIXVtjSF1jKC9DKD1OXFtIXSlbTkgyXSlbY0hdW2NIXTQ=

> <s_epik_cmdline>
J2VwaWtfYXBwJywgJy1pbWFlJywgJ2xpZ2FuZF9wcm8ubWFlJywgJy1vbWFlJywgJ2xpZ2FuZF9wcmVwLm1hZScsICctbXMnLCAnMScsICctcGgnLCAnNycsICctcGh0JywgJzAuNScsICctbnQn

> <r_lp_tautomer_probability>
1

> <r_epik_Ionization_Penalty>
  0.0011

> <r_epik_Ionization_Penalty_Charging>
  0.0011

> <r_epik_Ionization_Penalty_Neutral>
  0.0000

> <r_epik_State_Penalty>
 -0.0000

> <r_epik_Charging_Adjusted_Penalty>
0.00113371205841575

> <i_epik_Tot_Q>
3

> <i_epik_Tot_abs_Q>
3

> <s_epik_Chemistry_Notes>
This compound has an imine and may undergo hydrolysis.

$$$$
