4jzr_ligand
                    3D
 Schrodinger Suite 2020-3.
 59 63  0  0  1  0            999 V2000
   40.7090   18.8840   -4.5670 N   0  0  0  0  0  0
   42.3830   21.9920   -4.5080 N   0  0  1  0  0  0
   41.1160   20.0520   -4.0260 C   0  0  0  0  0  0
   42.4850   20.6380   -4.0510 C   0  0  0  0  0  0
   43.5300   22.7770   -3.9370 C   0  0  0  0  0  0
   44.9150   22.5160   -4.5060 C   0  0  0  0  0  0
   44.9530   22.5970   -6.0320 C   0  0  1  0  0  0
   46.3820   22.7600   -7.9150 C   0  0  0  0  0  0
   45.4240   25.7030   -9.4410 C   0  0  0  0  0  0
   46.9680   27.5540   -9.8250 C   0  0  0  0  0  0
   47.3260   25.9370   -8.0250 C   0  0  0  0  0  0
   47.1220   30.3160  -12.3540 C   0  0  0  0  0  0
   48.3180   30.9420  -12.0210 C   0  0  0  0  0  0
   49.0640   30.4500  -10.9620 C   0  0  0  0  0  0
   43.7700   21.7730   -6.5710 C   0  0  0  0  0  0
   41.4450   17.8520   -5.3130 C   0  0  0  0  0  0
   39.4060   18.7960   -4.3110 C   0  0  0  0  0  0
   38.9970   19.8570   -3.6320 C   0  0  0  0  0  0
   40.0830   20.6660   -3.4580 N   0  3  0  0  0  0
   42.4350   22.1410   -5.9220 C   0  0  0  0  0  0
   44.9940   24.0230   -6.5440 C   0  0  0  0  0  0
   44.4110   24.9840   -6.0520 O   0  0  0  0  0  0
   46.2610   22.0210   -6.5840 C   0  0  0  0  0  0
   45.8050   24.0810   -7.6110 N   0  0  0  0  0  0
   46.1700   25.2480   -8.3610 C   0  0  0  0  0  0
   45.8080   26.8350  -10.1640 C   0  0  0  0  0  0
   47.7180   27.0700   -8.7400 C   0  0  0  0  0  0
   47.3950   28.6930  -10.5560 C   0  0  0  0  0  0
   48.6020   29.3450  -10.2580 C   0  0  0  0  0  0
   46.6670   29.2080  -11.6370 C   0  0  0  0  0  0
   43.1285   20.0671   -4.7366 H   0  0  0  0  0  0
   42.9212   20.6237   -3.0413 H   0  0  0  0  0  0
   43.3516   23.8515   -4.0909 H   0  0  0  0  0  0
   43.6158   22.5702   -2.8600 H   0  0  0  0  0  0
   45.6199   23.2630   -4.1121 H   0  0  0  0  0  0
   45.2473   21.5087   -4.2145 H   0  0  0  0  0  0
   47.4408   22.8173   -8.2076 H   0  0  0  0  0  0
   45.8168   22.2184   -8.6878 H   0  0  0  0  0  0
   44.5207   25.1658   -9.7301 H   0  0  0  0  0  0
   47.9364   25.5891   -7.1916 H   0  0  0  0  0  0
   46.5309   30.6960  -13.1872 H   0  0  0  0  0  0
   48.6641   31.8080  -12.5853 H   0  0  0  0  0  0
   50.0046   30.9255  -10.6839 H   0  0  0  0  0  0
   43.6703   21.9395   -7.6538 H   0  0  0  0  0  0
   43.9496   20.7048   -6.3793 H   0  0  0  0  0  0
   42.5020   18.1445   -5.3977 H   0  0  0  0  0  0
   41.0117   17.7474   -6.3187 H   0  0  0  0  0  0
   41.3717   16.8923   -4.7805 H   0  0  0  0  0  0
   38.7662   17.9682   -4.6168 H   0  0  0  0  0  0
   37.9838   20.0484   -3.2785 H   0  0  0  0  0  0
   41.6745   21.4963   -6.3868 H   0  0  0  0  0  0
   42.2383   23.1902   -6.1876 H   0  0  0  0  0  0
   47.0825   22.2432   -5.8870 H   0  0  0  0  0  0
   46.1622   20.9315   -6.6989 H   0  0  0  0  0  0
   45.1985   27.1664  -11.0047 H   0  0  0  0  0  0
   48.6293   27.5926   -8.4491 H   0  0  0  0  0  0
   49.2063   28.9657   -9.4339 H   0  0  0  0  0  0
   45.7279   28.7346  -11.9234 H   0  0  0  0  0  0
   40.2230   21.6432   -2.9728 H   0  0  0  0  0  0
  1  3  1  0  0  0
  1 16  1  0  0  0
  1 17  1  0  0  0
  2  4  1  0  0  0
  2  5  1  0  0  0
  2 20  1  0  0  0
  3  4  1  0  0  0
  3 19  2  0  0  0
  4 31  1  0  0  0
  4 32  1  0  0  0
  5  6  1  0  0  0
  5 33  1  0  0  0
  5 34  1  0  0  0
  6  7  1  0  0  0
  6 35  1  0  0  0
  6 36  1  0  0  0
  7 15  1  0  0  0
  7 21  1  0  0  0
  7 23  1  0  0  0
  8 23  1  0  0  0
  8 24  1  0  0  0
  8 37  1  0  0  0
  8 38  1  0  0  0
  9 25  2  0  0  0
  9 26  1  0  0  0
  9 39  1  0  0  0
 10 26  2  0  0  0
 10 27  1  0  0  0
 10 28  1  0  0  0
 11 25  1  0  0  0
 11 27  2  0  0  0
 11 40  1  0  0  0
 12 13  2  0  0  0
 12 30  1  0  0  0
 12 41  1  0  0  0
 13 14  1  0  0  0
 13 42  1  0  0  0
 14 29  2  0  0  0
 14 43  1  0  0  0
 15 20  1  0  0  0
 15 44  1  0  0  0
 15 45  1  0  0  0
 16 46  1  0  0  0
 16 47  1  0  0  0
 16 48  1  0  0  0
 17 18  2  0  0  0
 17 49  1  0  0  0
 18 19  1  0  0  0
 18 50  1  0  0  0
 19 59  1  0  0  0
 20 51  1  0  0  0
 20 52  1  0  0  0
 21 22  2  0  0  0
 21 24  1  0  0  0
 23 53  1  0  0  0
 23 54  1  0  0  0
 24 25  1  0  0  0
 26 55  1  0  0  0
 27 56  1  0  0  0
 28 29  1  0  0  0
 28 30  2  0  0  0
 29 57  1  0  0  0
 30 58  1  0  0  0
M  CHG  1  19   1
M  END
> <s_m_source_file>
../4jzr_ligand.sdf

> <i_m_source_file_index>
1

> <s_epik_input>
W2NIXTFbY0hdbmMobjFbQ0gzXSlbQ0gyXVtOQEgrXShbQ0gyXVtDSDJdMilbQ0gyXVtDSDJdW0NAXTIzQyg9TylOKFtDSDJdW0NIMl0zKWMoW2NIXVtjSF00KVtjSF1bY0hdYzQtYzVbY0hdW2NIXVtjSF1bY0hdW2NIXTU=

> <s_epik_cmdline>
J2VwaWtfYXBwJywgJy1pbWFlJywgJ2xpZ2FuZF9wcm8ubWFlJywgJy1vbWFlJywgJ2xpZ2FuZF9wcmVwLm1hZScsICctbXMnLCAnMScsICctcGgnLCAnNycsICctcGh0JywgJzAuNScsICctbnQn

> <r_epik_Ionization_Penalty>
  0.0886

> <r_epik_Ionization_Penalty_Charging>
  0.0000

> <r_epik_Ionization_Penalty_Neutral>
  0.0886

> <r_epik_State_Penalty>
  0.0185

> <r_epik_Charging_Adjusted_Penalty>
0.0184516968340498

> <i_epik_Tot_Q>
1

> <i_epik_Tot_abs_Q>
1

$$$$
