4k0o_ligand
                    3D
 Schrodinger Suite 2020-3.
 54 55  0  0  1  0            999 V2000
  -12.1690   29.4130    5.4730 C   0  0  2  0  0  0
  -12.7520   28.9960    4.2090 C   0  0  1  0  0  0
  -13.7630   28.0170    4.3440 C   0  0  2  0  0  0
  -13.4280   26.8790    5.1790 C   0  0  1  0  0  0
  -12.8890   27.3320    6.5150 C   0  0  1  0  0  0
  -12.3510   26.2480    7.1720 C   0  0  0  0  0  0
  -12.6130   30.8260    2.5410 C   0  0  0  0  0  0
  -11.3740   30.2620    2.0520 C   0  0  0  0  0  0
  -13.3370   30.2300    3.6000 N   0  0  0  0  0  0
  -11.0590   30.2190    5.2180 O   0  0  0  0  0  0
  -14.0620   27.5540    3.0150 O   0  0  0  0  0  0
  -14.5410   26.1040    5.4050 O   0  0  0  0  0  0
  -11.7640   28.2370    6.1520 O   0  0  0  0  0  0
  -11.0510   26.0040    6.8360 O   0  0  0  0  0  0
  -13.0440   31.8250    2.0300 O   0  0  0  0  0  0
   -9.6020   33.2290    6.8740 C   0  0  2  0  0  0
  -10.1820   32.3880    5.8330 C   0  0  1  0  0  0
  -10.8580   31.1980    6.3060 C   0  0  2  0  0  0
  -10.2620   30.5100    7.3960 C   0  0  2  0  0  0
   -9.9930   31.4750    8.5290 C   0  0  1  0  0  0
   -9.3800   30.8380    9.5810 C   0  0  0  0  0  0
   -7.3460   33.6950    6.2330 C   0  0  0  0  0  0
   -8.6570   34.0780    6.3450 O   0  0  0  0  0  0
  -11.1910   33.2310    5.2770 O   0  0  0  0  0  0
   -9.0160   30.2030    6.9110 O   0  0  0  0  0  0
   -9.0550   32.4730    7.9380 O   0  0  0  0  0  0
   -8.1930   30.2260    9.3070 O   0  0  0  0  0  0
  -12.8612   29.9975    6.0969 H   0  0  0  0  0  0
  -11.9834   28.4861    3.6096 H   0  0  0  0  0  0
  -14.6032   28.5162    4.8488 H   0  0  0  0  0  0
  -12.7246   26.2476    4.6164 H   0  0  0  0  0  0
  -13.6348   27.7513    7.2064 H   0  0  0  0  0  0
  -12.3854   26.4231    8.2574 H   0  0  0  0  0  0
  -12.9313   25.3460    6.9275 H   0  0  0  0  0  0
  -11.1300   29.3576    2.6287 H   0  0  0  0  0  0
  -10.5654   30.9990    2.1662 H   0  0  0  0  0  0
  -11.4844   30.0005    0.9893 H   0  0  0  0  0  0
  -14.2880   30.6326    3.9789 H   0  0  0  0  0  0
  -14.3405   28.2740    2.2314 H   0  0  0  0  0  0
  -15.0904   25.6699    4.5567 H   0  0  0  0  0  0
  -10.5126   25.1625    7.2964 H   0  0  0  0  0  0
  -10.3836   33.8701    7.3077 H   0  0  0  0  0  0
   -9.3946   32.0360    5.1503 H   0  0  0  0  0  0
  -11.7904   31.6133    6.7161 H   0  0  0  0  0  0
  -10.8606   29.6332    7.6839 H   0  0  0  0  0  0
  -10.8921   31.8986    9.0003 H   0  0  0  0  0  0
   -9.1682   31.5664   10.3776 H   0  0  0  0  0  0
  -10.0433   30.0515    9.9702 H   0  0  0  0  0  0
   -6.7614   34.5141    5.7887 H   0  0  0  0  0  0
   -7.2777   32.8050    5.5901 H   0  0  0  0  0  0
   -6.9466   33.4585    7.2303 H   0  0  0  0  0  0
  -10.9178   34.2062    4.8477 H   0  0  0  0  0  0
   -8.9110   29.5069    6.0658 H   0  0  0  0  0  0
   -7.6496   29.6977   10.1043 H   0  0  0  0  0  0
  1  2  1  0  0  0
  1 10  1  0  0  0
  1 13  1  0  0  0
  1 28  1  0  0  0
  2  3  1  0  0  0
  2  9  1  0  0  0
  2 29  1  0  0  0
  3  4  1  0  0  0
  3 11  1  0  0  0
  3 30  1  0  0  0
  4  5  1  0  0  0
  4 12  1  0  0  0
  4 31  1  0  0  0
  5  6  1  0  0  0
  5 13  1  0  0  0
  5 32  1  0  0  0
  6 14  1  0  0  0
  6 33  1  0  0  0
  6 34  1  0  0  0
  7  8  1  0  0  0
  7  9  1  0  0  0
  7 15  2  0  0  0
  8 35  1  0  0  0
  8 36  1  0  0  0
  8 37  1  0  0  0
  9 38  1  0  0  0
 10 18  1  0  0  0
 11 39  1  0  0  0
 12 40  1  0  0  0
 14 41  1  0  0  0
 16 17  1  0  0  0
 16 23  1  0  0  0
 16 26  1  0  0  0
 16 42  1  0  0  0
 17 18  1  0  0  0
 17 24  1  0  0  0
 17 43  1  0  0  0
 18 19  1  0  0  0
 18 44  1  0  0  0
 19 20  1  0  0  0
 19 25  1  0  0  0
 19 45  1  0  0  0
 20 21  1  0  0  0
 20 26  1  0  0  0
 20 46  1  0  0  0
 21 27  1  0  0  0
 21 47  1  0  0  0
 21 48  1  0  0  0
 22 23  1  0  0  0
 22 49  1  0  0  0
 22 50  1  0  0  0
 22 51  1  0  0  0
 24 52  1  0  0  0
 25 53  1  0  0  0
 27 54  1  0  0  0
M  END
> <s_m_source_file>
../4k0o_ligand.sdf

> <i_m_source_file_index>
1

> <s_epik_input>
W0NIM11PW0NASF0xW0NASF0oW09IXSlbQ0BIXShbQ0BASF0oW09IXSlbQ0BIXShPMSlbQ0gyXVtPSF0pT1tDQEhdMltDQEhdKFtOSF1DKD1PKVtDSDNdKVtDQEBIXShbT0hdKVtDQEhdKFtPSF0pW0NASF0oTzIpW0NIMl1bT0hd

> <s_epik_cmdline>
J2VwaWtfYXBwJywgJy1pbWFlJywgJ2xpZ2FuZF9wcm8ubWFlJywgJy1vbWFlJywgJ2xpZ2FuZF9wcmVwLm1hZScsICctbXMnLCAnMScsICctcGgnLCAnNycsICctcGh0JywgJzAuNScsICctbnQn

> <r_lp_tautomer_probability>
1

> <r_epik_Ionization_Penalty>
  0.0000

> <r_epik_Ionization_Penalty_Charging>
  0.0000

> <r_epik_Ionization_Penalty_Neutral>
  0.0000

> <r_epik_State_Penalty>
 -0.0000

> <r_epik_Charging_Adjusted_Penalty>
0

> <i_epik_Tot_Q>
0

> <i_epik_Tot_abs_Q>
0

> <s_epik_Chemistry_Notes>
This compound contains an acetal/aminal-like group ( X-CH(R)-Y where X, Y are N, S, or O) that may be acid/base labile, releasing an aldehyde.

$$$$
