4k0u_ligand
                    3D
 Schrodinger Suite 2020-3.
253255  0  0  1  0            999 V2000
  -14.4580  -14.5980    6.6080 N   0  3  0  0  0  0
  -13.2620  -14.7510    7.4940 C   0  0  2  0  0  0
  -11.9330  -15.1350    6.7840 C   0  0  0  0  0  0
  -11.3510  -16.1880    7.0950 O   0  0  0  0  0  0
  -13.5710  -15.7630    8.6010 C   0  0  0  0  0  0
  -14.7390  -15.3660    9.4890 C   0  0  0  0  0  0
  -14.5060  -15.8210   10.9250 C   0  0  0  0  0  0
  -15.7400  -15.8400   11.6980 N   0  0  0  0  0  0
  -16.6880  -16.7710   11.5880 C   0  0  0  0  0  0
  -16.5710  -17.7900   10.7330 N   0  0  0  0  0  0
  -17.7730  -16.6810   12.3390 N   0  0  0  0  0  0
  -11.4550  -14.2620    5.8720 N   0  0  0  0  0  0
  -10.1100  -14.3760    5.2520 C   0  0  2  0  0  0
   -9.0050  -14.3690    6.3220 C   0  0  0  0  0  0
   -8.0490  -15.1760    6.2700 O   0  0  0  0  0  0
   -9.7590  -13.2040    4.2670 C   0  0  2  0  0  0
  -10.9360  -12.6060    3.6920 O   0  0  0  0  0  0
   -8.8030  -13.6940    3.1530 C   0  0  0  0  0  0
   -9.1200  -13.4440    7.2810 N   0  0  0  0  0  0
   -8.0490  -13.2670    8.3010 C   0  0  2  0  0  0
   -7.8610  -14.5350    9.1150 C   0  0  0  0  0  0
   -6.7400  -15.0150    9.2990 O   0  0  0  0  0  0
   -8.3200  -12.0750    9.2240 C   0  0  0  0  0  0
   -7.4470  -12.0570   10.4550 C   0  0  0  0  0  0
   -6.0770  -11.7830   10.3510 C   0  0  0  0  0  0
   -7.9920  -12.3190   11.7250 C   0  0  0  0  0  0
   -5.2710  -11.7610   11.4780 C   0  0  0  0  0  0
   -7.1830  -12.2870   12.8530 C   0  0  0  0  0  0
   -5.8290  -12.0040   12.7300 C   0  0  0  0  0  0
   -8.9730  -15.0800    9.5890 N   0  0  0  0  0  0
   -8.9270  -16.2750   10.4000 C   0  0  2  0  0  0
   -8.2970  -17.3970    9.5970 C   0  0  0  0  0  0
   -7.3790  -18.0620   10.0840 O   0  0  0  0  0  0
  -10.3440  -16.6350   10.8720 C   0  0  0  0  0  0
  -10.3920  -17.5300   12.1000 C   0  0  0  0  0  0
  -11.7150  -17.3920   12.8490 C   0  0  0  0  0  0
  -11.9910  -18.5700   13.6760 N   0  0  0  0  0  0
  -13.1710  -18.8470   14.2480 C   0  0  0  0  0  0
  -14.2270  -18.0240   14.1070 N   0  0  0  0  0  0
  -13.2960  -19.9710   14.9660 N   0  0  0  0  0  0
   -8.7840  -17.5740    8.3580 N   0  0  0  0  0  0
   -8.1940  -18.5100    7.3960 C   0  0  2  0  0  0
   -6.7070  -18.3410    7.2410 C   0  0  0  0  0  0
   -5.9420  -19.3060    7.3030 O   0  0  0  0  0  0
   -8.8160  -18.3290    5.9970 C   0  0  0  0  0  0
  -10.1140  -19.0950    5.7810 C   0  0  0  0  0  0
  -10.0430  -20.5580    6.2740 C   0  0  0  0  0  0
   -8.9610  -21.1990    6.2710 O   0  0  0  0  0  0
  -11.2010  -21.0930    6.7060 N   0  0  0  0  0  0
   -6.3010  -17.0970    7.0150 N   0  0  0  0  0  0
   -4.9030  -16.7810    6.7850 C   0  0  2  0  0  0
   -4.0470  -16.9890    8.0370 C   0  0  0  0  0  0
   -2.9810  -17.5810    7.9410 O   0  0  0  0  0  0
   -4.7700  -15.3430    6.2700 C   0  0  0  0  0  0
   -3.3280  -14.8730    6.3670 C   0  0  0  0  0  0
   -5.2890  -15.2990    4.8400 C   0  0  0  0  0  0
   -4.5150  -16.5060    9.1990 N   0  0  0  0  0  0
   -3.7640  -16.6700   10.4870 C   0  0  2  0  0  0
   -3.6280  -18.1590   10.8250 C   0  0  0  0  0  0
   -2.5550  -18.6580   11.1650 O   0  0  0  0  0  0
   -4.4240  -15.8640   11.6300 C   0  0  0  0  0  0
   -3.4910  -15.4030   12.7710 C   0  0  0  0  0  0
   -1.9660  -15.2260   12.4160 C   0  0  0  0  0  0
   -1.2000  -16.2120   12.3010 O   0  0  0  0  0  0
   -1.5190  -13.9730   12.3160 N   0  0  0  0  0  0
   -4.7060  -18.8880   10.6180 N   0  0  0  0  0  0
   -4.6770  -20.3500   10.7330 C   0  0  2  0  0  0
   -3.5900  -20.9690    9.8470 C   0  0  0  0  0  0
   -2.7290  -21.7370   10.3280 O   0  0  0  0  0  0
   -6.0560  -20.9060   10.3730 C   0  0  0  0  0  0
   -6.1430  -22.2610   10.7080 O   0  0  0  0  0  0
   -3.5940  -20.6090    8.5610 N   0  0  0  0  0  0
   -2.6350  -21.1950    7.6190 C   0  0  2  0  0  0
   -1.2190  -20.9030    8.0510 C   0  0  0  0  0  0
   -0.4020  -21.8170    8.0380 O   0  0  0  0  0  0
   -2.8500  -20.6960    6.1950 C   0  0  0  0  0  0
   -4.1910  -20.8860    5.7900 O   0  0  0  0  0  0
   -0.9340  -19.6460    8.4250 N   0  0  0  0  0  0
    0.3950  -19.2650    8.9380 C   0  0  2  0  0  0
    0.7730  -20.1940   10.1160 C   0  0  0  0  0  0
    1.9010  -20.6820   10.1880 O   0  0  0  0  0  0
    0.4720  -17.8110    9.5090 C   0  0  2  0  0  0
   -0.1760  -16.7380    8.6250 C   0  0  0  0  0  0
    1.9160  -17.4260    9.7830 C   0  0  0  0  0  0
    0.3790  -16.6500    7.2430 C   0  0  0  0  0  0
   -0.1690  -20.3910   11.0490 N   0  0  0  0  0  0
    0.0190  -21.3000   12.2060 C   0  0  2  0  0  0
    0.4030  -22.6890   11.7480 C   0  0  0  0  0  0
    1.3860  -23.2420   12.2330 O   0  0  0  0  0  0
   -1.2520  -21.4230   13.0620 C   0  0  0  0  0  0
   -1.7790  -20.1550   13.3950 O   0  0  0  0  0  0
   -0.3590  -23.2410   10.8000 N   0  0  0  0  0  0
   -0.0290  -24.5480   10.2420 C   0  0  2  0  0  0
    1.4120  -24.5610    9.8170 C   0  0  0  0  0  0
    2.1870  -25.4160   10.2470 O   0  0  0  0  0  0
   -0.9410  -24.8960    9.0710 C   0  0  0  0  0  0
   -2.3470  -25.1690    9.5220 C   0  0  0  0  0  0
   -2.5660  -25.2000   10.7550 O   0  0  0  0  0  0
   -3.2330  -25.3300    8.6670 O   0  0  0  0  0  0
    1.7790  -23.5760    9.0040 N   0  0  0  0  0  0
    3.1030  -23.5520    8.4290 C   0  0  2  0  0  0
    4.1660  -23.6610    9.5160 C   0  0  0  0  0  0
    5.1240  -24.3980    9.3720 O   0  0  0  0  0  0
    3.3170  -22.2890    7.5860 C   0  0  0  0  0  0
    4.5720  -22.3310    6.7720 C   0  0  0  0  0  0
    4.5870  -22.9490    5.5320 C   0  0  0  0  0  0
    5.7630  -21.7750    7.2600 C   0  0  0  0  0  0
    5.7470  -23.0000    4.7760 C   0  0  0  0  0  0
    6.9360  -21.8270    6.5160 C   0  0  0  0  0  0
    6.9180  -22.4400    5.2690 C   0  0  0  0  0  0
    4.0080  -22.9270   10.6050 N   0  0  0  0  0  0
    5.0650  -22.8810   11.6150 C   0  0  2  0  0  0
    4.8840  -23.9620   12.7040 C   0  0  0  0  0  0
    4.6300  -23.6830   13.8770 O   0  0  0  0  0  0
    5.2300  -21.4380   12.1360 C   0  0  0  0  0  0
    5.8950  -20.5220   11.0950 C   0  0  0  0  0  0
    7.1340  -20.8750   10.5510 C   0  0  0  0  0  0
    5.2810  -19.3300   10.6330 C   0  0  0  0  0  0
    7.7460  -20.1000    9.5880 C   0  0  0  0  0  0
    5.9060  -18.5350    9.6810 C   0  0  0  0  0  0
    7.1390  -18.9370    9.1580 C   0  0  0  0  0  0
    7.8200  -18.2140    8.2010 O   0  0  0  0  0  0
    5.0210  -25.2130   12.2590 N   0  0  0  0  0  0
    5.0290  -26.3910   13.1240 C   0  0  2  0  0  0
    6.2830  -27.1940   12.8260 C   0  0  0  0  0  0
    7.0850  -27.4530   13.7190 O   0  0  0  0  0  0
    3.8030  -27.2690   12.8640 C   0  0  0  0  0  0
    2.5120  -26.6410   13.3710 C   0  0  0  0  0  0
    2.5740  -25.8390   14.3290 O   0  0  0  0  0  0
    1.4320  -26.9510   12.8160 O   0  0  0  0  0  0
    6.5120  -27.5950   11.6880 O   0  0  0  0  0  0
  -14.2349  -13.8709    5.8133 H   0  0  0  0  0  0
  -15.3116  -14.2408    7.2028 H   0  0  0  0  0  0
  -14.7067  -15.5698    6.1566 H   0  0  0  0  0  0
  -13.1183  -13.7361    7.8933 H   0  0  0  0  0  0
  -13.8202  -16.7349    8.1501 H   0  0  0  0  0  0
  -12.6909  -15.8753    9.2512 H   0  0  0  0  0  0
  -14.8529  -14.2720    9.4777 H   0  0  0  0  0  0
  -15.6608  -15.8345    9.1137 H   0  0  0  0  0  0
  -14.0856  -16.8375   10.9239 H   0  0  0  0  0  0
  -13.8025  -15.1338   11.4178 H   0  0  0  0  0  0
  -15.9400  -15.0476   12.4343 H   0  0  0  0  0  0
  -15.6744  -17.8782   10.1018 H   0  0  0  0  0  0
  -17.3712  -18.5412   10.6599 H   0  0  0  0  0  0
  -17.8836  -15.8472   13.0479 H   0  0  0  0  0  0
  -12.1206  -13.4319    5.5930 H   0  0  0  0  0  0
  -10.1927  -15.3390    4.7269 H   0  0  0  0  0  0
   -9.3090  -12.3669    4.8209 H   0  0  0  0  0  0
  -11.7235  -12.2031    4.3458 H   0  0  0  0  0  0
   -7.9105  -14.1474    3.6090 H   0  0  0  0  0  0
   -8.5018  -12.8411    2.5270 H   0  0  0  0  0  0
   -9.3172  -14.4417    2.5313 H   0  0  0  0  0  0
  -10.0184  -12.8100    7.3111 H   0  0  0  0  0  0
   -7.1304  -13.0656    7.7303 H   0  0  0  0  0  0
   -8.1372  -11.1385    8.6767 H   0  0  0  0  0  0
   -9.3663  -12.1037    9.5624 H   0  0  0  0  0  0
   -5.6400  -11.5848    9.3723 H   0  0  0  0  0  0
   -9.0531  -12.5479   11.8240 H   0  0  0  0  0  0
   -4.2049  -11.5543   11.3846 H   0  0  0  0  0  0
   -7.6110  -12.4842   13.8359 H   0  0  0  0  0  0
   -5.1993  -11.9719   13.6192 H   0  0  0  0  0  0
   -9.9399  -14.6096    9.3570 H   0  0  0  0  0  0
   -8.2917  -16.0561   11.2709 H   0  0  0  0  0  0
  -10.8908  -15.7149   11.1257 H   0  0  0  0  0  0
  -10.8742  -17.1667   10.0682 H   0  0  0  0  0  0
  -10.2762  -18.5800   11.7932 H   0  0  0  0  0  0
   -9.5764  -17.2562   12.7854 H   0  0  0  0  0  0
  -11.6752  -16.5091   13.5039 H   0  0  0  0  0  0
  -12.5354  -17.2752   12.1257 H   0  0  0  0  0  0
  -11.1968  -19.3069   13.8660 H   0  0  0  0  0  0
  -14.1293  -17.0999   13.5184 H   0  0  0  0  0  0
  -15.1875  -18.2757   14.5804 H   0  0  0  0  0  0
  -12.4361  -20.6467   15.0841 H   0  0  0  0  0  0
   -9.6651  -16.9786    8.0766 H   0  0  0  0  0  0
   -8.4038  -19.4909    7.8475 H   0  0  0  0  0  0
   -9.0402  -17.2651    5.8303 H   0  0  0  0  0  0
   -8.1066  -18.6784    5.2323 H   0  0  0  0  0  0
  -10.9285  -18.5979    6.3282 H   0  0  0  0  0  0
  -10.3530  -19.1161    4.7075 H   0  0  0  0  0  0
  -12.1234  -20.4939    6.6901 H   0  0  0  0  0  0
  -11.2244  -22.1291    7.0748 H   0  0  0  0  0  0
   -7.0548  -16.2960    7.0048 H   0  0  0  0  0  0
   -4.5798  -17.5033    6.0209 H   0  0  0  0  0  0
   -5.3631  -14.6493    6.8841 H   0  0  0  0  0  0
   -2.9962  -14.9215    7.4147 H   0  0  0  0  0  0
   -3.2553  -13.8361    6.0070 H   0  0  0  0  0  0
   -2.6888  -15.5212    5.7495 H   0  0  0  0  0  0
   -6.3325  -15.6464    4.8178 H   0  0  0  0  0  0
   -4.6715  -15.9519    4.2056 H   0  0  0  0  0  0
   -5.2381  -14.2668    4.4631 H   0  0  0  0  0  0
   -5.4794  -15.9769    9.1881 H   0  0  0  0  0  0
   -2.7550  -16.2593   10.3343 H   0  0  0  0  0  0
   -4.8749  -14.9482   11.2200 H   0  0  0  0  0  0
   -5.2045  -16.4753   12.1065 H   0  0  0  0  0  0
   -3.8246  -14.4236   13.1443 H   0  0  0  0  0  0
   -3.5221  -16.1373   13.5894 H   0  0  0  0  0  0
   -2.2174  -13.1298   12.4219 H   0  0  0  0  0  0
   -0.4520  -13.7831   12.1277 H   0  0  0  0  0  0
   -5.6427  -18.3756   10.3535 H   0  0  0  0  0  0
   -4.4296  -20.5712   11.7818 H   0  0  0  0  0  0
   -6.8300  -20.3521   10.9245 H   0  0  0  0  0  0
   -6.2255  -20.7946    9.2919 H   0  0  0  0  0  0
   -7.0723  -22.8168   10.5145 H   0  0  0  0  0  0
   -4.3253  -19.8658    8.2104 H   0  0  0  0  0  0
   -2.8253  -22.2777    7.6583 H   0  0  0  0  0  0
   -2.6140  -19.6229    6.1430 H   0  0  0  0  0  0
   -2.1920  -21.2498    5.5091 H   0  0  0  0  0  0
   -4.5107  -20.5770    4.7839 H   0  0  0  0  0  0
   -1.7281  -18.8896    8.3395 H   0  0  0  0  0  0
    1.0272  -19.3692    8.0439 H   0  0  0  0  0  0
   -0.1000  -17.8142   10.4486 H   0  0  0  0  0  0
   -1.2511  -16.9472    8.5230 H   0  0  0  0  0  0
   -0.0370  -15.7494    9.0869 H   0  0  0  0  0  0
    2.3858  -18.1924   10.4169 H   0  0  0  0  0  0
    1.9450  -16.4551   10.2992 H   0  0  0  0  0  0
    2.4626  -17.3518    8.8313 H   0  0  0  0  0  0
   -0.1444  -15.8579    6.6874 H   0  0  0  0  0  0
    0.2382  -17.6125    6.7294 H   0  0  0  0  0  0
    1.4524  -16.4147    7.2932 H   0  0  0  0  0  0
   -1.1148  -19.8424   10.9286 H   0  0  0  0  0  0
    0.8359  -20.8418   12.7828 H   0  0  0  0  0  0
   -2.0176  -21.9816   12.5035 H   0  0  0  0  0  0
   -1.0159  -21.9568   13.9944 H   0  0  0  0  0  0
   -2.6906  -20.0815   14.0062 H   0  0  0  0  0  0
   -1.2450  -22.6973   10.4404 H   0  0  0  0  0  0
   -0.1833  -25.2816   11.0470 H   0  0  0  0  0  0
   -0.9628  -24.0561    8.3610 H   0  0  0  0  0  0
   -0.5601  -25.7948    8.5640 H   0  0  0  0  0  0
   -3.5818  -25.3968   11.1284 H   0  0  0  0  0  0
    1.0633  -22.7740    8.7704 H   0  0  0  0  0  0
    3.1400  -24.4422    7.7838 H   0  0  0  0  0  0
    2.4735  -22.1649    6.8909 H   0  0  0  0  0  0
    3.3788  -21.4125    8.2478 H   0  0  0  0  0  0
    3.6735  -23.4013    5.1459 H   0  0  0  0  0  0
    5.7692  -21.2944    8.2383 H   0  0  0  0  0  0
    5.7403  -23.4785    3.7967 H   0  0  0  0  0  0
    7.8570  -21.3930    6.9052 H   0  0  0  0  0  0
    7.8300  -22.4815    4.6734 H   0  0  0  0  0  0
    3.0821  -22.3513   10.7512 H   0  0  0  0  0  0
    5.9949  -23.1548   11.0950 H   0  0  0  0  0  0
    4.2417  -21.0207   12.3791 H   0  0  0  0  0  0
    5.8578  -21.4438   13.0392 H   0  0  0  0  0  0
    7.6275  -21.7836   10.8960 H   0  0  0  0  0  0
    4.3092  -19.0349   11.0289 H   0  0  0  0  0  0
    8.7048  -20.4045    9.1683 H   0  0  0  0  0  0
    5.4407  -17.6082    9.3453 H   0  0  0  0  0  0
    8.7877  -18.5760    7.8234 H   0  0  0  0  0  0
    5.1324  -25.3289   11.1708 H   0  0  0  0  0  0
    5.0144  -26.0244   14.1610 H   0  0  0  0  0  0
    3.6942  -27.4357   11.7822 H   0  0  0  0  0  0
    3.9298  -28.2358   13.3731 H   0  0  0  0  0  0
    0.4872  -26.5094   13.1659 H   0  0  0  0  0  0
    7.4232  -28.1759   11.4825 H   0  0  0  0  0  0
  1  2  1  0  0  0
  1132  1  0  0  0
  1133  1  0  0  0
  1134  1  0  0  0
  2  3  1  0  0  0
  2  5  1  0  0  0
  2135  1  0  0  0
  3  4  2  0  0  0
  3 12  1  0  0  0
  5  6  1  0  0  0
  5136  1  0  0  0
  5137  1  0  0  0
  6  7  1  0  0  0
  6138  1  0  0  0
  6139  1  0  0  0
  7  8  1  0  0  0
  7140  1  0  0  0
  7141  1  0  0  0
  8  9  1  0  0  0
  8142  1  0  0  0
  9 10  1  0  0  0
  9 11  2  0  0  0
 10143  1  0  0  0
 10144  1  0  0  0
 11145  1  0  0  0
 12 13  1  0  0  0
 12146  1  0  0  0
 13 14  1  0  0  0
 13 16  1  0  0  0
 13147  1  0  0  0
 14 15  2  0  0  0
 14 19  1  0  0  0
 16 17  1  0  0  0
 16 18  1  0  0  0
 16148  1  0  0  0
 17149  1  0  0  0
 18150  1  0  0  0
 18151  1  0  0  0
 18152  1  0  0  0
 19 20  1  0  0  0
 19153  1  0  0  0
 20 21  1  0  0  0
 20 23  1  0  0  0
 20154  1  0  0  0
 21 22  2  0  0  0
 21 30  1  0  0  0
 23 24  1  0  0  0
 23155  1  0  0  0
 23156  1  0  0  0
 24 25  2  0  0  0
 24 26  1  0  0  0
 25 27  1  0  0  0
 25157  1  0  0  0
 26 28  2  0  0  0
 26158  1  0  0  0
 27 29  2  0  0  0
 27159  1  0  0  0
 28 29  1  0  0  0
 28160  1  0  0  0
 29161  1  0  0  0
 30 31  1  0  0  0
 30162  1  0  0  0
 31 32  1  0  0  0
 31 34  1  0  0  0
 31163  1  0  0  0
 32 33  2  0  0  0
 32 41  1  0  0  0
 34 35  1  0  0  0
 34164  1  0  0  0
 34165  1  0  0  0
 35 36  1  0  0  0
 35166  1  0  0  0
 35167  1  0  0  0
 36 37  1  0  0  0
 36168  1  0  0  0
 36169  1  0  0  0
 37 38  1  0  0  0
 37170  1  0  0  0
 38 39  1  0  0  0
 38 40  2  0  0  0
 39171  1  0  0  0
 39172  1  0  0  0
 40173  1  0  0  0
 41 42  1  0  0  0
 41174  1  0  0  0
 42 43  1  0  0  0
 42 45  1  0  0  0
 42175  1  0  0  0
 43 44  2  0  0  0
 43 50  1  0  0  0
 45 46  1  0  0  0
 45176  1  0  0  0
 45177  1  0  0  0
 46 47  1  0  0  0
 46178  1  0  0  0
 46179  1  0  0  0
 47 48  2  0  0  0
 47 49  1  0  0  0
 49180  1  0  0  0
 49181  1  0  0  0
 50 51  1  0  0  0
 50182  1  0  0  0
 51 52  1  0  0  0
 51 54  1  0  0  0
 51183  1  0  0  0
 52 53  2  0  0  0
 52 57  1  0  0  0
 54 55  1  0  0  0
 54 56  1  0  0  0
 54184  1  0  0  0
 55185  1  0  0  0
 55186  1  0  0  0
 55187  1  0  0  0
 56188  1  0  0  0
 56189  1  0  0  0
 56190  1  0  0  0
 57 58  1  0  0  0
 57191  1  0  0  0
 58 59  1  0  0  0
 58 61  1  0  0  0
 58192  1  0  0  0
 59 60  2  0  0  0
 59 66  1  0  0  0
 61 62  1  0  0  0
 61193  1  0  0  0
 61194  1  0  0  0
 62 63  1  0  0  0
 62195  1  0  0  0
 62196  1  0  0  0
 63 64  2  0  0  0
 63 65  1  0  0  0
 65197  1  0  0  0
 65198  1  0  0  0
 66 67  1  0  0  0
 66199  1  0  0  0
 67 68  1  0  0  0
 67 70  1  0  0  0
 67200  1  0  0  0
 68 69  2  0  0  0
 68 72  1  0  0  0
 70 71  1  0  0  0
 70201  1  0  0  0
 70202  1  0  0  0
 71203  1  0  0  0
 72 73  1  0  0  0
 72204  1  0  0  0
 73 74  1  0  0  0
 73 76  1  0  0  0
 73205  1  0  0  0
 74 75  2  0  0  0
 74 78  1  0  0  0
 76 77  1  0  0  0
 76206  1  0  0  0
 76207  1  0  0  0
 77208  1  0  0  0
 78 79  1  0  0  0
 78209  1  0  0  0
 79 80  1  0  0  0
 79 82  1  0  0  0
 79210  1  0  0  0
 80 81  2  0  0  0
 80 86  1  0  0  0
 82 83  1  0  0  0
 82 84  1  0  0  0
 82211  1  0  0  0
 83 85  1  0  0  0
 83212  1  0  0  0
 83213  1  0  0  0
 84214  1  0  0  0
 84215  1  0  0  0
 84216  1  0  0  0
 85217  1  0  0  0
 85218  1  0  0  0
 85219  1  0  0  0
 86 87  1  0  0  0
 86220  1  0  0  0
 87 88  1  0  0  0
 87 90  1  0  0  0
 87221  1  0  0  0
 88 89  2  0  0  0
 88 92  1  0  0  0
 90 91  1  0  0  0
 90222  1  0  0  0
 90223  1  0  0  0
 91224  1  0  0  0
 92 93  1  0  0  0
 92225  1  0  0  0
 93 94  1  0  0  0
 93 96  1  0  0  0
 93226  1  0  0  0
 94 95  2  0  0  0
 94100  1  0  0  0
 96 97  1  0  0  0
 96227  1  0  0  0
 96228  1  0  0  0
 97 98  1  0  0  0
 97 99  2  0  0  0
 98229  1  0  0  0
100101  1  0  0  0
100230  1  0  0  0
101102  1  0  0  0
101104  1  0  0  0
101231  1  0  0  0
102103  2  0  0  0
102111  1  0  0  0
104105  1  0  0  0
104232  1  0  0  0
104233  1  0  0  0
105106  2  0  0  0
105107  1  0  0  0
106108  1  0  0  0
106234  1  0  0  0
107109  2  0  0  0
107235  1  0  0  0
108110  2  0  0  0
108236  1  0  0  0
109110  1  0  0  0
109237  1  0  0  0
110238  1  0  0  0
111112  1  0  0  0
111239  1  0  0  0
112113  1  0  0  0
112115  1  0  0  0
112240  1  0  0  0
113114  2  0  0  0
113123  1  0  0  0
115116  1  0  0  0
115241  1  0  0  0
115242  1  0  0  0
116117  2  0  0  0
116118  1  0  0  0
117119  1  0  0  0
117243  1  0  0  0
118120  2  0  0  0
118244  1  0  0  0
119121  2  0  0  0
119245  1  0  0  0
120121  1  0  0  0
120246  1  0  0  0
121122  1  0  0  0
122247  1  0  0  0
123124  1  0  0  0
123248  1  0  0  0
124125  1  0  0  0
124127  1  0  0  0
124249  1  0  0  0
125126  2  0  0  0
125131  1  0  0  0
127128  1  0  0  0
127250  1  0  0  0
127251  1  0  0  0
128129  2  0  0  0
128130  1  0  0  0
130252  1  0  0  0
131253  1  0  0  0
M  CHG  1   1   1
M  END
> <s_m_source_file>
../4k0u_ligand.sdf

> <i_m_source_file_index>
1

> <s_epik_input>
W0hdL049QyhbTkgyXSlcW05IXVtDSDJdW0NIMl1bQ0gyXVtDQEhdKFtOSDMrXSlDKD1PKVtOSF1bQ0BASF0oW0NASF0oW09IXSlbQ0gzXSlDKD1PKVtOSF1bQ0BASF0oW0NIMl1jMVtjSF1bY0hdW2NIXVtjSF1bY0hdMSlDKD1PKVtOSF1bQ0BASF0oW0NIMl1bQ0gyXVtDSDJdW05IXS9DKFtOSDJdKT1OXFtIXSlDKD1PKVtOSF1bQ0BASF0oW0NIMl1bQ0gyXUMoPU8pW05IMl0pQyg9TylbTkhdW0NAQEhdKFtDSF0oW0NIM10pW0NIM10pQyg9TylbTkhdW0NAQEhdKFtDSDJdW0NIMl1DKD1PKVtOSDJdKUMoPU8pW05IXVtDQEBIXShbQ0gyXVtPSF0pQyg9TylbTkhdW0NAQEhdKFtDSDJdW09IXSlDKD1PKVtOSF1bQ0BASF0oW0NAQEhdKFtDSDNdKVtDSDJdW0NIM10pQyg9TylbTkhdW0NAQEhdKFtDSDJdW09IXSlDKD1PKVtOSF1bQ0BASF0oW0NIMl1DKD1PKVtPSF0pQyg9TylbTkhdW0NAQEhdKFtDSDJdYzJbY0hdW2NIXVtjSF1bY0hdW2NIXTIpQyg9TylbTkhdW0NASF0oQyg9TylbTkhdW0NASF0oQyg9TylbT0hdKVtDSDJdQyg9TylbT0hdKVtDSDJdYzNbY0hdW2NIXWMoW09IXSlbY0hdW2NIXTM=

> <s_epik_cmdline>
J2VwaWtfYXBwJywgJy1pbWFlJywgJ2xpZ2FuZF9wcm8ubWFlJywgJy1vbWFlJywgJ2xpZ2FuZF9wcmVwLm1hZScsICctbXMnLCAnMScsICctcGgnLCAnNycsICctcGh0JywgJzAuNScsICctbnQn

> <s_epik_pKa_notes>
Molecule size exceeds maximum supported for generating protonation states

> <s_epik_Chemistry_Notes>
This compound has an imine and may undergo hydrolysis.

$$$$
