4k0y_ligand
                    3D
 Schrodinger Suite 2020-3.
 44 47  0  0  1  0            999 V2000
  -68.1470   45.2320    3.5330 C   0  0  0  0  0  0
  -68.6290   44.4120    4.5350 C   0  0  0  0  0  0
  -69.6850   43.5510    4.2590 C   0  0  0  0  0  0
  -70.2560   43.5140    2.9900 C   0  0  0  0  0  0
  -69.7770   44.3290    1.9860 C   0  0  0  0  0  0
  -68.7380   45.2130    2.2660 C   0  0  0  0  0  0
  -68.1640   46.0390    1.2960 N   0  0  0  0  0  0
  -68.4010   46.0360   -0.0370 C   0  0  0  0  0  0
  -69.1950   45.3050   -0.6080 O   0  0  0  0  0  0
  -67.5560   46.9450   -0.7910 C   0  0  0  0  0  0
  -67.4150   47.0330   -2.1900 C   0  0  0  0  0  0
  -66.5160   47.9540   -2.4500 N   0  0  0  0  0  0
  -66.0100   48.4710   -1.2530 N   0  0  0  0  0  0
  -66.6400   47.8440   -0.2110 C   0  0  0  0  0  0
  -66.3370   48.1430    1.0590 N   0  0  0  0  0  0
  -65.4220   49.0610    1.3370 C   0  0  0  0  0  0
  -64.7460   49.7130    0.2990 C   0  0  0  0  0  0
  -65.0590   49.4160   -0.9960 C   0  0  0  0  0  0
  -64.4160   50.0280   -2.0100 O   0  5  0  0  0  0
  -65.0190   49.4020    2.7520 C   0  0  0  0  0  0
  -66.0150   48.8780    3.7860 C   0  0  0  0  0  0
  -65.4390   49.1700    5.1750 C   0  0  0  0  0  0
  -64.2090   48.3840    5.3670 N   0  3  0  0  0  0
  -63.1580   48.8220    4.4320 C   0  0  0  0  0  0
  -63.6620   48.7030    2.9850 C   0  0  0  0  0  0
  -70.1660   42.7380    5.2290 F   0  0  0  0  0  0
  -67.3046   45.8949    3.7305 H   0  0  0  0  0  0
  -68.1863   44.4398    5.5307 H   0  0  0  0  0  0
  -71.0863   42.8371    2.7888 H   0  0  0  0  0  0
  -70.2065   44.2819    0.9853 H   0  0  0  0  0  0
  -67.4262   46.8005    1.5888 H   0  0  0  0  0  0
  -67.9570   46.4406   -2.9271 H   0  0  0  0  0  0
  -63.9763   50.4515    0.5229 H   0  0  0  0  0  0
  -64.9896   50.4967    2.8556 H   0  0  0  0  0  0
  -66.9806   49.3888    3.6566 H   0  0  0  0  0  0
  -66.1515   47.7953    3.6478 H   0  0  0  0  0  0
  -65.2075   50.2422    5.2579 H   0  0  0  0  0  0
  -66.1762   48.8936    5.9432 H   0  0  0  0  0  0
  -63.8459   48.5171    6.3968 H   0  0  0  0  0  0
  -64.4222   47.3198    5.1880 H   0  0  0  0  0  0
  -62.8959   49.8699    4.6398 H   0  0  0  0  0  0
  -62.2673   48.1892    4.5590 H   0  0  0  0  0  0
  -63.7570   47.6317    2.7542 H   0  0  0  0  0  0
  -62.9007   49.1529    2.3308 H   0  0  0  0  0  0
  1  2  2  0  0  0
  1  6  1  0  0  0
  1 27  1  0  0  0
  2  3  1  0  0  0
  2 28  1  0  0  0
  3  4  2  0  0  0
  3 26  1  0  0  0
  4  5  1  0  0  0
  4 29  1  0  0  0
  5  6  2  0  0  0
  5 30  1  0  0  0
  6  7  1  0  0  0
  7  8  1  0  0  0
  7 31  1  0  0  0
  8  9  2  0  0  0
  8 10  1  0  0  0
 10 11  1  0  0  0
 10 14  2  0  0  0
 11 12  2  0  0  0
 11 32  1  0  0  0
 12 13  1  0  0  0
 13 14  1  0  0  0
 13 18  1  0  0  0
 14 15  1  0  0  0
 15 16  2  0  0  0
 16 17  1  0  0  0
 16 20  1  0  0  0
 17 18  2  0  0  0
 17 33  1  0  0  0
 18 19  1  0  0  0
 20 21  1  0  0  0
 20 25  1  0  0  0
 20 34  1  0  0  0
 21 22  1  0  0  0
 21 35  1  0  0  0
 21 36  1  0  0  0
 22 23  1  0  0  0
 22 37  1  0  0  0
 22 38  1  0  0  0
 23 24  1  0  0  0
 23 39  1  0  0  0
 23 40  1  0  0  0
 24 25  1  0  0  0
 24 41  1  0  0  0
 24 42  1  0  0  0
 25 43  1  0  0  0
 25 44  1  0  0  0
M  CHG  2  19  -1  23   1
M  END
> <s_m_source_file>
../4k0y_ligand.sdf

> <i_m_source_file_index>
1

> <s_epik_input>
RmMxW2NIXVtjSF1jKFtjSF1bY0hdMSlbTkhdQyg9TyljKFtjSF1uMiljKG4yMyluYyhbY0hdYzNbT0hdKVtDSF00W0NIMl1bQ0gyXVtOSDIrXVtDSDJdW0NIMl00

> <s_epik_cmdline>
J2VwaWtfYXBwJywgJy1pbWFlJywgJ2xpZ2FuZF9wcm8ubWFlJywgJy1vbWFlJywgJ2xpZ2FuZF9wcmVwLm1hZScsICctbXMnLCAnMScsICctcGgnLCAnNycsICctcGh0JywgJzAuNScsICctbnQn

> <r_epik_Ionization_Penalty>
  0.2357

> <r_epik_Ionization_Penalty_Charging>
  0.0005

> <r_epik_Ionization_Penalty_Neutral>
  0.2351

> <r_epik_State_Penalty>
  0.2259

> <r_epik_Charging_Adjusted_Penalty>
0.226465470138046

> <i_epik_Tot_Q>
0

> <i_epik_Tot_abs_Q>
2

$$$$
