4k10_ligand
                    3D
 Schrodinger Suite 2020-3.
 26 26  0  0  1  0            999 V2000
   39.5930   67.8860   85.1560 C   0  0  1  0  0  0
   41.2300   65.9580   84.2890 O   0  5  0  0  0  0
   38.9590   66.9680   86.0450 O   0  0  0  0  0  0
   38.5840   68.9340   84.6820 C   0  0  0  0  0  0
   39.0000   66.2540   83.1650 O   0  0  0  0  0  0
   36.6790   69.7280   85.9770 C   0  0  0  0  0  0
   40.8970   68.6880   86.1450 P   0  0  0  0  0  0
   40.2240   66.9360   83.7250 P   0  0  0  0  0  0
   40.4740   70.1260   86.3620 O   0  5  0  0  0  0
   40.8260   67.9310   82.7600 O   0  5  0  0  0  0
   42.1940   68.5730   85.3700 O   0  0  0  0  0  0
   40.9240   67.8680   87.4150 O   0  0  0  0  0  0
   37.2260   68.7550   85.2250 N   0  0  0  0  0  0
   34.8500   70.5620   87.2570 F   0  0  0  0  0  0
   34.6480   68.4440   86.2370 C   0  0  0  0  0  0
   36.5190   67.6380   84.9540 C   0  0  0  0  0  0
   35.2260   67.4510   85.4520 C   0  0  0  0  0  0
   35.3870   69.5910   86.5010 C   0  0  0  0  0  0
   38.5058   67.3310   86.9792 H   0  0  0  0  0  0
   38.9239   69.9346   84.9872 H   0  0  0  0  0  0
   38.5008   68.8935   83.5859 H   0  0  0  0  0  0
   37.2604   70.6398   86.1784 H   0  0  0  0  0  0
   42.3185   69.1172   84.4222 H   0  0  0  0  0  0
   33.6403   68.3251   86.6351 H   0  0  0  0  0  0
   36.9833   66.8643   84.3249 H   0  0  0  0  0  0
   34.6765   66.5262   85.2221 H   0  0  0  0  0  0
  1  3  1  0  0  0
  1  4  1  0  0  0
  1  7  1  0  0  0
  1  8  1  0  0  0
  2  8  1  0  0  0
  3 19  1  0  0  0
  4 13  1  0  0  0
  4 20  1  0  0  0
  4 21  1  0  0  0
  5  8  2  0  0  0
  6 13  1  0  0  0
  6 18  2  0  0  0
  6 22  1  0  0  0
  7  9  1  0  0  0
  7 11  1  0  0  0
  7 12  2  0  0  0
  8 10  1  0  0  0
 11 23  1  0  0  0
 13 16  1  0  0  0
 14 18  1  0  0  0
 15 17  1  0  0  0
 15 18  1  0  0  0
 15 24  1  0  0  0
 16 17  2  0  0  0
 16 25  1  0  0  0
 17 26  1  0  0  0
M  CHG  3   2  -1   9  -1  10  -1
M  END
> <s_m_source_file>
../4k10_ligand.sdf

> <i_m_source_file_index>
1

> <s_epik_input>
W09IXVAoPU8pKFtPSF0pQyhbT0hdKShQKD1PKShbT0hdKVtPSF0pW0NIMl1OMVtDSF09QyhGKVtDSDJdW0NIXT1bQ0hdMQ==

> <s_epik_cmdline>
J2VwaWtfYXBwJywgJy1pbWFlJywgJ2xpZ2FuZF9wcm8ubWFlJywgJy1vbWFlJywgJ2xpZ2FuZF9wcmVwLm1hZScsICctbXMnLCAnMScsICctcGgnLCAnNycsICctcGh0JywgJzAuNScsICctbnQn

> <r_epik_Ionization_Penalty>
  0.0968

> <r_epik_Ionization_Penalty_Charging>
  0.0967

> <r_epik_Ionization_Penalty_Neutral>
  0.0001

> <r_epik_State_Penalty>
  0.0869

> <r_epik_Charging_Adjusted_Penalty>
0.183609209417878

> <i_epik_Tot_Q>
-3

> <i_epik_Tot_abs_Q>
3

> <s_epik_Chemistry_Notes>
This compound has an imine and may undergo hydrolysis.

$$$$
