4k1b_ligand
                    3D
 Schrodinger Suite 2020-3.
 61 66  0  0  1  0            999 V2000
  -44.5610   -1.9820    2.4500 C   0  0  0  0  0  0
  -45.4940   -1.1210    2.9980 C   0  0  0  0  0  0
  -46.2500   -0.3130    2.1730 C   0  0  0  0  0  0
  -46.0830   -0.3560    0.7980 C   0  0  0  0  0  0
  -45.1360   -1.2320    0.2350 C   0  0  0  0  0  0
  -44.3800   -2.0420    1.0810 C   0  0  0  0  0  0
  -44.9090   -1.3200   -1.2340 C   0  0  0  0  0  0
  -43.6360   -1.5730   -1.7640 C   0  0  0  0  0  0
  -43.5100   -1.6400   -3.1590 C   0  0  0  0  0  0
  -42.3930   -1.8800   -4.0880 C   0  0  0  0  0  0
  -42.9080   -1.8260   -5.3360 C   0  0  0  0  0  0
  -44.2610   -1.5750   -5.2780 N   0  0  0  0  0  0
  -44.6550   -1.4570   -3.9700 C   0  0  0  0  0  0
  -45.8370   -1.2220   -3.4170 N   0  0  0  0  0  0
  -45.9830   -1.1590   -2.1130 C   0  0  0  0  0  0
  -41.0520   -2.1150   -3.7290 N   0  0  0  0  0  0
  -40.1090   -2.5850   -4.5840 C   0  0  0  0  0  0
  -40.3530   -2.8550   -5.7500 O   0  0  0  0  0  0
  -38.7430   -2.7950   -4.1110 C   0  0  0  0  0  0
  -37.6830   -3.3140   -4.8730 C   0  0  0  0  0  0
  -36.6160   -3.3620   -4.1260 N   0  0  0  0  0  0
  -36.9140   -2.8760   -2.8500 N   0  0  0  0  0  0
  -38.2370   -2.5170   -2.8280 C   0  0  0  0  0  0
  -38.7980   -2.0170   -1.7230 N   0  0  0  0  0  0
  -38.0710   -1.8500   -0.6290 C   0  0  0  0  0  0
  -36.7080   -2.2100   -0.6160 C   0  0  0  0  0  0
  -36.1400   -2.7200   -1.7320 C   0  0  0  0  0  0
  -38.6400   -1.3280    0.5160 N   0  0  0  0  0  0
  -40.0550   -1.5420    0.8210 C   0  0  0  0  0  0
  -40.0830   -2.5110    2.0000 C   0  0  1  0  0  0
  -40.8370   -1.9070    3.1940 C   0  0  0  0  0  0
  -40.7680   -2.9100    4.3400 C   0  0  0  0  0  0
  -41.4520   -4.1300    3.9100 N   0  3  0  0  0  0
  -40.7770   -4.7670    2.7640 C   0  0  0  0  0  0
  -40.7390   -3.8210    1.5620 C   0  0  2  0  0  0
  -39.9730   -4.3880    0.5760 F   0  0  0  0  0  0
  -46.8550    0.4630    0.0440 F   0  0  0  0  0  0
  -43.9636   -2.6184    3.1028 H   0  0  0  0  0  0
  -45.6320   -1.0805    4.0785 H   0  0  0  0  0  0
  -46.9850    0.3650    2.6069 H   0  0  0  0  0  0
  -43.6426   -2.7260    0.6609 H   0  0  0  0  0  0
  -42.7728   -1.7130   -1.1133 H   0  0  0  0  0  0
  -42.3364   -1.9613   -6.2542 H   0  0  0  0  0  0
  -46.9759   -0.9748   -1.7028 H   0  0  0  0  0  0
  -37.7429   -3.6250   -5.9160 H   0  0  0  0  0  0
  -36.1151   -2.0779    0.2891 H   0  0  0  0  0  0
  -35.0869   -3.0012   -1.7411 H   0  0  0  0  0  0
  -38.0114   -0.7433    1.2038 H   0  0  0  0  0  0
  -40.5231   -0.5815    1.0822 H   0  0  0  0  0  0
  -40.5593   -1.9685   -0.0587 H   0  0  0  0  0  0
  -39.0482   -2.7079    2.3167 H   0  0  0  0  0  0
  -40.3619   -0.9588    3.4860 H   0  0  0  0  0  0
  -41.8835   -1.7208    2.9107 H   0  0  0  0  0  0
  -39.7154   -3.1259    4.5754 H   0  0  0  0  0  0
  -41.2630   -2.4879    5.2270 H   0  0  0  0  0  0
  -41.4726   -4.8509    4.7406 H   0  0  0  0  0  0
  -42.4820   -3.8866    3.6101 H   0  0  0  0  0  0
  -39.7454   -5.0264    3.0440 H   0  0  0  0  0  0
  -41.3204   -5.6802    2.4797 H   0  0  0  0  0  0
  -41.7249   -3.6764    1.0961 H   0  0  0  0  0  0
  -44.8467   -1.4995   -6.2061 H   0  0  0  0  0  0
  1  2  2  0  0  0
  1  6  1  0  0  0
  1 38  1  0  0  0
  2  3  1  0  0  0
  2 39  1  0  0  0
  3  4  2  0  0  0
  3 40  1  0  0  0
  4  5  1  0  0  0
  4 37  1  0  0  0
  5  6  2  0  0  0
  5  7  1  0  0  0
  6 41  1  0  0  0
  7  8  2  0  0  0
  7 15  1  0  0  0
  8  9  1  0  0  0
  8 42  1  0  0  0
  9 10  1  0  0  0
  9 13  2  0  0  0
 10 11  1  0  0  0
 10 16  2  0  0  0
 11 12  1  0  0  0
 11 43  1  0  0  0
 12 13  1  0  0  0
 12 61  1  0  0  0
 13 14  1  0  0  0
 14 15  2  0  0  0
 15 44  1  0  0  0
 16 17  1  0  0  0
 17 18  2  0  0  0
 17 19  1  0  0  0
 19 20  1  0  0  0
 19 23  2  0  0  0
 20 21  2  0  0  0
 20 45  1  0  0  0
 21 22  1  0  0  0
 22 23  1  0  0  0
 22 27  1  0  0  0
 23 24  1  0  0  0
 24 25  2  0  0  0
 25 26  1  0  0  0
 25 28  1  0  0  0
 26 27  2  0  0  0
 26 46  1  0  0  0
 27 47  1  0  0  0
 28 29  1  0  0  0
 28 48  1  0  0  0
 29 30  1  0  0  0
 29 49  1  0  0  0
 29 50  1  0  0  0
 30 31  1  0  0  0
 30 35  1  0  0  0
 30 51  1  0  0  0
 31 32  1  0  0  0
 31 52  1  0  0  0
 31 53  1  0  0  0
 32 33  1  0  0  0
 32 54  1  0  0  0
 32 55  1  0  0  0
 33 34  1  0  0  0
 33 56  1  0  0  0
 33 57  1  0  0  0
 34 35  1  0  0  0
 34 58  1  0  0  0
 34 59  1  0  0  0
 35 36  1  0  0  0
 35 60  1  0  0  0
M  CHG  1  33   1
M  END
> <s_m_source_file>
../4k1b_ligand.sdf

> <i_m_source_file_index>
1

> <s_epik_input>
RmMxW2NIXVtjSF1bY0hdW2NIXWMxLWMoW2NIXTIpW2NIXW5jKGMyPTMpPU5bQ0gyXUMzW05IXUMoPU8pYyhbY0hdbjQpYyhuNDUpbmMoW2NIXVtjSF01KVtOSF1bQ0gyXVtDQEhdNltDSDJdW0NIMl1bTkgyK11bQ0gyXVtDQEBIXTZG

> <s_epik_cmdline>
J2VwaWtfYXBwJywgJy1pbWFlJywgJ2xpZ2FuZF9wcm8ubWFlJywgJy1vbWFlJywgJ2xpZ2FuZF9wcmVwLm1hZScsICctbXMnLCAnMScsICctcGgnLCAnNycsICctcGh0JywgJzAuNScsICctbnQn

> <r_lp_tautomer_probability>
1

> <r_epik_Ionization_Penalty>
  0.0046

> <r_epik_Ionization_Penalty_Charging>
  0.0042

> <r_epik_Ionization_Penalty_Neutral>
  0.0004

> <r_epik_State_Penalty>
 -0.0000

> <r_epik_Charging_Adjusted_Penalty>
0.00421462202801357

> <i_epik_Tot_Q>
1

> <i_epik_Tot_abs_Q>
1

> <s_epik_Chemistry_Notes>
This compound has an imine and may undergo hydrolysis.

$$$$
