4k3k_ligand
                    3D
 Schrodinger Suite 2020-3.
 39 39  0  0  1  0            999 V2000
  -20.3730    0.9550  -23.3620 C   0  0  0  0  0  0
  -21.4030    1.8340  -24.0810 C   0  0  0  0  0  0
  -20.8180    2.3560  -25.4100 C   0  0  0  0  0  0
  -22.6190    0.9860  -24.3520 C   0  0  0  0  0  0
  -23.7160    1.9630  -24.7240 C   0  0  0  0  0  0
  -24.9290    1.0570  -24.9940 C   0  0  0  0  0  0
  -24.9990    0.4090  -26.0340 O   0  0  0  0  0  0
  -25.8430    0.9980  -24.0120 N   0  0  0  0  0  0
  -27.0600    0.1690  -24.1200 C   0  0  2  0  0  0
  -28.1880    0.8640  -23.3580 C   0  0  0  0  0  0
  -29.3010    0.2990  -23.3570 O   0  0  0  0  0  0
  -27.9000    1.9230  -22.7590 O   0  5  0  0  0  0
  -26.8640   -1.2540  -23.5900 C   0  0  0  0  0  0
  -26.2110   -1.2110  -22.3260 C   0  0  0  0  0  0
  -26.9460   -1.0730  -21.1420 C   0  0  0  0  0  0
  -26.3120   -1.0550  -19.9020 C   0  0  0  0  0  0
  -24.9280   -1.1690  -19.8320 C   0  0  0  0  0  0
  -24.1830   -1.3120  -21.0010 C   0  0  0  0  0  0
  -24.8220   -1.3420  -22.2410 C   0  0  0  0  0  0
  -19.4705    1.5469  -23.1494 H   0  0  0  0  0  0
  -20.1088    0.1009  -24.0029 H   0  0  0  0  0  0
  -20.8007    0.5866  -22.4179 H   0  0  0  0  0  0
  -21.6871    2.6919  -23.4538 H   0  0  0  0  0  0
  -19.9315    2.9735  -25.2030 H   0  0  0  0  0  0
  -21.5740    2.9625  -25.9302 H   0  0  0  0  0  0
  -20.5315    1.5041  -26.0442 H   0  0  0  0  0  0
  -22.4040    0.2893  -25.1757 H   0  0  0  0  0  0
  -22.8774    0.4158  -23.4475 H   0  0  0  0  0  0
  -23.8894    2.6556  -23.8872 H   0  0  0  0  0  0
  -23.4130    2.5328  -25.6148 H   0  0  0  0  0  0
  -25.6619    1.5936  -23.1051 H   0  0  0  0  0  0
  -27.2789    0.0914  -25.1952 H   0  0  0  0  0  0
  -27.8436   -1.7415  -23.4773 H   0  0  0  0  0  0
  -26.2484   -1.8276  -24.2985 H   0  0  0  0  0  0
  -28.0307   -0.9782  -21.1916 H   0  0  0  0  0  0
  -26.8989   -0.9519  -18.9893 H   0  0  0  0  0  0
  -24.4266   -1.1466  -18.8644 H   0  0  0  0  0  0
  -23.0980   -1.4007  -20.9465 H   0  0  0  0  0  0
  -24.2338   -1.4685  -23.1499 H   0  0  0  0  0  0
  1  2  1  0  0  0
  1 20  1  0  0  0
  1 21  1  0  0  0
  1 22  1  0  0  0
  2  3  1  0  0  0
  2  4  1  0  0  0
  2 23  1  0  0  0
  3 24  1  0  0  0
  3 25  1  0  0  0
  3 26  1  0  0  0
  4  5  1  0  0  0
  4 27  1  0  0  0
  4 28  1  0  0  0
  5  6  1  0  0  0
  5 29  1  0  0  0
  5 30  1  0  0  0
  6  7  2  0  0  0
  6  8  1  0  0  0
  8  9  1  0  0  0
  8 31  1  0  0  0
  9 10  1  0  0  0
  9 13  1  0  0  0
  9 32  1  0  0  0
 10 11  2  0  0  0
 10 12  1  0  0  0
 13 14  1  0  0  0
 13 33  1  0  0  0
 13 34  1  0  0  0
 14 15  2  0  0  0
 14 19  1  0  0  0
 15 16  1  0  0  0
 15 35  1  0  0  0
 16 17  2  0  0  0
 16 36  1  0  0  0
 17 18  1  0  0  0
 17 37  1  0  0  0
 18 19  2  0  0  0
 18 38  1  0  0  0
 19 39  1  0  0  0
M  CHG  1  12  -1
M  END
> <s_m_source_file>
../4k3k_ligand.sdf

> <i_m_source_file_index>
1

> <s_epik_input>
W0NIM11bQ0hdKFtDSDNdKVtDSDJdW0NIMl1DKD1PKVtOSF1bQ0BIXShDKD1PKVtPSF0pW0NIMl1jMVtjSF1bY0hdW2NIXVtjSF1bY0hdMQ==

> <s_epik_cmdline>
J2VwaWtfYXBwJywgJy1pbWFlJywgJ2xpZ2FuZF9wcm8ubWFlJywgJy1vbWFlJywgJ2xpZ2FuZF9wcmVwLm1hZScsICctbXMnLCAnMScsICctcGgnLCAnNycsICctcGh0JywgJzAuNScsICctbnQn

> <r_lp_tautomer_probability>
1

> <r_epik_Ionization_Penalty>
  0.0002

> <r_epik_Ionization_Penalty_Charging>
  0.0002

> <r_epik_Ionization_Penalty_Neutral>
  0.0000

> <r_epik_State_Penalty>
 -0.0000

> <r_epik_Charging_Adjusted_Penalty>
0.000235511930305026

> <i_epik_Tot_Q>
-1

> <i_epik_Tot_abs_Q>
1

$$$$
