4k3l_ligand
                    3D
 Schrodinger Suite 2020-3.
 46 46  0  0  1  0            999 V2000
    7.0820   -5.2850  -12.0340 N   0  0  0  0  0  0
    8.0100   -4.1660  -12.4340 C   0  0  2  0  0  0
    9.3740   -4.6330  -12.9460 C   0  0  0  0  0  0
   10.0620   -3.8770  -13.6240 O   0  0  0  0  0  0
    8.2330   -3.2130  -11.2510 C   0  0  0  0  0  0
    6.9900   -2.4790  -10.7580 C   0  0  0  0  0  0
    7.2860   -1.7340   -9.4640 C   0  0  0  0  0  0
    6.4680   -1.5160  -11.8120 C   0  0  0  0  0  0
    9.7630   -5.8480  -12.5620 N   0  0  0  0  0  0
   11.0280   -6.4710  -12.9470 C   0  0  2  0  0  0
   10.9230   -7.9790  -12.7190 C   0  0  0  0  0  0
    9.9330   -8.4760  -12.1690 O   0  0  0  0  0  0
   12.1790   -5.9030  -12.1090 C   0  0  0  0  0  0
   11.9180   -5.9430  -10.6320 C   0  0  0  0  0  0
   12.2040   -7.0850   -9.8920 C   0  0  0  0  0  0
   11.3650   -4.8470   -9.9830 C   0  0  0  0  0  0
   11.9500   -7.1310   -8.5360 C   0  0  0  0  0  0
   11.1110   -4.8870   -8.6230 C   0  0  0  0  0  0
   11.3980   -6.0300   -7.8970 C   0  0  0  0  0  0
   11.8400   -8.7450  -13.0390 O   0  5  0  0  0  0
    6.5460   -6.1540  -12.9280 C   0  0  0  0  0  0
    6.6840   -6.0130  -14.1410 O   0  0  0  0  0  0
    5.6740   -7.2780  -12.4110 C   0  0  0  0  0  0
    6.8120   -5.4243  -10.9768 H   0  0  0  0  0  0
    7.4951   -3.6714  -13.2708 H   0  0  0  0  0  0
    8.6207   -3.7798  -10.3917 H   0  0  0  0  0  0
    8.9591   -2.4376  -11.5366 H   0  0  0  0  0  0
    6.2081   -3.2279  -10.5635 H   0  0  0  0  0  0
    7.6625   -2.4421   -8.7111 H   0  0  0  0  0  0
    6.3643   -1.2612   -9.0941 H   0  0  0  0  0  0
    8.0451   -0.9604   -9.6517 H   0  0  0  0  0  0
    6.2585   -2.0672  -12.7406 H   0  0  0  0  0  0
    7.2243   -0.7416  -12.0078 H   0  0  0  0  0  0
    5.5434   -1.0424  -11.4502 H   0  0  0  0  0  0
    9.0590   -6.3885  -11.9122 H   0  0  0  0  0  0
   11.1885   -6.2387  -14.0102 H   0  0  0  0  0  0
   13.0927   -6.4854  -12.2985 H   0  0  0  0  0  0
   12.3501   -4.8522  -12.3855 H   0  0  0  0  0  0
   12.6341   -7.9546  -10.3889 H   0  0  0  0  0  0
   11.1287   -3.9466  -10.5500 H   0  0  0  0  0  0
   12.1829   -8.0315   -7.9677 H   0  0  0  0  0  0
   10.6845   -4.0174   -8.1231 H   0  0  0  0  0  0
   11.1912   -6.0650   -6.8274 H   0  0  0  0  0  0
    5.6626   -7.2571  -11.3113 H   0  0  0  0  0  0
    6.0763   -8.2422  -12.7552 H   0  0  0  0  0  0
    4.6494   -7.1516  -12.7908 H   0  0  0  0  0  0
  1  2  1  0  0  0
  1 21  1  0  0  0
  1 24  1  0  0  0
  2  3  1  0  0  0
  2  5  1  0  0  0
  2 25  1  0  0  0
  3  4  2  0  0  0
  3  9  1  0  0  0
  5  6  1  0  0  0
  5 26  1  0  0  0
  5 27  1  0  0  0
  6  7  1  0  0  0
  6  8  1  0  0  0
  6 28  1  0  0  0
  7 29  1  0  0  0
  7 30  1  0  0  0
  7 31  1  0  0  0
  8 32  1  0  0  0
  8 33  1  0  0  0
  8 34  1  0  0  0
  9 10  1  0  0  0
  9 35  1  0  0  0
 10 11  1  0  0  0
 10 13  1  0  0  0
 10 36  1  0  0  0
 11 12  2  0  0  0
 11 20  1  0  0  0
 13 14  1  0  0  0
 13 37  1  0  0  0
 13 38  1  0  0  0
 14 15  2  0  0  0
 14 16  1  0  0  0
 15 17  1  0  0  0
 15 39  1  0  0  0
 16 18  2  0  0  0
 16 40  1  0  0  0
 17 19  2  0  0  0
 17 41  1  0  0  0
 18 19  1  0  0  0
 18 42  1  0  0  0
 19 43  1  0  0  0
 21 22  2  0  0  0
 21 23  1  0  0  0
 23 44  1  0  0  0
 23 45  1  0  0  0
 23 46  1  0  0  0
M  CHG  1  20  -1
M  END
> <s_m_source_file>
../4k3l_ligand.sdf

> <i_m_source_file_index>
1

> <s_epik_input>
W0NIM11bQ0hdKFtDSDNdKVtDSDJdW0NASF0oW05IXUMoPU8pW0NIM10pQyg9TylbTkhdW0NASF0oQyg9TylbT0hdKVtDSDJdYzFbY0hdW2NIXVtjSF1bY0hdW2NIXTE=

> <s_epik_cmdline>
J2VwaWtfYXBwJywgJy1pbWFlJywgJ2xpZ2FuZF9wcm8ubWFlJywgJy1vbWFlJywgJ2xpZ2FuZF9wcmVwLm1hZScsICctbXMnLCAnMScsICctcGgnLCAnNycsICctcGh0JywgJzAuNScsICctbnQn

> <r_lp_tautomer_probability>
1

> <r_epik_Ionization_Penalty>
  0.0002

> <r_epik_Ionization_Penalty_Charging>
  0.0002

> <r_epik_Ionization_Penalty_Neutral>
  0.0000

> <r_epik_State_Penalty>
 -0.0000

> <r_epik_Charging_Adjusted_Penalty>
0.000183581990995487

> <i_epik_Tot_Q>
-1

> <i_epik_Tot_abs_Q>
1

$$$$
