4k3m_ligand
                    3D
 Schrodinger Suite 2020-3.
 54 54  0  0  1  0            999 V2000
    4.5050   -7.9690  -12.9220 N   0  3  0  0  0  0
    5.6810   -7.5810  -12.0950 C   0  0  2  0  0  0
    6.4020   -6.4190  -12.7850 C   0  0  0  0  0  0
    6.4230   -6.3440  -14.0210 O   0  0  0  0  0  0
    6.6250   -8.7780  -11.9310 C   0  0  0  0  0  0
    6.9250   -9.1070  -10.4640 C   0  0  0  0  0  0
    5.9670   -9.2900   -9.6770 O   0  5  0  0  0  0
    8.1200   -9.2100  -10.1020 O   0  0  0  0  0  0
    6.9830   -5.5160  -11.9900 N   0  0  0  0  0  0
    7.7360   -4.3640  -12.5160 C   0  0  2  0  0  0
    9.0830   -4.7740  -13.1170 C   0  0  0  0  0  0
    9.6850   -4.0200  -13.8830 O   0  0  0  0  0  0
    7.9710   -3.3160  -11.4160 C   0  0  0  0  0  0
    6.8370   -2.3740  -11.0020 C   0  0  0  0  0  0
    7.2140   -1.6070   -9.7430 C   0  0  0  0  0  0
    6.4870   -1.4020  -12.1190 C   0  0  0  0  0  0
    9.5430   -5.9700  -12.7510 N   0  0  0  0  0  0
   10.8580   -6.4770  -13.1450 C   0  0  2  0  0  0
   10.9180   -7.9920  -12.9480 C   0  0  0  0  0  0
   10.0060   -8.6010  -12.3900 O   0  5  0  0  0  0
   11.9750   -5.8020  -12.3290 C   0  0  0  0  0  0
   11.7880   -5.9090  -10.8380 C   0  0  0  0  0  0
   12.1670   -7.0640  -10.1500 C   0  0  0  0  0  0
   11.2220   -4.8590  -10.1230 C   0  0  0  0  0  0
   11.9880   -7.1640   -8.7770 C   0  0  0  0  0  0
   11.0380   -4.9530   -8.7540 C   0  0  0  0  0  0
   11.4250   -6.1040   -8.0800 C   0  0  0  0  0  0
   11.8910   -8.6430  -13.3210 O   0  0  0  0  0  0
    3.8342   -7.1044  -13.0339 H   0  0  0  0  0  0
    3.9650   -8.7907  -12.4288 H   0  0  0  0  0  0
    4.8472   -8.2985  -13.9142 H   0  0  0  0  0  0
    5.3223   -7.2707  -11.1025 H   0  0  0  0  0  0
    6.1695   -9.6693  -12.3871 H   0  0  0  0  0  0
    7.5823   -8.5607  -12.4274 H   0  0  0  0  0  0
    6.8825   -5.6578  -10.9038 H   0  0  0  0  0  0
    7.0915   -3.9644  -13.3129 H   0  0  0  0  0  0
    8.2508   -3.8227  -10.4806 H   0  0  0  0  0  0
    8.7814   -2.6382  -11.7224 H   0  0  0  0  0  0
    5.9466   -2.9853  -10.7934 H   0  0  0  0  0  0
    7.4651   -2.3179   -8.9420 H   0  0  0  0  0  0
    6.3657   -0.9824   -9.4263 H   0  0  0  0  0  0
    8.0837   -0.9663   -9.9506 H   0  0  0  0  0  0
    6.2161   -1.9656  -13.0240 H   0  0  0  0  0  0
    7.3549   -0.7608  -12.3324 H   0  0  0  0  0  0
    5.6369   -0.7769  -11.8081 H   0  0  0  0  0  0
    8.8820   -6.5851  -12.1227 H   0  0  0  0  0  0
   10.9625   -6.2248  -14.2106 H   0  0  0  0  0  0
   12.9404   -6.2703  -12.5715 H   0  0  0  0  0  0
   12.0144   -4.7311  -12.5771 H   0  0  0  0  0  0
   12.6085   -7.8966  -10.6976 H   0  0  0  0  0  0
   10.9198   -3.9518  -10.6463 H   0  0  0  0  0  0
   12.2878   -8.0695   -8.2495 H   0  0  0  0  0  0
   10.5898   -4.1244   -8.2057 H   0  0  0  0  0  0
   11.2863   -6.1750   -7.0012 H   0  0  0  0  0  0
  1  2  1  0  0  0
  1 29  1  0  0  0
  1 30  1  0  0  0
  1 31  1  0  0  0
  2  3  1  0  0  0
  2  5  1  0  0  0
  2 32  1  0  0  0
  3  4  2  0  0  0
  3  9  1  0  0  0
  5  6  1  0  0  0
  5 33  1  0  0  0
  5 34  1  0  0  0
  6  7  1  0  0  0
  6  8  2  0  0  0
  9 10  1  0  0  0
  9 35  1  0  0  0
 10 11  1  0  0  0
 10 13  1  0  0  0
 10 36  1  0  0  0
 11 12  2  0  0  0
 11 17  1  0  0  0
 13 14  1  0  0  0
 13 37  1  0  0  0
 13 38  1  0  0  0
 14 15  1  0  0  0
 14 16  1  0  0  0
 14 39  1  0  0  0
 15 40  1  0  0  0
 15 41  1  0  0  0
 15 42  1  0  0  0
 16 43  1  0  0  0
 16 44  1  0  0  0
 16 45  1  0  0  0
 17 18  1  0  0  0
 17 46  1  0  0  0
 18 19  1  0  0  0
 18 21  1  0  0  0
 18 47  1  0  0  0
 19 20  1  0  0  0
 19 28  2  0  0  0
 21 22  1  0  0  0
 21 48  1  0  0  0
 21 49  1  0  0  0
 22 23  2  0  0  0
 22 24  1  0  0  0
 23 25  1  0  0  0
 23 50  1  0  0  0
 24 26  2  0  0  0
 24 51  1  0  0  0
 25 27  2  0  0  0
 25 52  1  0  0  0
 26 27  1  0  0  0
 26 53  1  0  0  0
 27 54  1  0  0  0
M  CHG  3   1   1   7  -1  20  -1
M  END
> <s_m_source_file>
../4k3m_ligand.sdf

> <i_m_source_file_index>
1

> <s_epik_input>
W09IXUMoPU8pW0NIMl1bQ0BIXShbTkgzK10pQyg9TylbTkhdW0NAQEhdKFtDSDJdW0NIXShbQ0gzXSlbQ0gzXSlDKD1PKVtOSF1bQ0BIXShDKD1PKVtPSF0pW0NIMl1jMVtjSF1bY0hdW2NIXVtjSF1bY0hdMQ==

> <s_epik_cmdline>
J2VwaWtfYXBwJywgJy1pbWFlJywgJ2xpZ2FuZF9wcm8ubWFlJywgJy1vbWFlJywgJ2xpZ2FuZF9wcmVwLm1hZScsICctbXMnLCAnMScsICctcGgnLCAnNycsICctcGh0JywgJzAuNScsICctbnQn

> <r_epik_Ionization_Penalty>
  0.0260

> <r_epik_Ionization_Penalty_Charging>
  0.0260

> <r_epik_Ionization_Penalty_Neutral>
  0.0000

> <r_epik_State_Penalty>
  0.0154

> <r_epik_Charging_Adjusted_Penalty>
0.0413897263154186

> <i_epik_Tot_Q>
-1

> <i_epik_Tot_abs_Q>
3

$$$$
