4k3n_ligand
                    3D
 Schrodinger Suite 2020-3.
 28 29  0  0  1  0            999 V2000
   88.0050   75.9660   29.9400 O   0  0  0  0  0  0
   87.3490   74.6510   30.1380 P   0  0  0  0  0  0
   87.1840   73.8670   28.7390 O   0  5  0  0  0  0
   88.2430   73.7570   31.1400 O   0  5  0  0  0  0
   85.7340   75.0450   30.8620 C   0  0  1  0  0  0
   84.9780   75.8350   29.9120 N   0  3  0  0  0  0
   84.8980   73.8610   31.1190 C   0  0  0  0  0  0
   83.8510   74.0310   32.0000 C   0  0  0  0  0  0
   83.0190   72.9710   32.2700 C   0  0  0  0  0  0
   83.1730   71.7230   31.6810 C   0  0  0  0  0  0
   84.2360   71.5780   30.7820 C   0  0  0  0  0  0
   85.0990   72.6370   30.4940 C   0  0  0  0  0  0
   82.3190   70.7540   32.0020 N   0  0  0  0  0  0
   82.3840   69.4700   31.4730 N   0  0  0  0  0  0
   81.3430   68.8530   32.0730 C   0  0  0  0  0  0
   80.6920   69.7540   32.9100 C   0  0  0  0  0  0
   81.3320   70.9720   32.8640 C   0  0  0  0  0  0
   85.7184   75.5796   31.8233 H   0  0  0  0  0  0
   85.5399   76.7478   29.6649 H   0  0  0  0  0  0
   84.0083   76.1094   30.3528 H   0  0  0  0  0  0
   84.8118   75.2477   28.9969 H   0  0  0  0  0  0
   83.6849   74.9966   32.4776 H   0  0  0  0  0  0
   82.2026   73.1163   32.9774 H   0  0  0  0  0  0
   84.3938   70.6156   30.2953 H   0  0  0  0  0  0
   85.9192   72.5051   29.7884 H   0  0  0  0  0  0
   81.0574   67.8116   31.9247 H   0  0  0  0  0  0
   79.8102   69.5297   33.5102 H   0  0  0  0  0  0
   81.0890   71.8884   33.4018 H   0  0  0  0  0  0
  1  2  2  0  0  0
  2  3  1  0  0  0
  2  4  1  0  0  0
  2  5  1  0  0  0
  5  6  1  0  0  0
  5  7  1  0  0  0
  5 18  1  0  0  0
  6 19  1  0  0  0
  6 20  1  0  0  0
  6 21  1  0  0  0
  7  8  2  0  0  0
  7 12  1  0  0  0
  8  9  1  0  0  0
  8 22  1  0  0  0
  9 10  2  0  0  0
  9 23  1  0  0  0
 10 11  1  0  0  0
 10 13  1  0  0  0
 11 12  2  0  0  0
 11 24  1  0  0  0
 12 25  1  0  0  0
 13 14  1  0  0  0
 13 17  1  0  0  0
 14 15  2  0  0  0
 15 16  1  0  0  0
 15 26  1  0  0  0
 16 17  2  0  0  0
 16 27  1  0  0  0
 17 28  1  0  0  0
M  CHG  3   3  -1   4  -1   6   1
M  END
> <s_m_source_file>
../4k3n_ligand.sdf

> <i_m_source_file_index>
1

> <s_epik_input>
Tz1QKFtPSF0pKFtPSF0pW0NAQEhdKFtOSDMrXSljMVtjSF1bY0hdYyhbY0hdW2NIXTEpLW4ybltjSF1bY0hdW2NIXTI=

> <s_epik_cmdline>
J2VwaWtfYXBwJywgJy1pbWFlJywgJ2xpZ2FuZF9wcm8ubWFlJywgJy1vbWFlJywgJ2xpZ2FuZF9wcmVwLm1hZScsICctbXMnLCAnMScsICctcGgnLCAnNycsICctcGh0JywgJzAuNScsICctbnQn

> <r_lp_tautomer_probability>
1

> <r_epik_Ionization_Penalty>
  0.0437

> <r_epik_Ionization_Penalty_Charging>
  0.0437

> <r_epik_Ionization_Penalty_Neutral>
  0.0000

> <r_epik_State_Penalty>
 -0.0000

> <r_epik_Charging_Adjusted_Penalty>
0.0437410294980877

> <i_epik_Tot_Q>
-1

> <i_epik_Tot_abs_Q>
3

$$$$
