4k3o_ligand
                    3D
 Schrodinger Suite 2020-3.
 88 88  0  0  1  0            999 V2000
   -3.5710   -8.3800  -12.4820 C   0  0  1  0  0  0
   -3.0330   -8.0190  -13.5260 O   0  0  0  0  0  0
   -4.6260   -9.4640  -12.6540 C   0  0  0  0  0  0
   -2.7200   -8.6680  -11.4590 N   0  3  0  0  0  0
   -1.5010   -7.8460  -11.1080 C   0  0  2  0  0  0
   -0.2870   -8.2140  -11.9600 C   0  0  0  0  0  0
    0.1240   -9.3770  -11.9840 O   0  0  0  0  0  0
   -1.1330   -8.0280   -9.6300 C   0  0  0  0  0  0
    0.0630   -7.1990   -9.1750 C   0  0  0  0  0  0
   -0.1810   -5.7100   -9.3170 C   0  0  0  0  0  0
   -1.2000   -5.2000   -8.8590 O   0  0  0  0  0  0
    0.7430   -5.0060   -9.9640 N   0  0  0  0  0  0
    0.2900   -7.2100  -12.6250 N   0  0  0  0  0  0
    1.5050   -7.3770  -13.4270 C   0  0  2  0  0  0
    2.7270   -6.9350  -12.6270 C   0  0  0  0  0  0
    2.5900   -6.2540  -11.6110 O   0  0  0  0  0  0
    1.3990   -6.5770  -14.7210 C   0  0  0  0  0  0
    3.9200   -7.3100  -13.0920 N   0  0  0  0  0  0
    5.1560   -7.0470  -12.3430 C   0  0  2  0  0  0
    6.0770   -6.0330  -13.0000 C   0  0  0  0  0  0
    6.0930   -5.8920  -14.2250 O   0  0  0  0  0  0
    5.9140   -8.3490  -12.0900 C   0  0  0  0  0  0
    5.4390   -9.0470  -10.8350 C   0  0  0  0  0  0
    4.2210   -9.3070  -10.7320 O   0  0  0  0  0  0
    6.2760   -9.3100   -9.9430 O   0  5  0  0  0  0
    6.8480   -5.3390  -12.1590 N   0  0  0  0  0  0
    7.7780   -4.2890  -12.5920 C   0  0  2  0  0  0
    9.0450   -4.8340  -13.2280 C   0  0  0  0  0  0
    9.6710   -4.1470  -14.0360 O   0  0  0  0  0  0
    8.1630   -3.3820  -11.4050 C   0  0  0  0  0  0
    7.1020   -2.4170  -10.8700 C   0  0  0  0  0  0
    7.5050   -1.8990   -9.4950 C   0  0  0  0  0  0
    6.8700   -1.2500  -11.8240 C   0  0  0  0  0  0
    9.4200   -6.0520  -12.8460 N   0  0  0  0  0  0
   10.6830   -6.6540  -13.2520 C   0  0  2  0  0  0
   10.7000   -8.1380  -12.8940 C   0  0  0  0  0  0
    9.7670   -8.6770  -12.2940 O   0  5  0  0  0  0
   11.8530   -5.9690  -12.5340 C   0  0  0  0  0  0
   11.7450   -6.0020  -11.0240 C   0  0  0  0  0  0
   12.1520   -7.1150  -10.3050 C   0  0  0  0  0  0
   11.2150   -4.9230  -10.3310 C   0  0  0  0  0  0
   12.0480   -7.1490   -8.9240 C   0  0  0  0  0  0
   11.1020   -4.9490   -8.9520 C   0  0  0  0  0  0
   11.5190   -6.0620   -8.2470 C   0  0  0  0  0  0
   11.6910   -8.8110  -13.1610 O   0  0  0  0  0  0
   -3.9105   -7.3523  -12.2858 H   0  0  0  0  0  0
   -3.6475   -7.7667  -14.4027 H   0  0  0  0  0  0
   -5.2931   -9.1975  -13.4870 H   0  0  0  0  0  0
   -5.2133   -9.5542  -11.7283 H   0  0  0  0  0  0
   -4.1338  -10.4235  -12.8710 H   0  0  0  0  0  0
   -3.2736   -8.6607  -10.5085 H   0  0  0  0  0  0
   -2.2783   -9.6627  -11.6185 H   0  0  0  0  0  0
   -1.7772   -6.8020  -11.3173 H   0  0  0  0  0  0
   -1.9862   -7.7344   -9.0009 H   0  0  0  0  0  0
   -0.8841   -9.0827   -9.4413 H   0  0  0  0  0  0
    0.2738   -7.4099   -8.1162 H   0  0  0  0  0  0
    0.9421   -7.4593   -9.7828 H   0  0  0  0  0  0
    1.6403   -5.5063  -10.3571 H   0  0  0  0  0  0
    0.6101   -3.9233  -10.1061 H   0  0  0  0  0  0
   -0.1886   -6.2224  -12.5508 H   0  0  0  0  0  0
    1.5803   -8.4491  -13.6614 H   0  0  0  0  0  0
    0.5143   -6.9075  -15.2849 H   0  0  0  0  0  0
    2.3022   -6.7395  -15.3275 H   0  0  0  0  0  0
    1.3041   -5.5071  -14.4839 H   0  0  0  0  0  0
    3.9640   -7.8279  -14.0614 H   0  0  0  0  0  0
    4.7957   -6.5989  -11.4053 H   0  0  0  0  0  0
    5.7646   -9.0313  -12.9398 H   0  0  0  0  0  0
    6.9867   -8.1329  -11.9775 H   0  0  0  0  0  0
    6.7598   -5.5896  -11.0916 H   0  0  0  0  0  0
    7.2111   -3.7488  -13.3646 H   0  0  0  0  0  0
    8.4452   -4.0053  -10.5437 H   0  0  0  0  0  0
    9.0131   -2.7451  -11.6908 H   0  0  0  0  0  0
    6.1553   -2.9703  -10.7824 H   0  0  0  0  0  0
    7.6693   -2.7492   -8.8166 H   0  0  0  0  0  0
    6.7041   -1.2600   -9.0947 H   0  0  0  0  0  0
    8.4325   -1.3139   -9.5810 H   0  0  0  0  0  0
    6.5799   -1.6364  -12.8122 H   0  0  0  0  0  0
    7.7956   -0.6629  -11.9171 H   0  0  0  0  0  0
    6.0672   -0.6090  -11.4308 H   0  0  0  0  0  0
    8.7293   -6.6087  -12.1956 H   0  0  0  0  0  0
   10.7388   -6.5092  -14.3410 H   0  0  0  0  0  0
   12.7938   -6.4701  -12.8056 H   0  0  0  0  0  0
   11.9001   -4.9122  -12.8355 H   0  0  0  0  0  0
   12.5599   -7.9763  -10.8341 H   0  0  0  0  0  0
   10.8829   -4.0423  -10.8807 H   0  0  0  0  0  0
   12.3812   -8.0278   -8.3719 H   0  0  0  0  0  0
   10.6846   -4.0926   -8.4225 H   0  0  0  0  0  0
   11.4319   -6.0847   -7.1607 H   0  0  0  0  0  0
  1  2  1  0  0  0
  1  3  1  0  0  0
  1  4  1  0  0  0
  1 46  1  0  0  0
  2 47  1  0  0  0
  3 48  1  0  0  0
  3 49  1  0  0  0
  3 50  1  0  0  0
  4  5  1  0  0  0
  4 51  1  0  0  0
  4 52  1  0  0  0
  5  6  1  0  0  0
  5  8  1  0  0  0
  5 53  1  0  0  0
  6  7  2  0  0  0
  6 13  1  0  0  0
  8  9  1  0  0  0
  8 54  1  0  0  0
  8 55  1  0  0  0
  9 10  1  0  0  0
  9 56  1  0  0  0
  9 57  1  0  0  0
 10 11  2  0  0  0
 10 12  1  0  0  0
 12 58  1  0  0  0
 12 59  1  0  0  0
 13 14  1  0  0  0
 13 60  1  0  0  0
 14 15  1  0  0  0
 14 17  1  0  0  0
 14 61  1  0  0  0
 15 16  2  0  0  0
 15 18  1  0  0  0
 17 62  1  0  0  0
 17 63  1  0  0  0
 17 64  1  0  0  0
 18 19  1  0  0  0
 18 65  1  0  0  0
 19 20  1  0  0  0
 19 22  1  0  0  0
 19 66  1  0  0  0
 20 21  2  0  0  0
 20 26  1  0  0  0
 22 23  1  0  0  0
 22 67  1  0  0  0
 22 68  1  0  0  0
 23 24  2  0  0  0
 23 25  1  0  0  0
 26 27  1  0  0  0
 26 69  1  0  0  0
 27 28  1  0  0  0
 27 30  1  0  0  0
 27 70  1  0  0  0
 28 29  2  0  0  0
 28 34  1  0  0  0
 30 31  1  0  0  0
 30 71  1  0  0  0
 30 72  1  0  0  0
 31 32  1  0  0  0
 31 33  1  0  0  0
 31 73  1  0  0  0
 32 74  1  0  0  0
 32 75  1  0  0  0
 32 76  1  0  0  0
 33 77  1  0  0  0
 33 78  1  0  0  0
 33 79  1  0  0  0
 34 35  1  0  0  0
 34 80  1  0  0  0
 35 36  1  0  0  0
 35 38  1  0  0  0
 35 81  1  0  0  0
 36 37  1  0  0  0
 36 45  2  0  0  0
 38 39  1  0  0  0
 38 82  1  0  0  0
 38 83  1  0  0  0
 39 40  2  0  0  0
 39 41  1  0  0  0
 40 42  1  0  0  0
 40 84  1  0  0  0
 41 43  2  0  0  0
 41 85  1  0  0  0
 42 44  2  0  0  0
 42 86  1  0  0  0
 43 44  1  0  0  0
 43 87  1  0  0  0
 44 88  1  0  0  0
M  CHG  3   4   1  25  -1  37  -1
M  END
> <s_m_source_file>
../4k3o_ligand.sdf

> <i_m_source_file_index>
1

> <s_epik_input>
Tz1DKFtOSDJdKVtDSDJdW0NIMl1bQ0BIXShbTkgyK11bQ0BASF0oW09IXSlbQ0gzXSlDKD1PKVtOSF1bQ0BASF0oW0NIM10pQyg9TylbTkhdW0NAQEhdKFtDSDJdQyg9TylbT0hdKUMoPU8pW05IXVtDQEBIXShbQ0gyXVtDSF0oW0NIM10pW0NIM10pQyg9TylbTkhdW0NASF0oQyg9TylbT0hdKVtDSDJdYzFbY0hdW2NIXVtjSF1bY0hdW2NIXTE=

> <s_epik_cmdline>
J2VwaWtfYXBwJywgJy1pbWFlJywgJ2xpZ2FuZF9wcm8ubWFlJywgJy1vbWFlJywgJ2xpZ2FuZF9wcmVwLm1hZScsICctbXMnLCAnMScsICctcGgnLCAnNycsICctcGh0JywgJzAuNScsICctbnQn

> <r_epik_Ionization_Penalty>
  0.3843

> <r_epik_Ionization_Penalty_Charging>
  0.2883

> <r_epik_Ionization_Penalty_Neutral>
  0.0960

> <r_epik_State_Penalty>
  0.3327

> <r_epik_Charging_Adjusted_Penalty>
0.620989988565737

> <i_epik_Tot_Q>
-1

> <i_epik_Tot_abs_Q>
3

> <s_epik_Chemistry_Notes>
This compound contains an acetal/aminal-like group ( X-CH(R)-Y where X, Y are N, S, or O) that may be acid/base labile, releasing an aldehyde.

$$$$
