4k3p_ligand
                    3D
 Schrodinger Suite 2020-3.
 92 92  0  0  1  0            999 V2000
   -3.4220   -8.3730  -12.8630 C   0  0  0  0  0  0
   -2.9700   -7.9080  -13.9000 O   0  0  0  0  0  0
   -4.7910   -9.0070  -12.8620 C   0  0  0  0  0  0
   -2.7650   -8.4150  -11.6990 N   0  0  0  0  0  0
   -1.6020   -7.5340  -11.3670 C   0  0  2  0  0  0
   -0.4240   -7.8540  -12.2650 C   0  0  0  0  0  0
    0.0320   -8.9990  -12.3110 O   0  0  0  0  0  0
   -1.1990   -7.7010   -9.8920 C   0  0  0  0  0  0
    0.1080   -7.0150   -9.4930 C   0  0  0  0  0  0
    0.0020   -5.4960   -9.4610 C   0  0  0  0  0  0
   -0.7870   -4.9240   -8.6970 O   0  0  0  0  0  0
    0.7970   -4.8340  -10.2900 N   0  0  0  0  0  0
    0.0710   -6.8450  -12.9790 N   0  0  0  0  0  0
    1.2690   -7.0190  -13.8040 C   0  0  2  0  0  0
    2.5400   -6.8090  -12.9850 C   0  0  0  0  0  0
    2.5230   -6.1150  -11.9730 O   0  0  0  0  0  0
    1.2440   -6.0820  -15.0130 C   0  0  0  0  0  0
    0.0860   -6.3010  -15.9960 C   0  0  0  0  0  0
   -0.0300   -5.1210  -16.9540 C   0  0  0  0  0  0
    0.2360   -7.6270  -16.7450 C   0  0  0  0  0  0
    3.6340   -7.4270  -13.4260 N   0  0  0  0  0  0
    4.9300   -7.3080  -12.7540 C   0  0  2  0  0  0
    5.6430   -6.0420  -13.2220 C   0  0  0  0  0  0
    5.6120   -5.7200  -14.4110 O   0  0  0  0  0  0
    5.7850   -8.5390  -13.0270 C   0  0  0  0  0  0
    6.2680   -5.3220  -12.2850 N   0  0  0  0  0  0
    7.1280   -4.1700  -12.6230 C   0  0  2  0  0  0
    8.3890   -4.5910  -13.3750 C   0  0  0  0  0  0
    8.9220   -3.8290  -14.1830 O   0  0  0  0  0  0
    7.5490   -3.3960  -11.3670 C   0  0  0  0  0  0
    7.0220   -1.9910  -11.0670 C   0  0  0  0  0  0
    7.6920   -1.4570   -9.8040 C   0  0  0  0  0  0
    7.2440   -1.0320  -12.2230 C   0  0  0  0  0  0
    8.8640   -5.7980  -13.0650 N   0  0  0  0  0  0
   10.0870   -6.3640  -13.6180 C   0  0  2  0  0  0
   10.1990   -7.8410  -13.2070 C   0  0  0  0  0  0
    9.4640   -8.3680  -12.3610 O   0  5  0  0  0  0
   11.3160   -5.5840  -13.1270 C   0  0  0  0  0  0
   11.4390   -5.5290  -11.6290 C   0  0  0  0  0  0
   12.0230   -6.5880  -10.9230 C   0  0  0  0  0  0
   10.9630   -4.4310  -10.9210 C   0  0  0  0  0  0
   12.1270   -6.5510   -9.5430 C   0  0  0  0  0  0
   11.0600   -4.3850   -9.5390 C   0  0  0  0  0  0
   11.6400   -5.4490   -8.8500 C   0  0  0  0  0  0
   11.0550   -8.5620  -13.7050 O   0  0  0  0  0  0
   -5.2378   -8.9162  -13.8630 H   0  0  0  0  0  0
   -5.4309   -8.4966  -12.1271 H   0  0  0  0  0  0
   -4.7024  -10.0704  -12.5951 H   0  0  0  0  0  0
   -3.1251   -9.1505  -10.9646 H   0  0  0  0  0  0
   -1.9188   -6.4971  -11.5527 H   0  0  0  0  0  0
   -1.9839   -7.2787   -9.2474 H   0  0  0  0  0  0
   -1.0738   -8.7700   -9.6649 H   0  0  0  0  0  0
    0.4053   -7.3488   -8.4879 H   0  0  0  0  0  0
    0.8954   -7.2782  -10.2146 H   0  0  0  0  0  0
    1.4826   -5.3841  -10.9513 H   0  0  0  0  0  0
    0.7711   -3.7346  -10.3165 H   0  0  0  0  0  0
   -0.4346   -5.8688  -12.9425 H   0  0  0  0  0  0
    1.2311   -8.0632  -14.1478 H   0  0  0  0  0  0
    1.1648   -5.0405  -14.6681 H   0  0  0  0  0  0
    2.1704   -6.2068  -15.5929 H   0  0  0  0  0  0
   -0.8529   -6.3585  -15.4257 H   0  0  0  0  0  0
   -0.1359   -4.1900  -16.3778 H   0  0  0  0  0  0
   -0.9119   -5.2564  -17.5973 H   0  0  0  0  0  0
    0.8741   -5.0652  -17.5781 H   0  0  0  0  0  0
    0.3163   -8.4505  -16.0201 H   0  0  0  0  0  0
    1.1427   -7.5962  -17.3670 H   0  0  0  0  0  0
   -0.6433   -7.7874  -17.3862 H   0  0  0  0  0  0
    3.5383   -8.0452  -14.3308 H   0  0  0  0  0  0
    4.7224   -7.2439  -11.6757 H   0  0  0  0  0  0
    5.2534   -9.4384  -12.6827 H   0  0  0  0  0  0
    6.7400   -8.4489  -12.4886 H   0  0  0  0  0  0
    5.9790   -8.6185  -14.1068 H   0  0  0  0  0  0
    6.1252   -5.6120  -11.2336 H   0  0  0  0  0  0
    6.4923   -3.5521  -13.2742 H   0  0  0  0  0  0
    7.2579   -3.9643  -10.4713 H   0  0  0  0  0  0
    8.6397   -3.2536  -11.3724 H   0  0  0  0  0  0
    5.9341   -2.0585  -10.9190 H   0  0  0  0  0  0
    7.5241   -2.1599   -8.9747 H   0  0  0  0  0  0
    7.2623   -0.4775   -9.5472 H   0  0  0  0  0  0
    8.7724   -1.3487   -9.9799 H   0  0  0  0  0  0
    6.7568   -1.4277  -13.1264 H   0  0  0  0  0  0
    8.3230   -0.9224  -12.4064 H   0  0  0  0  0  0
    6.8129   -0.0512  -11.9737 H   0  0  0  0  0  0
    8.2685   -6.3752  -12.3424 H   0  0  0  0  0  0
    9.9984   -6.2657  -14.7100 H   0  0  0  0  0  0
   12.2300   -6.0589  -13.5131 H   0  0  0  0  0  0
   11.2607   -4.5468  -13.4891 H   0  0  0  0  0  0
   12.4009   -7.4533  -11.4675 H   0  0  0  0  0  0
   10.5091   -3.5982  -11.4581 H   0  0  0  0  0  0
   12.5871   -7.3794   -9.0043 H   0  0  0  0  0  0
   10.6840   -3.5198   -8.9929 H   0  0  0  0  0  0
   11.7119   -5.4166   -7.7629 H   0  0  0  0  0  0
  1  2  2  0  0  0
  1  3  1  0  0  0
  1  4  1  0  0  0
  3 46  1  0  0  0
  3 47  1  0  0  0
  3 48  1  0  0  0
  4  5  1  0  0  0
  4 49  1  0  0  0
  5  6  1  0  0  0
  5  8  1  0  0  0
  5 50  1  0  0  0
  6  7  2  0  0  0
  6 13  1  0  0  0
  8  9  1  0  0  0
  8 51  1  0  0  0
  8 52  1  0  0  0
  9 10  1  0  0  0
  9 53  1  0  0  0
  9 54  1  0  0  0
 10 11  2  0  0  0
 10 12  1  0  0  0
 12 55  1  0  0  0
 12 56  1  0  0  0
 13 14  1  0  0  0
 13 57  1  0  0  0
 14 15  1  0  0  0
 14 17  1  0  0  0
 14 58  1  0  0  0
 15 16  2  0  0  0
 15 21  1  0  0  0
 17 18  1  0  0  0
 17 59  1  0  0  0
 17 60  1  0  0  0
 18 19  1  0  0  0
 18 20  1  0  0  0
 18 61  1  0  0  0
 19 62  1  0  0  0
 19 63  1  0  0  0
 19 64  1  0  0  0
 20 65  1  0  0  0
 20 66  1  0  0  0
 20 67  1  0  0  0
 21 22  1  0  0  0
 21 68  1  0  0  0
 22 23  1  0  0  0
 22 25  1  0  0  0
 22 69  1  0  0  0
 23 24  2  0  0  0
 23 26  1  0  0  0
 25 70  1  0  0  0
 25 71  1  0  0  0
 25 72  1  0  0  0
 26 27  1  0  0  0
 26 73  1  0  0  0
 27 28  1  0  0  0
 27 30  1  0  0  0
 27 74  1  0  0  0
 28 29  2  0  0  0
 28 34  1  0  0  0
 30 31  1  0  0  0
 30 75  1  0  0  0
 30 76  1  0  0  0
 31 32  1  0  0  0
 31 33  1  0  0  0
 31 77  1  0  0  0
 32 78  1  0  0  0
 32 79  1  0  0  0
 32 80  1  0  0  0
 33 81  1  0  0  0
 33 82  1  0  0  0
 33 83  1  0  0  0
 34 35  1  0  0  0
 34 84  1  0  0  0
 35 36  1  0  0  0
 35 38  1  0  0  0
 35 85  1  0  0  0
 36 37  1  0  0  0
 36 45  2  0  0  0
 38 39  1  0  0  0
 38 86  1  0  0  0
 38 87  1  0  0  0
 39 40  2  0  0  0
 39 41  1  0  0  0
 40 42  1  0  0  0
 40 88  1  0  0  0
 41 43  2  0  0  0
 41 89  1  0  0  0
 42 44  2  0  0  0
 42 90  1  0  0  0
 43 44  1  0  0  0
 43 91  1  0  0  0
 44 92  1  0  0  0
M  CHG  1  37  -1
M  END
> <s_m_source_file>
../4k3p_ligand.sdf

> <i_m_source_file_index>
1

> <s_epik_input>
Tz1DKFtOSDJdKVtDSDJdW0NIMl1bQ0BIXShbTkhdQyg9TylbQ0gzXSlDKD1PKVtOSF1bQ0BASF0oW0NIMl1bQ0hdKFtDSDNdKVtDSDNdKUMoPU8pW05IXVtDQEBIXShbQ0gzXSlDKD1PKVtOSF1bQ0BASF0oW0NIMl1bQ0hdKFtDSDNdKVtDSDNdKUMoPU8pW05IXVtDQEhdKEMoPU8pW09IXSlbQ0gyXWMxW2NIXVtjSF1bY0hdW2NIXVtjSF0x

> <s_epik_cmdline>
J2VwaWtfYXBwJywgJy1pbWFlJywgJ2xpZ2FuZF9wcm8ubWFlJywgJy1vbWFlJywgJ2xpZ2FuZF9wcmVwLm1hZScsICctbXMnLCAnMScsICctcGgnLCAnNycsICctcGh0JywgJzAuNScsICctbnQn

> <r_lp_tautomer_probability>
1

> <r_epik_Ionization_Penalty>
  0.0002

> <r_epik_Ionization_Penalty_Charging>
  0.0002

> <r_epik_Ionization_Penalty_Neutral>
  0.0000

> <r_epik_State_Penalty>
 -0.0000

> <r_epik_Charging_Adjusted_Penalty>
0.000178981281922607

> <i_epik_Tot_Q>
-1

> <i_epik_Tot_abs_Q>
1

$$$$
