4k3q_ligand
                    3D
 Schrodinger Suite 2020-3.
 85 85  0  0  1  0            999 V2000
   -3.2100   -8.2930  -12.9970 C   0  0  0  0  0  0
   -2.7470   -7.6390  -13.9210 O   0  0  0  0  0  0
   -4.5030   -9.0510  -13.1910 C   0  0  0  0  0  0
   -2.7350   -8.2720  -11.7470 N   0  0  0  0  0  0
   -1.5580   -7.4560  -11.3110 C   0  0  2  0  0  0
   -0.3050   -7.7500  -12.1350 C   0  0  0  0  0  0
    0.1440   -8.8990  -12.2130 O   0  0  0  0  0  0
   -1.2590   -7.6850   -9.8230 C   0  0  0  0  0  0
   -0.0290   -6.9330   -9.3170 C   0  0  0  0  0  0
   -0.1840   -5.4280   -9.4350 C   0  0  0  0  0  0
   -1.1490   -4.8550   -8.9320 O   0  0  0  0  0  0
    0.7630   -4.7820  -10.1120 N   0  0  0  0  0  0
    0.2590   -6.7010  -12.7300 N   0  0  0  0  0  0
    1.4840   -6.8270  -13.5200 C   0  0  2  0  0  0
    2.7410   -6.6350  -12.6600 C   0  0  0  0  0  0
    2.6740   -6.0670  -11.5660 O   0  0  0  0  0  0
    1.4580   -5.8700  -14.7250 C   0  0  0  0  0  0
    0.3620   -6.1110  -15.7770 C   0  0  0  0  0  0
    0.4220   -5.0740  -16.8890 C   0  0  0  0  0  0
    0.4390   -7.5210  -16.3570 C   0  0  0  0  0  0
    3.8760   -7.1320  -13.1540 N   0  0  0  0  0  0
    5.1530   -7.0440  -12.4370 C   0  0  2  0  0  0
    6.0070   -5.8990  -12.9710 C   0  0  0  0  0  0
    5.9400   -5.5670  -14.1600 O   0  0  0  0  0  0
    5.9290   -8.3640  -12.5330 C   0  0  0  0  0  0
    5.1850   -9.5330  -11.9000 C   0  0  0  0  0  0
    4.6500   -9.3740  -10.7800 O   0  0  0  0  0  0
    5.1450  -10.6190  -12.5210 O   0  5  0  0  0  0
    6.8120   -5.3100  -12.0850 N   0  0  0  0  0  0
    7.6820   -4.1760  -12.4230 C   0  0  2  0  0  0
    8.9610   -4.5870  -13.1520 C   0  0  0  0  0  0
    9.4930   -3.8280  -13.9630 O   0  0  0  0  0  0
    8.0200   -3.3790  -11.1650 C   0  0  0  0  0  0
    9.4390   -5.7920  -12.8500 N   0  0  0  0  0  0
   10.7260   -6.2850  -13.3360 C   0  0  2  0  0  0
   10.7680   -7.8070  -13.2310 C   0  0  0  0  0  0
    9.8320   -8.4350  -12.7250 O   0  5  0  0  0  0
   11.8790   -5.6790  -12.5160 C   0  0  0  0  0  0
   11.7010   -5.8190  -11.0250 C   0  0  0  0  0  0
   12.0030   -7.0180  -10.3780 C   0  0  0  0  0  0
   11.2150   -4.7550  -10.2710 C   0  0  0  0  0  0
   11.8240   -7.1510   -9.0100 C   0  0  0  0  0  0
   11.0350   -4.8800   -8.9040 C   0  0  0  0  0  0
   11.3430   -6.0780   -8.2720 C   0  0  0  0  0  0
   11.7490   -8.4410  -13.6260 O   0  0  0  0  0  0
   -4.8004   -9.0040  -14.2490 H   0  0  0  0  0  0
   -5.2896   -8.5995  -12.5686 H   0  0  0  0  0  0
   -4.3601  -10.1012  -12.8966 H   0  0  0  0  0  0
   -3.2652   -8.9047  -11.0200 H   0  0  0  0  0  0
   -1.8507   -6.4107  -11.4890 H   0  0  0  0  0  0
   -2.1165   -7.3499   -9.2209 H   0  0  0  0  0  0
   -1.0823   -8.7560   -9.6451 H   0  0  0  0  0  0
    0.1389   -7.1757   -8.2573 H   0  0  0  0  0  0
    0.8511   -7.2316   -9.9054 H   0  0  0  0  0  0
    1.6075   -5.3391  -10.5438 H   0  0  0  0  0  0
    0.7009   -3.6912  -10.2396 H   0  0  0  0  0  0
   -0.2223   -5.7187  -12.6145 H   0  0  0  0  0  0
    1.4791   -7.8656  -13.8825 H   0  0  0  0  0  0
    1.3100   -4.8390  -14.3713 H   0  0  0  0  0  0
    2.4123   -5.9379  -15.2679 H   0  0  0  0  0  0
   -0.6099   -6.0069  -15.2725 H   0  0  0  0  0  0
    0.3653   -4.0655  -16.4533 H   0  0  0  0  0  0
   -0.4233   -5.2244  -17.5766 H   0  0  0  0  0  0
    1.3674   -5.1825  -17.4409 H   0  0  0  0  0  0
    0.3943   -8.2564  -15.5402 H   0  0  0  0  0  0
    1.3844   -7.6403  -16.9065 H   0  0  0  0  0  0
   -0.4063   -7.6822  -17.0422 H   0  0  0  0  0  0
    3.8302   -7.6222  -14.1377 H   0  0  0  0  0  0
    4.8790   -6.8399  -11.3914 H   0  0  0  0  0  0
    6.1042   -8.6102  -13.5907 H   0  0  0  0  0  0
    6.8943   -8.2603  -12.0159 H   0  0  0  0  0  0
    6.8048   -5.7116  -11.0609 H   0  0  0  0  0  0
    7.0810   -3.5742  -13.1206 H   0  0  0  0  0  0
    7.0902   -3.0911  -10.6525 H   0  0  0  0  0  0
    8.5804   -2.4744  -11.4436 H   0  0  0  0  0  0
    8.6329   -3.9975  -10.4928 H   0  0  0  0  0  0
    8.8160   -6.4265  -12.2025 H   0  0  0  0  0  0
   10.7946   -5.9697  -14.3876 H   0  0  0  0  0  0
   12.8212   -6.1806  -12.7819 H   0  0  0  0  0  0
   11.9607   -4.6045  -12.7367 H   0  0  0  0  0  0
   12.3843   -7.8602  -10.9555 H   0  0  0  0  0  0
   10.9733   -3.8125  -10.7623 H   0  0  0  0  0  0
   12.0598   -8.0936   -8.5160 H   0  0  0  0  0  0
   10.6522   -4.0398   -8.3247 H   0  0  0  0  0  0
   11.2068   -6.1758   -7.1950 H   0  0  0  0  0  0
  1  2  2  0  0  0
  1  3  1  0  0  0
  1  4  1  0  0  0
  3 46  1  0  0  0
  3 47  1  0  0  0
  3 48  1  0  0  0
  4  5  1  0  0  0
  4 49  1  0  0  0
  5  6  1  0  0  0
  5  8  1  0  0  0
  5 50  1  0  0  0
  6  7  2  0  0  0
  6 13  1  0  0  0
  8  9  1  0  0  0
  8 51  1  0  0  0
  8 52  1  0  0  0
  9 10  1  0  0  0
  9 53  1  0  0  0
  9 54  1  0  0  0
 10 11  2  0  0  0
 10 12  1  0  0  0
 12 55  1  0  0  0
 12 56  1  0  0  0
 13 14  1  0  0  0
 13 57  1  0  0  0
 14 15  1  0  0  0
 14 17  1  0  0  0
 14 58  1  0  0  0
 15 16  2  0  0  0
 15 21  1  0  0  0
 17 18  1  0  0  0
 17 59  1  0  0  0
 17 60  1  0  0  0
 18 19  1  0  0  0
 18 20  1  0  0  0
 18 61  1  0  0  0
 19 62  1  0  0  0
 19 63  1  0  0  0
 19 64  1  0  0  0
 20 65  1  0  0  0
 20 66  1  0  0  0
 20 67  1  0  0  0
 21 22  1  0  0  0
 21 68  1  0  0  0
 22 23  1  0  0  0
 22 25  1  0  0  0
 22 69  1  0  0  0
 23 24  2  0  0  0
 23 29  1  0  0  0
 25 26  1  0  0  0
 25 70  1  0  0  0
 25 71  1  0  0  0
 26 27  2  0  0  0
 26 28  1  0  0  0
 29 30  1  0  0  0
 29 72  1  0  0  0
 30 31  1  0  0  0
 30 33  1  0  0  0
 30 73  1  0  0  0
 31 32  2  0  0  0
 31 34  1  0  0  0
 33 74  1  0  0  0
 33 75  1  0  0  0
 33 76  1  0  0  0
 34 35  1  0  0  0
 34 77  1  0  0  0
 35 36  1  0  0  0
 35 38  1  0  0  0
 35 78  1  0  0  0
 36 37  1  0  0  0
 36 45  2  0  0  0
 38 39  1  0  0  0
 38 79  1  0  0  0
 38 80  1  0  0  0
 39 40  2  0  0  0
 39 41  1  0  0  0
 40 42  1  0  0  0
 40 81  1  0  0  0
 41 43  2  0  0  0
 41 82  1  0  0  0
 42 44  2  0  0  0
 42 83  1  0  0  0
 43 44  1  0  0  0
 43 84  1  0  0  0
 44 85  1  0  0  0
M  CHG  2  28  -1  37  -1
M  END
> <s_m_source_file>
../4k3q_ligand.sdf

> <i_m_source_file_index>
1

> <s_epik_input>
Tz1DKFtOSDJdKVtDSDJdW0NIMl1bQ0BIXShbTkhdQyg9TylbQ0gzXSlDKD1PKVtOSF1bQ0BASF0oW0NIMl1bQ0hdKFtDSDNdKVtDSDNdKUMoPU8pW05IXVtDQEBIXShbQ0gyXUMoPU8pW09IXSlDKD1PKVtOSF1bQ0BASF0oW0NIM10pQyg9TylbTkhdW0NASF0oQyg9TylbT0hdKVtDSDJdYzFbY0hdW2NIXVtjSF1bY0hdW2NIXTE=

> <s_epik_cmdline>
J2VwaWtfYXBwJywgJy1pbWFlJywgJ2xpZ2FuZF9wcm8ubWFlJywgJy1vbWFlJywgJ2xpZ2FuZF9wcmVwLm1hZScsICctbXMnLCAnMScsICctcGgnLCAnNycsICctcGh0JywgJzAuNScsICctbnQn

> <r_lp_tautomer_probability>
1

> <r_epik_Ionization_Penalty>
  0.0015

> <r_epik_Ionization_Penalty_Charging>
  0.0015

> <r_epik_Ionization_Penalty_Neutral>
  0.0000

> <r_epik_State_Penalty>
 -0.0000

> <r_epik_Charging_Adjusted_Penalty>
0.00149513001931313

> <i_epik_Tot_Q>
-2

> <i_epik_Tot_abs_Q>
2

$$$$
