4k3r_ligand
                    3D
 Schrodinger Suite 2020-3.
 87 86  0  0  1  0            999 V2000
   -3.3730   -7.7300  -13.0670 C   0  0  1  0  0  0
   -2.7160   -7.3990  -14.0580 O   0  0  0  0  0  0
   -4.3610   -8.8640  -13.2880 C   0  0  0  0  0  0
   -2.6830   -7.8930  -11.9120 N   0  3  0  0  0  0
   -1.4580   -7.0870  -11.5690 C   0  0  2  0  0  0
   -0.3240   -7.4470  -12.5150 C   0  0  0  0  0  0
   -0.0070   -8.6230  -12.6740 O   0  0  0  0  0  0
   -1.0180   -7.3660  -10.1260 C   0  0  0  0  0  0
    0.2280   -6.6080   -9.6730 C   0  0  0  0  0  0
    0.0400   -5.1030   -9.7170 C   0  0  0  0  0  0
   -0.8720   -4.5660   -9.0780 O   0  0  0  0  0  0
    0.8980   -4.4110  -10.4650 N   0  0  0  0  0  0
    0.2790   -6.4450  -13.1450 N   0  0  0  0  0  0
    1.4640   -6.6830  -13.9640 C   0  0  2  0  0  0
    2.7050   -6.5530  -13.0990 C   0  0  0  0  0  0
    2.7230   -5.7910  -12.1270 O   0  0  0  0  0  0
    1.5310   -5.7150  -15.1460 C   0  0  0  0  0  0
    0.4020   -5.8740  -16.1750 C   0  0  0  0  0  0
    0.3830   -4.7100  -17.1490 C   0  0  0  0  0  0
    0.5160   -7.1990  -16.9160 C   0  0  0  0  0  0
    3.7390   -7.3120  -13.4500 N   0  0  0  0  0  0
    5.0310   -7.1760  -12.8020 C   0  0  2  0  0  0
    5.6200   -5.8570  -13.2380 C   0  0  0  0  0  0
    5.4820   -5.4580  -14.3950 O   0  0  0  0  0  0
    5.9730   -8.3230  -13.1820 C   0  0  0  0  0  0
    5.5490   -9.6460  -12.5840 C   0  0  0  0  0  0
    4.9270   -9.6450  -11.4990 O   0  5  0  0  0  0
    5.8450  -10.6920  -13.1940 O   0  0  0  0  0  0
    6.2690   -5.1830  -12.2980 N   0  0  0  0  0  0
    6.9060   -3.9050  -12.5590 C   0  0  2  0  0  0
    8.0790   -4.0990  -13.5200 C   0  0  0  0  0  0
    9.0000   -4.8780  -13.2470 O   0  0  0  0  0  0
    7.3770   -3.2930  -11.2390 C   0  0  0  0  0  0
    7.9370   -1.8740  -11.2240 C   0  0  0  0  0  0
    7.0230   -0.8920  -11.9350 C   0  0  0  0  0  0
    8.1660   -1.4640   -9.7790 C   0  0  0  0  0  0
    8.0170   -3.4090  -14.6550 N   0  0  0  0  0  0
    9.0390   -3.5280  -15.6930 C   0  0  2  0  0  0
    8.9180   -2.3890  -16.6950 C   0  0  0  0  0  0
    7.8520   -1.7910  -16.8550 O   0  5  0  0  0  0
    8.9160   -4.8660  -16.4040 C   0  0  0  0  0  0
    9.8850   -2.0430  -17.3700 O   0  0  0  0  0  0
   -3.7556   -6.7005  -13.0063 H   0  0  0  0  0  0
   -3.2173   -7.2507  -15.0258 H   0  0  0  0  0  0
   -4.9021   -8.7001  -14.2316 H   0  0  0  0  0  0
   -5.0781   -8.8932  -12.4544 H   0  0  0  0  0  0
   -3.8177   -9.8191  -13.3380 H   0  0  0  0  0  0
   -3.3454   -7.6904  -11.0575 H   0  0  0  0  0  0
   -2.3104   -8.9261  -11.8502 H   0  0  0  0  0  0
   -1.7149   -6.0234  -11.6823 H   0  0  0  0  0  0
   -1.8264   -7.0844   -9.4352 H   0  0  0  0  0  0
   -0.7942   -8.4369  -10.0114 H   0  0  0  0  0  0
    0.4719   -6.8889   -8.6378 H   0  0  0  0  0  0
    1.0719   -6.8634  -10.3307 H   0  0  0  0  0  0
    1.6936   -4.9341  -11.0158 H   0  0  0  0  0  0
    0.8109   -3.3165  -10.5319 H   0  0  0  0  0  0
   -0.1244   -5.4266  -13.0442 H   0  0  0  0  0  0
    1.3695   -7.7089  -14.3495 H   0  0  0  0  0  0
    1.4787   -4.6804  -14.7760 H   0  0  0  0  0  0
    2.4766   -5.8632  -15.6882 H   0  0  0  0  0  0
   -0.5576   -5.8724  -15.6372 H   0  0  0  0  0  0
    0.3003   -3.7659  -16.5905 H   0  0  0  0  0  0
   -0.4780   -4.8123  -17.8259 H   0  0  0  0  0  0
    1.3130   -4.7082  -17.7364 H   0  0  0  0  0  0
    0.5278   -8.0253  -16.1900 H   0  0  0  0  0  0
    1.4468   -7.2125  -17.5020 H   0  0  0  0  0  0
   -0.3442   -7.3166  -17.5914 H   0  0  0  0  0  0
    3.6001   -8.0548  -14.2493 H   0  0  0  0  0  0
    4.8538   -7.2027  -11.7167 H   0  0  0  0  0  0
    5.9896   -8.4367  -14.2760 H   0  0  0  0  0  0
    6.9877   -8.0990  -12.8212 H   0  0  0  0  0  0
    6.3148   -5.6250  -11.2918 H   0  0  0  0  0  0
    6.1484   -3.2580  -13.0254 H   0  0  0  0  0  0
    6.5366   -3.2590  -10.5301 H   0  0  0  0  0  0
    8.1868   -3.9072  -10.8184 H   0  0  0  0  0  0
    8.8894   -1.8533  -11.7740 H   0  0  0  0  0  0
    6.8767   -1.2151  -12.9762 H   0  0  0  0  0  0
    7.4793    0.1088  -11.9223 H   0  0  0  0  0  0
    6.0508   -0.8582  -11.4215 H   0  0  0  0  0  0
    8.8303   -2.1930   -9.2919 H   0  0  0  0  0  0
    7.2025   -1.4346   -9.2491 H   0  0  0  0  0  0
    8.6310   -0.4676   -9.7499 H   0  0  0  0  0  0
    7.1622   -2.7321  -14.7999 H   0  0  0  0  0  0
   10.0081   -3.4668  -15.1763 H   0  0  0  0  0  0
    9.0049   -5.6807  -15.6702 H   0  0  0  0  0  0
    9.7163   -4.9581  -17.1530 H   0  0  0  0  0  0
    7.9377   -4.9273  -16.9032 H   0  0  0  0  0  0
  1  2  1  0  0  0
  1  3  1  0  0  0
  1  4  1  0  0  0
  1 43  1  0  0  0
  2 44  1  0  0  0
  3 45  1  0  0  0
  3 46  1  0  0  0
  3 47  1  0  0  0
  4  5  1  0  0  0
  4 48  1  0  0  0
  4 49  1  0  0  0
  5  6  1  0  0  0
  5  8  1  0  0  0
  5 50  1  0  0  0
  6  7  2  0  0  0
  6 13  1  0  0  0
  8  9  1  0  0  0
  8 51  1  0  0  0
  8 52  1  0  0  0
  9 10  1  0  0  0
  9 53  1  0  0  0
  9 54  1  0  0  0
 10 11  2  0  0  0
 10 12  1  0  0  0
 12 55  1  0  0  0
 12 56  1  0  0  0
 13 14  1  0  0  0
 13 57  1  0  0  0
 14 15  1  0  0  0
 14 17  1  0  0  0
 14 58  1  0  0  0
 15 16  2  0  0  0
 15 21  1  0  0  0
 17 18  1  0  0  0
 17 59  1  0  0  0
 17 60  1  0  0  0
 18 19  1  0  0  0
 18 20  1  0  0  0
 18 61  1  0  0  0
 19 62  1  0  0  0
 19 63  1  0  0  0
 19 64  1  0  0  0
 20 65  1  0  0  0
 20 66  1  0  0  0
 20 67  1  0  0  0
 21 22  1  0  0  0
 21 68  1  0  0  0
 22 23  1  0  0  0
 22 25  1  0  0  0
 22 69  1  0  0  0
 23 24  2  0  0  0
 23 29  1  0  0  0
 25 26  1  0  0  0
 25 70  1  0  0  0
 25 71  1  0  0  0
 26 27  1  0  0  0
 26 28  2  0  0  0
 29 30  1  0  0  0
 29 72  1  0  0  0
 30 31  1  0  0  0
 30 33  1  0  0  0
 30 73  1  0  0  0
 31 32  2  0  0  0
 31 37  1  0  0  0
 33 34  1  0  0  0
 33 74  1  0  0  0
 33 75  1  0  0  0
 34 35  1  0  0  0
 34 36  1  0  0  0
 34 76  1  0  0  0
 35 77  1  0  0  0
 35 78  1  0  0  0
 35 79  1  0  0  0
 36 80  1  0  0  0
 36 81  1  0  0  0
 36 82  1  0  0  0
 37 38  1  0  0  0
 37 83  1  0  0  0
 38 39  1  0  0  0
 38 41  1  0  0  0
 38 84  1  0  0  0
 39 40  1  0  0  0
 39 42  2  0  0  0
 41 85  1  0  0  0
 41 86  1  0  0  0
 41 87  1  0  0  0
M  CHG  3   4   1  27  -1  40  -1
M  END
> <s_m_source_file>
../4k3r_ligand.sdf

> <i_m_source_file_index>
1

> <s_epik_input>
Tz1DKFtOSDJdKVtDSDJdW0NIMl1bQ0BIXShbTkgyK11bQ0BASF0oW09IXSlbQ0gzXSlDKD1PKVtOSF1bQ0BASF0oW0NIMl1bQ0hdKFtDSDNdKVtDSDNdKUMoPU8pW05IXVtDQEBIXShbQ0gyXUMoPU8pW09IXSlDKD1PKVtOSF1bQ0BASF0oW0NIMl1bQ0hdKFtDSDNdKVtDSDNdKUMoPU8pW05IXVtDQEBIXShbQ0gzXSlDKD1PKVtPSF0=

> <s_epik_cmdline>
J2VwaWtfYXBwJywgJy1pbWFlJywgJ2xpZ2FuZF9wcm8ubWFlJywgJy1vbWFlJywgJ2xpZ2FuZF9wcmVwLm1hZScsICctbXMnLCAnMScsICctcGgnLCAnNycsICctcGh0JywgJzAuNScsICctbnQn

> <r_epik_Ionization_Penalty>
  0.3750

> <r_epik_Ionization_Penalty_Charging>
  0.2802

> <r_epik_Ionization_Penalty_Neutral>
  0.0948

> <r_epik_State_Penalty>
  0.3241

> <r_epik_Charging_Adjusted_Penalty>
0.60430877545481

> <i_epik_Tot_Q>
-1

> <i_epik_Tot_abs_Q>
3

> <s_epik_Chemistry_Notes>
This compound contains an acetal/aminal-like group ( X-CH(R)-Y where X, Y are N, S, or O) that may be acid/base labile, releasing an aldehyde.

$$$$
