4k42_ligand
                    3D
 Schrodinger Suite 2020-3.
 90 90  0  0  1  0            999 V2000
   18.1320    0.7140  -73.1980 C   0  0  0  0  0  0
   18.5370    1.2950  -72.0050 C   0  0  0  0  0  0
   17.6100    2.0350  -71.2410 C   0  0  0  0  0  0
   16.2820    2.1900  -71.6790 C   0  0  0  0  0  0
   15.8850    1.6020  -72.8790 C   0  0  0  0  0  0
   16.8000    0.8730  -73.6490 C   0  0  0  0  0  0
   16.4080    0.2240  -74.9570 C   0  0  0  0  0  0
   16.1630    0.9870  -76.1100 O   0  0  0  0  0  0
   15.6010    2.2600  -76.0510 C   0  0  0  0  0  0
   14.5710    2.6920  -77.0690 C   0  0  0  0  0  0
   13.1830    2.8900  -76.6000 C   0  0  1  0  0  0
   12.7000    1.8210  -75.8930 O   0  0  0  0  0  0
   11.3680    1.4740  -76.0730 C   0  0  0  0  0  0
   10.8240    1.5430  -77.1520 O   0  0  0  0  0  0
   10.4940    1.1500  -74.9040 C   0  0  0  0  0  0
    9.2910    0.2760  -75.2400 C   0  0  0  0  0  0
   12.8550    4.2470  -75.8970 C   0  0  1  0  0  0
   13.7580    4.5470  -74.7960 C   0  0  0  0  0  0
   12.5830    5.4120  -76.9200 C   0  0  2  0  0  0
   13.4840    5.4660  -77.9750 O   0  0  0  0  0  0
   12.2390    6.7780  -76.2830 C   0  0  1  0  0  0
   11.1340    6.6690  -75.2960 C   0  0  0  0  0  0
   13.4510    7.5980  -75.7910 C   0  0  0  0  0  0
   13.3100    9.1540  -75.7810 C   0  0  0  0  0  0
   14.5710   10.0170  -76.0630 C   0  0  0  0  0  0
   15.6940    9.5450  -75.8610 O   0  0  0  0  0  0
   14.4280   11.4580  -76.5850 C   0  0  2  0  0  0
   15.1260   11.6410  -77.8920 C   0  0  0  0  0  0
   14.7110   12.4990  -75.4820 C   0  0  2  0  0  0
   13.8850   12.2440  -74.3060 O   0  0  0  0  0  0
   14.4730   12.0940  -73.0470 C   0  0  0  0  0  0
   15.6640   12.1680  -72.9460 O   0  0  0  0  0  0
   13.7070   11.3800  -72.0010 C   0  0  0  0  0  0
   14.7290   13.9770  -75.8440 C   0  0  2  0  0  0
   15.3980   14.8490  -74.8040 C   0  0  0  0  0  0
   13.3580   14.5200  -76.2880 C   0  0  0  0  0  0
   13.1030   14.5930  -77.6710 C   0  0  0  0  0  0
   11.7400   14.8170  -78.1820 N   0  0  0  0  0  0
   10.5760   14.2210  -77.5270 C   0  0  0  0  0  0
   11.5770   15.6010  -79.3380 C   0  0  0  0  0  0
   10.4470   15.7950  -79.7970 O   0  0  0  0  0  0
   18.8409    0.1341  -73.7889 H   0  0  0  0  0  0
   19.5647    1.1805  -71.6602 H   0  0  0  0  0  0
   17.9257    2.4909  -70.3026 H   0  0  0  0  0  0
   15.5704    2.7643  -71.0858 H   0  0  0  0  0  0
   14.8555    1.7103  -73.2203 H   0  0  0  0  0  0
   17.2031   -0.4655  -75.2770 H   0  0  0  0  0  0
   15.4702   -0.3350  -74.8224 H   0  0  0  0  0  0
   15.0855    2.3889  -75.0879 H   0  0  0  0  0  0
   16.3944    3.0159  -76.1462 H   0  0  0  0  0  0
   14.8689    3.6568  -77.5053 H   0  0  0  0  0  0
   14.5020    1.9355  -77.8646 H   0  0  0  0  0  0
   12.6099    2.8006  -77.5346 H   0  0  0  0  0  0
   11.0807    0.6104  -74.1460 H   0  0  0  0  0  0
   10.1023    2.0816  -74.4697 H   0  0  0  0  0  0
    8.7073    0.0888  -74.3266 H   0  0  0  0  0  0
    9.6381   -0.6813  -75.6560 H   0  0  0  0  0  0
    8.6596    0.7899  -75.9798 H   0  0  0  0  0  0
   11.9375    4.1437  -75.2991 H   0  0  0  0  0  0
   13.8648    3.6582  -74.1568 H   0  0  0  0  0  0
   13.3494    5.3783  -74.2028 H   0  0  0  0  0  0
   14.7424    4.8312  -75.1962 H   0  0  0  0  0  0
   11.7207    5.1467  -77.5493 H   0  0  0  0  0  0
   13.7862    4.5411  -78.4881 H   0  0  0  0  0  0
   11.8107    7.4001  -77.0827 H   0  0  0  0  0  0
   10.3161    6.0721  -75.7258 H   0  0  0  0  0  0
   10.7632    7.6745  -75.0482 H   0  0  0  0  0  0
   11.5046    6.1796  -74.3832 H   0  0  0  0  0  0
   13.6849    7.3197  -74.7528 H   0  0  0  0  0  0
   14.3202    7.3880  -76.4316 H   0  0  0  0  0  0
   12.5835    9.4613  -76.5477 H   0  0  0  0  0  0
   12.9606    9.4842  -74.7916 H   0  0  0  0  0  0
   13.3873   11.6589  -76.8794 H   0  0  0  0  0  0
   14.8341   10.8337  -78.5797 H   0  0  0  0  0  0
   16.2142   11.6123  -77.7337 H   0  0  0  0  0  0
   14.8440   12.6119  -78.3255 H   0  0  0  0  0  0
   15.7608   12.3239  -75.2039 H   0  0  0  0  0  0
   12.6355   11.4072  -72.2483 H   0  0  0  0  0  0
   13.8715   11.8677  -71.0288 H   0  0  0  0  0  0
   14.0448   10.3345  -71.9485 H   0  0  0  0  0  0
   15.3890   14.0347  -76.7221 H   0  0  0  0  0  0
   16.3688   14.4114  -74.5281 H   0  0  0  0  0  0
   14.7576   14.9126  -73.9119 H   0  0  0  0  0  0
   15.5540   15.8569  -75.2160 H   0  0  0  0  0  0
   12.5910   14.8446  -75.5694 H   0  0  0  0  0  0
   13.9288   14.4821  -78.3891 H   0  0  0  0  0  0
   10.9038   13.6486  -76.6467 H   0  0  0  0  0  0
   10.0631   13.5493  -78.2310 H   0  0  0  0  0  0
    9.8858   15.0169  -77.2107 H   0  0  0  0  0  0
   12.4549   16.0413  -79.8334 H   0  0  0  0  0  0
  1  2  2  0  0  0
  1  6  1  0  0  0
  1 42  1  0  0  0
  2  3  1  0  0  0
  2 43  1  0  0  0
  3  4  2  0  0  0
  3 44  1  0  0  0
  4  5  1  0  0  0
  4 45  1  0  0  0
  5  6  2  0  0  0
  5 46  1  0  0  0
  6  7  1  0  0  0
  7  8  1  0  0  0
  7 47  1  0  0  0
  7 48  1  0  0  0
  8  9  1  0  0  0
  9 10  1  0  0  0
  9 49  1  0  0  0
  9 50  1  0  0  0
 10 11  1  0  0  0
 10 51  1  0  0  0
 10 52  1  0  0  0
 11 12  1  0  0  0
 11 17  1  0  0  0
 11 53  1  0  0  0
 12 13  1  0  0  0
 13 14  2  0  0  0
 13 15  1  0  0  0
 15 16  1  0  0  0
 15 54  1  0  0  0
 15 55  1  0  0  0
 16 56  1  0  0  0
 16 57  1  0  0  0
 16 58  1  0  0  0
 17 18  1  0  0  0
 17 19  1  0  0  0
 17 59  1  0  0  0
 18 60  1  0  0  0
 18 61  1  0  0  0
 18 62  1  0  0  0
 19 20  1  0  0  0
 19 21  1  0  0  0
 19 63  1  0  0  0
 20 64  1  0  0  0
 21 22  1  0  0  0
 21 23  1  0  0  0
 21 65  1  0  0  0
 22 66  1  0  0  0
 22 67  1  0  0  0
 22 68  1  0  0  0
 23 24  1  0  0  0
 23 69  1  0  0  0
 23 70  1  0  0  0
 24 25  1  0  0  0
 24 71  1  0  0  0
 24 72  1  0  0  0
 25 26  2  0  0  0
 25 27  1  0  0  0
 27 28  1  0  0  0
 27 29  1  0  0  0
 27 73  1  0  0  0
 28 74  1  0  0  0
 28 75  1  0  0  0
 28 76  1  0  0  0
 29 30  1  0  0  0
 29 34  1  0  0  0
 29 77  1  0  0  0
 30 31  1  0  0  0
 31 32  2  0  0  0
 31 33  1  0  0  0
 33 78  1  0  0  0
 33 79  1  0  0  0
 33 80  1  0  0  0
 34 35  1  0  0  0
 34 36  1  0  0  0
 34 81  1  0  0  0
 35 82  1  0  0  0
 35 83  1  0  0  0
 35 84  1  0  0  0
 36 37  2  0  0  0
 36 85  1  0  0  0
 37 38  1  0  0  0
 37 86  1  0  0  0
 38 39  1  0  0  0
 38 40  1  0  0  0
 39 87  1  0  0  0
 39 88  1  0  0  0
 39 89  1  0  0  0
 40 41  2  0  0  0
 40 90  1  0  0  0
M  END
> <s_m_source_file>
../4k42_ligand.sdf

> <i_m_source_file_index>
1

> <s_epik_input>
W2NIXTFbY0hdW2NIXVtjSF1bY0hdYzFbQ0gyXU9bQ0gyXVtDSDJdW0NAQEhdKE9DKD1PKVtDSDJdW0NIM10pW0NAQEhdKFtDSDNdKVtDQEhdKFtPSF0pW0NAQEhdKFtDSDNdKVtDSDJdW0NIMl1DKD1PKVtDQEhdKFtDSDNdKVtDQEhdKE9DKD1PKVtDSDNdKVtDQEhdKFtDSDNdKS9bQ0hdPVtDSF0vTihbQ0gzXSlbQ0hdPU8=

> <s_epik_cmdline>
J2VwaWtfYXBwJywgJy1pbWFlJywgJ2xpZ2FuZF9wcm8ubWFlJywgJy1vbWFlJywgJ2xpZ2FuZF9wcmVwLm1hZScsICctbXMnLCAnMScsICctcGgnLCAnNycsICctcGh0JywgJzAuNScsICctbnQn

> <r_lp_tautomer_probability>
1

> <r_epik_Ionization_Penalty>
  0.0000

> <r_epik_Ionization_Penalty_Charging>
  0.0000

> <r_epik_Ionization_Penalty_Neutral>
  0.0000

> <r_epik_State_Penalty>
 -0.0000

> <r_epik_Charging_Adjusted_Penalty>
0

> <i_epik_Tot_Q>
0

> <i_epik_Tot_abs_Q>
0

> <s_epik_Chemistry_Notes>
This compound has an ester and may undergo hydrolysis at high or low pH.

$$$$
