4k43_ligand
                    3D
 Schrodinger Suite 2020-3.
 85 86  0  0  1  0            999 V2000
  -30.8980  -19.0530   -4.2310 O   0  0  0  0  0  0
  -32.0030  -18.8060   -3.7540 C   0  0  0  0  0  0
  -32.1480  -17.8920   -2.7130 N   0  0  0  0  0  0
  -30.8990  -17.2540   -2.2370 C   0  0  0  0  0  0
  -33.4100  -17.5760   -2.1280 C   0  0  0  0  0  0
  -33.5710  -16.6200   -1.1860 C   0  0  0  0  0  0
  -34.8620  -16.3220   -0.4880 C   0  0  0  0  0  0
  -35.2830  -14.8180   -0.4820 C   0  0  1  0  0  0
  -34.3230  -14.1750    0.3160 O   0  0  0  0  0  0
  -34.8140  -13.6210    1.5050 C   0  0  0  0  0  0
  -35.2250  -14.1650   -1.9200 C   0  0  1  0  0  0
  -36.3810  -14.7220   -2.7570 C   0  0  0  0  0  0
  -35.2380  -12.6270   -1.9430 C   0  0  0  0  0  0
  -36.1800  -12.0270   -1.4520 O   0  0  0  0  0  0
  -34.1100  -11.7860   -2.5530 C   0  0  0  0  0  0
  -34.2500  -10.2490   -2.3490 C   0  0  0  0  0  0
  -33.0260   -9.3870   -2.7520 C   0  0  2  0  0  0
  -31.9410   -9.4780   -1.6860 C   0  0  0  0  0  0
  -33.3830   -7.8620   -2.9650 C   0  0  2  0  0  0
  -33.7270   -7.3690   -1.6970 O   0  0  0  0  0  0
  -32.8950   -6.3450   -1.2200 C   0  0  0  0  0  0
  -34.5980   -7.5380   -3.8980 C   0  0  2  0  0  0
  -34.4380   -8.1180   -5.2960 C   0  0  0  0  0  0
  -34.8570   -6.0000   -4.0130 C   0  0  2  0  0  0
  -35.8020   -5.7260   -5.1980 C   0  0  1  0  0  0
  -37.2060   -6.2850   -4.9590 C   0  0  0  0  0  0
  -35.8310   -4.1970   -5.3840 C   0  0  0  0  0  0
  -34.5150   -3.6660   -5.4610 O   0  0  0  0  0  0
  -33.7010   -3.9170   -4.3350 C   0  0  1  0  0  0
  -33.6310   -5.3220   -4.2130 O   0  0  0  0  0  0
  -32.3050   -3.2600   -4.5510 C   0  0  0  0  0  0
  -31.2530   -3.9570   -5.1740 C   0  0  0  0  0  0
  -29.9820   -3.4130   -5.3790 C   0  0  0  0  0  0
  -29.6920   -2.1170   -4.9600 C   0  0  0  0  0  0
  -30.7100   -1.3970   -4.3320 C   0  0  0  0  0  0
  -31.9790   -1.9690   -4.1370 C   0  0  0  0  0  0
  -28.4460   -1.5520   -5.1450 O   0  0  0  0  0  0
  -27.3600   -2.1800   -4.4860 C   0  0  0  0  0  0
  -32.8976  -19.3098   -4.1489 H   0  0  0  0  0  0
  -30.0473  -17.6360   -2.8190 H   0  0  0  0  0  0
  -30.7503  -17.4882   -1.1726 H   0  0  0  0  0  0
  -30.9719  -16.1640   -2.3659 H   0  0  0  0  0  0
  -34.2776  -18.1539   -2.4790 H   0  0  0  0  0  0
  -32.7169  -15.9962   -0.8839 H   0  0  0  0  0  0
  -35.6787  -16.8738   -0.9764 H   0  0  0  0  0  0
  -34.7892  -16.6309    0.5652 H   0  0  0  0  0  0
  -36.2779  -14.6742   -0.0354 H   0  0  0  0  0  0
  -33.9896  -13.1436    2.0549 H   0  0  0  0  0  0
  -35.2564  -14.4152    2.1242 H   0  0  0  0  0  0
  -35.5816  -12.8691    1.2696 H   0  0  0  0  0  0
  -34.2578  -14.4236   -2.3756 H   0  0  0  0  0  0
  -36.3569  -15.8214   -2.7298 H   0  0  0  0  0  0
  -36.2793  -14.3786   -3.7971 H   0  0  0  0  0  0
  -37.3368  -14.3659   -2.3451 H   0  0  0  0  0  0
  -33.1502  -12.0772   -2.1014 H   0  0  0  0  0  0
  -34.0712  -11.9571   -3.6389 H   0  0  0  0  0  0
  -35.0932   -9.8749   -2.9482 H   0  0  0  0  0  0
  -34.4327  -10.0354   -1.2855 H   0  0  0  0  0  0
  -32.6540   -9.8160   -3.6941 H   0  0  0  0  0  0
  -31.6764  -10.5329   -1.5212 H   0  0  0  0  0  0
  -32.3123   -9.0421   -0.7468 H   0  0  0  0  0  0
  -31.0511   -8.9247   -2.0205 H   0  0  0  0  0  0
  -32.5008   -7.3424   -3.3672 H   0  0  0  0  0  0
  -33.2407   -6.0248   -0.2260 H   0  0  0  0  0  0
  -32.9300   -5.4914   -1.9129 H   0  0  0  0  0  0
  -31.8620   -6.7159   -1.1471 H   0  0  0  0  0  0
  -35.4696   -8.0331   -3.4450 H   0  0  0  0  0  0
  -34.2553   -9.2004   -5.2252 H   0  0  0  0  0  0
  -33.5871   -7.6346   -5.7983 H   0  0  0  0  0  0
  -35.3559   -7.9382   -5.8748 H   0  0  0  0  0  0
  -35.2532   -5.5701   -3.0812 H   0  0  0  0  0  0
  -35.4445   -6.2358   -6.1048 H   0  0  0  0  0  0
  -37.1493   -7.3760   -4.8306 H   0  0  0  0  0  0
  -37.8460   -6.0501   -5.8223 H   0  0  0  0  0  0
  -37.6321   -5.8307   -4.0523 H   0  0  0  0  0  0
  -36.3647   -3.9508   -6.3138 H   0  0  0  0  0  0
  -36.3480   -3.7336   -4.5308 H   0  0  0  0  0  0
  -34.1889   -3.5451   -3.4220 H   0  0  0  0  0  0
  -31.4394   -4.9754   -5.5148 H   0  0  0  0  0  0
  -29.2120   -4.0076   -5.8705 H   0  0  0  0  0  0
  -30.5186   -0.3802   -3.9892 H   0  0  0  0  0  0
  -32.7449   -1.3750   -3.6383 H   0  0  0  0  0  0
  -26.4303   -1.6374   -4.7126 H   0  0  0  0  0  0
  -27.2718   -3.2198   -4.8338 H   0  0  0  0  0  0
  -27.5349   -2.1702   -3.4000 H   0  0  0  0  0  0
  1  2  2  0  0  0
  2  3  1  0  0  0
  2 39  1  0  0  0
  3  4  1  0  0  0
  3  5  1  0  0  0
  4 40  1  0  0  0
  4 41  1  0  0  0
  4 42  1  0  0  0
  5  6  2  0  0  0
  5 43  1  0  0  0
  6  7  1  0  0  0
  6 44  1  0  0  0
  7  8  1  0  0  0
  7 45  1  0  0  0
  7 46  1  0  0  0
  8  9  1  0  0  0
  8 11  1  0  0  0
  8 47  1  0  0  0
  9 10  1  0  0  0
 10 48  1  0  0  0
 10 49  1  0  0  0
 10 50  1  0  0  0
 11 12  1  0  0  0
 11 13  1  0  0  0
 11 51  1  0  0  0
 12 52  1  0  0  0
 12 53  1  0  0  0
 12 54  1  0  0  0
 13 14  2  0  0  0
 13 15  1  0  0  0
 15 16  1  0  0  0
 15 55  1  0  0  0
 15 56  1  0  0  0
 16 17  1  0  0  0
 16 57  1  0  0  0
 16 58  1  0  0  0
 17 18  1  0  0  0
 17 19  1  0  0  0
 17 59  1  0  0  0
 18 60  1  0  0  0
 18 61  1  0  0  0
 18 62  1  0  0  0
 19 20  1  0  0  0
 19 22  1  0  0  0
 19 63  1  0  0  0
 20 21  1  0  0  0
 21 64  1  0  0  0
 21 65  1  0  0  0
 21 66  1  0  0  0
 22 23  1  0  0  0
 22 24  1  0  0  0
 22 67  1  0  0  0
 23 68  1  0  0  0
 23 69  1  0  0  0
 23 70  1  0  0  0
 24 25  1  0  0  0
 24 30  1  0  0  0
 24 71  1  0  0  0
 25 26  1  0  0  0
 25 27  1  0  0  0
 25 72  1  0  0  0
 26 73  1  0  0  0
 26 74  1  0  0  0
 26 75  1  0  0  0
 27 28  1  0  0  0
 27 76  1  0  0  0
 27 77  1  0  0  0
 28 29  1  0  0  0
 29 30  1  0  0  0
 29 31  1  0  0  0
 29 78  1  0  0  0
 31 32  2  0  0  0
 31 36  1  0  0  0
 32 33  1  0  0  0
 32 79  1  0  0  0
 33 34  2  0  0  0
 33 80  1  0  0  0
 34 35  1  0  0  0
 34 37  1  0  0  0
 35 36  2  0  0  0
 35 81  1  0  0  0
 36 82  1  0  0  0
 37 38  1  0  0  0
 38 83  1  0  0  0
 38 84  1  0  0  0
 38 85  1  0  0  0
M  END
> <s_m_source_file>
../4k43_ligand.sdf

> <i_m_source_file_index>
1

> <s_epik_input>
Tz1bQ0hdTihbQ0gzXSkvW0NIXT1bQ0hdL1tDSDJdW0NAQEhdKE9bQ0gzXSlbQ0BASF0oW0NIM10pQyg9TylbQ0gyXVtDSDJdW0NASF0oW0NIM10pW0NASF0oT1tDSDNdKVtDQEhdKFtDSDNdKVtDQEBIXTFbQ0BASF0oW0NIM10pW0NIMl1PW0NAQEhdKE8xKWMyW2NIXVtjSF1jKFtjSF1bY0hdMilPW0NIM10=

> <s_epik_cmdline>
J2VwaWtfYXBwJywgJy1pbWFlJywgJ2xpZ2FuZF9wcm8ubWFlJywgJy1vbWFlJywgJ2xpZ2FuZF9wcmVwLm1hZScsICctbXMnLCAnMScsICctcGgnLCAnNycsICctcGh0JywgJzAuNScsICctbnQn

> <r_lp_tautomer_probability>
1

> <r_epik_Ionization_Penalty>
  0.0000

> <r_epik_Ionization_Penalty_Charging>
  0.0000

> <r_epik_Ionization_Penalty_Neutral>
  0.0000

> <r_epik_State_Penalty>
 -0.0000

> <r_epik_Charging_Adjusted_Penalty>
0

> <i_epik_Tot_Q>
0

> <i_epik_Tot_abs_Q>
0

> <s_epik_Chemistry_Notes>
This compound contains an acetal/aminal-like group ( X-CH(R)-Y where X, Y are N, S, or O) that may be acid/base labile, releasing an aldehyde.

$$$$
