4k4j_ligand
                    3D
 Schrodinger Suite 2020-3.
 43 44  0  0  1  0            999 V2000
   66.0190   46.3520   29.8460 C   0  0  0  0  0  0
   67.4210   46.2460   30.4540 C   0  0  0  0  0  0
   67.4070   45.9490   31.9570 C   0  0  0  0  0  0
   66.4150   46.8440   32.7070 C   0  0  0  0  0  0
   66.5840   47.0020   34.0790 C   0  0  0  0  0  0
   65.7030   47.7800   34.8220 C   0  0  0  0  0  0
   64.6340   48.4260   34.2060 C   0  0  0  0  0  0
   64.4620   48.2780   32.8360 C   0  0  0  0  0  0
   65.3440   47.4940   32.0990 C   0  0  0  0  0  0
   65.1640   47.3360   30.6470 C   0  0  0  0  0  0
   64.1810   48.0770   30.0060 C   0  0  0  0  0  0
   63.9580   47.9580   28.5570 C   0  0  0  0  0  0
   65.0840   48.2970   27.5800 C   0  0  0  0  0  0
   62.7160   47.5710   28.0620 C   0  0  0  0  0  0
   61.5930   47.2640   28.9480 C   0  0  0  0  0  0
   60.3680   46.8960   28.3990 C   0  0  0  0  0  0
   59.2110   46.5940   29.2500 C   0  0  0  0  0  0
   59.4240   46.0000   30.6440 C   0  0  0  0  0  0
   57.9330   46.8380   28.7590 C   0  0  0  0  0  0
   56.7200   46.5670   29.5370 C   0  0  0  0  0  0
   55.7760   47.3810   29.4440 O   0  0  0  0  0  0
   56.6850   45.5480   30.2610 O   0  5  0  0  0  0
   66.0956   46.7065   28.8075 H   0  0  0  0  0  0
   65.5370   45.3634   29.8613 H   0  0  0  0  0  0
   67.9743   45.4335   29.9603 H   0  0  0  0  0  0
   67.9566   47.1957   30.3083 H   0  0  0  0  0  0
   67.1171   44.9006   32.1209 H   0  0  0  0  0  0
   68.4101   46.1215   32.3742 H   0  0  0  0  0  0
   67.4183   46.5092   34.5782 H   0  0  0  0  0  0
   65.8505   47.8853   35.8968 H   0  0  0  0  0  0
   63.9446   49.0369   34.7888 H   0  0  0  0  0  0
   63.6326   48.7781   32.3360 H   0  0  0  0  0  0
   63.5506   48.7698   30.5828 H   0  0  0  0  0  0
   65.9855   48.5796   28.1434 H   0  0  0  0  0  0
   64.7737   49.1359   26.9397 H   0  0  0  0  0  0
   65.3029   47.4194   26.9540 H   0  0  0  0  0  0
   62.5578   47.4888   26.9765 H   0  0  0  0  0  0
   61.7110   47.3222   30.0401 H   0  0  0  0  0  0
   60.2531   46.8269   27.3072 H   0  0  0  0  0  0
   60.5017   45.8886   30.8343 H   0  0  0  0  0  0
   58.9378   45.0149   30.7010 H   0  0  0  0  0  0
   58.9856   46.6695   31.3987 H   0  0  0  0  0  0
   57.8018   47.2511   27.7480 H   0  0  0  0  0  0
  1  2  1  0  0  0
  1 10  1  0  0  0
  1 23  1  0  0  0
  1 24  1  0  0  0
  2  3  1  0  0  0
  2 25  1  0  0  0
  2 26  1  0  0  0
  3  4  1  0  0  0
  3 27  1  0  0  0
  3 28  1  0  0  0
  4  5  2  0  0  0
  4  9  1  0  0  0
  5  6  1  0  0  0
  5 29  1  0  0  0
  6  7  2  0  0  0
  6 30  1  0  0  0
  7  8  1  0  0  0
  7 31  1  0  0  0
  8  9  2  0  0  0
  8 32  1  0  0  0
  9 10  1  0  0  0
 10 11  2  0  0  0
 11 12  1  0  0  0
 11 33  1  0  0  0
 12 13  1  0  0  0
 12 14  2  0  0  0
 13 34  1  0  0  0
 13 35  1  0  0  0
 13 36  1  0  0  0
 14 15  1  0  0  0
 14 37  1  0  0  0
 15 16  2  0  0  0
 15 38  1  0  0  0
 16 17  1  0  0  0
 16 39  1  0  0  0
 17 18  1  0  0  0
 17 19  2  0  0  0
 18 40  1  0  0  0
 18 41  1  0  0  0
 18 42  1  0  0  0
 19 20  1  0  0  0
 19 43  1  0  0  0
 20 21  2  0  0  0
 20 22  1  0  0  0
M  CHG  1  22  -1
M  END
> <s_m_source_file>
../4k4j_ligand.sdf

> <i_m_source_file_index>
1

> <s_epik_input>
W2NIXTFbY0hdW2NIXVtjSF1jKGMxMilDKFxbQ0gyXVtDSDJdW0NIMl0yKT1bQ0hdXEMoW0NIM10pPVtDSF0vW0NIXT1bQ0hdL0MoW0NIM10pPVtDSF0vQyg9TylbT0hd

> <s_epik_cmdline>
J2VwaWtfYXBwJywgJy1pbWFlJywgJ2xpZ2FuZF9wcm8ubWFlJywgJy1vbWFlJywgJ2xpZ2FuZF9wcmVwLm1hZScsICctbXMnLCAnMScsICctcGgnLCAnNycsICctcGh0JywgJzAuNScsICctbnQn

> <r_lp_tautomer_probability>
1

> <r_epik_Ionization_Penalty>
  0.0055

> <r_epik_Ionization_Penalty_Charging>
  0.0055

> <r_epik_Ionization_Penalty_Neutral>
  0.0000

> <r_epik_State_Penalty>
 -0.0000

> <r_epik_Charging_Adjusted_Penalty>
0.00552613917023357

> <i_epik_Tot_Q>
-1

> <i_epik_Tot_abs_Q>
1

$$$$
