4k5l_ligand
                    3D
 Schrodinger Suite 2020-3.
 31 30  0  0  1  0            999 V2000
   11.4870   10.1340   19.9280 N   0  3  0  0  0  0
   12.4270    9.9260   19.0780 C   0  0  0  0  0  0
   13.0370    8.7340   19.0130 N   0  0  0  0  0  0
   12.8310   10.9260   18.2940 N   0  0  0  0  0  0
   12.7920   10.9930   16.8400 C   0  0  0  0  0  0
   12.0410   12.2180   16.3520 C   0  0  0  0  0  0
   12.5680   12.7800   15.0300 C   0  0  0  0  0  0
   12.6090   11.7710   13.8540 C   0  0  0  0  0  0
   12.5310   12.6560   12.6140 C   0  0  2  0  0  0
   11.1310   12.8580   12.1760 N   0  3  0  0  0  0
   13.3680   11.8250   11.2320 P   0  0  0  0  0  0
   12.4260   10.6750   10.9060 O   0  0  0  0  0  0
   13.2510   12.7380    9.9780 O   0  5  0  0  0  0
   14.8480   11.5420   11.5480 O   0  5  0  0  0  0
   11.1448    9.3172   20.5805 H   0  0  0  0  0  0
   12.7033    7.9094   19.6600 H   0  0  0  0  0  0
   13.8712    8.5805   18.3126 H   0  0  0  0  0  0
   13.2311   11.7714   18.8730 H   0  0  0  0  0  0
   13.8185   11.0383   16.4474 H   0  0  0  0  0  0
   12.2876   10.0988   16.4451 H   0  0  0  0  0  0
   10.9822   11.9621   16.1988 H   0  0  0  0  0  0
   12.1198   13.0192   17.1016 H   0  0  0  0  0  0
   11.9284   13.6139   14.7051 H   0  0  0  0  0  0
   13.5978   13.1406   15.1694 H   0  0  0  0  0  0
   13.5456   11.1958   13.8969 H   0  0  0  0  0  0
   11.7531   11.0842   13.9301 H   0  0  0  0  0  0
   12.8463   13.6401   12.9910 H   0  0  0  0  0  0
   10.5659   13.3609   12.9746 H   0  0  0  0  0  0
   10.6704   11.8829   11.9591 H   0  0  0  0  0  0
   11.1167   13.4802   11.2690 H   0  0  0  0  0  0
   11.0241   11.1290   20.0036 H   0  0  0  0  0  0
  1  2  2  0  0  0
  1 15  1  0  0  0
  1 31  1  0  0  0
  2  3  1  0  0  0
  2  4  1  0  0  0
  3 16  1  0  0  0
  3 17  1  0  0  0
  4  5  1  0  0  0
  4 18  1  0  0  0
  5  6  1  0  0  0
  5 19  1  0  0  0
  5 20  1  0  0  0
  6  7  1  0  0  0
  6 21  1  0  0  0
  6 22  1  0  0  0
  7  8  1  0  0  0
  7 23  1  0  0  0
  7 24  1  0  0  0
  8  9  1  0  0  0
  8 25  1  0  0  0
  8 26  1  0  0  0
  9 10  1  0  0  0
  9 11  1  0  0  0
  9 27  1  0  0  0
 10 28  1  0  0  0
 10 29  1  0  0  0
 10 30  1  0  0  0
 11 12  2  0  0  0
 11 13  1  0  0  0
 11 14  1  0  0  0
M  CHG  4   1   1  10   1  13  -1  14  -1
M  END
> <s_m_source_file>
../4k5l_ligand.sdf

> <i_m_source_file_index>
1

> <s_epik_input>
W0hdL049QygvW05IMl0pW05IXVtDSDJdW0NIMl1bQ0gyXVtDSDJdW0NASF0oW05IMytdKVAoPU8pKFtPSF0pW09IXQ==

> <s_epik_cmdline>
J2VwaWtfYXBwJywgJy1pbWFlJywgJ2xpZ2FuZF9wcm8ubWFlJywgJy1vbWFlJywgJ2xpZ2FuZF9wcmVwLm1hZScsICctbXMnLCAnMScsICctcGgnLCAnNycsICctcGh0JywgJzAuNScsICctbnQn

> <r_lp_tautomer_probability>
1

> <r_epik_Ionization_Penalty>
  0.0882

> <r_epik_Ionization_Penalty_Charging>
  0.0882

> <r_epik_Ionization_Penalty_Neutral>
  0.0000

> <r_epik_State_Penalty>
 -0.0000

> <r_epik_Charging_Adjusted_Penalty>
0.0881665204870077

> <i_epik_Tot_Q>
0

> <i_epik_Tot_abs_Q>
4

> <s_epik_Chemistry_Notes>
This compound has an imine and may undergo hydrolysis.

$$$$
