4k5n_ligand
                    3D
 Schrodinger Suite 2020-3.
 29 29  0  0  1  0            999 V2000
   13.6560   12.4090   10.4350 O   0  0  0  0  0  0
   13.0930   11.7280   11.6170 P   0  0  0  0  0  0
   12.1370   10.5790   10.9550 O   0  5  0  0  0  0
   14.2650   11.1580   12.6060 O   0  5  0  0  0  0
   12.1770   12.9740   12.5360 C   0  0  1  0  0  0
   10.8360   12.8800   11.9380 N   0  3  0  0  0  0
   12.2730   12.6590   14.0000 C   0  0  0  0  0  0
   11.3570   11.7810   14.5540 C   0  0  0  0  0  0
   11.3400   11.4740   15.9240 C   0  0  0  0  0  0
   12.3100   12.0010   16.7810 C   0  0  0  0  0  0
   13.2170   12.9080   16.2230 C   0  0  0  0  0  0
   13.2310   13.2280   14.8540 C   0  0  0  0  0  0
   12.3140   11.6580   18.1380 N   0  0  0  0  0  0
   12.5420   10.4130   18.6130 C   0  0  0  0  0  0
   13.0570    9.5150   17.8430 N   0  3  0  0  0  0
   12.2030   10.0970   19.9060 N   0  0  0  0  0  0
   12.3914   14.0524   12.5705 H   0  0  0  0  0  0
   10.8929   13.1318   10.8687 H   0  0  0  0  0  0
   10.1585   13.5830   12.4447 H   0  0  0  0  0  0
   10.4541   11.8549   12.0535 H   0  0  0  0  0  0
   10.6212   11.3103   13.9020 H   0  0  0  0  0  0
   10.5644   10.8197   16.3221 H   0  0  0  0  0  0
   13.9445   13.3875   16.8779 H   0  0  0  0  0  0
   13.9806   13.9133   14.4584 H   0  0  0  0  0  0
   12.1224   12.4275   18.9004 H   0  0  0  0  0  0
   13.3284    9.7683   16.8075 H   0  0  0  0  0  0
   11.7639   10.8628   20.5623 H   0  0  0  0  0  0
   12.3706    9.0781   20.2852 H   0  0  0  0  0  0
   13.2247    8.4960   18.2220 H   0  0  0  0  0  0
  1  2  2  0  0  0
  2  3  1  0  0  0
  2  4  1  0  0  0
  2  5  1  0  0  0
  5  6  1  0  0  0
  5  7  1  0  0  0
  5 17  1  0  0  0
  6 18  1  0  0  0
  6 19  1  0  0  0
  6 20  1  0  0  0
  7  8  2  0  0  0
  7 12  1  0  0  0
  8  9  1  0  0  0
  8 21  1  0  0  0
  9 10  2  0  0  0
  9 22  1  0  0  0
 10 11  1  0  0  0
 10 13  1  0  0  0
 11 12  2  0  0  0
 11 23  1  0  0  0
 12 24  1  0  0  0
 13 14  1  0  0  0
 13 25  1  0  0  0
 14 15  2  0  0  0
 14 16  1  0  0  0
 15 26  1  0  0  0
 15 29  1  0  0  0
 16 27  1  0  0  0
 16 28  1  0  0  0
M  CHG  4   3  -1   4  -1   6   1  15   1
M  END
> <s_m_source_file>
../4k5n_ligand.sdf

> <i_m_source_file_index>
1

> <s_epik_input>
Tz1QKFtPSF0pKFtPSF0pW0NAQEhdKFtOSDMrXSljMVtjSF1bY0hdYyhbY0hdW2NIXTEpW05IXS9DKD1OXFtIXSlbTkgyXQ==

> <s_epik_cmdline>
J2VwaWtfYXBwJywgJy1pbWFlJywgJ2xpZ2FuZF9wcm8ubWFlJywgJy1vbWFlJywgJ2xpZ2FuZF9wcmVwLm1hZScsICctbXMnLCAnMScsICctcGgnLCAnNycsICctcGh0JywgJzAuNScsICctbnQn

> <r_lp_tautomer_probability>
1

> <r_epik_Ionization_Penalty>
  0.0447

> <r_epik_Ionization_Penalty_Charging>
  0.0447

> <r_epik_Ionization_Penalty_Neutral>
  0.0000

> <r_epik_State_Penalty>
 -0.0000

> <r_epik_Charging_Adjusted_Penalty>
0.0446555881630031

> <i_epik_Tot_Q>
0

> <i_epik_Tot_abs_Q>
4

> <s_epik_Chemistry_Notes>
This compound has an imine and may undergo hydrolysis.

$$$$
