4k5o_ligand
                    3D
 Schrodinger Suite 2020-3.
 28 29  0  0  1  0            999 V2000
   12.2640   10.5840   10.9180 O   0  0  0  0  0  0
   13.1540   11.7860   11.4150 P   0  0  0  0  0  0
   14.6180   11.6250   12.0770 O   0  5  0  0  0  0
   13.2590   12.6460   10.0520 O   0  5  0  0  0  0
   12.2200   12.8660   12.4690 C   0  0  1  0  0  0
   10.7940   12.5890   12.1240 N   0  3  0  0  0  0
   12.4180   12.6540   13.9250 C   0  0  0  0  0  0
   11.6870   11.6240   14.4540 C   0  0  0  0  0  0
   11.6580   11.3610   15.8050 C   0  0  0  0  0  0
   12.3790   12.0620   16.7380 C   0  0  0  0  0  0
   13.1050   13.1360   16.1670 C   0  0  0  0  0  0
   13.1340   13.4630   14.8070 C   0  0  0  0  0  0
   12.2390   11.6750   18.0520 N   0  0  0  0  0  0
   12.7130   12.3920   19.1620 N   0  0  0  0  0  0
   12.2350   11.6870   20.2240 C   0  0  0  0  0  0
   11.4670   10.5970   19.7820 C   0  0  0  0  0  0
   11.4550   10.6400   18.4010 C   0  0  0  0  0  0
   12.4225   13.9465   12.4297 H   0  0  0  0  0  0
   10.6408   12.7444   11.0459 H   0  0  0  0  0  0
   10.1410   13.2704   12.6891 H   0  0  0  0  0  0
   10.5497   11.5482   12.3828 H   0  0  0  0  0  0
   11.1080   10.9904   13.7821 H   0  0  0  0  0  0
   11.0237   10.5464   16.1545 H   0  0  0  0  0  0
   13.6896   13.7595   16.8434 H   0  0  0  0  0  0
   13.6987   14.3234   14.4479 H   0  0  0  0  0  0
   12.4218   11.9334   21.2692 H   0  0  0  0  0  0
   10.9731    9.8561   20.4107 H   0  0  0  0  0  0
   10.9181    9.9698   17.7297 H   0  0  0  0  0  0
  1  2  2  0  0  0
  2  3  1  0  0  0
  2  4  1  0  0  0
  2  5  1  0  0  0
  5  6  1  0  0  0
  5  7  1  0  0  0
  5 18  1  0  0  0
  6 19  1  0  0  0
  6 20  1  0  0  0
  6 21  1  0  0  0
  7  8  2  0  0  0
  7 12  1  0  0  0
  8  9  1  0  0  0
  8 22  1  0  0  0
  9 10  2  0  0  0
  9 23  1  0  0  0
 10 11  1  0  0  0
 10 13  1  0  0  0
 11 12  2  0  0  0
 11 24  1  0  0  0
 12 25  1  0  0  0
 13 14  1  0  0  0
 13 17  1  0  0  0
 14 15  2  0  0  0
 15 16  1  0  0  0
 15 26  1  0  0  0
 16 17  2  0  0  0
 16 27  1  0  0  0
 17 28  1  0  0  0
M  CHG  3   3  -1   4  -1   6   1
M  END
> <s_m_source_file>
../4k5o_ligand.sdf

> <i_m_source_file_index>
1

> <s_epik_input>
Tz1QKFtPSF0pKFtPSF0pW0NAQEhdKFtOSDMrXSljMVtjSF1bY0hdYyhbY0hdW2NIXTEpLW4ybltjSF1bY0hdW2NIXTI=

> <s_epik_cmdline>
J2VwaWtfYXBwJywgJy1pbWFlJywgJ2xpZ2FuZF9wcm8ubWFlJywgJy1vbWFlJywgJ2xpZ2FuZF9wcmVwLm1hZScsICctbXMnLCAnMScsICctcGgnLCAnNycsICctcGh0JywgJzAuNScsICctbnQn

> <r_lp_tautomer_probability>
1

> <r_epik_Ionization_Penalty>
  0.0437

> <r_epik_Ionization_Penalty_Charging>
  0.0437

> <r_epik_Ionization_Penalty_Neutral>
  0.0000

> <r_epik_State_Penalty>
 -0.0000

> <r_epik_Charging_Adjusted_Penalty>
0.0437410294980877

> <i_epik_Tot_Q>
-1

> <i_epik_Tot_abs_Q>
3

$$$$
