4k5p_ligand
                    3D
 Schrodinger Suite 2020-3.
 27 27  0  0  1  0            999 V2000
   12.5880   12.7180   10.1510 O   0  5  0  0  0  0
   13.0330   11.8140   11.4100 P   0  0  0  0  0  0
   12.2240   10.4850   10.7180 O   0  5  0  0  0  0
   14.6280   12.0300   11.3710 O   0  0  0  0  0  0
   12.1020   12.8080   12.5390 C   0  0  1  0  0  0
   10.7180   12.3400   12.3130 N   0  3  0  0  0  0
   12.4180   12.5650   13.9580 C   0  0  0  0  0  0
   13.1930   13.4020   14.7390 C   0  0  0  0  0  0
   13.3070   13.0360   16.0920 C   0  0  0  0  0  0
   12.6540   11.9040   16.6390 C   0  0  0  0  0  0
   12.7640   11.4140   18.0860 C   0  0  0  0  0  0
   11.7630   11.2560   18.8600 N   0  3  0  0  0  0
   13.9690   11.0500   18.5490 N   0  0  0  0  0  0
   11.8770   11.1160   15.8320 C   0  0  0  0  0  0
   11.7660   11.4530   14.4930 C   0  0  0  0  0  0
   12.1900   13.9037   12.4979 H   0  0  0  0  0  0
   10.4425   12.5045   11.2608 H   0  0  0  0  0  0
   10.0306   12.9002   12.9639 H   0  0  0  0  0  0
   10.6511   11.2671   12.5461 H   0  0  0  0  0  0
   13.6832   14.2869   14.3330 H   0  0  0  0  0  0
   13.9243   13.6497   16.7481 H   0  0  0  0  0  0
   10.7558   11.5409   18.5217 H   0  0  0  0  0  0
   14.8604   11.1686   17.9155 H   0  0  0  0  0  0
   14.0659   10.6329   19.5622 H   0  0  0  0  0  0
   11.3588   10.2452   16.2335 H   0  0  0  0  0  0
   11.1527   10.8328   13.8393 H   0  0  0  0  0  0
   11.9067   10.8348   19.8660 H   0  0  0  0  0  0
  1  2  1  0  0  0
  2  3  1  0  0  0
  2  4  2  0  0  0
  2  5  1  0  0  0
  5  6  1  0  0  0
  5  7  1  0  0  0
  5 16  1  0  0  0
  6 17  1  0  0  0
  6 18  1  0  0  0
  6 19  1  0  0  0
  7  8  2  0  0  0
  7 15  1  0  0  0
  8  9  1  0  0  0
  8 20  1  0  0  0
  9 10  2  0  0  0
  9 21  1  0  0  0
 10 11  1  0  0  0
 10 14  1  0  0  0
 11 12  2  0  0  0
 11 13  1  0  0  0
 12 22  1  0  0  0
 12 27  1  0  0  0
 13 23  1  0  0  0
 13 24  1  0  0  0
 14 15  2  0  0  0
 14 25  1  0  0  0
 15 26  1  0  0  0
M  CHG  4   1  -1   3  -1   6   1  12   1
M  END
> <s_m_source_file>
../4k5p_ligand.sdf

> <i_m_source_file_index>
1

> <s_epik_input>
W09IXVAoPU8pKFtPSF0pW0NAQEhdKFtOSDMrXSljMVtjSF1bY0hdYygvQyg9TlxbSF0pW05IMl0pW2NIXVtjSF0x

> <s_epik_cmdline>
J2VwaWtfYXBwJywgJy1pbWFlJywgJ2xpZ2FuZF9wcm8ubWFlJywgJy1vbWFlJywgJ2xpZ2FuZF9wcmVwLm1hZScsICctbXMnLCAnMScsICctcGgnLCAnNycsICctcGh0JywgJzAuNScsICctbnQn

> <r_lp_tautomer_probability>
1

> <r_epik_Ionization_Penalty>
  0.0469

> <r_epik_Ionization_Penalty_Charging>
  0.0469

> <r_epik_Ionization_Penalty_Neutral>
  0.0000

> <r_epik_State_Penalty>
 -0.0000

> <r_epik_Charging_Adjusted_Penalty>
0.0468912960251329

> <i_epik_Tot_Q>
0

> <i_epik_Tot_abs_Q>
4

> <s_epik_Chemistry_Notes>
This compound has an imine and may undergo hydrolysis.

$$$$
