4k5y_ligand
                    3D
 Schrodinger Suite 2020-3.
 54 55  0  0  1  0            999 V2000
  -41.0020  -18.2520   33.2560 C   0  0  0  0  0  0
  -44.9960  -19.9570   35.8780 C   0  0  0  0  0  0
  -37.9990  -21.7310   35.2040 C   0  0  0  0  0  0
  -41.6700  -22.3050   37.2960 C   0  0  0  0  0  0
  -41.5110  -21.2450   36.2460 C   0  0  0  0  0  0
  -42.6210  -20.3560   35.9030 C   0  0  0  0  0  0
  -42.4010  -19.4060   34.9270 C   0  0  0  0  0  0
  -41.1760  -19.3020   34.3030 C   0  0  0  0  0  0
  -40.2450  -21.0540   35.5270 C   0  0  0  0  0  0
  -37.7520  -22.2330   33.8400 C   0  0  0  0  0  0
  -34.1090  -21.3010   33.3860 C   0  0  0  0  0  0
  -38.8580  -22.8940   33.0750 C   0  0  0  0  0  0
  -37.0850  -20.5790   37.2950 C   0  0  0  0  0  0
  -36.4930  -22.0790   33.2860 C   0  0  0  0  0  0
  -35.4680  -21.4610   34.0030 C   0  0  0  0  0  0
  -35.6530  -20.9790   35.2880 C   0  0  0  0  0  0
  -36.8790  -21.0950   35.9110 C   0  0  0  0  0  0
  -45.0090  -18.4300   37.8390 C   0  0  0  0  0  0
  -45.8550  -19.2710   36.9150 C   0  0  0  0  0  0
  -45.7950  -21.0660   35.2290 C   0  0  0  0  0  0
  -44.8860  -22.0100   34.4880 C   0  0  0  0  0  0
  -43.8110  -20.4710   36.5180 N   0  0  0  0  0  0
  -40.1420  -20.1030   34.6000 N   0  0  0  0  0  0
  -39.2010  -21.8550   35.8170 O   0  0  0  0  0  0
  -41.9409  -17.6907   33.1400 H   0  0  0  0  0  0
  -40.7387  -18.7278   32.2998 H   0  0  0  0  0  0
  -40.1982  -17.5639   33.5568 H   0  0  0  0  0  0
  -44.6419  -19.2555   35.1083 H   0  0  0  0  0  0
  -42.6922  -22.2696   37.7009 H   0  0  0  0  0  0
  -40.9480  -22.1289   38.1070 H   0  0  0  0  0  0
  -41.4864  -23.2935   36.8498 H   0  0  0  0  0  0
  -43.2069  -18.7283   34.6453 H   0  0  0  0  0  0
  -34.1141  -21.7278   32.3722 H   0  0  0  0  0  0
  -33.3630  -21.8257   34.0010 H   0  0  0  0  0  0
  -33.8541  -20.2323   33.3327 H   0  0  0  0  0  0
  -39.7688  -22.9148   33.6915 H   0  0  0  0  0  0
  -38.5638  -23.9230   32.8206 H   0  0  0  0  0  0
  -39.0533  -22.3295   32.1513 H   0  0  0  0  0  0
  -38.1231  -20.7679   37.6060 H   0  0  0  0  0  0
  -36.8869  -19.4972   37.3162 H   0  0  0  0  0  0
  -36.3970  -21.0914   37.9835 H   0  0  0  0  0  0
  -36.3000  -22.4449   32.2776 H   0  0  0  0  0  0
  -34.8234  -20.5040   35.8117 H   0  0  0  0  0  0
  -45.6543  -17.9413   38.5838 H   0  0  0  0  0  0
  -44.4783  -17.6639   37.2546 H   0  0  0  0  0  0
  -44.2776  -19.0717   38.3521 H   0  0  0  0  0  0
  -46.5864  -18.6205   36.4131 H   0  0  0  0  0  0
  -46.3858  -20.0283   37.5107 H   0  0  0  0  0  0
  -46.3379  -21.6281   36.0031 H   0  0  0  0  0  0
  -46.5141  -20.6324   34.5185 H   0  0  0  0  0  0
  -45.4851  -22.8075   34.0242 H   0  0  0  0  0  0
  -44.1663  -22.4540   35.1915 H   0  0  0  0  0  0
  -44.3425  -21.4582   33.7069 H   0  0  0  0  0  0
  -43.8837  -20.9538   37.5037 H   0  0  0  0  0  0
  1  8  1  0  0  0
  1 25  1  0  0  0
  1 26  1  0  0  0
  1 27  1  0  0  0
  2 19  1  0  0  0
  2 20  1  0  0  0
  2 22  1  0  0  0
  2 28  1  0  0  0
  3 10  2  0  0  0
  3 17  1  0  0  0
  3 24  1  0  0  0
  4  5  1  0  0  0
  4 29  1  0  0  0
  4 30  1  0  0  0
  4 31  1  0  0  0
  5  6  2  0  0  0
  5  9  1  0  0  0
  6  7  1  0  0  0
  6 22  1  0  0  0
  7  8  2  0  0  0
  7 32  1  0  0  0
  8 23  1  0  0  0
  9 23  2  0  0  0
  9 24  1  0  0  0
 10 12  1  0  0  0
 10 14  1  0  0  0
 11 15  1  0  0  0
 11 33  1  0  0  0
 11 34  1  0  0  0
 11 35  1  0  0  0
 12 36  1  0  0  0
 12 37  1  0  0  0
 12 38  1  0  0  0
 13 17  1  0  0  0
 13 39  1  0  0  0
 13 40  1  0  0  0
 13 41  1  0  0  0
 14 15  2  0  0  0
 14 42  1  0  0  0
 15 16  1  0  0  0
 16 17  2  0  0  0
 16 43  1  0  0  0
 18 19  1  0  0  0
 18 44  1  0  0  0
 18 45  1  0  0  0
 18 46  1  0  0  0
 19 47  1  0  0  0
 19 48  1  0  0  0
 20 21  1  0  0  0
 20 49  1  0  0  0
 20 50  1  0  0  0
 21 51  1  0  0  0
 21 52  1  0  0  0
 21 53  1  0  0  0
 22 54  1  0  0  0
M  END
> <s_m_source_file>
../4k5y_ligand.sdf

> <i_m_source_file_index>
1

> <s_epik_input>
W0NIM11bQ0gyXVtDSF0oW0NIMl1bQ0gzXSlbTkhdYyhjMVtDSDNdKVtjSF1jKFtDSDNdKW5jMU9jMmMoW0NIM10pW2NIXWMoW0NIM10pW2NIXWMyW0NIM10=

> <s_epik_cmdline>
J2VwaWtfYXBwJywgJy1pbWFlJywgJ2xpZ2FuZF9wcm8ubWFlJywgJy1vbWFlJywgJ2xpZ2FuZF9wcmVwLm1hZScsICctbXMnLCAnMScsICctcGgnLCAnNycsICctcGh0JywgJzAuNScsICctbnQn

> <r_lp_tautomer_probability>
0.999999999982565

> <r_epik_Ionization_Penalty>
  0.0266

> <r_epik_Ionization_Penalty_Charging>
  0.0000

> <r_epik_Ionization_Penalty_Neutral>
  0.0266

> <r_epik_State_Penalty>
  0.0218

> <r_epik_Charging_Adjusted_Penalty>
0.0217558542666077

> <i_epik_Tot_Q>
0

> <i_epik_Tot_abs_Q>
0

$$$$
