4k5z_ligand
                    3D
 Schrodinger Suite 2020-3.
 17 18  0  0  1  0            999 V2000
   60.1760   59.7810    1.0130 O   0  0  0  0  0  0
   60.7710   60.6480    0.3850 C   0  0  0  0  0  0
   60.6800   61.9900    0.5660 N   0  0  0  0  0  0
   61.5630   62.6650   -0.4020 C   0  0  0  0  0  0
   61.7110   60.3480   -0.7010 C   0  0  0  0  0  0
   62.1290   59.1300   -1.2410 C   0  0  0  0  0  0
   63.0440   59.1440   -2.2740 C   0  0  0  0  0  0
   63.5750   57.6260   -2.9510 Cl  0  0  0  0  0  0
   62.2120   61.5580   -1.2010 C   0  0  0  0  0  0
   63.1250   61.5560   -2.2330 C   0  0  0  0  0  0
   63.5410   60.3480   -2.7680 C   0  0  0  0  0  0
   60.0868   62.5842    1.2766 H   0  0  0  0  0  0
   60.9640   63.3259   -1.0458 H   0  0  0  0  0  0
   62.3125   63.2612    0.1391 H   0  0  0  0  0  0
   61.7406   58.1877   -0.8546 H   0  0  0  0  0  0
   63.5158   62.4953   -2.6243 H   0  0  0  0  0  0
   64.2642   60.3394   -3.5834 H   0  0  0  0  0  0
  1  2  2  0  0  0
  2  3  1  0  0  0
  2  5  1  0  0  0
  3  4  1  0  0  0
  3 12  1  0  0  0
  4  9  1  0  0  0
  4 13  1  0  0  0
  4 14  1  0  0  0
  5  6  2  0  0  0
  5  9  1  0  0  0
  6  7  1  0  0  0
  6 15  1  0  0  0
  7  8  1  0  0  0
  7 11  2  0  0  0
  9 10  2  0  0  0
 10 11  1  0  0  0
 10 16  1  0  0  0
 11 17  1  0  0  0
M  END
> <s_m_source_file>
../4k5z_ligand.sdf

> <i_m_source_file_index>
1

> <s_epik_input>
Tz1DMVtOSF1bQ0gyXWMoYzEyKVtjSF1bY0hdYyhDbClbY0hdMg==

> <s_epik_cmdline>
J2VwaWtfYXBwJywgJy1pbWFlJywgJ2xpZ2FuZF9wcm8ubWFlJywgJy1vbWFlJywgJ2xpZ2FuZF9wcmVwLm1hZScsICctbXMnLCAnMScsICctcGgnLCAnNycsICctcGh0JywgJzAuNScsICctbnQn

> <r_lp_tautomer_probability>
1

> <r_epik_Ionization_Penalty>
  0.0000

> <r_epik_Ionization_Penalty_Charging>
  0.0000

> <r_epik_Ionization_Penalty_Neutral>
  0.0000

> <r_epik_State_Penalty>
 -0.0000

> <r_epik_Charging_Adjusted_Penalty>
0

> <i_epik_Tot_Q>
0

> <i_epik_Tot_abs_Q>
0

$$$$
