4k63_ligand
                    3D
 Schrodinger Suite 2020-3.
 87 89  0  0  1  0            999 V2000
  -88.2860   62.4680   33.5160 C   0  0  0  0  0  0
  -87.2370   62.5560   34.6250 C   0  0  1  0  0  0
  -88.3050   62.5470   35.5780 C   0  0  0  0  0  0
  -89.0990   61.3740   35.7580 C   0  0  1  0  0  0
  -88.3450   60.2000   36.1920 C   0  0  2  0  0  0
  -87.2000   60.0520   35.2090 C   0  0  2  0  0  0
  -86.2530   59.1040   35.5020 C   0  0  1  0  0  0
  -85.0500   59.3790   34.6090 C   0  0  1  0  0  0
  -83.7700   58.9660   35.2960 C   0  0  0  0  0  0
  -88.9740   58.0400   37.3280 C   0  0  0  0  0  0
  -89.8190   56.8040   37.4590 C   0  0  0  0  0  0
  -89.2110   59.0050   36.2670 N   0  0  0  0  0  0
  -89.1230   63.4070   33.3670 O   0  5  0  0  0  0
  -88.2850   61.5050   32.7270 O   0  0  0  0  0  0
  -90.1740   61.6600   36.7130 O   0  0  0  0  0  0
  -86.5780   61.4350   35.2900 O   0  0  0  0  0  0
  -85.8690   59.2170   36.8580 O   0  0  0  0  0  0
  -85.2180   58.7140   33.4190 O   0  0  0  0  0  0
  -82.6280   58.6920   34.5410 O   0  0  0  0  0  0
  -88.0680   58.2350   38.1250 O   0  0  0  0  0  0
  -85.8540   66.0020   37.9200 C   0  0  1  0  0  0
  -86.7510   65.3350   36.8820 C   0  0  1  0  0  0
  -86.2750   63.9650   36.3950 C   0  0  2  0  0  0
  -84.7490   63.8010   36.4040 C   0  0  2  0  0  0
  -84.1000   64.5650   37.5630 C   0  0  1  0  0  0
  -82.5760   64.4670   37.5350 C   0  0  0  0  0  0
  -88.0400   65.1710   37.4300 O   0  0  0  0  0  0
  -86.7820   63.8540   35.0760 O   0  0  0  0  0  0
  -84.1890   64.2100   35.1700 O   0  0  0  0  0  0
  -84.5080   65.9160   37.5220 O   0  0  0  0  0  0
  -82.0030   65.3780   38.4500 O   0  0  0  0  0  0
  -87.0400   69.9520   41.1440 C   0  0  2  0  0  0
  -85.5950   69.9410   40.6650 C   0  0  1  0  0  0
  -85.4410   69.1150   39.3910 C   0  0  2  0  0  0
  -86.2050   67.7910   39.4240 C   0  0  1  0  0  0
  -87.5850   67.9230   40.0720 C   0  0  1  0  0  0
  -88.2240   66.5670   40.3630 C   0  0  0  0  0  0
  -84.6360   72.0450   41.3890 C   0  0  0  0  0  0
  -84.6720   73.5330   41.2030 C   0  0  0  0  0  0
  -85.1700   71.3070   40.4210 N   0  0  0  0  0  0
  -87.1270   70.6140   42.3860 O   0  0  0  0  0  0
  -84.0720   68.8600   39.1640 O   0  0  0  0  0  0
  -86.3330   67.3520   38.0880 O   0  0  0  0  0  0
  -87.4990   68.6280   41.2910 O   0  0  0  0  0  0
  -87.2960   65.7290   41.0200 O   0  0  0  0  0  0
  -84.1360   71.5540   42.3990 O   0  0  0  0  0  0
  -87.9025   62.7488   36.5816 H   0  0  0  0  0  0
  -89.0384   63.3232   35.3142 H   0  0  0  0  0  0
  -89.4905   61.1381   34.7574 H   0  0  0  0  0  0
  -87.9805   60.3297   37.2217 H   0  0  0  0  0  0
  -87.5035   59.6346   34.2376 H   0  0  0  0  0  0
  -86.7251   58.1184   35.3766 H   0  0  0  0  0  0
  -84.9791   60.4338   34.3050 H   0  0  0  0  0  0
  -83.4489   59.7630   35.9828 H   0  0  0  0  0  0
  -83.9410   58.0395   35.8638 H   0  0  0  0  0  0
  -90.5789   56.7934   36.6637 H   0  0  0  0  0  0
  -90.3155   56.8016   38.4406 H   0  0  0  0  0  0
  -89.1811   55.9125   37.3686 H   0  0  0  0  0  0
  -90.0143   58.8607   35.5295 H   0  0  0  0  0  0
  -90.8464   62.5141   36.5447 H   0  0  0  0  0  0
  -86.6091   59.0516   37.6548 H   0  0  0  0  0  0
  -86.1069   58.9086   32.8009 H   0  0  0  0  0  0
  -81.6963   58.3913   35.0424 H   0  0  0  0  0  0
  -85.8305   65.5335   38.9150 H   0  0  0  0  0  0
  -86.8169   66.0151   36.0199 H   0  0  0  0  0  0
  -86.6804   63.1476   37.0094 H   0  0  0  0  0  0
  -84.4957   62.7327   36.4711 H   0  0  0  0  0  0
  -84.4664   64.1813   38.5266 H   0  0  0  0  0  0
  -82.2691   63.4466   37.8082 H   0  0  0  0  0  0
  -82.2120   64.7009   36.5237 H   0  0  0  0  0  0
  -88.5760   66.0378   37.8439 H   0  0  0  0  0  0
  -84.5415   63.7603   34.2301 H   0  0  0  0  0  0
  -80.9097   65.4368   38.5559 H   0  0  0  0  0  0
  -87.7242   70.4642   40.4515 H   0  0  0  0  0  0
  -84.9428   69.5260   41.4475 H   0  0  0  0  0  0
  -85.7975   69.7102   38.5374 H   0  0  0  0  0  0
  -85.6413   67.0204   39.9703 H   0  0  0  0  0  0
  -88.2219   68.5260   39.4081 H   0  0  0  0  0  0
  -89.1049   66.7074   41.0066 H   0  0  0  0  0  0
  -88.5318   66.0963   39.4177 H   0  0  0  0  0  0
  -85.1558   73.7711   40.2442 H   0  0  0  0  0  0
  -83.6452   73.9275   41.2035 H   0  0  0  0  0  0
  -85.2414   73.9916   42.0249 H   0  0  0  0  0  0
  -85.2874   71.7492   39.4207 H   0  0  0  0  0  0
  -86.8118   71.6643   42.4727 H   0  0  0  0  0  0
  -83.3589   69.6956   39.1076 H   0  0  0  0  0  0
  -87.5853   64.7077   41.3084 H   0  0  0  0  0  0
  1  2  1  0  0  0
  1 13  1  0  0  0
  1 14  2  0  0  0
  2  3  1  0  0  0
  2 16  1  0  0  0
  2 28  1  0  0  0
  3  4  1  0  0  0
  3 47  1  0  0  0
  3 48  1  0  0  0
  4  5  1  0  0  0
  4 15  1  0  0  0
  4 49  1  0  0  0
  5  6  1  0  0  0
  5 12  1  0  0  0
  5 50  1  0  0  0
  6  7  1  0  0  0
  6 16  1  0  0  0
  6 51  1  0  0  0
  7  8  1  0  0  0
  7 17  1  0  0  0
  7 52  1  0  0  0
  8  9  1  0  0  0
  8 18  1  0  0  0
  8 53  1  0  0  0
  9 19  1  0  0  0
  9 54  1  0  0  0
  9 55  1  0  0  0
 10 11  1  0  0  0
 10 12  1  0  0  0
 10 20  2  0  0  0
 11 56  1  0  0  0
 11 57  1  0  0  0
 11 58  1  0  0  0
 12 59  1  0  0  0
 15 60  1  0  0  0
 17 61  1  0  0  0
 18 62  1  0  0  0
 19 63  1  0  0  0
 21 22  1  0  0  0
 21 30  1  0  0  0
 21 43  1  0  0  0
 21 64  1  0  0  0
 22 23  1  0  0  0
 22 27  1  0  0  0
 22 65  1  0  0  0
 23 24  1  0  0  0
 23 28  1  0  0  0
 23 66  1  0  0  0
 24 25  1  0  0  0
 24 29  1  0  0  0
 24 67  1  0  0  0
 25 26  1  0  0  0
 25 30  1  0  0  0
 25 68  1  0  0  0
 26 31  1  0  0  0
 26 69  1  0  0  0
 26 70  1  0  0  0
 27 71  1  0  0  0
 29 72  1  0  0  0
 31 73  1  0  0  0
 32 33  1  0  0  0
 32 41  1  0  0  0
 32 44  1  0  0  0
 32 74  1  0  0  0
 33 34  1  0  0  0
 33 40  1  0  0  0
 33 75  1  0  0  0
 34 35  1  0  0  0
 34 42  1  0  0  0
 34 76  1  0  0  0
 35 36  1  0  0  0
 35 43  1  0  0  0
 35 77  1  0  0  0
 36 37  1  0  0  0
 36 44  1  0  0  0
 36 78  1  0  0  0
 37 45  1  0  0  0
 37 79  1  0  0  0
 37 80  1  0  0  0
 38 39  1  0  0  0
 38 40  1  0  0  0
 38 46  2  0  0  0
 39 81  1  0  0  0
 39 82  1  0  0  0
 39 83  1  0  0  0
 40 84  1  0  0  0
 41 85  1  0  0  0
 42 86  1  0  0  0
 45 87  1  0  0  0
M  CHG  1  13  -1
M  END
> <s_m_source_file>
../4k63_ligand.sdf

> <i_m_source_file_index>
1

> <s_epik_input>
W09IXVtDSDJdW0NAQEhdKFtPSF0pW0NAQEhdKFtPSF0pW0NASF0oTzEpW0NASF0oW05IXUMoPU8pW0NIM10pW0NAQEhdKFtPSF0pW0NIMl1bQ0BAXTEoQyg9TylbT0hdKU9bQ0BASF0oW0NAQEhdKFtPSF0pW0NASF0oTzIpW0NIMl1bT0hdKVtDQEBIXShbT0hdKVtDQEBIXTJPW0NASF0oW0NASF0oTzMpW0NIMl1bT0hdKVtDQEhdKFtPSF0pW0NASF0oW0NAQEhdM1tPSF0pW05IXUMoPU8pW0NIM10=

> <s_epik_cmdline>
J2VwaWtfYXBwJywgJy1pbWFlJywgJ2xpZ2FuZF9wcm8ubWFlJywgJy1vbWFlJywgJ2xpZ2FuZF9wcmVwLm1hZScsICctbXMnLCAnMScsICctcGgnLCAnNycsICctcGh0JywgJzAuNScsICctbnQn

> <r_lp_tautomer_probability>
1

> <r_epik_Ionization_Penalty>
  0.0000

> <r_epik_Ionization_Penalty_Charging>
  0.0000

> <r_epik_Ionization_Penalty_Neutral>
  0.0000

> <r_epik_State_Penalty>
 -0.0000

> <r_epik_Charging_Adjusted_Penalty>
9.90123822354334e-06

> <i_epik_Tot_Q>
-1

> <i_epik_Tot_abs_Q>
1

> <s_epik_Chemistry_Notes>
This compound contains an acetal/aminal-like group ( X-CH(R)-Y where X, Y are N, S, or O) that may be acid/base labile, releasing an aldehyde.

$$$$
