4k64_ligand
                    3D
 Schrodinger Suite 2020-3.
 60 61  0  0  1  0            999 V2000
  -17.4000   39.7110   33.9250 C   0  0  0  0  0  0
  -18.1560   39.5340   35.1960 C   0  0  1  0  0  0
  -16.8530   39.5660   36.0340 C   0  0  0  0  0  0
  -16.0680   40.8490   36.0950 C   0  0  1  0  0  0
  -16.8230   41.9810   36.5070 C   0  0  2  0  0  0
  -18.1460   41.9620   35.7690 C   0  0  2  0  0  0
  -19.0670   42.9250   36.2950 C   0  0  1  0  0  0
  -20.3830   42.8570   35.5150 C   0  0  1  0  0  0
  -21.2150   44.1190   35.6480 C   0  0  0  0  0  0
  -16.0610   44.3660   37.1330 C   0  0  0  0  0  0
  -15.3020   45.6010   36.8000 C   0  0  0  0  0  0
  -16.0650   43.2180   36.1810 N   0  0  0  0  0  0
  -17.8230   40.5000   33.0830 O   0  0  0  0  0  0
  -16.3290   39.0220   33.6670 O   0  5  0  0  0  0
  -14.9180   40.6840   36.9420 O   0  0  0  0  0  0
  -18.7520   40.5950   35.8740 O   0  0  0  0  0  0
  -19.3980   42.6070   37.5830 O   0  0  0  0  0  0
  -20.1590   42.6280   34.1680 O   0  0  0  0  0  0
  -22.3180   44.2320   34.8580 O   0  0  0  0  0  0
  -16.6880   44.2900   38.1810 O   0  0  0  0  0  0
  -20.5910   35.3180   38.5220 C   0  0  2  0  0  0
  -21.8470   35.8690   39.1710 C   0  0  1  0  0  0
  -22.6360   36.6720   38.1390 C   0  0  2  0  0  0
  -21.7560   37.6930   37.4140 C   0  0  2  0  0  0
  -20.3340   37.1950   37.1240 C   0  0  1  0  0  0
  -19.3860   38.3690   36.9290 C   0  0  0  0  0  0
  -19.8970   34.4860   39.4260 O   0  0  0  0  0  0
  -22.6230   34.8060   39.6760 O   0  0  0  0  0  0
  -23.7080   37.3460   38.7690 O   0  0  0  0  0  0
  -21.7120   38.8940   38.1530 O   0  0  0  0  0  0
  -19.7960   36.4260   38.1800 O   0  0  0  0  0  0
  -18.8210   38.3460   35.6360 O   0  0  0  0  0  0
  -17.0857   39.3298   37.0828 H   0  0  0  0  0  0
  -16.1448   38.8227   35.6392 H   0  0  0  0  0  0
  -15.7377   41.1166   35.0805 H   0  0  0  0  0  0
  -16.9632   41.9175   37.5962 H   0  0  0  0  0  0
  -17.9898   42.2568   34.7208 H   0  0  0  0  0  0
  -18.5457   43.8936   36.3079 H   0  0  0  0  0  0
  -20.9477   41.9788   35.8612 H   0  0  0  0  0  0
  -21.5867   44.2061   36.6796 H   0  0  0  0  0  0
  -20.5943   44.9945   35.4068 H   0  0  0  0  0  0
  -14.8088   45.4765   35.8247 H   0  0  0  0  0  0
  -14.5425   45.7845   37.5742 H   0  0  0  0  0  0
  -15.9934   46.4553   36.7548 H   0  0  0  0  0  0
  -15.5059   43.2875   35.2363 H   0  0  0  0  0  0
  -14.2195   39.8529   36.7653 H   0  0  0  0  0  0
  -18.6205   42.5829   38.3607 H   0  0  0  0  0  0
  -19.5709   41.7549   33.8489 H   0  0  0  0  0  0
  -22.9502   45.1300   34.9213 H   0  0  0  0  0  0
  -20.7636   34.7053   37.6249 H   0  0  0  0  0  0
  -21.6144   36.4794   40.0561 H   0  0  0  0  0  0
  -23.0969   35.9833   37.4156 H   0  0  0  0  0  0
  -22.2334   37.9521   36.4575 H   0  0  0  0  0  0
  -20.3821   36.5167   36.2594 H   0  0  0  0  0  0
  -19.9382   39.3115   37.0584 H   0  0  0  0  0  0
  -18.5761   38.3136   37.6713 H   0  0  0  0  0  0
  -20.3706   33.5674   39.8026 H   0  0  0  0  0  0
  -22.2009   34.1277   40.4321 H   0  0  0  0  0  0
  -24.4534   36.7771   39.3440 H   0  0  0  0  0  0
  -22.6470   39.3924   38.4488 H   0  0  0  0  0  0
  1  2  1  0  0  0
  1 13  2  0  0  0
  1 14  1  0  0  0
  2  3  1  0  0  0
  2 16  1  0  0  0
  2 32  1  0  0  0
  3  4  1  0  0  0
  3 33  1  0  0  0
  3 34  1  0  0  0
  4  5  1  0  0  0
  4 15  1  0  0  0
  4 35  1  0  0  0
  5  6  1  0  0  0
  5 12  1  0  0  0
  5 36  1  0  0  0
  6  7  1  0  0  0
  6 16  1  0  0  0
  6 37  1  0  0  0
  7  8  1  0  0  0
  7 17  1  0  0  0
  7 38  1  0  0  0
  8  9  1  0  0  0
  8 18  1  0  0  0
  8 39  1  0  0  0
  9 19  1  0  0  0
  9 40  1  0  0  0
  9 41  1  0  0  0
 10 11  1  0  0  0
 10 12  1  0  0  0
 10 20  2  0  0  0
 11 42  1  0  0  0
 11 43  1  0  0  0
 11 44  1  0  0  0
 12 45  1  0  0  0
 15 46  1  0  0  0
 17 47  1  0  0  0
 18 48  1  0  0  0
 19 49  1  0  0  0
 21 22  1  0  0  0
 21 27  1  0  0  0
 21 31  1  0  0  0
 21 50  1  0  0  0
 22 23  1  0  0  0
 22 28  1  0  0  0
 22 51  1  0  0  0
 23 24  1  0  0  0
 23 29  1  0  0  0
 23 52  1  0  0  0
 24 25  1  0  0  0
 24 30  1  0  0  0
 24 53  1  0  0  0
 25 26  1  0  0  0
 25 31  1  0  0  0
 25 54  1  0  0  0
 26 32  1  0  0  0
 26 55  1  0  0  0
 26 56  1  0  0  0
 27 57  1  0  0  0
 28 58  1  0  0  0
 29 59  1  0  0  0
 30 60  1  0  0  0
M  CHG  1  14  -1
M  END
> <s_m_source_file>
../4k64_ligand.sdf

> <i_m_source_file_index>
1

> <s_epik_input>
W09IXVtDQEhdMVtDQEhdKFtPSF0pW0NAQEhdKFtPSF0pW0NAQEhdKFtPSF0pW0NASF0oTzEpW0NIMl1PW0NAXTIoQyg9TylbT0hdKVtDSDJdW0NASF0oW09IXSlbQ0BASF0oW05IXUMoPU8pW0NIM10pW0NAQEhdKE8yKVtDQEhdKFtPSF0pW0NASF0oW09IXSlbQ0gyXVtPSF0=

> <s_epik_cmdline>
J2VwaWtfYXBwJywgJy1pbWFlJywgJ2xpZ2FuZF9wcm8ubWFlJywgJy1vbWFlJywgJ2xpZ2FuZF9wcmVwLm1hZScsICctbXMnLCAnMScsICctcGgnLCAnNycsICctcGh0JywgJzAuNScsICctbnQn

> <r_lp_tautomer_probability>
1

> <r_epik_Ionization_Penalty>
  0.0000

> <r_epik_Ionization_Penalty_Charging>
  0.0000

> <r_epik_Ionization_Penalty_Neutral>
  0.0000

> <r_epik_State_Penalty>
 -0.0000

> <r_epik_Charging_Adjusted_Penalty>
3.56892623120892e-05

> <i_epik_Tot_Q>
-1

> <i_epik_Tot_abs_Q>
1

> <s_epik_Chemistry_Notes>
This compound contains an acetal/aminal-like group ( X-CH(R)-Y where X, Y are N, S, or O) that may be acid/base labile, releasing an aldehyde.

$$$$
