4k66_ligand
                    3D
 Schrodinger Suite 2020-3.
 60 61  0  0  1  0            999 V2000
    6.8630   15.3930   33.9100 C   0  0  0  0  0  0
    6.7860   15.7260   35.3770 C   0  0  1  0  0  0
    6.1180   14.5770   36.1240 C   0  0  0  0  0  0
    6.9580   13.3090   36.0380 C   0  0  1  0  0  0
    8.4110   13.5900   36.4020 C   0  0  2  0  0  0
    8.9410   14.7990   35.6410 C   0  0  2  0  0  0
   10.3680   15.1270   36.0640 C   0  0  1  0  0  0
   10.8140   16.4660   35.4880 C   0  0  1  0  0  0
   12.3080   16.6800   35.6970 C   0  0  0  0  0  0
   10.2880   12.1220   36.8580 C   0  0  0  0  0  0
   11.1920   11.0640   36.2970 C   0  0  0  0  0  0
    9.2280   12.4260   36.1160 N   0  0  0  0  0  0
    6.1930   14.4290   33.4800 O   0  0  0  0  0  0
    7.5960   16.0930   33.1770 O   0  5  0  0  0  0
    6.4250   12.3220   36.9280 O   0  0  0  0  0  0
    8.1010   15.9240   35.8900 O   0  0  0  0  0  0
   10.4430   15.1740   37.4930 O   0  0  0  0  0  0
   10.5180   16.5050   34.0870 O   0  0  0  0  0  0
   13.0390   15.9560   34.7010 O   0  0  0  0  0  0
   10.5110   12.6670   37.9270 O   0  0  0  0  0  0
    4.6670   19.4900   33.1740 C   0  0  2  0  0  0
    4.8180   18.0980   33.8390 C   0  0  1  0  0  0
    5.3410   18.0780   35.2680 C   0  0  2  0  0  0
    6.3010   19.1990   35.6560 C   0  0  2  0  0  0
    5.7920   20.5160   35.0560 C   0  0  1  0  0  0
    6.6600   21.7540   35.4970 C   0  0  0  0  0  0
    4.8080   19.4310   31.7430 O   0  0  0  0  0  0
    3.5750   17.4090   34.0990 O   0  0  0  0  0  0
    5.7590   16.7280   35.5680 O   0  0  0  0  0  0
    7.6160   18.8830   35.2900 O   0  0  0  0  0  0
    5.6320   20.3790   33.6480 O   0  0  0  0  0  0
    7.7940   22.1330   34.6520 O   0  0  0  0  0  0
    5.9972   14.8492   37.1829 H   0  0  0  0  0  0
    5.1308   14.3770   35.6819 H   0  0  0  0  0  0
    6.8975   12.8842   35.0251 H   0  0  0  0  0  0
    8.4923   13.7710   37.4840 H   0  0  0  0  0  0
    8.8979   14.6145   34.5574 H   0  0  0  0  0  0
   11.0516   14.3287   35.7395 H   0  0  0  0  0  0
   10.2465   17.2856   35.9529 H   0  0  0  0  0  0
   12.5399   17.7521   35.6144 H   0  0  0  0  0  0
   12.5940   16.3189   36.6959 H   0  0  0  0  0  0
   10.7962   10.7182   35.3307 H   0  0  0  0  0  0
   11.2431   10.2167   36.9967 H   0  0  0  0  0  0
   12.1994   11.4815   36.1524 H   0  0  0  0  0  0
    8.9756   11.7716   35.2686 H   0  0  0  0  0  0
    5.3823   11.9889   36.8190 H   0  0  0  0  0  0
   10.1586   14.2936   38.0879 H   0  0  0  0  0  0
    9.4832   16.3689   33.7395 H   0  0  0  0  0  0
   14.1384   15.9906   34.6920 H   0  0  0  0  0  0
    3.6846   19.9292   33.4022 H   0  0  0  0  0  0
    5.4534   17.5998   33.0920 H   0  0  0  0  0  0
    4.5236   18.2778   35.9764 H   0  0  0  0  0  0
    6.4248   19.2955   36.7447 H   0  0  0  0  0  0
    4.7537   20.7003   35.3691 H   0  0  0  0  0  0
    6.0241   22.6504   35.5415 H   0  0  0  0  0  0
    7.0940   21.5627   36.4895 H   0  0  0  0  0  0
    4.1430   18.7850   31.1510 H   0  0  0  0  0  0
    2.8714   17.2144   33.2761 H   0  0  0  0  0  0
    8.0840   17.9600   35.6629 H   0  0  0  0  0  0
    8.4228   22.9922   34.9283 H   0  0  0  0  0  0
  1  2  1  0  0  0
  1 13  2  0  0  0
  1 14  1  0  0  0
  2  3  1  0  0  0
  2 16  1  0  0  0
  2 29  1  0  0  0
  3  4  1  0  0  0
  3 33  1  0  0  0
  3 34  1  0  0  0
  4  5  1  0  0  0
  4 15  1  0  0  0
  4 35  1  0  0  0
  5  6  1  0  0  0
  5 12  1  0  0  0
  5 36  1  0  0  0
  6  7  1  0  0  0
  6 16  1  0  0  0
  6 37  1  0  0  0
  7  8  1  0  0  0
  7 17  1  0  0  0
  7 38  1  0  0  0
  8  9  1  0  0  0
  8 18  1  0  0  0
  8 39  1  0  0  0
  9 19  1  0  0  0
  9 40  1  0  0  0
  9 41  1  0  0  0
 10 11  1  0  0  0
 10 12  1  0  0  0
 10 20  2  0  0  0
 11 42  1  0  0  0
 11 43  1  0  0  0
 11 44  1  0  0  0
 12 45  1  0  0  0
 15 46  1  0  0  0
 17 47  1  0  0  0
 18 48  1  0  0  0
 19 49  1  0  0  0
 21 22  1  0  0  0
 21 27  1  0  0  0
 21 31  1  0  0  0
 21 50  1  0  0  0
 22 23  1  0  0  0
 22 28  1  0  0  0
 22 51  1  0  0  0
 23 24  1  0  0  0
 23 29  1  0  0  0
 23 52  1  0  0  0
 24 25  1  0  0  0
 24 30  1  0  0  0
 24 53  1  0  0  0
 25 26  1  0  0  0
 25 31  1  0  0  0
 25 54  1  0  0  0
 26 32  1  0  0  0
 26 55  1  0  0  0
 26 56  1  0  0  0
 27 57  1  0  0  0
 28 58  1  0  0  0
 30 59  1  0  0  0
 32 60  1  0  0  0
M  CHG  1  14  -1
M  END
> <s_m_source_file>
../4k66_ligand.sdf

> <i_m_source_file_index>
1

> <s_epik_input>
W09IXVtDSDJdW0NAQEhdKE8xKVtDQEhdKFtPSF0pW0NAQEhdKFtDQEBIXShbT0hdKVtDQEBIXTFbT0hdKU9bQ0BdMihDKD1PKVtPSF0pW0NIMl1bQ0BIXShbT0hdKVtDQEBIXShbTkhdQyg9TylbQ0gzXSlbQ0BASF0oTzIpW0NASF0oW09IXSlbQ0BIXShbT0hdKVtDSDJdW09IXQ==

> <s_epik_cmdline>
J2VwaWtfYXBwJywgJy1pbWFlJywgJ2xpZ2FuZF9wcm8ubWFlJywgJy1vbWFlJywgJ2xpZ2FuZF9wcmVwLm1hZScsICctbXMnLCAnMScsICctcGgnLCAnNycsICctcGh0JywgJzAuNScsICctbnQn

> <r_lp_tautomer_probability>
1

> <r_epik_Ionization_Penalty>
  0.0000

> <r_epik_Ionization_Penalty_Charging>
  0.0000

> <r_epik_Ionization_Penalty_Neutral>
  0.0000

> <r_epik_State_Penalty>
 -0.0000

> <r_epik_Charging_Adjusted_Penalty>
9.97000173871051e-06

> <i_epik_Tot_Q>
-1

> <i_epik_Tot_abs_Q>
1

> <s_epik_Chemistry_Notes>
This compound contains an acetal/aminal-like group ( X-CH(R)-Y where X, Y are N, S, or O) that may be acid/base labile, releasing an aldehyde.

$$$$
