4k67_ligand
                    3D
 Schrodinger Suite 2020-3.
 60 61  0  0  1  0            999 V2000
   18.0110  -21.8510   34.6000 C   0  0  0  0  0  0
   17.4760  -21.9840   35.9750 C   0  0  1  0  0  0
   18.8830  -21.9740   36.6230 C   0  0  0  0  0  0
   19.6360  -20.6700   36.7300 C   0  0  1  0  0  0
   18.8840  -19.5620   37.2150 C   0  0  2  0  0  0
   17.5790  -19.5700   36.4760 C   0  0  2  0  0  0
   16.6770  -18.5810   36.9660 C   0  0  1  0  0  0
   15.3170  -18.8850   36.3430 C   0  0  1  0  0  0
   14.2800  -17.8360   36.6170 C   0  0  0  0  0  0
   19.4700  -17.1420   37.9150 C   0  0  0  0  0  0
   20.1550  -15.8650   37.6090 C   0  0  0  0  0  0
   19.5580  -18.2700   36.9420 N   0  0  0  0  0  0
   17.4540  -21.0680   33.8170 O   0  0  0  0  0  0
   19.0220  -22.5850   34.2180 O   0  5  0  0  0  0
   20.8080  -20.8430   37.5590 O   0  0  0  0  0  0
   16.9720  -20.9160   36.6920 O   0  0  0  0  0  0
   16.5420  -18.7010   38.3300 O   0  0  0  0  0  0
   15.4280  -18.9330   34.9700 O   0  0  0  0  0  0
   13.9710  -17.0930   35.5290 O   0  0  0  0  0  0
   18.8430  -17.2640   38.9550 O   0  0  0  0  0  0
   13.9090  -26.1490   37.6270 C   0  0  2  0  0  0
   13.0670  -26.4600   36.3850 C   0  0  1  0  0  0
   14.0210  -26.7770   35.2310 C   0  0  2  0  0  0
   14.9070  -25.5570   35.0030 C   0  0  2  0  0  0
   15.5710  -25.0440   36.2800 C   0  0  1  0  0  0
   15.9460  -23.6000   36.0320 C   0  0  0  0  0  0
   13.0850  -25.8940   38.7500 O   0  0  0  0  0  0
   12.1370  -27.5060   36.6200 O   0  0  0  0  0  0
   13.3180  -27.0670   34.0330 O   0  0  0  0  0  0
   14.0980  -24.5300   34.4740 O   0  0  0  0  0  0
   14.6880  -24.9910   37.3860 O   0  0  0  0  0  0
   17.2430  -23.2990   36.4760 O   0  0  0  0  0  0
   18.8117  -22.3345   37.6598 H   0  0  0  0  0  0
   19.5546  -22.6315   36.0515 H   0  0  0  0  0  0
   19.9166  -20.3590   35.7129 H   0  0  0  0  0  0
   18.7960  -19.6900   38.3040 H   0  0  0  0  0  0
   17.7286  -19.3141   35.4167 H   0  0  0  0  0  0
   17.0971  -17.5800   36.7882 H   0  0  0  0  0  0
   14.9890  -19.8714   36.7028 H   0  0  0  0  0  0
   13.3538  -18.3177   36.9635 H   0  0  0  0  0  0
   14.6489  -17.1496   37.3934 H   0  0  0  0  0  0
   20.6629  -15.9452   36.6366 H   0  0  0  0  0  0
   20.8959  -15.6493   38.3930 H   0  0  0  0  0  0
   19.4150  -15.0521   37.5702 H   0  0  0  0  0  0
   20.1315  -18.1343   36.0132 H   0  0  0  0  0  0
   21.5197  -21.6534   37.3430 H   0  0  0  0  0  0
   17.4071  -18.5240   38.9860 H   0  0  0  0  0  0
   16.1338  -19.6333   34.4994 H   0  0  0  0  0  0
   13.2222  -16.2908   35.6054 H   0  0  0  0  0  0
   14.5774  -26.9794   37.8983 H   0  0  0  0  0  0
   12.3867  -25.6336   36.1313 H   0  0  0  0  0  0
   14.5898  -27.6969   35.4317 H   0  0  0  0  0  0
   15.6863  -25.7989   34.2653 H   0  0  0  0  0  0
   16.3835  -25.7262   36.5705 H   0  0  0  0  0  0
   15.8993  -23.3891   34.9534 H   0  0  0  0  0  0
   15.2438  -22.9421   36.5650 H   0  0  0  0  0  0
   12.3936  -26.6691   39.1122 H   0  0  0  0  0  0
   11.3914  -27.4090   37.4229 H   0  0  0  0  0  0
   12.6225  -27.9184   33.9958 H   0  0  0  0  0  0
   13.5293  -24.6998   33.5479 H   0  0  0  0  0  0
  1  2  1  0  0  0
  1 13  2  0  0  0
  1 14  1  0  0  0
  2  3  1  0  0  0
  2 16  1  0  0  0
  2 32  1  0  0  0
  3  4  1  0  0  0
  3 33  1  0  0  0
  3 34  1  0  0  0
  4  5  1  0  0  0
  4 15  1  0  0  0
  4 35  1  0  0  0
  5  6  1  0  0  0
  5 12  1  0  0  0
  5 36  1  0  0  0
  6  7  1  0  0  0
  6 16  1  0  0  0
  6 37  1  0  0  0
  7  8  1  0  0  0
  7 17  1  0  0  0
  7 38  1  0  0  0
  8  9  1  0  0  0
  8 18  1  0  0  0
  8 39  1  0  0  0
  9 19  1  0  0  0
  9 40  1  0  0  0
  9 41  1  0  0  0
 10 11  1  0  0  0
 10 12  1  0  0  0
 10 20  2  0  0  0
 11 42  1  0  0  0
 11 43  1  0  0  0
 11 44  1  0  0  0
 12 45  1  0  0  0
 15 46  1  0  0  0
 17 47  1  0  0  0
 18 48  1  0  0  0
 19 49  1  0  0  0
 21 22  1  0  0  0
 21 27  1  0  0  0
 21 31  1  0  0  0
 21 50  1  0  0  0
 22 23  1  0  0  0
 22 28  1  0  0  0
 22 51  1  0  0  0
 23 24  1  0  0  0
 23 29  1  0  0  0
 23 52  1  0  0  0
 24 25  1  0  0  0
 24 30  1  0  0  0
 24 53  1  0  0  0
 25 26  1  0  0  0
 25 31  1  0  0  0
 25 54  1  0  0  0
 26 32  1  0  0  0
 26 55  1  0  0  0
 26 56  1  0  0  0
 27 57  1  0  0  0
 28 58  1  0  0  0
 29 59  1  0  0  0
 30 60  1  0  0  0
M  CHG  1  14  -1
M  END
> <s_m_source_file>
../4k67_ligand.sdf

> <i_m_source_file_index>
1

> <s_epik_input>
W09IXVtDQEhdMVtDQEhdKFtPSF0pW0NAQEhdKFtPSF0pW0NAQEhdKFtPSF0pW0NASF0oTzEpW0NIMl1PW0NAXTIoQyg9TylbT0hdKVtDSDJdW0NASF0oW09IXSlbQ0BASF0oW05IXUMoPU8pW0NIM10pW0NAQEhdKE8yKVtDQEhdKFtPSF0pW0NASF0oW09IXSlbQ0gyXVtPSF0=

> <s_epik_cmdline>
J2VwaWtfYXBwJywgJy1pbWFlJywgJ2xpZ2FuZF9wcm8ubWFlJywgJy1vbWFlJywgJ2xpZ2FuZF9wcmVwLm1hZScsICctbXMnLCAnMScsICctcGgnLCAnNycsICctcGh0JywgJzAuNScsICctbnQn

> <r_lp_tautomer_probability>
1

> <r_epik_Ionization_Penalty>
  0.0000

> <r_epik_Ionization_Penalty_Charging>
  0.0000

> <r_epik_Ionization_Penalty_Neutral>
  0.0000

> <r_epik_State_Penalty>
 -0.0000

> <r_epik_Charging_Adjusted_Penalty>
3.56892623120892e-05

> <i_epik_Tot_Q>
-1

> <i_epik_Tot_abs_Q>
1

> <s_epik_Chemistry_Notes>
This compound contains an acetal/aminal-like group ( X-CH(R)-Y where X, Y are N, S, or O) that may be acid/base labile, releasing an aldehyde.

$$$$
