4k69_ligand
                    3D
 Schrodinger Suite 2020-3.
 51 54  0  0  1  0            999 V2000
   60.2530   59.2370    0.6240 O   0  0  0  0  0  0
   60.9640   59.5070   -0.3230 C   0  0  0  0  0  0
   61.3080   60.7300   -0.7500 N   0  0  0  0  0  0
   61.6360   58.5200   -1.2450 C   0  0  0  0  0  0
   62.3780   59.3750   -2.2390 C   0  0  0  0  0  0
   62.1270   60.6870   -1.8730 C   0  0  0  0  0  0
   62.6670   61.7240   -2.6190 C   0  0  0  0  0  0
   63.4610   61.4220   -3.7010 C   0  0  0  0  0  0
   64.1950   62.8560   -4.6830 Br  0  0  0  0  0  0
   63.7230   60.1130   -4.0620 C   0  0  0  0  0  0
   63.1720   59.0810   -3.3220 C   0  0  0  0  0  0
   63.4360   57.6370   -3.6870 C   0  0  0  0  0  0
   64.1060   57.5140   -4.9890 N   0  0  0  0  0  0
   65.4290   57.3360   -5.1970 C   0  0  0  0  0  0
   66.2600   57.2730   -4.3120 O   0  0  0  0  0  0
   63.4690   57.5220   -6.2180 C   0  0  0  0  0  0
   64.4570   57.3600   -7.1940 C   0  0  0  0  0  0
   64.0850   57.3430   -8.5320 C   0  0  0  0  0  0
   62.7530   57.4710   -8.8790 C   0  0  0  0  0  0
   61.7820   57.6340   -7.9030 C   0  0  0  0  0  0
   62.1300   57.6600   -6.5690 C   0  0  0  0  0  0
   65.6810   57.2490   -6.5200 N   0  0  0  0  0  0
   67.0200   57.0770   -7.1100 C   0  0  2  0  0  0
   67.3730   58.2430   -8.0480 C   0  0  0  0  0  0
   66.8820   59.5770   -7.5470 C   0  0  0  0  0  0
   66.2820   60.4280   -8.3940 O   0  5  0  0  0  0
   67.0290   59.8960   -6.3940 O   0  0  0  0  0  0
   67.0770   55.7770   -7.9100 C   0  0  0  0  0  0
   67.0730   54.5770   -6.9630 C   0  0  0  0  0  0
   67.5420   53.3440   -7.7440 C   0  0  0  0  0  0
   60.9431   61.6211   -0.2182 H   0  0  0  0  0  0
   62.3179   57.8814   -0.6643 H   0  0  0  0  0  0
   60.8730   57.8945   -1.7315 H   0  0  0  0  0  0
   62.4655   62.7615   -2.3523 H   0  0  0  0  0  0
   64.3575   59.8959   -4.9213 H   0  0  0  0  0  0
   64.0809   57.1778   -2.9233 H   0  0  0  0  0  0
   62.4822   57.0913   -3.7378 H   0  0  0  0  0  0
   64.8424   57.2289   -9.3075 H   0  0  0  0  0  0
   62.4635   57.4435   -9.9295 H   0  0  0  0  0  0
   60.7366   57.7423   -8.1920 H   0  0  0  0  0  0
   61.3672   57.7868   -5.8008 H   0  0  0  0  0  0
   67.7117   57.0487   -6.2552 H   0  0  0  0  0  0
   68.4658   58.3098   -8.1547 H   0  0  0  0  0  0
   66.9181   58.0706   -9.0346 H   0  0  0  0  0  0
   66.2018   55.7162   -8.5736 H   0  0  0  0  0  0
   67.9966   55.7577   -8.5133 H   0  0  0  0  0  0
   67.7544   54.7716   -6.1217 H   0  0  0  0  0  0
   66.0545   54.4154   -6.5801 H   0  0  0  0  0  0
   67.5460   52.4681   -7.0785 H   0  0  0  0  0  0
   68.5582   53.5177   -8.1277 H   0  0  0  0  0  0
   66.8583   53.1615   -8.5862 H   0  0  0  0  0  0
  1  2  2  0  0  0
  2  3  1  0  0  0
  2  4  1  0  0  0
  3  6  1  0  0  0
  3 31  1  0  0  0
  4  5  1  0  0  0
  4 32  1  0  0  0
  4 33  1  0  0  0
  5  6  2  0  0  0
  5 11  1  0  0  0
  6  7  1  0  0  0
  7  8  2  0  0  0
  7 34  1  0  0  0
  8  9  1  0  0  0
  8 10  1  0  0  0
 10 11  2  0  0  0
 10 35  1  0  0  0
 11 12  1  0  0  0
 12 13  1  0  0  0
 12 36  1  0  0  0
 12 37  1  0  0  0
 13 14  1  0  0  0
 13 16  1  0  0  0
 14 15  2  0  0  0
 14 22  1  0  0  0
 16 17  2  0  0  0
 16 21  1  0  0  0
 17 18  1  0  0  0
 17 22  1  0  0  0
 18 19  2  0  0  0
 18 38  1  0  0  0
 19 20  1  0  0  0
 19 39  1  0  0  0
 20 21  2  0  0  0
 20 40  1  0  0  0
 21 41  1  0  0  0
 22 23  1  0  0  0
 23 24  1  0  0  0
 23 28  1  0  0  0
 23 42  1  0  0  0
 24 25  1  0  0  0
 24 43  1  0  0  0
 24 44  1  0  0  0
 25 26  1  0  0  0
 25 27  2  0  0  0
 28 29  1  0  0  0
 28 45  1  0  0  0
 28 46  1  0  0  0
 29 30  1  0  0  0
 29 47  1  0  0  0
 29 48  1  0  0  0
 30 49  1  0  0  0
 30 50  1  0  0  0
 30 51  1  0  0  0
M  CHG  1  26  -1
M  END
> <s_m_source_file>
../4k69_ligand.sdf

> <i_m_source_file_index>
1

> <s_epik_input>
Tz1DKFtDSDJdMSlbTkhdYyhjMTIpW2NIXWMoQnIpW2NIXWMyW0NIMl1uM2MoPU8pbihbQ0BIXShbQ0gyXUMoPU8pW09IXSlbQ0gyXVtDSDJdW0NIM10pYyhjMzQpW2NIXVtjSF1bY0hdW2NIXTQ=

> <s_epik_cmdline>
J2VwaWtfYXBwJywgJy1pbWFlJywgJ2xpZ2FuZF9wcm8ubWFlJywgJy1vbWFlJywgJ2xpZ2FuZF9wcmVwLm1hZScsICctbXMnLCAnMScsICctcGgnLCAnNycsICctcGh0JywgJzAuNScsICctbnQn

> <r_lp_tautomer_probability>
1

> <r_epik_Ionization_Penalty>
  0.0011

> <r_epik_Ionization_Penalty_Charging>
  0.0011

> <r_epik_Ionization_Penalty_Neutral>
  0.0000

> <r_epik_State_Penalty>
 -0.0000

> <r_epik_Charging_Adjusted_Penalty>
0.00112423346782125

> <i_epik_Tot_Q>
-1

> <i_epik_Tot_abs_Q>
1

$$$$
