4k6t_ligand
                    3D
 Schrodinger Suite 2020-3.
164169  0  0  1  0            999 V2000
    5.4370  -25.7540   -1.3550 C   0  0  0  0  0  0
    5.6360  -26.3280    0.0530 C   0  0  1  0  0  0
    6.9900  -25.9370    0.6940 C   0  0  0  0  0  0
    7.0090  -24.4920    1.1870 C   0  0  1  0  0  0
    5.7560  -24.1810    2.0260 C   0  0  2  0  0  0
    4.4890  -24.5800    1.2610 C   0  0  2  0  0  0
    3.1760  -24.2960    2.0310 C   0  0  1  0  0  0
    1.9900  -24.7530    1.1830 C   0  0  1  0  0  0
    0.6560  -24.2000    1.6890 C   0  0  0  0  0  0
    5.7750  -22.2700    3.5850 C   0  0  0  0  0  0
    5.6330  -20.7810    3.7290 C   0  0  0  0  0  0
    5.6390  -22.7670    2.3490 N   0  0  0  0  0  0
    6.4120  -25.7520   -2.1350 O   0  0  0  0  0  0
    4.3130  -25.3210   -1.7320 O   0  0  0  0  0  0
    8.2200  -24.2360    1.9310 O   0  0  0  0  0  0
    4.5480  -25.9680    0.9240 O   0  0  0  0  0  0
    3.1870  -24.9380    3.3180 O   0  0  0  0  0  0
    2.1960  -24.3490   -0.1840 O   0  0  0  0  0  0
    0.5660  -22.7820    1.4700 O   0  0  0  0  0  0
    6.0220  -22.9710    4.5450 O   0  0  0  0  0  0
    6.7050  -33.3180    9.3060 C   0  0  0  0  0  0
    7.9600  -32.9930    8.4880 C   0  0  1  0  0  0
    8.1820  -31.4780    8.3740 C   0  0  0  0  0  0
    8.5630  -30.8500    9.7170 C   0  0  1  0  0  0
    9.7630  -31.5830   10.3240 C   0  0  2  0  0  0
    9.4680  -33.0780   10.3750 C   0  0  2  0  0  0
   10.6060  -33.9150   10.9690 C   0  0  1  0  0  0
   10.1730  -35.3870   11.1040 C   0  0  1  0  0  0
   10.9250  -36.1560   12.1990 C   0  0  0  0  0  0
   11.1110  -30.3890   11.9790 C   0  0  0  0  0  0
   11.2420  -29.9670   13.4110 C   0  0  0  0  0  0
   10.0330  -31.1030   11.6770 N   0  0  0  0  0  0
    5.6570  -32.6500    9.1350 O   0  0  0  0  0  0
    6.7330  -34.2480   10.1460 O   0  0  0  0  0  0
    8.8620  -29.4580    9.5320 O   0  0  0  0  0  0
    9.1460  -33.5680    9.0650 O   0  0  0  0  0  0
   11.7620  -33.7420   10.1350 O   0  0  0  0  0  0
    8.7740  -35.4540   11.4160 O   0  0  0  0  0  0
   10.5370  -35.7420   13.5290 O   0  0  0  0  0  0
   11.9490  -30.0870   11.1520 O   0  0  0  0  0  0
    5.3520  -27.7240   -0.0450 O   0  0  0  0  0  0
    4.3850  -28.5850   -0.7010 C   0  0  0  0  0  0
    5.1360  -29.6580   -1.5230 C   0  0  0  0  0  0
    5.3770  -30.9980   -0.8090 N   0  0  0  0  0  0
    6.3590  -31.8530   -1.1640 C   0  0  0  0  0  0
    4.7430  -31.5030    0.1530 N   0  0  0  0  0  0
    5.2760  -32.7000    0.4750 N   0  0  0  0  0  0
    6.2870  -32.9060   -0.3550 C   0  0  0  0  0  0
    7.2010  -34.1440   -0.3920 C   0  0  0  0  0  0
    7.9190  -34.4710    0.8780 N   0  3  0  0  0  0
    9.1460  -35.2960    0.6810 C   0  0  0  0  0  0
   10.0680  -34.2320   -0.0020 C   0  0  0  0  0  0
   11.1540  -34.3450   -0.7640 C   0  0  0  0  0  0
    9.8400  -32.9160    0.0970 N   0  0  0  0  0  0
   10.6710  -32.3040   -0.5080 N   0  0  0  0  0  0
   11.4920  -33.0630   -1.0450 N   0  0  0  0  0  0
   12.5390  -32.3770   -1.8370 C   0  0  0  0  0  0
   13.8920  -32.5540   -1.1920 C   0  0  0  0  0  0
   13.8460  -31.6900   -0.0090 O   0  0  0  0  0  0
    8.1990  -33.2700    1.7500 C   0  0  0  0  0  0
    7.9000  -33.9880    3.0460 C   0  0  0  0  0  0
    8.7890  -34.4090    3.9150 C   0  0  0  0  0  0
    6.7020  -34.3740    3.4250 N   0  0  0  0  0  0
    6.8320  -34.9480    4.4920 N   0  0  0  0  0  0
    8.0740  -35.0230    4.8350 N   0  0  0  0  0  0
    8.6840  -35.5810    6.0310 C   0  0  0  0  0  0
    7.6730  -35.2920    7.1680 C   0  0  0  0  0  0
    7.5870  -33.8470    7.3880 O   0  0  0  0  0  0
   16.0650  -32.2710    0.6880 C   0  0  0  0  0  0
   15.0180  -31.1690    0.6260 C   0  0  2  0  0  0
   14.8450  -30.4630    1.9790 C   0  0  0  0  0  0
   16.0080  -29.5120    2.2870 C   0  0  1  0  0  0
   16.2690  -28.5650    1.1020 C   0  0  2  0  0  0
   16.4930  -29.4050   -0.1600 C   0  0  2  0  0  0
   16.8610  -28.5900   -1.4090 C   0  0  1  0  0  0
   17.0620  -29.4880   -2.6340 C   0  0  1  0  0  0
   17.9040  -28.8090   -3.7210 C   0  0  0  0  0  0
   17.4460  -26.4220    1.5220 C   0  0  0  0  0  0
   18.7970  -25.7970    1.6980 C   0  0  0  0  0  0
   17.4570  -27.7440    1.3060 N   0  0  0  0  0  0
   16.8890  -32.3660   -0.2580 O   0  0  0  0  0  0
   16.0830  -33.0700    1.6470 O   0  0  0  0  0  0
   15.7210  -28.8000    3.5070 O   0  0  0  0  0  0
   15.3470  -30.2310   -0.4330 O   0  0  0  0  0  0
   15.8530  -27.6390   -1.7180 O   0  0  0  0  0  0
   17.7250  -30.6800   -2.2160 O   0  0  0  0  0  0
   19.2030  -28.4310   -3.2030 O   0  0  0  0  0  0
   16.4400  -25.7330    1.6090 O   0  0  0  0  0  0
    7.1903  -26.5910    1.5555 H   0  0  0  0  0  0
    7.7938  -26.0518   -0.0481 H   0  0  0  0  0  0
    7.0569  -23.8026    0.3312 H   0  0  0  0  0  0
    5.8542  -24.7087    2.9862 H   0  0  0  0  0  0
    4.4787  -24.0221    0.3130 H   0  0  0  0  0  0
    3.0698  -23.2312    2.2858 H   0  0  0  0  0  0
    1.9449  -25.8520    1.1931 H   0  0  0  0  0  0
   -0.1708  -24.6912    1.1550 H   0  0  0  0  0  0
    0.5634  -24.3956    2.7675 H   0  0  0  0  0  0
    5.4111  -20.3372    2.7473 H   0  0  0  0  0  0
    6.5713  -20.3592    4.1184 H   0  0  0  0  0  0
    4.8127  -20.5567    4.4267 H   0  0  0  0  0  0
    5.4268  -22.0370    1.5540 H   0  0  0  0  0  0
    4.1927  -24.9134   -2.7466 H   0  0  0  0  0  0
    9.2002  -24.4116    1.4636 H   0  0  0  0  0  0
    3.9839  -24.7081    4.0405 H   0  0  0  0  0  0
    3.1080  -24.6561   -0.7168 H   0  0  0  0  0  0
   -0.3358  -22.2337    1.7801 H   0  0  0  0  0  0
    8.9946  -31.2792    7.6598 H   0  0  0  0  0  0
    7.2577  -30.9975    8.0208 H   0  0  0  0  0  0
    7.7142  -30.8735   10.4163 H   0  0  0  0  0  0
   10.6683  -31.3746    9.7350 H   0  0  0  0  0  0
    8.5697  -33.2138   10.9952 H   0  0  0  0  0  0
   10.9243  -33.5607   11.9606 H   0  0  0  0  0  0
   10.3367  -35.8735   10.1311 H   0  0  0  0  0  0
   10.7138  -37.2312   12.1029 H   0  0  0  0  0  0
   12.0061  -35.9837   12.0916 H   0  0  0  0  0  0
   10.3818  -30.3432   13.9842 H   0  0  0  0  0  0
   11.2691  -28.8688   13.4686 H   0  0  0  0  0  0
   12.1712  -30.3793   13.8312 H   0  0  0  0  0  0
    9.3298  -31.3302   12.4918 H   0  0  0  0  0  0
    4.7554  -32.8816    9.7210 H   0  0  0  0  0  0
    8.1046  -28.7849    9.1039 H   0  0  0  0  0  0
   12.1688  -32.7349    9.9608 H   0  0  0  0  0  0
    8.0398  -34.9656   10.7584 H   0  0  0  0  0  0
   10.9997  -36.2133   14.4086 H   0  0  0  0  0  0
    3.7557  -29.0739    0.0572 H   0  0  0  0  0  0
    3.7524  -27.9830   -1.3699 H   0  0  0  0  0  0
    4.5619  -29.8921   -2.4317 H   0  0  0  0  0  0
    6.1284  -29.2762   -1.8045 H   0  0  0  0  0  0
    7.0803  -31.7069   -1.9680 H   0  0  0  0  0  0
    6.6036  -35.0334   -0.6411 H   0  0  0  0  0  0
    7.9812  -34.0011   -1.1541 H   0  0  0  0  0  0
    7.2034  -35.1086    1.4177 H   0  0  0  0  0  0
    9.5113  -35.6486    1.6568 H   0  0  0  0  0  0
    8.9080  -36.1609    0.0443 H   0  0  0  0  0  0
   11.6552  -35.2574   -1.0870 H   0  0  0  0  0  0
   12.5688  -32.8017   -2.8513 H   0  0  0  0  0  0
   12.3094  -31.3028   -1.8959 H   0  0  0  0  0  0
   14.0350  -33.6113   -0.9242 H   0  0  0  0  0  0
   14.6776  -32.2449   -1.8971 H   0  0  0  0  0  0
    9.2392  -32.9441    1.6022 H   0  0  0  0  0  0
    7.5162  -32.4518    1.4774 H   0  0  0  0  0  0
    9.8709  -34.2801    3.8827 H   0  0  0  0  0  0
    8.8418  -36.6608    5.8925 H   0  0  0  0  0  0
    9.6512  -35.0895    6.2128 H   0  0  0  0  0  0
    6.6831  -35.6798    6.8857 H   0  0  0  0  0  0
    8.0098  -35.7845    8.0921 H   0  0  0  0  0  0
   13.9153  -29.8751    1.9696 H   0  0  0  0  0  0
   14.7956  -31.2143    2.7810 H   0  0  0  0  0  0
   16.9353  -30.0641    2.4999 H   0  0  0  0  0  0
   15.4294  -27.8604    1.0094 H   0  0  0  0  0  0
   17.3241  -30.0926    0.0557 H   0  0  0  0  0  0
   17.7654  -28.0035   -1.1896 H   0  0  0  0  0  0
   16.0855  -29.7763   -3.0504 H   0  0  0  0  0  0
   18.0457  -29.5034   -4.5623 H   0  0  0  0  0  0
   17.3863  -27.9052   -4.0748 H   0  0  0  0  0  0
   19.5746  -26.5669    1.5859 H   0  0  0  0  0  0
   18.8661  -25.3493    2.7004 H   0  0  0  0  0  0
   18.9417  -25.0162    0.9369 H   0  0  0  0  0  0
   18.4549  -28.2066    1.2885 H   0  0  0  0  0  0
   17.6576  -33.1528   -0.2410 H   0  0  0  0  0  0
   15.5150  -29.3566    4.4332 H   0  0  0  0  0  0
   15.5529  -26.8923   -0.9681 H   0  0  0  0  0  0
   17.2772  -31.3140   -1.4366 H   0  0  0  0  0  0
   19.9318  -27.9306   -3.8576 H   0  0  0  0  0  0
  1  2  1  0  0  0
  1 13  2  0  0  0
  1 14  1  0  0  0
  2  3  1  0  0  0
  2 16  1  0  0  0
  2 41  1  0  0  0
  3  4  1  0  0  0
  3 89  1  0  0  0
  3 90  1  0  0  0
  4  5  1  0  0  0
  4 15  1  0  0  0
  4 91  1  0  0  0
  5  6  1  0  0  0
  5 12  1  0  0  0
  5 92  1  0  0  0
  6  7  1  0  0  0
  6 16  1  0  0  0
  6 93  1  0  0  0
  7  8  1  0  0  0
  7 17  1  0  0  0
  7 94  1  0  0  0
  8  9  1  0  0  0
  8 18  1  0  0  0
  8 95  1  0  0  0
  9 19  1  0  0  0
  9 96  1  0  0  0
  9 97  1  0  0  0
 10 11  1  0  0  0
 10 12  1  0  0  0
 10 20  2  0  0  0
 11 98  1  0  0  0
 11 99  1  0  0  0
 11100  1  0  0  0
 12101  1  0  0  0
 14102  1  0  0  0
 15103  1  0  0  0
 17104  1  0  0  0
 18105  1  0  0  0
 19106  1  0  0  0
 21 22  1  0  0  0
 21 33  1  0  0  0
 21 34  2  0  0  0
 22 23  1  0  0  0
 22 36  1  0  0  0
 22 68  1  0  0  0
 23 24  1  0  0  0
 23107  1  0  0  0
 23108  1  0  0  0
 24 25  1  0  0  0
 24 35  1  0  0  0
 24109  1  0  0  0
 25 26  1  0  0  0
 25 32  1  0  0  0
 25110  1  0  0  0
 26 27  1  0  0  0
 26 36  1  0  0  0
 26111  1  0  0  0
 27 28  1  0  0  0
 27 37  1  0  0  0
 27112  1  0  0  0
 28 29  1  0  0  0
 28 38  1  0  0  0
 28113  1  0  0  0
 29 39  1  0  0  0
 29114  1  0  0  0
 29115  1  0  0  0
 30 31  1  0  0  0
 30 32  1  0  0  0
 30 40  2  0  0  0
 31116  1  0  0  0
 31117  1  0  0  0
 31118  1  0  0  0
 32119  1  0  0  0
 33120  1  0  0  0
 35121  1  0  0  0
 37122  1  0  0  0
 38123  1  0  0  0
 39124  1  0  0  0
 41 42  1  0  0  0
 42 43  1  0  0  0
 42125  1  0  0  0
 42126  1  0  0  0
 43 44  1  0  0  0
 43127  1  0  0  0
 43128  1  0  0  0
 44 45  1  0  0  0
 44 46  1  0  0  0
 45 48  2  0  0  0
 45129  1  0  0  0
 46 47  2  0  0  0
 47 48  1  0  0  0
 48 49  1  0  0  0
 49 50  1  0  0  0
 49130  1  0  0  0
 49131  1  0  0  0
 50 51  1  0  0  0
 50 60  1  0  0  0
 50132  1  0  0  0
 51 52  1  0  0  0
 51133  1  0  0  0
 51134  1  0  0  0
 52 53  2  0  0  0
 52 54  1  0  0  0
 53 56  1  0  0  0
 53135  1  0  0  0
 54 55  2  0  0  0
 55 56  1  0  0  0
 56 57  1  0  0  0
 57 58  1  0  0  0
 57136  1  0  0  0
 57137  1  0  0  0
 58 59  1  0  0  0
 58138  1  0  0  0
 58139  1  0  0  0
 59 70  1  0  0  0
 60 61  1  0  0  0
 60140  1  0  0  0
 60141  1  0  0  0
 61 62  2  0  0  0
 61 63  1  0  0  0
 62 65  1  0  0  0
 62142  1  0  0  0
 63 64  2  0  0  0
 64 65  1  0  0  0
 65 66  1  0  0  0
 66 67  1  0  0  0
 66143  1  0  0  0
 66144  1  0  0  0
 67 68  1  0  0  0
 67145  1  0  0  0
 67146  1  0  0  0
 69 70  1  0  0  0
 69 81  1  0  0  0
 69 82  2  0  0  0
 70 71  1  0  0  0
 70 84  1  0  0  0
 71 72  1  0  0  0
 71147  1  0  0  0
 71148  1  0  0  0
 72 73  1  0  0  0
 72 83  1  0  0  0
 72149  1  0  0  0
 73 74  1  0  0  0
 73 80  1  0  0  0
 73150  1  0  0  0
 74 75  1  0  0  0
 74 84  1  0  0  0
 74151  1  0  0  0
 75 76  1  0  0  0
 75 85  1  0  0  0
 75152  1  0  0  0
 76 77  1  0  0  0
 76 86  1  0  0  0
 76153  1  0  0  0
 77 87  1  0  0  0
 77154  1  0  0  0
 77155  1  0  0  0
 78 79  1  0  0  0
 78 80  1  0  0  0
 78 88  2  0  0  0
 79156  1  0  0  0
 79157  1  0  0  0
 79158  1  0  0  0
 80159  1  0  0  0
 81160  1  0  0  0
 83161  1  0  0  0
 85162  1  0  0  0
 86163  1  0  0  0
 87164  1  0  0  0
M  CHG  1  50   1
M  END
> <s_m_source_file>
../4k6t_ligand.sdf

> <i_m_source_file_index>
1

> <s_epik_input>
W09IXVtDSDJdW0NAQEhdKFtPSF0pW0NAQEhdKFtPSF0pW0NASF0oTzEpW0NASF0oW05IXUMoPU8pW0NIM10pW0NAQEhdKFtPSF0pW0NIMl1bQ0BAXTEoQyg9TylbT0hdKU9bQ0gyXVtDSDJdbjJbY0hdYyhubjIpW0NIMl1bTkgrXShbQ0gyXWMzW2NIXW4obm4zKVtDSDJdW0NIMl1PW0NAXTQoQyg9TylbT0hdKVtDSDJdW0NASF0oW09IXSlbQ0BASF0oW05IXUMoPU8pW0NIM10pW0NAQEhdKE80KVtDQEhdKFtPSF0pW0NASF0oW09IXSlbQ0gyXVtPSF0pW0NIMl1jNVtjSF1uKG5uNSlbQ0gyXVtDSDJdT1tDQF02KEMoPU8pW09IXSlbQ0gyXVtDQEhdKFtPSF0pW0NAQEhdKFtOSF1DKD1PKVtDSDNdKVtDQEBIXShPNilbQ0BIXShbT0hdKVtDQEhdKFtPSF0pW0NIMl1bT0hd

> <s_epik_cmdline>
J2VwaWtfYXBwJywgJy1pbWFlJywgJ2xpZ2FuZF9wcm8ubWFlJywgJy1vbWFlJywgJ2xpZ2FuZF9wcmVwLm1hZScsICctbXMnLCAnMScsICctcGgnLCAnNycsICctcGh0JywgJzAuNScsICctbnQn

> <s_epik_pKa_notes>
Molecule size exceeds maximum supported for generating protonation states

$$$$
