4k6u_ligand
                    3D
 Schrodinger Suite 2020-3.
173178  0  0  1  0            999 V2000
    8.3310   17.6420    7.9420 C   0  0  0  0  0  0
    7.4740   17.1070    9.0860 C   0  0  1  0  0  0
    7.4580   15.5710    9.1900 C   0  0  0  0  0  0
    8.7500   15.0240    9.8110 C   0  0  1  0  0  0
    9.1620   15.7320   11.1230 C   0  0  2  0  0  0
    9.1910   17.2360   10.8310 C   0  0  2  0  0  0
    9.5590   18.1320   12.0140 C   0  0  1  0  0  0
    9.4900   19.6060   11.5590 C   0  0  1  0  0  0
   10.1880   20.5530   12.5230 C   0  0  0  0  0  0
   10.7200   14.5890   12.6760 C   0  0  0  0  0  0
   12.1750   14.2740   12.9560 C   0  0  0  0  0  0
   10.4940   15.3300   11.5910 N   0  0  0  0  0  0
    8.2620   17.1100    6.8220 O   0  0  0  0  0  0
    9.0660   18.6360    8.1640 O   0  0  0  0  0  0
    8.5340   13.6230    9.9750 O   0  0  0  0  0  0
    7.9170   17.6760   10.3280 O   0  0  0  0  0  0
    8.6930   17.8890   13.1460 O   0  0  0  0  0  0
   10.0720   19.7690   10.2510 O   0  0  0  0  0  0
    9.6810   21.8840   12.3320 O   0  0  0  0  0  0
    9.8310   14.1640   13.4140 O   0  0  0  0  0  0
   -0.6800   16.0600   16.2800 C   0  0  0  0  0  0
   -0.5160   15.0130   15.1830 C   0  0  1  0  0  0
    0.8980   14.3550   15.1810 C   0  0  0  0  0  0
    1.0570   13.3520   16.3130 C   0  0  1  0  0  0
   -0.1100   12.3360   16.3080 C   0  0  2  0  0  0
   -1.4440   13.1010   16.3420 C   0  0  2  0  0  0
   -2.7060   12.2280   16.4050 C   0  0  1  0  0  0
   -3.9530   13.1520   16.3940 C   0  0  1  0  0  0
   -5.2260   12.4390   16.8200 C   0  0  0  0  0  0
    0.2450   10.2390   17.5440 C   0  0  0  0  0  0
    0.2050    9.6640   18.8980 C   0  0  0  0  0  0
   -0.0600   11.5480   17.5090 N   0  0  0  0  0  0
    0.1680   16.9780   16.3170 O   0  0  0  0  0  0
   -1.6210   16.0150   17.1260 O   0  0  0  0  0  0
    2.3300   12.6690   16.1580 O   0  0  0  0  0  0
   -1.5310   13.9870   15.2130 O   0  0  0  0  0  0
   -2.7640   11.4010   15.2630 O   0  0  0  0  0  0
   -3.7540   14.2230   17.3270 O   0  0  0  0  0  0
   -4.9720   11.8120   18.0900 O   0  0  0  0  0  0
    0.5440    9.5780   16.5800 O   0  0  0  0  0  0
   -0.3760   11.4980    6.2690 O   0  0  0  0  0  0
   -0.6600   12.1850    5.0410 C   0  0  0  0  0  0
   -1.9790   12.9380    5.1720 C   0  0  0  0  0  0
   -1.9810   14.1160    4.1800 C   0  0  0  0  0  0
   -1.4630   15.3610    4.8270 N   0  0  0  0  0  0
   -2.1370   16.5000    4.8590 C   0  0  0  0  0  0
   -0.3030   15.5580    5.4550 N   0  0  0  0  0  0
   -0.2320   16.7650    5.8720 N   0  0  0  0  0  0
   -1.3600   17.3550    5.4980 C   0  0  0  0  0  0
   -1.7150   18.7990    5.7910 C   0  0  0  0  0  0
   -1.2500   19.0880    7.1460 N   0  3  0  0  0  0
   -2.3210   18.8240    8.0900 C   0  0  0  0  0  0
   -1.5620   18.4770    9.3520 C   0  0  0  0  0  0
   -1.9110   18.7670   10.5880 C   0  0  0  0  0  0
   -0.4170   17.8060    9.3530 N   0  0  0  0  0  0
   -0.0680   17.6830   10.5230 N   0  0  0  0  0  0
   -0.9350   18.2370   11.3300 N   0  0  0  0  0  0
   -0.8110   18.2870   12.7700 C   0  0  0  0  0  0
   -1.9740   17.5280   13.3950 C   0  0  0  0  0  0
   -1.8160   16.0470   13.0120 C   0  0  0  0  0  0
   -0.7980   15.4460   13.8800 O   0  0  0  0  0  0
   -0.6990   20.3990    7.2760 C   0  0  0  0  0  0
    0.6640   20.1590    6.7350 C   0  0  0  0  0  0
    1.6730   19.6930    7.4290 C   0  0  0  0  0  0
    1.0180   20.3220    5.4750 N   0  0  0  0  0  0
    2.1720   20.0130    5.3870 N   0  0  0  0  0  0
    2.6440   19.6140    6.5290 N   0  0  0  0  0  0
    4.0080   19.2180    6.6520 C   0  0  0  0  0  0
    4.2110   18.7870    8.0790 C   0  0  0  0  0  0
    5.7150   18.9480    8.3370 C   0  0  0  0  0  0
    6.1870   17.7370    8.9680 O   0  0  0  0  0  0
   -1.4590    9.4250    5.8150 C   0  0  0  0  0  0
   -0.1600   10.0860    6.3130 C   0  0  2  0  0  0
    0.3020    9.5570    7.6700 C   0  0  0  0  0  0
    0.9670    8.1850    7.5660 C   0  0  1  0  0  0
    2.0280    8.0980    6.4670 C   0  0  2  0  0  0
    1.3530    8.5650    5.1970 C   0  0  2  0  0  0
    2.2400    8.4820    3.9690 C   0  0  1  0  0  0
    1.5270    8.9710    2.7460 C   0  0  1  0  0  0
    2.2440    8.4020    1.5300 C   0  0  0  0  0  0
    3.6530    6.2230    6.5700 C   0  0  0  0  0  0
    3.9000    4.7720    6.2930 C   0  0  0  0  0  0
    2.4530    6.7040    6.2340 N   0  0  0  0  0  0
   -1.5410    8.9920    4.6380 O   0  0  0  0  0  0
   -2.4070    9.3800    6.5900 O   0  0  0  0  0  0
    1.4960    7.8940    8.8290 O   0  0  0  0  0  0
    0.8790    9.9180    5.3550 O   0  0  0  0  0  0
    3.3540    9.3290    4.1360 O   0  0  0  0  0  0
    0.1850    8.5180    2.7460 O   0  0  0  0  0  0
    1.8610    9.1770    0.4040 O   0  0  0  0  0  0
    4.5040    6.8970    7.1100 O   0  0  0  0  0  0
    6.6134   15.2549    9.8198 H   0  0  0  0  0  0
    7.3489   15.1366    8.1853 H   0  0  0  0  0  0
    9.6126   15.1389    9.1381 H   0  0  0  0  0  0
    8.4805   15.4491   11.9388 H   0  0  0  0  0  0
    9.9477   17.3720   10.0443 H   0  0  0  0  0  0
   10.5562   17.8756   12.4012 H   0  0  0  0  0  0
    8.4313   19.8917   11.4719 H   0  0  0  0  0  0
    9.9960   20.2307   13.5571 H   0  0  0  0  0  0
   11.2709   20.5402   12.3300 H   0  0  0  0  0  0
   12.8062   14.7425   12.1865 H   0  0  0  0  0  0
   12.3241   13.1843   12.9390 H   0  0  0  0  0  0
   12.4512   14.6665   13.9458 H   0  0  0  0  0  0
   11.3899   15.6425   11.0346 H   0  0  0  0  0  0
    9.6955   19.0451    7.3600 H   0  0  0  0  0  0
    8.2364   13.0078    9.1131 H   0  0  0  0  0  0
    8.6325   16.8827   13.5862 H   0  0  0  0  0  0
    9.7030   19.1689    9.4062 H   0  0  0  0  0  0
   10.0679   22.7129   12.9430 H   0  0  0  0  0  0
    1.0558   13.8279   14.2285 H   0  0  0  0  0  0
    1.6652   15.1342   15.3003 H   0  0  0  0  0  0
    1.0967   13.8733   17.2808 H   0  0  0  0  0  0
   -0.0292   11.6503   15.4517 H   0  0  0  0  0  0
   -1.4316   13.7218   17.2500 H   0  0  0  0  0  0
   -2.6756   11.5423   17.2646 H   0  0  0  0  0  0
   -4.0805   13.5692   15.3842 H   0  0  0  0  0  0
   -6.0429   13.1701   16.9108 H   0  0  0  0  0  0
   -5.4926   11.6831   16.0666 H   0  0  0  0  0  0
   -0.0901   10.4416   19.6180 H   0  0  0  0  0  0
    1.2008    9.2785   19.1622 H   0  0  0  0  0  0
   -0.5256    8.8422   18.9259 H   0  0  0  0  0  0
   -0.2798   12.0129   18.4814 H   0  0  0  0  0  0
   -1.7015   16.7916   17.9009 H   0  0  0  0  0  0
    3.2658   13.2470   16.1408 H   0  0  0  0  0  0
   -1.9688   10.6643   15.0765 H   0  0  0  0  0  0
   -2.8847   14.8889   17.2226 H   0  0  0  0  0  0
   -5.7660   11.2357   18.5875 H   0  0  0  0  0  0
    0.1490   12.8982    4.8243 H   0  0  0  0  0  0
   -0.7347   11.4552    4.2214 H   0  0  0  0  0  0
   -2.8134   12.2584    4.9441 H   0  0  0  0  0  0
   -2.0846   13.3166    6.1994 H   0  0  0  0  0  0
   -1.3401   13.8721    3.3199 H   0  0  0  0  0  0
   -3.0080   14.3002    3.8315 H   0  0  0  0  0  0
   -3.1267   16.6918    4.4444 H   0  0  0  0  0  0
   -1.2167   19.4543    5.0614 H   0  0  0  0  0  0
   -2.8046   18.9308    5.7180 H   0  0  0  0  0  0
   -0.3997   18.4337    7.3886 H   0  0  0  0  0  0
   -2.9439   19.7241    8.1989 H   0  0  0  0  0  0
   -2.9393   17.9928    7.7201 H   0  0  0  0  0  0
   -2.7916   19.3127   10.9269 H   0  0  0  0  0  0
    0.1396   17.8234   13.0725 H   0  0  0  0  0  0
   -0.8303   19.3350   13.1035 H   0  0  0  0  0  0
   -1.9452   17.6482   14.4880 H   0  0  0  0  0  0
   -2.9229   17.9269   13.0072 H   0  0  0  0  0  0
   -2.7769   15.5289   13.1470 H   0  0  0  0  0  0
   -1.5034   15.9716   11.9600 H   0  0  0  0  0  0
   -1.2967   21.1082    6.6846 H   0  0  0  0  0  0
   -0.7140   20.6998    8.3340 H   0  0  0  0  0  0
    1.7062   19.4337    8.4872 H   0  0  0  0  0  0
    4.2122   18.3868    5.9611 H   0  0  0  0  0  0
    4.6604   20.0686    6.4053 H   0  0  0  0  0  0
    3.6154   19.4294    8.7443 H   0  0  0  0  0  0
    3.8903   17.7413    8.1954 H   0  0  0  0  0  0
    6.2358   19.1084    7.3815 H   0  0  0  0  0  0
    5.8835   19.8124    8.9961 H   0  0  0  0  0  0
    1.0313   10.2552    8.1067 H   0  0  0  0  0  0
   -0.5642    9.4640    8.3416 H   0  0  0  0  0  0
    0.2318    7.3950    7.3530 H   0  0  0  0  0  0
    2.9245    8.6724    6.7433 H   0  0  0  0  0  0
    0.4775    7.9188    5.0361 H   0  0  0  0  0  0
    2.5941    7.4481    3.8437 H   0  0  0  0  0  0
    1.4630   10.0691    2.7409 H   0  0  0  0  0  0
    3.3315    8.4616    1.6844 H   0  0  0  0  0  0
    1.9506    7.3512    1.3898 H   0  0  0  0  0  0
    3.0169    4.3369    5.8023 H   0  0  0  0  0  0
    4.0902    4.2452    7.2397 H   0  0  0  0  0  0
    4.7743    4.6683    5.6336 H   0  0  0  0  0  0
    1.7642    5.9915    5.7567 H   0  0  0  0  0  0
   -2.4717    8.5210    4.2888 H   0  0  0  0  0  0
    0.8463    7.9180    9.7163 H   0  0  0  0  0  0
    4.0438    9.1709    4.9782 H   0  0  0  0  0  0
   -0.4989    8.8243    3.5513 H   0  0  0  0  0  0
    2.2650    8.9385   -0.5909 H   0  0  0  0  0  0
  1  2  1  0  0  0
  1 13  2  0  0  0
  1 14  1  0  0  0
  2  3  1  0  0  0
  2 16  1  0  0  0
  2 71  1  0  0  0
  3  4  1  0  0  0
  3 92  1  0  0  0
  3 93  1  0  0  0
  4  5  1  0  0  0
  4 15  1  0  0  0
  4 94  1  0  0  0
  5  6  1  0  0  0
  5 12  1  0  0  0
  5 95  1  0  0  0
  6  7  1  0  0  0
  6 16  1  0  0  0
  6 96  1  0  0  0
  7  8  1  0  0  0
  7 17  1  0  0  0
  7 97  1  0  0  0
  8  9  1  0  0  0
  8 18  1  0  0  0
  8 98  1  0  0  0
  9 19  1  0  0  0
  9 99  1  0  0  0
  9100  1  0  0  0
 10 11  1  0  0  0
 10 12  1  0  0  0
 10 20  2  0  0  0
 11101  1  0  0  0
 11102  1  0  0  0
 11103  1  0  0  0
 12104  1  0  0  0
 14105  1  0  0  0
 15106  1  0  0  0
 17107  1  0  0  0
 18108  1  0  0  0
 19109  1  0  0  0
 21 22  1  0  0  0
 21 33  2  0  0  0
 21 34  1  0  0  0
 22 23  1  0  0  0
 22 36  1  0  0  0
 22 61  1  0  0  0
 23 24  1  0  0  0
 23110  1  0  0  0
 23111  1  0  0  0
 24 25  1  0  0  0
 24 35  1  0  0  0
 24112  1  0  0  0
 25 26  1  0  0  0
 25 32  1  0  0  0
 25113  1  0  0  0
 26 27  1  0  0  0
 26 36  1  0  0  0
 26114  1  0  0  0
 27 28  1  0  0  0
 27 37  1  0  0  0
 27115  1  0  0  0
 28 29  1  0  0  0
 28 38  1  0  0  0
 28116  1  0  0  0
 29 39  1  0  0  0
 29117  1  0  0  0
 29118  1  0  0  0
 30 31  1  0  0  0
 30 32  1  0  0  0
 30 40  2  0  0  0
 31119  1  0  0  0
 31120  1  0  0  0
 31121  1  0  0  0
 32122  1  0  0  0
 34123  1  0  0  0
 35124  1  0  0  0
 37125  1  0  0  0
 38126  1  0  0  0
 39127  1  0  0  0
 41 42  1  0  0  0
 41 73  1  0  0  0
 42 43  1  0  0  0
 42128  1  0  0  0
 42129  1  0  0  0
 43 44  1  0  0  0
 43130  1  0  0  0
 43131  1  0  0  0
 44 45  1  0  0  0
 44132  1  0  0  0
 44133  1  0  0  0
 45 46  1  0  0  0
 45 47  1  0  0  0
 46 49  2  0  0  0
 46134  1  0  0  0
 47 48  2  0  0  0
 48 49  1  0  0  0
 49 50  1  0  0  0
 50 51  1  0  0  0
 50135  1  0  0  0
 50136  1  0  0  0
 51 52  1  0  0  0
 51 62  1  0  0  0
 51137  1  0  0  0
 52 53  1  0  0  0
 52138  1  0  0  0
 52139  1  0  0  0
 53 54  2  0  0  0
 53 55  1  0  0  0
 54 57  1  0  0  0
 54140  1  0  0  0
 55 56  2  0  0  0
 56 57  1  0  0  0
 57 58  1  0  0  0
 58 59  1  0  0  0
 58141  1  0  0  0
 58142  1  0  0  0
 59 60  1  0  0  0
 59143  1  0  0  0
 59144  1  0  0  0
 60 61  1  0  0  0
 60145  1  0  0  0
 60146  1  0  0  0
 62 63  1  0  0  0
 62147  1  0  0  0
 62148  1  0  0  0
 63 64  2  0  0  0
 63 65  1  0  0  0
 64 67  1  0  0  0
 64149  1  0  0  0
 65 66  2  0  0  0
 66 67  1  0  0  0
 67 68  1  0  0  0
 68 69  1  0  0  0
 68150  1  0  0  0
 68151  1  0  0  0
 69 70  1  0  0  0
 69152  1  0  0  0
 69153  1  0  0  0
 70 71  1  0  0  0
 70154  1  0  0  0
 70155  1  0  0  0
 72 73  1  0  0  0
 72 84  1  0  0  0
 72 85  2  0  0  0
 73 74  1  0  0  0
 73 87  1  0  0  0
 74 75  1  0  0  0
 74156  1  0  0  0
 74157  1  0  0  0
 75 76  1  0  0  0
 75 86  1  0  0  0
 75158  1  0  0  0
 76 77  1  0  0  0
 76 83  1  0  0  0
 76159  1  0  0  0
 77 78  1  0  0  0
 77 87  1  0  0  0
 77160  1  0  0  0
 78 79  1  0  0  0
 78 88  1  0  0  0
 78161  1  0  0  0
 79 80  1  0  0  0
 79 89  1  0  0  0
 79162  1  0  0  0
 80 90  1  0  0  0
 80163  1  0  0  0
 80164  1  0  0  0
 81 82  1  0  0  0
 81 83  1  0  0  0
 81 91  2  0  0  0
 82165  1  0  0  0
 82166  1  0  0  0
 82167  1  0  0  0
 83168  1  0  0  0
 84169  1  0  0  0
 86170  1  0  0  0
 88171  1  0  0  0
 89172  1  0  0  0
 90173  1  0  0  0
M  CHG  1  51   1
M  END
> <s_m_source_file>
../4k6u_ligand.sdf

> <i_m_source_file_index>
1

> <s_epik_input>
W09IXVtDSDJdW0NAQEhdKFtPSF0pW0NAQEhdKFtPSF0pW0NASF0oTzEpW0NASF0oW05IXUMoPU8pW0NIM10pW0NAQEhdKFtPSF0pW0NIMl1bQ0BAXTEoQyg9TylbT0hdKU9bQ0gyXVtDSDJdW0NIMl1uKG5uMilbY0hdYzJbQ0gyXVtOSCtdKFtDSDJdYyhubjMpW2NIXW4zW0NIMl1bQ0gyXVtDSDJdT1tDQF00KEMoPU8pW09IXSlbQ0gyXVtDQEhdKFtPSF0pW0NAQEhdKFtOSF1DKD1PKVtDSDNdKVtDQEBIXShPNClbQ0BIXShbT0hdKVtDQEhdKFtPSF0pW0NIMl1bT0hdKVtDSDJdYzVbY0hdbihubjUpW0NIMl1bQ0gyXVtDSDJdT1tDQF02KEMoPU8pW09IXSlbQ0gyXVtDQEhdKFtPSF0pW0NAQEhdKFtOSF1DKD1PKVtDSDNdKVtDQEBIXShPNilbQ0BIXShbT0hdKVtDQEhdKFtPSF0pW0NIMl1bT0hd

> <s_epik_cmdline>
J2VwaWtfYXBwJywgJy1pbWFlJywgJ2xpZ2FuZF9wcm8ubWFlJywgJy1vbWFlJywgJ2xpZ2FuZF9wcmVwLm1hZScsICctbXMnLCAnMScsICctcGgnLCAnNycsICctcGh0JywgJzAuNScsICctbnQn

> <s_epik_pKa_notes>
Molecule size exceeds maximum supported for generating protonation states

$$$$
