4k6v_ligand
                    3D
 Schrodinger Suite 2020-3.
182187  0  0  1  0            999 V2000
  -19.1900   17.8630  -29.5770 C   0  0  0  0  0  0
  -20.1460   17.3930  -28.4840 C   0  0  1  0  0  0
  -20.2430   15.8600  -28.3640 C   0  0  0  0  0  0
  -19.0230   15.2320  -27.6960 C   0  0  1  0  0  0
  -18.7450   15.9480  -26.3660 C   0  0  2  0  0  0
  -18.5590   17.4480  -26.6460 C   0  0  2  0  0  0
  -18.2140   18.3230  -25.4290 C   0  0  1  0  0  0
  -18.1750   19.8170  -25.7770 C   0  0  1  0  0  0
  -17.3290   20.5830  -24.7640 C   0  0  0  0  0  0
  -17.6610   14.6870  -24.5550 C   0  0  0  0  0  0
  -16.3600   14.1660  -23.9800 C   0  0  0  0  0  0
  -17.5760   15.3870  -25.6910 N   0  0  0  0  0  0
  -18.4350   18.8420  -29.3670 O   0  0  0  0  0  0
  -19.1770   17.2540  -30.6620 O   0  0  0  0  0  0
  -19.2600   13.8100  -27.5350 O   0  0  0  0  0  0
  -19.7680   17.9680  -27.2270 O   0  0  0  0  0  0
  -19.1880   18.1130  -24.3890 O   0  0  0  0  0  0
  -17.6010   20.0700  -27.0680 O   0  0  0  0  0  0
  -15.9520   20.1710  -24.9220 O   0  0  0  0  0  0
  -16.5920   12.9270  -23.0650 C   0  0  0  0  0  0
  -18.7580   14.4860  -24.0280 O   0  0  0  0  0  0
  -28.5530   11.8580  -30.7110 O   0  0  0  0  0  0
  -29.4390   12.5480  -31.6260 C   0  0  0  0  0  0
  -28.7420   12.8400  -32.9550 C   0  0  0  0  0  0
  -27.6810   13.9270  -32.7850 C   0  0  0  0  0  0
  -28.2700   15.2430  -32.4970 N   0  0  0  0  0  0
  -27.5260   16.0980  -31.8220 C   0  0  0  0  0  0
  -29.4330   15.8130  -32.7750 N   0  0  0  0  0  0
  -29.4370   17.0260  -32.2840 N   0  0  0  0  0  0
  -28.2530   17.1980  -31.6870 C   0  0  0  0  0  0
  -27.7820   18.4500  -30.9420 C   0  0  0  0  0  0
  -27.8100   18.2530  -29.4660 N   0  3  0  0  0  0
  -27.8840   19.5140  -28.6290 C   0  0  0  0  0  0
  -28.7440   18.8810  -27.5180 C   0  0  0  0  0  0
  -29.2440   19.4040  -26.4140 C   0  0  0  0  0  0
  -29.1060   17.6050  -27.5540 N   0  0  0  0  0  0
  -29.7630   17.3640  -26.5680 N   0  0  0  0  0  0
  -29.8810   18.3820  -25.8250 N   0  0  0  0  0  0
  -30.6990   18.2290  -24.6080 C   0  0  0  0  0  0
  -29.9460   17.7670  -23.3640 C   0  0  0  0  0  0
  -28.4490   17.8760  -23.5280 C   0  0  0  0  0  0
  -27.9730   16.6090  -23.0140 O   0  0  0  0  0  0
  -26.7010   17.3890  -29.0170 C   0  0  0  0  0  0
  -25.5130   18.2700  -29.3670 C   0  0  0  0  0  0
  -24.4420   17.9450  -30.0530 C   0  0  0  0  0  0
  -25.4350   19.5550  -29.0430 N   0  0  0  0  0  0
  -24.4570   19.9870  -29.4370 N   0  0  0  0  0  0
  -23.7730   19.0930  -30.0700 N   0  0  0  0  0  0
  -22.5190   19.2430  -30.7000 C   0  0  0  0  0  0
  -21.6570   20.1570  -29.8730 C   0  0  0  0  0  0
  -21.5610   19.4680  -28.5090 C   0  0  0  0  0  0
  -21.4170   18.0130  -28.6760 O   0  0  0  0  0  0
  -28.0750   16.7610  -20.6510 C   0  0  0  0  0  0
  -27.9000   15.8040  -21.8210 C   0  0  2  0  0  0
  -26.5230   15.1290  -21.8460 C   0  0  0  0  0  0
  -26.4040   14.0250  -20.8000 C   0  0  1  0  0  0
  -27.5470   13.0290  -20.9250 C   0  0  2  0  0  0
  -28.8490   13.8070  -20.7580 C   0  0  2  0  0  0
  -30.1200   12.9470  -20.7650 C   0  0  1  0  0  0
  -31.3940   13.8050  -20.6680 C   0  0  1  0  0  0
  -32.5660   12.9690  -20.1660 C   0  0  0  0  0  0
  -27.1850   10.6820  -20.2130 C   0  0  0  0  0  0
  -27.1450    9.7170  -19.0550 C   0  0  0  0  0  0
  -27.4460   11.9710  -19.9200 N   0  0  0  0  0  0
  -29.1450   16.7530  -19.9880 O   0  0  0  0  0  0
  -27.1490   17.5530  -20.4000 O   0  0  0  0  0  0
  -25.1470   13.3560  -20.9630 O   0  0  0  0  0  0
  -28.9330   14.8180  -21.7880 O   0  0  0  0  0  0
  -30.1630   12.1880  -21.9770 O   0  0  0  0  0  0
  -31.2240   14.9000  -19.7550 O   0  0  0  0  0  0
  -32.3370   12.5650  -18.7960 O   0  0  0  0  0  0
  -26.2270    8.4880  -19.3510 C   0  0  0  0  0  0
  -27.0000   10.3190  -21.3670 O   0  0  0  0  0  0
  -29.4980    9.7600  -31.2680 C   0  0  0  0  0  0
  -28.2460   10.4690  -30.7970 C   0  0  2  0  0  0
  -27.7800   10.0300  -29.4020 C   0  0  0  0  0  0
  -27.1170    8.6610  -29.4330 C   0  0  1  0  0  0
  -26.0150    8.6300  -30.4980 C   0  0  2  0  0  0
  -26.6500    8.9870  -31.8380 C   0  0  2  0  0  0
  -25.7050    8.8990  -33.0390 C   0  0  1  0  0  0
  -26.3860    9.3270  -34.3430 C   0  0  1  0  0  0
  -25.5960    8.8180  -35.5480 C   0  0  0  0  0  0
  -24.1170    7.0890  -30.2760 C   0  0  0  0  0  0
  -23.6140    5.6840  -30.4200 C   0  0  0  0  0  0
  -25.4080    7.3100  -30.5790 N   0  0  0  0  0  0
  -30.4510    9.6630  -30.4720 O   0  0  0  0  0  0
  -29.5530    9.3330  -32.4530 O   0  0  0  0  0  0
  -26.5930    8.3520  -28.1350 O   0  0  0  0  0  0
  -27.2030   10.3120  -31.7630 O   0  0  0  0  0  0
  -24.5660    9.7170  -32.7760 O   0  0  0  0  0  0
  -27.7320    8.8220  -34.4210 O   0  0  0  0  0  0
  -26.0130    9.5000  -36.7450 O   0  0  0  0  0  0
  -22.4470    5.3460  -29.4340 C   0  0  0  0  0  0
  -23.3950    7.9950  -29.8800 O   0  0  0  0  0  0
  -21.1250   15.5944  -27.7628 H   0  0  0  0  0  0
  -20.3368   15.4189  -29.3673 H   0  0  0  0  0  0
  -18.1223   15.2916  -28.3247 H   0  0  0  0  0  0
  -19.5657   15.7781  -25.6535 H   0  0  0  0  0  0
  -17.7324   17.5307  -27.3671 H   0  0  0  0  0  0
  -17.2380   18.0111  -25.0287 H   0  0  0  0  0  0
  -19.2140   20.1744  -25.8297 H   0  0  0  0  0  0
  -17.4241   21.6631  -24.9491 H   0  0  0  0  0  0
  -17.6780   20.3533  -23.7464 H   0  0  0  0  0  0
  -15.6889   13.8708  -24.8000 H   0  0  0  0  0  0
  -15.8819   14.9550  -23.3809 H   0  0  0  0  0  0
  -16.5722   15.5335  -26.1164 H   0  0  0  0  0  0
  -17.7450   19.1829  -30.1529 H   0  0  0  0  0  0
  -19.4711   13.1845  -28.4149 H   0  0  0  0  0  0
  -19.3657   17.1002  -23.9983 H   0  0  0  0  0  0
  -18.0465   19.6175  -27.9662 H   0  0  0  0  0  0
  -15.1706   20.6069  -24.2822 H   0  0  0  0  0  0
  -15.6272   12.5788  -22.6677 H   0  0  0  0  0  0
  -17.0598   12.1215  -23.6501 H   0  0  0  0  0  0
  -17.2529   13.2057  -22.2310 H   0  0  0  0  0  0
  -30.3223   11.9226  -31.8228 H   0  0  0  0  0  0
  -29.7571   13.5016  -31.1794 H   0  0  0  0  0  0
  -28.2555   11.9245  -33.3228 H   0  0  0  0  0  0
  -29.4845   13.1817  -33.6911 H   0  0  0  0  0  0
  -27.0153   13.6622  -31.9503 H   0  0  0  0  0  0
  -27.0925   14.0129  -33.7103 H   0  0  0  0  0  0
  -26.5150   15.9328  -31.4496 H   0  0  0  0  0  0
  -26.7505   18.6882  -31.2409 H   0  0  0  0  0  0
  -28.4405   19.2949  -31.1919 H   0  0  0  0  0  0
  -28.7588   17.7228  -29.2964 H   0  0  0  0  0  0
  -26.8683   19.8230  -28.3409 H   0  0  0  0  0  0
  -28.3589   20.3152  -29.2143 H   0  0  0  0  0  0
  -29.1585   20.4320  -26.0617 H   0  0  0  0  0  0
  -31.1587   19.1948  -24.3514 H   0  0  0  0  0  0
  -31.4878   17.4837  -24.7877 H   0  0  0  0  0  0
  -30.2410   18.3878  -22.5052 H   0  0  0  0  0  0
  -30.1906   16.7147  -23.1570 H   0  0  0  0  0  0
  -28.2061   18.0194  -24.5912 H   0  0  0  0  0  0
  -28.0781   18.7341  -22.9482 H   0  0  0  0  0  0
  -26.8048   17.1890  -27.9403 H   0  0  0  0  0  0
  -26.7290   16.4390  -29.5708 H   0  0  0  0  0  0
  -24.1722   16.9851  -30.4933 H   0  0  0  0  0  0
  -22.0342   18.2598  -30.7905 H   0  0  0  0  0  0
  -22.6611   19.6753  -31.7015 H   0  0  0  0  0  0
  -20.6709   20.2612  -30.3492 H   0  0  0  0  0  0
  -22.1350   21.1450  -29.7997 H   0  0  0  0  0  0
  -20.6866   19.8535  -27.9642 H   0  0  0  0  0  0
  -22.4734   19.6727  -27.9297 H   0  0  0  0  0  0
  -26.3519   14.6816  -22.8362 H   0  0  0  0  0  0
  -25.7436   15.8781  -21.6425 H   0  0  0  0  0  0
  -26.4002   14.4514  -19.7860 H   0  0  0  0  0  0
  -27.5040   12.4978  -21.8873 H   0  0  0  0  0  0
  -28.8061   14.3147  -19.7831 H   0  0  0  0  0  0
  -30.0855   12.2275  -19.9337 H   0  0  0  0  0  0
  -31.5971   14.2523  -21.6522 H   0  0  0  0  0  0
  -33.4896   13.5643  -20.2174 H   0  0  0  0  0  0
  -32.6723   12.0722  -20.7940 H   0  0  0  0  0  0
  -26.7559   10.2303  -18.1633 H   0  0  0  0  0  0
  -28.1605    9.3467  -18.8510 H   0  0  0  0  0  0
  -27.5860   12.2087  -18.8552 H   0  0  0  0  0  0
  -29.2730   17.4442  -19.1419 H   0  0  0  0  0  0
  -24.2084   13.9265  -20.9025 H   0  0  0  0  0  0
  -29.3361   11.5080  -22.2298 H   0  0  0  0  0  0
  -30.4267   15.6387  -19.9244 H   0  0  0  0  0  0
  -33.0847   11.9525  -18.2709 H   0  0  0  0  0  0
  -26.2273    7.8126  -18.4828 H   0  0  0  0  0  0
  -25.2014    8.8348  -19.5454 H   0  0  0  0  0  0
  -26.6060    7.9513  -20.2332 H   0  0  0  0  0  0
  -27.0525   10.7574  -29.0127 H   0  0  0  0  0  0
  -28.6457    9.9793  -28.7253 H   0  0  0  0  0  0
  -27.8558    7.8716  -29.6355 H   0  0  0  0  0  0
  -25.1904    9.3101  -30.2382 H   0  0  0  0  0  0
  -27.4750    8.2801  -32.0099 H   0  0  0  0  0  0
  -25.3301    7.8722  -33.1622 H   0  0  0  0  0  0
  -26.4810   10.4228  -34.3590 H   0  0  0  0  0  0
  -24.5233    9.0004  -35.3867 H   0  0  0  0  0  0
  -25.7699    7.7389  -35.6712 H   0  0  0  0  0  0
  -24.4341    4.9787  -30.2200 H   0  0  0  0  0  0
  -23.2404    5.5313  -31.4433 H   0  0  0  0  0  0
  -26.0101    6.4464  -30.8979 H   0  0  0  0  0  0
  -30.4559    8.8158  -32.8099 H   0  0  0  0  0  0
  -27.2619    8.3338  -27.2619 H   0  0  0  0  0  0
  -23.9602    9.5430  -31.8745 H   0  0  0  0  0  0
  -28.4620    9.0788  -33.6392 H   0  0  0  0  0  0
  -25.5445    9.2545  -37.7095 H   0  0  0  0  0  0
  -22.1250    4.3058  -29.5898 H   0  0  0  0  0  0
  -22.7946    5.4710  -28.3979 H   0  0  0  0  0  0
  -21.6010    6.0237  -29.6212 H   0  0  0  0  0  0
  1  2  1  0  0  0
  1 13  1  0  0  0
  1 14  2  0  0  0
  2  3  1  0  0  0
  2 16  1  0  0  0
  2 52  1  0  0  0
  3  4  1  0  0  0
  3 95  1  0  0  0
  3 96  1  0  0  0
  4  5  1  0  0  0
  4 15  1  0  0  0
  4 97  1  0  0  0
  5  6  1  0  0  0
  5 12  1  0  0  0
  5 98  1  0  0  0
  6  7  1  0  0  0
  6 16  1  0  0  0
  6 99  1  0  0  0
  7  8  1  0  0  0
  7 17  1  0  0  0
  7100  1  0  0  0
  8  9  1  0  0  0
  8 18  1  0  0  0
  8101  1  0  0  0
  9 19  1  0  0  0
  9102  1  0  0  0
  9103  1  0  0  0
 10 11  1  0  0  0
 10 12  1  0  0  0
 10 21  2  0  0  0
 11 20  1  0  0  0
 11104  1  0  0  0
 11105  1  0  0  0
 12106  1  0  0  0
 13107  1  0  0  0
 15108  1  0  0  0
 17109  1  0  0  0
 18110  1  0  0  0
 19111  1  0  0  0
 20112  1  0  0  0
 20113  1  0  0  0
 20114  1  0  0  0
 22 23  1  0  0  0
 22 75  1  0  0  0
 23 24  1  0  0  0
 23115  1  0  0  0
 23116  1  0  0  0
 24 25  1  0  0  0
 24117  1  0  0  0
 24118  1  0  0  0
 25 26  1  0  0  0
 25119  1  0  0  0
 25120  1  0  0  0
 26 27  1  0  0  0
 26 28  1  0  0  0
 27 30  2  0  0  0
 27121  1  0  0  0
 28 29  2  0  0  0
 29 30  1  0  0  0
 30 31  1  0  0  0
 31 32  1  0  0  0
 31122  1  0  0  0
 31123  1  0  0  0
 32 33  1  0  0  0
 32 43  1  0  0  0
 32124  1  0  0  0
 33 34  1  0  0  0
 33125  1  0  0  0
 33126  1  0  0  0
 34 35  2  0  0  0
 34 36  1  0  0  0
 35 38  1  0  0  0
 35127  1  0  0  0
 36 37  2  0  0  0
 37 38  1  0  0  0
 38 39  1  0  0  0
 39 40  1  0  0  0
 39128  1  0  0  0
 39129  1  0  0  0
 40 41  1  0  0  0
 40130  1  0  0  0
 40131  1  0  0  0
 41 42  1  0  0  0
 41132  1  0  0  0
 41133  1  0  0  0
 42 54  1  0  0  0
 43 44  1  0  0  0
 43134  1  0  0  0
 43135  1  0  0  0
 44 45  2  0  0  0
 44 46  1  0  0  0
 45 48  1  0  0  0
 45136  1  0  0  0
 46 47  2  0  0  0
 47 48  1  0  0  0
 48 49  1  0  0  0
 49 50  1  0  0  0
 49137  1  0  0  0
 49138  1  0  0  0
 50 51  1  0  0  0
 50139  1  0  0  0
 50140  1  0  0  0
 51 52  1  0  0  0
 51141  1  0  0  0
 51142  1  0  0  0
 53 54  1  0  0  0
 53 65  1  0  0  0
 53 66  2  0  0  0
 54 55  1  0  0  0
 54 68  1  0  0  0
 55 56  1  0  0  0
 55143  1  0  0  0
 55144  1  0  0  0
 56 57  1  0  0  0
 56 67  1  0  0  0
 56145  1  0  0  0
 57 58  1  0  0  0
 57 64  1  0  0  0
 57146  1  0  0  0
 58 59  1  0  0  0
 58 68  1  0  0  0
 58147  1  0  0  0
 59 60  1  0  0  0
 59 69  1  0  0  0
 59148  1  0  0  0
 60 61  1  0  0  0
 60 70  1  0  0  0
 60149  1  0  0  0
 61 71  1  0  0  0
 61150  1  0  0  0
 61151  1  0  0  0
 62 63  1  0  0  0
 62 64  1  0  0  0
 62 73  2  0  0  0
 63 72  1  0  0  0
 63152  1  0  0  0
 63153  1  0  0  0
 64154  1  0  0  0
 65155  1  0  0  0
 67156  1  0  0  0
 69157  1  0  0  0
 70158  1  0  0  0
 71159  1  0  0  0
 72160  1  0  0  0
 72161  1  0  0  0
 72162  1  0  0  0
 74 75  1  0  0  0
 74 86  2  0  0  0
 74 87  1  0  0  0
 75 76  1  0  0  0
 75 89  1  0  0  0
 76 77  1  0  0  0
 76163  1  0  0  0
 76164  1  0  0  0
 77 78  1  0  0  0
 77 88  1  0  0  0
 77165  1  0  0  0
 78 79  1  0  0  0
 78 85  1  0  0  0
 78166  1  0  0  0
 79 80  1  0  0  0
 79 89  1  0  0  0
 79167  1  0  0  0
 80 81  1  0  0  0
 80 90  1  0  0  0
 80168  1  0  0  0
 81 82  1  0  0  0
 81 91  1  0  0  0
 81169  1  0  0  0
 82 92  1  0  0  0
 82170  1  0  0  0
 82171  1  0  0  0
 83 84  1  0  0  0
 83 85  1  0  0  0
 83 94  2  0  0  0
 84 93  1  0  0  0
 84172  1  0  0  0
 84173  1  0  0  0
 85174  1  0  0  0
 87175  1  0  0  0
 88176  1  0  0  0
 90177  1  0  0  0
 91178  1  0  0  0
 92179  1  0  0  0
 93180  1  0  0  0
 93181  1  0  0  0
 93182  1  0  0  0
M  CHG  1  32   1
M  END
> <s_m_source_file>
../4k6v_ligand.sdf

> <i_m_source_file_index>
1

> <s_epik_input>
W09IXVtDSDJdW0NAQEhdKFtPSF0pW0NAQEhdKFtPSF0pW0NASF0oTzEpW0NASF0oW05IXUMoPU8pW0NIMl1bQ0gzXSlbQ0BASF0oW09IXSlbQ0gyXVtDQEBdMShDKD1PKVtPSF0pT1tDSDJdW0NIMl1bQ0gyXW4obm4yKVtjSF1jMltDSDJdW05IK10oW0NIMl1jKG5uMylbY0hdbjNbQ0gyXVtDSDJdW0NIMl1PW0NAXTQoQyg9TylbT0hdKVtDSDJdW0NASF0oW09IXSlbQ0BASF0oW05IXUMoPU8pW0NIMl1bQ0gzXSlbQ0BASF0oTzQpW0NASF0oW09IXSlbQ0BIXShbT0hdKVtDSDJdW09IXSlbQ0gyXWM1W2NIXW4obm41KVtDSDJdW0NIMl1bQ0gyXU9bQ0BdNihDKD1PKVtPSF0pW0NIMl1bQ0BIXShbT0hdKVtDQEBIXShbTkhdQyg9TylbQ0gyXVtDSDNdKVtDQEBIXShPNilbQ0BIXShbT0hdKVtDQEhdKFtPSF0pW0NIMl1bT0hd

> <s_epik_cmdline>
J2VwaWtfYXBwJywgJy1pbWFlJywgJ2xpZ2FuZF9wcm8ubWFlJywgJy1vbWFlJywgJ2xpZ2FuZF9wcmVwLm1hZScsICctbXMnLCAnMScsICctcGgnLCAnNycsICctcGh0JywgJzAuNScsICctbnQn

> <s_epik_pKa_notes>
Molecule size exceeds maximum supported for generating protonation states

$$$$
