4k6w_ligand
                    3D
 Schrodinger Suite 2020-3.
173178  0  0  1  0            999 V2000
  -18.7360   17.9070  -29.5830 C   0  0  0  0  0  0
  -19.7180   17.4500  -28.5030 C   0  0  1  0  0  0
  -19.8570   15.9230  -28.3770 C   0  0  0  0  0  0
  -18.6470   15.2860  -27.6830 C   0  0  1  0  0  0
  -18.3660   15.9980  -26.3560 C   0  0  2  0  0  0
  -18.1660   17.4960  -26.6470 C   0  0  2  0  0  0
  -17.8350   18.3700  -25.4400 C   0  0  1  0  0  0
  -17.8010   19.8550  -25.8450 C   0  0  1  0  0  0
  -17.1290   20.7010  -24.7850 C   0  0  0  0  0  0
  -17.2990   14.7370  -24.5500 C   0  0  0  0  0  0
  -15.9990   14.2250  -23.9700 C   0  0  0  0  0  0
  -17.2040   15.4410  -25.6780 N   0  0  0  0  0  0
  -17.9650   18.8660  -29.3700 O   0  0  0  0  0  0
  -18.7350   17.3070  -30.6660 O   0  0  0  0  0  0
  -18.9140   13.8920  -27.4740 O   0  0  0  0  0  0
  -19.3710   18.0290  -27.2370 O   0  0  0  0  0  0
  -18.8150   18.1520  -24.3950 O   0  0  0  0  0  0
  -17.0690   20.0820  -27.0620 O   0  0  0  0  0  0
  -15.7470   20.2830  -24.7080 O   0  0  0  0  0  0
  -16.2530   13.0220  -22.9830 C   0  0  0  0  0  0
  -18.4050   14.5130  -24.0300 O   0  0  0  0  0  0
  -20.9760   18.0200  -28.7980 O   0  0  0  0  0  0
  -21.1620   19.4530  -28.8830 C   0  0  0  0  0  0
  -22.3270   19.6590  -29.8150 C   0  0  0  0  0  0
  -23.5770   19.4910  -29.1100 N   0  0  0  0  0  0
  -24.7560   19.8070  -29.5660 C   0  0  0  0  0  0
  -23.7390   19.0030  -27.9400 N   0  0  0  0  0  0
  -25.0150   19.0200  -27.6310 N   0  0  0  0  0  0
  -25.6500   19.5660  -28.6250 C   0  0  0  0  0  0
  -27.2320   19.7490  -28.7230 C   0  0  0  0  0  0
  -27.2560   18.3340  -29.4980 N   0  3  0  0  0  0
  -27.2450   18.2420  -30.9410 C   0  0  0  0  0  0
  -27.1900   16.7170  -31.4730 C   0  0  0  0  0  0
  -28.2680   15.9670  -31.6820 C   0  0  0  0  0  0
  -26.1500   15.9630  -31.8210 N   0  0  0  0  0  0
  -26.6300   14.7040  -32.2410 N   0  0  0  0  0  0
  -27.9010   14.7580  -32.1210 N   0  0  0  0  0  0
  -28.9600   13.8430  -32.3660 C   0  0  0  0  0  0
  -28.3820   12.4770  -32.4880 C   0  0  0  0  0  0
  -28.2080   11.9270  -31.1130 O   0  0  0  0  0  0
  -28.4580   17.4970  -29.1880 C   0  0  0  0  0  0
  -28.6700   17.6100  -27.6860 C   0  0  0  0  0  0
  -29.3260   16.7810  -26.8800 C   0  0  0  0  0  0
  -28.2650   18.6240  -26.9560 N   0  0  0  0  0  0
  -28.6360   18.4370  -25.7780 N   0  0  0  0  0  0
  -29.2600   17.3520  -25.6730 N   0  0  0  0  0  0
  -29.8360   16.8350  -24.4400 C   0  0  0  0  0  0
  -29.0680   17.4410  -23.2350 C   0  0  0  0  0  0
  -27.8310   16.6880  -23.0540 O   0  0  0  0  0  0
  -27.7550   16.8680  -20.6730 C   0  0  0  0  0  0
  -27.5860   15.9110  -21.8620 C   0  0  2  0  0  0
  -26.2090   15.2530  -21.9250 C   0  0  0  0  0  0
  -26.0650   14.1730  -20.8510 C   0  0  1  0  0  0
  -27.2140   13.1690  -20.9300 C   0  0  2  0  0  0
  -28.5220   13.9440  -20.7670 C   0  0  2  0  0  0
  -29.7890   13.0860  -20.7640 C   0  0  1  0  0  0
  -31.0800   13.9360  -20.7010 C   0  0  1  0  0  0
  -32.2720   13.1040  -20.2330 C   0  0  0  0  0  0
  -26.8770   10.8270  -20.2130 C   0  0  0  0  0  0
  -26.8450    9.8770  -19.0220 C   0  0  0  0  0  0
  -27.1040   12.1090  -19.9230 N   0  0  0  0  0  0
  -28.8020   16.8290  -19.9740 O   0  0  0  0  0  0
  -26.8600   17.6940  -20.4440 O   0  0  0  0  0  0
  -24.8150   13.4930  -21.0400 O   0  0  0  0  0  0
  -28.6080   14.9200  -21.8270 O   0  0  0  0  0  0
  -29.8070   12.2830  -21.9460 O   0  0  0  0  0  0
  -30.9050   15.0150  -19.7830 O   0  0  0  0  0  0
  -32.0580   12.6700  -18.8640 O   0  0  0  0  0  0
  -25.9410    8.6040  -19.2960 C   0  0  0  0  0  0
  -26.6750   10.4560  -21.3700 O   0  0  0  0  0  0
  -29.1110    9.7850  -31.4670 C   0  0  0  0  0  0
  -27.8530   10.5220  -31.0260 C   0  0  2  0  0  0
  -27.3430   10.1170  -29.6300 C   0  0  0  0  0  0
  -26.7150    8.7290  -29.6040 C   0  0  1  0  0  0
  -25.6130    8.6580  -30.6620 C   0  0  2  0  0  0
  -26.2440    8.9780  -32.0240 C   0  0  2  0  0  0
  -25.2890    8.8940  -33.2140 C   0  0  1  0  0  0
  -25.9420    9.3690  -34.5170 C   0  0  1  0  0  0
  -25.1250    8.9110  -35.7230 C   0  0  0  0  0  0
  -23.7100    7.1230  -30.3940 C   0  0  0  0  0  0
  -23.2210    5.7040  -30.5160 C   0  0  0  0  0  0
  -24.9820    7.3370  -30.7110 N   0  0  0  0  0  0
  -30.0590    9.6910  -30.6670 O   0  0  0  0  0  0
  -29.1930    9.3120  -32.6380 O   0  0  0  0  0  0
  -26.2100    8.4650  -28.2860 O   0  0  0  0  0  0
  -26.7950   10.3210  -31.9600 O   0  0  0  0  0  0
  -24.1610    9.7250  -32.9470 O   0  0  0  0  0  0
  -27.2600    8.8400  -34.6410 O   0  0  0  0  0  0
  -25.5250    9.6350  -36.9070 O   0  0  0  0  0  0
  -22.0800    5.4290  -29.4460 C   0  0  0  0  0  0
  -22.9900    8.0340  -29.9980 O   0  0  0  0  0  0
  -20.7540   15.6839  -27.7869 H   0  0  0  0  0  0
  -19.9485   15.4792  -29.3793 H   0  0  0  0  0  0
  -17.7480   15.3198  -28.3159 H   0  0  0  0  0  0
  -19.1857   15.8244  -25.6433 H   0  0  0  0  0  0
  -17.3277   17.5670  -27.3557 H   0  0  0  0  0  0
  -16.8672   18.0722  -25.0103 H   0  0  0  0  0  0
  -18.8389   20.1671  -26.0329 H   0  0  0  0  0  0
  -17.1947   21.7623  -25.0668 H   0  0  0  0  0  0
  -17.6320   20.5463  -23.8191 H   0  0  0  0  0  0
  -15.3449   13.8800  -24.7843 H   0  0  0  0  0  0
  -15.5002   15.0346  -23.4170 H   0  0  0  0  0  0
  -16.1978   15.5947  -26.0951 H   0  0  0  0  0  0
  -17.2611   19.1897  -30.1509 H   0  0  0  0  0  0
  -19.1353   13.2398  -28.3317 H   0  0  0  0  0  0
  -18.9689   17.1420  -23.9873 H   0  0  0  0  0  0
  -17.3700   19.5708  -27.9883 H   0  0  0  0  0  0
  -15.0643   20.7688  -23.9953 H   0  0  0  0  0  0
  -15.2924   12.6712  -22.5777 H   0  0  0  0  0  0
  -16.7442   12.2005  -23.5250 H   0  0  0  0  0  0
  -16.8995   13.3551  -22.1577 H   0  0  0  0  0  0
  -21.3753   19.8551  -27.8816 H   0  0  0  0  0  0
  -20.2470   19.9187  -29.2778 H   0  0  0  0  0  0
  -22.2870   20.6758  -30.2328 H   0  0  0  0  0  0
  -22.2770   18.9246  -30.6324 H   0  0  0  0  0  0
  -24.9686   20.2040  -30.5586 H   0  0  0  0  0  0
  -27.6568   19.8156  -27.7105 H   0  0  0  0  0  0
  -27.4608   20.6708  -29.2780 H   0  0  0  0  0  0
  -26.2790   17.9271  -29.1983 H   0  0  0  0  0  0
  -28.1573   18.7052  -31.3449 H   0  0  0  0  0  0
  -26.3621   18.7665  -31.3352 H   0  0  0  0  0  0
  -29.2966   16.2892  -31.5199 H   0  0  0  0  0  0
  -29.6740   13.8761  -31.5299 H   0  0  0  0  0  0
  -29.4743   14.1186  -33.2985 H   0  0  0  0  0  0
  -29.0656   11.8401  -33.0686 H   0  0  0  0  0  0
  -27.4103   12.5344  -33.0004 H   0  0  0  0  0  0
  -29.3262   17.8827  -29.7424 H   0  0  0  0  0  0
  -28.2662   16.4555  -29.4855 H   0  0  0  0  0  0
  -29.8113   15.8417  -27.1451 H   0  0  0  0  0  0
  -30.8977   17.1172  -24.3848 H   0  0  0  0  0  0
  -29.7468   15.7387  -24.4250 H   0  0  0  0  0  0
  -28.8398   18.4975  -23.4395 H   0  0  0  0  0  0
  -29.6894   17.3685  -22.3302 H   0  0  0  0  0  0
  -26.0696   14.7882  -22.9122 H   0  0  0  0  0  0
  -25.4312   16.0142  -21.7650 H   0  0  0  0  0  0
  -26.0329   14.6243  -19.8483 H   0  0  0  0  0  0
  -27.1766   12.6205  -21.8828 H   0  0  0  0  0  0
  -28.4863   14.4653  -19.7990 H   0  0  0  0  0  0
  -29.7570   12.3957  -19.9082 H   0  0  0  0  0  0
  -31.2837   14.3843  -21.6846 H   0  0  0  0  0  0
  -33.1867   13.7129  -20.2839 H   0  0  0  0  0  0
  -32.3816   12.2228  -20.8822 H   0  0  0  0  0  0
  -26.4389   10.4022  -18.1449 H   0  0  0  0  0  0
  -27.8655    9.5305  -18.8018 H   0  0  0  0  0  0
  -27.2101   12.3515  -18.8553 H   0  0  0  0  0  0
  -28.9209   17.5155  -19.1228 H   0  0  0  0  0  0
  -23.8719   14.0587  -21.0152 H   0  0  0  0  0  0
  -28.9669   11.6074  -22.1648 H   0  0  0  0  0  0
  -30.0935   15.7416  -19.9365 H   0  0  0  0  0  0
  -32.8168   12.0562  -18.3566 H   0  0  0  0  0  0
  -25.9495    7.9509  -18.4109 H   0  0  0  0  0  0
  -24.9098    8.9247  -19.5051 H   0  0  0  0  0  0
  -26.3364    8.0531  -20.1621 H   0  0  0  0  0  0
  -26.5795   10.8350  -29.2961 H   0  0  0  0  0  0
  -28.1822   10.1169  -28.9188 H   0  0  0  0  0  0
  -27.4543    7.9339  -29.7807 H   0  0  0  0  0  0
  -24.7965    9.3471  -30.4004 H   0  0  0  0  0  0
  -27.0473    8.2492  -32.2072 H   0  0  0  0  0  0
  -24.9319    7.8599  -33.3286 H   0  0  0  0  0  0
  -26.0557   10.4629  -34.4968 H   0  0  0  0  0  0
  -24.0572    9.0957  -35.5340 H   0  0  0  0  0  0
  -25.2873    7.8358  -35.8889 H   0  0  0  0  0  0
  -24.0573    5.0116  -30.3395 H   0  0  0  0  0  0
  -22.8169    5.5409  -31.5260 H   0  0  0  0  0  0
  -25.5671    6.4592  -31.0226 H   0  0  0  0  0  0
  -30.1026    8.7802  -32.9539 H   0  0  0  0  0  0
  -26.8911    8.4820  -27.4224 H   0  0  0  0  0  0
  -23.5489    9.5498  -32.0500 H   0  0  0  0  0  0
  -28.0135    9.0541  -33.8687 H   0  0  0  0  0  0
  -25.0352    9.4280  -37.8700 H   0  0  0  0  0  0
  -21.7293    4.3909  -29.5426 H   0  0  0  0  0  0
  -22.4804    5.5881  -28.4339 H   0  0  0  0  0  0
  -21.2401    6.1175  -29.6205 H   0  0  0  0  0  0
  1  2  1  0  0  0
  1 13  1  0  0  0
  1 14  2  0  0  0
  2  3  1  0  0  0
  2 16  1  0  0  0
  2 22  1  0  0  0
  3  4  1  0  0  0
  3 92  1  0  0  0
  3 93  1  0  0  0
  4  5  1  0  0  0
  4 15  1  0  0  0
  4 94  1  0  0  0
  5  6  1  0  0  0
  5 12  1  0  0  0
  5 95  1  0  0  0
  6  7  1  0  0  0
  6 16  1  0  0  0
  6 96  1  0  0  0
  7  8  1  0  0  0
  7 17  1  0  0  0
  7 97  1  0  0  0
  8  9  1  0  0  0
  8 18  1  0  0  0
  8 98  1  0  0  0
  9 19  1  0  0  0
  9 99  1  0  0  0
  9100  1  0  0  0
 10 11  1  0  0  0
 10 12  1  0  0  0
 10 21  2  0  0  0
 11 20  1  0  0  0
 11101  1  0  0  0
 11102  1  0  0  0
 12103  1  0  0  0
 13104  1  0  0  0
 15105  1  0  0  0
 17106  1  0  0  0
 18107  1  0  0  0
 19108  1  0  0  0
 20109  1  0  0  0
 20110  1  0  0  0
 20111  1  0  0  0
 22 23  1  0  0  0
 23 24  1  0  0  0
 23112  1  0  0  0
 23113  1  0  0  0
 24 25  1  0  0  0
 24114  1  0  0  0
 24115  1  0  0  0
 25 26  1  0  0  0
 25 27  1  0  0  0
 26 29  2  0  0  0
 26116  1  0  0  0
 27 28  2  0  0  0
 28 29  1  0  0  0
 29 30  1  0  0  0
 30 31  1  0  0  0
 30117  1  0  0  0
 30118  1  0  0  0
 31 32  1  0  0  0
 31 41  1  0  0  0
 31119  1  0  0  0
 32 33  1  0  0  0
 32120  1  0  0  0
 32121  1  0  0  0
 33 34  2  0  0  0
 33 35  1  0  0  0
 34 37  1  0  0  0
 34122  1  0  0  0
 35 36  2  0  0  0
 36 37  1  0  0  0
 37 38  1  0  0  0
 38 39  1  0  0  0
 38123  1  0  0  0
 38124  1  0  0  0
 39 40  1  0  0  0
 39125  1  0  0  0
 39126  1  0  0  0
 40 72  1  0  0  0
 41 42  1  0  0  0
 41127  1  0  0  0
 41128  1  0  0  0
 42 43  2  0  0  0
 42 44  1  0  0  0
 43 46  1  0  0  0
 43129  1  0  0  0
 44 45  2  0  0  0
 45 46  1  0  0  0
 46 47  1  0  0  0
 47 48  1  0  0  0
 47130  1  0  0  0
 47131  1  0  0  0
 48 49  1  0  0  0
 48132  1  0  0  0
 48133  1  0  0  0
 49 51  1  0  0  0
 50 51  1  0  0  0
 50 62  1  0  0  0
 50 63  2  0  0  0
 51 52  1  0  0  0
 51 65  1  0  0  0
 52 53  1  0  0  0
 52134  1  0  0  0
 52135  1  0  0  0
 53 54  1  0  0  0
 53 64  1  0  0  0
 53136  1  0  0  0
 54 55  1  0  0  0
 54 61  1  0  0  0
 54137  1  0  0  0
 55 56  1  0  0  0
 55 65  1  0  0  0
 55138  1  0  0  0
 56 57  1  0  0  0
 56 66  1  0  0  0
 56139  1  0  0  0
 57 58  1  0  0  0
 57 67  1  0  0  0
 57140  1  0  0  0
 58 68  1  0  0  0
 58141  1  0  0  0
 58142  1  0  0  0
 59 60  1  0  0  0
 59 61  1  0  0  0
 59 70  2  0  0  0
 60 69  1  0  0  0
 60143  1  0  0  0
 60144  1  0  0  0
 61145  1  0  0  0
 62146  1  0  0  0
 64147  1  0  0  0
 66148  1  0  0  0
 67149  1  0  0  0
 68150  1  0  0  0
 69151  1  0  0  0
 69152  1  0  0  0
 69153  1  0  0  0
 71 72  1  0  0  0
 71 83  2  0  0  0
 71 84  1  0  0  0
 72 73  1  0  0  0
 72 86  1  0  0  0
 73 74  1  0  0  0
 73154  1  0  0  0
 73155  1  0  0  0
 74 75  1  0  0  0
 74 85  1  0  0  0
 74156  1  0  0  0
 75 76  1  0  0  0
 75 82  1  0  0  0
 75157  1  0  0  0
 76 77  1  0  0  0
 76 86  1  0  0  0
 76158  1  0  0  0
 77 78  1  0  0  0
 77 87  1  0  0  0
 77159  1  0  0  0
 78 79  1  0  0  0
 78 88  1  0  0  0
 78160  1  0  0  0
 79 89  1  0  0  0
 79161  1  0  0  0
 79162  1  0  0  0
 80 81  1  0  0  0
 80 82  1  0  0  0
 80 91  2  0  0  0
 81 90  1  0  0  0
 81163  1  0  0  0
 81164  1  0  0  0
 82165  1  0  0  0
 84166  1  0  0  0
 85167  1  0  0  0
 87168  1  0  0  0
 88169  1  0  0  0
 89170  1  0  0  0
 90171  1  0  0  0
 90172  1  0  0  0
 90173  1  0  0  0
M  CHG  1  31   1
M  END
> <s_m_source_file>
../4k6w_ligand.sdf

> <i_m_source_file_index>
1

> <s_epik_input>
W09IXVtDSDJdW0NAQEhdKFtPSF0pW0NAQEhdKFtPSF0pW0NASF0oTzEpW0NASF0oW05IXUMoPU8pW0NIMl1bQ0gzXSlbQ0BASF0oW09IXSlbQ0gyXVtDQEBdMShDKD1PKVtPSF0pT1tDSDJdW0NIMl1uMltjSF1jKG5uMilbQ0gyXVtOSCtdKFtDSDJdYzNbY0hdbihubjMpW0NIMl1bQ0gyXU9bQ0BdNChDKD1PKVtPSF0pW0NIMl1bQ0BIXShbT0hdKVtDQEBIXShbTkhdQyg9TylbQ0gyXVtDSDNdKVtDQEBIXShPNClbQ0BIXShbT0hdKVtDQEhdKFtPSF0pW0NIMl1bT0hdKVtDSDJdYzVbY0hdbihubjUpW0NIMl1bQ0gyXU9bQ0BdNihDKD1PKVtPSF0pW0NIMl1bQ0BIXShbT0hdKVtDQEBIXShbTkhdQyg9TylbQ0gyXVtDSDNdKVtDQEBIXShPNilbQ0BIXShbT0hdKVtDQEhdKFtPSF0pW0NIMl1bT0hd

> <s_epik_cmdline>
J2VwaWtfYXBwJywgJy1pbWFlJywgJ2xpZ2FuZF9wcm8ubWFlJywgJy1vbWFlJywgJ2xpZ2FuZF9wcmVwLm1hZScsICctbXMnLCAnMScsICctcGgnLCAnNycsICctcGh0JywgJzAuNScsICctbnQn

> <s_epik_pKa_notes>
Molecule size exceeds maximum supported for generating protonation states

$$$$
