4k6y_ligand
                    3D
 Schrodinger Suite 2020-3.
142143  0  0  1  0            999 V2000
   22.6270   24.0700   15.1560 N   0  3  0  0  0  0
   22.4430   24.3930   16.5680 C   0  0  2  0  0  0
   22.1860   25.8830   16.7700 C   0  0  0  0  0  0
   22.0000   26.3470   17.8960 O   0  0  0  0  0  0
   23.6460   23.9290   17.3940 C   0  0  0  0  0  0
   24.8640   24.2090   16.7260 O   0  0  0  0  0  0
   22.1710   26.6280   15.6700 N   0  0  0  0  0  0
   21.8270   28.0400   15.7060 C   0  0  2  0  0  0
   20.3410   28.1880   16.0420 C   0  0  0  0  0  0
   19.9120   29.1920   16.6070 O   0  0  0  0  0  0
   22.1330   28.6890   14.3520 C   0  0  0  0  0  0
   22.8600   30.0260   14.4400 C   0  0  0  0  0  0
   23.2870   30.5220   13.0600 C   0  0  0  0  0  0
   22.6380   31.7780   12.6910 N   0  0  0  0  0  0
   23.1020   32.9870   13.0040 C   0  0  0  0  0  0
   22.4390   34.0710   12.6190 N   0  0  0  0  0  0
   24.2280   33.1220   13.6940 N   0  3  0  0  0  0
   19.5570   27.1760   15.6860 N   0  0  0  0  0  0
   18.1200   27.2100   15.9270 C   0  0  2  0  0  0
   17.7560   26.5160   17.2360 C   0  0  0  0  0  0
   18.4460   25.6030   17.6800 O   0  0  0  0  0  0
   17.3600   26.5010   14.8090 C   0  0  0  0  0  0
   17.6270   26.9710   13.4140 C   0  0  0  0  0  0
   18.2080   28.1460   13.0250 C   0  0  0  0  0  0
   17.3200   26.2560   12.2160 C   0  0  0  0  0  0
   18.2720   28.2050   11.6500 N   0  3  0  0  0  0
   17.7410   27.0540   11.1310 C   0  0  0  0  0  0
   16.7340   25.0120   11.9530 C   0  0  0  0  0  0
   17.5900   26.6490    9.8030 C   0  0  0  0  0  0
   16.5870   24.6110   10.6360 C   0  0  0  0  0  0
   17.0140   25.4280    9.5780 C   0  0  0  0  0  0
   16.6520   26.9500   17.8300 N   0  0  0  0  0  0
   16.0860   26.2880   18.9930 C   0  0  2  0  0  0
   15.4880   24.9400   18.5800 C   0  0  0  0  0  0
   14.9710   24.7950   17.4620 O   0  0  0  0  0  0
   14.9790   27.1550   19.6040 C   0  0  0  0  0  0
   15.4090   28.5620   19.9910 C   0  0  0  0  0  0
   14.2340   29.5040   20.1300 C   0  0  0  0  0  0
   13.5460   29.5110   21.1540 O   0  0  0  0  0  0
   13.9920   30.3030   19.0970 N   0  0  0  0  0  0
   15.5780   23.9620   19.4800 N   0  0  0  0  0  0
   14.8820   22.6890   19.3350 C   0  0  2  0  0  0
   14.1020   22.4260   20.6040 C   0  0  0  0  0  0
   14.6140   22.6230   21.7020 O   0  0  0  0  0  0
   15.8610   21.5300   19.1040 C   0  0  2  0  0  0
   16.5280   21.7280   17.8550 O   0  0  0  0  0  0
   15.1330   20.1780   19.0830 C   0  0  0  0  0  0
   12.8530   21.9890   20.4600 N   0  0  0  0  0  0
   12.0450   21.6330   21.6120 C   0  0  2  0  0  0
   11.4470   20.2420   21.4210 C   0  0  0  0  0  0
   11.0380   19.8890   20.3210 O   0  0  0  0  0  0
   10.9110   22.6410   21.8100 C   0  0  0  0  0  0
   11.4080   23.9400   22.0920 O   0  0  0  0  0  0
   11.4340   19.4580   22.4940 N   0  0  0  0  0  0
   10.7740   18.1530   22.5150 C   0  0  2  0  0  0
    9.3520   18.4020   22.9920 C   0  0  0  0  0  0
    9.1520   19.0410   24.0310 O   0  0  0  0  0  0
   11.4910   17.2070   23.5020 C   0  0  2  0  0  0
   12.9570   17.0240   23.1150 C   0  0  0  0  0  0
   10.8030   15.8520   23.5560 C   0  0  0  0  0  0
   13.7910   16.3900   24.2270 C   0  0  0  0  0  0
    8.3670   17.9270   22.2280 N   0  0  0  0  0  0
    6.9590   18.2030   22.5130 C   0  0  2  0  0  0
    6.0940   16.9820   22.2630 C   0  0  0  0  0  0
    6.5490   15.9580   21.7400 O   0  5  0  0  0  0
    6.4050   19.3710   21.6610 C   0  0  2  0  0  0
    6.4710   19.0640   20.1610 C   0  0  0  0  0  0
    7.1510   20.6690   21.9610 C   0  0  0  0  0  0
    5.7700   20.1440   19.3240 C   0  0  0  0  0  0
    4.9020   17.0240   22.5810 O   0  0  0  0  0  0
   21.7517   24.4124   14.5845 H   0  0  0  0  0  0
   22.7377   22.9817   15.0402 H   0  0  0  0  0  0
   23.5302   24.5725   14.7796 H   0  0  0  0  0  0
   21.5456   23.8347   16.8730 H   0  0  0  0  0  0
   23.6488   24.4504   18.3626 H   0  0  0  0  0  0
   23.5790   22.8440   17.5619 H   0  0  0  0  0  0
   25.8222   23.9352   17.1917 H   0  0  0  0  0  0
   22.4282   26.1488   14.7139 H   0  0  0  0  0  0
   22.4487   28.4973   16.4898 H   0  0  0  0  0  0
   22.7711   28.0171   13.7592 H   0  0  0  0  0  0
   21.1922   28.8721   13.8122 H   0  0  0  0  0  0
   22.1934   30.7769   14.8892 H   0  0  0  0  0  0
   23.7592   29.9141   15.0636 H   0  0  0  0  0  0
   24.3745   30.6872   13.0501 H   0  0  0  0  0  0
   23.0236   29.7695   12.3022 H   0  0  0  0  0  0
   21.7007   31.7644   12.1154 H   0  0  0  0  0  0
   21.5050   33.9702   12.0468 H   0  0  0  0  0  0
   22.8238   35.0699   12.8722 H   0  0  0  0  0  0
   24.7849   32.2304   14.0177 H   0  0  0  0  0  0
   20.0127   26.3004   15.2005 H   0  0  0  0  0  0
   17.8860   28.2842   15.9644 H   0  0  0  0  0  0
   17.6108   25.4300   14.8171 H   0  0  0  0  0  0
   16.2782   26.6254   14.9648 H   0  0  0  0  0  0
   18.5412   28.8717   13.7815 H   0  0  0  0  0  0
   16.4000   24.3716   12.7693 H   0  0  0  0  0  0
   17.9182   27.2808    8.9777 H   0  0  0  0  0  0
   16.1321   23.6449   10.4174 H   0  0  0  0  0  0
   16.8839   25.0820    8.5526 H   0  0  0  0  0  0
   16.1630   27.8428   17.4131 H   0  0  0  0  0  0
   16.9192   26.1556   19.6989 H   0  0  0  0  0  0
   14.1568   27.2630   18.8812 H   0  0  0  0  0  0
   14.6017   26.6763   20.5197 H   0  0  0  0  0  0
   15.9370   28.5318   20.9555 H   0  0  0  0  0  0
   16.0797   28.9660   19.2184 H   0  0  0  0  0  0
   14.6348   30.2592   18.2054 H   0  0  0  0  0  0
   13.1488   31.0085   19.1331 H   0  0  0  0  0  0
   16.2100   24.1460   20.3613 H   0  0  0  0  0  0
   14.2217   22.7989   18.4622 H   0  0  0  0  0  0
   16.6392   21.5263   19.8814 H   0  0  0  0  0  0
   17.1072   22.6467   17.6804 H   0  0  0  0  0  0
   14.6190   20.0234   20.0431 H   0  0  0  0  0  0
   15.8632   19.3708   18.9239 H   0  0  0  0  0  0
   14.3954   20.1714   18.2670 H   0  0  0  0  0  0
   12.4352   21.8996   19.4464 H   0  0  0  0  0  0
   12.7357   21.6532   22.4679 H   0  0  0  0  0  0
   10.3032   22.6936   20.8947 H   0  0  0  0  0  0
   10.2791   22.3214   22.6518 H   0  0  0  0  0  0
   10.7084   24.7723   22.2587 H   0  0  0  0  0  0
   11.9486   19.8286   23.3928 H   0  0  0  0  0  0
   10.8056   17.7261   21.5017 H   0  0  0  0  0  0
   11.4447   17.6567   24.5048 H   0  0  0  0  0  0
   13.0244   16.3713   22.2322 H   0  0  0  0  0  0
   13.3996   18.0036   22.8814 H   0  0  0  0  0  0
    9.7476   15.9875   23.8349 H   0  0  0  0  0  0
   11.3013   15.2173   24.3036 H   0  0  0  0  0  0
   10.8624   15.3710   22.5685 H   0  0  0  0  0  0
   14.8327   16.2848   23.8895 H   0  0  0  0  0  0
   13.3828   15.3982   24.4714 H   0  0  0  0  0  0
   13.7580   17.0305   25.1207 H   0  0  0  0  0  0
    8.6417   17.3097   21.3599 H   0  0  0  0  0  0
    6.9675   18.4569   23.5833 H   0  0  0  0  0  0
    5.3474   19.5080   21.9304 H   0  0  0  0  0  0
    7.5229   19.0110   19.8435 H   0  0  0  0  0  0
    5.9789   18.1006   19.9619 H   0  0  0  0  0  0
    7.0985   20.8813   23.0390 H   0  0  0  0  0  0
    6.6884   21.4955   21.4015 H   0  0  0  0  0  0
    8.2035   20.5653   21.6586 H   0  0  0  0  0  0
    5.8410   19.8848   18.2573 H   0  0  0  0  0  0
    6.2554   21.1156   19.4984 H   0  0  0  0  0  0
    4.7114   20.2052   19.6168 H   0  0  0  0  0  0
   18.7031   29.0887   11.1569 H   0  0  0  0  0  0
   24.6041   34.1255   13.9420 H   0  0  0  0  0  0
  1  2  1  0  0  0
  1 71  1  0  0  0
  1 72  1  0  0  0
  1 73  1  0  0  0
  2  3  1  0  0  0
  2  5  1  0  0  0
  2 74  1  0  0  0
  3  4  2  0  0  0
  3  7  1  0  0  0
  5  6  1  0  0  0
  5 75  1  0  0  0
  5 76  1  0  0  0
  6 77  1  0  0  0
  7  8  1  0  0  0
  7 78  1  0  0  0
  8  9  1  0  0  0
  8 11  1  0  0  0
  8 79  1  0  0  0
  9 10  2  0  0  0
  9 18  1  0  0  0
 11 12  1  0  0  0
 11 80  1  0  0  0
 11 81  1  0  0  0
 12 13  1  0  0  0
 12 82  1  0  0  0
 12 83  1  0  0  0
 13 14  1  0  0  0
 13 84  1  0  0  0
 13 85  1  0  0  0
 14 15  1  0  0  0
 14 86  1  0  0  0
 15 16  1  0  0  0
 15 17  2  0  0  0
 16 87  1  0  0  0
 16 88  1  0  0  0
 17 89  1  0  0  0
 17142  1  0  0  0
 18 19  1  0  0  0
 18 90  1  0  0  0
 19 20  1  0  0  0
 19 22  1  0  0  0
 19 91  1  0  0  0
 20 21  2  0  0  0
 20 32  1  0  0  0
 22 23  1  0  0  0
 22 92  1  0  0  0
 22 93  1  0  0  0
 23 24  2  0  0  0
 23 25  1  0  0  0
 24 26  1  0  0  0
 24 94  1  0  0  0
 25 27  2  0  0  0
 25 28  1  0  0  0
 26 27  1  0  0  0
 26141  1  0  0  0
 27 29  1  0  0  0
 28 30  2  0  0  0
 28 95  1  0  0  0
 29 31  2  0  0  0
 29 96  1  0  0  0
 30 31  1  0  0  0
 30 97  1  0  0  0
 31 98  1  0  0  0
 32 33  1  0  0  0
 32 99  1  0  0  0
 33 34  1  0  0  0
 33 36  1  0  0  0
 33100  1  0  0  0
 34 35  2  0  0  0
 34 41  1  0  0  0
 36 37  1  0  0  0
 36101  1  0  0  0
 36102  1  0  0  0
 37 38  1  0  0  0
 37103  1  0  0  0
 37104  1  0  0  0
 38 39  2  0  0  0
 38 40  1  0  0  0
 40105  1  0  0  0
 40106  1  0  0  0
 41 42  1  0  0  0
 41107  1  0  0  0
 42 43  1  0  0  0
 42 45  1  0  0  0
 42108  1  0  0  0
 43 44  2  0  0  0
 43 48  1  0  0  0
 45 46  1  0  0  0
 45 47  1  0  0  0
 45109  1  0  0  0
 46110  1  0  0  0
 47111  1  0  0  0
 47112  1  0  0  0
 47113  1  0  0  0
 48 49  1  0  0  0
 48114  1  0  0  0
 49 50  1  0  0  0
 49 52  1  0  0  0
 49115  1  0  0  0
 50 51  2  0  0  0
 50 54  1  0  0  0
 52 53  1  0  0  0
 52116  1  0  0  0
 52117  1  0  0  0
 53118  1  0  0  0
 54 55  1  0  0  0
 54119  1  0  0  0
 55 56  1  0  0  0
 55 58  1  0  0  0
 55120  1  0  0  0
 56 57  2  0  0  0
 56 62  1  0  0  0
 58 59  1  0  0  0
 58 60  1  0  0  0
 58121  1  0  0  0
 59 61  1  0  0  0
 59122  1  0  0  0
 59123  1  0  0  0
 60124  1  0  0  0
 60125  1  0  0  0
 60126  1  0  0  0
 61127  1  0  0  0
 61128  1  0  0  0
 61129  1  0  0  0
 62 63  1  0  0  0
 62130  1  0  0  0
 63 64  1  0  0  0
 63 66  1  0  0  0
 63131  1  0  0  0
 64 65  1  0  0  0
 64 70  2  0  0  0
 66 67  1  0  0  0
 66 68  1  0  0  0
 66132  1  0  0  0
 67 69  1  0  0  0
 67133  1  0  0  0
 67134  1  0  0  0
 68135  1  0  0  0
 68136  1  0  0  0
 68137  1  0  0  0
 69138  1  0  0  0
 69139  1  0  0  0
 69140  1  0  0  0
M  CHG  4   1   1  17   1  26   1  65  -1
M  END
> <s_m_source_file>
../4k6y_ligand.sdf

> <i_m_source_file_index>
1

> <s_epik_input>
W0hdL049QyhbTkgyXSlcW05IXVtDSDJdW0NIMl1bQ0gyXVtDQEhdKFtOSF1DKD1PKVtDQEBIXShbTkgzK10pW0NIMl1bT0hdKUMoPU8pW05IXVtDQEBIXShbQ0gyXWMxW2NIXVtuSF1jKGMxMilbY0hdW2NIXVtjSF1bY0hdMilDKD1PKVtOSF1bQ0BASF0oW0NIMl1bQ0gyXUMoPU8pW05IMl0pQyg9TylbTkhdW0NAQEhdKFtDQEhdKFtPSF0pW0NIM10pQyg9TylbTkhdW0NAQEhdKFtDSDJdW09IXSlDKD1PKVtOSF1bQ0BASF0oW0NAQEhdKFtDSDNdKVtDSDJdW0NIM10pQyg9TylbTkhdW0NASF0oQyg9TylbT0hdKVtDQEBIXShbQ0gzXSlbQ0gyXVtDSDNd

> <s_epik_cmdline>
J2VwaWtfYXBwJywgJy1pbWFlJywgJ2xpZ2FuZF9wcm8ubWFlJywgJy1vbWFlJywgJ2xpZ2FuZF9wcmVwLm1hZScsICctbXMnLCAnMScsICctcGgnLCAnNycsICctcGh0JywgJzAuNScsICctbnQn

> <r_epik_Ionization_Penalty>
  0.1518

> <r_epik_Ionization_Penalty_Charging>
  0.1518

> <r_epik_Ionization_Penalty_Neutral>
  0.0000

> <r_epik_State_Penalty>
  0.1409

> <r_epik_Charging_Adjusted_Penalty>
0.292645212011716

> <i_epik_Tot_Q>
2

> <i_epik_Tot_abs_Q>
4

> <s_epik_Chemistry_Notes>
This compound has an imine and may undergo hydrolysis.

$$$$
