4k6z_ligand
                    3D
 Schrodinger Suite 2020-3.
 39 42  0  0  1  0            999 V2000
   26.5510    6.3990    1.9700 C   0  0  0  0  0  0
   27.8130    7.0090    1.9280 C   0  0  0  0  0  0
   28.9070    6.4210    1.3690 N   0  0  0  0  0  0
   28.8640    5.1080    0.7670 C   0  0  0  0  0  0
   29.9070    4.6280    0.3230 O   0  0  0  0  0  0
   27.5300    4.4170    0.7900 C   0  0  0  0  0  0
   26.3770    5.0720    1.3890 C   0  0  0  0  0  0
   25.2020    4.2420    1.3440 C   0  0  0  0  0  0
   25.2130    3.0190    0.8020 N   0  0  0  0  0  0
   26.3500    2.5300    0.3220 C   0  0  0  0  0  0
   27.5200    3.1710    0.2800 N   0  0  0  0  0  0
   26.1900    1.1600   -0.0770 C   0  0  0  0  0  0
   27.0850    0.2750   -0.6410 C   0  0  0  0  0  0
   26.4890   -0.9190   -0.7010 N   0  3  0  0  0  0
   25.2250   -0.8870   -0.2310 N   0  0  0  0  0  0
   25.0200    0.3660    0.1500 C   0  0  0  0  0  0
   23.9740    4.3540    1.8680 N   0  0  0  0  0  0
   23.2460    5.1820    2.7890 C   0  0  1  0  0  0
   21.7860    5.2230    2.3080 C   0  0  0  0  0  0
   21.0120    4.2540    3.2230 C   0  0  0  0  0  0
   22.0480    3.3580    3.8940 C   0  0  0  0  0  0
   23.0520    4.4390    4.1680 C   0  0  1  0  0  0
   24.2790    3.9320    4.7960 C   0  0  0  0  0  0
   25.2260    3.5860    5.3220 N   0  0  0  0  0  0
   25.7076    6.9116    2.4326 H   0  0  0  0  0  0
   27.9238    8.0019    2.3639 H   0  0  0  0  0  0
   29.8725    6.9480    1.3641 H   0  0  0  0  0  0
   28.0839    0.6215   -0.9446 H   0  0  0  0  0  0
   24.0479    0.6604    0.5724 H   0  0  0  0  0  0
   23.4715    3.5114    1.3704 H   0  0  0  0  0  0
   23.8155    6.1230    2.8031 H   0  0  0  0  0  0
   21.3993    6.2490    2.3969 H   0  0  0  0  0  0
   21.7371    4.9026    1.2568 H   0  0  0  0  0  0
   20.4489    4.8288    3.9730 H   0  0  0  0  0  0
   20.3134    3.6574    2.6179 H   0  0  0  0  0  0
   21.6041    2.8864    4.7831 H   0  0  0  0  0  0
   22.3709    2.5785    3.1882 H   0  0  0  0  0  0
   22.7225    5.1066    4.9778 H   0  0  0  0  0  0
   26.9127   -1.8624   -1.0758 H   0  0  0  0  0  0
  1  2  2  0  0  0
  1  7  1  0  0  0
  1 25  1  0  0  0
  2  3  1  0  0  0
  2 26  1  0  0  0
  3  4  1  0  0  0
  3 27  1  0  0  0
  4  5  2  0  0  0
  4  6  1  0  0  0
  6  7  2  0  0  0
  6 11  1  0  0  0
  7  8  1  0  0  0
  8  9  2  0  0  0
  8 17  1  0  0  0
  9 10  1  0  0  0
 10 11  2  0  0  0
 10 12  1  0  0  0
 12 13  2  0  0  0
 12 16  1  0  0  0
 13 14  1  0  0  0
 13 28  1  0  0  0
 14 15  1  0  0  0
 14 39  1  0  0  0
 15 16  2  0  0  0
 16 29  1  0  0  0
 17 18  1  0  0  0
 17 30  1  0  0  0
 18 19  1  0  0  0
 18 22  1  0  0  0
 18 31  1  0  0  0
 19 20  1  0  0  0
 19 32  1  0  0  0
 19 33  1  0  0  0
 20 21  1  0  0  0
 20 34  1  0  0  0
 20 35  1  0  0  0
 21 22  1  0  0  0
 21 36  1  0  0  0
 21 37  1  0  0  0
 22 23  1  0  0  0
 22 38  1  0  0  0
 23 24  3  0  0  0
M  CHG  1  14   1
M  END
> <s_m_source_file>
../4k6z_ligand.sdf

> <i_m_source_file_index>
1

> <s_epik_input>
W2NIXTFuW25IXVtjSF1jMS1jKG4yKW5jKGMoYzIzKVtjSF1bY0hdW25IXWMzPU8pW05IXVtDQEhdNFtDSDJdW0NIMl1bQ0gyXVtDQEhdNEMjTg==

> <s_epik_cmdline>
J2VwaWtfYXBwJywgJy1pbWFlJywgJ2xpZ2FuZF9wcm8ubWFlJywgJy1vbWFlJywgJ2xpZ2FuZF9wcmVwLm1hZScsICctbXMnLCAnMScsICctcGgnLCAnNycsICctcGh0JywgJzAuNScsICctbnQn

> <r_epik_Ionization_Penalty>
  0.4249

> <r_epik_Ionization_Penalty_Charging>
  0.0378

> <r_epik_Ionization_Penalty_Neutral>
  0.3871

> <r_epik_State_Penalty>
  0.4107

> <r_epik_Charging_Adjusted_Penalty>
0.448483496961806

> <i_epik_Tot_Q>
1

> <i_epik_Tot_abs_Q>
1

> <s_epik_Chemistry_Notes>
This compound has an imine and may undergo hydrolysis.

$$$$
