4k72_ligand
                    3D
 Schrodinger Suite 2020-3.
 64 63  0  0  1  0            999 V2000
   -5.3110   24.4770   45.1570 N   0  3  0  0  0  0
   -3.9830   24.7430   44.6700 C   0  0  2  0  0  0
   -3.0830   23.7650   45.3400 C   0  0  0  0  0  0
   -3.3840   23.4000   46.4610 O   0  0  0  0  0  0
   -3.6080   26.1440   45.0870 C   0  0  0  0  0  0
   -4.5380   27.1340   44.5380 C   0  0  0  0  0  0
   -5.5060   26.6990   43.9510 O   0  5  0  0  0  0
   -4.3270   28.3020   44.6560 O   0  0  0  0  0  0
   -1.9910   23.3390   44.7180 N   0  0  0  0  0  0
   -1.0280   22.6040   45.5290 C   0  0  2  0  0  0
    0.0240   23.5140   46.1520 C   0  0  0  0  0  0
    0.5390   24.4190   45.4970 O   0  0  0  0  0  0
   -0.3380   21.5520   44.6710 C   0  0  0  0  0  0
   -1.2920   20.7570   43.9990 O   0  0  0  0  0  0
    0.3470   23.2570   47.4180 N   0  0  0  0  0  0
    1.3990   23.9970   48.1090 C   0  0  2  0  0  0
    2.7280   23.2900   47.9070 C   0  0  0  0  0  0
    2.8260   22.0790   48.1040 O   0  0  0  0  0  0
    1.1440   24.0680   49.6240 C   0  0  2  0  0  0
   -0.3210   24.3990   49.9290 C   0  0  0  0  0  0
    2.1260   25.0450   50.2920 C   0  0  0  0  0  0
   -0.8630   25.6050   49.2020 C   0  0  0  0  0  0
    3.7510   24.0440   47.5180 N   0  0  0  0  0  0
    5.0790   23.4830   47.3090 C   0  0  2  0  0  0
    6.1330   24.3660   47.9590 C   0  0  0  0  0  0
    5.9160   25.5600   48.1550 O   0  0  0  0  0  0
    5.4300   23.3440   45.8050 C   0  0  2  0  0  0
    4.2550   22.7560   45.0200 C   0  0  0  0  0  0
    6.6850   22.4920   45.6270 C   0  0  0  0  0  0
    4.4720   22.7700   43.5070 C   0  0  0  0  0  0
    7.2250   23.8980   48.2790 O   0  5  0  0  0  0
   -5.6110   23.4593   44.8666 H   0  0  0  0  0  0
   -6.0131   25.2042   44.7232 H   0  0  0  0  0  0
   -5.3237   24.5642   46.2535 H   0  0  0  0  0  0
   -3.9462   24.6339   43.5760 H   0  0  0  0  0  0
   -3.6285   26.2178   46.1843 H   0  0  0  0  0  0
   -2.5965   26.3767   44.7227 H   0  0  0  0  0  0
   -1.7915   23.5133   43.6504 H   0  0  0  0  0  0
   -1.6261   22.1487   46.3321 H   0  0  0  0  0  0
    0.3014   22.0482   43.9261 H   0  0  0  0  0  0
    0.2793   20.9043   45.3108 H   0  0  0  0  0  0
   -0.9614   19.9456   43.3340 H   0  0  0  0  0  0
   -0.2029   22.4626   47.9438 H   0  0  0  0  0  0
    1.3830   24.9992   47.6560 H   0  0  0  0  0  0
    1.3271   23.0745   50.0593 H   0  0  0  0  0  0
   -0.9561   23.5467   49.6457 H   0  0  0  0  0  0
   -0.4353   24.5999   51.0044 H   0  0  0  0  0  0
    3.1574   24.7587   50.0385 H   0  0  0  0  0  0
    1.9932   25.0094   51.3834 H   0  0  0  0  0  0
    1.9297   26.0657   49.9319 H   0  0  0  0  0  0
   -1.9147   25.7611   49.4841 H   0  0  0  0  0  0
   -0.7951   25.4399   48.1166 H   0  0  0  0  0  0
   -0.2743   26.4931   49.4754 H   0  0  0  0  0  0
    3.5753   25.1174   47.3536 H   0  0  0  0  0  0
    5.0209   22.4982   47.7957 H   0  0  0  0  0  0
    5.6378   24.3414   45.3902 H   0  0  0  0  0  0
    4.0985   21.7101   45.3227 H   0  0  0  0  0  0
    3.3457   23.3384   45.2298 H   0  0  0  0  0  0
    7.5131   22.9349   46.1998 H   0  0  0  0  0  0
    6.9549   22.4550   44.5613 H   0  0  0  0  0  0
    6.4908   21.4726   45.9917 H   0  0  0  0  0  0
    3.5940   22.3355   43.0066 H   0  0  0  0  0  0
    5.3655   22.1781   43.2593 H   0  0  0  0  0  0
    4.6127   23.8064   43.1664 H   0  0  0  0  0  0
  1  2  1  0  0  0
  1 32  1  0  0  0
  1 33  1  0  0  0
  1 34  1  0  0  0
  2  3  1  0  0  0
  2  5  1  0  0  0
  2 35  1  0  0  0
  3  4  2  0  0  0
  3  9  1  0  0  0
  5  6  1  0  0  0
  5 36  1  0  0  0
  5 37  1  0  0  0
  6  7  1  0  0  0
  6  8  2  0  0  0
  9 10  1  0  0  0
  9 38  1  0  0  0
 10 11  1  0  0  0
 10 13  1  0  0  0
 10 39  1  0  0  0
 11 12  2  0  0  0
 11 15  1  0  0  0
 13 14  1  0  0  0
 13 40  1  0  0  0
 13 41  1  0  0  0
 14 42  1  0  0  0
 15 16  1  0  0  0
 15 43  1  0  0  0
 16 17  1  0  0  0
 16 19  1  0  0  0
 16 44  1  0  0  0
 17 18  2  0  0  0
 17 23  1  0  0  0
 19 20  1  0  0  0
 19 21  1  0  0  0
 19 45  1  0  0  0
 20 22  1  0  0  0
 20 46  1  0  0  0
 20 47  1  0  0  0
 21 48  1  0  0  0
 21 49  1  0  0  0
 21 50  1  0  0  0
 22 51  1  0  0  0
 22 52  1  0  0  0
 22 53  1  0  0  0
 23 24  1  0  0  0
 23 54  1  0  0  0
 24 25  1  0  0  0
 24 27  1  0  0  0
 24 55  1  0  0  0
 25 26  2  0  0  0
 25 31  1  0  0  0
 27 28  1  0  0  0
 27 29  1  0  0  0
 27 56  1  0  0  0
 28 30  1  0  0  0
 28 57  1  0  0  0
 28 58  1  0  0  0
 29 59  1  0  0  0
 29 60  1  0  0  0
 29 61  1  0  0  0
 30 62  1  0  0  0
 30 63  1  0  0  0
 30 64  1  0  0  0
M  CHG  3   1   1   7  -1  31  -1
M  END
> <s_m_source_file>
../4k72_ligand.sdf

> <i_m_source_file_index>
1

> <s_epik_input>
W09IXUMoPU8pW0NIMl1bQ0BIXShbTkgzK10pQyg9TylbTkhdW0NAQEhdKFtDSDJdW09IXSlDKD1PKVtOSF1bQ0BASF0oW0NAQEhdKFtDSDNdKVtDSDJdW0NIM10pQyg9TylbTkhdW0NASF0oQyg9TylbT0hdKVtDQEBIXShbQ0gzXSlbQ0gyXVtDSDNd

> <s_epik_cmdline>
J2VwaWtfYXBwJywgJy1pbWFlJywgJ2xpZ2FuZF9wcm8ubWFlJywgJy1vbWFlJywgJ2xpZ2FuZF9wcmVwLm1hZScsICctbXMnLCAnMScsICctcGgnLCAnNycsICctcGh0JywgJzAuNScsICctbnQn

> <r_epik_Ionization_Penalty>
  0.0218

> <r_epik_Ionization_Penalty_Charging>
  0.0218

> <r_epik_Ionization_Penalty_Neutral>
  0.0000

> <r_epik_State_Penalty>
  0.0173

> <r_epik_Charging_Adjusted_Penalty>
0.0390567780668772

> <i_epik_Tot_Q>
-1

> <i_epik_Tot_abs_Q>
3

$$$$
