4k75_ligand
                    3D
 Schrodinger Suite 2020-3.
137138  0  0  1  0            999 V2000
   29.4900   23.9320   30.2340 N   0  3  0  0  0  0
   30.0220   23.5950   31.5490 C   0  0  2  0  0  0
   28.9220   23.3280   32.5800 C   0  0  0  0  0  0
   29.1980   23.2470   33.7770 O   0  0  0  0  0  0
   30.9540   24.7050   32.0520 C   0  0  0  0  0  0
   30.7360   26.0630   31.3910 C   0  0  0  0  0  0
   31.4870   27.1820   32.1140 C   0  0  0  0  0  0
   30.7510   27.6790   33.2750 N   0  0  0  0  0  0
   31.1010   28.7420   33.9960 C   0  0  0  0  0  0
   32.1880   29.4400   33.6880 N   0  0  0  0  0  0
   30.3560   29.1110   35.0310 N   0  3  0  0  0  0
   27.6830   23.1760   32.1150 N   0  0  0  0  0  0
   26.5380   23.0440   33.0190 C   0  0  2  0  0  0
   25.9880   21.6220   33.1160 C   0  0  0  0  0  0
   25.8780   20.9170   32.1110 O   0  0  0  0  0  0
   25.4030   23.9670   32.5730 C   0  0  0  0  0  0
   25.7710   25.4080   32.4800 C   0  0  0  0  0  0
   26.9810   25.9710   32.7680 C   0  0  0  0  0  0
   24.9150   26.4790   32.0720 C   0  0  0  0  0  0
   26.9300   27.3290   32.5630 N   0  3  0  0  0  0
   25.6730   27.6650   32.1310 C   0  0  0  0  0  0
   23.5820   26.5490   31.6570 C   0  0  0  0  0  0
   25.1420   28.9050   31.7970 C   0  0  0  0  0  0
   23.0560   27.7830   31.3180 C   0  0  0  0  0  0
   23.8340   28.9450   31.3930 C   0  0  0  0  0  0
   25.6080   21.2090   34.3060 N   0  0  0  0  0  0
   24.9090   19.9630   34.4740 C   0  0  2  0  0  0
   23.5400   20.0310   33.7960 C   0  0  0  0  0  0
   22.9760   21.0640   33.6980 O   0  0  0  0  0  0
   24.7270   19.6830   35.9690 C   0  0  0  0  0  0
   26.0110   19.8620   36.7360 C   0  0  0  0  0  0
   25.8460   20.1150   38.2090 C   0  0  0  0  0  0
   25.5180   19.2240   38.9880 O   0  0  0  0  0  0
   26.1070   21.3220   38.5960 N   0  0  0  0  0  0
   23.0200   18.8900   33.4230 N   0  0  0  0  0  0
   21.6860   18.8130   32.8470 C   0  0  2  0  0  0
   20.9860   17.5600   33.3600 C   0  0  0  0  0  0
   21.5040   16.4530   33.2180 O   0  0  0  0  0  0
   21.7760   18.7890   31.3240 C   0  0  0  0  0  0
   20.4190   18.7940   30.6630 C   0  0  0  0  0  0
   19.9390   19.8920   30.3130 O   0  0  0  0  0  0
   19.8370   17.7020   30.4950 O   0  5  0  0  0  0
   19.8080   17.7300   33.9550 N   0  0  0  0  0  0
   19.1340   16.6200   34.6280 C   0  0  2  0  0  0
   17.6840   16.4560   34.1940 C   0  0  0  0  0  0
   16.9100   17.4080   34.2310 O   0  0  0  0  0  0
   19.1810   16.7980   36.1490 C   0  0  2  0  0  0
   20.5480   16.9060   36.5650 O   0  0  0  0  0  0
   18.5070   15.6250   36.8590 C   0  0  0  0  0  0
   17.3260   15.2460   33.7780 N   0  0  0  0  0  0
   15.9450   14.9130   33.4570 C   0  0  2  0  0  0
   15.1230   14.6120   34.7120 C   0  0  0  0  0  0
   15.5430   13.8310   35.5850 O   0  0  0  0  0  0
   15.9000   13.7260   32.4960 C   0  0  0  0  0  0
   14.5090   13.3590   32.0360 C   0  0  0  0  0  0
   14.5890   12.4280   30.8390 C   0  0  0  0  0  0
   13.2720   12.0290   30.3550 N   0  0  0  0  0  0
   13.0580   11.4840   29.1600 C   0  0  0  0  0  0
   14.0730   11.2850   28.3310 N   0  0  0  0  0  0
   11.8320   11.1440   28.7920 N   0  3  0  0  0  0
   13.9470   15.2290   34.8000 N   0  0  0  0  0  0
   13.0720   15.1020   35.9590 C   0  0  2  0  0  0
   11.6810   14.6390   35.5530 C   0  0  0  0  0  0
   11.3250   14.6770   34.3670 O   0  5  0  0  0  0
   12.9470   16.4490   36.6820 C   0  0  0  0  0  0
   14.2430   17.1670   37.0570 C   0  0  0  0  0  0
   13.9590   18.6030   37.4830 C   0  0  0  0  0  0
   14.9760   16.4140   38.1570 C   0  0  0  0  0  0
   10.8810   14.2560   36.4050 O   0  0  0  0  0  0
   28.8251   23.1261   29.8900 H   0  0  0  0  0  0
   30.3201   24.0514   29.5222 H   0  0  0  0  0  0
   28.9234   24.8727   30.2978 H   0  0  0  0  0  0
   30.5762   22.6608   31.3756 H   0  0  0  0  0  0
   30.8044   24.8477   33.1324 H   0  0  0  0  0  0
   31.9993   24.4207   31.8610 H   0  0  0  0  0  0
   31.0938   26.0264   30.3514 H   0  0  0  0  0  0
   29.6637   26.3079   31.4013 H   0  0  0  0  0  0
   32.4603   26.8053   32.4616 H   0  0  0  0  0  0
   31.6450   28.0234   31.4233 H   0  0  0  0  0  0
   29.8373   27.1651   33.6082 H   0  0  0  0  0  0
   32.8100   29.1400   32.8318 H   0  0  0  0  0  0
   32.4664   30.3182   34.2891 H   0  0  0  0  0  0
   29.4543   28.5375   35.2919 H   0  0  0  0  0  0
   27.5298   23.1507   31.0260 H   0  0  0  0  0  0
   26.9584   23.3297   33.9945 H   0  0  0  0  0  0
   25.0542   23.6633   31.5749 H   0  0  0  0  0  0
   24.5709   23.8974   33.2891 H   0  0  0  0  0  0
   27.8145   25.3392   33.1087 H   0  0  0  0  0  0
   22.9691   25.6493   31.6016 H   0  0  0  0  0  0
   25.7440   29.8119   31.8544 H   0  0  0  0  0  0
   22.0197   27.8518   30.9873 H   0  0  0  0  0  0
   23.3886   29.9027   31.1238 H   0  0  0  0  0  0
   25.8338   21.8353   35.1816 H   0  0  0  0  0  0
   25.5385   19.1990   33.9945 H   0  0  0  0  0  0
   23.9796   20.3755   36.3834 H   0  0  0  0  0  0
   24.3844   18.6471   36.1090 H   0  0  0  0  0  0
   26.6246   18.9540   36.6408 H   0  0  0  0  0  0
   26.5636   20.7222   36.3302 H   0  0  0  0  0  0
   26.3969   22.0853   37.8589 H   0  0  0  0  0  0
   26.0390   21.5846   39.6620 H   0  0  0  0  0  0
   23.6163   17.9750   33.5536 H   0  0  0  0  0  0
   21.1432   19.7127   33.1724 H   0  0  0  0  0  0
   22.3252   19.6760   30.9751 H   0  0  0  0  0  0
   22.3053   17.8800   31.0022 H   0  0  0  0  0  0
   19.3413   18.7259   33.9349 H   0  0  0  0  0  0
   19.7059   15.7383   34.3032 H   0  0  0  0  0  0
   18.6928   17.7374   36.4475 H   0  0  0  0  0  0
   21.1875   17.7000   36.1520 H   0  0  0  0  0  0
   17.4592   15.5518   36.5323 H   0  0  0  0  0  0
   18.5416   15.7859   37.9466 H   0  0  0  0  0  0
   19.0350   14.6929   36.6092 H   0  0  0  0  0  0
   18.1129   14.4837   33.6790 H   0  0  0  0  0  0
   15.5428   15.8167   32.9758 H   0  0  0  0  0  0
   16.4877   13.9603   31.5962 H   0  0  0  0  0  0
   16.3230   12.8385   32.9894 H   0  0  0  0  0  0
   13.9739   12.8536   32.8535 H   0  0  0  0  0  0
   13.9647   14.2712   31.7503 H   0  0  0  0  0  0
   15.1143   12.9339   30.0155 H   0  0  0  0  0  0
   15.1380   11.5169   31.1192 H   0  0  0  0  0  0
   12.3856   12.1737   30.9901 H   0  0  0  0  0  0
   15.0928   11.5660   28.6327 H   0  0  0  0  0  0
   13.8955   10.8389   27.3413 H   0  0  0  0  0  0
   10.9869   11.3074   29.4769 H   0  0  0  0  0  0
   13.6444   15.8562   33.9485 H   0  0  0  0  0  0
   13.5538   14.3421   36.5918 H   0  0  0  0  0  0
   12.3943   17.1564   36.0463 H   0  0  0  0  0  0
   12.4063   16.3078   37.6295 H   0  0  0  0  0  0
   14.8948   17.1939   36.1713 H   0  0  0  0  0  0
   13.4295   19.1275   36.6740 H   0  0  0  0  0  0
   14.9082   19.1174   37.6939 H   0  0  0  0  0  0
   13.3344   18.6001   38.3885 H   0  0  0  0  0  0
   15.1701   15.3823   37.8285 H   0  0  0  0  0  0
   14.3571   16.3990   39.0662 H   0  0  0  0  0  0
   15.9308   16.9163   38.3716 H   0  0  0  0  0  0
   27.8205   27.9472   32.7496 H   0  0  0  0  0  0
   11.6588   10.6982   27.8014 H   0  0  0  0  0  0
   30.6404   29.9902   35.6277 H   0  0  0  0  0  0
  1  2  1  0  0  0
  1 70  1  0  0  0
  1 71  1  0  0  0
  1 72  1  0  0  0
  2  3  1  0  0  0
  2  5  1  0  0  0
  2 73  1  0  0  0
  3  4  2  0  0  0
  3 12  1  0  0  0
  5  6  1  0  0  0
  5 74  1  0  0  0
  5 75  1  0  0  0
  6  7  1  0  0  0
  6 76  1  0  0  0
  6 77  1  0  0  0
  7  8  1  0  0  0
  7 78  1  0  0  0
  7 79  1  0  0  0
  8  9  1  0  0  0
  8 80  1  0  0  0
  9 10  1  0  0  0
  9 11  2  0  0  0
 10 81  1  0  0  0
 10 82  1  0  0  0
 11 83  1  0  0  0
 11137  1  0  0  0
 12 13  1  0  0  0
 12 84  1  0  0  0
 13 14  1  0  0  0
 13 16  1  0  0  0
 13 85  1  0  0  0
 14 15  2  0  0  0
 14 26  1  0  0  0
 16 17  1  0  0  0
 16 86  1  0  0  0
 16 87  1  0  0  0
 17 18  2  0  0  0
 17 19  1  0  0  0
 18 20  1  0  0  0
 18 88  1  0  0  0
 19 21  2  0  0  0
 19 22  1  0  0  0
 20 21  1  0  0  0
 20135  1  0  0  0
 21 23  1  0  0  0
 22 24  2  0  0  0
 22 89  1  0  0  0
 23 25  2  0  0  0
 23 90  1  0  0  0
 24 25  1  0  0  0
 24 91  1  0  0  0
 25 92  1  0  0  0
 26 27  1  0  0  0
 26 93  1  0  0  0
 27 28  1  0  0  0
 27 30  1  0  0  0
 27 94  1  0  0  0
 28 29  2  0  0  0
 28 35  1  0  0  0
 30 31  1  0  0  0
 30 95  1  0  0  0
 30 96  1  0  0  0
 31 32  1  0  0  0
 31 97  1  0  0  0
 31 98  1  0  0  0
 32 33  2  0  0  0
 32 34  1  0  0  0
 34 99  1  0  0  0
 34100  1  0  0  0
 35 36  1  0  0  0
 35101  1  0  0  0
 36 37  1  0  0  0
 36 39  1  0  0  0
 36102  1  0  0  0
 37 38  2  0  0  0
 37 43  1  0  0  0
 39 40  1  0  0  0
 39103  1  0  0  0
 39104  1  0  0  0
 40 41  2  0  0  0
 40 42  1  0  0  0
 43 44  1  0  0  0
 43105  1  0  0  0
 44 45  1  0  0  0
 44 47  1  0  0  0
 44106  1  0  0  0
 45 46  2  0  0  0
 45 50  1  0  0  0
 47 48  1  0  0  0
 47 49  1  0  0  0
 47107  1  0  0  0
 48108  1  0  0  0
 49109  1  0  0  0
 49110  1  0  0  0
 49111  1  0  0  0
 50 51  1  0  0  0
 50112  1  0  0  0
 51 52  1  0  0  0
 51 54  1  0  0  0
 51113  1  0  0  0
 52 53  2  0  0  0
 52 61  1  0  0  0
 54 55  1  0  0  0
 54114  1  0  0  0
 54115  1  0  0  0
 55 56  1  0  0  0
 55116  1  0  0  0
 55117  1  0  0  0
 56 57  1  0  0  0
 56118  1  0  0  0
 56119  1  0  0  0
 57 58  1  0  0  0
 57120  1  0  0  0
 58 59  1  0  0  0
 58 60  2  0  0  0
 59121  1  0  0  0
 59122  1  0  0  0
 60123  1  0  0  0
 60136  1  0  0  0
 61 62  1  0  0  0
 61124  1  0  0  0
 62 63  1  0  0  0
 62 65  1  0  0  0
 62125  1  0  0  0
 63 64  1  0  0  0
 63 69  2  0  0  0
 65 66  1  0  0  0
 65126  1  0  0  0
 65127  1  0  0  0
 66 67  1  0  0  0
 66 68  1  0  0  0
 66128  1  0  0  0
 67129  1  0  0  0
 67130  1  0  0  0
 67131  1  0  0  0
 68132  1  0  0  0
 68133  1  0  0  0
 68134  1  0  0  0
M  CHG  6   1   1  11   1  20   1  42  -1  60   1  64  -1
M  END
> <s_m_source_file>
../4k75_ligand.sdf

> <i_m_source_file_index>
1

> <s_epik_input>
W0hdL049QyhbTkgyXSlcW05IXVtDSDJdW0NIMl1bQ0gyXVtDQEhdKFtOSDMrXSlDKD1PKVtOSF1bQ0BASF0oW0NIMl1jMVtjSF1bbkhdYyhjMTIpW2NIXVtjSF1bY0hdW2NIXTIpQyg9TylbTkhdW0NAQEhdKFtDSDJdW0NIMl1DKD1PKVtOSDJdKUMoPU8pW05IXVtDQEBIXShbQ0gyXUMoPU8pW09IXSlDKD1PKVtOSF1bQ0BASF0oW0NASF0oW09IXSlbQ0gzXSlDKD1PKVtOSF1bQ0BIXShDKD1PKVtOSF1bQ0BIXShDKD1PKVtPSF0pW0NIMl1bQ0hdKFtDSDNdKVtDSDNdKVtDSDJdW0NIMl1bQ0gyXVtOSF0vQyhbTkgyXSk9TlxbSF0=

> <s_epik_cmdline>
J2VwaWtfYXBwJywgJy1pbWFlJywgJ2xpZ2FuZF9wcm8ubWFlJywgJy1vbWFlJywgJ2xpZ2FuZF9wcmVwLm1hZScsICctbXMnLCAnMScsICctcGgnLCAnNycsICctcGh0JywgJzAuNScsICctbnQn

> <r_epik_Ionization_Penalty>
  0.1433

> <r_epik_Ionization_Penalty_Charging>
  0.1433

> <r_epik_Ionization_Penalty_Neutral>
  0.0000

> <r_epik_State_Penalty>
  0.1312

> <r_epik_Charging_Adjusted_Penalty>
0.274455777398876

> <i_epik_Tot_Q>
2

> <i_epik_Tot_abs_Q>
6

> <s_epik_Chemistry_Notes>
This compound has an imine and may undergo hydrolysis.

$$$$
