4k76_ligand
                    3D
 Schrodinger Suite 2020-3.
147149  0  0  1  0            999 V2000
   33.6390    0.6830   30.1150 N   0  3  0  0  0  0
   32.9380    1.5330   31.0710 C   0  0  2  0  0  0
   33.8370    1.9030   32.2500 C   0  0  0  0  0  0
   33.4390    1.7800   33.4120 O   0  0  0  0  0  0
   31.6550    0.8520   31.5580 C   0  0  0  0  0  0
   31.9210   -0.4060   32.1610 O   0  0  0  0  0  0
   35.0420    2.3740   31.9380 N   0  0  0  0  0  0
   36.0350    2.7030   32.9590 C   0  0  2  0  0  0
   35.6550    3.9540   33.7540 C   0  0  0  0  0  0
   35.9210    4.0420   34.9560 O   0  0  0  0  0  0
   37.4220    2.8720   32.3260 C   0  0  0  0  0  0
   38.0270    1.5820   31.7730 C   0  0  0  0  0  0
   39.1750    1.8610   30.8050 C   0  0  0  0  0  0
   40.3630    2.4040   31.4630 N   0  0  0  0  0  0
   41.4750    2.7480   30.8180 C   0  0  0  0  0  0
   41.5520    2.6070   29.5040 N   0  3  0  0  0  0
   42.5110    3.2370   31.4830 N   0  0  0  0  0  0
   35.0140    4.9080   33.0830 N   0  0  0  0  0  0
   34.6190    6.1680   33.7070 C   0  0  2  0  0  0
   33.1050    6.3460   33.6020 C   0  0  0  0  0  0
   32.4390    5.5480   32.9520 O   0  0  0  0  0  0
   35.3320    7.3350   33.0210 C   0  0  0  0  0  0
   36.7950    7.1210   32.8660 C   0  0  0  0  0  0
   37.7650    7.3030   33.8120 C   0  0  0  0  0  0
   37.4650    6.6920   31.6810 C   0  0  0  0  0  0
   39.0030    7.0060   33.2820 N   0  3  0  0  0  0
   38.8430    6.6210   31.9750 C   0  0  0  0  0  0
   37.0300    6.3470   30.3970 C   0  0  0  0  0  0
   39.7920    6.2250   31.0270 C   0  0  0  0  0  0
   37.9700    5.9500   29.4590 C   0  0  0  0  0  0
   39.3350    5.8960   29.7780 C   0  0  0  0  0  0
   32.5560    7.3870   34.2480 N   0  0  0  0  0  0
   31.1070    7.6210   34.1940 C   0  0  2  0  0  0
   30.6170    7.8270   32.7580 C   0  0  0  0  0  0
   31.3470    8.3920   31.9370 O   0  0  0  0  0  0
   30.9300    8.9190   34.9900 C   0  0  0  0  0  0
   32.1310    8.9760   35.8980 C   0  0  0  0  0  0
   33.2450    8.3830   35.0870 C   0  0  0  0  0  0
   29.4070    7.3660   32.4610 N   0  0  0  0  0  0
   28.8710    7.4970   31.1150 C   0  0  2  0  0  0
   27.5460    8.2410   31.1320 C   0  0  0  0  0  0
   26.7950    8.1880   32.1080 O   0  0  0  0  0  0
   28.7000    6.1250   30.4180 C   0  0  2  0  0  0
   27.5520    5.4530   30.9420 O   0  0  0  0  0  0
   29.9300    5.2560   30.6350 C   0  0  0  0  0  0
   27.2690    8.9490   30.0460 N   0  0  0  0  0  0
   26.0370    9.6960   29.9250 C   0  0  2  0  0  0
   25.4080    9.3830   28.5790 C   0  0  0  0  0  0
   26.0730    9.4320   27.5370 O   0  0  0  0  0  0
   26.2790   11.2080   30.0280 C   0  0  2  0  0  0
   26.8470   11.5200   31.3080 O   0  0  0  0  0  0
   24.9750   11.9610   29.8570 C   0  0  0  0  0  0
   24.1250    9.0500   28.5970 N   0  0  0  0  0  0
   23.4060    8.8220   27.3510 C   0  0  2  0  0  0
   22.8470   10.1400   26.8090 C   0  0  0  0  0  0
   22.2440   10.9260   27.5460 O   0  0  0  0  0  0
   22.2950    7.7900   27.5570 C   0  0  0  0  0  0
   21.5880    7.3950   26.2780 C   0  0  0  0  0  0
   20.7910    6.1170   26.4710 C   0  0  0  0  0  0
   20.0950    5.7230   25.2500 N   0  0  0  0  0  0
   19.4790    4.5580   25.0900 C   0  0  0  0  0  0
   19.4780    3.6700   26.0740 N   0  3  0  0  0  0
   18.8680    4.2790   23.9460 N   0  0  0  0  0  0
   23.0660   10.3850   25.5220 N   0  0  0  0  0  0
   22.6820   11.6400   24.8890 C   0  0  2  0  0  0
   21.8120   11.3850   23.6780 C   0  0  0  0  0  0
   21.7930   10.2780   23.1380 O   0  5  0  0  0  0
   23.9190   12.3890   24.4130 C   0  0  0  0  0  0
   24.9410   12.8390   25.4460 C   0  0  0  0  0  0
   26.1630   13.3530   24.7160 C   0  0  0  0  0  0
   24.3510   13.9120   26.3380 C   0  0  0  0  0  0
   21.1370   12.2980   23.2070 O   0  0  0  0  0  0
   34.5557    1.1889   29.7779 H   0  0  0  0  0  0
   32.9877    0.4896   29.2499 H   0  0  0  0  0  0
   33.9022   -0.2705   30.5963 H   0  0  0  0  0  0
   32.6885    2.4470   30.5121 H   0  0  0  0  0  0
   31.1592    1.4931   32.3017 H   0  0  0  0  0  0
   30.9795    0.6899   30.7051 H   0  0  0  0  0  0
   31.0931   -1.0113   32.5587 H   0  0  0  0  0  0
   35.2807    2.5137   30.8733 H   0  0  0  0  0  0
   36.0239    1.8388   33.6394 H   0  0  0  0  0  0
   37.3584    3.5809   31.4873 H   0  0  0  0  0  0
   38.1245    3.2576   33.0795 H   0  0  0  0  0  0
   38.4163    0.9743   32.6032 H   0  0  0  0  0  0
   37.2529    1.0151   31.2352 H   0  0  0  0  0  0
   39.4693    0.9259   30.3060 H   0  0  0  0  0  0
   38.8491    2.5923   30.0507 H   0  0  0  0  0  0
   40.3700    2.5488   32.5534 H   0  0  0  0  0  0
   40.6968    2.2018   28.9433 H   0  0  0  0  0  0
   42.4563    3.3578   32.5750 H   0  0  0  0  0  0
   43.4260    3.5223   30.9433 H   0  0  0  0  0  0
   34.7828    4.7226   32.0237 H   0  0  0  0  0  0
   34.9219    6.1046   34.7626 H   0  0  0  0  0  0
   34.9104    7.4823   32.0157 H   0  0  0  0  0  0
   35.1922    8.2503   33.6149 H   0  0  0  0  0  0
   37.4913    7.6408   34.8224 H   0  0  0  0  0  0
   35.9718    6.3896   30.1391 H   0  0  0  0  0  0
   40.8531    6.1799   31.2721 H   0  0  0  0  0  0
   37.6430    5.6750   28.4562 H   0  0  0  0  0  0
   40.0484    5.5852   29.0147 H   0  0  0  0  0  0
   30.5702    6.7492   34.5963 H   0  0  0  0  0  0
   30.9003    9.7728   34.2971 H   0  0  0  0  0  0
   29.9893    8.8752   35.5584 H   0  0  0  0  0  0
   32.3348   10.0219   36.1712 H   0  0  0  0  0  0
   31.9306    8.3916   36.8082 H   0  0  0  0  0  0
   33.9982    7.8791   35.7106 H   0  0  0  0  0  0
   33.7392    9.1257   34.4434 H   0  0  0  0  0  0
   28.8089    6.8808   33.2464 H   0  0  0  0  0  0
   29.6289    8.0962   30.5892 H   0  0  0  0  0  0
   28.5107    6.2515   29.3418 H   0  0  0  0  0  0
   26.5610    5.9262   30.8784 H   0  0  0  0  0  0
   30.8166    5.7686   30.2334 H   0  0  0  0  0  0
   29.7960    4.2950   30.1168 H   0  0  0  0  0  0
   30.0666    5.0762   31.7116 H   0  0  0  0  0  0
   28.0017    8.9599   29.2256 H   0  0  0  0  0  0
   25.4071    9.3590   30.7614 H   0  0  0  0  0  0
   27.0096   11.5419   29.2765 H   0  0  0  0  0  0
   27.8008   11.0643   31.6123 H   0  0  0  0  0  0
   24.5395   11.7218   28.8756 H   0  0  0  0  0  0
   25.1652   13.0426   29.9200 H   0  0  0  0  0  0
   24.2739   11.6651   30.6513 H   0  0  0  0  0  0
   23.6034    8.9461   29.5599 H   0  0  0  0  0  0
   24.1463    8.4219   26.6426 H   0  0  0  0  0  0
   22.7214    6.8741   27.9922 H   0  0  0  0  0  0
   21.5351    8.2003   28.2383 H   0  0  0  0  0  0
   20.8998    8.1984   25.9763 H   0  0  0  0  0  0
   22.3312    7.2313   25.4837 H   0  0  0  0  0  0
   21.4702    5.3014   26.7599 H   0  0  0  0  0  0
   20.0419    6.2680   27.2622 H   0  0  0  0  0  0
   20.0596    6.4094   24.3912 H   0  0  0  0  0  0
   19.9843    3.9002   27.0231 H   0  0  0  0  0  0
   18.8681    5.0151   23.1286 H   0  0  0  0  0  0
   18.3612    3.3115   23.8148 H   0  0  0  0  0  0
   23.5566    9.5981   24.9303 H   0  0  0  0  0  0
   22.1318   12.1976   25.6612 H   0  0  0  0  0  0
   24.4865   11.7544   23.7164 H   0  0  0  0  0  0
   23.6135   13.3134   23.9009 H   0  0  0  0  0  0
   25.2300   11.9964   26.0914 H   0  0  0  0  0  0
   26.5706   12.5558   24.0769 H   0  0  0  0  0  0
   26.9242   13.6618   25.4476 H   0  0  0  0  0  0
   25.8823   14.2150   24.0929 H   0  0  0  0  0  0
   23.4662   13.5129   26.8556 H   0  0  0  0  0  0
   24.0582   14.7777   25.7257 H   0  0  0  0  0  0
   25.1002   14.2245   27.0804 H   0  0  0  0  0  0
   39.9048    7.1002   33.9047 H   0  0  0  0  0  0
   42.4712    2.8950   28.9729 H   0  0  0  0  0  0
   18.9709    2.7029   25.9416 H   0  0  0  0  0  0
  1  2  1  0  0  0
  1 73  1  0  0  0
  1 74  1  0  0  0
  1 75  1  0  0  0
  2  3  1  0  0  0
  2  5  1  0  0  0
  2 76  1  0  0  0
  3  4  2  0  0  0
  3  7  1  0  0  0
  5  6  1  0  0  0
  5 77  1  0  0  0
  5 78  1  0  0  0
  6 79  1  0  0  0
  7  8  1  0  0  0
  7 80  1  0  0  0
  8  9  1  0  0  0
  8 11  1  0  0  0
  8 81  1  0  0  0
  9 10  2  0  0  0
  9 18  1  0  0  0
 11 12  1  0  0  0
 11 82  1  0  0  0
 11 83  1  0  0  0
 12 13  1  0  0  0
 12 84  1  0  0  0
 12 85  1  0  0  0
 13 14  1  0  0  0
 13 86  1  0  0  0
 13 87  1  0  0  0
 14 15  1  0  0  0
 14 88  1  0  0  0
 15 16  2  0  0  0
 15 17  1  0  0  0
 16 89  1  0  0  0
 16146  1  0  0  0
 17 90  1  0  0  0
 17 91  1  0  0  0
 18 19  1  0  0  0
 18 92  1  0  0  0
 19 20  1  0  0  0
 19 22  1  0  0  0
 19 93  1  0  0  0
 20 21  2  0  0  0
 20 32  1  0  0  0
 22 23  1  0  0  0
 22 94  1  0  0  0
 22 95  1  0  0  0
 23 24  2  0  0  0
 23 25  1  0  0  0
 24 26  1  0  0  0
 24 96  1  0  0  0
 25 27  2  0  0  0
 25 28  1  0  0  0
 26 27  1  0  0  0
 26145  1  0  0  0
 27 29  1  0  0  0
 28 30  2  0  0  0
 28 97  1  0  0  0
 29 31  2  0  0  0
 29 98  1  0  0  0
 30 31  1  0  0  0
 30 99  1  0  0  0
 31100  1  0  0  0
 32 33  1  0  0  0
 32 38  1  0  0  0
 33 34  1  0  0  0
 33 36  1  0  0  0
 33101  1  0  0  0
 34 35  2  0  0  0
 34 39  1  0  0  0
 36 37  1  0  0  0
 36102  1  0  0  0
 36103  1  0  0  0
 37 38  1  0  0  0
 37104  1  0  0  0
 37105  1  0  0  0
 38106  1  0  0  0
 38107  1  0  0  0
 39 40  1  0  0  0
 39108  1  0  0  0
 40 41  1  0  0  0
 40 43  1  0  0  0
 40109  1  0  0  0
 41 42  2  0  0  0
 41 46  1  0  0  0
 43 44  1  0  0  0
 43 45  1  0  0  0
 43110  1  0  0  0
 44111  1  0  0  0
 45112  1  0  0  0
 45113  1  0  0  0
 45114  1  0  0  0
 46 47  1  0  0  0
 46115  1  0  0  0
 47 48  1  0  0  0
 47 50  1  0  0  0
 47116  1  0  0  0
 48 49  2  0  0  0
 48 53  1  0  0  0
 50 51  1  0  0  0
 50 52  1  0  0  0
 50117  1  0  0  0
 51118  1  0  0  0
 52119  1  0  0  0
 52120  1  0  0  0
 52121  1  0  0  0
 53 54  1  0  0  0
 53122  1  0  0  0
 54 55  1  0  0  0
 54 57  1  0  0  0
 54123  1  0  0  0
 55 56  2  0  0  0
 55 64  1  0  0  0
 57 58  1  0  0  0
 57124  1  0  0  0
 57125  1  0  0  0
 58 59  1  0  0  0
 58126  1  0  0  0
 58127  1  0  0  0
 59 60  1  0  0  0
 59128  1  0  0  0
 59129  1  0  0  0
 60 61  1  0  0  0
 60130  1  0  0  0
 61 62  2  0  0  0
 61 63  1  0  0  0
 62131  1  0  0  0
 62147  1  0  0  0
 63132  1  0  0  0
 63133  1  0  0  0
 64 65  1  0  0  0
 64134  1  0  0  0
 65 66  1  0  0  0
 65 68  1  0  0  0
 65135  1  0  0  0
 66 67  1  0  0  0
 66 72  2  0  0  0
 68 69  1  0  0  0
 68136  1  0  0  0
 68137  1  0  0  0
 69 70  1  0  0  0
 69 71  1  0  0  0
 69138  1  0  0  0
 70139  1  0  0  0
 70140  1  0  0  0
 70141  1  0  0  0
 71142  1  0  0  0
 71143  1  0  0  0
 71144  1  0  0  0
M  CHG  5   1   1  16   1  26   1  62   1  67  -1
M  END
> <s_m_source_file>
../4k76_ligand.sdf

> <i_m_source_file_index>
1

> <s_epik_input>
W0hdL049QyhbTkgyXSlcW05IXVtDSDJdW0NIMl1bQ0gyXVtDQEhdKFtOSF1DKD1PKVtDQEBIXShbTkgzK10pW0NIMl1bT0hdKUMoPU8pW05IXVtDQEBIXShbQ0gyXWMxW2NIXVtuSF1jKGMxMilbY0hdW2NIXVtjSF1bY0hdMilDKD1PKU4zW0NAQEhdKFtDSDJdW0NIMl1bQ0gyXTMpQyg9TylbTkhdW0NAQEhdKFtDQEhdKFtPSF0pW0NIM10pQyg9TylbTkhdW0NAQEhdKFtDQEhdKFtPSF0pW0NIM10pQyg9TylbTkhdW0NASF0oQyg9TylbTkhdW0NASF0oQyg9TylbT0hdKVtDSDJdW0NIXShbQ0gzXSlbQ0gzXSlbQ0gyXVtDSDJdW0NIMl1bTkhdL0MoPU5cW0hdKVtOSDJd

> <s_epik_cmdline>
J2VwaWtfYXBwJywgJy1pbWFlJywgJ2xpZ2FuZF9wcm8ubWFlJywgJy1vbWFlJywgJ2xpZ2FuZF9wcmVwLm1hZScsICctbXMnLCAnMScsICctcGgnLCAnNycsICctcGh0JywgJzAuNScsICctbnQn

> <r_epik_Ionization_Penalty>
  0.1518

> <r_epik_Ionization_Penalty_Charging>
  0.1518

> <r_epik_Ionization_Penalty_Neutral>
  0.0000

> <r_epik_State_Penalty>
  0.1409

> <r_epik_Charging_Adjusted_Penalty>
0.292668131382177

> <i_epik_Tot_Q>
3

> <i_epik_Tot_abs_Q>
5

> <s_epik_Chemistry_Notes>
This compound has an imine and may undergo hydrolysis.

$$$$
