4k78_ligand
                    3D
 Schrodinger Suite 2020-3.
171172  0  0  1  0            999 V2000
   32.1410   32.3620   35.3680 N   0  3  0  0  0  0
   31.2060   31.7420   34.4340 C   0  0  2  0  0  0
   31.7400   30.4050   33.9330 C   0  0  0  0  0  0
   32.8520   30.3270   33.4250 O   0  0  0  0  0  0
   30.9210   32.6740   33.2660 C   0  0  0  0  0  0
   30.9400   29.3540   34.0730 N   0  0  0  0  0  0
   31.3890   28.0120   33.7110 C   0  0  2  0  0  0
   30.9600   27.5960   32.3100 C   0  0  0  0  0  0
   29.8520   27.8960   31.8760 O   0  0  0  0  0  0
   30.8900   26.9990   34.7430 C   0  0  0  0  0  0
   31.4670   27.2430   36.1160 C   0  0  0  0  0  0
   32.6290   27.6170   36.2530 O   0  0  0  0  0  0
   30.6530   27.0460   37.1420 N   0  0  0  0  0  0
   31.8450   26.9080   31.6020 N   0  0  0  0  0  0
   31.5430   26.4770   30.2450 C   0  0  2  0  0  0
   30.6460   25.2400   30.2600 C   0  0  0  0  0  0
   29.9280   24.9730   29.2900 O   0  0  0  0  0  0
   32.8200   26.1660   29.4640 C   0  0  0  0  0  0
   33.3550   24.9220   29.8640 O   0  0  0  0  0  0
   30.6810   24.4650   31.3370 N   0  0  0  0  0  0
   30.0040   23.1900   31.4010 C   0  0  2  0  0  0
   28.9120   23.1410   32.4870 C   0  0  0  0  0  0
   29.2250   23.2680   33.6420 O   0  0  0  0  0  0
   30.9980   22.1090   31.7780 C   0  0  0  0  0  0
   31.3280   21.0980   30.7420 C   0  0  0  0  0  0
   31.5530   19.7520   31.4450 C   0  0  0  0  0  0
   32.0700   18.7740   30.5240 N   0  0  0  0  0  0
   33.1500   18.9920   29.7940 C   0  0  0  0  0  0
   33.8010   20.1310   29.9410 N   0  0  0  0  0  0
   33.5860   18.0830   28.9470 N   0  0  0  0  0  0
   27.6710   22.8610   32.1110 N   0  0  0  0  0  0
   26.5570   22.8000   33.0530 C   0  0  2  0  0  0
   25.9090   21.4250   33.0510 C   0  0  0  0  0  0
   25.6910   20.8350   31.9910 O   0  0  0  0  0  0
   25.4680   23.7950   32.6450 C   0  0  0  0  0  0
   25.8860   25.2220   32.5170 C   0  0  0  0  0  0
   27.1210   25.7530   32.7640 C   0  0  0  0  0  0
   25.0520   26.3130   32.1150 C   0  0  0  0  0  0
   27.1030   27.1110   32.5390 N   0  0  0  0  0  0
   25.8420   27.4780   32.1340 C   0  0  0  0  0  0
   23.7060   26.4160   31.7360 C   0  0  0  0  0  0
   25.3400   28.7280   31.7930 C   0  0  0  0  0  0
   23.2060   27.6600   31.3960 C   0  0  0  0  0  0
   24.0210   28.8010   31.4280 C   0  0  0  0  0  0
   25.5680   20.9460   34.2420 N   0  0  0  0  0  0
   24.8000   19.7230   34.3950 C   0  0  2  0  0  0
   23.4760   19.8670   33.6420 C   0  0  0  0  0  0
   22.9560   20.9740   33.5170 O   0  0  0  0  0  0
   24.5250   19.4780   35.8820 C   0  0  0  0  0  0
   25.7710   19.4710   36.7720 C   0  0  0  0  0  0
   25.8430   20.6600   37.7160 C   0  0  0  0  0  0
   25.7820   21.8150   37.2940 O   0  0  0  0  0  0
   25.9700   20.3790   39.0060 N   0  0  0  0  0  0
   22.9380   18.7620   33.1360 N   0  0  0  0  0  0
   21.6070   18.7830   32.5570 C   0  0  2  0  0  0
   20.8820   17.5410   33.0480 C   0  0  0  0  0  0
   21.3400   16.4220   32.8180 O   0  0  0  0  0  0
   21.7040   18.8000   31.0380 C   0  0  0  0  0  0
   20.3550   18.8820   30.3770 C   0  0  0  0  0  0
   19.7860   19.9910   30.3500 O   0  0  0  0  0  0
   19.8700   17.8400   29.8910 O   0  0  0  0  0  0
   19.7680   17.7290   33.7500 N   0  0  0  0  0  0
   19.1190   16.6140   34.4330 C   0  0  2  0  0  0
   17.6710   16.4900   34.0180 C   0  0  0  0  0  0
   16.9330   17.4680   34.0450 O   0  0  0  0  0  0
   19.2010   16.7810   35.9610 C   0  0  2  0  0  0
   20.5740   16.8680   36.3550 O   0  0  0  0  0  0
   18.5390   15.6090   36.6800 C   0  0  0  0  0  0
   17.2790   15.2890   33.6070 N   0  0  0  0  0  0
   15.8910   15.0070   33.2860 C   0  0  2  0  0  0
   15.0860   14.6890   34.5430 C   0  0  0  0  0  0
   15.5290   13.9130   35.4030 O   0  0  0  0  0  0
   15.8050   13.8450   32.2950 C   0  0  0  0  0  0
   14.4130   13.5250   31.8410 C   0  0  0  0  0  0
   14.4740   12.5850   30.6600 C   0  0  0  0  0  0
   13.1550   12.1600   30.2070 N   0  0  0  0  0  0
   12.9140   11.6290   29.0120 C   0  0  0  0  0  0
   13.9010   11.4690   28.1480 N   0  0  0  0  0  0
   11.6870   11.2630   28.6790 N   0  0  0  0  0  0
   13.9040   15.2900   34.6490 N   0  0  0  0  0  0
   13.0470   15.1250   35.8220 C   0  0  2  0  0  0
   11.6610   14.6380   35.4390 C   0  0  0  0  0  0
   11.2820   14.6410   34.2580 O   0  0  0  0  0  0
   12.9070   16.4530   36.5770 C   0  0  0  0  0  0
   14.2000   17.1860   36.9240 C   0  0  0  0  0  0
   13.9260   18.6400   37.3140 C   0  0  0  0  0  0
   14.9160   16.4490   38.0300 C   0  0  0  0  0  0
   10.8940   14.2520   36.3350 O   0  0  0  0  0  0
   32.3343   31.6740   36.2042 H   0  0  0  0  0  0
   31.7078   33.2963   35.7545 H   0  0  0  0  0  0
   33.0854   32.5828   34.8490 H   0  0  0  0  0  0
   30.2824   31.5743   35.0074 H   0  0  0  0  0  0
   30.5371   33.6320   33.6466 H   0  0  0  0  0  0
   30.1709   32.2149   32.6052 H   0  0  0  0  0  0
   31.8489   32.8489   32.7017 H   0  0  0  0  0  0
   29.9250   29.5063   34.4686 H   0  0  0  0  0  0
   32.4868   28.0814   33.7166 H   0  0  0  0  0  0
   29.7945   27.0626   34.8193 H   0  0  0  0  0  0
   31.1774   25.9845   34.4297 H   0  0  0  0  0  0
   29.6200   26.7105   36.9680 H   0  0  0  0  0  0
   31.0100   27.2179   38.1682 H   0  0  0  0  0  0
   32.8181   26.6636   32.0530 H   0  0  0  0  0  0
   31.0206   27.3326   29.7923 H   0  0  0  0  0  0
   32.5918   26.1272   28.3886 H   0  0  0  0  0  0
   33.5657   26.9524   29.6524 H   0  0  0  0  0  0
   34.2779   24.5451   29.3990 H   0  0  0  0  0  0
   31.2539   24.8276   32.2032 H   0  0  0  0  0  0
   29.5853   23.0851   30.3892 H   0  0  0  0  0  0
   31.9574   22.5724   32.0516 H   0  0  0  0  0  0
   30.6102   21.5364   32.6334 H   0  0  0  0  0  0
   30.4945   21.0186   30.0285 H   0  0  0  0  0  0
   32.2397   21.4042   30.2081 H   0  0  0  0  0  0
   32.2744   19.8827   32.2650 H   0  0  0  0  0  0
   30.5984   19.3864   31.8513 H   0  0  0  0  0  0
   31.5628   17.8047   30.4090 H   0  0  0  0  0  0
   33.4329   20.8874   30.6498 H   0  0  0  0  0  0
   34.7115   20.3237   29.3547 H   0  0  0  0  0  0
   33.0402   17.1354   28.8279 H   0  0  0  0  0  0
   27.4980   22.6707   31.0415 H   0  0  0  0  0  0
   27.0071   23.0305   34.0299 H   0  0  0  0  0  0
   25.0612   23.5112   31.6632 H   0  0  0  0  0  0
   24.6617   23.7834   33.3932 H   0  0  0  0  0  0
   27.9919   25.1849   33.0910 H   0  0  0  0  0  0
   23.0666   25.5336   31.7098 H   0  0  0  0  0  0
   25.9711   29.6165   31.8150 H   0  0  0  0  0  0
   22.1617   27.7551   31.0984 H   0  0  0  0  0  0
   23.5959   29.7673   31.1565 H   0  0  0  0  0  0
   25.8878   21.5095   35.1309 H   0  0  0  0  0  0
   25.4045   18.9069   33.9724 H   0  0  0  0  0  0
   23.8640   20.2682   36.2677 H   0  0  0  0  0  0
   24.0391   18.4993   36.0087 H   0  0  0  0  0  0
   25.7770   18.5591   37.3872 H   0  0  0  0  0  0
   26.6721   19.4939   36.1415 H   0  0  0  0  0  0
   26.0206   19.3316   39.3384 H   0  0  0  0  0  0
   26.0248   21.1933   39.7435 H   0  0  0  0  0  0
   23.5129   17.8245   33.1593 H   0  0  0  0  0  0
   21.0913   19.6971   32.8864 H   0  0  0  0  0  0
   22.2922   19.6727   30.7179 H   0  0  0  0  0  0
   22.1960   17.8792   30.6917 H   0  0  0  0  0  0
   18.8855   17.8680   29.4012 H   0  0  0  0  0  0
   19.3361   18.7387   33.8125 H   0  0  0  0  0  0
   19.6712   15.7222   34.1018 H   0  0  0  0  0  0
   18.7275   17.7235   36.2734 H   0  0  0  0  0  0
   21.2170   17.6569   35.9377 H   0  0  0  0  0  0
   17.4836   15.5420   36.3772 H   0  0  0  0  0  0
   18.5994   15.7645   37.7673 H   0  0  0  0  0  0
   19.0568   14.6758   36.4137 H   0  0  0  0  0  0
   18.0372   14.4977   33.5123 H   0  0  0  0  0  0
   15.5070   15.9326   32.8324 H   0  0  0  0  0  0
   16.3899   14.0864   31.3952 H   0  0  0  0  0  0
   16.2091   12.9345   32.7616 H   0  0  0  0  0  0
   13.8601   13.0467   32.6629 H   0  0  0  0  0  0
   13.9011   14.4529   31.5459 H   0  0  0  0  0  0
   14.9729   13.0865   29.8176 H   0  0  0  0  0  0
   15.0403   11.6837   30.9376 H   0  0  0  0  0  0
   12.2838   12.2712   30.8693 H   0  0  0  0  0  0
   14.9234   11.7713   28.4188 H   0  0  0  0  0  0
   10.8611   11.3935   29.3937 H   0  0  0  0  0  0
   11.4928   10.8281   27.6874 H   0  0  0  0  0  0
   13.5779   15.9289   33.8151 H   0  0  0  0  0  0
   13.5547   14.3616   36.4298 H   0  0  0  0  0  0
   12.3179   17.1582   35.9723 H   0  0  0  0  0  0
   12.3974   16.2777   37.5360 H   0  0  0  0  0  0
   14.8547   17.1983   36.0401 H   0  0  0  0  0  0
   13.4048   19.1487   36.4897 H   0  0  0  0  0  0
   14.8788   19.1511   37.5163 H   0  0  0  0  0  0
   13.2974   18.6654   38.2164 H   0  0  0  0  0  0
   15.0981   15.4094   37.7199 H   0  0  0  0  0  0
   14.2951   16.4574   38.9380 H   0  0  0  0  0  0
   15.8765   16.9432   38.2380 H   0  0  0  0  0  0
    9.8853   13.8951   36.0796 H   0  0  0  0  0  0
  1  2  1  0  0  0
  1 89  1  0  0  0
  1 90  1  0  0  0
  1 91  1  0  0  0
  2  3  1  0  0  0
  2  5  1  0  0  0
  2 92  1  0  0  0
  3  4  2  0  0  0
  3  6  1  0  0  0
  5 93  1  0  0  0
  5 94  1  0  0  0
  5 95  1  0  0  0
  6  7  1  0  0  0
  6 96  1  0  0  0
  7  8  1  0  0  0
  7 10  1  0  0  0
  7 97  1  0  0  0
  8  9  2  0  0  0
  8 14  1  0  0  0
 10 11  1  0  0  0
 10 98  1  0  0  0
 10 99  1  0  0  0
 11 12  2  0  0  0
 11 13  1  0  0  0
 13100  1  0  0  0
 13101  1  0  0  0
 14 15  1  0  0  0
 14102  1  0  0  0
 15 16  1  0  0  0
 15 18  1  0  0  0
 15103  1  0  0  0
 16 17  2  0  0  0
 16 20  1  0  0  0
 18 19  1  0  0  0
 18104  1  0  0  0
 18105  1  0  0  0
 19106  1  0  0  0
 20 21  1  0  0  0
 20107  1  0  0  0
 21 22  1  0  0  0
 21 24  1  0  0  0
 21108  1  0  0  0
 22 23  2  0  0  0
 22 31  1  0  0  0
 24 25  1  0  0  0
 24109  1  0  0  0
 24110  1  0  0  0
 25 26  1  0  0  0
 25111  1  0  0  0
 25112  1  0  0  0
 26 27  1  0  0  0
 26113  1  0  0  0
 26114  1  0  0  0
 27 28  1  0  0  0
 27115  1  0  0  0
 28 29  1  0  0  0
 28 30  2  0  0  0
 29116  1  0  0  0
 29117  1  0  0  0
 30118  1  0  0  0
 31 32  1  0  0  0
 31119  1  0  0  0
 32 33  1  0  0  0
 32 35  1  0  0  0
 32120  1  0  0  0
 33 34  2  0  0  0
 33 45  1  0  0  0
 35 36  1  0  0  0
 35121  1  0  0  0
 35122  1  0  0  0
 36 37  2  0  0  0
 36 38  1  0  0  0
 37 39  1  0  0  0
 37123  1  0  0  0
 38 40  2  0  0  0
 38 41  1  0  0  0
 39 40  1  0  0  0
 40 42  1  0  0  0
 41 43  2  0  0  0
 41124  1  0  0  0
 42 44  2  0  0  0
 42125  1  0  0  0
 43 44  1  0  0  0
 43126  1  0  0  0
 44127  1  0  0  0
 45 46  1  0  0  0
 45128  1  0  0  0
 46 47  1  0  0  0
 46 49  1  0  0  0
 46129  1  0  0  0
 47 48  2  0  0  0
 47 54  1  0  0  0
 49 50  1  0  0  0
 49130  1  0  0  0
 49131  1  0  0  0
 50 51  1  0  0  0
 50132  1  0  0  0
 50133  1  0  0  0
 51 52  2  0  0  0
 51 53  1  0  0  0
 53134  1  0  0  0
 53135  1  0  0  0
 54 55  1  0  0  0
 54136  1  0  0  0
 55 56  1  0  0  0
 55 58  1  0  0  0
 55137  1  0  0  0
 56 57  2  0  0  0
 56 62  1  0  0  0
 58 59  1  0  0  0
 58138  1  0  0  0
 58139  1  0  0  0
 59 60  2  0  0  0
 59 61  1  0  0  0
 61140  1  0  0  0
 62 63  1  0  0  0
 62141  1  0  0  0
 63 64  1  0  0  0
 63 66  1  0  0  0
 63142  1  0  0  0
 64 65  2  0  0  0
 64 69  1  0  0  0
 66 67  1  0  0  0
 66 68  1  0  0  0
 66143  1  0  0  0
 67144  1  0  0  0
 68145  1  0  0  0
 68146  1  0  0  0
 68147  1  0  0  0
 69 70  1  0  0  0
 69148  1  0  0  0
 70 71  1  0  0  0
 70 73  1  0  0  0
 70149  1  0  0  0
 71 72  2  0  0  0
 71 80  1  0  0  0
 73 74  1  0  0  0
 73150  1  0  0  0
 73151  1  0  0  0
 74 75  1  0  0  0
 74152  1  0  0  0
 74153  1  0  0  0
 75 76  1  0  0  0
 75154  1  0  0  0
 75155  1  0  0  0
 76 77  1  0  0  0
 76156  1  0  0  0
 77 78  2  0  0  0
 77 79  1  0  0  0
 78157  1  0  0  0
 79158  1  0  0  0
 79159  1  0  0  0
 80 81  1  0  0  0
 80160  1  0  0  0
 81 82  1  0  0  0
 81 84  1  0  0  0
 81161  1  0  0  0
 82 83  2  0  0  0
 82 88  1  0  0  0
 84 85  1  0  0  0
 84162  1  0  0  0
 84163  1  0  0  0
 85 86  1  0  0  0
 85 87  1  0  0  0
 85164  1  0  0  0
 86165  1  0  0  0
 86166  1  0  0  0
 86167  1  0  0  0
 87168  1  0  0  0
 87169  1  0  0  0
 87170  1  0  0  0
 88171  1  0  0  0
M  CHG  1   1   1
M  END
> <s_m_source_file>
../4k78_ligand.sdf

> <i_m_source_file_index>
1

> <s_epik_input>
W05IMytdW0NAQEhdKFtDSDNdKUMoPU8pW05IXVtDQEBIXShbQ0gyXUMoPU8pW05IMl0pQyg9TylbTkhdW0NAQEhdKFtDSDJdW09IXSlDKD1PKVtOSF1bQ0BASF0oW0NIMl1bQ0gyXVtDSDJdW05IXS9DKFtOSDJdKT1OXFtIXSlDKD1PKVtOSF1bQ0BASF0oW0NIMl1jMVtjSF1bbkhdYyhjMTIpW2NIXVtjSF1bY0hdW2NIXTIpQyg9TylbTkhdW0NAQEhdKFtDSDJdW0NIMl1DKD1PKVtOSDJdKUMoPU8pW05IXVtDQEBIXShbQ0gyXUMoPU8pW09IXSlDKD1PKVtOSF1bQ0BASF0oW0NASF0oW09IXSlbQ0gzXSlDKD1PKVtOSF1bQ0BIXShDKD1PKVtOSF1bQ0BIXShDKD1PKVtPSF0pW0NIMl1bQ0hdKFtDSDNdKVtDSDNdKVtDSDJdW0NIMl1bQ0gyXVtOSF0vQyg9TlxbSF0pW05IMl0=

> <s_epik_cmdline>
J2VwaWtfYXBwJywgJy1pbWFlJywgJ2xpZ2FuZF9wcm8ubWFlJywgJy1vbWFlJywgJ2xpZ2FuZF9wcmVwLm1hZScsICctbXMnLCAnMScsICctcGgnLCAnNycsICctcGh0JywgJzAuNScsICctbnQn

> <s_epik_pKa_notes>
Molecule size exceeds maximum supported for generating protonation states

> <s_epik_Chemistry_Notes>
This compound has an imine and may undergo hydrolysis.

$$$$
