4k8a_ligand
                    3D
 Schrodinger Suite 2020-3.
 17 18  0  0  1  0            999 V2000
  -11.4370  -26.7470   43.8250 C   0  0  0  0  0  0
  -12.9930  -26.9980   45.2820 N   0  3  0  0  0  0
  -11.7950  -26.5830   45.0860 N   0  0  0  0  0  0
  -13.4940  -27.4380   44.1820 N   0  0  0  0  0  0
  -12.5080  -27.2850   43.1890 N   0  3  0  0  0  0
  -10.1370  -26.3790   43.2080 C   0  0  0  0  0  0
   -8.0830  -25.1820   43.3170 N   0  0  0  0  0  0
   -9.7950  -26.8350   41.9220 C   0  0  0  0  0  0
   -9.2320  -25.5360   43.8760 C   0  0  0  0  0  0
   -8.5750  -26.4380   41.3780 C   0  0  0  0  0  0
   -8.0840  -26.9980   39.6400 Br  0  0  0  0  0  0
   -7.7380  -25.5930   42.1050 C   0  0  0  0  0  0
  -10.4692  -27.4844   41.3635 H   0  0  0  0  0  0
   -9.4792  -25.1667   44.8713 H   0  0  0  0  0  0
   -6.7917  -25.2674   41.6731 H   0  0  0  0  0  0
  -13.3967  -26.9468   46.1955 H   0  0  0  0  0  0
  -12.7190  -27.5885   42.1530 H   0  0  0  0  0  0
  1  3  2  0  0  0
  1  5  1  0  0  0
  1  6  1  0  0  0
  2  3  1  0  0  0
  2  4  1  0  0  0
  2 16  1  0  0  0
  4  5  2  0  0  0
  5 17  1  0  0  0
  6  8  2  0  0  0
  6  9  1  0  0  0
  7  9  2  0  0  0
  7 12  1  0  0  0
  8 10  1  0  0  0
  8 13  1  0  0  0
  9 14  1  0  0  0
 10 11  1  0  0  0
 10 12  2  0  0  0
 12 15  1  0  0  0
M  CHG  2   2   1   5   1
M  END
> <s_m_source_file>
../4k8a_ligand.sdf

> <i_m_source_file_index>
1

> <s_epik_input>
bjFuW25IXW5jMS1jMltjSF1jKEJyKVtjSF1uW2NIXTI=

> <s_epik_cmdline>
J2VwaWtfYXBwJywgJy1pbWFlJywgJ2xpZ2FuZF9wcm8ubWFlJywgJy1vbWFlJywgJ2xpZ2FuZF9wcmVwLm1hZScsICctbXMnLCAnMScsICctcGgnLCAnNycsICctcGh0JywgJzAuNScsICctbnQn

> <r_epik_Ionization_Penalty>
 13.1755

> <r_epik_Ionization_Penalty_Charging>
 13.1754

> <r_epik_Ionization_Penalty_Neutral>
  0.0001

> <r_epik_State_Penalty>
  0.0112

> <r_epik_Charging_Adjusted_Penalty>
13.1866838808088

> <i_epik_Tot_Q>
2

> <i_epik_Tot_abs_Q>
2

> <s_epik_Chemistry_Notes>
This compound has an imine and may undergo hydrolysis.

$$$$
