4k8o_ligand
                    3D
 Schrodinger Suite 2020-3.
 43 45  0  0  1  0            999 V2000
   -8.5520   14.9540   93.9790 P   0  0  0  0  0  0
   -8.5260   16.4020   93.5540 O   0  5  0  0  0  0
   -9.3000   14.6920   95.2620 O   0  0  0  0  0  0
   -7.2270   14.2380   93.8830 O   0  5  0  0  0  0
   -9.0110   14.0730   91.3360 P   0  0  1  0  0  0
   -9.2470   15.3760   90.6090 O   0  5  0  0  0  0
   -7.6570   13.4090   91.2820 O   0  0  0  0  0  0
   -9.4720   14.2440   92.8690 O   0  0  0  0  0  0
   -9.7650   11.6550   90.1040 P   0  0  2  0  0  0
   -8.8040   10.8580   90.9540 O   0  5  0  0  0  0
   -9.4160   12.0010   88.6780 O   0  0  0  0  0  0
  -10.1290   13.0200   90.8700 O   0  0  0  0  0  0
  -11.2000   10.9330   90.1590 O   0  0  0  0  0  0
  -12.2940   11.3870   89.3650 C   0  0  0  0  0  0
  -13.4970   10.5180   89.6970 C   0  0  1  0  0  0
  -13.3180    9.2320   89.1050 O   0  0  0  0  0  0
  -13.6370   10.3170   91.1990 C   0  0  1  0  0  0
  -14.8930   10.8370   91.6450 O   0  0  0  0  0  0
  -13.5830    8.8200   91.4340 C   0  0  1  0  0  0
  -14.7380    8.3850   92.1570 O   0  0  0  0  0  0
  -13.5550    8.1900   90.0510 C   0  0  2  0  0  0
  -12.4560    7.2000   89.9580 N   0  0  0  0  0  0
  -11.1500    7.4560   90.1610 C   0  0  0  0  0  0
  -10.4000    6.3370   89.9980 N   0  0  0  0  0  0
  -11.2390    5.3330   89.6830 C   0  0  0  0  0  0
  -11.1090    3.8900   89.3790 C   0  0  0  0  0  0
   -9.8980    3.2820   89.3810 N   0  0  0  0  0  0
  -12.2390    3.2020   89.1000 N   0  0  0  0  0  0
  -13.4470    3.7960   89.0960 C   0  0  0  0  0  0
  -13.6390    5.1000   89.3620 N   0  0  0  0  0  0
  -12.5930    5.9060   89.6600 C   0  0  0  0  0  0
  -12.5059   12.4403   89.6007 H   0  0  0  0  0  0
  -12.0371   11.2943   88.2994 H   0  0  0  0  0  0
  -14.4061   10.9703   89.2739 H   0  0  0  0  0  0
  -12.8836   10.8675   91.7815 H   0  0  0  0  0  0
  -15.1078   11.9118   91.5513 H   0  0  0  0  0  0
  -12.7413    8.5121   92.0718 H   0  0  0  0  0  0
  -14.9146    8.7468   93.1807 H   0  0  0  0  0  0
  -14.5049    7.6947   89.8012 H   0  0  0  0  0  0
  -10.7475    8.4347   90.4223 H   0  0  0  0  0  0
   -8.9919    3.8617   89.6109 H   0  0  0  0  0  0
   -9.8211    2.2087   89.1527 H   0  0  0  0  0  0
  -14.3193    3.1850   88.8639 H   0  0  0  0  0  0
  1  2  1  0  0  0
  1  3  2  0  0  0
  1  4  1  0  0  0
  1  8  1  0  0  0
  5  6  1  0  0  0
  5  7  2  0  0  0
  5  8  1  0  0  0
  5 12  1  0  0  0
  9 10  1  0  0  0
  9 11  2  0  0  0
  9 12  1  0  0  0
  9 13  1  0  0  0
 13 14  1  0  0  0
 14 15  1  0  0  0
 14 32  1  0  0  0
 14 33  1  0  0  0
 15 16  1  0  0  0
 15 17  1  0  0  0
 15 34  1  0  0  0
 16 21  1  0  0  0
 17 18  1  0  0  0
 17 19  1  0  0  0
 17 35  1  0  0  0
 18 36  1  0  0  0
 19 20  1  0  0  0
 19 21  1  0  0  0
 19 37  1  0  0  0
 20 38  1  0  0  0
 21 22  1  0  0  0
 21 39  1  0  0  0
 22 23  1  0  0  0
 22 31  1  0  0  0
 23 24  2  0  0  0
 23 40  1  0  0  0
 24 25  1  0  0  0
 25 26  2  0  0  0
 25 31  1  0  0  0
 26 27  1  0  0  0
 26 28  1  0  0  0
 27 41  1  0  0  0
 27 42  1  0  0  0
 28 29  2  0  0  0
 29 30  1  0  0  0
 29 43  1  0  0  0
 30 31  2  0  0  0
M  CHG  4   2  -1   4  -1   6  -1  10  -1
M  END
> <s_m_source_file>
../4k8o_ligand.sdf

> <i_m_source_file_index>
1

> <s_epik_input>
W09IXVAoPU8pKFtPSF0pT1tQQF0oPU8pKFtPSF0pT1tQQEBdKD1PKShbT0hdKU9bQ0gyXVtDQEhdMU9bQ0BIXShbQ0BIXShbT0hdKVtDQEBIXTFbT0hdKW4oW2NIXW4yKWMoYzIzKW5bY0hdbmMzW05IMl0=

> <s_epik_cmdline>
J2VwaWtfYXBwJywgJy1pbWFlJywgJ2xpZ2FuZF9wcm8ubWFlJywgJy1vbWFlJywgJ2xpZ2FuZF9wcmVwLm1hZScsICctbXMnLCAnMScsICctcGgnLCAnNycsICctcGh0JywgJzAuNScsICctbnQn

> <r_lp_tautomer_probability>
0.999997216410988

> <r_epik_Ionization_Penalty>
  0.0818

> <r_epik_Ionization_Penalty_Charging>
  0.0813

> <r_epik_Ionization_Penalty_Neutral>
  0.0004

> <r_epik_State_Penalty>
  0.0708

> <r_epik_Charging_Adjusted_Penalty>
0.152157994418768

> <i_epik_Tot_Q>
-4

> <i_epik_Tot_abs_Q>
4

> <s_epik_Chemistry_Notes>
This compound contains an acetal/aminal-like group ( X-CH(R)-Y where X, Y are N, S, or O) that may be acid/base labile, releasing an aldehyde.

$$$$
