4k8s_ligand
                    3D
 Schrodinger Suite 2020-3.
 82 86  0  0  1  0            999 V2000
   62.7910   -7.5770   25.8210 C   0  0  0  0  0  0
   61.5640   -8.2960   26.4190 C   0  0  0  0  0  0
   62.1140   -9.6590   25.8810 C   0  0  0  0  0  0
   63.0780   -8.8480   24.9650 C   0  0  0  0  0  0
   62.6050   -8.7400   23.4920 C   0  0  0  0  0  0
   64.4250   -9.2790   25.0160 O   0  0  0  0  0  0
   65.3460   -8.6360   24.2980 C   0  0  0  0  0  0
   66.6640   -8.7020   24.7510 C   0  0  0  0  0  0
   67.6470   -8.0070   24.0610 C   0  0  0  0  0  0
   67.2970   -7.2980   22.9140 C   0  0  0  0  0  0
   68.3180   -6.5610   22.1120 C   0  0  0  0  0  0
   68.2360   -5.1020   22.5240 C   0  0  0  0  0  0
   66.0010   -7.2340   22.4720 C   0  0  0  0  0  0
   65.0170   -7.9190   23.1550 C   0  0  0  0  0  0
   63.5780   -7.8340   22.6410 C   0  0  1  0  0  0
   63.5370   -8.1160   21.1560 N   0  3  0  0  0  0
   63.7280   -9.5410   20.7250 C   0  0  0  0  0  0
   64.2380   -9.4640   19.2620 C   0  0  1  0  0  0
   65.1530   -8.3720   19.1870 O   0  0  0  0  0  0
   64.9920  -10.7200   18.7280 C   0  0  2  0  0  0
   65.4010  -10.5140   17.2690 C   0  0  0  0  0  0
   65.8430  -11.8010   16.6350 C   0  0  0  0  0  0
   64.9420  -12.5670   15.9160 C   0  0  0  0  0  0
   67.1610  -12.2150   16.8210 C   0  0  0  0  0  0
   67.5730  -13.4170   16.2610 C   0  0  0  0  0  0
   66.6780  -14.1960   15.5160 C   0  0  0  0  0  0
   65.3530  -13.7700   15.3350 C   0  0  0  0  0  0
   64.3790  -14.6460   14.5240 C   0  0  0  0  0  0
   63.3610  -15.3160   15.4520 C   0  0  0  0  0  0
   64.0070  -16.4530   16.2520 C   0  0  0  0  0  0
   63.0850  -16.9390   17.3900 C   0  0  0  0  0  0
   62.8080  -15.7510   18.3330 C   0  0  0  0  0  0
   64.0750  -15.1210   18.9590 C   0  0  0  0  0  0
   63.6310  -14.0750   20.0040 C   0  0  0  0  0  0
   64.4660  -12.8090   19.9280 C   0  0  0  0  0  0
   65.3230  -12.6090   20.7760 O   0  0  0  0  0  0
   64.2280  -11.9780   18.9030 N   0  0  0  0  0  0
   62.4648   -6.6601   25.3083 H   0  0  0  0  0  0
   63.4924   -7.3164   26.6274 H   0  0  0  0  0  0
   61.5401   -8.1368   27.5072 H   0  0  0  0  0  0
   60.6459   -7.8904   25.9689 H   0  0  0  0  0  0
   62.5366  -10.2386   26.7149 H   0  0  0  0  0  0
   61.2945  -10.2277   25.4174 H   0  0  0  0  0  0
   62.5777   -9.7430   23.0412 H   0  0  0  0  0  0
   61.5987   -8.2968   23.4616 H   0  0  0  0  0  0
   66.9175   -9.2902   25.6330 H   0  0  0  0  0  0
   68.6790   -8.0157   24.4117 H   0  0  0  0  0  0
   69.3167   -6.9699   22.3251 H   0  0  0  0  0  0
   68.0957   -6.6759   21.0408 H   0  0  0  0  0  0
   68.9748   -4.5183   21.9552 H   0  0  0  0  0  0
   68.4474   -5.0124   23.5998 H   0  0  0  0  0  0
   67.2264   -4.7183   22.3155 H   0  0  0  0  0  0
   65.7499   -6.6470   21.5885 H   0  0  0  0  0  0
   63.2310   -6.7948   22.7390 H   0  0  0  0  0  0
   62.5590   -7.8148   20.7525 H   0  0  0  0  0  0
   64.3324   -7.5469   20.6526 H   0  0  0  0  0  0
   64.4634  -10.0275   21.3826 H   0  0  0  0  0  0
   62.7686  -10.0753   20.7893 H   0  0  0  0  0  0
   63.3646   -9.2824   18.6184 H   0  0  0  0  0  0
   64.8406   -7.3692   19.5139 H   0  0  0  0  0  0
   65.8928  -10.8857   19.3372 H   0  0  0  0  0  0
   64.5452  -10.1215   16.7002 H   0  0  0  0  0  0
   66.2340   -9.7973   17.2194 H   0  0  0  0  0  0
   63.9110  -12.2318   15.8027 H   0  0  0  0  0  0
   67.8570  -11.6050   17.3968 H   0  0  0  0  0  0
   68.5991  -13.7566   16.4019 H   0  0  0  0  0  0
   67.0117  -15.1356   15.0757 H   0  0  0  0  0  0
   63.8416  -14.0199   13.7965 H   0  0  0  0  0  0
   64.9436  -15.4251   13.9908 H   0  0  0  0  0  0
   62.9627  -14.5719   16.1575 H   0  0  0  0  0  0
   62.5370  -15.7315   14.8534 H   0  0  0  0  0  0
   64.2113  -17.3020   15.5830 H   0  0  0  0  0  0
   64.9500  -16.1000   16.6949 H   0  0  0  0  0  0
   62.1409  -17.3094   16.9641 H   0  0  0  0  0  0
   63.5812  -17.7504   17.9427 H   0  0  0  0  0  0
   62.2951  -14.9528   17.7763 H   0  0  0  0  0  0
   62.1714  -16.0845   19.1657 H   0  0  0  0  0  0
   64.6743  -15.9064   19.4427 H   0  0  0  0  0  0
   64.6715  -14.6374   18.1714 H   0  0  0  0  0  0
   62.5792  -13.8050   19.8285 H   0  0  0  0  0  0
   63.7374  -14.4977   21.0140 H   0  0  0  0  0  0
   63.4431  -12.2497   18.1818 H   0  0  0  0  0  0
  1  2  1  0  0  0
  1  4  1  0  0  0
  1 38  1  0  0  0
  1 39  1  0  0  0
  2  3  1  0  0  0
  2 40  1  0  0  0
  2 41  1  0  0  0
  3  4  1  0  0  0
  3 42  1  0  0  0
  3 43  1  0  0  0
  4  5  1  0  0  0
  4  6  1  0  0  0
  5 15  1  0  0  0
  5 44  1  0  0  0
  5 45  1  0  0  0
  6  7  1  0  0  0
  7  8  2  0  0  0
  7 14  1  0  0  0
  8  9  1  0  0  0
  8 46  1  0  0  0
  9 10  2  0  0  0
  9 47  1  0  0  0
 10 11  1  0  0  0
 10 13  1  0  0  0
 11 12  1  0  0  0
 11 48  1  0  0  0
 11 49  1  0  0  0
 12 50  1  0  0  0
 12 51  1  0  0  0
 12 52  1  0  0  0
 13 14  2  0  0  0
 13 53  1  0  0  0
 14 15  1  0  0  0
 15 16  1  0  0  0
 15 54  1  0  0  0
 16 17  1  0  0  0
 16 55  1  0  0  0
 16 56  1  0  0  0
 17 18  1  0  0  0
 17 57  1  0  0  0
 17 58  1  0  0  0
 18 19  1  0  0  0
 18 20  1  0  0  0
 18 59  1  0  0  0
 19 60  1  0  0  0
 20 21  1  0  0  0
 20 37  1  0  0  0
 20 61  1  0  0  0
 21 22  1  0  0  0
 21 62  1  0  0  0
 21 63  1  0  0  0
 22 23  2  0  0  0
 22 24  1  0  0  0
 23 27  1  0  0  0
 23 64  1  0  0  0
 24 25  2  0  0  0
 24 65  1  0  0  0
 25 26  1  0  0  0
 25 66  1  0  0  0
 26 27  2  0  0  0
 26 67  1  0  0  0
 27 28  1  0  0  0
 28 29  1  0  0  0
 28 68  1  0  0  0
 28 69  1  0  0  0
 29 30  1  0  0  0
 29 70  1  0  0  0
 29 71  1  0  0  0
 30 31  1  0  0  0
 30 72  1  0  0  0
 30 73  1  0  0  0
 31 32  1  0  0  0
 31 74  1  0  0  0
 31 75  1  0  0  0
 32 33  1  0  0  0
 32 76  1  0  0  0
 32 77  1  0  0  0
 33 34  1  0  0  0
 33 78  1  0  0  0
 33 79  1  0  0  0
 34 35  1  0  0  0
 34 80  1  0  0  0
 34 81  1  0  0  0
 35 36  2  0  0  0
 35 37  1  0  0  0
 37 82  1  0  0  0
M  CHG  1  16   1
M  END
> <s_m_source_file>
../4k8s_ligand.sdf

> <i_m_source_file_index>
1

> <s_epik_input>
W0NIM11bQ0gyXWMoW2NIXTEpW2NIXVtjSF1jKE8yKWMxW0NASF0oW0NIMl1DMjNbQ0gyXVtDSDJdW0NIMl0zKVtOSDIrXVtDSDJdW0NAQEhdKFtPSF0pW0NASF0oW0NIMl00KVtOSF1DKD1PKVtDSDJdW0NIMl1bQ0gyXVtDSDJdW0NIMl1bQ0gyXVtDSDJdYyhbY0hdYzQ1KVtjSF1bY0hdW2NIXTU=

> <s_epik_cmdline>
J2VwaWtfYXBwJywgJy1pbWFlJywgJ2xpZ2FuZF9wcm8ubWFlJywgJy1vbWFlJywgJ2xpZ2FuZF9wcmVwLm1hZScsICctbXMnLCAnMScsICctcGgnLCAnNycsICctcGh0JywgJzAuNScsICctbnQn

> <r_lp_tautomer_probability>
1

> <r_epik_Ionization_Penalty>
  0.0202

> <r_epik_Ionization_Penalty_Charging>
  0.0202

> <r_epik_Ionization_Penalty_Neutral>
  0.0000

> <r_epik_State_Penalty>
  0.0162

> <r_epik_Charging_Adjusted_Penalty>
0.0363570326949081

> <i_epik_Tot_Q>
1

> <i_epik_Tot_abs_Q>
1

$$$$
