4k9g_ligand
                    3D
 Schrodinger Suite 2020-3.
 29 30  0  0  1  0            999 V2000
   34.5310  -30.5580   31.3510 O   0  0  0  0  0  0
   34.1960  -29.7720   30.2950 C   0  0  0  0  0  0
   33.2380  -28.7810   30.4540 C   0  0  0  0  0  0
   32.7030  -28.5270   31.6640 F   0  0  0  0  0  0
   32.8570  -28.0140   29.3630 C   0  0  0  0  0  0
   33.4430  -28.2370   28.1230 C   0  0  0  0  0  0
   34.4070  -29.2240   27.9580 C   0  0  0  0  0  0
   34.7820  -29.9930   29.0550 C   0  0  0  0  0  0
   33.0550  -27.3900   27.0930 C   0  0  0  0  0  0
   31.8610  -26.7980   27.0250 N   0  0  0  0  0  0
   31.7720  -25.9480   25.9000 O   0  0  0  0  0  0
   33.1200  -25.7340   25.4720 C   0  0  1  0  0  0
   33.8270  -27.0420   25.8200 C   0  0  0  0  0  0
   33.1930  -25.4340   23.9740 C   0  0  0  0  0  0
   32.4350  -24.1400   23.6750 C   0  0  0  0  0  0
   31.3320  -23.9400   24.1850 O   0  0  0  0  0  0
   33.0630  -23.0940   22.7520 C   0  0  0  0  0  0
   34.0684  -30.3851   32.3339 H   0  0  0  0  0  0
   32.0999  -27.2383   29.4780 H   0  0  0  0  0  0
   34.8631  -29.3934   26.9826 H   0  0  0  0  0  0
   35.5373  -30.7706   28.9413 H   0  0  0  0  0  0
   33.5287  -24.8547   25.9915 H   0  0  0  0  0  0
   34.8958  -26.9351   26.0571 H   0  0  0  0  0  0
   33.6942  -27.8446   25.0796 H   0  0  0  0  0  0
   34.2451  -25.3201   23.6737 H   0  0  0  0  0  0
   32.7388  -26.2630   23.4114 H   0  0  0  0  0  0
   34.0407  -23.4551   22.4002 H   0  0  0  0  0  0
   33.1969  -22.1516   23.3034 H   0  0  0  0  0  0
   32.4029  -22.9232   21.8888 H   0  0  0  0  0  0
  1  2  1  0  0  0
  1 18  1  0  0  0
  2  3  2  0  0  0
  2  8  1  0  0  0
  3  4  1  0  0  0
  3  5  1  0  0  0
  5  6  2  0  0  0
  5 19  1  0  0  0
  6  7  1  0  0  0
  6  9  1  0  0  0
  7  8  2  0  0  0
  7 20  1  0  0  0
  8 21  1  0  0  0
  9 10  2  0  0  0
  9 13  1  0  0  0
 10 11  1  0  0  0
 11 12  1  0  0  0
 12 13  1  0  0  0
 12 14  1  0  0  0
 12 22  1  0  0  0
 13 23  1  0  0  0
 13 24  1  0  0  0
 14 15  1  0  0  0
 14 25  1  0  0  0
 14 26  1  0  0  0
 15 16  2  0  0  0
 15 17  1  0  0  0
 17 27  1  0  0  0
 17 28  1  0  0  0
 17 29  1  0  0  0
M  END
> <s_m_source_file>
../4k9g_ligand.sdf

> <i_m_source_file_index>
1

> <s_epik_input>
W09IXWMxYyhGKVtjSF1jKFtjSF1bY0hdMSlDMj1OT1tDQEBIXShbQ0gyXTIpW0NIMl1DKD1PKVtDSDNd

> <s_epik_cmdline>
J2VwaWtfYXBwJywgJy1pbWFlJywgJ2xpZ2FuZF9wcm8ubWFlJywgJy1vbWFlJywgJ2xpZ2FuZF9wcmVwLm1hZScsICctbXMnLCAnMScsICctcGgnLCAnNycsICctcGh0JywgJzAuNScsICctbnQn

> <r_lp_tautomer_probability>
0.99999997

> <r_epik_Ionization_Penalty>
  0.0513

> <r_epik_Ionization_Penalty_Charging>
  0.0000

> <r_epik_Ionization_Penalty_Neutral>
  0.0513

> <r_epik_State_Penalty>
  0.0440

> <r_epik_Charging_Adjusted_Penalty>
0.0439682199261274

> <i_epik_Tot_Q>
0

> <i_epik_Tot_abs_Q>
0

> <s_epik_Chemistry_Notes>
This compound has an imine and may undergo hydrolysis.

$$$$
