4k9y_ligand
                    3D
 Schrodinger Suite 2020-3.
 63 67  0  0  1  0            999 V2000
  -28.9920  -30.8790    9.2530 C   0  0  0  0  0  0
  -28.3570  -30.7960    8.0980 N   0  0  0  0  0  0
  -27.9110  -31.8900    7.4740 C   0  0  0  0  0  0
  -28.1370  -33.1700    8.0430 C   0  0  0  0  0  0
  -28.8230  -33.2120    9.2750 C   0  0  0  0  0  0
  -29.2010  -32.0540    9.8360 N   0  0  0  0  0  0
  -27.5860  -34.0950    7.2120 N   0  0  0  0  0  0
  -27.2560  -32.1210    6.2950 N   0  0  0  0  0  0
  -27.0430  -33.4820    6.1950 C   0  0  0  0  0  0
  -26.5330  -29.0100    4.3790 C   0  0  0  0  0  0
  -25.1470  -29.1540    4.2340 C   0  0  0  0  0  0
  -24.5140  -30.3230    4.6740 C   0  0  0  0  0  0
  -25.2630  -31.2740    5.3480 C   0  0  0  0  0  0
  -26.6440  -31.1320    5.5100 C   0  0  0  0  0  0
  -27.2830  -29.9840    5.0410 C   0  0  0  0  0  0
  -20.7620  -25.7080    1.9370 N   0  0  0  0  0  0
  -21.2830  -26.8890    2.3700 C   0  0  0  0  0  0
  -20.2910  -27.8290    2.3370 C   0  0  0  0  0  0
  -19.1070  -27.1840    1.9880 C   0  0  0  0  0  0
  -19.4050  -25.9340    1.7240 N   0  0  0  0  0  0
  -17.7520  -27.8270    1.7930 C   0  0  0  0  0  0
  -21.4300  -24.4800    1.7160 C   0  0  0  0  0  0
  -21.0720  -23.7580    0.5780 C   0  0  0  0  0  0
  -21.6740  -22.5400    0.3010 C   0  0  0  0  0  0
  -22.6870  -22.0680    1.1410 C   0  0  0  0  0  0
  -23.0820  -22.7990    2.2710 C   0  0  0  0  0  0
  -22.4250  -23.9920    2.5800 C   0  0  0  0  0  0
  -23.3740  -20.7630    0.7860 C   0  0  0  0  0  0
  -22.6320  -27.1280    2.6150 N   0  0  0  0  0  0
  -23.0950  -28.0790    3.4350 C   0  0  0  0  0  0
  -22.3350  -28.8050    4.0720 O   0  0  0  0  0  0
  -24.4490  -28.2040    3.4900 N   0  0  0  0  0  0
  -17.8420  -28.8120    0.6280 C   0  0  0  0  0  0
  -16.7370  -26.7570    1.3860 C   0  0  0  0  0  0
  -17.2440  -28.5970    3.0140 C   0  0  0  0  0  0
  -28.9930  -34.4050    9.9540 N   0  0  0  0  0  0
  -29.3500  -29.9694    9.7352 H   0  0  0  0  0  0
  -26.5013  -33.9722    5.3861 H   0  0  0  0  0  0
  -27.0302  -28.1298    3.9714 H   0  0  0  0  0  0
  -23.4515  -30.4819    4.4896 H   0  0  0  0  0  0
  -24.7648  -32.1513    5.7606 H   0  0  0  0  0  0
  -28.3544  -29.8491    5.1895 H   0  0  0  0  0  0
  -20.4060  -28.8925    2.5463 H   0  0  0  0  0  0
  -20.3141  -24.1536   -0.0981 H   0  0  0  0  0  0
  -21.3602  -21.9557   -0.5640 H   0  0  0  0  0  0
  -23.8945  -22.4392    2.9023 H   0  0  0  0  0  0
  -22.6824  -24.5412    3.4857 H   0  0  0  0  0  0
  -22.9226  -20.3476   -0.1271 H   0  0  0  0  0  0
  -23.2527  -20.0480    1.6130 H   0  0  0  0  0  0
  -24.4448  -20.9472    0.6146 H   0  0  0  0  0  0
  -23.3983  -26.5140    2.1192 H   0  0  0  0  0  0
  -24.9978  -27.4717    2.8796 H   0  0  0  0  0  0
  -18.2055  -28.2877   -0.2681 H   0  0  0  0  0  0
  -18.5390  -29.6228    0.8864 H   0  0  0  0  0  0
  -16.8464  -29.2344    0.4272 H   0  0  0  0  0  0
  -17.1124  -26.2105    0.5083 H   0  0  0  0  0  0
  -15.7787  -27.2364    1.1372 H   0  0  0  0  0  0
  -16.5901  -26.0548    2.2199 H   0  0  0  0  0  0
  -17.9811  -29.3628    3.2973 H   0  0  0  0  0  0
  -17.0986  -27.9001    3.8525 H   0  0  0  0  0  0
  -16.2872  -29.0816    2.7698 H   0  0  0  0  0  0
  -28.6811  -35.3518    9.4889 H   0  0  0  0  0  0
  -29.4401  -34.4069   10.9590 H   0  0  0  0  0  0
  1  2  2  0  0  0
  1  6  1  0  0  0
  1 37  1  0  0  0
  2  3  1  0  0  0
  3  4  2  0  0  0
  3  8  1  0  0  0
  4  5  1  0  0  0
  4  7  1  0  0  0
  5  6  2  0  0  0
  5 36  1  0  0  0
  7  9  2  0  0  0
  8  9  1  0  0  0
  8 14  1  0  0  0
  9 38  1  0  0  0
 10 11  2  0  0  0
 10 15  1  0  0  0
 10 39  1  0  0  0
 11 12  1  0  0  0
 11 32  1  0  0  0
 12 13  2  0  0  0
 12 40  1  0  0  0
 13 14  1  0  0  0
 13 41  1  0  0  0
 14 15  2  0  0  0
 15 42  1  0  0  0
 16 17  1  0  0  0
 16 20  1  0  0  0
 16 22  1  0  0  0
 17 18  2  0  0  0
 17 29  1  0  0  0
 18 19  1  0  0  0
 18 43  1  0  0  0
 19 20  2  0  0  0
 19 21  1  0  0  0
 21 33  1  0  0  0
 21 34  1  0  0  0
 21 35  1  0  0  0
 22 23  2  0  0  0
 22 27  1  0  0  0
 23 24  1  0  0  0
 23 44  1  0  0  0
 24 25  2  0  0  0
 24 45  1  0  0  0
 25 26  1  0  0  0
 25 28  1  0  0  0
 26 27  2  0  0  0
 26 46  1  0  0  0
 27 47  1  0  0  0
 28 48  1  0  0  0
 28 49  1  0  0  0
 28 50  1  0  0  0
 29 30  1  0  0  0
 29 51  1  0  0  0
 30 31  2  0  0  0
 30 32  1  0  0  0
 32 52  1  0  0  0
 33 53  1  0  0  0
 33 54  1  0  0  0
 33 55  1  0  0  0
 34 56  1  0  0  0
 34 57  1  0  0  0
 34 58  1  0  0  0
 35 59  1  0  0  0
 35 60  1  0  0  0
 35 61  1  0  0  0
 36 62  1  0  0  0
 36 63  1  0  0  0
M  END
> <s_m_source_file>
../4k9y_ligand.sdf

> <i_m_source_file_index>
1

> <s_epik_input>
bjFbY0hdbmMoW05IMl0pYyhjMTIpbltjSF1uMi1jKFtjSF1bY0hdMylbY0hdW2NIXWMzW05IXUMoPU8pW05IXWMoW2NIXWMobjQpQyhbQ0gzXSkoW0NIM10pW0NIM10pbjQtYzVbY0hdW2NIXWMoW0NIM10pW2NIXVtjSF01

> <s_epik_cmdline>
J2VwaWtfYXBwJywgJy1pbWFlJywgJ2xpZ2FuZF9wcm8ubWFlJywgJy1vbWFlJywgJ2xpZ2FuZF9wcmVwLm1hZScsICctbXMnLCAnMScsICctcGgnLCAnNycsICctcGh0JywgJzAuNScsICctbnQn

> <r_lp_tautomer_probability>
1

> <r_epik_Ionization_Penalty>
  0.0004

> <r_epik_Ionization_Penalty_Charging>
  0.0000

> <r_epik_Ionization_Penalty_Neutral>
  0.0004

> <r_epik_State_Penalty>
 -0.0000

> <r_epik_Charging_Adjusted_Penalty>
0

> <i_epik_Tot_Q>
0

> <i_epik_Tot_abs_Q>
0

$$$$
