4kab_ligand
                    3D
 Schrodinger Suite 2020-3.
 13 14  0  0  1  0            999 V2000
   -8.3810   26.1070  -41.9180 C   0  0  0  0  0  0
   -9.5010   26.3510  -42.7170 C   0  0  0  0  0  0
   -9.7540   27.3440  -40.7280 N   0  0  0  0  0  0
  -10.3630   27.1210  -41.9800 N   0  0  0  0  0  0
   -8.5980   26.7430  -40.6970 C   0  0  0  0  0  0
   -8.1110   25.1250  -43.8880 N   0  0  0  0  0  0
   -7.5090   25.3440  -42.6420 N   0  0  0  0  0  0
   -9.2790   25.7090  -43.9380 C   0  0  0  0  0  0
   -7.6450   26.6950  -39.5440 C   0  0  0  0  0  0
  -10.0383   25.7600  -44.7322 H   0  0  0  0  0  0
   -6.7565   26.1114  -39.8268 H   0  0  0  0  0  0
   -8.1363   26.2204  -38.6818 H   0  0  0  0  0  0
   -7.3418   27.7179  -39.2761 H   0  0  0  0  0  0
  1  2  1  0  0  0
  1  5  2  0  0  0
  1  7  1  0  0  0
  2  4  1  0  0  0
  2  8  2  0  0  0
  3  4  2  0  0  0
  3  5  1  0  0  0
  5  9  1  0  0  0
  6  7  2  0  0  0
  6  8  1  0  0  0
  8 10  1  0  0  0
  9 11  1  0  0  0
  9 12  1  0  0  0
  9 13  1  0  0  0
M  END
> <s_m_source_file>
../4kab_ligand.sdf

> <i_m_source_file_index>
1

> <s_epik_input>
TjE9TltDSF09QyhDMT0yKU49TkMyW0NIM10=

> <s_epik_cmdline>
J2VwaWtfYXBwJywgJy1pbWFlJywgJ2xpZ2FuZF9wcm8ubWFlJywgJy1vbWFlJywgJ2xpZ2FuZF9wcmVwLm1hZScsICctbXMnLCAnMScsICctcGgnLCAnNycsICctcGh0JywgJzAuNScsICctbnQn

> <r_lp_tautomer_probability>
1

> <r_epik_Ionization_Penalty>
  0.0000

> <r_epik_Ionization_Penalty_Charging>
  0.0000

> <r_epik_Ionization_Penalty_Neutral>
  0.0000

> <r_epik_State_Penalty>
 -0.0000

> <r_epik_Charging_Adjusted_Penalty>
0

> <i_epik_Tot_Q>
0

> <i_epik_Tot_abs_Q>
0

$$$$
