4kai_ligand
                    3D
 Schrodinger Suite 2020-3.
 65 69  0  0  1  0            999 V2000
    2.7530   39.7960   45.8240 C   0  0  0  0  0  0
    3.2390   40.4150   48.1240 C   0  0  0  0  0  0
    3.8650   40.1840   49.4460 C   0  0  0  0  0  0
    3.7240   39.1500   50.3040 C   0  0  0  0  0  0
    5.1710   40.5600   51.2980 C   0  0  0  0  0  0
    6.0670   41.2010   52.1420 C   0  0  0  0  0  0
    9.7050   43.2500   51.5860 C   0  0  0  0  0  0
   10.7790   43.1540   49.4010 C   0  0  0  0  0  0
   11.1290   44.5090   49.5090 C   0  0  0  0  0  0
   11.9020   46.5970   48.3790 O   0  0  0  0  0  0
   10.7610   45.2270   50.6630 C   0  0  0  0  0  0
   10.0570   44.5910   51.6900 C   0  0  0  0  0  0
    7.5720   45.5030   54.2160 C   0  0  0  0  0  0
    6.2970   43.0210   50.5300 C   0  0  0  0  0  0
    5.3880   42.3470   49.6860 C   0  0  0  0  0  0
    4.8250   41.1230   50.0690 C   0  0  0  0  0  0
    6.9020   44.3510   50.1030 C   0  0  0  0  0  0
    6.1710   45.2260   49.1310 C   0  0  0  0  0  0
    7.4060   44.5100   48.7060 C   0  0  0  0  0  0
    2.8700   37.9500   50.2780 C   0  0  0  0  0  0
    3.2760   36.8390   51.0310 C   0  0  0  0  0  0
    2.4730   35.7010   51.0840 C   0  0  0  0  0  0
    1.2430   35.6800   50.4230 C   0  0  0  0  0  0
    0.4760   34.5750   50.4840 F   0  0  0  0  0  0
    0.8190   36.7970   49.6950 C   0  0  0  0  0  0
    1.6240   37.9440   49.6360 C   0  0  0  0  0  0
    4.4930   39.3720   51.4340 O   0  0  0  0  0  0
    2.5550   41.4310   47.9700 O   0  0  0  0  0  0
    3.4070   39.5560   47.1220 N   0  0  0  0  0  0
    6.6380   42.4200   51.7630 C   0  0  0  0  0  0
    7.5180   42.9640   52.7220 N   0  0  0  0  0  0
    6.7580   43.9230   53.9690 S   0  0  0  0  0  0
    5.3970   44.1640   53.5910 O   0  0  0  0  0  0
    6.7420   43.1680   55.1860 O   0  0  0  0  0  0
    8.9540   42.6240   52.7280 C   0  0  0  0  0  0
   11.0790   46.5310   50.8220 F   0  0  0  0  0  0
   11.9120   45.2310   48.3630 B   0  0  0  0  0  0
   12.0440   44.6310   47.1380 O   0  0  0  0  0  0
   10.0700   42.5250   50.4440 C   0  0  0  0  0  0
    3.0092   38.9832   45.1285 H   0  0  0  0  0  0
    3.0991   40.7549   45.4108 H   0  0  0  0  0  0
    1.6624   39.8291   45.9635 H   0  0  0  0  0  0
    6.3246   40.7561   53.0964 H   0  0  0  0  0  0
   11.0577   42.5831   48.5030 H   0  0  0  0  0  0
   11.6772   44.9979   48.7118 H   0  0  0  0  0  0
   11.1746   46.9134   47.8563 H   0  0  0  0  0  0
   11.1746   46.9134   47.8563 H   0  0  0  0  0  0
    9.7816   45.1639   52.5877 H   0  0  0  0  0  0
    7.5736   46.0663   53.2712 H   0  0  0  0  0  0
    8.6083   45.3342   54.5441 H   0  0  0  0  0  0
    7.0330   46.0770   54.9842 H   0  0  0  0  0  0
    5.1224   42.7822   48.7294 H   0  0  0  0  0  0
    7.3310   44.5036   51.1043 H   0  0  0  0  0  0
    5.6345   45.8684   48.4172 H   0  0  0  0  0  0
    7.7815   44.6236   47.6783 H   0  0  0  0  0  0
    4.2149   36.8652   51.5722 H   0  0  0  0  0  0
    2.8038   34.8307   51.6393 H   0  0  0  0  0  0
   -0.1325   36.7759   49.1761 H   0  0  0  0  0  0
    1.2845   38.8210   49.0969 H   0  0  0  0  0  0
    4.0360   38.6649   47.2645 H   0  0  0  0  0  0
    9.0405   41.5291   52.6674 H   0  0  0  0  0  0
    9.3782   42.9731   53.6810 H   0  0  0  0  0  0
   12.8641   44.9003   46.7415 H   0  0  0  0  0  0
   12.8641   44.9003   46.7415 H   0  0  0  0  0  0
    9.8013   41.4614   50.3631 H   0  0  0  0  0  0
  1 29  1  0  0  0
  1 40  1  0  0  0
  1 41  1  0  0  0
  1 42  1  0  0  0
  2  3  1  0  0  0
  2 28  2  0  0  0
  2 29  1  0  0  0
  3  4  2  0  0  0
  3 16  1  0  0  0
  4 20  1  0  0  0
  4 27  1  0  0  0
  5  6  2  0  0  0
  5 16  1  0  0  0
  5 27  1  0  0  0
  6 30  1  0  0  0
  6 43  1  0  0  0
  7 12  2  0  0  0
  7 35  1  0  0  0
  7 39  1  0  0  0
  8  9  1  0  0  0
  8 39  2  0  0  0
  8 44  1  0  0  0
  9 11  2  0  0  0
  9 37  1  0  0  0
  9 45  1  0  0  0
 10 37  1  0  0  0
 10 46  1  0  0  0
 10 47  1  0  0  0
 11 12  1  0  0  0
 11 36  1  0  0  0
 12 48  1  0  0  0
 13 32  1  0  0  0
 13 49  1  0  0  0
 13 50  1  0  0  0
 13 51  1  0  0  0
 14 15  1  0  0  0
 14 17  1  0  0  0
 14 30  2  0  0  0
 15 16  2  0  0  0
 15 52  1  0  0  0
 17 18  1  0  0  0
 17 19  1  0  0  0
 17 53  1  0  0  0
 18 19  2  0  0  0
 18 54  1  0  0  0
 19 55  1  0  0  0
 20 21  2  0  0  0
 20 26  1  0  0  0
 21 22  1  0  0  0
 21 56  1  0  0  0
 22 23  2  0  0  0
 22 57  1  0  0  0
 23 24  1  0  0  0
 23 25  1  0  0  0
 25 26  2  0  0  0
 25 58  1  0  0  0
 26 59  1  0  0  0
 29 60  1  0  0  0
 30 31  1  0  0  0
 31 32  1  0  0  0
 31 35  1  0  0  0
 32 33  2  0  0  0
 32 34  2  0  0  0
 35 61  1  0  0  0
 35 62  1  0  0  0
 37 38  1  0  0  0
 38 63  1  0  0  0
 38 64  1  0  0  0
 39 65  1  0  0  0
M  END
> <MOLECULAR_FORMULA>
C27H26N2O6SF2B

> <MOLECULAR_WEIGHT>
555.2

> <NUM_HB_ATOMS>
6

> <NUM_ROTOR>
4

> <XLOGP2>
4.21

> <s_m_source_file>
../4kai_ligand.sdf

> <i_m_source_file_index>
1

> <s_epik_input>
W2NIXTFbY0hdYyhGKVtjSF1bY0hdYzEtYyhvMiljKEMoPU8pW05IXVtDSDNdKWMoYzIzKVtjSF1jKFtDSF00W0NIXT1bQ0hdNCljKFtjSF0zKU4oUyg9TykoPU8pW0NIM10pW0NIMl1DNT1bQ0hdQyhGKT1bQ0hdKFtDSF09W0NIXTUpQihbT0gyXSlbT0gyXQ==

> <s_epik_cmdline>
J2VwaWtfYXBwJywgJy1pbWFlJywgJ2xpZ2FuZF9wcm8ubWFlJywgJy1vbWFlJywgJ2xpZ2FuZF9wcmVwLm1hZScsICctbXMnLCAnMScsICctcGgnLCAnNycsICctcGh0JywgJzAuNScsICctbnQn

> <r_lp_tautomer_probability>
1

> <r_epik_Ionization_Penalty>
  0.0000

> <r_epik_Ionization_Penalty_Charging>
  0.0000

> <r_epik_Ionization_Penalty_Neutral>
  0.0000

> <r_epik_State_Penalty>
 -0.0000

> <r_epik_Charging_Adjusted_Penalty>
0

> <i_epik_Tot_Q>
0

> <i_epik_Tot_abs_Q>
0

$$$$
