4kao_ligand
                    3D
 Schrodinger Suite 2020-3.
 59 62  0  0  1  0            999 V2000
    4.6260  -13.0950   15.8830 N   0  0  0  0  0  0
    3.8280  -11.9720   15.7770 C   0  0  0  0  0  0
    3.1130  -12.1710   14.6260 C   0  0  0  0  0  0
    3.5140  -13.4050   14.0940 C   0  0  0  0  0  0
    4.4360  -13.9820   14.8460 N   0  0  0  0  0  0
    3.8110  -10.9310   16.6820 N   0  0  0  0  0  0
    2.7710  -10.0310   16.7830 C   0  0  0  0  0  0
    3.0220  -14.0850   12.8290 C   0  0  0  0  0  0
    1.4990  -14.0200   12.7700 C   0  0  0  0  0  0
    3.6020  -13.3800   11.6070 C   0  0  0  0  0  0
    3.4630  -15.5440   12.8240 C   0  0  0  0  0  0
    5.5720  -13.4230   16.8960 C   0  0  0  0  0  0
    6.8570  -13.8050   16.5560 C   0  0  0  0  0  0
    7.7580  -14.1570   17.5400 C   0  0  0  0  0  0
    7.4070  -14.1350   18.8790 C   0  0  0  0  0  0
    6.1200  -13.7420   19.2060 C   0  0  0  0  0  0
    5.2090  -13.3890   18.2310 C   0  0  0  0  0  0
    8.3920  -14.5350   19.9470 C   0  0  0  0  0  0
    1.6910  -10.2500   16.2520 O   0  0  0  0  0  0
    3.0440   -8.9060   17.5100 N   0  0  0  0  0  0
    2.1750   -7.8110   17.7120 C   0  0  0  0  0  0
    1.9470   -7.3040   18.9810 C   0  0  0  0  0  0
    1.0630   -6.2590   19.1620 C   0  0  0  0  0  0
    0.3820   -5.6920   18.0910 C   0  0  0  0  0  0
    0.6350   -6.2040   16.8240 C   0  0  0  0  0  0
    1.5170   -7.2470   16.6330 C   0  0  0  0  0  0
   -0.6080   -4.6110   18.2970 C   0  0  0  0  0  0
   -1.1890   -4.3940   19.5390 C   0  0  0  0  0  0
   -2.1430   -3.4140   19.6940 C   0  0  0  0  0  0
   -2.4970   -2.6650   18.6010 C   0  0  0  0  0  0
   -1.9590   -2.8350   17.3930 N   0  0  0  0  0  0
   -1.0340   -3.7910   17.2620 C   0  0  0  0  0  0
    2.3700  -11.4955   14.2020 H   0  0  0  0  0  0
    4.6566  -10.7871   17.3707 H   0  0  0  0  0  0
    1.1765  -12.9683   12.7734 H   0  0  0  0  0  0
    1.0758  -14.5362   13.6444 H   0  0  0  0  0  0
    1.1465  -14.5086   11.8497 H   0  0  0  0  0  0
    3.2858  -12.3264   11.6071 H   0  0  0  0  0  0
    3.2382  -13.8719   10.6929 H   0  0  0  0  0  0
    4.7002  -13.4333   11.6399 H   0  0  0  0  0  0
    3.0466  -16.0559   13.7041 H   0  0  0  0  0  0
    4.5614  -15.5951   12.8557 H   0  0  0  0  0  0
    3.0993  -16.0338   11.9087 H   0  0  0  0  0  0
    7.1586  -13.8280   15.5088 H   0  0  0  0  0  0
    8.7666  -14.4585   17.2573 H   0  0  0  0  0  0
    5.8206  -13.7108   20.2536 H   0  0  0  0  0  0
    4.2016  -13.0828   18.5131 H   0  0  0  0  0  0
    9.3487  -14.8102   19.4790 H   0  0  0  0  0  0
    7.9967  -15.3955   20.5067 H   0  0  0  0  0  0
    8.5497  -13.6913   20.6349 H   0  0  0  0  0  0
    4.0200   -8.7944   18.0050 H   0  0  0  0  0  0
    2.4668   -7.7312   19.8386 H   0  0  0  0  0  0
    0.8955   -5.8702   20.1664 H   0  0  0  0  0  0
    0.1254   -5.7720   15.9627 H   0  0  0  0  0  0
    1.6966   -7.6287   15.6279 H   0  0  0  0  0  0
   -0.8891   -5.0010   20.3932 H   0  0  0  0  0  0
   -2.6070   -3.2371   20.6643 H   0  0  0  0  0  0
   -3.2557   -1.8925   18.7261 H   0  0  0  0  0  0
   -0.5856   -3.9357   16.2791 H   0  0  0  0  0  0
  1  2  1  0  0  0
  1  5  1  0  0  0
  1 12  1  0  0  0
  2  3  2  0  0  0
  2  6  1  0  0  0
  3  4  1  0  0  0
  3 33  1  0  0  0
  4  5  2  0  0  0
  4  8  1  0  0  0
  6  7  1  0  0  0
  6 34  1  0  0  0
  7 19  2  0  0  0
  7 20  1  0  0  0
  8  9  1  0  0  0
  8 10  1  0  0  0
  8 11  1  0  0  0
  9 35  1  0  0  0
  9 36  1  0  0  0
  9 37  1  0  0  0
 10 38  1  0  0  0
 10 39  1  0  0  0
 10 40  1  0  0  0
 11 41  1  0  0  0
 11 42  1  0  0  0
 11 43  1  0  0  0
 12 13  2  0  0  0
 12 17  1  0  0  0
 13 14  1  0  0  0
 13 44  1  0  0  0
 14 15  2  0  0  0
 14 45  1  0  0  0
 15 16  1  0  0  0
 15 18  1  0  0  0
 16 17  2  0  0  0
 16 46  1  0  0  0
 17 47  1  0  0  0
 18 48  1  0  0  0
 18 49  1  0  0  0
 18 50  1  0  0  0
 20 21  1  0  0  0
 20 51  1  0  0  0
 21 22  2  0  0  0
 21 26  1  0  0  0
 22 23  1  0  0  0
 22 52  1  0  0  0
 23 24  2  0  0  0
 23 53  1  0  0  0
 24 25  1  0  0  0
 24 27  1  0  0  0
 25 26  2  0  0  0
 25 54  1  0  0  0
 26 55  1  0  0  0
 27 28  2  0  0  0
 27 32  1  0  0  0
 28 29  1  0  0  0
 28 56  1  0  0  0
 29 30  2  0  0  0
 29 57  1  0  0  0
 30 31  1  0  0  0
 30 58  1  0  0  0
 31 32  2  0  0  0
 32 59  1  0  0  0
M  END
> <s_m_source_file>
../4kao_ligand.sdf

> <i_m_source_file_index>
1

> <s_epik_input>
W2NIXTFbY0hdYyhbQ0gzXSlbY0hdW2NIXWMxLW4yYyhbY0hdYyhuMilDKFtDSDNdKShbQ0gzXSlbQ0gzXSlbTkhdQyg9TylbTkhdYzNbY0hdW2NIXWMoW2NIXVtjSF0zKS1jNFtjSF1bY0hdW2NIXW5bY0hdNA==

> <s_epik_cmdline>
J2VwaWtfYXBwJywgJy1pbWFlJywgJ2xpZ2FuZF9wcm8ubWFlJywgJy1vbWFlJywgJ2xpZ2FuZF9wcmVwLm1hZScsICctbXMnLCAnMScsICctcGgnLCAnNycsICctcGh0JywgJzAuNScsICctbnQn

> <r_lp_tautomer_probability>
1

> <r_epik_Ionization_Penalty>
  0.0025

> <r_epik_Ionization_Penalty_Charging>
  0.0000

> <r_epik_Ionization_Penalty_Neutral>
  0.0025

> <r_epik_State_Penalty>
 -0.0000

> <r_epik_Charging_Adjusted_Penalty>
0

> <i_epik_Tot_Q>
0

> <i_epik_Tot_abs_Q>
0

$$$$
