4kb7_ligand
                    3D
 Schrodinger Suite 2020-3.
 71 76  0  0  1  0            999 V2000
    6.2950   43.5230   55.2640 O   0  0  0  0  0  0
    6.2080   44.2960   54.0560 S   0  0  0  0  0  0
    4.8150   44.5100   53.7770 O   0  0  0  0  0  0
    6.9260   45.7600   54.3020 C   0  0  0  0  0  0
    6.9440   43.4090   52.9070 N   0  0  0  0  0  0
    6.0230   42.9840   51.8990 C   0  0  0  0  0  0
    5.4220   41.7580   52.2010 C   0  0  0  0  0  0
    4.5230   41.1970   51.3220 C   0  0  0  0  0  0
    3.8990   40.0510   51.5160 O   0  0  0  0  0  0
    5.7040   43.6440   50.6820 C   0  0  0  0  0  0
    6.3270   44.9570   50.3200 C   0  0  0  0  0  0
    5.6900   45.8420   49.2440 C   0  0  0  0  0  0
    6.9500   45.0400   48.9290 C   0  0  0  0  0  0
    4.7830   43.0470   49.7990 C   0  0  0  0  0  0
    4.2150   41.8290   50.1450 C   0  0  0  0  0  0
    3.2290   40.8950   49.5430 C   0  0  0  0  0  0
    2.6230   41.1750   48.2100 C   0  0  0  0  0  0
    2.7240   40.2230   47.2770 N   0  0  0  0  0  0
    2.1850   40.3770   45.9380 C   0  0  0  0  0  0
    2.0870   42.2480   47.9950 O   0  0  0  0  0  0
    3.0730   39.7310   50.4710 C   0  0  0  0  0  0
    2.2130   38.5260   50.4190 C   0  0  0  0  0  0
    1.0520   38.5040   49.6500 C   0  0  0  0  0  0
    0.2470   37.3680   49.6520 C   0  0  0  0  0  0
    2.5440   37.4400   51.2200 C   0  0  0  0  0  0
    1.7380   36.3100   51.2240 C   0  0  0  0  0  0
    0.5910   36.2730   50.4380 C   0  0  0  0  0  0
   -0.1870   35.1800   50.4480 F   0  0  0  0  0  0
    8.2230   43.9370   52.3380 C   0  0  0  0  0  0
    9.4110   43.1200   52.8370 C   0  0  0  0  0  0
   10.7220   43.3680   52.0760 C   0  0  0  0  0  0
   10.5460   43.8450   50.7290 O   0  0  0  0  0  0
   11.4120   44.9570   50.4360 B   0  0  0  0  0  0
   12.3440   44.8620   49.2220 O   0  0  0  0  0  0
   12.0000   45.3170   51.7500 C   0  0  0  0  0  0
   12.8300   46.3840   52.0740 C   0  0  0  0  0  0
   13.2570   46.5060   53.4000 C   0  0  0  0  0  0
   12.8480   45.5750   54.3630 C   0  0  0  0  0  0
   12.0110   44.5150   54.0070 C   0  0  0  0  0  0
   11.5900   44.4080   52.6840 C   0  0  0  0  0  0
    6.3832   46.3073   55.0867 H   0  0  0  0  0  0
    6.9043   46.3406   53.3680 H   0  0  0  0  0  0
    7.9695   45.6086   54.6154 H   0  0  0  0  0  0
    5.6639   41.2493   53.1272 H   0  0  0  0  0  0
    6.6418   45.1275   51.3601 H   0  0  0  0  0  0
    4.6608   45.5039   49.0532 H   0  0  0  0  0  0
    5.6747   46.8861   49.5898 H   0  0  0  0  0  0
    7.9787   45.4211   49.0101 H   0  0  0  0  0  0
    6.9648   44.0389   48.4735 H   0  0  0  0  0  0
    4.5223   43.5310   48.8647 H   0  0  0  0  0  0
    3.2408   39.2936   47.5583 H   0  0  0  0  0  0
    2.3892   39.4676   45.3537 H   0  0  0  0  0  0
    2.6588   41.2410   45.4492 H   0  0  0  0  0  0
    1.0986   40.5391   45.9965 H   0  0  0  0  0  0
    0.7767   39.3662   49.0534 H   0  0  0  0  0  0
   -0.6479   37.3368   49.0410 H   0  0  0  0  0  0
    3.4314   37.4752   51.8416 H   0  0  0  0  0  0
    2.0021   35.4573   51.8390 H   0  0  0  0  0  0
    8.1872   43.8795   51.2401 H   0  0  0  0  0  0
    8.3566   44.9845   52.6461 H   0  0  0  0  0  0
    9.6044   43.3613   53.8926 H   0  0  0  0  0  0
    9.1847   42.0478   52.7415 H   0  0  0  0  0  0
   11.2042   42.3795   52.0589 H   0  0  0  0  0  0
   11.3967   43.9739   50.3262 H   0  0  0  0  0  0
   11.8256   44.7447   48.4346 H   0  0  0  0  0  0
   11.8256   44.7447   48.4346 H   0  0  0  0  0  0
   11.6678   45.2026   50.7245 H   0  0  0  0  0  0
   13.1319   47.1017   51.2969 H   0  0  0  0  0  0
   13.9173   47.3383   53.6852 H   0  0  0  0  0  0
   13.1860   45.6768   55.4048 H   0  0  0  0  0  0
   11.6842   43.7725   54.7499 H   0  0  0  0  0  0
  1  2  2  0  0  0
  2  3  2  0  0  0
  2  4  1  0  0  0
  2  5  1  0  0  0
  4 41  1  0  0  0
  4 42  1  0  0  0
  4 43  1  0  0  0
  5  6  1  0  0  0
  5 29  1  0  0  0
  6  7  2  0  0  0
  6 10  1  0  0  0
  7  8  1  0  0  0
  7 44  1  0  0  0
  8  9  1  0  0  0
  8 15  2  0  0  0
  9 21  1  0  0  0
 10 11  1  0  0  0
 10 14  2  0  0  0
 11 12  1  0  0  0
 11 13  1  0  0  0
 11 45  1  0  0  0
 12 13  1  0  0  0
 12 46  1  0  0  0
 12 47  1  0  0  0
 13 48  1  0  0  0
 13 49  1  0  0  0
 14 15  1  0  0  0
 14 50  1  0  0  0
 15 16  1  0  0  0
 16 17  1  0  0  0
 16 21  2  0  0  0
 17 18  1  0  0  0
 17 20  2  0  0  0
 18 19  1  0  0  0
 18 51  1  0  0  0
 19 52  1  0  0  0
 19 53  1  0  0  0
 19 54  1  0  0  0
 21 22  1  0  0  0
 22 23  2  0  0  0
 22 25  1  0  0  0
 23 24  1  0  0  0
 23 55  1  0  0  0
 24 27  2  0  0  0
 24 56  1  0  0  0
 25 26  2  0  0  0
 25 57  1  0  0  0
 26 27  1  0  0  0
 26 58  1  0  0  0
 27 28  1  0  0  0
 29 30  1  0  0  0
 29 59  1  0  0  0
 29 60  1  0  0  0
 30 31  1  0  0  0
 30 61  1  0  0  0
 30 62  1  0  0  0
 31 32  1  0  0  0
 31 40  1  0  0  0
 31 63  1  0  0  0
 32 33  1  0  0  0
 32 64  1  0  0  0
 33 34  1  0  0  0
 33 35  1  0  0  0
 34 65  1  0  0  0
 34 66  1  0  0  0
 35 36  2  0  0  0
 35 40  1  0  0  0
 35 67  1  0  0  0
 36 37  1  0  0  0
 36 68  1  0  0  0
 37 38  2  0  0  0
 37 69  1  0  0  0
 38 39  1  0  0  0
 38 70  1  0  0  0
 39 40  2  0  0  0
 39 71  1  0  0  0
M  END
> <MOLECULAR_FORMULA>
C29H31N2O6SFB

> <MOLECULAR_WEIGHT>
565.2

> <NUM_HB_ATOMS>
6

> <NUM_ROTOR>
4

> <XLOGP2>
5.16

> <s_m_source_file>
../4kb7_ligand.sdf

> <i_m_source_file_index>
1

> <s_epik_input>
W0NIXTFbQ0hdPVtDSF1bQ0hdPUMoW0NIXT0xMilbQ0hdKFtPSF1CMltPSDJdKVtDSDJdW0NIMl1OKFMoPU8pKD1PKVtDSDNdKWMoW2NIXTMpYyhbQ0hdNFtDSDJdW0NIMl00KVtjSF1jKGMzNSljKEMoPU8pW05IXVtDSDNdKWMobzUpLWM2W2NIXVtjSF1jKEYpW2NIXVtjSF02

> <s_epik_cmdline>
J2VwaWtfYXBwJywgJy1pbWFlJywgJ2xpZ2FuZF9wcm8ubWFlJywgJy1vbWFlJywgJ2xpZ2FuZF9wcmVwLm1hZScsICctbXMnLCAnMScsICctcGgnLCAnNycsICctcGh0JywgJzAuNScsICctbnQn

> <r_lp_tautomer_probability>
1

> <r_epik_Ionization_Penalty>
  0.0000

> <r_epik_Ionization_Penalty_Charging>
  0.0000

> <r_epik_Ionization_Penalty_Neutral>
  0.0000

> <r_epik_State_Penalty>
 -0.0000

> <r_epik_Charging_Adjusted_Penalty>
0

> <i_epik_Tot_Q>
0

> <i_epik_Tot_abs_Q>
0

$$$$
