4kb8_ligand
                    3D
 Schrodinger Suite 2020-3.
 40 42  0  0  1  0            999 V2000
   -7.6210   -0.2520    9.0160 N   0  0  0  0  0  0
   -8.9000   -3.0210   10.9680 C   0  0  0  0  0  0
   -6.5570    0.5350    9.3340 N   0  0  0  0  0  0
   -5.7540   -2.2410   11.5130 C   0  0  0  0  0  0
   -9.2460   -2.6330    8.6060 C   0  0  0  0  0  0
   -5.2290   -4.4900   12.1350 C   0  0  0  0  0  0
   -6.3170   -1.2800   10.6010 C   0  0  0  0  0  0
   -5.8240   -3.6040   11.2360 C   0  0  0  0  0  0
   -6.3760    1.8470    8.7020 C   0  0  0  0  0  0
  -10.3220   -3.5110    8.6070 C   0  0  0  0  0  0
  -10.6720   -4.1420    9.8040 C   0  0  0  0  0  0
   -9.9590   -3.9150   10.9870 C   0  0  0  0  0  0
   -8.5460   -2.3750    9.7840 C   0  0  0  0  0  0
  -11.7050   -4.9740    9.8260 F   0  0  0  0  0  0
   -4.5640   -4.1050   13.2480 N   0  0  0  0  0  0
   -4.4890   -2.7710   13.4830 C   0  0  0  0  0  0
   -5.0930   -1.8110   12.6640 C   0  0  0  0  0  0
   -7.4960   -1.3710    9.7970 C   0  0  0  0  0  0
   -5.7370   -0.0460   10.2940 C   0  0  0  0  0  0
   -3.7130   -2.3530   14.7130 C   0  0  0  0  0  0
   -2.3110   -2.0980   14.3270 N   0  3  0  0  0  0
   -2.1040   -0.8220   13.6300 C   0  0  0  0  0  0
   -8.3414   -2.8220   11.8826 H   0  0  0  0  0  0
   -8.9471   -2.1429    7.6794 H   0  0  0  0  0  0
   -5.3048   -5.5574   11.9276 H   0  0  0  0  0  0
   -6.3295   -3.9686   10.3418 H   0  0  0  0  0  0
   -7.1901    2.0233    7.9836 H   0  0  0  0  0  0
   -5.4106    1.8702    8.1752 H   0  0  0  0  0  0
   -6.3916    2.6309    9.4735 H   0  0  0  0  0  0
  -10.8825   -3.7042    7.6923 H   0  0  0  0  0  0
  -10.2318   -4.4322   11.9069 H   0  0  0  0  0  0
   -5.0483   -0.7522   12.9191 H   0  0  0  0  0  0
   -4.8267    0.3751   10.7207 H   0  0  0  0  0  0
   -4.1564   -1.4380   15.1328 H   0  0  0  0  0  0
   -3.7529   -3.1571   15.4626 H   0  0  0  0  0  0
   -1.6800   -2.0810   15.2278 H   0  0  0  0  0  0
   -1.9656   -2.8952   13.6524 H   0  0  0  0  0  0
   -1.0389   -0.7099   13.3790 H   0  0  0  0  0  0
   -2.4162    0.0069   14.2822 H   0  0  0  0  0  0
   -2.7019   -0.8073   12.7068 H   0  0  0  0  0  0
  1  3  1  0  0  0
  1 18  2  0  0  0
  2 12  2  0  0  0
  2 13  1  0  0  0
  2 23  1  0  0  0
  3  9  1  0  0  0
  3 19  1  0  0  0
  4  7  1  0  0  0
  4  8  2  0  0  0
  4 17  1  0  0  0
  5 10  1  0  0  0
  5 13  2  0  0  0
  5 24  1  0  0  0
  6  8  1  0  0  0
  6 15  2  0  0  0
  6 25  1  0  0  0
  7 18  1  0  0  0
  7 19  2  0  0  0
  8 26  1  0  0  0
  9 27  1  0  0  0
  9 28  1  0  0  0
  9 29  1  0  0  0
 10 11  2  0  0  0
 10 30  1  0  0  0
 11 12  1  0  0  0
 11 14  1  0  0  0
 12 31  1  0  0  0
 13 18  1  0  0  0
 15 16  1  0  0  0
 16 17  2  0  0  0
 16 20  1  0  0  0
 17 32  1  0  0  0
 19 33  1  0  0  0
 20 21  1  0  0  0
 20 34  1  0  0  0
 20 35  1  0  0  0
 21 22  1  0  0  0
 21 36  1  0  0  0
 21 37  1  0  0  0
 22 38  1  0  0  0
 22 39  1  0  0  0
 22 40  1  0  0  0
M  CHG  1  21   1
M  END
> <s_m_source_file>
../4kb8_ligand.sdf

> <i_m_source_file_index>
1

> <s_epik_input>
RmMxW2NIXVtjSF1jKFtjSF1bY0hdMSktYyhubjJbQ0gzXSljKFtjSF0yKS1jM1tjSF1bY0hdbmMoW2NIXTMpW0NIMl1bTkgyK11bQ0gzXQ==

> <s_epik_cmdline>
J2VwaWtfYXBwJywgJy1pbWFlJywgJ2xpZ2FuZF9wcm8ubWFlJywgJy1vbWFlJywgJ2xpZ2FuZF9wcmVwLm1hZScsICctbXMnLCAnMScsICctcGgnLCAnNycsICctcGh0JywgJzAuNScsICctbnQn

> <r_lp_tautomer_probability>
1

> <r_epik_Ionization_Penalty>
  0.0384

> <r_epik_Ionization_Penalty_Charging>
  0.0383

> <r_epik_Ionization_Penalty_Neutral>
  0.0000

> <r_epik_State_Penalty>
  0.0321

> <r_epik_Charging_Adjusted_Penalty>
0.0704747432874479

> <i_epik_Tot_Q>
1

> <i_epik_Tot_abs_Q>
1

$$$$
