4kb9_ligand
                    3D
 Schrodinger Suite 2020-3.
 87 91  0  0  1  0            999 V2000
    8.1700   15.4470   14.8940 C   0  0  0  0  0  0
    9.5360   15.4690   14.6330 C   0  0  0  0  0  0
   10.2680   16.6460   14.8270 C   0  0  0  0  0  0
    9.6820   17.7440   15.4430 C   0  0  0  0  0  0
    8.3290   17.7360   15.6910 C   0  0  0  0  0  0
    7.5640   16.5960   15.4090 C   0  0  0  0  0  0
   10.6980   19.1080   15.9430 S   0  0  0  0  0  0
   11.7430   19.1870   14.9110 O   0  0  0  0  0  0
    9.7850   20.2740   16.1280 O   0  0  0  0  0  0
   11.3990   18.8580   17.4080 N   0  0  1  0  0  0
   10.4730   18.5830   18.4880 C   0  0  0  0  0  0
   10.7130   19.3510   19.7790 C   0  0  0  0  0  0
   10.7100   20.8650   19.6040 C   0  0  0  0  0  0
    9.6870   18.9810   20.8520 C   0  0  0  0  0  0
   12.6810   18.1710   17.4910 C   0  0  0  0  0  0
   13.8080   19.0930   17.9840 C   0  0  1  0  0  0
   14.9630   18.3070   18.3140 O   0  0  0  0  0  0
   14.1560   20.1960   16.9780 C   0  0  1  0  0  0
   15.0460   21.1590   17.6250 N   0  0  0  0  0  0
   14.7000   22.4390   17.7010 C   0  0  0  0  0  0
   13.6290   22.9770   17.4240 O   0  0  0  0  0  0
   15.7760   23.2150   18.1410 O   0  0  0  0  0  0
   15.5280   24.6100   18.1570 C   0  0  2  0  0  0
   16.4500   24.9100   20.4440 C   0  0  0  0  0  0
   17.6000   25.7420   19.9200 C   0  0  0  0  0  0
   17.8790   25.3880   18.4980 C   0  0  1  0  0  0
   18.5290   24.1500   18.3350 O   0  0  0  0  0  0
   18.3120   23.6260   17.0380 C   0  0  1  0  0  0
   17.3080   24.5490   16.3690 C   0  0  1  0  0  0
   16.7160   25.3420   17.5420 C   0  0  1  0  0  0
   14.8800   19.6670   15.7400 C   0  0  0  0  0  0
   16.5640   21.1690   14.5490 C   0  0  0  0  0  0
   16.8540   22.2290   13.6910 C   0  0  0  0  0  0
   15.8310   22.8820   13.0130 C   0  0  0  0  0  0
   14.5270   22.5170   13.2680 C   0  0  0  0  0  0
   14.2200   21.4840   14.1270 C   0  0  0  0  0  0
   15.2320   20.8070   14.7830 C   0  0  0  0  0  0
    7.5250   14.2600   14.7110 O   0  0  0  0  0  0
    6.1360   14.3490   14.9200 C   0  0  0  0  0  0
   19.5170   23.6540   16.2540 O   0  0  0  0  0  0
   19.5950   24.9820   15.7440 C   0  0  0  0  0  0
   18.1710   25.4240   15.5000 C   0  0  0  0  0  0
   15.2330   25.0720   19.5580 C   0  0  0  0  0  0
   10.0369   14.5687   14.2770 H   0  0  0  0  0  0
   11.3040   16.7011   14.4927 H   0  0  0  0  0  0
    7.8493   18.6210   16.1091 H   0  0  0  0  0  0
    6.4896   16.6057   15.5926 H   0  0  0  0  0  0
    9.4510   18.8335   18.1674 H   0  0  0  0  0  0
   10.5235   17.5163   18.7516 H   0  0  0  0  0  0
   11.7240   19.0514   20.0921 H   0  0  0  0  0  0
   11.4439   21.1466   18.8345 H   0  0  0  0  0  0
   10.9760   21.3448   20.5574 H   0  0  0  0  0  0
    9.7080   21.1962   19.2938 H   0  0  0  0  0  0
    9.6777   17.8897   20.9896 H   0  0  0  0  0  0
    8.6888   19.3194   20.5371 H   0  0  0  0  0  0
    9.9568   19.4679   21.8007 H   0  0  0  0  0  0
   12.6003   17.3276   18.1926 H   0  0  0  0  0  0
   12.9604   17.7946   16.4959 H   0  0  0  0  0  0
   13.5059   19.5791   18.9233 H   0  0  0  0  0  0
   14.8757   17.4731   19.0261 H   0  0  0  0  0  0
   13.2219   20.6896   16.6718 H   0  0  0  0  0  0
   16.0037   20.8237   18.0497 H   0  0  0  0  0  0
   14.6258   24.7689   17.5481 H   0  0  0  0  0  0
   16.7421   23.8496   20.4602 H   0  0  0  0  0  0
   16.1962   25.2360   21.4635 H   0  0  0  0  0  0
   17.3393   26.8088   19.9830 H   0  0  0  0  0  0
   18.4983   25.5478   20.5244 H   0  0  0  0  0  0
   18.5712   26.2008   18.2332 H   0  0  0  0  0  0
   18.0136   22.5731   17.1494 H   0  0  0  0  0  0
   16.5149   24.0856   15.7638 H   0  0  0  0  0  0
   16.3341   26.3381   17.2739 H   0  0  0  0  0  0
   15.8088   19.1632   16.0457 H   0  0  0  0  0  0
   14.2311   18.9517   15.2134 H   0  0  0  0  0  0
   17.3722   20.6236   15.0363 H   0  0  0  0  0  0
   17.8872   22.5470   13.5512 H   0  0  0  0  0  0
   16.0563   23.6685   12.2927 H   0  0  0  0  0  0
   13.7180   23.0589   12.7780 H   0  0  0  0  0  0
   13.1801   21.2006   14.2893 H   0  0  0  0  0  0
    5.6768   13.3627   14.7575 H   0  0  0  0  0  0
    5.7049   15.0748   14.2148 H   0  0  0  0  0  0
    5.9408   14.6790   15.9510 H   0  0  0  0  0  0
   20.0894   25.6300   16.4827 H   0  0  0  0  0  0
   20.1751   24.9824   14.8094 H   0  0  0  0  0  0
   17.8882   25.2868   14.4459 H   0  0  0  0  0  0
   18.0284   26.4772   15.7837 H   0  0  0  0  0  0
   14.9451   26.1335   19.5410 H   0  0  0  0  0  0
   14.4085   24.4751   19.9750 H   0  0  0  0  0  0
  1  2  2  0  0  0
  1  6  1  0  0  0
  1 38  1  0  0  0
  2  3  1  0  0  0
  2 44  1  0  0  0
  3  4  2  0  0  0
  3 45  1  0  0  0
  4  5  1  0  0  0
  4  7  1  0  0  0
  5  6  2  0  0  0
  5 46  1  0  0  0
  6 47  1  0  0  0
  7  8  2  0  0  0
  7  9  2  0  0  0
  7 10  1  0  0  0
 10 11  1  0  0  0
 10 15  1  0  0  0
 11 12  1  0  0  0
 11 48  1  0  0  0
 11 49  1  0  0  0
 12 13  1  0  0  0
 12 14  1  0  0  0
 12 50  1  0  0  0
 13 51  1  0  0  0
 13 52  1  0  0  0
 13 53  1  0  0  0
 14 54  1  0  0  0
 14 55  1  0  0  0
 14 56  1  0  0  0
 15 16  1  0  0  0
 15 57  1  0  0  0
 15 58  1  0  0  0
 16 17  1  0  0  0
 16 18  1  0  0  0
 16 59  1  0  0  0
 17 60  1  0  0  0
 18 19  1  0  0  0
 18 31  1  0  0  0
 18 61  1  0  0  0
 19 20  1  0  0  0
 19 62  1  0  0  0
 20 21  2  0  0  0
 20 22  1  0  0  0
 22 23  1  0  0  0
 23 30  1  0  0  0
 23 43  1  0  0  0
 23 63  1  0  0  0
 24 25  1  0  0  0
 24 43  1  0  0  0
 24 64  1  0  0  0
 24 65  1  0  0  0
 25 26  1  0  0  0
 25 66  1  0  0  0
 25 67  1  0  0  0
 26 27  1  0  0  0
 26 30  1  0  0  0
 26 68  1  0  0  0
 27 28  1  0  0  0
 28 29  1  0  0  0
 28 40  1  0  0  0
 28 69  1  0  0  0
 29 30  1  0  0  0
 29 42  1  0  0  0
 29 70  1  0  0  0
 30 71  1  0  0  0
 31 37  1  0  0  0
 31 72  1  0  0  0
 31 73  1  0  0  0
 32 33  2  0  0  0
 32 37  1  0  0  0
 32 74  1  0  0  0
 33 34  1  0  0  0
 33 75  1  0  0  0
 34 35  2  0  0  0
 34 76  1  0  0  0
 35 36  1  0  0  0
 35 77  1  0  0  0
 36 37  2  0  0  0
 36 78  1  0  0  0
 38 39  1  0  0  0
 39 79  1  0  0  0
 39 80  1  0  0  0
 39 81  1  0  0  0
 40 41  1  0  0  0
 41 42  1  0  0  0
 41 82  1  0  0  0
 41 83  1  0  0  0
 42 84  1  0  0  0
 42 85  1  0  0  0
 43 86  1  0  0  0
 43 87  1  0  0  0
M  END
> <s_m_source_file>
../4kb9_ligand.sdf

> <i_m_source_file_index>
1

> <s_epik_input>
W0NIM11PYzFbY0hdW2NIXWMoW2NIXVtjSF0xKVMoPU8pKD1PKU4oW0NIMl1bQ0hdKFtDSDNdKVtDSDNdKVtDSDJdW0NAQEhdKFtPSF0pW0NASF0oW0NIMl1jMltjSF1bY0hdW2NIXVtjSF1bY0hdMilbTkhdQyg9TylPW0NAQEhdKFtDSDJdW0NIMl1bQ0gyXTMpW0NAQEhdKFtDQEBIXTM0KVtDQEBIXTVbQ0BIXShPNClPW0NIMl1bQ0gyXTU=

> <s_epik_cmdline>
J2VwaWtfYXBwJywgJy1pbWFlJywgJ2xpZ2FuZF9wcm8ubWFlJywgJy1vbWFlJywgJ2xpZ2FuZF9wcmVwLm1hZScsICctbXMnLCAnMScsICctcGgnLCAnNycsICctcGh0JywgJzAuNScsICctbnQn

> <r_lp_tautomer_probability>
1

> <r_epik_Ionization_Penalty>
  0.0000

> <r_epik_Ionization_Penalty_Charging>
  0.0000

> <r_epik_Ionization_Penalty_Neutral>
  0.0000

> <r_epik_State_Penalty>
 -0.0000

> <r_epik_Charging_Adjusted_Penalty>
0

> <i_epik_Tot_Q>
0

> <i_epik_Tot_abs_Q>
0

> <s_epik_Chemistry_Notes>
This compound has an ester and may undergo hydrolysis at high or low pH. This compound contains an acetal/aminal-like group ( X-CH(R)-Y where X, Y are N, S, or O) that may be acid/base labile, releasing an aldehyde.

$$$$
