4kba_ligand
                    3D
 Schrodinger Suite 2020-3.
 42 45  0  0  1  0            999 V2000
   -6.4420    0.5270    9.0030 N   0  0  0  0  0  0
   -6.1520   -1.2490   10.3160 C   0  0  0  0  0  0
   -7.5490   -0.2390    8.7920 N   0  0  0  0  0  0
   -9.0710   -2.7430    8.4930 C   0  0  0  0  0  0
   -8.4460   -2.3250    9.6670 C   0  0  0  0  0  0
  -10.5770   -4.0750    9.7980 C   0  0  0  0  0  0
   -6.2610    1.8110    8.3180 C   0  0  0  0  0  0
  -10.1360   -3.6320    8.5480 C   0  0  0  0  0  0
   -3.6360   -2.6170   14.4610 C   0  0  0  0  0  0
   -3.0850   -0.3760   12.4400 C   0  0  0  0  0  0
   -5.6050   -2.2380   11.2070 C   0  0  0  0  0  0
   -5.8890   -3.5860   10.9810 C   0  0  0  0  0  0
   -5.3850   -4.5430   11.8630 C   0  0  0  0  0  0
   -4.6590   -4.2450   12.9620 N   0  0  0  0  0  0
   -7.3910   -1.3310    9.6000 C   0  0  0  0  0  0
   -9.9510   -3.6720   10.9820 C   0  0  0  0  0  0
   -8.8740   -2.8030   10.9050 C   0  0  0  0  0  0
  -11.6140   -4.9010    9.8710 F   0  0  0  0  0  0
   -5.5710   -0.0410    9.9260 C   0  0  0  0  0  0
   -4.3880   -2.9390   13.1870 C   0  0  0  0  0  0
   -4.7960   -1.9250   12.3080 C   0  0  0  0  0  0
   -4.4730   -0.6190   12.5580 O   0  0  0  0  0  0
   -2.3220   -2.0120   14.2230 N   0  3  0  0  0  0
   -2.3720   -0.6150   13.7840 C   0  0  0  0  0  0
   -8.7227   -2.3709    7.5295 H   0  0  0  0  0  0
   -7.1144    1.9927    7.6481 H   0  0  0  0  0  0
   -5.3320    1.7849    7.7296 H   0  0  0  0  0  0
   -6.2009    2.6185    9.0625 H   0  0  0  0  0  0
  -10.6188   -3.9777    7.6340 H   0  0  0  0  0  0
   -4.2224   -1.9078   15.0636 H   0  0  0  0  0  0
   -3.4755   -3.5412   15.0356 H   0  0  0  0  0  0
   -2.6570   -1.0532   11.6861 H   0  0  0  0  0  0
   -2.9202    0.6670   12.1317 H   0  0  0  0  0  0
   -6.4961   -3.8870   10.1273 H   0  0  0  0  0  0
   -5.5894   -5.5927   11.6524 H   0  0  0  0  0  0
  -10.3036   -4.0347   11.9475 H   0  0  0  0  0  0
   -8.3602   -2.4924   11.8147 H   0  0  0  0  0  0
   -4.6251    0.3734   10.2748 H   0  0  0  0  0  0
   -1.7334   -2.0364   15.1520 H   0  0  0  0  0  0
   -1.7947   -2.5766   13.4399 H   0  0  0  0  0  0
   -1.3295   -0.2715   13.7121 H   0  0  0  0  0  0
   -2.8885   -0.0553   14.5777 H   0  0  0  0  0  0
  1  3  1  0  0  0
  1  7  1  0  0  0
  1 19  1  0  0  0
  2 11  1  0  0  0
  2 15  1  0  0  0
  2 19  2  0  0  0
  3 15  2  0  0  0
  4  5  2  0  0  0
  4  8  1  0  0  0
  4 25  1  0  0  0
  5 15  1  0  0  0
  5 17  1  0  0  0
  6  8  2  0  0  0
  6 16  1  0  0  0
  6 18  1  0  0  0
  7 26  1  0  0  0
  7 27  1  0  0  0
  7 28  1  0  0  0
  8 29  1  0  0  0
  9 20  1  0  0  0
  9 23  1  0  0  0
  9 30  1  0  0  0
  9 31  1  0  0  0
 10 22  1  0  0  0
 10 24  1  0  0  0
 10 32  1  0  0  0
 10 33  1  0  0  0
 11 12  2  0  0  0
 11 21  1  0  0  0
 12 13  1  0  0  0
 12 34  1  0  0  0
 13 14  2  0  0  0
 13 35  1  0  0  0
 14 20  1  0  0  0
 16 17  2  0  0  0
 16 36  1  0  0  0
 17 37  1  0  0  0
 19 38  1  0  0  0
 20 21  2  0  0  0
 21 22  1  0  0  0
 23 24  1  0  0  0
 23 39  1  0  0  0
 23 40  1  0  0  0
 24 41  1  0  0  0
 24 42  1  0  0  0
M  CHG  1  23   1
M  END
> <s_m_source_file>
../4kba_ligand.sdf

> <i_m_source_file_index>
1

> <s_epik_input>
W2NIXTFbY0hdYyhGKVtjSF1bY0hdYzEtYyhubjJbQ0gzXSljKFtjSF0yKS1jKFtjSF1bY0hdbjMpYyhjMzQpT1tDSDJdW0NIMl1bTkgyK11bQ0gyXTQ=

> <s_epik_cmdline>
J2VwaWtfYXBwJywgJy1pbWFlJywgJ2xpZ2FuZF9wcm8ubWFlJywgJy1vbWFlJywgJ2xpZ2FuZF9wcmVwLm1hZScsICctbXMnLCAnMScsICctcGgnLCAnNycsICctcGh0JywgJzAuNScsICctbnQn

> <r_lp_tautomer_probability>
1

> <r_epik_Ionization_Penalty>
  0.0890

> <r_epik_Ionization_Penalty_Charging>
  0.0890

> <r_epik_Ionization_Penalty_Neutral>
  0.0000

> <r_epik_State_Penalty>
  0.0794

> <r_epik_Charging_Adjusted_Penalty>
0.168450437383888

> <i_epik_Tot_Q>
1

> <i_epik_Tot_abs_Q>
1

$$$$
