4kbc_ligand
                    3D
 Schrodinger Suite 2020-3.
 31 33  0  0  1  0            999 V2000
  -25.3380   -0.7920   41.4820 N   0  0  0  0  0  0
  -20.0940    1.4310   42.8570 C   0  0  0  0  0  0
  -19.3070   -1.5430   39.2390 N   0  0  0  0  0  0
  -20.2810   -0.9310   39.9790 C   0  0  0  0  0  0
  -19.9970    0.2590   40.7540 C   0  0  0  0  0  0
  -21.2290   -2.7700   39.0670 C   0  0  0  0  0  0
  -24.8960   -2.0650   41.3340 C   0  0  0  0  0  0
  -21.5020   -1.6710   39.8870 C   0  0  3  0  0  0
  -19.2440    1.2880   40.1910 C   0  0  0  0  0  0
  -18.9100    2.4000   40.9530 C   0  0  0  0  0  0
  -19.3280    2.4530   42.2860 C   0  0  0  0  0  0
  -20.4310    0.3360   42.0760 C   0  0  0  0  0  0
  -19.9000   -2.6410   38.6960 N   0  0  0  0  0  0
  -22.7800   -1.3620   40.4700 C   0  0  0  0  0  0
  -23.1950   -0.0420   40.6300 C   0  0  0  0  0  0
  -24.4750    0.1910   41.1390 C   0  0  0  0  0  0
  -23.6330   -2.3980   40.8460 C   0  0  0  0  0  0
  -25.8550   -3.1790   41.6960 C   0  0  0  0  0  0
  -26.1960   -3.8890   40.5440 O   0  0  0  0  0  0
  -18.9950    3.4990   43.0320 F   0  0  0  0  0  0
  -20.4195    1.4943   43.8953 H   0  0  0  0  0  0
  -21.8205   -3.6241   38.7056 H   0  0  0  0  0  0
  -18.9175    1.2200   39.1533 H   0  0  0  0  0  0
  -18.3325    3.2166   40.5196 H   0  0  0  0  0  0
  -21.0368   -0.4664   42.4970 H   0  0  0  0  0  0
  -22.5387    0.7870   40.3652 H   0  0  0  0  0  0
  -24.7966    1.2246   41.2670 H   0  0  0  0  0  0
  -23.3216   -3.4391   40.7610 H   0  0  0  0  0  0
  -25.3743   -3.8569   42.4167 H   0  0  0  0  0  0
  -26.7627   -2.7499   42.1454 H   0  0  0  0  0  0
  -26.8882   -4.7415   40.6080 H   0  0  0  0  0  0
  1  7  2  0  0  0
  1 16  1  0  0  0
  2 11  2  0  0  0
  2 12  1  0  0  0
  2 21  1  0  0  0
  3  4  2  0  0  0
  3 13  1  0  0  0
  4  5  1  0  0  0
  4  8  1  0  0  0
  5  9  1  0  0  0
  5 12  2  0  0  0
  6  8  1  0  0  0
  6 13  2  0  0  0
  6 22  1  0  0  0
  7 17  1  0  0  0
  7 18  1  0  0  0
  8 14  1  0  0  0
  9 10  2  0  0  0
  9 23  1  0  0  0
 10 11  1  0  0  0
 10 24  1  0  0  0
 11 20  1  0  0  0
 12 25  1  0  0  0
 14 15  1  0  0  0
 14 17  2  0  0  0
 15 16  2  0  0  0
 15 26  1  0  0  0
 16 27  1  0  0  0
 17 28  1  0  0  0
 18 19  1  0  0  0
 18 29  1  0  0  0
 18 30  1  0  0  0
 19 31  1  0  0  0
M  END
> <s_m_source_file>
../4kbc_ligand.sdf

> <i_m_source_file_index>
1

> <s_epik_input>
W09IXVtDSDJdYzFuW2NIXVtjSF1jKFtjSF0xKVtDSF0yW0NIXT1OTj1DMmMzW2NIXVtjSF1jKEYpW2NIXVtjSF0z

> <s_epik_cmdline>
J2VwaWtfYXBwJywgJy1pbWFlJywgJ2xpZ2FuZF9wcm8ubWFlJywgJy1vbWFlJywgJ2xpZ2FuZF9wcmVwLm1hZScsICctbXMnLCAnMScsICctcGgnLCAnNycsICctcGh0JywgJzAuNScsICctbnQn

> <r_lp_tautomer_probability>
1

> <r_epik_Ionization_Penalty>
  0.0003

> <r_epik_Ionization_Penalty_Charging>
  0.0000

> <r_epik_Ionization_Penalty_Neutral>
  0.0003

> <r_epik_State_Penalty>
 -0.0000

> <r_epik_Charging_Adjusted_Penalty>
0

> <i_epik_Tot_Q>
0

> <i_epik_Tot_abs_Q>
0

> <s_epik_Chemistry_Notes>
This compound has an imine and may undergo hydrolysis.

$$$$
