4kbi_ligand
                    3D
 Schrodinger Suite 2020-3.
 66 71  0  0  1  0            999 V2000
    3.6090   38.9750   47.1330 C   0  0  0  0  0  0
    2.7480   40.1070   47.1110 N   0  0  0  0  0  0
    2.5630   40.8450   48.2820 C   0  0  0  0  0  0
    2.0400   41.9780   48.1440 O   0  0  0  0  0  0
    3.1900   40.4680   49.6220 C   0  0  0  0  0  0
    2.9840   39.3310   50.4900 C   0  0  0  0  0  0
    3.7060   39.5130   51.6370 O   0  0  0  0  0  0
    4.3610   40.7110   51.5420 C   0  0  0  0  0  0
    5.2060   41.3400   52.4670 C   0  0  0  0  0  0
    5.7720   42.5950   52.1610 C   0  0  0  0  0  0
    6.6420   43.1520   53.2260 N   0  0  0  0  0  0
    8.0240   42.8510   53.2220 C   0  0  0  0  0  0
    8.9310   43.6300   52.2500 C   0  0  0  0  0  0
    9.2760   44.9040   52.5920 C   0  0  0  0  0  0
   10.1160   45.6720   51.7260 C   0  0  0  0  0  0
   10.6420   47.1110   51.8910 C   0  0  0  0  0  0
   11.2970   47.4580   50.6740 O   0  0  0  0  0  0
   11.3890   46.2900   49.8720 B   0  0  0  0  0  0
   11.3490   46.5530   48.4400 O   0  0  0  0  0  0
   10.5290   45.1770   50.6250 C   0  0  0  0  0  0
   10.1500   43.8430   50.2530 C   0  0  0  0  0  0
   10.5920   43.3230   49.0950 F   0  0  0  0  0  0
    9.3580   43.0940   51.0940 C   0  0  0  0  0  0
    5.9360   43.9840   54.4150 S   0  0  0  0  0  0
    5.8550   42.9160   55.8330 C   0  0  0  0  0  0
    4.5680   44.3690   54.0510 O   0  0  0  0  0  0
    6.7040   45.2010   54.7110 O   0  0  0  0  0  0
    5.4360   43.2630   50.9450 C   0  0  0  0  0  0
    4.5890   42.5970   50.0060 C   0  0  0  0  0  0
    4.0630   41.3150   50.3060 C   0  0  0  0  0  0
    6.0460   44.5820   50.5940 C   0  0  0  0  0  0
    6.9170   45.1650   49.5330 C   0  0  0  0  0  0
    5.4580   45.4620   49.5340 C   0  0  0  0  0  0
    2.1800   38.2060   50.3710 C   0  0  0  0  0  0
    0.9950   38.2240   49.6290 C   0  0  0  0  0  0
    0.1590   37.0890   49.6310 C   0  0  0  0  0  0
    0.4350   36.0260   50.4510 C   0  0  0  0  0  0
   -0.3530   35.0030   50.4640 F   0  0  0  0  0  0
    1.5890   36.0420   51.2800 C   0  0  0  0  0  0
    2.4360   37.1400   51.2520 C   0  0  0  0  0  0
    3.6375   38.5166   46.1335 H   0  0  0  0  0  0
    3.2326   38.2422   47.8619 H   0  0  0  0  0  0
    4.6227   39.2909   47.4206 H   0  0  0  0  0  0
    2.2374   40.3916   46.1792 H   0  0  0  0  0  0
    5.4239   40.8627   53.4156 H   0  0  0  0  0  0
    8.4439   43.0427   54.2205 H   0  0  0  0  0  0
    8.1679   41.7922   52.9608 H   0  0  0  0  0  0
    8.9083   45.3396   53.5328 H   0  0  0  0  0  0
    9.7984   47.7897   52.0853 H   0  0  0  0  0  0
   11.3457   47.1496   52.7356 H   0  0  0  0  0  0
   12.0136   46.8542   50.5180 H   0  0  0  0  0  0
   10.5301   46.9817   48.2206 H   0  0  0  0  0  0
   10.5301   46.9817   48.2206 H   0  0  0  0  0  0
   11.1651   45.7627   49.9713 H   0  0  0  0  0  0
    9.0801   42.0663   50.8173 H   0  0  0  0  0  0
    5.2753   42.0157   55.5813 H   0  0  0  0  0  0
    5.3666   43.4462   56.6639 H   0  0  0  0  0  0
    6.8730   42.6251   56.1315 H   0  0  0  0  0  0
    4.3482   43.0731   49.0624 H   0  0  0  0  0  0
    6.2452   44.4943   51.6722 H   0  0  0  0  0  0
    7.5647   45.5920   48.7531 H   0  0  0  0  0  0
    5.0278   46.1084   48.7549 H   0  0  0  0  0  0
    0.7215   39.1033   49.0571 H   0  0  0  0  0  0
   -0.7073   37.0567   48.9802 H   0  0  0  0  0  0
    1.8059   35.2019   51.9298 H   0  0  0  0  0  0
    3.2966   37.1766   51.9101 H   0  0  0  0  0  0
  1  2  1  0  0  0
  1 41  1  0  0  0
  1 42  1  0  0  0
  1 43  1  0  0  0
  2  3  1  0  0  0
  2 44  1  0  0  0
  3  4  2  0  0  0
  3  5  1  0  0  0
  5  6  2  0  0  0
  5 30  1  0  0  0
  6  7  1  0  0  0
  6 34  1  0  0  0
  7  8  1  0  0  0
  8  9  2  0  0  0
  8 30  1  0  0  0
  9 10  1  0  0  0
  9 45  1  0  0  0
 10 11  1  0  0  0
 10 28  2  0  0  0
 11 12  1  0  0  0
 11 24  1  0  0  0
 12 13  1  0  0  0
 12 46  1  0  0  0
 12 47  1  0  0  0
 13 14  2  0  0  0
 13 23  1  0  0  0
 14 15  1  0  0  0
 14 48  1  0  0  0
 15 16  1  0  0  0
 15 20  2  0  0  0
 16 17  1  0  0  0
 16 49  1  0  0  0
 16 50  1  0  0  0
 17 18  1  0  0  0
 17 51  1  0  0  0
 18 19  1  0  0  0
 18 20  1  0  0  0
 19 52  1  0  0  0
 19 53  1  0  0  0
 20 21  1  0  0  0
 20 54  1  0  0  0
 21 22  1  0  0  0
 21 23  2  0  0  0
 23 55  1  0  0  0
 24 25  1  0  0  0
 24 26  2  0  0  0
 24 27  2  0  0  0
 25 56  1  0  0  0
 25 57  1  0  0  0
 25 58  1  0  0  0
 28 29  1  0  0  0
 28 31  1  0  0  0
 29 30  2  0  0  0
 29 59  1  0  0  0
 31 32  1  0  0  0
 31 33  1  0  0  0
 31 60  1  0  0  0
 32 33  2  0  0  0
 32 61  1  0  0  0
 33 62  1  0  0  0
 34 35  2  0  0  0
 34 40  1  0  0  0
 35 36  1  0  0  0
 35 63  1  0  0  0
 36 37  2  0  0  0
 36 64  1  0  0  0
 37 38  1  0  0  0
 37 39  1  0  0  0
 39 40  2  0  0  0
 39 65  1  0  0  0
 40 66  1  0  0  0
M  END
> <MOLECULAR_FORMULA>
C28H26N2O6SF2B

> <MOLECULAR_WEIGHT>
567.2

> <NUM_HB_ATOMS>
6

> <NUM_ROTOR>
3

> <XLOGP2>
4.67

> <s_m_source_file>
../4kbi_ligand.sdf

> <i_m_source_file_index>
1

> <s_epik_input>
W2NIXTFbY0hdYyhGKVtjSF1bY0hdYzEtYyhvMiljKEMoPU8pW05IXVtDSDNdKWMoYzIzKVtjSF1jKFtDSF00W0NIXT1bQ0hdNCljKFtjSF0zKU4oUyg9TykoPU8pW0NIM10pW0NIMl1DKD1bQ0hdNSlbQ0hdPUMoRilbQ0hdKD1DNTYpQihbT0gyXSlbT0hdW0NIMl02

> <s_epik_cmdline>
J2VwaWtfYXBwJywgJy1pbWFlJywgJ2xpZ2FuZF9wcm8ubWFlJywgJy1vbWFlJywgJ2xpZ2FuZF9wcmVwLm1hZScsICctbXMnLCAnMScsICctcGgnLCAnNycsICctcGh0JywgJzAuNScsICctbnQn

> <r_lp_tautomer_probability>
1

> <r_epik_Ionization_Penalty>
  0.0000

> <r_epik_Ionization_Penalty_Charging>
  0.0000

> <r_epik_Ionization_Penalty_Neutral>
  0.0000

> <r_epik_State_Penalty>
 -0.0000

> <r_epik_Charging_Adjusted_Penalty>
0

> <i_epik_Tot_Q>
0

> <i_epik_Tot_abs_Q>
0

$$$$
