4kbk_ligand
                    3D
 Schrodinger Suite 2020-3.
 45 48  0  0  1  0            999 V2000
   21.9270   21.9230  -51.4410 N   0  0  0  0  0  0
   21.5980   24.8690  -47.1080 C   0  0  0  0  0  0
   20.8480   25.3820  -46.0840 N   0  0  0  0  0  0
   25.1540   25.3630  -46.0740 C   0  0  0  0  0  0
   23.8040   25.0460  -46.0300 C   0  0  0  0  0  0
   24.9430   25.8310  -48.4640 C   0  0  0  0  0  0
   22.7110   22.0100  -50.3460 C   0  0  0  0  0  0
   25.7090   25.7540  -47.2950 C   0  0  0  0  0  0
   17.4060   22.7890  -53.9690 C   0  0  0  0  0  0
   19.8860   22.4450  -52.6390 C   0  0  1  0  0  0
   18.6420   23.6270  -54.3480 C   0  0  0  0  0  0
   18.4440   25.4500  -45.5210 C   0  0  0  0  0  0
   19.5630   25.0210  -46.3650 N   0  0  0  0  0  0
   19.4600   24.2920  -47.5440 C   0  0  0  0  0  0
   20.7630   24.1670  -48.0320 C   0  0  0  0  0  0
   23.0250   25.1270  -47.1830 C   0  0  0  0  0  0
   23.5960   25.5110  -48.3960 C   0  0  0  0  0  0
   27.0000   26.0600  -47.3490 F   0  0  0  0  0  0
   21.1610   23.4280  -49.2000 C   0  0  0  0  0  0
   22.3730   22.7430  -49.2060 C   0  0  0  0  0  0
   20.7470   22.5980  -51.4080 C   0  0  0  0  0  0
   20.3280   23.3640  -50.3200 C   0  0  0  0  0  0
   18.5820   21.7060  -52.2670 C   0  0  0  0  0  0
   17.7840   21.5570  -53.4130 O   0  0  0  0  0  0
   19.4940   23.7810  -53.1470 N   0  3  0  0  0  0
   25.7683   25.3082  -45.1753 H   0  0  0  0  0  0
   23.3506   24.7323  -45.0897 H   0  0  0  0  0  0
   25.3959   26.1360  -49.4074 H   0  0  0  0  0  0
   23.6623   21.4779  -50.3515 H   0  0  0  0  0  0
   16.8027   23.3384  -53.2312 H   0  0  0  0  0  0
   16.8018   22.5992  -54.8684 H   0  0  0  0  0  0
   20.4718   21.9189  -53.4072 H   0  0  0  0  0  0
   19.2035   23.1136  -55.1424 H   0  0  0  0  0  0
   18.3189   24.6152  -54.7074 H   0  0  0  0  0  0
   18.8304   26.0090  -44.6560 H   0  0  0  0  0  0
   17.8905   24.5669  -45.1693 H   0  0  0  0  0  0
   17.7714   26.0960  -46.1043 H   0  0  0  0  0  0
   18.5492   23.8985  -47.9953 H   0  0  0  0  0  0
   22.9805   25.5597  -49.2943 H   0  0  0  0  0  0
   23.0400   22.7777  -48.3446 H   0  0  0  0  0  0
   19.3777   23.8975  -50.3429 H   0  0  0  0  0  0
   18.8263   20.7140  -51.8592 H   0  0  0  0  0  0
   18.0334   22.2879  -51.5117 H   0  0  0  0  0  0
   18.9335   24.3193  -52.3685 H   0  0  0  0  0  0
   20.3963   24.3524  -53.4105 H   0  0  0  0  0  0
  1  7  2  0  0  0
  1 21  1  0  0  0
  2  3  2  0  0  0
  2 15  1  0  0  0
  2 16  1  0  0  0
  3 13  1  0  0  0
  4  5  2  0  0  0
  4  8  1  0  0  0
  4 26  1  0  0  0
  5 16  1  0  0  0
  5 27  1  0  0  0
  6  8  2  0  0  0
  6 17  1  0  0  0
  6 28  1  0  0  0
  7 20  1  0  0  0
  7 29  1  0  0  0
  8 18  1  0  0  0
  9 11  1  0  0  0
  9 24  1  0  0  0
  9 30  1  0  0  0
  9 31  1  0  0  0
 10 21  1  0  0  0
 10 23  1  0  0  0
 10 25  1  0  0  0
 10 32  1  0  0  0
 11 25  1  0  0  0
 11 33  1  0  0  0
 11 34  1  0  0  0
 12 13  1  0  0  0
 12 35  1  0  0  0
 12 36  1  0  0  0
 12 37  1  0  0  0
 13 14  1  0  0  0
 14 15  2  0  0  0
 14 38  1  0  0  0
 15 19  1  0  0  0
 16 17  2  0  0  0
 17 39  1  0  0  0
 19 20  2  0  0  0
 19 22  1  0  0  0
 20 40  1  0  0  0
 21 22  2  0  0  0
 22 41  1  0  0  0
 23 24  1  0  0  0
 23 42  1  0  0  0
 23 43  1  0  0  0
 25 44  1  0  0  0
 25 45  1  0  0  0
M  CHG  1  25   1
M  END
> <s_m_source_file>
../4kbk_ligand.sdf

> <i_m_source_file_index>
1

> <s_epik_input>
W05IMitdMVtDSDJdW0NIMl1PW0NIMl1bQ0BASF0xYyhbY0hdMiluW2NIXVtjSF1jMi1jM1tjSF1uKFtDSDNdKW5jMy1jKFtjSF1bY0hdNClbY0hdW2NIXWM0Rg==

> <s_epik_cmdline>
J2VwaWtfYXBwJywgJy1pbWFlJywgJ2xpZ2FuZF9wcm8ubWFlJywgJy1vbWFlJywgJ2xpZ2FuZF9wcmVwLm1hZScsICctbXMnLCAnMScsICctcGgnLCAnNycsICctcGh0JywgJzAuNScsICctbnQn

> <r_lp_tautomer_probability>
1

> <r_epik_Ionization_Penalty>
  0.1930

> <r_epik_Ionization_Penalty_Charging>
  0.1929

> <r_epik_Ionization_Penalty_Neutral>
  0.0000

> <r_epik_State_Penalty>
  0.1826

> <r_epik_Charging_Adjusted_Penalty>
0.375556615458502

> <i_epik_Tot_Q>
1

> <i_epik_Tot_abs_Q>
1

$$$$
