4kby_ligand
                    3D
 Schrodinger Suite 2020-3.
 68 74  0  0  1  0            999 V2000
  -17.5100  -14.4210   -6.2710 P   0  0  1  0  0  0
  -16.5540  -13.5400   -5.5310 O   0  0  0  0  0  0
  -18.5230  -13.4740   -6.9090 O   0  5  0  0  0  0
  -16.8380  -15.1790   -7.4640 O   0  0  0  0  0  0
  -17.4650  -15.3100   -8.6900 C   0  0  0  0  0  0
  -17.6770  -16.6290   -9.2930 C   0  0  1  0  0  0
  -16.6910  -17.6120   -9.0410 O   0  0  0  0  0  0
  -18.8210  -17.2930   -8.7080 C   0  0  1  0  0  0
  -20.0850  -16.6930   -8.9410 O   0  0  0  0  0  0
  -18.7500  -18.5820   -9.2980 C   0  0  1  0  0  0
  -19.5260  -18.6070  -10.4800 O   0  0  0  0  0  0
  -17.3180  -18.7440   -9.5890 C   0  0  2  0  0  0
  -16.8300  -20.1290   -9.3030 N   0  0  0  0  0  0
  -17.5550  -21.1490   -8.8300 C   0  0  0  0  0  0
  -16.7990  -22.2550   -8.7500 N   0  0  0  0  0  0
  -15.5600  -21.9540   -9.1940 C   0  0  0  0  0  0
  -14.3680  -22.6800   -9.3410 C   0  0  0  0  0  0
  -14.3090  -24.0140   -8.9890 O   0  0  0  0  0  0
  -13.2810  -22.0580   -9.8270 N   0  0  0  0  0  0
  -13.3550  -20.7550  -10.1620 C   0  0  0  0  0  0
  -12.1890  -20.0980  -10.6830 N   0  0  0  0  0  0
  -14.4710  -20.0290  -10.0410 N   0  0  0  0  0  0
  -15.5820  -20.6010   -9.5590 C   0  0  0  0  0  0
  -21.2670  -17.3990   -8.1690 P   0  0  2  0  0  0
  -22.1360  -18.2070   -9.0570 O   0  0  0  0  0  0
  -22.1710  -16.2670   -7.6950 O   0  5  0  0  0  0
  -20.7790  -18.1670   -6.8540 O   0  0  0  0  0  0
  -20.7400  -17.5440   -5.5820 C   0  0  0  0  0  0
  -19.5060  -17.4550   -4.8560 C   0  0  1  0  0  0
  -18.9040  -18.7810   -4.6420 O   0  0  0  0  0  0
  -18.4760  -16.7220   -5.6230 C   0  0  1  0  0  0
  -18.3520  -15.3770   -5.2930 O   0  0  0  0  0  0
  -17.2100  -17.4670   -5.4240 C   0  0  1  0  0  0
  -16.2010  -16.6740   -4.9690 O   0  0  0  0  0  0
  -17.5630  -18.4520   -4.3660 C   0  0  2  0  0  0
  -16.5940  -19.5660   -4.1710 N   0  0  0  0  0  0
  -16.9130  -20.7080   -3.5640 C   0  0  0  0  0  0
  -15.8450  -21.5180   -3.5220 N   0  0  0  0  0  0
  -14.7980  -20.8830   -4.0890 C   0  0  0  0  0  0
  -13.4550  -21.2210   -4.3140 C   0  0  0  0  0  0
  -12.9730  -22.4350   -3.9150 O   0  0  0  0  0  0
  -12.6320  -20.3430   -4.9230 N   0  0  0  0  0  0
  -13.1130  -19.1540   -5.3130 C   0  0  0  0  0  0
  -12.2320  -18.2140   -5.9830 N   0  0  0  0  0  0
  -14.3910  -18.8050   -5.1080 N   0  0  0  0  0  0
  -15.2700  -19.6370   -4.4990 C   0  0  0  0  0  0
  -18.4802  -14.8908   -8.6293 H   0  0  0  0  0  0
  -16.8900  -14.7686   -9.4557 H   0  0  0  0  0  0
  -17.7172  -16.3849  -10.3648 H   0  0  0  0  0  0
  -18.7827  -17.2735   -7.6088 H   0  0  0  0  0  0
  -19.1710  -19.3751   -8.6625 H   0  0  0  0  0  0
  -20.6190  -18.4972  -10.4228 H   0  0  0  0  0  0
  -17.0206  -18.6586  -10.6446 H   0  0  0  0  0  0
  -18.6069  -21.0903   -8.5502 H   0  0  0  0  0  0
  -12.3387  -22.6123   -9.9491 H   0  0  0  0  0  0
  -11.2488  -20.6569  -10.7997 H   0  0  0  0  0  0
  -12.2362  -19.0359  -10.9654 H   0  0  0  0  0  0
  -21.0648  -16.4973   -5.6763 H   0  0  0  0  0  0
  -21.4121  -18.0758   -4.8925 H   0  0  0  0  0  0
  -19.7973  -16.9559   -3.9200 H   0  0  0  0  0  0
  -18.7690  -16.6138   -6.6777 H   0  0  0  0  0  0
  -16.7773  -17.8593   -6.3561 H   0  0  0  0  0  0
  -15.7961  -15.8770   -5.6100 H   0  0  0  0  0  0
  -17.5460  -18.0417   -3.3455 H   0  0  0  0  0  0
  -17.8968  -20.9486   -3.1610 H   0  0  0  0  0  0
  -11.5778  -20.6057   -5.0951 H   0  0  0  0  0  0
  -11.1794  -18.4785   -6.1621 H   0  0  0  0  0  0
  -12.6172  -17.2374   -6.3114 H   0  0  0  0  0  0
  1  2  2  0  0  0
  1  3  1  0  0  0
  1  4  1  0  0  0
  1 32  1  0  0  0
  4  5  1  0  0  0
  5  6  1  0  0  0
  5 47  1  0  0  0
  5 48  1  0  0  0
  6  7  1  0  0  0
  6  8  1  0  0  0
  6 49  1  0  0  0
  7 12  1  0  0  0
  8  9  1  0  0  0
  8 10  1  0  0  0
  8 50  1  0  0  0
  9 24  1  0  0  0
 10 11  1  0  0  0
 10 12  1  0  0  0
 10 51  1  0  0  0
 11 52  1  0  0  0
 12 13  1  0  0  0
 12 53  1  0  0  0
 13 14  1  0  0  0
 13 23  1  0  0  0
 14 15  2  0  0  0
 14 54  1  0  0  0
 15 16  1  0  0  0
 16 17  1  0  0  0
 16 23  2  0  0  0
 17 18  2  0  0  0
 17 19  1  0  0  0
 19 20  1  0  0  0
 19 55  1  0  0  0
 20 21  1  0  0  0
 20 22  2  0  0  0
 21 56  1  0  0  0
 21 57  1  0  0  0
 22 23  1  0  0  0
 24 25  2  0  0  0
 24 26  1  0  0  0
 24 27  1  0  0  0
 27 28  1  0  0  0
 28 29  1  0  0  0
 28 58  1  0  0  0
 28 59  1  0  0  0
 29 30  1  0  0  0
 29 31  1  0  0  0
 29 60  1  0  0  0
 30 35  1  0  0  0
 31 32  1  0  0  0
 31 33  1  0  0  0
 31 61  1  0  0  0
 33 34  1  0  0  0
 33 35  1  0  0  0
 33 62  1  0  0  0
 34 63  1  0  0  0
 35 36  1  0  0  0
 35 64  1  0  0  0
 36 37  1  0  0  0
 36 46  1  0  0  0
 37 38  2  0  0  0
 37 65  1  0  0  0
 38 39  1  0  0  0
 39 40  1  0  0  0
 39 46  2  0  0  0
 40 41  2  0  0  0
 40 42  1  0  0  0
 42 43  1  0  0  0
 42 66  1  0  0  0
 43 44  1  0  0  0
 43 45  2  0  0  0
 44 67  1  0  0  0
 44 68  1  0  0  0
 45 46  1  0  0  0
M  CHG  2   3  -1  26  -1
M  END
> <s_m_source_file>
../4kby_ligand.sdf

> <i_m_source_file_index>
1

> <s_epik_input>
Tz1jMVtuSF1jKFtOSDJdKW5jKGMxMiluKFtjSF1uMilbQ0BIXShPMylbQ0BIXShbT0hdKVtDQEhdKE9bUEBdKD1PKShbT0hdKU9bQ0gyXTQpW0NASF0zW0NIMl1PW1BAQF0oPU8pKFtPSF0pT1tDQEhdKFtDQEBIXTQ1KVtDQEBIXShbT0hdKVtDQEBIXShPNSluKFtjSF1uNiljKGM2NyluYyhbTkgyXSlbbkhdYzc9Tw==

> <s_epik_cmdline>
J2VwaWtfYXBwJywgJy1pbWFlJywgJ2xpZ2FuZF9wcm8ubWFlJywgJy1vbWFlJywgJ2xpZ2FuZF9wcmVwLm1hZScsICctbXMnLCAnMScsICctcGgnLCAnNycsICctcGh0JywgJzAuNScsICctbnQn

> <r_lp_tautomer_probability>
1

> <r_epik_Ionization_Penalty>
  0.0042

> <r_epik_Ionization_Penalty_Charging>
  0.0040

> <r_epik_Ionization_Penalty_Neutral>
  0.0002

> <r_epik_State_Penalty>
 -0.0000

> <r_epik_Charging_Adjusted_Penalty>
0.00400193045734951

> <i_epik_Tot_Q>
-2

> <i_epik_Tot_abs_Q>
2

> <s_epik_Chemistry_Notes>
This compound contains an acetal/aminal-like group ( X-CH(R)-Y where X, Y are N, S, or O) that may be acid/base labile, releasing an aldehyde.

$$$$
