4kc1_ligand
                    3D
 Schrodinger Suite 2020-3.
 45 47  0  0  1  0            999 V2000
   17.9670   23.6360   11.3430 O   0  0  0  0  0  0
   17.4970   23.5590   10.1830 C   0  0  0  0  0  0
   18.1330   24.1720    9.1740 N   0  0  0  0  0  0
   17.6570   24.1120    7.9260 C   0  0  0  0  0  0
   18.2680   24.6880    7.0080 O   0  0  0  0  0  0
   16.3230   22.8440    9.9320 C   0  0  0  0  0  0
   15.8230   22.7750    8.6290 C   0  0  0  0  0  0
   16.4770   23.3970    7.6300 N   0  0  0  0  0  0
   15.9870   23.3680    6.2360 C   0  0  2  0  0  0
   14.6660   22.8160    6.1900 O   0  0  0  0  0  0
   16.8630   22.5090    5.3290 C   0  0  2  0  0  0
   16.8990   23.0470    3.9930 O   0  0  0  0  0  0
   16.1050   21.2030    5.3130 C   0  0  2  0  0  0
   16.4370   20.4110    4.1710 O   0  0  0  0  0  0
   14.6500   21.6700    5.3320 C   0  0  1  0  0  0
   13.6100   20.6550    5.8180 C   0  0  0  0  0  0
   14.0200   19.9300    7.0130 N   0  0  0  0  0  0
   14.6140   18.7390    6.9170 C   0  0  0  0  0  0
   15.0590   18.3190    5.8480 O   0  0  0  0  0  0
   14.7600   17.8610    8.1250 C   0  0  0  0  0  0
   14.3460   18.2560    9.3990 C   0  0  0  0  0  0
   14.5200   17.3720   10.4660 C   0  0  0  0  0  0
   15.0980   16.1200   10.2420 C   0  0  0  0  0  0
   15.4910   15.7710    8.9510 C   0  0  0  0  0  0
   15.3170   16.6450    7.9350 N   0  0  0  0  0  0
   16.1190   14.4290    8.6500 C   0  0  0  0  0  0
   16.3220   14.3340    7.2370 O   0  0  0  0  0  0
   19.0589   24.7334    9.3677 H   0  0  0  0  0  0
   15.8007   22.3434   10.7473 H   0  0  0  0  0  0
   14.9078   22.2202    8.4224 H   0  0  0  0  0  0
   15.9529   24.4154    5.9018 H   0  0  0  0  0  0
   17.9211   22.4487    5.6236 H   0  0  0  0  0  0
   17.4103   24.0012    3.7979 H   0  0  0  0  0  0
   16.3685   20.4947    6.1123 H   0  0  0  0  0  0
   17.4579   20.0193    4.0513 H   0  0  0  0  0  0
   14.3192   21.9279    4.3151 H   0  0  0  0  0  0
   12.6713   21.1770    6.0554 H   0  0  0  0  0  0
   13.4265   19.9114    5.0285 H   0  0  0  0  0  0
   13.8408   20.3636    8.0079 H   0  0  0  0  0  0
   13.8956   19.2358    9.5575 H   0  0  0  0  0  0
   14.2060   17.6578   11.4699 H   0  0  0  0  0  0
   15.2402   15.4233   11.0682 H   0  0  0  0  0  0
   17.0821   14.3488    9.1754 H   0  0  0  0  0  0
   15.4482   13.6259    8.9893 H   0  0  0  0  0  0
   16.7721   13.4277    6.8057 H   0  0  0  0  0  0
  1  2  2  0  0  0
  2  3  1  0  0  0
  2  6  1  0  0  0
  3  4  1  0  0  0
  3 28  1  0  0  0
  4  5  2  0  0  0
  4  8  1  0  0  0
  6  7  2  0  0  0
  6 29  1  0  0  0
  7  8  1  0  0  0
  7 30  1  0  0  0
  8  9  1  0  0  0
  9 10  1  0  0  0
  9 11  1  0  0  0
  9 31  1  0  0  0
 10 15  1  0  0  0
 11 12  1  0  0  0
 11 13  1  0  0  0
 11 32  1  0  0  0
 12 33  1  0  0  0
 13 14  1  0  0  0
 13 15  1  0  0  0
 13 34  1  0  0  0
 14 35  1  0  0  0
 15 16  1  0  0  0
 15 36  1  0  0  0
 16 17  1  0  0  0
 16 37  1  0  0  0
 16 38  1  0  0  0
 17 18  1  0  0  0
 17 39  1  0  0  0
 18 19  2  0  0  0
 18 20  1  0  0  0
 20 21  2  0  0  0
 20 25  1  0  0  0
 21 22  1  0  0  0
 21 40  1  0  0  0
 22 23  2  0  0  0
 22 41  1  0  0  0
 23 24  1  0  0  0
 23 42  1  0  0  0
 24 25  2  0  0  0
 24 26  1  0  0  0
 26 27  1  0  0  0
 26 43  1  0  0  0
 26 44  1  0  0  0
 27 45  1  0  0  0
M  END
> <s_m_source_file>
../4kc1_ligand.sdf

> <i_m_source_file_index>
1

> <s_epik_input>
Tz1jMVtuSF1jKD1PKW4oW2NIXVtjSF0xKVtDQEBIXTJPW0NAQEhdKFtDQEBIXShbT0hdKVtDQEhdMltPSF0pW0NIMl1bTkhdQyg9TyljM1tjSF1bY0hdW2NIXWMobjMpW0NIMl1bT0hd

> <s_epik_cmdline>
J2VwaWtfYXBwJywgJy1pbWFlJywgJ2xpZ2FuZF9wcm8ubWFlJywgJy1vbWFlJywgJ2xpZ2FuZF9wcmVwLm1hZScsICctbXMnLCAnMScsICctcGgnLCAnNycsICctcGh0JywgJzAuNScsICctbnQn

> <r_lp_tautomer_probability>
1

> <r_epik_Ionization_Penalty>
  0.0030

> <r_epik_Ionization_Penalty_Charging>
  0.0026

> <r_epik_Ionization_Penalty_Neutral>
  0.0004

> <r_epik_State_Penalty>
 -0.0000

> <r_epik_Charging_Adjusted_Penalty>
0.00261371589727206

> <i_epik_Tot_Q>
0

> <i_epik_Tot_abs_Q>
0

> <s_epik_Chemistry_Notes>
This compound contains an acetal/aminal-like group ( X-CH(R)-Y where X, Y are N, S, or O) that may be acid/base labile, releasing an aldehyde.

$$$$
