4kc2_ligand
                    3D
 Schrodinger Suite 2020-3.
 45 47  0  0  1  0            999 V2000
   17.9810   23.6120   11.2450 O   0  0  0  0  0  0
   17.4920   23.5780   10.0860 C   0  0  0  0  0  0
   18.1390   24.1820    9.0760 N   0  0  0  0  0  0
   17.6510   24.1570    7.8260 C   0  0  0  0  0  0
   18.2810   24.7260    6.9120 O   0  0  0  0  0  0
   16.2900   22.9060    9.8430 C   0  0  0  0  0  0
   15.7750   22.8790    8.5430 C   0  0  0  0  0  0
   16.4350   23.4880    7.5410 N   0  0  0  0  0  0
   15.9160   23.4750    6.1610 C   0  0  2  0  0  0
   14.6010   22.9100    6.1140 O   0  0  0  0  0  0
   16.7950   22.5830    5.2920 C   0  0  2  0  0  0
   16.8410   23.0820    3.9440 O   0  0  0  0  0  0
   16.0510   21.2690    5.3080 C   0  0  2  0  0  0
   16.3730   20.4590    4.1750 O   0  0  0  0  0  0
   14.5990   21.7310    5.3050 C   0  0  1  0  0  0
   13.5610   20.7300    5.8190 C   0  0  0  0  0  0
   13.9870   20.0050    7.0040 N   0  0  0  0  0  0
   14.5410   18.7950    6.9210 C   0  0  0  0  0  0
   14.9740   18.3660    5.8580 O   0  0  0  0  0  0
   14.6620   17.9240    8.1420 C   0  0  0  0  0  0
   14.1020   18.3020    9.3660 C   0  0  0  0  0  0
   14.2420   17.4560   10.4700 C   0  0  0  0  0  0
   14.9390   16.2550   10.3330 C   0  0  0  0  0  0
   15.4790   15.9100    9.0930 C   0  0  0  0  0  0
   15.3350   16.7500    8.0370 N   0  0  0  0  0  0
   16.2470   14.6130    8.9180 C   0  0  0  0  0  0
   16.3620   14.3010    7.5280 O   0  0  0  0  0  0
   19.0857   24.7088    9.2662 H   0  0  0  0  0  0
   15.7611   22.4095   10.6565 H   0  0  0  0  0  0
   14.8363   22.3631    8.3409 H   0  0  0  0  0  0
   15.8559   24.5207    5.8250 H   0  0  0  0  0  0
   17.8493   22.5315    5.6015 H   0  0  0  0  0  0
   17.3448   24.0356    3.7274 H   0  0  0  0  0  0
   16.3246   20.5844    6.1244 H   0  0  0  0  0  0
   17.3910   20.0595    4.0560 H   0  0  0  0  0  0
   14.2764   21.9512    4.2767 H   0  0  0  0  0  0
   12.6338   21.2629    6.0764 H   0  0  0  0  0  0
   13.3510   19.9855    5.0370 H   0  0  0  0  0  0
   13.8553   20.4531    7.9999 H   0  0  0  0  0  0
   13.5628   19.2448    9.4583 H   0  0  0  0  0  0
   13.8095   17.7327   11.4315 H   0  0  0  0  0  0
   15.0610   15.5907   11.1885 H   0  0  0  0  0  0
   17.2526   14.7212    9.3505 H   0  0  0  0  0  0
   15.7133   13.7988    9.4301 H   0  0  0  0  0  0
   16.8912   13.3903    7.2107 H   0  0  0  0  0  0
  1  2  2  0  0  0
  2  3  1  0  0  0
  2  6  1  0  0  0
  3  4  1  0  0  0
  3 28  1  0  0  0
  4  5  2  0  0  0
  4  8  1  0  0  0
  6  7  2  0  0  0
  6 29  1  0  0  0
  7  8  1  0  0  0
  7 30  1  0  0  0
  8  9  1  0  0  0
  9 10  1  0  0  0
  9 11  1  0  0  0
  9 31  1  0  0  0
 10 15  1  0  0  0
 11 12  1  0  0  0
 11 13  1  0  0  0
 11 32  1  0  0  0
 12 33  1  0  0  0
 13 14  1  0  0  0
 13 15  1  0  0  0
 13 34  1  0  0  0
 14 35  1  0  0  0
 15 16  1  0  0  0
 15 36  1  0  0  0
 16 17  1  0  0  0
 16 37  1  0  0  0
 16 38  1  0  0  0
 17 18  1  0  0  0
 17 39  1  0  0  0
 18 19  2  0  0  0
 18 20  1  0  0  0
 20 21  2  0  0  0
 20 25  1  0  0  0
 21 22  1  0  0  0
 21 40  1  0  0  0
 22 23  2  0  0  0
 22 41  1  0  0  0
 23 24  1  0  0  0
 23 42  1  0  0  0
 24 25  2  0  0  0
 24 26  1  0  0  0
 26 27  1  0  0  0
 26 43  1  0  0  0
 26 44  1  0  0  0
 27 45  1  0  0  0
M  END
> <s_m_source_file>
../4kc2_ligand.sdf

> <i_m_source_file_index>
1

> <s_epik_input>
Tz1jMVtuSF1jKD1PKW4oW2NIXVtjSF0xKVtDQEBIXTJPW0NAQEhdKFtDQEBIXShbT0hdKVtDQEhdMltPSF0pW0NIMl1bTkhdQyg9TyljM1tjSF1bY0hdW2NIXWMobjMpW0NIMl1bT0hd

> <s_epik_cmdline>
J2VwaWtfYXBwJywgJy1pbWFlJywgJ2xpZ2FuZF9wcm8ubWFlJywgJy1vbWFlJywgJ2xpZ2FuZF9wcmVwLm1hZScsICctbXMnLCAnMScsICctcGgnLCAnNycsICctcGh0JywgJzAuNScsICctbnQn

> <r_lp_tautomer_probability>
1

> <r_epik_Ionization_Penalty>
  0.0030

> <r_epik_Ionization_Penalty_Charging>
  0.0026

> <r_epik_Ionization_Penalty_Neutral>
  0.0004

> <r_epik_State_Penalty>
 -0.0000

> <r_epik_Charging_Adjusted_Penalty>
0.00261371589727206

> <i_epik_Tot_Q>
0

> <i_epik_Tot_abs_Q>
0

> <s_epik_Chemistry_Notes>
This compound contains an acetal/aminal-like group ( X-CH(R)-Y where X, Y are N, S, or O) that may be acid/base labile, releasing an aldehyde.

$$$$
