4kc4_ligand
                    3D
 Schrodinger Suite 2020-3.
 45 47  0  0  1  0            999 V2000
   17.9710   23.7190   11.2720 O   0  0  0  0  0  0
   17.5040   23.6300   10.1120 C   0  0  0  0  0  0
   18.1520   24.2200    9.0960 N   0  0  0  0  0  0
   17.6810   24.1460    7.8420 C   0  0  0  0  0  0
   18.2980   24.7080    6.9240 O   0  0  0  0  0  0
   16.3280   22.9170    9.8680 C   0  0  0  0  0  0
   15.8320   22.8400    8.5650 C   0  0  0  0  0  0
   16.4920   23.4360    7.5500 N   0  0  0  0  0  0
   16.0000   23.3880    6.1590 C   0  0  2  0  0  0
   14.6800   22.8300    6.1120 O   0  0  0  0  0  0
   16.8830   22.5090    5.2720 C   0  0  2  0  0  0
   16.9270   22.9990    3.9170 O   0  0  0  0  0  0
   16.1380   21.1990    5.2740 C   0  0  2  0  0  0
   16.4820   20.4250    4.1210 O   0  0  0  0  0  0
   14.6830   21.6600    5.2850 C   0  0  1  0  0  0
   13.6480   20.6540    5.7940 C   0  0  0  0  0  0
   14.1080   19.9340    6.9710 N   0  0  0  0  0  0
   14.7070   18.7480    6.8620 C   0  0  0  0  0  0
   15.1270   18.3300    5.7810 O   0  0  0  0  0  0
   14.8800   17.9010    8.0900 C   0  0  0  0  0  0
   14.4290   18.3410    9.3390 C   0  0  0  0  0  0
   14.6070   17.5240   10.4560 C   0  0  0  0  0  0
   15.2320   16.2860   10.3010 C   0  0  0  0  0  0
   15.6680   15.8820    9.0360 C   0  0  0  0  0  0
   15.4840   16.6940    7.9670 N   0  0  0  0  0  0
   16.3460   14.5400    8.8610 C   0  0  0  0  0  0
   16.2920   14.1350    7.4900 O   0  0  0  0  0  0
   19.0832   24.7741    9.2853 H   0  0  0  0  0  0
   15.8025   22.4255   10.6868 H   0  0  0  0  0  0
   14.9082   22.2964    8.3670 H   0  0  0  0  0  0
   15.9587   24.4322    5.8155 H   0  0  0  0  0  0
   17.9376   22.4697    5.5823 H   0  0  0  0  0  0
   17.4299   23.9512    3.6925 H   0  0  0  0  0  0
   16.3959   20.4964    6.0802 H   0  0  0  0  0  0
   17.5048   20.0376    4.0038 H   0  0  0  0  0  0
   14.3601   21.8900    4.2589 H   0  0  0  0  0  0
   12.7216   21.1840    6.0602 H   0  0  0  0  0  0
   13.4350   19.9166    5.0061 H   0  0  0  0  0  0
   13.9638   20.3670    7.9719 H   0  0  0  0  0  0
   13.9436   19.3119    9.4385 H   0  0  0  0  0  0
   14.2621   17.8488   11.4377 H   0  0  0  0  0  0
   15.3797   15.6362   11.1636 H   0  0  0  0  0  0
   17.3981   14.6173    9.1727 H   0  0  0  0  0  0
   15.8348   13.7875    9.4794 H   0  0  0  0  0  0
   16.7390   13.1786    7.1810 H   0  0  0  0  0  0
  1  2  2  0  0  0
  2  3  1  0  0  0
  2  6  1  0  0  0
  3  4  1  0  0  0
  3 28  1  0  0  0
  4  5  2  0  0  0
  4  8  1  0  0  0
  6  7  2  0  0  0
  6 29  1  0  0  0
  7  8  1  0  0  0
  7 30  1  0  0  0
  8  9  1  0  0  0
  9 10  1  0  0  0
  9 11  1  0  0  0
  9 31  1  0  0  0
 10 15  1  0  0  0
 11 12  1  0  0  0
 11 13  1  0  0  0
 11 32  1  0  0  0
 12 33  1  0  0  0
 13 14  1  0  0  0
 13 15  1  0  0  0
 13 34  1  0  0  0
 14 35  1  0  0  0
 15 16  1  0  0  0
 15 36  1  0  0  0
 16 17  1  0  0  0
 16 37  1  0  0  0
 16 38  1  0  0  0
 17 18  1  0  0  0
 17 39  1  0  0  0
 18 19  2  0  0  0
 18 20  1  0  0  0
 20 21  2  0  0  0
 20 25  1  0  0  0
 21 22  1  0  0  0
 21 40  1  0  0  0
 22 23  2  0  0  0
 22 41  1  0  0  0
 23 24  1  0  0  0
 23 42  1  0  0  0
 24 25  2  0  0  0
 24 26  1  0  0  0
 26 27  1  0  0  0
 26 43  1  0  0  0
 26 44  1  0  0  0
 27 45  1  0  0  0
M  END
> <s_m_source_file>
../4kc4_ligand.sdf

> <i_m_source_file_index>
1

> <s_epik_input>
Tz1jMVtuSF1jKD1PKW4oW2NIXVtjSF0xKVtDQEBIXTJPW0NAQEhdKFtDQEBIXShbT0hdKVtDQEhdMltPSF0pW0NIMl1bTkhdQyg9TyljM1tjSF1bY0hdW2NIXWMobjMpW0NIMl1bT0hd

> <s_epik_cmdline>
J2VwaWtfYXBwJywgJy1pbWFlJywgJ2xpZ2FuZF9wcm8ubWFlJywgJy1vbWFlJywgJ2xpZ2FuZF9wcmVwLm1hZScsICctbXMnLCAnMScsICctcGgnLCAnNycsICctcGh0JywgJzAuNScsICctbnQn

> <r_lp_tautomer_probability>
1

> <r_epik_Ionization_Penalty>
  0.0030

> <r_epik_Ionization_Penalty_Charging>
  0.0026

> <r_epik_Ionization_Penalty_Neutral>
  0.0004

> <r_epik_State_Penalty>
 -0.0000

> <r_epik_Charging_Adjusted_Penalty>
0.00261371589727206

> <i_epik_Tot_Q>
0

> <i_epik_Tot_abs_Q>
0

> <s_epik_Chemistry_Notes>
This compound contains an acetal/aminal-like group ( X-CH(R)-Y where X, Y are N, S, or O) that may be acid/base labile, releasing an aldehyde.

$$$$
