4kcg_ligand
                    3D
 Schrodinger Suite 2020-3.
 62 64  0  0  1  0            999 V2000
  -38.1030    9.6770    2.8670 C   0  0  0  0  0  0
  -37.5630    8.2960    1.8620 S   0  0  0  0  0  0
  -38.3940    7.0420    2.1690 O   0  0  0  0  0  0
  -36.0740    8.0760    2.2020 O   0  0  0  0  0  0
  -37.7380    8.5840    0.1760 N   0  0  3  0  0  0
  -36.7120    7.8740   -0.6390 C   0  0  0  0  0  0
  -35.9050    8.8500   -1.5350 C   0  0  0  0  0  0
  -36.7830    9.9060   -1.9520 O   0  0  0  0  0  0
  -36.3040   10.8000   -2.8340 C   0  0  0  0  0  0
  -34.9490   11.0830   -2.9360 C   0  0  0  0  0  0
  -37.2560   11.4350   -3.6260 C   0  0  0  0  0  0
  -38.5510   11.0670   -3.4250 O   0  0  0  0  0  0
  -39.4930   11.6540   -4.3440 C   0  0  0  0  0  0
  -36.8540   12.3750   -4.5560 C   0  0  0  0  0  0
  -35.4920   12.6550   -4.6610 C   0  0  0  0  0  0
  -34.5320   12.0110   -3.8740 C   0  0  0  0  0  0
  -33.2290   12.3200   -3.9820 C   0  0  0  0  0  0
  -32.2640   11.9720   -3.1230 N   0  0  0  0  0  0
  -32.5780   13.2320   -5.1530 S   0  0  0  0  0  0
  -31.0510   13.1860   -4.5880 C   0  0  0  0  0  0
  -29.8120   13.8750   -5.2420 C   0  0  0  0  0  0
  -29.9690   15.4050   -5.2940 C   0  0  0  0  0  0
  -29.6140   16.0480   -3.9300 C   0  0  0  0  0  0
  -31.0490   12.4460   -3.4640 C   0  0  0  0  0  0
  -29.7730   12.1500   -2.6430 C   0  0  0  0  0  0
  -28.9190   10.5720   -3.0760 S   0  0  0  0  0  0
  -27.2300   11.0230   -3.4750 C   0  0  0  0  0  0
  -26.2620   10.0970   -3.6080 N   0  0  0  0  0  0
  -26.9230   12.2990   -3.6400 N   0  0  0  0  0  0
  -25.6790   12.6930   -3.9210 C   0  0  0  0  0  0
  -25.4920   14.0010   -4.0780 N   0  0  0  0  0  0
  -24.6320   11.7600   -4.0620 C   0  0  0  0  0  0
  -24.9810   10.4290   -3.8730 C   0  0  0  0  0  0
  -24.0620    9.4840   -3.9640 N   0  0  0  0  0  0
  -37.9663    9.4320    3.9306 H   0  0  0  0  0  0
  -39.1663    9.8794    2.6710 H   0  0  0  0  0  0
  -37.5080   10.5676    2.6165 H   0  0  0  0  0  0
  -38.3905    9.3347   -0.2937 H   0  0  0  0  0  0
  -36.0067    7.3574    0.0285 H   0  0  0  0  0  0
  -37.2061    7.1382   -1.2905 H   0  0  0  0  0  0
  -35.0626    9.2633   -0.9609 H   0  0  0  0  0  0
  -35.5205    8.3094   -2.4125 H   0  0  0  0  0  0
  -34.2272   10.5838   -2.2896 H   0  0  0  0  0  0
  -40.5070   11.3006   -4.1053 H   0  0  0  0  0  0
  -39.2346   11.3596   -5.3719 H   0  0  0  0  0  0
  -39.4565   12.7499   -4.2563 H   0  0  0  0  0  0
  -37.5810   12.8831   -5.1895 H   0  0  0  0  0  0
  -35.1637   13.4030   -5.3827 H   0  0  0  0  0  0
  -28.9106   13.6404   -4.6568 H   0  0  0  0  0  0
  -29.6876   13.5058   -6.2707 H   0  0  0  0  0  0
  -29.2981   15.8165   -6.0625 H   0  0  0  0  0  0
  -31.0102   15.6585   -5.5424 H   0  0  0  0  0  0
  -29.7349   17.1393   -3.9966 H   0  0  0  0  0  0
  -28.5715   15.8096   -3.6725 H   0  0  0  0  0  0
  -30.2836   15.6516   -3.1525 H   0  0  0  0  0  0
  -29.0422   12.9575   -2.7974 H   0  0  0  0  0  0
  -30.0302   12.0874   -1.5753 H   0  0  0  0  0  0
  -26.3367   14.6955   -3.9590 H   0  0  0  0  0  0
  -24.4927   14.3878   -4.3267 H   0  0  0  0  0  0
  -23.6135   12.0636   -4.3039 H   0  0  0  0  0  0
  -24.3399    8.4303   -3.8141 H   0  0  0  0  0  0
  -23.0190    9.7510   -4.1897 H   0  0  0  0  0  0
  1  2  1  0  0  0
  1 35  1  0  0  0
  1 36  1  0  0  0
  1 37  1  0  0  0
  2  3  2  0  0  0
  2  4  2  0  0  0
  2  5  1  0  0  0
  5  6  1  0  0  0
  5 38  1  0  0  0
  6  7  1  0  0  0
  6 39  1  0  0  0
  6 40  1  0  0  0
  7  8  1  0  0  0
  7 41  1  0  0  0
  7 42  1  0  0  0
  8  9  1  0  0  0
  9 10  2  0  0  0
  9 11  1  0  0  0
 10 16  1  0  0  0
 10 43  1  0  0  0
 11 12  1  0  0  0
 11 14  2  0  0  0
 12 13  1  0  0  0
 13 44  1  0  0  0
 13 45  1  0  0  0
 13 46  1  0  0  0
 14 15  1  0  0  0
 14 47  1  0  0  0
 15 16  2  0  0  0
 15 48  1  0  0  0
 16 17  1  0  0  0
 17 18  2  0  0  0
 17 19  1  0  0  0
 18 24  1  0  0  0
 19 20  1  0  0  0
 20 21  1  0  0  0
 20 24  2  0  0  0
 21 22  1  0  0  0
 21 49  1  0  0  0
 21 50  1  0  0  0
 22 23  1  0  0  0
 22 51  1  0  0  0
 22 52  1  0  0  0
 23 53  1  0  0  0
 23 54  1  0  0  0
 23 55  1  0  0  0
 24 25  1  0  0  0
 25 26  1  0  0  0
 25 56  1  0  0  0
 25 57  1  0  0  0
 26 27  1  0  0  0
 27 28  2  0  0  0
 27 29  1  0  0  0
 28 33  1  0  0  0
 29 30  2  0  0  0
 30 31  1  0  0  0
 30 32  1  0  0  0
 31 58  1  0  0  0
 31 59  1  0  0  0
 32 33  2  0  0  0
 32 60  1  0  0  0
 33 34  1  0  0  0
 34 61  1  0  0  0
 34 62  1  0  0  0
M  END
> <s_m_source_file>
../4kcg_ligand.sdf

> <i_m_source_file_index>
1

> <s_epik_input>
W0NIM11TKD1PKSg9TylbTkhdW0NIMl1bQ0gyXU9jMVtjSF1jKFtjSF1bY0hdYzFPW0NIM10pLWMybmMoYyhzMilbQ0gyXVtDSDJdW0NIM10pW0NIMl1TYzNuYyhbTkgyXSlbY0hdYyhuMylbTkgyXQ==

> <s_epik_cmdline>
J2VwaWtfYXBwJywgJy1pbWFlJywgJ2xpZ2FuZF9wcm8ubWFlJywgJy1vbWFlJywgJ2xpZ2FuZF9wcmVwLm1hZScsICctbXMnLCAnMScsICctcGgnLCAnNycsICctcGh0JywgJzAuNScsICctbnQn

> <r_lp_tautomer_probability>
1

> <r_epik_Ionization_Penalty>
  0.0026

> <r_epik_Ionization_Penalty_Charging>
  0.0000

> <r_epik_Ionization_Penalty_Neutral>
  0.0026

> <r_epik_State_Penalty>
 -0.0000

> <r_epik_Charging_Adjusted_Penalty>
0

> <i_epik_Tot_Q>
0

> <i_epik_Tot_abs_Q>
0

$$$$
