4ke1_ligand
                    3D
 Schrodinger Suite 2020-3.
 83 88  0  0  1  0            999 V2000
   61.5320   46.1340    9.1980 C   0  0  0  0  0  0
   61.3230   44.6630    8.8160 C   0  0  0  0  0  0
   62.7340   44.3450    9.3440 C   0  0  0  0  0  0
   63.0310   45.8480    9.3580 C   0  0  0  0  0  0
   63.8370   46.3040    8.1350 C   0  0  0  0  0  0
   63.5750   46.3350   10.5970 O   0  0  0  0  0  0
   63.7990   47.6890   10.6690 C   0  0  0  0  0  0
   63.9030   48.2700   11.9380 C   0  0  0  0  0  0
   64.1260   49.6410   12.0720 C   0  0  0  0  0  0
   64.2660   50.4390   10.9290 C   0  0  0  0  0  0
   64.5210   51.9420   11.0830 C   0  0  0  0  0  0
   63.3020   52.7610   10.6650 C   0  0  0  0  0  0
   64.1830   49.8630    9.6530 C   0  0  0  0  0  0
   63.9610   48.4820    9.5180 C   0  0  0  0  0  0
   63.8410   47.8500    8.1100 C   0  0  1  0  0  0
   64.8740   48.3230    7.1720 N   0  3  0  0  0  0
   66.2800   48.0650    7.5560 C   0  0  0  0  0  0
   67.1540   49.0640    6.7850 C   0  0  1  0  0  0
   66.6620   50.3840    7.0440 O   0  0  0  0  0  0
   68.6220   49.0410    7.2460 C   0  0  2  0  0  0
   69.4450   50.1480    6.5540 C   0  0  0  0  0  0
   70.9620   49.9040    6.6780 C   0  0  0  0  0  0
   71.6920   49.4160    5.6000 C   0  0  0  0  0  0
   71.6110   50.1700    7.8800 C   0  0  0  0  0  0
   72.9860   49.9480    7.9890 C   0  0  0  0  0  0
   73.7130   49.4480    6.9110 C   0  0  0  0  0  0
   73.0690   49.1920    5.7040 C   0  0  0  0  0  0
   73.8530   48.6410    4.5070 C   0  0  0  0  0  0
   74.1880   47.1510    4.6920 C   0  0  0  0  0  0
   73.0500   46.2290    4.2540 C   0  0  0  0  0  0
   73.1010   44.8830    5.0150 C   0  0  0  0  0  0
   71.8780   44.6900    5.8430 N   0  0  0  0  0  0
   71.3060   45.7840    6.4860 C   0  0  0  0  0  0
   71.2730   43.4090    5.9950 C   0  0  0  0  0  0
   71.7440   42.4170    5.4390 O   0  0  0  0  0  0
   70.1250   43.2570    6.7760 C   0  0  0  0  0  0
   69.5620   44.3670    7.4040 C   0  0  0  0  0  0
   70.1700   45.6180    7.2670 C   0  0  0  0  0  0
   69.5540   46.8520    7.8870 C   0  0  0  0  0  0
   69.3050   46.9530    9.0840 O   0  0  0  0  0  0
   69.2190   47.7420    6.9470 N   0  0  0  0  0  0
   61.2054   46.7782    8.3684 H   0  0  0  0  0  0
   60.9424   46.3667   10.0970 H   0  0  0  0  0  0
   60.4572   44.2616    9.3630 H   0  0  0  0  0  0
   61.1402   44.5876    7.7339 H   0  0  0  0  0  0
   62.6552   43.8150   10.3047 H   0  0  0  0  0  0
   63.2630   43.7106    8.6176 H   0  0  0  0  0  0
   64.8664   45.9240    8.2118 H   0  0  0  0  0  0
   63.3687   45.9118    7.2202 H   0  0  0  0  0  0
   63.8092   47.6474   12.8277 H   0  0  0  0  0  0
   64.1911   50.0898   13.0632 H   0  0  0  0  0  0
   64.7496   52.1692   12.1347 H   0  0  0  0  0  0
   65.3719   52.2362   10.4510 H   0  0  0  0  0  0
   63.5201   53.8321   10.7882 H   0  0  0  0  0  0
   62.4427   52.4870   11.2947 H   0  0  0  0  0  0
   63.0650   52.5539    9.6110 H   0  0  0  0  0  0
   64.2907   50.4868    8.7656 H   0  0  0  0  0  0
   62.8882   48.2157    7.6995 H   0  0  0  0  0  0
   64.7339   47.8354    6.1960 H   0  0  0  0  0  0
   64.7895   49.4132    7.0527 H   0  0  0  0  0  0
   66.3959   48.2073    8.6406 H   0  0  0  0  0  0
   66.5488   47.0318    7.2909 H   0  0  0  0  0  0
   67.0804   48.8489    5.7088 H   0  0  0  0  0  0
   65.6225   50.6424    6.7938 H   0  0  0  0  0  0
   68.6581   49.1681    8.3380 H   0  0  0  0  0  0
   69.1891   50.1810    5.4847 H   0  0  0  0  0  0
   69.2148   51.1193    7.0162 H   0  0  0  0  0  0
   71.1835   49.2047    4.6593 H   0  0  0  0  0  0
   71.0488   50.5500    8.7330 H   0  0  0  0  0  0
   73.4952   50.1683    8.9272 H   0  0  0  0  0  0
   74.7815   49.2581    7.0123 H   0  0  0  0  0  0
   73.2520   48.7523    3.5925 H   0  0  0  0  0  0
   74.7946   49.1990    4.3971 H   0  0  0  0  0  0
   75.0751   46.8975    4.0930 H   0  0  0  0  0  0
   74.3931   46.9504    5.7539 H   0  0  0  0  0  0
   72.0847   46.7142    4.4609 H   0  0  0  0  0  0
   73.1355   46.0276    3.1760 H   0  0  0  0  0  0
   73.1718   44.0561    4.2931 H   0  0  0  0  0  0
   73.9800   44.8687    5.6762 H   0  0  0  0  0  0
   71.7508   46.7731    6.3762 H   0  0  0  0  0  0
   69.6706   42.2733    6.8941 H   0  0  0  0  0  0
   68.6541   44.2600    7.9976 H   0  0  0  0  0  0
   69.4147   47.4537    5.9036 H   0  0  0  0  0  0
  1  2  1  0  0  0
  1  4  1  0  0  0
  1 42  1  0  0  0
  1 43  1  0  0  0
  2  3  1  0  0  0
  2 44  1  0  0  0
  2 45  1  0  0  0
  3  4  1  0  0  0
  3 46  1  0  0  0
  3 47  1  0  0  0
  4  5  1  0  0  0
  4  6  1  0  0  0
  5 15  1  0  0  0
  5 48  1  0  0  0
  5 49  1  0  0  0
  6  7  1  0  0  0
  7  8  2  0  0  0
  7 14  1  0  0  0
  8  9  1  0  0  0
  8 50  1  0  0  0
  9 10  2  0  0  0
  9 51  1  0  0  0
 10 11  1  0  0  0
 10 13  1  0  0  0
 11 12  1  0  0  0
 11 52  1  0  0  0
 11 53  1  0  0  0
 12 54  1  0  0  0
 12 55  1  0  0  0
 12 56  1  0  0  0
 13 14  2  0  0  0
 13 57  1  0  0  0
 14 15  1  0  0  0
 15 16  1  0  0  0
 15 58  1  0  0  0
 16 17  1  0  0  0
 16 59  1  0  0  0
 16 60  1  0  0  0
 17 18  1  0  0  0
 17 61  1  0  0  0
 17 62  1  0  0  0
 18 19  1  0  0  0
 18 20  1  0  0  0
 18 63  1  0  0  0
 19 64  1  0  0  0
 20 21  1  0  0  0
 20 41  1  0  0  0
 20 65  1  0  0  0
 21 22  1  0  0  0
 21 66  1  0  0  0
 21 67  1  0  0  0
 22 23  2  0  0  0
 22 24  1  0  0  0
 23 27  1  0  0  0
 23 68  1  0  0  0
 24 25  2  0  0  0
 24 69  1  0  0  0
 25 26  1  0  0  0
 25 70  1  0  0  0
 26 27  2  0  0  0
 26 71  1  0  0  0
 27 28  1  0  0  0
 28 29  1  0  0  0
 28 72  1  0  0  0
 28 73  1  0  0  0
 29 30  1  0  0  0
 29 74  1  0  0  0
 29 75  1  0  0  0
 30 31  1  0  0  0
 30 76  1  0  0  0
 30 77  1  0  0  0
 31 32  1  0  0  0
 31 78  1  0  0  0
 31 79  1  0  0  0
 32 33  1  0  0  0
 32 34  1  0  0  0
 33 38  2  0  0  0
 33 80  1  0  0  0
 34 35  2  0  0  0
 34 36  1  0  0  0
 36 37  2  0  0  0
 36 81  1  0  0  0
 37 38  1  0  0  0
 37 82  1  0  0  0
 38 39  1  0  0  0
 39 40  2  0  0  0
 39 41  1  0  0  0
 41 83  1  0  0  0
M  CHG  1  16   1
M  END
> <s_m_source_file>
../4ke1_ligand.sdf

> <i_m_source_file_index>
1

> <s_epik_input>
W0NIM11bQ0gyXWMoW2NIXTEpW2NIXVtjSF1jKE8yKWMxW0NASF0oW0NIMl1DMjNbQ0gyXVtDSDJdW0NIMl0zKVtOSDIrXVtDSDJdW0NAQEhdKFtPSF0pW0NASF0oW0NIMl00KVtOSF1DKD1PKWMoW2NIXVtjSF1jNT1PKVtjSF1uNVtDSDJdW0NIMl1bQ0gyXVtDSDJdYyhbY0hdYzQ2KVtjSF1bY0hdW2NIXTY=

> <s_epik_cmdline>
J2VwaWtfYXBwJywgJy1pbWFlJywgJ2xpZ2FuZF9wcm8ubWFlJywgJy1vbWFlJywgJ2xpZ2FuZF9wcmVwLm1hZScsICctbXMnLCAnMScsICctcGgnLCAnNycsICctcGh0JywgJzAuNScsICctbnQn

> <r_lp_tautomer_probability>
1

> <r_epik_Ionization_Penalty>
  0.0224

> <r_epik_Ionization_Penalty_Charging>
  0.0224

> <r_epik_Ionization_Penalty_Neutral>
  0.0000

> <r_epik_State_Penalty>
  0.0181

> <r_epik_Charging_Adjusted_Penalty>
0.0404503633262216

> <i_epik_Tot_Q>
1

> <i_epik_Tot_abs_Q>
1

$$$$
