4kfp_ligand
                    3D
 Schrodinger Suite 2020-3.
 65 69  0  0  1  0            999 V2000
   15.5550    4.8440    0.0430 C   0  0  0  0  0  0
   16.3210    5.6960    0.8090 C   0  0  0  0  0  0
   16.1860    7.0690    0.6840 C   0  0  0  0  0  0
   17.0690    7.9660    1.5190 C   0  0  0  0  0  0
   14.9810    9.1330    6.7640 C   0  0  0  0  0  0
   14.1240    9.4540    8.9640 C   0  0  0  0  0  0
   13.1270   10.5530    7.1920 C   0  0  0  0  0  0
   15.2300    4.6020   -4.0460 C   0  0  0  0  0  0
   14.1450    2.3810   -3.8010 C   0  0  0  0  0  0
   15.2900    7.5920   -0.2390 C   0  0  0  0  0  0
   14.5190    6.7340   -1.0080 C   0  0  0  0  0  0
   14.6480    5.3550   -0.8690 C   0  0  0  0  0  0
   16.6610    8.1640    2.9080 N   0  0  0  0  0  0
   15.6480    9.0070    3.1440 C   0  0  0  0  0  0
   15.1130    9.5440    2.2030 O   0  0  0  0  0  0
   15.2400    9.2510    4.3910 N   0  0  0  0  0  0
   15.8080    8.6620    5.6110 C   0  0  0  0  0  0
   15.0450    8.8560    8.1240 C   0  0  0  0  0  0
   13.2060   10.2690    8.4800 N   0  0  0  0  0  0
   14.0050    9.9950    6.2890 C   0  0  0  0  0  0
   14.1480   10.1440    4.7980 C   0  0  0  0  0  0
   13.6910    4.2210   -1.8290 S   0  0  0  0  0  0
   13.3060    3.2190   -0.8930 O   0  0  0  0  0  0
   12.7030    4.9790   -2.5090 O   0  0  0  0  0  0
   14.8340    3.5190   -3.0480 C   0  0  2  0  0  0
   16.1440    4.0030   -5.1230 C   0  0  0  0  0  0
   15.4560    2.9150   -5.8350 N   0  3  2  0  0  0
   15.0860    1.8400   -4.8890 C   0  0  0  0  0  0
   16.2950    2.3870   -6.9310 C   0  0  0  0  0  0
   15.5560    1.2730   -7.6810 C   0  0  0  0  0  0
   16.4060    0.7880   -8.8660 C   0  0  0  0  0  0
   16.7250    1.8860   -9.7300 O   0  0  0  0  0  0
   17.4710    2.9170   -9.0840 C   0  0  0  0  0  0
   16.6370    3.4950   -7.9330 C   0  0  0  0  0  0
   15.6637    3.7653    0.1557 H   0  0  0  0  0  0
   17.0391    5.2860    1.5192 H   0  0  0  0  0  0
   18.0849    7.5462    1.5589 H   0  0  0  0  0  0
   17.1041    8.9687    1.0680 H   0  0  0  0  0  0
   14.1564    9.2507   10.0344 H   0  0  0  0  0  0
   12.3564   11.2383    6.8391 H   0  0  0  0  0  0
   14.3261    5.0111   -4.5210 H   0  0  0  0  0  0
   15.7645    5.4071   -3.5206 H   0  0  0  0  0  0
   13.8968    1.5730   -3.0971 H   0  0  0  0  0  0
   13.2227    2.7562   -4.2685 H   0  0  0  0  0  0
   15.1934    8.6711   -0.3582 H   0  0  0  0  0  0
   13.8074    7.1418   -1.7259 H   0  0  0  0  0  0
   17.1818    7.6290    3.7158 H   0  0  0  0  0  0
   16.6740    8.0023    5.6656 H   0  0  0  0  0  0
   15.8046    8.1820    8.5200 H   0  0  0  0  0  0
   13.5566   10.7887    4.1478 H   0  0  0  0  0  0
   15.7842    3.0909   -2.6960 H   0  0  0  0  0  0
   16.4201    4.7848   -5.8459 H   0  0  0  0  0  0
   17.0533    3.6025   -4.6510 H   0  0  0  0  0  0
   14.5374    3.3239   -6.2812 H   0  0  0  0  0  0
   16.0000    1.4460   -4.4205 H   0  0  0  0  0  0
   14.5815    1.0346   -5.4429 H   0  0  0  0  0  0
   17.2053    2.0025   -6.4478 H   0  0  0  0  0  0
   15.3716    0.4309   -6.9978 H   0  0  0  0  0  0
   14.5962    1.6577   -8.0561 H   0  0  0  0  0  0
   17.3393    0.3433   -8.4901 H   0  0  0  0  0  0
   15.8439    0.0335   -9.4359 H   0  0  0  0  0  0
   18.4080    2.4984   -8.6879 H   0  0  0  0  0  0
   17.7019    3.7116   -9.8088 H   0  0  0  0  0  0
   15.7079    3.9235   -8.3370 H   0  0  0  0  0  0
   17.2139    4.2825   -7.4261 H   0  0  0  0  0  0
  1  2  2  0  0  0
  1 12  1  0  0  0
  1 35  1  0  0  0
  2  3  1  0  0  0
  2 36  1  0  0  0
  3  4  1  0  0  0
  3 10  2  0  0  0
  4 13  1  0  0  0
  4 37  1  0  0  0
  4 38  1  0  0  0
  5 17  2  0  0  0
  5 18  1  0  0  0
  5 20  1  0  0  0
  6 18  2  0  0  0
  6 19  1  0  0  0
  6 39  1  0  0  0
  7 19  2  0  0  0
  7 20  1  0  0  0
  7 40  1  0  0  0
  8 25  1  0  0  0
  8 26  1  0  0  0
  8 41  1  0  0  0
  8 42  1  0  0  0
  9 25  1  0  0  0
  9 28  1  0  0  0
  9 43  1  0  0  0
  9 44  1  0  0  0
 10 11  1  0  0  0
 10 45  1  0  0  0
 11 12  2  0  0  0
 11 46  1  0  0  0
 12 22  1  0  0  0
 13 14  1  0  0  0
 13 47  1  0  0  0
 14 15  2  0  0  0
 14 16  1  0  0  0
 16 17  1  0  0  0
 16 21  1  0  0  0
 17 48  1  0  0  0
 18 49  1  0  0  0
 20 21  2  0  0  0
 21 50  1  0  0  0
 22 23  2  0  0  0
 22 24  2  0  0  0
 22 25  1  0  0  0
 25 51  1  0  0  0
 26 27  1  0  0  0
 26 52  1  0  0  0
 26 53  1  0  0  0
 27 28  1  0  0  0
 27 29  1  0  0  0
 27 54  1  0  0  0
 28 55  1  0  0  0
 28 56  1  0  0  0
 29 30  1  0  0  0
 29 34  1  0  0  0
 29 57  1  0  0  0
 30 31  1  0  0  0
 30 58  1  0  0  0
 30 59  1  0  0  0
 31 32  1  0  0  0
 31 60  1  0  0  0
 31 61  1  0  0  0
 32 33  1  0  0  0
 33 34  1  0  0  0
 33 62  1  0  0  0
 33 63  1  0  0  0
 34 64  1  0  0  0
 34 65  1  0  0  0
M  CHG  1  27   1
M  END
> <s_m_source_file>
../4kfp_ligand.sdf

> <i_m_source_file_index>
1

> <s_epik_input>
W0NIMl0xW0NIMl1PW0NIMl1bQ0gyXVtDSF0xW05AQEgrXShbQ0gyXVtDSDJdMilbQ0gyXVtDSDJdW0NASF0yUyg9TykoPU8pYyhbY0hdW2NIXTMpW2NIXVtjSF1jM1tDSDJdW05IXUMoPU8pbihbY0hdNClbY0hdYyhjNDUpW2NIXW5bY0hdW2NIXTU=

> <s_epik_cmdline>
J2VwaWtfYXBwJywgJy1pbWFlJywgJ2xpZ2FuZF9wcm8ubWFlJywgJy1vbWFlJywgJ2xpZ2FuZF9wcmVwLm1hZScsICctbXMnLCAnMScsICctcGgnLCAnNycsICctcGh0JywgJzAuNScsICctbnQn

> <r_epik_Ionization_Penalty>
  0.0679

> <r_epik_Ionization_Penalty_Charging>
  0.0677

> <r_epik_Ionization_Penalty_Neutral>
  0.0003

> <r_epik_State_Penalty>
  0.0592

> <r_epik_Charging_Adjusted_Penalty>
0.126817565213279

> <i_epik_Tot_Q>
1

> <i_epik_Tot_abs_Q>
1

$$$$
