4kif_ligand
                    3D
 Schrodinger Suite 2020-3.
 19 19  0  0  1  0            999 V2000
    9.0970  101.9340  159.9540 C   0  0  0  0  0  0
    7.8420  102.0370  159.8100 O   0  5  0  0  0  0
    9.6210  102.3660  160.9790 O   0  0  0  0  0  0
   10.0350  101.3320  159.0030 C   0  0  0  0  0  0
    9.6660  100.9540  157.9320 O   0  0  0  0  0  0
   11.4580  101.2120  159.5000 C   0  0  0  0  0  0
   12.5240  100.4680  158.7300 C   0  0  0  0  0  0
   13.6600  100.1020  159.4600 C   0  0  0  0  0  0
   14.7170   99.4080  158.8580 C   0  0  0  0  0  0
   14.6360   99.0610  157.5160 C   0  0  0  0  0  0
   13.5110   99.4190  156.7820 C   0  0  0  0  0  0
   12.4630  100.1220  157.3730 C   0  0  0  0  0  0
   11.8945  102.2159  159.6082 H   0  0  0  0  0  0
   11.4642  100.7025  160.4749 H   0  0  0  0  0  0
   13.7235  100.3618  160.5167 H   0  0  0  0  0  0
   15.5991   99.1415  159.4402 H   0  0  0  0  0  0
   15.4490   98.5116  157.0413 H   0  0  0  0  0  0
   13.4477   99.1458  155.7287 H   0  0  0  0  0  0
   11.5937  100.4035  156.7787 H   0  0  0  0  0  0
  1  2  1  0  0  0
  1  3  2  0  0  0
  1  4  1  0  0  0
  4  5  2  0  0  0
  4  6  1  0  0  0
  6  7  1  0  0  0
  6 13  1  0  0  0
  6 14  1  0  0  0
  7  8  2  0  0  0
  7 12  1  0  0  0
  8  9  1  0  0  0
  8 15  1  0  0  0
  9 10  2  0  0  0
  9 16  1  0  0  0
 10 11  1  0  0  0
 10 17  1  0  0  0
 11 12  2  0  0  0
 11 18  1  0  0  0
 12 19  1  0  0  0
M  CHG  1   2  -1
M  END
> <s_m_source_file>
../4kif_ligand.sdf

> <i_m_source_file_index>
1

> <s_epik_input>
W09IXUMoPU8pQyg9TylbQ0gyXWMxW2NIXVtjSF1bY0hdW2NIXVtjSF0x

> <s_epik_cmdline>
J2VwaWtfYXBwJywgJy1pbWFlJywgJ2xpZ2FuZF9wcm8ubWFlJywgJy1vbWFlJywgJ2xpZ2FuZF9wcmVwLm1hZScsICctbXMnLCAnMScsICctcGgnLCAnNycsICctcGh0JywgJzAuNScsICctbnQn

> <r_lp_tautomer_probability>
1

> <r_epik_Ionization_Penalty>
  0.0001

> <r_epik_Ionization_Penalty_Charging>
  0.0001

> <r_epik_Ionization_Penalty_Neutral>
  0.0000

> <r_epik_State_Penalty>
 -0.0000

> <r_epik_Charging_Adjusted_Penalty>
6.92670250059781e-05

> <i_epik_Tot_Q>
-1

> <i_epik_Tot_abs_Q>
1

$$$$
