4kii_ligand
                    3D
 Schrodinger Suite 2020-3.
 58 61  0  0  1  0            999 V2000
   32.7550   45.4460  111.5980 C   0  0  0  0  0  0
   32.8490   45.1920  112.7820 O   0  0  0  0  0  0
   33.9430   45.1680  110.7030 C   0  0  0  0  0  0
   35.1640   44.9260  111.5700 C   0  0  0  0  0  0
   35.7790   43.5770  111.2810 C   0  0  0  0  0  0
   37.2030   43.7470  110.8090 C   0  0  0  0  0  0
   37.9600   42.4430  110.9420 C   0  0  0  0  0  0
   39.2260   42.5590  110.1280 C   0  0  0  0  0  0
   40.1280   41.3610  110.3130 C   0  0  0  0  0  0
   41.2880   41.5760  109.3790 C   0  0  0  0  0  0
   42.2910   40.4610  109.4860 C   0  0  0  0  0  0
   43.6470   41.0740  109.2330 C   0  0  0  0  0  0
   30.1010   47.5270  112.2290 N   0  0  0  0  0  0
   31.5430   45.9880  111.0880 N   0  0  0  0  0  0
   31.5800   47.5810  109.2970 N   0  0  0  0  0  0
   29.0280   47.7830  113.0270 C   0  0  0  0  0  0
   28.2780   46.7310  113.5310 C   0  0  0  0  0  0
   28.6100   45.4410  113.2300 C   0  0  0  0  0  0
   29.6840   45.1880  112.4270 C   0  0  0  0  0  0
   30.4370   46.2400  111.9350 C   0  0  0  0  0  0
   31.3540   46.3080  109.7220 C   0  0  0  0  0  0
   30.8960   45.3450  108.8380 C   0  0  0  0  0  0
   30.6940   45.6640  107.5280 C   0  0  0  0  0  0
   30.9300   46.9390  107.1000 C   0  0  0  0  0  0
   31.3770   47.9040  107.9910 C   0  0  0  0  0  0
   44.4340   40.1960  108.2960 C   0  0  0  0  0  0
   31.8110   48.5030  111.1070 Rh  0  0  0  0  0  0
   33.7396   44.2778  110.0897 H   0  0  0  0  0  0
   34.1181   46.0332  110.0467 H   0  0  0  0  0  0
   35.9152   45.7045  111.3709 H   0  0  0  0  0  0
   34.8733   44.9597  112.6304 H   0  0  0  0  0  0
   35.7723   42.9673  112.1965 H   0  0  0  0  0  0
   35.1971   43.0689  110.4979 H   0  0  0  0  0  0
   37.2049   44.0572  109.7536 H   0  0  0  0  0  0
   37.7019   44.5154  111.4179 H   0  0  0  0  0  0
   38.2018   42.2657  112.0004 H   0  0  0  0  0  0
   37.3381   41.6178  110.5648 H   0  0  0  0  0  0
   38.9701   42.6354  109.0609 H   0  0  0  0  0  0
   39.7799   43.4576  110.4374 H   0  0  0  0  0  0
   40.4616   41.3114  111.3600 H   0  0  0  0  0  0
   39.5759   40.4438  110.0603 H   0  0  0  0  0  0
   40.9214   41.6180  108.3427 H   0  0  0  0  0  0
   41.7896   42.5225  109.6291 H   0  0  0  0  0  0
   42.2422   40.0192  110.4922 H   0  0  0  0  0  0
   42.0633   39.6897  108.7355 H   0  0  0  0  0  0
   43.5210   42.0689  108.7811 H   0  0  0  0  0  0
   44.1895   41.1698  110.1851 H   0  0  0  0  0  0
   28.7552   48.8200  113.2723 H   0  0  0  0  0  0
   27.4108   46.9336  114.1767 H   0  0  0  0  0  0
   28.0194   44.6166  113.6296 H   0  0  0  0  0  0
   29.9521   44.1525  112.1704 H   0  0  0  0  0  0
   30.6954   44.3234  109.1930 H   0  0  0  0  0  0
   30.3462   44.9058  106.8264 H   0  0  0  0  0  0
   30.7644   47.1997  106.0443 H   0  0  0  0  0  0
   31.5671   48.9295  107.6414 H   0  0  0  0  0  0
   45.4212   40.6460  108.1142 H   0  0  0  0  0  0
   43.8936   40.1000  107.3427 H   0  0  0  0  0  0
   44.5620   39.2008  108.7468 H   0  0  0  0  0  0
  1  2  2  0  0  0
  1  3  1  0  0  0
  1 14  1  0  0  0
  3  4  1  0  0  0
  3 28  1  0  0  0
  3 29  1  0  0  0
  4  5  1  0  0  0
  4 30  1  0  0  0
  4 31  1  0  0  0
  5  6  1  0  0  0
  5 32  1  0  0  0
  5 33  1  0  0  0
  6  7  1  0  0  0
  6 34  1  0  0  0
  6 35  1  0  0  0
  7  8  1  0  0  0
  7 36  1  0  0  0
  7 37  1  0  0  0
  8  9  1  0  0  0
  8 38  1  0  0  0
  8 39  1  0  0  0
  9 10  1  0  0  0
  9 40  1  0  0  0
  9 41  1  0  0  0
 10 11  1  0  0  0
 10 42  1  0  0  0
 10 43  1  0  0  0
 11 12  1  0  0  0
 11 44  1  0  0  0
 11 45  1  0  0  0
 12 26  1  0  0  0
 12 46  1  0  0  0
 12 47  1  0  0  0
 13 16  1  0  0  0
 13 20  1  0  0  0
 13 27  1  0  0  0
 14 20  1  0  0  0
 14 21  1  0  0  0
 14 27  1  0  0  0
 15 21  1  0  0  0
 15 25  1  0  0  0
 15 27  1  0  0  0
 16 17  2  0  0  0
 16 48  1  0  0  0
 17 18  1  0  0  0
 17 49  1  0  0  0
 18 19  1  0  0  0
 18 50  1  0  0  0
 19 20  2  0  0  0
 19 51  1  0  0  0
 21 22  2  0  0  0
 22 23  1  0  0  0
 22 52  1  0  0  0
 23 24  1  0  0  0
 23 53  1  0  0  0
 24 25  2  0  0  0
 24 54  1  0  0  0
 25 55  1  0  0  0
 26 56  1  0  0  0
 26 57  1  0  0  0
 26 58  1  0  0  0
M  END
> <s_m_source_file>
../4kii_ligand.sdf

> <i_m_source_file_index>
1

> <s_epik_input>
W0NIXTE9W0NIXVtDSDJdW0NIXT1DMk4xW1JoXTNOKFtDSF09W0NIXVtDSDJdW0NIXT00KUM0W04rXTIzQyg9TylbQ0gyXVtDSDJdW0NIMl1bQ0gyXVtDSDJdW0NIMl1bQ0gyXVtDSDJdW0NIMl1bQ0gyXVtDSDNd

> <s_epik_cmdline>
J2VwaWtfYXBwJywgJy1pbWFlJywgJ2xpZ2FuZF9wcm8ubWFlJywgJy1vbWFlJywgJ2xpZ2FuZF9wcmVwLm1hZScsICctbXMnLCAnMScsICctcGgnLCAnNycsICctcGh0JywgJzAuNScsICctbnQn

> <r_lp_tautomer_probability>
1

> <r_epik_Ionization_Penalty>
  0.0000

> <r_epik_Ionization_Penalty_Charging>
  0.0000

> <r_epik_Ionization_Penalty_Neutral>
  0.0000

> <r_epik_State_Penalty>
 -0.0000

> <r_epik_Charging_Adjusted_Penalty>
1.31558268068321e-16

> <i_epik_Tot_Q>
0

> <i_epik_Tot_abs_Q>
0

> <s_epik_Chemistry_Notes>
This compound has an imine and may undergo hydrolysis.

$$$$
