4kio_ligand
                    3D
 Schrodinger Suite 2020-3.
 59 63  0  0  1  0            999 V2000
   13.8100   11.9900    5.2610 C   0  0  0  0  0  0
   12.6590   11.8790    4.6030 C   0  0  0  0  0  0
   12.7590   11.9710    3.1270 C   0  0  0  0  0  0
   13.8370   12.1430    2.5800 O   0  0  0  0  0  0
   11.5910   11.8610    2.4200 N   0  0  0  0  0  0
   11.4680   11.9110    0.9800 C   0  0  0  0  0  0
   10.0040   11.6640    0.7280 C   0  0  0  0  0  0
    9.6250   10.9330    1.9700 C   0  0  1  0  0  0
   10.3450   11.6640    3.0460 C   0  0  0  0  0  0
    8.2310   10.9450    2.2460 N   0  0  0  0  0  0
    7.3980   10.0220    1.7850 C   0  0  0  0  0  0
    6.1540   10.1150    2.2700 N   0  0  0  0  0  0
    5.3000    9.2170    1.7890 C   0  0  0  0  0  0
    3.8580    9.2490    2.2410 C   0  0  0  0  0  0
    3.6650    9.5230    3.6500 N   0  0  0  0  0  0
    4.2660    8.4640    4.4890 C   0  0  0  0  0  0
    3.7340    8.4620    5.9250 C   0  0  0  0  0  0
    2.3010    8.4250    5.9610 O   0  0  0  0  0  0
    1.8360    9.6160    5.3000 C   0  0  0  0  0  0
    2.2070    9.5660    3.8240 C   0  0  0  0  0  0
    5.7360    8.2700    0.8740 C   0  0  0  0  0  0
    7.0470    8.2540    0.4510 C   0  0  0  0  0  0
    7.5310    7.2870   -0.4990 N   0  0  0  0  0  0
    8.6830    7.2040   -1.1610 C   0  0  0  0  0  0
    8.9730    6.2380   -2.0000 N   0  0  0  0  0  0
   10.2410    6.4530   -2.4930 C   0  0  0  0  0  0
   10.9520    5.6760   -3.3830 C   0  0  0  0  0  0
   12.2370    6.0950   -3.7330 C   0  0  0  0  0  0
   12.8010    7.2370   -3.2230 C   0  0  0  0  0  0
   12.1170    7.9820   -2.3570 N   0  0  0  0  0  0
   10.8850    7.5820   -2.0180 C   0  0  0  0  0  0
    9.8910    8.4240   -0.9110 S   0  0  0  0  0  0
    7.9280    9.1460    0.8930 N   0  0  0  0  0  0
   14.7483   12.1391    4.7066 H   0  0  0  0  0  0
   13.8233   11.9327    6.3594 H   0  0  0  0  0  0
   11.7207   11.7299    5.1574 H   0  0  0  0  0  0
   11.7889   12.8992    0.6187 H   0  0  0  0  0  0
   12.1021   11.1326    0.5306 H   0  0  0  0  0  0
    9.4851   12.6265    0.6079 H   0  0  0  0  0  0
    9.8853   11.0667   -0.1880 H   0  0  0  0  0  0
    9.8403    9.8573    1.8897 H   0  0  0  0  0  0
   10.4856   11.0782    3.9663 H   0  0  0  0  0  0
    9.9021   12.6393    3.2963 H   0  0  0  0  0  0
    7.8001   11.7444    2.8667 H   0  0  0  0  0  0
    3.3185   10.0337    1.6904 H   0  0  0  0  0  0
    3.3897    8.2737    2.0424 H   0  0  0  0  0  0
    4.0457    7.4796    4.0504 H   0  0  0  0  0  0
    5.3554    8.6084    4.5372 H   0  0  0  0  0  0
    4.1161    7.5778    6.4563 H   0  0  0  0  0  0
    4.0693    9.3735    6.4415 H   0  0  0  0  0  0
    0.7426    9.6864    5.3977 H   0  0  0  0  0  0
    2.3030   10.4981    5.7624 H   0  0  0  0  0  0
    1.8049   10.4618    3.3282 H   0  0  0  0  0  0
    1.7577    8.6668    3.3772 H   0  0  0  0  0  0
    5.0346    7.5314    0.4859 H   0  0  0  0  0  0
    6.8995    6.4328   -0.7846 H   0  0  0  0  0  0
   10.5246    4.7640   -3.7999 H   0  0  0  0  0  0
   12.8126    5.4934   -4.4365 H   0  0  0  0  0  0
   13.8053    7.5333   -3.5257 H   0  0  0  0  0  0
  1  2  2  0  0  0
  1 34  1  0  0  0
  1 35  1  0  0  0
  2  3  1  0  0  0
  2 36  1  0  0  0
  3  4  2  0  0  0
  3  5  1  0  0  0
  5  6  1  0  0  0
  5  9  1  0  0  0
  6  7  1  0  0  0
  6 37  1  0  0  0
  6 38  1  0  0  0
  7  8  1  0  0  0
  7 39  1  0  0  0
  7 40  1  0  0  0
  8  9  1  0  0  0
  8 10  1  0  0  0
  8 41  1  0  0  0
  9 42  1  0  0  0
  9 43  1  0  0  0
 10 11  1  0  0  0
 10 44  1  0  0  0
 11 12  2  0  0  0
 11 33  1  0  0  0
 12 13  1  0  0  0
 13 14  1  0  0  0
 13 21  2  0  0  0
 14 15  1  0  0  0
 14 45  1  0  0  0
 14 46  1  0  0  0
 15 16  1  0  0  0
 15 20  1  0  0  0
 16 17  1  0  0  0
 16 47  1  0  0  0
 16 48  1  0  0  0
 17 18  1  0  0  0
 17 49  1  0  0  0
 17 50  1  0  0  0
 18 19  1  0  0  0
 19 20  1  0  0  0
 19 51  1  0  0  0
 19 52  1  0  0  0
 20 53  1  0  0  0
 20 54  1  0  0  0
 21 22  1  0  0  0
 21 55  1  0  0  0
 22 23  1  0  0  0
 22 33  2  0  0  0
 23 24  1  0  0  0
 23 56  1  0  0  0
 24 25  2  0  0  0
 24 32  1  0  0  0
 25 26  1  0  0  0
 26 27  2  0  0  0
 26 31  1  0  0  0
 27 28  1  0  0  0
 27 57  1  0  0  0
 28 29  2  0  0  0
 28 58  1  0  0  0
 29 30  1  0  0  0
 29 59  1  0  0  0
 30 31  2  0  0  0
 31 32  1  0  0  0
M  END
> <s_m_source_file>
../4kio_ligand.sdf

> <i_m_source_file_index>
1

> <s_epik_input>
W0NIMl09W0NIXUMoPU8pTjFbQ0gyXVtDSDJdW0NAQEhdKFtDSDJdMSlbTkhdYzJuYyhbQ0gyXVtOSCtdM1tDSDJdW0NIMl1PW0NIMl1bQ0gyXTMpW2NIXWMobjIpW05IXWMobjQpc2MoYzQ1KW5bY0hdW2NIXVtjSF01

> <s_epik_cmdline>
J2VwaWtfYXBwJywgJy1pbWFlJywgJ2xpZ2FuZF9wcm8ubWFlJywgJy1vbWFlJywgJ2xpZ2FuZF9wcmVwLm1hZScsICctbXMnLCAnMScsICctcGgnLCAnNycsICctcGh0JywgJzAuNScsICctbnQn

> <r_lp_tautomer_probability>
0.999999624730965

> <r_epik_Ionization_Penalty>
  0.3408

> <r_epik_Ionization_Penalty_Charging>
  0.0000

> <r_epik_Ionization_Penalty_Neutral>
  0.3408

> <r_epik_State_Penalty>
  0.3080

> <r_epik_Charging_Adjusted_Penalty>
0.308042903101927

> <i_epik_Tot_Q>
0

> <i_epik_Tot_abs_Q>
0

$$$$
