4kip_ligand
                    3D
 Schrodinger Suite 2020-3.
 44 47  0  0  1  0            999 V2000
   38.8660    2.7110   32.6030 C   0  0  0  0  0  0
   37.5410    3.1540   32.8340 C   0  0  0  0  0  0
   36.4800    2.6370   32.0910 C   0  0  0  0  0  0
   36.6950    1.6380   31.1450 C   0  0  0  0  0  0
   37.9920    1.1720   30.9360 C   0  0  0  0  0  0
   39.0520    1.7070   31.6480 C   0  0  0  0  0  0
   40.0490    3.3300   33.3080 C   0  0  0  0  0  0
   35.4970    1.1610   30.3850 C   0  0  0  0  0  0
   35.7000    0.1740   29.4940 N   0  0  0  0  0  0
   34.3980    1.6850   30.5560 O   0  0  0  0  0  0
   34.6210   -0.4600   28.7360 C   0  0  0  0  0  0
   34.8920   -0.8590   27.3460 C   0  0  0  0  0  0
   34.0070    0.2860   27.6270 C   0  0  0  0  0  0
   36.6610    3.7220   35.0750 C   0  0  0  0  0  0
   36.4170    4.8480   36.0080 C   0  0  0  0  0  0
   36.6250    6.1950   35.9590 C   0  0  0  0  0  0
   36.2510    6.9120   37.0650 N   0  0  0  0  0  0
   35.7350    6.1090   38.0010 C   0  0  0  0  0  0
   35.6890    4.4300   37.5280 S   0  0  0  0  0  0
   35.2810    6.5950   39.3110 C   0  0  0  0  0  0
   36.2210    7.0060   40.2590 C   0  0  0  0  0  0
   35.8230    7.3840   41.5350 C   0  0  0  0  0  0
   34.4880    7.3590   41.8830 C   0  0  0  0  0  0
   33.5340    6.9660   40.9590 C   0  0  0  0  0  0
   33.9350    6.6010   39.6780 C   0  0  0  0  0  0
   37.2630    4.0460   33.9020 N   0  0  0  0  0  0
   36.2810    2.5820   35.3520 O   0  0  0  0  0  0
   32.7060    6.2040   38.5230 Cl  0  0  0  0  0  0
   35.4719    3.0189   32.2525 H   0  0  0  0  0  0
   38.1728    0.3816   30.2076 H   0  0  0  0  0  0
   40.0591    1.3353   31.4588 H   0  0  0  0  0  0
   39.6953    4.0941   34.0158 H   0  0  0  0  0  0
   40.7144    3.7967   32.5668 H   0  0  0  0  0  0
   40.5991    2.5501   33.8550 H   0  0  0  0  0  0
   36.7402   -0.1528   29.3483 H   0  0  0  0  0  0
   34.2408   -0.9667   29.6353 H   0  0  0  0  0  0
   35.0936   -1.1561   26.3063 H   0  0  0  0  0  0
   33.5483    0.8433   26.7969 H   0  0  0  0  0  0
   37.0657    6.6759   35.0857 H   0  0  0  0  0  0
   37.2782    7.0304   39.9946 H   0  0  0  0  0  0
   36.5682    7.7016   42.2643 H   0  0  0  0  0  0
   34.1832    7.6495   42.8884 H   0  0  0  0  0  0
   32.4792    6.9430   41.2329 H   0  0  0  0  0  0
   37.5417    5.1069   33.8192 H   0  0  0  0  0  0
  1  2  2  0  0  0
  1  6  1  0  0  0
  1  7  1  0  0  0
  2  3  1  0  0  0
  2 26  1  0  0  0
  3  4  2  0  0  0
  3 29  1  0  0  0
  4  5  1  0  0  0
  4  8  1  0  0  0
  5  6  2  0  0  0
  5 30  1  0  0  0
  6 31  1  0  0  0
  7 32  1  0  0  0
  7 33  1  0  0  0
  7 34  1  0  0  0
  8  9  1  0  0  0
  8 10  2  0  0  0
  9 11  1  0  0  0
  9 35  1  0  0  0
 11 12  1  0  0  0
 11 13  1  0  0  0
 11 36  1  0  0  0
 12 13  2  0  0  0
 12 37  1  0  0  0
 13 38  1  0  0  0
 14 15  1  0  0  0
 14 26  1  0  0  0
 14 27  2  0  0  0
 15 16  2  0  0  0
 15 19  1  0  0  0
 16 17  1  0  0  0
 16 39  1  0  0  0
 17 18  2  0  0  0
 18 19  1  0  0  0
 18 20  1  0  0  0
 20 21  2  0  0  0
 20 25  1  0  0  0
 21 22  1  0  0  0
 21 40  1  0  0  0
 22 23  2  0  0  0
 22 41  1  0  0  0
 23 24  1  0  0  0
 23 42  1  0  0  0
 24 25  2  0  0  0
 24 43  1  0  0  0
 25 28  1  0  0  0
 26 44  1  0  0  0
M  END
> <s_m_source_file>
../4kip_ligand.sdf

> <i_m_source_file_index>
1

> <s_epik_input>
W0NIXTE9W0NIXVtDSF0xW05IXUMoPU8pYyhbY0hdW2NIXTIpW2NIXWMoYzJbQ0gzXSlbTkhdQyg9TyljM1tjSF1uYyhzMyktYzRbY0hdW2NIXVtjSF1bY0hdYzRDbA==

> <s_epik_cmdline>
J2VwaWtfYXBwJywgJy1pbWFlJywgJ2xpZ2FuZF9wcm8ubWFlJywgJy1vbWFlJywgJ2xpZ2FuZF9wcmVwLm1hZScsICctbXMnLCAnMScsICctcGgnLCAnNycsICctcGh0JywgJzAuNScsICctbnQn

> <r_lp_tautomer_probability>
1

> <r_epik_Ionization_Penalty>
  0.0000

> <r_epik_Ionization_Penalty_Charging>
  0.0000

> <r_epik_Ionization_Penalty_Neutral>
  0.0000

> <r_epik_State_Penalty>
 -0.0000

> <r_epik_Charging_Adjusted_Penalty>
0

> <i_epik_Tot_Q>
0

> <i_epik_Tot_abs_Q>
0

$$$$
