4kiq_ligand
                    3D
 Schrodinger Suite 2020-3.
 51 54  0  0  1  0            999 V2000
    0.0020   -4.1130   -6.4740 C   0  0  0  0  0  0
    4.0970   -1.1620   -5.5960 N   0  0  0  0  0  0
    5.3060   -0.4850   -5.1310 C   0  0  0  0  0  0
    6.1860    0.1430   -6.1320 C   0  0  0  0  0  0
    6.6030   -1.0960   -5.4470 C   0  0  0  0  0  0
   -0.0420   -5.3970   -4.3880 N   0  0  0  0  0  0
   -0.5690   -5.1570   -3.1630 C   0  0  0  0  0  0
   -0.7480   -4.0220   -2.7210 O   0  0  0  0  0  0
   -0.8730   -6.3670   -2.3340 C   0  0  0  0  0  0
   -1.7220   -6.2010   -1.2400 C   0  0  0  0  0  0
    0.5640   -4.4250   -5.2160 C   0  0  0  0  0  0
   -0.5550   -8.6850   -1.7300 C   0  0  0  0  0  0
   -0.2940   -7.6170   -2.5720 C   0  0  0  0  0  0
   -1.4000   -8.5310   -0.6230 C   0  0  0  0  0  0
   -1.9830   -7.2710   -0.3860 C   0  0  0  0  0  0
   -2.7410   -7.3710    0.7930 N   0  0  0  0  0  0
   -2.6210   -8.6740    1.2640 C   0  0  0  0  0  0
   -1.8260   -9.3970    0.4390 C   0  0  0  0  0  0
   -3.5440   -6.3820    1.4350 C   0  0  0  0  0  0
   -4.1130   -6.5780    2.4780 O   0  0  0  0  0  0
   -3.5860   -5.2280    0.7600 O   0  0  0  0  0  0
    1.6960   -3.7620   -4.7580 C   0  0  0  0  0  0
   -4.2350   -4.1010    1.4250 C   0  0  0  0  0  0
   -3.8860   -2.9260    0.6430 C   0  0  0  0  0  0
    2.3130   -2.7920   -5.5430 C   0  0  0  0  0  0
    1.7620   -2.4660   -6.7820 C   0  0  0  0  0  0
    0.6320   -3.1250   -7.2360 C   0  0  0  0  0  0
   -1.2520   -4.7830   -6.9680 C   0  0  0  0  0  0
    3.5910   -2.2510   -4.9930 C   0  0  0  0  0  0
    4.1230   -2.7790   -4.0200 O   0  0  0  0  0  0
    3.5586   -0.7827   -6.4771 H   0  0  0  0  0  0
    4.8067   -0.1446   -4.2119 H   0  0  0  0  0  0
    6.8468    0.6078   -6.8785 H   0  0  0  0  0  0
    7.5746   -1.5546   -5.6830 H   0  0  0  0  0  0
   -0.0670   -6.4134   -4.8080 H   0  0  0  0  0  0
   -2.1829   -5.2312   -1.0523 H   0  0  0  0  0  0
   -0.0988   -9.6545   -1.9303 H   0  0  0  0  0  0
    0.3682   -7.7521   -3.4272 H   0  0  0  0  0  0
   -3.0975   -9.0579    2.1661 H   0  0  0  0  0  0
   -1.5583  -10.4467    0.5600 H   0  0  0  0  0  0
    2.1040   -4.0033   -3.7765 H   0  0  0  0  0  0
   -5.3231   -4.2615    1.4405 H   0  0  0  0  0  0
   -3.8617   -4.0194    2.4565 H   0  0  0  0  0  0
   -4.3472   -2.0351    1.0941 H   0  0  0  0  0  0
   -4.2541   -3.0481   -0.3864 H   0  0  0  0  0  0
   -2.7927   -2.8060    0.6296 H   0  0  0  0  0  0
    2.2220   -1.6905   -7.3945 H   0  0  0  0  0  0
    0.2232   -2.8666   -8.2128 H   0  0  0  0  0  0
   -1.5874   -5.5246   -6.2280 H   0  0  0  0  0  0
   -1.0465   -5.2863   -7.9243 H   0  0  0  0  0  0
   -2.0386   -4.0278   -7.1127 H   0  0  0  0  0  0
  1 11  2  0  0  0
  1 27  1  0  0  0
  1 28  1  0  0  0
  2  3  1  0  0  0
  2 29  1  0  0  0
  2 31  1  0  0  0
  3  4  1  0  0  0
  3  5  1  0  0  0
  3 32  1  0  0  0
  4  5  2  0  0  0
  4 33  1  0  0  0
  5 34  1  0  0  0
  6  7  1  0  0  0
  6 11  1  0  0  0
  6 35  1  0  0  0
  7  8  2  0  0  0
  7  9  1  0  0  0
  9 10  1  0  0  0
  9 13  2  0  0  0
 10 15  2  0  0  0
 10 36  1  0  0  0
 11 22  1  0  0  0
 12 13  1  0  0  0
 12 14  2  0  0  0
 12 37  1  0  0  0
 13 38  1  0  0  0
 14 15  1  0  0  0
 14 18  1  0  0  0
 15 16  1  0  0  0
 16 17  1  0  0  0
 16 19  1  0  0  0
 17 18  2  0  0  0
 17 39  1  0  0  0
 18 40  1  0  0  0
 19 20  2  0  0  0
 19 21  1  0  0  0
 21 23  1  0  0  0
 22 25  2  0  0  0
 22 41  1  0  0  0
 23 24  1  0  0  0
 23 42  1  0  0  0
 23 43  1  0  0  0
 24 44  1  0  0  0
 24 45  1  0  0  0
 24 46  1  0  0  0
 25 26  1  0  0  0
 25 29  1  0  0  0
 26 27  2  0  0  0
 26 47  1  0  0  0
 27 48  1  0  0  0
 28 49  1  0  0  0
 28 50  1  0  0  0
 28 51  1  0  0  0
 29 30  2  0  0  0
M  END
> <s_m_source_file>
../4kiq_ligand.sdf

> <i_m_source_file_index>
1

> <s_epik_input>
W0NIXTE9W0NIXVtDSF0xW05IXUMoPU8pYyhbY0hdW2NIXTIpW2NIXWMoYzJbQ0gzXSlbTkhdQyg9TyljKFtjSF1bY0hdMylbY0hdYyhjMzQpbihbY0hdW2NIXTQpQyg9TylPW0NIMl1bQ0gzXQ==

> <s_epik_cmdline>
J2VwaWtfYXBwJywgJy1pbWFlJywgJ2xpZ2FuZF9wcm8ubWFlJywgJy1vbWFlJywgJ2xpZ2FuZF9wcmVwLm1hZScsICctbXMnLCAnMScsICctcGgnLCAnNycsICctcGh0JywgJzAuNScsICctbnQn

> <r_lp_tautomer_probability>
1

> <r_epik_Ionization_Penalty>
  0.0000

> <r_epik_Ionization_Penalty_Charging>
  0.0000

> <r_epik_Ionization_Penalty_Neutral>
  0.0000

> <r_epik_State_Penalty>
 -0.0000

> <r_epik_Charging_Adjusted_Penalty>
0

> <i_epik_Tot_Q>
0

> <i_epik_Tot_abs_Q>
0

> <s_epik_Chemistry_Notes>
This compound has an ester and may undergo hydrolysis at high or low pH.

$$$$
