4kiw_ligand
                    3D
 Schrodinger Suite 2020-3.
 33 34  0  0  1  0            999 V2000
   15.7040   21.4650   72.1610 O   0  5  0  0  0  0
   14.6030   21.7340   72.6770 C   0  0  0  0  0  0
   14.2840   22.8610   73.0660 O   0  0  0  0  0  0
   13.5450   20.6430   72.8760 C   0  0  0  0  0  0
   12.9040   20.5560   74.1260 C   0  0  0  0  0  0
   13.2140   19.7510   71.8410 C   0  0  0  0  0  0
   12.2370   18.7740   72.0780 C   0  0  0  0  0  0
   11.7850   17.7510   71.0240 C   0  0  0  0  0  0
   11.0730   16.8040   71.4220 O   0  0  0  0  0  0
   12.1080   17.9260   69.8280 O   0  5  0  0  0  0
   11.6170   18.7050   73.3260 C   0  0  0  0  0  0
   11.9320   19.5840   74.3510 C   0  0  0  0  0  0
   11.2810   19.4240   75.4990 N   0  0  0  0  0  0
   11.1630   20.4530   76.5390 C   0  0  0  0  0  0
   12.0230   20.0700   77.7390 C   0  0  0  0  0  0
   12.5240   21.0750   78.5440 C   0  0  0  0  0  0
   12.3030   18.7340   78.0360 C   0  0  0  0  0  0
   13.0900   18.3970   79.1390 C   0  0  0  0  0  0
   13.5950   19.4120   79.9460 C   0  0  0  0  0  0
   13.3100   20.7480   79.6400 C   0  0  0  0  0  0
   13.7630   21.7310   80.4130 N   0  3  0  0  0  0
   13.9710   22.9630   79.8770 O   0  0  0  0  0  0
   13.9490   21.5210   81.7560 O   0  5  0  0  0  0
   13.1694   21.2523   74.9215 H   0  0  0  0  0  0
   13.7081   19.8179   70.8717 H   0  0  0  0  0  0
   10.8629   17.9375   73.5003 H   0  0  0  0  0  0
   10.8116   18.4397   75.6434 H   0  0  0  0  0  0
   11.5039   21.4193   76.1390 H   0  0  0  0  0  0
   10.1125   20.5368   76.8544 H   0  0  0  0  0  0
   12.3032   22.1185   78.3196 H   0  0  0  0  0  0
   11.9024   17.9453   77.3991 H   0  0  0  0  0  0
   13.3059   17.3528   79.3650 H   0  0  0  0  0  0
   14.2097   19.1679   80.8124 H   0  0  0  0  0  0
  1  2  1  0  0  0
  2  3  2  0  0  0
  2  4  1  0  0  0
  4  5  2  0  0  0
  4  6  1  0  0  0
  5 12  1  0  0  0
  5 24  1  0  0  0
  6  7  2  0  0  0
  6 25  1  0  0  0
  7  8  1  0  0  0
  7 11  1  0  0  0
  8  9  2  0  0  0
  8 10  1  0  0  0
 11 12  2  0  0  0
 11 26  1  0  0  0
 12 13  1  0  0  0
 13 14  1  0  0  0
 13 27  1  0  0  0
 14 15  1  0  0  0
 14 28  1  0  0  0
 14 29  1  0  0  0
 15 16  2  0  0  0
 15 17  1  0  0  0
 16 20  1  0  0  0
 16 30  1  0  0  0
 17 18  2  0  0  0
 17 31  1  0  0  0
 18 19  1  0  0  0
 18 32  1  0  0  0
 19 20  2  0  0  0
 19 33  1  0  0  0
 20 21  1  0  0  0
 21 22  2  0  0  0
 21 23  1  0  0  0
M  CHG  4   1  -1  10  -1  21   1  23  -1
M  END
> <s_m_source_file>
../4kiw_ligand.sdf

> <i_m_source_file_index>
1

> <s_epik_input>
W09IXUMoPU8pYzFbY0hdYyhbY0hdYyhbY0hdMSlDKD1PKVtPSF0pW05IXVtDSDJdYzJbY0hdYyhbTitdKD1PKVtPLV0pW2NIXVtjSF1bY0hdMg==

> <s_epik_cmdline>
J2VwaWtfYXBwJywgJy1pbWFlJywgJ2xpZ2FuZF9wcm8ubWFlJywgJy1vbWFlJywgJ2xpZ2FuZF9wcmVwLm1hZScsICctbXMnLCAnMScsICctcGgnLCAnNycsICctcGh0JywgJzAuNScsICctbnQn

> <r_lp_tautomer_probability>
1

> <r_epik_Ionization_Penalty>
  0.0021

> <r_epik_Ionization_Penalty_Charging>
  0.0020

> <r_epik_Ionization_Penalty_Neutral>
  0.0001

> <r_epik_State_Penalty>
 -0.0000

> <r_epik_Charging_Adjusted_Penalty>
0.00199760518264049

> <i_epik_Tot_Q>
-2

> <i_epik_Tot_abs_Q>
4

$$$$
