4kjv_ligand
                    3D
 Schrodinger Suite 2020-3.
 73 77  0  0  1  0            999 V2000
   27.8440   28.0450   10.7760 C   0  0  0  0  0  0
   27.8590   29.4480   11.1160 O   0  0  0  0  0  0
   28.5050   29.9000   12.2720 C   0  0  0  0  0  0
   29.3100   29.0850   13.0900 C   0  0  0  0  0  0
   29.8970   29.5910   14.2480 C   0  0  0  0  0  0
   29.7080   30.9650   14.5830 C   0  0  0  0  0  0
   30.2890   31.5110   15.7380 C   0  0  0  0  0  0
   30.1260   32.8710   16.1200 C   0  0  0  0  0  0
   30.7320   33.4090   17.2670 C   0  0  0  0  0  0
   30.3870   34.5340   17.7290 O   0  5  0  0  0  0
   31.6110   32.7670   17.8710 O   0  0  0  0  0  0
   29.3220   33.7020   15.3210 C   0  0  0  0  0  0
   28.7610   33.1700   14.1640 C   0  0  0  0  0  0
   28.9130   31.8040   13.7710 C   0  0  0  0  0  0
   28.3170   31.2920   12.6160 C   0  0  0  0  0  0
   27.4890   32.1200   11.8140 C   0  0  0  0  0  0
   28.2940   33.1620   11.0470 N   0  0  0  0  0  0
   27.9320   34.4970   11.0520 C   0  0  0  0  0  0
   27.0020   34.9040   11.8040 O   0  0  0  0  0  0
   29.4510   32.7560   10.3470 C   0  0  0  0  0  0
   29.4590   31.5990    9.5540 C   0  0  0  0  0  0
   30.6210   31.2300    8.8180 C   0  0  0  0  0  0
   31.7710   32.0220    8.8980 C   0  0  0  0  0  0
   31.8090   33.1690    9.7160 C   0  0  0  0  0  0
   30.6150   33.5360   10.4150 C   0  0  0  0  0  0
   30.7420   34.6840   11.2000 O   0  0  0  0  0  0
   30.0620   35.8770   10.7730 C   0  0  0  0  0  0
   30.8340   36.4970    9.6210 C   0  0  0  0  0  0
   32.0340   37.2800   10.1710 C   0  0  0  0  0  0
   31.8320   38.0250   11.3490 O   0  0  0  0  0  0
   31.3900   37.2310   12.3990 C   0  0  0  0  0  0
   29.9690   36.7830   11.9910 C   0  0  0  0  0  0
   28.6350   35.4810   10.2010 C   0  0  2  0  0  0
   27.7280   36.6140    9.8590 N   0  0  0  0  0  0
   26.8940   36.5690    8.8080 C   0  0  0  0  0  0
   26.8140   35.6210    8.0130 O   0  0  0  0  0  0
   25.8590   37.7300    8.7820 C   0  0  2  0  0  0
   24.6830   37.3850    9.8060 C   0  0  0  0  0  0
   25.3230   37.9140    7.4420 N   0  3  0  0  0  0
   26.3220   38.3710    6.4080 C   0  0  0  0  0  0
   27.2887   27.9011    9.8374 H   0  0  0  0  0  0
   27.3553   27.4777   11.5818 H   0  0  0  0  0  0
   28.8765   27.6873   10.6498 H   0  0  0  0  0  0
   29.4765   28.0438   12.8138 H   0  0  0  0  0  0
   30.4940   28.9442   14.8909 H   0  0  0  0  0  0
   30.8935   30.8622   16.3719 H   0  0  0  0  0  0
   29.1420   34.7398   15.6013 H   0  0  0  0  0  0
   28.1750   33.8294   13.5238 H   0  0  0  0  0  0
   26.9470   31.5001   11.0847 H   0  0  0  0  0  0
   26.7672   32.6476   12.4549 H   0  0  0  0  0  0
   28.5664   30.9757    9.5005 H   0  0  0  0  0  0
   30.6142   30.3351    8.1957 H   0  0  0  0  0  0
   32.6523   31.7476    8.3182 H   0  0  0  0  0  0
   32.7203   33.7590    9.8135 H   0  0  0  0  0  0
   31.1916   35.7025    8.9495 H   0  0  0  0  0  0
   30.1756   37.1794    9.0635 H   0  0  0  0  0  0
   32.8524   36.5822   10.4019 H   0  0  0  0  0  0
   32.3734   38.0071    9.4186 H   0  0  0  0  0  0
   32.0672   36.3726   12.5199 H   0  0  0  0  0  0
   31.3786   37.8225   13.3264 H   0  0  0  0  0  0
   29.3594   37.6653   11.7460 H   0  0  0  0  0  0
   29.5018   36.2338   12.8217 H   0  0  0  0  0  0
   28.7994   34.9914    9.2298 H   0  0  0  0  0  0
   27.7283   37.5244   10.4764 H   0  0  0  0  0  0
   26.3511   38.6909    8.9928 H   0  0  0  0  0  0
   25.1025   37.2487   10.8137 H   0  0  0  0  0  0
   24.1811   36.4588    9.4894 H   0  0  0  0  0  0
   23.9554   38.2099    9.8202 H   0  0  0  0  0  0
   24.9095   36.9617    7.0785 H   0  0  0  0  0  0
   24.5277   38.6736    7.4663 H   0  0  0  0  0  0
   25.8196   38.4792    5.4355 H   0  0  0  0  0  0
   27.1283   37.6275    6.3234 H   0  0  0  0  0  0
   26.7465   39.3394    6.7112 H   0  0  0  0  0  0
  1  2  1  0  0  0
  1 41  1  0  0  0
  1 42  1  0  0  0
  1 43  1  0  0  0
  2  3  1  0  0  0
  3  4  2  0  0  0
  3 15  1  0  0  0
  4  5  1  0  0  0
  4 44  1  0  0  0
  5  6  2  0  0  0
  5 45  1  0  0  0
  6  7  1  0  0  0
  6 14  1  0  0  0
  7  8  2  0  0  0
  7 46  1  0  0  0
  8  9  1  0  0  0
  8 12  1  0  0  0
  9 10  1  0  0  0
  9 11  2  0  0  0
 12 13  2  0  0  0
 12 47  1  0  0  0
 13 14  1  0  0  0
 13 48  1  0  0  0
 14 15  2  0  0  0
 15 16  1  0  0  0
 16 17  1  0  0  0
 16 49  1  0  0  0
 16 50  1  0  0  0
 17 18  1  0  0  0
 17 20  1  0  0  0
 18 19  2  0  0  0
 18 33  1  0  0  0
 20 21  2  0  0  0
 20 25  1  0  0  0
 21 22  1  0  0  0
 21 51  1  0  0  0
 22 23  2  0  0  0
 22 52  1  0  0  0
 23 24  1  0  0  0
 23 53  1  0  0  0
 24 25  2  0  0  0
 24 54  1  0  0  0
 25 26  1  0  0  0
 26 27  1  0  0  0
 27 28  1  0  0  0
 27 32  1  0  0  0
 27 33  1  0  0  0
 28 29  1  0  0  0
 28 55  1  0  0  0
 28 56  1  0  0  0
 29 30  1  0  0  0
 29 57  1  0  0  0
 29 58  1  0  0  0
 30 31  1  0  0  0
 31 32  1  0  0  0
 31 59  1  0  0  0
 31 60  1  0  0  0
 32 61  1  0  0  0
 32 62  1  0  0  0
 33 34  1  0  0  0
 33 63  1  0  0  0
 34 35  1  0  0  0
 34 64  1  0  0  0
 35 36  2  0  0  0
 35 37  1  0  0  0
 37 38  1  0  0  0
 37 39  1  0  0  0
 37 65  1  0  0  0
 38 66  1  0  0  0
 38 67  1  0  0  0
 38 68  1  0  0  0
 39 40  1  0  0  0
 39 69  1  0  0  0
 39 70  1  0  0  0
 40 71  1  0  0  0
 40 72  1  0  0  0
 40 73  1  0  0  0
M  CHG  2  10  -1  39   1
M  END
> <s_m_source_file>
../4kjv_ligand.sdf

> <i_m_source_file_index>
1

> <s_epik_input>
W09IXUMoPU8pYyhbY0hdMSlbY0hdW2NIXWMoYzEyKWMoYyhPW0NIM10pW2NIXVtjSF0yKVtDSDJdTihDKD1PKVtDQEhdM1tOSF1DKD1PKVtDQEhdKFtDSDNdKVtOSDIrXVtDSDNdKWMoW2NIXVtjSF1bY0hdW2NIXTQpYzRPQzM1W0NIMl1bQ0gyXU9bQ0gyXVtDSDJdNQ==

> <s_epik_cmdline>
J2VwaWtfYXBwJywgJy1pbWFlJywgJ2xpZ2FuZF9wcm8ubWFlJywgJy1vbWFlJywgJ2xpZ2FuZF9wcmVwLm1hZScsICctbXMnLCAnMScsICctcGgnLCAnNycsICctcGh0JywgJzAuNScsICctbnQn

> <r_lp_tautomer_probability>
1

> <r_epik_Ionization_Penalty>
  0.1031

> <r_epik_Ionization_Penalty_Charging>
  0.1031

> <r_epik_Ionization_Penalty_Neutral>
  0.0000

> <r_epik_State_Penalty>
  0.0922

> <r_epik_Charging_Adjusted_Penalty>
0.195273868790513

> <i_epik_Tot_Q>
0

> <i_epik_Tot_abs_Q>
2

$$$$
