4klb_ligand
                    3D
 Schrodinger Suite 2020-3.
 26 27  0  0  1  0            999 V2000
   30.4750   -2.0920   20.9510 N   0  0  0  0  0  0
   30.9770   -1.0060   20.1800 C   0  0  0  0  0  0
   32.1300   -0.6500   20.3340 O   0  0  0  0  0  0
   30.0880   -0.3050   19.1610 C   0  0  0  0  0  0
   29.8890    1.1010   19.0950 C   0  0  0  0  0  0
   30.4530    2.1360   19.9100 N   0  0  0  0  0  0
   31.7940    2.5720   19.6790 C   0  0  0  0  0  0
   32.4740    2.0700   18.8080 O   0  0  0  0  0  0
   32.4300    3.6800   20.4780 C   0  0  0  0  0  0
   33.2880    4.6840   19.2900 S   0  0  0  0  0  0
   32.1130    5.4220   18.1660 C   0  0  0  0  0  0
   30.7820    5.2500   18.1660 N   0  0  0  0  0  0
   30.2420    5.9640   17.1760 N   0  0  0  0  0  0
   31.2190    6.6030   16.5280 C   0  0  0  0  0  0
   32.3860    6.2700   17.1400 N   0  0  0  0  0  0
   28.8400    1.3700   17.8040 S   0  0  0  0  0  0
   28.5850   -0.1990   17.2820 C   0  0  0  0  0  0
   29.3480   -1.0180   18.1360 C   0  0  0  0  0  0
   31.1244   -2.5922   21.6846 H   0  0  0  0  0  0
   29.4377   -2.4311   20.8133 H   0  0  0  0  0  0
   29.8538    2.5930   20.7113 H   0  0  0  0  0  0
   31.6480    4.2518   20.9990 H   0  0  0  0  0  0
   33.1223    3.2490   21.2162 H   0  0  0  0  0  0
   31.1027    7.2660   15.6707 H   0  0  0  0  0  0
   27.9571   -0.5210   16.4513 H   0  0  0  0  0  0
   29.3804   -2.1028   18.0353 H   0  0  0  0  0  0
  1  2  1  0  0  0
  1 19  1  0  0  0
  1 20  1  0  0  0
  2  3  2  0  0  0
  2  4  1  0  0  0
  4  5  2  0  0  0
  4 18  1  0  0  0
  5  6  1  0  0  0
  5 16  1  0  0  0
  6  7  1  0  0  0
  6 21  1  0  0  0
  7  8  2  0  0  0
  7  9  1  0  0  0
  9 10  1  0  0  0
  9 22  1  0  0  0
  9 23  1  0  0  0
 10 11  1  0  0  0
 11 12  2  0  0  0
 11 15  1  0  0  0
 12 13  1  0  0  0
 13 14  1  0  0  0
 14 15  2  0  0  0
 14 24  1  0  0  0
 16 17  1  0  0  0
 17 18  2  0  0  0
 17 25  1  0  0  0
 18 26  1  0  0  0
M  END
> <s_m_source_file>
../4klb_ligand.sdf

> <i_m_source_file_index>
1

> <s_epik_input>
W05IMl1DKD1PKWMxYyhzW2NIXVtjSF0xKVtOSF1DKD1PKVtDSDJdU2MybltuSF1bY0hdbjI=

> <s_epik_cmdline>
J2VwaWtfYXBwJywgJy1pbWFlJywgJ2xpZ2FuZF9wcm8ubWFlJywgJy1vbWFlJywgJ2xpZ2FuZF9wcmVwLm1hZScsICctbXMnLCAnMScsICctcGgnLCAnNycsICctcGh0JywgJzAuNScsICctbnQn

> <r_lp_tautomer_probability>
1

> <r_epik_Ionization_Penalty>
 16.3418

> <r_epik_Ionization_Penalty_Charging>
  0.0000

> <r_epik_Ionization_Penalty_Neutral>
 16.3418

> <r_epik_State_Penalty>
 -0.0000

> <r_epik_Charging_Adjusted_Penalty>
0

> <i_epik_Tot_Q>
0

> <i_epik_Tot_abs_Q>
0

$$$$
