4kln_ligand
                    3D
 Schrodinger Suite 2020-3.
 44 46  0  0  1  0            999 V2000
    6.3410   43.9010   -4.1780 P   0  0  2  0  0  0
    5.7980   42.3550   -5.4200 S   0  0  0  0  0  0
    7.6220   44.6200   -4.8310 O   0  5  0  0  0  0
    6.6690   43.3430   -2.8560 O   0  0  0  0  0  0
    4.9990   46.2750   -3.4520 P   0  0  2  0  0  0
    6.2480   47.0500   -3.7380 O   0  0  0  0  0  0
    4.5000   46.1420   -2.0430 O   0  5  0  0  0  0
    5.0610   44.8390   -4.1360 O   0  0  0  0  0  0
    3.8090   48.2980   -4.9860 P   0  0  1  0  0  0
    4.1820   49.3230   -3.9510 O   0  0  0  0  0  0
    4.6240   48.1820   -6.2520 O   0  5  0  0  0  0
    3.7640   46.8640   -4.2810 O   0  0  0  0  0  0
    2.2600   48.5040   -5.3560 O   0  0  0  0  0  0
    1.7820   48.2230   -6.6670 C   0  0  0  0  0  0
    0.6310   49.1620   -6.9950 C   0  0  1  0  0  0
   -0.5510   48.7740   -6.2860 O   0  0  0  0  0  0
    0.9470   50.5930   -6.5940 C   0  0  1  0  0  0
    1.5030   51.3180   -7.6970 O   0  0  0  0  0  0
   -0.4010   51.1340   -6.1830 C   0  0  1  0  0  0
   -1.0330   51.6930   -7.3340 O   0  0  0  0  0  0
   -1.1800   49.9120   -5.6950 C   0  0  2  0  0  0
   -1.0900   49.8290   -4.2110 N   0  0  0  0  0  0
   -0.4530   48.8720   -3.5020 C   0  0  0  0  0  0
   -0.5490   49.0930   -2.1650 N   0  0  0  0  0  0
   -1.2570   50.2200   -1.9960 C   0  0  0  0  0  0
   -1.7200   51.0240   -0.8430 C   0  0  0  0  0  0
   -1.4380   50.6500    0.4240 N   0  0  0  0  0  0
   -2.4300   52.1450   -1.0930 N   0  0  0  0  0  0
   -2.7240   52.5350   -2.3480 C   0  0  0  0  0  0
   -2.3340   51.8490   -3.4410 N   0  0  0  0  0  0
   -1.6120   50.7020   -3.3400 C   0  0  0  0  0  0
    6.5097   41.5433   -5.6314 H   0  0  0  0  0  0
    2.5952   48.3699   -7.3931 H   0  0  0  0  0  0
    1.4320   47.1812   -6.7142 H   0  0  0  0  0  0
    0.4177   49.0842   -8.0713 H   0  0  0  0  0  0
    1.7257   50.7090   -5.8258 H   0  0  0  0  0  0
    2.4846   51.0331   -8.1036 H   0  0  0  0  0  0
   -0.3581   51.9542   -5.4513 H   0  0  0  0  0  0
   -0.6046   52.5824   -7.8192 H   0  0  0  0  0  0
   -2.2419   49.9113   -5.9821 H   0  0  0  0  0  0
    0.0728   48.0273   -3.9472 H   0  0  0  0  0  0
   -0.8585   49.7339    0.6110 H   0  0  0  0  0  0
   -1.7879   51.2615    1.2688 H   0  0  0  0  0  0
   -3.3040   53.4474   -2.4864 H   0  0  0  0  0  0
  1  2  1  0  0  0
  1  3  1  0  0  0
  1  4  2  0  0  0
  1  8  1  0  0  0
  2 32  1  0  0  0
  5  6  2  0  0  0
  5  7  1  0  0  0
  5  8  1  0  0  0
  5 12  1  0  0  0
  9 10  2  0  0  0
  9 11  1  0  0  0
  9 12  1  0  0  0
  9 13  1  0  0  0
 13 14  1  0  0  0
 14 15  1  0  0  0
 14 33  1  0  0  0
 14 34  1  0  0  0
 15 16  1  0  0  0
 15 17  1  0  0  0
 15 35  1  0  0  0
 16 21  1  0  0  0
 17 18  1  0  0  0
 17 19  1  0  0  0
 17 36  1  0  0  0
 18 37  1  0  0  0
 19 20  1  0  0  0
 19 21  1  0  0  0
 19 38  1  0  0  0
 20 39  1  0  0  0
 21 22  1  0  0  0
 21 40  1  0  0  0
 22 23  1  0  0  0
 22 31  1  0  0  0
 23 24  2  0  0  0
 23 41  1  0  0  0
 24 25  1  0  0  0
 25 26  2  0  0  0
 25 31  1  0  0  0
 26 27  1  0  0  0
 26 28  1  0  0  0
 27 42  1  0  0  0
 27 43  1  0  0  0
 28 29  2  0  0  0
 29 30  1  0  0  0
 29 44  1  0  0  0
 30 31  2  0  0  0
M  CHG  3   3  -1   7  -1  11  -1
M  END
> <s_m_source_file>
../4kln_ligand.sdf

> <i_m_source_file_index>
1

> <s_epik_input>
W1NIXVtQQEBdKD1PKShbT0hdKU9bUEBdKD1PKShbT0hdKU9bUEBAXSg9TykoW09IXSlPW0NIMl1bQ0BIXTFPW0NASF0oW0NASF0oW09IXSlbQ0BASF0xW09IXSluKFtjSF1uMiljKGMyMyluW2NIXW5jM1tOSDJd

> <s_epik_cmdline>
J2VwaWtfYXBwJywgJy1pbWFlJywgJ2xpZ2FuZF9wcm8ubWFlJywgJy1vbWFlJywgJ2xpZ2FuZF9wcmVwLm1hZScsICctbXMnLCAnMScsICctcGgnLCAnNycsICctcGh0JywgJzAuNScsICctbnQn

> <r_lp_tautomer_probability>
0.999997216410988

> <r_epik_Ionization_Penalty>
  0.0807

> <r_epik_Ionization_Penalty_Charging>
  0.0005

> <r_epik_Ionization_Penalty_Neutral>
  0.0802

> <r_epik_State_Penalty>
  0.0706

> <r_epik_Charging_Adjusted_Penalty>
0.0710841366671861

> <i_epik_Tot_Q>
-3

> <i_epik_Tot_abs_Q>
3

> <s_epik_Chemistry_Notes>
This compound contains an acetal/aminal-like group ( X-CH(R)-Y where X, Y are N, S, or O) that may be acid/base labile, releasing an aldehyde.

$$$$
