4klv_ligand
                    3D
 Schrodinger Suite 2020-3.
 24 25  0  0  1  0            999 V2000
   11.1650   -4.8880  -11.3430 C   0  0  0  0  0  0
   15.1950   -7.5210  -11.5370 O   0  0  0  0  0  0
   15.8840    0.4710   -8.8580 P   0  0  0  0  0  0
   12.6390   -5.0570  -11.1680 C   0  0  0  0  0  0
   15.3770   -5.3620  -10.8500 O   0  0  0  0  0  0
   13.2640   -6.2170  -11.4440 C   0  0  0  0  0  0
   16.1240   -1.0430   -9.3290 O   0  0  0  0  0  0
   14.6830   -6.4580  -11.2850 C   0  0  0  0  0  0
   14.9790    0.4080   -7.6660 O   0  0  0  0  0  0
   14.8120   -4.1380  -10.5330 C   0  0  0  0  0  0
   15.2590    1.2130  -10.0530 O   0  5  0  0  0  0
   13.4370   -3.9500  -10.6840 C   0  0  0  0  0  0
   17.2710    0.9630   -8.3940 O   0  5  0  0  0  0
   12.9450   -2.6840  -10.3490 C   0  0  0  0  0  0
   13.8150   -1.7020   -9.8990 C   0  0  0  0  0  0
   15.1690   -1.9710   -9.7720 C   0  0  0  0  0  0
   15.7160   -3.1920  -10.0930 C   0  0  0  0  0  0
   10.7300   -5.8270  -11.7158 H   0  0  0  0  0  0
   10.9717   -4.0818  -12.0660 H   0  0  0  0  0  0
   10.7081   -4.6307  -10.3760 H   0  0  0  0  0  0
   12.6537   -7.0397  -11.8166 H   0  0  0  0  0  0
   11.8803   -2.4698  -10.4414 H   0  0  0  0  0  0
   13.4322   -0.7138   -9.6439 H   0  0  0  0  0  0
   16.7830   -3.3970  -10.0064 H   0  0  0  0  0  0
  1  4  1  0  0  0
  1 18  1  0  0  0
  1 19  1  0  0  0
  1 20  1  0  0  0
  2  8  2  0  0  0
  3  7  1  0  0  0
  3  9  2  0  0  0
  3 11  1  0  0  0
  3 13  1  0  0  0
  4  6  2  0  0  0
  4 12  1  0  0  0
  5  8  1  0  0  0
  5 10  1  0  0  0
  6  8  1  0  0  0
  6 21  1  0  0  0
  7 16  1  0  0  0
 10 12  2  0  0  0
 10 17  1  0  0  0
 12 14  1  0  0  0
 14 15  2  0  0  0
 14 22  1  0  0  0
 15 16  1  0  0  0
 15 23  1  0  0  0
 16 17  2  0  0  0
 17 24  1  0  0  0
M  CHG  2  11  -1  13  -1
M  END
> <s_m_source_file>
../4klv_ligand.sdf

> <i_m_source_file_index>
1

> <s_epik_input>
Tz1jKG8xKVtjSF1jKFtDSDNdKWMoYzEyKVtjSF1bY0hdYyhbY0hdMilPUCg9TykoW09IXSlbT0hd

> <s_epik_cmdline>
J2VwaWtfYXBwJywgJy1pbWFlJywgJ2xpZ2FuZF9wcm8ubWFlJywgJy1vbWFlJywgJ2xpZ2FuZF9wcmVwLm1hZScsICctbXMnLCAnMScsICctcGgnLCAnNycsICctcGh0JywgJzAuNScsICctbnQn

> <r_epik_Ionization_Penalty>
  0.0734

> <r_epik_Ionization_Penalty_Charging>
  0.0734

> <r_epik_Ionization_Penalty_Neutral>
  0.0000

> <r_epik_State_Penalty>
  0.0645

> <r_epik_Charging_Adjusted_Penalty>
0.137901573633237

> <i_epik_Tot_Q>
-2

> <i_epik_Tot_abs_Q>
2

$$$$
