4km0_ligand
                    3D
 Schrodinger Suite 2020-3.
 31 32  0  0  1  0            999 V2000
    2.4240   -1.7970    0.3350 N   0  0  0  0  0  0
    3.0380   -2.2150   -0.8020 C   0  0  0  0  0  0
    1.8430   -2.7720    1.0950 C   0  0  0  0  0  0
    1.8670   -4.1600    0.7880 C   0  0  0  0  0  0
    2.4790   -4.4960   -0.3900 C   0  0  0  0  0  0
    2.9790   -3.5270   -1.2070 N   0  3  0  0  0  0
    1.3090   -5.1380    1.7200 C   0  0  0  0  0  0
   -0.0500   -5.1380    2.1050 C   0  0  0  0  0  0
   -0.5340   -6.0670    3.0670 C   0  0  0  0  0  0
    0.4260   -6.9640    3.6340 C   0  0  0  0  0  0
    1.8110   -6.9680    3.3340 C   0  0  0  0  0  0
    2.1880   -6.0620    2.3300 C   0  0  0  0  0  0
    1.2210   -2.3370    2.2350 N   0  0  0  0  0  0
    3.6380   -1.3800   -1.5720 N   0  0  0  0  0  0
    2.5710   -5.9080   -0.9780 C   0  0  0  0  0  0
    4.0500   -6.3660   -1.0000 C   0  0  0  0  0  0
   -0.1810   -8.1160    4.7940 Cl  0  0  0  0  0  0
   -0.7359   -4.4175    1.6595 H   0  0  0  0  0  0
   -1.5841   -6.0944    3.3580 H   0  0  0  0  0  0
    2.5234   -7.6195    3.8400 H   0  0  0  0  0  0
    3.2265   -6.0716    1.9991 H   0  0  0  0  0  0
    1.2008   -1.2637    2.4752 H   0  0  0  0  0  0
    0.7416   -3.0609    2.9104 H   0  0  0  0  0  0
    3.7080   -0.3202   -1.2857 H   0  0  0  0  0  0
    4.0818   -1.7248   -2.5176 H   0  0  0  0  0  0
    1.9826   -6.6018   -0.3595 H   0  0  0  0  0  0
    2.1741   -5.9046   -2.0039 H   0  0  0  0  0  0
    4.1137   -7.3797   -1.4224 H   0  0  0  0  0  0
    4.4477   -6.3705    0.0256 H   0  0  0  0  0  0
    4.6392   -5.6732   -1.6188 H   0  0  0  0  0  0
    3.3393   -3.8107   -2.2068 H   0  0  0  0  0  0
  1  2  2  0  0  0
  1  3  1  0  0  0
  2  6  1  0  0  0
  2 14  1  0  0  0
  3  4  2  0  0  0
  3 13  1  0  0  0
  4  5  1  0  0  0
  4  7  1  0  0  0
  5  6  2  0  0  0
  5 15  1  0  0  0
  6 31  1  0  0  0
  7  8  2  0  0  0
  7 12  1  0  0  0
  8  9  1  0  0  0
  8 18  1  0  0  0
  9 10  2  0  0  0
  9 19  1  0  0  0
 10 11  1  0  0  0
 10 17  1  0  0  0
 11 12  2  0  0  0
 11 20  1  0  0  0
 12 21  1  0  0  0
 13 22  1  0  0  0
 13 23  1  0  0  0
 14 24  1  0  0  0
 14 25  1  0  0  0
 15 16  1  0  0  0
 15 26  1  0  0  0
 15 27  1  0  0  0
 16 28  1  0  0  0
 16 29  1  0  0  0
 16 30  1  0  0  0
M  CHG  1   6   1
M  END
> <s_m_source_file>
../4km0_ligand.sdf

> <i_m_source_file_index>
1

> <s_epik_input>
W05IMl1jMW5jKFtOSDJdKWMoYyhuMSlbQ0gyXVtDSDNdKS1jMltjSF1bY0hdYyhDbClbY0hdW2NIXTI=

> <s_epik_cmdline>
J2VwaWtfYXBwJywgJy1pbWFlJywgJ2xpZ2FuZF9wcm8ubWFlJywgJy1vbWFlJywgJ2xpZ2FuZF9wcmVwLm1hZScsICctbXMnLCAnMScsICctcGgnLCAnNycsICctcGh0JywgJzAuNScsICctbnQn

> <r_lp_tautomer_probability>
0.575010577011949

> <r_epik_Ionization_Penalty>
  0.2610

> <r_epik_Ionization_Penalty_Charging>
  0.2609

> <r_epik_Ionization_Penalty_Neutral>
  0.0000

> <r_epik_State_Penalty>
  0.4784

> <r_epik_Charging_Adjusted_Penalty>
0.739376685330472

> <i_epik_Tot_Q>
1

> <i_epik_Tot_abs_Q>
1

$$$$
