4km2_ligand
                    3D
 Schrodinger Suite 2020-3.
 40 41  0  0  1  0            999 V2000
   14.6580    2.6980   21.1010 C   0  0  0  0  0  0
   15.6810    3.4550   21.6490 N   0  3  0  0  0  0
   16.9070    3.4650   21.0230 C   0  0  0  0  0  0
   17.8780    4.2600   21.5880 N   0  0  0  0  0  0
   17.1890    2.7230   19.9350 N   0  0  0  0  0  0
   16.2150    1.9470   19.4260 C   0  0  0  0  0  0
   16.5310    1.2740   18.3300 N   0  0  0  0  0  0
   14.8770    1.9520   19.9840 C   0  0  0  0  0  0
   13.7120    1.1080   19.4330 C   0  0  0  0  0  0
   12.8440    1.9090   18.4670 C   0  0  0  0  0  0
   12.4880    1.2300   17.2970 C   0  0  0  0  0  0
   11.6020    1.8800   16.4200 C   0  0  0  0  0  0
   11.1630    1.3960   15.2110 O   0  0  0  0  0  0
   11.4210    0.0230   14.9830 C   0  0  0  0  0  0
   11.1320    3.1720   16.6530 C   0  0  0  0  0  0
   10.2540    3.8790   15.8220 O   0  0  0  0  0  0
    8.9060    3.3910   15.8540 C   0  0  0  0  0  0
   11.4650    3.8120   17.8340 C   0  0  0  0  0  0
   10.9270    5.0460   18.0710 O   0  0  0  0  0  0
   11.2990    5.7260   19.2390 C   0  0  0  0  0  0
   12.3660    3.2270   18.7440 C   0  0  0  0  0  0
   13.6726    2.7000   21.5670 H   0  0  0  0  0  0
   17.6451    4.8651   22.4766 H   0  0  0  0  0  0
   18.8870    4.2903   21.1510 H   0  0  0  0  0  0
   17.5612    1.3016   17.9455 H   0  0  0  0  0  0
   15.7632    0.6874   17.8042 H   0  0  0  0  0  0
   14.1130    0.2354   18.8966 H   0  0  0  0  0  0
   13.0798    0.7674   20.2662 H   0  0  0  0  0  0
   12.8812    0.2381   17.0744 H   0  0  0  0  0  0
   11.0331   -0.2637   13.9944 H   0  0  0  0  0  0
   10.9248   -0.5772   15.7598 H   0  0  0  0  0  0
   12.5056   -0.1569   15.0176 H   0  0  0  0  0  0
    8.2814    3.9947   15.1791 H   0  0  0  0  0  0
    8.5141    3.4635   16.8792 H   0  0  0  0  0  0
    8.8885    2.3405   15.5282 H   0  0  0  0  0  0
   10.7818    6.6960   19.2790 H   0  0  0  0  0  0
   12.3867    5.8902   19.2370 H   0  0  0  0  0  0
   11.0204    5.1254   20.1174 H   0  0  0  0  0  0
   12.6900    3.7645   19.6352 H   0  0  0  0  0  0
   15.5055    4.0336   22.5679 H   0  0  0  0  0  0
  1  2  2  0  0  0
  1  8  1  0  0  0
  1 22  1  0  0  0
  2  3  1  0  0  0
  2 40  1  0  0  0
  3  4  1  0  0  0
  3  5  2  0  0  0
  4 23  1  0  0  0
  4 24  1  0  0  0
  5  6  1  0  0  0
  6  7  1  0  0  0
  6  8  2  0  0  0
  7 25  1  0  0  0
  7 26  1  0  0  0
  8  9  1  0  0  0
  9 10  1  0  0  0
  9 27  1  0  0  0
  9 28  1  0  0  0
 10 11  2  0  0  0
 10 21  1  0  0  0
 11 12  1  0  0  0
 11 29  1  0  0  0
 12 13  1  0  0  0
 12 15  2  0  0  0
 13 14  1  0  0  0
 14 30  1  0  0  0
 14 31  1  0  0  0
 14 32  1  0  0  0
 15 16  1  0  0  0
 15 18  1  0  0  0
 16 17  1  0  0  0
 17 33  1  0  0  0
 17 34  1  0  0  0
 17 35  1  0  0  0
 18 19  1  0  0  0
 18 21  2  0  0  0
 19 20  1  0  0  0
 20 36  1  0  0  0
 20 37  1  0  0  0
 20 38  1  0  0  0
 21 39  1  0  0  0
M  CHG  1   2   1
M  END
> <s_m_source_file>
../4km2_ligand.sdf

> <i_m_source_file_index>
1

> <s_epik_input>
W05IMl1jMW5bY0hdYyhjKG4xKVtOSDJdKVtDSDJdYzJbY0hdYyhPW0NIM10pYyhPW0NIM10pYyhbY0hdMilPW0NIM10=

> <s_epik_cmdline>
J2VwaWtfYXBwJywgJy1pbWFlJywgJ2xpZ2FuZF9wcm8ubWFlJywgJy1vbWFlJywgJ2xpZ2FuZF9wcmVwLm1hZScsICctbXMnLCAnMScsICctcGgnLCAnNycsICctcGh0JywgJzAuNScsICctbnQn

> <r_lp_tautomer_probability>
0.575010577011949

> <r_epik_Ionization_Penalty>
  0.2380

> <r_epik_Ionization_Penalty_Charging>
  0.2380

> <r_epik_Ionization_Penalty_Neutral>
  0.0000

> <r_epik_State_Penalty>
  0.4697

> <r_epik_Charging_Adjusted_Penalty>
0.707697881122565

> <i_epik_Tot_Q>
1

> <i_epik_Tot_abs_Q>
1

$$$$
