4kmd_ligand
                    3D
 Schrodinger Suite 2020-3.
135136  0  0  1  0            999 V2000
   -9.2940   10.8320   11.2550 N   0  3  0  0  0  0
   -9.9860   12.1400   11.0500 C   0  0  0  0  0  0
  -11.2580   12.3160   11.8590 C   0  0  0  0  0  0
  -11.9290   11.3390   12.2110 O   0  0  0  0  0  0
  -11.5920   13.5740   12.1420 N   0  0  0  0  0  0
  -12.8110   13.9150   12.8660 C   0  0  2  0  0  0
  -14.0330   13.8160   11.9770 C   0  0  0  0  0  0
  -13.9260   13.7350   10.7540 O   0  0  0  0  0  0
  -12.7150   15.3180   13.4610 C   0  0  0  0  0  0
  -11.7050   15.3570   14.4380 O   0  0  0  0  0  0
  -15.1970   13.8410   12.6130 N   0  0  0  0  0  0
  -16.4440   13.6000   11.9310 C   0  0  2  0  0  0
  -17.4820   14.6060   12.3770 C   0  0  0  0  0  0
  -17.5320   14.9770   13.5570 O   0  0  0  0  0  0
  -16.9160   12.2000   12.2770 C   0  0  0  0  0  0
  -17.8420   11.6040   11.2700 C   0  0  0  0  0  0
  -17.3490   10.9760   10.1370 C   0  0  0  0  0  0
  -19.2230   11.6500   11.4590 C   0  0  0  0  0  0
  -18.2120   10.4120    9.1980 C   0  0  0  0  0  0
  -20.0920   11.0910   10.5320 C   0  0  0  0  0  0
  -19.5810   10.4800    9.4030 C   0  0  0  0  0  0
  -20.4370    9.9240    8.4820 O   0  0  0  0  0  0
  -18.3030   15.0550   11.4310 N   0  0  0  0  0  0
  -19.4210   15.9310   11.7470 C   0  0  0  0  0  0
  -20.7360   15.1880   11.7060 C   0  0  0  0  0  0
  -20.9910   14.4200   10.7820 O   0  0  0  0  0  0
  -21.5630   15.4090   12.7210 N   0  0  0  0  0  0
  -22.8750   14.7800   12.8030 C   0  0  2  0  0  0
  -23.8770   15.9180   12.6650 C   0  0  0  0  0  0
  -24.0980   16.6810   13.6100 O   0  0  0  0  0  0
  -23.0010   14.0430   14.1400 C   0  0  0  0  0  0
  -21.8590   13.1050   14.4150 C   0  0  0  0  0  0
  -21.8700   11.7830   14.0250 N   0  0  0  0  0  0
  -20.6650   13.3060   15.0230 C   0  0  0  0  0  0
  -20.7390   11.2070   14.3920 C   0  0  0  0  0  0
  -19.9840   12.1120   14.9920 N   0  0  0  0  0  0
  -24.4530   16.0480   11.4720 N   0  0  0  0  0  0
  -25.1320   17.2950   11.1040 C   0  0  2  0  0  0
  -26.6340   17.2860   11.3330 C   0  0  0  0  0  0
  -27.3350   16.3920   10.8670 O   0  0  0  0  0  0
  -24.8100   17.6960    9.6630 C   0  0  0  0  0  0
  -23.3200   17.7620    9.3120 C   0  0  0  0  0  0
  -23.1780   18.2080    7.8740 C   0  0  0  0  0  0
  -22.5610   18.6710   10.2740 C   0  0  0  0  0  0
  -27.1000   18.2990   12.0680 N   0  0  0  0  0  0
  -28.5290   18.5370   12.3230 C   0  0  2  0  0  0
  -29.2830   17.2820   12.7510 C   0  0  0  0  0  0
  -30.3140   16.9160   12.1730 O   0  0  0  0  0  0
  -29.1840   19.1890   11.1060 C   0  0  0  0  0  0
  -28.6540   20.4900   10.9020 O   0  0  0  0  0  0
  -28.7670   16.6460   13.7980 N   0  0  0  0  0  0
  -29.2270   15.3220   14.1940 C   0  0  2  0  0  0
  -30.4740   15.3740   15.0780 C   0  0  0  0  0  0
  -31.0040   14.3330   15.4800 O   0  0  0  0  0  0
  -28.1010   14.5270   14.8870 C   0  0  2  0  0  0
  -27.7100   15.2000   16.2050 C   0  0  0  0  0  0
  -26.8840   14.4180   13.9660 C   0  0  0  0  0  0
  -26.8740   14.3180   17.1260 C   0  0  0  0  0  0
  -30.9250   16.5900   15.3790 N   0  0  0  0  0  0
  -32.1790   16.8120   16.0910 C   0  0  0  0  0  0
  -33.3750   16.7180   15.1580 C   0  0  0  0  0  0
  -34.5030   16.5160   15.6100 O   0  0  0  0  0  0
  -33.1300   16.8800   13.8550 N   0  0  0  0  0  0
  -34.1670   16.6890   12.8320 C   0  0  2  0  0  0
  -33.8530   15.4820   11.9410 C   0  0  0  0  0  0
  -32.6667   15.0872   11.7849 O   0  0  0  0  0  0
  -34.3980   17.9640   11.9670 C   0  0  2  0  0  0
  -35.6770   17.8830   11.3200 O   0  0  0  0  0  0
  -33.2980   18.1480   10.9130 C   0  0  0  0  0  0
  -34.7922   14.8775   11.3578 O   0  5  0  0  0  0
   -8.3882   10.7948   10.6320 H   0  0  0  0  0  0
   -9.9690   10.0115   10.9701 H   0  0  0  0  0  0
   -9.0153   10.7266   12.3139 H   0  0  0  0  0  0
   -9.3110   12.9605   11.3349 H   0  0  0  0  0  0
  -10.2647   12.2454    9.9911 H   0  0  0  0  0  0
  -10.9096   14.3697   11.8084 H   0  0  0  0  0  0
  -12.8838   13.1607   13.6634 H   0  0  0  0  0  0
  -12.4766   16.0384   12.6647 H   0  0  0  0  0  0
  -13.6764   15.5869   13.9230 H   0  0  0  0  0  0
  -11.4948   16.2939   14.9746 H   0  0  0  0  0  0
  -15.1925   14.0534   13.6923 H   0  0  0  0  0  0
  -16.2518   13.7118   10.8537 H   0  0  0  0  0  0
  -16.0477   11.5293   12.3557 H   0  0  0  0  0  0
  -17.4516   12.2205   13.2376 H   0  0  0  0  0  0
  -16.2720   10.9223    9.9778 H   0  0  0  0  0  0
  -19.6265   12.1327   12.3491 H   0  0  0  0  0  0
  -17.8131    9.9216    8.3100 H   0  0  0  0  0  0
  -21.1691   11.1337   10.6935 H   0  0  0  0  0  0
  -20.0349    9.4365    7.5816 H   0  0  0  0  0  0
  -18.1210   14.7492   10.3902 H   0  0  0  0  0  0
  -19.2874   16.3463   12.7568 H   0  0  0  0  0  0
  -19.4620   16.7516   11.0156 H   0  0  0  0  0  0
  -21.2298   16.0919   13.5164 H   0  0  0  0  0  0
  -23.0072   14.0397   12.0002 H   0  0  0  0  0  0
  -23.8176   14.1442   14.8700 H   0  0  0  0  0  0
  -20.2051   14.1895   15.4899 H   0  0  0  0  0  0
  -20.4732   10.1627   14.2280 H   0  0  0  0  0  0
  -24.4168   15.2106   10.7597 H   0  0  0  0  0  0
  -24.7086   18.0175   11.8172 H   0  0  0  0  0  0
  -25.2590   16.9684    8.9709 H   0  0  0  0  0  0
  -25.2203   18.6963    9.4603 H   0  0  0  0  0  0
  -22.8646   16.7654    9.4086 H   0  0  0  0  0  0
  -23.7403   17.5244    7.2209 H   0  0  0  0  0  0
  -22.1155   18.1958    7.5896 H   0  0  0  0  0  0
  -23.5749   19.2281    7.7656 H   0  0  0  0  0  0
  -22.6938   18.3076   11.3037 H   0  0  0  0  0  0
  -22.9507   19.6965   10.1939 H   0  0  0  0  0  0
  -21.4913   18.6642   10.0179 H   0  0  0  0  0  0
  -26.3451   18.9767   12.4932 H   0  0  0  0  0  0
  -28.5454   19.2270   13.1795 H   0  0  0  0  0  0
  -28.9894   18.5769   10.2130 H   0  0  0  0  0  0
  -30.2692   19.2640   11.2698 H   0  0  0  0  0  0
  -29.0147   21.1058   10.0649 H   0  0  0  0  0  0
  -27.9720   17.1461   14.3706 H   0  0  0  0  0  0
  -29.5014   14.8518   13.2382 H   0  0  0  0  0  0
  -28.4612   13.5115   15.1082 H   0  0  0  0  0  0
  -27.1182   16.1029   15.9942 H   0  0  0  0  0  0
  -28.6190   15.4784   16.7584 H   0  0  0  0  0  0
  -27.1794   13.9331   13.0239 H   0  0  0  0  0  0
  -26.1042   13.8183   14.4583 H   0  0  0  0  0  0
  -26.4935   15.4242   13.7538 H   0  0  0  0  0  0
  -26.6356   14.8712   18.0464 H   0  0  0  0  0  0
  -25.9412   14.0356   16.6159 H   0  0  0  0  0  0
  -27.4421   13.4110   17.3801 H   0  0  0  0  0  0
  -30.3099   17.4473   15.0680 H   0  0  0  0  0  0
  -32.2925   16.0531   16.8791 H   0  0  0  0  0  0
  -32.1704   17.8138   16.5452 H   0  0  0  0  0  0
  -32.1104   17.1664   13.5578 H   0  0  0  0  0  0
  -35.0706   16.4800   13.4234 H   0  0  0  0  0  0
  -34.4377   18.8589   12.6054 H   0  0  0  0  0  0
  -36.5894   17.7499   11.9199 H   0  0  0  0  0  0
  -32.3193   18.2097   11.4114 H   0  0  0  0  0  0
  -33.4816   19.0746   10.3494 H   0  0  0  0  0  0
  -33.3046   17.2915   10.2228 H   0  0  0  0  0  0
  -22.7418   11.3735   13.4937 H   0  0  0  0  0  0
  1  2  1  0  0  0
  1 71  1  0  0  0
  1 72  1  0  0  0
  1 73  1  0  0  0
  2  3  1  0  0  0
  2 74  1  0  0  0
  2 75  1  0  0  0
  3  4  2  0  0  0
  3  5  1  0  0  0
  5  6  1  0  0  0
  5 76  1  0  0  0
  6  7  1  0  0  0
  6  9  1  0  0  0
  6 77  1  0  0  0
  7  8  2  0  0  0
  7 11  1  0  0  0
  9 10  1  0  0  0
  9 78  1  0  0  0
  9 79  1  0  0  0
 10 80  1  0  0  0
 11 12  1  0  0  0
 11 81  1  0  0  0
 12 13  1  0  0  0
 12 15  1  0  0  0
 12 82  1  0  0  0
 13 14  2  0  0  0
 13 23  1  0  0  0
 15 16  1  0  0  0
 15 83  1  0  0  0
 15 84  1  0  0  0
 16 17  2  0  0  0
 16 18  1  0  0  0
 17 19  1  0  0  0
 17 85  1  0  0  0
 18 20  2  0  0  0
 18 86  1  0  0  0
 19 21  2  0  0  0
 19 87  1  0  0  0
 20 21  1  0  0  0
 20 88  1  0  0  0
 21 22  1  0  0  0
 22 89  1  0  0  0
 23 24  1  0  0  0
 23 90  1  0  0  0
 24 25  1  0  0  0
 24 91  1  0  0  0
 24 92  1  0  0  0
 25 26  2  0  0  0
 25 27  1  0  0  0
 27 28  1  0  0  0
 27 93  1  0  0  0
 28 29  1  0  0  0
 28 31  1  0  0  0
 28 94  1  0  0  0
 29 30  2  0  0  0
 29 37  1  0  0  0
 31 32  2  0  0  0
 31 95  1  0  0  0
 32 33  1  0  0  0
 32 34  1  0  0  0
 33 35  1  0  0  0
 33135  1  0  0  0
 34 36  2  0  0  0
 34 96  1  0  0  0
 35 36  1  0  0  0
 35 97  1  0  0  0
 37 38  1  0  0  0
 37 98  1  0  0  0
 38 39  1  0  0  0
 38 41  1  0  0  0
 38 99  1  0  0  0
 39 40  2  0  0  0
 39 45  1  0  0  0
 41 42  1  0  0  0
 41100  1  0  0  0
 41101  1  0  0  0
 42 43  1  0  0  0
 42 44  1  0  0  0
 42102  1  0  0  0
 43103  1  0  0  0
 43104  1  0  0  0
 43105  1  0  0  0
 44106  1  0  0  0
 44107  1  0  0  0
 44108  1  0  0  0
 45 46  1  0  0  0
 45109  1  0  0  0
 46 47  1  0  0  0
 46 49  1  0  0  0
 46110  1  0  0  0
 47 48  2  0  0  0
 47 51  1  0  0  0
 49 50  1  0  0  0
 49111  1  0  0  0
 49112  1  0  0  0
 50113  1  0  0  0
 51 52  1  0  0  0
 51114  1  0  0  0
 52 53  1  0  0  0
 52 55  1  0  0  0
 52115  1  0  0  0
 53 54  2  0  0  0
 53 59  1  0  0  0
 55 56  1  0  0  0
 55 57  1  0  0  0
 55116  1  0  0  0
 56 58  1  0  0  0
 56117  1  0  0  0
 56118  1  0  0  0
 57119  1  0  0  0
 57120  1  0  0  0
 57121  1  0  0  0
 58122  1  0  0  0
 58123  1  0  0  0
 58124  1  0  0  0
 59 60  1  0  0  0
 59125  1  0  0  0
 60 61  1  0  0  0
 60126  1  0  0  0
 60127  1  0  0  0
 61 62  2  0  0  0
 61 63  1  0  0  0
 63 64  1  0  0  0
 63128  1  0  0  0
 64 65  1  0  0  0
 64 67  1  0  0  0
 64129  1  0  0  0
 65 66  2  0  0  0
 65 70  1  0  0  0
 67 68  1  0  0  0
 67 69  1  0  0  0
 67130  1  0  0  0
 68131  1  0  0  0
 69132  1  0  0  0
 69133  1  0  0  0
 69134  1  0  0  0
M  CHG  2   1   1  70  -1
M  END
> <s_m_source_file>
../4kmd_ligand.sdf

> <i_m_source_file_index>
1

> <s_epik_input>
W05IMytdW0NIMl1DKD1PKVtOSF1bQ0BASF0oW0NIMl1bT0hdKUMoPU8pW05IXVtDQEBIXShbQ0gyXWMxW2NIXVtjSF1jKFtPSF0pW2NIXVtjSF0xKUMoPU8pW05IXVtDSDJdQyg9TylbTkhdW0NAQEhdKFtDSDJdQzI9TltDSDJdTj1bQ0hdMilDKD1PKVtOSF1bQ0BASF0oW0NIMl1bQ0hdKFtDSDNdKVtDSDNdKUMoPU8pW05IXVtDQEBIXShbQ0gyXVtPSF0pQyg9TylbTkhdW0NAQEhdKFtDQEBIXShbQ0gzXSlbQ0gyXVtDSDNdKUMoPU8pW05IXVtDSDJdQyg9TylbTkhdW0NASF0oQyg9TylbT0hdKVtDQEhdKFtPSF0pW0NIM10=

> <s_epik_cmdline>
J2VwaWtfYXBwJywgJy1pbWFlJywgJ2xpZ2FuZF9wcm8ubWFlJywgJy1vbWFlJywgJ2xpZ2FuZF9wcmVwLm1hZScsICctbXMnLCAnMScsICctcGgnLCAnNycsICctcGh0JywgJzAuNScsICctbnQn

> <r_epik_Ionization_Penalty>
  0.1357

> <r_epik_Ionization_Penalty_Charging>
  0.1348

> <r_epik_Ionization_Penalty_Neutral>
  0.0009

> <r_epik_State_Penalty>
  0.1240

> <r_epik_Charging_Adjusted_Penalty>
0.258795519007466

> <i_epik_Tot_Q>
0

> <i_epik_Tot_abs_Q>
2

> <s_epik_Chemistry_Notes>
This compound has an imine and may undergo hydrolysis.

$$$$
