4kmu_ligand
                    3D
 Schrodinger Suite 2020-3.
126130  0  0  1  0            999 V2000
 -113.1570   26.4420    8.4140 C   0  0  0  0  0  0
 -112.0110   26.1610    7.6560 C   0  0  0  0  0  0
 -110.7220   26.3310    8.1320 C   0  0  0  0  0  0
 -110.5060   26.8070    9.4110 C   0  0  0  0  0  0
 -111.5050   27.5780   11.5580 C   0  0  0  0  0  0
 -112.6880   27.8420   12.2940 C   0  0  0  0  0  0
 -113.9900   27.6890   11.8840 C   0  0  0  0  0  0
 -114.1500   27.2060   10.5610 C   0  0  0  0  0  0
 -112.9590   26.9190    9.7520 C   0  0  0  0  0  0
 -111.5950   27.0970   10.2340 C   0  0  0  0  0  0
 -110.4700   27.9030   12.4580 C   0  0  0  0  0  0
 -110.8310   28.5720   13.5880 C   0  0  2  0  0  0
 -110.0870   27.9080   14.7240 C   0  0  0  0  0  0
 -115.1840   27.9950   12.7500 C   0  0  0  0  0  0
 -113.1370   25.8740    5.3110 C   0  0  0  0  0  0
 -112.8440   25.2980    3.9340 C   0  0  1  0  0  0
 -112.0470   26.1860    3.1850 C   0  0  0  0  0  0
 -112.2850   27.7150    3.3180 C   0  0  0  0  0  0
 -111.5580   28.5950    2.4810 C   0  0  0  0  0  0
 -110.8010   29.8210    2.9660 C   0  0  1  0  0  0
 -110.9600   30.0580    4.4610 C   0  0  1  0  0  0
 -109.9870   31.0380    5.0560 C   0  0  2  0  0  0
 -110.6340   31.6020    6.2960 C   0  0  2  0  0  0
 -109.6980   31.7220    7.4680 C   0  0  2  0  0  0
 -110.3040   32.7430    8.4340 C   0  0  1  0  0  0
 -110.8190   32.0730    9.6950 C   0  0  1  0  0  0
 -110.3910   32.8070   10.9590 C   0  0  2  0  0  0
 -110.7820   32.0650   12.2190 C   0  0  0  0  0  0
 -110.7670   30.6630   12.2560 C   0  0  0  0  0  0
 -112.4090   23.8450    4.0370 C   0  0  0  0  0  0
 -109.3990   29.6180    2.4950 C   0  0  0  0  0  0
 -109.6030   32.1840    4.1530 C   0  0  0  0  0  0
 -108.2630   32.0730    7.0900 C   0  0  0  0  0  0
 -112.3170   31.9050    9.6320 C   0  0  0  0  0  0
 -109.2060   34.8330    7.7070 C   0  0  0  0  0  0
 -107.8490   35.3960    7.4190 C   0  0  0  0  0  0
 -111.9590   34.5560   11.7230 C   0  0  0  0  0  0
 -103.4190   25.5160    6.1440 C   0  0  0  0  0  0
 -105.6080   25.9440    7.3140 C   0  0  0  0  0  0
 -107.0230   26.3240    7.0090 C   0  0  0  0  0  0
 -107.0330   24.7850    5.0720 C   0  0  0  0  0  0
 -105.6130   24.4350    5.4970 C   0  0  0  0  0  0
 -109.6810   25.3780    7.5370 C   0  0  0  0  0  0
 -112.0260   25.6720    6.2710 N   0  0  0  0  0  0
 -108.9690   25.8550    6.5150 N   0  0  1  0  0  0
 -107.7070   25.3480    6.2190 N   0  0  2  0  0  0
 -104.9080   25.5260    6.1300 N   0  3  2  0  0  0
 -114.3990   26.2410    7.9090 O   0  0  0  0  0  0
 -115.4170   27.0030    9.9830 O   0  0  0  0  0  0
 -112.2320   28.3550   13.7070 O   0  0  0  0  0  0
 -109.3000   27.5970   12.2430 O   0  0  0  0  0  0
 -110.5390   29.9600   13.4570 O   0  0  0  0  0  0
 -110.8530   34.1200   10.9850 O   0  0  0  0  0  0
 -109.3790   33.7730    8.6350 O   0  0  0  0  0  0
 -110.0490   35.0390    6.8480 O   0  0  0  0  0  0
 -111.7030   30.7800    6.6320 O   0  0  0  0  0  0
 -112.2570   30.4910    4.7130 O   0  0  0  0  0  0
 -114.1760   26.4630    5.5830 O   0  0  0  0  0  0
 -109.2250   26.9650    9.8480 O   0  0  0  0  0  0
 -110.3584   26.8429   14.7670 H   0  0  0  0  0  0
 -110.3575   28.3940   15.6730 H   0  0  0  0  0  0
 -109.0038   28.0040   14.5585 H   0  0  0  0  0  0
 -114.8423   28.3551   13.7316 H   0  0  0  0  0  0
 -115.7842   27.0827   12.8827 H   0  0  0  0  0  0
 -115.7974   28.7706   12.2681 H   0  0  0  0  0  0
 -113.7120   25.2878    3.2583 H   0  0  0  0  0  0
 -110.9901   26.0490    3.4575 H   0  0  0  0  0  0
 -112.1786   25.9810    2.1123 H   0  0  0  0  0  0
 -113.3407   27.9414    3.1077 H   0  0  0  0  0  0
 -112.0375   28.0371    4.3403 H   0  0  0  0  0  0
 -110.7624   28.0371    1.9655 H   0  0  0  0  0  0
 -112.2366   29.0377    1.7370 H   0  0  0  0  0  0
 -111.1841   30.7606    2.5412 H   0  0  0  0  0  0
 -110.8258   29.1018    4.9879 H   0  0  0  0  0  0
 -109.0548   30.4874    5.2506 H   0  0  0  0  0  0
 -111.0401   32.6021    6.0843 H   0  0  0  0  0  0
 -109.6131   30.7281    7.9316 H   0  0  0  0  0  0
 -111.1574   33.2982    8.0174 H   0  0  0  0  0  0
 -110.3688   31.0705    9.7437 H   0  0  0  0  0  0
 -109.3000   32.9458   10.9403 H   0  0  0  0  0  0
 -110.1075   32.3535   13.0387 H   0  0  0  0  0  0
 -111.8173   32.3207   12.4888 H   0  0  0  0  0  0
 -111.7409   30.2769   11.9207 H   0  0  0  0  0  0
 -109.9751   30.2871   11.5915 H   0  0  0  0  0  0
 -113.1323   23.2884    4.6509 H   0  0  0  0  0  0
 -111.4144   23.7923    4.5040 H   0  0  0  0  0  0
 -112.3655   23.4031    3.0306 H   0  0  0  0  0  0
 -109.3975   29.4564    1.4069 H   0  0  0  0  0  0
 -108.9672   28.7395    2.9968 H   0  0  0  0  0  0
 -108.7993   30.5086    2.7342 H   0  0  0  0  0  0
 -109.1288   31.7900    3.2420 H   0  0  0  0  0  0
 -108.8966   32.8438    4.6781 H   0  0  0  0  0  0
 -110.5036   32.7538    3.8805 H   0  0  0  0  0  0
 -107.8703   31.3143    6.3971 H   0  0  0  0  0  0
 -107.6408   32.0985    7.9967 H   0  0  0  0  0  0
 -108.2428   33.0594    6.6035 H   0  0  0  0  0  0
 -112.5877   31.3724    8.7084 H   0  0  0  0  0  0
 -112.7975   32.8945    9.6390 H   0  0  0  0  0  0
 -112.6579   31.3256   10.5027 H   0  0  0  0  0  0
 -107.1688   35.1562    8.2495 H   0  0  0  0  0  0
 -107.9212   36.4880    7.3077 H   0  0  0  0  0  0
 -107.4601   34.9574    6.4882 H   0  0  0  0  0  0
 -112.1035   35.6349   11.5643 H   0  0  0  0  0  0
 -111.7859   34.3625   12.7919 H   0  0  0  0  0  0
 -112.8571   34.0133   11.3929 H   0  0  0  0  0  0
 -103.0512   26.4139    6.6621 H   0  0  0  0  0  0
 -103.0427   25.5091    5.1104 H   0  0  0  0  0  0
 -103.0633   24.6177    6.6698 H   0  0  0  0  0  0
 -105.0806   26.8086    7.7433 H   0  0  0  0  0  0
 -105.5987   25.1136    8.0354 H   0  0  0  0  0  0
 -107.5815   26.4431    7.9492 H   0  0  0  0  0  0
 -107.0361   27.2726    6.4522 H   0  0  0  0  0  0
 -107.0002   25.5155    4.2502 H   0  0  0  0  0  0
 -107.5492   23.8747    4.7330 H   0  0  0  0  0  0
 -105.6400   23.6029    6.2160 H   0  0  0  0  0  0
 -105.0287   24.1375    4.6138 H   0  0  0  0  0  0
 -108.9529   25.0995    8.3131 H   0  0  0  0  0  0
 -110.1831   24.4732    7.1637 H   0  0  0  0  0  0
 -111.1671   25.1087    5.8773 H   0  0  0  0  0  0
 -109.5276   25.6202    5.6945 H   0  0  0  0  0  0
 -105.0118   26.3698    5.4320 H   0  0  0  0  0  0
 -114.5213   25.8744    6.8791 H   0  0  0  0  0  0
 -116.3268   27.2097   10.5656 H   0  0  0  0  0  0
 -112.4930   30.5759    5.8942 H   0  0  0  0  0  0
 -113.1133   29.9015    4.3534 H   0  0  0  0  0  0
 -108.3831   26.7296    9.1803 H   0  0  0  0  0  0
  1  2  2  0  0  0
  1  9  1  0  0  0
  1 48  1  0  0  0
  2  3  1  0  0  0
  2 44  1  0  0  0
  3  4  2  0  0  0
  3 43  1  0  0  0
  4 10  1  0  0  0
  4 59  1  0  0  0
  5  6  1  0  0  0
  5 10  2  0  0  0
  5 11  1  0  0  0
  6  7  2  0  0  0
  6 50  1  0  0  0
  7  8  1  0  0  0
  7 14  1  0  0  0
  8  9  2  0  0  0
  8 49  1  0  0  0
  9 10  1  0  0  0
 11 12  1  0  0  0
 11 51  2  0  0  0
 12 13  1  0  0  0
 12 50  1  0  0  0
 12 52  1  0  0  0
 13 60  1  0  0  0
 13 61  1  0  0  0
 13 62  1  0  0  0
 14 63  1  0  0  0
 14 64  1  0  0  0
 14 65  1  0  0  0
 15 16  1  0  0  0
 15 44  1  0  0  0
 15 58  2  0  0  0
 16 17  1  0  0  0
 16 30  1  0  0  0
 16 66  1  0  0  0
 17 18  1  0  0  0
 17 67  1  0  0  0
 17 68  1  0  0  0
 18 19  1  0  0  0
 18 69  1  0  0  0
 18 70  1  0  0  0
 19 20  1  0  0  0
 19 71  1  0  0  0
 19 72  1  0  0  0
 20 21  1  0  0  0
 20 31  1  0  0  0
 20 73  1  0  0  0
 21 22  1  0  0  0
 21 57  1  0  0  0
 21 74  1  0  0  0
 22 23  1  0  0  0
 22 32  1  0  0  0
 22 75  1  0  0  0
 23 24  1  0  0  0
 23 56  1  0  0  0
 23 76  1  0  0  0
 24 25  1  0  0  0
 24 33  1  0  0  0
 24 77  1  0  0  0
 25 26  1  0  0  0
 25 54  1  0  0  0
 25 78  1  0  0  0
 26 27  1  0  0  0
 26 34  1  0  0  0
 26 79  1  0  0  0
 27 28  1  0  0  0
 27 53  1  0  0  0
 27 80  1  0  0  0
 28 29  1  0  0  0
 28 81  1  0  0  0
 28 82  1  0  0  0
 29 52  1  0  0  0
 29 83  1  0  0  0
 29 84  1  0  0  0
 30 85  1  0  0  0
 30 86  1  0  0  0
 30 87  1  0  0  0
 31 88  1  0  0  0
 31 89  1  0  0  0
 31 90  1  0  0  0
 32 91  1  0  0  0
 32 92  1  0  0  0
 32 93  1  0  0  0
 33 94  1  0  0  0
 33 95  1  0  0  0
 33 96  1  0  0  0
 34 97  1  0  0  0
 34 98  1  0  0  0
 34 99  1  0  0  0
 35 36  1  0  0  0
 35 54  1  0  0  0
 35 55  2  0  0  0
 36100  1  0  0  0
 36101  1  0  0  0
 36102  1  0  0  0
 37 53  1  0  0  0
 37103  1  0  0  0
 37104  1  0  0  0
 37105  1  0  0  0
 38 47  1  0  0  0
 38106  1  0  0  0
 38107  1  0  0  0
 38108  1  0  0  0
 39 40  1  0  0  0
 39 47  1  0  0  0
 39109  1  0  0  0
 39110  1  0  0  0
 40 46  1  0  0  0
 40111  1  0  0  0
 40112  1  0  0  0
 41 42  1  0  0  0
 41 46  1  0  0  0
 41113  1  0  0  0
 41114  1  0  0  0
 42 47  1  0  0  0
 42115  1  0  0  0
 42116  1  0  0  0
 43 45  1  0  0  0
 43117  1  0  0  0
 43118  1  0  0  0
 44119  1  0  0  0
 45 46  1  0  0  0
 45120  1  0  0  0
 47121  1  0  0  0
 48122  1  0  0  0
 49123  1  0  0  0
 56124  1  0  0  0
 57125  1  0  0  0
 59126  1  0  0  0
M  CHG  1  47   1
M  END
> <s_m_source_file>
../4kmu_ligand.sdf

> <i_m_source_file_index>
1

> <s_epik_input>
W0NIM11bQ0BAXTEyQyg9TyljM2MoTzEpYyhbQ0gzXSljKFtPSF0pYzRjM2MoW09IXSljKFtDSDJdW05IMitdW05AQEgrXTVbQ0gyXVtDSDJdW05AQEgrXShbQ0gzXSlbQ0gyXVtDSDJdNSljKGM0W09IXSlbTkhdQyg9TylbQ0BIXShbQ0gzXSlbQ0gyXVtDSDJdW0NIMl1bQ0BIXShbQ0gzXSlbQ0BIXShbT0hdKVtDQEBIXShbQ0gzXSlbQ0BASF0oW09IXSlbQ0BASF0oW0NIM10pW0NASF0oT0MoPU8pW0NIM10pW0NASF0oW0NIM10pW0NASF0oW0NIMl1bQ0gyXU8yKU9bQ0gzXQ==

> <s_epik_cmdline>
J2VwaWtfYXBwJywgJy1pbWFlJywgJ2xpZ2FuZF9wcm8ubWFlJywgJy1vbWFlJywgJ2xpZ2FuZF9wcmVwLm1hZScsICctbXMnLCAnMScsICctcGgnLCAnNycsICctcGh0JywgJzAuNScsICctbnQn

> <r_lp_tautomer_probability>
1

> <r_epik_Ionization_Penalty>
  0.0979

> <r_epik_Ionization_Penalty_Charging>
  0.0108

> <r_epik_Ionization_Penalty_Neutral>
  0.0871

> <r_epik_State_Penalty>
 -0.0000

> <r_epik_Charging_Adjusted_Penalty>
0.0107749839918634

> <i_epik_Tot_Q>
1

> <i_epik_Tot_abs_Q>
1

> <s_epik_Chemistry_Notes>
This compound has an ester and may undergo hydrolysis at high or low pH.

$$$$
