4kmz_ligand
                    3D
 Schrodinger Suite 2020-3.
 49 51  0  0  1  0            999 V2000
   36.9660   49.3040   52.1120 N   0  0  0  0  0  0
   36.4320   49.4830   53.3730 C   0  0  0  0  0  0
   37.1340   50.1320   54.3050 N   0  0  0  0  0  0
   35.1770   48.9850   53.6730 N   0  3  0  0  0  0
   34.4410   48.3080   52.7180 C   0  0  0  0  0  0
   33.3250   47.8520   52.9830 O   0  0  0  0  0  0
   34.9750   48.1300   51.4470 C   0  0  0  0  0  0
   34.2400   47.4580   50.4890 N   0  0  0  0  0  0
   34.7800   47.2790   49.2270 C   0  0  0  0  0  0
   36.0500   47.7810   48.9280 C   0  0  0  0  0  0
   36.7830   48.4570   49.8840 N   0  0  0  0  0  0
   36.2450   48.6290   51.1460 C   0  0  0  0  0  0
   33.9850   46.5620   48.1560 C   0  0  0  0  0  0
   33.3340   47.6190   47.3860 N   0  0  0  0  0  0
   29.8710   47.2070   45.1540 C   0  0  0  0  0  0
   30.5440   46.0720   45.6030 C   0  0  0  0  0  0
   31.7100   46.2010   46.3580 C   0  0  0  0  0  0
   32.2210   47.4640   46.6620 C   0  0  0  0  0  0
   31.5460   48.5980   46.2140 C   0  0  0  0  0  0
   30.3720   48.4710   45.4620 C   0  0  0  0  0  0
   28.6000   47.0700   44.3500 C   0  0  0  0  0  0
   28.4740   46.0340   43.3920 O   0  0  0  0  0  0
   27.6250   47.9580   44.5750 N   0  0  0  0  0  0
   26.2910   47.8610   44.0270 C   0  0  1  0  0  0
   25.3150   47.2210   45.0230 C   0  0  0  0  0  0
   25.8090   45.8830   45.5710 C   0  0  0  0  0  0
   24.7670   45.1910   46.4280 C   0  0  0  0  0  0
   23.8760   44.4750   45.8930 O   0  5  0  0  0  0
   24.7900   45.3020   47.6830 O   0  0  0  0  0  0
   25.8090   49.2420   43.6610 C   0  0  0  0  0  0
   26.5090   49.9910   42.9250 O   0  5  0  0  0  0
   24.7010   49.6600   44.0850 O   0  0  0  0  0  0
   38.1320   50.5278   54.0656 H   0  0  0  0  0  0
   36.4659   47.6376   47.9307 H   0  0  0  0  0  0
   34.6665   45.9679   47.5294 H   0  0  0  0  0  0
   33.2486   45.8963   48.6298 H   0  0  0  0  0  0
   33.7598   48.6332   47.3747 H   0  0  0  0  0  0
   30.1583   45.0810   45.3636 H   0  0  0  0  0  0
   32.2259   45.3089   46.7132 H   0  0  0  0  0  0
   31.9341   49.5888   46.4503 H   0  0  0  0  0  0
   29.8484   49.3624   45.1165 H   0  0  0  0  0  0
   27.8926   48.8045   45.2245 H   0  0  0  0  0  0
   26.3850   47.2257   43.1339 H   0  0  0  0  0  0
   25.1678   47.8972   45.8780 H   0  0  0  0  0  0
   24.3498   47.0418   44.5268 H   0  0  0  0  0  0
   26.0601   45.2144   44.7344 H   0  0  0  0  0  0
   26.7034   46.0479   46.1897 H   0  0  0  0  0  0
   36.7143   50.2709   55.3123 H   0  0  0  0  0  0
   34.7555   49.1259   54.6792 H   0  0  0  0  0  0
  1  2  2  0  0  0
  1 12  1  0  0  0
  2  3  1  0  0  0
  2  4  1  0  0  0
  3 33  1  0  0  0
  3 48  1  0  0  0
  4  5  1  0  0  0
  4 49  1  0  0  0
  5  6  2  0  0  0
  5  7  1  0  0  0
  7  8  1  0  0  0
  7 12  2  0  0  0
  8  9  2  0  0  0
  9 10  1  0  0  0
  9 13  1  0  0  0
 10 11  2  0  0  0
 10 34  1  0  0  0
 11 12  1  0  0  0
 13 14  1  0  0  0
 13 35  1  0  0  0
 13 36  1  0  0  0
 14 18  1  0  0  0
 14 37  1  0  0  0
 15 16  2  0  0  0
 15 20  1  0  0  0
 15 21  1  0  0  0
 16 17  1  0  0  0
 16 38  1  0  0  0
 17 18  2  0  0  0
 17 39  1  0  0  0
 18 19  1  0  0  0
 19 20  2  0  0  0
 19 40  1  0  0  0
 20 41  1  0  0  0
 21 22  2  0  0  0
 21 23  1  0  0  0
 23 24  1  0  0  0
 23 42  1  0  0  0
 24 25  1  0  0  0
 24 30  1  0  0  0
 24 43  1  0  0  0
 25 26  1  0  0  0
 25 44  1  0  0  0
 25 45  1  0  0  0
 26 27  1  0  0  0
 26 46  1  0  0  0
 26 47  1  0  0  0
 27 28  1  0  0  0
 27 29  2  0  0  0
 30 31  1  0  0  0
 30 32  2  0  0  0
M  CHG  3   4   1  28  -1  31  -1
M  END
> <s_m_source_file>
../4kmz_ligand.sdf

> <i_m_source_file_index>
1

> <s_epik_input>
Tz1jMVtuSF1jKD1OL1tIXSlcW25IXWMoYzEyKW5bY0hdYyhuMilbQ0gyXVtOSF1jKFtjSF1bY0hdMylbY0hdW2NIXWMzQyg9TylbTkhdW0NASF0oQyg9TylbT0hdKVtDSDJdW0NIMl1DKD1PKVtPSF0=

> <s_epik_cmdline>
J2VwaWtfYXBwJywgJy1pbWFlJywgJ2xpZ2FuZF9wcm8ubWFlJywgJy1vbWFlJywgJ2xpZ2FuZF9wcmVwLm1hZScsICctbXMnLCAnMScsICctcGgnLCAnNycsICctcGh0JywgJzAuNScsICctbnQn

> <r_lp_tautomer_probability>
4.999975000125e-06

> <r_epik_Ionization_Penalty>
  0.2829

> <r_epik_Ionization_Penalty_Charging>
  0.2828

> <r_epik_Ionization_Penalty_Neutral>
  0.0000

> <r_epik_State_Penalty>
  0.0466

> <r_epik_Charging_Adjusted_Penalty>
0.329477824974968

> <i_epik_Tot_Q>
-1

> <i_epik_Tot_abs_Q>
3

> <s_epik_Chemistry_Notes>
This compound has an imine and may undergo hydrolysis.

$$$$
