4kn0_ligand
                    3D
 Schrodinger Suite 2020-3.
 53 55  0  0  1  0            999 V2000
   14.2280  -35.9790   -3.2100 N   0  0  0  0  0  0
   13.2350  -35.3700   -3.9460 C   0  0  0  0  0  0
   13.4870  -35.0060   -5.1940 N   0  0  0  0  0  0
   11.9870  -35.1530   -3.3970 N   0  0  0  0  0  0
   11.7390  -35.5410   -2.0960 C   0  0  0  0  0  0
   10.5320  -35.3640   -1.5670 N   0  0  0  0  0  0
   12.7390  -36.1450   -1.3420 C   0  0  0  0  0  0
   12.4900  -36.5450   -0.0350 N   0  0  0  0  0  0
   13.5140  -37.1600    0.6980 C   0  0  0  0  0  0
   14.7770  -37.3440    0.1340 C   0  0  0  0  0  0
   15.0200  -36.9500   -1.1660 N   0  0  0  0  0  0
   13.9980  -36.3500   -1.9050 C   0  0  0  0  0  0
   13.2920  -37.5980    2.1290 C   0  0  0  0  0  0
   13.9480  -36.6460    3.0240 N   0  0  0  0  0  0
   13.3310  -35.3160    3.2070 C   0  0  0  0  0  0
   18.0120  -37.1450    3.9300 C   0  0  0  0  0  0
   17.1950  -38.2770    3.7460 C   0  0  0  0  0  0
   15.8360  -38.1160    3.4430 C   0  0  0  0  0  0
   15.3080  -36.8350    3.3350 C   0  0  0  0  0  0
   16.1250  -35.7220    3.5240 C   0  0  0  0  0  0
   17.4750  -35.8600    3.8230 C   0  0  0  0  0  0
   19.4720  -37.2910    4.2860 C   0  0  0  0  0  0
   19.8680  -38.4750    4.9110 O   0  0  0  0  0  0
   20.3360  -36.3080    4.0360 N   0  0  0  0  0  0
   21.7160  -36.3420    4.4840 C   0  0  2  0  0  0
   22.1880  -34.9680    4.8920 C   0  0  0  0  0  0
   23.3550  -34.5690    4.6250 O   0  5  0  0  0  0
   21.4210  -34.1940    5.4940 O   0  0  0  0  0  0
   22.5820  -36.7940    3.3130 C   0  0  0  0  0  0
   22.7220  -38.2970    3.3010 C   0  0  0  0  0  0
   23.7060  -38.6700    2.2230 C   0  0  0  0  0  0
   24.9330  -38.4900    2.4060 O   0  5  0  0  0  0
   23.3020  -39.1540    1.1480 O   0  0  0  0  0  0
   14.4828  -35.1808   -5.6275 H   0  0  0  0  0  0
   12.7006  -34.5289   -5.7972 H   0  0  0  0  0  0
    9.7368  -34.8868   -2.1586 H   0  0  0  0  0  0
   10.3287  -35.6948   -0.5378 H   0  0  0  0  0  0
   15.5736  -37.8001    0.7218 H   0  0  0  0  0  0
   12.2130  -37.6244    2.3412 H   0  0  0  0  0  0
   13.7192  -38.6010    2.2760 H   0  0  0  0  0  0
   12.2714  -35.3600    2.9149 H   0  0  0  0  0  0
   13.8541  -34.5796    2.5792 H   0  0  0  0  0  0
   13.4081  -35.0182    4.2631 H   0  0  0  0  0  0
   17.6188  -39.2769    3.8391 H   0  0  0  0  0  0
   15.1990  -38.9877    3.2934 H   0  0  0  0  0  0
   15.6967  -34.7236    3.4356 H   0  0  0  0  0  0
   18.1033  -34.9817    3.9713 H   0  0  0  0  0  0
   19.9645  -35.4448    3.4643 H   0  0  0  0  0  0
   21.7459  -37.0233    5.3471 H   0  0  0  0  0  0
   22.1183  -36.4729    2.3686 H   0  0  0  0  0  0
   23.5822  -36.3448    3.4017 H   0  0  0  0  0  0
   23.0871  -38.6391    4.2806 H   0  0  0  0  0  0
   21.7434  -38.7548    3.0942 H   0  0  0  0  0  0
  1  2  2  0  0  0
  1 12  1  0  0  0
  2  3  1  0  0  0
  2  4  1  0  0  0
  3 34  1  0  0  0
  3 35  1  0  0  0
  4  5  2  0  0  0
  5  6  1  0  0  0
  5  7  1  0  0  0
  6 36  1  0  0  0
  6 37  1  0  0  0
  7  8  1  0  0  0
  7 12  2  0  0  0
  8  9  2  0  0  0
  9 10  1  0  0  0
  9 13  1  0  0  0
 10 11  2  0  0  0
 10 38  1  0  0  0
 11 12  1  0  0  0
 13 14  1  0  0  0
 13 39  1  0  0  0
 13 40  1  0  0  0
 14 15  1  0  0  0
 14 19  1  0  0  0
 15 41  1  0  0  0
 15 42  1  0  0  0
 15 43  1  0  0  0
 16 17  2  0  0  0
 16 21  1  0  0  0
 16 22  1  0  0  0
 17 18  1  0  0  0
 17 44  1  0  0  0
 18 19  2  0  0  0
 18 45  1  0  0  0
 19 20  1  0  0  0
 20 21  2  0  0  0
 20 46  1  0  0  0
 21 47  1  0  0  0
 22 23  2  0  0  0
 22 24  1  0  0  0
 24 25  1  0  0  0
 24 48  1  0  0  0
 25 26  1  0  0  0
 25 29  1  0  0  0
 25 49  1  0  0  0
 26 27  1  0  0  0
 26 28  2  0  0  0
 29 30  1  0  0  0
 29 50  1  0  0  0
 29 51  1  0  0  0
 30 31  1  0  0  0
 30 52  1  0  0  0
 30 53  1  0  0  0
 31 32  1  0  0  0
 31 33  2  0  0  0
M  CHG  2  27  -1  32  -1
M  END
> <s_m_source_file>
../4kn0_ligand.sdf

> <i_m_source_file_index>
1

> <s_epik_input>
W05IMl1jMW5jKFtOSDJdKW5jKGMxMiluW2NIXWMobjIpW0NIMl1OKFtDSDNdKWMoW2NIXVtjSF0zKVtjSF1bY0hdYzNDKD1PKVtOSF1bQ0BIXShDKD1PKVtPSF0pW0NIMl1bQ0gyXUMoPU8pW09IXQ==

> <s_epik_cmdline>
J2VwaWtfYXBwJywgJy1pbWFlJywgJ2xpZ2FuZF9wcm8ubWFlJywgJy1vbWFlJywgJ2xpZ2FuZF9wcmVwLm1hZScsICctbXMnLCAnMScsICctcGgnLCAnNycsICctcGh0JywgJzAuNScsICctbnQn

> <r_epik_Ionization_Penalty>
  0.0825

> <r_epik_Ionization_Penalty_Charging>
  0.0043

> <r_epik_Ionization_Penalty_Neutral>
  0.0782

> <r_epik_State_Penalty>
  0.0653

> <r_epik_Charging_Adjusted_Penalty>
0.0696263758716876

> <i_epik_Tot_Q>
-2

> <i_epik_Tot_abs_Q>
2

$$$$
