4kn1_ligand
                    3D
 Schrodinger Suite 2020-3.
 50 52  0  0  1  0            999 V2000
   19.8560  -36.7780    4.3790 C   0  0  0  0  0  0
   20.5710  -35.7250    4.0080 N   0  0  0  0  0  0
   20.4610  -37.8390    5.0780 O   0  0  0  0  0  0
   14.0760  -35.7080   -3.0120 N   0  0  0  0  0  0
   23.5810  -33.9760    4.8250 O   0  0  0  0  0  0
   13.0130  -35.2780   -3.7760 C   0  0  0  0  0  0
   21.6030  -33.7570    5.6390 O   0  5  0  0  0  0
   11.7990  -34.9990   -3.1840 N   0  0  0  0  0  0
   11.6300  -35.1490   -1.8210 C   0  0  0  0  0  0
   12.5430  -35.7180    0.3200 N   0  0  0  0  0  0
   13.6070  -36.1460    1.0920 C   0  0  0  0  0  0
   14.8250  -36.4300    0.4860 C   0  0  0  0  0  0
   14.9780  -36.2800   -0.8790 N   0  0  0  0  0  0
   13.4360  -36.3020    2.5870 C   0  0  0  0  0  0
   21.9940  -35.6970    4.2890 C   0  0  1  0  0  0
   22.7840  -35.9300    3.0010 C   0  0  0  0  0  0
   23.2950  -38.3760    2.8690 C   0  0  0  0  0  0
   23.8480  -37.0080    3.1930 C   0  0  0  0  0  0
   22.4160  -34.4120    4.9510 C   0  0  0  0  0  0
   14.3090  -37.3320    3.1210 N   0  0  0  0  0  0
   18.3940  -36.8660    4.0450 C   0  0  0  0  0  0
   17.8150  -38.1270    3.9670 C   0  0  0  0  0  0
   16.4660  -38.2600    3.6630 C   0  0  0  0  0  0
   15.6840  -37.1350    3.4270 C   0  0  0  0  0  0
   16.2580  -35.8670    3.5100 C   0  0  0  0  0  0
   17.6140  -35.7300    3.8170 C   0  0  0  0  0  0
   12.6980  -35.5750   -1.0450 C   0  0  0  0  0  0
   13.9180  -35.8550   -1.6490 C   0  0  0  0  0  0
   13.1530  -35.1350   -5.0890 N   0  0  0  0  0  0
   10.4560  -34.8800   -1.2520 N   0  0  0  0  0  0
   22.9820  -38.6680    1.6950 O   0  0  0  0  0  0
   23.1410  -39.2300    3.7690 O   0  5  0  0  0  0
   20.0955  -34.8779    3.4919 H   0  0  0  0  0  0
   15.6643  -36.7730    1.0909 H   0  0  0  0  0  0
   13.6766  -35.3510    3.0848 H   0  0  0  0  0  0
   12.3952  -36.5795    2.8101 H   0  0  0  0  0  0
   22.1617  -36.5108    5.0098 H   0  0  0  0  0  0
   22.0983  -36.2520    2.2035 H   0  0  0  0  0  0
   23.2813  -34.9956    2.7018 H   0  0  0  0  0  0
   24.7001  -36.8047    2.5277 H   0  0  0  0  0  0
   24.1899  -37.0037    4.2385 H   0  0  0  0  0  0
   13.9155  -38.3410    3.3136 H   0  0  0  0  0  0
   18.4216  -39.0150    4.1450 H   0  0  0  0  0  0
   16.0180  -39.2522    3.6092 H   0  0  0  0  0  0
   15.6476  -34.9810    3.3350 H   0  0  0  0  0  0
   18.0624  -34.7384    3.8785 H   0  0  0  0  0  0
   14.1190  -35.3561   -5.5664 H   0  0  0  0  0  0
   12.3029  -34.7955   -5.6990 H   0  0  0  0  0  0
    9.6103  -34.5423   -1.8690 H   0  0  0  0  0  0
   10.3323  -34.9956   -0.1651 H   0  0  0  0  0  0
  1  2  1  0  0  0
  1  3  2  0  0  0
  1 21  1  0  0  0
  2 15  1  0  0  0
  2 33  1  0  0  0
  4  6  2  0  0  0
  4 28  1  0  0  0
  5 19  2  0  0  0
  6  8  1  0  0  0
  6 29  1  0  0  0
  7 19  1  0  0  0
  8  9  2  0  0  0
  9 27  1  0  0  0
  9 30  1  0  0  0
 10 11  1  0  0  0
 10 27  2  0  0  0
 11 12  2  0  0  0
 11 14  1  0  0  0
 12 13  1  0  0  0
 12 34  1  0  0  0
 13 28  2  0  0  0
 14 20  1  0  0  0
 14 35  1  0  0  0
 14 36  1  0  0  0
 15 16  1  0  0  0
 15 19  1  0  0  0
 15 37  1  0  0  0
 16 18  1  0  0  0
 16 38  1  0  0  0
 16 39  1  0  0  0
 17 18  1  0  0  0
 17 31  2  0  0  0
 17 32  1  0  0  0
 18 40  1  0  0  0
 18 41  1  0  0  0
 20 24  1  0  0  0
 20 42  1  0  0  0
 21 22  2  0  0  0
 21 26  1  0  0  0
 22 23  1  0  0  0
 22 43  1  0  0  0
 23 24  2  0  0  0
 23 44  1  0  0  0
 24 25  1  0  0  0
 25 26  2  0  0  0
 25 45  1  0  0  0
 26 46  1  0  0  0
 27 28  1  0  0  0
 29 47  1  0  0  0
 29 48  1  0  0  0
 30 49  1  0  0  0
 30 50  1  0  0  0
M  CHG  2   7  -1  32  -1
M  END
> <s_m_source_file>
../4kn1_ligand.sdf

> <i_m_source_file_index>
1

> <s_epik_input>
Tz1DKFtPSF0pW0NIMl1bQ0gyXVtDQEBIXShDKD1PKVtPSF0pW05IXUMoPU8pYzFbY0hdW2NIXWMoW2NIXVtjSF0xKVtOSF1bQ0gyXWMobjIpW2NIXW5jKGMyMyluYyhbTkgyXSluYzNbTkgyXQ==

> <s_epik_cmdline>
J2VwaWtfYXBwJywgJy1pbWFlJywgJ2xpZ2FuZF9wcm8ubWFlJywgJy1vbWFlJywgJ2xpZ2FuZF9wcmVwLm1hZScsICctbXMnLCAnMScsICctcGgnLCAnNycsICctcGh0JywgJzAuNScsICctbnQn

> <r_epik_Ionization_Penalty>
  0.0689

> <r_epik_Ionization_Penalty_Charging>
  0.0043

> <r_epik_Ionization_Penalty_Neutral>
  0.0646

> <r_epik_State_Penalty>
  0.0541

> <r_epik_Charging_Adjusted_Penalty>
0.0583921570874671

> <i_epik_Tot_Q>
-2

> <i_epik_Tot_abs_Q>
2

$$$$
