4kn2_ligand
                    3D
 Schrodinger Suite 2020-3.
 50 52  0  0  1  0            999 V2000
   39.6400    5.0370   39.2230 C   0  0  0  0  0  0
   39.0470    4.5260   40.3700 C   0  0  0  0  0  0
   39.8080    3.8550   41.3120 C   0  0  0  0  0  0
   41.1670    3.7000   41.0880 C   0  0  0  0  0  0
   41.7760    4.2110   39.9460 C   0  0  0  0  0  0
   41.0050    4.8850   39.0030 C   0  0  0  0  0  0
   38.7360    5.7610   38.2360 C   0  0  0  0  0  0
   39.2340    6.5250   37.0470 C   0  0  0  0  0  0
   38.1140    7.2870   36.3320 C   0  0  0  0  0  0
   37.2830    6.7890   35.3380 C   0  0  0  0  0  0
   36.4310    7.7730   34.9990 N   0  3  0  0  0  0
   36.6800    8.8700   35.7350 C   0  0  0  0  0  0
   37.7300    8.6000   36.5900 C   0  0  0  0  0  0
   38.2190    9.6460   37.5250 C   0  0  0  0  0  0
   39.1460    9.3920   38.2780 O   0  0  0  0  0  0
   37.6080   10.9330   37.5480 N   0  3  0  0  0  0
   36.5130   11.1930   36.6620 C   0  0  0  0  0  0
   36.0550   10.1700   35.7570 N   0  0  0  0  0  0
   35.8690   12.4780   36.6470 N   0  0  0  0  0  0
   41.9770    2.9500   42.1260 C   0  0  0  0  0  0
   42.6830    2.0150   41.7770 O   0  0  0  0  0  0
   41.8530    3.3630   43.5090 N   0  0  0  0  0  0
   42.6180    2.7350   44.5680 C   0  0  1  0  0  0
   43.6270    3.6860   45.1560 C   0  0  0  0  0  0
   44.2970    4.6320   44.1910 C   0  0  0  0  0  0
   45.5340    5.3550   44.6360 C   0  0  0  0  0  0
   46.5990    4.7080   44.8540 O   0  5  0  0  0  0
   45.5100    6.6090   44.7850 O   0  0  0  0  0  0
   41.6350    2.2920   45.6070 C   0  0  0  0  0  0
   40.6670    1.5540   45.2460 O   0  0  0  0  0  0
   41.7780    2.6550   46.8220 O   0  5  0  0  0  0
   37.9764    4.6539   40.5296 H   0  0  0  0  0  0
   39.3461    3.4553   42.2148 H   0  0  0  0  0  0
   42.8475    4.0846   39.7911 H   0  0  0  0  0  0
   41.4661    5.2893   38.1019 H   0  0  0  0  0  0
   38.0513    5.0385   37.7678 H   0  0  0  0  0  0
   38.1528    6.5276   38.7672 H   0  0  0  0  0  0
   39.9892    7.2562   37.3711 H   0  0  0  0  0  0
   39.6847    5.8276   36.3255 H   0  0  0  0  0  0
   37.4082    5.7553   34.9832 H   0  0  0  0  0  0
   36.2063   13.2703   37.3315 H   0  0  0  0  0  0
   41.1534    4.1784   43.7451 H   0  0  0  0  0  0
   43.1712    1.8846   44.1428 H   0  0  0  0  0  0
   43.1373    4.3202   45.9097 H   0  0  0  0  0  0
   44.4380    3.1134   45.6297 H   0  0  0  0  0  0
   44.6042    4.0803   43.2903 H   0  0  0  0  0  0
   43.5928    5.4291   43.9103 H   0  0  0  0  0  0
   35.0389   12.6691   35.9510 H   0  0  0  0  0  0
   35.6755    7.6016   34.2181 H   0  0  0  0  0  0
   37.9786   11.7055   38.2378 H   0  0  0  0  0  0
  1  2  2  0  0  0
  1  6  1  0  0  0
  1  7  1  0  0  0
  2  3  1  0  0  0
  2 32  1  0  0  0
  3  4  2  0  0  0
  3 33  1  0  0  0
  4  5  1  0  0  0
  4 20  1  0  0  0
  5  6  2  0  0  0
  5 34  1  0  0  0
  6 35  1  0  0  0
  7  8  1  0  0  0
  7 36  1  0  0  0
  7 37  1  0  0  0
  8  9  1  0  0  0
  8 38  1  0  0  0
  8 39  1  0  0  0
  9 10  2  0  0  0
  9 13  1  0  0  0
 10 11  1  0  0  0
 10 40  1  0  0  0
 11 12  1  0  0  0
 11 49  1  0  0  0
 12 13  2  0  0  0
 12 18  1  0  0  0
 13 14  1  0  0  0
 14 15  2  0  0  0
 14 16  1  0  0  0
 16 17  1  0  0  0
 16 50  1  0  0  0
 17 18  2  0  0  0
 17 19  1  0  0  0
 19 41  1  0  0  0
 19 48  1  0  0  0
 20 21  2  0  0  0
 20 22  1  0  0  0
 22 23  1  0  0  0
 22 42  1  0  0  0
 23 24  1  0  0  0
 23 29  1  0  0  0
 23 43  1  0  0  0
 24 25  1  0  0  0
 24 44  1  0  0  0
 24 45  1  0  0  0
 25 26  1  0  0  0
 25 46  1  0  0  0
 25 47  1  0  0  0
 26 27  1  0  0  0
 26 28  2  0  0  0
 29 30  2  0  0  0
 29 31  1  0  0  0
M  CHG  4  11   1  16   1  27  -1  31  -1
M  END
> <s_m_source_file>
../4kn2_ligand.sdf

> <i_m_source_file_index>
1

> <s_epik_input>
W0hdL049YyhbbkhdMSlcW25IXWMoPU8pYyhjMTIpYyhbY0hdW25IXTIpW0NIMl1bQ0gyXWMzW2NIXVtjSF1jKFtjSF1bY0hdMylDKD1PKVtOSF1bQ0BIXShDKD1PKVtPSF0pW0NIMl1bQ0gyXUMoPU8pW09IXQ==

> <s_epik_cmdline>
J2VwaWtfYXBwJywgJy1pbWFlJywgJ2xpZ2FuZF9wcm8ubWFlJywgJy1vbWFlJywgJ2xpZ2FuZF9wcmVwLm1hZScsICctbXMnLCAnMScsICctcGgnLCAnNycsICctcGh0JywgJzAuNScsICctbnQn

> <r_epik_Ionization_Penalty>
  3.9938

> <r_epik_Ionization_Penalty_Charging>
  0.0086

> <r_epik_Ionization_Penalty_Neutral>
  3.9852

> <r_epik_State_Penalty>
  0.0212

> <r_epik_Charging_Adjusted_Penalty>
0.0298395721091232

> <i_epik_Tot_Q>
0

> <i_epik_Tot_abs_Q>
4

> <s_epik_Chemistry_Notes>
This compound has an imine and may undergo hydrolysis.

$$$$
