4kn7_ligand
                    3D
 Schrodinger Suite 2020-3.
153160  0  0  1  0            999 V2000
 -113.9050   26.5700    8.7200 C   0  0  0  0  0  0
 -112.6540   26.3210    7.9610 C   0  0  0  0  0  0
 -111.4350   26.6930    8.4900 C   0  0  0  0  0  0
 -111.3630   27.3590    9.8500 C   0  0  0  0  0  0
 -112.7680   28.2210   11.8990 C   0  0  0  0  0  0
 -113.9930   28.4080   12.5190 C   0  0  0  0  0  0
 -115.2480   28.0190   11.9640 C   0  0  0  0  0  0
 -115.1410   27.4150   10.6980 C   0  0  0  0  0  0
 -113.8650   27.2240   10.0570 C   0  0  0  0  0  0
 -112.6240   27.6200   10.6310 C   0  0  0  0  0  0
 -111.9020   28.7630   12.8680 C   0  0  0  0  0  0
 -112.5350   29.5890   13.7850 C   0  0  2  0  0  0
 -111.8670   29.4610   15.1450 C   0  0  0  0  0  0
 -116.6030   28.2450   12.6910 C   0  0  0  0  0  0
 -113.2720   26.4190    5.5310 C   0  0  0  0  0  0
 -113.3870   25.7680    4.1860 C   0  0  1  0  0  0
 -113.7430   26.5750    3.1200 C   0  0  0  0  0  0
 -112.6410   27.2990    2.4040 C   0  0  0  0  0  0
 -111.6300   27.8730    3.1980 C   0  0  0  0  0  0
 -111.1520   29.2940    2.9730 C   0  0  1  0  0  0
 -111.4600   30.0670    4.2380 C   0  0  1  0  0  0
 -110.4620   31.1430    4.6680 C   0  0  2  0  0  0
 -111.0470   31.9240    5.8450 C   0  0  2  0  0  0
 -110.2730   31.8990    7.1450 C   0  0  2  0  0  0
 -110.8550   32.9490    8.1040 C   0  0  1  0  0  0
 -111.4810   32.3670    9.3710 C   0  0  1  0  0  0
 -111.2650   33.2620   10.5820 C   0  0  2  0  0  0
 -111.9580   32.7330   11.8200 C   0  0  0  0  0  0
 -112.0030   31.3640   12.1090 C   0  0  0  0  0  0
 -112.6360   24.5110    3.9130 C   0  0  0  0  0  0
 -109.7260   29.1870    2.5610 C   0  0  0  0  0  0
 -110.1640   32.0910    3.5760 C   0  0  0  0  0  0
 -108.8110   32.1280    6.8640 C   0  0  0  0  0  0
 -112.9570   32.1620    9.1480 C   0  0  0  0  0  0
 -109.7430   35.0580    7.6930 C   0  0  0  0  0  0
 -108.3780   35.7040    7.6190 C   0  0  0  0  0  0
 -111.7060   35.5320   11.2670 C   0  0  0  0  0  0
 -112.7540   25.6730    6.6640 N   0  0  0  0  0  0
 -110.2580   26.4450    7.7550 O   0  0  0  0  0  0
 -109.0540   26.8390    8.3320 C   0  0  0  0  0  0
 -109.0020   27.4550    9.5890 C   0  0  0  0  0  0
 -110.2080   27.7000   10.3270 N   0  0  0  0  0  0
 -114.9800   26.2350    8.2370 O   0  0  0  0  0  0
 -116.2690   26.9960   10.0550 O   0  0  0  0  0  0
 -113.8860   29.0820   13.8780 O   0  0  0  0  0  0
 -110.7070   28.5390   12.9320 O   0  0  0  0  0  0
 -112.5440   30.9330   13.3620 O   0  0  0  0  0  0
 -111.7420   34.5240   10.3160 O   0  0  0  0  0  0
 -109.8900   33.8800    8.4080 O   0  0  0  0  0  0
 -110.7060   35.6300    7.1990 O   0  0  0  0  0  0
 -112.3200   31.4710    6.0810 O   0  0  0  0  0  0
 -112.6940   30.6520    4.0970 O   0  0  0  0  0  0
 -113.6090   27.5880    5.6780 O   0  0  0  0  0  0
 -107.8950   26.5820    7.5780 C   0  0  0  0  0  0
 -106.6700   26.9440    8.0850 C   0  0  0  0  0  0
 -106.5770   27.5620    9.3380 C   0  0  0  0  0  0
 -107.7380   27.8180   10.0920 C   0  0  0  0  0  0
 -107.6460   28.4490   11.3590 O   0  0  0  0  0  0
 -106.6900   29.4610   11.5800 C   0  0  0  0  0  0
 -107.1350   30.4030   12.7270 C   0  0  0  0  0  0
 -106.6230   29.8810   14.0900 C   0  0  0  0  0  0
 -107.3990   28.6260   14.4920 C   0  0  0  0  0  0
 -104.6430   26.8190   17.0610 N   0  3  2  0  0  0
 -103.2150   27.0940   16.8140 C   0  0  0  0  0  0
 -103.0050   27.5360   15.3610 C   0  0  0  0  0  0
 -105.2810   25.8510   16.1960 C   0  0  0  0  0  0
 -106.4640   26.3750   15.3900 C   0  0  0  0  0  0
 -106.6350   27.8210   15.4590 N   0  3  2  0  0  0
 -106.7530   28.1950   16.8850 C   0  0  0  0  0  0
 -105.5040   27.8010   17.6740 C   0  0  0  0  0  0
 -101.4670   24.6760   13.6780 N   0  0  0  0  0  0
 -102.2790   25.1360   12.7080 C   0  0  0  0  0  0
 -102.9500   26.2420   13.2020 C   0  0  0  0  0  0
 -102.5390   26.4520   14.4850 N   0  0  0  0  0  0
 -101.6160   25.4920   14.7830 C   0  0  0  0  0  0
 -111.8700   28.4062   15.4571 H   0  0  0  0  0  0
 -112.4182   30.0631   15.8823 H   0  0  0  0  0  0
 -110.8297   29.8210   15.0793 H   0  0  0  0  0  0
 -116.4221   28.7321   13.6605 H   0  0  0  0  0  0
 -117.0977   27.2761   12.8540 H   0  0  0  0  0  0
 -117.2481   28.8867   12.0729 H   0  0  0  0  0  0
 -114.4103   25.3647    4.1740 H   0  0  0  0  0  0
 -114.2409   25.9671    2.3502 H   0  0  0  0  0  0
 -114.4300   27.3604    3.4681 H   0  0  0  0  0  0
 -112.1245   26.6029    1.7267 H   0  0  0  0  0  0
 -113.0660   28.1298    1.8216 H   0  0  0  0  0  0
 -111.9508   27.8819    4.2501 H   0  0  0  0  0  0
 -110.7075   27.2818    3.1010 H   0  0  0  0  0  0
 -111.6331   29.8615    2.1627 H   0  0  0  0  0  0
 -111.5199   29.3278    5.0504 H   0  0  0  0  0  0
 -109.5083   30.6584    4.9241 H   0  0  0  0  0  0
 -111.1191   32.9796    5.5440 H   0  0  0  0  0  0
 -110.3535   30.9088    7.6173 H   0  0  0  0  0  0
 -111.6288   33.5380    7.5898 H   0  0  0  0  0  0
 -110.9995   31.4010    9.5829 H   0  0  0  0  0  0
 -110.1881   33.3879   10.7677 H   0  0  0  0  0  0
 -111.4849   33.1610   12.7161 H   0  0  0  0  0  0
 -113.0204   33.0170   11.7951 H   0  0  0  0  0  0
 -112.6163   30.8499   11.3543 H   0  0  0  0  0  0
 -110.9830   30.9525   12.0948 H   0  0  0  0  0  0
 -112.4335   23.9916    4.8613 H   0  0  0  0  0  0
 -111.6845   24.7528    3.4169 H   0  0  0  0  0  0
 -113.2354   23.8604    3.2593 H   0  0  0  0  0  0
 -109.6557   28.6023    1.6319 H   0  0  0  0  0  0
 -109.1518   28.6857    3.3541 H   0  0  0  0  0  0
 -109.3165   30.1939    2.3924 H   0  0  0  0  0  0
 -109.7417   31.5437    2.7204 H   0  0  0  0  0  0
 -109.4378   32.8387    3.9275 H   0  0  0  0  0  0
 -111.0905   32.5969    3.2666 H   0  0  0  0  0  0
 -108.4442   31.3527    6.1753 H   0  0  0  0  0  0
 -108.2447   32.0796    7.8058 H   0  0  0  0  0  0
 -108.6765   33.1189    6.4057 H   0  0  0  0  0  0
 -113.1090   31.5146    8.2718 H   0  0  0  0  0  0
 -113.4400   33.1347    8.9734 H   0  0  0  0  0  0
 -113.3995   31.6871   10.0360 H   0  0  0  0  0  0
 -107.6380   35.0549    8.1100 H   0  0  0  0  0  0
 -108.4056   36.6788    8.1279 H   0  0  0  0  0  0
 -108.0973   35.8483    6.5653 H   0  0  0  0  0  0
 -112.1360   36.4515   10.8431 H   0  0  0  0  0  0
 -110.6635   35.7181   11.5648 H   0  0  0  0  0  0
 -112.2899   35.2262   12.1477 H   0  0  0  0  0  0
 -112.4386   24.6258    6.5466 H   0  0  0  0  0  0
 -117.2535   27.1321   10.5264 H   0  0  0  0  0  0
 -113.0449   31.4128    5.2557 H   0  0  0  0  0  0
 -113.5587   30.0449    3.7908 H   0  0  0  0  0  0
 -107.9675   26.1011    6.6025 H   0  0  0  0  0  0
 -105.7657   26.7489    7.5085 H   0  0  0  0  0  0
 -105.6011   27.8462    9.7315 H   0  0  0  0  0  0
 -105.7277   29.0031   11.8524 H   0  0  0  0  0  0
 -106.5666   30.0554   10.6627 H   0  0  0  0  0  0
 -106.7259   31.4094   12.5545 H   0  0  0  0  0  0
 -108.2335   30.4535   12.7547 H   0  0  0  0  0  0
 -105.5535   29.6362   14.0106 H   0  0  0  0  0  0
 -106.7656   30.6567   14.8568 H   0  0  0  0  0  0
 -108.3545   28.9175   14.9525 H   0  0  0  0  0  0
 -107.5940   28.0137   13.5992 H   0  0  0  0  0  0
 -104.5086   26.2718   18.0057 H   0  0  0  0  0  0
 -102.8741   27.8946   17.4869 H   0  0  0  0  0  0
 -102.6283   26.1827   17.0017 H   0  0  0  0  0  0
 -103.9550   27.9086   14.9502 H   0  0  0  0  0  0
 -102.2515   28.3367   15.3265 H   0  0  0  0  0  0
 -104.5497   25.4733   15.4662 H   0  0  0  0  0  0
 -105.6618   25.0143   16.8001 H   0  0  0  0  0  0
 -106.3295   26.1144   14.3298 H   0  0  0  0  0  0
 -107.3930   25.9202   15.7644 H   0  0  0  0  0  0
 -105.7189   28.1650   14.9565 H   0  0  0  0  0  0
 -106.8881   29.2835   16.9686 H   0  0  0  0  0  0
 -107.6199   27.6829   17.3279 H   0  0  0  0  0  0
 -105.8651   27.4197   18.6406 H   0  0  0  0  0  0
 -104.9416   28.7327   17.8344 H   0  0  0  0  0  0
 -102.3890   24.7126   11.7097 H   0  0  0  0  0  0
 -103.6807   26.8413   12.6589 H   0  0  0  0  0  0
 -101.0871   25.3870   15.7303 H   0  0  0  0  0  0
  1  2  1  0  0  0
  1  9  1  0  0  0
  1 43  2  0  0  0
  2  3  2  0  0  0
  2 38  1  0  0  0
  3  4  1  0  0  0
  3 39  1  0  0  0
  4 10  1  0  0  0
  4 42  2  0  0  0
  5  6  2  0  0  0
  5 10  1  0  0  0
  5 11  1  0  0  0
  6  7  1  0  0  0
  6 45  1  0  0  0
  7  8  2  0  0  0
  7 14  1  0  0  0
  8  9  1  0  0  0
  8 44  1  0  0  0
  9 10  2  0  0  0
 11 12  1  0  0  0
 11 46  2  0  0  0
 12 13  1  0  0  0
 12 45  1  0  0  0
 12 47  1  0  0  0
 13 76  1  0  0  0
 13 77  1  0  0  0
 13 78  1  0  0  0
 14 79  1  0  0  0
 14 80  1  0  0  0
 14 81  1  0  0  0
 15 16  1  0  0  0
 15 38  1  0  0  0
 15 53  2  0  0  0
 16 17  1  0  0  0
 16 30  1  0  0  0
 16 82  1  0  0  0
 17 18  1  0  0  0
 17 83  1  0  0  0
 17 84  1  0  0  0
 18 19  1  0  0  0
 18 85  1  0  0  0
 18 86  1  0  0  0
 19 20  1  0  0  0
 19 87  1  0  0  0
 19 88  1  0  0  0
 20 21  1  0  0  0
 20 31  1  0  0  0
 20 89  1  0  0  0
 21 22  1  0  0  0
 21 52  1  0  0  0
 21 90  1  0  0  0
 22 23  1  0  0  0
 22 32  1  0  0  0
 22 91  1  0  0  0
 23 24  1  0  0  0
 23 51  1  0  0  0
 23 92  1  0  0  0
 24 25  1  0  0  0
 24 33  1  0  0  0
 24 93  1  0  0  0
 25 26  1  0  0  0
 25 49  1  0  0  0
 25 94  1  0  0  0
 26 27  1  0  0  0
 26 34  1  0  0  0
 26 95  1  0  0  0
 27 28  1  0  0  0
 27 48  1  0  0  0
 27 96  1  0  0  0
 28 29  1  0  0  0
 28 97  1  0  0  0
 28 98  1  0  0  0
 29 47  1  0  0  0
 29 99  1  0  0  0
 29100  1  0  0  0
 30101  1  0  0  0
 30102  1  0  0  0
 30103  1  0  0  0
 31104  1  0  0  0
 31105  1  0  0  0
 31106  1  0  0  0
 32107  1  0  0  0
 32108  1  0  0  0
 32109  1  0  0  0
 33110  1  0  0  0
 33111  1  0  0  0
 33112  1  0  0  0
 34113  1  0  0  0
 34114  1  0  0  0
 34115  1  0  0  0
 35 36  1  0  0  0
 35 49  1  0  0  0
 35 50  2  0  0  0
 36116  1  0  0  0
 36117  1  0  0  0
 36118  1  0  0  0
 37 48  1  0  0  0
 37119  1  0  0  0
 37120  1  0  0  0
 37121  1  0  0  0
 38122  1  0  0  0
 39 40  1  0  0  0
 40 41  2  0  0  0
 40 54  1  0  0  0
 41 42  1  0  0  0
 41 57  1  0  0  0
 44123  1  0  0  0
 51124  1  0  0  0
 52125  1  0  0  0
 54 55  2  0  0  0
 54126  1  0  0  0
 55 56  1  0  0  0
 55127  1  0  0  0
 56 57  2  0  0  0
 56128  1  0  0  0
 57 58  1  0  0  0
 58 59  1  0  0  0
 59 60  1  0  0  0
 59129  1  0  0  0
 59130  1  0  0  0
 60 61  1  0  0  0
 60131  1  0  0  0
 60132  1  0  0  0
 61 62  1  0  0  0
 61133  1  0  0  0
 61134  1  0  0  0
 62 68  1  0  0  0
 62135  1  0  0  0
 62136  1  0  0  0
 63 64  1  0  0  0
 63 66  1  0  0  0
 63 70  1  0  0  0
 63137  1  0  0  0
 64 65  1  0  0  0
 64138  1  0  0  0
 64139  1  0  0  0
 65 74  1  0  0  0
 65140  1  0  0  0
 65141  1  0  0  0
 66 67  1  0  0  0
 66142  1  0  0  0
 66143  1  0  0  0
 67 68  1  0  0  0
 67144  1  0  0  0
 67145  1  0  0  0
 68 69  1  0  0  0
 68146  1  0  0  0
 69 70  1  0  0  0
 69147  1  0  0  0
 69148  1  0  0  0
 70149  1  0  0  0
 70150  1  0  0  0
 71 72  1  0  0  0
 71 75  2  0  0  0
 72 73  2  0  0  0
 72151  1  0  0  0
 73 74  1  0  0  0
 73152  1  0  0  0
 74 75  1  0  0  0
 75153  1  0  0  0
M  CHG  2  63   1  68   1
M  END
> <s_m_source_file>
../4kn7_ligand.sdf

> <i_m_source_file_index>
1

> <s_epik_input>
TzFbQ0gyXVtDSDJdW0NASF0oT1tDSDNdKVtDQEBIXShbQ0gzXSlbQ0BASF0oT0MoPU8pW0NIM10pW0NASF0oW0NIM10pW0NASF0oW09IXSlbQ0BIXShbQ0gzXSlbQ0BASF0oW09IXSlbQ0BASF0oW0NIM10pW0NIMl1bQ0gyXVtDSDJdW0NAQEhdKFtDSDNdKUMoPU8pW05IXWMoYzI9TyljKGMzYzRjMmMoW09IXSljKFtDSDNdKWMoTzUpYzRDKD1PKVtDQEBdMTVbQ0gzXSlvYzZjKG4zKWMoW2NIXVtjSF1bY0hdNilPW0NIMl1bQ0gyXVtDSDJdW0NIMl1bTkBASCtdKFtDSDJdW0NIMl03KVtDSDJdW0NIMl1bTkBIK103W0NIMl1bQ0gyXW44W2NIXVtjSF1uW2NIXTg=

> <s_epik_cmdline>
J2VwaWtfYXBwJywgJy1pbWFlJywgJ2xpZ2FuZF9wcm8ubWFlJywgJy1vbWFlJywgJ2xpZ2FuZF9wcmVwLm1hZScsICctbXMnLCAnMScsICctcGgnLCAnNycsICctcGh0JywgJzAuNScsICctbnQn

> <s_epik_pKa_notes>
Molecule size exceeds maximum supported for generating protonation states

> <s_epik_Chemistry_Notes>
This compound has an ester and may undergo hydrolysis at high or low pH.

$$$$
