4knb_ligand
                    3D
 Schrodinger Suite 2020-3.
 56 60  0  0  1  0            999 V2000
   11.3710   -1.8070   22.3920 F   0  0  0  0  0  0
   10.1490   -1.5040   21.9700 C   0  0  0  0  0  0
    9.6500   -0.2180   22.1050 C   0  0  0  0  0  0
    8.3710    0.0770   21.6530 C   0  0  0  0  0  0
    7.5930   -0.9130   21.0660 C   0  0  0  0  0  0
    6.0190   -0.5080   20.5160 Cl  0  0  0  0  0  0
    9.3710   -2.4930   21.3920 C   0  0  0  0  0  0
   10.0530   -4.0640   21.2680 Cl  0  0  0  0  0  0
    8.0820   -2.2130   20.9360 C   0  0  0  0  0  0
    7.2380   -3.3030   20.2860 C   0  0  1  0  0  0
    7.7720   -3.5380   18.8680 C   0  0  0  0  0  0
    7.2650   -4.5220   21.0500 O   0  0  0  0  0  0
    6.6230   -4.7640   22.2490 C   0  0  0  0  0  0
    5.6900   -3.8990   22.8250 C   0  0  0  0  0  0
    5.2790   -2.8200   22.4060 O   0  0  0  0  0  0
    4.4370   -2.3420   23.1690 C   0  0  0  0  0  0
    4.2520   -3.1430   24.2820 C   0  0  0  0  0  0
    5.0800   -4.1970   24.0240 C   0  0  0  0  0  0
    5.3570   -5.3530   24.7150 C   0  0  0  0  0  0
    6.2800   -6.2270   24.1620 N   0  0  0  0  0  0
    6.9090   -5.9420   22.9440 C   0  0  0  0  0  0
    7.8410   -6.8650   22.4290 N   0  0  0  0  0  0
    3.3790   -2.8640   25.4670 C   0  0  0  0  0  0
    3.3510   -3.4540   26.7110 C   0  0  0  0  0  0
    2.3820   -2.8420   27.4260 N   0  0  0  0  0  0
    1.8280   -1.9330   26.7400 N   0  0  0  0  0  0
    2.3980   -1.9030   25.5220 C   0  0  0  0  0  0
    2.0090   -3.1650   28.8240 C   0  0  0  0  0  0
    2.6550   -2.1740   29.8090 C   0  0  0  0  0  0
    2.1830   -2.4210   31.2530 C   0  0  0  0  0  0
    0.7140   -2.4000   31.3390 N   0  3  0  0  0  0
    0.0530   -3.3670   30.4510 C   0  0  0  0  0  0
    0.4730   -3.1200   28.9960 C   0  0  0  0  0  0
   10.2601    0.5595   22.5648 H   0  0  0  0  0  0
    7.9764    1.0875   21.7589 H   0  0  0  0  0  0
    6.1732   -3.0271   20.2890 H   0  0  0  0  0  0
    7.7419   -2.5942   18.3038 H   0  0  0  0  0  0
    7.1478   -4.2885   18.3609 H   0  0  0  0  0  0
    8.8094   -3.8999   18.9222 H   0  0  0  0  0  0
    3.9058   -1.4072   22.9897 H   0  0  0  0  0  0
    4.8682   -5.5743   25.6638 H   0  0  0  0  0  0
    8.3468   -6.6610   21.4737 H   0  0  0  0  0  0
    8.0627   -7.7895   22.9823 H   0  0  0  0  0  0
    3.9925   -4.2652   27.0552 H   0  0  0  0  0  0
    2.1263   -1.2271   24.7112 H   0  0  0  0  0  0
    2.3949   -4.1793   29.0039 H   0  0  0  0  0  0
    3.7488   -2.2861   29.7774 H   0  0  0  0  0  0
    2.3835   -1.1463   29.5261 H   0  0  0  0  0  0
    2.5421   -3.4036   31.5931 H   0  0  0  0  0  0
    2.5859   -1.6360   31.9098 H   0  0  0  0  0  0
    0.4035   -2.6365   32.3674 H   0  0  0  0  0  0
    0.3449   -1.4006   31.0652 H   0  0  0  0  0  0
    0.3413   -4.3881   30.7414 H   0  0  0  0  0  0
   -1.0381   -3.2560   30.5354 H   0  0  0  0  0  0
    0.0989   -2.1311   28.6925 H   0  0  0  0  0  0
    0.0108   -3.8955   28.3676 H   0  0  0  0  0  0
  1  2  1  0  0  0
  2  3  2  0  0  0
  2  7  1  0  0  0
  3  4  1  0  0  0
  3 34  1  0  0  0
  4  5  2  0  0  0
  4 35  1  0  0  0
  5  6  1  0  0  0
  5  9  1  0  0  0
  7  8  1  0  0  0
  7  9  2  0  0  0
  9 10  1  0  0  0
 10 11  1  0  0  0
 10 12  1  0  0  0
 10 36  1  0  0  0
 11 37  1  0  0  0
 11 38  1  0  0  0
 11 39  1  0  0  0
 12 13  1  0  0  0
 13 14  1  0  0  0
 13 21  2  0  0  0
 14 15  1  0  0  0
 14 18  2  0  0  0
 15 16  1  0  0  0
 16 17  2  0  0  0
 16 40  1  0  0  0
 17 18  1  0  0  0
 17 23  1  0  0  0
 18 19  1  0  0  0
 19 20  2  0  0  0
 19 41  1  0  0  0
 20 21  1  0  0  0
 21 22  1  0  0  0
 22 42  1  0  0  0
 22 43  1  0  0  0
 23 24  2  0  0  0
 23 27  1  0  0  0
 24 25  1  0  0  0
 24 44  1  0  0  0
 25 26  1  0  0  0
 25 28  1  0  0  0
 26 27  2  0  0  0
 27 45  1  0  0  0
 28 29  1  0  0  0
 28 33  1  0  0  0
 28 46  1  0  0  0
 29 30  1  0  0  0
 29 47  1  0  0  0
 29 48  1  0  0  0
 30 31  1  0  0  0
 30 49  1  0  0  0
 30 50  1  0  0  0
 31 32  1  0  0  0
 31 51  1  0  0  0
 31 52  1  0  0  0
 32 33  1  0  0  0
 32 53  1  0  0  0
 32 54  1  0  0  0
 33 55  1  0  0  0
 33 56  1  0  0  0
M  CHG  1  31   1
M  END
> <s_m_source_file>
../4knb_ligand.sdf

> <i_m_source_file_index>
1

> <s_epik_input>
RmMxW2NIXVtjSF1jKENsKWMoYzFDbClbQ0BASF0oW0NIM10pT2MyYyhbTkgyXSluW2NIXWMoYzIzKWMoW2NIXW8zKS1jNFtjSF1uKG5bY0hdNClbQ0hdNVtDSDJdW0NIMl1bTkgyK11bQ0gyXVtDSDJdNQ==

> <s_epik_cmdline>
J2VwaWtfYXBwJywgJy1pbWFlJywgJ2xpZ2FuZF9wcm8ubWFlJywgJy1vbWFlJywgJ2xpZ2FuZF9wcmVwLm1hZScsICctbXMnLCAnMScsICctcGgnLCAnNycsICctcGh0JywgJzAuNScsICctbnQn

> <r_lp_tautomer_probability>
1

> <r_epik_Ionization_Penalty>
  0.1095

> <r_epik_Ionization_Penalty_Charging>
  0.0019

> <r_epik_Ionization_Penalty_Neutral>
  0.1076

> <r_epik_State_Penalty>
  0.0972

> <r_epik_Charging_Adjusted_Penalty>
0.0990802314931966

> <i_epik_Tot_Q>
1

> <i_epik_Tot_abs_Q>
1

$$$$
