4kne_ligand
                    3D
 Schrodinger Suite 2020-3.
 31 32  0  0  1  0            999 V2000
    3.2000  -16.3100   -1.3330 N   0  0  0  0  0  0
    3.1980  -15.0260   -0.8980 C   0  0  0  0  0  0
    2.6400  -14.6860    0.2780 N   0  0  0  0  0  0
    2.0340  -15.6070    1.0600 C   0  0  0  0  0  0
    1.9840  -16.9550    0.6750 N   0  0  0  0  0  0
    2.5230  -17.3750   -0.6150 C   0  0  0  0  0  0
    3.7780  -14.0690   -1.6440 N   0  0  0  0  0  0
    1.4790  -15.2410    2.2370 N   0  0  0  0  0  0
    3.3100  -18.6850   -0.6130 C   0  0  0  0  0  0
    1.2570  -17.5810   -1.4300 C   0  0  0  0  0  0
    1.3780  -17.8720    1.5590 C   0  0  0  0  0  0
    2.2500  -18.5650    2.4080 C   0  0  0  0  0  0
    1.7750  -19.4890    3.3300 C   0  0  0  0  0  0
    0.4020  -19.6810    3.4000 C   0  0  0  0  0  0
   -0.4720  -18.9930    2.5690 C   0  0  0  0  0  0
    0.0130  -18.0730    1.6550 C   0  0  0  0  0  0
   -0.2450  -20.8510    4.5750 Cl  0  0  0  0  0  0
    4.2395  -14.3276   -2.6084 H   0  0  0  0  0  0
    4.2323  -18.5577   -0.0272 H   0  0  0  0  0  0
    3.5670  -18.9599   -1.6466 H   0  0  0  0  0  0
    2.6971  -19.4803   -0.1637 H   0  0  0  0  0  0
    0.6744  -16.6481   -1.4444 H   0  0  0  0  0  0
    0.6552  -18.3822   -0.9763 H   0  0  0  0  0  0
    1.5251  -17.8618   -2.4592 H   0  0  0  0  0  0
    3.3215  -18.3757    2.3441 H   0  0  0  0  0  0
    2.4561  -20.0435    3.9755 H   0  0  0  0  0  0
   -1.5441  -19.1779    2.6364 H   0  0  0  0  0  0
   -0.6728  -17.5138    1.0186 H   0  0  0  0  0  0
    3.7909  -13.0277   -1.2897 H   0  0  0  0  0  0
    1.5086  -14.1885    2.5554 H   0  0  0  0  0  0
    3.7397  -16.5319   -2.2655 H   0  0  0  0  0  0
  1  2  1  0  0  0
  1  6  1  0  0  0
  1 31  1  0  0  0
  2  3  2  0  0  0
  2  7  1  0  0  0
  3  4  1  0  0  0
  4  5  1  0  0  0
  4  8  2  0  0  0
  5  6  1  0  0  0
  5 11  1  0  0  0
  6  9  1  0  0  0
  6 10  1  0  0  0
  7 18  1  0  0  0
  7 29  1  0  0  0
  8 30  1  0  0  0
  9 19  1  0  0  0
  9 20  1  0  0  0
  9 21  1  0  0  0
 10 22  1  0  0  0
 10 23  1  0  0  0
 10 24  1  0  0  0
 11 12  2  0  0  0
 11 16  1  0  0  0
 12 13  1  0  0  0
 12 25  1  0  0  0
 13 14  2  0  0  0
 13 26  1  0  0  0
 14 15  1  0  0  0
 14 17  1  0  0  0
 15 16  2  0  0  0
 15 27  1  0  0  0
 16 28  1  0  0  0
M  END
> <s_m_source_file>
../4kne_ligand.sdf

> <i_m_source_file_index>
1

> <s_epik_input>
W0NIM11DMShbQ0gzXSlbTkhdL0MoPU4vW0hdKVtOSF0vQyg9Ti9bSF0pTjFjMltjSF1bY0hdYyhDbClbY0hdW2NIXTI=

> <s_epik_cmdline>
J2VwaWtfYXBwJywgJy1pbWFlJywgJ2xpZ2FuZF9wcm8ubWFlJywgJy1vbWFlJywgJ2xpZ2FuZF9wcmVwLm1hZScsICctbXMnLCAnMScsICctcGgnLCAnNycsICctcGh0JywgJzAuNScsICctbnQn

> <r_lp_tautomer_probability>
0.176538296804797

> <r_epik_Ionization_Penalty>
  6.6317

> <r_epik_Ionization_Penalty_Charging>
  0.0000

> <r_epik_Ionization_Penalty_Neutral>
  6.6317

> <r_epik_State_Penalty>
  0.1795

> <r_epik_Charging_Adjusted_Penalty>
0.179525023791117

> <i_epik_Tot_Q>
0

> <i_epik_Tot_abs_Q>
0

> <s_epik_Chemistry_Notes>
This compound has an imine and may undergo hydrolysis.

$$$$
