4kni_ligand
                    3D
 Schrodinger Suite 2020-3.
 37 38  0  0  1  0            999 V2000
   -4.6610    4.5110   15.3810 C   0  0  0  0  0  0
   -4.9710    2.1360   15.8480 C   0  0  0  0  0  0
   -3.9930    1.7890   14.8900 C   0  0  0  0  0  0
   -6.5620    3.8820   17.2580 Cl  0  0  0  0  0  0
   -5.3380    3.4830   16.0700 C   0  0  0  0  0  0
   -5.7490    0.7870   16.7790 S   0  0  0  0  0  0
   -7.3190    0.8280   16.5880 O   0  0  0  0  0  0
   -5.0300   -0.6720   16.1440 N   0  0  0  0  0  0
   -5.2350    0.9220   18.3090 O   0  0  0  0  0  0
   -3.6260    4.1880   14.4460 C   0  0  0  0  0  0
   -3.2980    2.8250   14.1970 C   0  0  0  0  0  0
   -2.8360    5.2590   13.7730 C   0  0  0  0  0  0
   -2.6360    6.3170   14.4250 O   0  0  0  0  0  0
   -2.1370    5.0870   12.4620 C   0  0  0  0  0  0
   -2.0540    6.7070   11.6580 S   0  0  0  0  0  0
   -3.8120    7.0040   11.5410 C   0  0  0  0  0  0
   -4.6780    6.1550   12.2110 N   0  0  0  0  0  0
   -6.0110    6.3510   12.1140 C   0  0  0  0  0  0
   -6.8820    5.3830   12.8300 C   0  0  0  0  0  0
   -6.5020    7.4360   11.3480 C   0  0  0  0  0  0
   -5.5920    8.3030   10.6980 C   0  0  0  0  0  0
   -4.2560    8.0770   10.8050 N   0  0  0  0  0  0
   -6.0470    9.4680    9.8820 C   0  0  0  0  0  0
   -4.9263    5.5528   15.5607 H   0  0  0  0  0  0
   -3.7716    0.7421   14.6824 H   0  0  0  0  0  0
   -5.4534   -1.5450   16.6622 H   0  0  0  0  0  0
   -3.9419   -0.6436   16.3026 H   0  0  0  0  0  0
   -2.5178    2.5734   13.4786 H   0  0  0  0  0  0
   -1.1236    4.6959   12.6354 H   0  0  0  0  0  0
   -2.7008    4.3799   11.8358 H   0  0  0  0  0  0
   -6.2569    4.6402   13.3472 H   0  0  0  0  0  0
   -7.5351    4.8728   12.1067 H   0  0  0  0  0  0
   -7.4987    5.9195   13.5661 H   0  0  0  0  0  0
   -7.5756    7.6025   11.2595 H   0  0  0  0  0  0
   -7.1459    9.5162    9.8926 H   0  0  0  0  0  0
   -5.6951    9.3501    8.8465 H   0  0  0  0  0  0
   -5.6351   10.3957   10.3059 H   0  0  0  0  0  0
  1  5  2  0  0  0
  1 10  1  0  0  0
  1 24  1  0  0  0
  2  3  2  0  0  0
  2  5  1  0  0  0
  2  6  1  0  0  0
  3 11  1  0  0  0
  3 25  1  0  0  0
  4  5  1  0  0  0
  6  7  2  0  0  0
  6  8  1  0  0  0
  6  9  2  0  0  0
  8 26  1  0  0  0
  8 27  1  0  0  0
 10 11  2  0  0  0
 10 12  1  0  0  0
 11 28  1  0  0  0
 12 13  2  0  0  0
 12 14  1  0  0  0
 14 15  1  0  0  0
 14 29  1  0  0  0
 14 30  1  0  0  0
 15 16  1  0  0  0
 16 17  2  0  0  0
 16 22  1  0  0  0
 17 18  1  0  0  0
 18 19  1  0  0  0
 18 20  2  0  0  0
 19 31  1  0  0  0
 19 32  1  0  0  0
 19 33  1  0  0  0
 20 21  1  0  0  0
 20 34  1  0  0  0
 21 22  2  0  0  0
 21 23  1  0  0  0
 23 35  1  0  0  0
 23 36  1  0  0  0
 23 37  1  0  0  0
M  END
> <s_m_source_file>
../4kni_ligand.sdf

> <i_m_source_file_index>
1

> <s_epik_input>
Tz1TKD1PKShbTkgyXSljMVtjSF1bY0hdYyhbY0hdYzFDbClDKD1PKVtDSDJdU2MybmMoW0NIM10pW2NIXWMobjIpW0NIM10=

> <s_epik_cmdline>
J2VwaWtfYXBwJywgJy1pbWFlJywgJ2xpZ2FuZF9wcm8ubWFlJywgJy1vbWFlJywgJ2xpZ2FuZF9wcmVwLm1hZScsICctbXMnLCAnMScsICctcGgnLCAnNycsICctcGh0JywgJzAuNScsICctbnQn

> <r_lp_tautomer_probability>
1

> <r_epik_Ionization_Penalty>
  0.0049

> <r_epik_Ionization_Penalty_Charging>
  0.0000

> <r_epik_Ionization_Penalty_Neutral>
  0.0049

> <r_epik_State_Penalty>
 -0.0000

> <r_epik_Charging_Adjusted_Penalty>
0

> <i_epik_Tot_Q>
0

> <i_epik_Tot_abs_Q>
0

$$$$
