4knm_ligand
                    3D
 Schrodinger Suite 2020-3.
 37 38  0  0  1  0            999 V2000
   11.0490   -4.4560    9.5910 C   0  0  0  0  0  0
   12.3570   -3.6650    7.6950 C   0  0  0  0  0  0
   13.0170   -4.9180    7.6180 C   0  0  0  0  0  0
   10.5470   -1.9080    8.7600 Cl  0  0  0  0  0  0
   11.3920   -3.4210    8.6820 C   0  0  0  0  0  0
   12.8400   -2.3510    6.5730 S   0  0  0  0  0  0
   13.4660   -1.3080    7.4800 O   0  0  0  0  0  0
   14.2340   -2.9820    5.5590 N   0  0  0  0  0  0
   11.5740   -1.7730    5.6610 O   0  0  0  0  0  0
   11.6930   -5.6720    9.5270 C   0  0  0  0  0  0
   12.6850   -5.9120    8.5320 C   0  0  0  0  0  0
   11.2820   -6.7050   10.5330 C   0  0  0  0  0  0
   11.0530   -6.3360   11.7110 O   0  0  0  0  0  0
   11.1480   -8.1430   10.1050 C   0  0  0  0  0  0
   10.8090   -9.1620   11.5730 S   0  0  0  0  0  0
    9.0210   -9.0990   11.4790 C   0  0  0  0  0  0
    8.2910   -8.4150   10.5220 N   0  0  0  0  0  0
    6.9200   -8.4750   10.5540 C   0  0  0  0  0  0
    6.1220   -7.7390    9.5320 C   0  0  0  0  0  0
    6.2670   -9.2400   11.5530 C   0  0  0  0  0  0
    7.0500   -9.9230   12.5030 C   0  0  0  0  0  0
    8.4000   -9.8210   12.4450 N   0  0  0  0  0  0
    6.4990  -10.7670   13.6070 C   0  0  0  0  0  0
   10.2753   -4.2884   10.3403 H   0  0  0  0  0  0
   13.7730   -5.0991    6.8540 H   0  0  0  0  0  0
   14.5589   -2.2009    4.8559 H   0  0  0  0  0  0
   13.9062   -3.8685    4.9963 H   0  0  0  0  0  0
   13.1857   -6.8792    8.4873 H   0  0  0  0  0  0
   10.3198   -8.2362    9.3871 H   0  0  0  0  0  0
   12.0837   -8.4730    9.6301 H   0  0  0  0  0  0
    6.8014   -7.2084    8.8487 H   0  0  0  0  0  0
    5.4650   -7.0128   10.0331 H   0  0  0  0  0  0
    5.5108   -8.4528    8.9602 H   0  0  0  0  0  0
    5.1790   -9.2983   11.5850 H   0  0  0  0  0  0
    5.4005  -10.7730   13.5506 H   0  0  0  0  0  0
    6.8141  -10.3539   14.5766 H   0  0  0  0  0  0
    6.8770  -11.7951   13.5062 H   0  0  0  0  0  0
  1  5  2  0  0  0
  1 10  1  0  0  0
  1 24  1  0  0  0
  2  3  2  0  0  0
  2  5  1  0  0  0
  2  6  1  0  0  0
  3 11  1  0  0  0
  3 25  1  0  0  0
  4  5  1  0  0  0
  6  7  2  0  0  0
  6  8  1  0  0  0
  6  9  2  0  0  0
  8 26  1  0  0  0
  8 27  1  0  0  0
 10 11  2  0  0  0
 10 12  1  0  0  0
 11 28  1  0  0  0
 12 13  2  0  0  0
 12 14  1  0  0  0
 14 15  1  0  0  0
 14 29  1  0  0  0
 14 30  1  0  0  0
 15 16  1  0  0  0
 16 17  2  0  0  0
 16 22  1  0  0  0
 17 18  1  0  0  0
 18 19  1  0  0  0
 18 20  2  0  0  0
 19 31  1  0  0  0
 19 32  1  0  0  0
 19 33  1  0  0  0
 20 21  1  0  0  0
 20 34  1  0  0  0
 21 22  2  0  0  0
 21 23  1  0  0  0
 23 35  1  0  0  0
 23 36  1  0  0  0
 23 37  1  0  0  0
M  END
> <s_m_source_file>
../4knm_ligand.sdf

> <i_m_source_file_index>
1

> <s_epik_input>
Tz1TKD1PKShbTkgyXSljMVtjSF1bY0hdYyhbY0hdYzFDbClDKD1PKVtDSDJdU2MybmMoW0NIM10pW2NIXWMobjIpW0NIM10=

> <s_epik_cmdline>
J2VwaWtfYXBwJywgJy1pbWFlJywgJ2xpZ2FuZF9wcm8ubWFlJywgJy1vbWFlJywgJ2xpZ2FuZF9wcmVwLm1hZScsICctbXMnLCAnMScsICctcGgnLCAnNycsICctcGh0JywgJzAuNScsICctbnQn

> <r_lp_tautomer_probability>
1

> <r_epik_Ionization_Penalty>
  0.0049

> <r_epik_Ionization_Penalty_Charging>
  0.0000

> <r_epik_Ionization_Penalty_Neutral>
  0.0049

> <r_epik_State_Penalty>
 -0.0000

> <r_epik_Charging_Adjusted_Penalty>
0

> <i_epik_Tot_Q>
0

> <i_epik_Tot_abs_Q>
0

$$$$
