4knr_ligand
                    3D
 Schrodinger Suite 2020-3.
 60 64  0  0  1  0            999 V2000
   42.7190   58.4990   23.0660 C   0  0  0  0  0  0
   42.6590   59.8190   22.5380 O   0  0  0  0  0  0
   42.5120   59.7760   21.1530 C   0  0  0  0  0  0
   43.1390   58.8610   20.3220 C   0  0  0  0  0  0
   42.9270   58.9040   18.9510 C   0  0  0  0  0  0
   42.0890   59.8650   18.3990 C   0  0  0  0  0  0
   41.4810   60.7740   19.2420 C   0  0  0  0  0  0
   41.6920   60.7330   20.6020 C   0  0  0  0  0  0
   41.0760   61.6560   21.4240 O   0  0  0  0  0  0
   41.8610   59.9340   17.0800 N   0  0  0  0  0  0
   42.4750   59.0320   16.3080 C   0  0  0  0  0  0
   43.2960   58.0770   16.7520 N   0  0  0  0  0  0
   43.5250   58.0110   18.0740 C   0  0  0  0  0  0
   44.3970   57.0050   18.5480 N   0  0  0  0  0  0
   45.1980   56.2290   17.6790 C   0  0  0  0  0  0
   45.4080   54.8980   17.9550 C   0  0  0  0  0  0
   46.1730   54.1100   17.1220 C   0  0  0  0  0  0
   46.7470   54.6460   15.9920 C   0  0  0  0  0  0
   46.5540   55.9800   15.7050 C   0  0  0  0  0  0
   45.7830   56.7560   16.5450 C   0  0  0  0  0  0
   47.5290   53.8330   15.1460 N   0  0  0  0  0  0
   47.0770   53.5140   13.8790 C   0  0  0  0  0  0
   46.1950   54.0980   13.2620 O   0  0  0  0  0  0
   47.7380   52.3610   13.2450 C   0  0  0  0  0  0
   48.2180   52.4910   11.9580 C   0  0  0  0  0  0
   48.8310   51.4130   11.3580 C   0  0  0  0  0  0
   48.9610   50.2210   12.0430 C   0  0  0  0  0  0
   48.4770   50.0990   13.3280 C   0  0  0  0  0  0
   47.8590   51.1740   13.9330 C   0  0  0  0  0  0
   42.1990   59.1260   14.8370 C   0  0  0  0  0  0
   43.1040   58.3720   13.9150 C   0  0  0  0  0  0
   44.3650   58.8480   13.6170 C   0  0  0  0  0  0
   45.1980   58.1540   12.7630 C   0  0  0  0  0  0
   44.7690   56.9750   12.1940 C   0  0  0  0  0  0
   43.5070   56.4980   12.4840 C   0  0  0  0  0  0
   42.6750   57.1940   13.3390 C   0  0  0  0  0  0
   42.8350   58.5462   24.1589 H   0  0  0  0  0  0
   43.5773   57.9679   22.6288 H   0  0  0  0  0  0
   41.7911   57.9626   22.8185 H   0  0  0  0  0  0
   43.8004   58.1056   20.7463 H   0  0  0  0  0  0
   40.8234   61.5363   18.8241 H   0  0  0  0  0  0
   41.2443   61.6236   22.5106 H   0  0  0  0  0  0
   44.4694   56.8035   19.6270 H   0  0  0  0  0  0
   44.9620   54.4590   18.8474 H   0  0  0  0  0  0
   46.3240   53.0570   17.3596 H   0  0  0  0  0  0
   47.0089   56.4201   14.8176 H   0  0  0  0  0  0
   45.6321   57.8092   16.3082 H   0  0  0  0  0  0
   48.5003   53.4515   15.4938 H   0  0  0  0  0  0
   48.1135   53.4348   11.4227 H   0  0  0  0  0  0
   49.2139   51.5011   10.3413 H   0  0  0  0  0  0
   49.4491   49.3717   11.5649 H   0  0  0  0  0  0
   48.5822   49.1560   13.8645 H   0  0  0  0  0  0
   47.4697   51.0846   14.9472 H   0  0  0  0  0  0
   41.1884   58.7448   14.6285 H   0  0  0  0  0  0
   42.2679   60.1763   14.5174 H   0  0  0  0  0  0
   44.7068   59.7828   14.0613 H   0  0  0  0  0  0
   46.1933   58.5380   12.5392 H   0  0  0  0  0  0
   45.4224   56.4223   11.5189 H   0  0  0  0  0  0
   43.1644   55.5656   12.0353 H   0  0  0  0  0  0
   41.6781   56.8121   13.5590 H   0  0  0  0  0  0
  1  2  1  0  0  0
  1 37  1  0  0  0
  1 38  1  0  0  0
  1 39  1  0  0  0
  2  3  1  0  0  0
  3  4  2  0  0  0
  3  8  1  0  0  0
  4  5  1  0  0  0
  4 40  1  0  0  0
  5  6  2  0  0  0
  5 13  1  0  0  0
  6  7  1  0  0  0
  6 10  1  0  0  0
  7  8  2  0  0  0
  7 41  1  0  0  0
  8  9  1  0  0  0
  9 42  1  0  0  0
 10 11  2  0  0  0
 11 12  1  0  0  0
 11 30  1  0  0  0
 12 13  2  0  0  0
 13 14  1  0  0  0
 14 15  1  0  0  0
 14 43  1  0  0  0
 15 16  2  0  0  0
 15 20  1  0  0  0
 16 17  1  0  0  0
 16 44  1  0  0  0
 17 18  2  0  0  0
 17 45  1  0  0  0
 18 19  1  0  0  0
 18 21  1  0  0  0
 19 20  2  0  0  0
 19 46  1  0  0  0
 20 47  1  0  0  0
 21 22  1  0  0  0
 21 48  1  0  0  0
 22 23  2  0  0  0
 22 24  1  0  0  0
 24 25  2  0  0  0
 24 29  1  0  0  0
 25 26  1  0  0  0
 25 49  1  0  0  0
 26 27  2  0  0  0
 26 50  1  0  0  0
 27 28  1  0  0  0
 27 51  1  0  0  0
 28 29  2  0  0  0
 28 52  1  0  0  0
 29 53  1  0  0  0
 30 31  1  0  0  0
 30 54  1  0  0  0
 30 55  1  0  0  0
 31 32  2  0  0  0
 31 36  1  0  0  0
 32 33  1  0  0  0
 32 56  1  0  0  0
 33 34  2  0  0  0
 33 57  1  0  0  0
 34 35  1  0  0  0
 34 58  1  0  0  0
 35 36  2  0  0  0
 35 59  1  0  0  0
 36 60  1  0  0  0
M  END
> <s_m_source_file>
../4knr_ligand.sdf

> <i_m_source_file_index>
1

> <s_epik_input>
W0NIM11PYyhbY0hdMSljKFtPSF0pW2NIXWMoYzEyKW5jKFtDSDJdYzNbY0hdW2NIXVtjSF1bY0hdW2NIXTMpbmMyW05IXWM0W2NIXVtjSF1jKFtjSF1bY0hdNClbTkhdQyg9TyljNVtjSF1bY0hdW2NIXVtjSF1bY0hdNQ==

> <s_epik_cmdline>
J2VwaWtfYXBwJywgJy1pbWFlJywgJ2xpZ2FuZF9wcm8ubWFlJywgJy1vbWFlJywgJ2xpZ2FuZF9wcmVwLm1hZScsICctbXMnLCAnMScsICctcGgnLCAnNycsICctcGh0JywgJzAuNScsICctbnQn

> <r_epik_Ionization_Penalty>
  0.0311

> <r_epik_Ionization_Penalty_Charging>
  0.0000

> <r_epik_Ionization_Penalty_Neutral>
  0.0311

> <r_epik_State_Penalty>
  0.0255

> <r_epik_Charging_Adjusted_Penalty>
0.0254633534079741

> <i_epik_Tot_Q>
0

> <i_epik_Tot_abs_Q>
0

$$$$
