4knx_ligand
                    3D
 Schrodinger Suite 2020-3.
 52 55  0  0  1  0            999 V2000
  -12.0300   89.4290  131.4920 C   0  0  0  0  0  0
  -11.7950   90.7670  131.0730 O   0  0  0  0  0  0
  -12.0330   90.8090  129.7090 C   0  0  0  0  0  0
  -11.3830   89.9660  128.8310 C   0  0  0  0  0  0
  -11.6480   90.0440  127.4770 C   0  0  0  0  0  0
  -12.5580   90.9650  126.9860 C   0  0  0  0  0  0
  -13.1930   91.7990  127.8780 C   0  0  0  0  0  0
  -12.9340   91.7290  129.2290 C   0  0  0  0  0  0
  -13.5750   92.5680  130.1240 O   0  0  0  0  0  0
  -13.5710   93.8690  129.5470 C   0  0  0  0  0  0
  -15.0020   94.1860  129.1680 C   0  0  0  0  0  0
  -15.8440   93.2810  129.4300 O   0  5  0  0  0  0
  -15.1610   95.3160  128.6340 O   0  0  0  0  0  0
  -12.8300   91.0620  125.6810 N   0  0  0  0  0  0
  -12.1670   90.2130  124.8950 C   0  0  0  0  0  0
  -11.2760   89.2920  125.2640 N   0  0  0  0  0  0
  -11.0160   89.2110  126.5730 C   0  0  0  0  0  0
  -10.0810   88.2620  127.0350 N   0  0  0  0  0  0
   -9.3430   87.4330  126.1650 C   0  0  0  0  0  0
   -9.1060   86.1180  126.5040 C   0  0  0  0  0  0
   -8.3890   85.2890  125.6680 C   0  0  0  0  0  0
   -7.8990   85.7730  124.4760 C   0  0  0  0  0  0
   -8.1210   87.0870  124.1250 C   0  0  0  0  0  0
   -8.8390   87.9060  124.9700 C   0  0  0  0  0  0
   -7.1680   84.9280  123.6240 N   0  0  0  0  0  0
   -7.6610   84.5840  122.3830 C   0  0  0  0  0  0
   -8.6250   85.0730  121.8100 O   0  0  0  0  0  0
   -6.9120   83.5180  121.7130 C   0  0  0  0  0  0
   -6.4230   83.7500  120.4470 C   0  0  0  0  0  0
   -5.7200   82.7550  119.8060 C   0  0  0  0  0  0
   -5.5170   81.5450  120.4340 C   0  0  0  0  0  0
   -6.0130   81.3230  121.7010 C   0  0  0  0  0  0
   -6.7180   82.3130  122.3500 C   0  0  0  0  0  0
  -11.8524   89.3472  132.5745 H   0  0  0  0  0  0
  -11.3483   88.7520  130.9564 H   0  0  0  0  0  0
  -13.0712   89.1526  131.2693 H   0  0  0  0  0  0
  -10.6615   89.2396  129.2049 H   0  0  0  0  0  0
  -13.9140   92.5282  127.5085 H   0  0  0  0  0  0
  -13.1924   94.5948  130.2818 H   0  0  0  0  0  0
  -12.9222   93.8742  128.6587 H   0  0  0  0  0  0
  -12.3777   90.2795  123.8276 H   0  0  0  0  0  0
   -9.9030   88.1455  128.1142 H   0  0  0  0  0  0
   -9.4910   85.7283  127.4463 H   0  0  0  0  0  0
   -8.2102   84.2515  125.9504 H   0  0  0  0  0  0
   -7.7311   87.4765  123.1846 H   0  0  0  0  0  0
   -9.0118   88.9451  124.6897 H   0  0  0  0  0  0
   -6.1923   84.5340  123.9448 H   0  0  0  0  0  0
   -6.5905   84.7098  119.9583 H   0  0  0  0  0  0
   -5.3249   82.9237  118.8042 H   0  0  0  0  0  0
   -4.9603   80.7580  119.9253 H   0  0  0  0  0  0
   -5.8472   80.3630  122.1899 H   0  0  0  0  0  0
   -7.1155   82.1450  123.3509 H   0  0  0  0  0  0
  1  2  1  0  0  0
  1 34  1  0  0  0
  1 35  1  0  0  0
  1 36  1  0  0  0
  2  3  1  0  0  0
  3  4  2  0  0  0
  3  8  1  0  0  0
  4  5  1  0  0  0
  4 37  1  0  0  0
  5  6  2  0  0  0
  5 17  1  0  0  0
  6  7  1  0  0  0
  6 14  1  0  0  0
  7  8  2  0  0  0
  7 38  1  0  0  0
  8  9  1  0  0  0
  9 10  1  0  0  0
 10 11  1  0  0  0
 10 39  1  0  0  0
 10 40  1  0  0  0
 11 12  1  0  0  0
 11 13  2  0  0  0
 14 15  2  0  0  0
 15 16  1  0  0  0
 15 41  1  0  0  0
 16 17  2  0  0  0
 17 18  1  0  0  0
 18 19  1  0  0  0
 18 42  1  0  0  0
 19 20  2  0  0  0
 19 24  1  0  0  0
 20 21  1  0  0  0
 20 43  1  0  0  0
 21 22  2  0  0  0
 21 44  1  0  0  0
 22 23  1  0  0  0
 22 25  1  0  0  0
 23 24  2  0  0  0
 23 45  1  0  0  0
 24 46  1  0  0  0
 25 26  1  0  0  0
 25 47  1  0  0  0
 26 27  2  0  0  0
 26 28  1  0  0  0
 28 29  2  0  0  0
 28 33  1  0  0  0
 29 30  1  0  0  0
 29 48  1  0  0  0
 30 31  2  0  0  0
 30 49  1  0  0  0
 31 32  1  0  0  0
 31 50  1  0  0  0
 32 33  2  0  0  0
 32 51  1  0  0  0
 33 52  1  0  0  0
M  CHG  1  12  -1
M  END
> <s_m_source_file>
../4knx_ligand.sdf

> <i_m_source_file_index>
1

> <s_epik_input>
W09IXUMoPU8pW0NIMl1PYyhjKFtjSF0xKU9bQ0gzXSlbY0hdYyhjMTIpbltjSF1uYzJbTkhdYzNbY0hdW2NIXWMoW2NIXVtjSF0zKVtOSF1DKD1PKWM0W2NIXVtjSF1bY0hdW2NIXVtjSF00

> <s_epik_cmdline>
J2VwaWtfYXBwJywgJy1pbWFlJywgJ2xpZ2FuZF9wcm8ubWFlJywgJy1vbWFlJywgJ2xpZ2FuZF9wcmVwLm1hZScsICctbXMnLCAnMScsICctcGgnLCAnNycsICctcGh0JywgJzAuNScsICctbnQn

> <r_lp_tautomer_probability>
1

> <r_epik_Ionization_Penalty>
  0.0016

> <r_epik_Ionization_Penalty_Charging>
  0.0001

> <r_epik_Ionization_Penalty_Neutral>
  0.0016

> <r_epik_State_Penalty>
 -0.0000

> <r_epik_Charging_Adjusted_Penalty>
5.30022396038988e-05

> <i_epik_Tot_Q>
-1

> <i_epik_Tot_abs_Q>
1

$$$$
