4ko8_ligand
                    3D
 Schrodinger Suite 2020-3.
 44 46  0  0  1  0            999 V2000
   18.1480   52.8820  -12.0820 P   0  0  2  0  0  0
   16.2460   52.5280  -12.8350 S   0  0  0  0  0  0
   17.9520   53.2240  -10.6270 O   0  5  0  0  0  0
   18.8630   53.8690  -12.9660 O   0  0  0  0  0  0
   20.4050   51.1600  -11.5270 P   0  0  2  0  0  0
   20.4890   51.7820  -10.1560 O   0  0  0  0  0  0
   21.4890   51.3770  -12.5530 O   0  5  0  0  0  0
   18.9820   51.5070  -12.2120 O   0  0  0  0  0  0
   20.4380   48.7310  -10.0640 P   0  0  1  0  0  0
   21.8570   49.0370   -9.6660 O   0  5  0  0  0  0
   19.3070   48.9780   -9.1050 O   0  0  0  0  0  0
   20.1600   49.5780  -11.3980 O   0  0  0  0  0  0
   20.3380   47.2570  -10.6940 O   0  0  0  0  0  0
   19.1970   46.4290  -10.4830 C   0  0  0  0  0  0
   19.6580   44.9890  -10.3300 C   0  0  1  0  0  0
   20.1480   44.4870  -11.5840 O   0  0  0  0  0  0
   20.8100   44.8580   -9.3460 C   0  0  1  0  0  0
   20.3800   44.6290   -8.0000 O   0  0  0  0  0  0
   21.5770   43.6800   -9.8900 C   0  0  1  0  0  0
   20.9840   42.4750   -9.3980 O   0  0  0  0  0  0
   21.3670   43.7530  -11.3970 C   0  0  2  0  0  0
   22.5230   44.4400  -12.0360 N   0  0  0  0  0  0
   22.4700   45.6240  -12.6730 C   0  0  0  0  0  0
   23.6860   45.9880  -13.1410 N   0  0  0  0  0  0
   24.5640   45.0330  -12.7970 C   0  0  0  0  0  0
   26.0220   44.8050  -12.9840 C   0  0  0  0  0  0
   26.7870   45.7030  -13.6470 N   0  0  0  0  0  0
   26.5550   43.6720  -12.4710 N   0  0  0  0  0  0
   25.7940   42.7710  -11.8100 C   0  0  0  0  0  0
   24.4680   42.9180  -11.6070 N   0  0  0  0  0  0
   23.7970   44.0070  -12.0700 C   0  0  0  0  0  0
   15.4996   53.3359  -12.8458 H   0  0  0  0  0  0
   18.6735   46.7516   -9.5709 H   0  0  0  0  0  0
   18.5183   46.5134  -11.3445 H   0  0  0  0  0  0
   18.7871   44.3939  -10.0181 H   0  0  0  0  0  0
   21.3979   45.7784   -9.2147 H   0  0  0  0  0  0
   19.8066   45.4016   -7.4668 H   0  0  0  0  0  0
   22.6302   43.6491   -9.5740 H   0  0  0  0  0  0
   21.0298   42.2378   -8.3249 H   0  0  0  0  0  0
   21.2604   42.7758  -11.8907 H   0  0  0  0  0  0
   21.5624   46.2149  -12.7963 H   0  0  0  0  0  0
   26.3323   46.6174  -14.0557 H   0  0  0  0  0  0
   27.8636   45.5185  -13.7772 H   0  0  0  0  0  0
   26.2784   41.8761  -11.4193 H   0  0  0  0  0  0
  1  2  1  0  0  0
  1  3  1  0  0  0
  1  4  2  0  0  0
  1  8  1  0  0  0
  2 32  1  0  0  0
  5  6  2  0  0  0
  5  7  1  0  0  0
  5  8  1  0  0  0
  5 12  1  0  0  0
  9 10  1  0  0  0
  9 11  2  0  0  0
  9 12  1  0  0  0
  9 13  1  0  0  0
 13 14  1  0  0  0
 14 15  1  0  0  0
 14 33  1  0  0  0
 14 34  1  0  0  0
 15 16  1  0  0  0
 15 17  1  0  0  0
 15 35  1  0  0  0
 16 21  1  0  0  0
 17 18  1  0  0  0
 17 19  1  0  0  0
 17 36  1  0  0  0
 18 37  1  0  0  0
 19 20  1  0  0  0
 19 21  1  0  0  0
 19 38  1  0  0  0
 20 39  1  0  0  0
 21 22  1  0  0  0
 21 40  1  0  0  0
 22 23  1  0  0  0
 22 31  1  0  0  0
 23 24  2  0  0  0
 23 41  1  0  0  0
 24 25  1  0  0  0
 25 26  2  0  0  0
 25 31  1  0  0  0
 26 27  1  0  0  0
 26 28  1  0  0  0
 27 42  1  0  0  0
 27 43  1  0  0  0
 28 29  2  0  0  0
 29 30  1  0  0  0
 29 44  1  0  0  0
 30 31  2  0  0  0
M  CHG  3   3  -1   7  -1  10  -1
M  END
> <s_m_source_file>
../4ko8_ligand.sdf

> <i_m_source_file_index>
1

> <s_epik_input>
W1NIXVtQQEBdKD1PKShbT0hdKU9bUEBdKD1PKShbT0hdKU9bUEBdKD1PKShbT0hdKU9bQ0gyXVtDQEhdMU9bQ0BIXShbQ0BIXShbT0hdKVtDQEBIXTFbT0hdKW4oW2NIXW4yKWMoYzIzKW5bY0hdbmMzW05IMl0=

> <s_epik_cmdline>
J2VwaWtfYXBwJywgJy1pbWFlJywgJ2xpZ2FuZF9wcm8ubWFlJywgJy1vbWFlJywgJ2xpZ2FuZF9wcmVwLm1hZScsICctbXMnLCAnMScsICctcGgnLCAnNycsICctcGh0JywgJzAuNScsICctbnQn

> <r_lp_tautomer_probability>
0.999997216410988

> <r_epik_Ionization_Penalty>
  0.0807

> <r_epik_Ionization_Penalty_Charging>
  0.0005

> <r_epik_Ionization_Penalty_Neutral>
  0.0802

> <r_epik_State_Penalty>
  0.0706

> <r_epik_Charging_Adjusted_Penalty>
0.0710841366671861

> <i_epik_Tot_Q>
-3

> <i_epik_Tot_abs_Q>
3

> <s_epik_Chemistry_Notes>
This compound contains an acetal/aminal-like group ( X-CH(R)-Y where X, Y are N, S, or O) that may be acid/base labile, releasing an aldehyde.

$$$$
