4kod_ligand
                    3D
 Schrodinger Suite 2020-3.
 39 41  0  0  1  0            999 V2000
   76.0690   25.0540   58.9120 P   0  0  0  0  0  0
   75.5350   26.1210   57.9810 O   0  5  0  0  0  0
   76.4360   23.7340   58.2650 O   0  5  0  0  0  0
   75.1910   24.9280   60.1290 O   0  0  0  0  0  0
   77.7110   27.1550   59.7710 P   0  0  1  0  0  0
   78.6960   27.7290   58.7980 O   0  0  0  0  0  0
   76.3890   27.8520   60.0550 O   0  5  0  0  0  0
   77.4890   25.5870   59.4700 O   0  0  0  0  0  0
   78.5090   27.1230   61.1500 O   0  0  0  0  0  0
   79.5420   26.1730   61.3340 C   0  0  0  0  0  0
   80.5170   26.7200   62.3680 C   0  0  1  0  0  0
   81.4640   25.7310   62.7410 O   0  0  0  0  0  0
   81.2760   27.8880   61.7690 C   0  0  1  0  0  0
   81.4140   28.9450   62.7100 O   0  0  0  0  0  0
   82.6220   27.3250   61.4010 C   0  0  1  0  0  0
   83.6560   28.1670   61.8950 O   0  0  0  0  0  0
   82.6710   25.9480   62.0300 C   0  0  2  0  0  0
   82.7700   24.8820   61.0220 N   0  0  0  0  0  0
   81.8130   23.9960   60.7110 C   0  0  0  0  0  0
   82.2330   23.1350   59.7590 N   0  0  0  0  0  0
   83.4860   23.4660   59.4670 C   0  0  0  0  0  0
   84.5140   22.9660   58.5500 C   0  0  0  0  0  0
   84.2690   21.9120   57.7520 N   0  0  0  0  0  0
   85.7070   23.5860   58.5380 N   0  0  0  0  0  0
   85.9640   24.6410   59.3310 C   0  0  0  0  0  0
   85.0600   25.1510   60.1820 N   0  0  0  0  0  0
   83.8330   24.6150   60.2950 C   0  0  0  0  0  0
   79.1098   25.2253   61.6877 H   0  0  0  0  0  0
   80.0606   26.0055   60.3785 H   0  0  0  0  0  0
   79.9818   26.9894   63.2905 H   0  0  0  0  0  0
   80.7562   28.3713   60.9286 H   0  0  0  0  0  0
   80.5216   29.4675   63.0850 H   0  0  0  0  0  0
   82.8130   27.3047   60.3179 H   0  0  0  0  0  0
   83.7464   29.2001   61.5281 H   0  0  0  0  0  0
   83.5281   25.8784   62.7160 H   0  0  0  0  0  0
   80.8235   23.9735   61.1676 H   0  0  0  0  0  0
   83.2858   21.4194   57.7778 H   0  0  0  0  0  0
   85.0518   21.5423   57.0733 H   0  0  0  0  0  0
   86.9502   25.1025   59.2805 H   0  0  0  0  0  0
  1  2  1  0  0  0
  1  3  1  0  0  0
  1  4  2  0  0  0
  1  8  1  0  0  0
  5  6  2  0  0  0
  5  7  1  0  0  0
  5  8  1  0  0  0
  5  9  1  0  0  0
  9 10  1  0  0  0
 10 11  1  0  0  0
 10 28  1  0  0  0
 10 29  1  0  0  0
 11 12  1  0  0  0
 11 13  1  0  0  0
 11 30  1  0  0  0
 12 17  1  0  0  0
 13 14  1  0  0  0
 13 15  1  0  0  0
 13 31  1  0  0  0
 14 32  1  0  0  0
 15 16  1  0  0  0
 15 17  1  0  0  0
 15 33  1  0  0  0
 16 34  1  0  0  0
 17 18  1  0  0  0
 17 35  1  0  0  0
 18 19  1  0  0  0
 18 27  1  0  0  0
 19 20  2  0  0  0
 19 36  1  0  0  0
 20 21  1  0  0  0
 21 22  2  0  0  0
 21 27  1  0  0  0
 22 23  1  0  0  0
 22 24  1  0  0  0
 23 37  1  0  0  0
 23 38  1  0  0  0
 24 25  2  0  0  0
 25 26  1  0  0  0
 25 39  1  0  0  0
 26 27  2  0  0  0
M  CHG  3   2  -1   3  -1   7  -1
M  END
> <s_m_source_file>
../4kod_ligand.sdf

> <i_m_source_file_index>
1

> <s_epik_input>
W09IXVAoPU8pKFtPSF0pT1tQQEBdKD1PKShbT0hdKU9bQ0gyXVtDQEhdMU9bQ0BIXShbQ0BIXShbT0hdKVtDQEBIXTFbT0hdKW4oW2NIXW4yKWMoYzIzKW5bY0hdbmMzW05IMl0=

> <s_epik_cmdline>
J2VwaWtfYXBwJywgJy1pbWFlJywgJ2xpZ2FuZF9wcm8ubWFlJywgJy1vbWFlJywgJ2xpZ2FuZF9wcmVwLm1hZScsICctbXMnLCAnMScsICctcGgnLCAnNycsICctcGh0JywgJzAuNScsICctbnQn

> <r_lp_tautomer_probability>
0.999997216410988

> <r_epik_Ionization_Penalty>
  0.1037

> <r_epik_Ionization_Penalty_Charging>
  0.1033

> <r_epik_Ionization_Penalty_Neutral>
  0.0004

> <r_epik_State_Penalty>
  0.0922

> <r_epik_Charging_Adjusted_Penalty>
0.19546844050481

> <i_epik_Tot_Q>
-3

> <i_epik_Tot_abs_Q>
3

> <s_epik_Chemistry_Notes>
This compound contains an acetal/aminal-like group ( X-CH(R)-Y where X, Y are N, S, or O) that may be acid/base labile, releasing an aldehyde.

$$$$
