4kom_ligand
                    3D
 Schrodinger Suite 2020-3.
108111  0  0  1  0            999 V2000
   31.6770  -33.7900   35.8100 C   0  0  0  0  0  0
   32.1530  -33.1830   37.0780 C   0  0  1  0  0  0
   31.4170  -34.2170   37.9470 C   0  0  0  0  0  0
   31.8920  -35.6280   37.8730 C   0  0  1  0  0  0
   33.2800  -35.8100   38.1750 C   0  0  2  0  0  0
   34.0020  -34.7680   37.3610 C   0  0  2  0  0  0
   35.4690  -34.7010   37.5560 C   0  0  1  0  0  0
   36.0160  -33.6340   36.6130 C   0  0  1  0  0  0
   37.5050  -33.7590   36.4940 C   0  0  0  0  0  0
   34.8050  -37.8700   38.5260 C   0  0  0  0  0  0
   35.1470  -39.3210   38.1590 C   0  0  0  0  0  0
   33.6700  -37.2070   37.8740 N   0  0  0  0  0  0
   30.4700  -34.0550   35.6490 O   0  0  0  0  0  0
   32.4670  -34.0010   34.8490 O   0  5  0  0  0  0
   31.0780  -36.4980   38.6950 O   0  0  0  0  0  0
   33.3950  -33.4590   37.6690 O   0  0  0  0  0  0
   35.8410  -34.4330   38.8860 O   0  0  0  0  0  0
   35.3840  -33.7070   35.3750 O   0  0  0  0  0  0
   38.2180  -32.5980   36.2460 O   0  0  0  0  0  0
   35.4960  -37.2880   39.3580 O   0  0  0  0  0  0
   33.6850  -19.1320   39.2280 C   0  0  2  0  0  0
   33.6600  -20.3800   38.3500 C   0  0  1  0  0  0
   34.5610  -21.4800   38.9110 C   0  0  2  0  0  0
   35.9180  -20.9240   39.3330 C   0  0  2  0  0  0
   35.7470  -19.6700   40.1830 C   0  0  1  0  0  0
   37.0930  -19.0810   40.5860 C   0  0  0  0  0  0
   32.9740  -18.0930   38.5910 O   0  0  0  0  0  0
   32.3320  -20.8450   38.2730 O   0  0  0  0  0  0
   34.7620  -22.5080   37.9600 O   0  0  0  0  0  0
   36.6780  -20.6150   38.1860 O   0  0  0  0  0  0
   35.0160  -18.7170   39.4450 O   0  0  0  0  0  0
   36.8860  -17.8790   41.2950 O   0  0  0  0  0  0
   33.9380  -23.6560   38.2600 C   0  0  1  0  0  0
   32.9900  -23.9650   37.0970 C   0  0  1  0  0  0
   32.3570  -25.3600   37.1290 C   0  0  2  0  0  0
   33.2400  -26.4460   37.7470 C   0  0  1  0  0  0
   34.0150  -25.9110   38.9430 C   0  0  1  0  0  0
   34.9830  -26.9560   39.4810 C   0  0  0  0  0  0
   31.5030  -22.4810   35.8750 C   0  0  0  0  0  0
   30.0790  -22.7660   35.4960 C   0  0  0  0  0  0
   31.9240  -22.9800   37.0360 N   0  0  0  0  0  0
   32.0310  -25.7060   35.7990 O   0  0  0  0  0  0
   32.4450  -27.5320   38.1890 O   0  0  0  0  0  0
   34.7470  -24.7710   38.5660 O   0  0  0  0  0  0
   35.9100  -26.3320   40.3400 O   0  0  0  0  0  0
   32.2250  -21.8160   35.1330 O   0  0  0  0  0  0
   32.1850  -28.4890   37.1400 C   0  0  1  0  0  0
   32.2810  -29.8990   37.7280 C   0  0  1  0  0  0
   31.6680  -30.9870   36.8440 C   0  0  2  0  0  0
   30.4290  -30.5300   36.0860 C   0  0  2  0  0  0
   30.6840  -29.1590   35.4800 C   0  0  1  0  0  0
   29.5050  -28.6860   34.6380 C   0  0  0  0  0  0
   33.6430  -30.2150   37.9120 O   0  0  0  0  0  0
   31.3520  -32.1270   37.6190 O   0  0  0  0  0  0
   29.3220  -30.4850   36.9580 O   0  0  0  0  0  0
   30.9250  -28.2660   36.5430 O   0  0  0  0  0  0
   29.9170  -27.6180   33.8130 O   0  0  0  0  0  0
   31.5022  -33.9328   39.0062 H   0  0  0  0  0  0
   30.3556  -34.2482   37.6600 H   0  0  0  0  0  0
   31.8052  -35.9428   36.8226 H   0  0  0  0  0  0
   33.4888  -35.6791   39.2470 H   0  0  0  0  0  0
   33.8908  -35.0370   36.3002 H   0  0  0  0  0  0
   35.9012  -35.7011   37.4046 H   0  0  0  0  0  0
   35.7665  -32.6158   36.9462 H   0  0  0  0  0  0
   37.9152  -34.1619   37.4318 H   0  0  0  0  0  0
   37.7508  -34.4384   35.6645 H   0  0  0  0  0  0
   34.4337  -39.6865   37.4056 H   0  0  0  0  0  0
   35.0851  -39.9510   39.0586 H   0  0  0  0  0  0
   36.1672  -39.3650   37.7500 H   0  0  0  0  0  0
   33.1003  -37.7901   37.1355 H   0  0  0  0  0  0
   29.9829  -36.4862   38.5916 H   0  0  0  0  0  0
   35.5248  -35.1106   39.6928 H   0  0  0  0  0  0
   34.2886  -33.6298   35.3113 H   0  0  0  0  0  0
   39.3132  -32.6351   36.1499 H   0  0  0  0  0  0
   33.2313  -19.2891   40.2177 H   0  0  0  0  0  0
   33.9639  -20.1404   37.3203 H   0  0  0  0  0  0
   34.0518  -21.9668   39.7558 H   0  0  0  0  0  0
   36.4981  -21.6846   39.8761 H   0  0  0  0  0  0
   35.1511  -19.8884   41.0814 H   0  0  0  0  0  0
   37.6296  -19.7969   41.2260 H   0  0  0  0  0  0
   37.6889  -18.8772   39.6841 H   0  0  0  0  0  0
   31.9123  -18.2283   38.3370 H   0  0  0  0  0  0
   31.5395  -20.1851   37.8901 H   0  0  0  0  0  0
   36.9060  -21.3996   37.4495 H   0  0  0  0  0  0
   37.7471  -17.3062   41.6697 H   0  0  0  0  0  0
   33.3890  -23.4348   39.1872 H   0  0  0  0  0  0
   33.5957  -23.8835   36.1824 H   0  0  0  0  0  0
   31.4246  -25.3310   37.7119 H   0  0  0  0  0  0
   33.9187  -26.8481   36.9804 H   0  0  0  0  0  0
   33.3163  -25.5786   39.7248 H   0  0  0  0  0  0
   34.4232  -27.7226   40.0369 H   0  0  0  0  0  0
   35.5167  -27.4276   38.6427 H   0  0  0  0  0  0
   29.6040  -23.3701   36.2831 H   0  0  0  0  0  0
   30.0562  -23.3190   34.5454 H   0  0  0  0  0  0
   29.5332  -21.8178   35.3818 H   0  0  0  0  0  0
   31.4451  -22.6298   37.9623 H   0  0  0  0  0  0
   31.3989  -25.0375   35.1960 H   0  0  0  0  0  0
   36.6945  -26.9282   40.8290 H   0  0  0  0  0  0
   32.8968  -28.3079   36.3211 H   0  0  0  0  0  0
   31.7836  -29.9036   38.7091 H   0  0  0  0  0  0
   32.4271  -31.3134   36.1179 H   0  0  0  0  0  0
   30.1365  -31.2548   35.3120 H   0  0  0  0  0  0
   31.5880  -29.1552   34.8533 H   0  0  0  0  0  0
   29.1450  -29.5159   34.0122 H   0  0  0  0  0  0
   28.6942  -28.3474   35.2998 H   0  0  0  0  0  0
   34.2822  -29.5595   38.5218 H   0  0  0  0  0  0
   28.9986  -31.3955   37.4837 H   0  0  0  0  0  0
   29.1984  -27.1421   33.1295 H   0  0  0  0  0  0
  1  2  1  0  0  0
  1 13  2  0  0  0
  1 14  1  0  0  0
  2  3  1  0  0  0
  2 16  1  0  0  0
  2 54  1  0  0  0
  3  4  1  0  0  0
  3 58  1  0  0  0
  3 59  1  0  0  0
  4  5  1  0  0  0
  4 15  1  0  0  0
  4 60  1  0  0  0
  5  6  1  0  0  0
  5 12  1  0  0  0
  5 61  1  0  0  0
  6  7  1  0  0  0
  6 16  1  0  0  0
  6 62  1  0  0  0
  7  8  1  0  0  0
  7 17  1  0  0  0
  7 63  1  0  0  0
  8  9  1  0  0  0
  8 18  1  0  0  0
  8 64  1  0  0  0
  9 19  1  0  0  0
  9 65  1  0  0  0
  9 66  1  0  0  0
 10 11  1  0  0  0
 10 12  1  0  0  0
 10 20  2  0  0  0
 11 67  1  0  0  0
 11 68  1  0  0  0
 11 69  1  0  0  0
 12 70  1  0  0  0
 15 71  1  0  0  0
 17 72  1  0  0  0
 18 73  1  0  0  0
 19 74  1  0  0  0
 21 22  1  0  0  0
 21 27  1  0  0  0
 21 31  1  0  0  0
 21 75  1  0  0  0
 22 23  1  0  0  0
 22 28  1  0  0  0
 22 76  1  0  0  0
 23 24  1  0  0  0
 23 29  1  0  0  0
 23 77  1  0  0  0
 24 25  1  0  0  0
 24 30  1  0  0  0
 24 78  1  0  0  0
 25 26  1  0  0  0
 25 31  1  0  0  0
 25 79  1  0  0  0
 26 32  1  0  0  0
 26 80  1  0  0  0
 26 81  1  0  0  0
 27 82  1  0  0  0
 28 83  1  0  0  0
 29 33  1  0  0  0
 30 84  1  0  0  0
 32 85  1  0  0  0
 33 34  1  0  0  0
 33 44  1  0  0  0
 33 86  1  0  0  0
 34 35  1  0  0  0
 34 41  1  0  0  0
 34 87  1  0  0  0
 35 36  1  0  0  0
 35 42  1  0  0  0
 35 88  1  0  0  0
 36 37  1  0  0  0
 36 43  1  0  0  0
 36 89  1  0  0  0
 37 38  1  0  0  0
 37 44  1  0  0  0
 37 90  1  0  0  0
 38 45  1  0  0  0
 38 91  1  0  0  0
 38 92  1  0  0  0
 39 40  1  0  0  0
 39 41  1  0  0  0
 39 46  2  0  0  0
 40 93  1  0  0  0
 40 94  1  0  0  0
 40 95  1  0  0  0
 41 96  1  0  0  0
 42 97  1  0  0  0
 43 47  1  0  0  0
 45 98  1  0  0  0
 47 48  1  0  0  0
 47 56  1  0  0  0
 47 99  1  0  0  0
 48 49  1  0  0  0
 48 53  1  0  0  0
 48100  1  0  0  0
 49 50  1  0  0  0
 49 54  1  0  0  0
 49101  1  0  0  0
 50 51  1  0  0  0
 50 55  1  0  0  0
 50102  1  0  0  0
 51 52  1  0  0  0
 51 56  1  0  0  0
 51103  1  0  0  0
 52 57  1  0  0  0
 52104  1  0  0  0
 52105  1  0  0  0
 53106  1  0  0  0
 55107  1  0  0  0
 57108  1  0  0  0
M  CHG  1  14  -1
M  END
> <s_m_source_file>
../4kom_ligand.sdf

> <i_m_source_file_index>
1

> <s_epik_input>
W09IXVtDSDJdW0NAQEhdKFtPSF0pW0NAQEhdKFtPSF0pW0NASF0oTzEpW0NASF0oW05IXUMoPU8pW0NIM10pW0NAQEhdKFtPSF0pW0NIMl1bQ0BAXTEoQyg9TylbT0hdKU9bQ0BASF0oW0NAQEhdKFtPSF0pW0NASF0oTzIpW0NIMl1bT0hdKVtDQEBIXShbT0hdKVtDQEBIXTJPW0NASF0oW0NASF0oTzMpW0NIMl1bT0hdKVtDQEhdKFtPSF0pW0NAQEhdKFtOSF1DKD1PKVtDSDNdKVtDQEBIXTNPW0NASF0oW0NAQEhdKFtPSF0pW0NAQEhdNFtPSF0pW0NAQEhdKFtPSF0pW0NASF0oTzQpW0NIMl1bT0hd

> <s_epik_cmdline>
J2VwaWtfYXBwJywgJy1pbWFlJywgJ2xpZ2FuZF9wcm8ubWFlJywgJy1vbWFlJywgJ2xpZ2FuZF9wcmVwLm1hZScsICctbXMnLCAnMScsICctcGgnLCAnNycsICctcGh0JywgJzAuNScsICctbnQn

> <r_lp_tautomer_probability>
1

> <r_epik_Ionization_Penalty>
  0.0000

> <r_epik_Ionization_Penalty_Charging>
  0.0000

> <r_epik_Ionization_Penalty_Neutral>
  0.0000

> <r_epik_State_Penalty>
 -0.0000

> <r_epik_Charging_Adjusted_Penalty>
9.89303033913939e-06

> <i_epik_Tot_Q>
-1

> <i_epik_Tot_abs_Q>
1

> <s_epik_Chemistry_Notes>
This compound contains an acetal/aminal-like group ( X-CH(R)-Y where X, Y are N, S, or O) that may be acid/base labile, releasing an aldehyde.

$$$$
