4kon_ligand
                    3D
 Schrodinger Suite 2020-3.
 60 61  0  0  1  0            999 V2000
  -27.0380    0.2630  -13.7380 C   0  0  0  0  0  0
  -26.4380    0.8620  -12.4840 C   0  0  1  0  0  0
  -27.0590   -0.1320  -11.6880 C   0  0  0  0  0  0
  -26.6660   -1.5070  -11.7660 C   0  0  1  0  0  0
  -25.2300   -1.7510  -11.4540 C   0  0  2  0  0  0
  -24.4060   -0.8130  -12.2620 C   0  0  2  0  0  0
  -23.0440   -0.7230  -11.9220 C   0  0  1  0  0  0
  -22.4120    0.4090  -12.7800 C   0  0  1  0  0  0
  -20.8790    0.3540  -12.7750 C   0  0  0  0  0  0
  -23.8370   -3.9130  -11.0800 C   0  0  0  0  0  0
  -23.5860   -5.3610  -11.4620 C   0  0  0  0  0  0
  -24.9150   -3.1540  -11.7690 N   0  0  0  0  0  0
  -26.2430   -0.1120  -14.6860 O   0  5  0  0  0  0
  -28.2870    0.1540  -13.8930 O   0  0  0  0  0  0
  -27.5170   -2.3480  -10.9690 O   0  0  0  0  0  0
  -25.0850    0.5480  -12.0110 O   0  0  0  0  0  0
  -22.8680   -0.4070  -10.5750 O   0  0  0  0  0  0
  -22.8710    0.4080  -14.0960 O   0  0  0  0  0  0
  -20.2020    1.5370  -13.0160 O   0  0  0  0  0  0
  -23.1280   -3.3750  -10.1970 O   0  0  0  0  0  0
  -28.4680    5.9010  -10.7270 C   0  0  2  0  0  0
  -27.8100    7.0020  -11.5380 C   0  0  1  0  0  0
  -27.6190    6.5970  -12.9960 C   0  0  2  0  0  0
  -26.8520    5.2840  -13.1150 C   0  0  2  0  0  0
  -27.4270    4.2480  -12.1480 C   0  0  1  0  0  0
  -26.4660    3.0630  -11.9610 C   0  0  0  0  0  0
  -28.5050    6.2810   -9.3630 O   0  0  0  0  0  0
  -28.6360    8.1490  -11.4790 O   0  0  0  0  0  0
  -26.9310    7.6200  -13.6680 O   0  0  0  0  0  0
  -25.4840    5.4810  -12.8300 O   0  0  0  0  0  0
  -27.6240    4.7880  -10.8520 O   0  0  0  0  0  0
  -27.2070    1.8630  -11.7910 O   0  0  0  0  0  0
  -26.9174    0.1090  -10.6241 H   0  0  0  0  0  0
  -28.1345   -0.1656  -11.9164 H   0  0  0  0  0  0
  -26.8367   -1.7649  -12.8216 H   0  0  0  0  0  0
  -25.0096   -1.5870  -10.3889 H   0  0  0  0  0  0
  -24.3024   -1.1900  -13.2902 H   0  0  0  0  0  0
  -22.6306   -1.7363  -12.0332 H   0  0  0  0  0  0
  -22.7732    1.3798  -12.4098 H   0  0  0  0  0  0
  -20.5277    0.0102  -11.7909 H   0  0  0  0  0  0
  -20.5346   -0.3445  -13.5518 H   0  0  0  0  0  0
  -24.2966   -5.6618  -12.2459 H   0  0  0  0  0  0
  -23.7217   -6.0021  -10.5785 H   0  0  0  0  0  0
  -22.5579   -5.4680  -11.8383 H   0  0  0  0  0  0
  -25.4874   -3.6857  -12.5434 H   0  0  0  0  0  0
  -28.6097   -2.2884  -11.0808 H   0  0  0  0  0  0
  -23.2470   -1.0857   -9.7968 H   0  0  0  0  0  0
  -23.9510    0.4441  -14.3018 H   0  0  0  0  0  0
  -19.1021    1.5497  -13.0229 H   0  0  0  0  0  0
  -29.4944    5.6432  -11.0269 H   0  0  0  0  0  0
  -26.8392    7.2715  -11.0965 H   0  0  0  0  0  0
  -28.5887    6.5088  -13.5077 H   0  0  0  0  0  0
  -26.8717    4.9246  -14.1545 H   0  0  0  0  0  0
  -28.4173    3.9588  -12.5296 H   0  0  0  0  0  0
  -25.8221    2.9697  -12.8479 H   0  0  0  0  0  0
  -25.8421    3.2337  -11.0713 H   0  0  0  0  0  0
  -29.1151    7.1403   -9.0478 H   0  0  0  0  0  0
  -28.8901    8.5943  -10.5058 H   0  0  0  0  0  0
  -27.3423    8.6401  -13.6854 H   0  0  0  0  0  0
  -24.8955    6.1950  -13.4249 H   0  0  0  0  0  0
  1  2  1  0  0  0
  1 13  1  0  0  0
  1 14  2  0  0  0
  2  3  1  0  0  0
  2 16  1  0  0  0
  2 32  1  0  0  0
  3  4  1  0  0  0
  3 33  1  0  0  0
  3 34  1  0  0  0
  4  5  1  0  0  0
  4 15  1  0  0  0
  4 35  1  0  0  0
  5  6  1  0  0  0
  5 12  1  0  0  0
  5 36  1  0  0  0
  6  7  1  0  0  0
  6 16  1  0  0  0
  6 37  1  0  0  0
  7  8  1  0  0  0
  7 17  1  0  0  0
  7 38  1  0  0  0
  8  9  1  0  0  0
  8 18  1  0  0  0
  8 39  1  0  0  0
  9 19  1  0  0  0
  9 40  1  0  0  0
  9 41  1  0  0  0
 10 11  1  0  0  0
 10 12  1  0  0  0
 10 20  2  0  0  0
 11 42  1  0  0  0
 11 43  1  0  0  0
 11 44  1  0  0  0
 12 45  1  0  0  0
 15 46  1  0  0  0
 17 47  1  0  0  0
 18 48  1  0  0  0
 19 49  1  0  0  0
 21 22  1  0  0  0
 21 27  1  0  0  0
 21 31  1  0  0  0
 21 50  1  0  0  0
 22 23  1  0  0  0
 22 28  1  0  0  0
 22 51  1  0  0  0
 23 24  1  0  0  0
 23 29  1  0  0  0
 23 52  1  0  0  0
 24 25  1  0  0  0
 24 30  1  0  0  0
 24 53  1  0  0  0
 25 26  1  0  0  0
 25 31  1  0  0  0
 25 54  1  0  0  0
 26 32  1  0  0  0
 26 55  1  0  0  0
 26 56  1  0  0  0
 27 57  1  0  0  0
 28 58  1  0  0  0
 29 59  1  0  0  0
 30 60  1  0  0  0
M  CHG  1  13  -1
M  END
> <s_m_source_file>
../4kon_ligand.sdf

> <i_m_source_file_index>
1

> <s_epik_input>
W09IXVtDQEhdMVtDQEhdKFtPSF0pW0NAQEhdKFtPSF0pW0NAQEhdKFtPSF0pW0NASF0oTzEpW0NIMl1PW0NAXTIoQyg9TylbT0hdKVtDSDJdW0NASF0oW09IXSlbQ0BASF0oW05IXUMoPU8pW0NIM10pW0NAQEhdKE8yKVtDQEhdKFtPSF0pW0NASF0oW09IXSlbQ0gyXVtPSF0=

> <s_epik_cmdline>
J2VwaWtfYXBwJywgJy1pbWFlJywgJ2xpZ2FuZF9wcm8ubWFlJywgJy1vbWFlJywgJ2xpZ2FuZF9wcmVwLm1hZScsICctbXMnLCAnMScsICctcGgnLCAnNycsICctcGh0JywgJzAuNScsICctbnQn

> <r_lp_tautomer_probability>
1

> <r_epik_Ionization_Penalty>
  0.0000

> <r_epik_Ionization_Penalty_Charging>
  0.0000

> <r_epik_Ionization_Penalty_Neutral>
  0.0000

> <r_epik_State_Penalty>
 -0.0000

> <r_epik_Charging_Adjusted_Penalty>
3.56892623120892e-05

> <i_epik_Tot_Q>
-1

> <i_epik_Tot_abs_Q>
1

> <s_epik_Chemistry_Notes>
This compound contains an acetal/aminal-like group ( X-CH(R)-Y where X, Y are N, S, or O) that may be acid/base labile, releasing an aldehyde.

$$$$
