4kot_ligand
                    3D
 Schrodinger Suite 2020-3.
 46 48  0  0  1  0            999 V2000
   15.2910    3.1760   10.0850 C   0  0  1  0  0  0
   13.9770    2.3460   10.2780 C   0  0  1  0  0  0
   16.5530    2.5640    8.9800 S   0  0  0  0  0  0
   17.2930    4.2130    8.6790 C   0  0  0  0  0  0
   16.2560    5.3100    8.3970 C   0  0  0  0  0  0
   14.9840    5.2630    8.6440 C   0  0  0  0  0  0
   14.4620    4.1790    9.3760 N   0  0  0  0  0  0
   13.2700    3.5830    9.6730 C   0  0  0  0  0  0
   12.1190    3.8880    9.5090 O   0  0  0  0  0  0
   13.8030    1.1300    9.5420 N   0  0  0  0  0  0
   14.3070   -0.0430    9.9210 C   0  0  0  0  0  0
   15.0250   -0.1460   10.8730 O   0  0  0  0  0  0
   13.7680   -1.1920    9.1830 C   0  0  0  0  0  0
   12.7820   -1.9260    9.6200 N   0  0  0  0  0  0
   12.2540   -1.5390   10.8770 O   0  0  0  0  0  0
   10.8070   -1.6520   10.8610 C   0  0  0  0  0  0
   14.3520   -1.5460    7.9030 C   0  0  0  0  0  0
   13.8920   -2.6690    7.2060 N   0  0  0  0  0  0
   14.5700   -2.7910    6.0800 C   0  0  0  0  0  0
   14.4330   -3.7520    5.1290 N   0  0  0  0  0  0
   15.8250   -1.6450    5.8080 S   0  0  0  0  0  0
   15.3710   -0.9020    7.2790 C   0  0  0  0  0  0
   16.8500    6.5030    7.7280 C   0  0  0  0  0  0
   17.7180    7.2080    8.7180 O   0  0  0  0  0  0
   18.1860    8.5040    8.4320 C   0  0  0  0  0  0
   17.8900    9.0320    7.3790 O   0  0  0  0  0  0
   19.0490    9.0180    9.5400 C   0  0  0  0  0  0
   13.9150    6.2080    8.1360 C   0  0  0  0  0  0
   13.0290    5.7490    7.3080 O   0  5  0  0  0  0
   13.9880    7.3920    8.5170 O   0  0  0  0  0  0
   15.8020    3.4306   11.0252 H   0  0  0  0  0  0
   13.7134    1.8279   11.2119 H   0  0  0  0  0  0
   17.8677    4.5240    9.5639 H   0  0  0  0  0  0
   17.9617    4.1612    7.8071 H   0  0  0  0  0  0
   13.2252    1.1315    8.6060 H   0  0  0  0  0  0
   10.4048   -1.3501   11.8393 H   0  0  0  0  0  0
   10.5229   -2.6942   10.6535 H   0  0  0  0  0  0
   10.3967   -0.9973   10.0780 H   0  0  0  0  0  0
   13.6529   -4.5206    5.2321 H   0  0  0  0  0  0
   15.1022   -3.7613    4.2561 H   0  0  0  0  0  0
   15.8493   -0.0058    7.6742 H   0  0  0  0  0  0
   17.4481    6.1788    6.8636 H   0  0  0  0  0  0
   16.0452    7.1709    7.3871 H   0  0  0  0  0  0
   19.0972    8.2695   10.3446 H   0  0  0  0  0  0
   18.6225    9.9524    9.9336 H   0  0  0  0  0  0
   20.0620    9.2101    9.1567 H   0  0  0  0  0  0
  1  2  1  0  0  0
  1  3  1  0  0  0
  1  7  1  0  0  0
  1 31  1  0  0  0
  2  8  1  0  0  0
  2 10  1  0  0  0
  2 32  1  0  0  0
  3  4  1  0  0  0
  4  5  1  0  0  0
  4 33  1  0  0  0
  4 34  1  0  0  0
  5  6  2  0  0  0
  5 23  1  0  0  0
  6  7  1  0  0  0
  6 28  1  0  0  0
  7  8  1  0  0  0
  8  9  2  0  0  0
 10 11  1  0  0  0
 10 35  1  0  0  0
 11 12  2  0  0  0
 11 13  1  0  0  0
 13 14  2  0  0  0
 13 17  1  0  0  0
 14 15  1  0  0  0
 15 16  1  0  0  0
 16 36  1  0  0  0
 16 37  1  0  0  0
 16 38  1  0  0  0
 17 18  1  0  0  0
 17 22  2  0  0  0
 18 19  2  0  0  0
 19 20  1  0  0  0
 19 21  1  0  0  0
 20 39  1  0  0  0
 20 40  1  0  0  0
 21 22  1  0  0  0
 22 41  1  0  0  0
 23 24  1  0  0  0
 23 42  1  0  0  0
 23 43  1  0  0  0
 24 25  1  0  0  0
 25 26  2  0  0  0
 25 27  1  0  0  0
 27 44  1  0  0  0
 27 45  1  0  0  0
 27 46  1  0  0  0
 28 29  1  0  0  0
 28 30  2  0  0  0
M  CHG  1  29  -1
M  END
> <s_m_source_file>
../4kot_ligand.sdf

> <i_m_source_file_index>
1

> <s_epik_input>
Tz1DKFtDSDNdKU9bQ0gyXUMoW0NIMl1TMSk9QyhDKD1PKVtPSF0pTihbQ0BIXTEyKUMoPU8pW0NASF0yW05IXUMoPU8pL0MoPU5cT1tDSDNdKWMzbmMoW05IMl0pc1tjSF0z

> <s_epik_cmdline>
J2VwaWtfYXBwJywgJy1pbWFlJywgJ2xpZ2FuZF9wcm8ubWFlJywgJy1vbWFlJywgJ2xpZ2FuZF9wcmVwLm1hZScsICctbXMnLCAnMScsICctcGgnLCAnNycsICctcGh0JywgJzAuNScsICctbnQn

> <r_lp_tautomer_probability>
1

> <r_epik_Ionization_Penalty>
  0.0010

> <r_epik_Ionization_Penalty_Charging>
  0.0000

> <r_epik_Ionization_Penalty_Neutral>
  0.0010

> <r_epik_State_Penalty>
 -0.0000

> <r_epik_Charging_Adjusted_Penalty>
1.36441834616053e-05

> <i_epik_Tot_Q>
-1

> <i_epik_Tot_abs_Q>
1

> <s_epik_Chemistry_Notes>
This compound has an ester and may undergo hydrolysis at high or low pH. This compound has an imine and may undergo hydrolysis. This compound contains an acetal/aminal-like group ( X-CH(R)-Y where X, Y are N, S, or O) that may be acid/base labile, releasing an aldehyde.

$$$$
