4kov_ligand
                    3D
 Schrodinger Suite 2020-3.
 44 46  0  0  1  0            999 V2000
   16.5460    2.4860    8.9150 S   0  0  0  0  0  0
   10.6310   -1.4960   10.6520 C   0  0  0  0  0  0
   12.5720   -1.8100    9.4160 N   0  0  0  0  0  0
   12.0740   -1.4080   10.6770 O   0  0  0  0  0  0
   13.6110   -1.1340    9.0810 C   0  0  0  0  0  0
   13.7060    1.1620    9.5630 N   0  0  0  0  0  0
   13.6640   -2.4800    7.1190 O   0  0  0  0  0  0
   14.2170   -1.4230    7.8260 C   0  0  0  0  0  0
   14.5060    4.1620    9.3780 N   0  0  0  0  0  0
   15.0170   -0.2130   10.7620 O   0  0  0  0  0  0
   15.2460   -0.8950    7.1230 C   0  0  0  0  0  0
   19.7260    8.1720    9.0470 N   0  0  0  0  0  0
   12.1670    3.9350    9.5330 O   0  0  0  0  0  0
   15.3570   -1.6780    5.9330 C   0  0  0  0  0  0
   18.0250    6.9120    8.5810 O   0  0  0  0  0  0
   14.4130   -2.5730    5.9590 C   0  0  0  0  0  0
   18.1750    8.8730    7.4640 O   0  0  0  0  0  0
   14.2000   -0.0220    9.8790 C   0  0  0  0  0  0
   14.0540    7.3870    8.4670 O   0  5  0  0  0  0
   14.0200    2.3780   10.2910 C   0  0  1  0  0  0
   13.1060    5.7590    7.3380 O   0  0  0  0  0  0
   15.3260    3.1350   10.0550 C   0  0  1  0  0  0
   13.3420    3.6430    9.6840 C   0  0  0  0  0  0
   15.0470    5.2380    8.6100 C   0  0  0  0  0  0
   16.3190    5.2170    8.3390 C   0  0  0  0  0  0
   17.3150    4.1240    8.6080 C   0  0  0  0  0  0
   16.9800    6.3990    7.6370 C   0  0  0  0  0  0
   18.6190    8.0610    8.2860 C   0  0  0  0  0  0
   14.0120    6.1790    8.0810 C   0  0  0  0  0  0
   10.2278   -1.1860   11.6274 H   0  0  0  0  0  0
   10.3305   -2.5335   10.4439 H   0  0  0  0  0  0
   10.2370   -0.8354    9.8657 H   0  0  0  0  0  0
   13.0250    1.1980    8.6999 H   0  0  0  0  0  0
   15.8651   -0.0441    7.4073 H   0  0  0  0  0  0
   20.0003    7.3631    9.7402 H   0  0  0  0  0  0
   20.3551    9.0715    8.9749 H   0  0  0  0  0  0
   16.0991   -1.5488    5.1451 H   0  0  0  0  0  0
   14.2350   -3.3023    5.1687 H   0  0  0  0  0  0
   13.8274    1.8836   11.2546 H   0  0  0  0  0  0
   15.8615    3.3590   10.9894 H   0  0  0  0  0  0
   17.9016    4.4245    9.4887 H   0  0  0  0  0  0
   17.9763    4.0601    7.7313 H   0  0  0  0  0  0
   16.2503    7.1956    7.4298 H   0  0  0  0  0  0
   17.4573    6.0854    6.6969 H   0  0  0  0  0  0
  1 22  1  0  0  0
  1 26  1  0  0  0
  2  4  1  0  0  0
  2 30  1  0  0  0
  2 31  1  0  0  0
  2 32  1  0  0  0
  3  4  1  0  0  0
  3  5  2  0  0  0
  5  8  1  0  0  0
  5 18  1  0  0  0
  6 18  1  0  0  0
  6 20  1  0  0  0
  6 33  1  0  0  0
  7  8  1  0  0  0
  7 16  1  0  0  0
  8 11  2  0  0  0
  9 22  1  0  0  0
  9 23  1  0  0  0
  9 24  1  0  0  0
 10 18  2  0  0  0
 11 14  1  0  0  0
 11 34  1  0  0  0
 12 28  1  0  0  0
 12 35  1  0  0  0
 12 36  1  0  0  0
 13 23  2  0  0  0
 14 16  2  0  0  0
 14 37  1  0  0  0
 15 27  1  0  0  0
 15 28  1  0  0  0
 16 38  1  0  0  0
 17 28  2  0  0  0
 19 29  1  0  0  0
 20 22  1  0  0  0
 20 23  1  0  0  0
 20 39  1  0  0  0
 21 29  2  0  0  0
 22 40  1  0  0  0
 24 25  2  0  0  0
 24 29  1  0  0  0
 25 26  1  0  0  0
 25 27  1  0  0  0
 26 41  1  0  0  0
 26 42  1  0  0  0
 27 43  1  0  0  0
 27 44  1  0  0  0
M  CHG  1  19  -1
M  END
> <s_m_source_file>
../4kov_ligand.sdf

> <i_m_source_file_index>
1

> <s_epik_input>
W05IMl1DKD1PKU9bQ0gyXUMoPUMxQyg9TylbT0hdKVtDSDJdU1tDQEBIXShOMTIpW0NAQEhdKEMyPU8pW05IXUMoPU8pQyg9TlxPW0NIM10pL2Mzb1tjSF1bY0hdW2NIXTM=

> <s_epik_cmdline>
J2VwaWtfYXBwJywgJy1pbWFlJywgJ2xpZ2FuZF9wcm8ubWFlJywgJy1vbWFlJywgJ2xpZ2FuZF9wcmVwLm1hZScsICctbXMnLCAnMScsICctcGgnLCAnNycsICctcGh0JywgJzAuNScsICctbnQn

> <r_lp_tautomer_probability>
1

> <r_epik_Ionization_Penalty>
  0.0000

> <r_epik_Ionization_Penalty_Charging>
  0.0000

> <r_epik_Ionization_Penalty_Neutral>
  0.0000

> <r_epik_State_Penalty>
 -0.0000

> <r_epik_Charging_Adjusted_Penalty>
2.1535899693495e-05

> <i_epik_Tot_Q>
-1

> <i_epik_Tot_abs_Q>
1

> <s_epik_Chemistry_Notes>
This compound has an ester and may undergo hydrolysis at high or low pH. This compound has an imine and may undergo hydrolysis. This compound contains an acetal/aminal-like group ( X-CH(R)-Y where X, Y are N, S, or O) that may be acid/base labile, releasing an aldehyde.

$$$$
