4kow_ligand
                    3D
 Schrodinger Suite 2020-3.
 44 46  0  0  1  0            999 V2000
  -12.9660    3.6630   -9.7180 C   0  0  0  0  0  0
  -11.8430    4.1200   -9.5440 O   0  0  0  0  0  0
  -14.1840    4.1250   -9.4260 N   0  0  0  0  0  0
  -14.8900    3.0110  -10.0960 C   0  0  2  0  0  0
  -16.1590    2.3900   -8.9880 S   0  0  0  0  0  0
  -16.9640    4.0050   -8.8870 C   0  0  0  0  0  0
  -16.0520    5.1900   -8.5120 C   0  0  0  0  0  0
  -14.7620    5.2150   -8.7230 C   0  0  0  0  0  0
  -16.7280    6.3320   -7.7880 C   0  0  0  0  0  0
  -13.8000    6.1880   -8.1640 C   0  0  0  0  0  0
  -13.9170    7.3670   -8.5110 O   0  0  0  0  0  0
  -12.9180    5.7940   -7.3630 O   0  5  0  0  0  0
  -13.5290    2.3230  -10.2010 C   0  0  1  0  0  0
  -13.2730    1.9920  -11.5610 O   0  0  0  0  0  0
  -11.9220    1.7320  -11.8640 C   0  0  0  0  0  0
  -13.1350    1.2700   -9.3210 N   0  0  0  0  0  0
  -13.6110    0.0370   -9.3600 C   0  0  0  0  0  0
  -14.5700   -0.2430  -10.0460 O   0  0  0  0  0  0
  -12.9300   -0.9880   -8.5160 C   0  0  0  0  0  0
  -13.6740   -1.3430   -7.2880 C   0  0  0  0  0  0
  -13.0690   -2.4900   -6.1610 S   0  0  0  0  0  0
  -14.4020   -2.3750   -5.1500 C   0  0  0  0  0  0
  -15.2700   -1.5440   -5.6200 C   0  0  0  0  0  0
  -14.8760   -0.9330   -6.8370 C   0  0  0  0  0  0
  -17.7870    6.9150   -8.6790 O   0  0  0  0  0  0
  -18.3290    8.1440   -8.4010 C   0  0  0  0  0  0
  -17.9100    9.0730   -7.6670 O   0  0  0  0  0  0
  -19.4500    8.2090   -9.1250 N   0  0  0  0  0  0
  -15.3610    3.1261  -11.0834 H   0  0  0  0  0  0
  -17.4064    4.2558   -9.8624 H   0  0  0  0  0  0
  -17.7547    3.9734   -8.1230 H   0  0  0  0  0  0
  -17.1870    5.9579   -6.8610 H   0  0  0  0  0  0
  -15.9828    7.1031   -7.5429 H   0  0  0  0  0  0
  -11.8264    1.4872  -12.9321 H   0  0  0  0  0  0
  -11.5675    0.8836  -11.2602 H   0  0  0  0  0  0
  -11.3173    2.6222  -11.6362 H   0  0  0  0  0  0
  -12.3833    1.4580   -8.5402 H   0  0  0  0  0  0
  -12.7995   -1.9131   -9.0966 H   0  0  0  0  0  0
  -11.9457   -0.6098   -8.2026 H   0  0  0  0  0  0
  -14.5196   -2.9291   -4.2188 H   0  0  0  0  0  0
  -16.2185   -1.3314   -5.1269 H   0  0  0  0  0  0
  -15.4890   -0.1989   -7.3600 H   0  0  0  0  0  0
  -19.7541    7.3534   -9.7459 H   0  0  0  0  0  0
  -20.0688    9.1181   -9.1002 H   0  0  0  0  0  0
  1  2  2  0  0  0
  1  3  1  0  0  0
  1 13  1  0  0  0
  3  4  1  0  0  0
  3  8  1  0  0  0
  4  5  1  0  0  0
  4 13  1  0  0  0
  4 29  1  0  0  0
  5  6  1  0  0  0
  6  7  1  0  0  0
  6 30  1  0  0  0
  6 31  1  0  0  0
  7  8  2  0  0  0
  7  9  1  0  0  0
  8 10  1  0  0  0
  9 25  1  0  0  0
  9 32  1  0  0  0
  9 33  1  0  0  0
 10 11  2  0  0  0
 10 12  1  0  0  0
 13 14  1  0  0  0
 13 16  1  0  0  0
 14 15  1  0  0  0
 15 34  1  0  0  0
 15 35  1  0  0  0
 15 36  1  0  0  0
 16 17  1  0  0  0
 16 37  1  0  0  0
 17 18  2  0  0  0
 17 19  1  0  0  0
 19 20  1  0  0  0
 19 38  1  0  0  0
 19 39  1  0  0  0
 20 21  1  0  0  0
 20 24  2  0  0  0
 21 22  1  0  0  0
 22 23  2  0  0  0
 22 40  1  0  0  0
 23 24  1  0  0  0
 23 41  1  0  0  0
 24 42  1  0  0  0
 25 26  1  0  0  0
 26 27  2  0  0  0
 26 28  1  0  0  0
 28 43  1  0  0  0
 28 44  1  0  0  0
M  CHG  1  12  -1
M  END
> <s_m_source_file>
../4kow_ligand.sdf

> <i_m_source_file_index>
1

> <s_epik_input>
Tz1DKFtOSDJdKU9bQ0gyXUMoPUMxQyg9TylbT0hdKVtDSDJdU1tDQEBIXShOMTIpW0NAXShDMj1PKShPW0NIM10pW05IXUMoPU8pW0NIMl1jM3NbY0hdW2NIXVtjSF0z

> <s_epik_cmdline>
J2VwaWtfYXBwJywgJy1pbWFlJywgJ2xpZ2FuZF9wcm8ubWFlJywgJy1vbWFlJywgJ2xpZ2FuZF9wcmVwLm1hZScsICctbXMnLCAnMScsICctcGgnLCAnNycsICctcGh0JywgJzAuNScsICctbnQn

> <r_lp_tautomer_probability>
1

> <r_epik_Ionization_Penalty>
  0.0000

> <r_epik_Ionization_Penalty_Charging>
  0.0000

> <r_epik_Ionization_Penalty_Neutral>
  0.0000

> <r_epik_State_Penalty>
 -0.0000

> <r_epik_Charging_Adjusted_Penalty>
2.31659729394049e-05

> <i_epik_Tot_Q>
-1

> <i_epik_Tot_abs_Q>
1

> <s_epik_Chemistry_Notes>
This compound has an ester and may undergo hydrolysis at high or low pH. This compound contains an acetal/aminal-like group ( X-CH(R)-Y where X, Y are N, S, or O) that may be acid/base labile, releasing an aldehyde.

$$$$
