4kox_ligand
                    3D
 Schrodinger Suite 2020-3.
 41 43  0  0  1  0            999 V2000
  -12.7010    2.7280  -10.4430 S   0  0  0  0  0  0
  -11.9710    4.3470  -10.6830 C   0  0  0  0  0  0
  -12.9380    5.4210  -11.1180 C   0  0  0  0  0  0
  -12.3070    6.5670  -11.8320 C   0  0  0  0  0  0
  -11.3820    7.2280  -10.8350 O   0  0  0  0  0  0
  -10.9610    8.5860  -11.0840 C   0  0  0  0  0  0
  -11.2640    9.1740  -12.0960 O   0  0  0  0  0  0
  -10.1400    9.1410   -9.9690 C   0  0  0  0  0  0
  -14.2480    5.4010  -10.8830 C   0  0  0  0  0  0
  -15.2620    6.3710  -11.4440 C   0  0  0  0  0  0
  -15.2190    7.5590  -11.0960 O   0  0  0  0  0  0
  -16.1460    5.9180  -12.2160 O   0  5  0  0  0  0
  -14.7570    4.3550  -10.0710 N   0  0  0  0  0  0
  -13.9770    3.3440   -9.3530 C   0  0  1  0  0  0
  -15.3120    2.5390   -9.1780 C   0  0  1  0  0  0
  -15.9750    3.8440   -9.7060 C   0  0  0  0  0  0
  -17.0870    4.2990   -9.8300 O   0  0  0  0  0  0
  -15.7010    1.3720   -9.9800 N   0  0  0  0  0  0
  -15.3250    0.0730   -9.8380 C   0  0  0  0  0  0
  -14.4540   -0.3030   -9.0480 O   0  0  0  0  0  0
  -16.1560   -0.9270  -10.6520 C   0  0  0  0  0  0
  -15.5570   -1.4990  -11.9340 C   0  0  0  0  0  0
  -16.1240   -2.4770  -12.7900 C   0  0  0  0  0  0
  -15.2680   -2.7860  -13.8910 C   0  0  0  0  0  0
  -14.1260   -2.0930  -13.8210 C   0  0  0  0  0  0
  -14.0270   -1.0500  -12.4750 S   0  0  0  0  0  0
  -11.5210    4.6898   -9.7396 H   0  0  0  0  0  0
  -11.1941    4.2875  -11.4595 H   0  0  0  0  0  0
  -11.7482    6.1936  -12.7028 H   0  0  0  0  0  0
  -13.0883    7.2640  -12.1691 H   0  0  0  0  0  0
  -10.0276    8.3802   -9.1825 H   0  0  0  0  0  0
  -10.6394   10.0281   -9.5523 H   0  0  0  0  0  0
   -9.1476    9.4239  -10.3500 H   0  0  0  0  0  0
  -13.4864    3.5837   -8.3981 H   0  0  0  0  0  0
  -15.4851    1.9622   -8.2575 H   0  0  0  0  0  0
  -16.3896    1.4931  -10.8292 H   0  0  0  0  0  0
  -16.3824   -1.8065  -10.0313 H   0  0  0  0  0  0
  -17.0953   -0.4506  -10.9694 H   0  0  0  0  0  0
  -17.0980   -2.9385  -12.6271 H   0  0  0  0  0  0
  -15.5130   -3.4931  -14.6835 H   0  0  0  0  0  0
  -13.3292   -2.1865  -14.5588 H   0  0  0  0  0  0
  1  2  1  0  0  0
  1 14  1  0  0  0
  2  3  1  0  0  0
  2 27  1  0  0  0
  2 28  1  0  0  0
  3  4  1  0  0  0
  3  9  2  0  0  0
  4  5  1  0  0  0
  4 29  1  0  0  0
  4 30  1  0  0  0
  5  6  1  0  0  0
  6  7  2  0  0  0
  6  8  1  0  0  0
  8 31  1  0  0  0
  8 32  1  0  0  0
  8 33  1  0  0  0
  9 10  1  0  0  0
  9 13  1  0  0  0
 10 11  2  0  0  0
 10 12  1  0  0  0
 13 14  1  0  0  0
 13 16  1  0  0  0
 14 15  1  0  0  0
 14 34  1  0  0  0
 15 16  1  0  0  0
 15 18  1  0  0  0
 15 35  1  0  0  0
 16 17  2  0  0  0
 18 19  1  0  0  0
 18 36  1  0  0  0
 19 20  2  0  0  0
 19 21  1  0  0  0
 21 22  1  0  0  0
 21 37  1  0  0  0
 21 38  1  0  0  0
 22 23  2  0  0  0
 22 26  1  0  0  0
 23 24  1  0  0  0
 23 39  1  0  0  0
 24 25  2  0  0  0
 24 40  1  0  0  0
 25 26  1  0  0  0
 25 41  1  0  0  0
M  CHG  1  12  -1
M  END
> <s_m_source_file>
../4kox_ligand.sdf

> <i_m_source_file_index>
1

> <s_epik_input>
Tz1DKFtDSDNdKU9bQ0gyXUMoPUMxQyg9TylbT0hdKVtDSDJdU1tDQEBIXShOMTIpW0NAQEhdKEMyPU8pW05IXUMoPU8pW0NIMl1jM1tjSF1bY0hdW2NIXXMz

> <s_epik_cmdline>
J2VwaWtfYXBwJywgJy1pbWFlJywgJ2xpZ2FuZF9wcm8ubWFlJywgJy1vbWFlJywgJ2xpZ2FuZF9wcmVwLm1hZScsICctbXMnLCAnMScsICctcGgnLCAnNycsICctcGh0JywgJzAuNScsICctbnQn

> <r_lp_tautomer_probability>
1

> <r_epik_Ionization_Penalty>
  0.0000

> <r_epik_Ionization_Penalty_Charging>
  0.0000

> <r_epik_Ionization_Penalty_Neutral>
  0.0000

> <r_epik_State_Penalty>
 -0.0000

> <r_epik_Charging_Adjusted_Penalty>
9.70835931012842e-06

> <i_epik_Tot_Q>
-1

> <i_epik_Tot_abs_Q>
1

> <s_epik_Chemistry_Notes>
This compound has an ester and may undergo hydrolysis at high or low pH. This compound contains an acetal/aminal-like group ( X-CH(R)-Y where X, Y are N, S, or O) that may be acid/base labile, releasing an aldehyde.

$$$$
