4kp0_ligand
                    3D
 Schrodinger Suite 2020-3.
 46 49  0  0  1  0            999 V2000
   24.2220   -6.4260  -14.5450 O   0  0  0  0  0  0
   23.0590   -6.6750  -14.9300 C   0  0  0  0  0  0
   22.0230   -6.7350  -14.2090 O   0  5  0  0  0  0
   22.9560   -6.9430  -16.4040 C   0  0  0  0  0  0
   23.6560   -8.2670  -16.7370 C   0  0  0  0  0  0
   22.8550   -9.5060  -16.3160 C   0  0  0  0  0  0
   23.0190   -9.8520  -14.5830 S   0  0  0  0  0  0
   24.6130   -9.4790  -13.9600 C   0  0  0  0  0  0
   25.7280   -9.7680  -14.6630 N   0  0  0  0  0  0
   26.7470   -9.3680  -13.8780 C   0  0  0  0  0  0
   28.1280   -9.3830  -14.0400 C   0  0  0  0  0  0
   28.9340   -8.8600  -13.0270 C   0  0  0  0  0  0
   28.3650   -8.3290  -11.8530 C   0  0  0  0  0  0
   26.9760   -8.2980  -11.6510 C   0  0  0  0  0  0
   26.1300   -8.8040  -12.6400 C   0  0  0  0  0  0
   24.7920   -8.9130  -12.7680 N   0  0  0  0  0  0
   23.7580   -8.4810  -11.8290 C   0  0  0  0  0  0
   23.3690   -9.5730  -10.8780 C   0  0  0  0  0  0
   23.8130  -10.8940  -11.0210 C   0  0  0  0  0  0
   23.1600  -11.8670   -9.7330 S   0  0  0  0  0  0
   22.3260  -10.6460   -8.9630 C   0  0  0  0  0  0
   21.5530  -10.8010   -7.8120 C   0  0  0  0  0  0
   20.9210   -9.6820   -7.2840 C   0  0  0  0  0  0
   21.0340   -8.4160   -7.8950 C   0  0  0  0  0  0
   21.7760   -8.1800   -9.0580 C   0  0  0  0  0  0
   22.4850   -9.3520   -9.6650 C   0  0  0  0  0  0
   21.8350   -6.7840   -9.6460 C   0  0  0  0  0  0
   21.8963   -7.0076  -16.6917 H   0  0  0  0  0  0
   23.4377   -6.1251  -16.9599 H   0  0  0  0  0  0
   23.8179   -8.3331  -17.8230 H   0  0  0  0  0  0
   24.6252   -8.3099  -16.2186 H   0  0  0  0  0  0
   21.7888   -9.3445  -16.5331 H   0  0  0  0  0  0
   23.2144  -10.3824  -16.8752 H   0  0  0  0  0  0
   28.5745   -9.7968  -14.9442 H   0  0  0  0  0  0
   30.0175   -8.8626  -13.1462 H   0  0  0  0  0  0
   29.0217   -7.9309  -11.0794 H   0  0  0  0  0  0
   26.5623   -7.8833  -10.7318 H   0  0  0  0  0  0
   24.1301   -7.6298  -11.2399 H   0  0  0  0  0  0
   22.8603   -8.1763  -12.3868 H   0  0  0  0  0  0
   24.4658  -11.2564  -11.8151 H   0  0  0  0  0  0
   21.4474  -11.7769   -7.3382 H   0  0  0  0  0  0
   20.3246   -9.7849   -6.3774 H   0  0  0  0  0  0
   20.5147   -7.5747   -7.4361 H   0  0  0  0  0  0
   21.2378   -6.0994   -9.0258 H   0  0  0  0  0  0
   21.4304   -6.7996  -10.6688 H   0  0  0  0  0  0
   22.8796   -6.4401   -9.6701 H   0  0  0  0  0  0
  1  2  2  0  0  0
  2  3  1  0  0  0
  2  4  1  0  0  0
  4  5  1  0  0  0
  4 28  1  0  0  0
  4 29  1  0  0  0
  5  6  1  0  0  0
  5 30  1  0  0  0
  5 31  1  0  0  0
  6  7  1  0  0  0
  6 32  1  0  0  0
  6 33  1  0  0  0
  7  8  1  0  0  0
  8  9  2  0  0  0
  8 16  1  0  0  0
  9 10  1  0  0  0
 10 11  2  0  0  0
 10 15  1  0  0  0
 11 12  1  0  0  0
 11 34  1  0  0  0
 12 13  2  0  0  0
 12 35  1  0  0  0
 13 14  1  0  0  0
 13 36  1  0  0  0
 14 15  2  0  0  0
 14 37  1  0  0  0
 15 16  1  0  0  0
 16 17  1  0  0  0
 17 18  1  0  0  0
 17 38  1  0  0  0
 17 39  1  0  0  0
 18 19  2  0  0  0
 18 26  1  0  0  0
 19 20  1  0  0  0
 19 40  1  0  0  0
 20 21  1  0  0  0
 21 22  1  0  0  0
 21 26  2  0  0  0
 22 23  2  0  0  0
 22 41  1  0  0  0
 23 24  1  0  0  0
 23 42  1  0  0  0
 24 25  2  0  0  0
 24 43  1  0  0  0
 25 26  1  0  0  0
 25 27  1  0  0  0
 27 44  1  0  0  0
 27 45  1  0  0  0
 27 46  1  0  0  0
M  CHG  1   3  -1
M  END
> <s_m_source_file>
../4kp0_ligand.sdf

> <i_m_source_file_index>
1

> <s_epik_input>
Tz1DKFtPSF0pW0NIMl1bQ0gyXVtDSDJdU2MobjEpbihjKGMxMilbY0hdW2NIXVtjSF1bY0hdMilbQ0gyXWMoW2NIXXMzKWMoYzM0KWMoW0NIM10pW2NIXVtjSF1bY0hdNA==

> <s_epik_cmdline>
J2VwaWtfYXBwJywgJy1pbWFlJywgJ2xpZ2FuZF9wcm8ubWFlJywgJy1vbWFlJywgJ2xpZ2FuZF9wcmVwLm1hZScsICctbXMnLCAnMScsICctcGgnLCAnNycsICctcGh0JywgJzAuNScsICctbnQn

> <r_epik_Ionization_Penalty>
  0.2267

> <r_epik_Ionization_Penalty_Charging>
  0.0026

> <r_epik_Ionization_Penalty_Neutral>
  0.2240

> <r_epik_State_Penalty>
  0.2145

> <r_epik_Charging_Adjusted_Penalty>
0.217114694533527

> <i_epik_Tot_Q>
-1

> <i_epik_Tot_abs_Q>
1

$$$$
