4kp4_ligand
                    3D
 Schrodinger Suite 2020-3.
 44 46  0  0  1  0            999 V2000
  -42.1760   36.0430    0.4230 P   0  0  0  0  0  0
  -41.1080   36.1180   -0.6530 O   0  5  0  0  0  0
  -42.1260   37.0840    1.5180 O   0  0  0  0  0  0
  -43.5650   35.9790   -0.1780 O   0  5  0  0  0  0
  -41.1670   34.2650    2.5050 P   0  0  2  0  0  0
  -41.0510   32.7840    2.6200 O   0  0  0  0  0  0
  -41.6800   35.0410    3.7060 O   0  5  0  0  0  0
  -41.9830   34.5710    1.1290 N   0  0  1  0  0  0
  -38.5670   35.1980    3.1460 P   0  0  2  0  0  0
  -38.9210   36.5060    3.7670 O   0  0  0  0  0  0
  -37.3090   34.9840    2.3230 O   0  5  0  0  0  0
  -39.7200   34.8170    2.1040 O   0  0  0  0  0  0
  -38.6450   34.2560    4.4560 O   0  0  0  0  0  0
  -37.7130   33.1880    4.6310 C   0  0  0  0  0  0
  -38.1680   32.2120    5.7030 C   0  0  1  0  0  0
  -37.8140   32.6930    7.0010 O   0  0  0  0  0  0
  -39.6760   32.0160    5.7530 C   0  0  1  0  0  0
  -40.1030   31.0330    4.7980 O   0  0  0  0  0  0
  -39.9080   31.6320    7.2010 C   0  0  1  0  0  0
  -39.6720   30.2430    7.4310 O   0  0  0  0  0  0
  -38.8400   32.3850    7.9560 C   0  0  2  0  0  0
  -39.3340   33.6260    8.5960 N   0  0  0  0  0  0
  -39.3060   34.8580    8.0470 C   0  0  0  0  0  0
  -39.7950   35.7700    8.9350 N   0  0  0  0  0  0
  -40.1280   35.1170   10.0520 C   0  0  0  0  0  0
  -40.6840   35.4790   11.3570 C   0  0  0  0  0  0
  -40.9870   36.7660   11.5620 N   0  0  0  0  0  0
  -40.9160   34.5230   12.3020 N   0  0  0  0  0  0
  -40.6100   33.2440   12.0200 C   0  0  0  0  0  0
  -40.0800   32.8530   10.8310 N   0  0  0  0  0  0
  -39.8260   33.7130    9.8290 C   0  0  0  0  0  0
  -42.9688   34.1532    1.3811 H   0  0  0  0  0  0
  -37.6054   32.6366    3.6853 H   0  0  0  0  0  0
  -36.7370   33.5983    4.9294 H   0  0  0  0  0  0
  -37.6442   31.2671    5.4962 H   0  0  0  0  0  0
  -40.2934   32.8675    5.4309 H   0  0  0  0  0  0
  -39.9764   31.2206    3.7215 H   0  0  0  0  0  0
  -40.9484   31.8027    7.5146 H   0  0  0  0  0  0
  -40.3324   29.4902    6.9758 H   0  0  0  0  0  0
  -38.4298   31.7758    8.7749 H   0  0  0  0  0  0
  -38.9465   35.0896    7.0444 H   0  0  0  0  0  0
  -40.7859   37.5101   10.7772 H   0  0  0  0  0  0
  -41.4372   37.0800   12.5153 H   0  0  0  0  0  0
  -40.7957   32.4856   12.7805 H   0  0  0  0  0  0
  1  2  1  0  0  0
  1  3  2  0  0  0
  1  4  1  0  0  0
  1  8  1  0  0  0
  5  6  2  0  0  0
  5  7  1  0  0  0
  5  8  1  0  0  0
  5 12  1  0  0  0
  8 32  1  0  0  0
  9 10  2  0  0  0
  9 11  1  0  0  0
  9 12  1  0  0  0
  9 13  1  0  0  0
 13 14  1  0  0  0
 14 15  1  0  0  0
 14 33  1  0  0  0
 14 34  1  0  0  0
 15 16  1  0  0  0
 15 17  1  0  0  0
 15 35  1  0  0  0
 16 21  1  0  0  0
 17 18  1  0  0  0
 17 19  1  0  0  0
 17 36  1  0  0  0
 18 37  1  0  0  0
 19 20  1  0  0  0
 19 21  1  0  0  0
 19 38  1  0  0  0
 20 39  1  0  0  0
 21 22  1  0  0  0
 21 40  1  0  0  0
 22 23  1  0  0  0
 22 31  1  0  0  0
 23 24  2  0  0  0
 23 41  1  0  0  0
 24 25  1  0  0  0
 25 26  2  0  0  0
 25 31  1  0  0  0
 26 27  1  0  0  0
 26 28  1  0  0  0
 27 42  1  0  0  0
 27 43  1  0  0  0
 28 29  2  0  0  0
 29 30  1  0  0  0
 29 44  1  0  0  0
 30 31  2  0  0  0
M  CHG  4   2  -1   4  -1   7  -1  11  -1
M  END
> <s_m_source_file>
../4kp4_ligand.sdf

> <i_m_source_file_index>
1

> <s_epik_input>
W09IXVAoPU8pKFtPSF0pW05IXVtQQF0oPU8pKFtPSF0pT1tQQF0oPU8pKFtPSF0pT1tDSDJdW0NASF0xT1tDQEhdKFtDQEhdKFtPSF0pW0NAQEhdMVtPSF0pbihbY0hdbjIpYyhjMjMpbltjSF1uYzNbTkgyXQ==

> <s_epik_cmdline>
J2VwaWtfYXBwJywgJy1pbWFlJywgJ2xpZ2FuZF9wcm8ubWFlJywgJy1vbWFlJywgJ2xpZ2FuZF9wcmVwLm1hZScsICctbXMnLCAnMScsICctcGgnLCAnNycsICctcGh0JywgJzAuNScsICctbnQn

> <r_lp_tautomer_probability>
0.999997216410988

> <r_epik_Ionization_Penalty>
  0.3578

> <r_epik_Ionization_Penalty_Charging>
  0.3346

> <r_epik_Ionization_Penalty_Neutral>
  0.0232

> <r_epik_State_Penalty>
  0.3402

> <r_epik_Charging_Adjusted_Penalty>
0.674771962662822

> <i_epik_Tot_Q>
-4

> <i_epik_Tot_abs_Q>
4

> <s_epik_Chemistry_Notes>
This compound contains an acetal/aminal-like group ( X-CH(R)-Y where X, Y are N, S, or O) that may be acid/base labile, releasing an aldehyde.

$$$$
