4kp5_ligand
                    3D
 Schrodinger Suite 2020-3.
 31 32  0  0  1  0            999 V2000
   22.9710    2.5690    8.5320 O   0  0  0  0  0  0
   28.3700   12.2560    9.7690 C   0  0  0  0  0  0
   26.6540    5.8560   10.5470 C   0  0  0  0  0  0
   25.8200    4.1040    9.0430 C   0  0  0  0  0  0
   25.9860    3.2770    7.6250 Cl  0  0  0  0  0  0
   26.7170    5.1920    9.3440 C   0  0  0  0  0  0
   25.6230    5.5820   11.4460 C   0  0  0  0  0  0
   24.7210    4.4690   11.2300 C   0  0  0  0  0  0
   24.8170    3.8300    9.9860 C   0  0  0  0  0  0
   23.7370    2.3760    9.8330 S   0  0  0  0  0  0
   22.7700    2.3350   11.0670 N   0  0  0  0  0  0
   24.6950    1.1760    9.8600 O   0  0  0  0  0  0
   27.6660    6.9460   10.7130 C   0  0  0  0  0  0
   27.5500    7.5510   11.7800 O   0  0  0  0  0  0
   28.6650    7.2000    9.5850 C   0  0  0  0  0  0
   29.8370    8.5850   10.0550 S   0  0  0  0  0  0
   28.7270    9.9320    9.7700 C   0  0  0  0  0  0
   27.4710    9.7500    9.2450 N   0  0  0  0  0  0
   26.6760   10.8090    8.9580 C   0  0  0  0  0  0
   27.0970   12.0920    9.2180 C   0  0  0  0  0  0
   29.1720   11.1950   10.0630 N   0  0  0  0  0  0
   28.7328   13.2640    9.9699 H   0  0  0  0  0  0
   27.4588    5.4939    8.6046 H   0  0  0  0  0  0
   25.4941    6.2148   12.3241 H   0  0  0  0  0  0
   24.0093    4.1473   11.9904 H   0  0  0  0  0  0
   22.1100    1.4586   10.9867 H   0  0  0  0  0  0
   22.1619    3.2514   11.0869 H   0  0  0  0  0  0
   29.2465    6.2853    9.3974 H   0  0  0  0  0  0
   28.1221    7.4832    8.6712 H   0  0  0  0  0  0
   25.6933   10.6423    8.5168 H   0  0  0  0  0  0
   26.4604   12.9500    9.0019 H   0  0  0  0  0  0
  1 10  2  0  0  0
  2 20  2  0  0  0
  2 21  1  0  0  0
  2 22  1  0  0  0
  3  6  2  0  0  0
  3  7  1  0  0  0
  3 13  1  0  0  0
  4  5  1  0  0  0
  4  6  1  0  0  0
  4  9  2  0  0  0
  6 23  1  0  0  0
  7  8  2  0  0  0
  7 24  1  0  0  0
  8  9  1  0  0  0
  8 25  1  0  0  0
  9 10  1  0  0  0
 10 11  1  0  0  0
 10 12  2  0  0  0
 11 26  1  0  0  0
 11 27  1  0  0  0
 13 14  2  0  0  0
 13 15  1  0  0  0
 15 16  1  0  0  0
 15 28  1  0  0  0
 15 29  1  0  0  0
 16 17  1  0  0  0
 17 18  1  0  0  0
 17 21  2  0  0  0
 18 19  2  0  0  0
 19 20  1  0  0  0
 19 30  1  0  0  0
 20 31  1  0  0  0
M  END
> <s_m_source_file>
../4kp5_ligand.sdf

> <i_m_source_file_index>
1

> <s_epik_input>
Tz1TKD1PKShbTkgyXSljKFtjSF1bY0hdMSljKENsKVtjSF1jMUMoPU8pW0NIMl1TYzJuW2NIXVtjSF1bY0hdbjI=

> <s_epik_cmdline>
J2VwaWtfYXBwJywgJy1pbWFlJywgJ2xpZ2FuZF9wcm8ubWFlJywgJy1vbWFlJywgJ2xpZ2FuZF9wcmVwLm1hZScsICctbXMnLCAnMScsICctcGgnLCAnNycsICctcGh0JywgJzAuNScsICctbnQn

> <r_lp_tautomer_probability>
1

> <r_epik_Ionization_Penalty>
  0.0049

> <r_epik_Ionization_Penalty_Charging>
  0.0000

> <r_epik_Ionization_Penalty_Neutral>
  0.0049

> <r_epik_State_Penalty>
 -0.0000

> <r_epik_Charging_Adjusted_Penalty>
0

> <i_epik_Tot_Q>
0

> <i_epik_Tot_abs_Q>
0

$$$$
