4kqo_ligand
                    3D
 Schrodinger Suite 2020-3.
 64 66  0  0  1  0            999 V2000
   -5.4460    6.0280   24.3190 S   0  0  0  0  0  0
   -2.7810    4.2700   20.8680 O   0  0  0  0  0  0
   -7.6280    3.5960   20.9110 O   0  5  0  0  0  0
   -7.5630    5.6330   20.1020 O   0  0  0  0  0  0
   -1.8700    6.5220   24.6720 O   0  0  0  0  0  0
    0.5590    9.2570   21.7460 O   0  0  0  0  0  0
    1.4390    7.8230   25.2540 O   0  0  0  0  0  0
    3.7860    8.3290   26.4670 O   0  0  0  0  0  0
   -5.5970    4.0940   22.6330 N   0  0  1  0  0  0
   -2.7750    5.9800   22.6530 N   0  0  0  0  0  0
   -0.2340    8.2540   23.6240 N   0  0  0  0  0  0
    2.1960    8.8740   23.4210 N   0  0  0  0  0  0
    4.7700    8.6960   24.4360 N   0  0  0  0  0  0
   -4.6690    4.5570   23.6650 C   0  0  1  0  0  0
   -6.7580    6.0930   23.0970 C   0  0  0  0  0  0
   -6.1780    5.2050   21.9690 C   0  0  2  0  0  0
   -3.2480    4.6930   23.1500 C   0  0  1  0  0  0
   -3.0590    3.7810   21.9670 C   0  0  0  0  0  0
   -8.0440    5.4950   23.6340 C   0  0  0  0  0  0
   -6.9930    7.5330   22.6290 C   0  0  0  0  0  0
   -7.1710    4.7830   20.9520 C   0  0  0  0  0  0
   -2.0740    6.8560   23.5180 C   0  0  0  0  0  0
   -1.5670    8.1520   23.0080 C   0  0  1  0  0  0
   -2.4720    9.3370   23.2090 C   0  0  0  0  0  0
    0.8260    8.8390   22.8500 C   0  0  0  0  0  0
   -3.6720    9.4430   22.3370 C   0  0  0  0  0  0
   -2.2360   10.3160   24.1500 C   0  0  0  0  0  0
    3.2040    9.5130   22.6190 C   0  0  0  0  0  0
    4.5890    8.8040   22.9270 C   0  0  0  0  0  0
    2.3770    8.3180   24.6480 C   0  0  0  0  0  0
   -4.5450   10.5020   22.4650 C   0  0  0  0  0  0
   -3.1850   11.4760   24.2880 C   0  0  0  0  0  0
    3.6550    8.4070   25.2560 C   0  0  0  0  0  0
    6.1230    8.8430   24.9280 C   0  0  0  0  0  0
   -4.2940   11.5710   23.4860 C   0  0  0  0  0  0
    6.8630    7.5790   24.6800 C   0  0  0  0  0  0
   -5.0538    3.4784   21.9009 H   0  0  0  0  0  0
   -2.9628    6.2689   21.6083 H   0  0  0  0  0  0
   -0.0721    7.8878   24.6485 H   0  0  0  0  0  0
   -4.4577    3.7060   24.3293 H   0  0  0  0  0  0
   -5.4065    5.7066   21.3663 H   0  0  0  0  0  0
   -2.6562    4.5067   24.0583 H   0  0  0  0  0  0
   -3.1657    2.6913   22.0730 H   0  0  0  0  0  0
   -7.8580    4.4627   23.9652 H   0  0  0  0  0  0
   -8.8069    5.4941   22.8415 H   0  0  0  0  0  0
   -8.3999    6.0946   24.4848 H   0  0  0  0  0  0
   -6.0517    7.9513   22.2430 H   0  0  0  0  0  0
   -7.3445    8.1409   23.4757 H   0  0  0  0  0  0
   -7.7515    7.5404   21.8324 H   0  0  0  0  0  0
   -1.5016    8.1594   21.9100 H   0  0  0  0  0  0
   -3.8634    8.6745   21.5881 H   0  0  0  0  0  0
   -1.3602   10.2500   24.7956 H   0  0  0  0  0  0
    2.9483    9.4055   21.5546 H   0  0  0  0  0  0
    3.2558   10.5809   22.8776 H   0  0  0  0  0  0
    5.4111    9.3976   22.5007 H   0  0  0  0  0  0
    4.5956    7.7972   22.4839 H   0  0  0  0  0  0
   -5.4222   10.5626   21.8208 H   0  0  0  0  0  0
   -2.9893   12.2480   25.0322 H   0  0  0  0  0  0
    6.6165    9.6731   24.4013 H   0  0  0  0  0  0
    6.0997    9.0556   26.0070 H   0  0  0  0  0  0
   -4.9818   12.4103   23.5894 H   0  0  0  0  0  0
    7.8940    7.6790   25.0503 H   0  0  0  0  0  0
    6.8799    7.3698   23.6002 H   0  0  0  0  0  0
    6.3631    6.7522   25.2059 H   0  0  0  0  0  0
  1 14  1  0  0  0
  1 15  1  0  0  0
  2 18  2  0  0  0
  3 21  1  0  0  0
  4 21  2  0  0  0
  5 22  2  0  0  0
  6 25  2  0  0  0
  7 30  2  0  0  0
  8 33  2  0  0  0
  9 14  1  0  0  0
  9 16  1  0  0  0
  9 37  1  0  0  0
 10 17  1  0  0  0
 10 22  1  0  0  0
 10 38  1  0  0  0
 11 23  1  0  0  0
 11 25  1  0  0  0
 11 39  1  0  0  0
 12 25  1  0  0  0
 12 28  1  0  0  0
 12 30  1  0  0  0
 13 29  1  0  0  0
 13 33  1  0  0  0
 13 34  1  0  0  0
 14 17  1  0  0  0
 14 40  1  0  0  0
 15 16  1  0  0  0
 15 19  1  0  0  0
 15 20  1  0  0  0
 16 21  1  0  0  0
 16 41  1  0  0  0
 17 18  1  0  0  0
 17 42  1  0  0  0
 18 43  1  0  0  0
 19 44  1  0  0  0
 19 45  1  0  0  0
 19 46  1  0  0  0
 20 47  1  0  0  0
 20 48  1  0  0  0
 20 49  1  0  0  0
 22 23  1  0  0  0
 23 24  1  0  0  0
 23 50  1  0  0  0
 24 26  2  0  0  0
 24 27  1  0  0  0
 26 31  1  0  0  0
 26 51  1  0  0  0
 27 32  2  0  0  0
 27 52  1  0  0  0
 28 29  1  0  0  0
 28 53  1  0  0  0
 28 54  1  0  0  0
 29 55  1  0  0  0
 29 56  1  0  0  0
 30 33  1  0  0  0
 31 35  2  0  0  0
 31 57  1  0  0  0
 32 35  1  0  0  0
 32 58  1  0  0  0
 34 36  1  0  0  0
 34 59  1  0  0  0
 34 60  1  0  0  0
 35 61  1  0  0  0
 36 62  1  0  0  0
 36 63  1  0  0  0
 36 64  1  0  0  0
M  CHG  1   3  -1
M  END
> <s_m_source_file>
../4kqo_ligand.sdf

> <i_m_source_file_index>
1

> <s_epik_input>
W09IXUMoPU8pW0NAQEhdMVtOSDIrXVtDQEhdKFNDMShbQ0gzXSlbQ0gzXSlbQ0BASF0oW0NIXT1PKVtOSF1DKD1PKVtDQEBIXShjMltjSF1bY0hdW2NIXVtjSF1bY0hdMilbTkhdQyg9TylOM1tDSDJdW0NIMl1OKEMoPU8pQzM9TylbQ0gyXVtDSDNd

> <s_epik_cmdline>
J2VwaWtfYXBwJywgJy1pbWFlJywgJ2xpZ2FuZF9wcm8ubWFlJywgJy1vbWFlJywgJ2xpZ2FuZF9wcmVwLm1hZScsICctbXMnLCAnMScsICctcGgnLCAnNycsICctcGh0JywgJzAuNScsICctbnQn

> <r_lp_tautomer_probability>
1

> <r_epik_Ionization_Penalty>
  0.0033

> <r_epik_Ionization_Penalty_Charging>
  0.0001

> <r_epik_Ionization_Penalty_Neutral>
  0.0032

> <r_epik_State_Penalty>
 -0.0000

> <r_epik_Charging_Adjusted_Penalty>
6.77958539892598e-05

> <i_epik_Tot_Q>
-1

> <i_epik_Tot_abs_Q>
1

> <s_epik_Chemistry_Notes>
This compound contains an acetal/aminal-like group ( X-CH(R)-Y where X, Y are N, S, or O) that may be acid/base labile, releasing an aldehyde.

$$$$
