4kqq_ligand
                    3D
 Schrodinger Suite 2020-3.
 64 66  0  0  1  0            999 V2000
   -7.2970    5.6360   24.0520 S   0  0  0  0  0  0
   -4.4890    3.6200   23.4160 O   0  0  0  0  0  0
   -7.9230    4.7890   19.6780 O   0  0  0  0  0  0
   -9.7910    5.8570   19.9400 O   0  5  0  0  0  0
   -2.4190    6.8960   24.6070 O   0  0  0  0  0  0
    0.4060    9.6860   21.8630 O   0  0  0  0  0  0
    1.1590    7.6740   25.2710 O   0  0  0  0  0  0
    3.5230    7.8610   26.5110 O   0  0  0  0  0  0
   -6.6220    6.1930   21.6300 N   0  0  1  0  0  0
   -3.8360    6.9310   22.7270 N   0  0  0  0  0  0
   -0.5170    8.3770   23.5150 N   0  0  0  0  0  0
    1.8830    9.0260   23.5330 N   0  0  0  0  0  0
    4.5340    8.6400   24.5810 N   0  0  0  0  0  0
   -6.1440    6.4420   22.9640 C   0  0  2  0  0  0
   -8.6410    5.5310   22.9100 C   0  0  0  0  0  0
   -8.1070    6.1760   21.6320 C   0  0  2  0  0  0
   -4.7370    5.9590   23.2400 C   0  0  1  0  0  0
   -4.4410    4.6160   22.6500 C   0  0  0  0  0  0
   -9.0230    4.1100   22.7080 C   0  0  0  0  0  0
   -9.8330    6.3520   23.4540 C   0  0  0  0  0  0
   -8.6270    5.5780   20.3510 C   0  0  0  0  0  0
   -2.6880    7.3440   23.5020 C   0  0  0  0  0  0
   -1.8210    8.3960   22.8930 C   0  0  1  0  0  0
   -2.5360    9.7140   23.0020 C   0  0  0  0  0  0
    0.5820    9.0700   22.9010 C   0  0  0  0  0  0
   -3.1500   10.2470   21.8410 C   0  0  0  0  0  0
   -2.6040   10.4020   24.2210 C   0  0  0  0  0  0
    3.0060    9.7640   22.9020 C   0  0  0  0  0  0
    4.3870    9.0730   23.1750 C   0  0  0  0  0  0
    2.0850    8.2880   24.7460 C   0  0  0  0  0  0
   -3.8380   11.4740   21.9210 C   0  0  0  0  0  0
   -3.2820   11.6360   24.2850 C   0  0  0  0  0  0
    3.4000    8.2480   25.3540 C   0  0  0  0  0  0
    5.8870    8.6060   25.1510 C   0  0  0  0  0  0
   -3.9030   12.1720   23.1350 C   0  0  0  0  0  0
    6.5600    7.3270   24.7090 C   0  0  0  0  0  0
   -4.1330    4.4720   21.4190 O   0  5  0  0  0  0
   -6.2651    6.9877   20.9583 H   0  0  0  0  0  0
   -4.0104    7.3733   21.7351 H   0  0  0  0  0  0
   -0.3656    7.8321   24.4585 H   0  0  0  0  0  0
   -5.9855    7.5303   22.9428 H   0  0  0  0  0  0
   -8.4718    7.2137   21.6362 H   0  0  0  0  0  0
   -4.5719    5.8710   24.3240 H   0  0  0  0  0  0
   -8.1591    3.5495   22.3214 H   0  0  0  0  0  0
   -9.8507    4.0519   21.9858 H   0  0  0  0  0  0
   -9.3421    3.6762   23.6672 H   0  0  0  0  0  0
   -9.5239    7.3983   23.5943 H   0  0  0  0  0  0
  -10.1572    5.9330   24.4180 H   0  0  0  0  0  0
  -10.6658    6.3087   22.7367 H   0  0  0  0  0  0
   -1.6011    8.2006   21.8331 H   0  0  0  0  0  0
   -3.0904    9.7117   20.8934 H   0  0  0  0  0  0
   -2.1360    9.9858   25.1131 H   0  0  0  0  0  0
    2.8514    9.8064   21.8137 H   0  0  0  0  0  0
    3.0464   10.7861   23.3067 H   0  0  0  0  0  0
    5.1811    9.7930   22.9282 H   0  0  0  0  0  0
    4.4657    8.1988   22.5120 H   0  0  0  0  0  0
   -4.3223   11.8827   21.0342 H   0  0  0  0  0  0
   -3.3275   12.1804   25.2282 H   0  0  0  0  0  0
    6.4581    9.4748   24.7919 H   0  0  0  0  0  0
    5.8233    8.6374   26.2487 H   0  0  0  0  0  0
   -4.4305   13.1242   23.1913 H   0  0  0  0  0  0
    7.5765    7.2841   25.1272 H   0  0  0  0  0  0
    6.6141    7.3018   23.6106 H   0  0  0  0  0  0
    5.9793    6.4643   25.0675 H   0  0  0  0  0  0
  1 14  1  0  0  0
  1 15  1  0  0  0
  2 18  2  0  0  0
  3 21  2  0  0  0
  4 21  1  0  0  0
  5 22  2  0  0  0
  6 25  2  0  0  0
  7 30  2  0  0  0
  8 33  2  0  0  0
  9 14  1  0  0  0
  9 16  1  0  0  0
  9 38  1  0  0  0
 10 17  1  0  0  0
 10 22  1  0  0  0
 10 39  1  0  0  0
 11 23  1  0  0  0
 11 25  1  0  0  0
 11 40  1  0  0  0
 12 25  1  0  0  0
 12 28  1  0  0  0
 12 30  1  0  0  0
 13 29  1  0  0  0
 13 33  1  0  0  0
 13 34  1  0  0  0
 14 17  1  0  0  0
 14 41  1  0  0  0
 15 16  1  0  0  0
 15 19  1  0  0  0
 15 20  1  0  0  0
 16 21  1  0  0  0
 16 42  1  0  0  0
 17 18  1  0  0  0
 17 43  1  0  0  0
 18 37  1  0  0  0
 19 44  1  0  0  0
 19 45  1  0  0  0
 19 46  1  0  0  0
 20 47  1  0  0  0
 20 48  1  0  0  0
 20 49  1  0  0  0
 22 23  1  0  0  0
 23 24  1  0  0  0
 23 50  1  0  0  0
 24 26  2  0  0  0
 24 27  1  0  0  0
 26 31  1  0  0  0
 26 51  1  0  0  0
 27 32  2  0  0  0
 27 52  1  0  0  0
 28 29  1  0  0  0
 28 53  1  0  0  0
 28 54  1  0  0  0
 29 55  1  0  0  0
 29 56  1  0  0  0
 30 33  1  0  0  0
 31 35  2  0  0  0
 31 57  1  0  0  0
 32 35  1  0  0  0
 32 58  1  0  0  0
 34 36  1  0  0  0
 34 59  1  0  0  0
 34 60  1  0  0  0
 35 61  1  0  0  0
 36 62  1  0  0  0
 36 63  1  0  0  0
 36 64  1  0  0  0
M  CHG  2   4  -1  37  -1
M  END
> <s_m_source_file>
../4kqq_ligand.sdf

> <i_m_source_file_index>
1

> <s_epik_input>
Tz1DKFtPSF0pW0NAQEhdMVtOSDIrXVtDQEBIXShTQzEoW0NIM10pW0NIM10pW0NAQEhdKEMoPU8pW09IXSlbTkhdQyg9TylbQ0BASF0oYzJbY0hdW2NIXVtjSF1bY0hdW2NIXTIpW05IXUMoPU8pTjNbQ0gyXVtDSDJdTihDKD1PKUMzPU8pW0NIMl1bQ0gzXQ==

> <s_epik_cmdline>
J2VwaWtfYXBwJywgJy1pbWFlJywgJ2xpZ2FuZF9wcm8ubWFlJywgJy1vbWFlJywgJ2xpZ2FuZF9wcmVwLm1hZScsICctbXMnLCAnMScsICctcGgnLCAnNycsICctcGh0JywgJzAuNScsICctbnQn

> <r_lp_tautomer_probability>
1

> <r_epik_Ionization_Penalty>
  0.0074

> <r_epik_Ionization_Penalty_Charging>
  0.0002

> <r_epik_Ionization_Penalty_Neutral>
  0.0072

> <r_epik_State_Penalty>
 -0.0000

> <r_epik_Charging_Adjusted_Penalty>
0.000191153102110711

> <i_epik_Tot_Q>
-2

> <i_epik_Tot_abs_Q>
2

> <s_epik_Chemistry_Notes>
This compound contains an acetal/aminal-like group ( X-CH(R)-Y where X, Y are N, S, or O) that may be acid/base labile, releasing an aldehyde.

$$$$
