4kqr_ligand
                    3D
 Schrodinger Suite 2020-3.
 64 66  0  0  1  0            999 V2000
   -6.9970    5.8930   24.0930 S   0  0  0  0  0  0
   -3.8090    4.5970   21.5850 O   0  0  0  0  0  0
   -7.6600    5.1410   19.5920 O   0  0  0  0  0  0
   -9.5320    6.1750   20.0620 O   0  5  0  0  0  0
   -2.1220    7.0410   24.7210 O   0  0  0  0  0  0
    0.8500    9.7590   22.0480 O   0  0  0  0  0  0
    1.5300    7.7660   25.4990 O   0  0  0  0  0  0
    3.8250    7.8540   26.7370 O   0  0  0  0  0  0
   -6.2990    6.2820   21.6460 N   0  0  1  0  0  0
   -3.4970    7.1120   22.8320 N   0  0  0  0  0  0
   -0.1720    8.4930   23.6810 N   0  0  0  0  0  0
    2.2520    9.0950   23.7530 N   0  0  0  0  0  0
    4.8720    8.7110   24.8380 N   0  0  0  0  0  0
   -5.8330    6.6400   22.9680 C   0  0  2  0  0  0
   -8.3260    5.6350   22.9310 C   0  0  0  0  0  0
   -7.7860    6.3340   21.6790 C   0  0  2  0  0  0
   -4.4300    6.1730   23.3250 C   0  0  1  0  0  0
   -4.1260    4.8070   22.7940 C   0  0  0  0  0  0
   -8.5370    4.1780   22.7140 C   0  0  0  0  0  0
   -9.6340    6.3020   23.4110 C   0  0  0  0  0  0
   -8.3470    5.8530   20.3680 C   0  0  0  0  0  0
   -2.3590    7.5110   23.6240 C   0  0  0  0  0  0
   -1.4530    8.5400   23.0300 C   0  0  1  0  0  0
   -2.1540    9.8580   23.1360 C   0  0  0  0  0  0
    0.9640    9.1530   23.0970 C   0  0  0  0  0  0
   -2.7730   10.4130   21.9940 C   0  0  0  0  0  0
   -2.1870   10.5460   24.3510 C   0  0  0  0  0  0
    3.3850    9.8160   23.1170 C   0  0  0  0  0  0
    4.7630    9.1830   23.4450 C   0  0  0  0  0  0
    2.4480    8.3600   24.9630 C   0  0  0  0  0  0
   -3.4390   11.6520   22.0800 C   0  0  0  0  0  0
   -2.8530   11.7800   24.4370 C   0  0  0  0  0  0
    3.7360    8.2980   25.5880 C   0  0  0  0  0  0
    6.2280    8.6690   25.4100 C   0  0  0  0  0  0
   -3.4840   12.3300   23.3020 C   0  0  0  0  0  0
    7.0450    7.6250   24.6770 C   0  0  0  0  0  0
   -4.1960    3.8510   23.6260 O   0  5  0  0  0  0
   -5.9016    6.9974   20.9109 H   0  0  0  0  0  0
   -3.6330    7.5494   21.8319 H   0  0  0  0  0  0
   -0.0573    7.9501   24.6308 H   0  0  0  0  0  0
   -5.6766    7.7232   22.8577 H   0  0  0  0  0  0
   -8.1140    7.3810   21.7572 H   0  0  0  0  0  0
   -4.2988    6.1414   24.4167 H   0  0  0  0  0  0
   -7.5977    3.7183   22.3729 H   0  0  0  0  0  0
   -9.3158    4.0299   21.9514 H   0  0  0  0  0  0
   -8.8535    3.7089   23.6573 H   0  0  0  0  0  0
   -9.4616    7.3772   23.5666 H   0  0  0  0  0  0
   -9.9547    5.8414   24.3570 H   0  0  0  0  0  0
  -10.4170    6.1624   22.6512 H   0  0  0  0  0  0
   -1.1988    8.3513   21.9765 H   0  0  0  0  0  0
   -2.7354    9.8813   21.0432 H   0  0  0  0  0  0
   -1.6974   10.1267   25.2300 H   0  0  0  0  0  0
    3.2613    9.8020   22.0241 H   0  0  0  0  0  0
    3.4018   10.8574   23.4708 H   0  0  0  0  0  0
    5.5316    9.9467   23.2554 H   0  0  0  0  0  0
    4.9102    8.3363   22.7584 H   0  0  0  0  0  0
   -3.9166   12.0796   21.1984 H   0  0  0  0  0  0
   -2.8822   12.3152   25.3861 H   0  0  0  0  0  0
    6.7034    9.6548   25.2992 H   0  0  0  0  0  0
    6.1680    8.4088   26.4771 H   0  0  0  0  0  0
   -4.0067   13.2835   23.3774 H   0  0  0  0  0  0
    8.0595    7.5895   25.1006 H   0  0  0  0  0  0
    7.1021    7.8867   23.6101 H   0  0  0  0  0  0
    6.5666    6.6407   24.7880 H   0  0  0  0  0  0
  1 14  1  0  0  0
  1 15  1  0  0  0
  2 18  2  0  0  0
  3 21  2  0  0  0
  4 21  1  0  0  0
  5 22  2  0  0  0
  6 25  2  0  0  0
  7 30  2  0  0  0
  8 33  2  0  0  0
  9 14  1  0  0  0
  9 16  1  0  0  0
  9 38  1  0  0  0
 10 17  1  0  0  0
 10 22  1  0  0  0
 10 39  1  0  0  0
 11 23  1  0  0  0
 11 25  1  0  0  0
 11 40  1  0  0  0
 12 25  1  0  0  0
 12 28  1  0  0  0
 12 30  1  0  0  0
 13 29  1  0  0  0
 13 33  1  0  0  0
 13 34  1  0  0  0
 14 17  1  0  0  0
 14 41  1  0  0  0
 15 16  1  0  0  0
 15 19  1  0  0  0
 15 20  1  0  0  0
 16 21  1  0  0  0
 16 42  1  0  0  0
 17 18  1  0  0  0
 17 43  1  0  0  0
 18 37  1  0  0  0
 19 44  1  0  0  0
 19 45  1  0  0  0
 19 46  1  0  0  0
 20 47  1  0  0  0
 20 48  1  0  0  0
 20 49  1  0  0  0
 22 23  1  0  0  0
 23 24  1  0  0  0
 23 50  1  0  0  0
 24 26  2  0  0  0
 24 27  1  0  0  0
 26 31  1  0  0  0
 26 51  1  0  0  0
 27 32  2  0  0  0
 27 52  1  0  0  0
 28 29  1  0  0  0
 28 53  1  0  0  0
 28 54  1  0  0  0
 29 55  1  0  0  0
 29 56  1  0  0  0
 30 33  1  0  0  0
 31 35  2  0  0  0
 31 57  1  0  0  0
 32 35  1  0  0  0
 32 58  1  0  0  0
 34 36  1  0  0  0
 34 59  1  0  0  0
 34 60  1  0  0  0
 35 61  1  0  0  0
 36 62  1  0  0  0
 36 63  1  0  0  0
 36 64  1  0  0  0
M  CHG  2   4  -1  37  -1
M  END
> <s_m_source_file>
../4kqr_ligand.sdf

> <i_m_source_file_index>
1

> <s_epik_input>
Tz1DKFtPSF0pW0NAQEhdMVtOSDIrXVtDQEBIXShTQzEoW0NIM10pW0NIM10pW0NAQEhdKEMoPU8pW09IXSlbTkhdQyg9TylbQ0BASF0oYzJbY0hdW2NIXVtjSF1bY0hdW2NIXTIpW05IXUMoPU8pTjNbQ0gyXVtDSDJdTihDKD1PKUMzPU8pW0NIMl1bQ0gzXQ==

> <s_epik_cmdline>
J2VwaWtfYXBwJywgJy1pbWFlJywgJ2xpZ2FuZF9wcm8ubWFlJywgJy1vbWFlJywgJ2xpZ2FuZF9wcmVwLm1hZScsICctbXMnLCAnMScsICctcGgnLCAnNycsICctcGh0JywgJzAuNScsICctbnQn

> <r_lp_tautomer_probability>
1

> <r_epik_Ionization_Penalty>
  0.0074

> <r_epik_Ionization_Penalty_Charging>
  0.0002

> <r_epik_Ionization_Penalty_Neutral>
  0.0072

> <r_epik_State_Penalty>
 -0.0000

> <r_epik_Charging_Adjusted_Penalty>
0.000191153102110711

> <i_epik_Tot_Q>
-2

> <i_epik_Tot_abs_Q>
2

> <s_epik_Chemistry_Notes>
This compound contains an acetal/aminal-like group ( X-CH(R)-Y where X, Y are N, S, or O) that may be acid/base labile, releasing an aldehyde.

$$$$
