4krs_ligand
                    3D
 Schrodinger Suite 2020-3.
 40 42  0  0  1  0            999 V2000
  -25.8670  -10.8350    6.6840 C   0  0  0  0  0  0
  -23.2450   -8.7450    7.9160 C   0  0  0  0  0  0
  -24.3160   -6.5610    7.8950 C   0  0  0  0  0  0
  -24.1960   -5.0780    7.6180 C   0  0  0  0  0  0
  -22.9710   -4.4500    7.8030 C   0  0  0  0  0  0
  -22.8140   -3.0830    7.5640 C   0  0  0  0  0  0
  -23.8740   -2.2820    7.1360 C   0  0  0  0  0  0
  -25.1050   -2.9280    6.9440 C   0  0  0  0  0  0
  -25.2720   -4.2980    7.1860 C   0  0  0  0  0  0
  -23.7080   -0.7540    6.8570 C   0  0  0  0  0  0
  -23.0550   -0.6060    5.4570 C   0  0  0  0  0  0
  -25.0230  -11.9390    7.8910 S   0  0  0  0  0  0
  -25.5870   -9.3880    7.1840 C   0  0  0  0  0  0
  -24.2390   -9.5570    7.7140 N   0  3  0  0  0  0
  -23.8300  -10.7100    8.0800 C   0  0  0  0  0  0
  -22.6300  -10.7320    8.4990 N   0  0  0  0  0  0
  -22.2260   -9.3580    8.3910 N   0  0  0  0  0  0
  -23.2560   -7.3990    7.6910 N   0  0  0  0  0  0
  -25.4190   -6.9160    8.3260 O   0  0  0  0  0  0
  -22.7960   -0.0010    7.8760 C   0  0  0  0  0  0
  -25.0950   -0.0320    6.8670 C   0  0  0  0  0  0
  -25.4498  -11.0024    5.6800 H   0  0  0  0  0  0
  -26.9443  -11.0570    6.6751 H   0  0  0  0  0  0
  -22.1159   -5.0353    8.1412 H   0  0  0  0  0  0
  -21.8351   -2.6283    7.7161 H   0  0  0  0  0  0
  -25.9580   -2.3457    6.5957 H   0  0  0  0  0  0
  -26.2484   -4.7587    7.0362 H   0  0  0  0  0  0
  -22.0796   -1.1144    5.4518 H   0  0  0  0  0  0
  -22.9137    0.4609    5.2293 H   0  0  0  0  0  0
  -23.7089   -1.0595    4.6976 H   0  0  0  0  0  0
  -25.6491   -8.6890    6.3370 H   0  0  0  0  0  0
  -26.3335   -9.1114    7.9431 H   0  0  0  0  0  0
  -21.8047   -0.4770    7.9023 H   0  0  0  0  0  0
  -23.2504   -0.0448    8.8768 H   0  0  0  0  0  0
  -22.6903    1.0494    7.5669 H   0  0  0  0  0  0
  -25.7734   -0.5314    6.1597 H   0  0  0  0  0  0
  -24.9635    1.0187    6.5692 H   0  0  0  0  0  0
  -25.5237   -0.0754    7.8791 H   0  0  0  0  0  0
  -21.3048   -8.8008    8.6167 H   0  0  0  0  0  0
  -22.3537   -6.8975    7.3110 H   0  0  0  0  0  0
  1 12  1  0  0  0
  1 13  1  0  0  0
  1 22  1  0  0  0
  1 23  1  0  0  0
  2 14  2  0  0  0
  2 17  1  0  0  0
  2 18  1  0  0  0
  3  4  1  0  0  0
  3 18  1  0  0  0
  3 19  2  0  0  0
  4  5  2  0  0  0
  4  9  1  0  0  0
  5  6  1  0  0  0
  5 24  1  0  0  0
  6  7  2  0  0  0
  6 25  1  0  0  0
  7  8  1  0  0  0
  7 10  1  0  0  0
  8  9  2  0  0  0
  8 26  1  0  0  0
  9 27  1  0  0  0
 10 11  1  0  0  0
 10 20  1  0  0  0
 10 21  1  0  0  0
 11 28  1  0  0  0
 11 29  1  0  0  0
 11 30  1  0  0  0
 12 15  1  0  0  0
 13 14  1  0  0  0
 13 31  1  0  0  0
 13 32  1  0  0  0
 14 15  1  0  0  0
 15 16  2  0  0  0
 16 17  1  0  0  0
 17 39  1  0  0  0
 18 40  1  0  0  0
 20 33  1  0  0  0
 20 34  1  0  0  0
 20 35  1  0  0  0
 21 36  1  0  0  0
 21 37  1  0  0  0
 21 38  1  0  0  0
M  CHG  1  14   1
M  END
> <s_m_source_file>
../4krs_ligand.sdf

> <i_m_source_file_index>
1

> <s_epik_input>
W0NIMl0xW0NIMl1TYyhuMTIpbm5jMltOSF1DKD1PKWMzW2NIXVtjSF1jKFtjSF1bY0hdMylDKFtDSDNdKShbQ0gzXSlbQ0gzXQ==

> <s_epik_cmdline>
J2VwaWtfYXBwJywgJy1pbWFlJywgJ2xpZ2FuZF9wcm8ubWFlJywgJy1vbWFlJywgJ2xpZ2FuZF9wcmVwLm1hZScsICctbXMnLCAnMScsICctcGgnLCAnNycsICctcGh0JywgJzAuNScsICctbnQn

> <r_lp_tautomer_probability>
1

> <r_epik_Ionization_Penalty>
 10.6937

> <r_epik_Ionization_Penalty_Charging>
 10.3492

> <r_epik_Ionization_Penalty_Neutral>
  0.3444

> <r_epik_State_Penalty>
 -0.0000

> <r_epik_Charging_Adjusted_Penalty>
10.3492240568896

> <i_epik_Tot_Q>
1

> <i_epik_Tot_abs_Q>
1

$$$$
