4ks2_ligand
                    3D
 Schrodinger Suite 2020-3.
 49 49  0  0  1  0            999 V2000
  -26.8480  -23.2820  -10.2960 C   0  0  0  0  0  0
  -25.7880  -22.2860  -10.8590 C   0  0  0  0  0  0
  -26.2610  -20.8150  -10.7000 C   0  0  0  0  0  0
  -27.8130  -20.7350  -10.8000 C   0  0  0  0  0  0
  -28.3690  -19.5580   -9.9940 C   0  0  0  0  0  0
  -25.7950  -20.2330   -9.4590 O   0  0  0  0  0  0
  -24.4290  -19.9190   -9.4990 C   0  0  2  0  0  0
  -23.7700  -20.8120   -8.4690 C   0  0  0  0  0  0
  -22.4960  -20.3720   -8.0370 C   0  0  0  0  0  0
  -21.7690  -21.3150   -7.2810 C   0  0  0  0  0  0
  -20.7220  -21.0290   -6.6660 O   0  5  0  0  0  0
  -22.1720  -22.4900   -7.2090 O   0  0  0  0  0  0
  -21.9950  -19.0810   -8.3380 C   0  0  0  0  0  0
  -22.6750  -18.1470   -9.1460 C   0  0  2  0  0  0
  -22.4840  -16.7060   -8.8100 N   0  0  0  0  0  0
  -22.3450  -15.6900   -9.6990 C   0  0  0  0  0  0
  -22.3720  -15.9230  -11.0040 N   0  3  0  0  0  0
  -22.1780  -14.4210   -9.2890 N   0  0  0  0  0  0
  -24.1840  -18.4280   -9.1940 C   0  0  1  0  0  0
  -24.7290  -17.5800  -10.2700 N   0  0  0  0  0  0
  -25.5230  -16.5050  -10.0900 C   0  0  0  0  0  0
  -25.8910  -16.1010   -8.9870 O   0  0  0  0  0  0
  -25.9600  -15.7890  -11.3420 C   0  0  0  0  0  0
  -26.4859  -24.3130  -10.4223 H   0  0  0  0  0  0
  -27.7950  -23.1566  -10.8414 H   0  0  0  0  0  0
  -27.0107  -23.0789   -9.2272 H   0  0  0  0  0  0
  -24.8410  -22.4114  -10.3136 H   0  0  0  0  0  0
  -25.6253  -22.4891  -11.9278 H   0  0  0  0  0  0
  -25.7836  -20.1849  -11.4649 H   0  0  0  0  0  0
  -28.1064  -20.6051  -11.8522 H   0  0  0  0  0  0
  -28.2540  -21.6635  -10.4084 H   0  0  0  0  0  0
  -29.4647  -19.5340  -10.0884 H   0  0  0  0  0  0
  -27.9471  -18.6180  -10.3792 H   0  0  0  0  0  0
  -28.0947  -19.6764   -8.9354 H   0  0  0  0  0  0
  -24.0852  -20.1304  -10.5223 H   0  0  0  0  0  0
  -24.2014  -21.7363   -8.0573 H   0  0  0  0  0  0
  -21.8543  -18.5156   -7.4050 H   0  0  0  0  0  0
  -21.0308  -19.1742   -8.8592 H   0  0  0  0  0  0
  -22.1302  -18.3400  -10.0819 H   0  0  0  0  0  0
  -22.4455  -16.3870   -7.7580 H   0  0  0  0  0  0
  -22.5069  -16.9491  -11.3768 H   0  0  0  0  0  0
  -22.1505  -14.1894   -8.2140 H   0  0  0  0  0  0
  -22.0688  -13.6140  -10.0284 H   0  0  0  0  0  0
  -24.6919  -18.1723   -8.2524 H   0  0  0  0  0  0
  -24.4944  -17.8061  -11.3206 H   0  0  0  0  0  0
  -25.5334  -16.2942  -12.2211 H   0  0  0  0  0  0
  -25.6076  -14.7474  -11.3107 H   0  0  0  0  0  0
  -27.0579  -15.8028  -11.4080 H   0  0  0  0  0  0
  -22.2595  -15.0902  -11.7138 H   0  0  0  0  0  0
  1  2  1  0  0  0
  1 24  1  0  0  0
  1 25  1  0  0  0
  1 26  1  0  0  0
  2  3  1  0  0  0
  2 27  1  0  0  0
  2 28  1  0  0  0
  3  4  1  0  0  0
  3  6  1  0  0  0
  3 29  1  0  0  0
  4  5  1  0  0  0
  4 30  1  0  0  0
  4 31  1  0  0  0
  5 32  1  0  0  0
  5 33  1  0  0  0
  5 34  1  0  0  0
  6  7  1  0  0  0
  7  8  1  0  0  0
  7 19  1  0  0  0
  7 35  1  0  0  0
  8  9  2  0  0  0
  8 36  1  0  0  0
  9 10  1  0  0  0
  9 13  1  0  0  0
 10 11  1  0  0  0
 10 12  2  0  0  0
 13 14  1  0  0  0
 13 37  1  0  0  0
 13 38  1  0  0  0
 14 15  1  0  0  0
 14 19  1  0  0  0
 14 39  1  0  0  0
 15 16  1  0  0  0
 15 40  1  0  0  0
 16 17  2  0  0  0
 16 18  1  0  0  0
 17 41  1  0  0  0
 17 49  1  0  0  0
 18 42  1  0  0  0
 18 43  1  0  0  0
 19 20  1  0  0  0
 19 44  1  0  0  0
 20 21  1  0  0  0
 20 45  1  0  0  0
 21 22  2  0  0  0
 21 23  1  0  0  0
 23 46  1  0  0  0
 23 47  1  0  0  0
 23 48  1  0  0  0
M  CHG  2  11  -1  17   1
M  END
> <s_m_source_file>
../4ks2_ligand.sdf

> <i_m_source_file_index>
1

> <s_epik_input>
W0NIM11bQ0gyXVtDSF0oW0NIMl1bQ0gzXSlPW0NAQEhdMVtDSF09QyhDKD1PKVtPSF0pW0NIMl1bQ0BIXShbTkhdL0MoPU5cW0hdKVtOSDJdKVtDQEhdMVtOSF1DKD1PKVtDSDNd

> <s_epik_cmdline>
J2VwaWtfYXBwJywgJy1pbWFlJywgJ2xpZ2FuZF9wcm8ubWFlJywgJy1vbWFlJywgJ2xpZ2FuZF9wcmVwLm1hZScsICctbXMnLCAnMScsICctcGgnLCAnNycsICctcGh0JywgJzAuNScsICctbnQn

> <r_lp_tautomer_probability>
1

> <r_epik_Ionization_Penalty>
  0.0005

> <r_epik_Ionization_Penalty_Charging>
  0.0005

> <r_epik_Ionization_Penalty_Neutral>
  0.0000

> <r_epik_State_Penalty>
 -0.0000

> <r_epik_Charging_Adjusted_Penalty>
0.00045606659172646

> <i_epik_Tot_Q>
0

> <i_epik_Tot_abs_Q>
2

> <s_epik_Chemistry_Notes>
This compound has an imine and may undergo hydrolysis.

$$$$
