4ks3_ligand
                    3D
 Schrodinger Suite 2020-3.
 57 58  0  0  1  0            999 V2000
  -26.3110  -22.1150  -36.9160 C   0  0  0  0  0  0
  -27.0160  -21.4100  -38.0890 C   0  0  0  0  0  0
  -26.2500  -21.5240  -39.4150 C   0  0  0  0  0  0
  -27.1520  -22.1840  -40.4520 C   0  0  0  0  0  0
  -28.1750  -21.1840  -40.9950 C   0  0  0  0  0  0
  -25.9180  -20.2060  -39.8780 O   0  0  0  0  0  0
  -24.5020  -19.9770  -39.9620 C   0  0  1  0  0  0
  -24.2150  -18.4790  -39.8240 C   0  0  2  0  0  0
  -24.8890  -17.7580  -40.9130 N   0  0  0  0  0  0
  -25.4800  -16.5830  -40.7580 C   0  0  0  0  0  0
  -25.9540  -15.9350  -42.0560 C   0  0  0  0  0  0
  -25.5980  -16.0170  -39.6780 O   0  0  0  0  0  0
  -23.8030  -20.7260  -38.8400 C   0  0  0  0  0  0
  -22.4000  -20.2500  -38.5190 C   0  0  0  0  0  0
  -21.4980  -21.2800  -37.8520 C   0  0  0  0  0  0
  -20.3980  -20.9040  -37.3710 O   0  5  0  0  0  0
  -22.0010  -22.4210  -37.7220 O   0  0  0  0  0  0
  -21.8450  -19.1990  -39.2260 C   0  0  0  0  0  0
  -22.7220  -18.2050  -39.9850 C   0  0  2  0  0  0
  -22.3310  -16.8700  -39.5200 N   0  0  0  0  0  0
  -21.5350  -16.7040  -38.4750 C   0  0  0  0  0  0
  -22.6310  -15.7890  -40.0450 N   0  0  0  0  0  0
  -22.0930  -14.8750  -39.4120 N   0  0  0  0  0  0
  -21.3800  -15.3990  -38.4050 C   0  0  0  0  0  0
  -20.5240  -14.6510  -37.3810 C   0  0  0  0  0  0
  -19.6760  -15.5620  -36.4910 C   0  0  0  0  0  0
  -18.9490  -14.6760  -35.4730 C   0  0  0  0  0  0
  -18.1980  -15.4600  -34.5540 O   0  0  0  0  0  0
  -26.9109  -21.9946  -36.0019 H   0  0  0  0  0  0
  -25.3172  -21.6687  -36.7639 H   0  0  0  0  0  0
  -26.2012  -23.1855  -37.1442 H   0  0  0  0  0  0
  -28.0098  -21.8563  -38.2411 H   0  0  0  0  0  0
  -27.1258  -20.3395  -37.8609 H   0  0  0  0  0  0
  -25.3036  -22.0709  -39.2917 H   0  0  0  0  0  0
  -26.5400  -22.5550  -41.2873 H   0  0  0  0  0  0
  -27.6887  -23.0251  -39.9889 H   0  0  0  0  0  0
  -28.8137  -21.6809  -41.7400 H   0  0  0  0  0  0
  -27.6489  -20.3410  -41.4669 H   0  0  0  0  0  0
  -28.7977  -20.8112  -40.1684 H   0  0  0  0  0  0
  -24.1875  -20.3574  -40.9451 H   0  0  0  0  0  0
  -24.5879  -18.1264  -38.8511 H   0  0  0  0  0  0
  -24.9210  -18.1924  -41.9231 H   0  0  0  0  0  0
  -25.7526  -16.6125  -42.8989 H   0  0  0  0  0  0
  -25.4166  -14.9877  -42.2105 H   0  0  0  0  0  0
  -27.0344  -15.7378  -41.9941 H   0  0  0  0  0  0
  -24.3865  -20.6255  -37.9129 H   0  0  0  0  0  0
  -23.7183  -21.7899  -39.1064 H   0  0  0  0  0  0
  -20.7532  -19.0672  -39.2488 H   0  0  0  0  0  0
  -22.5458  -18.2575  -41.0695 H   0  0  0  0  0  0
  -21.1084  -17.4684  -37.8255 H   0  0  0  0  0  0
  -19.8320  -13.9754  -37.9051 H   0  0  0  0  0  0
  -21.1758  -14.0649  -36.7164 H   0  0  0  0  0  0
  -20.3289  -16.2808  -35.9743 H   0  0  0  0  0  0
  -18.9490  -16.1070  -37.1111 H   0  0  0  0  0  0
  -18.2614  -13.9991  -36.0011 H   0  0  0  0  0  0
  -19.6856  -14.0842  -34.9099 H   0  0  0  0  0  0
  -17.6178  -14.9696  -33.7585 H   0  0  0  0  0  0
  1  2  1  0  0  0
  1 29  1  0  0  0
  1 30  1  0  0  0
  1 31  1  0  0  0
  2  3  1  0  0  0
  2 32  1  0  0  0
  2 33  1  0  0  0
  3  4  1  0  0  0
  3  6  1  0  0  0
  3 34  1  0  0  0
  4  5  1  0  0  0
  4 35  1  0  0  0
  4 36  1  0  0  0
  5 37  1  0  0  0
  5 38  1  0  0  0
  5 39  1  0  0  0
  6  7  1  0  0  0
  7  8  1  0  0  0
  7 13  1  0  0  0
  7 40  1  0  0  0
  8  9  1  0  0  0
  8 19  1  0  0  0
  8 41  1  0  0  0
  9 10  1  0  0  0
  9 42  1  0  0  0
 10 11  1  0  0  0
 10 12  2  0  0  0
 11 43  1  0  0  0
 11 44  1  0  0  0
 11 45  1  0  0  0
 13 14  1  0  0  0
 13 46  1  0  0  0
 13 47  1  0  0  0
 14 15  1  0  0  0
 14 18  2  0  0  0
 15 16  1  0  0  0
 15 17  2  0  0  0
 18 19  1  0  0  0
 18 48  1  0  0  0
 19 20  1  0  0  0
 19 49  1  0  0  0
 20 21  1  0  0  0
 20 22  1  0  0  0
 21 24  2  0  0  0
 21 50  1  0  0  0
 22 23  2  0  0  0
 23 24  1  0  0  0
 24 25  1  0  0  0
 25 26  1  0  0  0
 25 51  1  0  0  0
 25 52  1  0  0  0
 26 27  1  0  0  0
 26 53  1  0  0  0
 26 54  1  0  0  0
 27 28  1  0  0  0
 27 55  1  0  0  0
 27 56  1  0  0  0
 28 57  1  0  0  0
M  CHG  1  16  -1
M  END
> <s_m_source_file>
../4ks3_ligand.sdf

> <i_m_source_file_index>
1

> <s_epik_input>
W0NIM11bQ0gyXVtDSF0oW0NIMl1bQ0gzXSlPW0NASF0xW0NASF0oW05IXUMoPU8pW0NIM10pW0NASF0oW0NIXT1DKFtDSDJdMSlDKD1PKVtPSF0pbjJbY0hdYyhubjIpW0NIMl1bQ0gyXVtDSDJdW09IXQ==

> <s_epik_cmdline>
J2VwaWtfYXBwJywgJy1pbWFlJywgJ2xpZ2FuZF9wcm8ubWFlJywgJy1vbWFlJywgJ2xpZ2FuZF9wcmVwLm1hZScsICctbXMnLCAnMScsICctcGgnLCAnNycsICctcGh0JywgJzAuNScsICctbnQn

> <r_lp_tautomer_probability>
1

> <r_epik_Ionization_Penalty>
  0.0004

> <r_epik_Ionization_Penalty_Charging>
  0.0004

> <r_epik_Ionization_Penalty_Neutral>
  0.0000

> <r_epik_State_Penalty>
 -0.0000

> <r_epik_Charging_Adjusted_Penalty>
0.000355832710003506

> <i_epik_Tot_Q>
-1

> <i_epik_Tot_abs_Q>
1

$$$$
