4ks4_ligand
                    3D
 Schrodinger Suite 2020-3.
 57 58  0  0  1  0            999 V2000
  210.1700   71.6050 -123.7810 C   0  0  0  0  0  0
  209.8890   70.2330 -123.1680 C   0  0  0  0  0  0
  208.6160   69.6580 -123.7850 C   0  0  0  0  0  0
  207.6950   69.1100 -122.6930 C   0  0  0  0  0  0
  207.7230   67.5730 -122.7630 C   0  0  0  0  0  0
  208.0270   70.6700 -124.6150 O   0  0  0  0  0  0
  206.6100   70.6310 -124.6730 C   0  0  1  0  0  0
  206.1600   72.0700 -124.9230 C   0  0  2  0  0  0
  206.6650   72.8930 -123.8200 N   0  0  0  0  0  0
  207.2530   74.0760 -124.0190 C   0  0  0  0  0  0
  207.7240   74.7800 -122.7460 C   0  0  0  0  0  0
  207.4190   74.5930 -125.1240 O   0  0  0  0  0  0
  206.2070   69.7620 -125.8530 C   0  0  0  0  0  0
  204.7100   69.9020 -126.1200 C   0  0  0  0  0  0
  203.8810   68.7030 -126.5590 C   0  0  0  0  0  0
  202.9950   68.8940 -127.4260 O   0  5  0  0  0  0
  204.1300   67.6120 -126.0060 O   0  0  0  0  0  0
  204.0640   71.1100 -125.9070 C   0  0  0  0  0  0
  204.6430   72.1870 -124.9900 C   0  0  2  0  0  0
  204.2840   73.4850 -125.5640 N   0  0  0  0  0  0
  204.2380   74.6050 -124.8710 C   0  0  0  0  0  0
  203.9920   73.6580 -126.7510 N   0  0  0  0  0  0
  203.7340   74.8470 -126.9520 N   0  0  0  0  0  0
  203.8760   75.4810 -125.7900 C   0  0  0  0  0  0
  203.6630   76.9780 -125.5340 C   0  0  1  0  0  0
  202.1840   77.2460 -125.2510 C   0  0  0  0  0  0
  201.3330   76.8080 -126.4370 C   0  0  0  0  0  0
  204.4470   77.3880 -124.4010 O   0  0  0  0  0  0
  211.0865   72.0232 -123.3393 H   0  0  0  0  0  0
  209.3243   72.2781 -123.5766 H   0  0  0  0  0  0
  210.3013   71.5009 -124.8682 H   0  0  0  0  0  0
  210.7347   69.5599 -123.3724 H   0  0  0  0  0  0
  209.7577   70.3370 -122.0808 H   0  0  0  0  0  0
  208.8047   68.8307 -124.4849 H   0  0  0  0  0  0
  208.0509   69.4491 -121.7090 H   0  0  0  0  0  0
  206.6712   69.4764 -122.8589 H   0  0  0  0  0  0
  207.0658   67.1585 -121.9844 H   0  0  0  0  0  0
  208.7514   67.2173 -122.6024 H   0  0  0  0  0  0
  207.3718   67.2446 -123.7523 H   0  0  0  0  0  0
  206.2231   70.2132 -123.7318 H   0  0  0  0  0  0
  206.5750   72.4385 -125.8727 H   0  0  0  0  0  0
  206.5663   72.5422 -122.7821 H   0  0  0  0  0  0
  207.4835   74.1568 -121.8720 H   0  0  0  0  0  0
  207.2159   75.7513 -122.6548 H   0  0  0  0  0  0
  208.8114   74.9383 -122.7955 H   0  0  0  0  0  0
  206.7644   70.0769 -126.7475 H   0  0  0  0  0  0
  206.4371   68.7099 -125.6291 H   0  0  0  0  0  0
  203.1051   71.3162 -126.4049 H   0  0  0  0  0  0
  204.2296   72.1127 -123.9733 H   0  0  0  0  0  0
  204.4452   74.7663 -123.8131 H   0  0  0  0  0  0
  204.0166   77.5788 -126.3849 H   0  0  0  0  0  0
  201.8737   76.6834 -124.3581 H   0  0  0  0  0  0
  202.0329   78.3217 -125.0774 H   0  0  0  0  0  0
  200.2728   77.0061 -126.2206 H   0  0  0  0  0  0
  201.4764   75.7318 -126.6136 H   0  0  0  0  0  0
  201.6356   77.3701 -127.3328 H   0  0  0  0  0  0
  205.5408   77.2724 -124.4182 H   0  0  0  0  0  0
  1  2  1  0  0  0
  1 29  1  0  0  0
  1 30  1  0  0  0
  1 31  1  0  0  0
  2  3  1  0  0  0
  2 32  1  0  0  0
  2 33  1  0  0  0
  3  4  1  0  0  0
  3  6  1  0  0  0
  3 34  1  0  0  0
  4  5  1  0  0  0
  4 35  1  0  0  0
  4 36  1  0  0  0
  5 37  1  0  0  0
  5 38  1  0  0  0
  5 39  1  0  0  0
  6  7  1  0  0  0
  7  8  1  0  0  0
  7 13  1  0  0  0
  7 40  1  0  0  0
  8  9  1  0  0  0
  8 19  1  0  0  0
  8 41  1  0  0  0
  9 10  1  0  0  0
  9 42  1  0  0  0
 10 11  1  0  0  0
 10 12  2  0  0  0
 11 43  1  0  0  0
 11 44  1  0  0  0
 11 45  1  0  0  0
 13 14  1  0  0  0
 13 46  1  0  0  0
 13 47  1  0  0  0
 14 15  1  0  0  0
 14 18  2  0  0  0
 15 16  1  0  0  0
 15 17  2  0  0  0
 18 19  1  0  0  0
 18 48  1  0  0  0
 19 20  1  0  0  0
 19 49  1  0  0  0
 20 21  1  0  0  0
 20 22  1  0  0  0
 21 24  2  0  0  0
 21 50  1  0  0  0
 22 23  2  0  0  0
 23 24  1  0  0  0
 24 25  1  0  0  0
 25 26  1  0  0  0
 25 28  1  0  0  0
 25 51  1  0  0  0
 26 27  1  0  0  0
 26 52  1  0  0  0
 26 53  1  0  0  0
 27 54  1  0  0  0
 27 55  1  0  0  0
 27 56  1  0  0  0
 28 57  1  0  0  0
M  CHG  1  16  -1
M  END
> <s_m_source_file>
../4ks4_ligand.sdf

> <i_m_source_file_index>
1

> <s_epik_input>
W0NIM11bQ0gyXVtDSF0oW0NIMl1bQ0gzXSlPW0NASF0xW0NASF0oW05IXUMoPU8pW0NIM10pW0NASF0oW0NIXT1DKFtDSDJdMSlDKD1PKVtPSF0pbjJbY0hdYyhubjIpW0NASF0oW09IXSlbQ0gyXVtDSDNd

> <s_epik_cmdline>
J2VwaWtfYXBwJywgJy1pbWFlJywgJ2xpZ2FuZF9wcm8ubWFlJywgJy1vbWFlJywgJ2xpZ2FuZF9wcmVwLm1hZScsICctbXMnLCAnMScsICctcGgnLCAnNycsICctcGh0JywgJzAuNScsICctbnQn

> <r_lp_tautomer_probability>
1

> <r_epik_Ionization_Penalty>
  0.0004

> <r_epik_Ionization_Penalty_Charging>
  0.0004

> <r_epik_Ionization_Penalty_Neutral>
  0.0000

> <r_epik_State_Penalty>
 -0.0000

> <r_epik_Charging_Adjusted_Penalty>
0.000355832710003506

> <i_epik_Tot_Q>
-1

> <i_epik_Tot_abs_Q>
1

$$$$
