4ksy_ligand
                    3D
 Schrodinger Suite 2020-3.
 67 73  0  0  1  0            999 V2000
   52.2850    8.6450  -17.4450 C   0  0  0  0  0  0
   49.6710   10.9640  -18.6860 N   0  0  0  0  0  0
   50.4240    9.7210  -18.4170 C   0  0  0  0  0  0
   51.5720    9.7460  -17.7220 N   0  0  0  0  0  0
   51.8610    7.4660  -17.8650 N   0  0  0  0  0  0
   50.7070    7.3220  -18.5710 C   0  0  0  0  0  0
   49.9320    8.4630  -18.8840 C   0  0  0  0  0  0
   48.8460    8.0280  -19.5990 N   0  0  0  0  0  0
   48.9040    6.6800  -19.7520 C   0  0  0  0  0  0
   50.0210    6.2780  -19.1410 N   0  0  0  0  0  0
   50.6820    5.0190  -18.9280 C   0  0  1  0  0  0
   50.3800    4.5220  -17.6030 C   0  0  2  0  0  0
   51.4400    3.6300  -17.2290 O   0  0  0  0  0  0
   49.1380    3.7640  -17.7640 C   0  0  1  0  0  0
   49.3700    3.0940  -19.0520 C   0  0  1  0  0  0
   48.0770    2.8130  -19.7600 C   0  0  0  0  0  0
   47.3510    4.0050  -19.8420 O   0  0  0  0  0  0
   45.8310    3.9760  -20.3360 P   0  0  2  0  0  0
   45.2100    5.3590  -20.4290 O   0  5  0  0  0  0
   44.9410    3.0300  -19.3560 O   0  0  0  0  0  0
   45.2380    3.1020  -17.9730 C   0  0  2  0  0  0
   45.2250    1.7570  -17.3180 C   0  0  2  0  0  0
   44.2030    0.9400  -17.8650 O   0  0  0  0  0  0
   44.8730    2.0310  -15.9330 C   0  0  1  0  0  0
   46.0690    2.1690  -15.0260 C   0  0  0  0  0  0
   46.8210    3.3290  -15.2750 O   0  0  0  0  0  0
   48.4210    3.2980  -15.2370 P   0  0  1  0  0  0
   49.0550    2.7930  -16.6760 O   0  0  0  0  0  0
   48.9350    4.6470  -14.8570 O   0  5  0  0  0  0
   48.8670    2.3150  -14.2230 O   0  0  0  0  0  0
   44.0510    3.2250  -15.9400 O   0  0  0  0  0  0
   44.1570    3.8380  -17.2540 C   0  0  1  0  0  0
   44.4350    5.1710  -17.0820 N   0  0  0  0  0  0
   45.4790    5.7220  -16.4980 C   0  0  0  0  0  0
   45.3480    7.0540  -16.5280 N   0  0  0  0  0  0
   43.5900    6.1640  -17.4820 C   0  0  0  0  0  0
   44.1750    7.3700  -17.1260 C   0  0  0  0  0  0
   43.4860    8.6660  -17.4440 C   0  0  0  0  0  0
   42.2310    8.6400  -18.1030 N   0  3  0  0  0  0
   41.6380    7.3850  -18.4560 C   0  0  0  0  0  0
   40.3750    7.3540  -19.1170 N   0  0  0  0  0  0
   42.3190    6.1330  -18.1560 N   0  0  0  0  0  0
   44.0020    9.7630  -17.1390 O   0  0  0  0  0  0
   45.8260    3.3320  -21.6550 O   0  0  0  0  0  0
   50.1540    4.0440  -19.8200 O   0  0  0  0  0  0
   53.2111    8.7221  -16.8754 H   0  0  0  0  0  0
   50.0551   11.9290  -18.3238 H   0  0  0  0  0  0
   48.7265   10.9241  -19.2484 H   0  0  0  0  0  0
   48.1813    6.0504  -20.2711 H   0  0  0  0  0  0
   51.7595    5.1729  -19.0870 H   0  0  0  0  0  0
   50.2978    5.3116  -16.8415 H   0  0  0  0  0  0
   52.4546    4.0208  -17.0624 H   0  0  0  0  0  0
   48.2096    4.3534  -17.7380 H   0  0  0  0  0  0
   49.8986    2.1387  -18.9179 H   0  0  0  0  0  0
   48.2874    2.4302  -20.7696 H   0  0  0  0  0  0
   47.5052    2.0621  -19.1950 H   0  0  0  0  0  0
   46.2259    3.5857  -17.9666 H   0  0  0  0  0  0
   46.1664    1.2023  -17.4446 H   0  0  0  0  0  0
   44.2652    0.6084  -18.9120 H   0  0  0  0  0  0
   44.2908    1.1826  -15.5441 H   0  0  0  0  0  0
   45.7328    2.2092  -13.9794 H   0  0  0  0  0  0
   46.7355    1.3049  -15.1640 H   0  0  0  0  0  0
   43.2189    3.8500  -17.8283 H   0  0  0  0  0  0
   46.3168    5.1796  -16.0598 H   0  0  0  0  0  0
   39.8521    8.2937  -19.3483 H   0  0  0  0  0  0
   39.9236    6.3904  -19.3956 H   0  0  0  0  0  0
   41.7155    9.5820  -18.3418 H   0  0  0  0  0  0
  1  4  2  0  0  0
  1  5  1  0  0  0
  1 46  1  0  0  0
  2  3  1  0  0  0
  2 47  1  0  0  0
  2 48  1  0  0  0
  3  4  1  0  0  0
  3  7  2  0  0  0
  5  6  2  0  0  0
  6  7  1  0  0  0
  6 10  1  0  0  0
  7  8  1  0  0  0
  8  9  2  0  0  0
  9 10  1  0  0  0
  9 49  1  0  0  0
 10 11  1  0  0  0
 11 12  1  0  0  0
 11 45  1  0  0  0
 11 50  1  0  0  0
 12 13  1  0  0  0
 12 14  1  0  0  0
 12 51  1  0  0  0
 13 52  1  0  0  0
 14 15  1  0  0  0
 14 28  1  0  0  0
 14 53  1  0  0  0
 15 16  1  0  0  0
 15 45  1  0  0  0
 15 54  1  0  0  0
 16 17  1  0  0  0
 16 55  1  0  0  0
 16 56  1  0  0  0
 17 18  1  0  0  0
 18 19  1  0  0  0
 18 20  1  0  0  0
 18 44  2  0  0  0
 20 21  1  0  0  0
 21 22  1  0  0  0
 21 32  1  0  0  0
 21 57  1  0  0  0
 22 23  1  0  0  0
 22 24  1  0  0  0
 22 58  1  0  0  0
 23 59  1  0  0  0
 24 25  1  0  0  0
 24 31  1  0  0  0
 24 60  1  0  0  0
 25 26  1  0  0  0
 25 61  1  0  0  0
 25 62  1  0  0  0
 26 27  1  0  0  0
 27 28  1  0  0  0
 27 29  1  0  0  0
 27 30  2  0  0  0
 31 32  1  0  0  0
 32 33  1  0  0  0
 32 63  1  0  0  0
 33 34  1  0  0  0
 33 36  1  0  0  0
 34 35  2  0  0  0
 34 64  1  0  0  0
 35 37  1  0  0  0
 36 37  2  0  0  0
 36 42  1  0  0  0
 37 38  1  0  0  0
 38 39  1  0  0  0
 38 43  2  0  0  0
 39 40  1  0  0  0
 39 67  1  0  0  0
 40 41  1  0  0  0
 40 42  2  0  0  0
 41 65  1  0  0  0
 41 66  1  0  0  0
M  CHG  3  19  -1  29  -1  39   1
M  END
> <s_m_source_file>
../4ksy_ligand.sdf

> <i_m_source_file_index>
1

> <s_epik_input>
bjFbY0hdbmMoW05IMl0pYyhjMTIpbltjSF1uMltDQEBIXShbQ0BASF0zW09IXSlPW0NAQEhdKFtDQEhdMzQpW0NIMl1PW1BAXSg9TykoW09IXSlPW0NAQEhdNVtDQEhdKFtPSF0pW0NAQEhdKFtDSDJdT1tQQF0oTzQpKD1PKVtPSF0pT1tDQEhdNW42W2NIXW5jKGM2NyljKD1PKVtuSF0vYyg9TlxbSF0pW25IXTc=

> <s_epik_cmdline>
J2VwaWtfYXBwJywgJy1pbWFlJywgJ2xpZ2FuZF9wcm8ubWFlJywgJy1vbWFlJywgJ2xpZ2FuZF9wcmVwLm1hZScsICctbXMnLCAnMScsICctcGgnLCAnNycsICctcGh0JywgJzAuNScsICctbnQn

> <r_epik_Ionization_Penalty>
  2.3896

> <r_epik_Ionization_Penalty_Charging>
  2.3889

> <r_epik_Ionization_Penalty_Neutral>
  0.0007

> <r_epik_State_Penalty>
  0.1964

> <r_epik_Charging_Adjusted_Penalty>
2.58532586736115

> <i_epik_Tot_Q>
-1

> <i_epik_Tot_abs_Q>
3

> <s_epik_Chemistry_Notes>
This compound has an imine and may undergo hydrolysis. This compound contains an acetal/aminal-like group ( X-CH(R)-Y where X, Y are N, S, or O) that may be acid/base labile, releasing an aldehyde.

$$$$
