4ktc_ligand
                    3D
 Schrodinger Suite 2020-3.
102108  0  0  1  0            999 V2000
   49.6080   36.8150  109.5810 C   0  0  0  0  0  0
   50.5150   37.5950  109.8870 O   0  0  0  0  0  0
   48.4160   36.8150  110.1350 O   0  0  0  0  0  0
   48.1400   37.7140  111.2030 C   0  0  0  0  0  0
   46.9270   37.2310  112.0020 C   0  0  0  0  0  0
   45.7350   37.7920  111.2160 C   0  0  0  0  0  0
   46.2430   38.9810  110.3870 C   0  0  0  0  0  0
   47.7540   39.0890  110.6460 C   0  0  0  0  0  0
   50.6350   36.6390  106.5790 C   0  0  0  0  0  0
   50.8960   35.6970  107.7670 C   0  0  1  0  0  0
   49.6090   36.4420  105.9270 O   0  0  0  0  0  0
   49.7660   35.7720  108.6990 N   0  0  0  0  0  0
   51.1180   34.2370  107.3120 C   0  0  0  0  0  0
   52.3690   34.1910  106.4000 C   0  0  0  0  0  0
   52.4360   32.8350  105.6560 C   0  0  0  0  0  0
   52.1680   33.0360  104.1460 C   0  0  0  0  0  0
   50.6450   33.0120  103.9090 C   0  0  0  0  0  0
   48.2770   36.6650  101.7570 C   0  0  0  0  0  0
   49.7710   36.8700  101.9330 C   0  0  2  0  0  0
   49.1040   35.6370  102.5110 C   0  0  2  0  0  0
   50.2230   37.8240  102.9080 N   0  0  0  0  0  0
   50.4200   35.9620   99.7550 O   0  5  0  0  0  0
   50.6880   36.8090  100.7300 C   0  0  0  0  0  0
   49.3450   34.2400  102.0070 C   0  0  0  0  0  0
   50.2090   33.3050  102.4590 C   0  0  0  0  0  0
   51.6370   37.7340  100.6250 N   0  0  0  0  0  0
   52.5470   37.8050   99.2040 S   0  0  0  0  0  0
   53.1850   36.5050   98.9700 O   0  0  0  0  0  0
   51.6790   38.3530   98.1440 O   0  0  0  0  0  0
   53.8420   39.0730   99.5670 C   0  0  0  0  0  0
   54.6220   39.4720   98.3320 C   0  0  0  0  0  0
   53.5580   40.3960   98.8820 C   0  0  0  0  0  0
   51.5530   37.5950  106.2260 N   0  0  0  0  0  0
   51.3840   38.4900  105.0670 C   0  0  2  0  0  0
   51.3140   37.7110  103.7460 C   0  0  0  0  0  0
   52.2240   36.9090  103.5490 O   0  0  0  0  0  0
   52.5680   39.4740  105.1180 C   0  0  0  0  0  0
   52.9120   39.5030  106.6120 C   0  0  2  0  0  0
   52.6370   38.0710  107.0950 C   0  0  0  0  0  0
   52.0530   40.4060  107.3110 O   0  0  0  0  0  0
   52.0520   41.7020  107.0810 C   0  0  0  0  0  0
   51.0200   42.3120  107.7580 N   0  0  0  0  0  0
   53.0340   42.3220  106.6710 O   0  0  0  0  0  0
   50.9420   43.7750  107.9540 C   0  0  0  0  0  0
   49.6740   44.2620  108.6650 C   0  0  0  0  0  0
   48.6100   43.3720  108.9370 C   0  0  0  0  0  0
   48.7700   41.9340  108.5200 C   0  0  0  0  0  0
   50.2310   41.5690  108.7450 C   0  0  0  0  0  0
   49.5490   45.6120  109.0440 C   0  0  0  0  0  0
   48.3710   46.0350  109.6990 C   0  0  0  0  0  0
   47.3200   45.1330  109.9780 C   0  0  0  0  0  0
   47.4320   43.7840  109.5980 C   0  0  0  0  0  0
   49.0731   37.7189  111.7855 H   0  0  0  0  0  0
   46.9254   36.1316  112.0373 H   0  0  0  0  0  0
   46.9793   37.6306  113.0255 H   0  0  0  0  0  0
   45.3300   37.0102  110.5566 H   0  0  0  0  0  0
   44.9544   38.1200  111.9182 H   0  0  0  0  0  0
   46.0414   38.7977  109.3213 H   0  0  0  0  0  0
   45.7255   39.8979  110.7056 H   0  0  0  0  0  0
   47.9908   39.8651  111.3887 H   0  0  0  0  0  0
   48.3183   39.2818  109.7216 H   0  0  0  0  0  0
   51.7901   36.0358  108.3108 H   0  0  0  0  0  0
   49.0071   34.9757  108.7085 H   0  0  0  0  0  0
   51.2726   33.5977  108.1937 H   0  0  0  0  0  0
   50.2353   33.8879  106.7562 H   0  0  0  0  0  0
   52.3150   35.0051  105.6622 H   0  0  0  0  0  0
   53.2744   34.3113  107.0131 H   0  0  0  0  0  0
   53.4350   32.3937  105.7873 H   0  0  0  0  0  0
   51.6771   32.1532  106.0673 H   0  0  0  0  0  0
   52.5815   34.0038  103.8259 H   0  0  0  0  0  0
   52.6482   32.2260  103.5774 H   0  0  0  0  0  0
   50.2501   32.0172  104.1629 H   0  0  0  0  0  0
   50.1632   33.7706  104.5433 H   0  0  0  0  0  0
   47.7349   37.5031  102.2194 H   0  0  0  0  0  0
   48.0369   36.6202  100.6845 H   0  0  0  0  0  0
   49.0601   35.1690  103.5055 H   0  0  0  0  0  0
   49.6777   38.7692  103.0466 H   0  0  0  0  0  0
   48.4138   33.6587  102.0784 H   0  0  0  0  0  0
   49.6726   34.2802  100.9577 H   0  0  0  0  0  0
   51.0899   33.5774  101.8592 H   0  0  0  0  0  0
   49.7362   32.4092  102.0301 H   0  0  0  0  0  0
   54.1991   38.8701  100.5874 H   0  0  0  0  0  0
   55.6932   39.5251   98.5762 H   0  0  0  0  0  0
   54.4630   38.7248   97.5406 H   0  0  0  0  0  0
   52.5090   40.4201   98.5517 H   0  0  0  0  0  0
   53.7393   41.2204   99.5873 H   0  0  0  0  0  0
   50.4180   39.0095  105.1506 H   0  0  0  0  0  0
   53.3912   39.0895  104.4979 H   0  0  0  0  0  0
   52.2472   40.4539  104.7349 H   0  0  0  0  0  0
   53.9216   39.8842  106.8251 H   0  0  0  0  0  0
   52.3039   38.0473  108.1431 H   0  0  0  0  0  0
   53.5158   37.4205  106.9748 H   0  0  0  0  0  0
   51.7950   44.1093  108.5628 H   0  0  0  0  0  0
   50.9700   44.2780  106.9761 H   0  0  0  0  0  0
   48.1110   41.2996  109.1309 H   0  0  0  0  0  0
   48.5005   41.8278  107.4588 H   0  0  0  0  0  0
   50.3868   40.4896  108.6015 H   0  0  0  0  0  0
   50.5495   41.8539  109.7586 H   0  0  0  0  0  0
   50.3500   46.3211  108.8350 H   0  0  0  0  0  0
   48.2708   47.0791  109.9953 H   0  0  0  0  0  0
   46.4224   45.4829  110.4878 H   0  0  0  0  0  0
   46.6310   43.0751  109.8080 H   0  0  0  0  0  0
  1  2  2  0  0  0
  1  3  1  0  0  0
  1 12  1  0  0  0
  3  4  1  0  0  0
  4  5  1  0  0  0
  4  8  1  0  0  0
  4 53  1  0  0  0
  5  6  1  0  0  0
  5 54  1  0  0  0
  5 55  1  0  0  0
  6  7  1  0  0  0
  6 56  1  0  0  0
  6 57  1  0  0  0
  7  8  1  0  0  0
  7 58  1  0  0  0
  7 59  1  0  0  0
  8 60  1  0  0  0
  8 61  1  0  0  0
  9 10  1  0  0  0
  9 11  2  0  0  0
  9 33  1  0  0  0
 10 12  1  0  0  0
 10 13  1  0  0  0
 10 62  1  0  0  0
 12 63  1  0  0  0
 13 14  1  0  0  0
 13 64  1  0  0  0
 13 65  1  0  0  0
 14 15  1  0  0  0
 14 66  1  0  0  0
 14 67  1  0  0  0
 15 16  1  0  0  0
 15 68  1  0  0  0
 15 69  1  0  0  0
 16 17  1  0  0  0
 16 70  1  0  0  0
 16 71  1  0  0  0
 17 25  1  0  0  0
 17 72  1  0  0  0
 17 73  1  0  0  0
 18 19  1  0  0  0
 18 20  1  0  0  0
 18 74  1  0  0  0
 18 75  1  0  0  0
 19 20  1  0  0  0
 19 21  1  0  0  0
 19 23  1  0  0  0
 20 24  1  0  0  0
 20 76  1  0  0  0
 21 35  1  0  0  0
 21 77  1  0  0  0
 22 23  1  0  0  0
 23 26  2  0  0  0
 24 25  1  0  0  0
 24 78  1  0  0  0
 24 79  1  0  0  0
 25 80  1  0  0  0
 25 81  1  0  0  0
 26 27  1  0  0  0
 27 28  2  0  0  0
 27 29  2  0  0  0
 27 30  1  0  0  0
 30 31  1  0  0  0
 30 32  1  0  0  0
 30 82  1  0  0  0
 31 32  1  0  0  0
 31 83  1  0  0  0
 31 84  1  0  0  0
 32 85  1  0  0  0
 32 86  1  0  0  0
 33 34  1  0  0  0
 33 39  1  0  0  0
 34 35  1  0  0  0
 34 37  1  0  0  0
 34 87  1  0  0  0
 35 36  2  0  0  0
 37 38  1  0  0  0
 37 88  1  0  0  0
 37 89  1  0  0  0
 38 39  1  0  0  0
 38 40  1  0  0  0
 38 90  1  0  0  0
 39 91  1  0  0  0
 39 92  1  0  0  0
 40 41  1  0  0  0
 41 42  1  0  0  0
 41 43  2  0  0  0
 42 44  1  0  0  0
 42 48  1  0  0  0
 44 45  1  0  0  0
 44 93  1  0  0  0
 44 94  1  0  0  0
 45 46  2  0  0  0
 45 49  1  0  0  0
 46 47  1  0  0  0
 46 52  1  0  0  0
 47 48  1  0  0  0
 47 95  1  0  0  0
 47 96  1  0  0  0
 48 97  1  0  0  0
 48 98  1  0  0  0
 49 50  2  0  0  0
 49 99  1  0  0  0
 50 51  1  0  0  0
 50100  1  0  0  0
 51 52  2  0  0  0
 51101  1  0  0  0
 52102  1  0  0  0
M  CHG  1  22  -1
M  END
> <s_m_source_file>
../4ktc_ligand.sdf

> <i_m_source_file_index>
1

> <s_epik_input>
W2NIXTFbY0hdW2NIXVtjSF1jKGMxMilbQ0gyXVtDSDJdTihbQ0gyXTIpQyg9TylPW0NAQEhdKFtDSDJdMylbQ0gyXVtDQEBIXShDKD1PKVtOSF00KU4zQyg9TylbQ0BASF0oW05IXUMoPU8pT1tDSF01W0NIMl1bQ0gyXVtDSDJdW0NIMl01KVtDSDJdW0NIMl1bQ0gyXVtDSDJdW0NIMl1bQ0gyXVtDSDJdW0NASF0oW0NIMl02KVtDQF00NkMoPU8pW05IXVMoPU8pKD1PKVtDSF03W0NIMl1bQ0gyXTc=

> <s_epik_cmdline>
J2VwaWtfYXBwJywgJy1pbWFlJywgJ2xpZ2FuZF9wcm8ubWFlJywgJy1vbWFlJywgJ2xpZ2FuZF9wcmVwLm1hZScsICctbXMnLCAnMScsICctcGgnLCAnNycsICctcGh0JywgJzAuNScsICctbnQn

> <r_epik_Ionization_Penalty>
  0.0107

> <r_epik_Ionization_Penalty_Charging>
  0.0107

> <r_epik_Ionization_Penalty_Neutral>
  0.0000

> <r_epik_State_Penalty>
  0.0082

> <r_epik_Charging_Adjusted_Penalty>
0.0189283842422086

> <i_epik_Tot_Q>
-1

> <i_epik_Tot_abs_Q>
1

> <s_epik_Chemistry_Notes>
This compound has an ester and may undergo hydrolysis at high or low pH.

$$$$
