4ktu_ligand
                    3D
 Schrodinger Suite 2020-3.
201207  0  0  1  0            999 V2000
   32.0720  -18.8540   85.0110 C   0  0  0  0  0  0
   31.8390  -19.1110   83.8620 O   0  0  0  0  0  0
   32.9510  -19.7900   85.7950 C   0  0  0  0  0  0
   31.6050  -17.7570   85.5930 N   0  0  0  0  0  0
   30.6960  -16.8350   84.8780 C   0  0  2  0  0  0
   31.4430  -15.8510   84.0400 C   0  0  0  0  0  0
   32.0260  -14.9070   84.5780 O   0  0  0  0  0  0
   29.6890  -16.0870   85.7740 C   0  0  2  0  0  0
   28.7840  -17.0780   86.5440 C   0  0  0  0  0  0
   28.8200  -15.1370   84.9530 C   0  0  0  0  0  0
   27.8950  -16.4330   87.5960 C   0  0  0  0  0  0
   31.3730  -16.0000   82.7220 N   0  0  0  0  0  0
   31.9370  -15.0430   81.8210 C   0  0  2  0  0  0
   30.8480  -14.5660   80.8400 C   0  0  0  0  0  0
   30.3650  -15.3440   80.0240 O   0  0  0  0  0  0
   33.0750  -15.6330   81.0550 C   0  0  0  0  0  0
   33.5590  -14.7970   80.2190 O   0  0  0  0  0  0
   30.4180  -13.3170   80.9820 N   0  0  0  0  0  0
   29.4160  -12.7870   80.0980 C   0  0  2  0  0  0
   29.9480  -12.6970   78.6700 C   0  0  0  0  0  0
   31.1650  -12.6710   78.3790 O   0  0  0  0  0  0
   28.8900  -11.4380   80.6270 C   0  0  2  0  0  0
   29.9830  -10.6080   81.0680 O   0  0  0  0  0  0
   27.9940  -11.6210   81.8280 C   0  0  0  0  0  0
   29.0500  -12.6280   77.7140 N   0  0  0  0  0  0
   29.3360  -12.7620   76.2880 C   0  0  2  0  0  0
   29.1790  -11.4600   75.4650 C   0  0  0  0  0  0
   28.9000  -11.4920   74.2690 O   0  0  0  0  0  0
   28.6010  -13.9520   75.6950 C   0  0  0  0  0  0
   29.2180  -15.2280   76.2270 C   0  0  0  0  0  0
   28.4920  -16.5360   75.8850 C   0  0  0  0  0  0
   29.3520  -17.6680   76.3350 N   0  0  0  0  0  0
   29.0680  -18.9450   76.0230 C   0  0  0  0  0  0
   27.9280  -19.2740   75.4260 N   0  0  0  0  0  0
   29.9100  -19.8880   76.4290 N   0  0  0  0  0  0
   29.4640  -10.3280   76.1340 N   0  0  0  0  0  0
   29.5690   -9.0520   75.3980 C   0  0  2  0  0  0
   30.9300   -8.9490   74.7180 C   0  0  0  0  0  0
   31.8890   -9.6120   75.1520 O   0  0  0  0  0  0
   29.3360   -7.9460   76.4040 C   0  0  0  0  0  0
   29.4890   -6.5200   75.8590 C   0  0  0  0  0  0
   28.8560   -5.4680   76.7770 C   0  0  0  0  0  0
   29.3960   -4.0600   76.5190 C   0  0  0  0  0  0
   30.8000   -3.9450   76.8780 N   0  0  0  0  0  0
   31.0060   -8.1950   73.6510 N   0  0  0  0  0  0
   32.2520   -7.9500   72.9210 C   0  0  2  0  0  0
   32.9070   -6.6280   73.4210 C   0  0  0  0  0  0
   32.1910   -5.6470   73.5790 O   0  0  0  0  0  0
   32.0000   -7.8400   71.4210 C   0  0  0  0  0  0
   33.2280   -7.3800   70.6470 C   0  0  0  0  0  0
   33.4310   -6.0510   70.4970 C   0  0  0  0  0  0
   34.1490   -8.2400   70.1240 C   0  0  0  0  0  0
   34.5570   -5.5840   69.8180 C   0  0  0  0  0  0
   35.2790   -7.7940   69.3900 C   0  0  0  0  0  0
   35.4460   -6.4450   69.2740 C   0  0  0  0  0  0
   36.5450   -5.9450   68.6250 O   0  0  0  0  0  0
   34.2510   -6.6220   73.6070 N   0  0  0  0  0  0
   35.1520   -7.7480   73.4430 C   0  0  2  0  0  0
   35.0890   -8.7420   74.6010 C   0  0  0  0  0  0
   35.4640   -9.9160   74.4290 O   0  0  0  0  0  0
   36.5450   -7.0970   73.3740 C   0  0  0  0  0  0
   36.3480   -5.7580   73.8770 C   0  0  0  0  0  0
   34.9340   -5.3190   73.7780 C   0  0  0  0  0  0
   34.6630   -8.2670   75.7430 N   0  0  0  0  0  0
   34.4050   -9.0310   76.9300 C   0  0  2  0  0  0
   33.6010   -8.2330   77.9140 C   0  0  0  0  0  0
   33.4270   -6.9750   77.6810 O   0  0  0  0  0  0
   35.7310   -9.4780   77.5690 C   0  0  0  0  0  0
   36.4120   -8.2780   77.9580 O   0  0  0  0  0  0
   33.0820   -8.7850   78.9820 N   0  0  0  0  0  0
   32.3390   -8.0170   79.9670 C   0  0  2  0  0  0
   33.3210   -7.1070   80.7390 C   0  0  0  0  0  0
   33.1040   -5.9170   80.9050 O   0  0  0  0  0  0
   31.5430   -8.9280   80.8940 C   0  0  0  0  0  0
   30.4790   -9.7670   80.1610 C   0  0  0  0  0  0
   30.2440   -9.6380   78.9980 O   0  0  0  0  0  0
   34.4480   -7.6390   81.1470 N   0  0  0  0  0  0
   35.4280   -6.8910   81.9460 C   0  0  2  0  0  0
   36.1010   -5.7930   81.1050 C   0  0  0  0  0  0
   36.6180   -4.7850   81.7110 O   0  0  0  0  0  0
   36.4070   -7.9120   82.5520 C   0  0  0  0  0  0
   37.2270   -8.5910   81.5670 C   0  0  0  0  0  0
   37.0200   -9.8220   81.0230 C   0  0  0  0  0  0
   38.4680   -8.1320   81.0600 C   0  0  0  0  0  0
   38.0260  -10.1190   80.1480 N   0  0  0  0  0  0
   38.9390   -9.1110   80.1550 C   0  0  0  0  0  0
   39.2170   -6.9790   81.2500 C   0  0  0  0  0  0
   40.1770   -9.0030   79.5150 C   0  0  0  0  0  0
   40.4460   -6.8510   80.5700 C   0  0  0  0  0  0
   40.8840   -7.8600   79.6960 C   0  0  0  0  0  0
   36.2430   -5.9650   79.8170 N   0  0  0  0  0  0
   37.0200   -5.0270   78.9850 C   0  0  2  0  0  0
   36.4170   -3.6710   78.7640 C   0  0  0  0  0  0
   37.1250   -2.7430   78.3370 O   0  0  0  0  0  0
   37.2930   -5.5760   77.6270 C   0  0  0  0  0  0
   38.1730   -6.7550   77.5970 C   0  0  0  0  0  0
   37.5210   -8.0370   77.2240 C   0  0  0  0  0  0
   38.0290   -8.8320   76.4640 O   0  0  0  0  0  0
   35.1240   -3.5270   79.0960 N   0  0  0  0  0  0
   34.4340   -2.2720   78.9180 C   0  0  2  0  0  0
   34.5270   -1.4770   80.2460 C   0  0  0  0  0  0
   33.8610   -0.4900   80.4910 O   0  0  0  0  0  0
   33.0090   -2.5540   78.3860 C   0  0  0  0  0  0
   33.1430   -3.2040   76.9480 C   0  0  0  0  0  0
   31.8450   -3.3340   76.1840 C   0  0  0  0  0  0
   31.5700   -2.8310   75.0800 O   0  0  0  0  0  0
   35.3398   -1.8771   81.1217 O   0  0  0  0  0  0
   33.2424  -20.6386   85.1587 H   0  0  0  0  0  0
   32.4008  -20.1613   86.6721 H   0  0  0  0  0  0
   33.8524  -19.2544   86.1274 H   0  0  0  0  0  0
   31.9067  -17.5391   86.6281 H   0  0  0  0  0  0
   30.1444  -17.5235   84.2210 H   0  0  0  0  0  0
   30.2702  -15.4892   86.4915 H   0  0  0  0  0  0
   28.1189  -17.5936   85.8356 H   0  0  0  0  0  0
   29.4100  -17.8180   87.0642 H   0  0  0  0  0  0
   29.4633  -14.4324   84.4055 H   0  0  0  0  0  0
   28.1523  -14.5778   85.6249 H   0  0  0  0  0  0
   28.2185  -15.7165   84.2372 H   0  0  0  0  0  0
   27.2902  -17.2077   88.0900 H   0  0  0  0  0  0
   27.2304  -15.7002   87.1151 H   0  0  0  0  0  0
   28.5214  -15.9246   88.3437 H   0  0  0  0  0  0
   30.8626  -16.8915   82.3287 H   0  0  0  0  0  0
   32.3255  -14.2357   82.4593 H   0  0  0  0  0  0
   33.8721  -15.9293   81.7527 H   0  0  0  0  0  0
   32.7252  -16.5168   80.5012 H   0  0  0  0  0  0
   34.4056  -15.0866   79.5791 H   0  0  0  0  0  0
   30.8339  -12.6874   81.7824 H   0  0  0  0  0  0
   28.5992  -13.5236   80.1102 H   0  0  0  0  0  0
   28.3603  -10.9237   79.8116 H   0  0  0  0  0  0
   27.1352  -12.2506   81.5522 H   0  0  0  0  0  0
   27.6342  -10.6394   82.1700 H   0  0  0  0  0  0
   28.5597  -12.1063   82.6369 H   0  0  0  0  0  0
   28.0182  -12.4556   78.0542 H   0  0  0  0  0  0
   30.4127  -12.9869   76.2789 H   0  0  0  0  0  0
   27.5395  -13.9065   75.9801 H   0  0  0  0  0  0
   28.6876  -13.9273   74.5987 H   0  0  0  0  0  0
   30.2368  -15.3372   75.8269 H   0  0  0  0  0  0
   29.2580  -15.1857   77.3255 H   0  0  0  0  0  0
   27.5228  -16.5640   76.4044 H   0  0  0  0  0  0
   28.3275  -16.5909   74.7987 H   0  0  0  0  0  0
   30.2488  -17.4705   76.9406 H   0  0  0  0  0  0
   27.2351  -18.4876   75.0922 H   0  0  0  0  0  0
   27.6768  -20.3328   75.2654 H   0  0  0  0  0  0
   30.8524  -19.6084   76.9227 H   0  0  0  0  0  0
   29.6185  -10.3492   77.2229 H   0  0  0  0  0  0
   28.8067   -9.0021   74.6066 H   0  0  0  0  0  0
   28.3125   -8.0203   76.8001 H   0  0  0  0  0  0
   30.0565   -8.0433   77.2294 H   0  0  0  0  0  0
   30.5574   -6.2796   75.7557 H   0  0  0  0  0  0
   29.0005   -6.4488   74.8760 H   0  0  0  0  0  0
   27.7682   -5.4472   76.6153 H   0  0  0  0  0  0
   29.0659   -5.7230   77.8263 H   0  0  0  0  0  0
   29.2921   -3.8174   75.4511 H   0  0  0  0  0  0
   28.8264   -3.3335   77.1172 H   0  0  0  0  0  0
   31.1640   -4.3796   77.8207 H   0  0  0  0  0  0
   30.0679   -7.7343   73.3080 H   0  0  0  0  0  0
   32.8783   -8.8318   73.1216 H   0  0  0  0  0  0
   31.7033   -8.8228   71.0260 H   0  0  0  0  0  0
   31.1955   -7.1128   71.2367 H   0  0  0  0  0  0
   32.7122   -5.3422   70.9081 H   0  0  0  0  0  0
   34.0118   -9.3106   70.2757 H   0  0  0  0  0  0
   34.7220   -4.5106   69.7250 H   0  0  0  0  0  0
   35.9806   -8.4965   68.9400 H   0  0  0  0  0  0
   36.6806   -4.8575   68.5309 H   0  0  0  0  0  0
   34.8453   -8.3078   72.5472 H   0  0  0  0  0  0
   37.2482   -7.6686   73.9975 H   0  0  0  0  0  0
   36.8974   -7.0946   72.3320 H   0  0  0  0  0  0
   36.6430   -5.7170   74.9359 H   0  0  0  0  0  0
   36.9635   -5.0543   73.2974 H   0  0  0  0  0  0
   34.7305   -4.6810   72.9053 H   0  0  0  0  0  0
   34.5607   -4.8259   74.6877 H   0  0  0  0  0  0
   34.5029   -7.1787   75.7437 H   0  0  0  0  0  0
   33.8045   -9.8894   76.5944 H   0  0  0  0  0  0
   35.5214  -10.1145   78.4413 H   0  0  0  0  0  0
   36.3193  -10.0461   76.8334 H   0  0  0  0  0  0
   33.2236   -9.8670   79.1209 H   0  0  0  0  0  0
   31.6099   -7.4134   79.4066 H   0  0  0  0  0  0
   32.2270   -9.6277   81.3965 H   0  0  0  0  0  0
   31.0222   -8.3193   81.6478 H   0  0  0  0  0  0
   34.6475   -8.6847   80.8700 H   0  0  0  0  0  0
   34.9015   -6.3653   82.7562 H   0  0  0  0  0  0
   37.0882   -7.3990   83.2468 H   0  0  0  0  0  0
   35.8421   -8.6839   83.0952 H   0  0  0  0  0  0
   36.1767  -10.4737   81.2518 H   0  0  0  0  0  0
   38.8625   -6.1884   81.9114 H   0  0  0  0  0  0
   40.5612   -9.8103   78.8915 H   0  0  0  0  0  0
   41.0599   -5.9635   80.7236 H   0  0  0  0  0  0
   41.8165   -7.7205   79.1491 H   0  0  0  0  0  0
   35.7622   -6.8404   79.3561 H   0  0  0  0  0  0
   37.9275   -4.9196   79.5974 H   0  0  0  0  0  0
   36.3458   -5.8784   77.1566 H   0  0  0  0  0  0
   37.7788   -4.8052   77.0107 H   0  0  0  0  0  0
   38.9772   -6.5937   76.8640 H   0  0  0  0  0  0
   38.6113   -6.9109   78.5938 H   0  0  0  0  0  0
   34.5901   -4.3940   79.5124 H   0  0  0  0  0  0
   34.9448   -1.6816   78.1430 H   0  0  0  0  0  0
   32.4929   -3.2451   79.0686 H   0  0  0  0  0  0
   32.4468   -1.6105   78.3254 H   0  0  0  0  0  0
   33.8135   -2.5897   76.3290 H   0  0  0  0  0  0
   33.5573   -4.2187   77.0414 H   0  0  0  0  0  0
   35.4311   -1.3364   82.0753 H   0  0  0  0  0  0
  1  2  2  0  0  0
  1  3  1  0  0  0
  1  4  1  0  0  0
  3108  1  0  0  0
  3109  1  0  0  0
  3110  1  0  0  0
  4  5  1  0  0  0
  4111  1  0  0  0
  5  6  1  0  0  0
  5  8  1  0  0  0
  5112  1  0  0  0
  6  7  2  0  0  0
  6 12  1  0  0  0
  8  9  1  0  0  0
  8 10  1  0  0  0
  8113  1  0  0  0
  9 11  1  0  0  0
  9114  1  0  0  0
  9115  1  0  0  0
 10116  1  0  0  0
 10117  1  0  0  0
 10118  1  0  0  0
 11119  1  0  0  0
 11120  1  0  0  0
 11121  1  0  0  0
 12 13  1  0  0  0
 12122  1  0  0  0
 13 14  1  0  0  0
 13 16  1  0  0  0
 13123  1  0  0  0
 14 15  2  0  0  0
 14 18  1  0  0  0
 16 17  1  0  0  0
 16124  1  0  0  0
 16125  1  0  0  0
 17126  1  0  0  0
 18 19  1  0  0  0
 18127  1  0  0  0
 19 20  1  0  0  0
 19 22  1  0  0  0
 19128  1  0  0  0
 20 21  2  0  0  0
 20 25  1  0  0  0
 22 23  1  0  0  0
 22 24  1  0  0  0
 22129  1  0  0  0
 23 75  1  0  0  0
 24130  1  0  0  0
 24131  1  0  0  0
 24132  1  0  0  0
 25 26  1  0  0  0
 25133  1  0  0  0
 26 27  1  0  0  0
 26 29  1  0  0  0
 26134  1  0  0  0
 27 28  2  0  0  0
 27 36  1  0  0  0
 29 30  1  0  0  0
 29135  1  0  0  0
 29136  1  0  0  0
 30 31  1  0  0  0
 30137  1  0  0  0
 30138  1  0  0  0
 31 32  1  0  0  0
 31139  1  0  0  0
 31140  1  0  0  0
 32 33  1  0  0  0
 32141  1  0  0  0
 33 34  1  0  0  0
 33 35  2  0  0  0
 34142  1  0  0  0
 34143  1  0  0  0
 35144  1  0  0  0
 36 37  1  0  0  0
 36145  1  0  0  0
 37 38  1  0  0  0
 37 40  1  0  0  0
 37146  1  0  0  0
 38 39  2  0  0  0
 38 45  1  0  0  0
 40 41  1  0  0  0
 40147  1  0  0  0
 40148  1  0  0  0
 41 42  1  0  0  0
 41149  1  0  0  0
 41150  1  0  0  0
 42 43  1  0  0  0
 42151  1  0  0  0
 42152  1  0  0  0
 43 44  1  0  0  0
 43153  1  0  0  0
 43154  1  0  0  0
 44105  1  0  0  0
 44155  1  0  0  0
 45 46  1  0  0  0
 45156  1  0  0  0
 46 47  1  0  0  0
 46 49  1  0  0  0
 46157  1  0  0  0
 47 48  2  0  0  0
 47 57  1  0  0  0
 49 50  1  0  0  0
 49158  1  0  0  0
 49159  1  0  0  0
 50 51  2  0  0  0
 50 52  1  0  0  0
 51 53  1  0  0  0
 51160  1  0  0  0
 52 54  2  0  0  0
 52161  1  0  0  0
 53 55  2  0  0  0
 53162  1  0  0  0
 54 55  1  0  0  0
 54163  1  0  0  0
 55 56  1  0  0  0
 56164  1  0  0  0
 57 58  1  0  0  0
 57 63  1  0  0  0
 58 59  1  0  0  0
 58 61  1  0  0  0
 58165  1  0  0  0
 59 60  2  0  0  0
 59 64  1  0  0  0
 61 62  1  0  0  0
 61166  1  0  0  0
 61167  1  0  0  0
 62 63  1  0  0  0
 62168  1  0  0  0
 62169  1  0  0  0
 63170  1  0  0  0
 63171  1  0  0  0
 64 65  1  0  0  0
 64172  1  0  0  0
 65 66  1  0  0  0
 65 68  1  0  0  0
 65173  1  0  0  0
 66 67  2  0  0  0
 66 70  1  0  0  0
 68 69  1  0  0  0
 68174  1  0  0  0
 68175  1  0  0  0
 69 97  1  0  0  0
 70 71  1  0  0  0
 70176  1  0  0  0
 71 72  1  0  0  0
 71 74  1  0  0  0
 71177  1  0  0  0
 72 73  2  0  0  0
 72 77  1  0  0  0
 74 75  1  0  0  0
 74178  1  0  0  0
 74179  1  0  0  0
 75 76  2  0  0  0
 77 78  1  0  0  0
 77180  1  0  0  0
 78 79  1  0  0  0
 78 81  1  0  0  0
 78181  1  0  0  0
 79 80  2  0  0  0
 79 91  1  0  0  0
 81 82  1  0  0  0
 81182  1  0  0  0
 81183  1  0  0  0
 82 83  2  0  0  0
 82 84  1  0  0  0
 83 85  1  0  0  0
 83184  1  0  0  0
 84 86  2  0  0  0
 84 87  1  0  0  0
 85 86  1  0  0  0
 86 88  1  0  0  0
 87 89  2  0  0  0
 87185  1  0  0  0
 88 90  2  0  0  0
 88186  1  0  0  0
 89 90  1  0  0  0
 89187  1  0  0  0
 90188  1  0  0  0
 91 92  1  0  0  0
 91189  1  0  0  0
 92 93  1  0  0  0
 92 95  1  0  0  0
 92190  1  0  0  0
 93 94  2  0  0  0
 93 99  1  0  0  0
 95 96  1  0  0  0
 95191  1  0  0  0
 95192  1  0  0  0
 96 97  1  0  0  0
 96193  1  0  0  0
 96194  1  0  0  0
 97 98  2  0  0  0
 99100  1  0  0  0
 99195  1  0  0  0
100101  1  0  0  0
100103  1  0  0  0
100196  1  0  0  0
101102  2  0  0  0
101107  1  0  0  0
103104  1  0  0  0
103197  1  0  0  0
103198  1  0  0  0
104105  1  0  0  0
104199  1  0  0  0
104200  1  0  0  0
105106  2  0  0  0
107201  1  0  0  0
M  END
> <s_m_source_file>
../4ktu_ligand.sdf

> <i_m_source_file_index>
1

> <s_epik_input>
W0hdL049QyhbTkgyXSlcW05IXVtDSDJdW0NIMl1bQ0gyXVtDQEBIXShDKD1PKVtOSF1bQ0BIXTEyKVtOSF1DKD1PKVtDQEBIXShbTkhdQyg9TylbQ0BIXShbQ0gyXVtPSF0pW05IXUMoPU8pW0NAQEhdKFtOSF1DKD1PKVtDSDNdKVtDQEBIXShbQ0gzXSlbQ0gyXVtDSDNdKVtDQEBIXShbQ0gzXSlPQyg9TylbQ0gyXVtDQEBIXTNbTkhdQyg9TylbQ0BASF0oW05IXUMoPU8pW0NASF00TihbQ0gyXVtDSDJdW0NIMl00KUMoPU8pW0NAQEhdKFtOSF1DMT1PKVtDSDJdYzVbY0hdW2NIXWMoW09IXSlbY0hdW2NIXTUpW0NIMl1PQyg9TylbQ0gyXVtDSDJdW0NAQEhdKEMoPU8pW05IXVtDQEhdKEMoPU8pW09IXSlbQ0gyXVtDSDJdQyg9TylbTkhdW0NIMl1bQ0gyXVtDSDJdW0NIMl0yKVtOSF1DKD1PKVtDQEBIXShbTkhdQzM9TylbQ0gyXWM2W2NIXVtuSF1jKGM2NylbY0hdW2NIXVtjSF1bY0hdNw==

> <s_epik_cmdline>
J2VwaWtfYXBwJywgJy1pbWFlJywgJ2xpZ2FuZF9wcm8ubWFlJywgJy1vbWFlJywgJ2xpZ2FuZF9wcmVwLm1hZScsICctbXMnLCAnMScsICctcGgnLCAnNycsICctcGh0JywgJzAuNScsICctbnQn

> <s_epik_pKa_notes>
Molecule size exceeds maximum supported for generating protonation states

> <s_epik_Chemistry_Notes>
This compound has an ester and may undergo hydrolysis at high or low pH. This compound has an imine and may undergo hydrolysis.

$$$$
