4kup_ligand
                    3D
 Schrodinger Suite 2020-3.
 51 53  0  0  1  0            999 V2000
   26.0280    7.4640   56.7940 C   0  0  0  0  0  0
   25.1240    8.6730   56.7550 C   0  0  0  0  0  0
   25.4960    9.8730   57.4150 C   0  0  0  0  0  0
   26.8330   10.0810   58.1650 C   0  0  0  0  0  0
   24.6240   10.9750   57.3800 C   0  0  0  0  0  0
   23.4110   10.8860   56.7140 C   0  0  0  0  0  0
   22.4630   12.0890   56.6830 C   0  0  0  0  0  0
   23.0470    9.7040   56.0700 C   0  0  0  0  0  0
   23.8910    8.5820   56.0810 C   0  0  0  0  0  0
   23.4150    7.3020   55.3600 C   0  0  0  0  0  0
   26.4610    7.0980   57.9260 N   0  0  0  0  0  0
   27.1500    5.8620   57.9970 N   0  0  0  0  0  0
   27.8020    5.4980   59.1010 C   0  0  0  0  0  0
   27.8580    6.1710   60.1200 O   0  0  0  0  0  0
   28.4870    4.1640   59.0350 C   0  0  1  0  0  0
   29.9650    4.3820   59.0310 N   0  3  0  0  0  0
   28.0000    3.2270   60.1630 C   0  0  0  0  0  0
   26.5000    3.1050   60.3240 C   0  0  0  0  0  0
   25.5830    4.0400   60.7040 C   0  0  0  0  0  0
   24.3670    3.5120   60.7450 N   0  3  0  0  0  0
   24.4300    2.1830   60.4290 C   0  0  0  0  0  0
   23.3950    1.2350   60.3480 C   0  0  0  0  0  0
   23.7500   -0.0690   59.9960 C   0  0  0  0  0  0
   25.0910   -0.4120   59.7120 C   0  0  0  0  0  0
   26.1240    0.5300   59.7840 C   0  0  0  0  0  0
   25.7520    1.8290   60.1380 C   0  0  0  0  0  0
   26.3134    6.9068   55.8895 H   0  0  0  0  0  0
   27.4248    9.1547   58.1233 H   0  0  0  0  0  0
   26.6284   10.3384   59.2147 H   0  0  0  0  0  0
   27.3965   10.8978   57.6903 H   0  0  0  0  0  0
   24.9025   11.9034   57.8785 H   0  0  0  0  0  0
   22.9130   12.9249   57.2387 H   0  0  0  0  0  0
   21.5051   11.8130   57.1480 H   0  0  0  0  0  0
   22.2902   12.3929   55.6400 H   0  0  0  0  0  0
   22.0910    9.6502   55.5492 H   0  0  0  0  0  0
   24.1816    6.5192   55.4583 H   0  0  0  0  0  0
   23.2493    7.5212   54.2949 H   0  0  0  0  0  0
   22.4752    6.9538   55.8133 H   0  0  0  0  0  0
   27.1531    5.1835   57.1312 H   0  0  0  0  0  0
   28.2420    3.6717   58.0823 H   0  0  0  0  0  0
   30.2340    5.0559   58.2043 H   0  0  0  0  0  0
   30.4775    3.4176   58.8995 H   0  0  0  0  0  0
   30.2717    4.8329   59.9863 H   0  0  0  0  0  0
   28.3709    2.2079   59.9788 H   0  0  0  0  0  0
   28.3822    3.5872   61.1295 H   0  0  0  0  0  0
   25.9053    5.0681   60.9257 H   0  0  0  0  0  0
   22.3591    1.5063   60.5514 H   0  0  0  0  0  0
   22.9782   -0.8366   59.9393 H   0  0  0  0  0  0
   25.3275   -1.4378   59.4292 H   0  0  0  0  0  0
   27.1605    0.2647   59.5755 H   0  0  0  0  0  0
   23.5030    4.1406   61.0064 H   0  0  0  0  0  0
  1  2  1  0  0  0
  1 11  2  0  0  0
  1 27  1  0  0  0
  2  3  2  0  0  0
  2  9  1  0  0  0
  3  4  1  0  0  0
  3  5  1  0  0  0
  4 28  1  0  0  0
  4 29  1  0  0  0
  4 30  1  0  0  0
  5  6  2  0  0  0
  5 31  1  0  0  0
  6  7  1  0  0  0
  6  8  1  0  0  0
  7 32  1  0  0  0
  7 33  1  0  0  0
  7 34  1  0  0  0
  8  9  2  0  0  0
  8 35  1  0  0  0
  9 10  1  0  0  0
 10 36  1  0  0  0
 10 37  1  0  0  0
 10 38  1  0  0  0
 11 12  1  0  0  0
 12 13  1  0  0  0
 12 39  1  0  0  0
 13 14  2  0  0  0
 13 15  1  0  0  0
 15 16  1  0  0  0
 15 17  1  0  0  0
 15 40  1  0  0  0
 16 41  1  0  0  0
 16 42  1  0  0  0
 16 43  1  0  0  0
 17 18  1  0  0  0
 17 44  1  0  0  0
 17 45  1  0  0  0
 18 19  2  0  0  0
 18 26  1  0  0  0
 19 20  1  0  0  0
 19 46  1  0  0  0
 20 21  1  0  0  0
 20 51  1  0  0  0
 21 22  1  0  0  0
 21 26  2  0  0  0
 22 23  2  0  0  0
 22 47  1  0  0  0
 23 24  1  0  0  0
 23 48  1  0  0  0
 24 25  2  0  0  0
 24 49  1  0  0  0
 25 26  1  0  0  0
 25 50  1  0  0  0
M  CHG  2  16   1  20   1
M  END
> <s_m_source_file>
../4kup_ligand.sdf

> <i_m_source_file_index>
1

> <s_epik_input>
W0NIM11jMVtjSF1jKFtDSDNdKVtjSF1jKFtDSDNdKWMxL1tDSF09Ti9bTkhdQyg9TylbQ0BASF0oW05IMytdKVtDSDJdYyhbY0hdW25IXTIpYyhjMjMpW2NIXVtjSF1bY0hdW2NIXTM=

> <s_epik_cmdline>
J2VwaWtfYXBwJywgJy1pbWFlJywgJ2xpZ2FuZF9wcm8ubWFlJywgJy1vbWFlJywgJ2xpZ2FuZF9wcmVwLm1hZScsICctbXMnLCAnMScsICctcGgnLCAnNycsICctcGh0JywgJzAuNScsICctbnQn

> <r_epik_Ionization_Penalty>
  0.1776

> <r_epik_Ionization_Penalty_Charging>
  0.1774

> <r_epik_Ionization_Penalty_Neutral>
  0.0002

> <r_epik_State_Penalty>
  0.1669

> <r_epik_Charging_Adjusted_Penalty>
0.344295978057535

> <i_epik_Tot_Q>
2

> <i_epik_Tot_abs_Q>
2

> <s_epik_Chemistry_Notes>
This compound has an imine and may undergo hydrolysis.

$$$$
