4kv9_ligand
                    3D
 Schrodinger Suite 2020-3.
 40 42  0  0  1  0            999 V2000
   -3.5460  -18.8740   20.7690 P   0  0  0  0  0  0
   -4.5910  -19.9390   20.6760 O   0  0  0  0  0  0
   -2.6690  -18.8510   19.5090 O   0  5  0  0  0  0
   -4.1050  -17.4830   20.8810 O   0  5  0  0  0  0
   -2.5940  -19.0620   22.0540 O   0  0  0  0  0  0
   -2.3090  -20.3890   22.9320 P   0  0  1  0  0  0
   -3.5130  -20.7250   23.7900 O   0  5  0  0  0  0
   -1.8820  -21.5520   22.0870 O   0  0  0  0  0  0
   -1.1680  -19.8050   23.8880 O   0  0  0  0  0  0
    0.1320  -19.5180   23.3860 C   0  0  0  0  0  0
    1.1280  -19.6020   24.5420 C   0  0  1  0  0  0
    0.6520  -18.7860   25.6260 O   0  0  0  0  0  0
    1.2160  -21.0210   25.0780 C   0  0  1  0  0  0
    2.5670  -21.2740   25.4670 O   0  0  0  0  0  0
    0.3920  -20.9620   26.3440 C   0  0  1  0  0  0
    0.8210  -21.9290   27.3040 O   0  0  0  0  0  0
    0.6460  -19.5510   26.8230 C   0  0  2  0  0  0
   -0.4760  -19.0750   27.6540 N   0  0  0  0  0  0
   -1.7690  -19.4160   27.5100 C   0  0  0  0  0  0
   -2.5350  -18.7500   28.4320 N   0  0  0  0  0  0
   -1.7190  -17.9640   29.1530 C   0  0  0  0  0  0
   -1.8600  -17.0190   30.2910 C   0  0  0  0  0  0
   -2.9640  -16.7680   30.8010 O   0  0  0  0  0  0
   -0.7560  -16.4150   30.7510 N   0  3  0  0  0  0
    0.4650  -16.6380   30.1880 C   0  0  0  0  0  0
    1.5380  -15.9920   30.7070 N   0  0  0  0  0  0
    0.6700  -17.5000   29.1680 N   0  0  0  0  0  0
   -0.3620  -18.1760   28.6170 C   0  0  0  0  0  0
    0.3954  -20.2514   22.6096 H   0  0  0  0  0  0
    0.1431  -18.5065   22.9538 H   0  0  0  0  0  0
    2.1107  -19.2335   24.2125 H   0  0  0  0  0  0
    0.9346  -21.8061   24.3608 H   0  0  0  0  0  0
    3.3530  -21.3583   24.7021 H   0  0  0  0  0  0
   -0.6672  -21.2326   26.2224 H   0  0  0  0  0  0
    0.7006  -23.0023   27.0952 H   0  0  0  0  0  0
    1.5771  -19.4355   27.3973 H   0  0  0  0  0  0
   -2.1517  -20.1183   26.7695 H   0  0  0  0  0  0
    1.4046  -15.2838   31.5380 H   0  0  0  0  0  0
    2.5420  -16.1761   30.2971 H   0  0  0  0  0  0
   -0.8227  -15.7210   31.6018 H   0  0  0  0  0  0
  1  2  2  0  0  0
  1  3  1  0  0  0
  1  4  1  0  0  0
  1  5  1  0  0  0
  5  6  1  0  0  0
  6  7  1  0  0  0
  6  8  2  0  0  0
  6  9  1  0  0  0
  9 10  1  0  0  0
 10 11  1  0  0  0
 10 29  1  0  0  0
 10 30  1  0  0  0
 11 12  1  0  0  0
 11 13  1  0  0  0
 11 31  1  0  0  0
 12 17  1  0  0  0
 13 14  1  0  0  0
 13 15  1  0  0  0
 13 32  1  0  0  0
 14 33  1  0  0  0
 15 16  1  0  0  0
 15 17  1  0  0  0
 15 34  1  0  0  0
 16 35  1  0  0  0
 17 18  1  0  0  0
 17 36  1  0  0  0
 18 19  1  0  0  0
 18 28  1  0  0  0
 19 20  2  0  0  0
 19 37  1  0  0  0
 20 21  1  0  0  0
 21 22  1  0  0  0
 21 28  2  0  0  0
 22 23  2  0  0  0
 22 24  1  0  0  0
 24 25  1  0  0  0
 24 40  1  0  0  0
 25 26  1  0  0  0
 25 27  2  0  0  0
 26 38  1  0  0  0
 26 39  1  0  0  0
 27 28  1  0  0  0
M  CHG  4   3  -1   4  -1   7  -1  24   1
M  END
> <s_m_source_file>
../4kv9_ligand.sdf

> <i_m_source_file_index>
1

> <s_epik_input>
Tz1QKFtPSF0pKFtPSF0pT1tQQF0oPU8pKFtPSF0pT1tDSDJdW0NASF0xT1tDQEhdKFtDQEhdKFtPSF0pW0NAQEhdMVtPSF0pbihbY0hdbjIpYyhjMjMpW25IXWMoPU5cW0hdKVxbbkhdYzM9Tw==

> <s_epik_cmdline>
J2VwaWtfYXBwJywgJy1pbWFlJywgJ2xpZ2FuZF9wcm8ubWFlJywgJy1vbWFlJywgJ2xpZ2FuZF9wcmVwLm1hZScsICctbXMnLCAnMScsICctcGgnLCAnNycsICctcGh0JywgJzAuNScsICctbnQn

> <r_epik_Ionization_Penalty>
  2.4918

> <r_epik_Ionization_Penalty_Charging>
  2.4918

> <r_epik_Ionization_Penalty_Neutral>
  0.0000

> <r_epik_State_Penalty>
  0.1302

> <r_epik_Charging_Adjusted_Penalty>
2.62193179535438

> <i_epik_Tot_Q>
-2

> <i_epik_Tot_abs_Q>
4

> <s_epik_Chemistry_Notes>
This compound has an imine and may undergo hydrolysis. This compound contains an acetal/aminal-like group ( X-CH(R)-Y where X, Y are N, S, or O) that may be acid/base labile, releasing an aldehyde.

$$$$
