4kva_ligand
                    3D
 Schrodinger Suite 2020-3.
 45 47  0  0  1  0            999 V2000
  -39.0700  -19.7150  106.4760 P   0  0  0  0  0  0
  -40.4070  -20.4090  106.3980 O   0  0  0  0  0  0
  -39.0390  -18.5820  105.4790 O   0  5  0  0  0  0
  -37.9730  -20.6990  106.1430 O   0  0  0  0  0  0
  -38.8210  -19.0910  107.9470 O   0  0  0  0  0  0
  -39.8830  -19.1450  109.1640 P   0  0  2  0  0  0
  -40.8100  -20.3320  109.0560 O   0  5  0  0  0  0
  -40.6660  -17.8570  109.2030 O   0  0  0  0  0  0
  -38.9810  -19.2940  110.4930 O   0  0  0  0  0  0
  -38.8900  -20.6900  111.2930 P   0  0  2  0  0  0
  -38.6800  -21.8230  110.3150 O   0  5  0  0  0  0
  -40.1190  -20.9220  112.1400 O   0  0  0  0  0  0
  -37.5710  -20.5640  112.2020 O   0  0  0  0  0  0
  -36.6140  -19.5450  112.0300 C   0  0  0  0  0  0
  -35.5120  -19.7840  113.0530 C   0  0  1  0  0  0
  -35.7510  -18.9200  114.1450 O   0  0  0  0  0  0
  -35.5800  -21.2080  113.5790 C   0  0  1  0  0  0
  -34.2990  -21.7910  113.5460 O   0  0  0  0  0  0
  -36.0510  -21.0920  115.0130 C   0  0  1  0  0  0
  -35.2920  -21.9200  115.8610 O   0  0  0  0  0  0
  -35.8500  -19.6290  115.3630 C   0  0  2  0  0  0
  -37.0050  -19.1160  116.1160 N   0  0  0  0  0  0
  -38.3160  -19.4840  115.9610 C   0  0  0  0  0  0
  -39.0640  -18.7790  116.8400 N   0  0  0  0  0  0
  -38.2480  -17.9700  117.5530 C   0  0  0  0  0  0
  -38.4870  -17.0530  118.5690 C   0  0  0  0  0  0
  -39.6320  -16.8640  118.9740 O   0  0  0  0  0  0
  -37.4330  -16.3550  119.1210 N   0  3  0  0  0  0
  -36.1490  -16.5700  118.6620 C   0  0  0  0  0  0
  -35.1300  -15.8980  119.1890 N   0  0  0  0  0  0
  -35.9190  -17.4840  117.6530 N   0  0  0  0  0  0
  -36.9510  -18.1710  117.1070 C   0  0  0  0  0  0
  -37.9797  -21.2238  105.1763 H   0  0  0  0  0  0
  -36.2095  -19.5906  111.0081 H   0  0  0  0  0  0
  -37.0876  -18.5657  112.1935 H   0  0  0  0  0  0
  -34.5203  -19.5581  112.6342 H   0  0  0  0  0  0
  -36.1967  -21.8802  112.9644 H   0  0  0  0  0  0
  -33.7940  -21.9551  112.5826 H   0  0  0  0  0  0
  -37.0729  -21.4626  115.1815 H   0  0  0  0  0  0
  -35.3266  -23.0126  115.7380 H   0  0  0  0  0  0
  -34.9387  -19.4543  115.9538 H   0  0  0  0  0  0
  -38.6920  -20.2198  115.2501 H   0  0  0  0  0  0
  -35.3090  -15.1690  119.9930 H   0  0  0  0  0  0
  -34.1079  -16.0711  118.8210 H   0  0  0  0  0  0
  -37.6162  -15.6281  119.9260 H   0  0  0  0  0  0
  1  2  2  0  0  0
  1  3  1  0  0  0
  1  4  1  0  0  0
  1  5  1  0  0  0
  4 33  1  0  0  0
  5  6  1  0  0  0
  6  7  1  0  0  0
  6  8  2  0  0  0
  6  9  1  0  0  0
  9 10  1  0  0  0
 10 11  1  0  0  0
 10 12  2  0  0  0
 10 13  1  0  0  0
 13 14  1  0  0  0
 14 15  1  0  0  0
 14 34  1  0  0  0
 14 35  1  0  0  0
 15 16  1  0  0  0
 15 17  1  0  0  0
 15 36  1  0  0  0
 16 21  1  0  0  0
 17 18  1  0  0  0
 17 19  1  0  0  0
 17 37  1  0  0  0
 18 38  1  0  0  0
 19 20  1  0  0  0
 19 21  1  0  0  0
 19 39  1  0  0  0
 20 40  1  0  0  0
 21 22  1  0  0  0
 21 41  1  0  0  0
 22 23  1  0  0  0
 22 32  1  0  0  0
 23 24  2  0  0  0
 23 42  1  0  0  0
 24 25  1  0  0  0
 25 26  1  0  0  0
 25 32  2  0  0  0
 26 27  2  0  0  0
 26 28  1  0  0  0
 28 29  1  0  0  0
 28 45  1  0  0  0
 29 30  1  0  0  0
 29 31  2  0  0  0
 30 43  1  0  0  0
 30 44  1  0  0  0
 31 32  1  0  0  0
M  CHG  4   3  -1   7  -1  11  -1  28   1
M  END
> <s_m_source_file>
../4kva_ligand.sdf

> <i_m_source_file_index>
1

> <s_epik_input>
Tz1QKFtPSF0pKFtPSF0pT1tQQEBdKD1PKShbT0hdKU9bUEBAXSg9TykoW09IXSlPW0NIMl1bQ0BIXTFPW0NASF0oW0NASF0oW09IXSlbQ0BASF0xW09IXSluKFtjSF1uMiljKGMyMylbbkhdYyg9TlxbSF0pXFtuSF1jMz1P

> <s_epik_cmdline>
J2VwaWtfYXBwJywgJy1pbWFlJywgJ2xpZ2FuZF9wcm8ubWFlJywgJy1vbWFlJywgJ2xpZ2FuZF9wcmVwLm1hZScsICctbXMnLCAnMScsICctcGgnLCAnNycsICctcGh0JywgJzAuNScsICctbnQn

> <r_epik_Ionization_Penalty>
  3.6149

> <r_epik_Ionization_Penalty_Charging>
  2.3889

> <r_epik_Ionization_Penalty_Neutral>
  1.2259

> <r_epik_State_Penalty>
  0.0136

> <r_epik_Charging_Adjusted_Penalty>
2.40246252490279

> <i_epik_Tot_Q>
-2

> <i_epik_Tot_abs_Q>
4

> <s_epik_Chemistry_Notes>
This compound has an imine and may undergo hydrolysis. This compound contains an acetal/aminal-like group ( X-CH(R)-Y where X, Y are N, S, or O) that may be acid/base labile, releasing an aldehyde.

$$$$
