4kvm_ligand
                    3D
 Schrodinger Suite 2020-3.
131133  0  0  1  0            999 V2000
  -47.9410   -9.5010  -81.6200 N   0  3  0  0  0  0
  -46.5620   -9.3930  -81.1490 C   0  0  2  0  0  0
  -45.6270   -9.9400  -82.1830 C   0  0  0  0  0  0
  -45.9570  -10.8770  -82.8990 O   0  0  0  0  0  0
  -46.3570  -10.2420  -79.9020 C   0  0  0  0  0  0
  -46.8280  -11.5270  -80.1740 O   0  0  0  0  0  0
  -44.4330   -9.3900  -82.2390 N   0  0  0  0  0  0
  -43.5510   -9.7350  -83.3270 C   0  0  2  0  0  0
  -42.6090  -10.7570  -82.8080 C   0  0  0  0  0  0
  -42.3280  -10.7910  -81.6070 O   0  0  0  0  0  0
  -42.7840   -8.5230  -83.7970 C   0  0  0  0  0  0
  -42.0750  -11.5440  -83.7310 N   0  0  0  0  0  0
  -41.2140  -12.6450  -83.3830 C   0  0  2  0  0  0
  -39.7820  -12.4350  -83.8260 C   0  0  0  0  0  0
  -39.4260  -12.6680  -84.9960 O   0  0  0  0  0  0
  -41.7330  -13.9350  -84.0030 C   0  0  0  0  0  0
  -40.7340  -14.9360  -83.9060 O   0  0  0  0  0  0
  -38.9610  -12.0160  -82.8730 N   0  0  0  0  0  0
  -37.5170  -12.0510  -83.0420 C   0  0  2  0  0  0
  -36.9570  -13.2470  -82.2630 C   0  0  0  0  0  0
  -37.6156  -13.7577  -81.3180 O   0  5  0  0  0  0
  -36.8860  -10.7350  -82.5720 C   0  0  0  0  0  0
  -37.7510   -9.5060  -82.8330 C   0  0  0  0  0  0
  -37.8870   -9.1440  -84.3130 C   0  0  0  0  0  0
  -37.2200   -9.7850  -85.1590 O   0  0  0  0  0  0
  -38.6610   -8.2040  -84.6260 O   0  5  0  0  0  0
  -63.8630  -12.7460  -75.2790 N   0  0  0  0  0  0
  -64.4790  -11.6170  -74.9060 C   0  0  0  0  0  0
  -64.0050  -10.4000  -75.2390 N   0  0  0  0  0  0
  -62.8690  -10.2760  -75.9790 C   0  0  0  0  0  0
  -62.2160  -11.4200  -76.3790 C   0  0  0  0  0  0
  -62.7430  -12.6870  -76.0080 C   0  0  0  0  0  0
  -62.0630  -13.8930  -76.4230 N   0  0  0  0  0  0
  -61.1380  -11.0270  -77.0870 N   0  0  0  0  0  0
  -61.0920   -9.6980  -77.1480 C   0  0  0  0  0  0
  -62.1400   -9.2220  -76.4850 N   0  0  0  0  0  0
  -62.3920   -7.8570  -76.3460 C   0  0  0  0  0  0
  -63.5350   -7.2410  -75.8390 C   0  0  0  0  0  0
  -64.7440   -7.8330  -75.3360 O   0  5  0  0  0  0
  -63.2470   -5.8340  -75.9170 C   0  0  0  0  0  0
  -64.0370   -4.7920  -75.5660 O   0  0  0  0  0  0
  -65.3040   -4.5500  -76.4350 P   0  0  0  0  0  0
  -65.6730   -5.9140  -77.1680 O   0  5  0  0  0  0
  -66.4410   -4.0870  -75.5730 O   0  0  0  0  0  0
  -64.9900   -3.5440  -77.4550 O   0  0  0  0  0  0
  -61.9830   -5.7330  -76.4650 C   0  0  0  0  0  0
  -61.5160   -6.9350  -76.6990 O   0  0  0  0  0  0
  -61.2860   -4.4490  -76.7230 C   0  0  0  0  0  0
  -59.9490   -4.2950  -76.1640 O   0  0  0  0  0  0
  -59.6240   -4.5890  -74.5990 P   0  0  2  0  0  0
  -60.9090   -4.8350  -73.7830 O   0  5  0  0  0  0
  -58.9240   -3.4360  -74.0700 O   0  0  0  0  0  0
  -58.6970   -5.8620  -74.4850 O   0  0  0  0  0  0
  -58.0210   -6.2140  -73.1130 P   0  0  2  0  0  0
  -58.9010   -7.2330  -72.2750 O   0  5  0  0  0  0
  -57.7980   -4.9240  -72.2750 O   0  0  0  0  0  0
  -56.6160   -6.8740  -73.4830 O   0  0  0  0  0  0
  -55.3910   -8.3860  -75.1230 C   0  0  0  0  0  0
  -56.4590   -7.3210  -74.8600 C   0  0  0  0  0  0
  -55.6890   -9.1650  -76.3310 C   0  0  0  0  0  0
  -54.0450   -7.7170  -75.2780 C   0  0  0  0  0  0
  -55.3170   -9.2880  -73.8640 C   0  0  1  0  0  0
  -56.5240  -10.0230  -73.8480 O   0  0  0  0  0  0
  -54.1970  -10.2760  -73.8040 C   0  0  0  0  0  0
  -54.4200  -11.4730  -74.1340 O   0  0  0  0  0  0
  -52.8390   -9.9110  -73.3600 N   0  0  0  0  0  0
  -51.9720  -11.1220  -73.4350 C   0  0  0  0  0  0
  -51.6850  -11.9210  -74.6970 C   0  0  0  0  0  0
  -51.9530  -11.4540  -76.1320 C   0  0  0  0  0  0
  -52.5820  -12.2010  -76.9560 O   0  0  0  0  0  0
  -51.5060  -10.1440  -76.6580 N   0  0  0  0  0  0
  -51.8080   -9.7730  -78.0830 C   0  0  0  0  0  0
  -50.7840  -10.1860  -79.0910 C   0  0  0  0  0  0
  -51.1560  -10.0890  -80.7760 S   0  0  0  0  0  0
  -50.4020   -8.6570  -81.4720 C   0  0  0  0  0  0
  -48.8890   -8.4760  -81.3090 C   0  0  1  0  0  0
  -48.4890   -8.0780  -80.0760 O   0  0  0  0  0  0
  -35.8311  -13.7221  -82.5698 O   0  0  0  0  0  0
  -47.9507   -9.5451  -82.7191 H   0  0  0  0  0  0
  -48.3972  -10.4152  -81.2124 H   0  0  0  0  0  0
  -46.3918   -8.3219  -80.9653 H   0  0  0  0  0  0
  -45.2862  -10.2745  -79.6525 H   0  0  0  0  0  0
  -46.9158   -9.8020  -79.0629 H   0  0  0  0  0  0
  -46.7745  -12.3075  -79.4007 H   0  0  0  0  0  0
  -44.1043   -8.6755  -81.4699 H   0  0  0  0  0  0
  -44.1557  -10.1262  -84.1584 H   0  0  0  0  0  0
  -43.4879   -7.7696  -84.1803 H   0  0  0  0  0  0
  -42.0892   -8.8166  -84.5976 H   0  0  0  0  0  0
  -42.2160   -8.0996  -82.9555 H   0  0  0  0  0  0
  -42.3049  -11.3380  -84.7868 H   0  0  0  0  0  0
  -41.2545  -12.6614  -82.2839 H   0  0  0  0  0  0
  -42.6358  -14.2623  -83.4665 H   0  0  0  0  0  0
  -41.9782  -13.7606  -85.0610 H   0  0  0  0  0  0
  -40.9253  -15.9442  -84.3022 H   0  0  0  0  0  0
  -39.3962  -11.6353  -81.9372 H   0  0  0  0  0  0
  -37.3249  -12.1687  -84.1187 H   0  0  0  0  0  0
  -36.7057  -10.7815  -81.4879 H   0  0  0  0  0  0
  -35.9316  -10.5782  -83.0960 H   0  0  0  0  0  0
  -38.7659   -9.6834  -82.4476 H   0  0  0  0  0  0
  -37.3128   -8.6345  -82.3246 H   0  0  0  0  0  0
  -65.3922  -11.6843  -74.3147 H   0  0  0  0  0  0
  -62.4654  -14.8767  -76.1393 H   0  0  0  0  0  0
  -61.1431  -13.8272  -77.0225 H   0  0  0  0  0  0
  -60.3292   -9.1052  -77.6528 H   0  0  0  0  0  0
  -66.8057   -4.7248  -74.7543 H   0  0  0  0  0  0
  -61.1700   -4.3063  -77.8075 H   0  0  0  0  0  0
  -61.8770   -3.6206  -76.3053 H   0  0  0  0  0  0
  -57.4054   -7.7550  -75.2148 H   0  0  0  0  0  0
  -56.1876   -6.4646  -75.4948 H   0  0  0  0  0  0
  -55.7331   -8.4918  -77.1998 H   0  0  0  0  0  0
  -56.6577   -9.6721  -76.2106 H   0  0  0  0  0  0
  -54.8996   -9.9148  -76.4878 H   0  0  0  0  0  0
  -54.0590   -7.0661  -76.1646 H   0  0  0  0  0  0
  -53.2660   -8.4842  -75.3986 H   0  0  0  0  0  0
  -53.8302   -7.1137  -74.3836 H   0  0  0  0  0  0
  -55.1948   -8.6647  -72.9659 H   0  0  0  0  0  0
  -57.4891   -9.4965  -73.8851 H   0  0  0  0  0  0
  -52.4196   -8.9549  -73.0135 H   0  0  0  0  0  0
  -50.9527  -10.8637  -73.1122 H   0  0  0  0  0  0
  -52.3777  -11.9047  -72.7771 H   0  0  0  0  0  0
  -50.6100  -12.1481  -74.7506 H   0  0  0  0  0  0
  -52.2575  -12.8600  -74.6746 H   0  0  0  0  0  0
  -50.9558   -9.4439  -76.0122 H   0  0  0  0  0  0
  -52.7527  -10.2441  -78.3922 H   0  0  0  0  0  0
  -51.8991   -8.6799  -78.1659 H   0  0  0  0  0  0
  -49.8851   -9.5623  -78.9772 H   0  0  0  0  0  0
  -50.5198  -11.2422  -78.9337 H   0  0  0  0  0  0
  -50.5711   -8.6451  -82.5589 H   0  0  0  0  0  0
  -50.8431   -7.7551  -81.0225 H   0  0  0  0  0  0
  -48.7271   -7.6830  -82.0539 H   0  0  0  0  0  0
  -47.4200   -7.9228  -79.8680 H   0  0  0  0  0  0
  1  2  1  0  0  0
  1 76  1  0  0  0
  1 79  1  0  0  0
  1 80  1  0  0  0
  2  3  1  0  0  0
  2  5  1  0  0  0
  2 81  1  0  0  0
  3  4  2  0  0  0
  3  7  1  0  0  0
  5  6  1  0  0  0
  5 82  1  0  0  0
  5 83  1  0  0  0
  6 84  1  0  0  0
  7  8  1  0  0  0
  7 85  1  0  0  0
  8  9  1  0  0  0
  8 11  1  0  0  0
  8 86  1  0  0  0
  9 10  2  0  0  0
  9 12  1  0  0  0
 11 87  1  0  0  0
 11 88  1  0  0  0
 11 89  1  0  0  0
 12 13  1  0  0  0
 12 90  1  0  0  0
 13 14  1  0  0  0
 13 16  1  0  0  0
 13 91  1  0  0  0
 14 15  2  0  0  0
 14 18  1  0  0  0
 16 17  1  0  0  0
 16 92  1  0  0  0
 16 93  1  0  0  0
 17 94  1  0  0  0
 18 19  1  0  0  0
 18 95  1  0  0  0
 19 20  1  0  0  0
 19 22  1  0  0  0
 19 96  1  0  0  0
 20 21  1  0  0  0
 20 78  2  0  0  0
 22 23  1  0  0  0
 22 97  1  0  0  0
 22 98  1  0  0  0
 23 24  1  0  0  0
 23 99  1  0  0  0
 23100  1  0  0  0
 24 25  2  0  0  0
 24 26  1  0  0  0
 27 28  1  0  0  0
 27 32  2  0  0  0
 28 29  2  0  0  0
 28101  1  0  0  0
 29 30  1  0  0  0
 30 31  2  0  0  0
 30 36  1  0  0  0
 31 32  1  0  0  0
 31 34  1  0  0  0
 32 33  1  0  0  0
 33102  1  0  0  0
 33103  1  0  0  0
 34 35  2  0  0  0
 35 36  1  0  0  0
 35104  1  0  0  0
 36 37  1  0  0  0
 37 38  2  0  0  0
 37 47  1  0  0  0
 38 39  1  0  0  0
 38 40  1  0  0  0
 40 41  1  0  0  0
 40 46  2  0  0  0
 41 42  1  0  0  0
 42 43  1  0  0  0
 42 44  1  0  0  0
 42 45  2  0  0  0
 44105  1  0  0  0
 46 47  1  0  0  0
 46 48  1  0  0  0
 48 49  1  0  0  0
 48106  1  0  0  0
 48107  1  0  0  0
 49 50  1  0  0  0
 50 51  1  0  0  0
 50 52  2  0  0  0
 50 53  1  0  0  0
 53 54  1  0  0  0
 54 55  1  0  0  0
 54 56  2  0  0  0
 54 57  1  0  0  0
 57 59  1  0  0  0
 58 59  1  0  0  0
 58 60  1  0  0  0
 58 61  1  0  0  0
 58 62  1  0  0  0
 59108  1  0  0  0
 59109  1  0  0  0
 60110  1  0  0  0
 60111  1  0  0  0
 60112  1  0  0  0
 61113  1  0  0  0
 61114  1  0  0  0
 61115  1  0  0  0
 62 63  1  0  0  0
 62 64  1  0  0  0
 62116  1  0  0  0
 63117  1  0  0  0
 64 65  2  0  0  0
 64 66  1  0  0  0
 66 67  1  0  0  0
 66118  1  0  0  0
 67 68  1  0  0  0
 67119  1  0  0  0
 67120  1  0  0  0
 68 69  1  0  0  0
 68121  1  0  0  0
 68122  1  0  0  0
 69 70  2  0  0  0
 69 71  1  0  0  0
 71 72  1  0  0  0
 71123  1  0  0  0
 72 73  1  0  0  0
 72124  1  0  0  0
 72125  1  0  0  0
 73 74  1  0  0  0
 73126  1  0  0  0
 73127  1  0  0  0
 74 75  1  0  0  0
 75 76  1  0  0  0
 75128  1  0  0  0
 75129  1  0  0  0
 76 77  1  0  0  0
 76130  1  0  0  0
 77131  1  0  0  0
M  CHG  7   1   1  21  -1  26  -1  39  -1  43  -1  51  -1  55  -1
M  END
> <s_m_source_file>
../4kvm_ligand.sdf

> <i_m_source_file_index>
1

> <s_epik_input>
Tz1DKFtPSF0pW0NIMl1bQ0gyXVtDQEBIXShDKD1PKVtPSF0pW05IXUMoPU8pW0NASF0oW0NIMl1bT0hdKVtOSF1DKD1PKVtDQEhdKFtDSDNdKVtOSF1DKD1PKVtDQEhdKFtDSDJdW09IXSlbTkgyK11bQ0BIXShbT0hdKVtDSDJdU1tDSDJdW0NIMl1bTkhdQyg9TylbQ0gyXVtDSDJdW05IXUMoPU8pW0NASF0oW09IXSlDKFtDSDNdKShbQ0gzXSlbQ0gyXU9bUEBdKD1PKShbT0hdKU9bUEBdKD1PKShbT0hdKU9bQ0gyXWMobzEpYyhPUCg9TykoW09IXSlbT0hdKWMoW09IXSljMS1uMltjSF1uYyhjMjMpYyhbTkgyXSluW2NIXW4z

> <s_epik_cmdline>
J2VwaWtfYXBwJywgJy1pbWFlJywgJ2xpZ2FuZF9wcm8ubWFlJywgJy1vbWFlJywgJ2xpZ2FuZF9wcmVwLm1hZScsICctbXMnLCAnMScsICctcGgnLCAnNycsICctcGh0JywgJzAuNScsICctbnQn

> <r_lp_tautomer_probability>
0.999997216410988

> <r_epik_Ionization_Penalty>
  4.7265

> <r_epik_Ionization_Penalty_Charging>
  2.4545

> <r_epik_Ionization_Penalty_Neutral>
  2.2720

> <r_epik_State_Penalty>
  0.1377

> <r_epik_Charging_Adjusted_Penalty>
2.59218042213396

> <i_epik_Tot_Q>
-5

> <i_epik_Tot_abs_Q>
7

> <s_epik_Chemistry_Notes>
This compound contains an acetal/aminal-like group ( X-CH(R)-Y where X, Y are N, S, or O) that may be acid/base labile, releasing an aldehyde.

$$$$
