4kw6_ligand
                    3D
 Schrodinger Suite 2020-3.
 23 24  0  0  1  0            999 V2000
   26.0660  -58.3250  104.1650 O   0  5  0  0  0  0
   25.0610  -57.8090  104.6930 N   0  3  0  0  0  0
   23.8470  -58.0240  104.1610 C   0  0  0  0  0  0
   23.7890  -58.8940  102.9300 C   0  0  0  0  0  0
   22.7210  -57.4390  104.7660 C   0  0  0  0  0  0
   21.3200  -57.5930  104.2670 C   0  0  0  0  0  0
   25.1880  -57.0420  105.7910 C   0  0  0  0  0  0
   26.4410  -56.8080  106.3510 C   0  0  0  0  0  0
   26.5710  -56.0140  107.4890 C   0  0  0  0  0  0
   25.4450  -55.4410  108.0770 C   0  0  0  0  0  0
   24.1880  -55.6660  107.5220 C   0  0  0  0  0  0
   24.0610  -56.4650  106.3840 C   0  0  0  0  0  0
   22.8570  -56.6770  105.8550 N   0  0  0  0  0  0
   24.8049  -59.2218  102.6645 H   0  0  0  0  0  0
   23.3590  -58.3205  102.0956 H   0  0  0  0  0  0
   23.1608  -59.7740  103.1323 H   0  0  0  0  0  0
   21.3175  -58.2343  103.3733 H   0  0  0  0  0  0
   20.9115  -56.6045  104.0102 H   0  0  0  0  0  0
   20.7003  -58.0535  105.0505 H   0  0  0  0  0  0
   27.3275  -57.2494  105.8957 H   0  0  0  0  0  0
   27.5568  -55.8406  107.9206 H   0  0  0  0  0  0
   25.5478  -54.8199  108.9668 H   0  0  0  0  0  0
   23.3036  -55.2186  107.9757 H   0  0  0  0  0  0
  1  2  1  0  0  0
  2  3  2  0  0  0
  2  7  1  0  0  0
  3  4  1  0  0  0
  3  5  1  0  0  0
  4 14  1  0  0  0
  4 15  1  0  0  0
  4 16  1  0  0  0
  5  6  1  0  0  0
  5 13  2  0  0  0
  6 17  1  0  0  0
  6 18  1  0  0  0
  6 19  1  0  0  0
  7  8  2  0  0  0
  7 12  1  0  0  0
  8  9  1  0  0  0
  8 20  1  0  0  0
  9 10  2  0  0  0
  9 21  1  0  0  0
 10 11  1  0  0  0
 10 22  1  0  0  0
 11 12  2  0  0  0
 11 23  1  0  0  0
 12 13  1  0  0  0
M  CHG  2   1  -1   2   1
M  END
> <s_m_source_file>
../4kw6_ligand.sdf

> <i_m_source_file_index>
1

> <s_epik_input>
W08tXVtuK10xYyhbQ0gzXSljKFtDSDNdKW5jKGMxMilbY0hdW2NIXVtjSF1bY0hdMg==

> <s_epik_cmdline>
J2VwaWtfYXBwJywgJy1pbWFlJywgJ2xpZ2FuZF9wcm8ubWFlJywgJy1vbWFlJywgJ2xpZ2FuZF9wcmVwLm1hZScsICctbXMnLCAnMScsICctcGgnLCAnNycsICctcGh0JywgJzAuNScsICctbnQn

> <r_lp_tautomer_probability>
1

> <r_epik_Ionization_Penalty>
  0.0053

> <r_epik_Ionization_Penalty_Charging>
  0.0000

> <r_epik_Ionization_Penalty_Neutral>
  0.0053

> <r_epik_State_Penalty>
 -0.0000

> <r_epik_Charging_Adjusted_Penalty>
6.59714679080425e-09

> <i_epik_Tot_Q>
0

> <i_epik_Tot_abs_Q>
2

$$$$
