4kwo_ligand
                    3D
 Schrodinger Suite 2020-3.
 53 56  0  0  1  0            999 V2000
  102.1060   16.4500   22.1660 C   0  0  0  0  0  0
  103.0940   16.8390   21.2570 C   0  0  0  0  0  0
  102.7060   16.8710   19.9220 C   0  0  0  0  0  0
  101.4350   16.5410   19.4810 C   0  0  0  0  0  0
  100.4420   16.1280   20.3980 C   0  0  0  0  0  0
   99.0460   15.8100   19.9190 C   0  0  0  0  0  0
   98.8050   14.3840   19.4480 C   0  0  0  0  0  0
  100.8030   16.0960   21.7690 C   0  0  0  0  0  0
   99.8460   15.6990   22.7240 N   0  0  0  0  0  0
  100.1660   15.7060   23.9840 C   0  0  0  0  0  0
   99.2800   15.3430   24.9350 N   0  0  0  0  0  0
  101.4080   16.0640   24.4260 N   0  3  0  0  0  0
  102.4340   16.4370   23.6020 C   0  0  0  0  0  0
  103.5460   16.7510   24.0340 O   0  0  0  0  0  0
  103.3890   17.2030   18.7820 N   0  0  0  0  0  0
  101.3480   16.6860   18.1170 N   0  3  0  0  0  0
  102.5350   17.0780   17.7170 C   0  0  0  0  0  0
  102.9390   17.3490   16.4630 N   0  0  0  0  0  0
  101.9480   17.4770   15.4140 C   0  0  0  0  0  0
   95.8960   14.6790   17.3210 C   0  0  2  0  0  0
   95.9310   14.9850   15.9310 O   0  0  0  0  0  0
   95.4890   16.3110   15.6650 C   0  0  0  0  0  0
   97.1360   15.1000   17.8920 O   0  0  0  0  0  0
   97.3440   14.2540   19.0240 C   0  0  1  0  0  0
   96.8910   12.8670   18.5940 C   0  0  1  0  0  0
   96.3450   12.2370   19.7510 O   0  0  0  0  0  0
   96.4160   10.8150   19.7570 C   0  0  0  0  0  0
   95.8230   13.1710   17.5410 C   0  0  1  0  0  0
   94.5320   12.8450   18.0550 O   0  0  0  0  0  0
  104.1035   17.1004   21.5741 H   0  0  0  0  0  0
   98.3296   15.9846   20.7353 H   0  0  0  0  0  0
   98.7947   16.4574   19.0659 H   0  0  0  0  0  0
   99.4643   14.1630   18.5956 H   0  0  0  0  0  0
   99.0210   13.6851   20.2695 H   0  0  0  0  0  0
   98.2606   15.0425   24.6511 H   0  0  0  0  0  0
  102.4499   17.6975   14.4604 H   0  0  0  0  0  0
  101.2555   18.2950   15.6617 H   0  0  0  0  0  0
  101.3862   16.5356   15.3235 H   0  0  0  0  0  0
   95.0449   15.2320   17.7451 H   0  0  0  0  0  0
   95.5330   16.5020   14.5826 H   0  0  0  0  0  0
   96.1388   17.0264   16.1903 H   0  0  0  0  0  0
   94.4535   16.4297   16.0165 H   0  0  0  0  0  0
   96.7373   14.5657   19.8870 H   0  0  0  0  0  0
   97.6599   12.1643   18.2403 H   0  0  0  0  0  0
   95.9712   10.4296   20.6863 H   0  0  0  0  0  0
   97.4682   10.5002   19.6961 H   0  0  0  0  0  0
   95.8635   10.4167   18.8933 H   0  0  0  0  0  0
   95.9252   12.5729   16.6235 H   0  0  0  0  0  0
   93.6376   12.9986   17.4333 H   0  0  0  0  0  0
  104.4453   17.5041   18.8417 H   0  0  0  0  0  0
   99.5772   15.3476   25.9941 H   0  0  0  0  0  0
  100.3993   16.4769   17.6011 H   0  0  0  0  0  0
  101.6298   16.0631   25.5034 H   0  0  0  0  0  0
  1  2  1  0  0  0
  1  8  2  0  0  0
  1 13  1  0  0  0
  2  3  2  0  0  0
  2 30  1  0  0  0
  3  4  1  0  0  0
  3 15  1  0  0  0
  4  5  2  0  0  0
  4 16  1  0  0  0
  5  6  1  0  0  0
  5  8  1  0  0  0
  6  7  1  0  0  0
  6 31  1  0  0  0
  6 32  1  0  0  0
  7 24  1  0  0  0
  7 33  1  0  0  0
  7 34  1  0  0  0
  8  9  1  0  0  0
  9 10  2  0  0  0
 10 11  1  0  0  0
 10 12  1  0  0  0
 11 35  1  0  0  0
 11 51  1  0  0  0
 12 13  1  0  0  0
 12 53  1  0  0  0
 13 14  2  0  0  0
 15 17  1  0  0  0
 15 50  1  0  0  0
 16 17  1  0  0  0
 16 52  1  0  0  0
 17 18  2  0  0  0
 18 19  1  0  0  0
 19 36  1  0  0  0
 19 37  1  0  0  0
 19 38  1  0  0  0
 20 21  1  0  0  0
 20 23  1  0  0  0
 20 28  1  0  0  0
 20 39  1  0  0  0
 21 22  1  0  0  0
 22 40  1  0  0  0
 22 41  1  0  0  0
 22 42  1  0  0  0
 23 24  1  0  0  0
 24 25  1  0  0  0
 24 43  1  0  0  0
 25 26  1  0  0  0
 25 28  1  0  0  0
 25 44  1  0  0  0
 26 27  1  0  0  0
 27 45  1  0  0  0
 27 46  1  0  0  0
 27 47  1  0  0  0
 28 29  1  0  0  0
 28 48  1  0  0  0
 29 49  1  0  0  0
M  CHG  2  12   1  16   1
M  END
> <s_m_source_file>
../4kwo_ligand.sdf

> <i_m_source_file_index>
1

> <s_epik_input>
Tz1jMVtuSF1jKD1OL1tIXSlcW25IXWMoYzEyKWMoYzNjKFtjSF0yKW5jKFtuSF0zKVtOSF1bQ0gzXSlbQ0gyXVtDSDJdW0NASF0oW0NAQEhdKE9bQ0gzXSlbQ0BIXTRbT0hdKU9bQ0BIXTRPW0NIM10=

> <s_epik_cmdline>
J2VwaWtfYXBwJywgJy1pbWFlJywgJ2xpZ2FuZF9wcm8ubWFlJywgJy1vbWFlJywgJ2xpZ2FuZF9wcmVwLm1hZScsICctbXMnLCAnMScsICctcGgnLCAnNycsICctcGh0JywgJzAuNScsICctbnQn

> <r_lp_tautomer_probability>
1

> <r_epik_Ionization_Penalty>
  0.0054

> <r_epik_Ionization_Penalty_Charging>
  0.0054

> <r_epik_Ionization_Penalty_Neutral>
  0.0000

> <r_epik_State_Penalty>
 -0.0000

> <r_epik_Charging_Adjusted_Penalty>
0.00540733814450251

> <i_epik_Tot_Q>
2

> <i_epik_Tot_abs_Q>
2

> <s_epik_Chemistry_Notes>
This compound has an imine and may undergo hydrolysis. This compound contains an acetal/aminal-like group ( X-CH(R)-Y where X, Y are N, S, or O) that may be acid/base labile, releasing an aldehyde.

$$$$
