4kxl_ligand
                    3D
 Schrodinger Suite 2020-3.
 48 51  0  0  1  0            999 V2000
    0.3380   13.2480   62.7840 C   0  0  0  0  0  0
   -0.6590   14.2560   63.3770 C   0  0  0  0  0  0
   -0.7400   13.9550   64.8850 C   0  0  0  0  0  0
    0.1010   12.6840   65.1180 C   0  0  0  0  0  0
    1.1160   12.6580   63.9780 C   0  0  0  0  0  0
    2.2340   13.5610   64.2970 N   0  0  0  0  0  0
    3.3130   13.2670   65.0440 C   0  0  0  0  0  0
    4.2260   14.2520   65.1630 N   0  0  0  0  0  0
    5.3310   14.0670   65.8630 C   0  0  0  0  0  0
    5.5930   12.9330   66.5000 N   0  0  0  0  0  0
    4.7180   11.9230   66.4490 C   0  0  0  0  0  0
    3.5500   12.0550   65.6880 C   0  0  0  0  0  0
    2.8820   10.8990   65.8030 N   0  0  0  0  0  0
    3.6180   10.0760   66.5640 C   0  0  0  0  0  0
    4.7470   10.6950   66.9570 N   0  0  0  0  0  0
    5.8100   10.1490   67.8540 C   0  0  2  0  0  0
    5.4080    8.8250   68.2880 O   0  0  0  0  0  0
    5.8750   11.0300   69.1260 C   0  0  2  0  0  0
    7.2080   11.4920   69.4190 O   0  0  0  0  0  0
    5.3030   10.1930   70.2840 C   0  0  2  0  0  0
    6.2290    9.9230   71.3410 O   0  0  0  0  0  0
    4.9190    8.8480   69.6520 C   0  0  1  0  0  0
    3.3870    8.6670   69.5970 C   0  0  0  0  0  0
    3.0630    7.5130   68.8830 O   0  0  0  0  0  0
    1.5100    7.1240   68.6570 P   0  0  0  0  0  0
    1.5800    5.7140   67.9910 O   0  5  0  0  0  0
    0.9200    8.2040   67.6920 O   0  5  0  0  0  0
    0.8380    7.0600   69.9750 O   0  0  0  0  0  0
   -0.2117   12.4633   62.2436 H   0  0  0  0  0  0
    1.0144   13.7669   62.0888 H   0  0  0  0  0  0
   -0.2957   15.2789   63.1992 H   0  0  0  0  0  0
   -1.6403   14.1268   62.8970 H   0  0  0  0  0  0
   -0.3342   14.8064   65.4511 H   0  0  0  0  0  0
   -1.7897   13.7918   65.1705 H   0  0  0  0  0  0
    0.5966   12.7468   66.0980 H   0  0  0  0  0  0
   -0.5547   11.8011   65.0946 H   0  0  0  0  0  0
    1.5571   11.6653   63.8048 H   0  0  0  0  0  0
    2.2367   14.5909   63.9105 H   0  0  0  0  0  0
    6.0565   14.8785   65.9195 H   0  0  0  0  0  0
    3.3423    9.0546   66.8262 H   0  0  0  0  0  0
    6.7605   10.0791   67.3048 H   0  0  0  0  0  0
    5.3459   11.9848   68.9899 H   0  0  0  0  0  0
    7.7514   12.1050   68.6849 H   0  0  0  0  0  0
    4.5093   10.7473   70.8063 H   0  0  0  0  0  0
    6.6404   10.7512   71.9367 H   0  0  0  0  0  0
    5.3913    8.0302   70.2161 H   0  0  0  0  0  0
    2.9911    8.5805   70.6196 H   0  0  0  0  0  0
    2.9326    9.5369   69.1003 H   0  0  0  0  0  0
  1  2  1  0  0  0
  1  5  1  0  0  0
  1 29  1  0  0  0
  1 30  1  0  0  0
  2  3  1  0  0  0
  2 31  1  0  0  0
  2 32  1  0  0  0
  3  4  1  0  0  0
  3 33  1  0  0  0
  3 34  1  0  0  0
  4  5  1  0  0  0
  4 35  1  0  0  0
  4 36  1  0  0  0
  5  6  1  0  0  0
  5 37  1  0  0  0
  6  7  1  0  0  0
  6 38  1  0  0  0
  7  8  1  0  0  0
  7 12  2  0  0  0
  8  9  2  0  0  0
  9 10  1  0  0  0
  9 39  1  0  0  0
 10 11  2  0  0  0
 11 12  1  0  0  0
 11 15  1  0  0  0
 12 13  1  0  0  0
 13 14  2  0  0  0
 14 15  1  0  0  0
 14 40  1  0  0  0
 15 16  1  0  0  0
 16 17  1  0  0  0
 16 18  1  0  0  0
 16 41  1  0  0  0
 17 22  1  0  0  0
 18 19  1  0  0  0
 18 20  1  0  0  0
 18 42  1  0  0  0
 19 43  1  0  0  0
 20 21  1  0  0  0
 20 22  1  0  0  0
 20 44  1  0  0  0
 21 45  1  0  0  0
 22 23  1  0  0  0
 22 46  1  0  0  0
 23 24  1  0  0  0
 23 47  1  0  0  0
 23 48  1  0  0  0
 24 25  1  0  0  0
 25 26  1  0  0  0
 25 27  1  0  0  0
 25 28  2  0  0  0
M  CHG  2  26  -1  27  -1
M  END
> <s_m_source_file>
../4kxl_ligand.sdf

> <i_m_source_file_index>
1

> <s_epik_input>
W0NIMl0xW0NIMl1bQ0gyXVtDSDJdW0NIXTFbTkhdYyhuW2NIXW4yKWMoYzIzKW5bY0hdbjNbQ0BASF00T1tDQEBIXShbQ0BASF0oW09IXSlbQ0BIXTRbT0hdKVtDSDJdT1AoPU8pKFtPSF0pW09IXQ==

> <s_epik_cmdline>
J2VwaWtfYXBwJywgJy1pbWFlJywgJ2xpZ2FuZF9wcm8ubWFlJywgJy1vbWFlJywgJ2xpZ2FuZF9wcmVwLm1hZScsICctbXMnLCAnMScsICctcGgnLCAnNycsICctcGh0JywgJzAuNScsICctbnQn

> <r_lp_tautomer_probability>
0.999997216410988

> <r_epik_Ionization_Penalty>
  0.1031

> <r_epik_Ionization_Penalty_Charging>
  0.1020

> <r_epik_Ionization_Penalty_Neutral>
  0.0011

> <r_epik_State_Penalty>
  0.0920

> <r_epik_Charging_Adjusted_Penalty>
0.194024004396068

> <i_epik_Tot_Q>
-2

> <i_epik_Tot_abs_Q>
2

> <s_epik_Chemistry_Notes>
This compound contains an acetal/aminal-like group ( X-CH(R)-Y where X, Y are N, S, or O) that may be acid/base labile, releasing an aldehyde.

$$$$
