4kxm_ligand
                    3D
 Schrodinger Suite 2020-3.
 48 50  0  0  1  0            999 V2000
    0.6980    1.1210   38.9070 O   0  5  0  0  0  0
    1.3120    2.2320   37.9110 P   0  0  0  0  0  0
    0.5360    2.3830   36.6650 O   0  0  0  0  0  0
    1.4120    3.5840   38.7440 O   0  5  0  0  0  0
    2.8450    1.8320   37.6310 O   0  0  0  0  0  0
    3.1670    0.6220   37.0020 C   0  0  0  0  0  0
    4.6710    0.4190   37.0920 C   0  0  1  0  0  0
    5.1320    0.3460   38.4670 O   0  0  0  0  0  0
    5.0190   -0.8840   36.4060 C   0  0  1  0  0  0
    5.9650   -0.5470   35.3990 O   0  0  0  0  0  0
    5.6380   -1.7780   37.4830 C   0  0  1  0  0  0
    7.0090   -2.0700   37.1720 O   0  0  0  0  0  0
    5.5470   -0.9860   38.8050 C   0  0  2  0  0  0
    4.5260   -1.5970   39.6770 N   0  0  0  0  0  0
    3.3920   -1.0220   40.0900 C   0  0  0  0  0  0
    2.7180   -1.8940   40.8460 N   0  0  0  0  0  0
    3.4140   -3.0260   40.9200 C   0  0  0  0  0  0
    3.2120   -4.2530   41.5460 C   0  0  0  0  0  0
    2.1150   -4.4910   42.2860 N   0  0  0  0  0  0
    4.1520   -5.2010   41.4090 N   0  0  0  0  0  0
    5.2440   -4.9890   40.6940 C   0  0  0  0  0  0
    5.4620   -3.8380   40.0800 N   0  0  0  0  0  0
    4.5670   -2.8370   40.1800 C   0  0  0  0  0  0
    1.5220   -5.8460   42.4000 C   0  0  0  0  0  0
    2.1440   -6.5840   43.4130 C   0  0  0  0  0  0
    3.0510   -7.6520   43.3060 C   0  0  0  0  0  0
    3.5140   -8.1990   41.9410 C   0  0  0  0  0  0
    3.6040   -8.3070   44.5790 C   0  0  0  0  0  0
    2.6451   -0.2041   37.5072 H   0  0  0  0  0  0
    2.8554    0.6624   35.9478 H   0  0  0  0  0  0
    5.1844    1.2854   36.6496 H   0  0  0  0  0  0
    4.1902   -1.3920   35.8912 H   0  0  0  0  0  0
    5.6660    0.0925   34.5554 H   0  0  0  0  0  0
    5.1671   -2.7710   37.5300 H   0  0  0  0  0  0
    7.2585   -2.6313   36.2595 H   0  0  0  0  0  0
    6.4951   -0.9359   39.3605 H   0  0  0  0  0  0
    3.0701   -0.0087   39.8497 H   0  0  0  0  0  0
    1.6563   -3.6435   42.8163 H   0  0  0  0  0  0
    5.9845   -5.7843   40.6083 H   0  0  0  0  0  0
    0.4509   -5.7589   42.6350 H   0  0  0  0  0  0
    1.6460   -6.3819   41.4474 H   0  0  0  0  0  0
    1.8335   -6.2233   44.4047 H   0  0  0  0  0  0
    3.0315   -7.6277   41.1343 H   0  0  0  0  0  0
    3.2345   -9.2596   41.8571 H   0  0  0  0  0  0
    4.6064   -8.1000   41.8578 H   0  0  0  0  0  0
    3.1806   -7.8066   45.4624 H   0  0  0  0  0  0
    4.6998   -8.2121   44.5938 H   0  0  0  0  0  0
    3.3279   -9.3717   44.5931 H   0  0  0  0  0  0
  1  2  1  0  0  0
  2  3  2  0  0  0
  2  4  1  0  0  0
  2  5  1  0  0  0
  5  6  1  0  0  0
  6  7  1  0  0  0
  6 29  1  0  0  0
  6 30  1  0  0  0
  7  8  1  0  0  0
  7  9  1  0  0  0
  7 31  1  0  0  0
  8 13  1  0  0  0
  9 10  1  0  0  0
  9 11  1  0  0  0
  9 32  1  0  0  0
 10 33  1  0  0  0
 11 12  1  0  0  0
 11 13  1  0  0  0
 11 34  1  0  0  0
 12 35  1  0  0  0
 13 14  1  0  0  0
 13 36  1  0  0  0
 14 15  1  0  0  0
 14 23  1  0  0  0
 15 16  2  0  0  0
 15 37  1  0  0  0
 16 17  1  0  0  0
 17 18  2  0  0  0
 17 23  1  0  0  0
 18 19  1  0  0  0
 18 20  1  0  0  0
 19 24  1  0  0  0
 19 38  1  0  0  0
 20 21  2  0  0  0
 21 22  1  0  0  0
 21 39  1  0  0  0
 22 23  2  0  0  0
 24 25  1  0  0  0
 24 40  1  0  0  0
 24 41  1  0  0  0
 25 26  2  0  0  0
 25 42  1  0  0  0
 26 27  1  0  0  0
 26 28  1  0  0  0
 27 43  1  0  0  0
 27 44  1  0  0  0
 27 45  1  0  0  0
 28 46  1  0  0  0
 28 47  1  0  0  0
 28 48  1  0  0  0
M  CHG  2   1  -1   4  -1
M  END
> <s_m_source_file>
../4kxm_ligand.sdf

> <i_m_source_file_index>
1

> <s_epik_input>
W09IXVAoPU8pKFtPSF0pT1tDSDJdW0NASF0xT1tDQEhdKFtDQEhdKFtPSF0pW0NAQEhdMVtPSF0pbihbY0hdbjIpYyhjMjMpbltjSF1uYzNbTkhdW0NIMl1bQ0hdPUMoW0NIM10pW0NIM10=

> <s_epik_cmdline>
J2VwaWtfYXBwJywgJy1pbWFlJywgJ2xpZ2FuZF9wcm8ubWFlJywgJy1vbWFlJywgJ2xpZ2FuZF9wcmVwLm1hZScsICctbXMnLCAnMScsICctcGgnLCAnNycsICctcGh0JywgJzAuNScsICctbnQn

> <r_lp_tautomer_probability>
0.999997216410988

> <r_epik_Ionization_Penalty>
  0.1023

> <r_epik_Ionization_Penalty_Charging>
  0.1020

> <r_epik_Ionization_Penalty_Neutral>
  0.0003

> <r_epik_State_Penalty>
  0.0920

> <r_epik_Charging_Adjusted_Penalty>
0.194024004396068

> <i_epik_Tot_Q>
-2

> <i_epik_Tot_abs_Q>
2

> <s_epik_Chemistry_Notes>
This compound contains an acetal/aminal-like group ( X-CH(R)-Y where X, Y are N, S, or O) that may be acid/base labile, releasing an aldehyde.

$$$$
