4kyh_ligand
                    3D
 Schrodinger Suite 2020-3.
 40 43  0  0  1  0            999 V2000
   -5.0530   14.0640   -0.7170 C   0  0  0  0  0  0
   -6.1380   14.5980   -0.7280 O   0  0  0  0  0  0
   -4.7730   12.8930    0.1170 C   0  0  0  0  0  0
   -3.5290   12.2250    0.0300 C   0  0  0  0  0  0
   -2.5260   12.8100   -0.9090 C   0  0  0  0  0  0
   -5.7740   12.3970    0.9600 C   0  0  0  0  0  0
   -5.5560   11.2380    1.6860 C   0  0  0  0  0  0
   -4.3490   10.5660    1.5820 C   0  0  0  0  0  0
   -3.3350   11.0550    0.7640 C   0  0  0  0  0  0
   -3.9710   14.5020   -1.5860 N   0  0  0  0  0  0
   -2.7350   13.8550   -1.6450 N   0  0  0  0  0  0
   -4.1750   15.6570   -2.4450 C   0  0  0  0  0  0
   -4.0950   16.9250   -1.6500 C   0  0  0  0  0  0
   -3.3380   18.6480   -0.1060 C   0  0  0  0  0  0
   -4.5900   18.8560   -0.6970 C   0  0  0  0  0  0
   -2.8020   19.5640    0.7940 C   0  0  0  0  0  0
   -3.5230   20.7110    1.0720 C   0  0  0  0  0  0
   -4.7540   20.9460    0.4740 C   0  0  0  0  0  0
   -5.2980   20.0160   -0.4100 C   0  0  0  0  0  0
   -5.0010   17.8440   -1.5690 N   0  0  0  0  0  0
   -2.6540   17.1730   -0.6910 S   0  0  0  0  0  0
   -1.1390   12.2140   -1.0160 C   0  0  0  0  0  0
   -0.3280   12.3220    0.2530 C   0  0  0  0  0  0
   -0.8250   13.1350    1.1520 O   0  5  0  0  0  0
    0.6940   11.6850    0.4360 O   0  0  0  0  0  0
   -5.4900   22.1960    0.7790 C   0  0  0  0  0  0
   -6.5580   21.9620    1.5400 F   0  0  0  0  0  0
   -4.7060   22.9820    1.4370 F   0  0  0  0  0  0
   -5.8900   22.9080   -0.3210 F   0  0  0  0  0  0
   -6.7250   12.9228    1.0451 H   0  0  0  0  0  0
   -6.3370   10.8531    2.3417 H   0  0  0  0  0  0
   -4.1923    9.6464    2.1457 H   0  0  0  0  0  0
   -2.3865   10.5222    0.6967 H   0  0  0  0  0  0
   -3.3995   15.6754   -3.2249 H   0  0  0  0  0  0
   -5.1671   15.5932   -2.9158 H   0  0  0  0  0  0
   -1.8376   19.3820    1.2682 H   0  0  0  0  0  0
   -3.1184   21.4423    1.7718 H   0  0  0  0  0  0
   -6.2688   20.1970   -0.8713 H   0  0  0  0  0  0
   -1.2174   11.1449   -1.2626 H   0  0  0  0  0  0
   -0.5771   12.7325   -1.8069 H   0  0  0  0  0  0
  1  2  2  0  0  0
  1  3  1  0  0  0
  1 10  1  0  0  0
  3  4  2  0  0  0
  3  6  1  0  0  0
  4  5  1  0  0  0
  4  9  1  0  0  0
  5 11  2  0  0  0
  5 22  1  0  0  0
  6  7  2  0  0  0
  6 30  1  0  0  0
  7  8  1  0  0  0
  7 31  1  0  0  0
  8  9  2  0  0  0
  8 32  1  0  0  0
  9 33  1  0  0  0
 10 11  1  0  0  0
 10 12  1  0  0  0
 12 13  1  0  0  0
 12 34  1  0  0  0
 12 35  1  0  0  0
 13 20  2  0  0  0
 13 21  1  0  0  0
 14 15  2  0  0  0
 14 16  1  0  0  0
 14 21  1  0  0  0
 15 19  1  0  0  0
 15 20  1  0  0  0
 16 17  2  0  0  0
 16 36  1  0  0  0
 17 18  1  0  0  0
 17 37  1  0  0  0
 18 19  2  0  0  0
 18 26  1  0  0  0
 19 38  1  0  0  0
 22 23  1  0  0  0
 22 39  1  0  0  0
 22 40  1  0  0  0
 23 24  1  0  0  0
 23 25  2  0  0  0
 26 27  1  0  0  0
 26 28  1  0  0  0
 26 29  1  0  0  0
M  CHG  1  24  -1
M  END
> <s_m_source_file>
../4kyh_ligand.sdf

> <i_m_source_file_index>
1

> <s_epik_input>
W2NIXTFbY0hdW2NIXVtjSF1jKGMxMiljKFtDSDJdQyg9TylbT0hdKW5uKGMyPU8pW0NIMl1jKHMzKW5jKGMzNClbY0hdYyhDKEYpKEYpRilbY0hdW2NIXTQ=

> <s_epik_cmdline>
J2VwaWtfYXBwJywgJy1pbWFlJywgJ2xpZ2FuZF9wcm8ubWFlJywgJy1vbWFlJywgJ2xpZ2FuZF9wcmVwLm1hZScsICctbXMnLCAnMScsICctcGgnLCAnNycsICctcGh0JywgJzAuNScsICctbnQn

> <r_lp_tautomer_probability>
1

> <r_epik_Ionization_Penalty>
  0.0004

> <r_epik_Ionization_Penalty_Charging>
  0.0004

> <r_epik_Ionization_Penalty_Neutral>
  0.0000

> <r_epik_State_Penalty>
 -0.0000

> <r_epik_Charging_Adjusted_Penalty>
0.000373608051729201

> <i_epik_Tot_Q>
-1

> <i_epik_Tot_abs_Q>
1

$$$$
