4kz3_ligand
                    3D
 Schrodinger Suite 2020-3.
 16 16  0  0  1  0            999 V2000
   23.3320    6.2570   10.2560 C   0  0  0  0  0  0
   22.2480    5.8210    9.4180 C   0  0  0  0  0  0
   21.5220    4.8390   10.0820 C   0  0  0  0  0  0
   22.1480    4.4870   11.6350 S   0  0  0  0  0  0
   23.4120    5.6440   11.4530 C   0  0  0  0  0  0
   24.5210    5.8440   12.7080 Cl  0  0  0  0  0  0
   20.2940    3.9780    9.5560 C   0  0  0  0  0  0
   19.6900    3.4150   10.4900 O   0  5  0  0  0  0
   19.9920    4.0420    8.3650 O   0  0  0  0  0  0
   21.9560    6.4890    7.9240 S   0  0  0  0  0  0
   22.9510    7.4790    7.6590 O   0  0  0  0  0  0
   20.5980    6.8840    7.8010 O   0  0  0  0  0  0
   22.2860    5.3180    6.7870 N   0  0  0  0  0  0
   24.0377    7.0275    9.9454 H   0  0  0  0  0  0
   22.1042    5.7227    5.7804 H   0  0  0  0  0  0
   21.6336    4.4486    6.9560 H   0  0  0  0  0  0
  1  2  1  0  0  0
  1  5  2  0  0  0
  1 14  1  0  0  0
  2  3  2  0  0  0
  2 10  1  0  0  0
  3  4  1  0  0  0
  3  7  1  0  0  0
  4  5  1  0  0  0
  5  6  1  0  0  0
  7  8  1  0  0  0
  7  9  2  0  0  0
 10 11  2  0  0  0
 10 12  2  0  0  0
 10 13  1  0  0  0
 13 15  1  0  0  0
 13 16  1  0  0  0
M  CHG  1   8  -1
M  END
> <s_m_source_file>
../4kz3_ligand.sdf

> <i_m_source_file_index>
1

> <s_epik_input>
Tz1TKD1PKShbTkgyXSljMVtjSF1jKENsKXNjMUMoPU8pW09IXQ==

> <s_epik_cmdline>
J2VwaWtfYXBwJywgJy1pbWFlJywgJ2xpZ2FuZF9wcm8ubWFlJywgJy1vbWFlJywgJ2xpZ2FuZF9wcmVwLm1hZScsICctbXMnLCAnMScsICctcGgnLCAnNycsICctcGh0JywgJzAuNScsICctbnQn

> <r_lp_tautomer_probability>
1

> <r_epik_Ionization_Penalty>
  0.0022

> <r_epik_Ionization_Penalty_Charging>
  0.0000

> <r_epik_Ionization_Penalty_Neutral>
  0.0022

> <r_epik_State_Penalty>
 -0.0000

> <r_epik_Charging_Adjusted_Penalty>
1.32084709670418e-05

> <i_epik_Tot_Q>
-1

> <i_epik_Tot_abs_Q>
1

$$$$
