4kz4_ligand
                    3D
 Schrodinger Suite 2020-3.
 28 28  0  0  1  0            999 V2000
   80.4970    4.4730   33.4750 C   0  0  0  0  0  0
   81.2300    5.2860   34.5540 C   0  0  0  0  0  0
   78.9760    5.8330   28.0070 C   0  0  0  0  0  0
   79.0730    4.8180   30.1470 N   0  0  0  0  0  0
   78.5440    3.4980   28.0710 O   0  0  0  0  0  0
   78.5060    4.5280   31.6450 S   0  0  0  0  0  0
   79.0270    5.9940   29.3890 C   0  0  0  0  0  0
   79.3260    4.4240   26.1910 O   0  5  0  0  0  0
   79.0540    7.2690   29.9110 C   0  0  0  0  0  0
   77.2160    5.0940   31.6190 O   0  0  0  0  0  0
   79.0270    8.3560   29.0890 C   0  0  0  0  0  0
   78.7190    3.1470   31.8620 O   0  0  0  0  0  0
   78.9680    8.2090   27.7200 C   0  0  0  0  0  0
   78.9460    6.9560   27.1970 C   0  0  0  0  0  0
   78.9340    4.4740   27.4370 C   0  0  0  0  0  0
   79.5670    5.4240   32.6980 C   0  0  0  0  0  0
   81.2325    4.0240   32.7913 H   0  0  0  0  0  0
   79.9072    3.6771   33.9531 H   0  0  0  0  0  0
   81.9002    4.6229   35.1206 H   0  0  0  0  0  0
   80.4945    5.7350   35.2377 H   0  0  0  0  0  0
   81.8198    6.0819   34.0759 H   0  0  0  0  0  0
   79.5790    4.0184   29.5861 H   0  0  0  0  0  0
   79.0973    7.4096   30.9910 H   0  0  0  0  0  0
   79.0525    9.3565   29.5209 H   0  0  0  0  0  0
   78.9395    9.0827   27.0688 H   0  0  0  0  0  0
   78.9038    6.8312   26.1150 H   0  0  0  0  0  0
   78.9570    6.0016   33.4081 H   0  0  0  0  0  0
   80.1719    6.1125   32.0897 H   0  0  0  0  0  0
  1  2  1  0  0  0
  1 16  1  0  0  0
  1 17  1  0  0  0
  1 18  1  0  0  0
  2 19  1  0  0  0
  2 20  1  0  0  0
  2 21  1  0  0  0
  3  7  2  0  0  0
  3 14  1  0  0  0
  3 15  1  0  0  0
  4  6  1  0  0  0
  4  7  1  0  0  0
  4 22  1  0  0  0
  5 15  2  0  0  0
  6 10  2  0  0  0
  6 12  2  0  0  0
  6 16  1  0  0  0
  7  9  1  0  0  0
  8 15  1  0  0  0
  9 11  2  0  0  0
  9 23  1  0  0  0
 11 13  1  0  0  0
 11 24  1  0  0  0
 13 14  2  0  0  0
 13 25  1  0  0  0
 14 26  1  0  0  0
 16 27  1  0  0  0
 16 28  1  0  0  0
M  CHG  1   8  -1
M  END
> <s_m_source_file>
../4kz4_ligand.sdf

> <i_m_source_file_index>
1

> <s_epik_input>
W0NIM11bQ0gyXVtDSDJdUyg9TykoPU8pW05IXWMoYzFDKD1PKVtPSF0pW2NIXVtjSF1bY0hdW2NIXTE=

> <s_epik_cmdline>
J2VwaWtfYXBwJywgJy1pbWFlJywgJ2xpZ2FuZF9wcm8ubWFlJywgJy1vbWFlJywgJ2xpZ2FuZF9wcmVwLm1hZScsICctbXMnLCAnMScsICctcGgnLCAnNycsICctcGh0JywgJzAuNScsICctbnQn

> <r_epik_Ionization_Penalty>
  0.0177

> <r_epik_Ionization_Penalty_Charging>
  0.0005

> <r_epik_Ionization_Penalty_Neutral>
  0.0172

> <r_epik_State_Penalty>
  0.0136

> <r_epik_Charging_Adjusted_Penalty>
0.0141468210545313

> <i_epik_Tot_Q>
-1

> <i_epik_Tot_abs_Q>
1

$$$$
