4kz5_ligand
                    3D
 Schrodinger Suite 2020-3.
 30 31  0  0  1  0            999 V2000
   24.7410    7.6930   17.7630 C   0  0  0  0  0  0
   24.8750    7.1760   16.3540 C   0  0  0  0  0  0
   23.8500    6.8450   15.4600 C   0  0  0  0  0  0
   24.4770    6.4130   14.2890 C   0  0  0  0  0  0
   25.8050    6.4850   14.4550 N   0  0  0  0  0  0
   26.0540    6.9520   15.7230 O   0  0  0  0  0  0
   23.8840    5.9950   13.1070 C   0  0  0  0  0  0
   23.6880    4.6470   12.8300 C   0  0  0  0  0  0
   23.1010    4.2900   11.6260 C   0  0  0  0  0  0
   22.7130    5.2640   10.7130 C   0  0  0  0  0  0
   22.9140    6.6090   10.9990 C   0  0  0  0  0  0
   23.5000    6.9750   12.2010 C   0  0  0  0  0  0
   23.7590    8.6460   12.5900 Cl  0  0  0  0  0  0
   22.3470    6.9130   15.6690 C   0  0  0  0  0  0
   21.8610    7.6180   16.5490 O   0  0  0  0  0  0
   21.4860    6.1460   14.8210 N   0  0  0  0  0  0
   20.0460    6.1600   14.9430 C   0  0  0  0  0  0
   19.3540    6.2540   13.6210 C   0  0  0  0  0  0
   20.0240    6.0450   12.5650 O   0  5  0  0  0  0
   18.1290    6.5410   13.5680 O   0  0  0  0  0  0
   23.6754    7.7809   18.0215 H   0  0  0  0  0  0
   25.2192    8.6808   17.8381 H   0  0  0  0  0  0
   25.2306    6.9948   18.4579 H   0  0  0  0  0  0
   23.9906    3.8839   13.5471 H   0  0  0  0  0  0
   22.9423    3.2370   11.3932 H   0  0  0  0  0  0
   22.2500    4.9720    9.7704 H   0  0  0  0  0  0
   22.6124    7.3724   10.2818 H   0  0  0  0  0  0
   21.9666    5.5262   14.0497 H   0  0  0  0  0  0
   19.7105    5.2340   15.4330 H   0  0  0  0  0  0
   19.7375    7.0265   15.5463 H   0  0  0  0  0  0
  1  2  1  0  0  0
  1 21  1  0  0  0
  1 22  1  0  0  0
  1 23  1  0  0  0
  2  3  2  0  0  0
  2  6  1  0  0  0
  3  4  1  0  0  0
  3 14  1  0  0  0
  4  5  2  0  0  0
  4  7  1  0  0  0
  5  6  1  0  0  0
  7  8  2  0  0  0
  7 12  1  0  0  0
  8  9  1  0  0  0
  8 24  1  0  0  0
  9 10  2  0  0  0
  9 25  1  0  0  0
 10 11  1  0  0  0
 10 26  1  0  0  0
 11 12  2  0  0  0
 11 27  1  0  0  0
 12 13  1  0  0  0
 14 15  2  0  0  0
 14 16  1  0  0  0
 16 17  1  0  0  0
 16 28  1  0  0  0
 17 18  1  0  0  0
 17 29  1  0  0  0
 17 30  1  0  0  0
 18 19  1  0  0  0
 18 20  2  0  0  0
M  CHG  1  19  -1
M  END
> <s_m_source_file>
../4kz5_ligand.sdf

> <i_m_source_file_index>
1

> <s_epik_input>
W09IXUMoPU8pW0NIMl1bTkhdQyg9TyljKGMxW0NIM10pYyhubzEpLWMyW2NIXVtjSF1bY0hdW2NIXWMyQ2w=

> <s_epik_cmdline>
J2VwaWtfYXBwJywgJy1pbWFlJywgJ2xpZ2FuZF9wcm8ubWFlJywgJy1vbWFlJywgJ2xpZ2FuZF9wcmVwLm1hZScsICctbXMnLCAnMScsICctcGgnLCAnNycsICctcGh0JywgJzAuNScsICctbnQn

> <r_lp_tautomer_probability>
1

> <r_epik_Ionization_Penalty>
  0.0002

> <r_epik_Ionization_Penalty_Charging>
  0.0002

> <r_epik_Ionization_Penalty_Neutral>
  0.0000

> <r_epik_State_Penalty>
 -0.0000

> <r_epik_Charging_Adjusted_Penalty>
0.000236867181184743

> <i_epik_Tot_Q>
-1

> <i_epik_Tot_abs_Q>
1

$$$$
