4kz7_ligand
                    3D
 Schrodinger Suite 2020-3.
 27 28  0  0  1  0            999 V2000
   26.1980    7.4910   16.1790 C   0  0  0  0  0  0
   24.6800    7.4960   15.9710 C   0  0  0  0  0  0
   23.9810    8.5430   16.8470 C   0  0  0  0  0  0
   24.2770    7.5940   14.4130 C   0  0  2  0  0  0
   24.7550    8.8040   13.6770 C   0  0  0  0  0  0
   22.7740    7.2960   14.4520 C   0  0  0  0  0  0
   22.6470    6.2130   15.5970 C   0  0  0  0  0  0
   24.1000    6.0400   16.0700 C   0  0  2  0  0  0
   24.3630    5.3090   17.4040 C   0  0  0  0  0  0
   23.6600    5.6380   18.3760 O   0  0  0  0  0  0
   25.2490    4.4300   17.4000 O   0  5  0  0  0  0
   24.7760    5.3780   14.9820 O   0  0  0  0  0  0
   24.9140    6.2900   13.9690 C   0  0  0  0  0  0
   25.4170    5.9640   12.9250 O   0  0  0  0  0  0
   26.5815    8.5193   16.1055 H   0  0  0  0  0  0
   26.6718    6.8669   15.4070 H   0  0  0  0  0  0
   26.4304    7.0832   17.1738 H   0  0  0  0  0  0
   24.4621    9.5217   16.7030 H   0  0  0  0  0  0
   24.0590    8.2480   17.9038 H   0  0  0  0  0  0
   22.9206    8.6102   16.5624 H   0  0  0  0  0  0
   24.2410    9.6959   14.0648 H   0  0  0  0  0  0
   24.5357    8.6915   12.6050 H   0  0  0  0  0  0
   25.8400    8.9151   13.8196 H   0  0  0  0  0  0
   22.2230    8.2194   14.6841 H   0  0  0  0  0  0
   22.4507    6.9123   13.4731 H   0  0  0  0  0  0
   21.9862    6.5934   16.3898 H   0  0  0  0  0  0
   22.2243    5.2868   15.1804 H   0  0  0  0  0  0
  1  2  1  0  0  0
  1 15  1  0  0  0
  1 16  1  0  0  0
  1 17  1  0  0  0
  2  3  1  0  0  0
  2  4  1  0  0  0
  2  8  1  0  0  0
  3 18  1  0  0  0
  3 19  1  0  0  0
  3 20  1  0  0  0
  4  5  1  0  0  0
  4  6  1  0  0  0
  4 13  1  0  0  0
  5 21  1  0  0  0
  5 22  1  0  0  0
  5 23  1  0  0  0
  6  7  1  0  0  0
  6 24  1  0  0  0
  6 25  1  0  0  0
  7  8  1  0  0  0
  7 26  1  0  0  0
  7 27  1  0  0  0
  8  9  1  0  0  0
  8 12  1  0  0  0
  9 10  2  0  0  0
  9 11  1  0  0  0
 12 13  1  0  0  0
 13 14  2  0  0  0
M  CHG  1  11  -1
M  END
> <s_m_source_file>
../4kz7_ligand.sdf

> <i_m_source_file_index>
1

> <s_epik_input>
W0NIM11bQ0BAXTEyQyhbQ0gzXSkoW0NIM10pW0NAXShbQ0gyXVtDSDJdMSkoQyg9TylbT0hdKU9DMj1P

> <s_epik_cmdline>
J2VwaWtfYXBwJywgJy1pbWFlJywgJ2xpZ2FuZF9wcm8ubWFlJywgJy1vbWFlJywgJ2xpZ2FuZF9wcmVwLm1hZScsICctbXMnLCAnMScsICctcGgnLCAnNycsICctcGh0JywgJzAuNScsICctbnQn

> <r_lp_tautomer_probability>
1

> <r_epik_Ionization_Penalty>
  0.0001

> <r_epik_Ionization_Penalty_Charging>
  0.0001

> <r_epik_Ionization_Penalty_Neutral>
  0.0000

> <r_epik_State_Penalty>
 -0.0000

> <r_epik_Charging_Adjusted_Penalty>
0.000136890237890968

> <i_epik_Tot_Q>
-1

> <i_epik_Tot_abs_Q>
1

> <s_epik_Chemistry_Notes>
This compound has an ester and may undergo hydrolysis at high or low pH.

$$$$
