4kz8_ligand
                    3D
 Schrodinger Suite 2020-3.
 24 24  0  0  1  0            999 V2000
   23.8700    8.7590   16.0970 C   0  0  0  0  0  0
   23.4040    7.3540   16.2820 C   0  0  0  0  0  0
   22.5960    6.7670   15.2370 N   0  0  0  0  0  0
   21.2530    6.8820   15.3500 C   0  0  0  0  0  0
   20.6770    7.5320   16.4230 O   0  5  0  0  0  0
   20.4420    6.3360   14.3770 C   0  0  0  0  0  0
   21.0130    5.6870   13.3050 C   0  0  0  0  0  0
   20.2750    5.2090   12.4500 O   0  0  0  0  0  0
   22.3550    5.5810   13.2030 N   0  0  0  0  0  0
   22.8720    4.8830   12.0450 C   0  0  0  0  0  0
   23.1160    5.6950   10.8130 C   0  0  0  0  0  0
   23.1630    6.1230   14.1700 C   0  0  0  0  0  0
   24.8340    6.0130   14.0840 S   0  0  0  0  0  0
   24.4690    9.0643   16.9676 H   0  0  0  0  0  0
   22.9994    9.4242   15.9995 H   0  0  0  0  0  0
   24.4852    8.8245   15.1875 H   0  0  0  0  0  0
   24.2746    6.6888   16.3795 H   0  0  0  0  0  0
   22.7888    7.2885   17.1915 H   0  0  0  0  0  0
   19.3579    6.4176   14.4560 H   0  0  0  0  0  0
   23.8416    4.4272   12.2943 H   0  0  0  0  0  0
   22.1638    4.0969   11.7443 H   0  0  0  0  0  0
   23.5053    5.0443   10.0161 H   0  0  0  0  0  0
   23.8500    6.4841   11.0334 H   0  0  0  0  0  0
   22.1722    6.1538   10.4834 H   0  0  0  0  0  0
  1  2  1  0  0  0
  1 14  1  0  0  0
  1 15  1  0  0  0
  1 16  1  0  0  0
  2  3  1  0  0  0
  2 17  1  0  0  0
  2 18  1  0  0  0
  3  4  1  0  0  0
  3 12  1  0  0  0
  4  5  1  0  0  0
  4  6  2  0  0  0
  6  7  1  0  0  0
  6 19  1  0  0  0
  7  8  2  0  0  0
  7  9  1  0  0  0
  9 10  1  0  0  0
  9 12  1  0  0  0
 10 11  1  0  0  0
 10 20  1  0  0  0
 10 21  1  0  0  0
 11 22  1  0  0  0
 11 23  1  0  0  0
 11 24  1  0  0  0
 12 13  2  0  0  0
M  CHG  1   5  -1
M  END
> <s_m_source_file>
../4kz8_ligand.sdf

> <i_m_source_file_index>
1

> <s_epik_input>
W0NIM11bQ0gyXW4xYyhbT0hdKVtjSF1jKD1PKW4oYzE9UylbQ0gyXVtDSDNd

> <s_epik_cmdline>
J2VwaWtfYXBwJywgJy1pbWFlJywgJ2xpZ2FuZF9wcm8ubWFlJywgJy1vbWFlJywgJ2xpZ2FuZF9wcmVwLm1hZScsICctbXMnLCAnMScsICctcGgnLCAnNycsICctcGh0JywgJzAuNScsICctbnQn

> <r_lp_tautomer_probability>
1

> <r_epik_Ionization_Penalty>
  0.0021

> <r_epik_Ionization_Penalty_Charging>
  0.0019

> <r_epik_Ionization_Penalty_Neutral>
  0.0002

> <r_epik_State_Penalty>
 -0.0000

> <r_epik_Charging_Adjusted_Penalty>
0.00192588248514666

> <i_epik_Tot_Q>
-1

> <i_epik_Tot_abs_Q>
1

$$$$
