4kza_ligand
                    3D
 Schrodinger Suite 2020-3.
 23 24  0  0  1  0            999 V2000
   53.2140   -0.2840   22.3440 C   0  0  0  0  0  0
   53.1900    0.9080   21.7250 C   0  0  0  0  0  0
   51.6130    1.5800   21.8000 S   0  0  0  0  0  0
   51.0940    0.3820   22.8760 C   0  0  0  0  0  0
   52.0210   -0.6200   23.1140 C   0  0  0  0  0  0
   51.9200   -1.9720   24.1000 S   0  0  0  0  0  0
   51.6430   -1.6270   25.4490 O   0  0  0  0  0  0
   53.0350   -2.8130   23.7950 O   0  0  0  0  0  0
   50.6240   -3.0260   23.8530 N   0  0  3  0  0  0
   50.0990   -3.3950   22.5880 C   0  0  0  0  0  0
   50.4780   -2.5570   21.4060 C   0  0  0  0  0  0
   51.1050   -3.9390   21.5990 C   0  0  0  0  0  0
   49.6120    0.4920   23.3460 C   0  0  0  0  0  0
   49.0140    1.5530   23.2380 O   0  0  0  0  0  0
   49.2150   -0.5960   23.7940 O   0  5  0  0  0  0
   54.0691   -0.9565   22.2755 H   0  0  0  0  0  0
   54.0475    1.3796   21.2450 H   0  0  0  0  0  0
   50.0863   -3.2998   24.7727 H   0  0  0  0  0  0
   49.1507   -3.7242   23.0378 H   0  0  0  0  0  0
   49.5823   -2.3475   20.8028 H   0  0  0  0  0  0
   50.9159   -1.6096   21.7535 H   0  0  0  0  0  0
   52.0563   -4.1364   22.1148 H   0  0  0  0  0  0
   50.7228   -4.8743   21.1640 H   0  0  0  0  0  0
  1  2  2  0  0  0
  1  5  1  0  0  0
  1 16  1  0  0  0
  2  3  1  0  0  0
  2 17  1  0  0  0
  3  4  1  0  0  0
  4  5  2  0  0  0
  4 13  1  0  0  0
  5  6  1  0  0  0
  6  7  2  0  0  0
  6  8  2  0  0  0
  6  9  1  0  0  0
  9 10  1  0  0  0
  9 18  1  0  0  0
 10 11  1  0  0  0
 10 12  1  0  0  0
 10 19  1  0  0  0
 11 12  1  0  0  0
 11 20  1  0  0  0
 11 21  1  0  0  0
 12 22  1  0  0  0
 12 23  1  0  0  0
 13 14  2  0  0  0
 13 15  1  0  0  0
M  CHG  1  15  -1
M  END
> <s_m_source_file>
../4kza_ligand.sdf

> <i_m_source_file_index>
1

> <s_epik_input>
Tz1DKFtPSF0pYzFzW2NIXVtjSF1jMVMoPU8pKD1PKVtOSF1bQ0hdMltDSDJdW0NIMl0y

> <s_epik_cmdline>
J2VwaWtfYXBwJywgJy1pbWFlJywgJ2xpZ2FuZF9wcm8ubWFlJywgJy1vbWFlJywgJ2xpZ2FuZF9wcmVwLm1hZScsICctbXMnLCAnMScsICctcGgnLCAnNycsICctcGh0JywgJzAuNScsICctbnQn

> <r_lp_tautomer_probability>
1

> <r_epik_Ionization_Penalty>
  0.0002

> <r_epik_Ionization_Penalty_Charging>
  0.0000

> <r_epik_Ionization_Penalty_Neutral>
  0.0002

> <r_epik_State_Penalty>
 -0.0000

> <r_epik_Charging_Adjusted_Penalty>
2.44554442614784e-05

> <i_epik_Tot_Q>
-1

> <i_epik_Tot_abs_Q>
1

$$$$
