4l0b_ligand
                    3D
 Schrodinger Suite 2020-3.
 35 37  0  0  1  0            999 V2000
    5.5600   11.4350   -5.5160 C   0  0  0  0  0  0
    6.1650   10.4470   -6.4430 N   0  0  0  0  0  0
    6.3650    9.0730   -5.9990 C   0  0  0  0  0  0
    6.3180   10.7430   -7.7860 C   0  0  0  0  0  0
    5.7340   11.8760   -8.3420 C   0  0  0  0  0  0
    5.8800   12.1960   -9.7030 C   0  0  0  0  0  0
    7.0110    9.8840   -8.6340 C   0  0  0  0  0  0
    7.1260   10.1830  -10.0090 C   0  0  0  0  0  0
    6.5780   11.3360  -10.5660 C   0  0  0  0  0  0
    6.6690   11.6340  -11.9720 C   0  0  0  0  0  0
    5.8980   12.6600  -12.3640 O   0  0  0  0  0  0
    5.8460   13.0170  -13.6880 C   0  0  0  0  0  0
    5.0130   14.0600  -14.0260 C   0  0  0  0  0  0
    4.8600   14.4310  -15.3850 C   0  0  0  0  0  0
    5.5630   13.6960  -16.3740 C   0  0  0  0  0  0
    6.4240   12.6250  -15.9920 C   0  0  0  0  0  0
    6.5570   12.2690  -14.6450 C   0  0  0  0  0  0
    7.4230   11.2210  -14.2540 C   0  0  0  0  0  0
    8.2550   10.6770  -15.0420 O   0  0  0  0  0  0
    7.4300   10.9290  -12.8960 C   0  0  0  0  0  0
    5.5274   11.0130   -4.5007 H   0  0  0  0  0  0
    4.5382   11.6713   -5.8479 H   0  0  0  0  0  0
    6.1659   12.3531   -5.5122 H   0  0  0  0  0  0
    6.2061    9.0121   -4.9122 H   0  0  0  0  0  0
    7.3909    8.7561   -6.2379 H   0  0  0  0  0  0
    5.6489    8.4141   -6.5118 H   0  0  0  0  0  0
    5.1458   12.5353   -7.7037 H   0  0  0  0  0  0
    5.4482   13.1185  -10.0912 H   0  0  0  0  0  0
    7.4664    8.9775   -8.2352 H   0  0  0  0  0  0
    7.6615    9.4884  -10.6562 H   0  0  0  0  0  0
    4.4718   14.5998  -13.2489 H   0  0  0  0  0  0
    4.2153   15.2642  -15.6648 H   0  0  0  0  0  0
    5.4450   13.9501  -17.4274 H   0  0  0  0  0  0
    6.9818   12.0804  -16.7538 H   0  0  0  0  0  0
    8.0588   10.1127  -12.5405 H   0  0  0  0  0  0
  1  2  1  0  0  0
  1 21  1  0  0  0
  1 22  1  0  0  0
  1 23  1  0  0  0
  2  3  1  0  0  0
  2  4  1  0  0  0
  3 24  1  0  0  0
  3 25  1  0  0  0
  3 26  1  0  0  0
  4  5  2  0  0  0
  4  7  1  0  0  0
  5  6  1  0  0  0
  5 27  1  0  0  0
  6  9  2  0  0  0
  6 28  1  0  0  0
  7  8  2  0  0  0
  7 29  1  0  0  0
  8  9  1  0  0  0
  8 30  1  0  0  0
  9 10  1  0  0  0
 10 11  1  0  0  0
 10 20  2  0  0  0
 11 12  1  0  0  0
 12 13  2  0  0  0
 12 17  1  0  0  0
 13 14  1  0  0  0
 13 31  1  0  0  0
 14 15  2  0  0  0
 14 32  1  0  0  0
 15 16  1  0  0  0
 15 33  1  0  0  0
 16 17  2  0  0  0
 16 34  1  0  0  0
 17 18  1  0  0  0
 18 19  2  0  0  0
 18 20  1  0  0  0
 20 35  1  0  0  0
M  END
> <s_m_source_file>
../4l0b_ligand.sdf

> <i_m_source_file_index>
1

> <s_epik_input>
W0NIM11OKFtDSDNdKWMxW2NIXVtjSF1jKFtjSF1bY0hdMSktYyhvMilbY0hdYyg9TyljKGMyMylbY0hdW2NIXVtjSF1bY0hdMw==

> <s_epik_cmdline>
J2VwaWtfYXBwJywgJy1pbWFlJywgJ2xpZ2FuZF9wcm8ubWFlJywgJy1vbWFlJywgJ2xpZ2FuZF9wcmVwLm1hZScsICctbXMnLCAnMScsICctcGgnLCAnNycsICctcGh0JywgJzAuNScsICctbnQn

> <r_lp_tautomer_probability>
1

> <r_epik_Ionization_Penalty>
  0.0072

> <r_epik_Ionization_Penalty_Charging>
  0.0000

> <r_epik_Ionization_Penalty_Neutral>
  0.0072

> <r_epik_State_Penalty>
 -0.0000

> <r_epik_Charging_Adjusted_Penalty>
0

> <i_epik_Tot_Q>
0

> <i_epik_Tot_abs_Q>
0

$$$$
