4l0i_ligand
                    3D
 Schrodinger Suite 2020-3.
 36 38  0  0  1  0            999 V2000
   -8.3700   37.6860   -3.5530 C   0  0  0  0  0  0
   -8.1030   38.3310   -4.9130 C   0  0  0  0  0  0
   -7.2450   37.4170   -5.6210 O   0  0  0  0  0  0
   -6.1600   37.8590   -6.3240 C   0  0  0  0  0  0
   -5.0990   38.0840   -5.7500 O   0  0  0  0  0  0
   -6.3010   37.7850   -7.7430 C   0  0  0  0  0  0
   -5.6410   36.7760   -8.4650 C   0  0  0  0  0  0
   -5.7750   36.6500   -9.8460 C   0  0  0  0  0  0
   -7.1330   38.6430   -8.4800 C   0  0  0  0  0  0
   -7.2830   38.5150   -9.8690 C   0  0  0  0  0  0
   -6.6100   37.5130  -10.5870 C   0  0  0  0  0  0
   -6.7020   37.3510  -11.9930 C   0  0  0  0  0  0
   -5.9320   36.3360  -12.4850 O   0  0  0  0  0  0
   -5.7890   36.0920  -13.8310 C   0  0  0  0  0  0
   -4.8820   35.1050  -14.2530 C   0  0  0  0  0  0
   -4.7220   34.8700  -15.6150 C   0  0  0  0  0  0
   -5.4690   35.6150  -16.5420 C   0  0  0  0  0  0
   -6.3770   36.5870  -16.1040 C   0  0  0  0  0  0
   -6.5670   36.8140  -14.7380 C   0  0  0  0  0  0
   -7.4480   37.8030  -14.2610 C   0  0  0  0  0  0
   -8.1480   38.4630  -15.0400 O   0  0  0  0  0  0
   -7.4700   38.1020  -12.8920 C   0  0  0  0  0  0
   -9.0251   38.3404   -2.9591 H   0  0  0  0  0  0
   -7.4174   37.5417   -3.0223 H   0  0  0  0  0  0
   -8.8597   36.7119   -3.6990 H   0  0  0  0  0  0
   -9.0556   38.4753   -5.4437 H   0  0  0  0  0  0
   -7.6133   39.3051   -4.7670 H   0  0  0  0  0  0
   -5.0055   36.0712   -7.9287 H   0  0  0  0  0  0
   -5.2224   35.8672  -10.3657 H   0  0  0  0  0  0
   -7.6774   39.4303   -7.9585 H   0  0  0  0  0  0
   -7.9350   39.2072  -10.4017 H   0  0  0  0  0  0
   -4.3113   34.5311  -13.5229 H   0  0  0  0  0  0
   -4.0201   34.1112  -15.9609 H   0  0  0  0  0  0
   -5.3412   35.4355  -17.6095 H   0  0  0  0  0  0
   -6.9393   37.1704  -16.8331 H   0  0  0  0  0  0
   -8.0872   38.9222  -12.5254 H   0  0  0  0  0  0
  1  2  1  0  0  0
  1 23  1  0  0  0
  1 24  1  0  0  0
  1 25  1  0  0  0
  2  3  1  0  0  0
  2 26  1  0  0  0
  2 27  1  0  0  0
  3  4  1  0  0  0
  4  5  2  0  0  0
  4  6  1  0  0  0
  6  7  2  0  0  0
  6  9  1  0  0  0
  7  8  1  0  0  0
  7 28  1  0  0  0
  8 11  2  0  0  0
  8 29  1  0  0  0
  9 10  2  0  0  0
  9 30  1  0  0  0
 10 11  1  0  0  0
 10 31  1  0  0  0
 11 12  1  0  0  0
 12 13  1  0  0  0
 12 22  2  0  0  0
 13 14  1  0  0  0
 14 15  2  0  0  0
 14 19  1  0  0  0
 15 16  1  0  0  0
 15 32  1  0  0  0
 16 17  2  0  0  0
 16 33  1  0  0  0
 17 18  1  0  0  0
 17 34  1  0  0  0
 18 19  2  0  0  0
 18 35  1  0  0  0
 19 20  1  0  0  0
 20 21  2  0  0  0
 20 22  1  0  0  0
 22 36  1  0  0  0
M  END
> <s_m_source_file>
../4l0i_ligand.sdf

> <i_m_source_file_index>
1

> <s_epik_input>
W0NIM11bQ0gyXU9DKD1PKWMxW2NIXVtjSF1jKFtjSF1bY0hdMSktYyhvMilbY0hdYyg9TyljKGMyMylbY0hdW2NIXVtjSF1bY0hdMw==

> <s_epik_cmdline>
J2VwaWtfYXBwJywgJy1pbWFlJywgJ2xpZ2FuZF9wcm8ubWFlJywgJy1vbWFlJywgJ2xpZ2FuZF9wcmVwLm1hZScsICctbXMnLCAnMScsICctcGgnLCAnNycsICctcGh0JywgJzAuNScsICctbnQn

> <r_lp_tautomer_probability>
1

> <r_epik_Ionization_Penalty>
  0.0000

> <r_epik_Ionization_Penalty_Charging>
  0.0000

> <r_epik_Ionization_Penalty_Neutral>
  0.0000

> <r_epik_State_Penalty>
 -0.0000

> <r_epik_Charging_Adjusted_Penalty>
0

> <i_epik_Tot_Q>
0

> <i_epik_Tot_abs_Q>
0

> <s_epik_Chemistry_Notes>
This compound has an ester and may undergo hydrolysis at high or low pH.

$$$$
