4l0l_ligand
                    3D
 Schrodinger Suite 2020-3.
 65 66  0  0  1  0            999 V2000
   -2.3610   -0.1330  -17.7170 C   0  0  0  0  0  0
    0.0450    0.2600  -17.5560 C   0  0  0  0  0  0
   -8.2830   -1.2590  -15.0840 C   0  0  0  0  0  0
   -9.3100   -2.1320  -14.5240 C   0  0  0  0  0  0
   -6.8790    0.4900  -15.0070 O   0  0  0  0  0  0
   -5.2270    2.2900  -15.0690 C   0  0  0  0  0  0
   -6.3210    1.5950  -14.2510 C   0  0  0  0  0  0
   -5.7050    1.2680  -12.9110 C   0  0  0  0  0  0
    0.8030    2.6190  -17.4970 C   0  0  0  0  0  0
   -2.5590   -0.0140  -16.5150 O   0  0  0  0  0  0
   -1.2070    0.3060  -18.2700 N   0  0  0  0  0  0
    0.9380    1.3820  -18.0460 C   0  0  0  0  0  0
    1.8820    1.1170  -19.0630 N   0  0  0  0  0  0
    2.0220   -0.1860  -19.6330 O   0  5  0  0  0  0
    2.7210    2.1510  -19.5210 C   0  0  0  0  0  0
    2.6880    3.4390  -19.0560 C   0  0  0  0  0  0
    3.5090    4.4590  -19.5080 O   0  0  0  0  0  0
    1.6820    3.7440  -17.9820 C   0  0  0  0  0  0
    1.5770    4.8710  -17.5060 O   0  0  0  0  0  0
   -3.2760   -0.7200  -18.6150 N   0  0  0  0  0  0
   -4.5820   -1.1480  -18.0850 C   0  0  0  0  0  0
   -4.5160   -2.6240  -17.6520 C   0  0  1  0  0  0
   -3.6170   -2.8070  -16.5220 N   0  0  3  0  0  0
   -2.2070   -3.7630  -16.6400 S   0  0  0  0  0  0
   -2.6810   -5.1100  -16.8240 O   0  5  0  0  0  0
   -1.5240   -3.6860  -15.3950 O   0  0  0  0  0  0
   -1.4290   -3.2740  -17.7210 O   0  0  0  0  0  0
   -5.9200   -3.1450  -17.2510 C   0  0  1  0  0  0
   -5.8080   -4.5780  -16.8240 C   0  0  0  0  0  0
   -5.7890   -4.9760  -15.6460 O   0  0  0  0  0  0
   -6.4630   -2.4230  -16.1370 N   0  0  0  0  0  0
   -7.5630   -1.6880  -16.3760 C   0  0  0  0  0  0
   -7.9860   -1.4220  -17.4880 O   0  0  0  0  0  0
   -8.0150   -0.1590  -14.4410 N   0  0  0  0  0  0
   -7.4050    2.7250  -14.0300 C   0  0  0  0  0  0
   -8.5290    2.6070  -14.5970 O   0  5  0  0  0  0
   -7.0960    3.6760  -13.2960 O   0  0  0  0  0  0
  -10.0060   -1.8130  -13.3610 N   0  0  0  0  0  0
  -10.8640   -2.7090  -12.9810 C   0  0  0  0  0  0
  -11.6900   -2.6680  -11.8570 N   0  0  0  0  0  0
  -10.8860   -4.0360  -14.0840 S   0  0  0  0  0  0
   -9.6820   -3.3380  -15.1010 C   0  0  0  0  0  0
   -0.1426    0.3805  -16.4788 H   0  0  0  0  0  0
    0.5349   -0.7081  -17.7368 H   0  0  0  0  0  0
   -4.4159    1.5767  -15.2772 H   0  0  0  0  0  0
   -4.8285    3.1422  -14.4990 H   0  0  0  0  0  0
   -5.6514    2.6499  -16.0179 H   0  0  0  0  0  0
   -4.9457    0.4824  -13.0384 H   0  0  0  0  0  0
   -6.4878    0.9135  -12.2243 H   0  0  0  0  0  0
   -5.2330    2.1701  -12.4945 H   0  0  0  0  0  0
    0.0661    2.7955  -16.7135 H   0  0  0  0  0  0
   -1.2418    0.7064  -19.2939 H   0  0  0  0  0  0
    3.4460    1.9101  -20.2984 H   0  0  0  0  0  0
    4.2528    4.2592  -20.2934 H   0  0  0  0  0  0
   -3.0412   -0.8625  -19.6802 H   0  0  0  0  0  0
   -4.8464   -0.5273  -17.2162 H   0  0  0  0  0  0
   -5.3495   -1.0334  -18.8646 H   0  0  0  0  0  0
   -4.0854   -3.2062  -18.4800 H   0  0  0  0  0  0
   -3.7433   -2.1983  -15.6145 H   0  0  0  0  0  0
   -6.6284   -3.0067  -18.0810 H   0  0  0  0  0  0
   -5.7396   -5.3012  -17.6500 H   0  0  0  0  0  0
   -5.9801   -2.4888  -15.1509 H   0  0  0  0  0  0
  -11.6489   -1.8056  -11.1754 H   0  0  0  0  0  0
  -12.3822   -3.4981  -11.6525 H   0  0  0  0  0  0
   -9.2872   -3.7637  -16.0235 H   0  0  0  0  0  0
  1 10  2  0  0  0
  1 11  1  0  0  0
  1 20  1  0  0  0
  2 11  1  0  0  0
  2 12  1  0  0  0
  2 43  1  0  0  0
  2 44  1  0  0  0
  3  4  1  0  0  0
  3 32  1  0  0  0
  3 34  2  0  0  0
  4 38  1  0  0  0
  4 42  2  0  0  0
  5  7  1  0  0  0
  5 34  1  0  0  0
  6  7  1  0  0  0
  6 45  1  0  0  0
  6 46  1  0  0  0
  6 47  1  0  0  0
  7  8  1  0  0  0
  7 35  1  0  0  0
  8 48  1  0  0  0
  8 49  1  0  0  0
  8 50  1  0  0  0
  9 12  2  0  0  0
  9 18  1  0  0  0
  9 51  1  0  0  0
 11 52  1  0  0  0
 12 13  1  0  0  0
 13 14  1  0  0  0
 13 15  1  0  0  0
 15 16  2  0  0  0
 15 53  1  0  0  0
 16 17  1  0  0  0
 16 18  1  0  0  0
 17 54  1  0  0  0
 18 19  2  0  0  0
 20 21  1  0  0  0
 20 55  1  0  0  0
 21 22  1  0  0  0
 21 56  1  0  0  0
 21 57  1  0  0  0
 22 23  1  0  0  0
 22 28  1  0  0  0
 22 58  1  0  0  0
 23 24  1  0  0  0
 23 59  1  0  0  0
 24 25  1  0  0  0
 24 26  2  0  0  0
 24 27  2  0  0  0
 28 29  1  0  0  0
 28 31  1  0  0  0
 28 60  1  0  0  0
 29 30  2  0  0  0
 29 61  1  0  0  0
 31 32  1  0  0  0
 31 62  1  0  0  0
 32 33  2  0  0  0
 35 36  1  0  0  0
 35 37  2  0  0  0
 38 39  2  0  0  0
 39 40  1  0  0  0
 39 41  1  0  0  0
 40 63  1  0  0  0
 40 64  1  0  0  0
 41 42  1  0  0  0
 42 65  1  0  0  0
M  CHG  3  14  -1  25  -1  36  -1
M  END
> <s_m_source_file>
../4l0l_ligand.sdf

> <i_m_source_file_index>
1

> <s_epik_input>
W09IXW4xW2NIXWMoW09IXSljKD1PKVtjSF1jMVtDSDJdW05IXUMoPU8pW05IXVtDSDJdW0NAQEhdKFtOSF1TKD1PKSg9TylbT0hdKVtDQEBIXShbQ0hdPU8pW05IXUMoPU8pQyhcYzJuYyhbTkgyXSlzW2NIXTIpPU4vT0MoW0NIM10pKFtDSDNdKUMoPU8pW09IXQ==

> <s_epik_cmdline>
J2VwaWtfYXBwJywgJy1pbWFlJywgJ2xpZ2FuZF9wcm8ubWFlJywgJy1vbWFlJywgJ2xpZ2FuZF9wcmVwLm1hZScsICctbXMnLCAnMScsICctcGgnLCAnNycsICctcGh0JywgJzAuNScsICctbnQn

> <r_lp_tautomer_probability>
1

> <r_epik_Ionization_Penalty>
  0.0374

> <r_epik_Ionization_Penalty_Charging>
  0.0001

> <r_epik_Ionization_Penalty_Neutral>
  0.0373

> <r_epik_State_Penalty>
 -0.0000

> <r_epik_Charging_Adjusted_Penalty>
0.000122365317501085

> <i_epik_Tot_Q>
-3

> <i_epik_Tot_abs_Q>
3

> <s_epik_Chemistry_Notes>
This compound has an imine and may undergo hydrolysis.

$$$$
