4l0t_ligand
                    3D
 Schrodinger Suite 2020-3.
 29 31  0  0  1  0            999 V2000
    7.6070   38.2660   13.0280 C   0  0  0  0  0  0
    7.5530   37.9680   14.3940 C   0  0  0  0  0  0
    8.3480   38.5420   15.1500 O   0  0  0  0  0  0
    6.6920   36.9240   14.8260 C   0  0  0  0  0  0
    6.5550   36.5910   16.1600 C   0  0  0  0  0  0
    5.7000   35.5450   16.5120 C   0  0  0  0  0  0
    4.9800   34.7770   15.5660 C   0  0  0  0  0  0
    5.1000   35.1260   14.2180 C   0  0  0  0  0  0
    5.9500   36.1850   13.8740 C   0  0  0  0  0  0
    6.0390   36.5170   12.5650 O   0  0  0  0  0  0
    6.8050   37.5490   12.1350 C   0  0  0  0  0  0
    6.7480   37.7590   10.7280 C   0  0  0  0  0  0
    7.4500   38.7910   10.0780 C   0  0  0  0  0  0
    7.3330   38.9760    8.7060 C   0  0  0  0  0  0
    6.5400   38.1070    7.9630 C   0  0  0  0  0  0
    6.4430   38.2300    6.6450 N   0  3  0  0  0  0
    7.5600   38.4710    5.8970 O   0  0  0  0  0  0
    5.2990   38.0270    6.0850 O   0  5  0  0  0  0
    5.8580   37.0640    8.5960 C   0  0  0  0  0  0
    5.9580   36.8920    9.9630 C   0  0  0  0  0  0
    8.2692   39.0510   12.6629 H   0  0  0  0  0  0
    7.1061   37.1367   16.9259 H   0  0  0  0  0  0
    5.5809   35.3077   17.5692 H   0  0  0  0  0  0
    4.3532   33.9417   15.8782 H   0  0  0  0  0  0
    4.5444   34.5861   13.4512 H   0  0  0  0  0  0
    8.0931   39.4530   10.6578 H   0  0  0  0  0  0
    7.8583   39.7955    8.2155 H   0  0  0  0  0  0
    5.2437   36.3824    8.0076 H   0  0  0  0  0  0
    5.4197   36.0779   10.4483 H   0  0  0  0  0  0
  1  2  1  0  0  0
  1 11  2  0  0  0
  1 21  1  0  0  0
  2  3  2  0  0  0
  2  4  1  0  0  0
  4  5  2  0  0  0
  4  9  1  0  0  0
  5  6  1  0  0  0
  5 22  1  0  0  0
  6  7  2  0  0  0
  6 23  1  0  0  0
  7  8  1  0  0  0
  7 24  1  0  0  0
  8  9  2  0  0  0
  8 25  1  0  0  0
  9 10  1  0  0  0
 10 11  1  0  0  0
 11 12  1  0  0  0
 12 13  2  0  0  0
 12 20  1  0  0  0
 13 14  1  0  0  0
 13 26  1  0  0  0
 14 15  2  0  0  0
 14 27  1  0  0  0
 15 16  1  0  0  0
 15 19  1  0  0  0
 16 17  2  0  0  0
 16 18  1  0  0  0
 19 20  2  0  0  0
 19 28  1  0  0  0
 20 29  1  0  0  0
M  CHG  2  16   1  18  -1
M  END
> <s_m_source_file>
../4l0t_ligand.sdf

> <i_m_source_file_index>
1

> <s_epik_input>
Tz1bTitdKFtPLV0pYyhbY0hdW2NIXTEpW2NIXVtjSF1jMS1jKFtjSF1jMj1PKW9jKGMyMylbY0hdW2NIXVtjSF1bY0hdMw==

> <s_epik_cmdline>
J2VwaWtfYXBwJywgJy1pbWFlJywgJ2xpZ2FuZF9wcm8ubWFlJywgJy1vbWFlJywgJ2xpZ2FuZF9wcmVwLm1hZScsICctbXMnLCAnMScsICctcGgnLCAnNycsICctcGh0JywgJzAuNScsICctbnQn

> <r_lp_tautomer_probability>
1

> <r_epik_Ionization_Penalty>
  0.0000

> <r_epik_Ionization_Penalty_Charging>
  0.0000

> <r_epik_Ionization_Penalty_Neutral>
  0.0000

> <r_epik_State_Penalty>
 -0.0000

> <r_epik_Charging_Adjusted_Penalty>
0

> <i_epik_Tot_Q>
0

> <i_epik_Tot_abs_Q>
2

$$$$
