4l0v_ligand
                    3D
 Schrodinger Suite 2020-3.
 27 29  0  0  1  0            999 V2000
   -7.3710  -38.0050   12.9100 C   0  0  0  0  0  0
   -7.3570  -37.7030   14.2630 C   0  0  0  0  0  0
   -8.1600  -38.2750   14.9950 O   0  0  0  0  0  0
   -6.5050  -36.6920   14.7170 C   0  0  0  0  0  0
   -6.3640  -36.4240   16.0480 C   0  0  0  0  0  0
   -5.5170  -35.3710   16.4470 C   0  0  0  0  0  0
   -4.8080  -34.6040   15.5070 C   0  0  0  0  0  0
   -4.9580  -34.8980   14.1400 C   0  0  0  0  0  0
   -5.8070  -35.9300   13.7780 C   0  0  0  0  0  0
   -5.8910  -36.2240   12.4520 O   0  0  0  0  0  0
   -6.5900  -37.3270   12.0220 C   0  0  0  0  0  0
   -6.5800  -37.5590   10.6240 C   0  0  0  0  0  0
   -5.8560  -36.6710    9.8080 C   0  0  0  0  0  0
   -5.8380  -36.8390    8.4230 C   0  0  0  0  0  0
   -6.5060  -37.9140    7.8450 C   0  0  0  0  0  0
   -6.4610  -38.1020    6.1170 Cl  0  0  0  0  0  0
   -7.2290  -38.8080    8.6320 C   0  0  0  0  0  0
   -7.2720  -38.6270   10.0190 C   0  0  0  0  0  0
   -8.0207  -38.8020   12.5484 H   0  0  0  0  0  0
   -6.8986  -37.0157   16.7911 H   0  0  0  0  0  0
   -5.4094  -35.1464   17.5082 H   0  0  0  0  0  0
   -4.1532  -33.7953   15.8317 H   0  0  0  0  0  0
   -4.4190  -34.3273   13.3838 H   0  0  0  0  0  0
   -5.3055  -35.8463   10.2606 H   0  0  0  0  0  0
   -5.3011  -36.1287    7.7943 H   0  0  0  0  0  0
   -7.7573  -39.6424    8.1707 H   0  0  0  0  0  0
   -7.8457  -39.3181   10.6366 H   0  0  0  0  0  0
  1  2  1  0  0  0
  1 11  2  0  0  0
  1 19  1  0  0  0
  2  3  2  0  0  0
  2  4  1  0  0  0
  4  5  2  0  0  0
  4  9  1  0  0  0
  5  6  1  0  0  0
  5 20  1  0  0  0
  6  7  2  0  0  0
  6 21  1  0  0  0
  7  8  1  0  0  0
  7 22  1  0  0  0
  8  9  2  0  0  0
  8 23  1  0  0  0
  9 10  1  0  0  0
 10 11  1  0  0  0
 11 12  1  0  0  0
 12 13  2  0  0  0
 12 18  1  0  0  0
 13 14  1  0  0  0
 13 24  1  0  0  0
 14 15  2  0  0  0
 14 25  1  0  0  0
 15 16  1  0  0  0
 15 17  1  0  0  0
 17 18  2  0  0  0
 17 26  1  0  0  0
 18 27  1  0  0  0
M  END
> <s_m_source_file>
../4l0v_ligand.sdf

> <i_m_source_file_index>
1

> <s_epik_input>
W2NIXTFbY0hdYyhDbClbY0hdW2NIXWMxLWMoW2NIXWMyPU8pb2MoYzIzKVtjSF1bY0hdW2NIXVtjSF0z

> <s_epik_cmdline>
J2VwaWtfYXBwJywgJy1pbWFlJywgJ2xpZ2FuZF9wcm8ubWFlJywgJy1vbWFlJywgJ2xpZ2FuZF9wcmVwLm1hZScsICctbXMnLCAnMScsICctcGgnLCAnNycsICctcGh0JywgJzAuNScsICctbnQn

> <r_lp_tautomer_probability>
1

> <r_epik_Ionization_Penalty>
  0.0000

> <r_epik_Ionization_Penalty_Charging>
  0.0000

> <r_epik_Ionization_Penalty_Neutral>
  0.0000

> <r_epik_State_Penalty>
 -0.0000

> <r_epik_Charging_Adjusted_Penalty>
0

> <i_epik_Tot_Q>
0

> <i_epik_Tot_abs_Q>
0

$$$$
