4l10_ligand
                    3D
 Schrodinger Suite 2020-3.
 31 33  0  0  1  0            999 V2000
   -5.8480  -39.4090    6.0090 C   0  0  0  0  0  0
   -6.3090  -38.1470    6.4510 O   0  0  0  0  0  0
   -6.4000  -38.0060    7.8320 C   0  0  0  0  0  0
   -7.0690  -38.9000    8.6520 C   0  0  0  0  0  0
   -7.1670  -38.7000   10.0410 C   0  0  0  0  0  0
   -5.8110  -36.8950    8.4220 C   0  0  0  0  0  0
   -5.8950  -36.6850    9.7990 C   0  0  0  0  0  0
   -6.5650  -37.5850   10.6270 C   0  0  0  0  0  0
   -6.6350  -37.3360   12.0050 C   0  0  0  0  0  0
   -5.9000  -36.2730   12.4170 O   0  0  0  0  0  0
   -5.8410  -35.9350   13.7380 C   0  0  0  0  0  0
   -4.9880  -34.9190   14.1100 C   0  0  0  0  0  0
   -4.8470  -34.6160   15.4710 C   0  0  0  0  0  0
   -5.5660  -35.3610   16.4100 C   0  0  0  0  0  0
   -6.3920  -36.4330   16.0030 C   0  0  0  0  0  0
   -6.5360  -36.7160   14.6540 C   0  0  0  0  0  0
   -7.3810  -37.7440   14.2150 C   0  0  0  0  0  0
   -8.2020  -38.2880   14.9460 O   0  0  0  0  0  0
   -7.4300  -38.0650   12.8620 C   0  0  0  0  0  0
   -5.8110  -39.4214    4.9097 H   0  0  0  0  0  0
   -6.5333  -40.1938    6.3617 H   0  0  0  0  0  0
   -4.8412  -39.5932    6.4119 H   0  0  0  0  0  0
   -7.5318  -39.7819    8.2091 H   0  0  0  0  0  0
   -7.7118  -39.4141   10.6585 H   0  0  0  0  0  0
   -5.2756  -36.1771    7.8007 H   0  0  0  0  0  0
   -5.4286  -35.8017   10.2352 H   0  0  0  0  0  0
   -4.4317  -34.3598   13.3577 H   0  0  0  0  0  0
   -4.1862  -33.8110   15.7926 H   0  0  0  0  0  0
   -5.4887  -35.1123   17.4684 H   0  0  0  0  0  0
   -6.9137  -37.0348   16.7471 H   0  0  0  0  0  0
   -8.0737  -38.8638   12.4937 H   0  0  0  0  0  0
  1  2  1  0  0  0
  1 20  1  0  0  0
  1 21  1  0  0  0
  1 22  1  0  0  0
  2  3  1  0  0  0
  3  4  2  0  0  0
  3  6  1  0  0  0
  4  5  1  0  0  0
  4 23  1  0  0  0
  5  8  2  0  0  0
  5 24  1  0  0  0
  6  7  2  0  0  0
  6 25  1  0  0  0
  7  8  1  0  0  0
  7 26  1  0  0  0
  8  9  1  0  0  0
  9 10  1  0  0  0
  9 19  2  0  0  0
 10 11  1  0  0  0
 11 12  2  0  0  0
 11 16  1  0  0  0
 12 13  1  0  0  0
 12 27  1  0  0  0
 13 14  2  0  0  0
 13 28  1  0  0  0
 14 15  1  0  0  0
 14 29  1  0  0  0
 15 16  2  0  0  0
 15 30  1  0  0  0
 16 17  1  0  0  0
 17 18  2  0  0  0
 17 19  1  0  0  0
 19 31  1  0  0  0
M  END
> <s_m_source_file>
../4l10_ligand.sdf

> <i_m_source_file_index>
1

> <s_epik_input>
W0NIM11PYzFbY0hdW2NIXWMoW2NIXVtjSF0xKS1jKG8yKVtjSF1jKD1PKWMoYzIzKVtjSF1bY0hdW2NIXVtjSF0z

> <s_epik_cmdline>
J2VwaWtfYXBwJywgJy1pbWFlJywgJ2xpZ2FuZF9wcm8ubWFlJywgJy1vbWFlJywgJ2xpZ2FuZF9wcmVwLm1hZScsICctbXMnLCAnMScsICctcGgnLCAnNycsICctcGh0JywgJzAuNScsICctbnQn

> <r_lp_tautomer_probability>
1

> <r_epik_Ionization_Penalty>
  0.0000

> <r_epik_Ionization_Penalty_Charging>
  0.0000

> <r_epik_Ionization_Penalty_Neutral>
  0.0000

> <r_epik_State_Penalty>
 -0.0000

> <r_epik_Charging_Adjusted_Penalty>
0

> <i_epik_Tot_Q>
0

> <i_epik_Tot_abs_Q>
0

$$$$
