4l1a_ligand
                    3D
 Schrodinger Suite 2020-3.
 94 97  0  0  1  0            999 V2000
  -13.0920   19.5310    0.3810 C   0  0  0  0  0  0
  -11.3300   17.6950    0.1140 C   0  0  0  0  0  0
  -10.9930   17.9610    1.5200 N   0  0  0  0  0  0
  -11.3660   19.1050    2.1200 C   0  0  0  0  0  0
  -12.5190   19.6420    1.7150 N   0  0  0  0  0  0
   -5.4600   10.8830    1.2800 C   0  0  0  0  0  0
   -4.6410   10.1320    2.1280 C   0  0  0  0  0  0
   -5.0110    8.8450    2.5030 C   0  0  0  0  0  0
   -6.2110    8.3200    2.0320 C   0  0  0  0  0  0
   -7.0390    9.0650    1.1920 C   0  0  0  0  0  0
   -6.6660   10.3520    0.8170 C   0  0  0  0  0  0
  -10.7040   19.6600    2.9650 O   0  0  0  0  0  0
  -10.2100   16.8840    2.1830 C   0  0  2  0  0  0
   -9.5200   16.0320    1.1490 C   0  0  0  0  0  0
   -8.4210   16.5270    0.5870 N   0  0  0  0  0  0
   -7.7980   15.7400   -0.4630 C   0  0  1  0  0  0
  -11.0930   15.9620    3.0610 C   0  0  0  0  0  0
  -10.9900   16.2770    4.5550 C   0  0  0  0  0  0
  -12.5620   15.8500    2.6490 C   0  0  0  0  0  0
   -9.9660   14.9330    0.8310 O   0  0  0  0  0  0
  -10.0850   15.7530   -4.7850 C   0  0  0  0  0  0
  -10.9160   14.7320   -4.3330 C   0  0  0  0  0  0
  -10.8880   14.3070   -3.0100 C   0  0  0  0  0  0
  -10.0030   14.9190   -2.1300 C   0  0  0  0  0  0
   -9.1590   15.9450   -2.5720 C   0  0  0  0  0  0
   -9.2040   16.3640   -3.8990 C   0  0  0  0  0  0
   -8.1880   16.6280   -1.6400 C   0  0  0  0  0  0
   -6.2810   15.7040   -0.3230 C   0  0  0  0  0  0
   -5.7680   14.5350    0.5170 C   0  0  1  0  0  0
   -5.8510   13.1050   -0.0240 C   0  0  1  0  0  0
   -5.0530   12.9910   -1.2350 N   0  0  0  0  0  0
   -5.1790   11.9510   -2.0660 C   0  0  0  0  0  0
   -4.2630   11.9450   -3.2530 C   0  0  0  0  0  0
   -2.9580   11.5290   -2.8220 O   0  0  0  0  0  0
   -2.4710   10.2780   -3.0940 C   0  0  0  0  0  0
   -4.3890   14.7870    0.7970 O   0  0  0  0  0  0
   -4.9830   12.2700    0.9190 C   0  0  0  0  0  0
   -5.9780   11.0330   -1.9300 O   0  0  0  0  0  0
   -2.1620    9.9220   -4.4040 C   0  0  0  0  0  0
   -1.6610    8.6470   -4.6840 C   0  0  0  0  0  0
   -1.4770    7.7200   -3.6580 C   0  0  0  0  0  0
   -1.7890    8.0770   -2.3480 C   0  0  0  0  0  0
   -2.2800    9.3500   -2.0670 C   0  0  0  0  0  0
   -2.5980    9.6890   -0.6390 C   0  0  0  0  0  0
   -2.3650   10.9000   -5.5300 C   0  0  0  0  0  0
  -12.7970   18.0990   -0.0760 C   0  0  0  0  0  0
  -14.1743   19.7213    0.4299 H   0  0  0  0  0  0
  -12.6195   20.2693   -0.2836 H   0  0  0  0  0  0
  -10.6742   18.2895   -0.5390 H   0  0  0  0  0  0
  -11.1892   16.6254   -0.1008 H   0  0  0  0  0  0
  -13.0472   20.2101    2.4949 H   0  0  0  0  0  0
   -3.7077   10.5572    2.4972 H   0  0  0  0  0  0
   -4.3695    8.2549    3.1574 H   0  0  0  0  0  0
   -6.5080    7.3126    2.3236 H   0  0  0  0  0  0
   -7.9754    8.6401    0.8305 H   0  0  0  0  0  0
   -7.3110   10.9421    0.1660 H   0  0  0  0  0  0
   -9.4708   17.4119    2.8033 H   0  0  0  0  0  0
   -7.9818   17.4900    0.8867 H   0  0  0  0  0  0
   -8.1213   14.6886   -0.4713 H   0  0  0  0  0  0
  -10.6649   14.9650    2.8802 H   0  0  0  0  0  0
   -9.9307   16.3554    4.8410 H   0  0  0  0  0  0
  -11.4673   15.4721    5.1332 H   0  0  0  0  0  0
  -11.4980   17.2299    4.7647 H   0  0  0  0  0  0
  -12.6252   15.6236    1.5744 H   0  0  0  0  0  0
  -13.0739   16.8018    2.8539 H   0  0  0  0  0  0
  -13.0432   15.0440    3.2224 H   0  0  0  0  0  0
  -10.1244   16.0717   -5.8266 H   0  0  0  0  0  0
  -11.6036   14.2554   -5.0317 H   0  0  0  0  0  0
  -11.5475   13.5090   -2.6690 H   0  0  0  0  0  0
   -9.9658   14.5981   -1.0890 H   0  0  0  0  0  0
   -8.5518   17.1672   -4.2420 H   0  0  0  0  0  0
   -8.6630   17.5464   -1.2648 H   0  0  0  0  0  0
   -7.2881   16.8896   -2.2159 H   0  0  0  0  0  0
   -5.8228   15.6166   -1.3192 H   0  0  0  0  0  0
   -5.9352   16.6300    0.1597 H   0  0  0  0  0  0
   -6.4055   14.5423    1.4134 H   0  0  0  0  0  0
   -6.8998   12.8166   -0.1877 H   0  0  0  0  0  0
   -4.3220   13.7732   -1.4877 H   0  0  0  0  0  0
   -4.6481   11.2458   -4.0098 H   0  0  0  0  0  0
   -4.2112   12.9569   -3.6813 H   0  0  0  0  0  0
   -4.0790   15.7623    1.2003 H   0  0  0  0  0  0
   -4.8900   12.8752    1.8329 H   0  0  0  0  0  0
   -4.0038   12.2033    0.4222 H   0  0  0  0  0  0
   -1.4127    8.3758   -5.7101 H   0  0  0  0  0  0
   -1.0923    6.7245   -3.8794 H   0  0  0  0  0  0
   -1.6485    7.3582   -1.5407 H   0  0  0  0  0  0
   -2.9726   10.7217   -0.5820 H   0  0  0  0  0  0
   -1.6879    9.5949   -0.0284 H   0  0  0  0  0  0
   -3.3664    8.9987   -0.2607 H   0  0  0  0  0  0
   -2.7622   11.8440   -5.1286 H   0  0  0  0  0  0
   -3.0780   10.4811   -6.2554 H   0  0  0  0  0  0
   -1.4031   11.0895   -6.0289 H   0  0  0  0  0  0
  -13.4132   17.3952    0.5027 H   0  0  0  0  0  0
  -13.0333   17.9994   -1.1457 H   0  0  0  0  0  0
  1  5  1  0  0  0
  1 46  1  0  0  0
  1 47  1  0  0  0
  1 48  1  0  0  0
  2  3  1  0  0  0
  2 46  1  0  0  0
  2 49  1  0  0  0
  2 50  1  0  0  0
  3  4  1  0  0  0
  3 13  1  0  0  0
  4  5  1  0  0  0
  4 12  2  0  0  0
  5 51  1  0  0  0
  6  7  2  0  0  0
  6 11  1  0  0  0
  6 37  1  0  0  0
  7  8  1  0  0  0
  7 52  1  0  0  0
  8  9  2  0  0  0
  8 53  1  0  0  0
  9 10  1  0  0  0
  9 54  1  0  0  0
 10 11  2  0  0  0
 10 55  1  0  0  0
 11 56  1  0  0  0
 13 14  1  0  0  0
 13 17  1  0  0  0
 13 57  1  0  0  0
 14 15  1  0  0  0
 14 20  2  0  0  0
 15 16  1  0  0  0
 15 58  1  0  0  0
 16 27  1  0  0  0
 16 28  1  0  0  0
 16 59  1  0  0  0
 17 18  1  0  0  0
 17 19  1  0  0  0
 17 60  1  0  0  0
 18 61  1  0  0  0
 18 62  1  0  0  0
 18 63  1  0  0  0
 19 64  1  0  0  0
 19 65  1  0  0  0
 19 66  1  0  0  0
 21 22  2  0  0  0
 21 26  1  0  0  0
 21 67  1  0  0  0
 22 23  1  0  0  0
 22 68  1  0  0  0
 23 24  2  0  0  0
 23 69  1  0  0  0
 24 25  1  0  0  0
 24 70  1  0  0  0
 25 26  2  0  0  0
 25 27  1  0  0  0
 26 71  1  0  0  0
 27 72  1  0  0  0
 27 73  1  0  0  0
 28 29  1  0  0  0
 28 74  1  0  0  0
 28 75  1  0  0  0
 29 30  1  0  0  0
 29 36  1  0  0  0
 29 76  1  0  0  0
 30 31  1  0  0  0
 30 37  1  0  0  0
 30 77  1  0  0  0
 31 32  1  0  0  0
 31 78  1  0  0  0
 32 33  1  0  0  0
 32 38  2  0  0  0
 33 34  1  0  0  0
 33 79  1  0  0  0
 33 80  1  0  0  0
 34 35  1  0  0  0
 35 39  2  0  0  0
 35 43  1  0  0  0
 36 81  1  0  0  0
 37 82  1  0  0  0
 37 83  1  0  0  0
 39 40  1  0  0  0
 39 45  1  0  0  0
 40 41  2  0  0  0
 40 84  1  0  0  0
 41 42  1  0  0  0
 41 85  1  0  0  0
 42 43  2  0  0  0
 42 86  1  0  0  0
 43 44  1  0  0  0
 44 87  1  0  0  0
 44 88  1  0  0  0
 44 89  1  0  0  0
 45 90  1  0  0  0
 45 91  1  0  0  0
 45 92  1  0  0  0
 46 93  1  0  0  0
 46 94  1  0  0  0
M  END
> <s_m_source_file>
../4l1a_ligand.sdf

> <i_m_source_file_index>
1

> <s_epik_input>
Tz1DMVtOSF1bQ0gyXVtDSDJdW0NIMl1OMVtDQEBIXShbQ0hdKFtDSDNdKVtDSDNdKUMoPU8pW05IXVtDQEBIXShbQ0gyXWMyW2NIXVtjSF1bY0hdW2NIXVtjSF0yKVtDSDJdW0NASF0oW09IXSlbQ0BIXShbQ0gyXWMzW2NIXVtjSF1bY0hdW2NIXVtjSF0zKVtOSF1DKD1PKVtDSDJdT2M0YyhbQ0gzXSlbY0hdW2NIXVtjSF1jNFtDSDNd

> <s_epik_cmdline>
J2VwaWtfYXBwJywgJy1pbWFlJywgJ2xpZ2FuZF9wcm8ubWFlJywgJy1vbWFlJywgJ2xpZ2FuZF9wcmVwLm1hZScsICctbXMnLCAnMScsICctcGgnLCAnNycsICctcGh0JywgJzAuNScsICctbnQn

> <r_lp_tautomer_probability>
1

> <r_epik_Ionization_Penalty>
  0.0001

> <r_epik_Ionization_Penalty_Charging>
  0.0000

> <r_epik_Ionization_Penalty_Neutral>
  0.0001

> <r_epik_State_Penalty>
 -0.0000

> <r_epik_Charging_Adjusted_Penalty>
0

> <i_epik_Tot_Q>
0

> <i_epik_Tot_abs_Q>
0

$$$$
