4l1u_ligand
                    3D
 Schrodinger Suite 2020-3.
121122  0  0  1  0            999 V2000
  216.7040  -10.9870   61.4670 N   0  3  0  0  0  0
  217.7260  -11.3630   62.4270 C   0  0  0  0  0  0
  217.1910  -11.9400   63.7330 C   0  0  0  0  0  0
  216.0400  -12.3740   63.8020 O   0  0  0  0  0  0
  218.0420  -11.9350   64.7620 N   0  0  0  0  0  0
  217.7260  -12.4710   66.0950 C   0  0  2  0  0  0
  217.4000  -11.3330   67.0640 C   0  0  0  0  0  0
  218.2870  -10.5830   67.4820 O   0  0  0  0  0  0
  218.9150  -13.2770   66.6480 C   0  0  0  0  0  0
  220.1140  -13.0090   65.9290 O   0  0  0  0  0  0
  216.1310  -11.2360   67.4440 N   0  0  0  0  0  0
  215.6040  -10.0420   68.0910 C   0  0  2  0  0  0
  216.4350   -9.5660   69.2680 C   0  0  0  0  0  0
  216.7810  -10.3480   70.1520 O   0  0  0  0  0  0
  214.1700  -10.2690   68.5560 C   0  0  0  0  0  0
  213.5820   -9.0450   69.2150 C   0  0  0  0  0  0
  212.0960   -9.1960   69.4280 C   0  0  0  0  0  0
  211.7460  -10.3210   70.2930 N   0  0  0  0  0  0
  210.5250  -10.5200   70.7890 C   0  0  0  0  0  0
  209.5470   -9.6600   70.5140 N   0  0  0  0  0  0
  210.2690  -11.5760   71.5520 N   0  3  0  0  0  0
  216.7510   -8.2740   69.2630 N   0  0  0  0  0  0
  217.5220   -7.6730   70.3230 C   0  0  1  0  0  0
  218.0760   -6.3210   69.8710 C   0  0  1  0  0  0
  218.7830   -5.6290   71.0500 C   0  0  0  0  0  0
  219.0360   -6.5990   68.8310 O   0  0  0  0  0  0
  218.5450   -6.0050   67.4240 P   0  0  0  0  0  0
  219.5790   -6.3190   66.4180 O   0  0  0  0  0  0
  217.1130   -6.6400   67.0100 O   0  5  0  0  0  0
  218.3870   -4.3960   67.5340 O   0  5  0  0  0  0
  216.5610   -7.5310   71.4990 C   0  0  0  0  0  0
  215.4600   -6.9670   71.3520 O   0  0  0  0  0  0
  216.9510   -8.0530   72.6670 N   0  0  0  0  0  0
  216.0860   -7.8610   73.8300 C   0  0  2  0  0  0
  216.2360   -6.4310   74.3700 C   0  0  0  0  0  0
  217.2820   -5.8220   74.1700 O   0  0  0  0  0  0
  216.6110   -8.9020   74.8200 C   0  0  0  0  0  0
  218.0710   -9.0290   74.4650 C   0  0  0  0  0  0
  218.1380   -8.8730   72.9750 C   0  0  0  0  0  0
  215.2020   -5.9010   75.0140 N   0  0  0  0  0  0
  215.2540   -4.5500   75.5760 C   0  0  2  0  0  0
  215.5980   -4.5740   77.0610 C   0  0  0  0  0  0
  215.1150   -5.4210   77.8030 O   0  0  0  0  0  0
  213.9100   -3.8430   75.3790 C   0  0  0  0  0  0
  213.6130   -3.4940   73.9330 C   0  0  0  0  0  0
  214.7640   -2.2660   73.2660 S   0  0  0  0  0  0
  215.6400   -3.2420   72.0540 C   0  0  0  0  0  0
  216.4400   -3.6420   77.4840 N   0  0  0  0  0  0
  216.7660   -3.4800   78.8940 C   0  0  2  0  0  0
  215.4830   -3.2750   79.7200 C   0  0  0  0  0  0
  214.5680   -2.5820   79.2780 O   0  0  0  0  0  0
  217.7090   -2.2900   79.0640 C   0  0  0  0  0  0
  218.0400   -1.9760   80.4930 C   0  0  0  0  0  0
  218.5040   -2.9630   81.3550 C   0  0  0  0  0  0
  217.8970   -0.6900   80.9840 C   0  0  0  0  0  0
  218.8090   -2.6720   82.6740 C   0  0  0  0  0  0
  218.1990   -0.3900   82.2920 C   0  0  0  0  0  0
  218.6570   -1.3800   83.1380 C   0  0  0  0  0  0
  218.9590   -1.0630   84.4520 O   0  0  0  0  0  0
  215.4170   -3.8900   80.9040 N   0  0  0  0  0  0
  214.2140   -3.8760   81.7250 C   0  0  0  0  0  0
  213.1080   -4.7570   81.1670 C   0  0  0  0  0  0
  212.7232   -4.6539   79.9716 O   0  5  0  0  0  0
  212.5634   -5.6102   81.9173 O   0  0  0  0  0  0
  217.1817  -10.5835   60.5620 H   0  0  0  0  0  0
  216.0499  -10.2210   61.9089 H   0  0  0  0  0  0
  216.1060  -11.8716   61.2027 H   0  0  0  0  0  0
  218.3801  -12.1290   61.9851 H   0  0  0  0  0  0
  218.3240  -10.4784   62.6913 H   0  0  0  0  0  0
  219.0313  -11.4957   64.5662 H   0  0  0  0  0  0
  216.8475  -13.1178   65.9542 H   0  0  0  0  0  0
  219.0782  -13.0125   67.7032 H   0  0  0  0  0  0
  218.6975  -14.3524   66.5690 H   0  0  0  0  0  0
  221.0494  -13.5141   66.2117 H   0  0  0  0  0  0
  215.4715  -12.0959   67.2555 H   0  0  0  0  0  0
  215.6648   -9.2856   67.2946 H   0  0  0  0  0  0
  213.5406  -10.5263   67.6914 H   0  0  0  0  0  0
  214.1468  -11.0929   69.2845 H   0  0  0  0  0  0
  214.0611   -8.8892   70.1928 H   0  0  0  0  0  0
  213.7560   -8.1658   68.5772 H   0  0  0  0  0  0
  211.6980   -8.2832   69.8953 H   0  0  0  0  0  0
  211.6012   -9.3575   68.4589 H   0  0  0  0  0  0
  212.5110  -11.0620   70.5682 H   0  0  0  0  0  0
  209.7482   -8.7818   69.8829 H   0  0  0  0  0  0
  208.5376   -9.8275   70.9178 H   0  0  0  0  0  0
  211.0699  -12.2930   71.7855 H   0  0  0  0  0  0
  216.4060   -7.6603   68.4178 H   0  0  0  0  0  0
  218.3768   -8.3210   70.5668 H   0  0  0  0  0  0
  217.2967   -5.6642   69.4572 H   0  0  0  0  0  0
  218.0509   -5.4170   71.8432 H   0  0  0  0  0  0
  219.2335   -4.6865   70.7053 H   0  0  0  0  0  0
  219.5699   -6.2889   71.4441 H   0  0  0  0  0  0
  215.0242   -7.9968   73.5769 H   0  0  0  0  0  0
  216.4620   -8.5387   75.8475 H   0  0  0  0  0  0
  216.0649   -9.8469   74.6825 H   0  0  0  0  0  0
  218.6427   -8.2409   74.9769 H   0  0  0  0  0  0
  218.4410  -10.0152   74.7821 H   0  0  0  0  0  0
  218.0655   -9.8356   72.4476 H   0  0  0  0  0  0
  219.0447   -8.3430   72.6479 H   0  0  0  0  0  0
  214.2893   -6.5059   75.1196 H   0  0  0  0  0  0
  216.0564   -4.0405   75.0223 H   0  0  0  0  0  0
  213.0976   -4.4947   75.7328 H   0  0  0  0  0  0
  213.9024   -2.9038   75.9515 H   0  0  0  0  0  0
  213.6885   -4.4003   73.3141 H   0  0  0  0  0  0
  212.5961   -3.0816   73.8567 H   0  0  0  0  0  0
  216.3925   -2.6153   71.5530 H   0  0  0  0  0  0
  214.9280   -3.6265   71.3088 H   0  0  0  0  0  0
  216.1390   -4.0854   72.5536 H   0  0  0  0  0  0
  216.8972   -2.9796   76.7342 H   0  0  0  0  0  0
  217.2674   -4.4082   79.2057 H   0  0  0  0  0  0
  218.6581   -2.4977   78.5481 H   0  0  0  0  0  0
  217.2460   -1.3906   78.6319 H   0  0  0  0  0  0
  218.6296   -3.9813   80.9871 H   0  0  0  0  0  0
  217.5388    0.0989   80.3226 H   0  0  0  0  0  0
  219.1663   -3.4566   83.3410 H   0  0  0  0  0  0
  218.0768    0.6286   82.6602 H   0  0  0  0  0  0
  219.3248   -1.8431   85.1359 H   0  0  0  0  0  0
  216.3151   -4.4206   81.2532 H   0  0  0  0  0  0
  214.4550   -4.2395   82.7348 H   0  0  0  0  0  0
  213.8251   -2.8490   81.7881 H   0  0  0  0  0  0
  209.2560  -11.7339   71.9507 H   0  0  0  0  0  0
  1  2  1  0  0  0
  1 65  1  0  0  0
  1 66  1  0  0  0
  1 67  1  0  0  0
  2  3  1  0  0  0
  2 68  1  0  0  0
  2 69  1  0  0  0
  3  4  2  0  0  0
  3  5  1  0  0  0
  5  6  1  0  0  0
  5 70  1  0  0  0
  6  7  1  0  0  0
  6  9  1  0  0  0
  6 71  1  0  0  0
  7  8  2  0  0  0
  7 11  1  0  0  0
  9 10  1  0  0  0
  9 72  1  0  0  0
  9 73  1  0  0  0
 10 74  1  0  0  0
 11 12  1  0  0  0
 11 75  1  0  0  0
 12 13  1  0  0  0
 12 15  1  0  0  0
 12 76  1  0  0  0
 13 14  2  0  0  0
 13 22  1  0  0  0
 15 16  1  0  0  0
 15 77  1  0  0  0
 15 78  1  0  0  0
 16 17  1  0  0  0
 16 79  1  0  0  0
 16 80  1  0  0  0
 17 18  1  0  0  0
 17 81  1  0  0  0
 17 82  1  0  0  0
 18 19  1  0  0  0
 18 83  1  0  0  0
 19 20  1  0  0  0
 19 21  2  0  0  0
 20 84  1  0  0  0
 20 85  1  0  0  0
 21 86  1  0  0  0
 21121  1  0  0  0
 22 23  1  0  0  0
 22 87  1  0  0  0
 23 24  1  0  0  0
 23 31  1  0  0  0
 23 88  1  0  0  0
 24 25  1  0  0  0
 24 26  1  0  0  0
 24 89  1  0  0  0
 25 90  1  0  0  0
 25 91  1  0  0  0
 25 92  1  0  0  0
 26 27  1  0  0  0
 27 28  2  0  0  0
 27 29  1  0  0  0
 27 30  1  0  0  0
 31 32  2  0  0  0
 31 33  1  0  0  0
 33 34  1  0  0  0
 33 39  1  0  0  0
 34 35  1  0  0  0
 34 37  1  0  0  0
 34 93  1  0  0  0
 35 36  2  0  0  0
 35 40  1  0  0  0
 37 38  1  0  0  0
 37 94  1  0  0  0
 37 95  1  0  0  0
 38 39  1  0  0  0
 38 96  1  0  0  0
 38 97  1  0  0  0
 39 98  1  0  0  0
 39 99  1  0  0  0
 40 41  1  0  0  0
 40100  1  0  0  0
 41 42  1  0  0  0
 41 44  1  0  0  0
 41101  1  0  0  0
 42 43  2  0  0  0
 42 48  1  0  0  0
 44 45  1  0  0  0
 44102  1  0  0  0
 44103  1  0  0  0
 45 46  1  0  0  0
 45104  1  0  0  0
 45105  1  0  0  0
 46 47  1  0  0  0
 47106  1  0  0  0
 47107  1  0  0  0
 47108  1  0  0  0
 48 49  1  0  0  0
 48109  1  0  0  0
 49 50  1  0  0  0
 49 52  1  0  0  0
 49110  1  0  0  0
 50 51  2  0  0  0
 50 60  1  0  0  0
 52 53  1  0  0  0
 52111  1  0  0  0
 52112  1  0  0  0
 53 54  2  0  0  0
 53 55  1  0  0  0
 54 56  1  0  0  0
 54113  1  0  0  0
 55 57  2  0  0  0
 55114  1  0  0  0
 56 58  2  0  0  0
 56115  1  0  0  0
 57 58  1  0  0  0
 57116  1  0  0  0
 58 59  1  0  0  0
 59117  1  0  0  0
 60 61  1  0  0  0
 60118  1  0  0  0
 61 62  1  0  0  0
 61119  1  0  0  0
 61120  1  0  0  0
 62 63  1  0  0  0
 62 64  2  0  0  0
M  CHG  5   1   1  21   1  29  -1  30  -1  63  -1
M  END
> <s_m_source_file>
../4l1u_ligand.sdf

> <i_m_source_file_index>
1

> <s_epik_input>
W05IMytdW0NIMl1DKD1PKVtOSF1bQ0BASF0oW0NIMl1bT0hdKUMoPU8pW05IXVtDQEBIXShbQ0gyXVtDSDJdW0NIMl1bTkhdL0MoW05IMl0pPU5cW0hdKUMoPU8pW05IXVtDQEBIXShbQ0BASF0oW0NIM10pT1AoPU8pKFtPSF0pW09IXSlDKD1PKU4xW0NAQEhdKFtDSDJdW0NIMl1bQ0gyXTEpQyg9TylbTkhdW0NAQEhdKFtDSDJdW0NIMl1TW0NIM10pQyg9TylbTkhdW0NASF0oQyg9TylbTkhdW0NIMl1DKD1PKVtPSF0pW0NIMl1jMltjSF1bY0hdYyhbT0hdKVtjSF1bY0hdMg==

> <s_epik_cmdline>
J2VwaWtfYXBwJywgJy1pbWFlJywgJ2xpZ2FuZF9wcm8ubWFlJywgJy1vbWFlJywgJ2xpZ2FuZF9wcmVwLm1hZScsICctbXMnLCAnMScsICctcGgnLCAnNycsICctcGh0JywgJzAuNScsICctbnQn

> <r_lp_tautomer_probability>
0.999999999997365

> <r_epik_Ionization_Penalty>
  0.2143

> <r_epik_Ionization_Penalty_Charging>
  0.2134

> <r_epik_Ionization_Penalty_Neutral>
  0.0009

> <r_epik_State_Penalty>
  0.1810

> <r_epik_Charging_Adjusted_Penalty>
0.394448877006951

> <i_epik_Tot_Q>
-1

> <i_epik_Tot_abs_Q>
5

> <s_epik_Chemistry_Notes>
This compound has an imine and may undergo hydrolysis.

$$$$
