4l2k_ligand
                    3D
 Schrodinger Suite 2020-3.
 30 33  0  0  1  0            999 V2000
   -7.5080  -38.5070    9.8510 C   0  0  0  0  0  0
   -7.3770  -38.6060    8.5130 C   0  0  0  0  0  0
   -8.0880  -39.3820    7.6380 O   0  0  0  0  0  0
   -7.8410  -38.6440    6.3460 C   0  0  0  0  0  0
   -6.4930  -38.0980    6.4830 O   0  0  0  0  0  0
   -6.4500  -37.8700    7.8320 C   0  0  0  0  0  0
   -5.6580  -37.0220    8.4820 C   0  0  0  0  0  0
   -5.7390  -36.8920    9.8640 C   0  0  0  0  0  0
   -6.6760  -37.6440   10.5920 C   0  0  0  0  0  0
   -6.7420  -37.4680   12.0010 C   0  0  0  0  0  0
   -5.9630  -36.4410   12.4960 O   0  0  0  0  0  0
   -5.8730  -36.2150   13.8240 C   0  0  0  0  0  0
   -4.9900  -35.2410   14.2660 C   0  0  0  0  0  0
   -4.8550  -35.0030   15.6320 C   0  0  0  0  0  0
   -5.6250  -35.7750   16.5130 C   0  0  0  0  0  0
   -6.5220  -36.7400   16.0590 C   0  0  0  0  0  0
   -6.6800  -36.9560   14.7000 C   0  0  0  0  0  0
   -7.5580  -37.9330   14.2100 C   0  0  0  0  0  0
   -8.3510  -38.5400   14.9420 O   0  0  0  0  0  0
   -7.5650  -38.1930   12.8480 C   0  0  0  0  0  0
   -8.2646  -39.1001   10.3647 H   0  0  0  0  0  0
   -7.9135  -39.3466    5.5028 H   0  0  0  0  0  0
   -8.5933  -37.8502    6.2275 H   0  0  0  0  0  0
   -4.9377  -36.4225    7.9254 H   0  0  0  0  0  0
   -5.0729  -36.2039   10.3845 H   0  0  0  0  0  0
   -4.4051  -34.6651   13.5488 H   0  0  0  0  0  0
   -4.1716  -34.2399   16.0043 H   0  0  0  0  0  0
   -5.5189  -35.6156   17.5860 H   0  0  0  0  0  0
   -7.0999  -37.3254   16.7741 H   0  0  0  0  0  0
   -8.2174  -38.9671   12.4439 H   0  0  0  0  0  0
  1  2  2  0  0  0
  1  9  1  0  0  0
  1 21  1  0  0  0
  2  3  1  0  0  0
  2  6  1  0  0  0
  3  4  1  0  0  0
  4  5  1  0  0  0
  4 22  1  0  0  0
  4 23  1  0  0  0
  5  6  1  0  0  0
  6  7  2  0  0  0
  7  8  1  0  0  0
  7 24  1  0  0  0
  8  9  2  0  0  0
  8 25  1  0  0  0
  9 10  1  0  0  0
 10 11  1  0  0  0
 10 20  2  0  0  0
 11 12  1  0  0  0
 12 13  2  0  0  0
 12 17  1  0  0  0
 13 14  1  0  0  0
 13 26  1  0  0  0
 14 15  2  0  0  0
 14 27  1  0  0  0
 15 16  1  0  0  0
 15 28  1  0  0  0
 16 17  2  0  0  0
 16 29  1  0  0  0
 17 18  1  0  0  0
 18 19  2  0  0  0
 18 20  1  0  0  0
 20 30  1  0  0  0
M  END
> <s_m_source_file>
../4l2k_ligand.sdf

> <i_m_source_file_index>
1

> <s_epik_input>
TzFbQ0gyXU9jKGMxMilbY0hdW2NIXWMoW2NIXTIpLWMobzMpW2NIXWMoPU8pYyhjMzQpW2NIXVtjSF1bY0hdW2NIXTQ=

> <s_epik_cmdline>
J2VwaWtfYXBwJywgJy1pbWFlJywgJ2xpZ2FuZF9wcm8ubWFlJywgJy1vbWFlJywgJ2xpZ2FuZF9wcmVwLm1hZScsICctbXMnLCAnMScsICctcGgnLCAnNycsICctcGh0JywgJzAuNScsICctbnQn

> <r_lp_tautomer_probability>
1

> <r_epik_Ionization_Penalty>
  0.0000

> <r_epik_Ionization_Penalty_Charging>
  0.0000

> <r_epik_Ionization_Penalty_Neutral>
  0.0000

> <r_epik_State_Penalty>
 -0.0000

> <r_epik_Charging_Adjusted_Penalty>
0

> <i_epik_Tot_Q>
0

> <i_epik_Tot_abs_Q>
0

> <s_epik_Chemistry_Notes>
This compound contains an acetal/aminal-like group ( X-CH(R)-Y where X, Y are N, S, or O) that may be acid/base labile, releasing an aldehyde.

$$$$
