4l2l_ligand
                    3D
 Schrodinger Suite 2020-3.
 33 35  0  0  1  0            999 V2000
   15.9010  -11.9760   14.8680 C   0  0  0  0  0  0
   15.9910  -10.7760   14.1970 C   0  0  0  0  0  0
   15.2980   -9.6600   14.5890 C   0  0  0  0  0  0
   14.5480   -9.7470   15.7740 C   0  0  0  0  0  0
   14.5300  -10.9170   16.5010 C   0  0  0  0  0  0
   15.0890  -12.0780   16.0010 C   0  0  0  0  0  0
   15.0220  -13.2770   16.8040 C   0  0  0  0  0  0
   13.7750  -14.0290   16.8790 C   0  0  0  0  0  0
   13.2980  -14.5220   18.0860 C   0  0  0  0  0  0
   12.1080  -15.2290   18.2380 C   0  0  0  0  0  0
   12.9300  -14.2140   15.8040 C   0  0  0  0  0  0
   11.7160  -14.9080   15.9670 C   0  0  0  0  0  0
   11.2840  -15.4920   17.1620 C   0  0  0  0  0  0
   10.0580  -16.1310   17.3480 C   0  0  0  0  0  0
    9.3920  -16.8220   16.4270 N   0  0  0  0  0  0
    8.2080  -17.4000   16.8190 C   0  0  0  0  0  0
    7.3220  -18.0920   16.1070 N   0  0  0  0  0  0
    7.7840  -17.0110   18.3900 S   0  0  0  0  0  0
    9.3820  -16.0810   18.4940 C   0  0  0  0  0  0
   16.4610  -12.8426   14.5165 H   0  0  0  0  0  0
   16.6374  -10.7116   13.3217 H   0  0  0  0  0  0
   15.3277   -8.7407   14.0040 H   0  0  0  0  0  0
   13.9778   -8.8847   16.1196 H   0  0  0  0  0  0
   14.0669  -10.9273   17.4877 H   0  0  0  0  0  0
   15.7545  -14.0086   16.4323 H   0  0  0  0  0  0
   15.2497  -13.0300   17.8515 H   0  0  0  0  0  0
   13.8978  -14.3429   18.9783 H   0  0  0  0  0  0
   11.8208  -15.5825   19.2283 H   0  0  0  0  0  0
   13.2035  -13.8213   14.8247 H   0  0  0  0  0  0
   11.0647  -14.9967   15.0975 H   0  0  0  0  0  0
    7.5506  -18.3739   15.0686 H   0  0  0  0  0  0
    6.3611  -18.3822   16.5569 H   0  0  0  0  0  0
    9.7272  -15.5565   19.3850 H   0  0  0  0  0  0
  1  2  2  0  0  0
  1  6  1  0  0  0
  1 20  1  0  0  0
  2  3  1  0  0  0
  2 21  1  0  0  0
  3  4  2  0  0  0
  3 22  1  0  0  0
  4  5  1  0  0  0
  4 23  1  0  0  0
  5  6  2  0  0  0
  5 24  1  0  0  0
  6  7  1  0  0  0
  7  8  1  0  0  0
  7 25  1  0  0  0
  7 26  1  0  0  0
  8  9  2  0  0  0
  8 11  1  0  0  0
  9 10  1  0  0  0
  9 27  1  0  0  0
 10 13  2  0  0  0
 10 28  1  0  0  0
 11 12  2  0  0  0
 11 29  1  0  0  0
 12 13  1  0  0  0
 12 30  1  0  0  0
 13 14  1  0  0  0
 14 15  1  0  0  0
 14 19  2  0  0  0
 15 16  2  0  0  0
 16 17  1  0  0  0
 16 18  1  0  0  0
 17 31  1  0  0  0
 17 32  1  0  0  0
 18 19  1  0  0  0
 19 33  1  0  0  0
M  END
> <s_m_source_file>
../4l2l_ligand.sdf

> <i_m_source_file_index>
1

> <s_epik_input>
W2NIXTFbY0hdW2NIXVtjSF1bY0hdYzFbQ0gyXWMyW2NIXVtjSF1jKFtjSF1bY0hdMiktYzNuYyhbTkgyXSlzW2NIXTM=

> <s_epik_cmdline>
J2VwaWtfYXBwJywgJy1pbWFlJywgJ2xpZ2FuZF9wcm8ubWFlJywgJy1vbWFlJywgJ2xpZ2FuZF9wcmVwLm1hZScsICctbXMnLCAnMScsICctcGgnLCAnNycsICctcGh0JywgJzAuNScsICctbnQn

> <r_epik_Ionization_Penalty>
  0.0186

> <r_epik_Ionization_Penalty_Charging>
  0.0000

> <r_epik_Ionization_Penalty_Neutral>
  0.0186

> <r_epik_State_Penalty>
  0.0148

> <r_epik_Charging_Adjusted_Penalty>
0.0148430255117336

> <i_epik_Tot_Q>
0

> <i_epik_Tot_abs_Q>
0

$$$$
