4l2x_ligand
                    3D
 Schrodinger Suite 2020-3.
 40 43  0  0  1  0            999 V2000
   16.2970   32.8230  -10.5310 O   0  0  0  0  0  0
   16.5970   33.9440   -9.6000 P   0  0  0  0  0  0
   17.8390   33.9580   -8.7570 O   0  5  0  0  0  0
   16.5780   35.1250  -10.6780 O   0  5  0  0  0  0
   15.2270   34.0860   -8.3490 C   0  0  2  0  0  0
   15.5880   35.6040   -7.3550 P   0  0  0  0  0  0
   14.5830   35.6070   -6.1410 O   0  5  0  0  0  0
   16.8570   35.5030   -6.5980 O   0  0  0  0  0  0
   15.4560   36.5550   -8.4550 O   0  0  0  0  0  0
   15.0460   32.8310   -7.5130 N   0  0  0  0  0  0
   14.4800   31.7810   -8.1180 C   0  0  0  0  0  0
   13.4860   32.0900   -8.9230 N   0  0  0  0  0  0
   12.8250   31.1210   -9.6230 C   0  0  0  0  0  0
   13.2660   29.8310   -9.5000 N   0  0  0  0  0  0
   14.2920   29.5450   -8.6820 C   0  0  0  0  0  0
   15.0400   28.0720   -8.3880 S   0  0  0  0  0  0
   14.9370   30.4940   -7.9650 C   0  0  0  0  0  0
   15.9520   29.9310   -7.2130 C   0  0  0  0  0  0
   16.1000   28.5790   -7.3480 C   0  0  0  0  0  0
   17.0040   27.7080   -6.7980 C   0  0  0  0  0  0
   17.6800   27.9150   -5.6080 C   0  0  0  0  0  0
   18.5750   26.9740   -5.1170 C   0  0  0  0  0  0
   17.3060   26.5160   -7.4690 C   0  0  0  0  0  0
   18.2050   25.5770   -6.9840 C   0  0  0  0  0  0
   18.8450   25.7990   -5.7990 C   0  0  0  0  0  0
   19.7760   24.8160   -5.3800 C   0  0  0  0  0  0
   20.0750   24.5770   -3.9740 C   0  0  0  0  0  0
   19.2450   23.7300   -4.7100 C   0  0  0  0  0  0
   14.1993   34.0058   -8.7329 H   0  0  0  0  0  0
   16.9481   34.7839   -5.7706 H   0  0  0  0  0  0
   15.3747   32.8172   -6.4633 H   0  0  0  0  0  0
   11.9743   31.3669  -10.2586 H   0  0  0  0  0  0
   16.5898   30.5245   -6.5580 H   0  0  0  0  0  0
   17.5066   28.8330   -5.0465 H   0  0  0  0  0  0
   19.0787   27.1650   -4.1694 H   0  0  0  0  0  0
   16.8103   26.3163   -8.4190 H   0  0  0  0  0  0
   18.3996   24.6646   -7.5477 H   0  0  0  0  0  0
   20.3991   24.9992   -6.2678 H   0  0  0  0  0  0
   20.2775   24.3638   -2.9140 H   0  0  0  0  0  0
   18.7934   22.8492   -4.2301 H   0  0  0  0  0  0
  1  2  2  0  0  0
  2  3  1  0  0  0
  2  4  1  0  0  0
  2  5  1  0  0  0
  5  6  1  0  0  0
  5 10  1  0  0  0
  5 29  1  0  0  0
  6  7  1  0  0  0
  6  8  1  0  0  0
  6  9  2  0  0  0
  8 30  1  0  0  0
 10 11  1  0  0  0
 10 31  1  0  0  0
 11 12  1  0  0  0
 11 17  2  0  0  0
 12 13  2  0  0  0
 13 14  1  0  0  0
 13 32  1  0  0  0
 14 15  2  0  0  0
 15 16  1  0  0  0
 15 17  1  0  0  0
 16 19  1  0  0  0
 17 18  1  0  0  0
 18 19  2  0  0  0
 18 33  1  0  0  0
 19 20  1  0  0  0
 20 21  2  0  0  0
 20 23  1  0  0  0
 21 22  1  0  0  0
 21 34  1  0  0  0
 22 25  2  0  0  0
 22 35  1  0  0  0
 23 24  2  0  0  0
 23 36  1  0  0  0
 24 25  1  0  0  0
 24 37  1  0  0  0
 25 26  1  0  0  0
 26 27  1  0  0  0
 26 28  1  0  0  0
 26 38  1  0  0  0
 27 28  2  0  0  0
 27 39  1  0  0  0
 28 40  1  0  0  0
M  CHG  3   3  -1   4  -1   7  -1
M  END
> <s_m_source_file>
../4l2x_ligand.sdf

> <i_m_source_file_index>
1

> <s_epik_input>
Tz1QKFtPSF0pKFtPSF0pW0NIXShQKD1PKShbT0hdKVtPSF0pW05IXWMobltjSF1uMSljKGMxMilbY0hdYyhzMiktYzNbY0hdW2NIXWMoW2NIXVtjSF0zKVtDSF00W0NIXT1bQ0hdNA==

> <s_epik_cmdline>
J2VwaWtfYXBwJywgJy1pbWFlJywgJ2xpZ2FuZF9wcm8ubWFlJywgJy1vbWFlJywgJ2xpZ2FuZF9wcmVwLm1hZScsICctbXMnLCAnMScsICctcGgnLCAnNycsICctcGh0JywgJzAuNScsICctbnQn

> <r_epik_Ionization_Penalty>
  0.3353

> <r_epik_Ionization_Penalty_Charging>
  0.3350

> <r_epik_Ionization_Penalty_Neutral>
  0.0003

> <r_epik_State_Penalty>
  0.3302

> <r_epik_Charging_Adjusted_Penalty>
0.665189692377137

> <i_epik_Tot_Q>
-3

> <i_epik_Tot_abs_Q>
3

$$$$
