4l32_ligand
                    3D
 Schrodinger Suite 2020-3.
 47 50  0  0  1  0            999 V2000
    4.7170  -38.0360   -5.9560 C   0  0  0  0  0  0
    4.4470  -39.3470   -5.1860 C   0  0  0  0  0  0
    4.2100  -39.0400   -3.7620 N   0  3  0  0  0  0
    3.8670  -40.2800   -2.9970 C   0  0  0  0  0  0
    5.6030  -38.7470   -3.3150 C   0  0  0  0  0  0
    6.1710  -37.5630   -4.0010 C   0  0  0  0  0  0
    6.0720  -37.7300   -5.5060 N   0  0  0  0  0  0
    7.1420  -37.6650   -6.3290 C   0  0  0  0  0  0
    8.2730  -37.4440   -5.8850 O   0  0  0  0  0  0
    7.0390  -37.6490   -7.7330 C   0  0  0  0  0  0
    7.9030  -38.3910   -8.5210 C   0  0  0  0  0  0
    7.8560  -38.3110   -9.9080 C   0  0  0  0  0  0
    6.1570  -36.7680   -8.3750 C   0  0  0  0  0  0
    6.1080  -36.6780   -9.7800 C   0  0  0  0  0  0
    6.9530  -37.4700  -10.5610 C   0  0  0  0  0  0
    6.9160  -37.3540  -11.9670 C   0  0  0  0  0  0
    6.1490  -36.3210  -12.4080 O   0  0  0  0  0  0
    6.0440  -36.0580  -13.7630 C   0  0  0  0  0  0
    5.1840  -35.0420  -14.1840 C   0  0  0  0  0  0
    5.0080  -34.7880  -15.5450 C   0  0  0  0  0  0
    5.6980  -35.5430  -16.4790 C   0  0  0  0  0  0
    6.5810  -36.5560  -16.0460 C   0  0  0  0  0  0
    6.7470  -36.8290  -14.6710 C   0  0  0  0  0  0
    7.6180  -37.8330  -14.2290 C   0  0  0  0  0  0
    8.3630  -38.4510  -15.0170 O   0  0  0  0  0  0
    7.7060  -38.0730  -12.8650 C   0  0  0  0  0  0
    4.6433  -38.2240   -7.0373 H   0  0  0  0  0  0
    3.9738  -37.2795   -5.6639 H   0  0  0  0  0  0
    3.5603  -39.8435   -5.6070 H   0  0  0  0  0  0
    5.3181  -40.0124   -5.2780 H   0  0  0  0  0  0
    3.4276  -38.2776   -3.6331 H   0  0  0  0  0  0
    2.8441  -40.5957   -3.2499 H   0  0  0  0  0  0
    3.9313  -40.0748   -1.9182 H   0  0  0  0  0  0
    4.5736  -41.0807   -3.2607 H   0  0  0  0  0  0
    5.6071  -38.5505   -2.2327 H   0  0  0  0  0  0
    6.2476  -39.6113   -3.5332 H   0  0  0  0  0  0
    5.6134  -36.6633   -3.7017 H   0  0  0  0  0  0
    7.2286  -37.4491   -3.7207 H   0  0  0  0  0  0
    8.6315  -39.0482   -8.0461 H   0  0  0  0  0  0
    8.5402  -38.9192  -10.4996 H   0  0  0  0  0  0
    5.4969  -36.1410   -7.7757 H   0  0  0  0  0  0
    5.4105  -35.9901  -10.2579 H   0  0  0  0  0  0
    4.6478  -34.4446  -13.4466 H   0  0  0  0  0  0
    4.3305  -33.9990  -15.8715 H   0  0  0  0  0  0
    5.5599  -35.3559  -17.5439 H   0  0  0  0  0  0
    7.1407  -37.1337  -16.7816 H   0  0  0  0  0  0
    8.3974  -38.8288  -12.4923 H   0  0  0  0  0  0
  1  2  1  0  0  0
  1  7  1  0  0  0
  1 27  1  0  0  0
  1 28  1  0  0  0
  2  3  1  0  0  0
  2 29  1  0  0  0
  2 30  1  0  0  0
  3  4  1  0  0  0
  3  5  1  0  0  0
  3 31  1  0  0  0
  4 32  1  0  0  0
  4 33  1  0  0  0
  4 34  1  0  0  0
  5  6  1  0  0  0
  5 35  1  0  0  0
  5 36  1  0  0  0
  6  7  1  0  0  0
  6 37  1  0  0  0
  6 38  1  0  0  0
  7  8  1  0  0  0
  8  9  2  0  0  0
  8 10  1  0  0  0
 10 11  2  0  0  0
 10 13  1  0  0  0
 11 12  1  0  0  0
 11 39  1  0  0  0
 12 15  2  0  0  0
 12 40  1  0  0  0
 13 14  2  0  0  0
 13 41  1  0  0  0
 14 15  1  0  0  0
 14 42  1  0  0  0
 15 16  1  0  0  0
 16 17  1  0  0  0
 16 26  2  0  0  0
 17 18  1  0  0  0
 18 19  2  0  0  0
 18 23  1  0  0  0
 19 20  1  0  0  0
 19 43  1  0  0  0
 20 21  2  0  0  0
 20 44  1  0  0  0
 21 22  1  0  0  0
 21 45  1  0  0  0
 22 23  2  0  0  0
 22 46  1  0  0  0
 23 24  1  0  0  0
 24 25  2  0  0  0
 24 26  1  0  0  0
 26 47  1  0  0  0
M  CHG  1   3   1
M  END
> <s_m_source_file>
../4l32_ligand.sdf

> <i_m_source_file_index>
1

> <s_epik_input>
W0NIM11bTkgrXTFbQ0gyXVtDSDJdTihbQ0gyXVtDSDJdMSlDKD1PKWMyW2NIXVtjSF1jKFtjSF1bY0hdMiktYyhvMylbY0hdYyg9TyljKGMzNClbY0hdW2NIXVtjSF1bY0hdNA==

> <s_epik_cmdline>
J2VwaWtfYXBwJywgJy1pbWFlJywgJ2xpZ2FuZF9wcm8ubWFlJywgJy1vbWFlJywgJ2xpZ2FuZF9wcmVwLm1hZScsICctbXMnLCAnMScsICctcGgnLCAnNycsICctcGh0JywgJzAuNScsICctbnQn

> <r_epik_Ionization_Penalty>
  0.3228

> <r_epik_Ionization_Penalty_Charging>
  0.3228

> <r_epik_Ionization_Penalty_Neutral>
  0.0000

> <r_epik_State_Penalty>
  0.3175

> <r_epik_Charging_Adjusted_Penalty>
0.640342393722261

> <i_epik_Tot_Q>
1

> <i_epik_Tot_abs_Q>
1

$$$$
