4l3o_ligand
                    3D
 Schrodinger Suite 2020-3.
264270  0  0  1  0            999 V2000
  -11.4080   77.3440   91.6570 C   0  0  0  0  0  0
  -11.3760   76.1280   91.8510 O   0  0  0  0  0  0
  -12.7010   78.1140   91.8010 C   0  0  0  0  0  0
  -10.3450   78.0630   91.3090 N   0  0  0  0  0  0
   -9.0270   77.4770   91.0710 C   0  0  2  0  0  0
   -9.0060   76.4400   89.9430 C   0  0  0  0  0  0
   -8.1650   76.5130   89.0550 O   0  0  0  0  0  0
   -8.4000   76.9530   92.3840 C   0  0  0  0  0  0
   -8.1100   75.4700   92.4470 C   0  0  0  0  0  0
   -6.9450   74.9450   91.9040 C   0  0  0  0  0  0
   -8.9890   74.5980   93.0770 C   0  0  0  0  0  0
   -6.6730   73.5820   91.9670 C   0  0  0  0  0  0
   -8.7270   73.2400   93.1480 C   0  0  0  0  0  0
   -7.5690   72.7370   92.5930 C   0  0  0  0  0  0
   -7.3060   71.3880   92.6630 O   0  0  0  0  0  0
   -9.9410   75.4960   89.9730 N   0  0  0  0  0  0
  -10.0130   74.4520   88.9600 C   0  0  2  0  0  0
  -11.1120   74.7260   87.9380 C   0  0  0  0  0  0
  -11.3660   73.9070   87.0540 O   0  0  0  0  0  0
  -10.2560   73.0900   89.6100 C   0  0  0  0  0  0
  -11.6180   72.9480   90.2140 C   0  0  0  0  0  0
  -11.9920   73.6000   91.3680 N   0  0  0  0  0  0
  -12.6980   72.2330   89.8180 C   0  0  0  0  0  0
  -13.2440   73.2940   91.6590 C   0  0  0  0  0  0
  -13.6950   72.4650   90.7350 N   0  0  0  0  0  0
  -11.7630   75.8780   88.0600 N   0  0  0  0  0  0
  -12.9280   76.1880   87.2350 C   0  0  2  0  0  0
  -12.6690   77.2620   86.1830 C   0  0  0  0  0  0
  -13.5320   78.1030   85.9340 O   0  0  0  0  0  0
  -14.1190   76.6500   88.0990 C   0  0  2  0  0  0
  -13.7800   77.8710   88.7690 O   0  0  0  0  0  0
  -14.4810   75.5860   89.1310 C   0  0  0  0  0  0
  -11.4920   77.2330   85.5620 N   0  0  0  0  0  0
  -11.1630   78.2080   84.5240 C   0  0  2  0  0  0
  -12.1370   78.1510   83.3510 C   0  0  0  0  0  0
  -12.4900   79.1800   82.7730 O   0  0  0  0  0  0
   -9.7340   78.0120   84.0130 C   0  0  0  0  0  0
   -9.4400   78.8110   82.7610 C   0  0  0  0  0  0
   -9.2710   80.1870   82.8190 C   0  0  0  0  0  0
   -9.3460   78.1900   81.5220 C   0  0  0  0  0  0
   -9.0070   80.9240   81.6800 C   0  0  0  0  0  0
   -9.0840   78.9180   80.3770 C   0  0  0  0  0  0
   -8.9160   80.2850   80.4620 C   0  0  0  0  0  0
   -8.6570   81.0170   79.3270 O   0  0  0  0  0  0
  -12.5680   76.9430   83.0120 N   0  0  0  0  0  0
  -13.4510   76.7210   81.8750 C   0  0  2  0  0  0
  -14.8800   77.1860   82.1470 C   0  0  0  0  0  0
  -15.7170   77.2040   81.2450 O   0  0  0  0  0  0
  -13.4480   75.2390   81.4960 C   0  0  0  0  0  0
  -13.8790   74.3320   82.6060 C   0  0  0  0  0  0
  -15.0380   73.5870   82.5520 N   0  0  0  0  0  0
  -13.3100   74.0520   83.8030 C   0  0  0  0  0  0
  -15.1640   72.8880   83.6650 C   0  0  0  0  0  0
  -14.1280   73.1530   84.4410 N   0  0  0  0  0  0
  -15.1520   77.5590   83.3930 N   0  0  0  0  0  0
  -16.4900   77.9730   83.8010 C   0  0  2  0  0  0
  -16.6610   79.4880   83.6830 C   0  0  0  0  0  0
  -15.7500   80.2480   84.0160 O   0  0  0  0  0  0
  -16.7840   77.5220   85.2480 C   0  0  0  0  0  0
  -18.1900   77.9180   85.6670 C   0  0  0  0  0  0
  -16.5890   76.0190   85.3790 C   0  0  0  0  0  0
  -17.8280   79.9170   83.2040 N   0  0  0  0  0  0
  -18.1330   81.3170   83.0680 C   0  0  2  0  0  0
  -18.1620   81.9780   84.4080 C   0  0  0  0  0  0
  -18.8930   81.5620   85.2980 O   0  0  0  0  0  0
  -19.4540   81.4820   82.3940 C   0  0  0  0  0  0
  -19.9060   82.8630   82.0570 C   0  0  0  0  0  0
  -21.2490   83.0120   81.4270 C   0  0  0  0  0  0
  -21.7340   84.3870   81.1100 C   0  0  0  0  0  0
  -22.9720   84.5000   80.3950 N   0  0  0  0  0  0
  -23.2730   85.7010   79.6800 C   0  0  0  0  0  0
  -22.4720   86.6240   79.6850 O   0  0  0  0  0  0
  -24.5540   85.8360   78.9250 C   0  0  0  0  0  0
  -24.3640   86.6550   77.8970 F   0  0  0  0  0  0
  -25.5010   86.3310   79.7130 F   0  0  0  0  0  0
  -24.9470   84.6520   78.4750 F   0  0  0  0  0  0
  -17.3520   83.0200   84.5630 N   0  0  0  0  0  0
  -17.2070   83.7090   85.8410 C   0  0  2  0  0  0
  -17.1220   85.2150   85.6430 C   0  0  0  0  0  0
  -17.1610   85.7080   84.5150 O   0  0  0  0  0  0
  -15.9370   83.2350   86.5550 C   0  0  0  0  0  0
  -15.9650   81.7920   87.0270 C   0  0  0  0  0  0
  -14.5550   81.2560   87.2590 C   0  0  0  0  0  0
  -13.8290   81.0480   86.0070 N   0  0  0  0  0  0
  -12.8380   81.8220   85.5730 C   0  0  0  0  0  0
  -12.4380   82.8620   86.2930 N   0  0  0  0  0  0
  -12.2400   81.5500   84.4180 N   0  0  0  0  0  0
  -17.0040   85.9430   86.7480 N   0  0  0  0  0  0
  -16.7050   87.3670   86.6960 C   0  0  2  0  0  0
  -15.2020   87.5500   86.8660 C   0  0  0  0  0  0
  -14.4570   86.5720   86.8930 O   0  0  0  0  0  0
  -17.4700   88.1370   87.7750 C   0  0  0  0  0  0
  -18.9670   88.2830   87.5150 C   0  0  0  0  0  0
  -19.7440   87.0440   87.9340 C   0  0  0  0  0  0
  -21.1880   87.2390   87.8330 N   0  0  0  0  0  0
  -22.0930   86.3890   88.3100 C   0  0  0  0  0  0
  -21.7070   85.2810   88.9280 N   0  0  0  0  0  0
  -23.3860   86.6480   88.1730 N   0  0  0  0  0  0
  -14.7540   88.7960   86.9860 N   0  0  0  0  0  0
  -13.3210   89.0830   87.0310 C   0  0  2  0  0  0
  -12.7440   89.1390   88.4440 C   0  0  0  0  0  0
  -11.8630   89.9490   88.7310 O   0  0  0  0  0  0
  -12.9840   90.3900   86.2950 C   0  0  2  0  0  0
  -13.9670   91.3830   86.6120 O   0  0  0  0  0  0
  -12.9740   90.1600   84.7940 C   0  0  0  0  0  0
  -13.2410   88.2750   89.3200 N   0  0  0  0  0  0
  -12.6880   88.1540   90.6610 C   0  0  2  0  0  0
  -11.4410   87.2800   90.6450 C   0  0  0  0  0  0
  -11.3780   86.2910   89.9160 O   0  0  0  0  0  0
  -13.7260   87.5630   91.6140 C   0  0  0  0  0  0
  -14.9470   88.4470   91.7660 C   0  0  0  0  0  0
  -14.8320   89.6540   91.9820 O   0  0  0  0  0  0
  -16.1280   87.8490   91.6460 N   0  0  0  0  0  0
  -10.4480   87.6450   91.4460 N   0  0  0  0  0  0
   -9.2340   86.8460   91.5500 C   0  0  2  0  0  0
   -9.3730   85.7890   92.6390 C   0  0  0  0  0  0
   -8.4850   85.6140   93.4710 O   0  0  0  0  0  0
   -8.0120   87.7330   91.7950 C   0  0  0  0  0  0
   -7.7360   88.6830   90.6560 C   0  0  0  0  0  0
   -7.3600   88.2040   89.4080 C   0  0  0  0  0  0
   -7.8590   90.0540   90.8230 C   0  0  0  0  0  0
   -7.1120   89.0660   88.3590 C   0  0  0  0  0  0
   -7.6110   90.9240   89.7800 C   0  0  0  0  0  0
   -7.2380   90.4240   88.5500 C   0  0  0  0  0  0
   -6.9910   91.2840   87.5060 O   0  0  0  0  0  0
  -10.5080   85.0970   92.6210 N   0  0  0  0  0  0
  -10.7750   83.9900   93.5290 C   0  0  2  0  0  0
  -11.9280   83.1430   93.0030 C   0  0  0  0  0  0
  -12.4830   83.4240   91.9430 O   0  0  0  0  0  0
  -11.0900   84.4900   94.9400 C   0  0  0  0  0  0
  -12.1070   85.6120   95.0090 C   0  0  0  0  0  0
  -13.4700   85.3500   94.9480 C   0  0  0  0  0  0
  -11.7010   86.9300   95.1590 C   0  0  0  0  0  0
  -14.3980   86.3730   95.0190 C   0  0  0  0  0  0
  -12.6190   87.9580   95.2320 C   0  0  0  0  0  0
  -13.9650   87.6760   95.1620 C   0  0  0  0  0  0
  -14.8770   88.7040   95.2360 O   0  0  0  0  0  0
  -12.2850   82.1040   93.7490 N   0  0  0  0  0  0
  -13.3610   81.2100   93.3410 C   0  0  2  0  0  0
  -14.5260   81.2470   94.3220 C   0  0  0  0  0  0
  -14.4130   80.7660   95.4510 O   0  0  0  0  0  0
  -12.8450   79.7800   93.2110 C   0  0  0  0  0  0
  -14.1330   78.5920   92.7790 S   0  0  0  0  0  0
  -15.6430   81.8190   93.8850 N   0  0  0  0  0  0
  -12.5034   79.1889   91.6768 H   0  0  0  0  0  0
  -13.4137   77.7810   91.0321 H   0  0  0  0  0  0
  -10.4920   79.1479   91.2020 H   0  0  0  0  0  0
   -8.4404   78.3307   90.7006 H   0  0  0  0  0  0
   -7.4369   77.4556   92.5565 H   0  0  0  0  0  0
   -9.0787   77.1629   93.2238 H   0  0  0  0  0  0
   -6.2314   75.6119   91.4202 H   0  0  0  0  0  0
   -9.9025   74.9902   93.5240 H   0  0  0  0  0  0
   -5.7594   73.1837   91.5256 H   0  0  0  0  0  0
   -9.4331   72.5714   93.6405 H   0  0  0  0  0  0
   -6.3832   70.9839   92.2212 H   0  0  0  0  0  0
  -10.6738   75.5181   90.7930 H   0  0  0  0  0  0
   -9.0315   74.4860   88.4646 H   0  0  0  0  0  0
  -10.1482   72.2984   88.8538 H   0  0  0  0  0  0
   -9.5223   72.9313   90.4141 H   0  0  0  0  0  0
  -12.8810   71.5644   88.9639 H   0  0  0  0  0  0
  -13.8084   73.6628   92.5155 H   0  0  0  0  0  0
  -11.4059   76.6061   88.8032 H   0  0  0  0  0  0
  -13.1109   75.2255   86.7349 H   0  0  0  0  0  0
  -14.9933   76.8783   87.4717 H   0  0  0  0  0  0
  -13.4900   78.7567   88.1848 H   0  0  0  0  0  0
  -14.7410   74.6493   88.6162 H   0  0  0  0  0  0
  -15.3410   75.9289   89.7250 H   0  0  0  0  0  0
  -13.6219   75.4127   89.7958 H   0  0  0  0  0  0
  -10.7617   76.4593   85.8412 H   0  0  0  0  0  0
  -11.2625   79.1775   85.0340 H   0  0  0  0  0  0
   -9.0207   78.3297   84.7878 H   0  0  0  0  0  0
   -9.5711   76.9498   83.7780 H   0  0  0  0  0  0
   -9.3478   80.6957   83.7799 H   0  0  0  0  0  0
   -9.4811   77.1107   81.4518 H   0  0  0  0  0  0
   -8.8716   82.0036   81.7444 H   0  0  0  0  0  0
   -9.0105   78.4155   79.4126 H   0  0  0  0  0  0
   -8.5230   82.1067   79.3940 H   0  0  0  0  0  0
  -12.2351   76.0919   83.6243 H   0  0  0  0  0  0
  -13.0273   77.3413   81.0714 H   0  0  0  0  0  0
  -14.1360   75.0746   80.6536 H   0  0  0  0  0  0
  -12.4314   74.9374   81.2034 H   0  0  0  0  0  0
  -12.3876   74.3992   84.2915 H   0  0  0  0  0  0
  -15.9825   72.2087   83.9029 H   0  0  0  0  0  0
  -14.3318   77.5494   84.1260 H   0  0  0  0  0  0
  -17.1635   77.4715   83.0904 H   0  0  0  0  0  0
  -16.0839   78.0228   85.9328 H   0  0  0  0  0  0
  -18.3100   79.0067   85.5650 H   0  0  0  0  0  0
  -18.3559   77.6274   86.7149 H   0  0  0  0  0  0
  -18.9218   77.4066   85.0244 H   0  0  0  0  0  0
  -15.5667   75.7537   85.0714 H   0  0  0  0  0  0
  -17.3126   75.4979   84.7349 H   0  0  0  0  0  0
  -16.7467   75.7187   86.4254 H   0  0  0  0  0  0
  -18.5703   79.1611   82.9080 H   0  0  0  0  0  0
  -17.3330   81.7564   82.4540 H   0  0  0  0  0  0
  -19.4458   80.9442   81.4345 H   0  0  0  0  0  0
  -20.2473   81.0729   83.0369 H   0  0  0  0  0  0
  -19.9454   83.4698   82.9736 H   0  0  0  0  0  0
  -19.1993   83.3171   81.3468 H   0  0  0  0  0  0
  -21.2640   82.4785   80.4651 H   0  0  0  0  0  0
  -22.0154   82.5888   82.0930 H   0  0  0  0  0  0
  -21.8840   84.9474   82.0446 H   0  0  0  0  0  0
  -20.9888   84.9043   80.4878 H   0  0  0  0  0  0
  -23.6870   83.6640   80.3977 H   0  0  0  0  0  0
  -16.7800   83.3598   83.6870 H   0  0  0  0  0  0
  -18.1121   83.4524   86.4110 H   0  0  0  0  0  0
  -15.0778   83.3265   85.8743 H   0  0  0  0  0  0
  -15.7652   83.8545   87.4476 H   0  0  0  0  0  0
  -16.5239   81.7262   87.9722 H   0  0  0  0  0  0
  -16.4558   81.1669   86.2665 H   0  0  0  0  0  0
  -13.9857   81.9733   87.8684 H   0  0  0  0  0  0
  -14.6113   80.2916   87.7850 H   0  0  0  0  0  0
  -14.0919   80.2040   85.3524 H   0  0  0  0  0  0
  -12.9304   83.0906   87.2497 H   0  0  0  0  0  0
  -12.5686   80.6886   83.8180 H   0  0  0  0  0  0
  -11.4163   82.1862   84.0619 H   0  0  0  0  0  0
  -17.1381   85.4443   87.7192 H   0  0  0  0  0  0
  -17.0377   87.7239   85.7101 H   0  0  0  0  0  0
  -17.3641   87.6191   88.7397 H   0  0  0  0  0  0
  -17.0613   89.1548   87.8585 H   0  0  0  0  0  0
  -19.3561   89.1401   88.0841 H   0  0  0  0  0  0
  -19.1383   88.4479   86.4410 H   0  0  0  0  0  0
  -19.4666   86.2004   87.2849 H   0  0  0  0  0  0
  -19.5045   86.7969   88.9788 H   0  0  0  0  0  0
  -21.5886   88.1353   87.3369 H   0  0  0  0  0  0
  -20.6355   85.0610   89.0445 H   0  0  0  0  0  0
  -22.4583   84.5819   89.3241 H   0  0  0  0  0  0
  -23.7119   87.5655   87.6613 H   0  0  0  0  0  0
  -15.4819   89.6181   87.0518 H   0  0  0  0  0  0
  -12.8986   88.2072   86.5166 H   0  0  0  0  0  0
  -12.0153   90.7923   86.6263 H   0  0  0  0  0  0
  -14.1239   91.6875   87.6573 H   0  0  0  0  0  0
  -12.2207   89.3981   84.5448 H   0  0  0  0  0  0
  -12.7275   91.1011   84.2805 H   0  0  0  0  0  0
  -13.9665   89.8142   84.4694 H   0  0  0  0  0  0
  -14.0880   87.6428   89.0152 H   0  0  0  0  0  0
  -12.4261   89.1771   90.9686 H   0  0  0  0  0  0
  -14.0608   86.5873   91.2321 H   0  0  0  0  0  0
  -13.2773   87.4326   92.6098 H   0  0  0  0  0  0
  -16.1797   86.7673   91.4530 H   0  0  0  0  0  0
  -17.0537   88.4358   91.7397 H   0  0  0  0  0  0
  -10.5520   88.5669   92.0370 H   0  0  0  0  0  0
   -9.1302   86.3474   90.5750 H   0  0  0  0  0  0
   -8.1720   88.3354   92.7014 H   0  0  0  0  0  0
   -7.1210   87.1015   91.9270 H   0  0  0  0  0  0
   -7.2591   87.1296   89.2543 H   0  0  0  0  0  0
   -8.1563   90.4514   91.7935 H   0  0  0  0  0  0
   -6.8182   88.6742   87.3852 H   0  0  0  0  0  0
   -7.7094   91.9994   89.9278 H   0  0  0  0  0  0
   -6.6934   90.8864   86.5245 H   0  0  0  0  0  0
  -11.2631   85.3933   91.8780 H   0  0  0  0  0  0
   -9.8456   83.4019   93.5468 H   0  0  0  0  0  0
  -11.4931   83.6616   95.5411 H   0  0  0  0  0  0
  -10.1699   84.8691   95.4086 H   0  0  0  0  0  0
  -13.8137   84.3210   94.8424 H   0  0  0  0  0  0
  -10.6369   87.1580   95.2204 H   0  0  0  0  0  0
  -15.4639   86.1520   94.9624 H   0  0  0  0  0  0
  -12.2803   88.9879   95.3445 H   0  0  0  0  0  0
  -15.9543   88.4885   95.1810 H   0  0  0  0  0  0
  -11.7494   81.9250   94.6930 H   0  0  0  0  0  0
  -13.6918   81.5965   92.3657 H   0  0  0  0  0  0
  -12.0778   79.7372   92.4239 H   0  0  0  0  0  0
  -12.4069   79.4598   94.1679 H   0  0  0  0  0  0
  -15.6873   82.2322   92.8665 H   0  0  0  0  0  0
  -16.5234   81.8793   94.5417 H   0  0  0  0  0  0
  1  2  2  0  0  0
  1  3  1  0  0  0
  1  4  1  0  0  0
  3143  1  0  0  0
  3145  1  0  0  0
  3146  1  0  0  0
  4  5  1  0  0  0
  4147  1  0  0  0
  5  6  1  0  0  0
  5  8  1  0  0  0
  5148  1  0  0  0
  6  7  2  0  0  0
  6 16  1  0  0  0
  8  9  1  0  0  0
  8149  1  0  0  0
  8150  1  0  0  0
  9 10  2  0  0  0
  9 11  1  0  0  0
 10 12  1  0  0  0
 10151  1  0  0  0
 11 13  2  0  0  0
 11152  1  0  0  0
 12 14  2  0  0  0
 12153  1  0  0  0
 13 14  1  0  0  0
 13154  1  0  0  0
 14 15  1  0  0  0
 15155  1  0  0  0
 16 17  1  0  0  0
 16156  1  0  0  0
 17 18  1  0  0  0
 17 20  1  0  0  0
 17157  1  0  0  0
 18 19  2  0  0  0
 18 26  1  0  0  0
 20 21  1  0  0  0
 20158  1  0  0  0
 20159  1  0  0  0
 21 22  2  0  0  0
 21 23  1  0  0  0
 22 24  1  0  0  0
 23 25  2  0  0  0
 23160  1  0  0  0
 24 25  1  0  0  0
 24161  1  0  0  0
 26 27  1  0  0  0
 26162  1  0  0  0
 27 28  1  0  0  0
 27 30  1  0  0  0
 27163  1  0  0  0
 28 29  2  0  0  0
 28 33  1  0  0  0
 30 31  1  0  0  0
 30 32  1  0  0  0
 30164  1  0  0  0
 31165  1  0  0  0
 32166  1  0  0  0
 32167  1  0  0  0
 32168  1  0  0  0
 33 34  1  0  0  0
 33169  1  0  0  0
 34 35  1  0  0  0
 34 37  1  0  0  0
 34170  1  0  0  0
 35 36  2  0  0  0
 35 45  1  0  0  0
 37 38  1  0  0  0
 37171  1  0  0  0
 37172  1  0  0  0
 38 39  2  0  0  0
 38 40  1  0  0  0
 39 41  1  0  0  0
 39173  1  0  0  0
 40 42  2  0  0  0
 40174  1  0  0  0
 41 43  2  0  0  0
 41175  1  0  0  0
 42 43  1  0  0  0
 42176  1  0  0  0
 43 44  1  0  0  0
 44177  1  0  0  0
 45 46  1  0  0  0
 45178  1  0  0  0
 46 47  1  0  0  0
 46 49  1  0  0  0
 46179  1  0  0  0
 47 48  2  0  0  0
 47 55  1  0  0  0
 49 50  1  0  0  0
 49180  1  0  0  0
 49181  1  0  0  0
 50 51  2  0  0  0
 50 52  1  0  0  0
 51 53  1  0  0  0
 52 54  2  0  0  0
 52182  1  0  0  0
 53 54  1  0  0  0
 53183  1  0  0  0
 55 56  1  0  0  0
 55184  1  0  0  0
 56 57  1  0  0  0
 56 59  1  0  0  0
 56185  1  0  0  0
 57 58  2  0  0  0
 57 62  1  0  0  0
 59 60  1  0  0  0
 59 61  1  0  0  0
 59186  1  0  0  0
 60187  1  0  0  0
 60188  1  0  0  0
 60189  1  0  0  0
 61190  1  0  0  0
 61191  1  0  0  0
 61192  1  0  0  0
 62 63  1  0  0  0
 62193  1  0  0  0
 63 64  1  0  0  0
 63 66  1  0  0  0
 63194  1  0  0  0
 64 65  2  0  0  0
 64 77  1  0  0  0
 66 67  1  0  0  0
 66195  1  0  0  0
 66196  1  0  0  0
 67 68  1  0  0  0
 67197  1  0  0  0
 67198  1  0  0  0
 68 69  1  0  0  0
 68199  1  0  0  0
 68200  1  0  0  0
 69 70  1  0  0  0
 69201  1  0  0  0
 69202  1  0  0  0
 70 71  1  0  0  0
 70203  1  0  0  0
 71 72  2  0  0  0
 71 73  1  0  0  0
 73 74  1  0  0  0
 73 75  1  0  0  0
 73 76  1  0  0  0
 77 78  1  0  0  0
 77204  1  0  0  0
 78 79  1  0  0  0
 78 81  1  0  0  0
 78205  1  0  0  0
 79 80  2  0  0  0
 79 88  1  0  0  0
 81 82  1  0  0  0
 81206  1  0  0  0
 81207  1  0  0  0
 82 83  1  0  0  0
 82208  1  0  0  0
 82209  1  0  0  0
 83 84  1  0  0  0
 83210  1  0  0  0
 83211  1  0  0  0
 84 85  1  0  0  0
 84212  1  0  0  0
 85 86  2  0  0  0
 85 87  1  0  0  0
 86213  1  0  0  0
 87214  1  0  0  0
 87215  1  0  0  0
 88 89  1  0  0  0
 88216  1  0  0  0
 89 90  1  0  0  0
 89 92  1  0  0  0
 89217  1  0  0  0
 90 91  2  0  0  0
 90 99  1  0  0  0
 92 93  1  0  0  0
 92218  1  0  0  0
 92219  1  0  0  0
 93 94  1  0  0  0
 93220  1  0  0  0
 93221  1  0  0  0
 94 95  1  0  0  0
 94222  1  0  0  0
 94223  1  0  0  0
 95 96  1  0  0  0
 95224  1  0  0  0
 96 97  1  0  0  0
 96 98  2  0  0  0
 97225  1  0  0  0
 97226  1  0  0  0
 98227  1  0  0  0
 99100  1  0  0  0
 99228  1  0  0  0
100101  1  0  0  0
100103  1  0  0  0
100229  1  0  0  0
101102  2  0  0  0
101106  1  0  0  0
103104  1  0  0  0
103105  1  0  0  0
103230  1  0  0  0
104231  1  0  0  0
105232  1  0  0  0
105233  1  0  0  0
105234  1  0  0  0
106107  1  0  0  0
106235  1  0  0  0
107108  1  0  0  0
107110  1  0  0  0
107236  1  0  0  0
108109  2  0  0  0
108114  1  0  0  0
110111  1  0  0  0
110237  1  0  0  0
110238  1  0  0  0
111112  2  0  0  0
111113  1  0  0  0
113239  1  0  0  0
113240  1  0  0  0
114115  1  0  0  0
114241  1  0  0  0
115116  1  0  0  0
115118  1  0  0  0
115242  1  0  0  0
116117  2  0  0  0
116126  1  0  0  0
118119  1  0  0  0
118243  1  0  0  0
118244  1  0  0  0
119120  2  0  0  0
119121  1  0  0  0
120122  1  0  0  0
120245  1  0  0  0
121123  2  0  0  0
121246  1  0  0  0
122124  2  0  0  0
122247  1  0  0  0
123124  1  0  0  0
123248  1  0  0  0
124125  1  0  0  0
125249  1  0  0  0
126127  1  0  0  0
126250  1  0  0  0
127128  1  0  0  0
127130  1  0  0  0
127251  1  0  0  0
128129  2  0  0  0
128138  1  0  0  0
130131  1  0  0  0
130252  1  0  0  0
130253  1  0  0  0
131132  2  0  0  0
131133  1  0  0  0
132134  1  0  0  0
132254  1  0  0  0
133135  2  0  0  0
133255  1  0  0  0
134136  2  0  0  0
134256  1  0  0  0
135136  1  0  0  0
135257  1  0  0  0
136137  1  0  0  0
137258  1  0  0  0
138139  1  0  0  0
138259  1  0  0  0
139140  1  0  0  0
139142  1  0  0  0
139260  1  0  0  0
140141  2  0  0  0
140144  1  0  0  0
142143  1  0  0  0
142261  1  0  0  0
142262  1  0  0  0
144263  1  0  0  0
144264  1  0  0  0
M  END
> <s_m_source_file>
../4l3o_ligand.sdf

> <i_m_source_file_index>
1

> <s_epik_input>
Tz1DMVtDSDJdU1tDSDJdW0NAQEhdKEMoPU8pW05IMl0pW05IXUMoPU8pW0NASF0oW0NIMl1jMltjSF1bY0hdYyhbT0hdKVtjSF1bY0hdMilbTkhdQyg9TylbQ0BIXShbQ0gyXWMzW2NIXVtjSF1jKFtPSF0pW2NIXVtjSF0zKVtOSF1DKD1PKVtDQEhdKFtDSDJdQyg9TylbTkgyXSlbTkhdQyg9TylbQ0BIXShbQ0BIXShbT0hdKVtDSDNdKVtOSF1DKD1PKVtDQEhdKFtDSDJdW0NIMl1bQ0gyXVtOSF0vQyhbTkgyXSk9TlxbSF0pW05IXUMoPU8pW0NASF0oW0NIMl1bQ0gyXVtDSDJdW05IXS9DKD1OXFtIXSlbTkgyXSlbTkhdQyg9TylbQ0BIXShbQ0gyXVtDSDJdW0NIMl1bQ0gyXVtOSF1DKD1PKUMoRikoRilGKVtOSF1DKD1PKVtDQEhdKFtDSF0oW0NIM10pW0NIM10pW05IXUMoPU8pW0NASF0oW0NIMl1DND1OW0NIMl1OPVtDSF00KVtOSF1DKD1PKVtDQEhdKFtDSDJdYzVbY0hdW2NIXWMoW09IXSlbY0hdW2NIXTUpW05IXUMoPU8pW0NASF0oW0NASF0oW09IXSlbQ0gzXSlbTkhdQyg9TylbQ0BIXShbQ0gyXUM2PU5bQ0gyXU49W0NIXTYpW05IXUMoPU8pW0NAQEhdKFtOSF0xKVtDSDJdYzdbY0hdW2NIXWMoW09IXSlbY0hdW2NIXTc=

> <s_epik_cmdline>
J2VwaWtfYXBwJywgJy1pbWFlJywgJ2xpZ2FuZF9wcm8ubWFlJywgJy1vbWFlJywgJ2xpZ2FuZF9wcmVwLm1hZScsICctbXMnLCAnMScsICctcGgnLCAnNycsICctcGh0JywgJzAuNScsICctbnQn

> <s_epik_pKa_notes>
Molecule size exceeds maximum supported for generating protonation states

> <s_epik_Chemistry_Notes>
This compound has an imine and may undergo hydrolysis.

$$$$
