4l3p_ligand
                    3D
 Schrodinger Suite 2020-3.
 52 57  0  0  1  0            999 V2000
  -12.4900  -46.6710  -14.3740 N   0  0  0  0  0  0
  -13.5820  -47.0540  -15.1790 C   0  0  0  0  0  0
  -13.4610  -48.0850  -16.0770 C   0  0  0  0  0  0
  -12.4550  -48.7500  -16.2740 O   0  0  0  0  0  0
  -14.8080  -46.4170  -15.0950 N   0  0  0  0  0  0
  -15.8820  -46.8030  -15.8920 C   0  0  0  0  0  0
  -15.7690  -47.8510  -16.8150 C   0  0  0  0  0  0
  -14.5150  -48.4700  -16.8690 C   0  0  0  0  0  0
  -13.9340  -49.4910  -17.5710 C   0  0  0  0  0  0
  -12.6300  -49.6070  -17.1280 C   0  0  0  0  0  0
  -11.5590  -50.5330  -17.5750 C   0  0  0  0  0  0
  -11.7390  -51.3670  -18.6830 C   0  0  0  0  0  0
  -10.7160  -52.2210  -19.1090 C   0  0  0  0  0  0
   -9.4920  -52.2460  -18.4420 C   0  0  0  0  0  0
  -10.3210  -50.5610  -16.9290 C   0  0  0  0  0  0
   -9.8020  -49.7240  -15.6470 S   0  0  0  0  0  0
   -8.3380  -50.3570  -15.5630 C   0  0  0  0  0  0
   -8.1710  -51.2880  -16.5610 C   0  0  0  0  0  0
   -9.3070  -51.4120  -17.3520 C   0  0  0  0  0  0
  -16.9620  -48.2070  -17.6470 C   0  0  0  0  0  0
  -18.2440  -47.7570  -17.4550 C   0  0  0  0  0  0
  -19.0240  -48.2860  -18.4030 N   0  0  0  0  0  0
  -18.3550  -49.0230  -19.1760 N   0  0  0  0  0  0
  -17.0700  -49.0130  -18.7600 C   0  0  0  0  0  0
  -20.4710  -48.0110  -18.4850 C   0  0  0  0  0  0
  -20.6960  -46.6220  -19.1100 C   0  0  0  0  0  0
  -22.1840  -46.2490  -19.1120 C   0  0  0  0  0  0
  -22.9910  -47.3080  -19.7430 N   0  3  0  0  0  0
  -22.7390  -48.6920  -19.2800 C   0  0  0  0  0  0
  -21.2450  -49.0510  -19.2940 C   0  0  0  0  0  0
  -11.5284  -47.1975  -14.4648 H   0  0  0  0  0  0
  -12.5994  -45.8457  -13.6551 H   0  0  0  0  0  0
  -16.8324  -46.2781  -15.7958 H   0  0  0  0  0  0
  -14.4117  -50.1004  -18.3382 H   0  0  0  0  0  0
  -12.6870  -51.3515  -19.2208 H   0  0  0  0  0  0
  -10.8771  -52.8715  -19.9686 H   0  0  0  0  0  0
   -8.6941  -52.9108  -18.7729 H   0  0  0  0  0  0
   -7.5828  -50.0903  -14.8237 H   0  0  0  0  0  0
   -7.2563  -51.8608  -16.7136 H   0  0  0  0  0  0
  -18.5709  -47.0825  -16.6636 H   0  0  0  0  0  0
  -16.2495  -49.5556  -19.2294 H   0  0  0  0  0  0
  -20.8165  -48.0681  -17.4422 H   0  0  0  0  0  0
  -20.1455  -45.8659  -18.5310 H   0  0  0  0  0  0
  -20.3334  -46.6241  -20.1485 H   0  0  0  0  0  0
  -22.5289  -46.1114  -18.0766 H   0  0  0  0  0  0
  -22.3269  -45.3139  -19.6734 H   0  0  0  0  0  0
  -24.0579  -47.1169  -19.5554 H   0  0  0  0  0  0
  -22.8047  -47.3142  -20.8271 H   0  0  0  0  0  0
  -23.1063  -48.8065  -18.2495 H   0  0  0  0  0  0
  -23.2648  -49.4001  -19.9374 H   0  0  0  0  0  0
  -20.8765  -49.0577  -20.3304 H   0  0  0  0  0  0
  -21.1000  -50.0455  -18.8469 H   0  0  0  0  0  0
  1  2  1  0  0  0
  1 31  1  0  0  0
  1 32  1  0  0  0
  2  3  1  0  0  0
  2  5  2  0  0  0
  3  4  1  0  0  0
  3  8  2  0  0  0
  4 10  1  0  0  0
  5  6  1  0  0  0
  6  7  2  0  0  0
  6 33  1  0  0  0
  7  8  1  0  0  0
  7 20  1  0  0  0
  8  9  1  0  0  0
  9 10  2  0  0  0
  9 34  1  0  0  0
 10 11  1  0  0  0
 11 12  1  0  0  0
 11 15  2  0  0  0
 12 13  2  0  0  0
 12 35  1  0  0  0
 13 14  1  0  0  0
 13 36  1  0  0  0
 14 19  2  0  0  0
 14 37  1  0  0  0
 15 16  1  0  0  0
 15 19  1  0  0  0
 16 17  1  0  0  0
 17 18  2  0  0  0
 17 38  1  0  0  0
 18 19  1  0  0  0
 18 39  1  0  0  0
 20 21  2  0  0  0
 20 24  1  0  0  0
 21 22  1  0  0  0
 21 40  1  0  0  0
 22 23  1  0  0  0
 22 25  1  0  0  0
 23 24  2  0  0  0
 24 41  1  0  0  0
 25 26  1  0  0  0
 25 30  1  0  0  0
 25 42  1  0  0  0
 26 27  1  0  0  0
 26 43  1  0  0  0
 26 44  1  0  0  0
 27 28  1  0  0  0
 27 45  1  0  0  0
 27 46  1  0  0  0
 28 29  1  0  0  0
 28 47  1  0  0  0
 28 48  1  0  0  0
 29 30  1  0  0  0
 29 49  1  0  0  0
 29 50  1  0  0  0
 30 51  1  0  0  0
 30 52  1  0  0  0
M  CHG  1  28   1
M  END
> <s_m_source_file>
../4l3p_ligand.sdf

> <i_m_source_file_index>
1

> <s_epik_input>
W0NIMl0xW0NIMl1bTkgyK11bQ0gyXVtDSDJdW0NIXTFuKG5bY0hdMilbY0hdYzItYyhbY0hdbmMzW05IMl0pYyhjMzQpW2NIXWMobzQpLWM1W2NIXVtjSF1bY0hdYyhjNTYpW2NIXVtjSF1zNg==

> <s_epik_cmdline>
J2VwaWtfYXBwJywgJy1pbWFlJywgJ2xpZ2FuZF9wcm8ubWFlJywgJy1vbWFlJywgJ2xpZ2FuZF9wcmVwLm1hZScsICctbXMnLCAnMScsICctcGgnLCAnNycsICctcGh0JywgJzAuNScsICctbnQn

> <r_lp_tautomer_probability>
1

> <r_epik_Ionization_Penalty>
  0.0020

> <r_epik_Ionization_Penalty_Charging>
  0.0019

> <r_epik_Ionization_Penalty_Neutral>
  0.0001

> <r_epik_State_Penalty>
 -0.0000

> <r_epik_Charging_Adjusted_Penalty>
0.00191237757844653

> <i_epik_Tot_Q>
1

> <i_epik_Tot_abs_Q>
1

$$$$
