4l4l_ligand
                    3D
 Schrodinger Suite 2020-3.
 66 70  0  0  1  0            999 V2000
   15.3030    4.8030   -2.6760 C   0  0  0  0  0  0
   14.8750    6.6050   -0.7940 C   0  0  0  0  0  0
   15.3950    6.1820    0.4160 C   0  0  0  0  0  0
   16.4080    8.3170    0.7710 C   0  0  0  0  0  0
   17.2510    9.2430    1.6140 C   0  0  0  0  0  0
   15.5920   10.2730    3.0520 C   0  0  0  0  0  0
   15.5650   10.0220    5.5150 C   0  0  0  0  0  0
   14.4160   10.4230    8.8360 C   0  0  0  0  0  0
   12.4050   11.8870    8.6320 C   0  0  2  0  0  0
   11.1180   11.0960    8.3060 C   0  0  2  0  0  0
   18.1780    2.6920   -1.9720 F   0  0  0  0  0  0
   17.3050    3.4740   -2.6450 C   0  0  0  0  0  0
   16.2070    4.0090   -1.9930 C   0  0  0  0  0  0
   13.9380    5.4760   -1.7860 S   0  0  0  0  0  0
   13.4460    4.4410   -0.9430 O   0  0  0  0  0  0
   16.1550    7.0320    1.1970 C   0  0  0  0  0  0
   15.9060    8.7420   -0.4480 C   0  0  0  0  0  0
   15.1470    7.8890   -1.2320 C   0  0  0  0  0  0
   16.6920    9.5090    2.9370 N   0  0  0  0  0  0
   15.0120   10.5530    4.3780 C   0  0  0  0  0  0
   15.0080   10.2760    6.7320 N   0  0  0  0  0  0
   15.3260    9.8770    8.0050 C   0  0  0  0  0  0
   13.5570   11.1450    8.1120 N   0  0  0  0  0  0
   10.5620   11.5060    7.0570 O   0  0  0  0  0  0
   10.1930   11.5290    9.4440 C   0  0  2  0  0  0
    9.6640   12.8250    9.1500 O   0  0  0  0  0  0
   11.1830   11.5680   10.6280 C   0  0  1  0  0  0
   11.3210   10.1730   11.2470 C   0  0  0  0  0  0
   10.0970    9.4510   11.0920 O   0  0  0  0  0  0
    9.1330    9.0780   12.3260 P   0  0  0  0  0  0
    9.9630    8.2650   13.3720 O   0  0  0  0  0  0
    8.5740   10.4030   12.9410 O   0  5  0  0  0  0
    7.9480    8.1830   11.8310 O   0  5  0  0  0  0
   12.4620   11.9790   10.0770 O   0  0  0  0  0  0
   13.8900   11.0670    6.8330 C   0  0  3  0  0  0
   13.3170   11.6320    5.6710 C   0  0  0  0  0  0
   13.8660   11.3800    4.4590 C   0  0  0  0  0  0
   15.0540   10.7150    2.0570 O   0  0  0  0  0  0
   13.1210    6.2000   -2.6910 O   0  0  0  0  0  0
   15.5070    5.0880   -4.0150 C   0  0  0  0  0  0
   16.6070    4.5530   -4.6670 C   0  0  0  0  0  0
   16.8120    4.8160   -5.9750 F   0  0  0  0  0  0
   17.5030    3.7480   -3.9840 C   0  0  0  0  0  0
   15.2028    5.1650    0.7580 H   0  0  0  0  0  0
   18.2461    8.7987    1.7635 H   0  0  0  0  0  0
   17.3549   10.2115    1.1029 H   0  0  0  0  0  0
   16.4616    9.3884    5.4464 H   0  0  0  0  0  0
   14.4747   10.2323    9.9177 H   0  0  0  0  0  0
   12.4599   12.9015    8.2103 H   0  0  0  0  0  0
   11.2466   10.0129    8.1635 H   0  0  0  0  0  0
   16.0536    3.8031   -0.9337 H   0  0  0  0  0  0
   16.5542    6.6853    2.1502 H   0  0  0  0  0  0
   16.1099    9.7557   -0.7930 H   0  0  0  0  0  0
   14.7639    8.2292   -2.1941 H   0  0  0  0  0  0
   17.1710    9.0850    3.8319 H   0  0  0  0  0  0
   16.1294    9.2435    8.4089 H   0  0  0  0  0  0
   11.0908   11.2807    6.1191 H   0  0  0  0  0  0
    9.2812   10.9356    9.6071 H   0  0  0  0  0  0
    8.9437   12.9516    8.3284 H   0  0  0  0  0  0
   10.8844   12.2834   11.4084 H   0  0  0  0  0  0
   12.1318    9.6267   10.7428 H   0  0  0  0  0  0
   11.5538   10.2684   12.3178 H   0  0  0  0  0  0
   12.4277   12.2747    5.7491 H   0  0  0  0  0  0
   13.4213   11.8162    3.5524 H   0  0  0  0  0  0
   14.8078    5.7284   -4.5528 H   0  0  0  0  0  0
   18.3653    3.3302   -4.5036 H   0  0  0  0  0  0
  1 13  2  0  0  0
  1 14  1  0  0  0
  1 40  1  0  0  0
  2  3  2  0  0  0
  2 14  1  0  0  0
  2 18  1  0  0  0
  3 16  1  0  0  0
  3 44  1  0  0  0
  4  5  1  0  0  0
  4 16  2  0  0  0
  4 17  1  0  0  0
  5 19  1  0  0  0
  5 45  1  0  0  0
  5 46  1  0  0  0
  6 19  1  0  0  0
  6 20  1  0  0  0
  6 38  2  0  0  0
  7 20  2  0  0  0
  7 21  1  0  0  0
  7 47  1  0  0  0
  8 22  2  0  0  0
  8 23  1  0  0  0
  8 48  1  0  0  0
  9 10  1  0  0  0
  9 23  1  0  0  0
  9 34  1  0  0  0
  9 49  1  0  0  0
 10 24  1  0  0  0
 10 25  1  0  0  0
 10 50  1  0  0  0
 11 12  1  0  0  0
 12 13  1  0  0  0
 12 43  2  0  0  0
 13 51  1  0  0  0
 14 15  2  0  0  0
 14 39  2  0  0  0
 16 52  1  0  0  0
 17 18  2  0  0  0
 17 53  1  0  0  0
 18 54  1  0  0  0
 19 55  1  0  0  0
 20 37  1  0  0  0
 21 22  1  0  0  0
 21 35  1  0  0  0
 22 56  1  0  0  0
 23 35  1  0  0  0
 24 57  1  0  0  0
 25 26  1  0  0  0
 25 27  1  0  0  0
 25 58  1  0  0  0
 26 59  1  0  0  0
 27 28  1  0  0  0
 27 34  1  0  0  0
 27 60  1  0  0  0
 28 29  1  0  0  0
 28 61  1  0  0  0
 28 62  1  0  0  0
 29 30  1  0  0  0
 30 31  2  0  0  0
 30 32  1  0  0  0
 30 33  1  0  0  0
 35 36  1  0  0  0
 36 37  2  0  0  0
 36 63  1  0  0  0
 37 64  1  0  0  0
 40 41  2  0  0  0
 40 65  1  0  0  0
 41 42  1  0  0  0
 41 43  1  0  0  0
 43 66  1  0  0  0
M  CHG  2  32  -1  33  -1
M  END
> <s_m_source_file>
../4l4l_ligand.sdf

> <i_m_source_file_index>
1

> <s_epik_input>
W2NIXTFjKEYpW2NIXWMoRilbY0hdYzFTKD1PKSg9TyljMltjSF1bY0hdYyhbY0hdW2NIXTIpW0NIMl1bTkhdQyg9TylDKD1bQ0hdMylbQ0hdPVtDSF1bQ0hdKE4zNClOKFtDSF09W0NIXTQpW0NASF01W0NASF0oW09IXSlbQ0BIXShbT0hdKVtDQEhdKE81KVtDSDJdT1AoPU8pKFtPSF0pW09IXQ==

> <s_epik_cmdline>
J2VwaWtfYXBwJywgJy1pbWFlJywgJ2xpZ2FuZF9wcm8ubWFlJywgJy1vbWFlJywgJ2xpZ2FuZF9wcmVwLm1hZScsICctbXMnLCAnMScsICctcGgnLCAnNycsICctcGh0JywgJzAuNScsICctbnQn

> <r_epik_Ionization_Penalty>
  0.1076

> <r_epik_Ionization_Penalty_Charging>
  0.1070

> <r_epik_Ionization_Penalty_Neutral>
  0.0006

> <r_epik_State_Penalty>
  0.0968

> <r_epik_Charging_Adjusted_Penalty>
0.203840592807412

> <i_epik_Tot_Q>
-2

> <i_epik_Tot_abs_Q>
2

> <s_epik_Chemistry_Notes>
This compound has an imine and may undergo hydrolysis. This compound contains an acetal/aminal-like group ( X-CH(R)-Y where X, Y are N, S, or O) that may be acid/base labile, releasing an aldehyde.

$$$$
