4l4v_ligand
                    3D
 Schrodinger Suite 2020-3.
 38 39  0  0  1  0            999 V2000
  -88.9240   68.3680   95.5920 O   0  0  0  0  0  0
  -90.0850   67.8550   95.0850 C   0  0  0  0  0  0
  -90.8350   68.7030   94.2740 C   0  0  0  0  0  0
  -90.4030   70.0330   94.0510 C   0  0  0  0  0  0
  -91.9660   68.2340   93.7060 N   0  0  0  0  0  0
  -92.3650   66.9530   93.9090 C   0  0  0  0  0  0
  -93.5910   66.4900   93.4030 C   0  0  0  0  0  0
  -94.3580   67.2580   92.8120 O   0  5  0  0  0  0
  -94.0220   65.2430   93.7170 N   0  0  0  0  0  0
  -93.2350   64.4140   94.4580 C   0  0  0  0  0  0
  -93.5520   63.2410   94.6730 O   0  0  0  0  0  0
  -92.0590   64.8580   94.9590 N   0  0  0  0  0  0
  -91.6010   66.1060   94.7220 C   0  0  0  0  0  0
  -90.4500   66.5710   95.2940 N   0  0  0  0  0  0
  -89.6910   65.7840   96.2960 C   0  0  0  0  0  0
  -88.4650   65.0080   95.8550 C   0  0  2  0  0  0
  -87.6330   65.8090   94.9800 O   0  0  0  0  0  0
  -88.8790   63.6780   95.2190 C   0  0  2  0  0  0
  -90.1060   63.1520   95.8230 O   0  0  0  0  0  0
  -87.7150   62.6570   95.2370 C   0  0  2  0  0  0
  -88.1510   61.5800   94.4560 O   0  0  0  0  0  0
  -87.4760   62.0780   96.6220 C   0  0  0  0  0  0
  -86.0910   61.9780   97.0210 O   0  0  0  0  0  0
  -89.4673   70.2116   94.6010 H   0  0  0  0  0  0
  -91.1748   70.7331   94.4033 H   0  0  0  0  0  0
  -90.2314   70.1873   92.9755 H   0  0  0  0  0  0
  -95.0088   64.8993   93.3732 H   0  0  0  0  0  0
  -89.3204   66.4550   97.0849 H   0  0  0  0  0  0
  -90.3500   65.0238   96.7409 H   0  0  0  0  0  0
  -87.8131   64.8087   96.7183 H   0  0  0  0  0  0
  -87.2661   66.7900   95.3162 H   0  0  0  0  0  0
  -89.1706   63.8583   94.1738 H   0  0  0  0  0  0
  -91.0077   63.7801   95.8724 H   0  0  0  0  0  0
  -86.7863   63.0903   94.8372 H   0  0  0  0  0  0
  -88.3963   61.7339   93.3948 H   0  0  0  0  0  0
  -87.9718   62.7095   97.3739 H   0  0  0  0  0  0
  -87.8880   61.0592   96.6696 H   0  0  0  0  0  0
  -85.8313   61.5696   98.0088 H   0  0  0  0  0  0
  1  2  2  0  0  0
  2  3  1  0  0  0
  2 14  1  0  0  0
  3  4  1  0  0  0
  3  5  2  0  0  0
  4 24  1  0  0  0
  4 25  1  0  0  0
  4 26  1  0  0  0
  5  6  1  0  0  0
  6  7  2  0  0  0
  6 13  1  0  0  0
  7  8  1  0  0  0
  7  9  1  0  0  0
  9 10  1  0  0  0
  9 27  1  0  0  0
 10 11  2  0  0  0
 10 12  1  0  0  0
 12 13  2  0  0  0
 13 14  1  0  0  0
 14 15  1  0  0  0
 15 16  1  0  0  0
 15 28  1  0  0  0
 15 29  1  0  0  0
 16 17  1  0  0  0
 16 18  1  0  0  0
 16 30  1  0  0  0
 17 31  1  0  0  0
 18 19  1  0  0  0
 18 20  1  0  0  0
 18 32  1  0  0  0
 19 33  1  0  0  0
 20 21  1  0  0  0
 20 22  1  0  0  0
 20 34  1  0  0  0
 21 35  1  0  0  0
 22 23  1  0  0  0
 22 36  1  0  0  0
 22 37  1  0  0  0
 23 38  1  0  0  0
M  CHG  1   8  -1
M  END
> <s_m_source_file>
../4l4v_ligand.sdf

> <i_m_source_file_index>
1

> <s_epik_input>
W09IXVtDSDJdW0NAQEhdKFtPSF0pW0NAQEhdKFtPSF0pW0NAQEhdKFtPSF0pW0NIMl1uKGMoW09IXSljKG4xKVtDSDNdKWMoYzEyKW5jKD1PKVtuSF1jMj1P

> <s_epik_cmdline>
J2VwaWtfYXBwJywgJy1pbWFlJywgJ2xpZ2FuZF9wcm8ubWFlJywgJy1vbWFlJywgJ2xpZ2FuZF9wcmVwLm1hZScsICctbXMnLCAnMScsICctcGgnLCAnNycsICctcGh0JywgJzAuNScsICctbnQn

> <r_lp_tautomer_probability>
1

> <r_epik_Ionization_Penalty>
  0.0003

> <r_epik_Ionization_Penalty_Charging>
  0.0000

> <r_epik_Ionization_Penalty_Neutral>
  0.0003

> <r_epik_State_Penalty>
 -0.0000

> <r_epik_Charging_Adjusted_Penalty>
8.62048468347845e-07

> <i_epik_Tot_Q>
-1

> <i_epik_Tot_abs_Q>
1

$$$$
