4l50_ligand
                    3D
 Schrodinger Suite 2020-3.
 32 31  0  0  1  0            999 V2000
  -42.5900  -11.4290   12.1430 O   0  0  0  0  0  0
  -42.9490  -11.8310   13.5230 P   0  0  0  0  0  0
  -44.2800  -11.2740   13.8920 O   0  5  0  0  0  0
  -42.9520  -13.4060   13.6120 O   0  5  0  0  0  0
  -41.8280  -11.2070   14.5410 O   0  0  0  0  0  0
  -40.5120  -11.6960   14.5510 C   0  0  0  0  0  0
  -39.6420  -10.6840   13.8590 C   0  0  2  0  0  0
  -39.8580  -10.8450   12.4790 O   0  0  0  0  0  0
  -38.1400  -10.8580   14.1480 C   0  0  0  0  0  0
  -37.6490  -12.0990   13.7770 O   0  0  0  0  0  0
  -37.9650  -10.7290   15.5490 O   0  0  0  0  0  0
  -37.2990   -9.7250   13.5200 C   0  0  0  0  0  0
  -37.3420   -8.5840   13.9950 O   0  0  0  0  0  0
  -36.3060  -10.0750   12.4640 C   0  0  0  0  0  0
  -36.0220   -8.7830   11.6810 C   0  0  0  0  0  0
  -35.1010   -9.1150   10.5130 C   0  0  0  0  0  0
  -35.3480   -7.6880   12.5540 C   0  0  0  0  0  0
  -40.1812  -11.8372   15.5905 H   0  0  0  0  0  0
  -40.4745  -12.6588   14.0203 H   0  0  0  0  0  0
  -39.9543   -9.6727   14.1586 H   0  0  0  0  0  0
  -40.8743  -10.7573   12.0675 H   0  0  0  0  0  0
  -38.1373  -13.0150   14.1411 H   0  0  0  0  0  0
  -38.4682  -11.4284   16.2328 H   0  0  0  0  0  0
  -35.3886  -10.4570   12.9356 H   0  0  0  0  0  0
  -36.7286  -10.8477   11.8049 H   0  0  0  0  0  0
  -36.9863   -8.3939   11.3221 H   0  0  0  0  0  0
  -35.5676   -9.8898    9.8869 H   0  0  0  0  0  0
  -34.1392   -9.4847   10.8981 H   0  0  0  0  0  0
  -34.9315   -8.2101    9.9110 H   0  0  0  0  0  0
  -36.0039   -7.4395   13.4014 H   0  0  0  0  0  0
  -35.1777   -6.7875   11.9457 H   0  0  0  0  0  0
  -34.3854   -8.0621   12.9328 H   0  0  0  0  0  0
  1  2  2  0  0  0
  2  3  1  0  0  0
  2  4  1  0  0  0
  2  5  1  0  0  0
  5  6  1  0  0  0
  6  7  1  0  0  0
  6 18  1  0  0  0
  6 19  1  0  0  0
  7  8  1  0  0  0
  7  9  1  0  0  0
  7 20  1  0  0  0
  8 21  1  0  0  0
  9 10  1  0  0  0
  9 11  1  0  0  0
  9 12  1  0  0  0
 10 22  1  0  0  0
 11 23  1  0  0  0
 12 13  2  0  0  0
 12 14  1  0  0  0
 14 15  1  0  0  0
 14 24  1  0  0  0
 14 25  1  0  0  0
 15 16  1  0  0  0
 15 17  1  0  0  0
 15 26  1  0  0  0
 16 27  1  0  0  0
 16 28  1  0  0  0
 16 29  1  0  0  0
 17 30  1  0  0  0
 17 31  1  0  0  0
 17 32  1  0  0  0
M  CHG  2   3  -1   4  -1
M  END
> <s_m_source_file>
../4l50_ligand.sdf

> <i_m_source_file_index>
1

> <s_epik_input>
Tz1QKFtPSF0pKFtPSF0pT1tDSDJdW0NASF0oW09IXSlDKFtPSF0pKFtPSF0pQyg9TylbQ0gyXVtDSF0oW0NIM10pW0NIM10=

> <s_epik_cmdline>
J2VwaWtfYXBwJywgJy1pbWFlJywgJ2xpZ2FuZF9wcm8ubWFlJywgJy1vbWFlJywgJ2xpZ2FuZF9wcmVwLm1hZScsICctbXMnLCAnMScsICctcGgnLCAnNycsICctcGh0JywgJzAuNScsICctbnQn

> <r_lp_tautomer_probability>
0.99990000499975

> <r_epik_Ionization_Penalty>
  0.1032

> <r_epik_Ionization_Penalty_Charging>
  0.1032

> <r_epik_Ionization_Penalty_Neutral>
  0.0000

> <r_epik_State_Penalty>
  0.0931

> <r_epik_Charging_Adjusted_Penalty>
0.196265375443399

> <i_epik_Tot_Q>
-2

> <i_epik_Tot_abs_Q>
2

$$$$
