4l51_ligand
                    3D
 Schrodinger Suite 2020-3.
 23 23  0  0  1  0            999 V2000
  -34.6040  -20.2880   -5.8800 C   0  0  1  0  0  0
  -35.0660  -21.0570   -4.7030 O   0  0  0  0  0  0
  -34.2930  -18.9630   -5.3370 C   0  0  2  0  0  0
  -33.2300  -18.7840   -4.3670 O   0  0  0  0  0  0
  -35.4660  -18.7250   -4.5770 C   0  0  2  0  0  0
  -35.0110  -17.7320   -3.7380 O   0  0  0  0  0  0
  -35.8100  -20.1540   -3.9840 C   0  0  1  0  0  0
  -37.2100  -20.6000   -4.4860 C   0  0  0  0  0  0
  -37.6410  -21.6640   -3.6900 O   0  0  0  0  0  0
  -39.1410  -21.9720   -3.3940 P   0  0  0  0  0  0
  -40.0420  -20.6940   -3.5960 O   0  5  0  0  0  0
  -39.2240  -22.3810   -1.8710 O   0  5  0  0  0  0
  -39.5510  -23.1330   -4.2250 O   0  0  0  0  0  0
  -33.3660  -20.7650   -6.5860 O   0  0  0  0  0  0
  -35.4072  -20.3464   -6.6293 H   0  0  0  0  0  0
  -33.9947  -18.3197   -6.1780 H   0  0  0  0  0  0
  -32.1804  -18.9077   -4.6721 H   0  0  0  0  0  0
  -36.3497  -18.2611   -5.0395 H   0  0  0  0  0  0
  -34.7702  -16.7378   -4.1424 H   0  0  0  0  0  0
  -35.6237  -20.2018   -2.9009 H   0  0  0  0  0  0
  -37.9137  -19.7584   -4.4052 H   0  0  0  0  0  0
  -37.1385  -20.9187   -5.5364 H   0  0  0  0  0  0
  -33.3584  -21.7483   -7.0791 H   0  0  0  0  0  0
  1  2  1  0  0  0
  1  3  1  0  0  0
  1 14  1  0  0  0
  1 15  1  0  0  0
  2  7  1  0  0  0
  3  4  1  0  0  0
  3  5  1  0  0  0
  3 16  1  0  0  0
  4 17  1  0  0  0
  5  6  1  0  0  0
  5  7  1  0  0  0
  5 18  1  0  0  0
  6 19  1  0  0  0
  7  8  1  0  0  0
  7 20  1  0  0  0
  8  9  1  0  0  0
  8 21  1  0  0  0
  8 22  1  0  0  0
  9 10  1  0  0  0
 10 11  1  0  0  0
 10 12  1  0  0  0
 10 13  2  0  0  0
 14 23  1  0  0  0
M  CHG  2  11  -1  12  -1
M  END
> <s_m_source_file>
../4l51_ligand.sdf

> <i_m_source_file_index>
1

> <s_epik_input>
W09IXVtDQEBIXTFbQ0BIXShbT0hdKVtDQEhdKE9bQ0BASF0xW09IXSlbQ0gyXU9QKD1PKShbT0hdKVtPSF0=

> <s_epik_cmdline>
J2VwaWtfYXBwJywgJy1pbWFlJywgJ2xpZ2FuZF9wcm8ubWFlJywgJy1vbWFlJywgJ2xpZ2FuZF9wcmVwLm1hZScsICctbXMnLCAnMScsICctcGgnLCAnNycsICctcGh0JywgJzAuNScsICctbnQn

> <r_epik_Ionization_Penalty>
  0.1038

> <r_epik_Ionization_Penalty_Charging>
  0.1038

> <r_epik_Ionization_Penalty_Neutral>
  0.0000

> <r_epik_State_Penalty>
  0.0937

> <r_epik_Charging_Adjusted_Penalty>
0.197452413555015

> <i_epik_Tot_Q>
-2

> <i_epik_Tot_abs_Q>
2

> <s_epik_Chemistry_Notes>
This compound contains an acetal/aminal-like group ( X-CH(R)-Y where X, Y are N, S, or O) that may be acid/base labile, releasing an aldehyde.

$$$$
