4l52_ligand
                    3D
 Schrodinger Suite 2020-3.
 54 59  0  0  1  0            999 V2000
  -23.4860  -49.9850  -21.7180 O   0  0  0  0  0  0
  -23.1710  -48.9010  -21.2410 C   0  0  0  0  0  0
  -23.2970  -47.6570  -22.0790 C   0  0  0  0  0  0
  -22.7170  -48.7900  -19.9750 N   0  0  0  0  0  0
  -22.2970  -47.5400  -19.3310 C   0  0  0  0  0  0
  -20.7770  -47.6780  -19.2010 C   0  0  0  0  0  0
  -20.4430  -48.8850  -18.3240 C   0  0  0  0  0  0
  -21.0530  -50.1550  -18.9320 C   0  0  0  0  0  0
  -22.5600  -49.9570  -19.0980 C   0  0  0  0  0  0
  -18.9790  -49.0340  -18.0900 N   0  0  0  0  0  0
  -18.1710  -48.4020  -17.2550 C   0  0  0  0  0  0
  -16.9060  -48.9540  -17.4090 C   0  0  0  0  0  0
  -17.0190  -49.9520  -18.3810 C   0  0  0  0  0  0
  -18.3020  -50.0230  -18.8100 N   0  0  0  0  0  0
  -15.7730  -48.5470  -16.6950 C   0  0  0  0  0  0
  -15.8840  -47.4800  -15.7990 C   0  0  0  0  0  0
  -14.8370  -47.0280  -15.0790 N   0  0  0  0  0  0
  -13.6290  -47.5950  -15.1700 C   0  0  0  0  0  0
  -12.5820  -47.1410  -14.4430 N   0  0  0  0  0  0
  -13.4970  -48.6500  -16.0360 C   0  0  0  0  0  0
  -14.5170  -49.1510  -16.7920 C   0  0  0  0  0  0
  -12.3240  -49.3860  -16.2870 O   0  0  0  0  0  0
  -12.5360  -50.3010  -17.1350 C   0  0  0  0  0  0
  -13.8880  -50.2250  -17.5140 C   0  0  0  0  0  0
  -11.5830  -51.1800  -17.6190 C   0  0  0  0  0  0
  -10.3400  -51.2200  -17.0240 C   0  0  0  0  0  0
   -9.8850  -50.2280  -15.6310 S   0  0  0  0  0  0
   -8.2640  -50.9700  -15.6220 N   0  0  0  0  0  0
   -8.2150  -51.9210  -16.6880 N   0  0  0  0  0  0
   -9.3290  -52.0640  -17.4680 C   0  0  0  0  0  0
   -9.5790  -52.8870  -18.5630 C   0  0  0  0  0  0
  -10.8250  -52.8490  -19.1970 C   0  0  0  0  0  0
  -11.8190  -51.9900  -18.7350 C   0  0  0  0  0  0
  -23.6782  -47.9235  -23.0758 H   0  0  0  0  0  0
  -22.3105  -47.1808  -22.1789 H   0  0  0  0  0  0
  -23.9944  -46.9577  -21.5946 H   0  0  0  0  0  0
  -22.5817  -46.6873  -19.9649 H   0  0  0  0  0  0
  -22.7889  -47.4489  -18.3513 H   0  0  0  0  0  0
  -20.3349  -47.8182  -20.1985 H   0  0  0  0  0  0
  -20.3641  -46.7678  -18.7416 H   0  0  0  0  0  0
  -20.8601  -48.7149  -17.3205 H   0  0  0  0  0  0
  -20.5951  -50.3481  -19.9133 H   0  0  0  0  0  0
  -20.8635  -51.0086  -18.2646 H   0  0  0  0  0  0
  -23.0447  -49.7568  -18.1310 H   0  0  0  0  0  0
  -23.0280  -50.8345  -19.5680 H   0  0  0  0  0  0
  -18.4467  -47.5977  -16.5730 H   0  0  0  0  0  0
  -16.2008  -50.5770  -18.7388 H   0  0  0  0  0  0
  -16.8527  -46.9952  -15.6777 H   0  0  0  0  0  0
  -12.7163  -46.2927  -13.7557 H   0  0  0  0  0  0
  -11.5966  -47.6202  -14.5393 H   0  0  0  0  0  0
  -14.3800  -50.8747  -18.2378 H   0  0  0  0  0  0
   -8.8033  -53.5611  -18.9262 H   0  0  0  0  0  0
  -11.0185  -53.4932  -20.0547 H   0  0  0  0  0  0
  -12.7822  -51.9487  -19.2436 H   0  0  0  0  0  0
  1  2  2  0  0  0
  2  3  1  0  0  0
  2  4  1  0  0  0
  3 34  1  0  0  0
  3 35  1  0  0  0
  3 36  1  0  0  0
  4  5  1  0  0  0
  4  9  1  0  0  0
  5  6  1  0  0  0
  5 37  1  0  0  0
  5 38  1  0  0  0
  6  7  1  0  0  0
  6 39  1  0  0  0
  6 40  1  0  0  0
  7  8  1  0  0  0
  7 10  1  0  0  0
  7 41  1  0  0  0
  8  9  1  0  0  0
  8 42  1  0  0  0
  8 43  1  0  0  0
  9 44  1  0  0  0
  9 45  1  0  0  0
 10 11  1  0  0  0
 10 14  1  0  0  0
 11 12  2  0  0  0
 11 46  1  0  0  0
 12 13  1  0  0  0
 12 15  1  0  0  0
 13 14  2  0  0  0
 13 47  1  0  0  0
 15 16  1  0  0  0
 15 21  2  0  0  0
 16 17  2  0  0  0
 16 48  1  0  0  0
 17 18  1  0  0  0
 18 19  1  0  0  0
 18 20  2  0  0  0
 19 49  1  0  0  0
 19 50  1  0  0  0
 20 21  1  0  0  0
 20 22  1  0  0  0
 21 24  1  0  0  0
 22 23  1  0  0  0
 23 24  2  0  0  0
 23 25  1  0  0  0
 24 51  1  0  0  0
 25 26  1  0  0  0
 25 33  2  0  0  0
 26 27  1  0  0  0
 26 30  2  0  0  0
 27 28  1  0  0  0
 28 29  2  0  0  0
 29 30  1  0  0  0
 30 31  1  0  0  0
 31 32  2  0  0  0
 31 52  1  0  0  0
 32 33  1  0  0  0
 32 53  1  0  0  0
 33 54  1  0  0  0
M  END
> <s_m_source_file>
../4l52_ligand.sdf

> <i_m_source_file_index>
1

> <s_epik_input>
Tz1DKFtDSDNdKU4xW0NIMl1bQ0gyXVtDSF0oW0NIMl1bQ0gyXTEpbjJbY0hdYyhbY0hdbjIpLWMoW2NIXW5jM1tOSDJdKWMoYzM0KVtjSF1jKG80KS1jNVtjSF1bY0hdW2NIXWMoYzU2KW5uczY=

> <s_epik_cmdline>
J2VwaWtfYXBwJywgJy1pbWFlJywgJ2xpZ2FuZF9wcm8ubWFlJywgJy1vbWFlJywgJ2xpZ2FuZF9wcmVwLm1hZScsICctbXMnLCAnMScsICctcGgnLCAnNycsICctcGh0JywgJzAuNScsICctbnQn

> <r_lp_tautomer_probability>
1

> <r_epik_Ionization_Penalty>
  0.0002

> <r_epik_Ionization_Penalty_Charging>
  0.0000

> <r_epik_Ionization_Penalty_Neutral>
  0.0002

> <r_epik_State_Penalty>
 -0.0000

> <r_epik_Charging_Adjusted_Penalty>
0

> <i_epik_Tot_Q>
0

> <i_epik_Tot_abs_Q>
0

$$$$
