4l58_ligand
                    3D
 Schrodinger Suite 2020-3.
123122  0  0  1  0            999 V2000
   -6.0160   10.2320   16.9550 N   0  3  0  0  0  0
   -5.5090    8.9070   17.3950 C   0  0  2  0  0  0
   -3.9970    8.9450   17.3250 C   0  0  0  0  0  0
   -3.4380    9.8580   16.7130 O   0  0  0  0  0  0
   -6.0450    7.8160   16.4850 C   0  0  0  0  0  0
   -3.3230    7.9790   17.9480 N   0  0  0  0  0  0
   -1.8970    7.8380   17.7000 C   0  0  2  0  0  0
   -1.6770    6.9780   16.4720 C   0  0  0  0  0  0
   -2.1840    5.8650   16.3760 O   0  0  0  0  0  0
   -1.1140    7.2370   18.8660 C   0  0  0  0  0  0
    0.3690    7.2240   18.5190 C   0  0  0  0  0  0
    1.3070    7.3580   19.6910 C   0  0  0  0  0  0
    2.6820    7.4390   19.1930 N   0  0  0  0  0  0
    3.6870    6.6500   19.5680 C   0  0  0  0  0  0
    3.5180    5.6970   20.4750 N   0  3  0  0  0  0
    4.8880    6.8250   19.0310 N   0  0  0  0  0  0
   -0.9050    7.5120   15.5370 N   0  0  0  0  0  0
   -0.5820    6.7990   14.3160 C   0  0  2  0  0  0
    0.9250    6.7550   14.1830 C   0  0  0  0  0  0
    1.6440    7.3630   14.9790 O   0  0  0  0  0  0
   -1.1690    7.5120   13.0830 C   0  0  2  0  0  0
   -0.5220    8.7800   12.9040 O   0  0  0  0  0  0
   -2.6640    7.7320   13.2490 C   0  0  0  0  0  0
    1.4070    6.0350   13.1770 N   0  0  0  0  0  0
    2.8100    6.1260   12.8090 C   0  0  1  0  0  0
    3.7440    5.2030   13.5450 C   0  0  0  0  0  0
    3.5950    3.7250   13.2860 C   0  0  0  0  0  0
    4.5350    2.8120   14.0420 C   0  0  0  0  0  0
    4.2640    1.2990   13.9600 C   0  0  0  0  0  0
    5.1460    0.3980   14.7630 N   0  3  0  0  0  0
    2.9210    5.9270   11.3420 C   0  0  0  0  0  0
    2.2460    5.0300   10.7350 O   0  0  0  0  0  0
    4.9740    0.6920   16.1770 C   0  0  0  0  0  0
    6.5030    0.5800   14.3390 C   0  0  0  0  0  0
    4.7490   -0.9740   14.5230 C   0  0  0  0  0  0
    3.7520    6.7570   10.7250 N   0  0  0  0  0  0
    4.0140    6.6760    9.3020 C   0  0  2  0  0  0
    5.5040    6.5150    9.0930 C   0  0  0  0  0  0
    6.2380    7.4950    8.9330 O   0  0  0  0  0  0
    3.5210    7.9320    8.5970 C   0  0  0  0  0  0
    2.0180    8.0000    8.4590 C   0  0  0  0  0  0
    1.5630    9.2990    7.8410 C   0  0  0  0  0  0
    1.0110   10.1620    8.5240 O   0  0  0  0  0  0
    1.7960    9.4510    6.5400 N   0  0  0  0  0  0
    5.9420    5.2660    9.1010 N   0  0  0  0  0  0
    7.3490    4.9470    8.9780 C   0  0  2  0  0  0
    7.8000    5.1420    7.5390 C   0  0  0  0  0  0
    7.1650    4.6440    6.6070 O   0  0  0  0  0  0
    7.6100    3.5020    9.4060 C   0  0  2  0  0  0
    7.1880    3.3260   10.7640 O   0  0  0  0  0  0
    9.0810    3.1710    9.2820 C   0  0  0  0  0  0
    8.8850    5.8900    7.3630 N   0  0  0  0  0  0
    9.4760    6.0930    6.0440 C   0  0  2  0  0  0
   10.9230    5.6210    6.0480 C   0  0  0  0  0  0
   11.5999    5.6507    7.1103 O   0  0  0  0  0  0
    9.3950    7.5650    5.6390 C   0  0  0  0  0  0
   11.4470    5.1982    4.9830 O   0  5  0  0  0  0
   -5.6222   11.0146   17.6202 H   0  0  0  0  0  0
   -7.1153   10.2357   16.9950 H   0  0  0  0  0  0
   -5.6860   10.4269   15.9239 H   0  0  0  0  0  0
   -5.8484    8.7102   18.4226 H   0  0  0  0  0  0
   -7.1433    7.7968   16.5431 H   0  0  0  0  0  0
   -5.6438    6.8427   16.8039 H   0  0  0  0  0  0
   -5.7361    8.0182   15.4488 H   0  0  0  0  0  0
   -3.8310    7.2933   18.6421 H   0  0  0  0  0  0
   -1.5643    8.8762   17.5537 H   0  0  0  0  0  0
   -1.2768    7.8442   19.7687 H   0  0  0  0  0  0
   -1.4596    6.2088   19.0485 H   0  0  0  0  0  0
    0.6216    6.2744   18.0246 H   0  0  0  0  0  0
    0.5945    8.0611   17.8420 H   0  0  0  0  0  0
    1.0618    8.2704   20.2544 H   0  0  0  0  0  0
    1.2009    6.4819   20.3476 H   0  0  0  0  0  0
    2.9525    8.1998   18.4460 H   0  0  0  0  0  0
    2.5287    5.5394   20.9294 H   0  0  0  0  0  0
    5.0444    7.6110   18.2775 H   0  0  0  0  0  0
    5.7271    6.1840   19.3394 H   0  0  0  0  0  0
   -0.5061    8.5232   15.7054 H   0  0  0  0  0  0
   -1.0162    5.7938   14.4215 H   0  0  0  0  0  0
   -0.9735    6.9316   12.1693 H   0  0  0  0  0  0
    0.5684    8.8266   12.7667 H   0  0  0  0  0  0
   -3.1643    6.7621   13.3866 H   0  0  0  0  0  0
   -3.0637    8.2267   12.3515 H   0  0  0  0  0  0
   -2.8457    8.3664   14.1290 H   0  0  0  0  0  0
    0.7347    5.3654   12.6205 H   0  0  0  0  0  0
    3.1093    7.1401   13.1125 H   0  0  0  0  0  0
    4.7836    5.4452   13.2793 H   0  0  0  0  0  0
    3.6040    5.3276   14.6289 H   0  0  0  0  0  0
    2.5787    3.4054   13.5600 H   0  0  0  0  0  0
    3.7687    3.5203   12.2193 H   0  0  0  0  0  0
    5.5596    2.9475   13.6654 H   0  0  0  0  0  0
    4.5026    3.0584   15.1136 H   0  0  0  0  0  0
    3.2410    1.0904   14.3064 H   0  0  0  0  0  0
    4.3741    0.9627   12.9185 H   0  0  0  0  0  0
    5.2722    1.7323   16.3741 H   0  0  0  0  0  0
    5.6013    0.0118   16.7719 H   0  0  0  0  0  0
    3.9185    0.5542   16.4544 H   0  0  0  0  0  0
    6.8072    1.6215   14.5202 H   0  0  0  0  0  0
    6.5849    0.3556   13.2652 H   0  0  0  0  0  0
    7.1583   -0.0974   14.9062 H   0  0  0  0  0  0
    3.7077   -1.1165   14.8476 H   0  0  0  0  0  0
    5.4056   -1.6502   15.0900 H   0  0  0  0  0  0
    4.8322   -1.1972   13.4491 H   0  0  0  0  0  0
    4.2498    7.5268   11.3329 H   0  0  0  0  0  0
    3.4667    5.8003    8.9230 H   0  0  0  0  0  0
    3.8384    8.8194    9.1642 H   0  0  0  0  0  0
    3.9454    7.9739    7.5830 H   0  0  0  0  0  0
    1.6710    7.1758    7.8184 H   0  0  0  0  0  0
    1.5542    7.9124    9.4526 H   0  0  0  0  0  0
    2.2928    8.6500    5.9730 H   0  0  0  0  0  0
    1.4918   10.3777    6.0314 H   0  0  0  0  0  0
    5.2021    4.4587    9.2049 H   0  0  0  0  0  0
    7.8718    5.6473    9.6460 H   0  0  0  0  0  0
    7.0189    2.7984    8.8014 H   0  0  0  0  0  0
    6.1426    3.5217   11.0449 H   0  0  0  0  0  0
    9.4008    3.3074    8.2384 H   0  0  0  0  0  0
    9.2484    2.1264    9.5833 H   0  0  0  0  0  0
    9.6633    3.8386    9.9341 H   0  0  0  0  0  0
    9.3379    6.3623    8.2472 H   0  0  0  0  0  0
    8.8847    5.4849    5.3436 H   0  0  0  0  0  0
    8.3437    7.8886    5.6415 H   0  0  0  0  0  0
    9.8152    7.6914    4.6303 H   0  0  0  0  0  0
    9.9678    8.1740    6.3538 H   0  0  0  0  0  0
    4.3671    5.0643   20.7728 H   0  0  0  0  0  0
  1  2  1  0  0  0
  1 58  1  0  0  0
  1 59  1  0  0  0
  1 60  1  0  0  0
  2  3  1  0  0  0
  2  5  1  0  0  0
  2 61  1  0  0  0
  3  4  2  0  0  0
  3  6  1  0  0  0
  5 62  1  0  0  0
  5 63  1  0  0  0
  5 64  1  0  0  0
  6  7  1  0  0  0
  6 65  1  0  0  0
  7  8  1  0  0  0
  7 10  1  0  0  0
  7 66  1  0  0  0
  8  9  2  0  0  0
  8 17  1  0  0  0
 10 11  1  0  0  0
 10 67  1  0  0  0
 10 68  1  0  0  0
 11 12  1  0  0  0
 11 69  1  0  0  0
 11 70  1  0  0  0
 12 13  1  0  0  0
 12 71  1  0  0  0
 12 72  1  0  0  0
 13 14  1  0  0  0
 13 73  1  0  0  0
 14 15  2  0  0  0
 14 16  1  0  0  0
 15 74  1  0  0  0
 15123  1  0  0  0
 16 75  1  0  0  0
 16 76  1  0  0  0
 17 18  1  0  0  0
 17 77  1  0  0  0
 18 19  1  0  0  0
 18 21  1  0  0  0
 18 78  1  0  0  0
 19 20  2  0  0  0
 19 24  1  0  0  0
 21 22  1  0  0  0
 21 23  1  0  0  0
 21 79  1  0  0  0
 22 80  1  0  0  0
 23 81  1  0  0  0
 23 82  1  0  0  0
 23 83  1  0  0  0
 24 25  1  0  0  0
 24 84  1  0  0  0
 25 26  1  0  0  0
 25 31  1  0  0  0
 25 85  1  0  0  0
 26 27  1  0  0  0
 26 86  1  0  0  0
 26 87  1  0  0  0
 27 28  1  0  0  0
 27 88  1  0  0  0
 27 89  1  0  0  0
 28 29  1  0  0  0
 28 90  1  0  0  0
 28 91  1  0  0  0
 29 30  1  0  0  0
 29 92  1  0  0  0
 29 93  1  0  0  0
 30 33  1  0  0  0
 30 34  1  0  0  0
 30 35  1  0  0  0
 31 32  2  0  0  0
 31 36  1  0  0  0
 33 94  1  0  0  0
 33 95  1  0  0  0
 33 96  1  0  0  0
 34 97  1  0  0  0
 34 98  1  0  0  0
 34 99  1  0  0  0
 35100  1  0  0  0
 35101  1  0  0  0
 35102  1  0  0  0
 36 37  1  0  0  0
 36103  1  0  0  0
 37 38  1  0  0  0
 37 40  1  0  0  0
 37104  1  0  0  0
 38 39  2  0  0  0
 38 45  1  0  0  0
 40 41  1  0  0  0
 40105  1  0  0  0
 40106  1  0  0  0
 41 42  1  0  0  0
 41107  1  0  0  0
 41108  1  0  0  0
 42 43  2  0  0  0
 42 44  1  0  0  0
 44109  1  0  0  0
 44110  1  0  0  0
 45 46  1  0  0  0
 45111  1  0  0  0
 46 47  1  0  0  0
 46 49  1  0  0  0
 46112  1  0  0  0
 47 48  2  0  0  0
 47 52  1  0  0  0
 49 50  1  0  0  0
 49 51  1  0  0  0
 49113  1  0  0  0
 50114  1  0  0  0
 51115  1  0  0  0
 51116  1  0  0  0
 51117  1  0  0  0
 52 53  1  0  0  0
 52118  1  0  0  0
 53 54  1  0  0  0
 53 56  1  0  0  0
 53119  1  0  0  0
 54 55  2  0  0  0
 54 57  1  0  0  0
 56120  1  0  0  0
 56121  1  0  0  0
 56122  1  0  0  0
M  CHG  4   1   1  15   1  30   1  57  -1
M  END
> <s_m_source_file>
../4l58_ligand.sdf

> <i_m_source_file_index>
1

> <s_epik_input>
W0hdL049QyhbTkgyXSlcW05IXVtDSDJdW0NIMl1bQ0gyXVtDQEhdKFtOSF1DKD1PKVtDQEBIXShbTkgzK10pW0NIM10pQyg9TylbTkhdW0NAQEhdKFtDQEhdKFtPSF0pW0NIM10pQyg9TylbTkhdW0NAQEhdKFtDSDJdW0NIMl1bQ0gyXVtDSDJdW04rXShbQ0gzXSkoW0NIM10pW0NIM10pQyg9TylbTkhdW0NAQEhdKFtDSDJdW0NIMl1DKD1PKVtOSDJdKUMoPU8pW05IXVtDQEBIXShbQ0BIXShbT0hdKVtDSDNdKUMoPU8pW05IXVtDQEBIXShbQ0gzXSlDKD1PKVtPSF0=

> <s_epik_cmdline>
J2VwaWtfYXBwJywgJy1pbWFlJywgJ2xpZ2FuZF9wcm8ubWFlJywgJy1vbWFlJywgJ2xpZ2FuZF9wcmVwLm1hZScsICctbXMnLCAnMScsICctcGgnLCAnNycsICctcGh0JywgJzAuNScsICctbnQn

> <r_epik_Ionization_Penalty>
  0.1252

> <r_epik_Ionization_Penalty_Charging>
  0.1252

> <r_epik_Ionization_Penalty_Neutral>
  0.0000

> <r_epik_State_Penalty>
  0.1145

> <r_epik_Charging_Adjusted_Penalty>
0.239759325379152

> <i_epik_Tot_Q>
2

> <i_epik_Tot_abs_Q>
4

> <s_epik_Chemistry_Notes>
This compound has an imine and may undergo hydrolysis.

$$$$
