4l6q_ligand
                    3D
 Schrodinger Suite 2020-3.
 37 39  0  0  1  0            999 V2000
   -3.0210    2.3330  -32.7210 F   0  0  0  0  0  0
   -4.0440    2.0560  -31.8970 C   0  0  0  0  0  0
   -4.5730    3.0730  -31.1200 C   0  0  0  0  0  0
   -5.6410    2.8260  -30.2520 C   0  0  0  0  0  0
   -6.2370    3.9950  -29.3460 C   0  0  0  0  0  0
   -5.2210    4.4180  -28.3000 N   0  3  0  0  0  0
   -6.1570    1.5200  -30.1870 C   0  0  0  0  0  0
   -5.6160    0.4920  -30.9800 C   0  0  0  0  0  0
   -4.5570    0.7690  -31.8420 C   0  0  0  0  0  0
   -3.9840   -0.1980  -32.6360 O   0  0  0  0  0  0
   -4.6780   -1.2040  -33.3180 C   0  0  0  0  0  0
   -4.1160   -2.4980  -33.4120 C   0  0  0  0  0  0
   -5.9250   -0.9680  -33.9480 C   0  0  0  0  0  0
   -6.5760   -2.0130  -34.6460 C   0  0  0  0  0  0
   -5.9810   -3.2640  -34.7150 C   0  0  0  0  0  0
   -6.5120   -4.5110  -35.3960 C   0  0  0  0  0  0
   -5.6070   -5.5760  -35.1020 O   0  0  0  0  0  0
   -4.4250   -5.0030  -34.3680 B   0  0  0  0  0  0
   -4.7920   -3.4890  -34.1140 C   0  0  0  0  0  0
   -3.1890   -5.7500  -33.9710 O   0  0  0  0  0  0
   -4.1547    4.0709  -31.1854 H   0  0  0  0  0  0
   -6.4833    4.8602  -29.9791 H   0  0  0  0  0  0
   -7.1471    3.6395  -28.8407 H   0  0  0  0  0  0
   -5.6443    5.2240  -27.6826 H   0  0  0  0  0  0
   -4.3094    4.7786  -28.7990 H   0  0  0  0  0  0
   -4.9732    3.5579  -27.6606 H   0  0  0  0  0  0
   -6.9816    1.3026  -29.5178 H   0  0  0  0  0  0
   -6.0213   -0.5116  -30.9208 H   0  0  0  0  0  0
   -3.1505   -2.7145  -32.9315 H   0  0  0  0  0  0
   -6.3871    0.0288  -33.8941 H   0  0  0  0  0  0
   -7.5472   -1.8302  -35.1291 H   0  0  0  0  0  0
   -7.5159   -4.7406  -35.0094 H   0  0  0  0  0  0
   -6.5672   -4.3408  -36.4814 H   0  0  0  0  0  0
   -4.7439   -5.3572  -35.4333 H   0  0  0  0  0  0
   -4.3500   -4.4765  -34.1817 H   0  0  0  0  0  0
   -2.7649   -6.0941  -34.7483 H   0  0  0  0  0  0
   -2.7649   -6.0941  -34.7483 H   0  0  0  0  0  0
  1  2  1  0  0  0
  2  3  2  0  0  0
  2  9  1  0  0  0
  3  4  1  0  0  0
  3 21  1  0  0  0
  4  5  1  0  0  0
  4  7  2  0  0  0
  5  6  1  0  0  0
  5 22  1  0  0  0
  5 23  1  0  0  0
  6 24  1  0  0  0
  6 25  1  0  0  0
  6 26  1  0  0  0
  7  8  1  0  0  0
  7 27  1  0  0  0
  8  9  2  0  0  0
  8 28  1  0  0  0
  9 10  1  0  0  0
 10 11  1  0  0  0
 11 12  2  0  0  0
 11 13  1  0  0  0
 12 19  1  0  0  0
 12 29  1  0  0  0
 13 14  2  0  0  0
 13 30  1  0  0  0
 14 15  1  0  0  0
 14 31  1  0  0  0
 15 16  1  0  0  0
 15 19  2  0  0  0
 16 17  1  0  0  0
 16 32  1  0  0  0
 16 33  1  0  0  0
 17 18  1  0  0  0
 17 34  1  0  0  0
 18 19  1  0  0  0
 18 20  1  0  0  0
 19 35  1  0  0  0
 20 36  1  0  0  0
 20 37  1  0  0  0
M  CHG  1   6   1
M  END
> <MOLECULAR_FORMULA>
C14H17NO3FB

> <MOLECULAR_WEIGHT>
277

> <NUM_HB_ATOMS>
4

> <NUM_ROTOR>
3

> <XLOGP2>
2.08

> <s_m_source_file>
../4l6q_ligand.sdf

> <i_m_source_file_index>
1

> <s_epik_input>
RmMxW2NIXWMoW0NIMl1bTkgzK10pW2NIXVtjSF1jMU9DKFtDSF09W0NIXTIpPVtDSF1bQ0hdKD1DMjMpQihbT0gyXSlbT0hdW0NIMl0z

> <s_epik_cmdline>
J2VwaWtfYXBwJywgJy1pbWFlJywgJ2xpZ2FuZF9wcm8ubWFlJywgJy1vbWFlJywgJ2xpZ2FuZF9wcmVwLm1hZScsICctbXMnLCAnMScsICctcGgnLCAnNycsICctcGh0JywgJzAuNScsICctbnQn

> <r_epik_Ionization_Penalty>
  0.0323

> <r_epik_Ionization_Penalty_Charging>
  0.0323

> <r_epik_Ionization_Penalty_Neutral>
  0.0000

> <r_epik_State_Penalty>
  0.0268

> <r_epik_Charging_Adjusted_Penalty>
0.0591077567609297

> <i_epik_Tot_Q>
1

> <i_epik_Tot_abs_Q>
1

$$$$
