4l6s_ligand
                    3D
 Schrodinger Suite 2020-3.
 48 51  0  0  1  0            999 V2000
    7.9080   -2.1170   -6.8360 C   0  0  0  0  0  0
    9.3750   -2.5360   -6.8470 C   0  0  2  0  0  0
    9.5110   -3.9190   -7.3350 O   0  0  0  0  0  0
   10.7130   -4.5530   -7.1410 C   0  0  0  0  0  0
   11.1150   -5.5690   -8.0030 C   0  0  0  0  0  0
   12.3440   -6.2070   -7.7930 C   0  0  0  0  0  0
   13.1650   -5.8190   -6.7400 C   0  0  0  0  0  0
   14.4630   -6.5520   -6.5620 C   0  0  0  0  0  0
   15.6460   -5.8370   -7.0120 N   0  3  2  0  0  0
   15.5160   -5.4490   -8.4260 C   0  0  0  0  0  0
   16.6930   -4.5860   -8.7940 C   0  0  0  0  0  0
   17.9310   -5.3870   -8.5250 C   0  0  0  0  0  0
   17.9970   -6.3470   -7.6160 C   0  0  0  0  0  0
   16.8120   -6.7150   -6.7650 C   0  0  0  0  0  0
   19.1150   -5.1110   -9.3350 C   0  0  0  0  0  0
   18.9940   -4.8730  -10.7170 C   0  0  0  0  0  0
   20.1350   -4.6440  -11.4730 C   0  0  0  0  0  0
   21.3780   -4.6680  -10.8400 C   0  0  0  0  0  0
   22.8330   -4.3800  -11.7320 Cl  0  0  0  0  0  0
   21.5000   -4.9190   -9.4830 C   0  0  0  0  0  0
   20.3730   -5.1510   -8.7260 C   0  0  0  0  0  0
   12.7740   -4.8050   -5.8590 C   0  0  0  0  0  0
   11.5710   -4.1410   -6.0980 C   0  0  0  0  0  0
   11.0820   -3.1840   -5.2090 N   0  0  0  0  0  0
    9.9750   -2.4380   -5.4510 C   0  0  0  0  0  0
    9.5260   -1.6910   -4.5610 O   0  0  0  0  0  0
    7.4966   -2.1957   -7.8531 H   0  0  0  0  0  0
    7.8263   -1.0771   -6.4869 H   0  0  0  0  0  0
    7.3435   -2.7761   -6.1601 H   0  0  0  0  0  0
    9.9261   -1.8831   -7.5398 H   0  0  0  0  0  0
   10.4777   -5.8662   -8.8359 H   0  0  0  0  0  0
   12.6583   -7.0114   -8.4581 H   0  0  0  0  0  0
   14.6171   -6.7709   -5.4951 H   0  0  0  0  0  0
   14.4328   -7.4942   -7.1289 H   0  0  0  0  0  0
   15.7607   -4.8968   -6.4526 H   0  0  0  0  0  0
   15.5013   -6.3519   -9.0541 H   0  0  0  0  0  0
   14.5803   -4.8884   -8.5679 H   0  0  0  0  0  0
   16.6307   -4.3155   -9.8584 H   0  0  0  0  0  0
   16.6830   -3.6719   -8.1822 H   0  0  0  0  0  0
   18.9363   -6.8997   -7.4669 H   0  0  0  0  0  0
   17.1136   -6.6359   -5.7101 H   0  0  0  0  0  0
   16.5412   -7.7567   -6.9918 H   0  0  0  0  0  0
   18.0118   -4.8686  -11.1897 H   0  0  0  0  0  0
   20.0613   -4.4488  -12.5428 H   0  0  0  0  0  0
   22.4848   -4.9328   -9.0159 H   0  0  0  0  0  0
   20.4611   -5.3641   -7.6607 H   0  0  0  0  0  0
   13.3961   -4.5396   -5.0042 H   0  0  0  0  0  0
   11.5999   -3.0036   -4.2555 H   0  0  0  0  0  0
  1  2  1  0  0  0
  1 27  1  0  0  0
  1 28  1  0  0  0
  1 29  1  0  0  0
  2  3  1  0  0  0
  2 25  1  0  0  0
  2 30  1  0  0  0
  3  4  1  0  0  0
  4  5  2  0  0  0
  4 23  1  0  0  0
  5  6  1  0  0  0
  5 31  1  0  0  0
  6  7  2  0  0  0
  6 32  1  0  0  0
  7  8  1  0  0  0
  7 22  1  0  0  0
  8  9  1  0  0  0
  8 33  1  0  0  0
  8 34  1  0  0  0
  9 10  1  0  0  0
  9 14  1  0  0  0
  9 35  1  0  0  0
 10 11  1  0  0  0
 10 36  1  0  0  0
 10 37  1  0  0  0
 11 12  1  0  0  0
 11 38  1  0  0  0
 11 39  1  0  0  0
 12 13  2  0  0  0
 12 15  1  0  0  0
 13 14  1  0  0  0
 13 40  1  0  0  0
 14 41  1  0  0  0
 14 42  1  0  0  0
 15 16  2  0  0  0
 15 21  1  0  0  0
 16 17  1  0  0  0
 16 43  1  0  0  0
 17 18  2  0  0  0
 17 44  1  0  0  0
 18 19  1  0  0  0
 18 20  1  0  0  0
 20 21  2  0  0  0
 20 45  1  0  0  0
 21 46  1  0  0  0
 22 23  2  0  0  0
 22 47  1  0  0  0
 23 24  1  0  0  0
 24 25  1  0  0  0
 24 48  1  0  0  0
 25 26  2  0  0  0
M  CHG  1   9   1
M  END
> <s_m_source_file>
../4l6s_ligand.sdf

> <i_m_source_file_index>
1

> <s_epik_input>
W0NIM11bQ0BIXShPMSlDKD1PKVtOSF1jKGMxMilbY0hdYyhbY0hdW2NIXTIpW0NIMl1bTkBASCtdM1tDSDJdW0NIMl1DKD1bQ0hdW0NIMl0zKWM0W2NIXVtjSF1jKENsKVtjSF1bY0hdNA==

> <s_epik_cmdline>
J2VwaWtfYXBwJywgJy1pbWFlJywgJ2xpZ2FuZF9wcm8ubWFlJywgJy1vbWFlJywgJ2xpZ2FuZF9wcmVwLm1hZScsICctbXMnLCAnMScsICctcGgnLCAnNycsICctcGh0JywgJzAuNScsICctbnQn

> <r_lp_tautomer_probability>
1

> <r_epik_Ionization_Penalty>
  0.1021

> <r_epik_Ionization_Penalty_Charging>
  0.1021

> <r_epik_Ionization_Penalty_Neutral>
  0.0000

> <r_epik_State_Penalty>
  0.0921

> <r_epik_Charging_Adjusted_Penalty>
0.194144690634839

> <i_epik_Tot_Q>
1

> <i_epik_Tot_abs_Q>
1

$$$$
