4l6t_ligand
                    3D
 Schrodinger Suite 2020-3.
129133  0  0  1  0            999 V2000
   -6.7080   53.8300  -27.1480 C   0  0  1  0  0  0
   -6.2550   52.7460  -28.1030 C   0  0  1  0  0  0
   -5.7310   51.5390  -27.3260 C   0  0  2  0  0  0
   -4.6990   51.9700  -26.2730 C   0  0  2  0  0  0
   -5.1870   53.1440  -25.4440 C   0  0  1  0  0  0
   -4.1100   53.6670  -24.4750 C   0  0  0  0  0  0
   -7.3530   52.3710  -28.9670 O   0  0  0  0  0  0
   -5.1090   50.5970  -28.2130 O   0  0  0  0  0  0
   -3.4680   52.3170  -26.9230 O   0  0  0  0  0  0
   -5.6230   54.2130  -26.2810 O   0  0  0  0  0  0
   -4.6950   54.7090  -23.6910 O   0  0  0  0  0  0
   -9.7140   57.4750  -26.9790 C   0  0  1  0  0  0
   -9.0900   56.3160  -27.7400 C   0  0  1  0  0  0
   -7.7430   55.9450  -27.1220 C   0  0  2  0  0  0
   -6.8530   57.1810  -27.0290 C   0  0  2  0  0  0
   -7.5830   58.2660  -26.2540 C   0  0  1  0  0  0
   -6.7760   59.5470  -26.0910 C   0  0  0  0  0  0
  -10.7940   54.8160  -28.6500 C   0  0  0  0  0  0
  -11.9100   53.8800  -28.2740 C   0  0  0  0  0  0
   -9.9700   55.1620  -27.6550 N   0  0  0  0  0  0
   -7.1010   54.9610  -27.9170 O   0  0  0  0  0  0
   -6.5340   57.6190  -28.3580 O   0  0  0  0  0  0
   -8.8050   58.5840  -26.9340 O   0  0  0  0  0  0
   -7.6010   60.4680  -25.3700 O   0  0  0  0  0  0
  -10.6440   55.2290  -29.7910 O   0  0  0  0  0  0
  -13.9650   58.8750  -28.6900 C   0  0  1  0  0  0
  -13.7430   57.5410  -27.9910 C   0  0  1  0  0  0
  -13.0750   57.6840  -26.6290 C   0  0  2  0  0  0
  -11.8220   58.5350  -26.7820 C   0  0  2  0  0  0
  -12.1850   59.8630  -27.4190 C   0  0  1  0  0  0
  -10.9490   60.7580  -27.5150 C   0  0  0  0  0  0
  -15.0010   56.8550  -27.8180 O   0  0  0  0  0  0
  -12.7420   56.3580  -26.2660 O   0  0  0  0  0  0
  -10.8980   57.9020  -27.6580 O   0  0  0  0  0  0
  -12.7370   59.6210  -28.7240 O   0  0  0  0  0  0
  -11.3710   62.0460  -27.9610 O   0  0  0  0  0  0
  -12.2430   54.6670  -24.8540 C   0  0  0  0  0  0
  -12.8760   56.0340  -24.8880 C   0  0  2  0  0  0
  -14.3400   56.0120  -24.4100 C   0  0  0  0  0  0
  -14.4180   55.6690  -22.9130 C   0  0  1  0  0  0
  -13.4590   56.5250  -22.0700 C   0  0  2  0  0  0
  -12.0620   56.5160  -22.7060 C   0  0  2  0  0  0
  -11.0700   57.4550  -22.0300 C   0  0  1  0  0  0
   -9.8150   57.6200  -22.8770 C   0  0  1  0  0  0
   -8.7460   58.3510  -22.0670 C   0  0  0  0  0  0
  -13.3000   56.7630  -19.6160 C   0  0  0  0  0  0
  -13.3170   56.0470  -18.2860 C   0  0  0  0  0  0
  -13.4620   56.0000  -20.7040 N   0  0  0  0  0  0
  -12.9960   53.5740  -24.8940 O   0  5  0  0  0  0
  -11.0170   54.5380  -24.8280 O   0  0  0  0  0  0
  -15.7540   55.8170  -22.3930 O   0  0  0  0  0  0
  -12.1390   56.9420  -24.0720 O   0  0  0  0  0  0
  -11.6330   58.7610  -21.8460 O   0  0  0  0  0  0
   -9.3380   56.3380  -23.2930 O   0  0  0  0  0  0
   -7.8110   59.0110  -22.9360 O   0  0  0  0  0  0
  -13.1420   57.9740  -19.6810 O   0  0  0  0  0  0
  -14.7040   60.9200  -32.8840 C   0  0  2  0  0  0
  -14.0490   59.8830  -31.9730 C   0  0  2  0  0  0
  -14.8900   59.6560  -30.7250 C   0  0  1  0  0  0
  -16.3270   59.3350  -31.1450 C   0  0  1  0  0  0
  -17.2670   59.1000  -29.9710 C   0  0  0  0  0  0
  -16.1300   60.4760  -33.1960 C   0  0  2  0  0  0
  -16.7510   61.4290  -34.0640 O   0  0  0  0  0  0
  -13.9390   61.0650  -34.0870 O   0  0  0  0  0  0
  -12.7280   60.3090  -31.6110 O   0  0  0  0  0  0
  -14.3190   58.5460  -30.0360 O   0  0  0  0  0  0
  -16.8310   60.4020  -31.9510 O   0  0  0  0  0  0
  -17.3250   60.2880  -29.1750 O   0  0  0  0  0  0
   -7.5514   53.5133  -26.5168 H   0  0  0  0  0  0
   -5.4672   53.1280  -28.7689 H   0  0  0  0  0  0
   -6.5818   51.0150  -26.8660 H   0  0  0  0  0  0
   -4.4762   51.1296  -25.5991 H   0  0  0  0  0  0
   -6.0797   52.8135  -24.8929 H   0  0  0  0  0  0
   -3.7709   52.8461  -23.8260 H   0  0  0  0  0  0
   -3.2569   54.0559  -25.0503 H   0  0  0  0  0  0
   -7.8422   53.1297  -29.5955 H   0  0  0  0  0  0
   -5.6832   50.1629  -29.0448 H   0  0  0  0  0  0
   -2.9627   51.5853  -27.5706 H   0  0  0  0  0  0
   -4.0948   55.2262  -22.9279 H   0  0  0  0  0  0
   -9.9722   57.1960  -25.9468 H   0  0  0  0  0  0
   -8.9762   56.5814  -28.8014 H   0  0  0  0  0  0
   -7.8813   55.4792  -26.1351 H   0  0  0  0  0  0
   -5.8867   56.9678  -26.5485 H   0  0  0  0  0  0
   -7.8260   57.8694  -25.2572 H   0  0  0  0  0  0
   -5.8532   59.3305  -25.5328 H   0  0  0  0  0  0
   -6.5192   59.9473  -27.0829 H   0  0  0  0  0  0
  -11.8460   53.6454  -27.2012 H   0  0  0  0  0  0
  -11.8227   52.9520  -28.8581 H   0  0  0  0  0  0
  -12.8773   54.3582  -28.4878 H   0  0  0  0  0  0
   -9.9733   54.5384  -26.7488 H   0  0  0  0  0  0
   -6.0032   56.9452  -29.0466 H   0  0  0  0  0  0
   -7.2243   61.4736  -25.1317 H   0  0  0  0  0  0
  -14.7266   59.5122  -28.2168 H   0  0  0  0  0  0
  -13.1089   56.9233  -28.6439 H   0  0  0  0  0  0
  -13.7071   58.1096  -25.8357 H   0  0  0  0  0  0
  -11.3257   58.6469  -25.8067 H   0  0  0  0  0  0
  -12.9731   60.3711  -26.8439 H   0  0  0  0  0  0
  -10.4745   60.8352  -26.5256 H   0  0  0  0  0  0
  -10.2359   60.3229  -28.2307 H   0  0  0  0  0  0
  -15.6411   56.6519  -28.6892 H   0  0  0  0  0  0
  -10.6325   62.8494  -28.0991 H   0  0  0  0  0  0
  -14.7935   57.0009  -24.5722 H   0  0  0  0  0  0
  -14.8998   55.2543  -24.9779 H   0  0  0  0  0  0
  -14.1807   54.6002  -22.8067 H   0  0  0  0  0  0
  -13.7865   57.5716  -21.9849 H   0  0  0  0  0  0
  -11.6981   55.4787  -22.6652 H   0  0  0  0  0  0
  -10.8458   57.0574  -21.0292 H   0  0  0  0  0  0
  -10.0339   58.1587  -23.8107 H   0  0  0  0  0  0
   -9.2246   59.1038  -21.4233 H   0  0  0  0  0  0
   -8.2007   57.6280  -21.4426 H   0  0  0  0  0  0
  -13.4707   54.9704  -18.4511 H   0  0  0  0  0  0
  -14.1351   56.4434  -17.6666 H   0  0  0  0  0  0
  -12.3576   56.2059  -17.7718 H   0  0  0  0  0  0
  -13.6029   54.9232  -20.5289 H   0  0  0  0  0  0
  -16.5902   55.2795  -22.8640 H   0  0  0  0  0  0
  -12.5548   58.8848  -21.2587 H   0  0  0  0  0  0
   -9.9849   55.6772  -23.8887 H   0  0  0  0  0  0
   -6.9751   59.5853  -22.5100 H   0  0  0  0  0  0
  -14.6995   61.9223  -32.4309 H   0  0  0  0  0  0
  -13.9145   58.9327  -32.5104 H   0  0  0  0  0  0
  -14.8723   60.5094  -30.0311 H   0  0  0  0  0  0
  -16.3215   58.4268  -31.7657 H   0  0  0  0  0  0
  -18.2713   58.8571  -30.3484 H   0  0  0  0  0  0
  -16.8918   58.2639  -29.3625 H   0  0  0  0  0  0
  -16.2065   59.5027  -33.7029 H   0  0  0  0  0  0
  -16.3372   61.6111  -35.0668 H   0  0  0  0  0  0
  -12.8865   61.3806  -34.0348 H   0  0  0  0  0  0
  -11.9842   60.5194  -32.3936 H   0  0  0  0  0  0
  -17.9562   60.3165  -28.2746 H   0  0  0  0  0  0
  1  2  1  0  0  0
  1 10  1  0  0  0
  1 21  1  0  0  0
  1 69  1  0  0  0
  2  3  1  0  0  0
  2  7  1  0  0  0
  2 70  1  0  0  0
  3  4  1  0  0  0
  3  8  1  0  0  0
  3 71  1  0  0  0
  4  5  1  0  0  0
  4  9  1  0  0  0
  4 72  1  0  0  0
  5  6  1  0  0  0
  5 10  1  0  0  0
  5 73  1  0  0  0
  6 11  1  0  0  0
  6 74  1  0  0  0
  6 75  1  0  0  0
  7 76  1  0  0  0
  8 77  1  0  0  0
  9 78  1  0  0  0
 11 79  1  0  0  0
 12 13  1  0  0  0
 12 23  1  0  0  0
 12 34  1  0  0  0
 12 80  1  0  0  0
 13 14  1  0  0  0
 13 20  1  0  0  0
 13 81  1  0  0  0
 14 15  1  0  0  0
 14 21  1  0  0  0
 14 82  1  0  0  0
 15 16  1  0  0  0
 15 22  1  0  0  0
 15 83  1  0  0  0
 16 17  1  0  0  0
 16 23  1  0  0  0
 16 84  1  0  0  0
 17 24  1  0  0  0
 17 85  1  0  0  0
 17 86  1  0  0  0
 18 19  1  0  0  0
 18 20  1  0  0  0
 18 25  2  0  0  0
 19 87  1  0  0  0
 19 88  1  0  0  0
 19 89  1  0  0  0
 20 90  1  0  0  0
 22 91  1  0  0  0
 24 92  1  0  0  0
 26 27  1  0  0  0
 26 35  1  0  0  0
 26 66  1  0  0  0
 26 93  1  0  0  0
 27 28  1  0  0  0
 27 32  1  0  0  0
 27 94  1  0  0  0
 28 29  1  0  0  0
 28 33  1  0  0  0
 28 95  1  0  0  0
 29 30  1  0  0  0
 29 34  1  0  0  0
 29 96  1  0  0  0
 30 31  1  0  0  0
 30 35  1  0  0  0
 30 97  1  0  0  0
 31 36  1  0  0  0
 31 98  1  0  0  0
 31 99  1  0  0  0
 32100  1  0  0  0
 33 38  1  0  0  0
 36101  1  0  0  0
 37 38  1  0  0  0
 37 49  1  0  0  0
 37 50  2  0  0  0
 38 39  1  0  0  0
 38 52  1  0  0  0
 39 40  1  0  0  0
 39102  1  0  0  0
 39103  1  0  0  0
 40 41  1  0  0  0
 40 51  1  0  0  0
 40104  1  0  0  0
 41 42  1  0  0  0
 41 48  1  0  0  0
 41105  1  0  0  0
 42 43  1  0  0  0
 42 52  1  0  0  0
 42106  1  0  0  0
 43 44  1  0  0  0
 43 53  1  0  0  0
 43107  1  0  0  0
 44 45  1  0  0  0
 44 54  1  0  0  0
 44108  1  0  0  0
 45 55  1  0  0  0
 45109  1  0  0  0
 45110  1  0  0  0
 46 47  1  0  0  0
 46 48  1  0  0  0
 46 56  2  0  0  0
 47111  1  0  0  0
 47112  1  0  0  0
 47113  1  0  0  0
 48114  1  0  0  0
 51115  1  0  0  0
 53116  1  0  0  0
 54117  1  0  0  0
 55118  1  0  0  0
 57 58  1  0  0  0
 57 62  1  0  0  0
 57 64  1  0  0  0
 57119  1  0  0  0
 58 59  1  0  0  0
 58 65  1  0  0  0
 58120  1  0  0  0
 59 60  1  0  0  0
 59 66  1  0  0  0
 59121  1  0  0  0
 60 61  1  0  0  0
 60 67  1  0  0  0
 60122  1  0  0  0
 61 68  1  0  0  0
 61123  1  0  0  0
 61124  1  0  0  0
 62 63  1  0  0  0
 62 67  1  0  0  0
 62125  1  0  0  0
 63126  1  0  0  0
 64127  1  0  0  0
 65128  1  0  0  0
 68129  1  0  0  0
M  CHG  1  49  -1
M  END
> <s_m_source_file>
../4l6t_ligand.sdf

> <i_m_source_file_index>
1

> <s_epik_input>
W09IXVtDSDJdW0NAQEhdKE8xKVtDQEhdKFtPSF0pW0NASF0oW09IXSlbQ0BASF0oW09IXSlbQ0BASF0xT1tDQEBIXShbQ0BASF0oW09IXSlbQ0BIXShPMilbQ0gyXVtPSF0pW0NAQEhdKFtOSF1DKD1PKVtDSDNdKVtDQEBIXTJPW0NAQEhdKFtDQEhdKE8zKVtDSDJdW09IXSlbQ0BASF0oW0NAQEhdKFtPSF0pW0NAQEhdM09bQ0BASF0oW0NASF0oW09IXSlbQ0BIXTRbT0hdKVtDQEBIXShbQ0gyXVtPSF0pT1tDQEhdNFtPSF0pT1tDQF01KEMoPU8pW09IXSlbQ0gyXVtDQEhdKFtPSF0pW0NAQEhdKFtOSF1DKD1PKVtDSDNdKVtDQEBIXShPNSlbQ0BIXShbT0hdKVtDQEhdKFtPSF0pW0NIMl1bT0hd

> <s_epik_cmdline>
J2VwaWtfYXBwJywgJy1pbWFlJywgJ2xpZ2FuZF9wcm8ubWFlJywgJy1vbWFlJywgJ2xpZ2FuZF9wcmVwLm1hZScsICctbXMnLCAnMScsICctcGgnLCAnNycsICctcGh0JywgJzAuNScsICctbnQn

> <r_lp_tautomer_probability>
1

> <r_epik_Ionization_Penalty>
  0.0000

> <r_epik_Ionization_Penalty_Charging>
  0.0000

> <r_epik_Ionization_Penalty_Neutral>
  0.0000

> <r_epik_State_Penalty>
 -0.0000

> <r_epik_Charging_Adjusted_Penalty>
9.88427715667134e-06

> <i_epik_Tot_Q>
-1

> <i_epik_Tot_abs_Q>
1

> <s_epik_Chemistry_Notes>
This compound contains an acetal/aminal-like group ( X-CH(R)-Y where X, Y are N, S, or O) that may be acid/base labile, releasing an aldehyde.

$$$$
