4l70_ligand
                    3D
 Schrodinger Suite 2020-3.
 46 48  0  0  1  0            999 V2000
   24.4440   -1.8340   12.1930 C   0  0  0  0  0  0
   25.2160   -0.8850   11.5130 C   0  0  0  0  0  0
   25.3290    0.4160   12.0180 C   0  0  0  0  0  0
   24.6490    0.7250   13.1950 C   0  0  0  0  0  0
   23.8700   -0.1950   13.8640 C   0  0  0  0  0  0
   23.7560   -1.4930   13.3760 C   0  0  0  0  0  0
   22.9680   -2.4100   14.0820 C   0  0  2  0  0  0
   23.9200   -3.2750   14.8780 C   0  0  0  0  0  0
   23.0590   -3.8970   15.9860 C   0  0  0  0  0  0
   22.0560   -3.1830   13.1660 N   0  0  0  0  0  0
   20.7100   -3.0340   13.2300 C   0  0  0  0  0  0
   20.1470   -2.2500   13.9990 O   0  0  0  0  0  0
   19.8540   -3.8980   12.2940 C   0  0  0  0  0  0
   19.0970   -4.8820   13.2050 C   0  0  0  0  0  0
   18.1780   -5.6900   12.5020 C   0  0  0  0  0  0
   18.5300   -6.9310   12.1520 N   0  0  0  0  0  0
   17.6920   -7.7280   11.4730 C   0  0  0  0  0  0
   18.1190   -9.0160   11.2150 C   0  0  0  0  0  0
   17.2730   -9.9090   10.5240 C   0  0  0  0  0  0
   16.0010   -9.4740   10.1490 C   0  0  0  0  0  0
   15.5850   -8.1520   10.4370 C   0  0  0  0  0  0
   16.4070   -7.2950   11.1170 C   0  0  0  0  0  0
   15.9820   -5.9860   11.4540 C   0  0  0  0  0  0
   14.8460   -5.5160   11.1700 O   0  0  0  0  0  0
   16.9150   -5.2060   12.1570 N   0  0  0  0  0  0
   24.3736   -2.8495   11.8033 H   0  0  0  0  0  0
   25.7289   -1.1586   10.5909 H   0  0  0  0  0  0
   25.9315    1.1659   11.5054 H   0  0  0  0  0  0
   24.7365    1.7324   13.6019 H   0  0  0  0  0  0
   23.3442    0.0941   14.7740 H   0  0  0  0  0  0
   22.3051   -1.8328   14.7433 H   0  0  0  0  0  0
   24.3537   -4.0434   14.2211 H   0  0  0  0  0  0
   24.7248   -2.6497   15.2918 H   0  0  0  0  0  0
   23.6847   -4.5470   16.6152 H   0  0  0  0  0  0
   22.2521   -4.4917   15.5330 H   0  0  0  0  0  0
   22.6232   -3.0980   16.6038 H   0  0  0  0  0  0
   22.4796   -3.8821   12.4299 H   0  0  0  0  0  0
   19.1575   -3.2548   11.7361 H   0  0  0  0  0  0
   20.5072   -4.4308   11.5873 H   0  0  0  0  0  0
   19.8165   -5.5496   13.7016 H   0  0  0  0  0  0
   18.5341   -4.3196   13.9645 H   0  0  0  0  0  0
   19.1059   -9.3413   11.5440 H   0  0  0  0  0  0
   17.6065  -10.9194   10.2875 H   0  0  0  0  0  0
   15.3250  -10.1552    9.6321 H   0  0  0  0  0  0
   14.6005   -7.8134   10.1140 H   0  0  0  0  0  0
   16.6229   -4.1829   12.4362 H   0  0  0  0  0  0
  1  2  2  0  0  0
  1  6  1  0  0  0
  1 26  1  0  0  0
  2  3  1  0  0  0
  2 27  1  0  0  0
  3  4  2  0  0  0
  3 28  1  0  0  0
  4  5  1  0  0  0
  4 29  1  0  0  0
  5  6  2  0  0  0
  5 30  1  0  0  0
  6  7  1  0  0  0
  7  8  1  0  0  0
  7 10  1  0  0  0
  7 31  1  0  0  0
  8  9  1  0  0  0
  8 32  1  0  0  0
  8 33  1  0  0  0
  9 34  1  0  0  0
  9 35  1  0  0  0
  9 36  1  0  0  0
 10 11  1  0  0  0
 10 37  1  0  0  0
 11 12  2  0  0  0
 11 13  1  0  0  0
 13 14  1  0  0  0
 13 38  1  0  0  0
 13 39  1  0  0  0
 14 15  1  0  0  0
 14 40  1  0  0  0
 14 41  1  0  0  0
 15 16  2  0  0  0
 15 25  1  0  0  0
 16 17  1  0  0  0
 17 18  2  0  0  0
 17 22  1  0  0  0
 18 19  1  0  0  0
 18 42  1  0  0  0
 19 20  2  0  0  0
 19 43  1  0  0  0
 20 21  1  0  0  0
 20 44  1  0  0  0
 21 22  2  0  0  0
 21 45  1  0  0  0
 22 23  1  0  0  0
 23 24  2  0  0  0
 23 25  1  0  0  0
 25 46  1  0  0  0
M  END
> <s_m_source_file>
../4l70_ligand.sdf

> <i_m_source_file_index>
1

> <s_epik_input>
W2NIXTFbY0hdW2NIXVtjSF1bY0hdYzFbQ0BIXShbQ0gyXVtDSDNdKVtOSF1DKD1PKVtDSDJdW0NIMl1jKG4yKVtuSF1jKD1PKWMoYzIzKVtjSF1bY0hdW2NIXVtjSF0z

> <s_epik_cmdline>
J2VwaWtfYXBwJywgJy1pbWFlJywgJ2xpZ2FuZF9wcm8ubWFlJywgJy1vbWFlJywgJ2xpZ2FuZF9wcmVwLm1hZScsICctbXMnLCAnMScsICctcGgnLCAnNycsICctcGh0JywgJzAuNScsICctbnQn

> <r_lp_tautomer_probability>
1

> <r_epik_Ionization_Penalty>
  0.0010

> <r_epik_Ionization_Penalty_Charging>
  0.0010

> <r_epik_Ionization_Penalty_Neutral>
  0.0000

> <r_epik_State_Penalty>
 -0.0000

> <r_epik_Charging_Adjusted_Penalty>
0.0010426201232746

> <i_epik_Tot_Q>
0

> <i_epik_Tot_abs_Q>
0

$$$$
