4l7b_ligand
                    3D
 Schrodinger Suite 2020-3.
 58 62  0  0  1  0            999 V2000
   -6.4000   -0.5420  -24.2500 C   0  0  0  0  0  0
   -6.1430    0.4420  -23.3090 C   0  0  0  0  0  0
   -2.9530    6.8750  -31.3880 C   0  0  0  0  0  0
   -3.4830    7.3060  -30.1960 C   0  0  0  0  0  0
   -6.3710   -0.2630  -25.6010 C   0  0  0  0  0  0
   -5.8490    1.7380  -23.6850 C   0  0  0  0  0  0
   -2.7080    5.5360  -31.5760 C   0  0  0  0  0  0
   -3.7640    6.3980  -29.2020 C   0  0  0  0  0  0
   -6.0780    1.0280  -25.9550 C   0  0  0  0  0  0
   -5.8250    1.9950  -25.0320 C   0  0  0  0  0  0
   -2.9870    4.6260  -30.5800 C   0  0  0  0  0  0
   -3.5210    5.0540  -29.3790 C   0  0  0  0  0  0
   -5.9790    1.5970  -27.2850 C   0  0  0  0  0  0
   -5.5490    3.2450  -25.7180 C   0  0  0  0  0  0
   -2.6820    2.1050  -27.5840 C   0  0  0  0  0  0
    0.0910    2.2570  -27.6220 C   0  0  0  0  0  0
   -2.6940    3.1960  -30.8520 C   0  0  0  0  0  0
   -2.6650   -0.7730  -26.4780 C   0  0  0  0  0  0
   -1.4490   -0.6050  -25.6090 C   0  0  0  0  0  0
   -2.2800   -0.4910  -27.9110 C   0  0  0  0  0  0
   -0.8250    0.7470  -25.8520 C   0  0  0  0  0  0
   -3.5140    2.3620  -29.9120 C   0  0  0  0  0  0
   -3.8720    4.1840  -28.2330 C   0  0  1  0  0  0
   -1.8440    0.9830  -28.1160 C   0  0  2  0  0  0
   -0.5170    0.9470  -27.3030 C   0  0  1  0  0  0
   -5.3310    3.8360  -28.1100 C   0  0  0  0  0  0
   -5.6500    2.9160  -27.0540 N   0  0  0  0  0  0
   -3.3120    2.8700  -28.5690 N   0  0  0  0  0  0
   -6.1510    0.9690  -28.3180 O   0  0  0  0  0  0
   -5.2840    4.2990  -25.1580 O   0  0  0  0  0  0
   -2.8220    2.3330  -26.3920 O   0  0  0  0  0  0
   -0.2310    3.0350  -28.5080 O   0  0  0  0  0  0
    1.1280    2.4960  -26.7800 O   0  5  0  0  0  0
   -6.6291   -1.5543  -23.9172 H   0  0  0  0  0  0
   -6.1735    0.1879  -22.2495 H   0  0  0  0  0  0
   -2.7284    7.5903  -32.1792 H   0  0  0  0  0  0
   -3.6805    8.3663  -30.0383 H   0  0  0  0  0  0
   -6.5710   -1.0305  -26.3487 H   0  0  0  0  0  0
   -5.6465    2.5163  -22.9493 H   0  0  0  0  0  0
   -2.2893    5.1909  -32.5213 H   0  0  0  0  0  0
   -4.1856    6.7475  -28.2595 H   0  0  0  0  0  0
   -2.9564    2.9597  -31.8938 H   0  0  0  0  0  0
   -1.6229    3.0041  -30.6911 H   0  0  0  0  0  0
   -3.0404   -1.8030  -26.3881 H   0  0  0  0  0  0
   -3.4461   -0.0687  -26.1558 H   0  0  0  0  0  0
   -1.7404   -0.6846  -24.5513 H   0  0  0  0  0  0
   -0.7165   -1.3902  -25.8476 H   0  0  0  0  0  0
   -1.4407   -1.1408  -28.1998 H   0  0  0  0  0  0
   -3.1400   -0.6893  -28.5676 H   0  0  0  0  0  0
   -1.5207    1.5353  -25.5287 H   0  0  0  0  0  0
    0.1112    0.8269  -25.2800 H   0  0  0  0  0  0
   -4.5760    2.4339  -30.1894 H   0  0  0  0  0  0
   -3.1891    1.3129  -29.9740 H   0  0  0  0  0  0
   -3.5101    4.7070  -27.3355 H   0  0  0  0  0  0
   -1.8805    1.2500  -29.1825 H   0  0  0  0  0  0
    0.2018    0.1449  -27.5263 H   0  0  0  0  0  0
   -5.9110    4.7504  -27.9163 H   0  0  0  0  0  0
   -5.6777    3.3732  -29.0457 H   0  0  0  0  0  0
  1  2  2  0  0  0
  1  5  1  0  0  0
  1 34  1  0  0  0
  2  6  1  0  0  0
  2 35  1  0  0  0
  3  4  2  0  0  0
  3  7  1  0  0  0
  3 36  1  0  0  0
  4  8  1  0  0  0
  4 37  1  0  0  0
  5  9  2  0  0  0
  5 38  1  0  0  0
  6 10  2  0  0  0
  6 39  1  0  0  0
  7 11  2  0  0  0
  7 40  1  0  0  0
  8 12  2  0  0  0
  8 41  1  0  0  0
  9 10  1  0  0  0
  9 13  1  0  0  0
 10 14  1  0  0  0
 11 12  1  0  0  0
 11 17  1  0  0  0
 12 23  1  0  0  0
 13 27  1  0  0  0
 13 29  2  0  0  0
 14 27  1  0  0  0
 14 30  2  0  0  0
 15 24  1  0  0  0
 15 28  1  0  0  0
 15 31  2  0  0  0
 16 25  1  0  0  0
 16 32  2  0  0  0
 16 33  1  0  0  0
 17 22  1  0  0  0
 17 42  1  0  0  0
 17 43  1  0  0  0
 18 19  1  0  0  0
 18 20  1  0  0  0
 18 44  1  0  0  0
 18 45  1  0  0  0
 19 21  1  0  0  0
 19 46  1  0  0  0
 19 47  1  0  0  0
 20 24  1  0  0  0
 20 48  1  0  0  0
 20 49  1  0  0  0
 21 25  1  0  0  0
 21 50  1  0  0  0
 21 51  1  0  0  0
 22 28  1  0  0  0
 22 52  1  0  0  0
 22 53  1  0  0  0
 23 26  1  0  0  0
 23 28  1  0  0  0
 23 54  1  0  0  0
 24 25  1  0  0  0
 24 55  1  0  0  0
 25 56  1  0  0  0
 26 27  1  0  0  0
 26 57  1  0  0  0
 26 58  1  0  0  0
M  CHG  1  33  -1
M  END
> <s_m_source_file>
../4l7b_ligand.sdf

> <i_m_source_file_index>
1

> <s_epik_input>
W2NIXTFbY0hdW2NIXVtjSF1jKGMxMilDKD1PKU4oQzI9TylbQ0gyXVtDQEhdKGMoYzM0KVtjSF1bY0hdW2NIXVtjSF0zKU4oW0NIMl1bQ0gyXTQpQyg9TylbQ0BASF01W0NIMl1bQ0gyXVtDSDJdW0NIMl1bQ0BASF01Qyg9TylbT0hd

> <s_epik_cmdline>
J2VwaWtfYXBwJywgJy1pbWFlJywgJ2xpZ2FuZF9wcm8ubWFlJywgJy1vbWFlJywgJ2xpZ2FuZF9wcmVwLm1hZScsICctbXMnLCAnMScsICctcGgnLCAnNycsICctcGh0JywgJzAuNScsICctbnQn

> <r_lp_tautomer_probability>
1

> <r_epik_Ionization_Penalty>
  0.0051

> <r_epik_Ionization_Penalty_Charging>
  0.0051

> <r_epik_Ionization_Penalty_Neutral>
  0.0000

> <r_epik_State_Penalty>
 -0.0000

> <r_epik_Charging_Adjusted_Penalty>
0.00508380912151619

> <i_epik_Tot_Q>
-1

> <i_epik_Tot_abs_Q>
1

$$$$
