4l7c_ligand
                    3D
 Schrodinger Suite 2020-3.
 61 66  0  0  1  0            999 V2000
  -20.2970   38.5340  -36.8850 C   0  0  0  0  0  0
  -20.1430   37.0730  -37.2320 C   0  0  0  0  0  0
  -21.7960   37.9490  -33.4320 C   0  0  0  0  0  0
  -19.5540   36.3600  -36.0470 C   0  0  0  0  0  0
  -20.5580   36.4140  -34.9260 C   0  0  0  0  0  0
  -20.8090   37.8540  -34.5280 C   0  0  1  0  0  0
  -21.2210   38.7390  -35.7020 C   0  0  2  0  0  0
  -23.2160   37.4690  -35.9610 O   0  0  0  0  0  0
  -22.6420   38.5290  -36.1650 C   0  0  0  0  0  0
  -22.4690   39.0080  -33.0460 N   0  0  0  0  0  0
  -23.2520   38.6030  -31.9980 N   0  0  0  0  0  0
  -23.0710   37.3180  -31.7340 N   0  0  0  0  0  0
  -22.1630   36.9110  -32.6280 N   0  3  0  0  0  0
  -23.2430   39.5920  -36.8360 N   0  0  0  0  0  0
  -22.6910   40.9240  -36.9760 C   0  0  0  0  0  0
  -23.4260   41.8620  -36.0550 C   0  0  0  0  0  0
  -24.8890   41.7700  -36.3160 C   0  0  0  0  0  0
  -25.4490   40.6450  -36.8860 C   0  0  0  0  0  0
  -26.8090   40.6050  -37.1070 C   0  0  0  0  0  0
  -27.6070   41.6720  -36.7650 C   0  0  0  0  0  0
  -27.0460   42.7910  -36.1970 C   0  0  0  0  0  0
  -25.6900   42.8360  -35.9740 C   0  0  0  0  0  0
  -24.6180   39.4650  -37.2740 C   0  0  1  0  0  0
  -24.6780   39.3070  -38.7780 C   0  0  0  0  0  0
  -23.8590   38.2150  -39.2250 N   0  0  0  0  0  0
  -22.6640   38.3820  -39.8960 C   0  0  0  0  0  0
  -22.0770   39.3810  -40.2850 O   0  0  0  0  0  0
  -22.1760   37.0250  -40.0720 C   0  0  0  0  0  0
  -21.0200   36.6000  -40.6750 C   0  0  0  0  0  0
  -20.8020   35.2370  -40.7010 C   0  0  0  0  0  0
  -21.7100   34.3520  -40.1430 C   0  0  0  0  0  0
  -22.8680   34.7990  -39.5390 C   0  0  0  0  0  0
  -23.0670   36.1550  -39.5240 C   0  0  0  0  0  0
  -24.1790   36.9000  -38.9640 C   0  0  0  0  0  0
  -25.1390   36.3960  -38.4010 O   0  0  0  0  0  0
  -19.3135   38.9562  -36.6312 H   0  0  0  0  0  0
  -20.7162   39.0734  -37.7471 H   0  0  0  0  0  0
  -21.1282   36.6478  -37.4740 H   0  0  0  0  0  0
  -19.4761   36.9708  -38.1008 H   0  0  0  0  0  0
  -19.3410   35.3150  -36.3165 H   0  0  0  0  0  0
  -18.6208   36.8584  -35.7458 H   0  0  0  0  0  0
  -21.5030   35.9592  -35.2579 H   0  0  0  0  0  0
  -20.1694   35.8602  -34.0587 H   0  0  0  0  0  0
  -19.8561   38.2358  -34.1329 H   0  0  0  0  0  0
  -21.1535   39.7710  -35.3273 H   0  0  0  0  0  0
  -21.6232   40.9080  -36.7123 H   0  0  0  0  0  0
  -22.8066   41.2613  -38.0166 H   0  0  0  0  0  0
  -23.2220   41.5847  -35.0102 H   0  0  0  0  0  0
  -23.0860   42.8927  -36.2338 H   0  0  0  0  0  0
  -27.2566   39.7190  -37.5573 H   0  0  0  0  0  0
  -28.6814   41.6303  -36.9439 H   0  0  0  0  0  0
  -27.6737   43.6394  -35.9244 H   0  0  0  0  0  0
  -25.2456   43.7231  -35.5227 H   0  0  0  0  0  0
  -24.9931   38.5744  -36.7485 H   0  0  0  0  0  0
  -25.7162   39.1123  -39.0851 H   0  0  0  0  0  0
  -24.3206   40.2298  -39.2582 H   0  0  0  0  0  0
  -20.3097   37.3023  -41.1114 H   0  0  0  0  0  0
  -19.8975   34.8495  -41.1699 H   0  0  0  0  0  0
  -21.5061   33.2819  -40.1816 H   0  0  0  0  0  0
  -23.5869   34.1092  -39.0969 H   0  0  0  0  0  0
  -21.7164   35.9166  -32.7754 H   0  0  0  0  0  0
  1  2  1  0  0  0
  1  7  1  0  0  0
  1 36  1  0  0  0
  1 37  1  0  0  0
  2  4  1  0  0  0
  2 38  1  0  0  0
  2 39  1  0  0  0
  3  6  1  0  0  0
  3 10  2  0  0  0
  3 13  1  0  0  0
  4  5  1  0  0  0
  4 40  1  0  0  0
  4 41  1  0  0  0
  5  6  1  0  0  0
  5 42  1  0  0  0
  5 43  1  0  0  0
  6  7  1  0  0  0
  6 44  1  0  0  0
  7  9  1  0  0  0
  7 45  1  0  0  0
  8  9  2  0  0  0
  9 14  1  0  0  0
 10 11  1  0  0  0
 11 12  1  0  0  0
 12 13  2  0  0  0
 13 61  1  0  0  0
 14 15  1  0  0  0
 14 23  1  0  0  0
 15 16  1  0  0  0
 15 46  1  0  0  0
 15 47  1  0  0  0
 16 17  1  0  0  0
 16 48  1  0  0  0
 16 49  1  0  0  0
 17 18  2  0  0  0
 17 22  1  0  0  0
 18 19  1  0  0  0
 18 23  1  0  0  0
 19 20  2  0  0  0
 19 50  1  0  0  0
 20 21  1  0  0  0
 20 51  1  0  0  0
 21 22  2  0  0  0
 21 52  1  0  0  0
 22 53  1  0  0  0
 23 24  1  0  0  0
 23 54  1  0  0  0
 24 25  1  0  0  0
 24 55  1  0  0  0
 24 56  1  0  0  0
 25 26  1  0  0  0
 25 34  1  0  0  0
 26 27  2  0  0  0
 26 28  1  0  0  0
 28 29  2  0  0  0
 28 33  1  0  0  0
 29 30  1  0  0  0
 29 57  1  0  0  0
 30 31  2  0  0  0
 30 58  1  0  0  0
 31 32  1  0  0  0
 31 59  1  0  0  0
 32 33  2  0  0  0
 32 60  1  0  0  0
 33 34  1  0  0  0
 34 35  2  0  0  0
M  CHG  1  13   1
M  END
> <s_m_source_file>
../4l7c_ligand.sdf

> <i_m_source_file_index>
1

> <s_epik_input>
bjFuW25IXW5jMVtDQEhdMltDSDJdW0NIMl1bQ0gyXVtDSDJdW0NASF0yQyg9TylOKFtDSDJdW0NIMl0zKVtDQEBIXShjKGMzNClbY0hdW2NIXVtjSF1bY0hdNClbQ0gyXU4oQzU9TylDKD1PKWMoYzU2KVtjSF1bY0hdW2NIXVtjSF02

> <s_epik_cmdline>
J2VwaWtfYXBwJywgJy1pbWFlJywgJ2xpZ2FuZF9wcm8ubWFlJywgJy1vbWFlJywgJ2xpZ2FuZF9wcmVwLm1hZScsICctbXMnLCAnMScsICctcGgnLCAnNycsICctcGh0JywgJzAuNScsICctbnQn

> <r_lp_tautomer_probability>
1

> <r_epik_Ionization_Penalty>
  0.0094

> <r_epik_Ionization_Penalty_Charging>
  0.0094

> <r_epik_Ionization_Penalty_Neutral>
  0.0000

> <r_epik_State_Penalty>
 -0.0000

> <r_epik_Charging_Adjusted_Penalty>
0.00936531911555777

> <i_epik_Tot_Q>
1

> <i_epik_Tot_abs_Q>
1

$$$$
