4l7f_ligand
                    3D
 Schrodinger Suite 2020-3.
 60 65  0  0  1  0            999 V2000
   -3.2780   57.4580   -3.2320 F   0  0  0  0  0  0
   -3.0290   56.2600   -2.6300 C   0  0  0  0  0  0
   -3.0220   56.2110   -1.2510 C   0  0  0  0  0  0
   -2.7900   55.0140   -0.5890 C   0  0  0  0  0  0
   -2.7920   55.1020   -3.3650 C   0  0  0  0  0  0
   -2.5500   53.8850   -2.7220 C   0  0  0  0  0  0
   -2.5370   53.8430   -1.3130 C   0  0  0  0  0  0
   -2.3240   52.5930   -0.5160 C   0  0  0  0  0  0
   -1.2020   51.6410   -0.8920 C   0  0  0  0  0  0
   -2.6480   51.2640   -1.2040 C   0  0  0  0  0  0
   -2.7460   52.6830    0.8710 N   0  0  0  0  0  0
   -4.0330   52.7190    1.2420 C   0  0  0  0  0  0
   -4.9390   52.5880    0.4160 O   0  0  0  0  0  0
   -4.3190   52.8220    2.7200 C   0  0  0  0  0  0
   -3.4240   53.4700    3.5750 C   0  0  0  0  0  0
   -3.6870   53.5360    4.9330 C   0  0  0  0  0  0
   -5.4690   52.2410    3.2620 C   0  0  0  0  0  0
   -5.7330   52.3190    4.6360 C   0  0  0  0  0  0
   -6.8500   51.7290    5.2370 N   0  0  0  0  0  0
   -7.0880   51.8120    6.5560 C   0  0  0  0  0  0
   -8.2490   51.1750    6.8080 N   0  0  0  0  0  0
   -8.7250   50.7080    5.6390 C   0  0  0  0  0  0
   -7.8550   51.0730    4.6750 C   0  0  0  0  0  0
   -6.1590   52.4640    7.3630 C   0  0  0  0  0  0
   -5.0500   53.0100    6.8090 N   0  0  0  0  0  0
   -4.8240   52.9450    5.4730 C   0  0  0  0  0  0
   -6.4090   52.5390    8.6890 N   0  0  0  0  0  0
   -5.5440   53.2360    9.6020 C   0  0  2  0  0  0
   -4.5960   52.2350   10.2740 C   0  0  0  0  0  0
   -3.6390   53.0190   11.1460 C   0  0  0  0  0  0
   -6.3670   53.9820   10.6460 C   0  0  0  0  0  0
   -5.4440   54.7180   11.6090 C   0  0  0  0  0  0
   -4.4310   53.7590   12.2300 C   0  0  2  0  0  0
   -3.4980   54.4440   13.0520 O   0  0  0  0  0  0
   -3.2002   57.1203   -0.6770 H   0  0  0  0  0  0
   -2.8048   54.9853    0.5005 H   0  0  0  0  0  0
   -2.7952   55.1448   -4.4542 H   0  0  0  0  0  0
   -2.3735   52.9796   -3.3027 H   0  0  0  0  0  0
   -0.5147   52.1417   -1.5898 H   0  0  0  0  0  0
   -0.6531   51.3450    0.0142 H   0  0  0  0  0  0
   -3.3000   50.6634   -0.5527 H   0  0  0  0  0  0
   -3.1616   51.4600   -2.1568 H   0  0  0  0  0  0
   -1.9943   52.7249    1.6730 H   0  0  0  0  0  0
   -2.5182   53.9239    3.1729 H   0  0  0  0  0  0
   -2.9917   54.0596    5.5891 H   0  0  0  0  0  0
   -6.1689   51.7210    2.6080 H   0  0  0  0  0  0
   -9.6442   50.1396    5.4973 H   0  0  0  0  0  0
   -7.9610   50.8632    3.6106 H   0  0  0  0  0  0
   -7.3154   52.0400    9.0625 H   0  0  0  0  0  0
   -4.9821   53.9589    8.9923 H   0  0  0  0  0  0
   -5.1796   51.5306   10.8849 H   0  0  0  0  0  0
   -4.0423   51.6797    9.5026 H   0  0  0  0  0  0
   -2.9245   52.3290   11.6186 H   0  0  0  0  0  0
   -3.0922   53.7466   10.5282 H   0  0  0  0  0  0
   -7.0218   54.7101   10.1449 H   0  0  0  0  0  0
   -6.9807   53.2645   11.2103 H   0  0  0  0  0  0
   -4.9001   55.5051   11.0662 H   0  0  0  0  0  0
   -6.0407   55.1727   12.4135 H   0  0  0  0  0  0
   -4.9710   53.0734   12.8996 H   0  0  0  0  0  0
   -2.7048   53.8836   13.5686 H   0  0  0  0  0  0
  1  2  1  0  0  0
  2  3  2  0  0  0
  2  5  1  0  0  0
  3  4  1  0  0  0
  3 35  1  0  0  0
  4  7  2  0  0  0
  4 36  1  0  0  0
  5  6  2  0  0  0
  5 37  1  0  0  0
  6  7  1  0  0  0
  6 38  1  0  0  0
  7  8  1  0  0  0
  8  9  1  0  0  0
  8 10  1  0  0  0
  8 11  1  0  0  0
  9 10  1  0  0  0
  9 39  1  0  0  0
  9 40  1  0  0  0
 10 41  1  0  0  0
 10 42  1  0  0  0
 11 12  1  0  0  0
 11 43  1  0  0  0
 12 13  2  0  0  0
 12 14  1  0  0  0
 14 15  2  0  0  0
 14 17  1  0  0  0
 15 16  1  0  0  0
 15 44  1  0  0  0
 16 26  2  0  0  0
 16 45  1  0  0  0
 17 18  2  0  0  0
 17 46  1  0  0  0
 18 19  1  0  0  0
 18 26  1  0  0  0
 19 20  1  0  0  0
 19 23  1  0  0  0
 20 21  2  0  0  0
 20 24  1  0  0  0
 21 22  1  0  0  0
 22 23  2  0  0  0
 22 47  1  0  0  0
 23 48  1  0  0  0
 24 25  2  0  0  0
 24 27  1  0  0  0
 25 26  1  0  0  0
 27 28  1  0  0  0
 27 49  1  0  0  0
 28 29  1  0  0  0
 28 31  1  0  0  0
 28 50  1  0  0  0
 29 30  1  0  0  0
 29 51  1  0  0  0
 29 52  1  0  0  0
 30 33  1  0  0  0
 30 53  1  0  0  0
 30 54  1  0  0  0
 31 32  1  0  0  0
 31 55  1  0  0  0
 31 56  1  0  0  0
 32 33  1  0  0  0
 32 57  1  0  0  0
 32 58  1  0  0  0
 33 34  1  0  0  0
 33 59  1  0  0  0
 34 60  1  0  0  0
M  END
> <s_m_source_file>
../4l7f_ligand.sdf

> <i_m_source_file_index>
1

> <s_epik_input>
RmMxW2NIXVtjSF1jKFtjSF1bY0hdMSlDMihbQ0gyXVtDSDJdMilbTkhdQyg9TyljKFtjSF0zKVtjSF1bY0hdYzRuYyhjKG41YzM0KW5bY0hdW2NIXTUpW05IXVtDQEBIXTZbQ0gyXVtDSDJdW0NAQEhdKFtPSF0pW0NIMl1bQ0gyXTY=

> <s_epik_cmdline>
J2VwaWtfYXBwJywgJy1pbWFlJywgJ2xpZ2FuZF9wcm8ubWFlJywgJy1vbWFlJywgJ2xpZ2FuZF9wcmVwLm1hZScsICctbXMnLCAnMScsICctcGgnLCAnNycsICctcGh0JywgJzAuNScsICctbnQn

> <r_lp_tautomer_probability>
1

> <r_epik_Ionization_Penalty>
  0.0073

> <r_epik_Ionization_Penalty_Charging>
  0.0073

> <r_epik_Ionization_Penalty_Neutral>
  0.0000

> <r_epik_State_Penalty>
 -0.0000

> <r_epik_Charging_Adjusted_Penalty>
0.00725406964044165

> <i_epik_Tot_Q>
0

> <i_epik_Tot_abs_Q>
0

$$$$
