4l7g_ligand
                    3D
 Schrodinger Suite 2020-3.
 39 42  0  0  1  0            999 V2000
   11.9300   -5.2610   15.9790 C   0  0  0  0  0  0
   12.5780   -6.3590   16.5120 C   0  0  0  0  0  0
   11.8280   -7.4350   16.9700 C   0  0  0  0  0  0
   14.0980   -6.3620   16.5990 C   0  0  2  0  0  0
   14.6210   -7.7070   17.0760 C   0  0  0  0  0  0
    9.8860   -3.9890   15.3730 C   0  0  0  0  0  0
    8.7170   -1.7270   14.5070 C   0  0  0  0  0  0
    8.7650   -3.4520   16.0200 C   0  0  0  0  0  0
   10.4410   -7.3980   16.8970 C   0  0  0  0  0  0
    9.7920   -6.2940   16.3740 C   0  0  0  0  0  0
   10.5350   -5.2170   15.9000 C   0  0  0  0  0  0
   16.1640   -7.5820   17.1370 C   0  0  0  0  0  0
   16.5420   -6.5190   18.0010 O   0  0  0  0  0  0
   15.4400   -5.9250   18.7190 C   0  0  0  0  0  0
   14.5450   -5.2960   17.6750 C   0  0  1  0  0  0
   15.1880   -4.2860   16.9140 O   0  0  0  0  0  0
   15.3550   -4.7470   15.6530 C   0  0  0  0  0  0
   14.7460   -5.8750   15.3990 N   0  3  0  0  0  0
   16.0960   -4.0740   14.7380 N   0  0  0  0  0  0
   10.3820   -3.3030   14.2630 C   0  0  0  0  0  0
    9.7820   -2.1880   13.8740 N   0  0  0  0  0  0
    8.2160   -2.3360   15.5650 N   0  0  0  0  0  0
   12.5153   -4.4167   15.6148 H   0  0  0  0  0  0
   12.3282   -8.3091   17.3870 H   0  0  0  0  0  0
   14.2050   -7.9308   18.0694 H   0  0  0  0  0  0
   14.3177   -8.4909   16.3665 H   0  0  0  0  0  0
    8.2387   -0.8172   14.1444 H   0  0  0  0  0  0
    8.3466   -3.9508   16.8942 H   0  0  0  0  0  0
    9.8587   -8.2470   17.2552 H   0  0  0  0  0  0
    8.7031   -6.2678   16.3333 H   0  0  0  0  0  0
   16.5932   -8.5212   17.5161 H   0  0  0  0  0  0
   16.5557   -7.3804   16.1291 H   0  0  0  0  0  0
   14.9049   -6.7052   19.2802 H   0  0  0  0  0  0
   15.8237   -5.1680   19.4187 H   0  0  0  0  0  0
   13.7517   -4.7979   18.2516 H   0  0  0  0  0  0
   14.7833   -6.3044   14.3870 H   0  0  0  0  0  0
   16.5844   -3.1279   15.0142 H   0  0  0  0  0  0
   11.2511   -3.6797   13.7238 H   0  0  0  0  0  0
   16.2086   -4.4742   13.7196 H   0  0  0  0  0  0
  1  2  2  0  0  0
  1 11  1  0  0  0
  1 23  1  0  0  0
  2  3  1  0  0  0
  2  4  1  0  0  0
  3  9  2  0  0  0
  3 24  1  0  0  0
  4  5  1  0  0  0
  4 15  1  0  0  0
  4 18  1  0  0  0
  5 12  1  0  0  0
  5 25  1  0  0  0
  5 26  1  0  0  0
  6  8  2  0  0  0
  6 11  1  0  0  0
  6 20  1  0  0  0
  7 21  1  0  0  0
  7 22  2  0  0  0
  7 27  1  0  0  0
  8 22  1  0  0  0
  8 28  1  0  0  0
  9 10  1  0  0  0
  9 29  1  0  0  0
 10 11  2  0  0  0
 10 30  1  0  0  0
 12 13  1  0  0  0
 12 31  1  0  0  0
 12 32  1  0  0  0
 13 14  1  0  0  0
 14 15  1  0  0  0
 14 33  1  0  0  0
 14 34  1  0  0  0
 15 16  1  0  0  0
 15 35  1  0  0  0
 16 17  1  0  0  0
 17 18  2  0  0  0
 17 19  1  0  0  0
 18 36  1  0  0  0
 19 37  1  0  0  0
 19 39  1  0  0  0
 20 21  2  0  0  0
 20 38  1  0  0  0
M  CHG  1  18   1
M  END
> <s_m_source_file>
../4l7g_ligand.sdf

> <i_m_source_file_index>
1

> <s_epik_input>
W2NIXTFuW2NIXW5bY0hdYzEtYyhbY0hdW2NIXVtjSF0yKVtjSF1jMltDQEBdMzRbQ0BIXShPL0MoW05IXTQpPU5cW0hdKVtDSDJdT1tDSDJdW0NIMl0z

> <s_epik_cmdline>
J2VwaWtfYXBwJywgJy1pbWFlJywgJ2xpZ2FuZF9wcm8ubWFlJywgJy1vbWFlJywgJ2xpZ2FuZF9wcmVwLm1hZScsICctbXMnLCAnMScsICctcGgnLCAnNycsICctcGh0JywgJzAuNScsICctbnQn

> <r_lp_tautomer_probability>
1

> <r_epik_Ionization_Penalty>
  0.1298

> <r_epik_Ionization_Penalty_Charging>
  0.0370

> <r_epik_Ionization_Penalty_Neutral>
  0.0929

> <r_epik_State_Penalty>
 -0.0000

> <r_epik_Charging_Adjusted_Penalty>
0.0369909093768321

> <i_epik_Tot_Q>
1

> <i_epik_Tot_abs_Q>
1

> <s_epik_Chemistry_Notes>
This compound has an imine and may undergo hydrolysis.

$$$$
