4l7h_ligand
                    3D
 Schrodinger Suite 2020-3.
 42 45  0  0  1  0            999 V2000
   17.9040   -7.2040   19.3600 C   0  0  0  0  0  0
   18.4390   -6.9090   21.6060 C   0  0  0  0  0  0
   16.5730   -8.1220   17.5340 C   0  0  0  0  0  0
   14.4570   -6.9090   16.9060 C   0  0  2  0  0  0
   12.9460   -7.0730   16.9070 C   0  0  0  0  0  0
   10.1770   -7.3920   16.8390 C   0  0  0  0  0  0
   10.8650   -7.5810   18.0220 C   0  0  0  0  0  0
   12.2420   -7.4260   18.0590 C   0  0  0  0  0  0
   19.6920   -7.4630   21.4380 C   0  0  0  0  0  0
   20.0710   -7.8980   20.1820 C   0  0  0  0  0  0
   19.1830   -7.7730   19.1050 C   0  0  0  0  0  0
   17.6080   -6.7990   20.5900 N   0  0  0  0  0  0
   16.9150   -6.9940   18.3990 N   0  0  0  0  0  0
   15.0480   -8.2520   17.3170 C   0  0  0  0  0  0
   14.9230   -5.7710   17.8940 C   0  0  1  0  0  0
   15.7180   -6.3850   19.0240 C   0  0  0  0  0  0
   15.6160   -4.8510   17.0600 O   0  0  0  0  0  0
   15.5300   -5.2770   15.7660 C   0  0  0  0  0  0
   14.8870   -6.4100   15.6110 N   0  3  0  0  0  0
   16.0720   -4.5730   14.7170 N   0  0  0  0  0  0
   12.2490   -6.8910   15.7260 C   0  0  0  0  0  0
   10.8720   -7.0450   15.6910 C   0  0  0  0  0  0
   12.8650   -7.6200   19.2420 F   0  0  0  0  0  0
    8.8310   -7.5420   16.8100 F   0  0  0  0  0  0
   19.6350   -8.2420   17.8220 C   0  0  0  0  0  0
   20.0020   -8.6220   16.8140 N   0  0  0  0  0  0
   18.1334   -6.5582   22.5917 H   0  0  0  0  0  0
   17.0471   -7.9869   16.5507 H   0  0  0  0  0  0
   16.9335   -9.0560   17.9897 H   0  0  0  0  0  0
   10.3238   -7.8526   18.9283 H   0  0  0  0  0  0
   20.3730   -7.5561   22.2839 H   0  0  0  0  0  0
   21.0571   -8.3367   20.0297 H   0  0  0  0  0  0
   14.8520   -8.9888   16.5241 H   0  0  0  0  0  0
   14.5716   -8.5835   18.2514 H   0  0  0  0  0  0
   14.1677   -5.1561   18.4054 H   0  0  0  0  0  0
   15.1376   -7.1638   19.5403 H   0  0  0  0  0  0
   16.0322   -5.6203   19.7496 H   0  0  0  0  0  0
   14.7501   -6.8314   14.6042 H   0  0  0  0  0  0
   16.6015   -3.6272   14.9045 H   0  0  0  0  0  0
   12.7868   -6.6245   14.8161 H   0  0  0  0  0  0
   10.3329   -6.8925   14.7560 H   0  0  0  0  0  0
   15.9762   -4.9554   13.6901 H   0  0  0  0  0  0
  1 11  2  0  0  0
  1 12  1  0  0  0
  1 13  1  0  0  0
  2  9  1  0  0  0
  2 12  2  0  0  0
  2 27  1  0  0  0
  3 13  1  0  0  0
  3 14  1  0  0  0
  3 28  1  0  0  0
  3 29  1  0  0  0
  4  5  1  0  0  0
  4 14  1  0  0  0
  4 15  1  0  0  0
  4 19  1  0  0  0
  5  8  2  0  0  0
  5 21  1  0  0  0
  6  7  2  0  0  0
  6 22  1  0  0  0
  6 24  1  0  0  0
  7  8  1  0  0  0
  7 30  1  0  0  0
  8 23  1  0  0  0
  9 10  2  0  0  0
  9 31  1  0  0  0
 10 11  1  0  0  0
 10 32  1  0  0  0
 11 25  1  0  0  0
 13 16  1  0  0  0
 14 33  1  0  0  0
 14 34  1  0  0  0
 15 16  1  0  0  0
 15 17  1  0  0  0
 15 35  1  0  0  0
 16 36  1  0  0  0
 16 37  1  0  0  0
 17 18  1  0  0  0
 18 19  2  0  0  0
 18 20  1  0  0  0
 19 38  1  0  0  0
 20 39  1  0  0  0
 20 42  1  0  0  0
 21 22  2  0  0  0
 21 40  1  0  0  0
 22 41  1  0  0  0
 25 26  3  0  0  0
M  CHG  1  19   1
M  END
> <s_m_source_file>
../4l7h_ligand.sdf

> <i_m_source_file_index>
1

> <s_epik_input>
bjFbY0hdW2NIXVtjSF1jKEMjTiljMU4oW0NIMl1bQ0gyXTIpW0NIMl1bQ0BASF0oTy9DKFtOSF0zKT1OXFtIXSlbQ0BdMjNjNGMoRilbY0hdYyhGKVtjSF1bY0hdNA==

> <s_epik_cmdline>
J2VwaWtfYXBwJywgJy1pbWFlJywgJ2xpZ2FuZF9wcm8ubWFlJywgJy1vbWFlJywgJ2xpZ2FuZF9wcmVwLm1hZScsICctbXMnLCAnMScsICctcGgnLCAnNycsICctcGh0JywgJzAuNScsICctbnQn

> <r_lp_tautomer_probability>
1

> <r_epik_Ionization_Penalty>
  0.0469

> <r_epik_Ionization_Penalty_Charging>
  0.0188

> <r_epik_Ionization_Penalty_Neutral>
  0.0281

> <r_epik_State_Penalty>
 -0.0000

> <r_epik_Charging_Adjusted_Penalty>
0.0187882508440134

> <i_epik_Tot_Q>
1

> <i_epik_Tot_abs_Q>
1

> <s_epik_Chemistry_Notes>
This compound has an imine and may undergo hydrolysis.

$$$$
