4l7j_ligand
                    3D
 Schrodinger Suite 2020-3.
 42 45  0  0  1  0            999 V2000
   17.4470   -9.0620   17.6820 C   0  0  0  0  0  0
   19.7630   -9.3140   17.5860 C   0  0  0  0  0  0
   16.8060   -6.9280   18.6870 C   0  0  0  0  0  0
   14.7710   -5.7540   17.9270 C   0  0  2  0  0  0
   12.9270   -7.0890   16.8170 C   0  0  0  0  0  0
   10.1910   -7.3310   16.5850 C   0  0  0  0  0  0
   10.7750   -7.2880   17.8410 C   0  0  0  0  0  0
   12.1430   -7.1560   17.9410 C   0  0  0  0  0  0
   19.6290  -10.6350   17.1650 C   0  0  0  0  0  0
   18.3720  -11.1810   16.9780 C   0  0  0  0  0  0
   17.2390  -10.3900   17.2350 C   0  0  0  0  0  0
   18.6930   -8.5810   17.8450 N   0  0  0  0  0  0
   16.4150   -8.1690   17.9780 N   0  0  0  0  0  0
   15.5540   -6.1590   19.1580 C   0  0  0  0  0  0
   14.4420   -6.9860   17.0120 C   0  0  2  0  0  0
   14.9840   -8.3230   17.5640 C   0  0  0  0  0  0
   15.0440   -6.6520   15.7260 N   0  3  0  0  0  0
   15.6290   -5.4550   15.8600 C   0  0  0  0  0  0
   15.4810   -4.8680   17.0780 O   0  0  0  0  0  0
   16.2980   -4.8140   14.8470 N   0  0  0  0  0  0
   12.3590   -7.1170   15.5560 C   0  0  0  0  0  0
   10.9460   -7.2560   15.4300 C   0  0  0  0  0  0
   12.7100   -7.1210   19.1690 F   0  0  0  0  0  0
    8.8440   -7.4260   16.5280 F   0  0  0  0  0  0
   15.9300  -10.9490   17.0610 C   0  0  0  0  0  0
   14.8600  -11.3580   16.9260 N   0  0  0  0  0  0
   20.7566   -8.8814   17.7028 H   0  0  0  0  0  0
   17.4193   -7.1842   19.5635 H   0  0  0  0  0  0
   17.3864   -6.2854   18.0086 H   0  0  0  0  0  0
   13.9083   -5.1974   18.3220 H   0  0  0  0  0  0
   10.1601   -7.3577   18.7383 H   0  0  0  0  0  0
   20.5171  -11.2400   16.9824 H   0  0  0  0  0  0
   18.2617  -12.2101   16.6362 H   0  0  0  0  0  0
   14.9443   -6.8102   19.8016 H   0  0  0  0  0  0
   15.8625   -5.2682   19.7249 H   0  0  0  0  0  0
   14.9095   -9.0924   16.7814 H   0  0  0  0  0  0
   14.3812   -8.6246   18.4333 H   0  0  0  0  0  0
   15.0861   -7.1799   14.7619 H   0  0  0  0  0  0
   16.4098   -5.3012   13.8672 H   0  0  0  0  0  0
   12.9855   -7.0336   14.6679 H   0  0  0  0  0  0
   10.4736   -7.3019   14.4488 H   0  0  0  0  0  0
   16.7223   -3.8131   15.0152 H   0  0  0  0  0  0
  1 11  2  0  0  0
  1 12  1  0  0  0
  1 13  1  0  0  0
  2  9  1  0  0  0
  2 12  2  0  0  0
  2 27  1  0  0  0
  3 13  1  0  0  0
  3 14  1  0  0  0
  3 28  1  0  0  0
  3 29  1  0  0  0
  4 14  1  0  0  0
  4 15  1  0  0  0
  4 19  1  0  0  0
  4 30  1  0  0  0
  5  8  2  0  0  0
  5 15  1  0  0  0
  5 21  1  0  0  0
  6  7  2  0  0  0
  6 22  1  0  0  0
  6 24  1  0  0  0
  7  8  1  0  0  0
  7 31  1  0  0  0
  8 23  1  0  0  0
  9 10  2  0  0  0
  9 32  1  0  0  0
 10 11  1  0  0  0
 10 33  1  0  0  0
 11 25  1  0  0  0
 13 16  1  0  0  0
 14 34  1  0  0  0
 14 35  1  0  0  0
 15 16  1  0  0  0
 15 17  1  0  0  0
 16 36  1  0  0  0
 16 37  1  0  0  0
 17 18  2  0  0  0
 17 38  1  0  0  0
 18 19  1  0  0  0
 18 20  1  0  0  0
 20 39  1  0  0  0
 20 42  1  0  0  0
 21 22  2  0  0  0
 21 40  1  0  0  0
 22 41  1  0  0  0
 25 26  3  0  0  0
M  CHG  1  17   1
M  END
> <s_m_source_file>
../4l7j_ligand.sdf

> <i_m_source_file_index>
1

> <s_epik_input>
bjFbY0hdW2NIXVtjSF1jKEMjTiljMU4oW0NIMl0yKVtDSDJdW0NIMl1bQ0BASF0oT0MoXFtOSF0zKT1OXFtIXSlbQ0BdMjNjNGMoRilbY0hdYyhGKVtjSF1bY0hdNA==

> <s_epik_cmdline>
J2VwaWtfYXBwJywgJy1pbWFlJywgJ2xpZ2FuZF9wcm8ubWFlJywgJy1vbWFlJywgJ2xpZ2FuZF9wcmVwLm1hZScsICctbXMnLCAnMScsICctcGgnLCAnNycsICctcGh0JywgJzAuNScsICctbnQn

> <r_lp_tautomer_probability>
1

> <r_epik_Ionization_Penalty>
  0.0460

> <r_epik_Ionization_Penalty_Charging>
  0.0179

> <r_epik_Ionization_Penalty_Neutral>
  0.0281

> <r_epik_State_Penalty>
 -0.0000

> <r_epik_Charging_Adjusted_Penalty>
0.0178605603257588

> <i_epik_Tot_Q>
1

> <i_epik_Tot_abs_Q>
1

> <s_epik_Chemistry_Notes>
This compound has an imine and may undergo hydrolysis.

$$$$
