4l7l_ligand
                    3D
 Schrodinger Suite 2020-3.
 47 49  0  0  1  0            999 V2000
   23.0160   -5.8130   15.4780 C   0  0  0  0  0  0
   22.3110   -6.7220   16.2670 C   0  0  0  0  0  0
   21.7050   -6.3300   17.4680 C   0  0  0  0  0  0
   21.8370   -5.0190   17.8810 C   0  0  0  0  0  0
   22.5580   -4.1230   17.1060 C   0  0  0  0  0  0
   23.1440   -4.4930   15.9050 C   0  0  0  0  0  0
   23.8580   -3.5510   15.1280 C   0  0  0  0  0  0
   22.8710   -2.5460   14.5090 C   0  0  1  0  0  0
   23.6530   -1.4780   13.7490 C   0  0  0  0  0  0
   22.6740   -0.4960   13.2420 O   0  0  0  0  0  0
   21.8480   -3.2030   13.6110 N   0  0  0  0  0  0
   20.5140   -3.1930   13.9150 C   0  0  0  0  0  0
   20.0770   -2.6090   14.9010 O   0  0  0  0  0  0
   19.5190   -3.8050   12.8830 C   0  0  0  0  0  0
   19.1630   -5.2090   13.2810 C   0  0  0  0  0  0
   18.1590   -5.8600   12.5040 C   0  0  0  0  0  0
   18.4410   -7.1070   12.0780 N   0  0  0  0  0  0
   17.5890   -7.8250   11.3620 C   0  0  0  0  0  0
   17.9730   -9.1240   11.0400 C   0  0  0  0  0  0
   17.1300   -9.9350   10.3000 C   0  0  0  0  0  0
   15.8960   -9.4240    9.9220 C   0  0  0  0  0  0
   15.4840   -8.1420   10.3280 C   0  0  0  0  0  0
   16.3130   -7.3400   11.0660 C   0  0  0  0  0  0
   15.9410   -6.0520   11.4490 C   0  0  0  0  0  0
   14.8110   -5.5680   11.1920 O   0  0  0  0  0  0
   16.8820   -5.3300   12.1810 N   0  0  0  0  0  0
   23.4625   -6.1324   14.5363 H   0  0  0  0  0  0
   22.2298   -7.7593   15.9423 H   0  0  0  0  0  0
   21.1402   -7.0462   18.0648 H   0  0  0  0  0  0
   21.3764   -4.6897   18.8124 H   0  0  0  0  0  0
   22.6675   -3.0952   17.4520 H   0  0  0  0  0  0
   24.5744   -3.0154   15.7682 H   0  0  0  0  0  0
   24.4014   -4.0732   14.3267 H   0  0  0  0  0  0
   22.2891   -2.0827   15.3194 H   0  0  0  0  0  0
   24.3689   -0.9939   14.4295 H   0  0  0  0  0  0
   24.1980   -1.9458   12.9159 H   0  0  0  0  0  0
   23.0166    0.3710   12.6581 H   0  0  0  0  0  0
   22.1694   -3.7055   12.6868 H   0  0  0  0  0  0
   18.6038   -3.1956   12.8502 H   0  0  0  0  0  0
   19.9861   -3.8190   11.8872 H   0  0  0  0  0  0
   20.0559   -5.8476   13.2108 H   0  0  0  0  0  0
   18.7896   -5.2133   14.3157 H   0  0  0  0  0  0
   18.9397   -9.5032   11.3714 H   0  0  0  0  0  0
   17.4268  -10.9463   10.0220 H   0  0  0  0  0  0
   15.2347  -10.0268    9.2996 H   0  0  0  0  0  0
   14.4928   -7.7825   10.0518 H   0  0  0  0  0  0
   16.6075   -4.3171   12.5107 H   0  0  0  0  0  0
  1  2  2  0  0  0
  1  6  1  0  0  0
  1 27  1  0  0  0
  2  3  1  0  0  0
  2 28  1  0  0  0
  3  4  2  0  0  0
  3 29  1  0  0  0
  4  5  1  0  0  0
  4 30  1  0  0  0
  5  6  2  0  0  0
  5 31  1  0  0  0
  6  7  1  0  0  0
  7  8  1  0  0  0
  7 32  1  0  0  0
  7 33  1  0  0  0
  8  9  1  0  0  0
  8 11  1  0  0  0
  8 34  1  0  0  0
  9 10  1  0  0  0
  9 35  1  0  0  0
  9 36  1  0  0  0
 10 37  1  0  0  0
 11 12  1  0  0  0
 11 38  1  0  0  0
 12 13  2  0  0  0
 12 14  1  0  0  0
 14 15  1  0  0  0
 14 39  1  0  0  0
 14 40  1  0  0  0
 15 16  1  0  0  0
 15 41  1  0  0  0
 15 42  1  0  0  0
 16 17  2  0  0  0
 16 26  1  0  0  0
 17 18  1  0  0  0
 18 19  2  0  0  0
 18 23  1  0  0  0
 19 20  1  0  0  0
 19 43  1  0  0  0
 20 21  2  0  0  0
 20 44  1  0  0  0
 21 22  1  0  0  0
 21 45  1  0  0  0
 22 23  2  0  0  0
 22 46  1  0  0  0
 23 24  1  0  0  0
 24 25  2  0  0  0
 24 26  1  0  0  0
 26 47  1  0  0  0
M  END
> <s_m_source_file>
../4l7l_ligand.sdf

> <i_m_source_file_index>
1

> <s_epik_input>
W2NIXTFbY0hdW2NIXVtjSF1bY0hdYzFbQ0gyXVtDQEBIXShbQ0gyXVtPSF0pW05IXUMoPU8pW0NIMl1bQ0gyXWMobjIpW25IXWMoPU8pYyhjMjMpW2NIXVtjSF1bY0hdW2NIXTM=

> <s_epik_cmdline>
J2VwaWtfYXBwJywgJy1pbWFlJywgJ2xpZ2FuZF9wcm8ubWFlJywgJy1vbWFlJywgJ2xpZ2FuZF9wcmVwLm1hZScsICctbXMnLCAnMScsICctcGgnLCAnNycsICctcGh0JywgJzAuNScsICctbnQn

> <r_lp_tautomer_probability>
1

> <r_epik_Ionization_Penalty>
  0.0010

> <r_epik_Ionization_Penalty_Charging>
  0.0010

> <r_epik_Ionization_Penalty_Neutral>
  0.0000

> <r_epik_State_Penalty>
 -0.0000

> <r_epik_Charging_Adjusted_Penalty>
0.00102214670886673

> <i_epik_Tot_Q>
0

> <i_epik_Tot_abs_Q>
0

$$$$
