4l7o_ligand
                    3D
 Schrodinger Suite 2020-3.
 50 53  0  0  1  0            999 V2000
   26.0140    1.2620   10.0830 C   0  0  0  0  0  0
   26.9750    2.1830    9.8200 C   0  0  0  0  0  0
   27.4490    2.6130   11.0100 N   0  0  0  0  0  0
   26.8140    1.9580   11.9850 C   0  0  0  0  0  0
   25.8960    1.1420   11.4250 N   0  0  0  0  0  0
   25.1540    0.3290   12.1690 C   0  0  0  0  0  0
   25.0290   -1.0310   11.7740 C   0  0  0  0  0  0
   24.2980   -1.9020   12.5870 C   0  0  0  0  0  0
   24.5540    0.7730   13.3590 C   0  0  0  0  0  0
   23.8220   -0.1010   14.1340 C   0  0  0  0  0  0
   23.6790   -1.4320   13.7720 C   0  0  0  0  0  0
   22.9400   -2.3290   14.6170 C   0  0  2  0  0  0
   23.9630   -3.1890   15.3890 C   0  0  0  0  0  0
   22.1080   -3.3110   13.8900 N   0  0  0  0  0  0
   20.7890   -3.1700   13.7210 C   0  0  0  0  0  0
   20.1560   -2.1880   14.1100 O   0  0  0  0  0  0
   20.1250   -4.3850   12.9930 C   0  0  0  0  0  0
   18.6310   -4.3470   13.2760 C   0  0  0  0  0  0
   17.9090   -5.3740   12.6200 C   0  0  0  0  0  0
   18.3650   -6.6040   12.3640 N   0  0  0  0  0  0
   17.5920   -7.5250   11.6860 C   0  0  0  0  0  0
   18.0840   -8.8020   11.4720 C   0  0  0  0  0  0
   17.2810   -9.7600   10.8310 C   0  0  0  0  0  0
   15.9960   -9.4490   10.4370 C   0  0  0  0  0  0
   15.4880   -8.1670   10.6870 C   0  0  0  0  0  0
   16.2850   -7.2350   11.3320 C   0  0  0  0  0  0
   15.8090   -5.9400   11.6010 C   0  0  0  0  0  0
   14.6710   -5.5500   11.3180 O   0  0  0  0  0  0
   16.6420   -5.0620   12.2380 N   0  0  0  0  0  0
   25.4359    0.7128    9.3399 H   0  0  0  0  0  0
   27.3029    2.5137    8.8345 H   0  0  0  0  0  0
   27.0047    2.0643   13.0529 H   0  0  0  0  0  0
   25.4942   -1.3876   10.8550 H   0  0  0  0  0  0
   24.2033   -2.9512   12.3072 H   0  0  0  0  0  0
   24.6675    1.8114   13.6704 H   0  0  0  0  0  0
   23.3477    0.2601   15.0465 H   0  0  0  0  0  0
   22.2794   -1.6577   15.1853 H   0  0  0  0  0  0
   24.6321   -2.5334   15.9657 H   0  0  0  0  0  0
   24.5553   -3.7820   14.6766 H   0  0  0  0  0  0
   23.4307   -3.8645   16.0749 H   0  0  0  0  0  0
   22.5705   -4.2102   13.4570 H   0  0  0  0  0  0
   20.3077   -4.3086   11.9110 H   0  0  0  0  0  0
   20.5588   -5.3218   13.3728 H   0  0  0  0  0  0
   18.4595   -4.4605   14.3566 H   0  0  0  0  0  0
   18.2182   -3.3849   12.9383 H   0  0  0  0  0  0
   19.0904   -9.0626   11.7997 H   0  0  0  0  0  0
   17.6768  -10.7581   10.6432 H   0  0  0  0  0  0
   15.3802  -10.1951    9.9348 H   0  0  0  0  0  0
   14.4761   -7.9057   10.3772 H   0  0  0  0  0  0
   16.2385   -4.0585   12.4384 H   0  0  0  0  0  0
  1  2  2  0  0  0
  1  5  1  0  0  0
  1 30  1  0  0  0
  2  3  1  0  0  0
  2 31  1  0  0  0
  3  4  2  0  0  0
  4  5  1  0  0  0
  4 32  1  0  0  0
  5  6  1  0  0  0
  6  7  2  0  0  0
  6  9  1  0  0  0
  7  8  1  0  0  0
  7 33  1  0  0  0
  8 11  2  0  0  0
  8 34  1  0  0  0
  9 10  2  0  0  0
  9 35  1  0  0  0
 10 11  1  0  0  0
 10 36  1  0  0  0
 11 12  1  0  0  0
 12 13  1  0  0  0
 12 14  1  0  0  0
 12 37  1  0  0  0
 13 38  1  0  0  0
 13 39  1  0  0  0
 13 40  1  0  0  0
 14 15  1  0  0  0
 14 41  1  0  0  0
 15 16  2  0  0  0
 15 17  1  0  0  0
 17 18  1  0  0  0
 17 42  1  0  0  0
 17 43  1  0  0  0
 18 19  1  0  0  0
 18 44  1  0  0  0
 18 45  1  0  0  0
 19 20  2  0  0  0
 19 29  1  0  0  0
 20 21  1  0  0  0
 21 22  2  0  0  0
 21 26  1  0  0  0
 22 23  1  0  0  0
 22 46  1  0  0  0
 23 24  2  0  0  0
 23 47  1  0  0  0
 24 25  1  0  0  0
 24 48  1  0  0  0
 25 26  2  0  0  0
 25 49  1  0  0  0
 26 27  1  0  0  0
 27 28  2  0  0  0
 27 29  1  0  0  0
 29 50  1  0  0  0
M  END
> <s_m_source_file>
../4l7o_ligand.sdf

> <i_m_source_file_index>
1

> <s_epik_input>
W2NIXTFuW2NIXVtjSF1uMS1jMltjSF1bY0hdYyhbY0hdW2NIXTIpW0NASF0oW0NIM10pW05IXUMoPU8pW0NIMl1bQ0gyXWMobjMpW25IXWMoPU8pYyhjMzQpW2NIXVtjSF1bY0hdW2NIXTQ=

> <s_epik_cmdline>
J2VwaWtfYXBwJywgJy1pbWFlJywgJ2xpZ2FuZF9wcm8ubWFlJywgJy1vbWFlJywgJ2xpZ2FuZF9wcmVwLm1hZScsICctbXMnLCAnMScsICctcGgnLCAnNycsICctcGh0JywgJzAuNScsICctbnQn

> <r_lp_tautomer_probability>
0.883938

> <r_epik_Ionization_Penalty>
  0.0507

> <r_epik_Ionization_Penalty_Charging>
  0.0507

> <r_epik_Ionization_Penalty_Neutral>
  0.0000

> <r_epik_State_Penalty>
  0.0424

> <r_epik_Charging_Adjusted_Penalty>
0.093096445819417

> <i_epik_Tot_Q>
0

> <i_epik_Tot_abs_Q>
0

$$$$
