4l7r_ligand
                    3D
 Schrodinger Suite 2020-3.
 40 41  0  0  1  0            999 V2000
   24.9690   -3.6490   14.1050 C   0  0  0  0  0  0
   23.8120   -3.5370   15.0350 C   0  0  0  0  0  0
   22.8480   -2.4850   14.4850 C   0  0  1  0  0  0
   23.4670   -1.1810   13.9410 C   0  0  0  0  0  0
   22.3240   -0.4110   13.4670 O   0  0  0  0  0  0
   21.8970   -3.1260   13.4870 N   0  0  0  0  0  0
   20.5800   -3.2470   13.7350 C   0  0  0  0  0  0
   20.0250   -2.8470   14.8080 O   0  0  0  0  0  0
   19.8460   -3.9320   12.5820 C   0  0  0  0  0  0
   19.2130   -5.1140   13.2450 C   0  0  0  0  0  0
   18.3000   -5.8270   12.4850 C   0  0  0  0  0  0
   18.6900   -7.0680   12.1340 N   0  0  0  0  0  0
   17.8690   -7.8560   11.4180 C   0  0  0  0  0  0
   18.3100   -9.1380   11.1300 C   0  0  0  0  0  0
   17.4400   -9.9670   10.4310 C   0  0  0  0  0  0
   16.2260   -9.5180    9.9860 C   0  0  0  0  0  0
   15.7520   -8.2400   10.2830 C   0  0  0  0  0  0
   16.5410   -7.3830   11.0040 C   0  0  0  0  0  0
   16.1210   -6.0820   11.3640 C   0  0  0  0  0  0
   15.0040   -5.6060   11.1070 O   0  0  0  0  0  0
   17.0190   -5.3510   12.0960 N   0  0  0  0  0  0
   25.6739   -4.4028   14.4858 H   0  0  0  0  0  0
   25.4766   -2.6758   14.0324 H   0  0  0  0  0  0
   24.6114   -3.9512   13.1096 H   0  0  0  0  0  0
   23.3044   -4.5102   15.1076 H   0  0  0  0  0  0
   24.1696   -3.2349   16.0304 H   0  0  0  0  0  0
   22.2868   -2.1396   15.3658 H   0  0  0  0  0  0
   24.0046   -0.6649   14.7501 H   0  0  0  0  0  0
   24.1689   -1.4195   13.1283 H   0  0  0  0  0  0
   22.4772    0.5825   13.0203 H   0  0  0  0  0  0
   22.2802   -3.5074   12.5290 H   0  0  0  0  0  0
   19.1061   -3.2390   12.1551 H   0  0  0  0  0  0
   20.5702   -4.2192   11.8054 H   0  0  0  0  0  0
   19.9932   -5.8333   13.5347 H   0  0  0  0  0  0
   18.6681   -4.7833   14.1415 H   0  0  0  0  0  0
   19.2973   -9.4818   11.4385 H   0  0  0  0  0  0
   17.7314  -10.9984   10.2327 H   0  0  0  0  0  0
   15.6091  -10.1810    9.3794 H   0  0  0  0  0  0
   14.7643   -7.9266    9.9450 H   0  0  0  0  0  0
   16.6977   -4.3390   12.3835 H   0  0  0  0  0  0
  1  2  1  0  0  0
  1 22  1  0  0  0
  1 23  1  0  0  0
  1 24  1  0  0  0
  2  3  1  0  0  0
  2 25  1  0  0  0
  2 26  1  0  0  0
  3  4  1  0  0  0
  3  6  1  0  0  0
  3 27  1  0  0  0
  4  5  1  0  0  0
  4 28  1  0  0  0
  4 29  1  0  0  0
  5 30  1  0  0  0
  6  7  1  0  0  0
  6 31  1  0  0  0
  7  8  2  0  0  0
  7  9  1  0  0  0
  9 10  1  0  0  0
  9 32  1  0  0  0
  9 33  1  0  0  0
 10 11  1  0  0  0
 10 34  1  0  0  0
 10 35  1  0  0  0
 11 12  2  0  0  0
 11 21  1  0  0  0
 12 13  1  0  0  0
 13 14  2  0  0  0
 13 18  1  0  0  0
 14 15  1  0  0  0
 14 36  1  0  0  0
 15 16  2  0  0  0
 15 37  1  0  0  0
 16 17  1  0  0  0
 16 38  1  0  0  0
 17 18  2  0  0  0
 17 39  1  0  0  0
 18 19  1  0  0  0
 19 20  2  0  0  0
 19 21  1  0  0  0
 21 40  1  0  0  0
M  END
> <s_m_source_file>
../4l7r_ligand.sdf

> <i_m_source_file_index>
1

> <s_epik_input>
W0NIM11bQ0gyXVtDQEBIXShbQ0gyXVtPSF0pW05IXUMoPU8pW0NIMl1bQ0gyXWMobjEpW25IXWMoPU8pYyhjMTIpW2NIXVtjSF1bY0hdW2NIXTI=

> <s_epik_cmdline>
J2VwaWtfYXBwJywgJy1pbWFlJywgJ2xpZ2FuZF9wcm8ubWFlJywgJy1vbWFlJywgJ2xpZ2FuZF9wcmVwLm1hZScsICctbXMnLCAnMScsICctcGgnLCAnNycsICctcGh0JywgJzAuNScsICctbnQn

> <r_lp_tautomer_probability>
1

> <r_epik_Ionization_Penalty>
  0.0010

> <r_epik_Ionization_Penalty_Charging>
  0.0010

> <r_epik_Ionization_Penalty_Neutral>
  0.0000

> <r_epik_State_Penalty>
 -0.0000

> <r_epik_Charging_Adjusted_Penalty>
0.00102029592194976

> <i_epik_Tot_Q>
0

> <i_epik_Tot_abs_Q>
0

$$$$
