4l9i_ligand
                    3D
 Schrodinger Suite 2020-3.
 45 48  0  0  1  0            999 V2000
  -14.8360  -45.2580   21.2530 F   0  0  0  0  0  0
  -16.9900  -46.2430   21.2980 C   0  0  0  0  0  0
  -16.1180  -45.2200   23.2730 C   0  0  0  0  0  0
  -21.2160  -42.2720   25.9540 C   0  0  0  0  0  0
  -18.1630  -46.5760   21.9760 C   0  0  0  0  0  0
  -17.2970  -45.5520   23.9570 C   0  0  0  0  0  0
  -21.5960  -40.9790   26.2840 C   0  0  0  0  0  0
  -20.9070  -41.6510   23.6210 C   0  0  0  0  0  0
  -21.0480  -48.4380   24.9120 C   0  0  0  0  0  0
  -19.7400  -48.0860   24.2120 C   0  0  0  0  0  0
  -22.1240  -46.3600   23.9820 C   0  0  0  0  0  0
  -21.9470  -38.2180   23.9560 C   0  0  0  0  0  0
  -20.7500  -44.5080   23.0880 C   0  0  0  0  0  0
  -22.1780  -47.7730   24.2900 N   0  3  0  0  0  0
  -20.5170  -43.9000   24.3590 O   0  0  0  0  0  0
  -21.9540  -38.7220   25.3080 O   0  0  0  0  0  0
  -21.4150  -39.2750   23.1790 O   0  0  0  0  0  0
  -15.9610  -45.5660   21.9360 C   0  0  0  0  0  0
  -20.8760  -42.6090   24.6310 C   0  0  0  0  0  0
  -18.3340  -46.2400   23.3160 C   0  0  0  0  0  0
  -21.6100  -40.0400   25.2600 C   0  0  0  0  0  0
  -21.2830  -40.3680   23.9760 C   0  0  0  0  0  0
  -20.8110  -46.0170   23.2810 C   0  0  1  0  0  0
  -19.5960  -46.5780   24.0380 C   0  0  1  0  0  0
  -16.8803  -46.5195   20.2494 H   0  0  0  0  0  0
  -15.3211  -44.6880   23.7927 H   0  0  0  0  0  0
  -21.1804  -43.0367   26.7299 H   0  0  0  0  0  0
  -18.9563  -47.1065   21.4493 H   0  0  0  0  0  0
  -17.4073  -45.2698   25.0040 H   0  0  0  0  0  0
  -21.8720  -40.7111   27.3039 H   0  0  0  0  0  0
  -20.6457  -41.9017   22.5929 H   0  0  0  0  0  0
  -21.2109  -49.5246   24.8598 H   0  0  0  0  0  0
  -20.9959  -48.1252   25.9653 H   0  0  0  0  0  0
  -18.8934  -48.4524   24.8111 H   0  0  0  0  0  0
  -19.7174  -48.5575   23.2184 H   0  0  0  0  0  0
  -22.9624  -46.0966   23.3204 H   0  0  0  0  0  0
  -22.1951  -45.7787   24.9132 H   0  0  0  0  0  0
  -22.9741  -37.9663   23.6532 H   0  0  0  0  0  0
  -21.3181  -37.3170   23.9038 H   0  0  0  0  0  0
  -21.7021  -44.1426   22.6758 H   0  0  0  0  0  0
  -19.9301  -44.2492   22.4019 H   0  0  0  0  0  0
  -22.3901  -48.2424   23.3180 H   0  0  0  0  0  0
  -23.0602  -47.8630   24.9409 H   0  0  0  0  0  0
  -20.7820  -46.4914   22.2890 H   0  0  0  0  0  0
  -19.5221  -46.1139   25.0325 H   0  0  0  0  0  0
  1 18  1  0  0  0
  2  5  2  0  0  0
  2 18  1  0  0  0
  2 25  1  0  0  0
  3  6  1  0  0  0
  3 18  2  0  0  0
  3 26  1  0  0  0
  4  7  2  0  0  0
  4 19  1  0  0  0
  4 27  1  0  0  0
  5 20  1  0  0  0
  5 28  1  0  0  0
  6 20  2  0  0  0
  6 29  1  0  0  0
  7 21  1  0  0  0
  7 30  1  0  0  0
  8 19  2  0  0  0
  8 22  1  0  0  0
  8 31  1  0  0  0
  9 10  1  0  0  0
  9 14  1  0  0  0
  9 32  1  0  0  0
  9 33  1  0  0  0
 10 24  1  0  0  0
 10 34  1  0  0  0
 10 35  1  0  0  0
 11 14  1  0  0  0
 11 23  1  0  0  0
 11 36  1  0  0  0
 11 37  1  0  0  0
 12 16  1  0  0  0
 12 17  1  0  0  0
 12 38  1  0  0  0
 12 39  1  0  0  0
 13 15  1  0  0  0
 13 23  1  0  0  0
 13 40  1  0  0  0
 13 41  1  0  0  0
 14 42  1  0  0  0
 14 43  1  0  0  0
 15 19  1  0  0  0
 16 21  1  0  0  0
 17 22  1  0  0  0
 20 24  1  0  0  0
 21 22  2  0  0  0
 23 24  1  0  0  0
 23 44  1  0  0  0
 24 45  1  0  0  0
M  CHG  1  14   1
M  END
> <s_m_source_file>
../4l9i_ligand.sdf

> <i_m_source_file_index>
1

> <s_epik_input>
RmMxW2NIXVtjSF1jKFtjSF1bY0hdMSlbQ0BASF0yW0NIMl1bQ0gyXVtOSDIrXVtDSDJdW0NASF0yW0NIMl1PYyhbY0hdW2NIXTMpW2NIXWMoYzM0KU9bQ0gyXU80

> <s_epik_cmdline>
J2VwaWtfYXBwJywgJy1pbWFlJywgJ2xpZ2FuZF9wcm8ubWFlJywgJy1vbWFlJywgJ2xpZ2FuZF9wcmVwLm1hZScsICctbXMnLCAnMScsICctcGgnLCAnNycsICctcGh0JywgJzAuNScsICctbnQn

> <r_lp_tautomer_probability>
1

> <r_epik_Ionization_Penalty>
  0.0016

> <r_epik_Ionization_Penalty_Charging>
  0.0016

> <r_epik_Ionization_Penalty_Neutral>
  0.0000

> <r_epik_State_Penalty>
 -0.0000

> <r_epik_Charging_Adjusted_Penalty>
0.00157979294428329

> <i_epik_Tot_Q>
1

> <i_epik_Tot_abs_Q>
1

> <s_epik_Chemistry_Notes>
This compound contains an acetal/aminal-like group ( X-CH(R)-Y where X, Y are N, S, or O) that may be acid/base labile, releasing an aldehyde.

$$$$
