4lbl_ligand
                    3D
 Schrodinger Suite 2020-3.
 81 83  0  0  1  0            999 V2000
    2.1780   -7.7780    3.7840 C   0  0  0  0  0  0
    2.3250   -8.9650    2.8540 C   0  0  1  0  0  0
    3.7500   -9.1780    2.3370 C   0  0  0  0  0  0
    4.6600   -9.8000    3.3990 C   0  0  1  0  0  0
    3.9590  -11.0230    3.9820 C   0  0  2  0  0  0
    2.6210  -10.6040    4.5830 C   0  0  2  0  0  0
    1.9220  -11.7910    5.2310 C   0  0  1  0  0  0
    0.4440  -11.5490    5.5240 C   0  0  1  0  0  0
   -0.0470  -12.5510    6.5720 C   0  0  0  0  0  0
    5.7990  -11.4310    5.6210 C   0  0  0  0  0  0
    6.1640   -9.9780    5.6050 C   0  0  0  0  0  0
    4.7360  -11.8290    4.9260 N   0  0  0  0  0  0
    2.8560   -6.7550    3.5580 O   0  0  0  0  0  0
    1.3790   -7.8840    4.7480 O   0  5  0  0  0  0
    5.9160  -10.1480    2.7960 O   0  0  0  0  0  0
    1.8140  -10.1150    3.5110 O   0  0  0  0  0  0
    2.0290  -12.9080    4.3440 O   0  0  0  0  0  0
    0.2530  -10.2060    5.9880 O   0  0  0  0  0  0
   -1.4790  -12.6360    6.5660 O   0  0  0  0  0  0
    6.4090  -12.2230    6.3200 O   0  0  0  0  0  0
   -6.5200  -10.5590    0.3160 C   0  0  2  0  0  0
   -5.0270  -10.4810    0.0000 C   0  0  2  0  0  0
   -4.2570  -10.1210    1.2690 C   0  0  1  0  0  0
   -4.6170  -11.1040    2.3720 C   0  0  1  0  0  0
   -3.8110  -10.9100    3.6550 C   0  0  0  0  0  0
   -6.7490  -11.4660    1.5290 C   0  0  2  0  0  0
   -8.1330  -11.5200    1.8780 O   0  0  0  0  0  0
   -7.1920  -11.0780   -0.8340 O   0  0  0  0  0  0
   -4.7570   -9.5700   -1.0840 O   0  0  0  0  0  0
   -2.8740  -10.2400    1.0040 O   0  0  0  0  0  0
   -6.0090  -10.9630    2.6400 O   0  0  0  0  0  0
   -4.1790   -9.6630    4.2560 O   0  0  0  0  0  0
   -2.1210   -9.1410    1.5110 C   0  0  1  0  0  0
   -0.6780   -9.5750    1.4210 C   0  0  1  0  0  0
    0.2430   -8.4390    1.8280 C   0  0  2  0  0  0
   -0.1000   -7.1860    1.0140 C   0  0  2  0  0  0
   -1.5950   -6.8580    1.1270 C   0  0  1  0  0  0
   -2.0500   -5.6510    0.3030 C   0  0  0  0  0  0
   -0.4300  -10.6970    2.2560 O   0  0  0  0  0  0
    1.5830   -8.8460    1.6090 O   0  0  0  0  0  0
    0.2850   -7.3680   -0.3280 O   0  0  0  0  0  0
   -2.3540   -7.9780    0.7340 O   0  0  0  0  0  0
   -3.4340   -5.4350    0.5320 O   0  0  0  0  0  0
    3.7277   -9.8514    1.4675 H   0  0  0  0  0  0
    4.1809   -8.2104    2.0404 H   0  0  0  0  0  0
    4.9234   -9.0958    4.2019 H   0  0  0  0  0  0
    3.8389  -11.7402    3.1567 H   0  0  0  0  0  0
    2.7422   -9.7985    5.3222 H   0  0  0  0  0  0
    2.4331  -12.0283    6.1757 H   0  0  0  0  0  0
   -0.1560  -11.6236    4.6051 H   0  0  0  0  0  0
    0.3676  -13.5456    6.3509 H   0  0  0  0  0  0
    0.2843  -12.2294    7.5704 H   0  0  0  0  0  0
    5.4973   -9.4401    4.9149 H   0  0  0  0  0  0
    7.2059   -9.8654    5.2708 H   0  0  0  0  0  0
    6.0567   -9.5618    6.6176 H   0  0  0  0  0  0
    4.4554  -12.8754    5.1167 H   0  0  0  0  0  0
    6.5380   -9.3685    2.3319 H   0  0  0  0  0  0
    3.0187  -13.2495    4.0065 H   0  0  0  0  0  0
    0.5530   -9.3576    5.3553 H   0  0  0  0  0  0
   -1.9926  -13.3144    7.2631 H   0  0  0  0  0  0
   -6.9559   -9.5664    0.5023 H   0  0  0  0  0  0
   -4.6635  -11.4382   -0.4020 H   0  0  0  0  0  0
   -4.4371   -9.0801    1.5758 H   0  0  0  0  0  0
   -4.4407  -12.1320    2.0226 H   0  0  0  0  0  0
   -4.0261  -11.7340    4.3513 H   0  0  0  0  0  0
   -2.7373  -10.9029    3.4160 H   0  0  0  0  0  0
   -6.4319  -12.5022    1.3402 H   0  0  0  0  0  0
   -8.8706  -11.8837    1.1475 H   0  0  0  0  0  0
   -7.1301  -10.5451   -1.7943 H   0  0  0  0  0  0
   -5.2471   -9.7137   -2.0582 H   0  0  0  0  0  0
   -3.7035   -9.3435    5.1951 H   0  0  0  0  0  0
   -2.4574   -8.8687    2.5223 H   0  0  0  0  0  0
   -0.4675   -9.9192    0.3977 H   0  0  0  0  0  0
    0.1862   -8.2221    2.9049 H   0  0  0  0  0  0
    0.4987   -6.3219    1.3379 H   0  0  0  0  0  0
   -1.8189   -6.6660    2.1867 H   0  0  0  0  0  0
   -1.4788   -4.7620    0.6087 H   0  0  0  0  0  0
   -1.8758   -5.8493   -0.7649 H   0  0  0  0  0  0
   -1.0034  -11.6251    2.1148 H   0  0  0  0  0  0
    1.3299   -7.6096   -0.5725 H   0  0  0  0  0  0
   -3.9525   -4.6070    0.0264 H   0  0  0  0  0  0
  1  2  1  0  0  0
  1 13  2  0  0  0
  1 14  1  0  0  0
  2  3  1  0  0  0
  2 16  1  0  0  0
  2 40  1  0  0  0
  3  4  1  0  0  0
  3 44  1  0  0  0
  3 45  1  0  0  0
  4  5  1  0  0  0
  4 15  1  0  0  0
  4 46  1  0  0  0
  5  6  1  0  0  0
  5 12  1  0  0  0
  5 47  1  0  0  0
  6  7  1  0  0  0
  6 16  1  0  0  0
  6 48  1  0  0  0
  7  8  1  0  0  0
  7 17  1  0  0  0
  7 49  1  0  0  0
  8  9  1  0  0  0
  8 18  1  0  0  0
  8 50  1  0  0  0
  9 19  1  0  0  0
  9 51  1  0  0  0
  9 52  1  0  0  0
 10 11  1  0  0  0
 10 12  1  0  0  0
 10 20  2  0  0  0
 11 53  1  0  0  0
 11 54  1  0  0  0
 11 55  1  0  0  0
 12 56  1  0  0  0
 15 57  1  0  0  0
 17 58  1  0  0  0
 18 59  1  0  0  0
 19 60  1  0  0  0
 21 22  1  0  0  0
 21 26  1  0  0  0
 21 28  1  0  0  0
 21 61  1  0  0  0
 22 23  1  0  0  0
 22 29  1  0  0  0
 22 62  1  0  0  0
 23 24  1  0  0  0
 23 30  1  0  0  0
 23 63  1  0  0  0
 24 25  1  0  0  0
 24 31  1  0  0  0
 24 64  1  0  0  0
 25 32  1  0  0  0
 25 65  1  0  0  0
 25 66  1  0  0  0
 26 27  1  0  0  0
 26 31  1  0  0  0
 26 67  1  0  0  0
 27 68  1  0  0  0
 28 69  1  0  0  0
 29 70  1  0  0  0
 30 33  1  0  0  0
 32 71  1  0  0  0
 33 34  1  0  0  0
 33 42  1  0  0  0
 33 72  1  0  0  0
 34 35  1  0  0  0
 34 39  1  0  0  0
 34 73  1  0  0  0
 35 36  1  0  0  0
 35 40  1  0  0  0
 35 74  1  0  0  0
 36 37  1  0  0  0
 36 41  1  0  0  0
 36 75  1  0  0  0
 37 38  1  0  0  0
 37 42  1  0  0  0
 37 76  1  0  0  0
 38 43  1  0  0  0
 38 77  1  0  0  0
 38 78  1  0  0  0
 39 79  1  0  0  0
 41 80  1  0  0  0
 43 81  1  0  0  0
M  CHG  1  14  -1
M  END
> <s_m_source_file>
../4lbl_ligand.sdf

> <i_m_source_file_index>
1

> <s_epik_input>
W09IXVtDSDJdW0NAQEhdKFtPSF0pW0NAQEhdKFtPSF0pW0NASF0oTzEpW0NASF0oW05IXUMoPU8pW0NIM10pW0NAQEhdKFtPSF0pW0NIMl1bQ0BAXTEoQyg9TylbT0hdKU9bQ0BASF0oW0NAQEhdKFtPSF0pW0NASF0oTzIpW0NIMl1bT0hdKVtDQEBIXShbT0hdKVtDQEBIXTJPW0NAQEhdKFtDQEhdKFtPSF0pW0NASF0zW09IXSlbQ0BASF0oW0NIMl1bT0hdKU9bQ0BIXTNbT0hd

> <s_epik_cmdline>
J2VwaWtfYXBwJywgJy1pbWFlJywgJ2xpZ2FuZF9wcm8ubWFlJywgJy1vbWFlJywgJ2xpZ2FuZF9wcmVwLm1hZScsICctbXMnLCAnMScsICctcGgnLCAnNycsICctcGh0JywgJzAuNScsICctbnQn

> <r_lp_tautomer_probability>
1

> <r_epik_Ionization_Penalty>
  0.0000

> <r_epik_Ionization_Penalty_Charging>
  0.0000

> <r_epik_Ionization_Penalty_Neutral>
  0.0000

> <r_epik_State_Penalty>
 -0.0000

> <r_epik_Charging_Adjusted_Penalty>
9.89927833884068e-06

> <i_epik_Tot_Q>
-1

> <i_epik_Tot_abs_Q>
1

> <s_epik_Chemistry_Notes>
This compound contains an acetal/aminal-like group ( X-CH(R)-Y where X, Y are N, S, or O) that may be acid/base labile, releasing an aldehyde.

$$$$
