4lbo_ligand
                    3D
 Schrodinger Suite 2020-3.
 81 83  0  0  1  0            999 V2000
   24.8400  -10.1060    0.3290 C   0  0  2  0  0  0
   23.3260  -10.1770    0.4970 C   0  0  2  0  0  0
   22.6040   -9.8380   -0.8060 C   0  0  1  0  0  0
   23.1650  -10.6930   -1.9450 C   0  0  1  0  0  0
   22.5270  -10.3990   -3.3000 C   0  0  0  0  0  0
   25.2860  -10.9050   -0.8900 C   0  0  2  0  0  0
   26.6900  -10.7150   -1.1010 O   0  0  0  0  0  0
   25.4830  -10.6300    1.4990 O   0  0  0  0  0  0
   22.9290   -9.2860    1.5500 O   0  0  0  0  0  0
   21.2030  -10.1000   -0.6480 O   0  0  0  0  0  0
   24.5680  -10.4610   -2.0430 O   0  0  0  0  0  0
   22.7410   -9.0300   -3.6660 O   0  0  0  0  0  0
   20.3820   -9.0160   -1.1110 C   0  0  1  0  0  0
   18.9320   -9.4890   -1.0720 C   0  0  1  0  0  0
   17.9700   -8.3650   -1.4350 C   0  0  2  0  0  0
   18.2960   -7.0980   -0.6550 C   0  0  2  0  0  0
   19.7880   -6.7580   -0.7390 C   0  0  1  0  0  0
   20.1850   -5.5460    0.1090 C   0  0  0  0  0  0
   18.7770  -10.5560   -1.9840 O   0  0  0  0  0  0
   16.6140   -8.7360   -1.1920 O   0  0  0  0  0  0
   17.8910   -7.3320    0.6740 O   0  0  0  0  0  0
   20.5570   -7.8640   -0.3110 O   0  0  0  0  0  0
   21.5840   -5.3410    0.0070 O   0  0  0  0  0  0
   15.6760   -7.5520   -3.1430 C   0  0  0  0  0  0
   15.9400   -8.8860   -2.4630 C   0  0  2  0  0  0
   14.6860   -9.3690   -1.7270 C   0  0  0  0  0  0
   13.5740   -9.7310   -2.7060 C   0  0  1  0  0  0
   14.0670  -10.7220   -3.7530 C   0  0  2  0  0  0
   15.4040  -10.2990   -4.3730 C   0  0  2  0  0  0
   16.0120  -11.4290   -5.2090 C   0  0  1  0  0  0
   17.3510  -11.0180   -5.8370 C   0  0  1  0  0  0
   18.5270  -11.8780   -5.3720 C   0  0  0  0  0  0
   12.1360  -11.8190   -4.8020 C   0  0  0  0  0  0
   11.1840  -11.7800   -5.9620 C   0  0  0  0  0  0
   13.0580  -10.8530   -4.7930 N   0  0  0  0  0  0
   16.2630   -7.2900   -4.2160 O   0  0  0  0  0  0
   14.8840   -6.7470   -2.6020 O   0  5  0  0  0  0
   12.4760  -10.3060   -1.9860 O   0  0  0  0  0  0
   16.3600   -9.9040   -3.3760 O   0  0  0  0  0  0
   16.1740  -12.5990   -4.3950 O   0  0  0  0  0  0
   17.2500  -11.1060   -7.2640 O   0  0  0  0  0  0
   18.3610  -13.2280   -5.8220 O   0  0  0  0  0  0
   12.0570  -12.6800   -3.9400 O   0  0  0  0  0  0
   25.1597   -9.0573    0.2395 H   0  0  0  0  0  0
   23.0205  -11.1831    0.8202 H   0  0  0  0  0  0
   22.6908   -8.7673   -1.0428 H   0  0  0  0  0  0
   23.0082  -11.7547   -1.7036 H   0  0  0  0  0  0
   22.9760  -11.0490   -4.0654 H   0  0  0  0  0  0
   21.4452  -10.5904   -3.2452 H   0  0  0  0  0  0
   25.1052  -11.9845   -0.7808 H   0  0  0  0  0  0
   27.4075  -11.0004   -0.3176 H   0  0  0  0  0  0
   25.2852  -10.1804    2.4833 H   0  0  0  0  0  0
   23.3597   -9.3971    2.5561 H   0  0  0  0  0  0
   22.3455   -8.6470   -4.6183 H   0  0  0  0  0  0
   20.7295   -8.7060   -2.1076 H   0  0  0  0  0  0
   18.6803   -9.8896   -0.0789 H   0  0  0  0  0  0
   18.0232   -8.1867   -2.5191 H   0  0  0  0  0  0
   17.7242   -6.2257   -1.0044 H   0  0  0  0  0  0
   20.0409   -6.5765   -1.7940 H   0  0  0  0  0  0
   19.6545   -4.6539   -0.2554 H   0  0  0  0  0  0
   19.9153   -5.7293    1.1595 H   0  0  0  0  0  0
   19.3920  -11.4621   -1.8801 H   0  0  0  0  0  0
   16.8438   -7.5880    0.8929 H   0  0  0  0  0  0
   22.0593   -4.5110    0.5503 H   0  0  0  0  0  0
   14.9312  -10.2603   -1.1308 H   0  0  0  0  0  0
   14.3213   -8.5722   -1.0622 H   0  0  0  0  0  0
   13.1920   -8.8239   -3.1972 H   0  0  0  0  0  0
   14.1938  -11.7079   -3.2819 H   0  0  0  0  0  0
   15.2275   -9.3988   -4.9801 H   0  0  0  0  0  0
   15.3138  -11.7191   -6.0080 H   0  0  0  0  0  0
   17.5549   -9.9683   -5.5790 H   0  0  0  0  0  0
   19.4629  -11.4734   -5.7848 H   0  0  0  0  0  0
   18.5765  -11.8683   -4.2732 H   0  0  0  0  0  0
   11.4336  -10.9290   -6.6127 H   0  0  0  0  0  0
   10.1555  -11.6667   -5.5886 H   0  0  0  0  0  0
   11.2653  -12.7157   -6.5346 H   0  0  0  0  0  0
   13.0297  -10.1345   -5.6255 H   0  0  0  0  0  0
   11.9848   -9.7352   -1.1842 H   0  0  0  0  0  0
   15.3078  -13.0279   -3.8698 H   0  0  0  0  0  0
   16.4602  -10.5539   -7.7946 H   0  0  0  0  0  0
   19.1184  -13.9868   -5.5760 H   0  0  0  0  0  0
  1  2  1  0  0  0
  1  6  1  0  0  0
  1  8  1  0  0  0
  1 44  1  0  0  0
  2  3  1  0  0  0
  2  9  1  0  0  0
  2 45  1  0  0  0
  3  4  1  0  0  0
  3 10  1  0  0  0
  3 46  1  0  0  0
  4  5  1  0  0  0
  4 11  1  0  0  0
  4 47  1  0  0  0
  5 12  1  0  0  0
  5 48  1  0  0  0
  5 49  1  0  0  0
  6  7  1  0  0  0
  6 11  1  0  0  0
  6 50  1  0  0  0
  7 51  1  0  0  0
  8 52  1  0  0  0
  9 53  1  0  0  0
 10 13  1  0  0  0
 12 54  1  0  0  0
 13 14  1  0  0  0
 13 22  1  0  0  0
 13 55  1  0  0  0
 14 15  1  0  0  0
 14 19  1  0  0  0
 14 56  1  0  0  0
 15 16  1  0  0  0
 15 20  1  0  0  0
 15 57  1  0  0  0
 16 17  1  0  0  0
 16 21  1  0  0  0
 16 58  1  0  0  0
 17 18  1  0  0  0
 17 22  1  0  0  0
 17 59  1  0  0  0
 18 23  1  0  0  0
 18 60  1  0  0  0
 18 61  1  0  0  0
 19 62  1  0  0  0
 20 25  1  0  0  0
 21 63  1  0  0  0
 23 64  1  0  0  0
 24 25  1  0  0  0
 24 36  2  0  0  0
 24 37  1  0  0  0
 25 26  1  0  0  0
 25 39  1  0  0  0
 26 27  1  0  0  0
 26 65  1  0  0  0
 26 66  1  0  0  0
 27 28  1  0  0  0
 27 38  1  0  0  0
 27 67  1  0  0  0
 28 29  1  0  0  0
 28 35  1  0  0  0
 28 68  1  0  0  0
 29 30  1  0  0  0
 29 39  1  0  0  0
 29 69  1  0  0  0
 30 31  1  0  0  0
 30 40  1  0  0  0
 30 70  1  0  0  0
 31 32  1  0  0  0
 31 41  1  0  0  0
 31 71  1  0  0  0
 32 42  1  0  0  0
 32 72  1  0  0  0
 32 73  1  0  0  0
 33 34  1  0  0  0
 33 35  1  0  0  0
 33 43  2  0  0  0
 34 74  1  0  0  0
 34 75  1  0  0  0
 34 76  1  0  0  0
 35 77  1  0  0  0
 38 78  1  0  0  0
 40 79  1  0  0  0
 41 80  1  0  0  0
 42 81  1  0  0  0
M  CHG  1  37  -1
M  END
> <s_m_source_file>
../4lbo_ligand.sdf

> <i_m_source_file_index>
1

> <s_epik_input>
W09IXVtDQEBIXTFPW0NASF0oW0NIMl1bT0hdKVtDQEhdKFtDQEhdKFtPSF0pW0NASF0xW09IXSlPW0NASF0yW0NASF0oW09IXSlbQ0BIXShbQ0BASF0oW09IXSlbQ0BIXShPMilbQ0gyXVtPSF0pT1tDQF0zKEMoPU8pW09IXSlbQ0gyXVtDQEhdKFtPSF0pW0NAQEhdKFtOSF1DKD1PKVtDSDNdKVtDQEBIXShPMylbQ0BIXShbT0hdKVtDQEhdKFtPSF0pW0NIMl1bT0hd

> <s_epik_cmdline>
J2VwaWtfYXBwJywgJy1pbWFlJywgJ2xpZ2FuZF9wcm8ubWFlJywgJy1vbWFlJywgJ2xpZ2FuZF9wcmVwLm1hZScsICctbXMnLCAnMScsICctcGgnLCAnNycsICctcGh0JywgJzAuNScsICctbnQn

> <r_lp_tautomer_probability>
1

> <r_epik_Ionization_Penalty>
  0.0000

> <r_epik_Ionization_Penalty_Charging>
  0.0000

> <r_epik_Ionization_Penalty_Neutral>
  0.0000

> <r_epik_State_Penalty>
 -0.0000

> <r_epik_Charging_Adjusted_Penalty>
9.89927833884068e-06

> <i_epik_Tot_Q>
-1

> <i_epik_Tot_abs_Q>
1

> <s_epik_Chemistry_Notes>
This compound contains an acetal/aminal-like group ( X-CH(R)-Y where X, Y are N, S, or O) that may be acid/base labile, releasing an aldehyde.

$$$$
