4lbu_ligand
                    3D
 Schrodinger Suite 2020-3.
 53 56  0  0  1  0            999 V2000
    9.6320   17.5660   91.6710 C   0  0  0  0  0  0
   10.6500   17.9360   90.8110 C   0  0  0  0  0  0
   10.3640   17.8290   89.4590 C   0  0  0  0  0  0
    9.1620   17.3220   88.9710 C   0  0  0  0  0  0
    8.1240   16.8590   89.8190 C   0  0  0  0  0  0
    6.8340   16.2510   89.2430 C   0  0  0  0  0  0
    5.8170   17.1820   88.7430 C   0  0  0  0  0  0
    8.4060   17.0320   91.2160 C   0  0  0  0  0  0
    9.8890   17.7310   93.1390 C   0  0  0  0  0  0
    7.4410   16.6870   92.1500 N   0  0  0  0  0  0
    7.6570   16.8930   93.4470 C   0  0  0  0  0  0
    6.6940   16.5820   94.3270 N   0  0  0  0  0  0
    8.8150   17.4000   93.9200 N   0  3  0  0  0  0
   10.9050   18.1370   93.5940 O   0  0  0  0  0  0
   11.0690   18.1940   88.3240 N   0  0  0  0  0  0
    9.1400   17.3930   87.5940 N   0  3  0  0  0  0
   10.2820   17.9080   87.2430 C   0  0  0  0  0  0
   10.7080   18.2080   85.9710 N   0  0  0  0  0  0
    9.7180   18.3100   84.8970 C   0  0  0  0  0  0
    2.8510   17.2220   86.8980 C   0  0  2  0  0  0
    3.4620   17.8210   85.7700 O   0  0  0  0  0  0
    3.4370   19.2500   85.7650 C   0  0  0  0  0  0
    3.5870   17.5900   88.0760 O   0  0  0  0  0  0
    4.4950   16.5230   88.4210 C   0  0  1  0  0  0
    4.4210   15.5530   87.2630 C   0  0  1  0  0  0
    4.7330   14.2240   87.5820 O   0  0  0  0  0  0
    2.9540   15.7090   86.8290 C   0  0  1  0  0  0
    2.0250   15.1540   87.7600 O   0  0  0  0  0  0
    1.6090   13.8180   87.4930 C   0  0  0  0  0  0
   11.6155   18.2892   91.1733 H   0  0  0  0  0  0
    7.0832   15.6035   88.3894 H   0  0  0  0  0  0
    6.3303   15.6565   90.0194 H   0  0  0  0  0  0
    5.6216   17.9538   89.5020 H   0  0  0  0  0  0
    6.1784   17.6587   87.8199 H   0  0  0  0  0  0
    5.7388   16.1669   93.9731 H   0  0  0  0  0  0
   10.2258   18.5543   83.9523 H   0  0  0  0  0  0
    8.9941   19.1019   85.1396 H   0  0  0  0  0  0
    9.1904   17.3505   84.7923 H   0  0  0  0  0  0
    1.8216   17.6096   86.9115 H   0  0  0  0  0  0
    3.9317   19.6222   84.8557 H   0  0  0  0  0  0
    3.9662   19.6291   86.6517 H   0  0  0  0  0  0
    2.3938   19.5985   85.7837 H   0  0  0  0  0  0
    4.2358   15.9467   89.3214 H   0  0  0  0  0  0
    5.2055   15.7003   86.5061 H   0  0  0  0  0  0
    5.7496   13.9612   87.9098 H   0  0  0  0  0  0
    2.6725   15.1899   85.9009 H   0  0  0  0  0  0
    0.8987   13.4934   88.2676 H   0  0  0  0  0  0
    2.4854   13.1533   87.4975 H   0  0  0  0  0  0
    1.1217   13.7757   86.5077 H   0  0  0  0  0  0
   12.0760   18.6267   88.4174 H   0  0  0  0  0  0
    6.8594   16.7420   95.4027 H   0  0  0  0  0  0
    8.2569   17.0431   87.0393 H   0  0  0  0  0  0
    8.8625   17.5429   95.0096 H   0  0  0  0  0  0
  1  2  1  0  0  0
  1  8  2  0  0  0
  1  9  1  0  0  0
  2  3  2  0  0  0
  2 30  1  0  0  0
  3  4  1  0  0  0
  3 15  1  0  0  0
  4  5  2  0  0  0
  4 16  1  0  0  0
  5  6  1  0  0  0
  5  8  1  0  0  0
  6  7  1  0  0  0
  6 31  1  0  0  0
  6 32  1  0  0  0
  7 24  1  0  0  0
  7 33  1  0  0  0
  7 34  1  0  0  0
  8 10  1  0  0  0
  9 13  1  0  0  0
  9 14  2  0  0  0
 10 11  2  0  0  0
 11 12  1  0  0  0
 11 13  1  0  0  0
 12 35  1  0  0  0
 12 51  1  0  0  0
 13 53  1  0  0  0
 15 17  1  0  0  0
 15 50  1  0  0  0
 16 17  1  0  0  0
 16 52  1  0  0  0
 17 18  2  0  0  0
 18 19  1  0  0  0
 19 36  1  0  0  0
 19 37  1  0  0  0
 19 38  1  0  0  0
 20 21  1  0  0  0
 20 23  1  0  0  0
 20 27  1  0  0  0
 20 39  1  0  0  0
 21 22  1  0  0  0
 22 40  1  0  0  0
 22 41  1  0  0  0
 22 42  1  0  0  0
 23 24  1  0  0  0
 24 25  1  0  0  0
 24 43  1  0  0  0
 25 26  1  0  0  0
 25 27  1  0  0  0
 25 44  1  0  0  0
 26 45  1  0  0  0
 27 28  1  0  0  0
 27 46  1  0  0  0
 28 29  1  0  0  0
 29 47  1  0  0  0
 29 48  1  0  0  0
 29 49  1  0  0  0
M  CHG  2  13   1  16   1
M  END
> <s_m_source_file>
../4lbu_ligand.sdf

> <i_m_source_file_index>
1

> <s_epik_input>
Tz1jMVtuSF1jKD1OL1tIXSlcW25IXWMoYzEyKWMoYzNjKFtjSF0yKW5jKFtuSF0zKVtOSF1bQ0gzXSlbQ0gyXVtDSDJdW0NAQEhdKE9bQ0BIXTRPW0NIM10pW0NAQEhdKFtPSF0pW0NASF00T1tDSDNd

> <s_epik_cmdline>
J2VwaWtfYXBwJywgJy1pbWFlJywgJ2xpZ2FuZF9wcm8ubWFlJywgJy1vbWFlJywgJ2xpZ2FuZF9wcmVwLm1hZScsICctbXMnLCAnMScsICctcGgnLCAnNycsICctcGh0JywgJzAuNScsICctbnQn

> <r_lp_tautomer_probability>
1

> <r_epik_Ionization_Penalty>
  0.0054

> <r_epik_Ionization_Penalty_Charging>
  0.0054

> <r_epik_Ionization_Penalty_Neutral>
  0.0000

> <r_epik_State_Penalty>
 -0.0000

> <r_epik_Charging_Adjusted_Penalty>
0.00540733814450251

> <i_epik_Tot_Q>
2

> <i_epik_Tot_abs_Q>
2

> <s_epik_Chemistry_Notes>
This compound has an imine and may undergo hydrolysis. This compound contains an acetal/aminal-like group ( X-CH(R)-Y where X, Y are N, S, or O) that may be acid/base labile, releasing an aldehyde.

$$$$
