4lc7_ligand
                    3D
 Schrodinger Suite 2020-3.
 42 45  0  0  1  0            999 V2000
   23.3990   14.3510    8.6590 C   0  0  2  0  0  0
   23.0810   15.4640    7.6210 C   0  0  1  0  0  0
   22.3370   14.9530    6.3690 C   0  0  0  0  0  0
   21.1360   14.0350    6.6780 C   0  0  0  0  0  0
   21.2390   13.1570    7.9510 C   0  0  0  0  0  0
   22.6990   12.9840    8.4510 C   0  0  0  0  0  0
   22.8160   14.8570    9.8820 N   0  3  0  0  0  0
   22.1350   15.9690    9.6210 C   0  0  0  0  0  0
   22.1390   16.3210    8.3110 O   0  0  0  0  0  0
   24.9300   14.2910    8.7900 C   0  0  0  0  0  0
   25.6830   13.1500    8.4120 C   0  0  0  0  0  0
   27.0940   13.1510    8.5290 C   0  0  0  0  0  0
   27.7840   14.2870    9.0150 C   0  0  0  0  0  0
   27.0430   15.4350    9.3970 C   0  0  0  0  0  0
   25.6270   15.4240    9.2770 C   0  0  0  0  0  0
   27.6530   16.6290    9.8410 C   0  0  0  0  0  0
   21.2820   16.5580   10.4490 N   0  0  0  0  0  0
   28.8560   17.0950    9.2500 C   0  0  0  0  0  0
   29.4360   18.2650    9.6100 N   0  0  0  0  0  0
   28.8500   19.0540   10.5340 C   0  0  0  0  0  0
   27.6330   18.6900   11.1560 C   0  0  0  0  0  0
   27.0230   17.4630   10.8020 C   0  0  0  0  0  0
   26.9220   19.7360   12.3100 Cl  0  0  0  0  0  0
   23.9991   15.9788    7.3015 H   0  0  0  0  0  0
   21.9500   15.8095    5.7974 H   0  0  0  0  0  0
   23.0309   14.3760    5.7401 H   0  0  0  0  0  0
   20.2314   14.6467    6.8101 H   0  0  0  0  0  0
   20.9860   13.3340    5.8436 H   0  0  0  0  0  0
   20.6598   13.6200    8.7636 H   0  0  0  0  0  0
   20.8372   12.1552    7.7390 H   0  0  0  0  0  0
   23.2539   12.3979    7.7036 H   0  0  0  0  0  0
   22.6760   12.4351    9.4040 H   0  0  0  0  0  0
   22.8627   14.4692   10.9103 H   0  0  0  0  0  0
   25.1721   12.2666    8.0289 H   0  0  0  0  0  0
   27.6572   12.2635    8.2404 H   0  0  0  0  0  0
   28.8711   14.2801    9.0948 H   0  0  0  0  0  0
   25.0627   16.3102    9.5672 H   0  0  0  0  0  0
   21.2689   16.2813   11.5136 H   0  0  0  0  0  0
   29.3307   16.4893    8.4781 H   0  0  0  0  0  0
   29.3262   19.9954   10.8081 H   0  0  0  0  0  0
   26.0814   17.1620   11.2613 H   0  0  0  0  0  0
   20.5879   17.3230   10.0710 H   0  0  0  0  0  0
  1  2  1  0  0  0
  1  6  1  0  0  0
  1  7  1  0  0  0
  1 10  1  0  0  0
  2  3  1  0  0  0
  2  9  1  0  0  0
  2 24  1  0  0  0
  3  4  1  0  0  0
  3 25  1  0  0  0
  3 26  1  0  0  0
  4  5  1  0  0  0
  4 27  1  0  0  0
  4 28  1  0  0  0
  5  6  1  0  0  0
  5 29  1  0  0  0
  5 30  1  0  0  0
  6 31  1  0  0  0
  6 32  1  0  0  0
  7  8  2  0  0  0
  7 33  1  0  0  0
  8  9  1  0  0  0
  8 17  1  0  0  0
 10 11  2  0  0  0
 10 15  1  0  0  0
 11 12  1  0  0  0
 11 34  1  0  0  0
 12 13  2  0  0  0
 12 35  1  0  0  0
 13 14  1  0  0  0
 13 36  1  0  0  0
 14 15  2  0  0  0
 14 16  1  0  0  0
 15 37  1  0  0  0
 16 18  2  0  0  0
 16 22  1  0  0  0
 17 38  1  0  0  0
 17 42  1  0  0  0
 18 19  1  0  0  0
 18 39  1  0  0  0
 19 20  2  0  0  0
 20 21  1  0  0  0
 20 40  1  0  0  0
 21 22  2  0  0  0
 21 23  1  0  0  0
 22 41  1  0  0  0
M  CHG  1   7   1
M  END
> <s_m_source_file>
../4lc7_ligand.sdf

> <i_m_source_file_index>
1

> <s_epik_input>
W0NIMl0xW0NIMl1bQ0gyXVtDSDJdW0NAQEhdKE9DKFxbTkhdMik9Ti9bSF0pW0NAXTEyYzNbY0hdW2NIXVtjSF1jKFtjSF0zKS1jNFtjSF1uW2NIXWMoQ2wpW2NIXTQ=

> <s_epik_cmdline>
J2VwaWtfYXBwJywgJy1pbWFlJywgJ2xpZ2FuZF9wcm8ubWFlJywgJy1vbWFlJywgJ2xpZ2FuZF9wcmVwLm1hZScsICctbXMnLCAnMScsICctcGgnLCAnNycsICctcGh0JywgJzAuNScsICctbnQn

> <r_epik_Ionization_Penalty>
  0.0174

> <r_epik_Ionization_Penalty_Charging>
  0.0108

> <r_epik_Ionization_Penalty_Neutral>
  0.0065

> <r_epik_State_Penalty>
  0.0238

> <r_epik_Charging_Adjusted_Penalty>
0.0346039432034898

> <i_epik_Tot_Q>
1

> <i_epik_Tot_abs_Q>
1

> <s_epik_Chemistry_Notes>
This compound has an imine and may undergo hydrolysis.

$$$$
