4led_ligand
                    3D
 Schrodinger Suite 2020-3.
 23 23  0  0  1  0            999 V2000
   13.7420   40.1470   -1.2480 O   0  0  0  0  0  0
   12.6410   39.2580   -1.1550 C   0  0  2  0  0  0
   12.6940   38.3170   -2.3600 C   0  0  1  0  0  0
   13.8890   37.3730   -2.2850 C   0  0  0  0  0  0
   11.3320   40.0300   -1.1170 C   0  0  2  0  0  0
   11.2870   41.0300   -0.0670 O   0  0  0  0  0  0
   10.1980   38.9980   -1.0520 C   0  0  2  0  0  0
   10.1920   38.2180    0.1500 O   0  0  0  0  0  0
   10.3240   38.0780   -2.2790 C   0  0  2  0  0  0
   11.5870   37.4550   -2.3980 O   0  0  0  0  0  0
   10.2790   38.8100   -3.4970 O   0  0  0  0  0  0
   14.7674   39.7505   -1.2860 H   0  0  0  0  0  0
   12.7578   38.7153   -0.2053 H   0  0  0  0  0  0
   12.6686   38.9455   -3.2624 H   0  0  0  0  0  0
   14.8185   37.9602   -2.2506 H   0  0  0  0  0  0
   13.8987   36.7226   -3.1721 H   0  0  0  0  0  0
   13.8118   36.7552   -1.3782 H   0  0  0  0  0  0
   11.2261   40.6850   -1.9944 H   0  0  0  0  0  0
   12.0550   41.8163   -0.0231 H   0  0  0  0  0  0
    9.2291   39.5141   -0.9825 H   0  0  0  0  0  0
   10.1081   38.7150    1.1277 H   0  0  0  0  0  0
    9.5256   37.3256   -2.1986 H   0  0  0  0  0  0
    9.4013   39.4290   -3.7346 H   0  0  0  0  0  0
  1  2  1  0  0  0
  1 12  1  0  0  0
  2  3  1  0  0  0
  2  5  1  0  0  0
  2 13  1  0  0  0
  3  4  1  0  0  0
  3 10  1  0  0  0
  3 14  1  0  0  0
  4 15  1  0  0  0
  4 16  1  0  0  0
  4 17  1  0  0  0
  5  6  1  0  0  0
  5  7  1  0  0  0
  5 18  1  0  0  0
  6 19  1  0  0  0
  7  8  1  0  0  0
  7  9  1  0  0  0
  7 20  1  0  0  0
  8 21  1  0  0  0
  9 10  1  0  0  0
  9 11  1  0  0  0
  9 22  1  0  0  0
 11 23  1  0  0  0
M  END
> <s_m_source_file>
../4led_ligand.sdf

> <i_m_source_file_index>
1

> <s_epik_input>
W09IXVtDQEBIXTFbQ0BASF0oW0NIM10pT1tDQEhdKFtPSF0pW0NAQEhdKFtPSF0pW0NASF0xW09IXQ==

> <s_epik_cmdline>
J2VwaWtfYXBwJywgJy1pbWFlJywgJ2xpZ2FuZF9wcm8ubWFlJywgJy1vbWFlJywgJ2xpZ2FuZF9wcmVwLm1hZScsICctbXMnLCAnMScsICctcGgnLCAnNycsICctcGh0JywgJzAuNScsICctbnQn

> <r_lp_tautomer_probability>
1

> <r_epik_Ionization_Penalty>
  0.0000

> <r_epik_Ionization_Penalty_Charging>
  0.0000

> <r_epik_Ionization_Penalty_Neutral>
  0.0000

> <r_epik_State_Penalty>
 -0.0000

> <r_epik_Charging_Adjusted_Penalty>
0

> <i_epik_Tot_Q>
0

> <i_epik_Tot_abs_Q>
0

> <s_epik_Chemistry_Notes>
This compound contains an acetal/aminal-like group ( X-CH(R)-Y where X, Y are N, S, or O) that may be acid/base labile, releasing an aldehyde.

$$$$
