4len_ligand
                    3D
 Schrodinger Suite 2020-3.
 25 26  0  0  1  0            999 V2000
   -8.7320   51.6720   12.1340 C   0  0  0  0  0  0
   -7.5320   50.9340   11.9830 C   0  0  0  0  0  0
   -6.3090   51.4130   12.4420 C   0  0  0  0  0  0
   -7.5110   53.4470   13.2520 C   0  0  0  0  0  0
   -5.5590   54.7170   14.2110 C   0  0  0  0  0  0
   -5.1190   53.4550   13.6920 C   0  0  0  0  0  0
   -4.6260   55.8690   14.8460 B   0  0  0  0  0  0
   -6.3010   52.6980   13.1150 C   0  0  0  0  0  0
   -7.2270   54.9310   14.0290 S   0  0  0  0  0  0
   -8.7350   52.9010   12.7640 C   0  0  0  0  0  0
   -3.8080   52.8550   13.6050 C   0  0  0  0  0  0
   -2.8350   53.6110   13.1240 C   0  0  0  0  0  0
   -1.6910   52.7980   12.7460 C   0  0  0  0  0  0
   -3.8560   56.3360   13.6360 O   0  0  0  0  0  0
   -5.5380   56.9450   15.4730 O   0  0  0  0  0  0
   -0.7560   53.3590   12.1320 O   0  0  0  0  0  0
   -1.7330   51.5500   12.9160 O   0  5  0  0  0  0
   -9.6660   51.2640   11.7475 H   0  0  0  0  0  0
   -7.5680   49.9614   11.4923 H   0  0  0  0  0  0
   -5.3904   50.8435   12.3010 H   0  0  0  0  0  0
   -9.6680   53.4509   12.8877 H   0  0  0  0  0  0
   -3.5984   51.8210   13.9163 H   0  0  0  0  0  0
   -2.9670   54.7010   13.0578 H   0  0  0  0  0  0
   -3.1773   55.6444   13.1154 H   0  0  0  0  0  0
   -6.1423   56.7048   16.3602 H   0  0  0  0  0  0
  1  2  2  0  0  0
  1 10  1  0  0  0
  1 18  1  0  0  0
  2  3  1  0  0  0
  2 19  1  0  0  0
  3  8  2  0  0  0
  3 20  1  0  0  0
  4  8  1  0  0  0
  4  9  1  0  0  0
  4 10  2  0  0  0
  5  6  2  0  0  0
  5  7  1  0  0  0
  5  9  1  0  0  0
  6  8  1  0  0  0
  6 11  1  0  0  0
  7 14  1  0  0  0
  7 15  1  0  0  0
 10 21  1  0  0  0
 11 12  2  0  0  0
 11 22  1  0  0  0
 12 13  1  0  0  0
 12 23  1  0  0  0
 13 16  2  0  0  0
 13 17  1  0  0  0
 14 24  1  0  0  0
 15 25  1  0  0  0
M  CHG  1  17  -1
M  END
> <s_m_source_file>
../4len_ligand.sdf

> <i_m_source_file_index>
1

> <s_epik_input>
W2NIXTFbY0hdW2NIXVtjSF1jKGMxMiljKGMoczIpQihbT0hdKVtPSF0pL1tDSF09W0NIXS9DKD1PKVtPSF0=

> <s_epik_cmdline>
J2VwaWtfYXBwJywgJy1pbWFlJywgJ2xpZ2FuZF9wcm8ubWFlJywgJy1vbWFlJywgJ2xpZ2FuZF9wcmVwLm1hZScsICctbXMnLCAnMScsICctcGgnLCAnNycsICctcGh0JywgJzAuNScsICctbnQn

> <r_lp_tautomer_probability>
1

> <r_epik_Ionization_Penalty>
  0.0013

> <r_epik_Ionization_Penalty_Charging>
  0.0013

> <r_epik_Ionization_Penalty_Neutral>
  0.0000

> <r_epik_State_Penalty>
 -0.0000

> <r_epik_Charging_Adjusted_Penalty>
0.00127705556654918

> <i_epik_Tot_Q>
-1

> <i_epik_Tot_abs_Q>
1

> <s_epik_Chemistry_Notes>
This compound contains a Lewis acid (boronic acid) which adds nucleophiles to form tetrahedral complexes, lowering the experimental pKa

$$$$
