4leq_ligand
                    3D
 Schrodinger Suite 2020-3.
 50 53  0  0  1  0            999 V2000
    9.7800   17.4240   91.3360 C   0  0  0  0  0  0
   10.7740   17.8030   90.4290 C   0  0  0  0  0  0
   10.4870   17.6710   89.0720 C   0  0  0  0  0  0
    9.2600   17.1740   88.6510 C   0  0  0  0  0  0
    8.2410   16.7850   89.5190 C   0  0  0  0  0  0
    6.9440   16.2070   88.9960 C   0  0  0  0  0  0
    5.9840   17.1910   88.3900 C   0  0  0  0  0  0
    8.5390   16.9130   90.9090 C   0  0  0  0  0  0
   10.0170   17.5470   92.7890 C   0  0  0  0  0  0
    7.5610   16.5420   91.8490 N   0  0  0  0  0  0
    7.7890   16.6740   93.1150 C   0  0  0  0  0  0
    6.8480   16.3470   94.0260 N   0  0  0  0  0  0
    8.9740   17.1680   93.5950 N   0  3  0  0  0  0
   11.0750   17.9550   93.2570 O   0  0  0  0  0  0
   11.2640   18.0030   88.0000 N   0  0  0  0  0  0
    9.3230   17.2130   87.2820 N   0  3  0  0  0  0
   10.5550   17.7080   86.9350 C   0  0  0  0  0  0
   10.9200   17.8890   85.6590 N   0  0  0  0  0  0
    9.9580   18.0490   84.5880 C   0  0  0  0  0  0
    3.3480   15.9630   86.1810 C   0  0  2  0  0  0
    2.3290   15.2420   86.8450 O   0  0  0  0  0  0
    4.7210   15.6650   86.7680 C   0  0  2  0  0  0
    4.8030   14.2650   87.1060 O   0  0  0  0  0  0
    4.6600   16.5240   88.0360 C   0  0  2  0  0  0
    3.7750   17.6300   87.7420 O   0  0  0  0  0  0
    3.2600   17.4750   86.4180 C   0  0  1  0  0  0
    4.1340   18.1730   85.5180 O   0  0  0  0  0  0
    4.0690   19.5940   85.6890 C   0  0  0  0  0  0
   11.7356   18.1866   90.7700 H   0  0  0  0  0  0
    7.1621   15.4685   88.2105 H   0  0  0  0  0  0
    6.4023   15.7178   89.8190 H   0  0  0  0  0  0
    5.7876   18.0011   89.1077 H   0  0  0  0  0  0
    6.4209   17.6120   87.4724 H   0  0  0  0  0  0
    5.8785   15.9460   93.6956 H   0  0  0  0  0  0
   10.4898   18.1826   83.6344 H   0  0  0  0  0  0
    9.3325   18.9319   84.7859 H   0  0  0  0  0  0
    9.3212   17.1539   84.5304 H   0  0  0  0  0  0
    3.1640   15.6219   85.1515 H   0  0  0  0  0  0
    2.2819   14.1467   86.7545 H   0  0  0  0  0  0
    5.5905   15.8213   86.1126 H   0  0  0  0  0  0
    4.8544   13.5088   86.3088 H   0  0  0  0  0  0
    4.3152   15.8937   88.8690 H   0  0  0  0  0  0
    2.2621   17.9202   86.2917 H   0  0  0  0  0  0
    4.7542   20.0804   84.9791 H   0  0  0  0  0  0
    4.3615   19.8533   86.7172 H   0  0  0  0  0  0
    3.0415   19.9392   85.5019 H   0  0  0  0  0  0
   12.2672   18.4257   88.1577 H   0  0  0  0  0  0
    7.0508   16.4816   95.0987 H   0  0  0  0  0  0
    8.4645   16.8766   86.6821 H   0  0  0  0  0  0
    9.0642   17.2536   94.6879 H   0  0  0  0  0  0
  1  2  1  0  0  0
  1  8  2  0  0  0
  1  9  1  0  0  0
  2  3  2  0  0  0
  2 29  1  0  0  0
  3  4  1  0  0  0
  3 15  1  0  0  0
  4  5  2  0  0  0
  4 16  1  0  0  0
  5  6  1  0  0  0
  5  8  1  0  0  0
  6  7  1  0  0  0
  6 30  1  0  0  0
  6 31  1  0  0  0
  7 24  1  0  0  0
  7 32  1  0  0  0
  7 33  1  0  0  0
  8 10  1  0  0  0
  9 13  1  0  0  0
  9 14  2  0  0  0
 10 11  2  0  0  0
 11 12  1  0  0  0
 11 13  1  0  0  0
 12 34  1  0  0  0
 12 48  1  0  0  0
 13 50  1  0  0  0
 15 17  1  0  0  0
 15 47  1  0  0  0
 16 17  1  0  0  0
 16 49  1  0  0  0
 17 18  2  0  0  0
 18 19  1  0  0  0
 19 35  1  0  0  0
 19 36  1  0  0  0
 19 37  1  0  0  0
 20 21  1  0  0  0
 20 22  1  0  0  0
 20 26  1  0  0  0
 20 38  1  0  0  0
 21 39  1  0  0  0
 22 23  1  0  0  0
 22 24  1  0  0  0
 22 40  1  0  0  0
 23 41  1  0  0  0
 24 25  1  0  0  0
 24 42  1  0  0  0
 25 26  1  0  0  0
 26 27  1  0  0  0
 26 43  1  0  0  0
 27 28  1  0  0  0
 28 44  1  0  0  0
 28 45  1  0  0  0
 28 46  1  0  0  0
M  CHG  2  13   1  16   1
M  END
> <s_m_source_file>
../4leq_ligand.sdf

> <i_m_source_file_index>
1

> <s_epik_input>
Tz1jMVtuSF1jKD1OL1tIXSlcW25IXWMoYzEyKWMoYzNjKFtjSF0yKW5jKFtuSF0zKVtOSF1bQ0gzXSlbQ0gyXVtDSDJdW0NASF0oW0NAQEhdKFtPSF0pW0NASF00W09IXSlPW0NASF00T1tDSDNd

> <s_epik_cmdline>
J2VwaWtfYXBwJywgJy1pbWFlJywgJ2xpZ2FuZF9wcm8ubWFlJywgJy1vbWFlJywgJ2xpZ2FuZF9wcmVwLm1hZScsICctbXMnLCAnMScsICctcGgnLCAnNycsICctcGh0JywgJzAuNScsICctbnQn

> <r_lp_tautomer_probability>
1

> <r_epik_Ionization_Penalty>
  0.0054

> <r_epik_Ionization_Penalty_Charging>
  0.0054

> <r_epik_Ionization_Penalty_Neutral>
  0.0000

> <r_epik_State_Penalty>
 -0.0000

> <r_epik_Charging_Adjusted_Penalty>
0.00540733814450251

> <i_epik_Tot_Q>
2

> <i_epik_Tot_abs_Q>
2

> <s_epik_Chemistry_Notes>
This compound has an imine and may undergo hydrolysis. This compound contains an acetal/aminal-like group ( X-CH(R)-Y where X, Y are N, S, or O) that may be acid/base labile, releasing an aldehyde.

$$$$
