4lg6_ligand
                    3D
 Schrodinger Suite 2020-3.
191194  0  0  1  0            999 V2000
   26.6390   -2.2310   12.7540 N   0  3  0  0  0  0
   25.8800   -1.1240   12.0860 C   0  0  2  0  0  0
   24.6750   -0.7060   12.9380 C   0  0  0  0  0  0
   24.1440   -1.5020   13.7520 O   0  0  0  0  0  0
   25.4100   -1.5650   10.6780 C   0  0  0  0  0  0
   24.2380    0.5400   12.7720 N   0  0  0  0  0  0
   22.8830    0.8790   13.1980 C   0  0  2  0  0  0
   22.0020   -0.1210   12.4520 C   0  0  0  0  0  0
   22.2820   -0.4500   11.2780 O   0  0  0  0  0  0
   22.4770    2.3200   12.8430 C   0  0  2  0  0  0
   23.5240    3.2060   13.2350 O   0  0  0  0  0  0
   21.1700    2.7320   13.5720 C   0  0  0  0  0  0
   20.9680   -0.6610   13.1250 N   0  0  0  0  0  0
   20.0940   -1.4700   12.2910 C   0  0  2  0  0  0
   19.5140   -0.6060   11.1310 C   0  0  0  0  0  0
   19.3510    0.6100   11.2690 O   0  0  0  0  0  0
   19.0220   -1.9840   13.2610 C   0  0  0  0  0  0
   19.2550   -1.3240   14.5600 C   0  0  0  0  0  0
   20.5800   -0.6350   14.5440 C   0  0  0  0  0  0
   19.2830   -1.2130    9.9840 N   0  0  0  0  0  0
   18.7500   -0.4670    8.8500 C   0  0  2  0  0  0
   17.6140   -1.2220    8.2570 C   0  0  0  0  0  0
   17.4640   -2.4090    8.4590 O   0  0  0  0  0  0
   19.8280   -0.0940    7.8010 C   0  0  0  0  0  0
   20.5370   -1.2470    7.1010 C   0  0  0  0  0  0
   21.9710   -0.8670    6.6970 C   0  0  0  0  0  0
   16.7740   -0.5150    7.5490 N   0  0  0  0  0  0
   15.6430   -1.1370    6.9050 C   0  0  2  0  0  0
   16.1040   -1.4640    5.4980 C   0  0  0  0  0  0
   16.9360   -0.7830    4.9660 O   0  0  0  0  0  0
   14.4550   -0.1910    6.9010 C   0  0  0  0  0  0
   13.8580    0.0170    8.2900 C   0  0  0  0  0  0
   13.0220    1.2590    8.3490 C   0  0  0  0  0  0
   13.0370   -1.1830    8.6980 C   0  0  0  0  0  0
   15.5850   -2.5300    4.9110 N   0  0  0  0  0  0
   15.8910   -2.8060    3.4950 C   0  0  2  0  0  0
   15.3700   -1.7480    2.5160 C   0  0  0  0  0  0
   14.3160   -1.1330    2.7380 O   0  0  0  0  0  0
   15.1770   -4.1220    3.2440 C   0  0  0  0  0  0
   14.0790   -4.1760    4.2740 C   0  0  0  0  0  0
   14.6160   -3.4820    5.4790 C   0  0  0  0  0  0
   16.1200   -1.5330    1.4380 N   0  0  0  0  0  0
   15.6940   -0.6970    0.3250 C   0  0  2  0  0  0
   14.5210   -1.3500   -0.3950 C   0  0  0  0  0  0
   14.6120   -2.5100   -0.8270 O   0  0  0  0  0  0
   16.8770   -0.5080   -0.6510 C   0  0  2  0  0  0
   17.9290    0.1320    0.0620 O   0  0  0  0  0  0
   16.4980    0.3520   -1.8160 C   0  0  0  0  0  0
   13.4040   -0.6410   -0.5180 N   0  0  0  0  0  0
   12.2720   -1.1810   -1.2900 C   0  0  2  0  0  0
   12.3490   -0.7770   -2.7910 C   0  0  0  0  0  0
   13.0260    0.2180   -3.1430 O   0  0  0  0  0  0
   10.9390   -0.7060   -0.7010 C   0  0  0  0  0  0
   10.6950   -1.0860    0.7710 C   0  0  0  0  0  0
    9.5050   -0.3010    1.3030 C   0  0  0  0  0  0
   10.4600   -2.5830    0.9130 C   0  0  0  0  0  0
   11.6580   -1.5260   -3.6800 N   0  0  0  0  0  0
   11.6400   -1.1130   -5.0940 C   0  0  2  0  0  0
   11.1820    0.3350   -5.3260 C   0  0  0  0  0  0
   10.2120    0.8020   -4.6730 O   0  0  0  0  0  0
   10.6370   -2.1040   -5.7370 C   0  0  0  0  0  0
   10.7590   -3.3270   -4.8900 C   0  0  0  0  0  0
   10.9540   -2.8130   -3.4720 C   0  0  0  0  0  0
   11.8750    1.0510   -6.2230 N   0  0  0  0  0  0
   11.3870    2.3620   -6.6830 C   0  0  2  0  0  0
   10.3320    2.1900   -7.8060 C   0  0  0  0  0  0
    9.7270    3.1710   -8.2550 O   0  0  0  0  0  0
   12.5420    3.3010   -7.1020 C   0  0  0  0  0  0
   13.1850    4.0560   -5.9300 C   0  0  0  0  0  0
   13.7590    5.4250   -6.3280 C   0  0  0  0  0  0
   10.0870    0.9530   -8.2440 N   0  0  0  0  0  0
    9.0340    0.6860   -9.2160 C   0  0  2  0  0  0
    8.8710   -0.8200   -9.3890 C   0  0  0  0  0  0
    9.8430   -1.5640   -9.3190 O   0  0  0  0  0  0
    9.3440    1.3600  -10.5760 C   0  0  0  0  0  0
    7.6270   -1.2630   -9.5730 N   0  0  0  0  0  0
    7.3330   -2.6290  -10.0600 C   0  0  2  0  0  0
    6.3340   -2.5680  -11.2340 C   0  0  0  0  0  0
    5.6090   -1.5830  -11.3730 O   0  0  0  0  0  0
    6.8020   -3.5570   -8.9400 C   0  0  0  0  0  0
    7.9170   -3.8700   -7.9510 C   0  0  0  0  0  0
    5.5810   -2.9680   -8.2360 C   0  0  0  0  0  0
    6.2900   -3.6210  -12.0790 N   0  0  0  0  0  0
    5.3160   -3.6070  -13.1870 C   0  0  0  0  0  0
    5.7320   -4.8100  -14.0350 C   0  0  0  0  0  0
    6.3940   -5.7430  -13.0780 C   0  0  0  0  0  0
    7.0620   -4.8810  -12.0380 C   0  0  0  0  0  0
   26.9652   -1.9019   13.7516 H   0  0  0  0  0  0
   27.5192   -2.4901   12.1473 H   0  0  0  0  0  0
   25.9894   -3.1131   12.8531 H   0  0  0  0  0  0
   26.5706   -0.2720   12.0016 H   0  0  0  0  0  0
   26.2819   -1.8622   10.0768 H   0  0  0  0  0  0
   24.8928   -0.7284   10.1854 H   0  0  0  0  0  0
   24.7214   -2.4177   10.7717 H   0  0  0  0  0  0
   24.8816    1.3098   12.3212 H   0  0  0  0  0  0
   22.8342    0.8058   14.2945 H   0  0  0  0  0  0
   22.3692    2.4256   11.7534 H   0  0  0  0  0  0
   24.5360    3.0776   12.8235 H   0  0  0  0  0  0
   20.3558    2.0541   13.2761 H   0  0  0  0  0  0
   20.9063    3.7639   13.2968 H   0  0  0  0  0  0
   21.3217    2.6700   14.6597 H   0  0  0  0  0  0
   20.6507   -2.2993   11.8302 H   0  0  0  0  0  0
   18.0244   -1.7313   12.8724 H   0  0  0  0  0  0
   19.1109   -3.0759   13.3607 H   0  0  0  0  0  0
   18.4616   -0.5844   14.7430 H   0  0  0  0  0  0
   19.2456   -2.0777   15.3612 H   0  0  0  0  0  0
   21.3349   -1.1683   15.1404 H   0  0  0  0  0  0
   20.5121    0.4081   14.8865 H   0  0  0  0  0  0
   19.4944   -2.2879    9.8848 H   0  0  0  0  0  0
   18.3557    0.4693    9.2717 H   0  0  0  0  0  0
   19.3683    0.5022    6.9990 H   0  0  0  0  0  0
   20.6227    0.4929    8.2847 H   0  0  0  0  0  0
   20.5846   -2.1130    7.7775 H   0  0  0  0  0  0
   19.9813   -1.5217    6.1923 H   0  0  0  0  0  0
   22.4494   -1.7215    6.1961 H   0  0  0  0  0  0
   22.5464   -0.5995    7.5956 H   0  0  0  0  0  0
   21.9431   -0.0081    6.0103 H   0  0  0  0  0  0
   16.9379    0.5680    7.4472 H   0  0  0  0  0  0
   15.3494   -2.0388    7.4623 H   0  0  0  0  0  0
   14.7703    0.7919    6.5209 H   0  0  0  0  0  0
   13.6643   -0.5981    6.2536 H   0  0  0  0  0  0
   14.6822    0.1461    9.0069 H   0  0  0  0  0  0
   13.6306    2.1251    8.0499 H   0  0  0  0  0  0
   12.6551    1.4056    9.3756 H   0  0  0  0  0  0
   12.1666    1.1581    7.6648 H   0  0  0  0  0  0
   13.6612   -2.0875    8.6507 H   0  0  0  0  0  0
   12.1817   -1.2915    8.0149 H   0  0  0  0  0  0
   12.6701   -1.0440    9.7257 H   0  0  0  0  0  0
   16.9830   -2.8188    3.3632 H   0  0  0  0  0  0
   14.7732   -4.1307    2.2208 H   0  0  0  0  0  0
   15.8871   -4.9533    3.3651 H   0  0  0  0  0  0
   13.1858   -3.6653    3.8849 H   0  0  0  0  0  0
   13.8344   -5.2255    4.4945 H   0  0  0  0  0  0
   15.1348   -4.1678    6.1650 H   0  0  0  0  0  0
   13.8397   -2.9305    6.0295 H   0  0  0  0  0  0
   17.1047   -2.0226    1.4127 H   0  0  0  0  0  0
   15.3721    0.2628    0.7554 H   0  0  0  0  0  0
   17.2507   -1.4687   -1.0350 H   0  0  0  0  0  0
   18.3532   -0.3422    0.9593 H   0  0  0  0  0  0
   15.6845   -0.1299   -2.3782 H   0  0  0  0  0  0
   17.3700    0.4839   -2.4734 H   0  0  0  0  0  0
   16.1609    1.3340   -1.4525 H   0  0  0  0  0  0
   13.3243    0.3484   -0.0439 H   0  0  0  0  0  0
   12.3673   -2.2716   -1.1824 H   0  0  0  0  0  0
   10.8859    0.3915   -0.7521 H   0  0  0  0  0  0
   10.1083   -1.1404   -1.2765 H   0  0  0  0  0  0
   11.5827   -0.8365    1.3708 H   0  0  0  0  0  0
    9.6965    0.7763    1.1905 H   0  0  0  0  0  0
    9.3556   -0.5377    2.3668 H   0  0  0  0  0  0
    8.6026   -0.5742    0.7363 H   0  0  0  0  0  0
   11.3313   -3.1295    0.5229 H   0  0  0  0  0  0
    9.5630   -2.8689    0.3441 H   0  0  0  0  0  0
   10.3159   -2.8324    1.9746 H   0  0  0  0  0  0
   12.6700   -1.1444   -5.4787 H   0  0  0  0  0  0
    9.6252   -1.6736   -5.7057 H   0  0  0  0  0  0
   10.9242   -2.2898   -6.7825 H   0  0  0  0  0  0
    9.8420   -3.9279   -4.9794 H   0  0  0  0  0  0
   11.6212   -3.9215   -5.2264 H   0  0  0  0  0  0
   11.5815   -3.4798   -2.8624 H   0  0  0  0  0  0
   10.0015   -2.6302   -2.9531 H   0  0  0  0  0  0
   12.8197    0.6470   -6.6159 H   0  0  0  0  0  0
   10.9066    2.8065   -5.7989 H   0  0  0  0  0  0
   13.3358    2.7127   -7.5854 H   0  0  0  0  0  0
   12.1636    4.0555   -7.8074 H   0  0  0  0  0  0
   12.4315    4.2284   -5.1474 H   0  0  0  0  0  0
   14.0114    3.4583   -5.5180 H   0  0  0  0  0  0
   14.2017    5.9079   -5.4444 H   0  0  0  0  0  0
   12.9531    6.0585   -6.7269 H   0  0  0  0  0  0
   14.5330    5.2883   -7.0976 H   0  0  0  0  0  0
   10.6996    0.1260   -7.8557 H   0  0  0  0  0  0
    8.1174    1.1176   -8.7875 H   0  0  0  0  0  0
    9.4579    2.4443  -10.4303 H   0  0  0  0  0  0
    8.5178    1.1689  -11.2767 H   0  0  0  0  0  0
   10.2764    0.9453  -10.9866 H   0  0  0  0  0  0
    6.8029   -0.5700   -9.3480 H   0  0  0  0  0  0
    8.3031   -3.0207  -10.3999 H   0  0  0  0  0  0
    6.4680   -4.5033   -9.3904 H   0  0  0  0  0  0
    8.7781   -4.2913   -8.4905 H   0  0  0  0  0  0
    7.5562   -4.5987   -7.2102 H   0  0  0  0  0  0
    8.2221   -2.9460   -7.4380 H   0  0  0  0  0  0
    4.7975   -2.7545   -8.9780 H   0  0  0  0  0  0
    5.8661   -2.0363   -7.7254 H   0  0  0  0  0  0
    5.2002   -3.6890   -7.4977 H   0  0  0  0  0  0
    4.2984   -3.7096  -12.7820 H   0  0  0  0  0  0
    5.3982   -2.6571  -13.7355 H   0  0  0  0  0  0
    4.8397   -5.2621  -14.4927 H   0  0  0  0  0  0
    6.4224   -4.4803  -14.8254 H   0  0  0  0  0  0
    5.6371   -6.3972  -12.6208 H   0  0  0  0  0  0
    7.1324   -6.3563  -13.6152 H   0  0  0  0  0  0
    8.1146   -4.6742  -12.2814 H   0  0  0  0  0  0
    6.9977   -5.3178  -11.0305 H   0  0  0  0  0  0
  1  2  1  0  0  0
  1 88  1  0  0  0
  1 89  1  0  0  0
  1 90  1  0  0  0
  2  3  1  0  0  0
  2  5  1  0  0  0
  2 91  1  0  0  0
  3  4  2  0  0  0
  3  6  1  0  0  0
  5 92  1  0  0  0
  5 93  1  0  0  0
  5 94  1  0  0  0
  6  7  1  0  0  0
  6 95  1  0  0  0
  7  8  1  0  0  0
  7 10  1  0  0  0
  7 96  1  0  0  0
  8  9  2  0  0  0
  8 13  1  0  0  0
 10 11  1  0  0  0
 10 12  1  0  0  0
 10 97  1  0  0  0
 11 98  1  0  0  0
 12 99  1  0  0  0
 12100  1  0  0  0
 12101  1  0  0  0
 13 14  1  0  0  0
 13 19  1  0  0  0
 14 15  1  0  0  0
 14 17  1  0  0  0
 14102  1  0  0  0
 15 16  2  0  0  0
 15 20  1  0  0  0
 17 18  1  0  0  0
 17103  1  0  0  0
 17104  1  0  0  0
 18 19  1  0  0  0
 18105  1  0  0  0
 18106  1  0  0  0
 19107  1  0  0  0
 19108  1  0  0  0
 20 21  1  0  0  0
 20109  1  0  0  0
 21 22  1  0  0  0
 21 24  1  0  0  0
 21110  1  0  0  0
 22 23  2  0  0  0
 22 27  1  0  0  0
 24 25  1  0  0  0
 24111  1  0  0  0
 24112  1  0  0  0
 25 26  1  0  0  0
 25113  1  0  0  0
 25114  1  0  0  0
 26115  1  0  0  0
 26116  1  0  0  0
 26117  1  0  0  0
 27 28  1  0  0  0
 27118  1  0  0  0
 28 29  1  0  0  0
 28 31  1  0  0  0
 28119  1  0  0  0
 29 30  2  0  0  0
 29 35  1  0  0  0
 31 32  1  0  0  0
 31120  1  0  0  0
 31121  1  0  0  0
 32 33  1  0  0  0
 32 34  1  0  0  0
 32122  1  0  0  0
 33123  1  0  0  0
 33124  1  0  0  0
 33125  1  0  0  0
 34126  1  0  0  0
 34127  1  0  0  0
 34128  1  0  0  0
 35 36  1  0  0  0
 35 41  1  0  0  0
 36 37  1  0  0  0
 36 39  1  0  0  0
 36129  1  0  0  0
 37 38  2  0  0  0
 37 42  1  0  0  0
 39 40  1  0  0  0
 39130  1  0  0  0
 39131  1  0  0  0
 40 41  1  0  0  0
 40132  1  0  0  0
 40133  1  0  0  0
 41134  1  0  0  0
 41135  1  0  0  0
 42 43  1  0  0  0
 42136  1  0  0  0
 43 44  1  0  0  0
 43 46  1  0  0  0
 43137  1  0  0  0
 44 45  2  0  0  0
 44 49  1  0  0  0
 46 47  1  0  0  0
 46 48  1  0  0  0
 46138  1  0  0  0
 47139  1  0  0  0
 48140  1  0  0  0
 48141  1  0  0  0
 48142  1  0  0  0
 49 50  1  0  0  0
 49143  1  0  0  0
 50 51  1  0  0  0
 50 53  1  0  0  0
 50144  1  0  0  0
 51 52  2  0  0  0
 51 57  1  0  0  0
 53 54  1  0  0  0
 53145  1  0  0  0
 53146  1  0  0  0
 54 55  1  0  0  0
 54 56  1  0  0  0
 54147  1  0  0  0
 55148  1  0  0  0
 55149  1  0  0  0
 55150  1  0  0  0
 56151  1  0  0  0
 56152  1  0  0  0
 56153  1  0  0  0
 57 58  1  0  0  0
 57 63  1  0  0  0
 58 59  1  0  0  0
 58 61  1  0  0  0
 58154  1  0  0  0
 59 60  2  0  0  0
 59 64  1  0  0  0
 61 62  1  0  0  0
 61155  1  0  0  0
 61156  1  0  0  0
 62 63  1  0  0  0
 62157  1  0  0  0
 62158  1  0  0  0
 63159  1  0  0  0
 63160  1  0  0  0
 64 65  1  0  0  0
 64161  1  0  0  0
 65 66  1  0  0  0
 65 68  1  0  0  0
 65162  1  0  0  0
 66 67  2  0  0  0
 66 71  1  0  0  0
 68 69  1  0  0  0
 68163  1  0  0  0
 68164  1  0  0  0
 69 70  1  0  0  0
 69165  1  0  0  0
 69166  1  0  0  0
 70167  1  0  0  0
 70168  1  0  0  0
 70169  1  0  0  0
 71 72  1  0  0  0
 71170  1  0  0  0
 72 73  1  0  0  0
 72 75  1  0  0  0
 72171  1  0  0  0
 73 74  2  0  0  0
 73 76  1  0  0  0
 75172  1  0  0  0
 75173  1  0  0  0
 75174  1  0  0  0
 76 77  1  0  0  0
 76175  1  0  0  0
 77 78  1  0  0  0
 77 80  1  0  0  0
 77176  1  0  0  0
 78 79  2  0  0  0
 78 83  1  0  0  0
 80 81  1  0  0  0
 80 82  1  0  0  0
 80177  1  0  0  0
 81178  1  0  0  0
 81179  1  0  0  0
 81180  1  0  0  0
 82181  1  0  0  0
 82182  1  0  0  0
 82183  1  0  0  0
 83 84  1  0  0  0
 83 87  1  0  0  0
 84 85  1  0  0  0
 84184  1  0  0  0
 84185  1  0  0  0
 85 86  1  0  0  0
 85186  1  0  0  0
 85187  1  0  0  0
 86 87  1  0  0  0
 86188  1  0  0  0
 86189  1  0  0  0
 87190  1  0  0  0
 87191  1  0  0  0
M  CHG  1   1   1
M  END
> <s_m_source_file>
../4lg6_ligand.sdf

> <i_m_source_file_index>
1

> <s_epik_input>
W05IMytdW0NAQEhdKFtDSDNdKUMoPU8pW05IXVtDQEBIXShbQ0BIXShbT0hdKVtDSDNdKUMoPU8pTjFbQ0BASF0oW0NIMl1bQ0gyXVtDSDJdMSlDKD1PKVtOSF1bQ0BASF0oW0NIMl1bQ0gyXVtDSDNdKUMoPU8pW05IXVtDQEBIXShbQ0gyXVtDSF0oW0NIM10pW0NIM10pQyg9TylOMltDQEBIXShbQ0gyXVtDSDJdW0NIMl0yKUMoPU8pW05IXVtDQEBIXShbQ0BIXShbT0hdKVtDSDNdKUMoPU8pW05IXVtDQEBIXShbQ0gyXVtDSF0oW0NIM10pW0NIM10pQyg9TylOM1tDQEBIXShbQ0gyXVtDSDJdW0NIMl0zKUMoPU8pW05IXVtDQEBIXShbQ0gyXVtDSDJdW0NIM10pQyg9TylbTkhdW0NAQEhdKFtDSDNdKUMoPU8pW05IXVtDQEBIXShbQ0hdKFtDSDNdKVtDSDNdKUMoPU8pTjRbQ0gyXVtDSDJdW0NIMl1bQ0gyXTQ=

> <s_epik_cmdline>
J2VwaWtfYXBwJywgJy1pbWFlJywgJ2xpZ2FuZF9wcm8ubWFlJywgJy1vbWFlJywgJ2xpZ2FuZF9wcmVwLm1hZScsICctbXMnLCAnMScsICctcGgnLCAnNycsICctcGh0JywgJzAuNScsICctbnQn

> <s_epik_pKa_notes>
Molecule size exceeds maximum supported for generating protonation states

$$$$
