4lge_ligand
                    3D
 Schrodinger Suite 2020-3.
 84 89  0  0  1  0            999 V2000
  -22.9550    6.4510  -10.4690 N   0  3  0  0  0  0
  -24.4100    6.2740  -10.2760 C   0  0  0  0  0  0
  -22.5470    7.8260  -10.8130 C   0  0  1  0  0  0
  -21.0270    7.9660  -10.7110 C   0  0  0  0  0  0
  -23.0080    8.2050  -12.1940 C   0  0  0  0  0  0
  -23.3220    7.3350  -13.0110 O   0  0  0  0  0  0
  -23.1200    9.4980  -12.4800 N   0  0  0  0  0  0
  -23.5710   10.0070  -13.7700 C   0  0  2  0  0  0
  -22.4850   10.9380  -14.2890 C   0  0  0  0  0  0
  -21.6390   11.3820  -13.4960 O   0  0  0  0  0  0
  -24.9300   10.7830  -13.6850 C   0  0  0  0  0  0
  -24.7290   12.0800  -12.8630 C   0  0  0  0  0  0
  -26.0880   12.8050  -12.7130 C   0  0  0  0  0  0
  -27.0950   11.8730  -12.0350 C   0  0  0  0  0  0
  -27.3330   10.6180  -12.9040 C   0  0  0  0  0  0
  -26.0090    9.8440  -13.1070 C   0  0  0  0  0  0
  -22.3650   11.2430  -15.5970 N   0  0  0  0  0  0
  -23.3800   10.8100  -16.6310 C   0  0  0  0  0  0
  -22.7180   10.6150  -17.9860 C   0  0  1  0  0  0
  -23.7150   10.4300  -19.1580 C   0  0  0  0  0  0
  -22.8550   10.9130  -20.3590 C   0  0  2  0  0  0
  -21.3900   10.4540  -20.4350 C   0  0  0  0  0  0
  -21.7460   11.8190  -19.7730 C   0  0  2  0  0  0
  -22.0310   11.8950  -18.3400 N   0  3  2  0  0  0
  -20.8640   12.0610  -17.4770 C   0  0  0  0  0  0
  -21.3240   12.2010  -16.0050 C   0  0  1  0  0  0
  -21.8180   13.5900  -15.6900 C   0  0  0  0  0  0
  -23.0180   13.8200  -15.5150 O   0  0  0  0  0  0
  -20.8630   14.5200  -15.5810 N   0  0  0  0  0  0
  -21.1440   15.9110  -15.2080 C   0  0  2  0  0  0
  -21.5570   16.6710  -16.4840 C   0  0  0  0  0  0
  -20.3270   17.2330  -17.2200 C   0  0  0  0  0  0
  -19.5700   18.0640  -16.3050 O   0  0  0  0  0  0
  -19.2220   17.5340  -15.0870 C   0  0  0  0  0  0
  -18.1020   18.0540  -14.4150 C   0  0  0  0  0  0
  -17.7120   17.5380  -13.1780 C   0  0  0  0  0  0
  -18.3980   16.4900  -12.6100 C   0  0  0  0  0  0
  -19.5030   15.9840  -13.2730 C   0  0  0  0  0  0
  -19.9220   16.4970  -14.5040 C   0  0  0  0  0  0
  -22.4269    6.1829   -9.5421 H   0  0  0  0  0  0
  -22.6119    5.8011  -11.2875 H   0  0  0  0  0  0
  -24.6214    5.2243  -10.0240 H   0  0  0  0  0  0
  -24.9381    6.5421  -11.2029 H   0  0  0  0  0  0
  -24.7530    6.9239   -9.4575 H   0  0  0  0  0  0
  -23.0495    8.4868  -10.0913 H   0  0  0  0  0  0
  -20.7002    7.6868   -9.6984 H   0  0  0  0  0  0
  -20.7403    9.0083  -10.9145 H   0  0  0  0  0  0
  -20.5476    7.3035  -11.4467 H   0  0  0  0  0  0
  -22.8494   10.1987  -11.6764 H   0  0  0  0  0  0
  -23.7030    9.1185  -14.4049 H   0  0  0  0  0  0
  -25.2921   11.0977  -14.6749 H   0  0  0  0  0  0
  -24.3349   11.8261  -11.8679 H   0  0  0  0  0  0
  -24.0162   12.7369  -13.3830 H   0  0  0  0  0  0
  -25.9558   13.7085  -12.0997 H   0  0  0  0  0  0
  -26.4641   13.0884  -13.7071 H   0  0  0  0  0  0
  -26.7046   11.5623  -11.0547 H   0  0  0  0  0  0
  -28.0499   12.4018  -11.8986 H   0  0  0  0  0  0
  -28.0601    9.9597  -12.4060 H   0  0  0  0  0  0
  -27.7251   10.9210  -13.8861 H   0  0  0  0  0  0
  -26.1811    9.0104  -13.8038 H   0  0  0  0  0  0
  -25.6699    9.4481  -12.1384 H   0  0  0  0  0  0
  -23.8383    9.8598  -16.3194 H   0  0  0  0  0  0
  -24.1599   11.5801  -16.7242 H   0  0  0  0  0  0
  -22.0597    9.7414  -17.8702 H   0  0  0  0  0  0
  -24.0088    9.3721  -19.2259 H   0  0  0  0  0  0
  -24.6077   11.0478  -18.9810 H   0  0  0  0  0  0
  -23.6334   10.9293  -21.1361 H   0  0  0  0  0  0
  -21.2760    9.5011  -19.8975 H   0  0  0  0  0  0
  -21.1026   10.3176  -21.4880 H   0  0  0  0  0  0
  -21.2771   12.8105  -19.8566 H   0  0  0  0  0  0
  -22.6190   12.8097  -18.1740 H   0  0  0  0  0  0
  -20.2086   11.1829  -17.5737 H   0  0  0  0  0  0
  -20.3126   12.9647  -17.7757 H   0  0  0  0  0  0
  -20.4429   11.9625  -15.3911 H   0  0  0  0  0  0
  -19.8295   14.2033  -15.7850 H   0  0  0  0  0  0
  -21.9747   15.9453  -14.4878 H   0  0  0  0  0  0
  -22.0894   15.9875  -17.1617 H   0  0  0  0  0  0
  -22.2175   17.5083  -16.2145 H   0  0  0  0  0  0
  -19.6991   16.4015  -17.5726 H   0  0  0  0  0  0
  -20.6572   17.8335  -18.0804 H   0  0  0  0  0  0
  -17.5328   18.8678  -14.8642 H   0  0  0  0  0  0
  -16.8567   17.9693  -12.6579 H   0  0  0  0  0  0
  -18.0784   16.0667  -11.6578 H   0  0  0  0  0  0
  -20.0615   15.1633  -12.8229 H   0  0  0  0  0  0
  1  2  1  0  0  0
  1  3  1  0  0  0
  1 40  1  0  0  0
  1 41  1  0  0  0
  2 42  1  0  0  0
  2 43  1  0  0  0
  2 44  1  0  0  0
  3  4  1  0  0  0
  3  5  1  0  0  0
  3 45  1  0  0  0
  4 46  1  0  0  0
  4 47  1  0  0  0
  4 48  1  0  0  0
  5  6  2  0  0  0
  5  7  1  0  0  0
  7  8  1  0  0  0
  7 49  1  0  0  0
  8  9  1  0  0  0
  8 11  1  0  0  0
  8 50  1  0  0  0
  9 10  2  0  0  0
  9 17  1  0  0  0
 11 12  1  0  0  0
 11 16  1  0  0  0
 11 51  1  0  0  0
 12 13  1  0  0  0
 12 52  1  0  0  0
 12 53  1  0  0  0
 13 14  1  0  0  0
 13 54  1  0  0  0
 13 55  1  0  0  0
 14 15  1  0  0  0
 14 56  1  0  0  0
 14 57  1  0  0  0
 15 16  1  0  0  0
 15 58  1  0  0  0
 15 59  1  0  0  0
 16 60  1  0  0  0
 16 61  1  0  0  0
 17 18  1  0  0  0
 17 26  1  0  0  0
 18 19  1  0  0  0
 18 62  1  0  0  0
 18 63  1  0  0  0
 19 20  1  0  0  0
 19 24  1  0  0  0
 19 64  1  0  0  0
 20 21  1  0  0  0
 20 65  1  0  0  0
 20 66  1  0  0  0
 21 22  1  0  0  0
 21 23  1  0  0  0
 21 67  1  0  0  0
 22 23  1  0  0  0
 22 68  1  0  0  0
 22 69  1  0  0  0
 23 24  1  0  0  0
 23 70  1  0  0  0
 24 25  1  0  0  0
 24 71  1  0  0  0
 25 26  1  0  0  0
 25 72  1  0  0  0
 25 73  1  0  0  0
 26 27  1  0  0  0
 26 74  1  0  0  0
 27 28  2  0  0  0
 27 29  1  0  0  0
 29 30  1  0  0  0
 29 75  1  0  0  0
 30 31  1  0  0  0
 30 39  1  0  0  0
 30 76  1  0  0  0
 31 32  1  0  0  0
 31 77  1  0  0  0
 31 78  1  0  0  0
 32 33  1  0  0  0
 32 79  1  0  0  0
 32 80  1  0  0  0
 33 34  1  0  0  0
 34 35  2  0  0  0
 34 39  1  0  0  0
 35 36  1  0  0  0
 35 81  1  0  0  0
 36 37  2  0  0  0
 36 82  1  0  0  0
 37 38  1  0  0  0
 37 83  1  0  0  0
 38 39  2  0  0  0
 38 84  1  0  0  0
M  CHG  2   1   1  24   1
M  END
> <s_m_source_file>
../4lge_ligand.sdf

> <i_m_source_file_index>
1

> <s_epik_input>
W0NIMl0xW0NIMl1bQ0gyXVtDSDJdW0NIMl1bQ0hdMVtDQEhdKFtOSF1DKD1PKVtDQEhdKFtDSDNdKVtOSDIrXVtDSDNdKUMoPU8pTihbQ0gyXTIpW0NAQEhdKFtDSDJdW05ASCtdKFtDQEBIXTIzKVtDQEBIXTRbQ0BIXShbQ0gyXTMpW0NIMl00KUMoPU8pW05IXVtDQEhdKFtDSDJdW0NIMl1PNSljKGM1NilbY0hdW2NIXVtjSF1bY0hdNg==

> <s_epik_cmdline>
J2VwaWtfYXBwJywgJy1pbWFlJywgJ2xpZ2FuZF9wcm8ubWFlJywgJy1vbWFlJywgJ2xpZ2FuZF9wcmVwLm1hZScsICctbXMnLCAnMScsICctcGgnLCAnNycsICctcGh0JywgJzAuNScsICctbnQn

> <r_lp_tautomer_probability>
1

> <r_epik_Ionization_Penalty>
  0.0953

> <r_epik_Ionization_Penalty_Charging>
  0.0953

> <r_epik_Ionization_Penalty_Neutral>
  0.0000

> <r_epik_State_Penalty>
 -0.0000

> <r_epik_Charging_Adjusted_Penalty>
0.0953111889582189

> <i_epik_Tot_Q>
2

> <i_epik_Tot_abs_Q>
2

$$$$
