4lgg_ligand
                    3D
 Schrodinger Suite 2020-3.
 43 45  0  0  1  0            999 V2000
   -4.5440   -4.3530   -9.4040 C   0  0  0  0  0  0
   -5.8670   -4.5970   -8.7560 C   0  0  0  0  0  0
   -6.4600   -3.2830   -8.3680 C   0  0  0  0  0  0
   -6.7680   -5.2820   -9.7290 C   0  0  0  0  0  0
   -5.6980   -5.4100   -7.5850 N   0  0  0  0  0  0
   -4.5210   -5.8260   -7.1300 N   0  0  0  0  0  0
   -6.7070   -5.8570   -6.7790 C   0  0  0  0  0  0
   -8.0720   -5.6930   -6.8310 N   0  0  0  0  0  0
   -8.8730   -6.2400   -5.9090 C   0  0  0  0  0  0
   -8.3650   -6.9710   -4.8950 N   0  0  0  0  0  0
   -7.0330   -7.1780   -4.7730 C   0  0  0  0  0  0
   -6.6060   -7.9670   -3.6560 N   0  0  0  0  0  0
   -6.1370   -6.6110   -5.7390 C   0  0  0  0  0  0
   -4.7020   -6.5580   -6.0210 C   0  0  0  0  0  0
   -3.5440   -7.1570   -5.2880 C   0  0  0  0  0  0
   -3.7410   -8.6140   -5.0290 C   0  0  0  0  0  0
   -3.3100   -9.1530   -3.8250 C   0  0  0  0  0  0
   -4.3370   -9.4300   -5.9810 C   0  0  0  0  0  0
   -4.5090  -10.7830   -5.7220 C   0  0  0  0  0  0
   -4.0780  -11.3210   -4.5160 C   0  0  0  0  0  0
   -3.4790  -10.5050   -3.5680 C   0  0  0  0  0  0
   -3.0120  -11.0730   -2.2710 C   0  0  0  0  0  0
   -4.6838   -3.7297  -10.2995 H   0  0  0  0  0  0
   -4.0944   -5.3144   -9.6929 H   0  0  0  0  0  0
   -3.8793   -3.8351   -8.6969 H   0  0  0  0  0  0
   -6.5895   -2.6600   -9.2652 H   0  0  0  0  0  0
   -5.7895   -2.7727   -7.6609 H   0  0  0  0  0  0
   -7.4378   -3.4483   -7.8920 H   0  0  0  0  0  0
   -6.8908   -4.6513  -10.6218 H   0  0  0  0  0  0
   -7.7496   -5.4523   -9.2626 H   0  0  0  0  0  0
   -6.3277   -6.2472  -10.0197 H   0  0  0  0  0  0
   -9.9508   -6.0930   -5.9781 H   0  0  0  0  0  0
   -7.3486   -8.3717   -2.9526 H   0  0  0  0  0  0
   -5.5356   -8.1681   -3.5018 H   0  0  0  0  0  0
   -2.6287   -7.0346   -5.8858 H   0  0  0  0  0  0
   -3.4204   -6.6492   -4.3201 H   0  0  0  0  0  0
   -2.8378   -8.5124   -3.0801 H   0  0  0  0  0  0
   -4.6693   -9.0092   -6.9300 H   0  0  0  0  0  0
   -4.9827  -11.4238   -6.4657 H   0  0  0  0  0  0
   -4.2105  -12.3840   -4.3149 H   0  0  0  0  0  0
   -2.5684  -10.2737   -1.6592 H   0  0  0  0  0  0
   -2.2575  -11.8504   -2.4617 H   0  0  0  0  0  0
   -3.8656  -11.5139   -1.7353 H   0  0  0  0  0  0
  1  2  1  0  0  0
  1 23  1  0  0  0
  1 24  1  0  0  0
  1 25  1  0  0  0
  2  3  1  0  0  0
  2  4  1  0  0  0
  2  5  1  0  0  0
  3 26  1  0  0  0
  3 27  1  0  0  0
  3 28  1  0  0  0
  4 29  1  0  0  0
  4 30  1  0  0  0
  4 31  1  0  0  0
  5  6  1  0  0  0
  5  7  1  0  0  0
  6 14  2  0  0  0
  7  8  1  0  0  0
  7 13  2  0  0  0
  8  9  2  0  0  0
  9 10  1  0  0  0
  9 32  1  0  0  0
 10 11  2  0  0  0
 11 12  1  0  0  0
 11 13  1  0  0  0
 12 33  1  0  0  0
 12 34  1  0  0  0
 13 14  1  0  0  0
 14 15  1  0  0  0
 15 16  1  0  0  0
 15 35  1  0  0  0
 15 36  1  0  0  0
 16 17  2  0  0  0
 16 18  1  0  0  0
 17 21  1  0  0  0
 17 37  1  0  0  0
 18 19  2  0  0  0
 18 38  1  0  0  0
 19 20  1  0  0  0
 19 39  1  0  0  0
 20 21  2  0  0  0
 20 40  1  0  0  0
 21 22  1  0  0  0
 22 41  1  0  0  0
 22 42  1  0  0  0
 22 43  1  0  0  0
M  END
> <s_m_source_file>
../4lgg_ligand.sdf

> <i_m_source_file_index>
1

> <s_epik_input>
bjFbY0hdbmMoW05IMl0pYyhjMTIpYyhubjJDKFtDSDNdKShbQ0gzXSlbQ0gzXSlbQ0gyXWMzW2NIXWMoW0NIM10pW2NIXVtjSF1bY0hdMw==

> <s_epik_cmdline>
J2VwaWtfYXBwJywgJy1pbWFlJywgJ2xpZ2FuZF9wcm8ubWFlJywgJy1vbWFlJywgJ2xpZ2FuZF9wcmVwLm1hZScsICctbXMnLCAnMScsICctcGgnLCAnNycsICctcGh0JywgJzAuNScsICctbnQn

> <r_lp_tautomer_probability>
1

> <r_epik_Ionization_Penalty>
  0.0021

> <r_epik_Ionization_Penalty_Charging>
  0.0000

> <r_epik_Ionization_Penalty_Neutral>
  0.0021

> <r_epik_State_Penalty>
 -0.0000

> <r_epik_Charging_Adjusted_Penalty>
0

> <i_epik_Tot_Q>
0

> <i_epik_Tot_abs_Q>
0

$$$$
