4lgh_ligand
                    3D
 Schrodinger Suite 2020-3.
 46 49  0  0  1  0            999 V2000
   -8.2320    4.8260   -7.3540 N   0  0  0  0  0  0
   -8.6440    5.9800   -6.7130 C   0  0  0  0  0  0
   -7.7540    6.8950   -6.2900 N   0  0  0  0  0  0
   -6.3990    6.7300   -6.4820 C   0  0  0  0  0  0
   -5.9420    5.5490   -7.1380 C   0  0  0  0  0  0
   -6.9140    4.5890   -7.5760 C   0  0  0  0  0  0
   -3.9620    9.4440   -5.5240 C   0  0  0  0  0  0
   -6.2690    9.7480   -6.0930 C   0  0  0  0  0  0
   -2.3520    0.9210  -11.1550 C   0  0  0  0  0  0
   -2.1450    1.0930   -9.7760 C   0  0  0  0  0  0
   -4.4910    5.3430  -11.4270 C   0  0  0  0  0  0
   -4.3000    5.5300  -10.0820 C   0  0  0  0  0  0
   -2.9840    1.9360  -11.9060 C   0  0  0  0  0  0
   -4.0520    4.1350  -12.0540 C   0  0  0  0  0  0
   -3.6480    4.5000   -9.2860 C   0  0  0  0  0  0
   -4.4710    5.7040   -7.1660 C   0  0  0  0  0  0
   -3.3990    3.0970  -11.2660 C   0  0  0  0  0  0
   -5.2960    7.4870   -6.1570 N   0  0  0  0  0  0
   -5.3080    8.8280   -5.4430 C   0  0  0  0  0  0
   -5.6970    8.6210   -3.9630 C   0  0  0  0  0  0
   -4.1470    6.8660   -6.5690 N   0  0  0  0  0  0
   -6.5500    3.3730   -8.2480 N   0  0  0  0  0  0
   -3.4410    4.7340   -7.7470 C   0  0  0  0  0  0
   -3.2010    3.2730   -9.9190 C   0  0  0  0  0  0
   -2.5420    2.2120   -9.1500 C   0  0  0  0  0  0
   -9.7078    6.1507   -6.5479 H   0  0  0  0  0  0
   -3.6884    9.5899   -6.5794 H   0  0  0  0  0  0
   -3.2266    8.7827   -5.0426 H   0  0  0  0  0  0
   -3.9723   10.4165   -5.0101 H   0  0  0  0  0  0
   -5.9853    9.8903   -7.1462 H   0  0  0  0  0  0
   -6.2551   10.7184   -5.5752 H   0  0  0  0  0  0
   -7.2804    9.3187   -6.0404 H   0  0  0  0  0  0
   -2.0247    0.0040  -11.6451 H   0  0  0  0  0  0
   -1.6540    0.3048   -9.2052 H   0  0  0  0  0  0
   -4.9786    6.1170  -12.0197 H   0  0  0  0  0  0
   -4.6370    6.4518   -9.6078 H   0  0  0  0  0  0
   -3.1446    1.8099  -12.9767 H   0  0  0  0  0  0
   -4.2060    3.9902  -13.1233 H   0  0  0  0  0  0
   -5.7054    9.5923   -3.4468 H   0  0  0  0  0  0
   -4.9652    7.9560   -3.4811 H   0  0  0  0  0  0
   -6.6975    8.1672   -3.9069 H   0  0  0  0  0  0
   -7.3301    2.6656   -8.5660 H   0  0  0  0  0  0
   -5.4911    3.1490   -8.4446 H   0  0  0  0  0  0
   -3.5356    3.7761   -7.2145 H   0  0  0  0  0  0
   -2.4395    5.1538   -7.5714 H   0  0  0  0  0  0
   -2.3761    2.3312   -8.0793 H   0  0  0  0  0  0
  1  2  1  0  0  0
  1  6  2  0  0  0
  2  3  2  0  0  0
  2 26  1  0  0  0
  3  4  1  0  0  0
  4  5  2  0  0  0
  4 18  1  0  0  0
  5  6  1  0  0  0
  5 16  1  0  0  0
  6 22  1  0  0  0
  7 19  1  0  0  0
  7 27  1  0  0  0
  7 28  1  0  0  0
  7 29  1  0  0  0
  8 19  1  0  0  0
  8 30  1  0  0  0
  8 31  1  0  0  0
  8 32  1  0  0  0
  9 10  2  0  0  0
  9 13  1  0  0  0
  9 33  1  0  0  0
 10 25  1  0  0  0
 10 34  1  0  0  0
 11 12  1  0  0  0
 11 14  2  0  0  0
 11 35  1  0  0  0
 12 15  2  0  0  0
 12 36  1  0  0  0
 13 17  2  0  0  0
 13 37  1  0  0  0
 14 17  1  0  0  0
 14 38  1  0  0  0
 15 23  1  0  0  0
 15 24  1  0  0  0
 16 21  2  0  0  0
 16 23  1  0  0  0
 17 24  1  0  0  0
 18 19  1  0  0  0
 18 21  1  0  0  0
 19 20  1  0  0  0
 20 39  1  0  0  0
 20 40  1  0  0  0
 20 41  1  0  0  0
 22 42  1  0  0  0
 22 43  1  0  0  0
 23 44  1  0  0  0
 23 45  1  0  0  0
 24 25  2  0  0  0
 25 46  1  0  0  0
M  END
> <s_m_source_file>
../4lgh_ligand.sdf

> <i_m_source_file_index>
1

> <s_epik_input>
bjFbY0hdbmMoW05IMl0pYyhjMTIpYyhubjJDKFtDSDNdKShbQ0gzXSlbQ0gzXSlbQ0gyXWMoW2NIXVtjSF1bY0hdMyljKGMzNClbY0hdW2NIXVtjSF1bY0hdNA==

> <s_epik_cmdline>
J2VwaWtfYXBwJywgJy1pbWFlJywgJ2xpZ2FuZF9wcm8ubWFlJywgJy1vbWFlJywgJ2xpZ2FuZF9wcmVwLm1hZScsICctbXMnLCAnMScsICctcGgnLCAnNycsICctcGh0JywgJzAuNScsICctbnQn

> <r_lp_tautomer_probability>
1

> <r_epik_Ionization_Penalty>
  0.0015

> <r_epik_Ionization_Penalty_Charging>
  0.0000

> <r_epik_Ionization_Penalty_Neutral>
  0.0015

> <r_epik_State_Penalty>
 -0.0000

> <r_epik_Charging_Adjusted_Penalty>
0

> <i_epik_Tot_Q>
0

> <i_epik_Tot_abs_Q>
0

$$$$
