4lgu_ligand
                    3D
 Schrodinger Suite 2020-3.
 83 87  0  0  1  0            999 V2000
   23.7850   -5.8610  -10.9070 N   0  3  0  0  0  0
   25.2260   -6.0880  -10.7120 C   0  0  0  0  0  0
   23.1100   -7.0420  -11.4580 C   0  0  1  0  0  0
   21.5960   -6.8540  -11.5310 C   0  0  0  0  0  0
   23.5690   -7.3530  -12.8500 C   0  0  0  0  0  0
   24.0170   -6.5020  -13.5800 O   0  0  0  0  0  0
   23.4320   -8.6090  -13.2650 N   0  0  0  0  0  0
   23.8630   -9.0650  -14.5640 C   0  0  2  0  0  0
   22.7090   -9.8280  -15.1760 C   0  0  0  0  0  0
   21.8500  -10.2440  -14.4290 O   0  0  0  0  0  0
   25.0390   -9.9050  -14.0430 C   0  0  0  0  0  0
   24.9350  -11.4170  -14.2730 C   0  0  0  0  0  0
   26.0560  -12.1570  -13.5270 C   0  0  0  0  0  0
   27.4320  -11.4630  -13.3890 C   0  0  0  0  0  0
   27.5320   -9.9510  -13.6880 C   0  0  0  0  0  0
   26.3740   -9.3450  -14.5060 C   0  0  0  0  0  0
   22.5780  -10.0200  -16.5090 N   0  0  0  0  0  0
   23.6230   -9.5560  -17.4660 C   0  0  0  0  0  0
   23.0300   -9.2730  -18.8410 C   0  0  1  0  0  0
   24.0980   -9.2820  -19.9520 C   0  0  0  0  0  0
   23.2610   -9.6120  -21.2220 C   0  0  0  0  0  0
   21.8500   -9.9590  -20.6600 C   0  0  0  0  0  0
   22.1200  -10.3620  -19.2590 N   0  3  2  0  0  0
   20.9290  -10.4760  -18.4140 C   0  0  0  0  0  0
   21.4100  -10.7970  -16.9530 C   0  0  1  0  0  0
   21.7630  -12.2600  -16.8110 C   0  0  0  0  0  0
   22.9200  -12.6940  -16.7380 O   0  0  0  0  0  0
   20.7180  -13.0750  -16.7300 N   0  0  0  0  0  0
   20.8380  -14.5130  -16.5850 C   0  0  2  0  0  0
   20.8340  -15.0420  -18.0220 C   0  0  0  0  0  0
   20.4930  -16.5310  -17.9710 C   0  0  0  0  0  0
   19.1460  -16.6230  -17.4930 O   0  0  0  0  0  0
   18.8450  -16.0160  -16.3020 C   0  0  0  0  0  0
   17.7220  -16.4390  -15.5720 C   0  0  0  0  0  0
   17.4090  -15.8220  -14.3670 C   0  0  0  0  0  0
   18.2100  -14.7950  -13.8780 C   0  0  0  0  0  0
   19.3130  -14.3810  -14.6050 C   0  0  0  0  0  0
   19.6270  -14.9820  -15.8170 C   0  0  0  0  0  0
   23.3179   -5.6189   -9.9410 H   0  0  0  0  0  0
   23.6368   -5.0245  -11.6057 H   0  0  0  0  0  0
   25.6878   -5.1790  -10.2990 H   0  0  0  0  0  0
   25.6931   -6.3301  -11.6780 H   0  0  0  0  0  0
   25.3741   -6.9245  -10.0132 H   0  0  0  0  0  0
   23.3985   -7.8453  -10.7641 H   0  0  0  0  0  0
   21.2066   -6.6222  -10.5287 H   0  0  0  0  0  0
   21.1291   -7.7787  -11.9010 H   0  0  0  0  0  0
   21.3620   -6.0256  -12.2159 H   0  0  0  0  0  0
   22.9635   -9.3137  -12.5623 H   0  0  0  0  0  0
   24.1253   -8.3294  -15.3387 H   0  0  0  0  0  0
   24.9894   -9.8040  -12.9488 H   0  0  0  0  0  0
   23.9635  -11.7780  -13.9043 H   0  0  0  0  0  0
   25.0215  -11.6311  -15.3485 H   0  0  0  0  0  0
   25.7376  -12.3587  -12.4936 H   0  0  0  0  0  0
   26.2702  -13.1078  -14.0369 H   0  0  0  0  0  0
   27.7935  -11.5678  -12.3554 H   0  0  0  0  0  0
   28.1500  -11.9320  -14.0779 H   0  0  0  0  0  0
   27.5625   -9.3913  -12.7415 H   0  0  0  0  0  0
   28.4486   -9.7506  -14.2621 H   0  0  0  0  0  0
   26.5244   -9.5869  -15.5685 H   0  0  0  0  0  0
   26.3790   -8.2529  -14.3744 H   0  0  0  0  0  0
   24.0829   -8.6315  -17.0868 H   0  0  0  0  0  0
   24.3946  -10.3329  -17.5714 H   0  0  0  0  0  0
   22.5070   -8.3113  -18.7338 H   0  0  0  0  0  0
   24.5813   -8.2952  -20.0040 H   0  0  0  0  0  0
   24.8538  -10.0491  -19.7278 H   0  0  0  0  0  0
   23.2398   -8.7347  -21.8853 H   0  0  0  0  0  0
   23.7176  -10.4611  -21.7516 H   0  0  0  0  0  0
   21.2025   -9.0719  -20.7215 H   0  0  0  0  0  0
   21.4103  -10.7755  -21.2516 H   0  0  0  0  0  0
   22.5266  -11.3790  -19.1572 H   0  0  0  0  0  0
   20.3729   -9.5271  -18.4342 H   0  0  0  0  0  0
   20.2871  -11.2853  -18.7923 H   0  0  0  0  0  0
   20.5971  -10.5117  -16.2691 H   0  0  0  0  0  0
   19.7231  -12.6082  -16.7781 H   0  0  0  0  0  0
   21.7421  -14.8110  -16.0338 H   0  0  0  0  0  0
   20.0808  -14.4980  -18.6109 H   0  0  0  0  0  0
   21.8274  -14.8932  -18.4703 H   0  0  0  0  0  0
   20.5830  -16.9625  -18.9788 H   0  0  0  0  0  0
   21.1881  -17.0432  -17.2894 H   0  0  0  0  0  0
   17.0979  -17.2489  -15.9497 H   0  0  0  0  0  0
   16.5333  -16.1436  -13.8032 H   0  0  0  0  0  0
   17.9703  -14.3187  -12.9273 H   0  0  0  0  0  0
   19.9407  -13.5760  -14.2227 H   0  0  0  0  0  0
  1  2  1  0  0  0
  1  3  1  0  0  0
  1 39  1  0  0  0
  1 40  1  0  0  0
  2 41  1  0  0  0
  2 42  1  0  0  0
  2 43  1  0  0  0
  3  4  1  0  0  0
  3  5  1  0  0  0
  3 44  1  0  0  0
  4 45  1  0  0  0
  4 46  1  0  0  0
  4 47  1  0  0  0
  5  6  2  0  0  0
  5  7  1  0  0  0
  7  8  1  0  0  0
  7 48  1  0  0  0
  8  9  1  0  0  0
  8 11  1  0  0  0
  8 49  1  0  0  0
  9 10  2  0  0  0
  9 17  1  0  0  0
 11 12  1  0  0  0
 11 16  1  0  0  0
 11 50  1  0  0  0
 12 13  1  0  0  0
 12 51  1  0  0  0
 12 52  1  0  0  0
 13 14  1  0  0  0
 13 53  1  0  0  0
 13 54  1  0  0  0
 14 15  1  0  0  0
 14 55  1  0  0  0
 14 56  1  0  0  0
 15 16  1  0  0  0
 15 57  1  0  0  0
 15 58  1  0  0  0
 16 59  1  0  0  0
 16 60  1  0  0  0
 17 18  1  0  0  0
 17 25  1  0  0  0
 18 19  1  0  0  0
 18 61  1  0  0  0
 18 62  1  0  0  0
 19 20  1  0  0  0
 19 23  1  0  0  0
 19 63  1  0  0  0
 20 21  1  0  0  0
 20 64  1  0  0  0
 20 65  1  0  0  0
 21 22  1  0  0  0
 21 66  1  0  0  0
 21 67  1  0  0  0
 22 23  1  0  0  0
 22 68  1  0  0  0
 22 69  1  0  0  0
 23 24  1  0  0  0
 23 70  1  0  0  0
 24 25  1  0  0  0
 24 71  1  0  0  0
 24 72  1  0  0  0
 25 26  1  0  0  0
 25 73  1  0  0  0
 26 27  2  0  0  0
 26 28  1  0  0  0
 28 29  1  0  0  0
 28 74  1  0  0  0
 29 30  1  0  0  0
 29 38  1  0  0  0
 29 75  1  0  0  0
 30 31  1  0  0  0
 30 76  1  0  0  0
 30 77  1  0  0  0
 31 32  1  0  0  0
 31 78  1  0  0  0
 31 79  1  0  0  0
 32 33  1  0  0  0
 33 34  2  0  0  0
 33 38  1  0  0  0
 34 35  1  0  0  0
 34 80  1  0  0  0
 35 36  2  0  0  0
 35 81  1  0  0  0
 36 37  1  0  0  0
 36 82  1  0  0  0
 37 38  2  0  0  0
 37 83  1  0  0  0
M  CHG  2   1   1  23   1
M  END
> <s_m_source_file>
../4lgu_ligand.sdf

> <i_m_source_file_index>
1

> <s_epik_input>
W0NIMl0xW0NIMl1bQ0gyXVtDSDJdW0NIMl1bQ0hdMVtDQEhdKFtOSF1DKD1PKVtDQEhdKFtDSDNdKVtOSDIrXVtDSDNdKUMoPU8pTihbQ0gyXTIpW0NAQEhdKFtDSDJdW05ASCtdKFtDQEBIXTIzKVtDSDJdW0NIMl1bQ0gyXTMpQyg9TylbTkhdW0NASF0oW0NIMl1bQ0gyXU80KWMoYzQ1KVtjSF1bY0hdW2NIXVtjSF01

> <s_epik_cmdline>
J2VwaWtfYXBwJywgJy1pbWFlJywgJ2xpZ2FuZF9wcm8ubWFlJywgJy1vbWFlJywgJ2xpZ2FuZF9wcmVwLm1hZScsICctbXMnLCAnMScsICctcGgnLCAnNycsICctcGh0JywgJzAuNScsICctbnQn

> <r_lp_tautomer_probability>
1

> <r_epik_Ionization_Penalty>
  0.1080

> <r_epik_Ionization_Penalty_Charging>
  0.1080

> <r_epik_Ionization_Penalty_Neutral>
  0.0000

> <r_epik_State_Penalty>
 -0.0000

> <r_epik_Charging_Adjusted_Penalty>
0.108040790097112

> <i_epik_Tot_Q>
2

> <i_epik_Tot_abs_Q>
2

$$$$
