4lh2_ligand
                    3D
 Schrodinger Suite 2020-3.
 12 11  0  0  1  0            999 V2000
   19.2870    2.1820   -3.7880 C   0  0  0  0  0  0
   20.2560    1.7770   -4.4800 O   0  5  0  0  0  0
   18.4280    2.9130   -4.3220 O   0  0  0  0  0  0
   19.1300    1.8250   -2.3280 C   0  0  0  0  0  0
   20.3060    0.9920   -1.8380 C   0  0  0  0  0  0
   20.0190   -0.4810   -2.0250 C   0  0  0  0  0  0
   19.2070   -0.8470   -2.8940 O   0  0  0  0  0  0
   20.5770   -1.3570   -1.3170 O   0  5  0  0  0  0
   19.0775    2.7461   -1.7289 H   0  0  0  0  0  0
   18.2059    1.2445   -2.1898 H   0  0  0  0  0  0
   21.2072    1.2579   -2.4099 H   0  0  0  0  0  0
   20.4772    1.1920   -0.7700 H   0  0  0  0  0  0
  1  2  1  0  0  0
  1  3  2  0  0  0
  1  4  1  0  0  0
  4  5  1  0  0  0
  4  9  1  0  0  0
  4 10  1  0  0  0
  5  6  1  0  0  0
  5 11  1  0  0  0
  5 12  1  0  0  0
  6  7  2  0  0  0
  6  8  1  0  0  0
M  CHG  2   2  -1   8  -1
M  END
> <s_m_source_file>
../4lh2_ligand.sdf

> <i_m_source_file_index>
1

> <s_epik_input>
W09IXUMoPU8pW0NIMl1bQ0gyXUMoPU8pW09IXQ==

> <s_epik_cmdline>
J2VwaWtfYXBwJywgJy1pbWFlJywgJ2xpZ2FuZF9wcm8ubWFlJywgJy1vbWFlJywgJ2xpZ2FuZF9wcmVwLm1hZScsICctbXMnLCAnMScsICctcGgnLCAnNycsICctcGh0JywgJzAuNScsICctbnQn

> <r_lp_tautomer_probability>
1

> <r_epik_Ionization_Penalty>
  0.0087

> <r_epik_Ionization_Penalty_Charging>
  0.0087

> <r_epik_Ionization_Penalty_Neutral>
  0.0000

> <r_epik_State_Penalty>
 -0.0000

> <r_epik_Charging_Adjusted_Penalty>
0.00872382001236044

> <i_epik_Tot_Q>
-2

> <i_epik_Tot_abs_Q>
2

$$$$
