4lh3_ligand
                    3D
 Schrodinger Suite 2020-3.
 15 14  0  0  1  0            999 V2000
   19.9340   -0.9460   -0.1760 C   0  0  0  0  0  0
   19.7730    0.4910   -0.5790 C   0  0  0  0  0  0
   19.6380    0.6390   -2.0680 C   0  0  0  0  0  0
   19.2930    2.0570   -2.3970 C   0  0  0  0  0  0
   19.2420    2.2690   -3.8830 C   0  0  0  0  0  0
   20.5240   -1.7610   -0.9300 O   0  0  0  0  0  0
   19.4850   -1.3550    0.9290 O   0  5  0  0  0  0
   20.0880    1.7280   -4.6490 O   0  5  0  0  0  0
   18.3450    2.9980   -4.3860 O   0  0  0  0  0  0
   18.8700    0.9053   -0.1068 H   0  0  0  0  0  0
   20.6533    1.0642   -0.2526 H   0  0  0  0  0  0
   20.5893    0.3708   -2.5509 H   0  0  0  0  0  0
   18.8416   -0.0268   -2.4320 H   0  0  0  0  0  0
   18.3086    2.3029   -1.9721 H   0  0  0  0  0  0
   20.0539    2.7277   -1.9714 H   0  0  0  0  0  0
  1  2  1  0  0  0
  1  6  2  0  0  0
  1  7  1  0  0  0
  2  3  1  0  0  0
  2 10  1  0  0  0
  2 11  1  0  0  0
  3  4  1  0  0  0
  3 12  1  0  0  0
  3 13  1  0  0  0
  4  5  1  0  0  0
  4 14  1  0  0  0
  4 15  1  0  0  0
  5  8  1  0  0  0
  5  9  2  0  0  0
M  CHG  2   7  -1   8  -1
M  END
> <s_m_source_file>
../4lh3_ligand.sdf

> <i_m_source_file_index>
1

> <s_epik_input>
Tz1DKFtPSF0pW0NIMl1bQ0gyXVtDSDJdQyg9TylbT0hd

> <s_epik_cmdline>
J2VwaWtfYXBwJywgJy1pbWFlJywgJ2xpZ2FuZF9wcm8ubWFlJywgJy1vbWFlJywgJ2xpZ2FuZF9wcmVwLm1hZScsICctbXMnLCAnMScsICctcGgnLCAnNycsICctcGh0JywgJzAuNScsICctbnQn

> <r_epik_Ionization_Penalty>
  0.0122

> <r_epik_Ionization_Penalty_Charging>
  0.0122

> <r_epik_Ionization_Penalty_Neutral>
  0.0000

> <r_epik_State_Penalty>
  0.0094

> <r_epik_Charging_Adjusted_Penalty>
0.0215931629606678

> <i_epik_Tot_Q>
-2

> <i_epik_Tot_abs_Q>
2

$$$$
