4lh5_ligand
                    3D
 Schrodinger Suite 2020-3.
 61 64  0  0  1  0            999 V2000
    9.7180  -47.1960  -15.9090 C   0  0  0  0  0  0
   11.1530  -47.5360  -15.7370 C   0  0  0  0  0  0
   11.5990  -48.9550  -15.9160 C   0  0  0  0  0  0
   10.7070  -49.9190  -16.0900 N   0  3  0  0  0  0
    9.4000  -49.7130  -16.1360 C   0  0  0  0  0  0
    8.8150  -48.3690  -16.0050 C   0  0  0  0  0  0
    9.1510  -45.7970  -15.8080 C   0  0  0  0  0  0
    9.2240  -45.8800  -14.5230 C   0  0  0  0  0  0
    8.8650  -44.9760  -13.7110 C   0  0  0  0  0  0
    8.4470  -43.8420  -14.0840 C   0  0  0  0  0  0
    8.3010  -43.5730  -15.4230 C   0  0  0  0  0  0
    8.6570  -44.5790  -16.4600 C   0  0  0  0  0  0
    7.3220  -48.1590  -16.1030 C   0  0  0  0  0  0
    6.6120  -49.4450  -15.6980 C   0  0  0  0  0  0
    7.0840  -50.5850  -16.5850 C   0  0  0  0  0  0
    8.5570  -50.9570  -16.3610 C   0  0  0  0  0  0
   13.0410  -49.4290  -15.8270 C   0  0  0  0  0  0
   12.1240  -46.4500  -15.4950 C   0  0  1  0  0  0
   12.6760  -46.5450  -14.0710 C   0  0  0  0  0  0
   13.7760  -46.1250  -13.7790 O   0  0  0  0  0  0
   11.9560  -47.0200  -13.0730 O   0  5  0  0  0  0
   13.2420  -46.4540  -16.3270 O   0  0  0  0  0  0
   13.0700  -45.7790  -17.5810 C   0  0  0  0  0  0
   12.5850  -44.3370  -17.4120 C   0  0  0  0  0  0
   12.1330  -46.5650  -18.4740 C   0  0  0  0  0  0
   14.4580  -45.8230  -18.2270 C   0  0  0  0  0  0
    8.1500  -43.2490  -12.8250 O   0  0  0  0  0  0
    7.4710  -42.0320  -12.8210 C   0  0  0  0  0  0
    8.0640  -41.4730  -14.1050 C   0  0  0  0  0  0
    7.7460  -42.2560  -15.3240 C   0  0  0  0  0  0
    9.6266  -46.8013  -14.1020 H   0  0  0  0  0  0
    8.9188  -45.1851  -12.6426 H   0  0  0  0  0  0
    8.5651  -44.4337  -17.5364 H   0  0  0  0  0  0
    7.0217  -47.3421  -15.4304 H   0  0  0  0  0  0
    7.0555  -47.8985  -17.1379 H   0  0  0  0  0  0
    6.8441  -49.6770  -14.6481 H   0  0  0  0  0  0
    5.5257  -49.3161  -15.8135 H   0  0  0  0  0  0
    6.4806  -51.4819  -16.3815 H   0  0  0  0  0  0
    6.9709  -50.2989  -17.6411 H   0  0  0  0  0  0
    8.9255  -51.4943  -17.2473 H   0  0  0  0  0  0
    8.6271  -51.6118  -15.4799 H   0  0  0  0  0  0
   13.7035  -48.5627  -15.6835 H   0  0  0  0  0  0
   13.3140  -49.9494  -16.7569 H   0  0  0  0  0  0
   13.1487  -50.1178  -14.9762 H   0  0  0  0  0  0
   11.5824  -45.5318  -15.7662 H   0  0  0  0  0  0
   11.5882  -44.3376  -16.9468 H   0  0  0  0  0  0
   12.5296  -43.8510  -18.3972 H   0  0  0  0  0  0
   13.2887  -43.7863  -16.7705 H   0  0  0  0  0  0
   11.1215  -46.5566  -18.0418 H   0  0  0  0  0  0
   12.4884  -47.6028  -18.5552 H   0  0  0  0  0  0
   12.1085  -46.1065  -19.4736 H   0  0  0  0  0  0
   15.1699  -45.2605  -17.6050 H   0  0  0  0  0  0
   14.4105  -45.3719  -19.2291 H   0  0  0  0  0  0
   14.7905  -46.8682  -18.3108 H   0  0  0  0  0  0
    6.3870  -42.2169  -12.8489 H   0  0  0  0  0  0
    7.7244  -41.4737  -11.9077 H   0  0  0  0  0  0
    7.6832  -40.4546  -14.2718 H   0  0  0  0  0  0
    9.1604  -41.4452  -14.0208 H   0  0  0  0  0  0
    8.1019  -41.6439  -16.1658 H   0  0  0  0  0  0
    6.6481  -42.3175  -15.3539 H   0  0  0  0  0  0
   11.0391  -50.9612  -16.2061 H   0  0  0  0  0  0
  1  2  2  0  0  0
  1  6  1  0  0  0
  1  7  1  0  0  0
  2  3  1  0  0  0
  2 18  1  0  0  0
  3  4  2  0  0  0
  3 17  1  0  0  0
  4  5  1  0  0  0
  4 61  1  0  0  0
  5  6  2  0  0  0
  5 16  1  0  0  0
  6 13  1  0  0  0
  7  8  2  0  0  0
  7 12  1  0  0  0
  8  9  1  0  0  0
  8 31  1  0  0  0
  9 10  2  0  0  0
  9 32  1  0  0  0
 10 11  1  0  0  0
 10 27  1  0  0  0
 11 12  2  0  0  0
 11 30  1  0  0  0
 12 33  1  0  0  0
 13 14  1  0  0  0
 13 34  1  0  0  0
 13 35  1  0  0  0
 14 15  1  0  0  0
 14 36  1  0  0  0
 14 37  1  0  0  0
 15 16  1  0  0  0
 15 38  1  0  0  0
 15 39  1  0  0  0
 16 40  1  0  0  0
 16 41  1  0  0  0
 17 42  1  0  0  0
 17 43  1  0  0  0
 17 44  1  0  0  0
 18 19  1  0  0  0
 18 22  1  0  0  0
 18 45  1  0  0  0
 19 20  2  0  0  0
 19 21  1  0  0  0
 22 23  1  0  0  0
 23 24  1  0  0  0
 23 25  1  0  0  0
 23 26  1  0  0  0
 24 46  1  0  0  0
 24 47  1  0  0  0
 24 48  1  0  0  0
 25 49  1  0  0  0
 25 50  1  0  0  0
 25 51  1  0  0  0
 26 52  1  0  0  0
 26 53  1  0  0  0
 26 54  1  0  0  0
 27 28  1  0  0  0
 28 29  1  0  0  0
 28 55  1  0  0  0
 28 56  1  0  0  0
 29 30  1  0  0  0
 29 57  1  0  0  0
 29 58  1  0  0  0
 30 59  1  0  0  0
 30 60  1  0  0  0
M  CHG  2   4   1  21  -1
M  END
> <s_m_source_file>
../4lh5_ligand.sdf

> <i_m_source_file_index>
1

> <s_epik_input>
W0NIMl0xW0NIMl1bQ0gyXVtDSDJdYyhjMTIpYyhjKGMobjIpW0NIM10pW0NAQEhdKEMoPU8pW09IXSlPQyhbQ0gzXSkoW0NIM10pW0NIM10pLWMoW2NIXVtjSF0zKVtjSF1jKGMzNClbQ0gyXVtDSDJdW0NIMl1PNA==

> <s_epik_cmdline>
J2VwaWtfYXBwJywgJy1pbWFlJywgJ2xpZ2FuZF9wcm8ubWFlJywgJy1vbWFlJywgJ2xpZ2FuZF9wcmVwLm1hZScsICctbXMnLCAnMScsICctcGgnLCAnNycsICctcGh0JywgJzAuNScsICctbnQn

> <r_lp_tautomer_probability>
1

> <r_epik_Ionization_Penalty>
  0.1180

> <r_epik_Ionization_Penalty_Charging>
  0.1180

> <r_epik_Ionization_Penalty_Neutral>
  0.0000

> <r_epik_State_Penalty>
  0.1076

> <r_epik_Charging_Adjusted_Penalty>
0.225623587000849

> <i_epik_Tot_Q>
0

> <i_epik_Tot_abs_Q>
2

$$$$
