4lhv_ligand
                    3D
 Schrodinger Suite 2020-3.
 40 42  0  0  1  0            999 V2000
   -7.0760   36.3730   30.2070 P   0  0  0  0  0  0
   -6.2400   36.7200   31.4380 O   0  5  0  0  0  0
   -6.3540   35.2560   29.5300 O   0  0  0  0  0  0
   -8.5230   35.9550   30.4020 O   0  5  0  0  0  0
   -7.1450   37.5560   29.1370 O   0  0  0  0  0  0
   -6.2680   38.9100   29.1240 P   0  0  2  0  0  0
   -4.8340   38.5650   29.1550 O   0  0  0  0  0  0
   -6.6730   39.8670   30.2350 O   0  5  0  0  0  0
   -6.7630   39.5950   27.7810 O   0  0  0  0  0  0
   -6.5910   38.9240   26.5330 C   0  0  0  0  0  0
   -6.4560   39.9440   25.4170 C   0  0  1  0  0  0
   -7.6910   40.6390   25.2940 O   0  0  0  0  0  0
   -5.4050   41.0220   25.6420 C   0  0  1  0  0  0
   -4.8410   41.3690   24.3700 O   0  0  0  0  0  0
   -6.2080   42.1940   26.1540 C   0  0  1  0  0  0
   -5.6410   43.4660   25.8950 O   0  0  0  0  0  0
   -7.5270   42.0450   25.4270 C   0  0  2  0  0  0
   -8.6970   42.5480   26.2060 N   0  0  0  0  0  0
   -9.0500   42.1690   27.4610 C   0  0  0  0  0  0
  -10.1610   42.8180   27.8530 N   0  0  0  0  0  0
  -10.5370   43.6020   26.8300 C   0  0  0  0  0  0
  -11.6310   44.5280   26.5540 C   0  0  0  0  0  0
  -12.5330   44.7540   27.3880 O   0  0  0  0  0  0
  -11.6530   45.1190   25.3580 N   0  3  0  0  0  0
  -10.7210   44.9050   24.4270 C   0  0  0  0  0  0
  -10.8490   45.5410   23.2900 N   0  0  0  0  0  0
   -9.7020   44.0670   24.5680 N   0  0  0  0  0  0
   -9.5640   43.4230   25.7520 C   0  0  0  0  0  0
   -5.6830   38.3043   26.5720 H   0  0  0  0  0  0
   -7.4638   38.2836   26.3376 H   0  0  0  0  0  0
   -6.2168   39.3794   24.5038 H   0  0  0  0  0  0
   -4.5613   40.7336   26.2862 H   0  0  0  0  0  0
   -4.2171   40.6427   23.8284 H   0  0  0  0  0  0
   -6.2454   42.2299   27.2528 H   0  0  0  0  0  0
   -4.6770   43.7410   26.3478 H   0  0  0  0  0  0
   -7.5165   42.5745   24.4629 H   0  0  0  0  0  0
   -8.5091   41.4412   28.0658 H   0  0  0  0  0  0
  -11.6836   46.2423   23.1430 H   0  0  0  0  0  0
  -10.1219   45.3741   22.4816 H   0  0  0  0  0  0
  -12.4643   45.8172   25.1044 H   0  0  0  0  0  0
  1  2  1  0  0  0
  1  3  2  0  0  0
  1  4  1  0  0  0
  1  5  1  0  0  0
  5  6  1  0  0  0
  6  7  2  0  0  0
  6  8  1  0  0  0
  6  9  1  0  0  0
  9 10  1  0  0  0
 10 11  1  0  0  0
 10 29  1  0  0  0
 10 30  1  0  0  0
 11 12  1  0  0  0
 11 13  1  0  0  0
 11 31  1  0  0  0
 12 17  1  0  0  0
 13 14  1  0  0  0
 13 15  1  0  0  0
 13 32  1  0  0  0
 14 33  1  0  0  0
 15 16  1  0  0  0
 15 17  1  0  0  0
 15 34  1  0  0  0
 16 35  1  0  0  0
 17 18  1  0  0  0
 17 36  1  0  0  0
 18 19  1  0  0  0
 18 28  1  0  0  0
 19 20  2  0  0  0
 19 37  1  0  0  0
 20 21  1  0  0  0
 21 22  1  0  0  0
 21 28  2  0  0  0
 22 23  2  0  0  0
 22 24  1  0  0  0
 24 25  1  0  0  0
 24 40  1  0  0  0
 25 26  1  0  0  0
 25 27  2  0  0  0
 26 38  1  0  0  0
 26 39  1  0  0  0
 27 28  1  0  0  0
M  CHG  4   2  -1   4  -1   8  -1  24   1
M  END
> <s_m_source_file>
../4lhv_ligand.sdf

> <i_m_source_file_index>
1

> <s_epik_input>
W09IXVAoPU8pKFtPSF0pT1tQQF0oPU8pKFtPSF0pT1tDSDJdW0NASF0xT1tDQEhdKFtDQEhdKFtPSF0pW0NAQEhdMVtPSF0pbihbY0hdbjIpYyhjMjMpW25IXWMoPU5cW0hdKVxbbkhdYzM9Tw==

> <s_epik_cmdline>
J2VwaWtfYXBwJywgJy1pbWFlJywgJ2xpZ2FuZF9wcm8ubWFlJywgJy1vbWFlJywgJ2xpZ2FuZF9wcmVwLm1hZScsICctbXMnLCAnMScsICctcGgnLCAnNycsICctcGh0JywgJzAuNScsICctbnQn

> <r_epik_Ionization_Penalty>
  2.4918

> <r_epik_Ionization_Penalty_Charging>
  2.4918

> <r_epik_Ionization_Penalty_Neutral>
  0.0000

> <r_epik_State_Penalty>
  0.1302

> <r_epik_Charging_Adjusted_Penalty>
2.62193179535438

> <i_epik_Tot_Q>
-2

> <i_epik_Tot_abs_Q>
4

> <s_epik_Chemistry_Notes>
This compound has an imine and may undergo hydrolysis. This compound contains an acetal/aminal-like group ( X-CH(R)-Y where X, Y are N, S, or O) that may be acid/base labile, releasing an aldehyde.

$$$$
