4li0_ligand
                    3D
 Schrodinger Suite 2020-3.
 40 42  0  0  1  0            999 V2000
   23.8160   40.2330   42.8690 P   0  0  0  0  0  0
   24.6730   41.4660   42.9880 O   0  5  0  0  0  0
   24.6210   39.0320   42.4480 O   0  5  0  0  0  0
   22.8180   39.9250   43.9490 O   0  0  0  0  0  0
   22.8500   40.5970   41.6420 O   0  0  0  0  0  0
   21.5400   41.4980   41.8550 P   0  0  1  0  0  0
   20.5020   40.5600   42.4350 O   0  5  0  0  0  0
   22.0170   42.7200   42.6040 O   0  0  0  0  0  0
   21.1190   41.9700   40.3560 O   0  0  0  0  0  0
   21.4670   43.2690   39.8490 C   0  0  0  0  0  0
   20.5500   43.6960   38.7110 C   0  0  1  0  0  0
   20.1290   42.5530   37.9640 O   0  0  0  0  0  0
   19.2650   44.3460   39.1870 C   0  0  1  0  0  0
   18.9020   45.3710   38.2670 O   0  0  0  0  0  0
   18.2460   43.2320   39.1300 C   0  0  1  0  0  0
   16.8900   43.6550   39.0130 O   0  0  0  0  0  0
   18.6930   42.5250   37.8710 C   0  0  2  0  0  0
   18.1830   41.1410   37.7910 N   0  0  0  0  0  0
   18.3200   40.2430   38.7750 C   0  0  0  0  0  0
   17.7890   39.0520   38.4280 N   0  0  0  0  0  0
   17.3080   39.1850   37.2000 C   0  0  0  0  0  0
   16.6240   38.2690   36.2830 C   0  0  0  0  0  0
   16.3810   37.0940   36.6200 O   0  0  0  0  0  0
   16.2770   38.7570   35.0790 N   0  3  0  0  0  0
   16.5460   40.0400   34.7290 C   0  0  0  0  0  0
   16.1370   40.4030   33.5030 N   0  0  0  0  0  0
   17.1800   40.9420   35.5310 N   0  0  0  0  0  0
   17.5690   40.5640   36.7650 C   0  0  0  0  0  0
   21.3846   44.0118   40.6562 H   0  0  0  0  0  0
   22.5001   43.2507   39.4717 H   0  0  0  0  0  0
   21.1324   44.3751   38.0710 H   0  0  0  0  0  0
   19.3303   44.8438   40.1657 H   0  0  0  0  0  0
   19.5297   46.2689   38.1682 H   0  0  0  0  0  0
   18.1685   42.6476   40.0587 H   0  0  0  0  0  0
   16.4064   44.1880   39.8449 H   0  0  0  0  0  0
   18.3432   42.9990   36.9420 H   0  0  0  0  0  0
   18.7987   40.4477   39.7326 H   0  0  0  0  0  0
   15.6255   39.6752   32.8559 H   0  0  0  0  0  0
   16.3134   41.4282   33.1455 H   0  0  0  0  0  0
   15.7627   38.1119   34.3515 H   0  0  0  0  0  0
  1  2  1  0  0  0
  1  3  1  0  0  0
  1  4  2  0  0  0
  1  5  1  0  0  0
  5  6  1  0  0  0
  6  7  1  0  0  0
  6  8  2  0  0  0
  6  9  1  0  0  0
  9 10  1  0  0  0
 10 11  1  0  0  0
 10 29  1  0  0  0
 10 30  1  0  0  0
 11 12  1  0  0  0
 11 13  1  0  0  0
 11 31  1  0  0  0
 12 17  1  0  0  0
 13 14  1  0  0  0
 13 15  1  0  0  0
 13 32  1  0  0  0
 14 33  1  0  0  0
 15 16  1  0  0  0
 15 17  1  0  0  0
 15 34  1  0  0  0
 16 35  1  0  0  0
 17 18  1  0  0  0
 17 36  1  0  0  0
 18 19  1  0  0  0
 18 28  1  0  0  0
 19 20  2  0  0  0
 19 37  1  0  0  0
 20 21  1  0  0  0
 21 22  1  0  0  0
 21 28  2  0  0  0
 22 23  2  0  0  0
 22 24  1  0  0  0
 24 25  1  0  0  0
 24 40  1  0  0  0
 25 26  1  0  0  0
 25 27  2  0  0  0
 26 38  1  0  0  0
 26 39  1  0  0  0
 27 28  1  0  0  0
M  CHG  4   2  -1   3  -1   7  -1  24   1
M  END
> <s_m_source_file>
../4li0_ligand.sdf

> <i_m_source_file_index>
1

> <s_epik_input>
W09IXVAoPU8pKFtPSF0pT1tQQF0oPU8pKFtPSF0pT1tDSDJdW0NASF0xT1tDQEhdKFtDQEhdKFtPSF0pW0NAQEhdMVtPSF0pbihbY0hdbjIpYyhjMjMpW25IXWMoPU5cW0hdKVxbbkhdYzM9Tw==

> <s_epik_cmdline>
J2VwaWtfYXBwJywgJy1pbWFlJywgJ2xpZ2FuZF9wcm8ubWFlJywgJy1vbWFlJywgJ2xpZ2FuZF9wcmVwLm1hZScsICctbXMnLCAnMScsICctcGgnLCAnNycsICctcGh0JywgJzAuNScsICctbnQn

> <r_epik_Ionization_Penalty>
  2.4918

> <r_epik_Ionization_Penalty_Charging>
  2.4918

> <r_epik_Ionization_Penalty_Neutral>
  0.0000

> <r_epik_State_Penalty>
  0.1302

> <r_epik_Charging_Adjusted_Penalty>
2.62193179535438

> <i_epik_Tot_Q>
-2

> <i_epik_Tot_abs_Q>
4

> <s_epik_Chemistry_Notes>
This compound has an imine and may undergo hydrolysis. This compound contains an acetal/aminal-like group ( X-CH(R)-Y where X, Y are N, S, or O) that may be acid/base labile, releasing an aldehyde.

$$$$
