4li5_ligand
                    3D
 Schrodinger Suite 2020-3.
 49 52  0  0  1  0            999 V2000
   53.1820   -0.2120  -19.2310 C   0  0  0  0  0  0
   52.5230    0.8140  -21.2840 C   0  0  0  0  0  0
   53.4280   -0.0080  -21.9440 C   0  0  0  0  0  0
   54.1940   -0.9250  -21.2540 C   0  0  0  0  0  0
   52.2530    0.4500  -17.0070 C   0  0  0  0  0  0
   50.8200    2.3410  -16.5080 C   0  0  0  0  0  0
   50.9830    0.4840  -14.9700 C   0  0  0  0  0  0
   52.4320   -1.3750  -15.5260 O   0  0  0  0  0  0
   51.9170   -2.3220  -14.5970 C   0  0  0  0  0  0
   50.6250    4.6110  -17.6770 C   0  0  0  0  0  0
   49.8520    5.8760  -17.7220 C   0  0  0  0  0  0
   51.8320    2.4400  -23.1570 C   0  0  0  0  0  0
   50.4530    2.2880  -21.4350 C   0  0  0  0  0  0
   49.7600    2.0180  -20.2620 C   0  0  0  0  0  0
   48.0480    3.5930  -20.9510 C   0  0  0  0  0  0
   53.6460    0.0600  -23.6260 Cl  0  0  0  0  0  0
   51.6540    1.8140  -21.9310 C   0  0  0  0  0  0
   48.5520    2.6780  -20.0210 C   0  0  0  0  0  0
   48.7570    3.8550  -22.1250 C   0  0  0  0  0  0
   49.9530    3.1920  -22.3420 C   0  0  0  0  0  0
   50.7950    3.2740  -23.3780 N   0  0  0  0  0  0
   52.4170    0.6820  -19.9270 N   0  0  0  0  0  0
   54.0700   -1.0330  -19.8920 N   0  0  0  0  0  0
   53.0990   -0.3220  -17.8420 N   0  0  0  0  0  0
   51.8760   -0.1600  -15.8150 C   0  0  0  0  0  0
   50.4590    1.7160  -15.3190 C   0  0  0  0  0  0
   51.7230    1.7000  -17.3580 C   0  0  0  0  0  0
   50.2460    3.6200  -16.7720 N   0  0  0  0  0  0
   51.5540    4.4310  -18.4350 O   0  0  0  0  0  0
   50.7370    7.1310  -17.6870 C   0  0  0  0  0  0
   54.8967   -1.5627  -21.7903 H   0  0  0  0  0  0
   50.6935    0.0176  -14.0283 H   0  0  0  0  0  0
   52.5719   -3.2054  -14.5729 H   0  0  0  0  0  0
   50.9049   -2.6241  -14.9044 H   0  0  0  0  0  0
   51.8761   -1.8684  -13.5957 H   0  0  0  0  0  0
   49.2623    5.9125  -18.6499 H   0  0  0  0  0  0
   49.1758    5.9235  -16.8557 H   0  0  0  0  0  0
   52.7188    2.2129  -23.7669 H   0  0  0  0  0  0
   50.1636    1.2938  -19.5390 H   0  0  0  0  0  0
   47.0941    4.1053  -20.7571 H   0  0  0  0  0  0
   47.9969    2.4743  -19.0934 H   0  0  0  0  0  0
   48.3763    4.5677  -22.8565 H   0  0  0  0  0  0
   53.7234   -1.0549  -17.3100 H   0  0  0  0  0  0
   49.7508    2.2054  -14.6504 H   0  0  0  0  0  0
   52.0165    2.1717  -18.2958 H   0  0  0  0  0  0
   49.3588    3.9508  -16.2122 H   0  0  0  0  0  0
   50.1020    8.0285  -17.7231 H   0  0  0  0  0  0
   51.4146    7.1261  -18.5535 H   0  0  0  0  0  0
   51.3281    7.1371  -16.7593 H   0  0  0  0  0  0
  1 22  2  0  0  0
  1 23  1  0  0  0
  1 24  1  0  0  0
  2  3  2  0  0  0
  2 17  1  0  0  0
  2 22  1  0  0  0
  3  4  1  0  0  0
  3 16  1  0  0  0
  4 23  2  0  0  0
  4 31  1  0  0  0
  5 24  1  0  0  0
  5 25  2  0  0  0
  5 27  1  0  0  0
  6 26  1  0  0  0
  6 27  2  0  0  0
  6 28  1  0  0  0
  7 25  1  0  0  0
  7 26  2  0  0  0
  7 32  1  0  0  0
  8  9  1  0  0  0
  8 25  1  0  0  0
  9 33  1  0  0  0
  9 34  1  0  0  0
  9 35  1  0  0  0
 10 11  1  0  0  0
 10 28  1  0  0  0
 10 29  2  0  0  0
 11 30  1  0  0  0
 11 36  1  0  0  0
 11 37  1  0  0  0
 12 17  2  0  0  0
 12 21  1  0  0  0
 12 38  1  0  0  0
 13 14  2  0  0  0
 13 17  1  0  0  0
 13 20  1  0  0  0
 14 18  1  0  0  0
 14 39  1  0  0  0
 15 18  2  0  0  0
 15 19  1  0  0  0
 15 40  1  0  0  0
 18 41  1  0  0  0
 19 20  1  0  0  0
 19 42  1  0  0  0
 20 21  2  0  0  0
 24 43  1  0  0  0
 26 44  1  0  0  0
 27 45  1  0  0  0
 28 46  1  0  0  0
 30 47  1  0  0  0
 30 48  1  0  0  0
 30 49  1  0  0  0
M  END
> <s_m_source_file>
../4li5_ligand.sdf

> <i_m_source_file_index>
1

> <s_epik_input>
W0NIM11bQ0gyXUMoPU8pW05IXWMoW2NIXTEpW2NIXVtjSF1jKE9bQ0gzXSljMVtOSF1jMm5jKGMoQ2wpW2NIXW4yKUMzPVtDSF1OPUMoQzM9NClbQ0gyXVtDSF09W0NIXVtDSF00

> <s_epik_cmdline>
J2VwaWtfYXBwJywgJy1pbWFlJywgJ2xpZ2FuZF9wcm8ubWFlJywgJy1vbWFlJywgJ2xpZ2FuZF9wcmVwLm1hZScsICctbXMnLCAnMScsICctcGgnLCAnNycsICctcGh0JywgJzAuNScsICctbnQn

> <r_lp_tautomer_probability>
1

> <r_epik_Ionization_Penalty>
  0.0001

> <r_epik_Ionization_Penalty_Charging>
  0.0000

> <r_epik_Ionization_Penalty_Neutral>
  0.0001

> <r_epik_State_Penalty>
 -0.0000

> <r_epik_Charging_Adjusted_Penalty>
0

> <i_epik_Tot_Q>
0

> <i_epik_Tot_abs_Q>
0

> <s_epik_Chemistry_Notes>
This compound has an imine and may undergo hydrolysis.

$$$$
