4li6_ligand
                    3D
 Schrodinger Suite 2020-3.
 50 53  0  0  1  0            999 V2000
  -23.8510   -3.9880    6.1040 S   0  0  0  0  0  0
  -25.5300   -4.1180    6.4980 C   0  0  0  0  0  0
  -26.2090   -3.0000    6.2410 C   0  0  0  0  0  0
  -25.3470   -1.9480    5.6950 C   0  0  0  0  0  0
  -24.0840   -2.3560    5.5820 C   0  0  0  0  0  0
  -26.1730   -5.3660    7.0370 C   0  0  0  0  0  0
  -25.4330   -6.0630    8.0930 N   0  0  0  0  0  0
  -24.2870   -6.9120    7.7630 C   0  0  0  0  0  0
  -24.4410   -8.3980    7.8930 C   0  0  0  0  0  0
  -25.5290   -8.9750    7.5440 N   0  0  0  0  0  0
  -25.6820  -10.3130    7.6370 C   0  0  0  0  0  0
  -24.6120  -11.1060    8.0860 C   0  0  0  0  0  0
  -24.7640  -12.4920    8.1920 C   0  0  0  0  0  0
  -25.9930  -13.0650    7.8410 C   0  0  0  0  0  0
  -27.0610  -12.2760    7.3910 C   0  0  0  0  0  0
  -26.9070  -10.8900    7.2870 C   0  0  0  0  0  0
  -23.3230  -10.3940    8.4210 C   0  0  0  0  0  0
  -23.3360   -9.0550    8.3000 N   0  0  0  0  0  0
  -22.3070  -11.0120    8.7640 O   0  0  0  0  0  0
  -25.8180   -5.9170    9.3930 C   0  0  0  0  0  0
  -25.2180   -6.4920   10.3030 O   0  0  0  0  0  0
  -26.9590   -5.0040    9.8080 C   0  0  0  0  0  0
  -26.4440   -3.5300    9.9030 C   0  0  0  0  0  0
  -25.3640   -3.3570   10.9970 C   0  0  0  0  0  0
  -25.7070   -2.8090   12.2450 C   0  0  0  0  0  0
  -24.7380   -2.6470   13.2470 C   0  0  0  0  0  0
  -23.4140   -3.0340   13.0060 C   0  0  0  0  0  0
  -23.0590   -3.5790   11.7710 C   0  0  0  0  0  0
  -24.0290   -3.7350   10.7780 C   0  0  0  0  0  0
  -27.2784   -2.8822    6.4162 H   0  0  0  0  0  0
  -25.6964   -0.9540    5.4157 H   0  0  0  0  0  0
  -23.2805   -1.7263    5.2000 H   0  0  0  0  0  0
  -27.1553   -5.1169    7.4647 H   0  0  0  0  0  0
  -26.3018   -6.0935    6.2220 H   0  0  0  0  0  0
  -23.9998   -6.7487    6.7138 H   0  0  0  0  0  0
  -23.4412   -6.6574    8.4186 H   0  0  0  0  0  0
  -23.9409  -13.1153    8.5415 H   0  0  0  0  0  0
  -26.1215  -14.1446    7.9192 H   0  0  0  0  0  0
  -28.0092  -12.7419    7.1228 H   0  0  0  0  0  0
  -27.7308  -10.2676    6.9378 H   0  0  0  0  0  0
  -22.4205   -8.4948    8.5408 H   0  0  0  0  0  0
  -27.7650   -5.0621    9.0617 H   0  0  0  0  0  0
  -27.3438   -5.3205   10.7887 H   0  0  0  0  0  0
  -26.0047   -3.2323    8.9395 H   0  0  0  0  0  0
  -27.2845   -2.8628   10.1445 H   0  0  0  0  0  0
  -26.7366   -2.5067   12.4366 H   0  0  0  0  0  0
  -25.0154   -2.2207   14.2111 H   0  0  0  0  0  0
  -22.6601   -2.9096   13.7833 H   0  0  0  0  0  0
  -22.0290   -3.8816   11.5822 H   0  0  0  0  0  0
  -23.7445   -4.1582    9.8147 H   0  0  0  0  0  0
  1  2  1  0  0  0
  1  5  1  0  0  0
  2  3  2  0  0  0
  2  6  1  0  0  0
  3  4  1  0  0  0
  3 30  1  0  0  0
  4  5  2  0  0  0
  4 31  1  0  0  0
  5 32  1  0  0  0
  6  7  1  0  0  0
  6 33  1  0  0  0
  6 34  1  0  0  0
  7  8  1  0  0  0
  7 20  1  0  0  0
  8  9  1  0  0  0
  8 35  1  0  0  0
  8 36  1  0  0  0
  9 10  2  0  0  0
  9 18  1  0  0  0
 10 11  1  0  0  0
 11 12  2  0  0  0
 11 16  1  0  0  0
 12 13  1  0  0  0
 12 17  1  0  0  0
 13 14  2  0  0  0
 13 37  1  0  0  0
 14 15  1  0  0  0
 14 38  1  0  0  0
 15 16  2  0  0  0
 15 39  1  0  0  0
 16 40  1  0  0  0
 17 18  1  0  0  0
 17 19  2  0  0  0
 18 41  1  0  0  0
 20 21  2  0  0  0
 20 22  1  0  0  0
 22 23  1  0  0  0
 22 42  1  0  0  0
 22 43  1  0  0  0
 23 24  1  0  0  0
 23 44  1  0  0  0
 23 45  1  0  0  0
 24 25  2  0  0  0
 24 29  1  0  0  0
 25 26  1  0  0  0
 25 46  1  0  0  0
 26 27  2  0  0  0
 26 47  1  0  0  0
 27 28  1  0  0  0
 27 48  1  0  0  0
 28 29  2  0  0  0
 28 49  1  0  0  0
 29 50  1  0  0  0
M  END
> <s_m_source_file>
../4li6_ligand.sdf

> <i_m_source_file_index>
1

> <s_epik_input>
W2NIXTFbY0hdW2NIXVtjSF1bY0hdYzFbQ0gyXVtDSDJdQyg9TylOKFtDSDJdYzJzW2NIXVtjSF1bY0hdMilbQ0gyXWMobjMpW25IXWMoPU8pYyhjMzQpW2NIXVtjSF1bY0hdW2NIXTQ=

> <s_epik_cmdline>
J2VwaWtfYXBwJywgJy1pbWFlJywgJ2xpZ2FuZF9wcm8ubWFlJywgJy1vbWFlJywgJ2xpZ2FuZF9wcmVwLm1hZScsICctbXMnLCAnMScsICctcGgnLCAnNycsICctcGh0JywgJzAuNScsICctbnQn

> <r_lp_tautomer_probability>
1

> <r_epik_Ionization_Penalty>
  0.0019

> <r_epik_Ionization_Penalty_Charging>
  0.0019

> <r_epik_Ionization_Penalty_Neutral>
  0.0000

> <r_epik_State_Penalty>
 -0.0000

> <r_epik_Charging_Adjusted_Penalty>
0.00193303048696364

> <i_epik_Tot_Q>
0

> <i_epik_Tot_abs_Q>
0

$$$$
