4li7_ligand
                    3D
 Schrodinger Suite 2020-3.
 55 57  0  0  1  0            999 V2000
  -24.9610   -6.9050    7.5170 C   0  0  0  0  0  0
  -26.2280   -7.4830    7.1220 C   0  0  0  0  0  0
  -23.8440   -7.8140    7.9080 C   0  0  0  0  0  0
  -24.7290   -5.4210    7.5440 C   0  0  0  0  0  0
  -26.3650   -8.9360    7.1080 C   0  0  0  0  0  0
  -27.2490   -6.5920    6.7680 O   0  0  0  0  0  0
  -24.0010   -9.2280    7.8920 C   0  0  0  0  0  0
  -25.7640   -4.5980    7.4400 N   0  0  0  0  0  0
  -23.5870   -4.9710    7.6590 O   0  0  0  0  0  0
  -25.2780   -9.7940    7.4830 C   0  0  0  0  0  0
  -28.6470   -6.9030    6.8880 C   0  0  0  0  0  0
  -22.8920  -10.1090    8.2750 C   0  0  0  0  0  0
  -25.6920   -3.1330    7.4450 C   0  0  0  0  0  0
  -25.5410  -11.5200    7.4350 Cl  0  0  0  0  0  0
  -22.0570  -10.8550    8.5620 N   0  0  0  0  0  0
  -26.1980   -2.5100    8.7800 C   0  0  0  0  0  0
  -25.3010   -2.6430    9.9590 N   0  3  2  0  0  0
  -25.9270   -1.9010   11.0760 C   0  0  0  0  0  0
  -23.9460   -2.1020    9.7180 C   0  0  0  0  0  0
  -25.1010   -1.9070   12.3730 C   0  0  0  0  0  0
  -23.0140   -2.1650   10.9940 C   0  0  0  0  0  0
  -23.7230   -1.3080   12.0980 C   0  0  2  0  0  0
  -22.8600   -1.2180   13.4010 C   0  0  0  0  0  0
  -22.0350    0.0630   13.5950 C   0  0  0  0  0  0
  -22.9070   -2.0930   14.2700 O   0  0  0  0  0  0
  -21.3210    0.3390   14.8490 C   0  0  0  0  0  0
  -21.9690    1.0280   12.5270 C   0  0  0  0  0  0
  -20.5940    1.5630   14.9570 C   0  0  0  0  0  0
  -21.2300    2.2460   12.6640 C   0  0  0  0  0  0
  -20.5490    2.5200   13.8690 C   0  0  0  0  0  0
  -19.8630    3.6920   13.9700 F   0  0  0  0  0  0
  -22.8887   -7.3861    8.2119 H   0  0  0  0  0  0
  -27.3140   -9.3790    6.8060 H   0  0  0  0  0  0
  -26.7378   -5.1005    7.3440 H   0  0  0  0  0  0
  -29.2442   -6.0442    6.5476 H   0  0  0  0  0  0
  -28.8851   -7.1214    7.9395 H   0  0  0  0  0  0
  -28.8817   -7.7813    6.2688 H   0  0  0  0  0  0
  -24.6485   -2.8167    7.3002 H   0  0  0  0  0  0
  -26.3129   -2.7326    6.6301 H   0  0  0  0  0  0
  -26.3558   -1.4299    8.6440 H   0  0  0  0  0  0
  -27.1466   -2.9854    9.0702 H   0  0  0  0  0  0
  -25.1742   -3.7115   10.1876 H   0  0  0  0  0  0
  -26.0662   -0.8493   10.7852 H   0  0  0  0  0  0
  -26.9038   -2.3486   11.3117 H   0  0  0  0  0  0
  -23.4568   -2.6804    8.9204 H   0  0  0  0  0  0
  -24.0210   -1.0478    9.4131 H   0  0  0  0  0  0
  -25.6162   -1.3083   13.1386 H   0  0  0  0  0  0
  -24.9879   -2.9410   12.7309 H   0  0  0  0  0  0
  -22.9035   -3.2110   11.3160 H   0  0  0  0  0  0
  -22.0253   -1.7511   10.7467 H   0  0  0  0  0  0
  -23.8693   -0.2780   11.7406 H   0  0  0  0  0  0
  -21.3457   -0.3718   15.6750 H   0  0  0  0  0  0
  -22.4939    0.8258   11.5934 H   0  0  0  0  0  0
  -20.0593    1.7835   15.8809 H   0  0  0  0  0  0
  -21.1934    2.9592   11.8406 H   0  0  0  0  0  0
  1  2  2  0  0  0
  1  3  1  0  0  0
  1  4  1  0  0  0
  2  5  1  0  0  0
  2  6  1  0  0  0
  3  7  2  0  0  0
  3 32  1  0  0  0
  4  8  1  0  0  0
  4  9  2  0  0  0
  5 10  2  0  0  0
  5 33  1  0  0  0
  6 11  1  0  0  0
  7 10  1  0  0  0
  7 12  1  0  0  0
  8 13  1  0  0  0
  8 34  1  0  0  0
 10 14  1  0  0  0
 11 35  1  0  0  0
 11 36  1  0  0  0
 11 37  1  0  0  0
 12 15  3  0  0  0
 13 16  1  0  0  0
 13 38  1  0  0  0
 13 39  1  0  0  0
 16 17  1  0  0  0
 16 40  1  0  0  0
 16 41  1  0  0  0
 17 18  1  0  0  0
 17 19  1  0  0  0
 17 42  1  0  0  0
 18 20  1  0  0  0
 18 43  1  0  0  0
 18 44  1  0  0  0
 19 21  1  0  0  0
 19 45  1  0  0  0
 19 46  1  0  0  0
 20 22  1  0  0  0
 20 47  1  0  0  0
 20 48  1  0  0  0
 21 22  1  0  0  0
 21 49  1  0  0  0
 21 50  1  0  0  0
 22 23  1  0  0  0
 22 51  1  0  0  0
 23 24  1  0  0  0
 23 25  2  0  0  0
 24 26  2  0  0  0
 24 27  1  0  0  0
 26 28  1  0  0  0
 26 52  1  0  0  0
 27 29  2  0  0  0
 27 53  1  0  0  0
 28 30  2  0  0  0
 28 54  1  0  0  0
 29 30  1  0  0  0
 29 55  1  0  0  0
 30 31  1  0  0  0
M  CHG  1  17   1
M  END
> <s_m_source_file>
../4li7_ligand.sdf

> <i_m_source_file_index>
1

> <s_epik_input>
TiNDYyhbY0hdMSljKENsKVtjSF1jKE9bQ0gzXSljMUMoPU8pW05IXVtDSDJdW0NIMl1bTkBASCtdMltDSDJdW0NIMl1bQ0BIXShbQ0gyXVtDSDJdMilDKD1PKWMzW2NIXVtjSF1jKEYpW2NIXVtjSF0z

> <s_epik_cmdline>
J2VwaWtfYXBwJywgJy1pbWFlJywgJ2xpZ2FuZF9wcm8ubWFlJywgJy1vbWFlJywgJ2xpZ2FuZF9wcmVwLm1hZScsICctbXMnLCAnMScsICctcGgnLCAnNycsICctcGh0JywgJzAuNScsICctbnQn

> <r_lp_tautomer_probability>
0.99990000499975

> <r_epik_Ionization_Penalty>
  0.0253

> <r_epik_Ionization_Penalty_Charging>
  0.0253

> <r_epik_Ionization_Penalty_Neutral>
  0.0000

> <r_epik_State_Penalty>
  0.0206

> <r_epik_Charging_Adjusted_Penalty>
0.0458469321651626

> <i_epik_Tot_Q>
1

> <i_epik_Tot_abs_Q>
1

$$$$
