4lil_ligand
                    3D
 Schrodinger Suite 2020-3.
 13 12  0  0  1  0            999 V2000
   13.3920   57.8980    5.8870 P   0  0  0  0  0  0
   13.7690   57.0840    7.0770 O   0  0  0  0  0  0
   12.4700   57.0810    4.9490 O   0  5  0  0  0  0
   12.6240   59.1770    6.3420 O   0  0  0  0  0  0
   14.7040   58.2750    5.1120 O   0  5  0  0  0  0
   12.4500   59.6150    7.8540 P   0  0  0  0  0  0
   13.3380   58.7400    8.7390 O   0  5  0  0  0  0
   12.9060   60.9960    7.9820 O   0  0  0  0  0  0
   10.9250   59.5380    8.3120 O   0  0  0  0  0  0
   10.0820   58.2540    8.6630 P   0  0  0  0  0  0
    9.4280   58.3950   10.0640 O   0  5  0  0  0  0
   10.9930   57.0250    8.6500 O   0  5  0  0  0  0
    8.9610   58.0630    7.6690 O   0  0  0  0  0  0
  1  2  2  0  0  0
  1  3  1  0  0  0
  1  4  1  0  0  0
  1  5  1  0  0  0
  4  6  1  0  0  0
  6  7  1  0  0  0
  6  8  2  0  0  0
  6  9  1  0  0  0
  9 10  1  0  0  0
 10 11  1  0  0  0
 10 12  1  0  0  0
 10 13  2  0  0  0
M  CHG  5   3  -1   5  -1   7  -1  11  -1  12  -1
M  END
> <s_m_source_file>
../4lil_ligand.sdf

> <i_m_source_file_index>
1

> <s_epik_input>
Tz1QKFtPSF0pKFtPSF0pT1AoPU8pKFtPSF0pT1AoPU8pKFtPSF0pW09IXQ==

> <s_epik_cmdline>
J2VwaWtfYXBwJywgJy1pbWFlJywgJ2xpZ2FuZF9wcm8ubWFlJywgJy1vbWFlJywgJ2xpZ2FuZF9wcmVwLm1hZScsICctbXMnLCAnMScsICctcGgnLCAnNycsICctcGh0JywgJzAuNScsICctbnQn

> <r_epik_Ionization_Penalty>
  0.1850

> <r_epik_Ionization_Penalty_Charging>
  0.1850

> <r_epik_Ionization_Penalty_Neutral>
  0.0000

> <r_epik_State_Penalty>
  0.1781

> <r_epik_Charging_Adjusted_Penalty>
0.363129941793699

> <i_epik_Tot_Q>
-5

> <i_epik_Tot_abs_Q>
5

$$$$
