4lj3_ligand
                    3D
 Schrodinger Suite 2020-3.
 67 73  0  0  1  0            999 V2000
   14.0080    5.2660   24.8000 P   0  0  1  0  0  0
   13.8970    3.7750   24.8260 O   0  0  0  0  0  0
   12.7490    6.0180   25.1290 O   0  5  0  0  0  0
   15.2010    5.7020   25.7480 O   0  0  0  0  0  0
   15.2300    6.9140   26.4960 C   0  0  0  0  0  0
   15.7660    8.0640   25.6920 C   0  0  1  0  0  0
   15.4730    9.2540   26.4130 O   0  0  0  0  0  0
   17.2770    8.0220   25.5190 C   0  0  1  0  0  0
   17.7030    8.7260   24.3570 O   0  0  0  0  0  0
   17.7390    8.7170   26.7900 C   0  0  1  0  0  0
   19.1020    9.1930   26.8000 O   0  0  0  0  0  0
   16.7170    9.8370   26.7810 C   0  0  2  0  0  0
   16.5340   10.4810   28.0790 N   0  0  0  0  0  0
   16.5910    9.8940   29.3060 C   0  0  0  0  0  0
   16.3770   10.7800   30.2850 N   0  0  0  0  0  0
   16.1190   11.9520   29.6390 C   0  0  0  0  0  0
   15.7990   13.2910   30.1060 C   0  0  0  0  0  0
   15.7260   13.4970   31.3290 O   0  0  0  0  0  0
   15.6630   14.2330   29.1860 N   0  3  0  0  0  0
   15.7620   13.9860   27.8600 C   0  0  0  0  0  0
   15.5570   15.0030   27.0320 N   0  0  0  0  0  0
   16.0490   12.7760   27.3060 N   0  0  0  0  0  0
   16.2310   11.7500   28.1960 C   0  0  0  0  0  0
   18.7580    8.0940   23.3410 P   0  0  1  0  0  0
   18.9900    9.1660   22.3000 O   0  5  0  0  0  0
   19.7950    7.2860   23.9970 O   0  0  0  0  0  0
   17.7920    6.9940   22.6820 O   0  0  0  0  0  0
   16.7430    7.3690   21.8170 C   0  0  0  0  0  0
   15.9190    6.1410   21.5000 C   0  0  1  0  0  0
   16.7600    5.2570   20.7310 O   0  0  0  0  0  0
   15.4370    5.2920   22.6580 C   0  0  1  0  0  0
   14.2930    5.8450   23.3320 O   0  0  0  0  0  0
   15.2590    3.9600   21.9290 C   0  0  1  0  0  0
   13.9770    3.9190   21.3050 O   0  0  0  0  0  0
   16.3470    3.9210   20.8590 C   0  0  2  0  0  0
   17.4720    3.1000   21.3180 N   0  0  0  0  0  0
   18.4720    3.4750   22.1530 C   0  0  0  0  0  0
   19.3120    2.4440   22.3820 N   0  0  0  0  0  0
   18.8110    1.3950   21.6990 C   0  0  0  0  0  0
   19.1630   -0.0130   21.4740 C   0  0  0  0  0  0
   20.1830   -0.5040   22.0020 O   0  0  0  0  0  0
   18.3820   -0.7510   20.6640 N   0  0  0  0  0  0
   17.2710   -0.2880   20.0750 C   0  0  0  0  0  0
   16.5650   -1.1390   19.3000 N   0  0  0  0  0  0
   16.8630    0.9870   20.2330 N   0  0  0  0  0  0
   17.5990    1.8420   21.0050 C   0  0  0  0  0  0
   14.2103    7.1694   26.8199 H   0  0  0  0  0  0
   15.8736    6.7848   27.3787 H   0  0  0  0  0  0
   15.2706    8.0655   24.7099 H   0  0  0  0  0  0
   17.7066    7.0282   25.3245 H   0  0  0  0  0  0
   17.8242    8.0824   27.6845 H   0  0  0  0  0  0
   19.9353    8.4750   26.8071 H   0  0  0  0  0  0
   17.0196   10.6283   26.0794 H   0  0  0  0  0  0
   16.7866    8.8343   29.4701 H   0  0  0  0  0  0
   15.3221   16.0000   27.4330 H   0  0  0  0  0  0
   16.1145    8.1256   22.3094 H   0  0  0  0  0  0
   17.1634    7.7880   20.8909 H   0  0  0  0  0  0
   15.0321    6.5196   20.9707 H   0  0  0  0  0  0
   16.0625    5.2399   23.5613 H   0  0  0  0  0  0
   15.2701    3.0888   22.6005 H   0  0  0  0  0  0
   13.0651    3.9387   21.9199 H   0  0  0  0  0  0
   16.0322    3.5334   19.8789 H   0  0  0  0  0  0
   18.5823    4.4716   22.5804 H   0  0  0  0  0  0
   16.8825   -2.1006   19.1781 H   0  0  0  0  0  0
   15.9421    1.3347   19.7420 H   0  0  0  0  0  0
   15.6220   14.8488   25.9448 H   0  0  0  0  0  0
   15.4599   15.2712   29.4876 H   0  0  0  0  0  0
  1  2  2  0  0  0
  1  3  1  0  0  0
  1  4  1  0  0  0
  1 32  1  0  0  0
  4  5  1  0  0  0
  5  6  1  0  0  0
  5 47  1  0  0  0
  5 48  1  0  0  0
  6  7  1  0  0  0
  6  8  1  0  0  0
  6 49  1  0  0  0
  7 12  1  0  0  0
  8  9  1  0  0  0
  8 10  1  0  0  0
  8 50  1  0  0  0
  9 24  1  0  0  0
 10 11  1  0  0  0
 10 12  1  0  0  0
 10 51  1  0  0  0
 11 52  1  0  0  0
 12 13  1  0  0  0
 12 53  1  0  0  0
 13 14  1  0  0  0
 13 23  1  0  0  0
 14 15  2  0  0  0
 14 54  1  0  0  0
 15 16  1  0  0  0
 16 17  1  0  0  0
 16 23  2  0  0  0
 17 18  2  0  0  0
 17 19  1  0  0  0
 19 20  1  0  0  0
 19 67  1  0  0  0
 20 21  1  0  0  0
 20 22  2  0  0  0
 21 55  1  0  0  0
 21 66  1  0  0  0
 22 23  1  0  0  0
 24 25  1  0  0  0
 24 26  2  0  0  0
 24 27  1  0  0  0
 27 28  1  0  0  0
 28 29  1  0  0  0
 28 56  1  0  0  0
 28 57  1  0  0  0
 29 30  1  0  0  0
 29 31  1  0  0  0
 29 58  1  0  0  0
 30 35  1  0  0  0
 31 32  1  0  0  0
 31 33  1  0  0  0
 31 59  1  0  0  0
 33 34  1  0  0  0
 33 35  1  0  0  0
 33 60  1  0  0  0
 34 61  1  0  0  0
 35 36  1  0  0  0
 35 62  1  0  0  0
 36 37  1  0  0  0
 36 46  1  0  0  0
 37 38  2  0  0  0
 37 63  1  0  0  0
 38 39  1  0  0  0
 39 40  1  0  0  0
 39 46  2  0  0  0
 40 41  2  0  0  0
 40 42  1  0  0  0
 42 43  1  0  0  0
 43 44  2  0  0  0
 43 45  1  0  0  0
 44 64  1  0  0  0
 45 46  1  0  0  0
 45 65  1  0  0  0
M  CHG  3   3  -1  19   1  25  -1
M  END
> <s_m_source_file>
../4lj3_ligand.sdf

> <i_m_source_file_index>
1

> <s_epik_input>
Tz1jMVtuSF0vYyg9TlxbSF0pW25IXWMoYzEyKW4oW2NIXW4yKVtDQEhdKE8zKVtDQEhdKFtPSF0pW0NASF0oT1tQQF0oPU8pKFtPSF0pT1tDSDJdNClbQ0BIXTNbQ0gyXU9bUEBAXSg9TykoW09IXSlPW0NASF0oW0NAQEhdNDUpW0NAQEhdKFtPSF0pW0NAQEhdKE81KW4oW2NIXW42KWMoYzY3KVtuSF1jKD1OXFtIXSlcW25IXWM3PU8=

> <s_epik_cmdline>
J2VwaWtfYXBwJywgJy1pbWFlJywgJ2xpZ2FuZF9wcm8ubWFlJywgJy1vbWFlJywgJ2xpZ2FuZF9wcmVwLm1hZScsICctbXMnLCAnMScsICctcGgnLCAnNycsICctcGh0JywgJzAuNScsICctbnQn

> <r_epik_Ionization_Penalty>
  3.2341

> <r_epik_Ionization_Penalty_Charging>
  3.2333

> <r_epik_Ionization_Penalty_Neutral>
  0.0007

> <r_epik_State_Penalty>
  0.2212

> <r_epik_Charging_Adjusted_Penalty>
3.45456703105301

> <i_epik_Tot_Q>
-1

> <i_epik_Tot_abs_Q>
3

> <s_epik_Chemistry_Notes>
This compound has an imine and may undergo hydrolysis. This compound contains an acetal/aminal-like group ( X-CH(R)-Y where X, Y are N, S, or O) that may be acid/base labile, releasing an aldehyde.

$$$$
