4ljh_ligand
                    3D
 Schrodinger Suite 2020-3.
 41 43  0  0  1  0            999 V2000
   17.1490   16.6180   35.2720 C   0  0  0  0  0  0
   16.4580   15.3420   35.4700 N   0  0  0  0  0  0
   16.9010   14.1450   35.0280 C   0  0  0  0  0  0
   15.2670   15.2030   36.1290 C   0  0  0  0  0  0
   14.3780   16.1850   36.7920 C   0  0  0  0  0  0
   13.1880   15.7440   37.4120 C   0  0  0  0  0  0
   12.8310   14.3650   37.4000 C   0  0  0  0  0  0
   13.7130   13.3920   36.7380 C   0  0  0  0  0  0
   14.9150   13.8400   36.1250 C   0  0  0  0  0  0
   15.9520   13.1770   35.4240 C   0  0  0  0  0  0
   15.9720   11.7520   35.1930 O   0  0  0  0  0  0
   17.1190   11.3650   34.5910 C   0  0  1  0  0  0
   17.1720    9.8860   34.5630 C   0  0  1  0  0  0
   18.3440    9.4480   33.8740 C   0  0  2  0  0  0
   18.4780   10.0110   32.5380 C   0  0  2  0  0  0
   18.3000   11.4900   32.5600 C   0  0  1  0  0  0
   18.2510   12.0620   31.1560 C   0  0  0  0  0  0
   17.1890    9.4040   35.9400 O   0  0  0  0  0  0
   18.3310    7.9820   33.8090 O   0  0  0  0  0  0
   17.5000    9.3780   31.6690 O   0  0  0  0  0  0
   17.1270   11.8850   33.2320 O   0  0  0  0  0  0
   18.2650   13.4560   31.1270 O   0  0  0  0  0  0
   18.0810   16.4474   34.7132 H   0  0  0  0  0  0
   17.3841   17.0633   36.2500 H   0  0  0  0  0  0
   16.5009   17.3017   34.7041 H   0  0  0  0  0  0
   17.8191   13.9607   34.4701 H   0  0  0  0  0  0
   14.6409   17.2428   36.8014 H   0  0  0  0  0  0
   12.5365   16.4659   37.9044 H   0  0  0  0  0  0
   11.9097   14.0330   37.8786 H   0  0  0  0  0  0
   13.4471   12.3351   36.7175 H   0  0  0  0  0  0
   17.9389   11.7969   35.1837 H   0  0  0  0  0  0
   16.3129    9.4632   34.0215 H   0  0  0  0  0  0
   19.1991    9.8263   34.4533 H   0  0  0  0  0  0
   19.4856    9.7900   32.1561 H   0  0  0  0  0  0
   19.1287   11.8964   33.1585 H   0  0  0  0  0  0
   19.1237   11.7103   30.5861 H   0  0  0  0  0  0
   17.3289   11.7298   30.6567 H   0  0  0  0  0  0
   16.3587    9.6489   36.6187 H   0  0  0  0  0  0
   18.2358    7.3914   34.7321 H   0  0  0  0  0  0
   17.4999    8.2850   31.5454 H   0  0  0  0  0  0
   18.2329   13.9864   30.1639 H   0  0  0  0  0  0
  1  2  1  0  0  0
  1 23  1  0  0  0
  1 24  1  0  0  0
  1 25  1  0  0  0
  2  3  1  0  0  0
  2  4  1  0  0  0
  3 10  2  0  0  0
  3 26  1  0  0  0
  4  5  1  0  0  0
  4  9  2  0  0  0
  5  6  2  0  0  0
  5 27  1  0  0  0
  6  7  1  0  0  0
  6 28  1  0  0  0
  7  8  2  0  0  0
  7 29  1  0  0  0
  8  9  1  0  0  0
  8 30  1  0  0  0
  9 10  1  0  0  0
 10 11  1  0  0  0
 11 12  1  0  0  0
 12 13  1  0  0  0
 12 21  1  0  0  0
 12 31  1  0  0  0
 13 14  1  0  0  0
 13 18  1  0  0  0
 13 32  1  0  0  0
 14 15  1  0  0  0
 14 19  1  0  0  0
 14 33  1  0  0  0
 15 16  1  0  0  0
 15 20  1  0  0  0
 15 34  1  0  0  0
 16 17  1  0  0  0
 16 21  1  0  0  0
 16 35  1  0  0  0
 17 22  1  0  0  0
 17 36  1  0  0  0
 17 37  1  0  0  0
 18 38  1  0  0  0
 19 39  1  0  0  0
 20 40  1  0  0  0
 22 41  1  0  0  0
M  END
> <s_m_source_file>
../4ljh_ligand.sdf

> <i_m_source_file_index>
1

> <s_epik_input>
W2NIXTFbY0hdW2NIXVtjSF1jKGMxMiljKFtjSF1uMltDSDNdKU9bQ0BIXTNbQ0BIXShbT0hdKVtDQEBIXShbT0hdKVtDQEBIXShbT0hdKVtDQEhdKE8zKVtDSDJdW09IXQ==

> <s_epik_cmdline>
J2VwaWtfYXBwJywgJy1pbWFlJywgJ2xpZ2FuZF9wcm8ubWFlJywgJy1vbWFlJywgJ2xpZ2FuZF9wcmVwLm1hZScsICctbXMnLCAnMScsICctcGgnLCAnNycsICctcGh0JywgJzAuNScsICctbnQn

> <r_lp_tautomer_probability>
1

> <r_epik_Ionization_Penalty>
  0.0000

> <r_epik_Ionization_Penalty_Charging>
  0.0000

> <r_epik_Ionization_Penalty_Neutral>
  0.0000

> <r_epik_State_Penalty>
 -0.0000

> <r_epik_Charging_Adjusted_Penalty>
0

> <i_epik_Tot_Q>
0

> <i_epik_Tot_abs_Q>
0

> <s_epik_Chemistry_Notes>
This compound contains an acetal/aminal-like group ( X-CH(R)-Y where X, Y are N, S, or O) that may be acid/base labile, releasing an aldehyde.

$$$$
