4lk6_ligand
                    3D
 Schrodinger Suite 2020-3.
 61 64  0  0  1  0            999 V2000
  -23.9800   44.2910  -44.0320 O   0  0  0  0  0  0
  -23.3660   44.1410  -45.3550 S   0  0  0  0  0  0
  -22.1090   43.3880  -45.2320 O   0  5  0  0  0  0
  -23.0750   45.4740  -45.8850 O   0  0  0  0  0  0
  -24.4290   43.2920  -46.4750 C   0  0  0  0  0  0
  -24.4490   43.7430  -47.7910 C   0  0  0  0  0  0
  -25.2530   43.1270  -48.7490 C   0  0  0  0  0  0
  -26.0510   42.0520  -48.3950 C   0  0  0  0  0  0
  -26.0360   41.5910  -47.0790 C   0  0  0  0  0  0
  -25.2390   42.2000  -46.1190 C   0  0  0  0  0  0
  -25.3080   41.5850  -44.7000 C   0  0  2  0  0  0
  -26.0580   42.3800  -43.6120 C   0  0  0  0  0  0
  -26.0720   41.8810  -42.3080 C   0  0  0  0  0  0
  -26.7570   42.5700  -41.2880 C   0  0  0  0  0  0
  -26.7500   41.9400  -39.6780 Cl  0  0  0  0  0  0
  -27.4360   43.7500  -41.5860 C   0  0  0  0  0  0
  -28.1080   44.4280  -40.5900 O   0  0  0  0  0  0
  -27.4320   44.2480  -42.8960 C   0  0  0  0  0  0
  -26.7460   43.5570  -43.9160 C   0  0  0  0  0  0
  -23.9200   41.0020  -44.2890 C   0  0  0  0  0  0
  -23.4540   39.8960  -44.9970 C   0  0  0  0  0  0
  -22.2100   39.3120  -44.6740 C   0  0  0  0  0  0
  -21.6410   37.9350  -45.5640 Cl  0  0  0  0  0  0
  -23.1490   41.5470  -43.2430 C   0  0  0  0  0  0
  -21.9010   40.9670  -42.9210 C   0  0  0  0  0  0
  -21.4370   39.8510  -43.6370 C   0  0  0  0  0  0
  -20.1950   39.2550  -43.3340 O   0  0  0  0  0  0
  -19.8610   39.4770  -42.0440 C   0  0  1  0  0  0
  -19.6200   38.1580  -41.3920 C   0  0  1  0  0  0
  -18.9960   38.2750  -40.1180 C   0  0  2  0  0  0
  -17.7970   39.1110  -40.1680 C   0  0  2  0  0  0
  -18.1040   40.4710  -40.7440 C   0  0  1  0  0  0
  -16.8450   41.2700  -40.8550 C   0  0  0  0  0  0
  -20.8720   37.4710  -41.2460 O   0  0  0  0  0  0
  -18.6390   36.9480  -39.6490 O   0  0  0  0  0  0
  -16.8220   38.4840  -40.9630 O   0  0  0  0  0  0
  -18.6760   40.3690  -42.0140 O   0  0  0  0  0  0
  -16.7130   42.0790  -41.9780 O   0  0  0  0  0  0
  -23.8266   44.5908  -48.0774 H   0  0  0  0  0  0
  -25.2535   43.4914  -49.7763 H   0  0  0  0  0  0
  -26.6856   41.5702  -49.1388 H   0  0  0  0  0  0
  -26.6586   40.7408  -46.8002 H   0  0  0  0  0  0
  -26.0209   40.7511  -44.7807 H   0  0  0  0  0  0
  -25.5496   40.9524  -42.0778 H   0  0  0  0  0  0
  -28.1100   44.0356  -39.5624 H   0  0  0  0  0  0
  -27.9609   45.1726  -43.1272 H   0  0  0  0  0  0
  -26.7526   43.9395  -44.9367 H   0  0  0  0  0  0
  -24.0541   39.4789  -45.8057 H   0  0  0  0  0  0
  -23.5127   42.4103  -42.6858 H   0  0  0  0  0  0
  -21.2976   41.3863  -42.1159 H   0  0  0  0  0  0
  -20.7139   39.9839  -41.5691 H   0  0  0  0  0  0
  -18.9276   37.5612  -42.0039 H   0  0  0  0  0  0
  -19.7266   38.7516  -39.4478 H   0  0  0  0  0  0
  -17.3878   39.1904  -39.1500 H   0  0  0  0  0  0
  -18.8629   40.9772  -40.1294 H   0  0  0  0  0  0
  -16.7617   41.9451  -39.9905 H   0  0  0  0  0  0
  -15.9801   40.5906  -40.8743 H   0  0  0  0  0  0
  -21.5031   37.2845  -42.1274 H   0  0  0  0  0  0
  -19.4141   36.1744  -39.5451 H   0  0  0  0  0  0
  -16.4642   37.4770  -40.7025 H   0  0  0  0  0  0
  -15.8079   42.6894  -42.1128 H   0  0  0  0  0  0
  1  2  2  0  0  0
  2  3  1  0  0  0
  2  4  2  0  0  0
  2  5  1  0  0  0
  5  6  2  0  0  0
  5 10  1  0  0  0
  6  7  1  0  0  0
  6 39  1  0  0  0
  7  8  2  0  0  0
  7 40  1  0  0  0
  8  9  1  0  0  0
  8 41  1  0  0  0
  9 10  2  0  0  0
  9 42  1  0  0  0
 10 11  1  0  0  0
 11 12  1  0  0  0
 11 20  1  0  0  0
 11 43  1  0  0  0
 12 13  2  0  0  0
 12 19  1  0  0  0
 13 14  1  0  0  0
 13 44  1  0  0  0
 14 15  1  0  0  0
 14 16  2  0  0  0
 16 17  1  0  0  0
 16 18  1  0  0  0
 17 45  1  0  0  0
 18 19  2  0  0  0
 18 46  1  0  0  0
 19 47  1  0  0  0
 20 21  2  0  0  0
 20 24  1  0  0  0
 21 22  1  0  0  0
 21 48  1  0  0  0
 22 23  1  0  0  0
 22 26  2  0  0  0
 24 25  2  0  0  0
 24 49  1  0  0  0
 25 26  1  0  0  0
 25 50  1  0  0  0
 26 27  1  0  0  0
 27 28  1  0  0  0
 28 29  1  0  0  0
 28 37  1  0  0  0
 28 51  1  0  0  0
 29 30  1  0  0  0
 29 34  1  0  0  0
 29 52  1  0  0  0
 30 31  1  0  0  0
 30 35  1  0  0  0
 30 53  1  0  0  0
 31 32  1  0  0  0
 31 36  1  0  0  0
 31 54  1  0  0  0
 32 33  1  0  0  0
 32 37  1  0  0  0
 32 55  1  0  0  0
 33 38  1  0  0  0
 33 56  1  0  0  0
 33 57  1  0  0  0
 34 58  1  0  0  0
 35 59  1  0  0  0
 36 60  1  0  0  0
 38 61  1  0  0  0
M  CHG  1   3  -1
M  END
> <s_m_source_file>
../4lk6_ligand.sdf

> <i_m_source_file_index>
1

> <s_epik_input>
Tz1TKD1PKShbT0hdKWMxW2NIXVtjSF1bY0hdW2NIXWMxW0NASF0oYzJbY0hdYyhDbCljKFtPSF0pW2NIXVtjSF0yKWMzW2NIXWMoQ2wpYyhbY0hdW2NIXTMpT1tDQEhdNFtDQEhdKFtPSF0pW0NAQEhdKFtPSF0pW0NAQEhdKFtPSF0pW0NASF0oTzQpW0NIMl1bT0hd

> <s_epik_cmdline>
J2VwaWtfYXBwJywgJy1pbWFlJywgJ2xpZ2FuZF9wcm8ubWFlJywgJy1vbWFlJywgJ2xpZ2FuZF9wcmVwLm1hZScsICctbXMnLCAnMScsICctcGgnLCAnNycsICctcGh0JywgJzAuNScsICctbnQn

> <r_lp_tautomer_probability>
0.999999999997365

> <r_epik_Ionization_Penalty>
  0.0190

> <r_epik_Ionization_Penalty_Charging>
  0.0000

> <r_epik_Ionization_Penalty_Neutral>
  0.0190

> <r_epik_State_Penalty>
  0.0152

> <r_epik_Charging_Adjusted_Penalty>
0.0151560568920368

> <i_epik_Tot_Q>
-1

> <i_epik_Tot_abs_Q>
1

> <s_epik_Chemistry_Notes>
This compound contains an acetal/aminal-like group ( X-CH(R)-Y where X, Y are N, S, or O) that may be acid/base labile, releasing an aldehyde.

$$$$
