4lk7_ligand
                    3D
 Schrodinger Suite 2020-3.
 46 49  0  0  1  0            999 V2000
   18.2890   22.1740   35.1890 O   0  0  0  0  0  0
   16.9260   17.5360   35.1840 O   0  0  0  0  0  0
   14.9430   18.0740   37.0510 N   0  0  0  0  0  0
   15.6150   12.8500   35.1010 O   0  0  0  0  0  0
   15.6290   20.4470   37.0610 C   0  0  0  0  0  0
   16.4680   21.4650   36.5920 C   0  0  0  0  0  0
   17.4620   21.1700   35.6480 C   0  0  0  0  0  0
   17.6150   19.8610   35.1770 C   0  0  0  0  0  0
   16.7580   18.8180   35.6560 C   0  0  0  0  0  0
   15.7890   19.1120   36.5810 C   0  0  0  0  0  0
   15.1290   16.7540   36.5460 C   0  0  0  0  0  0
   16.1160   16.5140   35.6280 C   0  0  0  0  0  0
   16.3110   15.1860   35.1140 C   0  0  0  0  0  0
   15.4820   14.1480   35.5700 C   0  0  0  0  0  0
   14.4740   14.3990   36.5120 C   0  0  0  0  0  0
   14.2890   15.6940   37.0070 C   0  0  0  0  0  0
   16.8220   12.5730   34.5680 C   0  0  1  0  0  0
   16.9710   11.0890   34.5930 C   0  0  1  0  0  0
   18.1520   10.6430   33.9200 C   0  0  2  0  0  0
   18.2460   11.1600   32.5490 C   0  0  2  0  0  0
   18.0570   12.6640   32.5230 C   0  0  1  0  0  0
   18.0120   13.1720   31.1160 C   0  0  0  0  0  0
   16.9840   10.6580   35.9750 O   0  0  0  0  0  0
   18.1680    9.1820   33.9120 O   0  0  0  0  0  0
   17.2610   10.5520   31.7480 O   0  0  0  0  0  0
   16.8730   13.0570   33.1710 O   0  0  0  0  0  0
   17.9220   14.5460   30.9910 O   0  0  0  0  0  0
   18.1656   23.2016   35.5616 H   0  0  0  0  0  0
   14.1607   18.2952   37.7920 H   0  0  0  0  0  0
   14.8536   20.6737   37.7927 H   0  0  0  0  0  0
   16.3488   22.4842   36.9597 H   0  0  0  0  0  0
   18.3887   19.6345   34.4434 H   0  0  0  0  0  0
   17.0919   14.9871   34.3800 H   0  0  0  0  0  0
   13.8356   13.5861   36.8580 H   0  0  0  0  0  0
   13.5080   15.8936   37.7407 H   0  0  0  0  0  0
   17.5620   13.1043   35.1845 H   0  0  0  0  0  0
   16.1432   10.6082   34.0512 H   0  0  0  0  0  0
   19.0082   11.0411   34.4844 H   0  0  0  0  0  0
   19.2208   10.8686   32.1308 H   0  0  0  0  0  0
   18.8695   13.1351   33.0957 H   0  0  0  0  0  0
   18.9272   12.8678   30.5869 H   0  0  0  0  0  0
   17.1347   12.7518   30.6023 H   0  0  0  0  0  0
   16.1466   10.9167   36.6397 H   0  0  0  0  0  0
   18.1052    8.6261   34.8591 H   0  0  0  0  0  0
   17.2362    9.4573   31.6428 H   0  0  0  0  0  0
   17.8836   15.0061   29.9926 H   0  0  0  0  0  0
  1  7  1  0  0  0
  1 28  1  0  0  0
  2  9  1  0  0  0
  2 12  1  0  0  0
  3 10  1  0  0  0
  3 11  1  0  0  0
  3 29  1  0  0  0
  4 14  1  0  0  0
  4 17  1  0  0  0
  5  6  2  0  0  0
  5 10  1  0  0  0
  5 30  1  0  0  0
  6  7  1  0  0  0
  6 31  1  0  0  0
  7  8  2  0  0  0
  8  9  1  0  0  0
  8 32  1  0  0  0
  9 10  2  0  0  0
 11 12  2  0  0  0
 11 16  1  0  0  0
 12 13  1  0  0  0
 13 14  2  0  0  0
 13 33  1  0  0  0
 14 15  1  0  0  0
 15 16  2  0  0  0
 15 34  1  0  0  0
 16 35  1  0  0  0
 17 18  1  0  0  0
 17 26  1  0  0  0
 17 36  1  0  0  0
 18 19  1  0  0  0
 18 23  1  0  0  0
 18 37  1  0  0  0
 19 20  1  0  0  0
 19 24  1  0  0  0
 19 38  1  0  0  0
 20 21  1  0  0  0
 20 25  1  0  0  0
 20 39  1  0  0  0
 21 22  1  0  0  0
 21 26  1  0  0  0
 21 40  1  0  0  0
 22 27  1  0  0  0
 22 41  1  0  0  0
 22 42  1  0  0  0
 23 43  1  0  0  0
 24 44  1  0  0  0
 25 45  1  0  0  0
 27 46  1  0  0  0
M  END
> <s_m_source_file>
../4lk7_ligand.sdf

> <i_m_source_file_index>
1

> <s_epik_input>
W09IXWMoW2NIXTEpW2NIXVtjSF1jKGMxMilbTkhdYzNjKE8yKVtjSF1jKFtjSF1bY0hdMylPW0NASF00W0NASF0oW09IXSlbQ0BASF0oW09IXSlbQ0BASF0oW09IXSlbQ0BIXShPNClbQ0gyXVtPSF0=

> <s_epik_cmdline>
J2VwaWtfYXBwJywgJy1pbWFlJywgJ2xpZ2FuZF9wcm8ubWFlJywgJy1vbWFlJywgJ2xpZ2FuZF9wcmVwLm1hZScsICctbXMnLCAnMScsICctcGgnLCAnNycsICctcGh0JywgJzAuNScsICctbnQn

> <r_lp_tautomer_probability>
1

> <r_epik_Ionization_Penalty>
  0.0008

> <r_epik_Ionization_Penalty_Charging>
  0.0000

> <r_epik_Ionization_Penalty_Neutral>
  0.0008

> <r_epik_State_Penalty>
 -0.0000

> <r_epik_Charging_Adjusted_Penalty>
0

> <i_epik_Tot_Q>
0

> <i_epik_Tot_abs_Q>
0

> <s_epik_Chemistry_Notes>
This compound contains an acetal/aminal-like group ( X-CH(R)-Y where X, Y are N, S, or O) that may be acid/base labile, releasing an aldehyde.

$$$$
