4lkd_ligand
                    3D
 Schrodinger Suite 2020-3.
 90 91  0  0  1  0            999 V2000
  -19.4200   20.7010   22.7950 N   0  0  0  0  0  0
  -19.1300   19.6850   21.7890 C   0  0  2  0  0  0
  -20.3220   18.7440   21.6310 C   0  0  0  0  0  0
  -20.3960   17.7040   22.2830 O   0  0  0  0  0  0
  -17.8710   18.8960   22.1600 C   0  0  0  0  0  0
  -17.0920   18.3650   20.9610 C   0  0  0  0  0  0
  -16.3950   19.4660   20.1770 C   0  0  0  0  0  0
  -16.8930   20.5880   20.0760 O   0  0  0  0  0  0
  -15.2300   19.1490   19.6250 N   0  0  0  0  0  0
  -21.2510   19.1210   20.7560 N   0  0  0  0  0  0
  -22.5010   18.3890   20.5870 C   0  0  2  0  0  0
  -23.1260   18.1650   21.9580 C   0  0  0  0  0  0
  -23.5090   17.0440   22.3030 O   0  0  0  0  0  0
  -22.2530   17.0550   19.8720 C   0  0  0  0  0  0
  -21.2750   17.1610   18.7150 C   0  0  0  0  0  0
  -21.6880   18.2530   17.7420 C   0  0  0  0  0  0
  -20.5610   18.7170   16.9370 N   0  0  0  0  0  0
  -19.7830   19.7440   17.2650 C   0  0  0  0  0  0
  -20.0110   20.4190   18.3830 N   0  3  0  0  0  0
  -18.7770   20.0970   16.4770 N   0  0  0  0  0  0
  -23.2160   19.2480   22.7280 N   0  0  0  0  0  0
  -23.7140   19.2290   24.1020 C   0  0  2  0  0  0
  -22.6520   18.6560   25.0350 C   0  0  0  0  0  0
  -21.9700   17.6900   24.6910 O   0  0  0  0  0  0
  -25.0260   18.4610   24.2320 C   0  0  0  0  0  0
  -25.9970   18.9590   23.3460 O   0  0  0  0  0  0
  -22.5080   19.2620   26.2100 N   0  0  0  0  0  0
  -24.9370   25.0130   24.8140 C   0  0  1  0  0  0
  -25.6080   25.8960   25.8980 C   0  0  1  0  0  0
  -27.1020   25.5500   25.8690 C   0  0  2  0  0  0
  -27.6830   25.8320   24.4710 C   0  0  2  0  0  0
  -26.8880   25.0220   23.4150 C   0  0  1  0  0  0
  -27.2930   25.3600   21.9690 C   0  0  0  0  0  0
  -25.1350   25.5910   27.2020 O   0  0  0  0  0  0
  -27.7520   26.2860   26.8950 O   0  0  0  0  0  0
  -27.6320   27.2210   24.1590 O   0  0  0  0  0  0
  -25.4820   25.2720   23.5500 O   0  0  0  0  0  0
  -26.7200   24.4130   21.0850 O   0  0  0  0  0  0
  -20.1470   21.5400   22.0580 C   0  0  0  0  0  0
  -20.1270   21.5400   20.8260 O   0  0  0  0  0  0
  -21.0140   22.5140   22.8030 C   0  0  0  0  0  0
  -22.4100   22.3170   22.8810 C   0  0  0  0  0  0
  -23.2210   23.2320   23.5770 C   0  0  0  0  0  0
  -22.6620   24.3640   24.2040 C   0  0  0  0  0  0
  -21.2600   24.5610   24.1220 C   0  0  0  0  0  0
  -20.4480   23.6470   23.4300 C   0  0  0  0  0  0
  -23.5480   25.2020   24.8590 O   0  0  0  0  0  0
  -19.0341   20.5872   23.8188 H   0  0  0  0  0  0
  -18.9585   20.2342   20.8514 H   0  0  0  0  0  0
  -17.1872   19.5430   22.7290 H   0  0  0  0  0  0
  -18.1503   18.0275   22.7745 H   0  0  0  0  0  0
  -16.3220   17.6598   21.3072 H   0  0  0  0  0  0
  -17.7805   17.8488   20.2758 H   0  0  0  0  0  0
  -14.8242   18.1333   19.7420 H   0  0  0  0  0  0
  -14.6705   19.9020   19.0507 H   0  0  0  0  0  0
  -21.0517   20.0166   20.1492 H   0  0  0  0  0  0
  -23.1598   19.0123   19.9645 H   0  0  0  0  0  0
  -21.8406   16.3273   20.5864 H   0  0  0  0  0  0
  -23.2022   16.6739   19.4672 H   0  0  0  0  0  0
  -20.2731   17.3978   19.1024 H   0  0  0  0  0  0
  -21.2421   16.2039   18.1738 H   0  0  0  0  0  0
  -22.4613   17.8653   17.0625 H   0  0  0  0  0  0
  -22.0886   19.1108   18.3020 H   0  0  0  0  0  0
  -20.3120   18.2079   15.9942 H   0  0  0  0  0  0
  -20.8446   20.1297   19.0399 H   0  0  0  0  0  0
  -18.5841   19.5398   15.5484 H   0  0  0  0  0  0
  -18.1352   20.9471   16.7518 H   0  0  0  0  0  0
  -22.8890   20.1953   22.2746 H   0  0  0  0  0  0
  -23.9116   20.2824   24.3498 H   0  0  0  0  0  0
  -24.8535   17.3991   24.0025 H   0  0  0  0  0  0
  -25.4068   18.5569   25.2595 H   0  0  0  0  0  0
  -27.0001   18.5084   23.3195 H   0  0  0  0  0  0
  -23.1442   20.1217   26.4671 H   0  0  0  0  0  0
  -21.7527   18.9035   26.9248 H   0  0  0  0  0  0
  -25.0781   23.9277   24.9241 H   0  0  0  0  0  0
  -25.3651   26.9606   25.7654 H   0  0  0  0  0  0
  -27.3042   24.5014   26.1327 H   0  0  0  0  0  0
  -28.7597   25.6079   24.4484 H   0  0  0  0  0  0
  -27.0458   23.9510   23.6103 H   0  0  0  0  0  0
  -28.3889   25.3300   21.8786 H   0  0  0  0  0  0
  -26.9314   26.3668   21.7127 H   0  0  0  0  0  0
  -24.0786   25.7604   27.4575 H   0  0  0  0  0  0
  -27.4300   26.1737   27.9408 H   0  0  0  0  0  0
  -28.1446   27.9490   24.8050 H   0  0  0  0  0  0
  -26.8994   24.4921   20.0026 H   0  0  0  0  0  0
  -22.8623   21.4504   22.3988 H   0  0  0  0  0  0
  -24.2964   23.0632   23.6322 H   0  0  0  0  0  0
  -20.8081   25.4299   24.6005 H   0  0  0  0  0  0
  -19.3721   23.8132   23.3762 H   0  0  0  0  0  0
  -19.3666   21.2684   18.6538 H   0  0  0  0  0  0
  1  2  1  0  0  0
  1 39  1  0  0  0
  1 48  1  0  0  0
  2  3  1  0  0  0
  2  5  1  0  0  0
  2 49  1  0  0  0
  3  4  2  0  0  0
  3 10  1  0  0  0
  5  6  1  0  0  0
  5 50  1  0  0  0
  5 51  1  0  0  0
  6  7  1  0  0  0
  6 52  1  0  0  0
  6 53  1  0  0  0
  7  8  2  0  0  0
  7  9  1  0  0  0
  9 54  1  0  0  0
  9 55  1  0  0  0
 10 11  1  0  0  0
 10 56  1  0  0  0
 11 12  1  0  0  0
 11 14  1  0  0  0
 11 57  1  0  0  0
 12 13  2  0  0  0
 12 21  1  0  0  0
 14 15  1  0  0  0
 14 58  1  0  0  0
 14 59  1  0  0  0
 15 16  1  0  0  0
 15 60  1  0  0  0
 15 61  1  0  0  0
 16 17  1  0  0  0
 16 62  1  0  0  0
 16 63  1  0  0  0
 17 18  1  0  0  0
 17 64  1  0  0  0
 18 19  2  0  0  0
 18 20  1  0  0  0
 19 65  1  0  0  0
 19 90  1  0  0  0
 20 66  1  0  0  0
 20 67  1  0  0  0
 21 22  1  0  0  0
 21 68  1  0  0  0
 22 23  1  0  0  0
 22 25  1  0  0  0
 22 69  1  0  0  0
 23 24  2  0  0  0
 23 27  1  0  0  0
 25 26  1  0  0  0
 25 70  1  0  0  0
 25 71  1  0  0  0
 26 72  1  0  0  0
 27 73  1  0  0  0
 27 74  1  0  0  0
 28 29  1  0  0  0
 28 37  1  0  0  0
 28 47  1  0  0  0
 28 75  1  0  0  0
 29 30  1  0  0  0
 29 34  1  0  0  0
 29 76  1  0  0  0
 30 31  1  0  0  0
 30 35  1  0  0  0
 30 77  1  0  0  0
 31 32  1  0  0  0
 31 36  1  0  0  0
 31 78  1  0  0  0
 32 33  1  0  0  0
 32 37  1  0  0  0
 32 79  1  0  0  0
 33 38  1  0  0  0
 33 80  1  0  0  0
 33 81  1  0  0  0
 34 82  1  0  0  0
 35 83  1  0  0  0
 36 84  1  0  0  0
 38 85  1  0  0  0
 39 40  2  0  0  0
 39 41  1  0  0  0
 41 42  2  0  0  0
 41 46  1  0  0  0
 42 43  1  0  0  0
 42 86  1  0  0  0
 43 44  2  0  0  0
 43 87  1  0  0  0
 44 45  1  0  0  0
 44 47  1  0  0  0
 45 46  2  0  0  0
 45 88  1  0  0  0
 46 89  1  0  0  0
M  CHG  1  19   1
M  END
> <s_m_source_file>
../4lkd_ligand.sdf

> <i_m_source_file_index>
1

> <s_epik_input>
W0hdL049QyhbTkgyXSlcW05IXVtDSDJdW0NIMl1bQ0gyXVtDQEBIXShDKD1PKVtOSF1bQ0BIXShDKD1PKVtOSDJdKVtDSDJdW09IXSlbTkhdQyg9TylbQ0BIXShbQ0gyXVtDSDJdQyg9TylbTkgyXSlbTkhdQyg9TyljMVtjSF1bY0hdYyhbY0hdW2NIXTEpT1tDQEhdMltDQEhdKFtPSF0pW0NAQEhdKFtPSF0pW0NAQEhdKFtPSF0pW0NASF0oTzIpW0NIMl1bT0hd

> <s_epik_cmdline>
J2VwaWtfYXBwJywgJy1pbWFlJywgJ2xpZ2FuZF9wcm8ubWFlJywgJy1vbWFlJywgJ2xpZ2FuZF9wcmVwLm1hZScsICctbXMnLCAnMScsICctcGgnLCAnNycsICctcGh0JywgJzAuNScsICctbnQn

> <r_lp_tautomer_probability>
1

> <r_epik_Ionization_Penalty>
  0.0000

> <r_epik_Ionization_Penalty_Charging>
  0.0000

> <r_epik_Ionization_Penalty_Neutral>
  0.0000

> <r_epik_State_Penalty>
 -0.0000

> <r_epik_Charging_Adjusted_Penalty>
1.5689896295643e-05

> <i_epik_Tot_Q>
1

> <i_epik_Tot_abs_Q>
1

> <s_epik_Chemistry_Notes>
This compound has an imine and may undergo hydrolysis. This compound contains an acetal/aminal-like group ( X-CH(R)-Y where X, Y are N, S, or O) that may be acid/base labile, releasing an aldehyde.

$$$$
