4lkf_ligand
                    3D
 Schrodinger Suite 2020-3.
105109  0  0  1  0            999 V2000
   -4.3260   -1.1760   11.3400 N   0  0  0  0  0  0
   -3.3180   -2.1660   10.9480 C   0  0  2  0  0  0
   -1.9020   -1.5960   10.9570 C   0  0  0  0  0  0
   -1.6570   -0.4840   10.4830 O   0  0  0  0  0  0
   -3.6050   -2.7480    9.5610 C   0  0  0  0  0  0
   -2.6250   -3.8430    9.1810 C   0  0  0  0  0  0
   -1.9730   -4.6940   10.0360 C   0  0  0  0  0  0
   -2.1800   -4.1910    7.8600 C   0  0  0  0  0  0
   -1.1560   -5.5500    9.3280 N   0  3  0  0  0  0
   -1.2670   -5.2630    7.9920 C   0  0  0  0  0  0
   -2.4650   -3.7040    6.5800 C   0  0  0  0  0  0
   -0.6400   -5.8510    6.8930 C   0  0  0  0  0  0
   -1.8390   -4.2910    5.4900 C   0  0  0  0  0  0
   -0.9400   -5.3530    5.6550 C   0  0  0  0  0  0
   -0.9770   -2.3710   11.5140 N   0  0  0  0  0  0
    0.4440   -2.0970   11.3850 C   0  0  2  0  0  0
    0.7160   -2.2970    9.9070 C   0  0  0  0  0  0
    0.3270   -3.3230    9.3550 O   0  0  0  0  0  0
    1.2350   -3.1130   12.2130 C   0  0  0  0  0  0
    2.7390   -2.8990   12.2660 C   0  0  0  0  0  0
    3.3810   -3.9920   13.1280 C   0  0  0  0  0  0
    4.8050   -3.6450   13.5410 C   0  0  0  0  0  0
    5.2940   -4.5950   14.5890 N   0  3  0  0  0  0
    1.3400   -1.3100    9.2650 N   0  0  0  0  0  0
    1.5920   -1.3410    7.8150 C   0  0  2  0  0  0
    0.5230   -0.6190    6.9930 C   0  0  0  0  0  0
    0.1220   -1.0900    5.9260 O   0  0  0  0  0  0
    1.7950   -2.7790    7.3080 C   0  0  0  0  0  0
    2.9800   -3.4340    7.9670 C   0  0  0  0  0  0
    4.2660   -3.0240    7.6550 C   0  0  0  0  0  0
    2.8170   -4.4300    8.9260 C   0  0  0  0  0  0
    5.3500   -3.5880    8.2530 C   0  0  0  0  0  0
    3.9100   -5.0050    9.5380 C   0  0  0  0  0  0
    5.1720   -4.5710    9.1910 C   0  0  0  0  0  0
    6.2870   -5.1100    9.7690 O   0  0  0  0  0  0
    0.0810    0.5340    7.4900 N   0  0  0  0  0  0
   -9.3120    2.4810   15.2190 C   0  0  1  0  0  0
   -9.8450    3.9060   15.5260 C   0  0  1  0  0  0
  -10.5580    3.8830   16.8850 C   0  0  2  0  0  0
  -11.6780    2.8350   16.8510 C   0  0  2  0  0  0
  -11.1040    1.4610   16.4170 C   0  0  1  0  0  0
  -12.2050    0.3940   16.2450 C   0  0  0  0  0  0
   -8.7950    4.8610   15.5940 O   0  0  0  0  0  0
  -11.0950    5.1870   17.1210 O   0  0  0  0  0  0
  -12.6950    3.2950   15.9620 O   0  0  0  0  0  0
  -10.3710    1.5650   15.1880 O   0  0  0  0  0  0
  -11.6210   -0.8650   15.9680 O   0  0  0  0  0  0
   -4.7070   -1.3290   12.6150 C   0  0  0  0  0  0
   -3.9130   -1.6900   13.4880 O   0  0  0  0  0  0
   -5.7590   -0.3150   12.9620 C   0  0  0  0  0  0
   -6.1390    0.6480   12.0080 C   0  0  0  0  0  0
   -7.1080    1.6070   12.3430 C   0  0  0  0  0  0
   -7.7160    1.6070   13.6160 C   0  0  0  0  0  0
   -7.3410    0.6440   14.5710 C   0  0  0  0  0  0
   -6.3540   -0.3100   14.2380 C   0  0  0  0  0  0
   -8.6600    2.5340   13.9920 O   0  0  0  0  0  0
   -4.6753   -0.4289   10.6121 H   0  0  0  0  0  0
   -3.4135   -2.9377   11.7260 H   0  0  0  0  0  0
   -4.6177   -3.1773    9.5459 H   0  0  0  0  0  0
   -3.5335   -1.9505    8.8067 H   0  0  0  0  0  0
   -2.1458   -4.6235   11.1201 H   0  0  0  0  0  0
   -3.1649   -2.8799    6.4418 H   0  0  0  0  0  0
    0.0620   -6.6757    7.0163 H   0  0  0  0  0  0
   -2.0503   -3.9194    4.4873 H   0  0  0  0  0  0
   -0.4686   -5.7926    4.7760 H   0  0  0  0  0  0
   -1.3187   -3.2448   12.0882 H   0  0  0  0  0  0
    0.6873   -1.0844   11.7391 H   0  0  0  0  0  0
    0.8851   -3.0882   13.2556 H   0  0  0  0  0  0
    1.0833   -4.1208   11.7992 H   0  0  0  0  0  0
    3.1521   -2.9455   11.2476 H   0  0  0  0  0  0
    2.9539   -1.9132   12.7041 H   0  0  0  0  0  0
    2.7872   -4.1333   14.0431 H   0  0  0  0  0  0
    3.4120   -4.9346   12.5618 H   0  0  0  0  0  0
    5.4668   -3.7087   12.6646 H   0  0  0  0  0  0
    4.8305   -2.6226   13.9461 H   0  0  0  0  0  0
    6.3225   -4.3287   14.8741 H   0  0  0  0  0  0
    5.2776   -5.6203   14.1908 H   0  0  0  0  0  0
    4.6413   -4.5342   15.4723 H   0  0  0  0  0  0
    1.6711   -0.4478    9.8625 H   0  0  0  0  0  0
    2.5260   -0.7688    7.7139 H   0  0  0  0  0  0
    0.8985   -3.3763    7.5307 H   0  0  0  0  0  0
    1.9650   -2.7641    6.2213 H   0  0  0  0  0  0
    4.4119   -2.2352    6.9170 H   0  0  0  0  0  0
    1.8135   -4.7589    9.1960 H   0  0  0  0  0  0
    6.3549   -3.2597    7.9874 H   0  0  0  0  0  0
    3.7790   -5.7893   10.2835 H   0  0  0  0  0  0
    7.2853   -4.7505    9.4790 H   0  0  0  0  0  0
    0.4741    0.9070    8.4472 H   0  0  0  0  0  0
   -0.6774    1.1138    6.9435 H   0  0  0  0  0  0
   -8.5991    2.0548   15.9402 H   0  0  0  0  0  0
  -10.4824    4.2672   14.7055 H   0  0  0  0  0  0
   -9.8744    3.6810   17.7228 H   0  0  0  0  0  0
  -12.1873    2.7342   17.8208 H   0  0  0  0  0  0
  -10.3697    1.1406   17.1708 H   0  0  0  0  0  0
  -12.7948    0.3232   17.1708 H   0  0  0  0  0  0
  -12.8640    0.6782   15.4113 H   0  0  0  0  0  0
   -8.1533    5.0362   14.7179 H   0  0  0  0  0  0
  -10.4237    6.0567   17.1751 H   0  0  0  0  0  0
  -13.1926    4.2584   16.1470 H   0  0  0  0  0  0
  -12.2610   -1.7465   15.8153 H   0  0  0  0  0  0
   -5.6845    0.6490   11.0173 H   0  0  0  0  0  0
   -7.3943    2.3613   11.6101 H   0  0  0  0  0  0
   -7.8068    0.6343   15.5564 H   0  0  0  0  0  0
   -6.0495   -1.0508   14.9774 H   0  0  0  0  0  0
   -0.5564   -6.3035    9.8597 H   0  0  0  0  0  0
  1  2  1  0  0  0
  1 48  1  0  0  0
  1 57  1  0  0  0
  2  3  1  0  0  0
  2  5  1  0  0  0
  2 58  1  0  0  0
  3  4  2  0  0  0
  3 15  1  0  0  0
  5  6  1  0  0  0
  5 59  1  0  0  0
  5 60  1  0  0  0
  6  7  2  0  0  0
  6  8  1  0  0  0
  7  9  1  0  0  0
  7 61  1  0  0  0
  8 10  2  0  0  0
  8 11  1  0  0  0
  9 10  1  0  0  0
  9105  1  0  0  0
 10 12  1  0  0  0
 11 13  2  0  0  0
 11 62  1  0  0  0
 12 14  2  0  0  0
 12 63  1  0  0  0
 13 14  1  0  0  0
 13 64  1  0  0  0
 14 65  1  0  0  0
 15 16  1  0  0  0
 15 66  1  0  0  0
 16 17  1  0  0  0
 16 19  1  0  0  0
 16 67  1  0  0  0
 17 18  2  0  0  0
 17 24  1  0  0  0
 19 20  1  0  0  0
 19 68  1  0  0  0
 19 69  1  0  0  0
 20 21  1  0  0  0
 20 70  1  0  0  0
 20 71  1  0  0  0
 21 22  1  0  0  0
 21 72  1  0  0  0
 21 73  1  0  0  0
 22 23  1  0  0  0
 22 74  1  0  0  0
 22 75  1  0  0  0
 23 76  1  0  0  0
 23 77  1  0  0  0
 23 78  1  0  0  0
 24 25  1  0  0  0
 24 79  1  0  0  0
 25 26  1  0  0  0
 25 28  1  0  0  0
 25 80  1  0  0  0
 26 27  2  0  0  0
 26 36  1  0  0  0
 28 29  1  0  0  0
 28 81  1  0  0  0
 28 82  1  0  0  0
 29 30  2  0  0  0
 29 31  1  0  0  0
 30 32  1  0  0  0
 30 83  1  0  0  0
 31 33  2  0  0  0
 31 84  1  0  0  0
 32 34  2  0  0  0
 32 85  1  0  0  0
 33 34  1  0  0  0
 33 86  1  0  0  0
 34 35  1  0  0  0
 35 87  1  0  0  0
 36 88  1  0  0  0
 36 89  1  0  0  0
 37 38  1  0  0  0
 37 46  1  0  0  0
 37 56  1  0  0  0
 37 90  1  0  0  0
 38 39  1  0  0  0
 38 43  1  0  0  0
 38 91  1  0  0  0
 39 40  1  0  0  0
 39 44  1  0  0  0
 39 92  1  0  0  0
 40 41  1  0  0  0
 40 45  1  0  0  0
 40 93  1  0  0  0
 41 42  1  0  0  0
 41 46  1  0  0  0
 41 94  1  0  0  0
 42 47  1  0  0  0
 42 95  1  0  0  0
 42 96  1  0  0  0
 43 97  1  0  0  0
 44 98  1  0  0  0
 45 99  1  0  0  0
 47100  1  0  0  0
 48 49  2  0  0  0
 48 50  1  0  0  0
 50 51  2  0  0  0
 50 55  1  0  0  0
 51 52  1  0  0  0
 51101  1  0  0  0
 52 53  2  0  0  0
 52102  1  0  0  0
 53 54  1  0  0  0
 53 56  1  0  0  0
 54 55  2  0  0  0
 54103  1  0  0  0
 55104  1  0  0  0
M  CHG  2   9   1  23   1
M  END
> <s_m_source_file>
../4lkf_ligand.sdf

> <i_m_source_file_index>
1

> <s_epik_input>
W09IXVtDSDJdW0NAQEhdKE8xKVtDQEhdKFtPSF0pW0NASF0oW09IXSlbQ0BASF0oW09IXSlbQ0BASF0xT2MoW2NIXVtjSF0yKVtjSF1bY0hdYzJDKD1PKVtOSF1bQ0BASF0oW0NIMl1jM1tjSF1bbkhdYyhjMzQpW2NIXVtjSF1bY0hdW2NIXTQpQyg9TylbTkhdW0NAQEhdKFtDSDJdW0NIMl1bQ0gyXVtDSDJdW05IMytdKUMoPU8pW05IXVtDQEhdKEMoPU8pW05IMl0pW0NIMl1jNVtjSF1bY0hdYyhbT0hdKVtjSF1bY0hdNQ==

> <s_epik_cmdline>
J2VwaWtfYXBwJywgJy1pbWFlJywgJ2xpZ2FuZF9wcm8ubWFlJywgJy1vbWFlJywgJ2xpZ2FuZF9wcmVwLm1hZScsICctbXMnLCAnMScsICctcGgnLCAnNycsICctcGh0JywgJzAuNScsICctbnQn

> <r_lp_tautomer_probability>
1

> <r_epik_Ionization_Penalty>
  0.0015

> <r_epik_Ionization_Penalty_Charging>
  0.0004

> <r_epik_Ionization_Penalty_Neutral>
  0.0011

> <r_epik_State_Penalty>
 -0.0000

> <r_epik_Charging_Adjusted_Penalty>
0.000447057270174381

> <i_epik_Tot_Q>
2

> <i_epik_Tot_abs_Q>
2

> <s_epik_Chemistry_Notes>
This compound contains an acetal/aminal-like group ( X-CH(R)-Y where X, Y are N, S, or O) that may be acid/base labile, releasing an aldehyde.

$$$$
