4lkg_ligand
                    3D
 Schrodinger Suite 2020-3.
 87 89  0  0  1  0            999 V2000
   29.9380  -23.6890   34.6090 C   0  0  0  0  0  0
   30.2100  -23.4010   36.0630 C   0  0  1  0  0  0
   29.1160  -24.0290   36.9180 C   0  0  0  0  0  0
   29.1320  -25.5480   36.7930 C   0  0  1  0  0  0
   30.5390  -26.0990   36.9940 C   0  0  2  0  0  0
   31.5480  -25.3450   36.1370 C   0  0  2  0  0  0
   32.9650  -25.8430   36.3960 C   0  0  1  0  0  0
   33.9970  -24.8680   35.8420 C   0  0  1  0  0  0
   35.2860  -25.5900   35.4680 C   0  0  0  0  0  0
   31.2520  -28.3810   37.4080 C   0  0  0  0  0  0
   31.1650  -29.8140   36.9730 C   0  0  0  0  0  0
   30.5690  -27.5120   36.6690 N   0  0  0  0  0  0
   28.7570  -23.6480   34.2030 O   0  0  0  0  0  0
   30.9050  -23.9580   33.8630 O   0  5  0  0  0  0
   28.2530  -26.1160   37.7700 O   0  0  0  0  0  0
   31.4740  -23.9510   36.4280 O   0  0  0  0  0  0
   33.1650  -26.0000   37.8050 O   0  0  0  0  0  0
   33.4630  -24.2140   34.6860 O   0  0  0  0  0  0
   36.3100  -24.6270   35.1930 O   0  0  0  0  0  0
   31.9070  -28.0350   38.3770 O   0  0  0  0  0  0
   32.1270  -19.0370   35.5470 C   0  0  1  0  0  0
   31.6410  -20.2420   36.3560 C   0  0  1  0  0  0
   30.6720  -21.0930   35.5530 C   0  0  2  0  0  0
   29.5830  -20.2790   34.8850 C   0  0  2  0  0  0
   30.1940  -19.0840   34.1670 C   0  0  1  0  0  0
   29.1210  -18.1860   33.5650 C   0  0  0  0  0  0
   32.7310  -21.0490   36.7470 O   0  0  0  0  0  0
   30.0450  -22.0010   36.4110 O   0  0  0  0  0  0
   28.6530  -19.8760   35.8600 O   0  0  0  0  0  0
   30.9940  -18.3370   35.0630 O   0  0  0  0  0  0
   29.7410  -17.0330   33.0410 O   0  0  0  0  0  0
   36.5130  -16.3620   37.0360 C   0  0  2  0  0  0
   35.7160  -15.7340   35.8950 C   0  0  1  0  0  0
   34.3770  -16.4290   35.6230 C   0  0  2  0  0  0
   34.3180  -17.9300   35.9270 C   0  0  1  0  0  0
   35.2720  -18.3500   37.0420 C   0  0  1  0  0  0
   35.4510  -19.8630   37.0510 C   0  0  0  0  0  0
   35.8450  -13.3370   35.4640 C   0  0  0  0  0  0
   34.8790  -12.2010   35.2780 C   0  0  0  0  0  0
   35.4170  -14.3520   36.2090 N   0  0  0  0  0  0
   37.8340  -15.8690   37.0480 O   0  0  0  0  0  0
   34.0300  -16.2150   34.2690 O   0  0  0  0  0  0
   33.0020  -18.2170   36.3580 O   0  0  0  0  0  0
   36.5440  -17.7620   36.8920 O   0  0  0  0  0  0
   36.1890  -20.2590   38.1850 O   0  0  0  0  0  0
   36.9590  -13.3110   34.9390 O   0  0  0  0  0  0
   29.2748  -23.7595   37.9726 H   0  0  0  0  0  0
   28.1344  -23.6576   36.5884 H   0  0  0  0  0  0
   28.7452  -25.8502   35.8086 H   0  0  0  0  0  0
   30.8211  -26.0162   38.0540 H   0  0  0  0  0  0
   31.2952  -25.4525   35.0719 H   0  0  0  0  0  0
   33.1047  -26.8369   35.9459 H   0  0  0  0  0  0
   34.2064  -24.0795   36.5798 H   0  0  0  0  0  0
   35.6017  -26.2327   36.3030 H   0  0  0  0  0  0
   35.1141  -26.2079   34.5743 H   0  0  0  0  0  0
   30.5236  -29.8885   36.0825 H   0  0  0  0  0  0
   30.7358  -30.4184   37.7857 H   0  0  0  0  0  0
   32.1718  -30.1857   36.7319 H   0  0  0  0  0  0
   30.0184  -27.8868   35.7936 H   0  0  0  0  0  0
   27.1895  -25.8354   37.7823 H   0  0  0  0  0  0
   32.5106  -26.6698   38.3821 H   0  0  0  0  0  0
   32.5289  -23.6381   34.7622 H   0  0  0  0  0  0
   37.3170  -24.9623   34.9041 H   0  0  0  0  0  0
   32.7141  -19.2856   34.6506 H   0  0  0  0  0  0
   31.1763  -19.8952   37.2908 H   0  0  0  0  0  0
   31.2367  -21.6653   34.8023 H   0  0  0  0  0  0
   28.9933  -20.8794   34.1766 H   0  0  0  0  0  0
   30.8802  -19.4333   33.3814 H   0  0  0  0  0  0
   28.5977  -18.7271   32.7628 H   0  0  0  0  0  0
   28.4004  -17.9015   34.3459 H   0  0  0  0  0  0
   33.5494  -20.6173   37.3419 H   0  0  0  0  0  0
   28.1271  -20.6304   36.4635 H   0  0  0  0  0  0
   29.1336  -16.2530   32.5586 H   0  0  0  0  0  0
   36.0820  -16.1453   38.0246 H   0  0  0  0  0  0
   36.3528  -15.7787   34.9992 H   0  0  0  0  0  0
   33.6176  -15.9471   36.2563 H   0  0  0  0  0  0
   34.5395  -18.5104   35.0192 H   0  0  0  0  0  0
   34.8929  -17.9648   38.0001 H   0  0  0  0  0  0
   34.4644  -20.3488   37.0758 H   0  0  0  0  0  0
   35.9901  -20.1739   36.1439 H   0  0  0  0  0  0
   33.9490  -12.4174   35.8241 H   0  0  0  0  0  0
   34.6562  -12.0807   34.2075 H   0  0  0  0  0  0
   35.3248  -11.2733   35.6662 H   0  0  0  0  0  0
   34.8128  -14.1076   37.0951 H   0  0  0  0  0  0
   38.0172  -14.7895   37.1530 H   0  0  0  0  0  0
   34.0152  -15.1941   33.8598 H   0  0  0  0  0  0
   36.4127  -21.3230   38.3516 H   0  0  0  0  0  0
  1  2  1  0  0  0
  1 13  2  0  0  0
  1 14  1  0  0  0
  2  3  1  0  0  0
  2 16  1  0  0  0
  2 28  1  0  0  0
  3  4  1  0  0  0
  3 47  1  0  0  0
  3 48  1  0  0  0
  4  5  1  0  0  0
  4 15  1  0  0  0
  4 49  1  0  0  0
  5  6  1  0  0  0
  5 12  1  0  0  0
  5 50  1  0  0  0
  6  7  1  0  0  0
  6 16  1  0  0  0
  6 51  1  0  0  0
  7  8  1  0  0  0
  7 17  1  0  0  0
  7 52  1  0  0  0
  8  9  1  0  0  0
  8 18  1  0  0  0
  8 53  1  0  0  0
  9 19  1  0  0  0
  9 54  1  0  0  0
  9 55  1  0  0  0
 10 11  1  0  0  0
 10 12  1  0  0  0
 10 20  2  0  0  0
 11 56  1  0  0  0
 11 57  1  0  0  0
 11 58  1  0  0  0
 12 59  1  0  0  0
 15 60  1  0  0  0
 17 61  1  0  0  0
 18 62  1  0  0  0
 19 63  1  0  0  0
 21 22  1  0  0  0
 21 30  1  0  0  0
 21 43  1  0  0  0
 21 64  1  0  0  0
 22 23  1  0  0  0
 22 27  1  0  0  0
 22 65  1  0  0  0
 23 24  1  0  0  0
 23 28  1  0  0  0
 23 66  1  0  0  0
 24 25  1  0  0  0
 24 29  1  0  0  0
 24 67  1  0  0  0
 25 26  1  0  0  0
 25 30  1  0  0  0
 25 68  1  0  0  0
 26 31  1  0  0  0
 26 69  1  0  0  0
 26 70  1  0  0  0
 27 71  1  0  0  0
 29 72  1  0  0  0
 31 73  1  0  0  0
 32 33  1  0  0  0
 32 41  1  0  0  0
 32 44  1  0  0  0
 32 74  1  0  0  0
 33 34  1  0  0  0
 33 40  1  0  0  0
 33 75  1  0  0  0
 34 35  1  0  0  0
 34 42  1  0  0  0
 34 76  1  0  0  0
 35 36  1  0  0  0
 35 43  1  0  0  0
 35 77  1  0  0  0
 36 37  1  0  0  0
 36 44  1  0  0  0
 36 78  1  0  0  0
 37 45  1  0  0  0
 37 79  1  0  0  0
 37 80  1  0  0  0
 38 39  1  0  0  0
 38 40  1  0  0  0
 38 46  2  0  0  0
 39 81  1  0  0  0
 39 82  1  0  0  0
 39 83  1  0  0  0
 40 84  1  0  0  0
 41 85  1  0  0  0
 42 86  1  0  0  0
 45 87  1  0  0  0
M  CHG  1  14  -1
M  END
> <s_m_source_file>
../4lkg_ligand.sdf

> <i_m_source_file_index>
1

> <s_epik_input>
W09IXVtDSDJdW0NAQEhdKFtPSF0pW0NAQEhdKFtPSF0pW0NASF0oTzEpW0NASF0oW05IXUMoPU8pW0NIM10pW0NAQEhdKFtPSF0pW0NIMl1bQ0BAXTEoQyg9TylbT0hdKU9bQ0BASF0oW0NAQEhdKFtPSF0pW0NASF0oTzIpW0NIMl1bT0hdKVtDQEBIXShbT0hdKVtDQEBIXTJPW0NASF0oW0NASF0oTzMpW0NIMl1bT0hdKVtDQEhdKFtPSF0pW0NASF0oW0NAQEhdM1tPSF0pW05IXUMoPU8pW0NIM10=

> <s_epik_cmdline>
J2VwaWtfYXBwJywgJy1pbWFlJywgJ2xpZ2FuZF9wcm8ubWFlJywgJy1vbWFlJywgJ2xpZ2FuZF9wcmVwLm1hZScsICctbXMnLCAnMScsICctcGgnLCAnNycsICctcGh0JywgJzAuNScsICctbnQn

> <r_lp_tautomer_probability>
1

> <r_epik_Ionization_Penalty>
  0.0000

> <r_epik_Ionization_Penalty_Charging>
  0.0000

> <r_epik_Ionization_Penalty_Neutral>
  0.0000

> <r_epik_State_Penalty>
 -0.0000

> <r_epik_Charging_Adjusted_Penalty>
9.90123822354334e-06

> <i_epik_Tot_Q>
-1

> <i_epik_Tot_abs_Q>
1

> <s_epik_Chemistry_Notes>
This compound contains an acetal/aminal-like group ( X-CH(R)-Y where X, Y are N, S, or O) that may be acid/base labile, releasing an aldehyde.

$$$$
