4lkh_ligand
                    3D
 Schrodinger Suite 2020-3.
 39 39  0  0  1  0            999 V2000
   12.7870   23.4590   13.4840 C   0  0  0  0  0  0
   12.5550   23.3340   12.0110 C   0  0  2  0  0  0
   13.8660   23.6010   11.2860 C   0  0  0  0  0  0
   14.8150   22.4720   11.4930 C   0  0  1  0  0  0
   14.2950   21.1840   11.1810 C   0  0  2  0  0  0
   12.9610   20.9230   11.8620 C   0  0  2  0  0  0
   12.2860   19.6390   11.5330 C   0  0  1  0  0  0
   10.8490   19.7260   11.9600 C   0  0  1  0  0  0
   10.3550   18.3890   12.4330 C   0  0  0  0  0  0
   15.6160   19.0120   10.7680 C   0  0  0  0  0  0
   16.7040   18.1000   11.1980 C   0  0  0  0  0  0
   15.3810   20.2030   11.5370 N   0  0  0  0  0  0
   12.1250   22.7780   14.3110 O   0  0  0  0  0  0
   13.6570   24.2670   13.9070 O   0  5  0  0  0  0
   11.6380   24.2940   11.6940 O   0  0  0  0  0  0
   16.0110   22.7380   10.7230 O   0  0  0  0  0  0
   12.0070   22.0740   11.7090 O   0  0  0  0  0  0
   12.3420   19.4060   10.1700 O   0  0  0  0  0  0
   10.7200   20.6280   12.9940 O   0  0  0  0  0  0
    9.1240   18.3450   13.0610 O   0  0  0  0  0  0
   14.9440   18.7260    9.7880 O   0  0  0  0  0  0
   13.6731   23.7130   10.2089 H   0  0  0  0  0  0
   14.3188   24.5247   11.6754 H   0  0  0  0  0  0
   15.0422   22.3830   12.5656 H   0  0  0  0  0  0
   14.0777   21.1473   10.1033 H   0  0  0  0  0  0
   13.2299   20.8063   12.9222 H   0  0  0  0  0  0
   12.8142   18.7876   11.9871 H   0  0  0  0  0  0
   10.2313   20.1221   11.1405 H   0  0  0  0  0  0
   10.2664   17.7064   11.5750 H   0  0  0  0  0  0
   11.0661   17.9720   13.1613 H   0  0  0  0  0  0
   17.1981   18.5135   12.0895 H   0  0  0  0  0  0
   17.4388   17.9974   10.3859 H   0  0  0  0  0  0
   16.2818   17.1129   11.4374 H   0  0  0  0  0  0
   16.0244   20.3876   12.4099 H   0  0  0  0  0  0
   11.8749   25.3559   11.8563 H   0  0  0  0  0  0
   16.5416   23.6940   10.8437 H   0  0  0  0  0  0
   13.3161   19.3108    9.6679 H   0  0  0  0  0  0
   11.0284   21.6744   12.8527 H   0  0  0  0  0  0
    8.7251   17.3858   13.4228 H   0  0  0  0  0  0
  1  2  1  0  0  0
  1 13  2  0  0  0
  1 14  1  0  0  0
  2  3  1  0  0  0
  2 15  1  0  0  0
  2 17  1  0  0  0
  3  4  1  0  0  0
  3 22  1  0  0  0
  3 23  1  0  0  0
  4  5  1  0  0  0
  4 16  1  0  0  0
  4 24  1  0  0  0
  5  6  1  0  0  0
  5 12  1  0  0  0
  5 25  1  0  0  0
  6  7  1  0  0  0
  6 17  1  0  0  0
  6 26  1  0  0  0
  7  8  1  0  0  0
  7 18  1  0  0  0
  7 27  1  0  0  0
  8  9  1  0  0  0
  8 19  1  0  0  0
  8 28  1  0  0  0
  9 20  1  0  0  0
  9 29  1  0  0  0
  9 30  1  0  0  0
 10 11  1  0  0  0
 10 12  1  0  0  0
 10 21  2  0  0  0
 11 31  1  0  0  0
 11 32  1  0  0  0
 11 33  1  0  0  0
 12 34  1  0  0  0
 15 35  1  0  0  0
 16 36  1  0  0  0
 18 37  1  0  0  0
 19 38  1  0  0  0
 20 39  1  0  0  0
M  CHG  1  14  -1
M  END
> <s_m_source_file>
../4lkh_ligand.sdf

> <i_m_source_file_index>
1

> <s_epik_input>
Tz1DKFtPSF0pW0NAQF0xKFtPSF0pW0NIMl1bQ0BIXShbT0hdKVtDQEBIXShbTkhdQyg9TylbQ0gzXSlbQ0BASF0oTzEpW0NASF0oW09IXSlbQ0BIXShbT0hdKVtDSDJdW09IXQ==

> <s_epik_cmdline>
J2VwaWtfYXBwJywgJy1pbWFlJywgJ2xpZ2FuZF9wcm8ubWFlJywgJy1vbWFlJywgJ2xpZ2FuZF9wcmVwLm1hZScsICctbXMnLCAnMScsICctcGgnLCAnNycsICctcGh0JywgJzAuNScsICctbnQn

> <r_lp_tautomer_probability>
1

> <r_epik_Ionization_Penalty>
  0.0000

> <r_epik_Ionization_Penalty_Charging>
  0.0000

> <r_epik_Ionization_Penalty_Neutral>
  0.0000

> <r_epik_State_Penalty>
 -0.0000

> <r_epik_Charging_Adjusted_Penalty>
2.59170082529691e-05

> <i_epik_Tot_Q>
-1

> <i_epik_Tot_abs_Q>
1

$$$$
