4lkj_ligand
                    3D
 Schrodinger Suite 2020-3.
 87 89  0  0  1  0            999 V2000
  -45.1270   10.6870  -35.6230 C   0  0  0  0  0  0
  -44.8840   11.0710  -37.0590 C   0  0  1  0  0  0
  -45.2780    9.9140  -37.9690 C   0  0  0  0  0  0
  -46.7710    9.6270  -37.8700 C   0  0  1  0  0  0
  -47.5850   10.9060  -38.0230 C   0  0  2  0  0  0
  -47.0510   12.0070  -37.1130 C   0  0  2  0  0  0
  -47.8150   13.3080  -37.3250 C   0  0  1  0  0  0
  -47.2680   14.4140  -36.4290 C   0  0  1  0  0  0
  -48.1720   15.6410  -36.4630 C   0  0  0  0  0  0
  -49.9600   11.2300  -38.4020 C   0  0  0  0  0  0
  -51.3410   10.7130  -38.1270 C   0  0  0  0  0  0
  -48.9790   10.6460  -37.7200 N   0  0  0  0  0  0
  -44.6320    9.6200  -35.1980 O   0  5  0  0  0  0
  -45.8160   11.4480  -34.9100 O   0  0  0  0  0  0
  -47.1470    8.6970  -38.8930 O   0  0  0  0  0  0
  -45.6670   12.2180  -37.3830 O   0  0  0  0  0  0
  -47.7060   13.7080  -38.6960 O   0  0  0  0  0  0
  -47.1670   13.9330  -35.0840 O   0  0  0  0  0  0
  -47.3740   16.8250  -36.3690 O   0  0  0  0  0  0
  -49.7490   12.1300  -39.1990 O   0  0  0  0  0  0
  -40.7750   12.0460  -39.8610 C   0  0  1  0  0  0
  -41.6880   11.3320  -38.8510 C   0  0  1  0  0  0
  -43.0620   11.9940  -38.6290 C   0  0  2  0  0  0
  -42.9710   13.5230  -38.6700 C   0  0  2  0  0  0
  -42.1530   13.9450  -39.8840 C   0  0  1  0  0  0
  -42.1230   15.4600  -40.0530 C   0  0  0  0  0  0
  -41.8760    9.9970  -39.2830 O   0  0  0  0  0  0
  -43.5600   11.5410  -37.3780 O   0  0  0  0  0  0
  -42.4120   14.0340  -37.4740 O   0  0  0  0  0  0
  -40.8410   13.4510  -39.7320 O   0  0  0  0  0  0
  -41.3860   15.7670  -41.2170 O   0  0  0  0  0  0
  -36.5300   11.4780  -43.1800 C   0  0  2  0  0  0
  -37.2850   12.8150  -43.1190 C   0  0  1  0  0  0
  -38.1910   12.9950  -41.8910 C   0  0  2  0  0  0
  -38.8600   11.6880  -41.4490 C   0  0  1  0  0  0
  -37.8780   10.5230  -41.4090 C   0  0  1  0  0  0
  -38.6780    9.2640  -41.0470 C   0  0  0  0  0  0
  -35.8570   14.4050  -44.2710 C   0  0  0  0  0  0
  -34.8670   15.5540  -44.1500 C   0  0  0  0  0  0
  -36.2690   13.8610  -43.1030 N   0  0  0  0  0  0
  -36.1490   11.2610  -44.5430 O   0  0  0  0  0  0
  -39.1730   14.0070  -42.1460 O   0  0  0  0  0  0
  -39.3880   11.8390  -40.1360 O   0  0  0  0  0  0
  -37.2680   10.3520  -42.6830 O   0  0  0  0  0  0
  -39.7770    9.1960  -41.9540 O   0  0  0  0  0  0
  -36.2550   14.0020  -45.4040 O   0  0  0  0  0  0
  -45.0357   10.1684  -39.0114 H   0  0  0  0  0  0
  -44.7244    9.0104  -37.6739 H   0  0  0  0  0  0
  -46.9998    9.1467  -36.9072 H   0  0  0  0  0  0
  -47.5497   11.2417  -39.0699 H   0  0  0  0  0  0
  -47.1161   11.6961  -36.0599 H   0  0  0  0  0  0
  -48.8859   13.1534  -37.1267 H   0  0  0  0  0  0
  -46.2491   14.6857  -36.7422 H   0  0  0  0  0  0
  -48.7371   15.6540  -37.4066 H   0  0  0  0  0  0
  -48.8731   15.6035  -35.6162 H   0  0  0  0  0  0
  -51.2890    9.9080  -37.3792 H   0  0  0  0  0  0
  -51.7779   10.3214  -39.0575 H   0  0  0  0  0  0
  -51.9688   11.5305  -37.7427 H   0  0  0  0  0  0
  -49.2454    9.9516  -36.9096 H   0  0  0  0  0  0
  -46.6634    7.7103  -38.9441 H   0  0  0  0  0  0
  -48.0521   13.0351  -39.4944 H   0  0  0  0  0  0
  -46.5528   13.0481  -34.8610 H   0  0  0  0  0  0
  -47.8547   17.8144  -36.3776 H   0  0  0  0  0  0
  -41.1940   11.5489  -40.7483 H   0  0  0  0  0  0
  -41.1716   11.2994  -37.8803 H   0  0  0  0  0  0
  -43.7991   11.6784  -39.3821 H   0  0  0  0  0  0
  -43.9689   13.9855  -38.6878 H   0  0  0  0  0  0
  -42.5540   13.4866  -40.8000 H   0  0  0  0  0  0
  -43.1513   15.8386  -40.1493 H   0  0  0  0  0  0
  -41.6446   15.9176  -39.1745 H   0  0  0  0  0  0
  -41.0049    9.3595  -39.4944 H   0  0  0  0  0  0
  -42.8891   13.8163  -36.5070 H   0  0  0  0  0  0
  -41.2458   16.8155  -41.5186 H   0  0  0  0  0  0
  -35.6390   11.4828  -42.5350 H   0  0  0  0  0  0
  -37.9324   12.8981  -44.0044 H   0  0  0  0  0  0
  -37.5908   13.3777  -41.0523 H   0  0  0  0  0  0
  -39.6972   11.4696  -42.1282 H   0  0  0  0  0  0
  -37.0370   10.7131  -40.7259 H   0  0  0  0  0  0
  -38.0336    8.3783  -41.1486 H   0  0  0  0  0  0
  -39.0337    9.3414  -40.0090 H   0  0  0  0  0  0
  -34.6544   15.7444  -43.0877 H   0  0  0  0  0  0
  -35.2971   16.4581  -44.6057 H   0  0  0  0  0  0
  -33.9338   15.2901  -44.6692 H   0  0  0  0  0  0
  -35.8447   14.2010  -42.1468 H   0  0  0  0  0  0
  -35.5742   12.0283  -45.0822 H   0  0  0  0  0  0
  -38.8581   15.0089  -42.4733 H   0  0  0  0  0  0
  -40.4967    8.3670  -41.8849 H   0  0  0  0  0  0
  1  2  1  0  0  0
  1 13  1  0  0  0
  1 14  2  0  0  0
  2  3  1  0  0  0
  2 16  1  0  0  0
  2 28  1  0  0  0
  3  4  1  0  0  0
  3 47  1  0  0  0
  3 48  1  0  0  0
  4  5  1  0  0  0
  4 15  1  0  0  0
  4 49  1  0  0  0
  5  6  1  0  0  0
  5 12  1  0  0  0
  5 50  1  0  0  0
  6  7  1  0  0  0
  6 16  1  0  0  0
  6 51  1  0  0  0
  7  8  1  0  0  0
  7 17  1  0  0  0
  7 52  1  0  0  0
  8  9  1  0  0  0
  8 18  1  0  0  0
  8 53  1  0  0  0
  9 19  1  0  0  0
  9 54  1  0  0  0
  9 55  1  0  0  0
 10 11  1  0  0  0
 10 12  1  0  0  0
 10 20  2  0  0  0
 11 56  1  0  0  0
 11 57  1  0  0  0
 11 58  1  0  0  0
 12 59  1  0  0  0
 15 60  1  0  0  0
 17 61  1  0  0  0
 18 62  1  0  0  0
 19 63  1  0  0  0
 21 22  1  0  0  0
 21 30  1  0  0  0
 21 43  1  0  0  0
 21 64  1  0  0  0
 22 23  1  0  0  0
 22 27  1  0  0  0
 22 65  1  0  0  0
 23 24  1  0  0  0
 23 28  1  0  0  0
 23 66  1  0  0  0
 24 25  1  0  0  0
 24 29  1  0  0  0
 24 67  1  0  0  0
 25 26  1  0  0  0
 25 30  1  0  0  0
 25 68  1  0  0  0
 26 31  1  0  0  0
 26 69  1  0  0  0
 26 70  1  0  0  0
 27 71  1  0  0  0
 29 72  1  0  0  0
 31 73  1  0  0  0
 32 33  1  0  0  0
 32 41  1  0  0  0
 32 44  1  0  0  0
 32 74  1  0  0  0
 33 34  1  0  0  0
 33 40  1  0  0  0
 33 75  1  0  0  0
 34 35  1  0  0  0
 34 42  1  0  0  0
 34 76  1  0  0  0
 35 36  1  0  0  0
 35 43  1  0  0  0
 35 77  1  0  0  0
 36 37  1  0  0  0
 36 44  1  0  0  0
 36 78  1  0  0  0
 37 45  1  0  0  0
 37 79  1  0  0  0
 37 80  1  0  0  0
 38 39  1  0  0  0
 38 40  1  0  0  0
 38 46  2  0  0  0
 39 81  1  0  0  0
 39 82  1  0  0  0
 39 83  1  0  0  0
 40 84  1  0  0  0
 41 85  1  0  0  0
 42 86  1  0  0  0
 45 87  1  0  0  0
M  CHG  1  13  -1
M  END
> <s_m_source_file>
../4lkj_ligand.sdf

> <i_m_source_file_index>
1

> <s_epik_input>
W09IXVtDSDJdW0NAQEhdKFtPSF0pW0NAQEhdKFtPSF0pW0NASF0oTzEpW0NASF0oW05IXUMoPU8pW0NIM10pW0NAQEhdKFtPSF0pW0NIMl1bQ0BAXTEoQyg9TylbT0hdKU9bQ0BASF0oW0NAQEhdKFtPSF0pW0NASF0oTzIpW0NIMl1bT0hdKVtDQEBIXShbT0hdKVtDQEBIXTJPW0NASF0oW0NASF0oTzMpW0NIMl1bT0hdKVtDQEhdKFtPSF0pW0NASF0oW0NAQEhdM1tPSF0pW05IXUMoPU8pW0NIM10=

> <s_epik_cmdline>
J2VwaWtfYXBwJywgJy1pbWFlJywgJ2xpZ2FuZF9wcm8ubWFlJywgJy1vbWFlJywgJ2xpZ2FuZF9wcmVwLm1hZScsICctbXMnLCAnMScsICctcGgnLCAnNycsICctcGh0JywgJzAuNScsICctbnQn

> <r_lp_tautomer_probability>
1

> <r_epik_Ionization_Penalty>
  0.0000

> <r_epik_Ionization_Penalty_Charging>
  0.0000

> <r_epik_Ionization_Penalty_Neutral>
  0.0000

> <r_epik_State_Penalty>
 -0.0000

> <r_epik_Charging_Adjusted_Penalty>
9.90123822354334e-06

> <i_epik_Tot_Q>
-1

> <i_epik_Tot_abs_Q>
1

> <s_epik_Chemistry_Notes>
This compound contains an acetal/aminal-like group ( X-CH(R)-Y where X, Y are N, S, or O) that may be acid/base labile, releasing an aldehyde.

$$$$
