4lkk_ligand
                    3D
 Schrodinger Suite 2020-3.
 60 61  0  0  1  0            999 V2000
  -26.7290   -0.0180   13.9990 C   0  0  0  0  0  0
  -26.5670   -0.4000   12.5510 C   0  0  1  0  0  0
  -27.3320    0.5860   11.6770 C   0  0  0  0  0  0
  -26.7480    1.9890   11.7970 C   0  0  1  0  0  0
  -25.2350    1.9690   11.6160 C   0  0  2  0  0  0
  -24.5950    0.8970   12.4920 C   0  0  2  0  0  0
  -23.0910    0.8230   12.2530 C   0  0  1  0  0  0
  -22.4620   -0.2960   13.0720 C   0  0  1  0  0  0
  -20.9410   -0.2150   13.0320 C   0  0  0  0  0  0
  -23.7180    3.8150   11.2020 C   0  0  0  0  0  0
  -23.3630    5.2320   11.5440 C   0  0  0  0  0  0
  -24.6800    3.2680   11.9390 N   0  0  0  0  0  0
  -25.7020    0.1140   14.7000 O   0  5  0  0  0  0
  -27.8840    0.1530   14.4450 O   0  0  0  0  0  0
  -27.3350    2.8370   10.8040 O   0  0  0  0  0  0
  -25.1840   -0.3680   12.2030 O   0  0  0  0  0  0
  -22.8400    0.5950   10.8610 O   0  0  0  0  0  0
  -22.9090   -0.2040   14.4290 O   0  0  0  0  0  0
  -20.3850   -1.4750   13.4260 O   0  0  0  0  0  0
  -23.1600    3.2050   10.3050 O   0  0  0  0  0  0
  -26.5010   -6.2610   11.3830 C   0  0  2  0  0  0
  -27.0160   -6.9050   12.6630 C   0  0  1  0  0  0
  -27.9750   -5.9760   13.3960 C   0  0  2  0  0  0
  -27.3790   -4.5850   13.5410 C   0  0  2  0  0  0
  -26.8420   -4.0770   12.2090 C   0  0  1  0  0  0
  -26.1770   -2.7150   12.3710 C   0  0  0  0  0  0
  -25.5320   -7.1220   10.7730 O   0  0  0  0  0  0
  -27.6880   -8.1290   12.3440 O   0  0  0  0  0  0
  -28.2600   -6.5110   14.6930 O   0  0  0  0  0  0
  -26.3160   -4.6200   14.5010 O   0  0  0  0  0  0
  -25.8950   -5.0100   11.6910 O   0  0  0  0  0  0
  -27.1790   -1.6920   12.3670 O   0  0  0  0  0  0
  -27.2718    0.2675   10.6258 H   0  0  0  0  0  0
  -28.3856    0.6142   11.9918 H   0  0  0  0  0  0
  -27.0063    2.4232   12.7741 H   0  0  0  0  0  0
  -24.9917    1.7800   10.5600 H   0  0  0  0  0  0
  -24.8028    1.0988   13.5532 H   0  0  0  0  0  0
  -22.6197    1.7844   12.5052 H   0  0  0  0  0  0
  -22.7986   -1.2732   12.6954 H   0  0  0  0  0  0
  -20.6135    0.0268   12.0101 H   0  0  0  0  0  0
  -20.5973    0.5693   13.7224 H   0  0  0  0  0  0
  -23.9904    5.5757   12.3796 H   0  0  0  0  0  0
  -23.5348    5.8747   10.6679 H   0  0  0  0  0  0
  -22.3035    5.2845   11.8352 H   0  0  0  0  0  0
  -25.0541    3.8246   12.8109 H   0  0  0  0  0  0
  -28.4257    2.9771   10.7754 H   0  0  0  0  0  0
  -23.2200    1.3036   10.1103 H   0  0  0  0  0  0
  -23.9842   -0.2440   14.6578 H   0  0  0  0  0  0
  -19.2936   -1.6087   13.4581 H   0  0  0  0  0  0
  -27.2972   -6.0702   10.6484 H   0  0  0  0  0  0
  -26.1723   -7.1688   13.3177 H   0  0  0  0  0  0
  -28.9343   -5.9209   12.8605 H   0  0  0  0  0  0
  -28.1379   -3.8911   13.9318 H   0  0  0  0  0  0
  -27.6552   -4.0172   11.4707 H   0  0  0  0  0  0
  -25.6271   -2.6864   13.3233 H   0  0  0  0  0  0
  -25.4777   -2.5470   11.5387 H   0  0  0  0  0  0
  -25.8169   -8.1383   10.4632 H   0  0  0  0  0  0
  -27.1521   -8.9277   11.8102 H   0  0  0  0  0  0
  -28.6986   -7.5152   14.7895 H   0  0  0  0  0  0
  -26.5132   -4.9621   15.5277 H   0  0  0  0  0  0
  1  2  1  0  0  0
  1 13  1  0  0  0
  1 14  2  0  0  0
  2  3  1  0  0  0
  2 16  1  0  0  0
  2 32  1  0  0  0
  3  4  1  0  0  0
  3 33  1  0  0  0
  3 34  1  0  0  0
  4  5  1  0  0  0
  4 15  1  0  0  0
  4 35  1  0  0  0
  5  6  1  0  0  0
  5 12  1  0  0  0
  5 36  1  0  0  0
  6  7  1  0  0  0
  6 16  1  0  0  0
  6 37  1  0  0  0
  7  8  1  0  0  0
  7 17  1  0  0  0
  7 38  1  0  0  0
  8  9  1  0  0  0
  8 18  1  0  0  0
  8 39  1  0  0  0
  9 19  1  0  0  0
  9 40  1  0  0  0
  9 41  1  0  0  0
 10 11  1  0  0  0
 10 12  1  0  0  0
 10 20  2  0  0  0
 11 42  1  0  0  0
 11 43  1  0  0  0
 11 44  1  0  0  0
 12 45  1  0  0  0
 15 46  1  0  0  0
 17 47  1  0  0  0
 18 48  1  0  0  0
 19 49  1  0  0  0
 21 22  1  0  0  0
 21 27  1  0  0  0
 21 31  1  0  0  0
 21 50  1  0  0  0
 22 23  1  0  0  0
 22 28  1  0  0  0
 22 51  1  0  0  0
 23 24  1  0  0  0
 23 29  1  0  0  0
 23 52  1  0  0  0
 24 25  1  0  0  0
 24 30  1  0  0  0
 24 53  1  0  0  0
 25 26  1  0  0  0
 25 31  1  0  0  0
 25 54  1  0  0  0
 26 32  1  0  0  0
 26 55  1  0  0  0
 26 56  1  0  0  0
 27 57  1  0  0  0
 28 58  1  0  0  0
 29 59  1  0  0  0
 30 60  1  0  0  0
M  CHG  1  13  -1
M  END
> <s_m_source_file>
../4lkk_ligand.sdf

> <i_m_source_file_index>
1

> <s_epik_input>
W09IXVtDQEhdMVtDQEhdKFtPSF0pW0NAQEhdKFtPSF0pW0NAQEhdKFtPSF0pW0NASF0oTzEpW0NIMl1PW0NAXTIoQyg9TylbT0hdKVtDSDJdW0NASF0oW09IXSlbQ0BASF0oW05IXUMoPU8pW0NIM10pW0NAQEhdKE8yKVtDQEhdKFtPSF0pW0NASF0oW09IXSlbQ0gyXVtPSF0=

> <s_epik_cmdline>
J2VwaWtfYXBwJywgJy1pbWFlJywgJ2xpZ2FuZF9wcm8ubWFlJywgJy1vbWFlJywgJ2xpZ2FuZF9wcmVwLm1hZScsICctbXMnLCAnMScsICctcGgnLCAnNycsICctcGh0JywgJzAuNScsICctbnQn

> <r_lp_tautomer_probability>
1

> <r_epik_Ionization_Penalty>
  0.0000

> <r_epik_Ionization_Penalty_Charging>
  0.0000

> <r_epik_Ionization_Penalty_Neutral>
  0.0000

> <r_epik_State_Penalty>
 -0.0000

> <r_epik_Charging_Adjusted_Penalty>
3.56892623120892e-05

> <i_epik_Tot_Q>
-1

> <i_epik_Tot_abs_Q>
1

> <s_epik_Chemistry_Notes>
This compound contains an acetal/aminal-like group ( X-CH(R)-Y where X, Y are N, S, or O) that may be acid/base labile, releasing an aldehyde.

$$$$
