4lkl_ligand
                    3D
 Schrodinger Suite 2020-3.
127131  0  0  1  0            999 V2000
    6.4910   17.2570   15.4600 C   0  0  0  0  0  0
    6.6760   18.1370   14.6160 O   0  0  0  0  0  0
    5.1540   17.1140   16.1660 C   0  0  0  0  0  0
    7.4530   16.3830   15.7880 N   0  0  0  0  0  0
    8.7810   16.4220   15.1730 C   0  0  2  0  0  0
    8.7810   15.7970   13.7800 C   0  0  0  0  0  0
    7.9190   14.9840   13.4620 O   0  0  0  0  0  0
    9.6300   15.6350   16.1640 C   0  0  0  0  0  0
    8.6760   14.5630   16.5970 C   0  0  0  0  0  0
    7.3880   15.3340   16.8250 C   0  0  0  0  0  0
    9.7500   16.1840   12.9550 N   0  0  0  0  0  0
    9.8600   15.6590   11.5990 C   0  0  2  0  0  0
   10.8250   14.4830   11.5170 C   0  0  0  0  0  0
   11.0090   13.8880   10.4570 O   0  0  0  0  0  0
   10.3030   16.7680   10.6420 C   0  0  0  0  0  0
    9.2710   17.8870   10.4770 C   0  0  0  0  0  0
    9.7740   18.9100    9.4680 C   0  0  0  0  0  0
    7.9520   17.2910   10.0150 C   0  0  0  0  0  0
   11.4510   14.1620   12.6430 N   0  0  0  0  0  0
   12.3800   13.0420   12.7110 C   0  0  2  0  0  0
   12.4680   12.6060   14.1610 C   0  0  0  0  0  0
   12.0350   13.3310   15.0600 O   0  0  0  0  0  0
   13.7660   13.4450   12.1830 C   0  0  0  0  0  0
   14.3670   14.6270   12.8790 C   0  0  0  0  0  0
   14.7520   14.5980   14.2030 N   0  0  0  0  0  0
   14.6530   15.8730   12.4310 C   0  0  0  0  0  0
   15.2510   15.7750   14.5400 C   0  0  0  0  0  0
   15.2030   16.5660   13.4830 N   0  0  0  0  0  0
   13.0130   11.4190   14.3920 N   0  0  0  0  0  0
   13.1400   10.9100   15.7500 C   0  0  2  0  0  0
   14.2250   11.6670   16.5190 C   0  0  0  0  0  0
   14.8560   12.5830   15.9900 O   0  0  0  0  0  0
   13.4450    9.4050   15.7250 C   0  0  0  0  0  0
   14.6210    9.1050   14.9790 O   0  0  0  0  0  0
   14.4500   11.2900   17.7840 N   0  0  0  0  0  0
   15.0730   12.2070   18.7360 C   0  0  1  0  0  0
   14.9560   11.6920   20.1920 C   0  0  1  0  0  0
   15.4920   12.6800   21.2010 C   0  0  0  0  0  0
   13.5360   11.5490   20.3770 O   0  0  0  0  0  0
   12.7950   10.1570   20.6300 P   0  0  0  0  0  0
   13.5040    9.3080   21.6440 O   0  0  0  0  0  0
   12.7690    9.5490   19.2330 O   0  5  0  0  0  0
   11.4300   10.6230   21.0710 O   0  5  0  0  0  0
   16.5600   12.3540   18.4130 C   0  0  0  0  0  0
   17.2490   11.3890   18.1570 O   0  0  0  0  0  0
   17.0480   13.5920   18.4400 N   0  0  0  0  0  0
   18.4630   13.9520   18.4930 C   0  0  2  0  0  0
   18.9390   14.1740   19.9240 C   0  0  0  0  0  0
   18.1640   14.5790   20.7940 O   0  0  0  0  0  0
   18.7160   15.2240   17.6860 C   0  0  0  0  0  0
   18.3090   15.1500   16.2350 C   0  0  0  0  0  0
   18.7900   16.6700   15.3960 S   0  0  0  0  0  0
   19.7520   16.0210   14.0310 C   0  0  0  0  0  0
   20.2200   13.9190   20.1800 N   0  0  0  0  0  0
    4.9030   18.0580   17.5050 C   0  0  0  0  0  0
    5.2010   19.4820   17.0520 C   0  0  0  0  0  0
    4.8980   20.4540   18.1930 C   0  0  2  0  0  0
    5.7640   20.1120   19.3980 C   0  0  0  0  0  0
    5.4660   18.6880   19.8510 C   0  0  1  0  0  0
    3.9950   18.5730   20.2370 C   0  0  0  0  0  0
    3.1240   18.9180   19.0320 C   0  0  2  0  0  0
    3.4290   17.9460   17.8890 C   0  0  0  0  0  0
    5.7700   17.7170   18.7120 C   0  0  0  0  0  0
    3.4260   20.3440   18.5790 C   0  0  0  0  0  0
    4.3422   17.3692   15.4690 H   0  0  0  0  0  0
    5.0298   16.0764   16.5094 H   0  0  0  0  0  0
    9.1225   17.4566   15.0211 H   0  0  0  0  0  0
   10.5208   15.2417   15.6523 H   0  0  0  0  0  0
    9.9414   16.2961   16.9862 H   0  0  0  0  0  0
    8.5852   13.8095   15.8007 H   0  0  0  0  0  0
    9.0530   14.0847   17.5130 H   0  0  0  0  0  0
    7.3424   15.8032   17.8188 H   0  0  0  0  0  0
    6.4896   14.7188   16.6685 H   0  0  0  0  0  0
   10.4805   16.9208   13.3205 H   0  0  0  0  0  0
    8.8491   15.3023   11.3521 H   0  0  0  0  0  0
   11.2284   17.2288   11.0180 H   0  0  0  0  0  0
   10.4851   16.3408    9.6448 H   0  0  0  0  0  0
    9.1119   18.3966   11.4388 H   0  0  0  0  0  0
   10.7283   19.3310    9.8174 H   0  0  0  0  0  0
    9.0336   19.7168    9.3637 H   0  0  0  0  0  0
    9.9236   18.4213    8.4939 H   0  0  0  0  0  0
    7.6033   16.5550   10.7544 H   0  0  0  0  0  0
    8.0939   16.7955    9.0432 H   0  0  0  0  0  0
    7.2039   18.0910    9.9130 H   0  0  0  0  0  0
   11.2525   14.7672   13.5399 H   0  0  0  0  0  0
   11.9765   12.2373   12.0788 H   0  0  0  0  0  0
   14.3153   12.9475   11.3702 H   0  0  0  0  0  0
   14.5257   16.3645   11.4552 H   0  0  0  0  0  0
   15.6364   16.0465   15.5228 H   0  0  0  0  0  0
   13.3710   10.8175   13.5435 H   0  0  0  0  0  0
   12.1647   11.0946   16.2241 H   0  0  0  0  0  0
   13.5921    9.0436   16.7535 H   0  0  0  0  0  0
   12.6028    8.8678   15.2645 H   0  0  0  0  0  0
   14.9575    8.0626   14.8784 H   0  0  0  0  0  0
   14.1606   10.2781   18.1039 H   0  0  0  0  0  0
   14.5242   13.1510   18.6030 H   0  0  0  0  0  0
   15.4889   10.7471   20.3740 H   0  0  0  0  0  0
   16.5775   12.7924   21.0631 H   0  0  0  0  0  0
   15.2875   12.3132   22.2177 H   0  0  0  0  0  0
   15.0013   13.6539   21.0569 H   0  0  0  0  0  0
   16.2805   14.3797   18.4189 H   0  0  0  0  0  0
   18.9859   13.0876   18.0578 H   0  0  0  0  0  0
   18.1518   16.0578   18.1293 H   0  0  0  0  0  0
   19.7904   15.4597   17.7002 H   0  0  0  0  0  0
   18.8086   14.2943   15.7573 H   0  0  0  0  0  0
   17.2185   15.0231   16.1660 H   0  0  0  0  0  0
   20.1218   16.8536   13.4145 H   0  0  0  0  0  0
   19.1197   15.3628   13.4171 H   0  0  0  0  0  0
   20.6052   15.4482   14.4234 H   0  0  0  0  0  0
   20.8802   13.5589   19.3772 H   0  0  0  0  0  0
   20.6185   14.0683   21.1944 H   0  0  0  0  0  0
    6.2619   19.5635   16.7729 H   0  0  0  0  0  0
    4.5733   19.7294   16.1832 H   0  0  0  0  0  0
    5.1167   21.4819   17.8682 H   0  0  0  0  0  0
    6.8256   20.1940   19.1217 H   0  0  0  0  0  0
    5.5436   20.8111   20.2182 H   0  0  0  0  0  0
    6.0931   18.4441   20.7212 H   0  0  0  0  0  0
    3.7805   17.5442   20.5618 H   0  0  0  0  0  0
    3.7761   19.2702   21.0592 H   0  0  0  0  0  0
    2.0633   18.8398   19.3126 H   0  0  0  0  0  0
    2.8035   18.1951   17.0191 H   0  0  0  0  0  0
    3.2119   16.9179   18.2143 H   0  0  0  0  0  0
    5.5541   16.6894   19.0399 H   0  0  0  0  0  0
    6.8316   17.7983   18.4356 H   0  0  0  0  0  0
    3.2090   21.0433   19.3999 H   0  0  0  0  0  0
    2.7994   20.5931   17.7099 H   0  0  0  0  0  0
   14.6178   13.6805   14.7948 H   0  0  0  0  0  0
  1  2  2  0  0  0
  1  3  1  0  0  0
  1  4  1  0  0  0
  3 55  1  0  0  0
  3 65  1  0  0  0
  3 66  1  0  0  0
  4  5  1  0  0  0
  4 10  1  0  0  0
  5  6  1  0  0  0
  5  8  1  0  0  0
  5 67  1  0  0  0
  6  7  2  0  0  0
  6 11  1  0  0  0
  8  9  1  0  0  0
  8 68  1  0  0  0
  8 69  1  0  0  0
  9 10  1  0  0  0
  9 70  1  0  0  0
  9 71  1  0  0  0
 10 72  1  0  0  0
 10 73  1  0  0  0
 11 12  1  0  0  0
 11 74  1  0  0  0
 12 13  1  0  0  0
 12 15  1  0  0  0
 12 75  1  0  0  0
 13 14  2  0  0  0
 13 19  1  0  0  0
 15 16  1  0  0  0
 15 76  1  0  0  0
 15 77  1  0  0  0
 16 17  1  0  0  0
 16 18  1  0  0  0
 16 78  1  0  0  0
 17 79  1  0  0  0
 17 80  1  0  0  0
 17 81  1  0  0  0
 18 82  1  0  0  0
 18 83  1  0  0  0
 18 84  1  0  0  0
 19 20  1  0  0  0
 19 85  1  0  0  0
 20 21  1  0  0  0
 20 23  1  0  0  0
 20 86  1  0  0  0
 21 22  2  0  0  0
 21 29  1  0  0  0
 23 24  2  0  0  0
 23 87  1  0  0  0
 24 25  1  0  0  0
 24 26  1  0  0  0
 25 27  1  0  0  0
 25127  1  0  0  0
 26 28  2  0  0  0
 26 88  1  0  0  0
 27 28  1  0  0  0
 27 89  1  0  0  0
 29 30  1  0  0  0
 29 90  1  0  0  0
 30 31  1  0  0  0
 30 33  1  0  0  0
 30 91  1  0  0  0
 31 32  2  0  0  0
 31 35  1  0  0  0
 33 34  1  0  0  0
 33 92  1  0  0  0
 33 93  1  0  0  0
 34 94  1  0  0  0
 35 36  1  0  0  0
 35 95  1  0  0  0
 36 37  1  0  0  0
 36 44  1  0  0  0
 36 96  1  0  0  0
 37 38  1  0  0  0
 37 39  1  0  0  0
 37 97  1  0  0  0
 38 98  1  0  0  0
 38 99  1  0  0  0
 38100  1  0  0  0
 39 40  1  0  0  0
 40 41  2  0  0  0
 40 42  1  0  0  0
 40 43  1  0  0  0
 44 45  2  0  0  0
 44 46  1  0  0  0
 46 47  1  0  0  0
 46101  1  0  0  0
 47 48  1  0  0  0
 47 50  1  0  0  0
 47102  1  0  0  0
 48 49  2  0  0  0
 48 54  1  0  0  0
 50 51  1  0  0  0
 50103  1  0  0  0
 50104  1  0  0  0
 51 52  1  0  0  0
 51105  1  0  0  0
 51106  1  0  0  0
 52 53  1  0  0  0
 53107  1  0  0  0
 53108  1  0  0  0
 53109  1  0  0  0
 54110  1  0  0  0
 54111  1  0  0  0
 55 56  1  0  0  0
 55 62  1  0  0  0
 55 63  1  0  0  0
 56 57  1  0  0  0
 56112  1  0  0  0
 56113  1  0  0  0
 57 58  1  0  0  0
 57 64  1  0  0  0
 57114  1  0  0  0
 58 59  1  0  0  0
 58115  1  0  0  0
 58116  1  0  0  0
 59 60  1  0  0  0
 59 63  1  0  0  0
 59117  1  0  0  0
 60 61  1  0  0  0
 60118  1  0  0  0
 60119  1  0  0  0
 61 62  1  0  0  0
 61 64  1  0  0  0
 61120  1  0  0  0
 62121  1  0  0  0
 62122  1  0  0  0
 63123  1  0  0  0
 63124  1  0  0  0
 64125  1  0  0  0
 64126  1  0  0  0
M  CHG  2  42  -1  43  -1
M  END
> <s_m_source_file>
../4lkl_ligand.sdf

> <i_m_source_file_index>
1

> <s_epik_input>
W0NIMl0xW0NASF0oW0NIMl0yKVtDSDJdW0NAQEhdKFtDSDJdMylbQ0gyXVtDQEhdMltDSDJdQzEzW0NIMl1DKD1PKU40W0NAQEhdKFtDSDJdW0NIMl1bQ0gyXTQpQyg9TylbTkhdW0NAQEhdKFtDSDJdW0NIXShbQ0gzXSlbQ0gzXSlDKD1PKVtOSF1bQ0BASF0oW0NIMl1DNT1OW0NIMl1OPVtDSF01KUMoPU8pW05IXVtDQEBIXShbQ0gyXVtPSF0pQyg9TylbTkhdW0NAQEhdKFtDQEBIXShbQ0gzXSlPUCg9TykoW09IXSlbT0hdKUMoPU8pW05IXVtDQEhdKEMoPU8pW05IMl0pW0NIMl1bQ0gyXVNbQ0gzXQ==

> <s_epik_cmdline>
J2VwaWtfYXBwJywgJy1pbWFlJywgJ2xpZ2FuZF9wcm8ubWFlJywgJy1vbWFlJywgJ2xpZ2FuZF9wcmVwLm1hZScsICctbXMnLCAnMScsICctcGgnLCAnNycsICctcGh0JywgJzAuNScsICctbnQn

> <r_epik_Ionization_Penalty>
  0.0872

> <r_epik_Ionization_Penalty_Charging>
  0.0872

> <r_epik_Ionization_Penalty_Neutral>
  0.0000

> <r_epik_State_Penalty>
  0.0777

> <r_epik_Charging_Adjusted_Penalty>
0.164911545042939

> <i_epik_Tot_Q>
-2

> <i_epik_Tot_abs_Q>
2

> <s_epik_Chemistry_Notes>
This compound has an imine and may undergo hydrolysis.

$$$$
