4lkm_ligand
                    3D
 Schrodinger Suite 2020-3.
147149  0  0  1  0            999 V2000
   41.1380    9.0930   23.9080 C   0  0  0  0  0  0
   40.7350    8.3640   23.0000 O   0  0  0  0  0  0
   41.2410   10.5920   23.7110 C   0  0  0  0  0  0
   41.4950    8.6050   25.1100 N   0  0  0  0  0  0
   41.4650    7.1850   25.4910 C   0  0  2  0  0  0
   40.0730    6.5470   25.5990 C   0  0  0  0  0  0
   39.8900    5.3810   25.2410 O   0  0  0  0  0  0
   42.2020    7.1750   26.8260 C   0  0  0  0  0  0
   41.8560    8.5120   27.4030 C   0  0  0  0  0  0
   42.0280    9.4270   26.2100 C   0  0  0  0  0  0
   39.1090    7.2990   26.1250 N   0  0  0  0  0  0
   37.7330    6.8190   26.2710 C   0  0  2  0  0  0
   36.8670    7.6710   25.3570 C   0  0  0  0  0  0
   37.0620    8.8810   25.2650 O   0  0  0  0  0  0
   37.2550    6.9710   27.7140 C   0  0  0  0  0  0
   38.0030    6.1640   28.7760 C   0  0  0  0  0  0
   37.4930    6.5480   30.1580 C   0  0  0  0  0  0
   37.8020    4.6740   28.5220 C   0  0  0  0  0  0
   35.9060    7.0470   24.6910 N   0  0  0  0  0  0
   35.0560    7.7780   23.7640 C   0  0  2  0  0  0
   33.7420    7.0580   23.4980 C   0  0  0  0  0  0
   33.5640    5.8980   23.8730 O   0  0  0  0  0  0
   35.8080    7.9460   22.4480 C   0  0  0  0  0  0
   36.3510    6.6580   21.9170 C   0  0  0  0  0  0
   35.5400    5.6050   21.5540 N   0  0  0  0  0  0
   37.6240    6.2200   21.7660 C   0  0  0  0  0  0
   36.2870    4.5740   21.2040 C   0  0  0  0  0  0
   37.5560    4.9200   21.3240 N   0  0  0  0  0  0
   32.8280    7.7560   22.8350 N   0  0  0  0  0  0
   31.5380    7.1830   22.4930 C   0  0  2  0  0  0
   31.7290    6.1880   21.3460 C   0  0  0  0  0  0
   32.8550    5.9050   20.9360 O   0  0  0  0  0  0
   30.5630    8.2920   22.0800 C   0  0  0  0  0  0
   31.0780    9.0670   21.0070 O   0  0  0  0  0  0
   30.6240    5.6460   20.8140 N   0  0  0  0  0  0
   30.7160    4.4910   19.9250 C   0  0  1  0  0  0
   29.3120    3.9070   19.5930 C   0  0  1  0  0  0
   29.4150    2.7060   18.6760 C   0  0  0  0  0  0
   28.8050    3.5380   20.8990 O   0  0  0  0  0  0
   27.5320    4.2710   21.5600 P   0  0  0  0  0  0
   26.3530    4.2980   20.6810 O   0  0  0  0  0  0
   28.0340    5.6570   21.9100 O   0  5  0  0  0  0
   27.3280    3.4990   22.8380 O   0  5  0  0  0  0
   31.3940    4.9360   18.5950 C   0  0  0  0  0  0
   31.0560    5.9470   18.0340 O   0  0  0  0  0  0
   32.3550    4.1480   18.1230 N   0  0  0  0  0  0
   33.0920    4.5180   16.9120 C   0  0  2  0  0  0
   32.3160    4.1590   15.6550 C   0  0  0  0  0  0
   31.4960    3.2430   15.6650 O   0  0  0  0  0  0
   34.4500    3.8140   16.8760 C   0  0  0  0  0  0
   35.3450    4.1520   18.0430 C   0  0  0  0  0  0
   37.0270    3.5560   17.8250 S   0  0  0  0  0  0
   37.7940    5.0330   17.2020 C   0  0  0  0  0  0
   32.5730    4.8700   14.5570 N   0  0  0  0  0  0
   47.6360   17.8900   21.4080 C   0  0  0  0  0  0
   47.2820   18.5240   20.0690 C   0  0  0  0  0  0
   48.3360   19.5170   19.6000 C   0  0  0  0  0  0
   48.5580   20.5990   20.6320 C   0  0  0  0  0  0
   48.9420   19.9870   21.9620 C   0  0  0  0  0  0
   47.8890   18.9910   22.4300 C   0  0  0  0  0  0
   46.5610   16.9100   21.8820 C   0  0  0  0  0  0
   45.5980   16.4120   20.8110 C   0  0  0  0  0  0
   46.2670   15.7480   19.6290 C   0  0  0  0  0  0
   45.2670   15.1090   18.6740 C   0  0  0  0  0  0
   44.5290   13.9440   19.2910 C   0  0  0  0  0  0
   45.1380   13.0160   19.8100 O   0  0  0  0  0  0
   42.3520   12.8250   19.4910 C   0  0  0  0  0  0
   43.2040   13.9860   19.2310 N   0  0  0  0  0  0
   41.3240   13.0860   20.5830 C   0  0  0  0  0  0
   41.6840   12.6510   21.9990 C   0  0  0  0  0  0
   41.6200   11.1400   22.1950 C   0  0  0  0  0  0
   40.2770   11.0612   23.9570 H   0  0  0  0  0  0
   42.0239   10.9955   24.3700 H   0  0  0  0  0  0
   41.9378    6.6010   24.6876 H   0  0  0  0  0  0
   41.8363    6.3391   27.4405 H   0  0  0  0  0  0
   43.2809    7.0548   26.6484 H   0  0  0  0  0  0
   40.8242    8.4911   27.7837 H   0  0  0  0  0  0
   42.5462    8.7455   28.2271 H   0  0  0  0  0  0
   43.0802    9.6745   26.0062 H   0  0  0  0  0  0
   41.4424   10.3546   26.2917 H   0  0  0  0  0  0
   39.3755    8.3137   26.4556 H   0  0  0  0  0  0
   37.7100    5.7541   25.9962 H   0  0  0  0  0  0
   37.3453    8.0234   28.0212 H   0  0  0  0  0  0
   36.2034    6.6567   27.7870 H   0  0  0  0  0  0
   39.0795    6.3846   28.7273 H   0  0  0  0  0  0
   37.6476    7.6250   30.3197 H   0  0  0  0  0  0
   38.0429    5.9797   30.9227 H   0  0  0  0  0  0
   36.4200    6.3167   30.2302 H   0  0  0  0  0  0
   38.1768    4.4191   27.5197 H   0  0  0  0  0  0
   36.7307    4.4325   28.5853 H   0  0  0  0  0  0
   38.3535    4.0956   29.2778 H   0  0  0  0  0  0
   35.7535    5.9683   24.8433 H   0  0  0  0  0  0
   34.8403    8.7387   24.2545 H   0  0  0  0  0  0
   35.9718    8.8820   21.8938 H   0  0  0  0  0  0
   38.6027    6.6959   21.9263 H   0  0  0  0  0  0
   35.9191    3.6030   20.8726 H   0  0  0  0  0  0
   33.0651    8.7900   22.5440 H   0  0  0  0  0  0
   31.1637    6.6748   23.3939 H   0  0  0  0  0  0
   29.6116    7.8429   21.7589 H   0  0  0  0  0  0
   30.3831    8.9594   22.9356 H   0  0  0  0  0  0
   30.4895    9.9025   20.6000 H   0  0  0  0  0  0
   29.6416    6.0794   21.0528 H   0  0  0  0  0  0
   31.3095    3.7539   20.4858 H   0  0  0  0  0  0
   28.6152    4.5941   19.0906 H   0  0  0  0  0  0
   29.8023    3.0244   17.6969 H   0  0  0  0  0  0
   28.4194    2.2561   18.5478 H   0  0  0  0  0  0
   30.0981    1.9653   19.1173 H   0  0  0  0  0  0
   32.5953    3.2121   18.6487 H   0  0  0  0  0  0
   33.2101    5.6099   16.9745 H   0  0  0  0  0  0
   34.2986    2.7245   16.8867 H   0  0  0  0  0  0
   34.9874    4.1005   15.9600 H   0  0  0  0  0  0
   35.3886    5.2441   18.1673 H   0  0  0  0  0  0
   34.9421    3.6945   18.9586 H   0  0  0  0  0  0
   38.8595    4.8394   17.0088 H   0  0  0  0  0  0
   37.6965    5.8382   17.9451 H   0  0  0  0  0  0
   37.3008    5.3356   16.2665 H   0  0  0  0  0  0
   33.3142    5.6822   14.5886 H   0  0  0  0  0  0
   32.0439    4.6445   13.6194 H   0  0  0  0  0  0
   48.5559   17.2994   21.2852 H   0  0  0  0  0  0
   47.1912   17.7387   19.3041 H   0  0  0  0  0  0
   46.3260   19.0607   20.1587 H   0  0  0  0  0  0
   49.2867   18.9901   19.4312 H   0  0  0  0  0  0
   48.0055   19.9868   18.6619 H   0  0  0  0  0  0
   49.3667   21.2650   20.2968 H   0  0  0  0  0  0
   47.6329   21.1805   20.7585 H   0  0  0  0  0  0
   49.9031   19.4618   21.8601 H   0  0  0  0  0  0
   49.0364   20.7810   22.7174 H   0  0  0  0  0  0
   46.9556   19.5440   22.6119 H   0  0  0  0  0  0
   48.2396   18.5436   23.3718 H   0  0  0  0  0  0
   47.0413   16.0146   22.3034 H   0  0  0  0  0  0
   45.9409   17.3907   22.6530 H   0  0  0  0  0  0
   44.9131   15.6713   21.2495 H   0  0  0  0  0  0
   45.0180   17.2594   20.4167 H   0  0  0  0  0  0
   46.8421   16.4970   19.0648 H   0  0  0  0  0  0
   46.9445   14.9588   19.9868 H   0  0  0  0  0  0
   44.5197   15.8572   18.3711 H   0  0  0  0  0  0
   45.7958   14.7377   17.7838 H   0  0  0  0  0  0
   41.8087   12.5560   18.5731 H   0  0  0  0  0  0
   42.9755   11.9767   19.8100 H   0  0  0  0  0  0
   42.7505   14.9538   18.9708 H   0  0  0  0  0  0
   41.1260   14.1660   20.6496 H   0  0  0  0  0  0
   40.3906   12.5563   20.3421 H   0  0  0  0  0  0
   42.7093   12.9741   22.2323 H   0  0  0  0  0  0
   40.9837   13.1095   22.7127 H   0  0  0  0  0  0
   42.6122   10.7629   21.9063 H   0  0  0  0  0  0
   40.8681   10.7811   21.4768 H   0  0  0  0  0  0
   34.4462    5.7161   21.5881 H   0  0  0  0  0  0
  1  2  2  0  0  0
  1  3  1  0  0  0
  1  4  1  0  0  0
  3 71  1  0  0  0
  3 72  1  0  0  0
  3 73  1  0  0  0
  4  5  1  0  0  0
  4 10  1  0  0  0
  5  6  1  0  0  0
  5  8  1  0  0  0
  5 74  1  0  0  0
  6  7  2  0  0  0
  6 11  1  0  0  0
  8  9  1  0  0  0
  8 75  1  0  0  0
  8 76  1  0  0  0
  9 10  1  0  0  0
  9 77  1  0  0  0
  9 78  1  0  0  0
 10 79  1  0  0  0
 10 80  1  0  0  0
 11 12  1  0  0  0
 11 81  1  0  0  0
 12 13  1  0  0  0
 12 15  1  0  0  0
 12 82  1  0  0  0
 13 14  2  0  0  0
 13 19  1  0  0  0
 15 16  1  0  0  0
 15 83  1  0  0  0
 15 84  1  0  0  0
 16 17  1  0  0  0
 16 18  1  0  0  0
 16 85  1  0  0  0
 17 86  1  0  0  0
 17 87  1  0  0  0
 17 88  1  0  0  0
 18 89  1  0  0  0
 18 90  1  0  0  0
 18 91  1  0  0  0
 19 20  1  0  0  0
 19 92  1  0  0  0
 20 21  1  0  0  0
 20 23  1  0  0  0
 20 93  1  0  0  0
 21 22  2  0  0  0
 21 29  1  0  0  0
 23 24  2  0  0  0
 23 94  1  0  0  0
 24 25  1  0  0  0
 24 26  1  0  0  0
 25 27  1  0  0  0
 25147  1  0  0  0
 26 28  2  0  0  0
 26 95  1  0  0  0
 27 28  1  0  0  0
 27 96  1  0  0  0
 29 30  1  0  0  0
 29 97  1  0  0  0
 30 31  1  0  0  0
 30 33  1  0  0  0
 30 98  1  0  0  0
 31 32  2  0  0  0
 31 35  1  0  0  0
 33 34  1  0  0  0
 33 99  1  0  0  0
 33100  1  0  0  0
 34101  1  0  0  0
 35 36  1  0  0  0
 35102  1  0  0  0
 36 37  1  0  0  0
 36 44  1  0  0  0
 36103  1  0  0  0
 37 38  1  0  0  0
 37 39  1  0  0  0
 37104  1  0  0  0
 38105  1  0  0  0
 38106  1  0  0  0
 38107  1  0  0  0
 39 40  1  0  0  0
 40 41  2  0  0  0
 40 42  1  0  0  0
 40 43  1  0  0  0
 44 45  2  0  0  0
 44 46  1  0  0  0
 46 47  1  0  0  0
 46108  1  0  0  0
 47 48  1  0  0  0
 47 50  1  0  0  0
 47109  1  0  0  0
 48 49  2  0  0  0
 48 54  1  0  0  0
 50 51  1  0  0  0
 50110  1  0  0  0
 50111  1  0  0  0
 51 52  1  0  0  0
 51112  1  0  0  0
 51113  1  0  0  0
 52 53  1  0  0  0
 53114  1  0  0  0
 53115  1  0  0  0
 53116  1  0  0  0
 54117  1  0  0  0
 54118  1  0  0  0
 55 56  1  0  0  0
 55 60  1  0  0  0
 55 61  1  0  0  0
 55119  1  0  0  0
 56 57  1  0  0  0
 56120  1  0  0  0
 56121  1  0  0  0
 57 58  1  0  0  0
 57122  1  0  0  0
 57123  1  0  0  0
 58 59  1  0  0  0
 58124  1  0  0  0
 58125  1  0  0  0
 59 60  1  0  0  0
 59126  1  0  0  0
 59127  1  0  0  0
 60128  1  0  0  0
 60129  1  0  0  0
 61 62  1  0  0  0
 61130  1  0  0  0
 61131  1  0  0  0
 62 63  1  0  0  0
 62132  1  0  0  0
 62133  1  0  0  0
 63 64  1  0  0  0
 63134  1  0  0  0
 63135  1  0  0  0
 64 65  1  0  0  0
 64136  1  0  0  0
 64137  1  0  0  0
 65 66  2  0  0  0
 65 68  1  0  0  0
 67 68  1  0  0  0
 67 69  1  0  0  0
 67138  1  0  0  0
 67139  1  0  0  0
 68140  1  0  0  0
 69 70  1  0  0  0
 69141  1  0  0  0
 69142  1  0  0  0
 70 71  1  0  0  0
 70143  1  0  0  0
 70144  1  0  0  0
 71145  1  0  0  0
 71146  1  0  0  0
M  CHG  2  42  -1  43  -1
M  END
> <s_m_source_file>
../4lkm_ligand.sdf

> <i_m_source_file_index>
1

> <s_epik_input>
W0NIMl0xW0NIMl1bQ0gyXVtDSDJdW0NIMl1bQ0hdMVtDSDJdW0NIMl1bQ0gyXVtDSDJdQyg9TylbTkhdW0NIMl1bQ0gyXVtDSDJdW0NIMl1bQ0gyXUMoPU8pTjJbQ0BASF0oW0NIMl1bQ0gyXVtDSDJdMilDKD1PKVtOSF1bQ0BASF0oW0NIMl1bQ0hdKFtDSDNdKVtDSDNdKUMoPU8pW05IXVtDQEBIXShbQ0gyXUMzPU5bQ0gyXU49W0NIXTMpQyg9TylbTkhdW0NAQEhdKFtDSDJdW09IXSlDKD1PKVtOSF1bQ0BASF0oW0NAQEhdKFtDSDNdKU9QKD1PKShbT0hdKVtPSF0pQyg9TylbTkhdW0NASF0oQyg9TylbTkgyXSlbQ0gyXVtDSDJdU1tDSDNd

> <s_epik_cmdline>
J2VwaWtfYXBwJywgJy1pbWFlJywgJ2xpZ2FuZF9wcm8ubWFlJywgJy1vbWFlJywgJ2xpZ2FuZF9wcmVwLm1hZScsICctbXMnLCAnMScsICctcGgnLCAnNycsICctcGh0JywgJzAuNScsICctbnQn

> <r_epik_Ionization_Penalty>
  0.0872

> <r_epik_Ionization_Penalty_Charging>
  0.0872

> <r_epik_Ionization_Penalty_Neutral>
  0.0000

> <r_epik_State_Penalty>
  0.0777

> <r_epik_Charging_Adjusted_Penalty>
0.164911545042939

> <i_epik_Tot_Q>
-2

> <i_epik_Tot_abs_Q>
2

> <s_epik_Chemistry_Notes>
This compound has an imine and may undergo hydrolysis.

$$$$
