4lko_ligand
                    3D
 Schrodinger Suite 2020-3.
 45 47  0  0  1  0            999 V2000
   49.9950   49.6810   34.5850 C   0  0  0  0  0  0
   48.6350   50.2440   34.3470 C   0  0  0  0  0  0
   45.3600   52.3630   36.4630 N   0  3  0  0  0  0
   45.0760   51.5240   35.3020 C   0  0  0  0  0  0
   47.4870   50.4390   35.1820 C   0  0  0  0  0  0
   46.4170   51.2180   34.6130 C   0  0  0  0  0  0
   45.5570   52.7440   32.8740 C   0  0  0  0  0  0
   46.6060   51.8080   33.3310 C   0  0  0  0  0  0
   47.7250   51.6300   32.5680 N   0  0  0  0  0  0
   48.7020   50.8470   33.0800 C   0  0  0  0  0  0
   50.0500   50.5510   32.4260 C   0  0  0  0  0  0
   50.7050   49.7760   33.4670 N   0  0  0  0  0  0
   51.9160   48.9820   33.2770 C   0  0  0  0  0  0
   51.3470   47.6430   32.8360 C   0  0  0  0  0  0
   52.3580   46.6720   32.8370 O   0  0  0  0  0  0
   52.7770   46.0650   31.6120 C   0  0  0  0  0  0
   47.4630   50.0220   36.6160 C   0  0  0  0  0  0
   48.0120   50.8170   37.6780 C   0  0  0  0  0  0
   48.7800   52.2410   37.4830 Cl  0  0  0  0  0  0
   47.9730   50.5450   39.0640 C   0  0  0  0  0  0
   47.3180   49.3600   39.3560 C   0  0  0  0  0  0
   47.2800   49.1330   40.9790 Cl  0  0  0  0  0  0
   46.7610   48.4770   38.3590 C   0  0  0  0  0  0
   46.8300   48.8050   36.9640 C   0  0  0  0  0  0
   50.5160   49.1950   35.5820 O   0  0  0  0  0  0
   44.4197   52.6020   36.9815 H   0  0  0  0  0  0
   45.8437   53.2942   36.1329 H   0  0  0  0  0  0
   46.0305   51.8248   37.1491 H   0  0  0  0  0  0
   44.5923   50.5928   35.6321 H   0  0  0  0  0  0
   44.4055   52.0622   34.6159 H   0  0  0  0  0  0
   44.7365   52.7611   33.6064 H   0  0  0  0  0  0
   45.1708   52.4139   31.8983 H   0  0  0  0  0  0
   45.9832   53.7535   32.7772 H   0  0  0  0  0  0
   49.8900   49.9865   31.4956 H   0  0  0  0  0  0
   50.5623   51.4972   32.1973 H   0  0  0  0  0  0
   52.5486   49.4555   32.5117 H   0  0  0  0  0  0
   52.4694   48.9245   34.2259 H   0  0  0  0  0  0
   50.5494   47.3374   33.5292 H   0  0  0  0  0  0
   50.9344   47.7364   31.8206 H   0  0  0  0  0  0
   53.5732   45.3346   31.8183 H   0  0  0  0  0  0
   53.1578   46.8398   30.9303 H   0  0  0  0  0  0
   51.9223   45.5537   31.1451 H   0  0  0  0  0  0
   48.4105   51.1964   39.8206 H   0  0  0  0  0  0
   46.2817   47.5488   38.6702 H   0  0  0  0  0  0
   46.4124   48.1446   36.2040 H   0  0  0  0  0  0
  1  2  1  0  0  0
  1 12  1  0  0  0
  1 25  2  0  0  0
  2  5  2  0  0  0
  2 10  1  0  0  0
  3  4  1  0  0  0
  3 26  1  0  0  0
  3 27  1  0  0  0
  3 28  1  0  0  0
  4  6  1  0  0  0
  4 29  1  0  0  0
  4 30  1  0  0  0
  5  6  1  0  0  0
  5 17  1  0  0  0
  6  8  2  0  0  0
  7  8  1  0  0  0
  7 31  1  0  0  0
  7 32  1  0  0  0
  7 33  1  0  0  0
  8  9  1  0  0  0
  9 10  2  0  0  0
 10 11  1  0  0  0
 11 12  1  0  0  0
 11 34  1  0  0  0
 11 35  1  0  0  0
 12 13  1  0  0  0
 13 14  1  0  0  0
 13 36  1  0  0  0
 13 37  1  0  0  0
 14 15  1  0  0  0
 14 38  1  0  0  0
 14 39  1  0  0  0
 15 16  1  0  0  0
 16 40  1  0  0  0
 16 41  1  0  0  0
 16 42  1  0  0  0
 17 18  2  0  0  0
 17 24  1  0  0  0
 18 19  1  0  0  0
 18 20  1  0  0  0
 20 21  2  0  0  0
 20 43  1  0  0  0
 21 22  1  0  0  0
 21 23  1  0  0  0
 23 24  2  0  0  0
 23 44  1  0  0  0
 24 45  1  0  0  0
M  CHG  1   3   1
M  END
> <s_m_source_file>
../4lko_ligand.sdf

> <i_m_source_file_index>
1

> <s_epik_input>
W0NIM11PW0NIMl1bQ0gyXU4oQzE9TylbQ0gyXWMoYzEyKW5jKFtDSDNdKWMoW0NIMl1bTkgzK10pYzItYzNjKENsKVtjSF1jKENsKVtjSF1bY0hdMw==

> <s_epik_cmdline>
J2VwaWtfYXBwJywgJy1pbWFlJywgJ2xpZ2FuZF9wcm8ubWFlJywgJy1vbWFlJywgJ2xpZ2FuZF9wcmVwLm1hZScsICctbXMnLCAnMScsICctcGgnLCAnNycsICctcGh0JywgJzAuNScsICctbnQn

> <r_epik_Ionization_Penalty>
  0.0683

> <r_epik_Ionization_Penalty_Charging>
  0.0683

> <r_epik_Ionization_Penalty_Neutral>
  0.0000

> <r_epik_State_Penalty>
  0.0598

> <r_epik_Charging_Adjusted_Penalty>
0.12805004674612

> <i_epik_Tot_Q>
1

> <i_epik_Tot_abs_Q>
1

$$$$
