4lkt_ligand
                    3D
 Schrodinger Suite 2020-3.
 53 52  0  0  1  0            999 V2000
   31.7330   -7.3400   -6.5580 C   0  0  0  0  0  0
   33.1060   -7.0000   -6.0850 C   0  0  0  0  0  0
   33.0960   -5.6860   -5.3790 C   0  0  0  0  0  0
   33.7850   -5.8370   -4.0650 C   0  0  0  0  0  0
   34.8050   -4.7600   -3.9010 C   0  0  0  0  0  0
   35.2450   -4.7090   -2.4770 C   0  0  0  0  0  0
   36.6130   -5.2880   -2.3450 C   0  0  0  0  0  0
   36.6180   -6.3020   -1.2500 C   0  0  0  0  0  0
   38.0100   -6.7850   -1.0210 C   0  0  0  0  0  0
   38.2590   -8.1050   -0.7690 C   0  0  0  0  0  0
   37.4910   -8.8520    0.2710 C   0  0  0  0  0  0
   38.4490   -9.5310    1.1920 C   0  0  0  0  0  0
   38.0340  -10.4670    2.0990 C   0  0  0  0  0  0
   36.7360  -11.1880    1.9440 C   0  0  0  0  0  0
   36.9850  -12.6200    1.6000 C   0  0  0  0  0  0
   37.2180  -13.4370    2.8270 C   0  0  0  0  0  0
   36.9660  -14.8690    2.4980 C   0  0  0  0  0  0
   37.5650  -15.7350    3.5510 C   0  0  0  0  0  0
   30.7350   -6.7250   -6.1000 O   0  0  0  0  0  0
   31.5750   -8.2480   -7.4160 O   0  5  0  0  0  0
   33.4585   -7.7785   -5.3924 H   0  0  0  0  0  0
   33.7866   -6.9407   -6.9471 H   0  0  0  0  0  0
   33.6216   -4.9374   -5.9901 H   0  0  0  0  0  0
   32.0565   -5.3639   -5.2185 H   0  0  0  0  0  0
   33.0463   -5.7644   -3.2532 H   0  0  0  0  0  0
   34.2818   -6.8175   -4.0220 H   0  0  0  0  0  0
   35.6702   -4.9732   -4.5459 H   0  0  0  0  0  0
   34.3655   -3.7924   -4.1851 H   0  0  0  0  0  0
   35.2599   -3.6636   -2.1351 H   0  0  0  0  0  0
   34.5455   -5.2879   -1.8561 H   0  0  0  0  0  0
   36.9008   -5.7682   -3.2919 H   0  0  0  0  0  0
   37.3288   -4.4872   -2.1076 H   0  0  0  0  0  0
   36.2330   -5.8458   -0.3261 H   0  0  0  0  0  0
   35.9788   -7.1511   -1.5336 H   0  0  0  0  0  0
   38.6229   -6.5716   -1.9091 H   0  0  0  0  0  0
   38.4378   -6.2703   -0.1480 H   0  0  0  0  0  0
   38.0853   -8.6919   -1.6830 H   0  0  0  0  0  0
   39.3042   -8.2263   -0.4485 H   0  0  0  0  0  0
   36.8655   -8.1489    0.8405 H   0  0  0  0  0  0
   36.8500   -9.6023   -0.2149 H   0  0  0  0  0  0
   39.5135   -9.2612    1.1280 H   0  0  0  0  0  0
   38.6621  -10.7052    2.9700 H   0  0  0  0  0  0
   36.1723  -11.1351    2.8871 H   0  0  0  0  0  0
   36.1499  -10.7192    1.1398 H   0  0  0  0  0  0
   36.1121  -13.0265    1.0683 H   0  0  0  0  0  0
   37.8735  -12.6932    0.9557 H   0  0  0  0  0  0
   38.2575  -13.3066    3.1624 H   0  0  0  0  0  0
   36.5323  -13.1085    3.6219 H   0  0  0  0  0  0
   35.8819  -15.0487    2.4493 H   0  0  0  0  0  0
   37.4212  -15.1074    1.5254 H   0  0  0  0  0  0
   37.3783  -16.7912    3.3070 H   0  0  0  0  0  0
   37.1099  -15.4974    4.5238 H   0  0  0  0  0  0
   38.6492  -15.5560    3.5999 H   0  0  0  0  0  0
  1  2  1  0  0  0
  1 19  2  0  0  0
  1 20  1  0  0  0
  2  3  1  0  0  0
  2 21  1  0  0  0
  2 22  1  0  0  0
  3  4  1  0  0  0
  3 23  1  0  0  0
  3 24  1  0  0  0
  4  5  1  0  0  0
  4 25  1  0  0  0
  4 26  1  0  0  0
  5  6  1  0  0  0
  5 27  1  0  0  0
  5 28  1  0  0  0
  6  7  1  0  0  0
  6 29  1  0  0  0
  6 30  1  0  0  0
  7  8  1  0  0  0
  7 31  1  0  0  0
  7 32  1  0  0  0
  8  9  1  0  0  0
  8 33  1  0  0  0
  8 34  1  0  0  0
  9 10  1  0  0  0
  9 35  1  0  0  0
  9 36  1  0  0  0
 10 11  1  0  0  0
 10 37  1  0  0  0
 10 38  1  0  0  0
 11 12  1  0  0  0
 11 39  1  0  0  0
 11 40  1  0  0  0
 12 13  2  0  0  0
 12 41  1  0  0  0
 13 14  1  0  0  0
 13 42  1  0  0  0
 14 15  1  0  0  0
 14 43  1  0  0  0
 14 44  1  0  0  0
 15 16  1  0  0  0
 15 45  1  0  0  0
 15 46  1  0  0  0
 16 17  1  0  0  0
 16 47  1  0  0  0
 16 48  1  0  0  0
 17 18  1  0  0  0
 17 49  1  0  0  0
 17 50  1  0  0  0
 18 51  1  0  0  0
 18 52  1  0  0  0
 18 53  1  0  0  0
M  CHG  1  20  -1
M  END
> <s_m_source_file>
../4lkt_ligand.sdf

> <i_m_source_file_index>
1

> <s_epik_input>
Tz1DKFtPSF0pW0NIMl1bQ0gyXVtDSDJdW0NIMl1bQ0gyXVtDSDJdW0NIMl1bQ0gyXVtDSDJdW0NIMl0vW0NIXT1bQ0hdXFtDSDJdW0NIMl1bQ0gyXVtDSDJdW0NIM10=

> <s_epik_cmdline>
J2VwaWtfYXBwJywgJy1pbWFlJywgJ2xpZ2FuZF9wcm8ubWFlJywgJy1vbWFlJywgJ2xpZ2FuZF9wcmVwLm1hZScsICctbXMnLCAnMScsICctcGgnLCAnNycsICctcGh0JywgJzAuNScsICctbnQn

> <r_lp_tautomer_probability>
1

> <r_epik_Ionization_Penalty>
  0.0049

> <r_epik_Ionization_Penalty_Charging>
  0.0049

> <r_epik_Ionization_Penalty_Neutral>
  0.0000

> <r_epik_State_Penalty>
 -0.0000

> <r_epik_Charging_Adjusted_Penalty>
0.00486649495677768

> <i_epik_Tot_Q>
-1

> <i_epik_Tot_abs_Q>
1

$$$$
