4ll3_ligand
                    3D
 Schrodinger Suite 2020-3.
 75 78  0  0  1  0            999 V2000
   -8.7280   16.1900   18.4900 N   0  0  0  0  0  0
   -8.6590   15.9120   19.8190 C   0  0  0  0  0  0
   -9.8260   15.8320   20.5830 C   0  0  0  0  0  0
   -9.7470   15.5250   21.9410 C   0  0  0  0  0  0
   -8.5060   15.3090   22.5460 C   0  0  0  0  0  0
   -7.3390   15.3710   21.7760 C   0  0  0  0  0  0
   -7.4180   15.6730   20.4120 C   0  0  0  0  0  0
   -8.4250   14.9710   24.1160 S   0  0  0  0  0  0
   -9.5890   14.2270   24.4950 O   0  0  0  0  0  0
   -7.2730   14.1690   24.3740 O   0  0  0  0  0  0
   -8.3020   16.3060   25.0580 N   0  0  1  0  0  0
   -7.1690   17.1940   24.7030 C   0  0  0  0  0  0
   -6.5900   17.9220   25.9210 C   0  0  0  0  0  0
   -6.2160   16.9660   27.0530 C   0  0  0  0  0  0
   -5.3960   18.8010   25.5250 C   0  0  0  0  0  0
   -9.5550   17.0850   25.1760 C   0  0  0  0  0  0
  -10.0020   17.1050   26.6460 C   0  0  1  0  0  0
  -11.0830   18.0300   26.8900 O   0  0  0  0  0  0
  -10.4000   15.7310   27.1610 C   0  0  1  0  0  0
  -10.4980   15.9210   28.6040 N   0  0  0  0  0  0
   -9.7140   15.2600   29.4470 C   0  0  0  0  0  0
   -8.8440   14.4450   29.1150 O   0  0  0  0  0  0
   -9.9400   15.5810   30.8450 O   0  0  0  0  0  0
   -9.3450   14.7250   31.7950 C   0  0  1  0  0  0
   -9.0900   15.6300   32.9840 C   0  0  0  0  0  0
  -10.3190   15.6340   33.7110 O   0  0  0  0  0  0
  -11.1070   14.4780   33.3920 C   0  0  1  0  0  0
  -12.3680   14.8560   32.8400 O   0  0  0  0  0  0
  -12.7230   13.9900   31.7550 C   0  0  0  0  0  0
  -11.4400   13.3300   31.2910 C   0  0  0  0  0  0
  -10.3790   13.7390   32.3000 C   0  0  1  0  0  0
  -11.7920   15.2870   26.7040 C   0  0  0  0  0  0
  -13.2800   13.8750   28.1470 C   0  0  0  0  0  0
  -13.6490   12.6530   28.7060 C   0  0  0  0  0  0
  -12.8910   11.5160   28.4230 C   0  0  0  0  0  0
  -11.7820   11.6020   27.5810 C   0  0  0  0  0  0
  -11.4090   12.8190   27.0170 C   0  0  0  0  0  0
  -12.1600   13.9570   27.3060 C   0  0  0  0  0  0
   -9.7032   16.3791   18.0176 H   0  0  0  0  0  0
   -7.8086   16.2258   17.8871 H   0  0  0  0  0  0
  -10.7961   16.0092   20.1186 H   0  0  0  0  0  0
  -10.6587   15.4531   22.5341 H   0  0  0  0  0  0
   -6.3697   15.1843   22.2383 H   0  0  0  0  0  0
   -6.5095   15.7217   19.8118 H   0  0  0  0  0  0
   -6.3633   16.5973   24.2506 H   0  0  0  0  0  0
   -7.5100   17.9541   23.9847 H   0  0  0  0  0  0
   -7.3880   18.5715   26.3099 H   0  0  0  0  0  0
   -7.0885   16.3498   27.3158 H   0  0  0  0  0  0
   -5.8981   17.5455   27.9323 H   0  0  0  0  0  0
   -5.3922   16.3147   26.7257 H   0  0  0  0  0  0
   -5.6931   19.4776   24.7102 H   0  0  0  0  0  0
   -4.5666   18.1623   25.1872 H   0  0  0  0  0  0
   -5.0725   19.3931   26.3938 H   0  0  0  0  0  0
   -9.3808   18.1143   24.8294 H   0  0  0  0  0  0
  -10.3367   16.6178   24.5591 H   0  0  0  0  0  0
   -9.1536   17.4905   27.2305 H   0  0  0  0  0  0
  -10.9853   19.0827   26.5862 H   0  0  0  0  0  0
   -9.6647   14.9768   26.8439 H   0  0  0  0  0  0
  -11.2347   16.6257   29.0172 H   0  0  0  0  0  0
   -8.4784   14.2362   31.3258 H   0  0  0  0  0  0
   -8.2631   15.2226   33.5842 H   0  0  0  0  0  0
   -8.8238   16.6363   32.6284 H   0  0  0  0  0  0
  -11.2861   13.9196   34.3227 H   0  0  0  0  0  0
  -13.4457   13.2390   32.1067 H   0  0  0  0  0  0
  -13.1745   14.5825   30.9456 H   0  0  0  0  0  0
  -11.5750   12.2385   31.2727 H   0  0  0  0  0  0
  -11.1894   13.6855   30.2806 H   0  0  0  0  0  0
   -9.8516   12.8198   32.5948 H   0  0  0  0  0  0
  -12.5364   16.0337   27.0176 H   0  0  0  0  0  0
  -11.8057   15.1935   25.6081 H   0  0  0  0  0  0
  -13.8633   14.7699   28.3638 H   0  0  0  0  0  0
  -14.5204   12.5860   29.3574 H   0  0  0  0  0  0
  -13.1665   10.5569   28.8616 H   0  0  0  0  0  0
  -11.2009   10.7061   27.3622 H   0  0  0  0  0  0
  -10.5422   12.8809   26.3590 H   0  0  0  0  0  0
  1  2  1  0  0  0
  1 39  1  0  0  0
  1 40  1  0  0  0
  2  3  2  0  0  0
  2  7  1  0  0  0
  3  4  1  0  0  0
  3 41  1  0  0  0
  4  5  2  0  0  0
  4 42  1  0  0  0
  5  6  1  0  0  0
  5  8  1  0  0  0
  6  7  2  0  0  0
  6 43  1  0  0  0
  7 44  1  0  0  0
  8  9  2  0  0  0
  8 10  2  0  0  0
  8 11  1  0  0  0
 11 12  1  0  0  0
 11 16  1  0  0  0
 12 13  1  0  0  0
 12 45  1  0  0  0
 12 46  1  0  0  0
 13 14  1  0  0  0
 13 15  1  0  0  0
 13 47  1  0  0  0
 14 48  1  0  0  0
 14 49  1  0  0  0
 14 50  1  0  0  0
 15 51  1  0  0  0
 15 52  1  0  0  0
 15 53  1  0  0  0
 16 17  1  0  0  0
 16 54  1  0  0  0
 16 55  1  0  0  0
 17 18  1  0  0  0
 17 19  1  0  0  0
 17 56  1  0  0  0
 18 57  1  0  0  0
 19 20  1  0  0  0
 19 32  1  0  0  0
 19 58  1  0  0  0
 20 21  1  0  0  0
 20 59  1  0  0  0
 21 22  2  0  0  0
 21 23  1  0  0  0
 23 24  1  0  0  0
 24 25  1  0  0  0
 24 31  1  0  0  0
 24 60  1  0  0  0
 25 26  1  0  0  0
 25 61  1  0  0  0
 25 62  1  0  0  0
 26 27  1  0  0  0
 27 28  1  0  0  0
 27 31  1  0  0  0
 27 63  1  0  0  0
 28 29  1  0  0  0
 29 30  1  0  0  0
 29 64  1  0  0  0
 29 65  1  0  0  0
 30 31  1  0  0  0
 30 66  1  0  0  0
 30 67  1  0  0  0
 31 68  1  0  0  0
 32 38  1  0  0  0
 32 69  1  0  0  0
 32 70  1  0  0  0
 33 34  2  0  0  0
 33 38  1  0  0  0
 33 71  1  0  0  0
 34 35  1  0  0  0
 34 72  1  0  0  0
 35 36  2  0  0  0
 35 73  1  0  0  0
 36 37  1  0  0  0
 36 74  1  0  0  0
 37 38  2  0  0  0
 37 75  1  0  0  0
M  END
> <s_m_source_file>
../4ll3_ligand.sdf

> <i_m_source_file_index>
1

> <s_epik_input>
W05IMl1jMVtjSF1bY0hdYyhbY0hdW2NIXTEpUyg9TykoPU8pTihbQ0gyXVtDSF0oW0NIM10pW0NIM10pW0NIMl1bQ0BASF0oW09IXSlbQ0BASF0oW05IXUMoPU8pT1tDQEBIXShbQ0gyXU8yKVtDQEBIXShbQ0BASF0yMylbQ0gyXVtDSDJdTzMpW0NIMl1jNFtjSF1bY0hdW2NIXVtjSF1bY0hdNA==

> <s_epik_cmdline>
J2VwaWtfYXBwJywgJy1pbWFlJywgJ2xpZ2FuZF9wcm8ubWFlJywgJy1vbWFlJywgJ2xpZ2FuZF9wcmVwLm1hZScsICctbXMnLCAnMScsICctcGgnLCAnNycsICctcGh0JywgJzAuNScsICctbnQn

> <r_lp_tautomer_probability>
1

> <r_epik_Ionization_Penalty>
  0.0000

> <r_epik_Ionization_Penalty_Charging>
  0.0000

> <r_epik_Ionization_Penalty_Neutral>
  0.0000

> <r_epik_State_Penalty>
 -0.0000

> <r_epik_Charging_Adjusted_Penalty>
0

> <i_epik_Tot_Q>
0

> <i_epik_Tot_abs_Q>
0

> <s_epik_Chemistry_Notes>
This compound has an ester and may undergo hydrolysis at high or low pH. This compound contains an acetal/aminal-like group ( X-CH(R)-Y where X, Y are N, S, or O) that may be acid/base labile, releasing an aldehyde.

$$$$
