4llk_ligand
                    3D
 Schrodinger Suite 2020-3.
 20 21  0  0  1  0            999 V2000
    3.6590   14.0190   40.6910 C   0  0  0  0  0  0
    3.9130   13.5330   42.0970 C   0  0  0  0  0  0
    3.5340   14.2930   43.1470 N   0  0  0  0  0  0
    3.7640   13.8490   44.4160 C   0  0  0  0  0  0
    3.3510   14.6120   45.5020 C   0  0  0  0  0  0
    3.5990   14.1330   46.7980 C   0  0  0  0  0  0
    4.2290   12.9010   47.0200 C   0  0  0  0  0  0
    4.6390   12.1310   45.9320 C   0  0  0  0  0  0
    4.3940   12.6160   44.6360 C   0  0  0  0  0  0
    4.7790   11.8710   43.5210 C   0  0  0  0  0  0
    5.3340   10.7940   43.6590 O   0  0  0  0  0  0
    4.5240   12.3480   42.2800 N   0  0  0  0  0  0
    3.1555   14.9964   40.7263 H   0  0  0  0  0  0
    3.0198   13.2961   40.1630 H   0  0  0  0  0  0
    4.6166   14.1188   40.1590 H   0  0  0  0  0  0
    2.8439   15.5648   45.3501 H   0  0  0  0  0  0
    3.2936   14.7349   47.6539 H   0  0  0  0  0  0
    4.3975   12.5468   48.0370 H   0  0  0  0  0  0
    5.1385   11.1741   46.0835 H   0  0  0  0  0  0
    4.8272   11.7455   41.4110 H   0  0  0  0  0  0
  1  2  1  0  0  0
  1 13  1  0  0  0
  1 14  1  0  0  0
  1 15  1  0  0  0
  2  3  2  0  0  0
  2 12  1  0  0  0
  3  4  1  0  0  0
  4  5  2  0  0  0
  4  9  1  0  0  0
  5  6  1  0  0  0
  5 16  1  0  0  0
  6  7  2  0  0  0
  6 17  1  0  0  0
  7  8  1  0  0  0
  7 18  1  0  0  0
  8  9  2  0  0  0
  8 19  1  0  0  0
  9 10  1  0  0  0
 10 11  2  0  0  0
 10 12  1  0  0  0
 12 20  1  0  0  0
M  END
> <s_m_source_file>
../4llk_ligand.sdf

> <i_m_source_file_index>
1

> <s_epik_input>
W0NIM11jKFtuSF0xKW5jKD1PKWMoYzEyKVtjSF1bY0hdW2NIXVtjSF0y

> <s_epik_cmdline>
J2VwaWtfYXBwJywgJy1pbWFlJywgJ2xpZ2FuZF9wcm8ubWFlJywgJy1vbWFlJywgJ2xpZ2FuZF9wcmVwLm1hZScsICctbXMnLCAnMScsICctcGgnLCAnNycsICctcGh0JywgJzAuNScsICctbnQn

> <r_lp_tautomer_probability>
1

> <r_epik_Ionization_Penalty>
  0.0007

> <r_epik_Ionization_Penalty_Charging>
  0.0007

> <r_epik_Ionization_Penalty_Neutral>
  0.0000

> <r_epik_State_Penalty>
 -0.0000

> <r_epik_Charging_Adjusted_Penalty>
0.000695702550160041

> <i_epik_Tot_Q>
0

> <i_epik_Tot_abs_Q>
0

$$$$
