4lm1_ligand
                    3D
 Schrodinger Suite 2020-3.
 19 20  0  0  1  0            999 V2000
    5.3090   10.5380   43.0340 O   0  5  0  0  0  0
    5.2630   11.3310   43.9720 N   0  3  0  0  0  0
    5.8000   11.0470   45.0360 O   0  0  0  0  0  0
    4.6320   12.5150   43.8840 C   0  0  0  0  0  0
    4.3520   13.2130   45.0630 C   0  0  0  0  0  0
    3.7000   14.4450   45.0080 C   0  0  0  0  0  0
    3.3240   14.9750   43.7770 C   0  0  0  0  0  0
    3.6010   14.2810   42.5970 C   0  0  0  0  0  0
    3.2270   14.8210   41.4130 N   0  0  0  0  0  0
    3.4700   14.1620   40.2550 C   0  0  0  0  0  0
    4.1170   12.9260   40.2430 C   0  0  0  0  0  0
    4.5200   12.3670   41.4500 C   0  0  0  0  0  0
    4.2560   13.0440   42.6450 C   0  0  0  0  0  0
    4.6436   12.7939   46.0260 H   0  0  0  0  0  0
    3.4855   14.9912   45.9266 H   0  0  0  0  0  0
    2.8111   15.9358   43.7338 H   0  0  0  0  0  0
    3.1532   14.6070   39.3118 H   0  0  0  0  0  0
    4.3034   12.4073   39.3026 H   0  0  0  0  0  0
    5.0380   11.4081   41.4651 H   0  0  0  0  0  0
  1  2  1  0  0  0
  2  3  2  0  0  0
  2  4  1  0  0  0
  4  5  2  0  0  0
  4 13  1  0  0  0
  5  6  1  0  0  0
  5 14  1  0  0  0
  6  7  2  0  0  0
  6 15  1  0  0  0
  7  8  1  0  0  0
  7 16  1  0  0  0
  8  9  1  0  0  0
  8 13  2  0  0  0
  9 10  2  0  0  0
 10 11  1  0  0  0
 10 17  1  0  0  0
 11 12  2  0  0  0
 11 18  1  0  0  0
 12 13  1  0  0  0
 12 19  1  0  0  0
M  CHG  2   1  -1   2   1
M  END
> <s_m_source_file>
../4lm1_ligand.sdf

> <i_m_source_file_index>
1

> <s_epik_input>
W2NIXTFbY0hdW2NIXWMoW04rXShbTy1dKT1PKWMoYzEyKVtjSF1bY0hdW2NIXW4y

> <s_epik_cmdline>
J2VwaWtfYXBwJywgJy1pbWFlJywgJ2xpZ2FuZF9wcm8ubWFlJywgJy1vbWFlJywgJ2xpZ2FuZF9wcmVwLm1hZScsICctbXMnLCAnMScsICctcGgnLCAnNycsICctcGh0JywgJzAuNScsICctbnQn

> <r_lp_tautomer_probability>
1

> <r_epik_Ionization_Penalty>
  0.0000

> <r_epik_Ionization_Penalty_Charging>
  0.0000

> <r_epik_Ionization_Penalty_Neutral>
  0.0000

> <r_epik_State_Penalty>
 -0.0000

> <r_epik_Charging_Adjusted_Penalty>
0

> <i_epik_Tot_Q>
0

> <i_epik_Tot_abs_Q>
2

$$$$
