4lm4_ligand
                    3D
 Schrodinger Suite 2020-3.
 17 18  0  0  1  0            999 V2000
    4.7040   11.7380   46.6180 C   0  0  0  0  0  0
    4.0400   12.8440   47.1510 C   0  0  0  0  0  0
    4.8380   11.5900   45.2350 C   0  0  0  0  0  0
    3.5020   13.8150   46.2980 C   0  0  0  0  0  0
    3.2520   14.4650   42.7230 C   0  0  0  0  0  0
    4.3050   12.5580   44.3770 C   0  0  0  0  0  0
    3.6390   13.6700   44.9120 C   0  0  0  0  0  0
    4.4200   12.4450   42.9830 C   0  0  0  0  0  0
    3.1300   14.6050   44.0690 N   0  0  0  0  0  0
    3.8890   13.4030   42.1810 N   0  0  0  0  0  0
    5.0370   11.4060   42.4320 O   0  0  0  0  0  0
    5.1211   10.9841   47.2856 H   0  0  0  0  0  0
    3.9404   12.9517   48.2311 H   0  0  0  0  0  0
    5.3563   10.7228   44.8258 H   0  0  0  0  0  0
    2.9798   14.6784   46.7101 H   0  0  0  0  0  0
    2.8275   15.2247   42.0667 H   0  0  0  0  0  0
    3.9778   13.3139   41.0882 H   0  0  0  0  0  0
  1  2  2  0  0  0
  1  3  1  0  0  0
  1 12  1  0  0  0
  2  4  1  0  0  0
  2 13  1  0  0  0
  3  6  2  0  0  0
  3 14  1  0  0  0
  4  7  2  0  0  0
  4 15  1  0  0  0
  5  9  2  0  0  0
  5 10  1  0  0  0
  5 16  1  0  0  0
  6  7  1  0  0  0
  6  8  1  0  0  0
  7  9  1  0  0  0
  8 10  1  0  0  0
  8 11  2  0  0  0
 10 17  1  0  0  0
M  END
> <s_m_source_file>
../4lm4_ligand.sdf

> <i_m_source_file_index>
1

> <s_epik_input>
W2NIXTFbY0hdW2NIXVtjSF1jKGMxMiluW2NIXVtuSF1jMj1P

> <s_epik_cmdline>
J2VwaWtfYXBwJywgJy1pbWFlJywgJ2xpZ2FuZF9wcm8ubWFlJywgJy1vbWFlJywgJ2xpZ2FuZF9wcmVwLm1hZScsICctbXMnLCAnMScsICctcGgnLCAnNycsICctcGh0JywgJzAuNScsICctbnQn

> <r_lp_tautomer_probability>
1

> <r_epik_Ionization_Penalty>
  0.0024

> <r_epik_Ionization_Penalty_Charging>
  0.0024

> <r_epik_Ionization_Penalty_Neutral>
  0.0000

> <r_epik_State_Penalty>
 -0.0000

> <r_epik_Charging_Adjusted_Penalty>
0.00244220815712683

> <i_epik_Tot_Q>
0

> <i_epik_Tot_abs_Q>
0

$$$$
