4lm5_ligand
                    3D
 Schrodinger Suite 2020-3.
 41 43  0  0  1  0            999 V2000
   37.5060    3.2390   -3.8860 C   0  0  0  0  0  0
   36.5520    3.3390   -2.8830 C   0  0  0  0  0  0
   36.8800    3.0930   -1.5520 C   0  0  0  0  0  0
   38.1800    2.7280   -1.1910 C   0  0  0  0  0  0
   39.1790    2.6040   -2.1580 C   0  0  0  0  0  0
   38.8160    2.8980   -3.5440 C   0  0  0  0  0  0
   39.7750    2.8240   -4.5040 O   0  0  0  0  0  0
   40.5650    2.2400   -1.7100 C   0  0  0  0  0  0
   40.7480    2.0360   -0.3350 N   0  0  0  0  0  0
   42.0210    1.7300    0.0430 C   0  0  0  0  0  0
   43.1120    1.6120   -0.8910 C   0  0  0  0  0  0
   42.7930    1.8440   -2.2450 C   0  0  0  0  0  0
   41.5110    2.1640   -2.6720 N   0  0  0  0  0  0
   43.8090    1.7670   -3.2560 C   0  0  0  0  0  0
   45.0830    1.4640   -2.8680 C   0  0  0  0  0  0
   45.4000    1.2400   -1.4940 C   0  0  0  0  0  0
   44.4350    1.3120   -0.5220 C   0  0  0  0  0  0
   42.2470    1.5210    1.3540 N   0  0  0  0  0  0
   41.2150    1.7440    2.3860 C   0  0  0  0  0  0
   41.0520    3.3070    2.5620 C   0  0  0  0  0  0
   39.8960    3.7150    3.4910 C   0  0  0  0  0  0
   40.1540    5.0740    3.9940 N   0  3  0  0  0  0
   37.2364    3.4240   -4.9258 H   0  0  0  0  0  0
   35.5295    3.6145   -3.1411 H   0  0  0  0  0  0
   36.1136    3.1862   -0.7825 H   0  0  0  0  0  0
   38.4161    2.5383   -0.1439 H   0  0  0  0  0  0
   39.5219    3.0414   -5.5522 H   0  0  0  0  0  0
   43.5704    1.9454   -4.3045 H   0  0  0  0  0  0
   45.8698    1.3921   -3.6189 H   0  0  0  0  0  0
   46.4271    1.0077   -1.2125 H   0  0  0  0  0  0
   44.6906    1.1388    0.5234 H   0  0  0  0  0  0
   43.2483    1.1700    1.6443 H   0  0  0  0  0  0
   40.2666    1.2922    2.0598 H   0  0  0  0  0  0
   41.5355    1.2814    3.3311 H   0  0  0  0  0  0
   41.9750    3.7261    2.9892 H   0  0  0  0  0  0
   40.8591    3.7682    1.5822 H   0  0  0  0  0  0
   38.9504    3.6972    2.9293 H   0  0  0  0  0  0
   39.8357    3.0096    4.3329 H   0  0  0  0  0  0
   39.3344    5.3799    4.6608 H   0  0  0  0  0  0
   40.2176    5.7726    3.1467 H   0  0  0  0  0  0
   41.1029    5.0850    4.5503 H   0  0  0  0  0  0
  1  2  2  0  0  0
  1  6  1  0  0  0
  1 23  1  0  0  0
  2  3  1  0  0  0
  2 24  1  0  0  0
  3  4  2  0  0  0
  3 25  1  0  0  0
  4  5  1  0  0  0
  4 26  1  0  0  0
  5  6  2  0  0  0
  5  8  1  0  0  0
  6  7  1  0  0  0
  7 27  1  0  0  0
  8  9  2  0  0  0
  8 13  1  0  0  0
  9 10  1  0  0  0
 10 11  2  0  0  0
 10 18  1  0  0  0
 11 12  1  0  0  0
 11 17  1  0  0  0
 12 13  2  0  0  0
 12 14  1  0  0  0
 14 15  2  0  0  0
 14 28  1  0  0  0
 15 16  1  0  0  0
 15 29  1  0  0  0
 16 17  2  0  0  0
 16 30  1  0  0  0
 17 31  1  0  0  0
 18 19  1  0  0  0
 18 32  1  0  0  0
 19 20  1  0  0  0
 19 33  1  0  0  0
 19 34  1  0  0  0
 20 21  1  0  0  0
 20 35  1  0  0  0
 20 36  1  0  0  0
 21 22  1  0  0  0
 21 37  1  0  0  0
 21 38  1  0  0  0
 22 39  1  0  0  0
 22 40  1  0  0  0
 22 41  1  0  0  0
M  CHG  1  22   1
M  END
> <s_m_source_file>
../4lm5_ligand.sdf

> <i_m_source_file_index>
1

> <s_epik_input>
W09IXWMxW2NIXVtjSF1bY0hdW2NIXWMxLWMobmMoYzIzKVtjSF1bY0hdW2NIXVtjSF0zKW5jMltOSF1bQ0gyXVtDSDJdW0NIMl1bTkgzK10=

> <s_epik_cmdline>
J2VwaWtfYXBwJywgJy1pbWFlJywgJ2xpZ2FuZF9wcm8ubWFlJywgJy1vbWFlJywgJ2xpZ2FuZF9wcmVwLm1hZScsICctbXMnLCAnMScsICctcGgnLCAnNycsICctcGh0JywgJzAuNScsICctbnQn

> <r_lp_tautomer_probability>
1

> <r_epik_Ionization_Penalty>
  0.0159

> <r_epik_Ionization_Penalty_Charging>
  0.0004

> <r_epik_Ionization_Penalty_Neutral>
  0.0155

> <r_epik_State_Penalty>
 -0.0000

> <r_epik_Charging_Adjusted_Penalty>
0.000367763986539853

> <i_epik_Tot_Q>
1

> <i_epik_Tot_abs_Q>
1

$$$$
