4lmu_ligand
                    3D
 Schrodinger Suite 2020-3.
 32 34  0  0  1  0            999 V2000
  169.7150 -122.8210    0.6660 C   0  0  0  0  0  0
  169.7830 -122.9090   -0.7420 C   0  0  0  0  0  0
  169.4160 -121.8060   -1.6030 C   0  0  0  0  0  0
  168.9810 -120.6070   -1.0100 C   0  0  0  0  0  0
  168.9080 -120.5050    0.4370 C   0  0  0  0  0  0
  169.2720 -121.5990    1.2900 C   0  0  0  0  0  0
  169.4770 -121.8330   -3.1020 C   0  0  0  0  0  0
  169.0920 -120.6940   -3.9860 C   0  0  0  0  0  0
  168.8240 -119.5050   -3.2930 C   0  0  0  0  0  0
  168.5060 -118.1540   -4.0060 C   0  0  0  0  0  0
  168.8180 -117.9450   -5.3630 C   0  0  0  0  0  0
  168.5160 -116.6890   -5.9740 C   0  0  0  0  0  0
  167.9120 -115.6340   -5.2560 C   0  0  0  0  0  0
  167.5840 -115.7940   -3.8800 C   0  0  0  0  0  0
  167.9030 -117.0610   -3.3090 C   0  0  0  0  0  0
  168.6270 -119.5450   -1.8880 O   0  0  0  0  0  0
  169.9130 -122.8830   -3.6500 O   0  0  0  0  0  0
  167.0260 -114.8300   -3.1980 O   0  0  0  0  0  0
  167.6520 -114.4560   -5.9200 O   0  0  0  0  0  0
  169.3000 -120.7290   -5.3400 O   0  0  0  0  0  0
  169.2040 -121.5070    2.6730 O   0  0  0  0  0  0
  170.2020 -124.0420   -1.4190 O   0  0  0  0  0  0
  169.9971 -123.6761    1.2803 H   0  0  0  0  0  0
  168.5675 -119.5722    0.8866 H   0  0  0  0  0  0
  169.2922 -118.7467   -5.9481 H   0  0  0  0  0  0
  168.7685 -116.5574   -7.0365 H   0  0  0  0  0  0
  166.9214 -117.3705   -2.9207 H   0  0  0  0  0  0
  168.5495 -116.7584   -2.4721 H   0  0  0  0  0  0
  167.9140 -114.3547   -6.9835 H   0  0  0  0  0  0
  169.5071 -121.6866   -5.8401 H   0  0  0  0  0  0
  169.4913 -122.3667    3.2962 H   0  0  0  0  0  0
  170.5039 -124.9382   -0.8572 H   0  0  0  0  0  0
  1  2  2  0  0  0
  1  6  1  0  0  0
  1 23  1  0  0  0
  2  3  1  0  0  0
  2 22  1  0  0  0
  3  4  2  0  0  0
  3  7  1  0  0  0
  4  5  1  0  0  0
  4 16  1  0  0  0
  5  6  2  0  0  0
  5 24  1  0  0  0
  6 21  1  0  0  0
  7  8  1  0  0  0
  7 17  2  0  0  0
  8  9  2  0  0  0
  8 20  1  0  0  0
  9 10  1  0  0  0
  9 16  1  0  0  0
 10 11  2  0  0  0
 10 15  1  0  0  0
 11 12  1  0  0  0
 11 25  1  0  0  0
 12 13  2  0  0  0
 12 26  1  0  0  0
 13 14  1  0  0  0
 13 19  1  0  0  0
 14 15  1  0  0  0
 14 18  2  0  0  0
 15 27  1  0  0  0
 15 28  1  0  0  0
 19 29  1  0  0  0
 20 30  1  0  0  0
 21 31  1  0  0  0
 22 32  1  0  0  0
M  END
> <s_m_source_file>
../4lmu_ligand.sdf

> <i_m_source_file_index>
1

> <s_epik_input>
W09IXWMxW2NIXWMoW09IXSlbY0hdYyhjMTIpb2MoYyhjMj1PKVtPSF0pQzM9W0NIXVtDSF09QyhbT0hdKUMoPU8pW0NIMl0z

> <s_epik_cmdline>
J2VwaWtfYXBwJywgJy1pbWFlJywgJ2xpZ2FuZF9wcm8ubWFlJywgJy1vbWFlJywgJ2xpZ2FuZF9wcmVwLm1hZScsICctbXMnLCAnMScsICctcGgnLCAnNycsICctcGh0JywgJzAuNScsICctbnQn

> <r_lp_tautomer_probability>
2.2399999999995e-13

> <r_epik_Ionization_Penalty>
  0.0636

> <r_epik_Ionization_Penalty_Charging>
  0.0000

> <r_epik_Ionization_Penalty_Neutral>
  0.0636

> <r_epik_State_Penalty>
  0.0507

> <r_epik_Charging_Adjusted_Penalty>
0.0507329390815444

> <i_epik_Tot_Q>
0

> <i_epik_Tot_abs_Q>
0

$$$$
