4ln2_ligand
                    3D
 Schrodinger Suite 2020-3.
160164  0  0  1  0            999 V2000
   21.9660   -9.6690  -15.1010 N   0  3  0  0  0  0
   20.7700  -10.1230  -15.8440 C   0  0  2  0  0  0
   19.5240   -9.7960  -15.0480 C   0  0  0  0  0  0
   19.3980  -10.1960  -13.8970 O   0  0  0  0  0  0
   20.8390  -11.6180  -16.1010 C   0  0  0  0  0  0
   19.6440  -12.1820  -16.8710 C   0  0  0  0  0  0
   19.4750  -11.5540  -18.2460 C   0  0  0  0  0  0
   19.7960  -13.6840  -16.9820 C   0  0  0  0  0  0
   18.6060   -9.0770  -15.6730 N   0  0  0  0  0  0
   17.3820   -8.6540  -15.0150 C   0  0  2  0  0  0
   16.3570   -8.3220  -16.0810 C   0  0  0  0  0  0
   16.7080   -8.1740  -17.2540 O   0  0  0  0  0  0
   17.6460   -7.4440  -14.1280 C   0  0  0  0  0  0
   15.0780   -8.2020  -15.6990 N   0  0  0  0  0  0
   14.0740   -7.8020  -16.6760 C   0  0  2  0  0  0
   14.4060   -6.4340  -17.2820 C   0  0  0  0  0  0
   15.1250   -5.6400  -16.6810 O   0  0  0  0  0  0
   12.7800   -7.7550  -15.8530 C   0  0  0  0  0  0
   13.0310   -8.6900  -14.7140 C   0  0  0  0  0  0
   14.4790   -8.4710  -14.3840 C   0  0  0  0  0  0
   13.8800   -6.1360  -18.4690 N   0  0  0  0  0  0
   14.1390   -4.8110  -19.0160 C   0  0  2  0  0  0
   13.5760   -3.7230  -18.1140 C   0  0  0  0  0  0
   12.5390   -3.9080  -17.4720 O   0  0  0  0  0  0
   13.4010   -4.8310  -20.3550 C   0  0  0  0  0  0
   13.3010   -6.2760  -20.7110 C   0  0  0  0  0  0
   13.0960   -6.9630  -19.3950 C   0  0  0  0  0  0
   14.2610   -2.5910  -18.0680 N   0  0  0  0  0  0
   13.8000   -1.4740  -17.2660 C   0  0  2  0  0  0
   12.5820   -0.8430  -17.9440 C   0  0  0  0  0  0
   12.6600   -0.4700  -19.1190 O   0  0  0  0  0  0
   14.9070   -0.4480  -17.1470 C   0  0  0  0  0  0
   14.6250    0.6940  -16.1990 C   0  0  0  0  0  0
   15.7100    1.7420  -16.3550 C   0  0  0  0  0  0
   15.6310    2.7940  -15.2760 C   0  0  0  0  0  0
   16.7280    3.7850  -15.4480 N   0  3  0  0  0  0
   11.4630   -0.6930  -17.2280 N   0  0  0  0  0  0
   10.3210   -0.0110  -17.8380 C   0  0  2  0  0  0
   10.6100    1.4720  -18.0280 C   0  0  0  0  0  0
   11.5180    2.0180  -17.3940 O   0  0  0  0  0  0
    9.1930   -0.2410  -16.8290 C   0  0  0  0  0  0
    9.8910   -0.4680  -15.5360 C   0  0  0  0  0  0
   11.1840   -1.1400  -15.8570 C   0  0  0  0  0  0
    9.8360    2.1390  -18.8910 N   0  0  0  0  0  0
    9.9430    3.5870  -18.9660 C   0  0  2  0  0  0
    9.5730    4.2010  -17.6190 C   0  0  0  0  0  0
    8.6960    3.6850  -16.9220 O   0  0  0  0  0  0
    8.9310    3.9640  -20.0500 C   0  0  0  0  0  0
    7.9370    2.8610  -20.0440 C   0  0  0  0  0  0
    8.6990    1.6190  -19.6650 C   0  0  0  0  0  0
   10.2430    5.2880  -17.2570 N   0  0  0  0  0  0
    9.9680    5.9680  -15.9960 C   0  0  2  0  0  0
    8.5560    6.5350  -15.9710 C   0  0  0  0  0  0
    7.9720    6.7940  -17.0160 O   0  0  0  0  0  0
   10.9600    7.1050  -15.7540 C   0  0  0  0  0  0
   12.3720    6.7130  -15.3460 C   0  0  0  0  0  0
   13.3270    7.8560  -15.6500 C   0  0  0  0  0  0
   12.4170    6.3360  -13.8800 C   0  0  0  0  0  0
    8.0190    6.7740  -14.7660 N   0  0  0  0  0  0
    6.7410    7.4680  -14.6530 C   0  0  2  0  0  0
    6.8260    8.9040  -15.1870 C   0  0  0  0  0  0
    7.9020    9.4190  -15.4680 O   0  0  0  0  0  0
    6.4650    7.4840  -13.1410 C   0  0  0  0  0  0
    7.3630    6.4460  -12.5600 C   0  0  0  0  0  0
    8.5760    6.4330  -13.4460 C   0  0  0  0  0  0
    5.6760    9.5540  -15.2810 N   0  0  0  0  0  0
    5.6350   10.9640  -15.6450 C   0  0  2  0  0  0
    6.0730   11.9030  -14.5300 C   0  0  0  0  0  0
    6.1030   11.5130  -13.3550 O   0  0  0  0  0  0
    4.2400   11.3370  -16.1520 C   0  0  0  0  0  0
    3.8590   10.5800  -17.4030 C   0  0  0  0  0  0
    4.9530   10.6700  -18.4410 C   0  0  0  0  0  0
    5.1640   11.7700  -18.9910 O   0  0  0  0  0  0
    5.6330    9.6520  -18.6870 O   0  0  0  0  0  0
    6.3890   13.0590  -14.8600 O   0  0  0  0  0  0
   21.8984   -8.5854  -14.9243 H   0  0  0  0  0  0
   22.8688   -9.8889  -15.6898 H   0  0  0  0  0  0
   22.0200  -10.1951  -14.1365 H   0  0  0  0  0  0
   20.7558   -9.5878  -16.8049 H   0  0  0  0  0  0
   21.7384  -11.8474  -16.6913 H   0  0  0  0  0  0
   20.8840  -12.1534  -15.1411 H   0  0  0  0  0  0
   18.7269  -11.9407  -16.3136 H   0  0  0  0  0  0
   19.3666  -10.4644  -18.1406 H   0  0  0  0  0  0
   18.5774  -11.9667  -18.7298 H   0  0  0  0  0  0
   20.3588  -11.7767  -18.8619 H   0  0  0  0  0  0
   19.9166  -14.1156  -15.9774 H   0  0  0  0  0  0
   20.6816  -13.9189  -17.5907 H   0  0  0  0  0  0
   18.9003  -14.1089  -17.4586 H   0  0  0  0  0  0
   18.7909   -8.8000  -16.7214 H   0  0  0  0  0  0
   17.0360   -9.4901  -14.3896 H   0  0  0  0  0  0
   18.3913   -7.7061  -13.3626 H   0  0  0  0  0  0
   16.7100   -7.1371  -13.6384 H   0  0  0  0  0  0
   18.0273   -6.6151  -14.7425 H   0  0  0  0  0  0
   14.0445   -8.5142  -17.5138 H   0  0  0  0  0  0
   12.6017   -6.7256  -15.5087 H   0  0  0  0  0  0
   11.9362   -8.0842  -16.4773 H   0  0  0  0  0  0
   12.3690   -8.4312  -13.8745 H   0  0  0  0  0  0
   12.8289   -9.7223  -15.0356 H   0  0  0  0  0  0
   14.9516   -9.3599  -13.9407 H   0  0  0  0  0  0
   14.6370   -7.6046  -13.7249 H   0  0  0  0  0  0
   15.2218   -4.6326  -19.0923 H   0  0  0  0  0  0
   12.4093   -4.3706  -20.2340 H   0  0  0  0  0  0
   13.9791   -4.2657  -21.1008 H   0  0  0  0  0  0
   12.4517   -6.4276  -21.3934 H   0  0  0  0  0  0
   14.2300   -6.5971  -21.2049 H   0  0  0  0  0  0
   13.4862   -7.9914  -19.3883 H   0  0  0  0  0  0
   12.0423   -6.9686  -19.0793 H   0  0  0  0  0  0
   15.1912   -2.5043  -18.6486 H   0  0  0  0  0  0
   13.5443   -1.8686  -16.2716 H   0  0  0  0  0  0
   15.8231   -0.9374  -16.7846 H   0  0  0  0  0  0
   15.0971    0.0023  -18.1325 H   0  0  0  0  0  0
   13.6456    1.1347  -16.4370 H   0  0  0  0  0  0
   14.6167    0.3187  -15.1650 H   0  0  0  0  0  0
   16.6968    1.2597  -16.2959 H   0  0  0  0  0  0
   15.6025    2.2387  -17.3306 H   0  0  0  0  0  0
   14.6627    3.3121  -15.3393 H   0  0  0  0  0  0
   15.7272    2.3159  -14.2900 H   0  0  0  0  0  0
   16.6613    4.5467  -14.6572 H   0  0  0  0  0  0
   16.6344    4.2685  -16.4316 H   0  0  0  0  0  0
   17.6990    3.2722  -15.3823 H   0  0  0  0  0  0
   10.1085   -0.4115  -18.8402 H   0  0  0  0  0  0
    8.5448    0.6471  -16.7950 H   0  0  0  0  0  0
    8.6005   -1.1159  -17.1345 H   0  0  0  0  0  0
   10.0654    0.4977  -15.0390 H   0  0  0  0  0  0
    9.2690   -1.1055  -14.8905 H   0  0  0  0  0  0
   11.1046   -2.2370  -15.8380 H   0  0  0  0  0  0
   12.0010   -0.8200  -15.1936 H   0  0  0  0  0  0
   10.9707    3.9024  -19.1993 H   0  0  0  0  0  0
    8.4684    4.9301  -19.7997 H   0  0  0  0  0  0
    9.4447    4.0437  -21.0194 H   0  0  0  0  0  0
    7.1477    3.0827  -19.3106 H   0  0  0  0  0  0
    7.4908    2.7640  -21.0448 H   0  0  0  0  0  0
    9.0728    1.0721  -20.5432 H   0  0  0  0  0  0
    8.1065    0.9395  -19.0347 H   0  0  0  0  0  0
   11.0206    5.6746  -17.9322 H   0  0  0  0  0  0
   10.0792    5.1827  -15.2338 H   0  0  0  0  0  0
   11.0714    7.6966  -16.6747 H   0  0  0  0  0  0
   10.5870    7.7513  -14.9458 H   0  0  0  0  0  0
   12.6863    5.8296  -15.9212 H   0  0  0  0  0  0
   13.2712    8.1057  -16.7198 H   0  0  0  0  0  0
   14.3538    7.5529  -15.3973 H   0  0  0  0  0  0
   13.0470    8.7364  -15.0528 H   0  0  0  0  0  0
   11.7170    5.5085  -13.6926 H   0  0  0  0  0  0
   12.1300    7.2046  -13.2691 H   0  0  0  0  0  0
   13.4367    6.0211  -13.6135 H   0  0  0  0  0  0
    5.9854    6.9411  -15.2543 H   0  0  0  0  0  0
    6.6914    8.4820  -12.7375 H   0  0  0  0  0  0
    5.4065    7.2464  -12.9589 H   0  0  0  0  0  0
    7.6205    6.7208  -11.5265 H   0  0  0  0  0  0
    6.8495    5.4732  -12.5637 H   0  0  0  0  0  0
    9.0556    5.4443  -13.4947 H   0  0  0  0  0  0
    9.3215    7.1882  -13.1563 H   0  0  0  0  0  0
    4.7411    9.0108  -15.0787 H   0  0  0  0  0  0
    6.3874   11.0445  -16.4434 H   0  0  0  0  0  0
    3.4945   11.1075  -15.3764 H   0  0  0  0  0  0
    4.2092   12.4119  -16.3834 H   0  0  0  0  0  0
    3.6931    9.5213  -17.1547 H   0  0  0  0  0  0
    2.9365   11.0070  -17.8233 H   0  0  0  0  0  0
    6.4347    9.6946  -19.4390 H   0  0  0  0  0  0
    6.7134   13.7801  -14.0952 H   0  0  0  0  0  0
  1  2  1  0  0  0
  1 76  1  0  0  0
  1 77  1  0  0  0
  1 78  1  0  0  0
  2  3  1  0  0  0
  2  5  1  0  0  0
  2 79  1  0  0  0
  3  4  2  0  0  0
  3  9  1  0  0  0
  5  6  1  0  0  0
  5 80  1  0  0  0
  5 81  1  0  0  0
  6  7  1  0  0  0
  6  8  1  0  0  0
  6 82  1  0  0  0
  7 83  1  0  0  0
  7 84  1  0  0  0
  7 85  1  0  0  0
  8 86  1  0  0  0
  8 87  1  0  0  0
  8 88  1  0  0  0
  9 10  1  0  0  0
  9 89  1  0  0  0
 10 11  1  0  0  0
 10 13  1  0  0  0
 10 90  1  0  0  0
 11 12  2  0  0  0
 11 14  1  0  0  0
 13 91  1  0  0  0
 13 92  1  0  0  0
 13 93  1  0  0  0
 14 15  1  0  0  0
 14 20  1  0  0  0
 15 16  1  0  0  0
 15 18  1  0  0  0
 15 94  1  0  0  0
 16 17  2  0  0  0
 16 21  1  0  0  0
 18 19  1  0  0  0
 18 95  1  0  0  0
 18 96  1  0  0  0
 19 20  1  0  0  0
 19 97  1  0  0  0
 19 98  1  0  0  0
 20 99  1  0  0  0
 20100  1  0  0  0
 21 22  1  0  0  0
 21 27  1  0  0  0
 22 23  1  0  0  0
 22 25  1  0  0  0
 22101  1  0  0  0
 23 24  2  0  0  0
 23 28  1  0  0  0
 25 26  1  0  0  0
 25102  1  0  0  0
 25103  1  0  0  0
 26 27  1  0  0  0
 26104  1  0  0  0
 26105  1  0  0  0
 27106  1  0  0  0
 27107  1  0  0  0
 28 29  1  0  0  0
 28108  1  0  0  0
 29 30  1  0  0  0
 29 32  1  0  0  0
 29109  1  0  0  0
 30 31  2  0  0  0
 30 37  1  0  0  0
 32 33  1  0  0  0
 32110  1  0  0  0
 32111  1  0  0  0
 33 34  1  0  0  0
 33112  1  0  0  0
 33113  1  0  0  0
 34 35  1  0  0  0
 34114  1  0  0  0
 34115  1  0  0  0
 35 36  1  0  0  0
 35116  1  0  0  0
 35117  1  0  0  0
 36118  1  0  0  0
 36119  1  0  0  0
 36120  1  0  0  0
 37 38  1  0  0  0
 37 43  1  0  0  0
 38 39  1  0  0  0
 38 41  1  0  0  0
 38121  1  0  0  0
 39 40  2  0  0  0
 39 44  1  0  0  0
 41 42  1  0  0  0
 41122  1  0  0  0
 41123  1  0  0  0
 42 43  1  0  0  0
 42124  1  0  0  0
 42125  1  0  0  0
 43126  1  0  0  0
 43127  1  0  0  0
 44 45  1  0  0  0
 44 50  1  0  0  0
 45 46  1  0  0  0
 45 48  1  0  0  0
 45128  1  0  0  0
 46 47  2  0  0  0
 46 51  1  0  0  0
 48 49  1  0  0  0
 48129  1  0  0  0
 48130  1  0  0  0
 49 50  1  0  0  0
 49131  1  0  0  0
 49132  1  0  0  0
 50133  1  0  0  0
 50134  1  0  0  0
 51 52  1  0  0  0
 51135  1  0  0  0
 52 53  1  0  0  0
 52 55  1  0  0  0
 52136  1  0  0  0
 53 54  2  0  0  0
 53 59  1  0  0  0
 55 56  1  0  0  0
 55137  1  0  0  0
 55138  1  0  0  0
 56 57  1  0  0  0
 56 58  1  0  0  0
 56139  1  0  0  0
 57140  1  0  0  0
 57141  1  0  0  0
 57142  1  0  0  0
 58143  1  0  0  0
 58144  1  0  0  0
 58145  1  0  0  0
 59 60  1  0  0  0
 59 65  1  0  0  0
 60 61  1  0  0  0
 60 63  1  0  0  0
 60146  1  0  0  0
 61 62  2  0  0  0
 61 66  1  0  0  0
 63 64  1  0  0  0
 63147  1  0  0  0
 63148  1  0  0  0
 64 65  1  0  0  0
 64149  1  0  0  0
 64150  1  0  0  0
 65151  1  0  0  0
 65152  1  0  0  0
 66 67  1  0  0  0
 66153  1  0  0  0
 67 68  1  0  0  0
 67 70  1  0  0  0
 67154  1  0  0  0
 68 69  2  0  0  0
 68 75  1  0  0  0
 70 71  1  0  0  0
 70155  1  0  0  0
 70156  1  0  0  0
 71 72  1  0  0  0
 71157  1  0  0  0
 71158  1  0  0  0
 72 73  2  0  0  0
 72 74  1  0  0  0
 74159  1  0  0  0
 75160  1  0  0  0
M  CHG  2   1   1  36   1
M  END
> <s_m_source_file>
../4ln2_ligand.sdf

> <i_m_source_file_index>
1

> <s_epik_input>
W0NIM11bQ0hdKFtDSDNdKVtDSDJdW0NASF0oW05IMytdKUMoPU8pW05IXVtDQEBIXShbQ0gzXSlDKD1PKU4xW0NAQEhdKFtDSDJdW0NIMl1bQ0gyXTEpQyg9TylOMltDQEBIXShbQ0gyXVtDSDJdW0NIMl0yKUMoPU8pW05IXVtDQEBIXShbQ0gyXVtDSDJdW0NIMl1bQ0gyXVtOSDMrXSlDKD1PKU4zW0NAQEhdKFtDSDJdW0NIMl1bQ0gyXTMpQyg9TylONFtDQEBIXShbQ0gyXVtDSDJdW0NIMl00KUMoPU8pW05IXVtDQEBIXShbQ0gyXVtDSF0oW0NIM10pW0NIM10pQyg9TylONVtDQEBIXShbQ0gyXVtDSDJdW0NIMl01KUMoPU8pW05IXVtDQEhdKEMoPU8pW09IXSlbQ0gyXVtDSDJdQyg9TylbT0hd

> <s_epik_cmdline>
J2VwaWtfYXBwJywgJy1pbWFlJywgJ2xpZ2FuZF9wcm8ubWFlJywgJy1vbWFlJywgJ2xpZ2FuZF9wcmVwLm1hZScsICctbXMnLCAnMScsICctcGgnLCAnNycsICctcGh0JywgJzAuNScsICctbnQn

> <s_epik_pKa_notes>
Molecule size exceeds maximum supported for generating protonation states

$$$$
