4ln7_ligand
                    3D
 Schrodinger Suite 2020-3.
 33 35  0  0  1  0            999 V2000
    9.3570   20.0570   -8.3030 O   0  0  0  0  0  0
    9.9160   20.8670   -9.2440 C   0  0  0  0  0  0
   10.3090   22.1210   -8.8160 C   0  0  0  0  0  0
   10.1010   22.4330   -7.4890 O   0  0  0  0  0  0
   10.9130   22.9900   -9.7160 C   0  0  0  0  0  0
   11.0970   22.5480  -11.0160 C   0  0  0  0  0  0
   11.7560   23.5070  -11.9400 C   0  0  0  0  0  0
   13.0430   23.2330  -12.3950 C   0  0  0  0  0  0
   13.6690   24.1450  -13.2430 C   0  0  0  0  0  0
   13.0180   25.3130  -13.6120 C   0  0  0  0  0  0
   13.6280   26.1760  -14.4290 F   0  0  0  0  0  0
   11.7370   25.5780  -13.1340 C   0  0  0  0  0  0
   11.1000   24.6810  -12.2770 C   0  0  0  0  0  0
   10.6790   21.2650  -11.3880 C   0  0  0  0  0  0
   10.8590   20.6860  -12.7510 C   0  0  0  0  0  0
   11.4430   19.4220  -12.8600 C   0  0  0  0  0  0
   11.6480   18.8150  -14.1040 C   0  0  0  0  0  0
   11.2590   19.4960  -15.2450 C   0  0  0  0  0  0
   11.4270   18.9520  -16.4620 F   0  0  0  0  0  0
   10.6740   20.7510  -15.1320 C   0  0  0  0  0  0
   10.4690   21.3630  -13.9070 C   0  0  0  0  0  0
   10.1180   20.4630  -10.4770 N   0  0  0  0  0  0
    9.6171   21.7043   -6.8220 H   0  0  0  0  0  0
   11.2315   23.9864   -9.4095 H   0  0  0  0  0  0
   13.5535   22.3187  -12.0925 H   0  0  0  0  0  0
   14.6721   23.9400  -13.6170 H   0  0  0  0  0  0
   11.2279   26.4945  -13.4323 H   0  0  0  0  0  0
   10.1081   24.8981  -11.8808 H   0  0  0  0  0  0
   11.7462   18.8960  -11.9548 H   0  0  0  0  0  0
   12.1041   17.8274  -14.1733 H   0  0  0  0  0  0
   10.3659   21.2717  -16.0387 H   0  0  0  0  0  0
   10.0132   22.3513  -13.8471 H   0  0  0  0  0  0
    9.8239   19.4466  -10.7779 H   0  0  0  0  0  0
  1  2  2  0  0  0
  2  3  1  0  0  0
  2 22  1  0  0  0
  3  4  1  0  0  0
  3  5  2  0  0  0
  4 23  1  0  0  0
  5  6  1  0  0  0
  5 24  1  0  0  0
  6  7  1  0  0  0
  6 14  2  0  0  0
  7  8  2  0  0  0
  7 13  1  0  0  0
  8  9  1  0  0  0
  8 25  1  0  0  0
  9 10  2  0  0  0
  9 26  1  0  0  0
 10 11  1  0  0  0
 10 12  1  0  0  0
 12 13  2  0  0  0
 12 27  1  0  0  0
 13 28  1  0  0  0
 14 15  1  0  0  0
 14 22  1  0  0  0
 15 16  2  0  0  0
 15 21  1  0  0  0
 16 17  1  0  0  0
 16 29  1  0  0  0
 17 18  2  0  0  0
 17 30  1  0  0  0
 18 19  1  0  0  0
 18 20  1  0  0  0
 20 21  2  0  0  0
 20 31  1  0  0  0
 21 32  1  0  0  0
 22 33  1  0  0  0
M  END
> <s_m_source_file>
../4ln7_ligand.sdf

> <i_m_source_file_index>
1

> <s_epik_input>
W2NIXTFbY0hdYyhGKVtjSF1bY0hdYzEtYyhbY0hdYyhbT0hdKWMyW09IXSljKG4yKS1jM1tjSF1bY0hdYyhGKVtjSF1bY0hdMw==

> <s_epik_cmdline>
J2VwaWtfYXBwJywgJy1pbWFlJywgJ2xpZ2FuZF9wcm8ubWFlJywgJy1vbWFlJywgJ2xpZ2FuZF9wcmVwLm1hZScsICctbXMnLCAnMScsICctcGgnLCAnNycsICctcGh0JywgJzAuNScsICctbnQn

> <r_lp_tautomer_probability>
0.993451916926782

> <r_epik_Ionization_Penalty>
  0.0301

> <r_epik_Ionization_Penalty_Charging>
  0.0004

> <r_epik_Ionization_Penalty_Neutral>
  0.0297

> <r_epik_State_Penalty>
  0.0245

> <r_epik_Charging_Adjusted_Penalty>
0.0248637627691739

> <i_epik_Tot_Q>
0

> <i_epik_Tot_abs_Q>
0

$$$$
