4lnb_ligand
                    3D
 Schrodinger Suite 2020-3.
 88 91  0  0  1  0            999 V2000
   21.3330    3.9310   -1.5160 O   0  0  0  0  0  0
   21.6750    2.9230   -2.0960 C   0  0  0  0  0  0
   22.0020    2.9940   -3.4750 O   0  0  0  0  0  0
   23.0720    3.7980   -3.9970 C   0  0  0  0  0  0
   23.6050    3.1420   -5.2130 C   0  0  0  0  0  0
   22.6110    5.1620   -4.3610 C   0  0  0  0  0  0
   24.1970    3.9090   -2.9580 C   0  0  0  0  0  0
   22.1380    1.7680   -1.2930 N   0  0  0  0  0  0
   22.2050    1.8190    0.1750 C   0  0  0  0  0  0
   21.5300    0.6470    0.8230 C   0  0  0  0  0  0
   22.5630    0.4960   -1.8700 C   0  0  0  0  0  0
   21.9230   -0.6960   -1.2070 C   0  0  0  0  0  0
   21.9810   -0.6540    0.2770 C   0  0  0  0  0  0
   23.4190   -0.9570    0.7550 C   0  0  0  0  0  0
   24.0360   -2.2590    0.2610 N   0  0  1  0  0  0
   25.6970   -2.1120    0.0620 S   0  0  0  0  0  0
   26.3640   -3.3750    0.2500 O   0  0  0  0  0  0
   26.2170   -1.1700    1.0180 O   0  0  0  0  0  0
   26.0150   -1.4690   -1.5730 C   0  0  0  0  0  0
   26.6310   -0.2160   -1.6880 C   0  0  0  0  0  0
   26.9000    0.3410   -2.9700 C   0  0  0  0  0  0
   26.5480   -0.3610   -4.1200 C   0  0  0  0  0  0
   25.9310   -1.6080   -4.0140 C   0  0  0  0  0  0
   25.6580   -2.1710   -2.7330 C   0  0  0  0  0  0
   24.9960   -3.5070   -2.6660 C   0  0  0  0  0  0
   23.6160   -3.4680    1.0930 C   0  0  0  0  0  0
   23.6690   -3.3920    2.6440 C   0  0  0  0  0  0
   24.9780   -3.2720    3.2910 N   0  0  0  0  0  0
   25.9530   -4.4110    3.2210 C   0  0  0  0  0  0
   27.3000   -4.1970    3.5340 C   0  0  0  0  0  0
   28.2070   -5.2680    3.4600 C   0  0  0  0  0  0
   25.5060   -5.6920    2.8350 C   0  0  0  0  0  0
   26.4070   -6.7550    2.7620 C   0  0  0  0  0  0
   27.7560   -6.5450    3.0750 C   0  0  0  0  0  0
   28.7120   -7.6790    2.9900 C   0  0  0  0  0  0
   29.5630   -8.6840    2.8840 N   0  0  0  0  0  0
   25.3400   -2.0380    4.0180 C   0  0  0  0  0  0
   24.5260   -1.7630    5.2780 C   0  0  0  0  0  0
   23.3860   -0.9670    5.3810 C   0  0  0  0  0  0
   22.9890   -1.0050    6.6560 N   0  3  0  0  0  0
   23.8210   -1.7930    7.3290 C   0  0  0  0  0  0
   24.7620   -2.2580    6.4880 N   0  0  0  0  0  0
   25.8610   -3.1460    6.8480 C   0  0  0  0  0  0
   22.8059    3.0577   -5.9643 H   0  0  0  0  0  0
   23.9743    2.1382   -4.9561 H   0  0  0  0  0  0
   24.4307    3.7429   -5.6218 H   0  0  0  0  0  0
   21.8045    5.0899   -5.1055 H   0  0  0  0  0  0
   23.4510    5.7321   -4.7844 H   0  0  0  0  0  0
   22.2360    5.6742   -3.4626 H   0  0  0  0  0  0
   24.5434    2.9017   -2.6837 H   0  0  0  0  0  0
   23.8192    4.4235   -2.0621 H   0  0  0  0  0  0
   25.0343    4.4814   -3.3839 H   0  0  0  0  0  0
   23.2577    1.8218    0.4941 H   0  0  0  0  0  0
   21.7109    2.7342    0.5330 H   0  0  0  0  0  0
   21.7458    0.6499    1.9016 H   0  0  0  0  0  0
   20.4435    0.7169    0.6663 H   0  0  0  0  0  0
   22.2939    0.4689   -2.9362 H   0  0  0  0  0  0
   23.6529    0.3912   -1.7641 H   0  0  0  0  0  0
   20.8621   -0.7487   -1.4927 H   0  0  0  0  0  0
   22.4356   -1.6142   -1.5297 H   0  0  0  0  0  0
   21.2563   -1.3997    0.6358 H   0  0  0  0  0  0
   24.0938   -0.1564    0.4179 H   0  0  0  0  0  0
   23.4362   -1.0127    1.8535 H   0  0  0  0  0  0
   26.9062    0.3362   -0.7895 H   0  0  0  0  0  0
   27.3809    1.3158   -3.0515 H   0  0  0  0  0  0
   26.7544    0.0635   -5.1025 H   0  0  0  0  0  0
   25.6561   -2.1549   -4.9159 H   0  0  0  0  0  0
   24.8580   -3.7954   -1.6135 H   0  0  0  0  0  0
   25.6257   -4.2540   -3.1714 H   0  0  0  0  0  0
   24.0164   -3.4561   -3.1637 H   0  0  0  0  0  0
   22.5680   -3.7188    0.8722 H   0  0  0  0  0  0
   24.2585   -4.3255    0.8441 H   0  0  0  0  0  0
   23.1031   -2.5136    2.9876 H   0  0  0  0  0  0
   23.2259   -4.3037    3.0712 H   0  0  0  0  0  0
   27.6433   -3.2067    3.8331 H   0  0  0  0  0  0
   29.2584   -5.1102    3.7004 H   0  0  0  0  0  0
   24.4552   -5.8517    2.5934 H   0  0  0  0  0  0
   26.0624   -7.7448    2.4626 H   0  0  0  0  0  0
   28.3387   -7.3765    3.9795 H   0  0  0  0  0  0
   29.9363   -8.9865    1.8945 H   0  0  0  0  0  0
   26.3929   -2.0928    4.3317 H   0  0  0  0  0  0
   25.1986   -1.1690    3.3585 H   0  0  0  0  0  0
   22.9074   -0.4159    4.5714 H   0  0  0  0  0  0
   23.7519   -2.0252    8.3917 H   0  0  0  0  0  0
   26.4692   -3.3570    5.9560 H   0  0  0  0  0  0
   25.4559   -4.0877    7.2467 H   0  0  0  0  0  0
   26.4870   -2.6632    7.6128 H   0  0  0  0  0  0
   22.1037   -0.4346    6.9736 H   0  0  0  0  0  0
  1  2  2  0  0  0
  2  3  1  0  0  0
  2  8  1  0  0  0
  3  4  1  0  0  0
  4  5  1  0  0  0
  4  6  1  0  0  0
  4  7  1  0  0  0
  5 44  1  0  0  0
  5 45  1  0  0  0
  5 46  1  0  0  0
  6 47  1  0  0  0
  6 48  1  0  0  0
  6 49  1  0  0  0
  7 50  1  0  0  0
  7 51  1  0  0  0
  7 52  1  0  0  0
  8  9  1  0  0  0
  8 11  1  0  0  0
  9 10  1  0  0  0
  9 53  1  0  0  0
  9 54  1  0  0  0
 10 13  1  0  0  0
 10 55  1  0  0  0
 10 56  1  0  0  0
 11 12  1  0  0  0
 11 57  1  0  0  0
 11 58  1  0  0  0
 12 13  1  0  0  0
 12 59  1  0  0  0
 12 60  1  0  0  0
 13 14  1  0  0  0
 13 61  1  0  0  0
 14 15  1  0  0  0
 14 62  1  0  0  0
 14 63  1  0  0  0
 15 16  1  0  0  0
 15 26  1  0  0  0
 16 17  2  0  0  0
 16 18  2  0  0  0
 16 19  1  0  0  0
 19 20  2  0  0  0
 19 24  1  0  0  0
 20 21  1  0  0  0
 20 64  1  0  0  0
 21 22  2  0  0  0
 21 65  1  0  0  0
 22 23  1  0  0  0
 22 66  1  0  0  0
 23 24  2  0  0  0
 23 67  1  0  0  0
 24 25  1  0  0  0
 25 68  1  0  0  0
 25 69  1  0  0  0
 25 70  1  0  0  0
 26 27  1  0  0  0
 26 71  1  0  0  0
 26 72  1  0  0  0
 27 28  1  0  0  0
 27 73  1  0  0  0
 27 74  1  0  0  0
 28 29  1  0  0  0
 28 37  1  0  0  0
 29 30  2  0  0  0
 29 32  1  0  0  0
 30 31  1  0  0  0
 30 75  1  0  0  0
 31 34  2  0  0  0
 31 76  1  0  0  0
 32 33  2  0  0  0
 32 77  1  0  0  0
 33 34  1  0  0  0
 33 78  1  0  0  0
 34 35  1  0  0  0
 35 36  2  0  0  0
 35 79  1  0  0  0
 36 80  1  0  0  0
 37 38  1  0  0  0
 37 81  1  0  0  0
 37 82  1  0  0  0
 38 39  2  0  0  0
 38 42  1  0  0  0
 39 40  1  0  0  0
 39 83  1  0  0  0
 40 41  2  0  0  0
 40 88  1  0  0  0
 41 42  1  0  0  0
 41 84  1  0  0  0
 42 43  1  0  0  0
 43 85  1  0  0  0
 43 86  1  0  0  0
 43 87  1  0  0  0
M  CHG  1  40   1
M  END
> <s_m_source_file>
../4lnb_ligand.sdf

> <i_m_source_file_index>
1

> <s_epik_input>
W0NIM11DKFtDSDNdKShbQ0gzXSlPQyg9TylOMVtDSDJdW0NIMl1bQ0hdKFtDSDJdW0NIMl0xKVtDSDJdTihTKD1PKSg9TyljMltjSF1bY0hdW2NIXVtjSF1jMltDSDNdKVtDSDJdW0NIMl1OKGMzW2NIXVtjSF1jKFtjSF1bY0hdMykvW0NIXT1OXFtIXSlbQ0gyXWM0W2NIXW5bY0hdbjRbQ0gzXQ==

> <s_epik_cmdline>
J2VwaWtfYXBwJywgJy1pbWFlJywgJ2xpZ2FuZF9wcm8ubWFlJywgJy1vbWFlJywgJ2xpZ2FuZF9wcmVwLm1hZScsICctbXMnLCAnMScsICctcGgnLCAnNycsICctcGh0JywgJzAuNScsICctbnQn

> <r_lp_tautomer_probability>
1

> <r_epik_Ionization_Penalty>
  0.1051

> <r_epik_Ionization_Penalty_Charging>
  0.0000

> <r_epik_Ionization_Penalty_Neutral>
  0.1051

> <r_epik_State_Penalty>
  0.0950

> <r_epik_Charging_Adjusted_Penalty>
0.0949567628539342

> <i_epik_Tot_Q>
1

> <i_epik_Tot_abs_Q>
1

> <s_epik_Chemistry_Notes>
This compound has an ester and may undergo hydrolysis at high or low pH. This compound has an imine and may undergo hydrolysis.

$$$$
