4lnp_ligand
                    3D
 Schrodinger Suite 2020-3.
151157  0  0  1  0            999 V2000
    6.9520   -3.9550   -1.3440 N   0  3  0  0  0  0
    8.0480   -2.9470   -1.5310 C   0  0  2  0  0  0
    8.6250   -2.3680   -0.2330 C   0  0  0  0  0  0
    9.8520   -2.3100   -0.0980 O   0  0  0  0  0  0
    7.6070   -1.7790   -2.4380 C   0  0  0  0  0  0
    7.7640   -1.9200    0.7150 N   0  0  0  0  0  0
    8.3810   -1.4300    1.9460 C   0  0  2  0  0  0
    8.8700   -2.5710    2.8170 C   0  0  0  0  0  0
    8.4770   -3.7170    2.5980 O   0  0  0  0  0  0
    7.2410   -0.6900    2.6430 C   0  0  0  0  0  0
    6.0220   -1.4170    2.2000 C   0  0  0  0  0  0
    6.2960   -1.7940    0.7670 C   0  0  0  0  0  0
    9.7230   -2.2640    3.8050 N   0  0  0  0  0  0
   10.2090   -3.3190    4.6870 C   0  0  2  0  0  0
    9.0780   -3.9550    5.4820 C   0  0  0  0  0  0
    8.0230   -3.3310    5.6560 O   0  0  0  0  0  0
   11.1540   -2.5810    5.6420 C   0  0  0  0  0  0
   11.5290   -1.3310    4.9290 C   0  0  0  0  0  0
   10.3080   -0.9550    4.1450 C   0  0  0  0  0  0
    9.2880   -5.1900    5.9700 N   0  0  0  0  0  0
    8.3030   -5.7740    6.8720 C   0  0  2  0  0  0
    7.9380   -4.8120    8.0130 C   0  0  0  0  0  0
    8.7910   -4.2390    8.6700 O   0  0  0  0  0  0
    9.0040   -7.0350    7.3930 C   0  0  0  0  0  0
    9.9710   -7.3970    6.3210 C   0  0  0  0  0  0
   10.4370   -6.0890    5.7510 C   0  0  0  0  0  0
    6.6510   -4.6060    8.1960 N   0  0  0  0  0  0
    6.1660   -3.6790    9.2090 C   0  0  2  0  0  0
    6.3770   -4.2510   10.6080 C   0  0  0  0  0  0
    5.9700   -5.3760   10.8770 O   0  0  0  0  0  0
    4.6790   -3.4090    8.9770 C   0  0  0  0  0  0
    4.1150   -2.2470    9.7520 C   0  0  0  0  0  0
    2.6210   -2.1200    9.5130 C   0  0  0  0  0  0
    2.0600   -1.0800   10.3530 N   0  0  0  0  0  0
    1.7840    0.1670    9.9790 C   0  0  0  0  0  0
    1.9950    0.5960    8.7340 N   0  0  0  0  0  0
    1.2790    1.0050   10.8710 N   0  0  0  0  0  0
    7.0260   -3.4810   11.4960 N   0  0  0  0  0  0
    7.1140   -3.9900   12.8680 C   0  0  2  0  0  0
    5.7770   -3.8730   13.6130 C   0  0  0  0  0  0
    4.9720   -2.9790   13.2970 O   0  0  0  0  0  0
    8.1390   -3.0730   13.5250 C   0  0  0  0  0  0
    8.0220   -1.7940   12.7820 C   0  0  0  0  0  0
    7.6510   -2.1530   11.3660 C   0  0  0  0  0  0
    5.5360   -4.7650   14.5910 N   0  0  0  0  0  0
    4.3230   -4.6230   15.3950 C   0  0  2  0  0  0
    4.4800   -3.4420   16.3430 C   0  0  0  0  0  0
    5.6020   -3.0430   16.6320 O   0  0  0  0  0  0
    4.2810   -5.9270   16.1850 C   0  0  0  0  0  0
    5.7230   -6.2420   16.3980 C   0  0  0  0  0  0
    6.4220   -5.8170   15.1350 C   0  0  0  0  0  0
    3.3760   -2.8920   16.8470 N   0  0  0  0  0  0
    3.4530   -1.7870   17.7990 C   0  0  2  0  0  0
    4.2700   -2.1570   19.0420 C   0  0  0  0  0  0
    4.3770   -3.3470   19.3770 O   0  0  0  0  0  0
    1.9870   -1.5440   18.1740 C   0  0  0  0  0  0
    1.2160   -2.0470   17.0110 C   0  0  0  0  0  0
    1.9870   -3.2160   16.4770 C   0  0  0  0  0  0
    4.8530   -1.1520   19.7240 N   0  0  0  0  0  0
    5.5930   -1.4450   20.9580 C   0  0  2  0  0  0
    4.7750   -2.2240   21.9940 C   0  0  0  0  0  0
    3.5430   -2.0700   22.0680 O   0  0  0  0  0  0
    5.9400   -0.0580   21.4960 C   0  0  0  0  0  0
    5.9060    0.8430   20.3210 C   0  0  0  0  0  0
    4.8650    0.2830   19.3960 C   0  0  0  0  0  0
    5.4640   -3.0690   22.7620 N   0  0  0  0  0  0
    4.8390   -3.8840   23.8040 C   0  0  2  0  0  0
    4.2130   -3.0170   24.8920 C   0  0  0  0  0  0
    3.1670   -3.3610   25.4410 O   0  0  0  0  0  0
    5.8660   -4.8340   24.4330 C   0  0  0  0  0  0
    6.4790   -5.8250   23.4490 C   0  0  0  0  0  0
    5.4690   -6.8310   22.9360 C   0  0  0  0  0  0
    4.8300   -7.5090   23.7670 O   0  0  0  0  0  0
    5.3190   -6.9440   21.7040 O   0  0  0  0  0  0
    4.7717   -1.9398   25.2312 O   0  0  0  0  0  0
    7.3081   -4.7673   -0.6933 H   0  0  0  0  0  0
    6.6632   -4.3682   -2.3217 H   0  0  0  0  0  0
    6.0815   -3.4683   -0.8800 H   0  0  0  0  0  0
    8.8347   -3.5526   -2.0047 H   0  0  0  0  0  0
    7.1904   -2.1789   -3.3742 H   0  0  0  0  0  0
    8.4754   -1.1431   -2.6652 H   0  0  0  0  0  0
    6.8409   -1.1824   -1.9211 H   0  0  0  0  0  0
    9.2605   -0.8120    1.7123 H   0  0  0  0  0  0
    7.3828   -0.7411    3.7326 H   0  0  0  0  0  0
    7.2370    0.3624    2.3228 H   0  0  0  0  0  0
    5.8738   -2.3042    2.8332 H   0  0  0  0  0  0
    5.1481   -0.7545    2.2867 H   0  0  0  0  0  0
    5.9695   -1.0162    0.0610 H   0  0  0  0  0  0
    5.8356   -2.7546    0.4928 H   0  0  0  0  0  0
   10.6725   -4.1170    4.0883 H   0  0  0  0  0  0
   10.6291   -2.3672    6.5847 H   0  0  0  0  0  0
   12.0332   -3.2096    5.8463 H   0  0  0  0  0  0
   11.7963   -0.5564    5.6629 H   0  0  0  0  0  0
   12.3899   -1.5272    4.2729 H   0  0  0  0  0  0
   10.5484   -0.4096    3.2205 H   0  0  0  0  0  0
    9.5859   -0.3732    4.7368 H   0  0  0  0  0  0
    7.3658   -5.9762    6.3328 H   0  0  0  0  0  0
    9.5114   -6.8069    8.3420 H   0  0  0  0  0  0
    8.2590   -7.8275    7.5569 H   0  0  0  0  0  0
   10.8046   -7.9675    6.7565 H   0  0  0  0  0  0
    9.4640   -8.0105    5.5617 H   0  0  0  0  0  0
   10.6516   -6.1540    4.6741 H   0  0  0  0  0  0
   11.3180   -5.6929    6.2772 H   0  0  0  0  0  0
    5.9362   -5.1524    7.5631 H   0  0  0  0  0  0
    6.7580   -2.7591    9.0937 H   0  0  0  0  0  0
    4.5077   -3.1908    7.9126 H   0  0  0  0  0  0
    4.0957   -4.2950    9.2682 H   0  0  0  0  0  0
    4.2920   -2.4024   10.8265 H   0  0  0  0  0  0
    4.6076   -1.3177    9.4299 H   0  0  0  0  0  0
    2.4387   -1.8653    8.4585 H   0  0  0  0  0  0
    2.1293   -3.0751    9.7497 H   0  0  0  0  0  0
    1.8227   -1.2918   11.4060 H   0  0  0  0  0  0
    2.4140   -0.0871    7.9805 H   0  0  0  0  0  0
    1.7501    1.6330    8.4607 H   0  0  0  0  0  0
    1.0987    0.6675   11.9023 H   0  0  0  0  0  0
    7.3900   -5.0546   12.8473 H   0  0  0  0  0  0
    7.8937   -2.9527   14.5905 H   0  0  0  0  0  0
    9.1418   -3.5144   13.4272 H   0  0  0  0  0  0
    7.2436   -1.1704   13.2459 H   0  0  0  0  0  0
    8.9846   -1.2625   12.8131 H   0  0  0  0  0  0
    8.5307   -2.2245   10.7095 H   0  0  0  0  0  0
    6.9266   -1.4476   10.9328 H   0  0  0  0  0  0
    3.4350   -4.4458   14.7705 H   0  0  0  0  0  0
    3.7409   -5.7661   17.1297 H   0  0  0  0  0  0
    3.7643   -6.6974   15.5938 H   0  0  0  0  0  0
    6.0955   -5.6834   17.2693 H   0  0  0  0  0  0
    5.8401   -7.3210   16.5769 H   0  0  0  0  0  0
    6.5079   -6.6368   14.4066 H   0  0  0  0  0  0
    7.4183   -5.3931   15.3290 H   0  0  0  0  0  0
    3.9592   -0.9279   17.3346 H   0  0  0  0  0  0
    1.7475   -2.0969   19.0943 H   0  0  0  0  0  0
    1.8242   -0.4688   18.3393 H   0  0  0  0  0  0
    0.2116   -2.3511   17.3408 H   0  0  0  0  0  0
    1.1289   -1.2510   16.2568 H   0  0  0  0  0  0
    1.9111   -3.3093   15.3836 H   0  0  0  0  0  0
    1.6944   -4.1664   16.9472 H   0  0  0  0  0  0
    6.4540   -2.0856   20.7163 H   0  0  0  0  0  0
    5.1972    0.2388   22.2511 H   0  0  0  0  0  0
    6.9395   -0.0821   21.9546 H   0  0  0  0  0  0
    5.6413    1.8599   20.6463 H   0  0  0  0  0  0
    6.8958    0.8575   19.8413 H   0  0  0  0  0  0
    5.1307    0.4148   18.3367 H   0  0  0  0  0  0
    3.8678    0.7095   19.5796 H   0  0  0  0  0  0
    6.5475   -3.1385   22.5853 H   0  0  0  0  0  0
    4.0496   -4.4472   23.2847 H   0  0  0  0  0  0
    6.6929   -4.2485   24.8613 H   0  0  0  0  0  0
    5.3832   -5.4221   25.2274 H   0  0  0  0  0  0
    6.8840   -5.2797   22.5838 H   0  0  0  0  0  0
    7.2891   -6.3802   23.9445 H   0  0  0  0  0  0
    4.0904   -8.2468   23.4226 H   0  0  0  0  0  0
    4.3242   -1.3112   26.0152 H   0  0  0  0  0  0
  1  2  1  0  0  0
  1 76  1  0  0  0
  1 77  1  0  0  0
  1 78  1  0  0  0
  2  3  1  0  0  0
  2  5  1  0  0  0
  2 79  1  0  0  0
  3  4  2  0  0  0
  3  6  1  0  0  0
  5 80  1  0  0  0
  5 81  1  0  0  0
  5 82  1  0  0  0
  6  7  1  0  0  0
  6 12  1  0  0  0
  7  8  1  0  0  0
  7 10  1  0  0  0
  7 83  1  0  0  0
  8  9  2  0  0  0
  8 13  1  0  0  0
 10 11  1  0  0  0
 10 84  1  0  0  0
 10 85  1  0  0  0
 11 12  1  0  0  0
 11 86  1  0  0  0
 11 87  1  0  0  0
 12 88  1  0  0  0
 12 89  1  0  0  0
 13 14  1  0  0  0
 13 19  1  0  0  0
 14 15  1  0  0  0
 14 17  1  0  0  0
 14 90  1  0  0  0
 15 16  2  0  0  0
 15 20  1  0  0  0
 17 18  1  0  0  0
 17 91  1  0  0  0
 17 92  1  0  0  0
 18 19  1  0  0  0
 18 93  1  0  0  0
 18 94  1  0  0  0
 19 95  1  0  0  0
 19 96  1  0  0  0
 20 21  1  0  0  0
 20 26  1  0  0  0
 21 22  1  0  0  0
 21 24  1  0  0  0
 21 97  1  0  0  0
 22 23  2  0  0  0
 22 27  1  0  0  0
 24 25  1  0  0  0
 24 98  1  0  0  0
 24 99  1  0  0  0
 25 26  1  0  0  0
 25100  1  0  0  0
 25101  1  0  0  0
 26102  1  0  0  0
 26103  1  0  0  0
 27 28  1  0  0  0
 27104  1  0  0  0
 28 29  1  0  0  0
 28 31  1  0  0  0
 28105  1  0  0  0
 29 30  2  0  0  0
 29 38  1  0  0  0
 31 32  1  0  0  0
 31106  1  0  0  0
 31107  1  0  0  0
 32 33  1  0  0  0
 32108  1  0  0  0
 32109  1  0  0  0
 33 34  1  0  0  0
 33110  1  0  0  0
 33111  1  0  0  0
 34 35  1  0  0  0
 34112  1  0  0  0
 35 36  1  0  0  0
 35 37  2  0  0  0
 36113  1  0  0  0
 36114  1  0  0  0
 37115  1  0  0  0
 38 39  1  0  0  0
 38 44  1  0  0  0
 39 40  1  0  0  0
 39 42  1  0  0  0
 39116  1  0  0  0
 40 41  2  0  0  0
 40 45  1  0  0  0
 42 43  1  0  0  0
 42117  1  0  0  0
 42118  1  0  0  0
 43 44  1  0  0  0
 43119  1  0  0  0
 43120  1  0  0  0
 44121  1  0  0  0
 44122  1  0  0  0
 45 46  1  0  0  0
 45 51  1  0  0  0
 46 47  1  0  0  0
 46 49  1  0  0  0
 46123  1  0  0  0
 47 48  2  0  0  0
 47 52  1  0  0  0
 49 50  1  0  0  0
 49124  1  0  0  0
 49125  1  0  0  0
 50 51  1  0  0  0
 50126  1  0  0  0
 50127  1  0  0  0
 51128  1  0  0  0
 51129  1  0  0  0
 52 53  1  0  0  0
 52 58  1  0  0  0
 53 54  1  0  0  0
 53 56  1  0  0  0
 53130  1  0  0  0
 54 55  2  0  0  0
 54 59  1  0  0  0
 56 57  1  0  0  0
 56131  1  0  0  0
 56132  1  0  0  0
 57 58  1  0  0  0
 57133  1  0  0  0
 57134  1  0  0  0
 58135  1  0  0  0
 58136  1  0  0  0
 59 60  1  0  0  0
 59 65  1  0  0  0
 60 61  1  0  0  0
 60 63  1  0  0  0
 60137  1  0  0  0
 61 62  2  0  0  0
 61 66  1  0  0  0
 63 64  1  0  0  0
 63138  1  0  0  0
 63139  1  0  0  0
 64 65  1  0  0  0
 64140  1  0  0  0
 64141  1  0  0  0
 65142  1  0  0  0
 65143  1  0  0  0
 66 67  1  0  0  0
 66144  1  0  0  0
 67 68  1  0  0  0
 67 70  1  0  0  0
 67145  1  0  0  0
 68 69  2  0  0  0
 68 75  1  0  0  0
 70 71  1  0  0  0
 70146  1  0  0  0
 70147  1  0  0  0
 71 72  1  0  0  0
 71148  1  0  0  0
 71149  1  0  0  0
 72 73  1  0  0  0
 72 74  2  0  0  0
 73150  1  0  0  0
 75151  1  0  0  0
M  CHG  1   1   1
M  END
> <s_m_source_file>
../4lnp_ligand.sdf

> <i_m_source_file_index>
1

> <s_epik_input>
W05IMytdW0NAQEhdKFtDSDNdKUMoPU8pTjFbQ0BASF0oW0NIMl1bQ0gyXVtDSDJdMSlDKD1PKU4yW0NAQEhdKFtDSDJdW0NIMl1bQ0gyXTIpQyg9TylOM1tDQEBIXShbQ0gyXVtDSDJdW0NIMl0zKUMoPU8pW05IXVtDQEBIXShbQ0gyXVtDSDJdW0NIMl1bTkhdL0MoW05IMl0pPU5cW0hdKUMoPU8pTjRbQ0BASF0oW0NIMl1bQ0gyXVtDSDJdNClDKD1PKU41W0NAQEhdKFtDSDJdW0NIMl1bQ0gyXTUpQyg9TylONltDQEBIXShbQ0gyXVtDSDJdW0NIMl02KUMoPU8pTjdbQ0BASF0oW0NIMl1bQ0gyXVtDSDJdNylDKD1PKVtOSF1bQ0BIXShDKD1PKVtPSF0pW0NIMl1bQ0gyXUMoPU8pW09IXQ==

> <s_epik_cmdline>
J2VwaWtfYXBwJywgJy1pbWFlJywgJ2xpZ2FuZF9wcm8ubWFlJywgJy1vbWFlJywgJ2xpZ2FuZF9wcmVwLm1hZScsICctbXMnLCAnMScsICctcGgnLCAnNycsICctcGh0JywgJzAuNScsICctbnQn

> <s_epik_pKa_notes>
Molecule size exceeds maximum supported for generating protonation states

> <s_epik_Chemistry_Notes>
This compound has an imine and may undergo hydrolysis.

$$$$
