4lnw_ligand
                    3D
 Schrodinger Suite 2020-3.
 35 36  0  0  1  0            999 V2000
   25.9190   37.5680   34.3380 C   0  0  0  0  0  0
   28.0990   38.7760   30.0070 C   0  0  0  0  0  0
   26.2690   38.9020   34.0710 C   0  0  0  0  0  0
   28.4110   39.7640   29.0650 C   0  0  0  0  0  0
   26.5590   39.2560   32.7720 C   0  0  0  0  0  0
   29.6880   39.8210   28.5390 C   0  0  0  0  0  0
   26.5270   38.3280   31.7460 C   0  0  0  0  0  0
   30.6810   38.9510   28.8920 C   0  0  0  0  0  0
   26.1690   36.9910   31.9770 C   0  0  0  0  0  0
   30.3890   37.9440   29.8330 C   0  0  0  0  0  0
   25.8850   36.6420   33.3000 C   0  0  0  0  0  0
   29.0930   37.8690   30.3780 C   0  0  0  0  0  0
   25.6120   37.1900   35.7630 C   0  0  0  0  0  0
   24.4990   36.1670   35.8910 C   0  0  1  0  0  0
   24.1450   36.0300   37.3430 C   0  0  0  0  0  0
   27.0420   41.3000   32.4200 I   0  0  0  0  0  0
   30.1400   41.3490   27.1140 I   0  0  0  0  0  0
   26.0500   35.5540   30.4010 I   0  0  0  0  0  0
   23.2940   36.5750   35.2090 N   0  3  0  0  0  0
   31.9270   39.0810   28.3020 O   0  0  0  0  0  0
   26.7880   38.7410   30.4620 O   0  0  0  0  0  0
   22.9420   36.0640   37.7190 O   0  5  0  0  0  0
   25.0540   35.8630   38.1930 O   0  0  0  0  0  0
   26.3101   39.6393   34.8727 H   0  0  0  0  0  0
   27.6537   40.4816   28.7494 H   0  0  0  0  0  0
   31.1568   37.2319   30.1353 H   0  0  0  0  0  0
   25.6276   35.6074   33.5269 H   0  0  0  0  0  0
   28.8617   37.0885   31.1028 H   0  0  0  0  0  0
   26.5103   36.7596   36.2298 H   0  0  0  0  0  0
   25.3020   38.0856   36.3213 H   0  0  0  0  0  0
   24.8235   35.2255   35.4239 H   0  0  0  0  0  0
   23.5016   36.6899   34.1349 H   0  0  0  0  0  0
   22.9470   37.5345   35.6201 H   0  0  0  0  0  0
   22.5152   35.8115   35.3523 H   0  0  0  0  0  0
   32.1088   39.8834   27.5719 H   0  0  0  0  0  0
  1  3  2  0  0  0
  1 11  1  0  0  0
  1 13  1  0  0  0
  2  4  2  0  0  0
  2 12  1  0  0  0
  2 21  1  0  0  0
  3  5  1  0  0  0
  3 24  1  0  0  0
  4  6  1  0  0  0
  4 25  1  0  0  0
  5  7  2  0  0  0
  5 16  1  0  0  0
  6  8  2  0  0  0
  6 17  1  0  0  0
  7  9  1  0  0  0
  7 21  1  0  0  0
  8 10  1  0  0  0
  8 20  1  0  0  0
  9 11  2  0  0  0
  9 18  1  0  0  0
 10 12  2  0  0  0
 10 26  1  0  0  0
 11 27  1  0  0  0
 12 28  1  0  0  0
 13 14  1  0  0  0
 13 29  1  0  0  0
 13 30  1  0  0  0
 14 15  1  0  0  0
 14 19  1  0  0  0
 14 31  1  0  0  0
 15 22  1  0  0  0
 15 23  2  0  0  0
 19 32  1  0  0  0
 19 33  1  0  0  0
 19 34  1  0  0  0
 20 35  1  0  0  0
M  CHG  2  19   1  22  -1
M  END
> <s_m_source_file>
../4lnw_ligand.sdf

> <i_m_source_file_index>
1

> <s_epik_input>
W09IXUMoPU8pW0NAQEhdKFtOSDMrXSlbQ0gyXWMxW2NIXWMoSSljKGMoSSlbY0hdMSlPYzJbY0hdYyhJKWMoW09IXSlbY0hdW2NIXTI=

> <s_epik_cmdline>
J2VwaWtfYXBwJywgJy1pbWFlJywgJ2xpZ2FuZF9wcm8ubWFlJywgJy1vbWFlJywgJ2xpZ2FuZF9wcmVwLm1hZScsICctbXMnLCAnMScsICctcGgnLCAnNycsICctcGh0JywgJzAuNScsICctbnQn

> <r_lp_tautomer_probability>
1

> <r_epik_Ionization_Penalty>
  0.1157

> <r_epik_Ionization_Penalty_Charging>
  0.0030

> <r_epik_Ionization_Penalty_Neutral>
  0.1127

> <r_epik_State_Penalty>
  0.1024

> <r_epik_Charging_Adjusted_Penalty>
0.105431399014428

> <i_epik_Tot_Q>
0

> <i_epik_Tot_abs_Q>
2

$$$$
