4loh_ligand
                    3D
 Schrodinger Suite 2020-3.
 67 73  0  0  1  0            999 V2000
  -55.8220    3.1810   66.5030 C   0  0  0  0  0  0
  -56.6460    6.6750   66.5980 N   0  0  0  0  0  0
  -56.5020    5.3850   66.9380 C   0  0  0  0  0  0
  -55.9770    4.5060   66.1300 N   0  0  0  0  0  0
  -56.2230    2.7770   67.7330 N   0  0  0  0  0  0
  -56.7510    3.7350   68.5170 C   0  0  0  0  0  0
  -56.8660    5.0020   68.1480 C   0  0  0  0  0  0
  -57.4210    5.6540   69.1520 N   0  0  0  0  0  0
  -57.6400    4.8140   70.1560 C   0  0  0  0  0  0
  -57.2220    3.6250   69.7310 N   0  0  0  0  0  0
  -57.1100    2.3280   70.1930 C   0  0  1  0  0  0
  -55.8170    2.1110   70.5680 C   0  0  2  0  0  0
  -55.5150    0.5870   70.5310 O   0  0  0  0  0  0
  -55.9180    2.7070   71.9900 C   0  0  1  0  0  0
  -57.1990    2.1300   72.5380 C   0  0  1  0  0  0
  -57.8180    2.8620   73.7640 C   0  0  0  0  0  0
  -58.0520    4.1860   73.3590 O   0  0  0  0  0  0
  -58.1220    5.3240   74.4520 P   0  0  2  0  0  0
  -58.2850    6.6080   73.7510 O   0  0  0  0  0  0
  -56.8590    5.5490   75.3660 O   0  0  0  0  0  0
  -55.5740    5.4880   74.8530 C   0  0  2  0  0  0
  -54.9320    4.4450   75.7340 C   0  0  2  0  0  0
  -55.4310    4.3240   77.2020 O   0  0  0  0  0  0
  -53.5080    4.8580   75.6540 C   0  0  1  0  0  0
  -52.8470    3.9320   74.6380 C   0  0  0  0  0  0
  -53.3560    4.2090   73.2980 O   0  0  0  0  0  0
  -53.3850    2.9870   72.3280 P   0  0  2  0  0  0
  -54.8040    2.1850   72.6620 O   0  0  0  0  0  0
  -52.3000    2.0280   72.8050 O   0  5  0  0  0  0
  -53.2810    3.5950   70.9640 O   0  0  0  0  0  0
  -53.4480    6.2690   75.1930 O   0  0  0  0  0  0
  -54.7440    6.7950   75.0090 C   0  0  1  0  0  0
  -54.5310    7.4790   73.7720 N   0  0  0  0  0  0
  -53.9920    7.0880   72.5960 C   0  0  0  0  0  0
  -54.0600    8.1100   71.7500 N   0  0  0  0  0  0
  -54.8800    8.7130   73.6430 C   0  0  0  0  0  0
  -54.6190    9.1170   72.3820 C   0  0  0  0  0  0
  -54.8910   10.3590   72.0140 C   0  0  0  0  0  0
  -55.4690   11.1450   72.9530 N   0  3  0  0  0  0
  -55.7330   10.6970   74.2640 C   0  0  0  0  0  0
  -56.2910   11.3970   75.2410 N   0  0  0  0  0  0
  -55.4380    9.4700   74.6030 N   0  0  0  0  0  0
  -54.6530   10.8180   70.8840 O   0  0  0  0  0  0
  -59.2160    5.0850   75.5120 O   0  5  0  0  0  0
  -57.9600    2.2550   71.4110 O   0  0  0  0  0  0
  -55.3791    2.4659   65.8098 H   0  0  0  0  0  0
  -56.3492    7.0159   65.5952 H   0  0  0  0  0  0
  -57.0608    7.3916   67.3221 H   0  0  0  0  0  0
  -58.0730    5.0498   71.1281 H   0  0  0  0  0  0
  -57.3449    1.6134   69.3904 H   0  0  0  0  0  0
  -55.0884    2.5854   69.8941 H   0  0  0  0  0  0
  -55.4237    0.0677   69.5656 H   0  0  0  0  0  0
  -55.8755    3.7985   72.1201 H   0  0  0  0  0  0
  -57.1267    1.0825   72.8660 H   0  0  0  0  0  0
  -58.7570    2.3663   74.0513 H   0  0  0  0  0  0
  -57.1121    2.8269   74.6069 H   0  0  0  0  0  0
  -55.7030    5.2638   73.7838 H   0  0  0  0  0  0
  -55.1458    3.4363   75.3509 H   0  0  0  0  0  0
  -56.4696    4.0252   77.4070 H   0  0  0  0  0  0
  -53.0141    4.8074   76.6356 H   0  0  0  0  0  0
  -51.7587    4.0917   74.6500 H   0  0  0  0  0  0
  -53.0670    2.8860   74.8977 H   0  0  0  0  0  0
  -55.1588    7.4969   75.7475 H   0  0  0  0  0  0
  -53.5741    6.1049   72.3793 H   0  0  0  0  0  0
  -56.5823   12.4439   75.0705 H   0  0  0  0  0  0
  -56.4630   10.9311   76.2225 H   0  0  0  0  0  0
  -55.7528   12.1787   72.7062 H   0  0  0  0  0  0
  1  4  2  0  0  0
  1  5  1  0  0  0
  1 46  1  0  0  0
  2  3  1  0  0  0
  2 47  1  0  0  0
  2 48  1  0  0  0
  3  4  1  0  0  0
  3  7  2  0  0  0
  5  6  2  0  0  0
  6  7  1  0  0  0
  6 10  1  0  0  0
  7  8  1  0  0  0
  8  9  2  0  0  0
  9 10  1  0  0  0
  9 49  1  0  0  0
 10 11  1  0  0  0
 11 12  1  0  0  0
 11 45  1  0  0  0
 11 50  1  0  0  0
 12 13  1  0  0  0
 12 14  1  0  0  0
 12 51  1  0  0  0
 13 52  1  0  0  0
 14 15  1  0  0  0
 14 28  1  0  0  0
 14 53  1  0  0  0
 15 16  1  0  0  0
 15 45  1  0  0  0
 15 54  1  0  0  0
 16 17  1  0  0  0
 16 55  1  0  0  0
 16 56  1  0  0  0
 17 18  1  0  0  0
 18 19  2  0  0  0
 18 20  1  0  0  0
 18 44  1  0  0  0
 20 21  1  0  0  0
 21 22  1  0  0  0
 21 32  1  0  0  0
 21 57  1  0  0  0
 22 23  1  0  0  0
 22 24  1  0  0  0
 22 58  1  0  0  0
 23 59  1  0  0  0
 24 25  1  0  0  0
 24 31  1  0  0  0
 24 60  1  0  0  0
 25 26  1  0  0  0
 25 61  1  0  0  0
 25 62  1  0  0  0
 26 27  1  0  0  0
 27 28  1  0  0  0
 27 29  1  0  0  0
 27 30  2  0  0  0
 31 32  1  0  0  0
 32 33  1  0  0  0
 32 63  1  0  0  0
 33 34  1  0  0  0
 33 36  1  0  0  0
 34 35  2  0  0  0
 34 64  1  0  0  0
 35 37  1  0  0  0
 36 37  2  0  0  0
 36 42  1  0  0  0
 37 38  1  0  0  0
 38 39  1  0  0  0
 38 43  2  0  0  0
 39 40  1  0  0  0
 39 67  1  0  0  0
 40 41  1  0  0  0
 40 42  2  0  0  0
 41 65  1  0  0  0
 41 66  1  0  0  0
M  CHG  3  29  -1  39   1  44  -1
M  END
> <s_m_source_file>
../4loh_ligand.sdf

> <i_m_source_file_index>
1

> <s_epik_input>
bjFbY0hdbmMoW05IMl0pYyhjMTIpbltjSF1uMltDQEBIXShbQ0BASF0zW09IXSlPW0NAQEhdKFtDQEhdMzQpW0NIMl1PW1BAQF0oPU8pKFtPSF0pT1tDQEBIXTVbQ0BIXShbT0hdKVtDQEBIXShbQ0gyXU9bUEBAXShPNCkoPU8pW09IXSlPW0NASF01bjZbY0hdbmMoYzY3KWMoPU8pW25IXS9jKD1OXFtIXSlbbkhdNw==

> <s_epik_cmdline>
J2VwaWtfYXBwJywgJy1pbWFlJywgJ2xpZ2FuZF9wcm8ubWFlJywgJy1vbWFlJywgJ2xpZ2FuZF9wcmVwLm1hZScsICctbXMnLCAnMScsICctcGgnLCAnNycsICctcGh0JywgJzAuNScsICctbnQn

> <r_epik_Ionization_Penalty>
  2.3896

> <r_epik_Ionization_Penalty_Charging>
  2.3889

> <r_epik_Ionization_Penalty_Neutral>
  0.0007

> <r_epik_State_Penalty>
  0.1964

> <r_epik_Charging_Adjusted_Penalty>
2.58532586736115

> <i_epik_Tot_Q>
-1

> <i_epik_Tot_abs_Q>
3

> <s_epik_Chemistry_Notes>
This compound has an imine and may undergo hydrolysis. This compound contains an acetal/aminal-like group ( X-CH(R)-Y where X, Y are N, S, or O) that may be acid/base labile, releasing an aldehyde.

$$$$
