4loi_ligand
                    3D
 Schrodinger Suite 2020-3.
 67 73  0  0  1  0            999 V2000
   49.2200   32.7020   15.9940 O   0  0  0  0  0  0
   48.4280   33.6100   15.7410 C   0  0  0  0  0  0
   48.9710   34.7900   15.2670 N   0  3  0  0  0  0
   48.1240   35.8310   14.9510 C   0  0  0  0  0  0
   48.6480   36.9590   14.4880 N   0  0  0  0  0  0
   46.7940   35.6880   15.1620 N   0  0  0  0  0  0
   46.2810   34.5290   15.6510 C   0  0  0  0  0  0
   47.0890   33.5040   15.9400 C   0  0  0  0  0  0
   46.3250   32.5230   16.4360 N   0  0  0  0  0  0
   45.0490   32.9280   16.4110 C   0  0  0  0  0  0
   45.0340   34.1790   15.9610 N   0  0  0  0  0  0
   43.8120   34.9970   15.7520 C   0  0  2  0  0  0
   43.0640   35.0900   16.9410 O   0  0  0  0  0  0
   41.6550   34.7840   16.6610 C   0  0  2  0  0  0
   41.2190   33.4410   17.2800 C   0  0  0  0  0  0
   42.0600   32.3970   16.8430 O   0  0  0  0  0  0
   41.7180   30.8270   17.1060 P   0  0  2  0  0  0
   40.7890   30.4330   15.9190 O   0  0  0  0  0  0
   40.9330   30.7340   18.4020 O   0  0  0  0  0  0
   43.0660   30.1070   17.0470 O   0  5  0  0  0  0
   41.5420   34.7330   15.1800 C   0  0  1  0  0  0
   41.2700   36.0430   14.6970 O   0  0  0  0  0  0
   42.9110   34.3040   14.7660 C   0  0  1  0  0  0
   43.1900   34.7490   13.4180 O   0  0  0  0  0  0
   43.3630   33.6570   12.2480 P   0  0  2  0  0  0
   44.8430   33.1700   12.3960 O   0  5  0  0  0  0
   43.0470   34.2480   10.8840 O   0  0  0  0  0  0
   42.4080   32.3640   12.5440 O   0  0  0  0  0  0
   41.1940   32.3330   11.9500 C   0  0  0  0  0  0
   40.4290   31.1140   12.4570 C   0  0  1  0  0  0
   41.2410   29.9150   12.4060 O   0  0  0  0  0  0
   40.1300   31.3330   13.8970 C   0  0  1  0  0  0
   38.9420   30.6430   14.2780 O   0  0  0  0  0  0
   41.2430   30.7380   14.5990 C   0  0  2  0  0  0
   41.4910   29.5040   13.7200 C   0  0  2  0  0  0
   42.8730   29.0910   13.6900 N   0  0  0  0  0  0
   43.9350   29.8180   13.2970 C   0  0  0  0  0  0
   45.0480   29.0800   13.4520 N   0  0  0  0  0  0
   44.6860   27.8800   13.9430 C   0  0  0  0  0  0
   43.3340   27.8940   14.0780 C   0  0  0  0  0  0
   42.6690   26.8300   14.5670 N   0  0  0  0  0  0
   43.4120   25.6940   14.8900 C   0  0  0  0  0  0
   44.7820   25.6880   14.7340 N   0  0  0  0  0  0
   45.3950   26.7780   14.2570 C   0  0  0  0  0  0
   46.7310   26.7870   14.0940 N   0  0  0  0  0  0
   49.7338   37.0367   14.3296 H   0  0  0  0  0  0
   44.1805   32.3392   16.7059 H   0  0  0  0  0  0
   44.1176   36.0117   15.4572 H   0  0  0  0  0  0
   41.0260   35.5797   17.0867 H   0  0  0  0  0  0
   41.2741   33.5077   18.3766 H   0  0  0  0  0  0
   40.1855   33.2163   16.9778 H   0  0  0  0  0  0
   40.7280   34.1060   14.7871 H   0  0  0  0  0  0
   40.3011   36.5179   14.9109 H   0  0  0  0  0  0
   43.0426   33.2125   14.7298 H   0  0  0  0  0  0
   40.6404   33.2503   12.1991 H   0  0  0  0  0  0
   41.3210   32.2661   10.8594 H   0  0  0  0  0  0
   39.5342   30.9467   11.8395 H   0  0  0  0  0  0
   39.9722   32.3922   14.1484 H   0  0  0  0  0  0
   37.9722   30.9419   13.8536 H   0  0  0  0  0  0
   42.1262   31.3701   14.7738 H   0  0  0  0  0  0
   40.8779   28.6495   14.0425 H   0  0  0  0  0  0
   43.8988   30.8384   12.9154 H   0  0  0  0  0  0
   42.9062   24.8056   15.2681 H   0  0  0  0  0  0
   47.2312   27.6847   13.7017 H   0  0  0  0  0  0
   47.3227   25.8966   14.3531 H   0  0  0  0  0  0
   47.9966   37.8162   14.2627 H   0  0  0  0  0  0
   50.0604   34.8854   15.1481 H   0  0  0  0  0  0
  1  2  2  0  0  0
  2  3  1  0  0  0
  2  8  1  0  0  0
  3  4  1  0  0  0
  3 67  1  0  0  0
  4  5  1  0  0  0
  4  6  2  0  0  0
  5 46  1  0  0  0
  5 66  1  0  0  0
  6  7  1  0  0  0
  7  8  2  0  0  0
  7 11  1  0  0  0
  8  9  1  0  0  0
  9 10  2  0  0  0
 10 11  1  0  0  0
 10 47  1  0  0  0
 11 12  1  0  0  0
 12 13  1  0  0  0
 12 23  1  0  0  0
 12 48  1  0  0  0
 13 14  1  0  0  0
 14 15  1  0  0  0
 14 21  1  0  0  0
 14 49  1  0  0  0
 15 16  1  0  0  0
 15 50  1  0  0  0
 15 51  1  0  0  0
 16 17  1  0  0  0
 17 18  1  0  0  0
 17 19  2  0  0  0
 17 20  1  0  0  0
 18 34  1  0  0  0
 21 22  1  0  0  0
 21 23  1  0  0  0
 21 52  1  0  0  0
 22 53  1  0  0  0
 23 24  1  0  0  0
 23 54  1  0  0  0
 24 25  1  0  0  0
 25 26  1  0  0  0
 25 27  2  0  0  0
 25 28  1  0  0  0
 28 29  1  0  0  0
 29 30  1  0  0  0
 29 55  1  0  0  0
 29 56  1  0  0  0
 30 31  1  0  0  0
 30 32  1  0  0  0
 30 57  1  0  0  0
 31 35  1  0  0  0
 32 33  1  0  0  0
 32 34  1  0  0  0
 32 58  1  0  0  0
 33 59  1  0  0  0
 34 35  1  0  0  0
 34 60  1  0  0  0
 35 36  1  0  0  0
 35 61  1  0  0  0
 36 37  1  0  0  0
 36 40  1  0  0  0
 37 38  2  0  0  0
 37 62  1  0  0  0
 38 39  1  0  0  0
 39 40  2  0  0  0
 39 44  1  0  0  0
 40 41  1  0  0  0
 41 42  2  0  0  0
 42 43  1  0  0  0
 42 63  1  0  0  0
 43 44  2  0  0  0
 44 45  1  0  0  0
 45 64  1  0  0  0
 45 65  1  0  0  0
M  CHG  3   3   1  20  -1  26  -1
M  END
> <s_m_source_file>
../4loi_ligand.sdf

> <i_m_source_file_index>
1

> <s_epik_input>
W0hdL049YyhbbkhdMSlcW25IXWMoPU8pYyhjMTIpbltjSF1uMltDQEhdKE9bQ0BIXTM0KVtDQEBIXShbQ0BASF00W09IXSlPW1BAQF0oPU8pKFtPSF0pT1tDSDJdW0NASF01T1tDQEhdKFtDQEBIXShbQ0BASF01W09IXSlPW1BAQF0oPU8pKFtPSF0pT1tDSDJdMyluKFtjSF1uNiljKGM2NyluW2NIXW5jN1tOSDJd

> <s_epik_cmdline>
J2VwaWtfYXBwJywgJy1pbWFlJywgJ2xpZ2FuZF9wcm8ubWFlJywgJy1vbWFlJywgJ2xpZ2FuZF9wcmVwLm1hZScsICctbXMnLCAnMScsICctcGgnLCAnNycsICctcGh0JywgJzAuNScsICctbnQn

> <r_epik_Ionization_Penalty>
  2.3895

> <r_epik_Ionization_Penalty_Charging>
  2.3889

> <r_epik_Ionization_Penalty_Neutral>
  0.0007

> <r_epik_State_Penalty>
  0.2008

> <r_epik_Charging_Adjusted_Penalty>
2.58967031773528

> <i_epik_Tot_Q>
-1

> <i_epik_Tot_abs_Q>
3

> <s_epik_Chemistry_Notes>
This compound has an imine and may undergo hydrolysis. This compound contains an acetal/aminal-like group ( X-CH(R)-Y where X, Y are N, S, or O) that may be acid/base labile, releasing an aldehyde.

$$$$
