4loj_ligand
                    3D
 Schrodinger Suite 2020-3.
 67 73  0  0  1  0            999 V2000
   37.5860   25.5850   24.8240 C   0  0  0  0  0  0
   40.4920   27.3070   24.2290 N   0  0  0  0  0  0
   39.6810   26.3840   24.3210 C   0  0  0  0  0  0
   38.4420   26.5770   24.7520 N   0  0  0  0  0  0
   37.9730   24.3880   24.4270 N   0  0  0  0  0  0
   39.2250   24.2260   24.0320 C   0  0  0  0  0  0
   40.0590   25.1760   23.9580 C   0  0  0  0  0  0
   41.1710   24.6660   23.4980 N   0  0  0  0  0  0
   41.0190   23.4400   23.2650 C   0  0  0  0  0  0
   39.8170   23.1670   23.6090 N   0  0  0  0  0  0
   39.1080   22.0290   23.6550 C   0  0  1  0  0  0
   38.1660   22.0110   22.6140 C   0  0  2  0  0  0
   36.9660   21.3800   23.1440 O   0  0  0  0  0  0
   38.9300   21.2320   21.6530 C   0  0  1  0  0  0
   39.4750   20.1040   22.5990 C   0  0  1  0  0  0
   40.9350   19.5430   22.2730 C   0  0  0  0  0  0
   41.8150   20.5420   21.9530 O   0  0  0  0  0  0
   43.1130   20.4610   21.0410 P   0  0  2  0  0  0
   43.8330   21.5980   21.0370 O   0  0  0  0  0  0
   42.6380   20.3170   19.6720 O   0  0  0  0  0  0
   41.7140   21.0970   18.9810 C   0  0  2  0  0  0
   40.9120   20.0590   18.2450 C   0  0  2  0  0  0
   41.5930   18.7310   17.8100 O   0  0  0  0  0  0
   40.3250   20.7940   17.2320 C   0  0  1  0  0  0
   39.0430   21.0230   17.9290 C   0  0  0  0  0  0
   39.0590   22.0190   18.8370 O   0  0  0  0  0  0
   37.6860   22.1290   19.7200 P   0  0  2  0  0  0
   38.0000   21.0000   20.8070 O   0  0  0  0  0  0
   36.7000   21.6420   19.1190 O   0  5  0  0  0  0
   37.5820   23.2410   20.1130 O   0  0  0  0  0  0
   41.0120   21.9900   16.9570 O   0  0  0  0  0  0
   42.0250   22.1830   17.7320 C   0  0  1  0  0  0
   41.9910   23.6940   18.0290 N   0  0  0  0  0  0
   41.0010   24.4100   18.5220 C   0  0  0  0  0  0
   41.3770   25.6280   18.7240 N   0  0  0  0  0  0
   42.9660   24.5320   17.9510 C   0  0  0  0  0  0
   42.6390   25.7100   18.3520 C   0  0  0  0  0  0
   43.5290   26.6480   18.3500 C   0  0  0  0  0  0
   44.8810   26.4410   17.9200 N   0  3  0  0  0  0
   45.0980   25.1820   17.5000 C   0  0  0  0  0  0
   46.2140   24.6100   17.0370 N   0  0  0  0  0  0
   44.2030   24.3160   17.5570 N   0  0  0  0  0  0
   43.2600   27.7210   18.7310 O   0  0  0  0  0  0
   43.8990   19.2870   21.2820 O   0  5  0  0  0  0
   39.7030   20.7700   23.6980 O   0  0  0  0  0  0
   36.5771   25.7466   25.2036 H   0  0  0  0  0  0
   40.2018   28.3257   24.5255 H   0  0  0  0  0  0
   41.5062   27.1123   23.8503 H   0  0  0  0  0  0
   41.7581   22.7519   22.8548 H   0  0  0  0  0  0
   38.7504   22.1663   24.6862 H   0  0  0  0  0  0
   37.8185   22.9669   22.1951 H   0  0  0  0  0  0
   36.3412   21.9137   23.8753 H   0  0  0  0  0  0
   39.6876   21.6151   20.9535 H   0  0  0  0  0  0
   38.7311   19.3015   22.7116 H   0  0  0  0  0  0
   41.3280   19.0109   23.1519 H   0  0  0  0  0  0
   40.8798   18.8509   21.4198 H   0  0  0  0  0  0
   41.4064   21.6170   19.9002 H   0  0  0  0  0  0
   40.1093   19.6604   18.8828 H   0  0  0  0  0  0
   42.0815   18.0919   18.5603 H   0  0  0  0  0  0
   40.3305   20.3173   16.2407 H   0  0  0  0  0  0
   38.2664   21.2794   17.1934 H   0  0  0  0  0  0
   38.7503   20.1098   18.4679 H   0  0  0  0  0  0
   42.9712   22.0214   17.1948 H   0  0  0  0  0  0
   40.0022   24.0266   18.7305 H   0  0  0  0  0  0
   47.1278   25.2093   16.9112 H   0  0  0  0  0  0
   46.2185   23.5400   16.7818 H   0  0  0  0  0  0
   45.6035   27.2695   17.9591 H   0  0  0  0  0  0
  1  4  2  0  0  0
  1  5  1  0  0  0
  1 46  1  0  0  0
  2  3  1  0  0  0
  2 47  1  0  0  0
  2 48  1  0  0  0
  3  4  1  0  0  0
  3  7  2  0  0  0
  5  6  2  0  0  0
  6  7  1  0  0  0
  6 10  1  0  0  0
  7  8  1  0  0  0
  8  9  2  0  0  0
  9 10  1  0  0  0
  9 49  1  0  0  0
 10 11  1  0  0  0
 11 12  1  0  0  0
 11 45  1  0  0  0
 11 50  1  0  0  0
 12 13  1  0  0  0
 12 14  1  0  0  0
 12 51  1  0  0  0
 13 52  1  0  0  0
 14 15  1  0  0  0
 14 28  1  0  0  0
 14 53  1  0  0  0
 15 16  1  0  0  0
 15 45  1  0  0  0
 15 54  1  0  0  0
 16 17  1  0  0  0
 16 55  1  0  0  0
 16 56  1  0  0  0
 17 18  1  0  0  0
 18 19  2  0  0  0
 18 20  1  0  0  0
 18 44  1  0  0  0
 20 21  1  0  0  0
 21 22  1  0  0  0
 21 32  1  0  0  0
 21 57  1  0  0  0
 22 23  1  0  0  0
 22 24  1  0  0  0
 22 58  1  0  0  0
 23 59  1  0  0  0
 24 25  1  0  0  0
 24 31  1  0  0  0
 24 60  1  0  0  0
 25 26  1  0  0  0
 25 61  1  0  0  0
 25 62  1  0  0  0
 26 27  1  0  0  0
 27 28  1  0  0  0
 27 29  1  0  0  0
 27 30  2  0  0  0
 31 32  1  0  0  0
 32 33  1  0  0  0
 32 63  1  0  0  0
 33 34  1  0  0  0
 33 36  1  0  0  0
 34 35  2  0  0  0
 34 64  1  0  0  0
 35 37  1  0  0  0
 36 37  2  0  0  0
 36 42  1  0  0  0
 37 38  1  0  0  0
 38 39  1  0  0  0
 38 43  2  0  0  0
 39 40  1  0  0  0
 39 67  1  0  0  0
 40 41  1  0  0  0
 40 42  2  0  0  0
 41 65  1  0  0  0
 41 66  1  0  0  0
M  CHG  3  29  -1  39   1  44  -1
M  END
> <s_m_source_file>
../4loj_ligand.sdf

> <i_m_source_file_index>
1

> <s_epik_input>
bjFbY0hdbmMoW05IMl0pYyhjMTIpbltjSF1uMltDQEBIXShbQ0BASF0zW09IXSlPW0NAQEhdKFtDQEhdMzQpW0NIMl1PW1BAQF0oPU8pKFtPSF0pT1tDQEBIXTVbQ0BIXShbT0hdKVtDQEBIXShbQ0gyXU9bUEBAXShPNCkoPU8pW09IXSlPW0NASF01bjZbY0hdbmMoYzY3KWMoPU8pW25IXS9jKD1OXFtIXSlbbkhdNw==

> <s_epik_cmdline>
J2VwaWtfYXBwJywgJy1pbWFlJywgJ2xpZ2FuZF9wcm8ubWFlJywgJy1vbWFlJywgJ2xpZ2FuZF9wcmVwLm1hZScsICctbXMnLCAnMScsICctcGgnLCAnNycsICctcGh0JywgJzAuNScsICctbnQn

> <r_epik_Ionization_Penalty>
  2.3896

> <r_epik_Ionization_Penalty_Charging>
  2.3889

> <r_epik_Ionization_Penalty_Neutral>
  0.0007

> <r_epik_State_Penalty>
  0.1964

> <r_epik_Charging_Adjusted_Penalty>
2.58532586736115

> <i_epik_Tot_Q>
-1

> <i_epik_Tot_abs_Q>
3

> <s_epik_Chemistry_Notes>
This compound has an imine and may undergo hydrolysis. This compound contains an acetal/aminal-like group ( X-CH(R)-Y where X, Y are N, S, or O) that may be acid/base labile, releasing an aldehyde.

$$$$
