4loo_ligand
                    3D
 Schrodinger Suite 2020-3.
 45 48  0  0  1  0            999 V2000
   23.0370  -20.8010   27.2090 C   0  0  0  0  0  0
   23.6910  -20.8480   25.8680 C   0  0  0  0  0  0
   22.8030  -20.1890   24.9040 N   0  3  0  0  0  0
   21.4880  -20.7580   24.7150 C   0  0  0  0  0  0
   20.8280  -20.6120   26.0840 C   0  0  0  0  0  0
   21.6040  -21.3770   27.1080 C   0  0  0  0  0  0
   20.8000  -22.7180   32.5220 C   0  0  0  0  0  0
   20.4530  -23.1400   33.7810 C   0  0  0  0  0  0
   19.1580  -22.8390   34.1860 C   0  0  0  0  0  0
   18.3490  -22.0970   33.3870 C   0  0  0  0  0  0
   18.7230  -21.6040   32.1600 C   0  0  0  0  0  0
   20.0220  -21.8990   31.7140 C   0  0  0  0  0  0
   18.7260  -23.3470   35.3320 F   0  0  0  0  0  0
   20.3980  -24.3440   29.6810 C   0  0  0  0  0  0
   21.2720  -23.3910   29.2160 C   0  0  0  0  0  0
   22.4510  -23.8180   28.5540 N   0  0  0  0  0  0
   22.7050  -25.1130   28.3330 C   0  0  0  0  0  0
   21.8810  -26.0280   28.8270 N   0  0  0  0  0  0
   20.6580  -25.6770   29.4900 C   0  0  0  0  0  0
   23.8150  -25.4990   27.6870 N   0  0  0  0  0  0
   21.0640  -21.1690   28.4290 N   0  0  0  0  0  0
   20.6100  -19.9850   28.8970 C   0  0  0  0  0  0
   20.1570  -20.1610   30.1480 N   0  0  0  0  0  0
   20.4200  -21.4280   30.5040 C   0  0  0  0  0  0
   20.9370  -22.0740   29.4060 C   0  0  0  0  0  0
   23.6219  -21.3990   27.9233 H   0  0  0  0  0  0
   22.9883  -19.7586   27.5569 H   0  0  0  0  0  0
   24.6572  -20.3240   25.9127 H   0  0  0  0  0  0
   23.8554  -21.8959   25.5767 H   0  0  0  0  0  0
   22.6288  -19.1491   25.2174 H   0  0  0  0  0  0
   23.2709  -20.1984   23.9085 H   0  0  0  0  0  0
   20.9545  -20.1967   23.9338 H   0  0  0  0  0  0
   21.5842  -21.8103   24.4095 H   0  0  0  0  0  0
   20.8028  -19.5494   26.3674 H   0  0  0  0  0  0
   19.8012  -21.0041   26.0397 H   0  0  0  0  0  0
   21.5237  -22.4396   26.8350 H   0  0  0  0  0  0
   21.7594  -23.0510   32.1260 H   0  0  0  0  0  0
   21.1500  -23.6780   34.4236 H   0  0  0  0  0  0
   17.3412  -21.8790   33.7404 H   0  0  0  0  0  0
   18.0387  -21.0076   31.5566 H   0  0  0  0  0  0
   19.4923  -24.0386   30.2050 H   0  0  0  0  0  0
   19.9604  -26.4425   29.8298 H   0  0  0  0  0  0
   24.5020  -24.7450   27.2752 H   0  0  0  0  0  0
   24.0385  -26.5696   27.5689 H   0  0  0  0  0  0
   20.6115  -19.0428   28.3489 H   0  0  0  0  0  0
  1  2  1  0  0  0
  1  6  1  0  0  0
  1 26  1  0  0  0
  1 27  1  0  0  0
  2  3  1  0  0  0
  2 28  1  0  0  0
  2 29  1  0  0  0
  3  4  1  0  0  0
  3 30  1  0  0  0
  3 31  1  0  0  0
  4  5  1  0  0  0
  4 32  1  0  0  0
  4 33  1  0  0  0
  5  6  1  0  0  0
  5 34  1  0  0  0
  5 35  1  0  0  0
  6 21  1  0  0  0
  6 36  1  0  0  0
  7  8  2  0  0  0
  7 12  1  0  0  0
  7 37  1  0  0  0
  8  9  1  0  0  0
  8 38  1  0  0  0
  9 10  2  0  0  0
  9 13  1  0  0  0
 10 11  1  0  0  0
 10 39  1  0  0  0
 11 12  2  0  0  0
 11 40  1  0  0  0
 12 24  1  0  0  0
 14 15  2  0  0  0
 14 19  1  0  0  0
 14 41  1  0  0  0
 15 16  1  0  0  0
 15 25  1  0  0  0
 16 17  2  0  0  0
 17 18  1  0  0  0
 17 20  1  0  0  0
 18 19  2  0  0  0
 19 42  1  0  0  0
 20 43  1  0  0  0
 20 44  1  0  0  0
 21 22  1  0  0  0
 21 25  1  0  0  0
 22 23  2  0  0  0
 22 45  1  0  0  0
 23 24  1  0  0  0
 24 25  2  0  0  0
M  CHG  1   3   1
M  END
> <s_m_source_file>
../4loo_ligand.sdf

> <i_m_source_file_index>
1

> <s_epik_input>
W0NIMl0xW0NIMl1bTkgyK11bQ0gyXVtDSDJdW0NIXTFuMltjSF1uYygtYyhbY0hdW2NIXTMpW2NIXVtjSF1jM0YpYzItYzRbY0hdW2NIXW5jKG40KVtOSDJd

> <s_epik_cmdline>
J2VwaWtfYXBwJywgJy1pbWFlJywgJ2xpZ2FuZF9wcm8ubWFlJywgJy1vbWFlJywgJ2xpZ2FuZF9wcmVwLm1hZScsICctbXMnLCAnMScsICctcGgnLCAnNycsICctcGh0JywgJzAuNScsICctbnQn

> <r_lp_tautomer_probability>
1

> <r_epik_Ionization_Penalty>
  0.0077

> <r_epik_Ionization_Penalty_Charging>
  0.0071

> <r_epik_Ionization_Penalty_Neutral>
  0.0005

> <r_epik_State_Penalty>
 -0.0000

> <r_epik_Charging_Adjusted_Penalty>
0.00714851862785632

> <i_epik_Tot_Q>
1

> <i_epik_Tot_abs_Q>
1

$$$$
