4lop_ligand
                    3D
 Schrodinger Suite 2020-3.
 45 48  0  0  1  0            999 V2000
    3.6130   -8.5220   35.7490 C   0  0  0  0  0  0
    2.3570   -7.8370   36.0810 C   0  0  0  0  0  0
    2.0270   -6.9600   34.9470 N   0  3  0  0  0  0
    3.1540   -6.7520   34.0070 C   0  0  0  0  0  0
    4.4620   -6.4720   34.7700 C   0  0  0  0  0  0
    4.6440   -7.4810   35.8640 C   0  0  0  0  0  0
    9.2600   -9.2130   38.4250 C   0  0  0  0  0  0
   10.4990   -9.4660   39.0230 C   0  0  0  0  0  0
   11.6410   -9.4900   38.2550 C   0  0  0  0  0  0
   11.5500   -9.2870   36.8630 C   0  0  0  0  0  0
   10.3210   -9.0350   36.2810 C   0  0  0  0  0  0
    9.1710   -8.9460   37.0420 C   0  0  0  0  0  0
   12.8810   -9.7430   38.7840 F   0  0  0  0  0  0
    7.8510   -6.2390   38.2070 C   0  0  0  0  0  0
    6.7780   -7.0450   37.8300 C   0  0  0  0  0  0
    5.5910   -6.8360   38.4640 N   0  0  0  0  0  0
    5.4280   -5.8700   39.4050 C   0  0  0  0  0  0
    6.4540   -5.0810   39.7880 N   0  0  0  0  0  0
    7.6960   -5.2670   39.2000 C   0  0  0  0  0  0
    4.2530   -5.6760   39.9720 N   0  0  0  0  0  0
    5.9840   -8.1490   35.8800 N   0  0  0  0  0  0
    6.4210   -9.0730   34.9870 C   0  0  0  0  0  0
    7.6530   -9.4520   35.3230 N   0  0  0  0  0  0
    7.9900   -8.7370   36.4330 C   0  0  0  0  0  0
    6.9250   -7.9810   36.8320 C   0  0  0  0  0  0
    3.7808   -9.3448   36.4595 H   0  0  0  0  0  0
    3.5514   -8.9263   34.7278 H   0  0  0  0  0  0
    1.5632   -8.5823   36.2376 H   0  0  0  0  0  0
    2.4927   -7.2473   36.9996 H   0  0  0  0  0  0
    1.1983   -7.3997   34.3725 H   0  0  0  0  0  0
    1.7278   -5.9707   35.3235 H   0  0  0  0  0  0
    3.2897   -7.6539   33.3920 H   0  0  0  0  0  0
    2.9343   -5.8935   33.3553 H   0  0  0  0  0  0
    5.3124   -6.5345   34.0751 H   0  0  0  0  0  0
    4.4214   -5.4647   35.2100 H   0  0  0  0  0  0
    4.5434   -6.9267   36.8088 H   0  0  0  0  0  0
    8.3551   -9.2221   39.0326 H   0  0  0  0  0  0
   10.5601   -9.6440   40.0966 H   0  0  0  0  0  0
   12.4475   -9.3286   36.2459 H   0  0  0  0  0  0
   10.2582   -8.9040   35.2007 H   0  0  0  0  0  0
    8.8194   -6.3676   37.7234 H   0  0  0  0  0  0
    8.5461   -4.6593   39.5100 H   0  0  0  0  0  0
    3.3939   -6.3001   39.6848 H   0  0  0  0  0  0
    4.1321   -4.8901   40.7321 H   0  0  0  0  0  0
    5.8552   -9.4449   34.1328 H   0  0  0  0  0  0
  1  2  1  0  0  0
  1  6  1  0  0  0
  1 26  1  0  0  0
  1 27  1  0  0  0
  2  3  1  0  0  0
  2 28  1  0  0  0
  2 29  1  0  0  0
  3  4  1  0  0  0
  3 30  1  0  0  0
  3 31  1  0  0  0
  4  5  1  0  0  0
  4 32  1  0  0  0
  4 33  1  0  0  0
  5  6  1  0  0  0
  5 34  1  0  0  0
  5 35  1  0  0  0
  6 21  1  0  0  0
  6 36  1  0  0  0
  7  8  2  0  0  0
  7 12  1  0  0  0
  7 37  1  0  0  0
  8  9  1  0  0  0
  8 38  1  0  0  0
  9 10  2  0  0  0
  9 13  1  0  0  0
 10 11  1  0  0  0
 10 39  1  0  0  0
 11 12  2  0  0  0
 11 40  1  0  0  0
 12 24  1  0  0  0
 14 15  2  0  0  0
 14 19  1  0  0  0
 14 41  1  0  0  0
 15 16  1  0  0  0
 15 25  1  0  0  0
 16 17  2  0  0  0
 17 18  1  0  0  0
 17 20  1  0  0  0
 18 19  2  0  0  0
 19 42  1  0  0  0
 20 43  1  0  0  0
 20 44  1  0  0  0
 21 22  1  0  0  0
 21 25  1  0  0  0
 22 23  2  0  0  0
 22 45  1  0  0  0
 23 24  1  0  0  0
 24 25  2  0  0  0
M  CHG  1   3   1
M  END
> <s_m_source_file>
../4lop_ligand.sdf

> <i_m_source_file_index>
1

> <s_epik_input>
W0NIMl0xW0NIMl1bTkgyK11bQ0gyXVtDSDJdW0NIXTFuMltjSF1uYygtYyhbY0hdW2NIXTMpW2NIXVtjSF1jM0YpYzItYzRbY0hdW2NIXW5jKG40KVtOSDJd

> <s_epik_cmdline>
J2VwaWtfYXBwJywgJy1pbWFlJywgJ2xpZ2FuZF9wcm8ubWFlJywgJy1vbWFlJywgJ2xpZ2FuZF9wcmVwLm1hZScsICctbXMnLCAnMScsICctcGgnLCAnNycsICctcGh0JywgJzAuNScsICctbnQn

> <r_lp_tautomer_probability>
1

> <r_epik_Ionization_Penalty>
  0.0077

> <r_epik_Ionization_Penalty_Charging>
  0.0071

> <r_epik_Ionization_Penalty_Neutral>
  0.0005

> <r_epik_State_Penalty>
 -0.0000

> <r_epik_Charging_Adjusted_Penalty>
0.00714851862785632

> <i_epik_Tot_Q>
1

> <i_epik_Tot_abs_Q>
1

$$$$
