4loq_ligand
                    3D
 Schrodinger Suite 2020-3.
 45 48  0  0  1  0            999 V2000
    4.0790   -8.0420   34.3040 C   0  0  0  0  0  0
    2.7920   -7.3990   34.1890 C   0  0  0  0  0  0
    2.9580   -5.9150   34.1220 N   0  3  0  0  0  0
    4.1050   -5.5180   33.3140 C   0  0  0  0  0  0
    5.3330   -5.9420   34.1320 C   0  0  0  0  0  0
    5.0300   -7.0950   35.0320 C   0  0  0  0  0  0
    9.2050   -8.7910   38.4480 C   0  0  0  0  0  0
   10.4300   -8.9640   39.0730 C   0  0  0  0  0  0
   11.5980   -8.9960   38.3250 C   0  0  0  0  0  0
   11.5910   -8.8740   36.9660 C   0  0  0  0  0  0
   10.3840   -8.7160   36.3410 C   0  0  0  0  0  0
    9.1830   -8.6750   37.0650 C   0  0  0  0  0  0
   12.5300   -9.1090   38.7930 F   0  0  0  0  0  0
    7.8290   -5.8490   37.7370 C   0  0  0  0  0  0
    6.8350   -6.7850   37.5100 C   0  0  0  0  0  0
    5.7240   -6.6750   38.2530 N   0  0  0  0  0  0
    5.5220   -5.7570   39.2260 C   0  0  0  0  0  0
    6.4800   -4.8720   39.5150 N   0  0  0  0  0  0
    7.6380   -4.8880   38.7130 C   0  0  0  0  0  0
    4.3930   -5.7000   39.9650 N   0  0  0  0  0  0
    6.2880   -7.7730   35.3770 N   0  0  0  0  0  0
    6.8590   -8.6640   34.5590 C   0  0  0  0  0  0
    7.9730   -9.0760   35.1440 N   0  0  0  0  0  0
    8.0900   -8.4940   36.3160 C   0  0  0  0  0  0
    7.0450   -7.6690   36.4940 C   0  0  0  0  0  0
    3.9720   -8.9774   34.8729 H   0  0  0  0  0  0
    4.4680   -8.2661   33.2998 H   0  0  0  0  0  0
    2.2893   -7.7459   33.2741 H   0  0  0  0  0  0
    2.1760   -7.6524   35.0644 H   0  0  0  0  0  0
    2.0581   -5.4651   33.6772 H   0  0  0  0  0  0
    3.1040   -5.5162   35.1367 H   0  0  0  0  0  0
    4.0659   -6.0340   32.3433 H   0  0  0  0  0  0
    4.0807   -4.4302   33.1523 H   0  0  0  0  0  0
    6.1427   -6.2403   33.4499 H   0  0  0  0  0  0
    5.6689   -5.0986   34.7531 H   0  0  0  0  0  0
    4.5818   -6.7482   35.9748 H   0  0  0  0  0  0
    8.2829   -8.7472   39.0275 H   0  0  0  0  0  0
   10.4759   -9.0753   40.1563 H   0  0  0  0  0  0
   12.5192   -8.9016   36.3952 H   0  0  0  0  0  0
   10.3550   -8.6198   35.2556 H   0  0  0  0  0  0
    8.7500   -5.8690   37.1543 H   0  0  0  0  0  0
    8.4014   -4.1250   38.8653 H   0  0  0  0  0  0
    3.5717   -6.4052   39.7698 H   0  0  0  0  0  0
    4.2948   -4.9484   40.7621 H   0  0  0  0  0  0
    6.4782   -8.9901   33.5912 H   0  0  0  0  0  0
  1  2  1  0  0  0
  1  6  1  0  0  0
  1 26  1  0  0  0
  1 27  1  0  0  0
  2  3  1  0  0  0
  2 28  1  0  0  0
  2 29  1  0  0  0
  3  4  1  0  0  0
  3 30  1  0  0  0
  3 31  1  0  0  0
  4  5  1  0  0  0
  4 32  1  0  0  0
  4 33  1  0  0  0
  5  6  1  0  0  0
  5 34  1  0  0  0
  5 35  1  0  0  0
  6 21  1  0  0  0
  6 36  1  0  0  0
  7  8  2  0  0  0
  7 12  1  0  0  0
  7 37  1  0  0  0
  8  9  1  0  0  0
  8 38  1  0  0  0
  9 10  2  0  0  0
  9 13  1  0  0  0
 10 11  1  0  0  0
 10 39  1  0  0  0
 11 12  2  0  0  0
 11 40  1  0  0  0
 12 24  1  0  0  0
 14 15  2  0  0  0
 14 19  1  0  0  0
 14 41  1  0  0  0
 15 16  1  0  0  0
 15 25  1  0  0  0
 16 17  2  0  0  0
 17 18  1  0  0  0
 17 20  1  0  0  0
 18 19  2  0  0  0
 19 42  1  0  0  0
 20 43  1  0  0  0
 20 44  1  0  0  0
 21 22  1  0  0  0
 21 25  1  0  0  0
 22 23  2  0  0  0
 22 45  1  0  0  0
 23 24  1  0  0  0
 24 25  2  0  0  0
M  CHG  1   3   1
M  END
> <s_m_source_file>
../4loq_ligand.sdf

> <i_m_source_file_index>
1

> <s_epik_input>
W0NIMl0xW0NIMl1bTkgyK11bQ0gyXVtDSDJdW0NIXTFuMltjSF1uYygtYyhbY0hdW2NIXTMpW2NIXVtjSF1jM0YpYzItYzRbY0hdW2NIXW5jKG40KVtOSDJd

> <s_epik_cmdline>
J2VwaWtfYXBwJywgJy1pbWFlJywgJ2xpZ2FuZF9wcm8ubWFlJywgJy1vbWFlJywgJ2xpZ2FuZF9wcmVwLm1hZScsICctbXMnLCAnMScsICctcGgnLCAnNycsICctcGh0JywgJzAuNScsICctbnQn

> <r_lp_tautomer_probability>
1

> <r_epik_Ionization_Penalty>
  0.0077

> <r_epik_Ionization_Penalty_Charging>
  0.0071

> <r_epik_Ionization_Penalty_Neutral>
  0.0005

> <r_epik_State_Penalty>
 -0.0000

> <r_epik_Charging_Adjusted_Penalty>
0.00714851862785632

> <i_epik_Tot_Q>
1

> <i_epik_Tot_abs_Q>
1

$$$$
