4lov_ligand
                    3D
 Schrodinger Suite 2020-3.
 43 43  0  0  1  0            999 V2000
    8.6150   -6.9900  -33.6660 O   0  0  0  0  0  0
    8.7840   -7.5860  -34.9610 C   0  0  0  0  0  0
   10.2670   -7.4120  -35.4070 C   0  0  1  0  0  0
   10.7760   -6.8110  -41.8900 C   0  0  0  0  0  0
   10.4490   -5.9890  -35.5410 O   0  0  0  0  0  0
   11.2840   -8.0580  -34.4050 C   0  0  1  0  0  0
   11.1130   -9.4450  -34.4480 O   0  0  0  0  0  0
   12.6970   -7.6680  -34.8770 C   0  0  2  0  0  0
   13.6700   -8.1030  -33.9580 O   0  0  0  0  0  0
   12.8690   -6.0950  -34.9830 C   0  0  2  0  0  0
   12.7070   -5.4770  -33.7200 O   0  0  0  0  0  0
   11.7790   -5.5210  -35.9430 C   0  0  1  0  0  0
   11.9270   -5.9530  -37.2750 O   0  0  0  0  0  0
   11.0660   -5.4480  -38.3320 C   0  0  0  0  0  0
   11.3970   -6.3840  -39.5210 C   0  0  0  0  0  0
   10.5440   -6.1630  -40.7280 C   0  0  0  0  0  0
    9.1460   -7.0160  -45.4010 C   0  0  0  0  0  0
   10.1420   -7.3880  -44.2780 C   0  0  0  0  0  0
    9.9210   -6.4950  -43.0940 C   0  0  0  0  0  0
    7.6304   -7.0095  -33.1758 H   0  0  0  0  0  0
    8.5349   -8.6561  -34.9075 H   0  0  0  0  0  0
    8.1181   -7.0902  -35.6826 H   0  0  0  0  0  0
   10.4790   -7.8622  -36.3880 H   0  0  0  0  0  0
   11.5801   -7.5591  -41.9515 H   0  0  0  0  0  0
   11.1267   -7.8126  -33.3443 H   0  0  0  0  0  0
   10.1552   -9.8908  -34.1416 H   0  0  0  0  0  0
   12.8921   -8.2126  -35.8126 H   0  0  0  0  0  0
   13.7542   -9.1715  -33.7107 H   0  0  0  0  0  0
   13.8929   -5.8210  -35.2771 H   0  0  0  0  0  0
   13.3782   -5.7396  -32.8890 H   0  0  0  0  0  0
   11.8475   -4.4234  -35.9653 H   0  0  0  0  0  0
   10.0152   -5.5202  -38.0148 H   0  0  0  0  0  0
   11.3156   -4.3966  -38.5373 H   0  0  0  0  0  0
   12.4412   -6.2289  -39.8301 H   0  0  0  0  0  0
   11.2573   -7.4309  -39.2135 H   0  0  0  0  0  0
    9.7090   -5.4509  -40.6526 H   0  0  0  0  0  0
    9.3098   -7.6722  -46.2685 H   0  0  0  0  0  0
    9.3033   -5.9687  -45.6985 H   0  0  0  0  0  0
    8.1165   -7.1425  -45.0347 H   0  0  0  0  0  0
    9.9847   -8.4353  -43.9805 H   0  0  0  0  0  0
   11.1715   -7.2615  -44.6442 H   0  0  0  0  0  0
    8.8587   -6.5865  -42.8235 H   0  0  0  0  0  0
   10.1266   -5.4681  -43.4304 H   0  0  0  0  0  0
  1  2  1  0  0  0
  1 20  1  0  0  0
  2  3  1  0  0  0
  2 21  1  0  0  0
  2 22  1  0  0  0
  3  5  1  0  0  0
  3  6  1  0  0  0
  3 23  1  0  0  0
  4 16  2  0  0  0
  4 19  1  0  0  0
  4 24  1  0  0  0
  5 12  1  0  0  0
  6  7  1  0  0  0
  6  8  1  0  0  0
  6 25  1  0  0  0
  7 26  1  0  0  0
  8  9  1  0  0  0
  8 10  1  0  0  0
  8 27  1  0  0  0
  9 28  1  0  0  0
 10 11  1  0  0  0
 10 12  1  0  0  0
 10 29  1  0  0  0
 11 30  1  0  0  0
 12 13  1  0  0  0
 12 31  1  0  0  0
 13 14  1  0  0  0
 14 15  1  0  0  0
 14 32  1  0  0  0
 14 33  1  0  0  0
 15 16  1  0  0  0
 15 34  1  0  0  0
 15 35  1  0  0  0
 16 36  1  0  0  0
 17 18  1  0  0  0
 17 37  1  0  0  0
 17 38  1  0  0  0
 17 39  1  0  0  0
 18 19  1  0  0  0
 18 40  1  0  0  0
 18 41  1  0  0  0
 19 42  1  0  0  0
 19 43  1  0  0  0
M  END
> <s_m_source_file>
../4lov_ligand.sdf

> <i_m_source_file_index>
1

> <s_epik_input>
W09IXVtDSDJdW0NASF0xT1tDQEBIXShbQ0BASF0oW09IXSlbQ0BASF0oW09IXSlbQ0BASF0xW09IXSlPW0NIMl1bQ0gyXVxbQ0hdPVtDSF1cW0NIMl1bQ0gyXVtDSDNd

> <s_epik_cmdline>
J2VwaWtfYXBwJywgJy1pbWFlJywgJ2xpZ2FuZF9wcm8ubWFlJywgJy1vbWFlJywgJ2xpZ2FuZF9wcmVwLm1hZScsICctbXMnLCAnMScsICctcGgnLCAnNycsICctcGh0JywgJzAuNScsICctbnQn

> <r_lp_tautomer_probability>
1

> <r_epik_Ionization_Penalty>
  0.0000

> <r_epik_Ionization_Penalty_Charging>
  0.0000

> <r_epik_Ionization_Penalty_Neutral>
  0.0000

> <r_epik_State_Penalty>
 -0.0000

> <r_epik_Charging_Adjusted_Penalty>
0

> <i_epik_Tot_Q>
0

> <i_epik_Tot_abs_Q>
0

> <s_epik_Chemistry_Notes>
This compound contains an acetal/aminal-like group ( X-CH(R)-Y where X, Y are N, S, or O) that may be acid/base labile, releasing an aldehyde.

$$$$
