4loy_ligand
                    3D
 Schrodinger Suite 2020-3.
 68 71  0  0  1  0            999 V2000
   17.0380  -11.6380   12.3840 C   0  0  0  0  0  0
   17.2800  -10.5790   11.5070 C   0  0  0  0  0  0
   16.6140   -9.4810   11.8610 C   0  0  0  0  0  0
   16.5920   -7.9440   10.9980 Cl  0  0  0  0  0  0
   15.7000   -9.6780   13.2890 S   0  0  0  0  0  0
   16.1850  -11.3120   13.3550 C   0  0  0  0  0  0
   15.7160  -12.1200   14.4710 C   0  0  0  0  0  0
   15.0370  -11.5480   15.3220 O   0  0  0  0  0  0
   15.9570  -13.4370   14.5040 N   0  0  0  0  0  0
   15.4240  -14.3780   15.5080 C   0  0  0  0  0  0
   13.9610  -14.7670   15.0720 C   0  0  1  0  0  0
   13.0180  -13.6080   14.7530 C   0  0  0  0  0  0
   12.9480  -13.2110   13.5830 O   0  0  0  0  0  0
   12.2750  -13.0240   15.7090 N   0  0  0  0  0  0
   12.2810  -13.4150   17.1340 C   0  0  0  0  0  0
   10.8300  -13.7450   17.4850 C   0  0  0  0  0  0
   10.0010  -12.5470   17.2640 N   0  3  0  0  0  0
    8.6300  -12.7950   17.7370 C   0  0  0  0  0  0
    9.9850  -12.1990   15.8300 C   0  0  0  0  0  0
   11.4110  -11.8710   15.3700 C   0  0  0  0  0  0
   13.9860  -15.6300   13.8850 N   0  0  3  0  0  0
   13.0400  -16.8630   13.7490 S   0  0  0  0  0  0
   13.3910  -17.5530   12.4850 O   0  0  0  0  0  0
   13.3910  -17.7510   14.8850 O   0  0  0  0  0  0
   11.4400  -16.5030   13.7830 C   0  0  0  0  0  0
   10.6900  -16.0030   12.6830 C   0  0  0  0  0  0
   11.4330  -15.7200   11.0820 Cl  0  0  0  0  0  0
   10.7360  -16.6790   14.9930 C   0  0  0  0  0  0
    9.3660  -16.3740   15.0930 C   0  0  0  0  0  0
    8.7150  -16.5010   16.2670 F   0  0  0  0  0  0
    8.6520  -15.8920   13.9820 C   0  0  0  0  0  0
    9.3170  -15.7010   12.7670 C   0  0  0  0  0  0
    8.6280  -15.1990   11.6770 N   0  0  0  0  0  0
    8.5320  -13.7250   11.6150 C   0  0  0  0  0  0
    7.6990  -13.2220   10.4220 C   0  0  0  0  0  0
    7.8290  -14.1120    9.1870 C   0  0  0  0  0  0
    7.3930  -15.5390    9.5340 C   0  0  0  0  0  0
    8.1260  -16.0760   10.7600 C   0  0  0  0  0  0
    8.2390  -17.2940   10.8530 O   0  0  0  0  0  0
   17.4958  -12.6223   12.2856 H   0  0  0  0  0  0
   17.9347  -10.6429   10.6378 H   0  0  0  0  0  0
   16.6101  -13.8039   13.6985 H   0  0  0  0  0  0
   16.0621  -15.2732   15.5466 H   0  0  0  0  0  0
   15.4124  -13.8931   16.4953 H   0  0  0  0  0  0
   13.5273  -15.3120   15.9234 H   0  0  0  0  0  0
   12.9326  -14.2906   17.2712 H   0  0  0  0  0  0
   12.6572  -12.5791   17.7420 H   0  0  0  0  0  0
   10.4754  -14.5659   16.8443 H   0  0  0  0  0  0
   10.7683  -14.0504   18.5400 H   0  0  0  0  0  0
   10.4282  -11.7064   17.8305 H   0  0  0  0  0  0
    8.6521  -13.0534   18.8060 H   0  0  0  0  0  0
    8.1906  -13.6273   17.1675 H   0  0  0  0  0  0
    8.0224  -11.8897   17.5911 H   0  0  0  0  0  0
    9.5985  -13.0503   15.2504 H   0  0  0  0  0  0
    9.3375  -11.3239   15.6722 H   0  0  0  0  0  0
   11.7801  -10.9722   15.8856 H   0  0  0  0  0  0
   11.4315  -11.7045   14.2829 H   0  0  0  0  0  0
   14.5593  -15.3268   12.9965 H   0  0  0  0  0  0
   11.2639  -17.0588   15.8677 H   0  0  0  0  0  0
    7.5885  -15.6690   14.0671 H   0  0  0  0  0  0
    8.0576  -13.3495   12.5337 H   0  0  0  0  0  0
    9.5403  -13.2955   11.5211 H   0  0  0  0  0  0
    6.6359  -13.1933   10.7032 H   0  0  0  0  0  0
    8.0317  -12.2115   10.1426 H   0  0  0  0  0  0
    7.1889  -13.7194    8.3831 H   0  0  0  0  0  0
    8.8762  -14.1213    8.8503 H   0  0  0  0  0  0
    6.3136  -15.5514    9.7453 H   0  0  0  0  0  0
    7.6081  -16.2048    8.6852 H   0  0  0  0  0  0
  1  2  1  0  0  0
  1  6  2  0  0  0
  1 40  1  0  0  0
  2  3  2  0  0  0
  2 41  1  0  0  0
  3  4  1  0  0  0
  3  5  1  0  0  0
  5  6  1  0  0  0
  6  7  1  0  0  0
  7  8  2  0  0  0
  7  9  1  0  0  0
  9 10  1  0  0  0
  9 42  1  0  0  0
 10 11  1  0  0  0
 10 43  1  0  0  0
 10 44  1  0  0  0
 11 12  1  0  0  0
 11 21  1  0  0  0
 11 45  1  0  0  0
 12 13  2  0  0  0
 12 14  1  0  0  0
 14 15  1  0  0  0
 14 20  1  0  0  0
 15 16  1  0  0  0
 15 46  1  0  0  0
 15 47  1  0  0  0
 16 17  1  0  0  0
 16 48  1  0  0  0
 16 49  1  0  0  0
 17 18  1  0  0  0
 17 19  1  0  0  0
 17 50  1  0  0  0
 18 51  1  0  0  0
 18 52  1  0  0  0
 18 53  1  0  0  0
 19 20  1  0  0  0
 19 54  1  0  0  0
 19 55  1  0  0  0
 20 56  1  0  0  0
 20 57  1  0  0  0
 21 22  1  0  0  0
 21 58  1  0  0  0
 22 23  2  0  0  0
 22 24  2  0  0  0
 22 25  1  0  0  0
 25 26  2  0  0  0
 25 28  1  0  0  0
 26 27  1  0  0  0
 26 32  1  0  0  0
 28 29  2  0  0  0
 28 59  1  0  0  0
 29 30  1  0  0  0
 29 31  1  0  0  0
 31 32  2  0  0  0
 31 60  1  0  0  0
 32 33  1  0  0  0
 33 34  1  0  0  0
 33 38  1  0  0  0
 34 35  1  0  0  0
 34 61  1  0  0  0
 34 62  1  0  0  0
 35 36  1  0  0  0
 35 63  1  0  0  0
 35 64  1  0  0  0
 36 37  1  0  0  0
 36 65  1  0  0  0
 36 66  1  0  0  0
 37 38  1  0  0  0
 37 67  1  0  0  0
 37 68  1  0  0  0
 38 39  2  0  0  0
M  CHG  1  17   1
M  END
> <s_m_source_file>
../4loy_ligand.sdf

> <i_m_source_file_index>
1

> <s_epik_input>
Q2xjMVtjSF1bY0hdYyhzMSlDKD1PKVtOSF1bQ0gyXVtDQEBIXShDKD1PKU4yW0NIMl1bQ0gyXVtOSCtdKFtDSDNdKVtDSDJdW0NIMl0yKVtOSF1TKD1PKSg9TyljM2MoQ2wpYyhbY0hdYyhGKVtjSF0zKU40W0NIMl1bQ0gyXVtDSDJdW0NIMl1DND1P

> <s_epik_cmdline>
J2VwaWtfYXBwJywgJy1pbWFlJywgJ2xpZ2FuZF9wcm8ubWFlJywgJy1vbWFlJywgJ2xpZ2FuZF9wcmVwLm1hZScsICctbXMnLCAnMScsICctcGgnLCAnNycsICctcGh0JywgJzAuNScsICctbnQn

> <r_lp_tautomer_probability>
1

> <r_epik_Ionization_Penalty>
  0.2941

> <r_epik_Ionization_Penalty_Charging>
  0.2039

> <r_epik_Ionization_Penalty_Neutral>
  0.0902

> <r_epik_State_Penalty>
 -0.0000

> <r_epik_Charging_Adjusted_Penalty>
0.203861969303164

> <i_epik_Tot_Q>
1

> <i_epik_Tot_abs_Q>
1

$$$$
