4lp6_ligand
                    3D
 Schrodinger Suite 2020-3.
148157  0  0  1  0            999 V2000
   -1.5540   -0.2230   61.2280 C   0  0  0  0  0  0
   -2.1090   -1.6950   61.2420 C   0  0  0  0  0  0
   -3.2010   -1.6910   62.2150 O   0  0  0  0  0  0
   -3.8450   -2.8950   62.4660 C   0  0  0  0  0  0
   -3.4180   -4.1490   62.1640 C   0  0  0  0  0  0
   -4.1600   -5.2630   62.5220 C   0  0  0  0  0  0
   -3.6030   -6.4700   62.1510 C   0  0  0  0  0  0
   -2.5450   -6.4860   61.4710 O   0  5  0  0  0  0
   -4.1810   -7.5600   62.3790 O   0  0  0  0  0  0
   -5.3590   -5.1570   63.1740 N   0  3  0  0  0  0
   -5.7970   -3.9060   63.4810 C   0  0  0  0  0  0
   -5.0340   -2.7760   63.1070 C   0  0  0  0  0  0
   -5.4290   -1.4580   63.3800 C   0  0  0  0  0  0
   -6.6490   -1.2850   63.9940 C   0  0  0  0  0  0
   -7.4370   -2.3730   64.3750 C   0  0  0  0  0  0
   -7.0510   -3.6870   64.0990 C   0  0  0  0  0  0
   -7.6870   -4.7940   64.5470 N   0  0  0  0  0  0
   -8.7640   -4.8330   65.3410 C   0  0  0  0  0  0
   -9.6390   -4.0230   65.3590 O   0  0  0  0  0  0
   -8.9920   -6.0720   65.8990 C   0  0  0  0  0  0
  -10.2150   -6.4610   66.4550 C   0  0  0  0  0  0
  -10.2930   -7.7780   66.9710 C   0  0  0  0  0  0
  -11.4420   -8.2940   67.5000 O   0  5  0  0  0  0
   -7.9280   -6.9150   65.9030 N   0  0  0  0  0  0
   -7.9870   -8.1610   66.4060 C   0  0  0  0  0  0
   -9.1830   -8.6310   66.9500 C   0  0  0  0  0  0
   -9.2310   -9.9380   67.4690 C   0  0  0  0  0  0
   -8.0950  -10.7370   67.4250 C   0  0  0  0  0  0
   -6.8920  -10.2470   66.8770 C   0  0  0  0  0  0
   -6.8270   -8.9460   66.3510 C   0  0  0  0  0  0
   -5.7530   -8.2810   65.8260 N   0  0  0  0  0  0
   -4.4670   -8.6470   65.9910 C   0  0  0  0  0  0
   -4.1480   -9.7690   66.2960 O   0  0  0  0  0  0
   -3.4670   -7.6850   65.6130 C   0  0  0  0  0  0
   -2.2600   -8.0340   64.9560 C   0  0  0  0  0  0
   -1.3110   -7.0550   64.5970 C   0  0  0  0  0  0
   -0.0540   -7.2900   63.9210 O   0  5  0  0  0  0
   -3.7000   -6.3760   65.9260 N   0  0  0  0  0  0
   -2.8200   -5.4120   65.6050 C   0  0  0  0  0  0
   -1.6320   -5.7400   64.9340 C   0  0  0  0  0  0
   -0.7490   -4.7370   64.6090 C   0  0  0  0  0  0
   -1.0480   -3.4370   64.9860 C   0  0  0  0  0  0
   -2.2540   -3.0800   65.6190 C   0  0  0  0  0  0
   -3.1510   -4.0810   65.9300 C   0  0  0  0  0  0
   -4.3510   -3.9220   66.5560 N   0  0  0  0  0  0
   -4.9760   -2.7590   66.8240 C   0  0  0  0  0  0
   -4.6480   -1.6210   66.4940 O   0  0  0  0  0  0
   -6.2070   -2.9210   67.4360 C   0  0  0  0  0  0
   -7.1300   -1.9050   67.4550 C   0  0  0  0  0  0
   -8.3720   -2.1070   68.0250 C   0  0  0  0  0  0
   -9.3920   -1.2210   68.0760 O   0  0  0  0  0  0
   -9.2300    0.1570   67.7200 C   0  0  0  0  0  0
   -9.7000    0.4490   66.2830 C   0  0  0  0  0  0
   -9.9250    1.9530   66.1920 C   0  0  0  0  0  0
  -11.0140   -0.2270   65.8720 C   0  0  0  0  0  0
   -6.5320   -4.0980   67.9660 N   0  0  0  0  0  0
   -7.7260   -4.2920   68.5480 C   0  0  0  0  0  0
   -8.6730   -3.3030   68.5780 C   0  0  0  0  0  0
   -9.9160   -3.5050   69.1900 C   0  0  0  0  0  0
  -10.1740   -4.7680   69.7500 C   0  0  0  0  0  0
   -9.1990   -5.7610   69.7200 C   0  0  0  0  0  0
   -7.9650   -5.5390   69.1200 C   0  0  0  0  0  0
   -6.9120   -6.4030   69.0000 N   0  0  0  0  0  0
   -6.8860   -7.6360   69.5840 C   0  0  0  0  0  0
   -7.8520   -8.1240   70.1840 O   0  0  0  0  0  0
   -5.7600   -8.3640   69.4400 N   0  0  0  0  0  0
   -5.7020   -9.7440   69.9900 C   0  0  0  0  0  0
   -4.3530  -10.0990   70.6390 C   0  0  0  0  0  0
   -4.3400   -9.6810   72.1210 C   0  0  0  0  0  0
   -3.2340  -10.4220   72.8580 C   0  0  0  0  0  0
   -2.0170   -9.6610   72.8950 O   0  0  0  0  0  0
   -1.6510   -8.9740   74.0150 C   0  0  0  0  0  0
   -0.4070   -8.3930   73.9710 C   0  0  0  0  0  0
   -2.4380   -8.8010   75.1600 C   0  0  0  0  0  0
   -1.9540   -8.0620   76.2450 C   0  0  0  0  0  0
   -0.6870   -7.4600   76.1560 C   0  0  0  0  0  0
    0.0780   -7.6020   75.0170 C   0  0  0  0  0  0
    1.3820   -6.9690   74.8650 C   0  0  0  0  0  0
    2.0860   -6.7040   76.1370 N   0  0  0  0  0  0
    2.7120   -7.7020   76.7930 C   0  0  0  0  0  0
    2.7140   -8.8620   76.3270 O   0  0  0  0  0  0
    3.3760   -7.3890   78.0240 C   0  0  0  0  0  0
    3.4120   -6.0660   78.6030 C   0  0  0  0  0  0
    4.0950   -5.8440   79.8050 C   0  0  0  0  0  0
    4.8090   -6.8510   80.4110 C   0  0  0  0  0  0
    5.6850   -6.5460   81.9330 S   0  0  0  0  0  0
    4.5010   -6.4130   82.8380 O   0  0  0  0  0  0
    6.6690   -7.6680   82.0650 O   0  0  0  0  0  0
    6.3770   -5.1230   81.9760 N   0  0  0  0  0  0
    4.7970   -8.1450   79.8570 C   0  0  0  0  0  0
    4.1040   -8.3940   78.6760 C   0  0  0  0  0  0
   -0.7225   -0.1515   60.5114 H   0  0  0  0  0  0
   -1.1956    0.0433   62.2333 H   0  0  0  0  0  0
   -2.3558    0.4683   60.9295 H   0  0  0  0  0  0
   -2.4674   -1.9613   60.2367 H   0  0  0  0  0  0
   -1.3072   -2.3864   61.5405 H   0  0  0  0  0  0
   -2.4762   -4.2808   61.6313 H   0  0  0  0  0  0
   -4.7981   -0.6087   63.1177 H   0  0  0  0  0  0
   -7.0085   -0.2743   64.1874 H   0  0  0  0  0  0
   -8.3751   -2.1929   64.9000 H   0  0  0  0  0  0
   -7.3234   -5.7915   64.2594 H   0  0  0  0  0  0
  -11.0677   -5.7829   66.4896 H   0  0  0  0  0  0
  -10.1543  -10.3216   67.9032 H   0  0  0  0  0  0
   -8.1344  -11.7529   67.8181 H   0  0  0  0  0  0
   -6.0062  -10.8820   66.8613 H   0  0  0  0  0  0
   -5.9089   -7.3770   65.2190 H   0  0  0  0  0  0
   -2.0617   -9.0804   64.7237 H   0  0  0  0  0  0
    0.1689   -4.9601   64.0651 H   0  0  0  0  0  0
   -0.3160   -2.6553   64.7831 H   0  0  0  0  0  0
   -2.4733   -2.0392   65.8573 H   0  0  0  0  0  0
   -4.9127   -4.8029   66.9003 H   0  0  0  0  0  0
   -6.8824   -0.9370   67.0195 H   0  0  0  0  0  0
   -9.8192    0.7844   68.4050 H   0  0  0  0  0  0
   -8.1675    0.4322   67.7932 H   0  0  0  0  0  0
   -8.9254    0.0606   65.6055 H   0  0  0  0  0  0
   -9.0031    2.4797   66.4797 H   0  0  0  0  0  0
  -10.7404    2.2435   66.8708 H   0  0  0  0  0  0
  -10.1940    2.2217   65.1598 H   0  0  0  0  0  0
  -10.8961   -1.3194   65.9236 H   0  0  0  0  0  0
  -11.2709    0.0659   64.8433 H   0  0  0  0  0  0
  -11.8173    0.0877   66.5544 H   0  0  0  0  0  0
  -10.6593   -2.7088   69.2308 H   0  0  0  0  0  0
  -11.1414   -4.9707   70.2096 H   0  0  0  0  0  0
   -9.4068   -6.7295   70.1749 H   0  0  0  0  0  0
   -6.0295   -6.1158   68.4095 H   0  0  0  0  0  0
   -4.8876   -7.9424   68.9192 H   0  0  0  0  0  0
   -6.4766   -9.8640   70.7617 H   0  0  0  0  0  0
   -5.8752  -10.4688   69.1809 H   0  0  0  0  0  0
   -4.1887  -11.1846   70.5728 H   0  0  0  0  0  0
   -3.5431   -9.5728   70.1125 H   0  0  0  0  0  0
   -4.1629   -8.5979   72.1949 H   0  0  0  0  0  0
   -5.3093   -9.9262   72.5797 H   0  0  0  0  0  0
   -3.5507  -10.6183   73.8930 H   0  0  0  0  0  0
   -3.0300  -11.3760   72.3498 H   0  0  0  0  0  0
    0.2208   -8.5534   73.0945 H   0  0  0  0  0  0
   -3.4327   -9.2443   75.2064 H   0  0  0  0  0  0
   -2.5529   -7.9543   77.1493 H   0  0  0  0  0  0
   -0.3059   -6.8762   76.9939 H   0  0  0  0  0  0
    2.0372   -7.6184   74.2659 H   0  0  0  0  0  0
    1.2625   -6.0004   74.3576 H   0  0  0  0  0  0
    2.1019   -5.6867   76.5552 H   0  0  0  0  0  0
    2.9068   -5.2394   78.1035 H   0  0  0  0  0  0
    4.0602   -4.8576   80.2676 H   0  0  0  0  0  0
    6.8982   -4.9976   82.9365 H   0  0  0  0  0  0
    5.6120   -4.3399   81.8690 H   0  0  0  0  0  0
    5.3319   -8.9541   80.3543 H   0  0  0  0  0  0
    4.1279   -9.3958   78.2472 H   0  0  0  0  0  0
   -5.9282   -6.0630   63.4293 H   0  0  0  0  0  0
  1  2  1  0  0  0
  1 92  1  0  0  0
  1 93  1  0  0  0
  1 94  1  0  0  0
  2  3  1  0  0  0
  2 95  1  0  0  0
  2 96  1  0  0  0
  3  4  1  0  0  0
  4  5  2  0  0  0
  4 12  1  0  0  0
  5  6  1  0  0  0
  5 97  1  0  0  0
  6  7  1  0  0  0
  6 10  2  0  0  0
  7  8  1  0  0  0
  7  9  2  0  0  0
 10 11  1  0  0  0
 10148  1  0  0  0
 11 12  2  0  0  0
 11 16  1  0  0  0
 12 13  1  0  0  0
 13 14  2  0  0  0
 13 98  1  0  0  0
 14 15  1  0  0  0
 14 99  1  0  0  0
 15 16  2  0  0  0
 15100  1  0  0  0
 16 17  1  0  0  0
 17 18  1  0  0  0
 17101  1  0  0  0
 18 19  2  0  0  0
 18 20  1  0  0  0
 20 21  2  0  0  0
 20 24  1  0  0  0
 21 22  1  0  0  0
 21102  1  0  0  0
 22 23  1  0  0  0
 22 26  2  0  0  0
 24 25  2  0  0  0
 25 26  1  0  0  0
 25 30  1  0  0  0
 26 27  1  0  0  0
 27 28  2  0  0  0
 27103  1  0  0  0
 28 29  1  0  0  0
 28104  1  0  0  0
 29 30  2  0  0  0
 29105  1  0  0  0
 30 31  1  0  0  0
 31 32  1  0  0  0
 31106  1  0  0  0
 32 33  2  0  0  0
 32 34  1  0  0  0
 34 35  2  0  0  0
 34 38  1  0  0  0
 35 36  1  0  0  0
 35107  1  0  0  0
 36 37  1  0  0  0
 36 40  2  0  0  0
 38 39  2  0  0  0
 39 40  1  0  0  0
 39 44  1  0  0  0
 40 41  1  0  0  0
 41 42  2  0  0  0
 41108  1  0  0  0
 42 43  1  0  0  0
 42109  1  0  0  0
 43 44  2  0  0  0
 43110  1  0  0  0
 44 45  1  0  0  0
 45 46  1  0  0  0
 45111  1  0  0  0
 46 47  2  0  0  0
 46 48  1  0  0  0
 48 49  2  0  0  0
 48 56  1  0  0  0
 49 50  1  0  0  0
 49112  1  0  0  0
 50 51  1  0  0  0
 50 58  2  0  0  0
 51 52  1  0  0  0
 52 53  1  0  0  0
 52113  1  0  0  0
 52114  1  0  0  0
 53 54  1  0  0  0
 53 55  1  0  0  0
 53115  1  0  0  0
 54116  1  0  0  0
 54117  1  0  0  0
 54118  1  0  0  0
 55119  1  0  0  0
 55120  1  0  0  0
 55121  1  0  0  0
 56 57  2  0  0  0
 57 58  1  0  0  0
 57 62  1  0  0  0
 58 59  1  0  0  0
 59 60  2  0  0  0
 59122  1  0  0  0
 60 61  1  0  0  0
 60123  1  0  0  0
 61 62  2  0  0  0
 61124  1  0  0  0
 62 63  1  0  0  0
 63 64  1  0  0  0
 63125  1  0  0  0
 64 65  2  0  0  0
 64 66  1  0  0  0
 66 67  1  0  0  0
 66126  1  0  0  0
 67 68  1  0  0  0
 67127  1  0  0  0
 67128  1  0  0  0
 68 69  1  0  0  0
 68129  1  0  0  0
 68130  1  0  0  0
 69 70  1  0  0  0
 69131  1  0  0  0
 69132  1  0  0  0
 70 71  1  0  0  0
 70133  1  0  0  0
 70134  1  0  0  0
 71 72  1  0  0  0
 72 73  2  0  0  0
 72 74  1  0  0  0
 73 77  1  0  0  0
 73135  1  0  0  0
 74 75  2  0  0  0
 74136  1  0  0  0
 75 76  1  0  0  0
 75137  1  0  0  0
 76 77  2  0  0  0
 76138  1  0  0  0
 77 78  1  0  0  0
 78 79  1  0  0  0
 78139  1  0  0  0
 78140  1  0  0  0
 79 80  1  0  0  0
 79141  1  0  0  0
 80 81  2  0  0  0
 80 82  1  0  0  0
 82 83  2  0  0  0
 82 91  1  0  0  0
 83 84  1  0  0  0
 83142  1  0  0  0
 84 85  2  0  0  0
 84143  1  0  0  0
 85 86  1  0  0  0
 85 90  1  0  0  0
 86 87  2  0  0  0
 86 88  2  0  0  0
 86 89  1  0  0  0
 89144  1  0  0  0
 89145  1  0  0  0
 90 91  2  0  0  0
 90146  1  0  0  0
 91147  1  0  0  0
M  CHG  4   8  -1  10   1  23  -1  37  -1
M  END
> <s_m_source_file>
../4lp6_ligand.sdf

> <i_m_source_file_index>
1

> <s_epik_input>
W09IXUMoPU8pYyhuMSlbY0hdYyhPW0NIMl1bQ0gzXSljKGMxMilbY0hdW2NIXVtjSF1jMltOSF1DKD1PKWMobjMpW2NIXWMoW09IXSljKGMzNClbY0hdW2NIXVtjSF1jNFtOSF1DKD1PKWMobjUpW2NIXWMoW09IXSljKGM1NilbY0hdW2NIXVtjSF1jNltOSF1DKD1PKWMobjcpW2NIXWMoT1tDSDJdW0NIXShbQ0gzXSlbQ0gzXSljKGM3OClbY0hdW2NIXVtjSF1jOFtOSF1DKD1PKVtOSF1bQ0gyXVtDSDJdW0NIMl1bQ0gyXU9jOVtjSF1jKFtjSF1bY0hdW2NIXTkpW0NIMl1bTkhdQyg9TyljMVtjSF1bY0hdYyhTKD1PKSg9TylbTkgyXSlbY0hdW2NIXTE=

> <s_epik_cmdline>
J2VwaWtfYXBwJywgJy1pbWFlJywgJ2xpZ2FuZF9wcm8ubWFlJywgJy1vbWFlJywgJ2xpZ2FuZF9wcmVwLm1hZScsICctbXMnLCAnMScsICctcGgnLCAnNycsICctcGh0JywgJzAuNScsICctbnQn

> <r_lp_tautomer_probability>
1

> <r_epik_Ionization_Penalty>
  0.5641

> <r_epik_Ionization_Penalty_Charging>
  0.3665

> <r_epik_Ionization_Penalty_Neutral>
  0.1976

> <r_epik_State_Penalty>
 -0.0000

> <r_epik_Charging_Adjusted_Penalty>
0.366531834091409

> <i_epik_Tot_Q>
-2

> <i_epik_Tot_abs_Q>
4

$$$$
