4lp9_ligand
                    3D
 Schrodinger Suite 2020-3.
139143  0  0  1  0            999 V2000
   34.5310   -2.9500   -9.1980 N   0  3  0  0  0  0
   34.6860   -4.2750   -8.5290 C   0  0  2  0  0  0
   33.6400   -4.4990   -7.4470 C   0  0  0  0  0  0
   33.0840   -3.5450   -6.8130 O   0  0  0  0  0  0
   36.1040   -4.4510   -7.9140 C   0  0  0  0  0  0
   36.6970   -3.1930   -7.4400 O   0  0  0  0  0  0
   33.4550   -5.7830   -7.1650 N   0  0  0  0  0  0
   32.6980   -6.1890   -5.9660 C   0  0  2  0  0  0
   33.6920   -6.4220   -4.8010 C   0  0  0  0  0  0
   34.8690   -6.6820   -5.0060 O   0  0  0  0  0  0
   31.8990   -7.4640   -6.2250 C   0  0  0  0  0  0
   30.8990   -7.3180   -7.3650 C   0  0  0  0  0  0
   30.4510   -8.6760   -7.7740 C   0  0  0  0  0  0
   29.7690   -6.4660   -6.9310 C   0  0  0  0  0  0
   33.2010   -6.3090   -3.5960 N   0  0  0  0  0  0
   33.9980   -6.4730   -2.4060 C   0  0  2  0  0  0
   33.5480   -7.6430   -1.5730 C   0  0  0  0  0  0
   32.3380   -7.9600   -1.5410 O   0  0  0  0  0  0
   33.8640   -5.1790   -1.5770 C   0  0  0  0  0  0
   34.5100   -3.9560   -2.2410 C   0  0  0  0  0  0
   33.8950   -3.2850   -3.2480 C   0  0  0  0  0  0
   35.7030   -3.5180   -1.8640 C   0  0  0  0  0  0
   34.4750   -2.2210   -3.8560 C   0  0  0  0  0  0
   36.2950   -2.4180   -2.4500 C   0  0  0  0  0  0
   35.7020   -1.8190   -3.5110 C   0  0  0  0  0  0
   34.4430   -8.2250   -0.8050 N   0  0  0  0  0  0
   34.2350   -9.4770   -0.1260 C   0  0  2  0  0  0
   34.9150   -9.4370    1.2250 C   0  0  0  0  0  0
   35.5820  -10.3980    1.6300 O   0  0  0  0  0  0
   34.7740  -10.5940   -0.9750 C   0  0  0  0  0  0
   34.2200  -10.6240   -2.3420 C   0  0  0  0  0  0
   34.7880   -9.9610   -3.4260 N   0  0  0  0  0  0
   33.0830  -11.1800   -2.7940 C   0  0  0  0  0  0
   34.0480  -10.1750   -4.5000 C   0  0  0  0  0  0
   33.0210  -10.9230   -4.1430 N   0  0  0  0  0  0
   33.6490  -12.8390    3.3930 C   0  0  0  0  0  0
   33.8260  -13.7600    2.3380 C   0  0  0  0  0  0
   34.4770  -14.9200    2.6000 C   0  0  0  0  0  0
   34.6310  -15.8690    1.6610 O   0  0  0  0  0  0
   34.9430  -15.1900    3.9060 C   0  0  0  0  0  0
   34.8010  -14.2350    4.9170 C   0  0  0  0  0  0
   34.1060  -13.0750    4.6360 C   0  0  0  0  0  0
   33.9970  -12.0660    5.7230 C   0  0  0  0  0  0
   35.0030  -10.8780    5.5170 C   0  0  1  0  0  0
   36.4190  -11.3750    5.2770 C   0  0  0  0  0  0
   36.9620  -11.3540    4.2290 O   0  0  0  0  0  0
   34.5950  -10.0830    4.3910 N   0  0  1  0  0  0
   35.0400   -8.6530    4.4770 C   0  0  0  0  0  0
   35.7630   -8.1220    3.2070 C   0  0  1  0  0  0
   34.9100   -8.2970    2.0070 N   0  0  0  0  0  0
   36.0820   -6.6880    3.3890 C   0  0  0  0  0  0
   36.7550   -5.9630    2.3080 C   0  0  0  0  0  0
   36.4770   -4.6110    2.1030 C   0  0  0  0  0  0
   37.1470   -3.9210    1.1240 C   0  0  0  0  0  0
   38.1770   -4.4810    0.3680 C   0  0  0  0  0  0
   38.4880   -5.8230    0.5750 C   0  0  0  0  0  0
   37.7910   -6.5170    1.5870 C   0  0  0  0  0  0
   37.0220  -11.7590    6.5340 N   0  0  0  0  0  0
   38.3000  -12.4720    6.4670 C   0  0  2  0  0  0
   38.0400  -13.9310    6.7530 C   0  0  0  0  0  0
   37.5230  -14.2760    7.8040 O   0  0  0  0  0  0
   39.3300  -11.8260    7.4060 C   0  0  2  0  0  0
   40.5910  -12.4950    7.2790 O   0  0  0  0  0  0
   38.9030  -11.8190    8.8500 C   0  0  0  0  0  0
   38.3930  -14.7930    5.7960 N   0  0  0  0  0  0
   38.0770  -16.1890    5.9300 C   0  0  2  0  0  0
   38.8860  -16.8850    6.9770 C   0  0  0  0  0  0
   38.4980  -17.8900    7.6340 O   0  5  0  0  0  0
   38.4520  -16.8040    4.5680 C   0  0  0  0  0  0
   39.0030  -15.7610    3.7370 C   0  0  0  0  0  0
   38.8480  -14.4400    4.4430 C   0  0  0  0  0  0
   40.0270  -16.4530    7.1270 O   0  0  0  0  0  0
   33.5175   -2.8675   -9.6176 H   0  0  0  0  0  0
   35.2712   -2.8587  -10.0066 H   0  0  0  0  0  0
   34.6900   -2.1473   -8.4629 H   0  0  0  0  0  0
   34.5155   -5.0019   -9.3368 H   0  0  0  0  0  0
   36.0482   -5.1338   -7.0534 H   0  0  0  0  0  0
   36.7827   -4.8704   -8.6713 H   0  0  0  0  0  0
   37.6987   -3.1941   -6.9855 H   0  0  0  0  0  0
   33.8731   -6.5474   -7.8364 H   0  0  0  0  0  0
   31.9930   -5.3730   -5.7490 H   0  0  0  0  0  0
   32.5873   -8.2812   -6.4867 H   0  0  0  0  0  0
   31.3363   -7.7344   -5.3193 H   0  0  0  0  0  0
   31.3360   -6.8250   -8.2459 H   0  0  0  0  0  0
   31.3219   -9.2705   -8.0872 H   0  0  0  0  0  0
   29.7438   -8.5918   -8.6123 H   0  0  0  0  0  0
   29.9560   -9.1700   -6.9249 H   0  0  0  0  0  0
   30.1477   -5.4753   -6.6392 H   0  0  0  0  0  0
   29.2659   -6.9339   -6.0720 H   0  0  0  0  0  0
   29.0537   -6.3557   -7.7594 H   0  0  0  0  0  0
   32.1288   -6.0780   -3.5123 H   0  0  0  0  0  0
   35.0192   -6.6860   -2.7550 H   0  0  0  0  0  0
   32.7990   -4.9479   -1.4276 H   0  0  0  0  0  0
   34.3497   -5.3176   -0.5998 H   0  0  0  0  0  0
   32.9080   -3.6104   -3.5768 H   0  0  0  0  0  0
   36.2317   -4.0421   -1.0679 H   0  0  0  0  0  0
   33.9335   -1.6864   -4.6364 H   0  0  0  0  0  0
   37.2370   -2.0320   -2.0606 H   0  0  0  0  0  0
   36.2111   -1.0319   -4.0672 H   0  0  0  0  0  0
   35.3999   -7.6932   -0.6972 H   0  0  0  0  0  0
   33.1514   -9.6099    0.0084 H   0  0  0  0  0  0
   35.5119  -11.3482   -0.6639 H   0  0  0  0  0  0
   32.2785  -11.7489   -2.3049 H   0  0  0  0  0  0
   34.2502   -9.8000   -5.5033 H   0  0  0  0  0  0
   33.1241  -11.9047    3.1937 H   0  0  0  0  0  0
   33.4489  -13.5441    1.3383 H   0  0  0  0  0  0
   34.2787  -15.6894    0.6345 H   0  0  0  0  0  0
   35.4154  -16.1473    4.1264 H   0  0  0  0  0  0
   35.2293  -14.4022    5.9053 H   0  0  0  0  0  0
   32.9765  -11.6558    5.7415 H   0  0  0  0  0  0
   34.2181  -12.5427    6.6894 H   0  0  0  0  0  0
   35.0015  -10.2084    6.3897 H   0  0  0  0  0  0
   35.0215  -10.5062    3.4696 H   0  0  0  0  0  0
   34.1654   -8.0060    4.6397 H   0  0  0  0  0  0
   35.7426   -8.5374    5.3154 H   0  0  0  0  0  0
   36.7009   -8.6652    3.0190 H   0  0  0  0  0  0
   34.2256   -7.4937    1.6968 H   0  0  0  0  0  0
   35.1529   -6.1245    3.5598 H   0  0  0  0  0  0
   36.7484   -6.5677    4.2559 H   0  0  0  0  0  0
   35.7317   -4.1056    2.7172 H   0  0  0  0  0  0
   36.8611   -2.8876    0.9281 H   0  0  0  0  0  0
   38.7229   -3.8855   -0.3638 H   0  0  0  0  0  0
   39.2473   -6.3223   -0.0269 H   0  0  0  0  0  0
   38.0866   -7.5423    1.8096 H   0  0  0  0  0  0
   36.5653  -11.5394    7.5103 H   0  0  0  0  0  0
   38.7015  -12.3930    5.4459 H   0  0  0  0  0  0
   39.4867  -10.7800    7.1037 H   0  0  0  0  0  0
   41.0621  -12.5975    6.2903 H   0  0  0  0  0  0
   37.9351  -11.3049    8.9436 H   0  0  0  0  0  0
   39.6576  -11.2927    9.4529 H   0  0  0  0  0  0
   38.8044  -12.8544    9.2082 H   0  0  0  0  0  0
   37.0247  -16.2486    6.2450 H   0  0  0  0  0  0
   39.1962  -17.6001    4.7176 H   0  0  0  0  0  0
   37.5526  -17.2268    4.0964 H   0  0  0  0  0  0
   40.0691  -15.9620    3.5550 H   0  0  0  0  0  0
   38.4659  -15.7345    2.7774 H   0  0  0  0  0  0
   38.0944  -13.8026    3.9574 H   0  0  0  0  0  0
   39.8019  -13.8960    4.5072 H   0  0  0  0  0  0
   35.7115   -9.3786   -3.2921 H   0  0  0  0  0  0
  1  2  1  0  0  0
  1 73  1  0  0  0
  1 74  1  0  0  0
  1 75  1  0  0  0
  2  3  1  0  0  0
  2  5  1  0  0  0
  2 76  1  0  0  0
  3  4  2  0  0  0
  3  7  1  0  0  0
  5  6  1  0  0  0
  5 77  1  0  0  0
  5 78  1  0  0  0
  6 79  1  0  0  0
  7  8  1  0  0  0
  7 80  1  0  0  0
  8  9  1  0  0  0
  8 11  1  0  0  0
  8 81  1  0  0  0
  9 10  2  0  0  0
  9 15  1  0  0  0
 11 12  1  0  0  0
 11 82  1  0  0  0
 11 83  1  0  0  0
 12 13  1  0  0  0
 12 14  1  0  0  0
 12 84  1  0  0  0
 13 85  1  0  0  0
 13 86  1  0  0  0
 13 87  1  0  0  0
 14 88  1  0  0  0
 14 89  1  0  0  0
 14 90  1  0  0  0
 15 16  1  0  0  0
 15 91  1  0  0  0
 16 17  1  0  0  0
 16 19  1  0  0  0
 16 92  1  0  0  0
 17 18  2  0  0  0
 17 26  1  0  0  0
 19 20  1  0  0  0
 19 93  1  0  0  0
 19 94  1  0  0  0
 20 21  2  0  0  0
 20 22  1  0  0  0
 21 23  1  0  0  0
 21 95  1  0  0  0
 22 24  2  0  0  0
 22 96  1  0  0  0
 23 25  2  0  0  0
 23 97  1  0  0  0
 24 25  1  0  0  0
 24 98  1  0  0  0
 25 99  1  0  0  0
 26 27  1  0  0  0
 26100  1  0  0  0
 27 28  1  0  0  0
 27 30  1  0  0  0
 27101  1  0  0  0
 28 29  2  0  0  0
 28 50  1  0  0  0
 30 31  2  0  0  0
 30102  1  0  0  0
 31 32  1  0  0  0
 31 33  1  0  0  0
 32 34  1  0  0  0
 32139  1  0  0  0
 33 35  2  0  0  0
 33103  1  0  0  0
 34 35  1  0  0  0
 34104  1  0  0  0
 36 37  2  0  0  0
 36 42  1  0  0  0
 36105  1  0  0  0
 37 38  1  0  0  0
 37106  1  0  0  0
 38 39  1  0  0  0
 38 40  2  0  0  0
 39107  1  0  0  0
 40 41  1  0  0  0
 40108  1  0  0  0
 41 42  2  0  0  0
 41109  1  0  0  0
 42 43  1  0  0  0
 43 44  1  0  0  0
 43110  1  0  0  0
 43111  1  0  0  0
 44 45  1  0  0  0
 44 47  1  0  0  0
 44112  1  0  0  0
 45 46  2  0  0  0
 45 58  1  0  0  0
 47 48  1  0  0  0
 47113  1  0  0  0
 48 49  1  0  0  0
 48114  1  0  0  0
 48115  1  0  0  0
 49 50  1  0  0  0
 49 51  1  0  0  0
 49116  1  0  0  0
 50117  1  0  0  0
 51 52  1  0  0  0
 51118  1  0  0  0
 51119  1  0  0  0
 52 53  2  0  0  0
 52 57  1  0  0  0
 53 54  1  0  0  0
 53120  1  0  0  0
 54 55  2  0  0  0
 54121  1  0  0  0
 55 56  1  0  0  0
 55122  1  0  0  0
 56 57  2  0  0  0
 56123  1  0  0  0
 57124  1  0  0  0
 58 59  1  0  0  0
 58125  1  0  0  0
 59 60  1  0  0  0
 59 62  1  0  0  0
 59126  1  0  0  0
 60 61  2  0  0  0
 60 65  1  0  0  0
 62 63  1  0  0  0
 62 64  1  0  0  0
 62127  1  0  0  0
 63128  1  0  0  0
 64129  1  0  0  0
 64130  1  0  0  0
 64131  1  0  0  0
 65 66  1  0  0  0
 65 71  1  0  0  0
 66 67  1  0  0  0
 66 69  1  0  0  0
 66132  1  0  0  0
 67 68  1  0  0  0
 67 72  2  0  0  0
 69 70  1  0  0  0
 69133  1  0  0  0
 69134  1  0  0  0
 70 71  1  0  0  0
 70135  1  0  0  0
 70136  1  0  0  0
 71137  1  0  0  0
 71138  1  0  0  0
M  CHG  2   1   1  68  -1
M  END
> <s_m_source_file>
../4lp9_ligand.sdf

> <i_m_source_file_index>
1

> <s_epik_input>
W09IXVtDSDJdW0NASF0oW05IMytdKUMoPU8pW05IXVtDQEBIXShbQ0gyXVtDSF0oW0NIM10pW0NIM10pQyg9TylbTkhdW0NAQEhdKFtDSDJdYzFbY0hdW2NIXVtjSF1bY0hdW2NIXTEpQyg9TylbTkhdW0NAQEhdKFtDSDJdQzI9TltDSDJdTj1bQ0hdMilDKD1PKVtOSF1bQ0BASF0oW0NIMl1jM1tjSF1bY0hdW2NIXVtjSF1bY0hdMylbQ0gyXVtOSDIrXVtDQEBIXShbQ0gyXWMoW2NIXVtjSF00KVtjSF1bY0hdYzRbT0hdKUMoPU8pW05IXVtDQEBIXShbQ0BIXShbT0hdKVtDSDNdKUMoPU8pTjVbQ0BIXShDKD1PKVtPSF0pW0NIMl1bQ0gyXVtDSDJdNQ==

> <s_epik_cmdline>
J2VwaWtfYXBwJywgJy1pbWFlJywgJ2xpZ2FuZF9wcm8ubWFlJywgJy1vbWFlJywgJ2xpZ2FuZF9wcmVwLm1hZScsICctbXMnLCAnMScsICctcGgnLCAnNycsICctcGh0JywgJzAuNScsICctbnQn

> <r_epik_Ionization_Penalty>
  0.5104

> <r_epik_Ionization_Penalty_Charging>
  0.1458

> <r_epik_Ionization_Penalty_Neutral>
  0.3646

> <r_epik_State_Penalty>
  0.4381

> <r_epik_Charging_Adjusted_Penalty>
0.583870595405025

> <i_epik_Tot_Q>
0

> <i_epik_Tot_abs_Q>
2

> <s_epik_Chemistry_Notes>
This compound has an imine and may undergo hydrolysis.

$$$$
