4lpb_ligand
                    3D
 Schrodinger Suite 2020-3.
 47 50  0  0  1  0            999 V2000
   19.6010   34.0510    1.5870 C   0  0  0  0  0  0
   19.2610   32.6090    1.8730 C   0  0  0  0  0  0
   17.6430   31.6090    3.4390 C   0  0  0  0  0  0
   10.0690   30.7420   11.8670 N   0  0  0  0  0  0
   14.1030   29.7140    6.6280 C   0  0  0  0  0  0
   13.7880   30.9600    6.1390 C   0  0  0  0  0  0
   13.1270   29.0650    7.4790 C   0  0  0  0  0  0
   12.5200   29.6980    8.5450 C   0  0  0  0  0  0
   11.5660   28.9910    9.2460 C   0  0  0  0  0  0
   11.2460   27.7040    8.8890 C   0  0  0  0  0  0
   12.7150   27.7780    7.1950 C   0  0  0  0  0  0
   10.8500   29.5990   10.3640 C   0  0  1  0  0  0
    9.3230   29.5900   11.8150 C   0  0  0  0  0  0
   15.7550   27.8670    6.6700 C   0  0  0  0  0  0
   15.8150   25.3410    9.2040 C   0  0  0  0  0  0
   17.9480   32.5250    2.4600 N   0  0  0  0  0  0
   18.3630   30.6740    3.7560 O   0  0  0  0  0  0
   16.4210   31.9120    3.9980 N   0  0  0  0  0  0
   15.6670   31.1290    4.8940 C   0  0  0  0  0  0
   16.0860   29.8860    5.3250 C   0  0  0  0  0  0
   15.3040   29.1650    6.2090 C   0  0  0  0  0  0
   14.5270   31.6860    5.3010 N   0  0  0  0  0  0
   11.8070   27.0620    7.8650 N   0  0  0  0  0  0
   11.0390   30.7380   10.9290 N   0  0  0  0  0  0
    8.3720   29.2820   12.5180 O   0  0  0  0  0  0
    9.8370   28.8250   10.8210 O   0  0  0  0  0  0
   15.4730   27.3370    7.8410 N   0  0  0  0  0  0
   16.0380   26.0940    7.9640 C   0  0  0  0  0  0
   16.7600   25.6760    6.8710 C   0  0  0  0  0  0
   16.7330   26.8850    5.6560 S   0  0  0  0  0  0
   16.4440   24.1360    9.1800 F   0  0  0  0  0  0
   16.2360   26.0140   10.3050 F   0  0  0  0  0  0
   14.4910   25.0940    9.3810 F   0  0  0  0  0  0
   20.6040   34.1093    1.1391 H   0  0  0  0  0  0
   19.5845   34.6247    2.5254 H   0  0  0  0  0  0
   18.8623   34.4702    0.8880 H   0  0  0  0  0  0
   19.2775   32.0353    0.9346 H   0  0  0  0  0  0
   19.9997   32.1898    2.5720 H   0  0  0  0  0  0
   12.8443   31.3950    6.4681 H   0  0  0  0  0  0
   12.7849   30.7183    8.8222 H   0  0  0  0  0  0
   10.4919   27.1791    9.4754 H   0  0  0  0  0  0
   13.1788   27.2957    6.3345 H   0  0  0  0  0  0
   11.5542   29.1326   11.0686 H   0  0  0  0  0  0
   17.1519   33.2071    2.1269 H   0  0  0  0  0  0
   15.9253   32.8632    3.7541 H   0  0  0  0  0  0
   17.0305   29.4741    4.9695 H   0  0  0  0  0  0
   17.2734   24.7180    6.7892 H   0  0  0  0  0  0
  1  2  1  0  0  0
  1 34  1  0  0  0
  1 35  1  0  0  0
  1 36  1  0  0  0
  2 16  1  0  0  0
  2 37  1  0  0  0
  2 38  1  0  0  0
  3 16  1  0  0  0
  3 17  2  0  0  0
  3 18  1  0  0  0
  4 13  1  0  0  0
  4 24  2  0  0  0
  5  6  2  0  0  0
  5  7  1  0  0  0
  5 21  1  0  0  0
  6 22  1  0  0  0
  6 39  1  0  0  0
  7  8  2  0  0  0
  7 11  1  0  0  0
  8  9  1  0  0  0
  8 40  1  0  0  0
  9 10  2  0  0  0
  9 12  1  0  0  0
 10 23  1  0  0  0
 10 41  1  0  0  0
 11 23  2  0  0  0
 11 42  1  0  0  0
 12 24  1  0  0  0
 12 26  1  0  0  0
 12 43  1  0  0  0
 13 25  2  0  0  0
 13 26  1  0  0  0
 14 21  1  0  0  0
 14 27  2  0  0  0
 14 30  1  0  0  0
 15 28  1  0  0  0
 15 31  1  0  0  0
 15 32  1  0  0  0
 15 33  1  0  0  0
 16 44  1  0  0  0
 18 19  1  0  0  0
 18 45  1  0  0  0
 19 20  1  0  0  0
 19 22  2  0  0  0
 20 21  2  0  0  0
 20 46  1  0  0  0
 27 28  1  0  0  0
 28 29  2  0  0  0
 29 30  1  0  0  0
 29 47  1  0  0  0
M  END
> <s_m_source_file>
../4lpb_ligand.sdf

> <i_m_source_file_index>
1

> <s_epik_input>
czFbY0hdYyhDKEYpKEYpRiluYzEtYzJbY0hdYyhbTkhdQyg9TylbTkhdW0NIMl1bQ0gzXSluW2NIXWMyLWMzW2NIXWMoW2NIXW5bY0hdMylbQ0hdNE49TkMoPU8pTzQ=

> <s_epik_cmdline>
J2VwaWtfYXBwJywgJy1pbWFlJywgJ2xpZ2FuZF9wcm8ubWFlJywgJy1vbWFlJywgJ2xpZ2FuZF9wcmVwLm1hZScsICctbXMnLCAnMScsICctcGgnLCAnNycsICctcGh0JywgJzAuNScsICctbnQn

> <r_lp_tautomer_probability>
1

> <r_epik_Ionization_Penalty>
  0.0004

> <r_epik_Ionization_Penalty_Charging>
  0.0000

> <r_epik_Ionization_Penalty_Neutral>
  0.0004

> <r_epik_State_Penalty>
 -0.0000

> <r_epik_Charging_Adjusted_Penalty>
0

> <i_epik_Tot_Q>
0

> <i_epik_Tot_abs_Q>
0

> <s_epik_Chemistry_Notes>
This compound has an ester and may undergo hydrolysis at high or low pH. This compound contains an acetal/aminal-like group ( X-CH(R)-Y where X, Y are N, S, or O) that may be acid/base labile, releasing an aldehyde.

$$$$
