4lph_ligand
                    3D
 Schrodinger Suite 2020-3.
 35 37  0  0  1  0            999 V2000
    9.4640   71.5080   26.8230 O   0  5  0  0  0  0
    8.1020   71.9090   25.9810 P   0  0  0  0  0  0
    7.6670   73.3090   26.4040 O   0  0  0  0  0  0
    8.2080   71.5190   24.5460 O   0  0  0  0  0  0
    6.9960   70.7540   26.5990 C   0  0  0  0  0  0
    6.3720   71.5650   27.6570 N   0  0  0  0  0  0
    5.1220   71.3740   27.9910 C   0  0  0  0  0  0
    4.7410   70.0950   28.1780 N   0  0  0  0  0  0
    3.4360   69.8210   28.5490 C   0  0  0  0  0  0
    2.5990   70.9200   28.6980 N   0  0  0  0  0  0
    3.0600   72.1780   28.4940 C   0  0  0  0  0  0
    2.2850   73.5430   28.6340 S   0  0  0  0  0  0
    4.3280   72.4640   28.1280 C   0  0  0  0  0  0
    4.5830   73.8320   27.9770 C   0  0  0  0  0  0
    3.5170   74.6600   28.2220 C   0  0  0  0  0  0
    3.3550   76.0570   28.1690 C   0  0  0  0  0  0
    4.3920   77.0300   28.2180 C   0  0  0  0  0  0
    4.1380   78.4170   28.1240 C   0  0  0  0  0  0
    2.8400   78.9150   28.0190 C   0  0  0  0  0  0
    2.5660   80.3080   27.9670 C   0  0  0  0  0  0
    1.8030   77.9870   27.9740 C   0  0  0  0  0  0
    2.0640   76.6130   28.0670 C   0  0  0  0  0  0
    8.2586   74.1846   26.0984 H   0  0  0  0  0  0
    6.3060   70.4433   25.8006 H   0  0  0  0  0  0
    7.5490   69.8774   26.9675 H   0  0  0  0  0  0
    6.9577   72.3394   28.1740 H   0  0  0  0  0  0
    3.0853   68.8023   28.7146 H   0  0  0  0  0  0
    5.5614   74.2133   27.6848 H   0  0  0  0  0  0
    5.4221   76.6926   28.3325 H   0  0  0  0  0  0
    4.9763   79.1136   28.1338 H   0  0  0  0  0  0
    3.5107   80.8695   28.0149 H   0  0  0  0  0  0
    1.9291   80.5884   28.8189 H   0  0  0  0  0  0
    2.0461   80.5446   27.0269 H   0  0  0  0  0  0
    0.7753   78.3334   27.8651 H   0  0  0  0  0  0
    1.2139   75.9308   28.0600 H   0  0  0  0  0  0
  1  2  1  0  0  0
  2  3  1  0  0  0
  2  4  2  0  0  0
  2  5  1  0  0  0
  3 23  1  0  0  0
  5  6  1  0  0  0
  5 24  1  0  0  0
  5 25  1  0  0  0
  6  7  1  0  0  0
  6 26  1  0  0  0
  7  8  1  0  0  0
  7 13  2  0  0  0
  8  9  2  0  0  0
  9 10  1  0  0  0
  9 27  1  0  0  0
 10 11  2  0  0  0
 11 12  1  0  0  0
 11 13  1  0  0  0
 12 15  1  0  0  0
 13 14  1  0  0  0
 14 15  2  0  0  0
 14 28  1  0  0  0
 15 16  1  0  0  0
 16 17  2  0  0  0
 16 22  1  0  0  0
 17 18  1  0  0  0
 17 29  1  0  0  0
 18 19  2  0  0  0
 18 30  1  0  0  0
 19 20  1  0  0  0
 19 21  1  0  0  0
 20 31  1  0  0  0
 20 32  1  0  0  0
 20 33  1  0  0  0
 21 22  2  0  0  0
 21 34  1  0  0  0
 22 35  1  0  0  0
M  CHG  1   1  -1
M  END
> <s_m_source_file>
../4lph_ligand.sdf

> <i_m_source_file_index>
1

> <s_epik_input>
W09IXVAoPU8pKFtPSF0pW0NIMl1bTkhdYyhuW2NIXW4xKWMoYzEyKVtjSF1jKHMyKS1jM1tjSF1bY0hdYyhbQ0gzXSlbY0hdW2NIXTM=

> <s_epik_cmdline>
J2VwaWtfYXBwJywgJy1pbWFlJywgJ2xpZ2FuZF9wcm8ubWFlJywgJy1vbWFlJywgJ2xpZ2FuZF9wcmVwLm1hZScsICctbXMnLCAnMScsICctcGgnLCAnNycsICctcGh0JywgJzAuNScsICctbnQn

> <r_epik_Ionization_Penalty>
  0.0919

> <r_epik_Ionization_Penalty_Charging>
  0.0000

> <r_epik_Ionization_Penalty_Neutral>
  0.0918

> <r_epik_State_Penalty>
  0.0818

> <r_epik_Charging_Adjusted_Penalty>
0.0818589907795139

> <i_epik_Tot_Q>
-1

> <i_epik_Tot_abs_Q>
1

$$$$
