4lps_ligand
                    3D
 Schrodinger Suite 2020-3.
 40 42  0  0  1  0            999 V2000
   12.1290   -6.1360   -1.3140 P   0  0  0  0  0  0
   11.4880   -7.5010   -1.3330 O   0  5  0  0  0  0
   12.9230   -5.9070   -2.5750 O   0  0  0  0  0  0
   13.0710   -6.0140   -0.1420 O   0  5  0  0  0  0
   10.9910   -5.0150   -1.1590 O   0  0  0  0  0  0
    9.9660   -4.6240   -2.3400 P   0  0  1  0  0  0
   10.5580   -3.5370   -3.1990 O   0  0  0  0  0  0
    9.5700   -5.8200   -3.1670 O   0  5  0  0  0  0
    8.7310   -4.0250   -1.5190 O   0  0  0  0  0  0
    7.7700   -4.8900   -0.9180 C   0  0  0  0  0  0
    6.4770   -4.1130   -0.7210 C   0  0  1  0  0  0
    6.7360   -2.9360    0.0460 O   0  0  0  0  0  0
    5.9200   -3.6460   -2.0530 C   0  0  1  0  0  0
    4.4980   -3.7960   -2.0090 O   0  0  0  0  0  0
    6.2490   -2.1730   -2.1260 C   0  0  1  0  0  0
    5.2320   -1.4650   -2.8330 O   0  0  0  0  0  0
    6.2590   -1.7860   -0.6600 C   0  0  2  0  0  0
    7.1460   -0.6380   -0.3680 N   0  0  0  0  0  0
    8.4300   -0.4620   -0.7350 C   0  0  0  0  0  0
    8.9070    0.7110   -0.2480 N   0  0  0  0  0  0
    7.9180    1.2960    0.4580 C   0  0  0  0  0  0
    7.7360    2.5420    1.2400 C   0  0  0  0  0  0
    8.6650    3.3660    1.3600 O   0  0  0  0  0  0
    6.5470    2.7610    1.8160 N   0  3  0  0  0  0
    5.5270    1.8890    1.7020 C   0  0  0  0  0  0
    4.3480    2.1680    2.3070 N   0  0  0  0  0  0
    5.6220    0.7310    1.0050 N   0  0  0  0  0  0
    6.7680    0.3940    0.3780 C   0  0  0  0  0  0
    7.5923   -5.7538   -1.5755 H   0  0  0  0  0  0
    8.1489   -5.2405    0.0534 H   0  0  0  0  0  0
    5.7588   -4.7388   -0.1710 H   0  0  0  0  0  0
    6.2776   -4.2172   -2.9224 H   0  0  0  0  0  0
    4.0523   -4.8001   -1.9534 H   0  0  0  0  0  0
    7.1569   -1.9161   -2.6914 H   0  0  0  0  0  0
    5.0929   -1.6331   -3.9111 H   0  0  0  0  0  0
    5.2557   -1.4977   -0.3132 H   0  0  0  0  0  0
    9.0053   -1.1638   -1.3388 H   0  0  0  0  0  0
    4.2316    3.0984    2.8822 H   0  0  0  0  0  0
    3.5068    1.4642    2.2233 H   0  0  0  0  0  0
    6.3808    3.6758    2.4038 H   0  0  0  0  0  0
  1  2  1  0  0  0
  1  3  2  0  0  0
  1  4  1  0  0  0
  1  5  1  0  0  0
  5  6  1  0  0  0
  6  7  2  0  0  0
  6  8  1  0  0  0
  6  9  1  0  0  0
  9 10  1  0  0  0
 10 11  1  0  0  0
 10 29  1  0  0  0
 10 30  1  0  0  0
 11 12  1  0  0  0
 11 13  1  0  0  0
 11 31  1  0  0  0
 12 17  1  0  0  0
 13 14  1  0  0  0
 13 15  1  0  0  0
 13 32  1  0  0  0
 14 33  1  0  0  0
 15 16  1  0  0  0
 15 17  1  0  0  0
 15 34  1  0  0  0
 16 35  1  0  0  0
 17 18  1  0  0  0
 17 36  1  0  0  0
 18 19  1  0  0  0
 18 28  1  0  0  0
 19 20  2  0  0  0
 19 37  1  0  0  0
 20 21  1  0  0  0
 21 22  1  0  0  0
 21 28  2  0  0  0
 22 23  2  0  0  0
 22 24  1  0  0  0
 24 25  1  0  0  0
 24 40  1  0  0  0
 25 26  1  0  0  0
 25 27  2  0  0  0
 26 38  1  0  0  0
 26 39  1  0  0  0
 27 28  1  0  0  0
M  CHG  4   2  -1   4  -1   8  -1  24   1
M  END
> <s_m_source_file>
../4lps_ligand.sdf

> <i_m_source_file_index>
1

> <s_epik_input>
W09IXVAoPU8pKFtPSF0pT1tQQEBdKD1PKShbT0hdKU9bQ0gyXVtDQEhdMU9bQ0BIXShbQ0BIXShbT0hdKVtDQEBIXTFbT0hdKW4oW2NIXW4yKWMoYzIzKVtuSF1jKD1OXFtIXSlcW25IXWMzPU8=

> <s_epik_cmdline>
J2VwaWtfYXBwJywgJy1pbWFlJywgJ2xpZ2FuZF9wcm8ubWFlJywgJy1vbWFlJywgJ2xpZ2FuZF9wcmVwLm1hZScsICctbXMnLCAnMScsICctcGgnLCAnNycsICctcGh0JywgJzAuNScsICctbnQn

> <r_epik_Ionization_Penalty>
  2.4918

> <r_epik_Ionization_Penalty_Charging>
  2.4918

> <r_epik_Ionization_Penalty_Neutral>
  0.0000

> <r_epik_State_Penalty>
  0.1302

> <r_epik_Charging_Adjusted_Penalty>
2.62193179535438

> <i_epik_Tot_Q>
-2

> <i_epik_Tot_abs_Q>
4

> <s_epik_Chemistry_Notes>
This compound has an imine and may undergo hydrolysis. This compound contains an acetal/aminal-like group ( X-CH(R)-Y where X, Y are N, S, or O) that may be acid/base labile, releasing an aldehyde.

$$$$
