4lqy_ligand
                    3D
 Schrodinger Suite 2020-3.
 35 37  0  0  1  0            999 V2000
  -28.1090  141.1530   20.0090 P   0  0  0  0  0  0
  -27.5480  141.1140   21.4290 O   0  5  0  0  0  0
  -28.4390  139.8080   19.3860 O   0  0  0  0  0  0
  -27.4410  142.0370   18.9500 O   0  5  0  0  0  0
  -29.5420  141.8180   20.1650 O   0  0  0  0  0  0
  -30.3560  142.0740   19.0240 C   0  0  0  0  0  0
  -31.5490  141.1480   18.9860 C   0  0  1  0  0  0
  -32.7710  141.8890   18.7900 O   0  0  0  0  0  0
  -31.5850  140.1330   17.8570 C   0  0  1  0  0  0
  -30.6700  139.0610   18.0300 O   0  0  0  0  0  0
  -33.0650  139.7250   17.8180 C   0  0  1  0  0  0
  -33.3620  138.7310   18.7820 O   0  0  0  0  0  0
  -33.7640  141.0160   18.2600 C   0  0  2  0  0  0
  -34.4060  141.6750   17.1160 N   0  0  0  0  0  0
  -34.0550  141.5040   15.8180 C   0  0  0  0  0  0
  -34.8320  142.2810   15.0120 N   0  0  0  0  0  0
  -35.6950  142.9490   15.8230 C   0  0  0  0  0  0
  -36.7880  143.9320   15.6680 C   0  0  0  0  0  0
  -37.1480  144.3960   14.4460 N   0  0  0  0  0  0
  -37.4200  144.3650   16.7830 N   0  0  0  0  0  0
  -37.0890  143.9350   18.0130 C   0  0  0  0  0  0
  -36.1020  143.0500   18.2300 N   0  0  0  0  0  0
  -35.4010  142.5350   17.1950 C   0  0  0  0  0  0
  -30.7182  143.1121   19.0575 H   0  0  0  0  0  0
  -29.7639  141.9216   18.1095 H   0  0  0  0  0  0
  -31.4995  140.6514   19.9663 H   0  0  0  0  0  0
  -31.1826  140.4867   16.8963 H   0  0  0  0  0  0
  -29.5891  139.2614   18.0695 H   0  0  0  0  0  0
  -33.3821  139.2631   16.8713 H   0  0  0  0  0  0
  -32.9595  137.7139   18.6653 H   0  0  0  0  0  0
  -34.5296  140.8403   19.0300 H   0  0  0  0  0  0
  -33.2643  140.8399   15.4688 H   0  0  0  0  0  0
  -36.6272  144.0370   13.5460 H   0  0  0  0  0  0
  -37.9609  145.1315   14.3545 H   0  0  0  0  0  0
  -37.6438  144.3200   18.8686 H   0  0  0  0  0  0
  1  2  1  0  0  0
  1  3  2  0  0  0
  1  4  1  0  0  0
  1  5  1  0  0  0
  5  6  1  0  0  0
  6  7  1  0  0  0
  6 24  1  0  0  0
  6 25  1  0  0  0
  7  8  1  0  0  0
  7  9  1  0  0  0
  7 26  1  0  0  0
  8 13  1  0  0  0
  9 10  1  0  0  0
  9 11  1  0  0  0
  9 27  1  0  0  0
 10 28  1  0  0  0
 11 12  1  0  0  0
 11 13  1  0  0  0
 11 29  1  0  0  0
 12 30  1  0  0  0
 13 14  1  0  0  0
 13 31  1  0  0  0
 14 15  1  0  0  0
 14 23  1  0  0  0
 15 16  2  0  0  0
 15 32  1  0  0  0
 16 17  1  0  0  0
 17 18  2  0  0  0
 17 23  1  0  0  0
 18 19  1  0  0  0
 18 20  1  0  0  0
 19 33  1  0  0  0
 19 34  1  0  0  0
 20 21  2  0  0  0
 21 22  1  0  0  0
 21 35  1  0  0  0
 22 23  2  0  0  0
M  CHG  2   2  -1   4  -1
M  END
> <s_m_source_file>
../4lqy_ligand.sdf

> <i_m_source_file_index>
1

> <s_epik_input>
W09IXVAoPU8pKFtPSF0pT1tDSDJdW0NASF0xT1tDQEhdKFtDQEhdKFtPSF0pW0NAQEhdMVtPSF0pbihbY0hdbjIpYyhjMjMpbltjSF1uYzNbTkgyXQ==

> <s_epik_cmdline>
J2VwaWtfYXBwJywgJy1pbWFlJywgJ2xpZ2FuZF9wcm8ubWFlJywgJy1vbWFlJywgJ2xpZ2FuZF9wcmVwLm1hZScsICctbXMnLCAnMScsICctcGgnLCAnNycsICctcGh0JywgJzAuNScsICctbnQn

> <r_lp_tautomer_probability>
0.999997216410988

> <r_epik_Ionization_Penalty>
  0.1025

> <r_epik_Ionization_Penalty_Charging>
  0.1020

> <r_epik_Ionization_Penalty_Neutral>
  0.0004

> <r_epik_State_Penalty>
  0.0920

> <r_epik_Charging_Adjusted_Penalty>
0.194024004396068

> <i_epik_Tot_Q>
-2

> <i_epik_Tot_abs_Q>
2

> <s_epik_Chemistry_Notes>
This compound contains an acetal/aminal-like group ( X-CH(R)-Y where X, Y are N, S, or O) that may be acid/base labile, releasing an aldehyde.

$$$$
