4lrh_ligand
                    3D
 Schrodinger Suite 2020-3.
 49 51  0  0  1  0            999 V2000
    0.6390   22.8320    7.0900 N   0  0  0  0  0  0
    1.1190   22.3080    8.2390 C   0  0  0  0  0  0
    0.2480   22.0650    9.2410 N   0  0  0  0  0  0
    2.4150   22.0220    8.4100 N   0  3  0  0  0  0
    3.3400   22.2330    7.4330 C   0  0  0  0  0  0
    4.5070   21.9690    7.5990 O   0  0  0  0  0  0
    2.9010   22.7900    6.1590 C   0  0  0  0  0  0
    3.7500   23.0150    5.1340 N   0  0  0  0  0  0
    3.2910   23.5220    3.9740 C   0  0  0  0  0  0
    1.9110   23.8260    3.8270 C   0  0  0  0  0  0
    1.0580   23.6010    4.8540 N   0  0  0  0  0  0
    1.4970   23.0870    6.0200 C   0  0  0  0  0  0
    4.2350   23.7510    2.8360 C   0  0  0  0  0  0
    4.2020   22.5770    1.9490 N   0  0  0  0  0  0
    7.4990   21.8180   -0.6260 C   0  0  0  0  0  0
    6.8520   20.7610    0.0730 C   0  0  0  0  0  0
    5.7660   21.0300    0.9200 C   0  0  0  0  0  0
    5.2990   22.3510    1.0980 C   0  0  0  0  0  0
    5.9440   23.4160    0.4010 C   0  0  0  0  0  0
    7.0340   23.1500   -0.4530 C   0  0  0  0  0  0
    8.6470   21.5250   -1.5160 C   0  0  0  0  0  0
    9.0320   22.3570   -2.3400 O   0  0  0  0  0  0
    9.2530   20.3100   -1.3960 N   0  0  0  0  0  0
   10.4920   20.0610   -2.1570 C   0  0  1  0  0  0
   11.7480   20.6550   -1.4330 C   0  0  0  0  0  0
   11.6120   20.6390    0.1130 C   0  0  0  0  0  0
   12.8440   21.2290    0.7840 C   0  0  0  0  0  0
   13.7790   21.6460    0.1250 O   0  0  0  0  0  0
   12.8990   21.2910    2.1280 O   0  5  0  0  0  0
   10.6220   18.5520   -2.3700 C   0  0  0  0  0  0
   11.3410   17.8730   -1.6560 O   0  0  0  0  0  0
    9.9090   17.9600   -3.3460 O   0  5  0  0  0  0
   -0.8194   22.2966    9.1102 H   0  0  0  0  0  0
    1.5397   24.2395    2.8893 H   0  0  0  0  0  0
    3.9268   24.6480    2.2788 H   0  0  0  0  0  0
    5.2531   23.8942    3.2272 H   0  0  0  0  0  0
    3.3337   21.9018    1.9624 H   0  0  0  0  0  0
    7.2020   19.7361   -0.0502 H   0  0  0  0  0  0
    5.2773   20.2102    1.4465 H   0  0  0  0  0  0
    5.5925   24.4398    0.5293 H   0  0  0  0  0  0
    7.5217   23.9686   -0.9823 H   0  0  0  0  0  0
    8.8374   19.5234   -0.7490 H   0  0  0  0  0  0
   10.3800   20.5686   -3.1264 H   0  0  0  0  0  0
   12.6376   20.0651   -1.6989 H   0  0  0  0  0  0
   11.8929   21.6991   -1.7475 H   0  0  0  0  0  0
   10.7346   21.2322    0.4100 H   0  0  0  0  0  0
   11.4881   19.6024    0.4595 H   0  0  0  0  0  0
    0.6055   21.6353   10.1884 H   0  0  0  0  0  0
    2.7642   21.6017    9.3647 H   0  0  0  0  0  0
  1  2  2  0  0  0
  1 12  1  0  0  0
  2  3  1  0  0  0
  2  4  1  0  0  0
  3 33  1  0  0  0
  3 48  1  0  0  0
  4  5  1  0  0  0
  4 49  1  0  0  0
  5  6  2  0  0  0
  5  7  1  0  0  0
  7  8  1  0  0  0
  7 12  2  0  0  0
  8  9  2  0  0  0
  9 10  1  0  0  0
  9 13  1  0  0  0
 10 11  2  0  0  0
 10 34  1  0  0  0
 11 12  1  0  0  0
 13 14  1  0  0  0
 13 35  1  0  0  0
 13 36  1  0  0  0
 14 18  1  0  0  0
 14 37  1  0  0  0
 15 16  2  0  0  0
 15 20  1  0  0  0
 15 21  1  0  0  0
 16 17  1  0  0  0
 16 38  1  0  0  0
 17 18  2  0  0  0
 17 39  1  0  0  0
 18 19  1  0  0  0
 19 20  2  0  0  0
 19 40  1  0  0  0
 20 41  1  0  0  0
 21 22  2  0  0  0
 21 23  1  0  0  0
 23 24  1  0  0  0
 23 42  1  0  0  0
 24 25  1  0  0  0
 24 30  1  0  0  0
 24 43  1  0  0  0
 25 26  1  0  0  0
 25 44  1  0  0  0
 25 45  1  0  0  0
 26 27  1  0  0  0
 26 46  1  0  0  0
 26 47  1  0  0  0
 27 28  2  0  0  0
 27 29  1  0  0  0
 30 31  2  0  0  0
 30 32  1  0  0  0
M  CHG  3   4   1  29  -1  32  -1
M  END
> <s_m_source_file>
../4lrh_ligand.sdf

> <i_m_source_file_index>
1

> <s_epik_input>
Tz1jMVtuSF1jKD1OL1tIXSlcW25IXWMoYzEyKW5bY0hdYyhuMilbQ0gyXVtOSF1jKFtjSF1bY0hdMylbY0hdW2NIXWMzQyg9TylbTkhdW0NASF0oQyg9TylbT0hdKVtDSDJdW0NIMl1DKD1PKVtPSF0=

> <s_epik_cmdline>
J2VwaWtfYXBwJywgJy1pbWFlJywgJ2xpZ2FuZF9wcm8ubWFlJywgJy1vbWFlJywgJ2xpZ2FuZF9wcmVwLm1hZScsICctbXMnLCAnMScsICctcGgnLCAnNycsICctcGh0JywgJzAuNScsICctbnQn

> <r_epik_Ionization_Penalty>
  0.2829

> <r_epik_Ionization_Penalty_Charging>
  0.2828

> <r_epik_Ionization_Penalty_Neutral>
  0.0000

> <r_epik_State_Penalty>
  0.0466

> <r_epik_Charging_Adjusted_Penalty>
0.329477824974968

> <i_epik_Tot_Q>
-1

> <i_epik_Tot_abs_Q>
3

> <s_epik_Chemistry_Notes>
This compound has an imine and may undergo hydrolysis.

$$$$
