4lsj_ligand
                    3D
 Schrodinger Suite 2020-3.
 56 59  0  0  1  0            999 V2000
   -9.1740   14.2250  -16.5000 C   0  0  0  0  0  0
   -7.9120   14.8410  -16.4530 O   0  0  0  0  0  0
   -6.8020   14.0170  -16.4910 C   0  0  0  0  0  0
   -6.7850   12.6650  -16.7010 C   0  0  0  0  0  0
   -5.5940   12.0100  -16.7190 C   0  0  0  0  0  0
   -4.4030   12.6380  -16.5080 C   0  0  0  0  0  0
   -4.4110   13.9790  -16.2880 C   0  0  0  0  0  0
   -5.6050   14.6400  -16.2820 C   0  0  0  0  0  0
   -7.9600   11.9160  -16.9820 C   0  0  0  0  0  0
   -8.3130   10.8130  -16.3060 C   0  0  0  0  0  0
   -9.4730   10.0280  -16.6560 C   0  0  0  0  0  0
  -10.7540   10.4690  -16.8060 C   0  0  0  0  0  0
  -11.7690    9.6150  -17.1540 C   0  0  0  0  0  0
  -11.5550    8.2830  -17.3560 C   0  0  0  0  0  0
  -10.2680    7.8450  -17.2070 C   0  0  0  0  0  0
   -9.2700    8.7030  -16.8690 C   0  0  0  0  0  0
   -9.8420    6.5160  -17.3460 N   0  0  0  0  0  0
  -10.3490    5.4460  -18.5130 S   0  0  0  0  0  0
   -9.7070    4.2270  -18.3310 O   0  0  0  0  0  0
  -11.7420    5.4420  -18.6400 O   0  0  0  0  0  0
   -9.6480    6.2070  -19.8930 C   0  0  0  0  0  0
   -7.5180   10.2320  -15.2140 C   0  0  0  0  0  0
   -8.3450    9.7840  -14.0500 C   0  0  0  0  0  0
   -8.7940   12.3780  -18.0620 C   0  0  0  0  0  0
   -9.4230   13.5670  -17.8130 C   0  0  0  0  0  0
  -10.2500   14.0790  -18.7730 C   0  0  0  0  0  0
  -10.4430   13.4270  -19.9600 C   0  0  0  0  0  0
   -9.8020   12.2530  -20.1960 C   0  0  0  0  0  0
   -8.9740   11.7180  -19.2510 C   0  0  0  0  0  0
   -8.3090   10.5560  -19.4850 O   0  0  0  0  0  0
   -8.9570    9.8360  -20.4640 C   0  0  0  0  0  0
   -9.2375   13.4587  -15.7134 H   0  0  0  0  0  0
   -9.9571   14.9807  -16.3397 H   0  0  0  0  0  0
   -5.5914   10.9369  -16.9103 H   0  0  0  0  0  0
   -3.4675   12.0787  -16.5155 H   0  0  0  0  0  0
   -3.4788   14.5180  -16.1190 H   0  0  0  0  0  0
   -5.6030   15.7150  -16.1020 H   0  0  0  0  0  0
  -10.9766   11.5239  -16.6458 H   0  0  0  0  0  0
  -12.7770   10.0125  -17.2728 H   0  0  0  0  0  0
  -12.3657    7.6046  -17.6217 H   0  0  0  0  0  0
   -8.2592    8.3088  -16.7640 H   0  0  0  0  0  0
   -9.1064    6.1995  -16.5919 H   0  0  0  0  0  0
   -8.5526    6.2101  -19.7931 H   0  0  0  0  0  0
  -10.0125    7.2423  -19.9655 H   0  0  0  0  0  0
   -9.9319    5.6539  -20.8005 H   0  0  0  0  0  0
   -6.9694    9.3544  -15.5866 H   0  0  0  0  0  0
   -6.8030   10.9808  -14.8424 H   0  0  0  0  0  0
   -7.6886    9.3621  -13.2747 H   0  0  0  0  0  0
   -9.0603    9.0171  -14.3820 H   0  0  0  0  0  0
   -8.8939   10.6435  -13.6378 H   0  0  0  0  0  0
  -10.7643   15.0224  -18.5899 H   0  0  0  0  0  0
  -11.1086   13.8480  -20.7135 H   0  0  0  0  0  0
   -9.9492   11.7355  -21.1440 H   0  0  0  0  0  0
   -8.4142    8.8972  -20.6487 H   0  0  0  0  0  0
   -8.9929   10.4273  -21.3909 H   0  0  0  0  0  0
   -9.9815    9.6085  -20.1343 H   0  0  0  0  0  0
  1  2  1  0  0  0
  1 25  1  0  0  0
  1 32  1  0  0  0
  1 33  1  0  0  0
  2  3  1  0  0  0
  3  4  2  0  0  0
  3  8  1  0  0  0
  4  5  1  0  0  0
  4  9  1  0  0  0
  5  6  2  0  0  0
  5 34  1  0  0  0
  6  7  1  0  0  0
  6 35  1  0  0  0
  7  8  2  0  0  0
  7 36  1  0  0  0
  8 37  1  0  0  0
  9 10  2  0  0  0
  9 24  1  0  0  0
 10 11  1  0  0  0
 10 22  1  0  0  0
 11 12  2  0  0  0
 11 16  1  0  0  0
 12 13  1  0  0  0
 12 38  1  0  0  0
 13 14  2  0  0  0
 13 39  1  0  0  0
 14 15  1  0  0  0
 14 40  1  0  0  0
 15 16  2  0  0  0
 15 17  1  0  0  0
 16 41  1  0  0  0
 17 18  1  0  0  0
 17 42  1  0  0  0
 18 19  2  0  0  0
 18 20  2  0  0  0
 18 21  1  0  0  0
 21 43  1  0  0  0
 21 44  1  0  0  0
 21 45  1  0  0  0
 22 23  1  0  0  0
 22 46  1  0  0  0
 22 47  1  0  0  0
 23 48  1  0  0  0
 23 49  1  0  0  0
 23 50  1  0  0  0
 24 25  2  0  0  0
 24 29  1  0  0  0
 25 26  1  0  0  0
 26 27  2  0  0  0
 26 51  1  0  0  0
 27 28  1  0  0  0
 27 52  1  0  0  0
 28 29  2  0  0  0
 28 53  1  0  0  0
 29 30  1  0  0  0
 30 31  1  0  0  0
 31 54  1  0  0  0
 31 55  1  0  0  0
 31 56  1  0  0  0
M  END
> <s_m_source_file>
../4lsj_ligand.sdf

> <i_m_source_file_index>
1

> <s_epik_input>
W0NIM11PYzFbY0hdW2NIXVtjSF1jKFtDSDJdTzIpYzFDKFxjKGMyMylbY0hdW2NIXVtjSF1bY0hdMyk9QyhbQ0gyXVtDSDNdKS9jNFtjSF1bY0hdW2NIXWMoW2NIXTQpW05IXVMoPU8pKD1PKVtDSDNd

> <s_epik_cmdline>
J2VwaWtfYXBwJywgJy1pbWFlJywgJ2xpZ2FuZF9wcm8ubWFlJywgJy1vbWFlJywgJ2xpZ2FuZF9wcmVwLm1hZScsICctbXMnLCAnMScsICctcGgnLCAnNycsICctcGh0JywgJzAuNScsICctbnQn

> <r_epik_Ionization_Penalty>
  0.0154

> <r_epik_Ionization_Penalty_Charging>
  0.0000

> <r_epik_Ionization_Penalty_Neutral>
  0.0154

> <r_epik_State_Penalty>
  0.0121

> <r_epik_Charging_Adjusted_Penalty>
0.0121270201221224

> <i_epik_Tot_Q>
0

> <i_epik_Tot_abs_Q>
0

$$$$
