4luo_ligand
                    3D
 Schrodinger Suite 2020-3.
 34 36  0  0  1  0            999 V2000
    5.0950  -12.8670  -24.0590 C   0  0  0  0  0  0
    4.5270  -12.2650  -23.0130 N   0  0  0  0  0  0
    3.5520  -13.0090  -22.5290 N   0  0  0  0  0  0
    3.4420  -14.1280  -23.2360 C   0  0  0  0  0  0
    4.4260  -14.1010  -24.2560 C   0  0  0  0  0  0
    6.2260  -12.3520  -24.8850 C   0  0  0  0  0  0
    4.8930  -10.9930  -22.4780 C   0  0  0  0  0  0
    6.1530  -12.4400  -26.2660 C   0  0  0  0  0  0
    7.1960  -11.9660  -27.0470 C   0  0  0  0  0  0
    8.3130  -11.4060  -26.4470 C   0  0  0  0  0  0
    8.3850  -11.3140  -25.0660 C   0  0  0  0  0  0
    7.3460  -11.7940  -24.2850 C   0  0  0  0  0  0
    5.3280  -10.8890  -21.1690 C   0  0  0  0  0  0
    5.6790   -9.6510  -20.6610 C   0  0  0  0  0  0
    5.5860   -8.5250  -21.4630 C   0  0  0  0  0  0
    5.1490   -8.6370  -22.7710 C   0  0  0  0  0  0
    4.8020   -9.8750  -23.2830 C   0  0  0  0  0  0
    5.0520   -7.4330  -23.6470 C   0  0  0  0  0  0
    2.4620  -15.2140  -22.9790 C   0  0  0  0  0  0
    2.4700  -16.2600  -23.6810 O   0  5  0  0  0  0
    1.6430  -15.0650  -22.0410 O   0  0  0  0  0  0
    4.6230  -14.8559  -25.0172 H   0  0  0  0  0  0
    5.2756  -12.8819  -26.7383 H   0  0  0  0  0  0
    7.1375  -12.0338  -28.1333 H   0  0  0  0  0  0
    9.1348  -11.0380  -27.0613 H   0  0  0  0  0  0
    9.2587  -10.8642  -24.5944 H   0  0  0  0  0  0
    7.4084  -11.7333  -23.1985 H   0  0  0  0  0  0
    5.3939  -11.7776  -20.5412 H   0  0  0  0  0  0
    6.0279   -9.5616  -19.6322 H   0  0  0  0  0  0
    5.8578   -7.5484  -21.0624 H   0  0  0  0  0  0
    4.4595   -9.9667  -24.3137 H   0  0  0  0  0  0
    5.3639   -6.5423  -23.0819 H   0  0  0  0  0  0
    4.0125   -7.3078  -23.9844 H   0  0  0  0  0  0
    5.7081   -7.5613  -24.5205 H   0  0  0  0  0  0
  1  2  1  0  0  0
  1  5  2  0  0  0
  1  6  1  0  0  0
  2  3  1  0  0  0
  2  7  1  0  0  0
  3  4  2  0  0  0
  4  5  1  0  0  0
  4 19  1  0  0  0
  5 22  1  0  0  0
  6  8  2  0  0  0
  6 12  1  0  0  0
  7 13  2  0  0  0
  7 17  1  0  0  0
  8  9  1  0  0  0
  8 23  1  0  0  0
  9 10  2  0  0  0
  9 24  1  0  0  0
 10 11  1  0  0  0
 10 25  1  0  0  0
 11 12  2  0  0  0
 11 26  1  0  0  0
 12 27  1  0  0  0
 13 14  1  0  0  0
 13 28  1  0  0  0
 14 15  2  0  0  0
 14 29  1  0  0  0
 15 16  1  0  0  0
 15 30  1  0  0  0
 16 17  2  0  0  0
 16 18  1  0  0  0
 17 31  1  0  0  0
 18 32  1  0  0  0
 18 33  1  0  0  0
 18 34  1  0  0  0
 19 20  1  0  0  0
 19 21  2  0  0  0
M  CHG  1  20  -1
M  END
> <s_m_source_file>
../4luo_ligand.sdf

> <i_m_source_file_index>
1

> <s_epik_input>
W2NIXTFbY0hdW2NIXVtjSF1bY0hdYzEtYzJuKG5jKFtjSF0yKUMoPU8pW09IXSktYzNbY0hdW2NIXVtjSF1jKFtjSF0zKVtDSDNd

> <s_epik_cmdline>
J2VwaWtfYXBwJywgJy1pbWFlJywgJ2xpZ2FuZF9wcm8ubWFlJywgJy1vbWFlJywgJ2xpZ2FuZF9wcmVwLm1hZScsICctbXMnLCAnMScsICctcGgnLCAnNycsICctcGh0JywgJzAuNScsICctbnQn

> <r_lp_tautomer_probability>
1

> <r_epik_Ionization_Penalty>
  0.0001

> <r_epik_Ionization_Penalty_Charging>
  0.0001

> <r_epik_Ionization_Penalty_Neutral>
  0.0000

> <r_epik_State_Penalty>
 -0.0000

> <r_epik_Charging_Adjusted_Penalty>
7.70168351165515e-05

> <i_epik_Tot_Q>
-1

> <i_epik_Tot_abs_Q>
1

$$$$
