4luv_ligand
                    3D
 Schrodinger Suite 2020-3.
 21 22  0  0  1  0            999 V2000
   15.6690   12.9860   20.3040 O   0  0  0  0  0  0
   16.7810   13.0660   19.6160 C   0  0  0  0  0  0
   15.6390   11.9280   21.0790 C   0  0  0  0  0  0
   17.5850   11.9660   19.9380 C   0  0  0  0  0  0
   16.8320   11.2160   20.8990 C   0  0  0  0  0  0
   17.0950   14.1720   18.6690 C   0  0  0  0  0  0
   14.4870   11.5930   21.9600 C   0  0  0  0  0  0
   13.4550   10.3450   23.7280 C   0  0  0  0  0  0
   14.5680   10.6160   22.9430 C   0  0  0  0  0  0
   12.2780   11.0530   23.5280 C   0  0  0  0  0  0
   16.3060   15.1540   18.5960 O   0  5  0  0  0  0
   13.3080   12.2970   21.7650 C   0  0  0  0  0  0
   12.2020   12.0280   22.5490 C   0  0  0  0  0  0
   13.5270    9.1320   24.9580 Cl  0  0  0  0  0  0
   18.1410   14.1320   17.9670 O   0  0  0  0  0  0
   11.2150   10.7980   24.2750 F   0  0  0  0  0  0
   18.5729   11.7304   19.5421 H   0  0  0  0  0  0
   17.1257   10.2868   21.3873 H   0  0  0  0  0  0
   15.4967   10.0667   23.0972 H   0  0  0  0  0  0
   13.2536   13.0637   20.9921 H   0  0  0  0  0  0
   11.2750   12.5808   22.3970 H   0  0  0  0  0  0
  1  2  1  0  0  0
  1  3  1  0  0  0
  2  4  2  0  0  0
  2  6  1  0  0  0
  3  5  2  0  0  0
  3  7  1  0  0  0
  4  5  1  0  0  0
  4 17  1  0  0  0
  5 18  1  0  0  0
  6 11  1  0  0  0
  6 15  2  0  0  0
  7  9  2  0  0  0
  7 12  1  0  0  0
  8  9  1  0  0  0
  8 10  2  0  0  0
  8 14  1  0  0  0
  9 19  1  0  0  0
 10 13  1  0  0  0
 10 16  1  0  0  0
 12 13  2  0  0  0
 12 20  1  0  0  0
 13 21  1  0  0  0
M  CHG  1  11  -1
M  END
> <s_m_source_file>
../4luv_ligand.sdf

> <i_m_source_file_index>
1

> <s_epik_input>
W09IXUMoPU8pYzFvYyhbY0hdW2NIXTEpLWMyW2NIXWMoQ2wpYyhGKVtjSF1bY0hdMg==

> <s_epik_cmdline>
J2VwaWtfYXBwJywgJy1pbWFlJywgJ2xpZ2FuZF9wcm8ubWFlJywgJy1vbWFlJywgJ2xpZ2FuZF9wcmVwLm1hZScsICctbXMnLCAnMScsICctcGgnLCAnNycsICctcGh0JywgJzAuNScsICctbnQn

> <r_lp_tautomer_probability>
1

> <r_epik_Ionization_Penalty>
  0.0001

> <r_epik_Ionization_Penalty_Charging>
  0.0001

> <r_epik_Ionization_Penalty_Neutral>
  0.0000

> <r_epik_State_Penalty>
 -0.0000

> <r_epik_Charging_Adjusted_Penalty>
5.68037625257863e-05

> <i_epik_Tot_Q>
-1

> <i_epik_Tot_abs_Q>
1

$$$$
