4luz_ligand
                    3D
 Schrodinger Suite 2020-3.
 57 61  0  0  1  0            999 V2000
  -17.6170   13.6990  -18.4240 C   0  0  0  0  0  0
  -18.6070   13.5410  -17.6520 O   0  0  0  0  0  0
  -16.8790   14.7240  -18.3400 O   0  5  0  0  0  0
  -17.2910   12.6800  -19.4660 C   0  0  0  0  0  0
  -18.0490   11.5560  -19.8290 C   0  0  0  0  0  0
  -17.2940   10.9250  -20.8720 C   0  0  0  0  0  0
  -16.1560   11.7260  -21.0480 C   0  0  0  0  0  0
  -16.2030   12.7270  -20.2020 O   0  0  0  0  0  0
  -15.0390   11.5020  -22.0120 C   0  0  0  0  0  0
  -13.8700   12.2450  -21.8870 C   0  0  0  0  0  0
  -12.8240   12.0410  -22.7750 C   0  0  0  0  0  0
  -12.9510   11.0900  -23.7780 C   0  0  0  0  0  0
  -14.1150   10.3470  -23.9000 C   0  0  0  0  0  0
  -15.1640   10.5560  -23.0180 C   0  0  0  0  0  0
  -11.8340   10.8540  -24.7380 C   0  0  0  0  0  0
  -11.2410   11.9560  -25.3150 O   0  0  0  0  0  0
   -9.9370   12.2420  -24.9870 C   0  0  0  0  0  0
   -8.9550   11.2820  -25.1660 C   0  0  0  0  0  0
   -7.6330   11.5610  -24.8460 C   0  0  0  0  0  0
   -7.2930   12.8070  -24.3470 C   0  0  0  0  0  0
   -8.2830   13.7630  -24.1700 C   0  0  0  0  0  0
   -9.6050   13.4900  -24.4850 C   0  0  0  0  0  0
   -5.8810   13.1480  -23.9780 C   0  0  0  0  0  0
   -5.2040   14.3580  -24.3080 C   0  0  0  0  0  0
   -3.9100   14.2210  -23.7370 C   0  0  0  0  0  0
   -3.8740   13.0460  -23.1340 N   0  0  0  0  0  0
   -5.0230   12.4120  -23.2660 N   0  0  0  0  0  0
   -5.2320   11.1190  -22.7000 C   0  0  0  0  0  0
   -4.9670    9.9860  -23.4530 C   0  0  0  0  0  0
   -5.1510    8.7320  -22.8950 C   0  0  0  0  0  0
   -5.5900    8.6200  -21.5880 C   0  0  0  0  0  0
   -5.8490    9.7520  -20.8290 C   0  0  0  0  0  0
   -5.6620   11.0060  -21.3860 C   0  0  0  0  0  0
   -4.8790    7.5070  -23.7060 C   0  0  0  0  0  0
   -2.7770   15.1900  -23.7720 C   0  0  0  0  0  0
   -2.1970   15.4840  -22.6920 O   0  5  0  0  0  0
   -2.3990   15.6960  -24.8610 O   0  0  0  0  0  0
  -19.0022   11.2335  -19.4101 H   0  0  0  0  0  0
  -17.5504   10.0147  -21.4139 H   0  0  0  0  0  0
  -13.7759   12.9859  -21.0931 H   0  0  0  0  0  0
  -11.9075   12.6242  -22.6856 H   0  0  0  0  0  0
  -14.2053    9.5996  -24.6882 H   0  0  0  0  0  0
  -16.0835    9.9788  -23.1150 H   0  0  0  0  0  0
  -11.0180   10.3216  -24.2274 H   0  0  0  0  0  0
  -12.1968   10.2473  -25.5808 H   0  0  0  0  0  0
   -9.2215   10.3015  -25.5605 H   0  0  0  0  0  0
   -6.8646   10.8009  -24.9873 H   0  0  0  0  0  0
   -8.0169   14.7443  -23.7770 H   0  0  0  0  0  0
  -10.3744   14.2483  -24.3395 H   0  0  0  0  0  0
   -5.5937   15.2037  -24.8746 H   0  0  0  0  0  0
   -4.6152   10.0816  -24.4802 H   0  0  0  0  0  0
   -5.7339    7.6323  -21.1500 H   0  0  0  0  0  0
   -6.1975    9.6550  -19.8008 H   0  0  0  0  0  0
   -5.8521   11.9012  -20.7939 H   0  0  0  0  0  0
   -4.5414    7.8001  -24.7110 H   0  0  0  0  0  0
   -5.7991    6.9098  -23.7880 H   0  0  0  0  0  0
   -4.0963    6.9092  -23.2161 H   0  0  0  0  0  0
  1  2  2  0  0  0
  1  3  1  0  0  0
  1  4  1  0  0  0
  4  5  2  0  0  0
  4  8  1  0  0  0
  5  6  1  0  0  0
  5 38  1  0  0  0
  6  7  2  0  0  0
  6 39  1  0  0  0
  7  8  1  0  0  0
  7  9  1  0  0  0
  9 10  2  0  0  0
  9 14  1  0  0  0
 10 11  1  0  0  0
 10 40  1  0  0  0
 11 12  2  0  0  0
 11 41  1  0  0  0
 12 13  1  0  0  0
 12 15  1  0  0  0
 13 14  2  0  0  0
 13 42  1  0  0  0
 14 43  1  0  0  0
 15 16  1  0  0  0
 15 44  1  0  0  0
 15 45  1  0  0  0
 16 17  1  0  0  0
 17 18  2  0  0  0
 17 22  1  0  0  0
 18 19  1  0  0  0
 18 46  1  0  0  0
 19 20  2  0  0  0
 19 47  1  0  0  0
 20 21  1  0  0  0
 20 23  1  0  0  0
 21 22  2  0  0  0
 21 48  1  0  0  0
 22 49  1  0  0  0
 23 24  2  0  0  0
 23 27  1  0  0  0
 24 25  1  0  0  0
 24 50  1  0  0  0
 25 26  2  0  0  0
 25 35  1  0  0  0
 26 27  1  0  0  0
 27 28  1  0  0  0
 28 29  2  0  0  0
 28 33  1  0  0  0
 29 30  1  0  0  0
 29 51  1  0  0  0
 30 31  2  0  0  0
 30 34  1  0  0  0
 31 32  1  0  0  0
 31 52  1  0  0  0
 32 33  2  0  0  0
 32 53  1  0  0  0
 33 54  1  0  0  0
 34 55  1  0  0  0
 34 56  1  0  0  0
 34 57  1  0  0  0
 35 36  1  0  0  0
 35 37  2  0  0  0
M  CHG  2   3  -1  36  -1
M  END
> <s_m_source_file>
../4luz_ligand.sdf

> <i_m_source_file_index>
1

> <s_epik_input>
Tz1DKFtPSF0pYzFbY0hdW2NIXWMobzEpLWMyW2NIXVtjSF1jKFtjSF1bY0hdMilbQ0gyXU9jM1tjSF1bY0hdYyhbY0hdW2NIXTMpLWM0W2NIXWMoQyg9TylbT0hdKW5uNC1jNVtjSF1jKFtDSDNdKVtjSF1bY0hdW2NIXTU=

> <s_epik_cmdline>
J2VwaWtfYXBwJywgJy1pbWFlJywgJ2xpZ2FuZF9wcm8ubWFlJywgJy1vbWFlJywgJ2xpZ2FuZF9wcmVwLm1hZScsICctbXMnLCAnMScsICctcGgnLCAnNycsICctcGh0JywgJzAuNScsICctbnQn

> <r_lp_tautomer_probability>
1

> <r_epik_Ionization_Penalty>
  0.0002

> <r_epik_Ionization_Penalty_Charging>
  0.0002

> <r_epik_Ionization_Penalty_Neutral>
  0.0000

> <r_epik_State_Penalty>
 -0.0000

> <r_epik_Charging_Adjusted_Penalty>
0.000200091981691391

> <i_epik_Tot_Q>
-2

> <i_epik_Tot_abs_Q>
2

$$$$
