4lv1_ligand
                    3D
 Schrodinger Suite 2020-3.
 26 27  0  0  1  0            999 V2000
   26.2190    4.7950   16.2220 B   0  0  0  0  0  0
   25.1650    3.8030   16.6380 O   0  0  0  0  0  0
   26.3370    5.7130   17.3970 O   0  0  0  0  0  0
   25.6440    5.5020   14.9220 C   0  0  0  0  0  0
   25.6340    6.8610   14.5870 C   0  0  0  0  0  0
   25.0030    6.9910   13.4130 N   0  0  0  0  0  0
   24.5610    5.7860   12.9930 N   0  0  0  0  0  0
   23.8320    5.5850   11.8720 C   0  0  0  0  0  0
   22.9100    4.5350   11.8300 C   0  0  0  0  0  0
   22.1360    4.3300   10.6920 C   0  0  0  0  0  0
   22.2500    5.1660    9.6070 C   0  0  0  0  0  0
   23.1270    6.2280    9.6660 C   0  0  0  0  0  0
   23.2650    7.2970    8.2920 Cl  0  0  0  0  0  0
   23.9160    6.4560   10.7900 C   0  0  0  0  0  0
   24.9500    4.8750   13.8910 C   0  0  0  0  0  0
   25.0280    3.1758   15.9377 H   0  0  0  0  0  0
   25.0280    3.1758   15.9378 H   0  0  0  0  0  0
   25.4981    6.1284   17.5584 H   0  0  0  0  0  0
   25.4980    6.1284   17.5584 H   0  0  0  0  0  0
   26.0956    5.0372   15.7972 H   0  0  0  0  0  0
   26.0310    7.7497   15.0994 H   0  0  0  0  0  0
   22.7978    3.8792   12.6858 H   0  0  0  0  0  0
   21.4362    3.5028   10.6609 H   0  0  0  0  0  0
   21.6576    4.9924    8.7159 H   0  0  0  0  0  0
   24.5898    7.3045   10.8221 H   0  0  0  0  0  0
   24.8008    3.7854   13.9115 H   0  0  0  0  0  0
  1  2  1  0  0  0
  1  3  1  0  0  0
  1  4  1  0  0  0
  2 16  1  0  0  0
  2 17  1  0  0  0
  3 18  1  0  0  0
  3 19  1  0  0  0
  4  5  1  0  0  0
  4 15  2  0  0  0
  4 20  1  0  0  0
  5  6  2  0  0  0
  5 21  1  0  0  0
  6  7  1  0  0  0
  7  8  1  0  0  0
  7 15  1  0  0  0
  8  9  2  0  0  0
  8 14  1  0  0  0
  9 10  1  0  0  0
  9 22  1  0  0  0
 10 11  2  0  0  0
 10 23  1  0  0  0
 11 12  1  0  0  0
 11 24  1  0  0  0
 12 13  1  0  0  0
 12 14  2  0  0  0
 14 25  1  0  0  0
 15 26  1  0  0  0
M  END
> <MOLECULAR_FORMULA>
C9H11N2O2ClB

> <MOLECULAR_WEIGHT>
225.4

> <NUM_HB_ATOMS>
4

> <NUM_ROTOR>
1

> <XLOGP2>
1.13

> <s_m_source_file>
../4lv1_ligand.sdf

> <i_m_source_file_index>
1

> <s_epik_input>
W09IMl1CKFtPSDJdKVtDSF0xPVtDSF1OKE49W0NIXTEpYzJbY0hdW2NIXVtjSF1jKENsKVtjSF0y

> <s_epik_cmdline>
J2VwaWtfYXBwJywgJy1pbWFlJywgJ2xpZ2FuZF9wcm8ubWFlJywgJy1vbWFlJywgJ2xpZ2FuZF9wcmVwLm1hZScsICctbXMnLCAnMScsICctcGgnLCAnNycsICctcGh0JywgJzAuNScsICctbnQn

> <r_lp_tautomer_probability>
1

> <r_epik_Ionization_Penalty>
  0.0000

> <r_epik_Ionization_Penalty_Charging>
  0.0000

> <r_epik_Ionization_Penalty_Neutral>
  0.0000

> <r_epik_State_Penalty>
 -0.0000

> <r_epik_Charging_Adjusted_Penalty>
0

> <i_epik_Tot_Q>
0

> <i_epik_Tot_abs_Q>
0

> <s_epik_Chemistry_Notes>
This compound has an imine and may undergo hydrolysis.

$$$$
