4lv3_ligand
                    3D
 Schrodinger Suite 2020-3.
 40 40  0  0  1  0            999 V2000
   26.6400    4.9980   16.8170 B   0  0  0  0  0  0
   26.7640    5.6880   18.1120 O   0  0  0  0  0  0
   25.6760    3.8880   17.0360 O   0  0  0  0  0  0
   26.0840    5.9910   15.7160 C   0  0  0  0  0  0
   25.2520    5.5620   14.6770 C   0  0  0  0  0  0
   24.6720    6.4590   13.7390 C   0  0  0  0  0  0
   23.7320    5.9540   12.6100 C   0  0  0  0  0  0
   22.3580    6.5160   12.9250 C   0  0  0  0  0  0
   23.5640    4.4330   12.5830 C   0  0  0  0  0  0
   24.1710    6.4520   11.2470 C   0  0  0  0  0  0
   24.9840    7.8310   13.8740 C   0  0  0  0  0  0
   25.8220    8.2740   14.9050 C   0  0  0  0  0  0
   26.1480    9.7800   15.0760 C   0  0  0  0  0  0
   25.8150   10.2730   16.4630 C   0  0  0  0  0  0
   25.3700   10.6290   14.0800 C   0  0  0  0  0  0
   27.6330    9.9790   14.9060 C   0  0  0  0  0  0
   26.3850    7.3480   15.8310 C   0  0  0  0  0  0
   27.1373    5.1434   18.9918 H   0  0  0  0  0  0
   25.9010    3.1011   17.7709 H   0  0  0  0  0  0
   25.0397    4.4970   14.5826 H   0  0  0  0  0  0
   22.0333    6.1583   13.9133 H   0  0  0  0  0  0
   21.6411    6.1820   12.1604 H   0  0  0  0  0  0
   22.4036    7.6150   12.9296 H   0  0  0  0  0  0
   23.2456    4.0816   13.5756 H   0  0  0  0  0  0
   24.5224    3.9629   12.3176 H   0  0  0  0  0  0
   22.8032    4.1614   11.8364 H   0  0  0  0  0  0
   24.2889    7.5453   11.2766 H   0  0  0  0  0  0
   23.4117    6.1852   10.4971 H   0  0  0  0  0  0
   25.1309    5.9868   10.9784 H   0  0  0  0  0  0
   24.5685    8.5510   13.1690 H   0  0  0  0  0  0
   24.7371   10.1523   16.6460 H   0  0  0  0  0  0
   26.0848   11.3359   16.5489 H   0  0  0  0  0  0
   26.3804    9.6900   17.2049 H   0  0  0  0  0  0
   24.2916   10.4668   14.2236 H   0  0  0  0  0  0
   25.6507   10.3423   13.0558 H   0  0  0  0  0  0
   25.6056   11.6913   14.2410 H   0  0  0  0  0  0
   28.1722    9.3564   15.6352 H   0  0  0  0  0  0
   27.8825   11.0374   15.0720 H   0  0  0  0  0  0
   27.9276    9.6883   13.8868 H   0  0  0  0  0  0
   27.0463    7.6981   16.6236 H   0  0  0  0  0  0
  1  2  1  0  0  0
  1  3  1  0  0  0
  1  4  1  0  0  0
  2 18  1  0  0  0
  3 19  1  0  0  0
  4  5  2  0  0  0
  4 17  1  0  0  0
  5  6  1  0  0  0
  5 20  1  0  0  0
  6  7  1  0  0  0
  6 11  2  0  0  0
  7  8  1  0  0  0
  7  9  1  0  0  0
  7 10  1  0  0  0
  8 21  1  0  0  0
  8 22  1  0  0  0
  8 23  1  0  0  0
  9 24  1  0  0  0
  9 25  1  0  0  0
  9 26  1  0  0  0
 10 27  1  0  0  0
 10 28  1  0  0  0
 10 29  1  0  0  0
 11 12  1  0  0  0
 11 30  1  0  0  0
 12 13  1  0  0  0
 12 17  2  0  0  0
 13 14  1  0  0  0
 13 15  1  0  0  0
 13 16  1  0  0  0
 14 31  1  0  0  0
 14 32  1  0  0  0
 14 33  1  0  0  0
 15 34  1  0  0  0
 15 35  1  0  0  0
 15 36  1  0  0  0
 16 37  1  0  0  0
 16 38  1  0  0  0
 16 39  1  0  0  0
 17 40  1  0  0  0
M  END
> <s_m_source_file>
../4lv3_ligand.sdf

> <i_m_source_file_index>
1

> <s_epik_input>
W09IXUIoW09IXSljMVtjSF1jKEMoW0NIM10pKFtDSDNdKVtDSDNdKVtjSF1jKFtjSF0xKUMoW0NIM10pKFtDSDNdKVtDSDNd

> <s_epik_cmdline>
J2VwaWtfYXBwJywgJy1pbWFlJywgJ2xpZ2FuZF9wcm8ubWFlJywgJy1vbWFlJywgJ2xpZ2FuZF9wcmVwLm1hZScsICctbXMnLCAnMScsICctcGgnLCAnNycsICctcGh0JywgJzAuNScsICctbnQn

> <r_lp_tautomer_probability>
1

> <r_epik_Ionization_Penalty>
  0.0000

> <r_epik_Ionization_Penalty_Charging>
  0.0000

> <r_epik_Ionization_Penalty_Neutral>
  0.0000

> <r_epik_State_Penalty>
 -0.0000

> <r_epik_Charging_Adjusted_Penalty>
0

> <i_epik_Tot_Q>
0

> <i_epik_Tot_abs_Q>
0

> <s_epik_Chemistry_Notes>
This compound contains a Lewis acid (boronic acid) which adds nucleophiles to form tetrahedral complexes, lowering the experimental pKa

$$$$
