4lv4_ligand
                    3D
 Schrodinger Suite 2020-3.
 20 21  0  0  1  0            999 V2000
   11.0650  160.0510   20.7510 O   0  0  0  0  0  0
   11.7830  159.4190   21.5630 C   0  0  0  0  0  0
   11.7000  159.5890   22.8360 O   0  5  0  0  0  0
   12.7330  158.4070   21.0250 C   0  0  0  0  0  0
   13.4000  157.7490   21.9530 N   0  0  0  0  0  0
   14.3010  156.7960   21.6770 C   0  0  0  0  0  0
   14.5670  156.4500   20.3760 C   0  0  0  0  0  0
   15.5300  155.4350   20.1450 C   0  0  0  0  0  0
   16.1670  154.8250   21.2350 C   0  0  0  0  0  0
   15.8680  155.2050   22.5550 C   0  0  0  0  0  0
   14.9220  156.1980   22.7780 C   0  0  0  0  0  0
   14.5280  156.6810   24.0110 O   0  0  0  0  0  0
   13.8680  157.1290   19.3290 C   0  0  0  0  0  0
   12.9330  158.1320   19.6670 C   0  0  0  0  0  0
   15.7734  155.1311   19.1269 H   0  0  0  0  0  0
   16.9057  154.0438   21.0560 H   0  0  0  0  0  0
   16.3726  154.7261   23.3941 H   0  0  0  0  0  0
   13.7670  157.4728   24.0739 H   0  0  0  0  0  0
   14.0543  156.8760   18.2853 H   0  0  0  0  0  0
   12.3853  158.6740   18.8961 H   0  0  0  0  0  0
  1  2  2  0  0  0
  2  3  1  0  0  0
  2  4  1  0  0  0
  4  5  2  0  0  0
  4 14  1  0  0  0
  5  6  1  0  0  0
  6  7  2  0  0  0
  6 11  1  0  0  0
  7  8  1  0  0  0
  7 13  1  0  0  0
  8  9  2  0  0  0
  8 15  1  0  0  0
  9 10  1  0  0  0
  9 16  1  0  0  0
 10 11  2  0  0  0
 10 17  1  0  0  0
 11 12  1  0  0  0
 12 18  1  0  0  0
 13 14  2  0  0  0
 13 19  1  0  0  0
 14 20  1  0  0  0
M  CHG  1   3  -1
M  END
> <s_m_source_file>
../4lv4_ligand.sdf

> <i_m_source_file_index>
1

> <s_epik_input>
Tz1DKFtPSF0pYyhuMSlbY0hdW2NIXWMoYzEyKVtjSF1bY0hdW2NIXWMyW09IXQ==

> <s_epik_cmdline>
J2VwaWtfYXBwJywgJy1pbWFlJywgJ2xpZ2FuZF9wcm8ubWFlJywgJy1vbWFlJywgJ2xpZ2FuZF9wcmVwLm1hZScsICctbXMnLCAnMScsICctcGgnLCAnNycsICctcGh0JywgJzAuNScsICctbnQn

> <r_lp_tautomer_probability>
1

> <r_epik_Ionization_Penalty>
  0.0358

> <r_epik_Ionization_Penalty_Charging>
  0.0003

> <r_epik_Ionization_Penalty_Neutral>
  0.0355

> <r_epik_State_Penalty>
 -0.0000

> <r_epik_Charging_Adjusted_Penalty>
0.000284487210824075

> <i_epik_Tot_Q>
-1

> <i_epik_Tot_abs_Q>
1

$$$$
