4lvt_ligand
                    3D
 Schrodinger Suite 2020-3.
121127  0  0  1  0            999 V2000
    9.9910    5.7590   -4.5290 C   0  0  0  0  0  0
    8.0250    4.4560   -4.1250 C   0  0  0  0  0  0
    8.0570   -1.3920  -11.3280 C   0  0  0  0  0  0
    5.7850   -0.9660  -10.6380 C   0  0  0  0  0  0
    8.4510   -0.2480  -10.6760 C   0  0  0  0  0  0
    7.2300   -7.6080  -11.5980 C   0  0  0  0  0  0
    6.4660   -6.6220  -12.2060 C   0  0  0  0  0  0
    8.7010    3.7190   -3.1770 C   0  0  0  0  0  0
    8.6700    5.4680   -4.8080 C   0  0  0  0  0  0
    6.9060   -8.0140  -10.3210 C   0  0  0  0  0  0
    9.5500   -6.7900   -8.4610 C   0  0  0  0  0  0
    5.3950   -6.0570  -11.5350 C   0  0  0  0  0  0
   10.0250    4.0090   -2.9180 C   0  0  0  0  0  0
    8.2160    6.2570   -7.1020 C   0  0  0  0  0  0
    6.8740    7.1220   -5.1880 C   0  0  0  0  0  0
    8.1010   -4.4240   -8.2700 C   0  0  0  0  0  0
    8.8730   -4.6880   -9.3780 C   0  0  0  0  0  0
    8.0420   -5.3460   -7.2510 C   0  0  0  0  0  0
    6.2040    0.1810   -9.9880 C   0  0  0  0  0  0
    9.5970   -5.8600   -9.4700 C   0  0  0  0  0  0
    8.7660   -6.5200   -7.3550 C   0  0  0  0  0  0
   10.6840    5.0170   -3.5910 C   0  0  0  0  0  0
    5.0590   -6.4400  -10.2590 C   0  0  0  0  0  0
    6.7220   -1.7320  -11.3070 C   0  0  0  0  0  0
    7.5440    0.5470  -10.0080 C   0  0  0  0  0  0
    5.8490   -7.3970   -9.6870 C   0  0  0  0  0  0
    7.9390    6.2750   -5.7860 C   0  0  0  0  0  0
    6.3250   -2.9820  -11.9580 C   0  0  0  0  0  0
    7.4750    7.1200   -8.0620 C   0  0  0  0  0  0
    5.9670    7.6930   -6.2610 C   0  0  0  0  0  0
    6.9480    2.6030   -8.9670 C   0  0  0  0  0  0
    9.0880    2.3470  -10.0700 C   0  0  0  0  0  0
    7.5170    3.6500   -8.0320 C   0  0  0  0  0  0
    9.6920    3.4540   -9.2200 C   0  0  0  0  0  0
   10.4660  -12.9520   -8.6360 C   0  0  0  0  0  0
   10.1070  -14.3610  -10.5970 C   0  0  0  0  0  0
   10.5900  -14.2320   -7.8450 C   0  0  0  0  0  0
   10.3390  -15.5480   -9.6970 C   0  0  0  0  0  0
    6.7890    8.2780   -7.3740 C   0  0  0  0  0  0
    5.9040    9.0090   -8.3590 C   0  0  0  0  0  0
    7.7770    9.2640   -6.8040 C   0  0  0  0  0  0
    9.2380    5.3690   -7.7390 C   0  0  0  0  0  0
    8.8790  -10.9580   -9.6150 C   0  0  0  0  0  0
    9.2050  -12.0720  -10.5680 C   0  0  0  0  0  0
    9.9650   -8.8220  -10.2950 C   0  0  0  0  0  0
    8.6830   -9.6440  -10.3400 C   0  0  2  0  0  0
    4.3540   -9.3150   -8.5120 C   0  0  0  0  0  0
    8.0220    1.7010   -9.3400 N   0  0  0  0  0  0
    7.6150   -8.9860   -9.6030 N   0  0  0  0  0  0
    5.0060   -3.3430  -11.6540 N   0  0  0  0  0  0
    8.6410    4.3760   -8.6950 N   0  3  0  0  0  0
    9.5680  -13.2640   -9.7600 N   0  3  0  0  0  0
    7.0790   -3.7020  -12.5920 O   0  5  0  0  0  0
    6.5150   -8.5000   -7.3440 O   0  0  0  0  0  0
    4.5460   -6.9290   -7.4770 O   0  0  0  0  0  0
    3.0600   -4.9640  -11.6600 O   0  0  0  0  0  0
    4.4910   -4.7600  -13.6850 O   0  0  0  0  0  0
   11.2480  -15.1760   -8.6740 O   0  0  0  0  0  0
    3.8020   -9.8590   -7.4190 F   0  0  0  0  0  0
    3.2990   -8.9640   -9.2980 F   0  0  0  0  0  0
    5.0300  -10.3050   -9.1560 F   0  0  0  0  0  0
   10.4410   -8.3240   -8.6020 S   0  0  0  0  0  0
    5.4030   -7.9350   -8.0850 S   0  0  0  0  0  0
    4.3720   -4.7860  -12.2420 S   0  0  0  0  0  0
   10.8630    3.0740   -1.7390 Cl  0  0  0  0  0  0
   10.4888    6.5766   -5.0503 H   0  0  0  0  0  0
    6.9779    4.2394   -4.3364 H   0  0  0  0  0  0
    8.7834   -2.0154  -11.8493 H   0  0  0  0  0  0
    4.7357   -1.2605  -10.6231 H   0  0  0  0  0  0
    9.5031    0.0368  -10.6873 H   0  0  0  0  0  0
    8.0743   -8.0552  -12.1226 H   0  0  0  0  0  0
    6.7100   -6.2912  -13.2155 H   0  0  0  0  0  0
    8.1962    2.9170   -2.6384 H   0  0  0  0  0  0
    6.2672    6.5160   -4.4991 H   0  0  0  0  0  0
    7.3344    7.9545   -4.6357 H   0  0  0  0  0  0
    7.5407   -3.4916   -8.2004 H   0  0  0  0  0  0
    8.9134   -3.9641  -10.1919 H   0  0  0  0  0  0
    7.4303   -5.1533   -6.3696 H   0  0  0  0  0  0
    5.4800    0.8000   -9.4581 H   0  0  0  0  0  0
   10.2109   -6.0485  -10.3508 H   0  0  0  0  0  0
    8.7172   -7.2491   -6.5462 H   0  0  0  0  0  0
   11.7342    5.2249   -3.3864 H   0  0  0  0  0  0
    4.2097   -6.0047   -9.7324 H   0  0  0  0  0  0
    8.1765    7.5294   -8.8038 H   0  0  0  0  0  0
    6.7067    6.5225   -8.5746 H   0  0  0  0  0  0
    5.3289    6.8934   -6.6653 H   0  0  0  0  0  0
    5.3354    8.4815   -5.8258 H   0  0  0  0  0  0
    6.1484    2.0488   -8.4537 H   0  0  0  0  0  0
    6.5376    3.0944   -9.8615 H   0  0  0  0  0  0
    8.6860    2.7764  -10.9995 H   0  0  0  0  0  0
    9.8644    1.6068  -10.3138 H   0  0  0  0  0  0
    6.7297    4.3707   -7.7659 H   0  0  0  0  0  0
    7.8913    3.1624   -7.1198 H   0  0  0  0  0  0
   10.2248    3.0110   -8.3657 H   0  0  0  0  0  0
   10.3970    4.0399   -9.8280 H   0  0  0  0  0  0
   10.0450  -12.1639   -7.9944 H   0  0  0  0  0  0
   11.4600  -12.6431   -8.9919 H   0  0  0  0  0  0
   11.0588  -14.0593  -11.0586 H   0  0  0  0  0  0
    9.3877  -14.6324  -11.3837 H   0  0  0  0  0  0
   11.1754  -14.0441   -6.9328 H   0  0  0  0  0  0
    9.5875  -14.5915   -7.5697 H   0  0  0  0  0  0
    9.3839  -15.8618   -9.2506 H   0  0  0  0  0  0
   10.7590  -16.3774  -10.2849 H   0  0  0  0  0  0
    5.1742    8.3064   -8.7877 H   0  0  0  0  0  0
    6.5228    9.4317   -9.1643 H   0  0  0  0  0  0
    5.3715    9.8205   -7.8414 H   0  0  0  0  0  0
    8.4319    8.7520   -6.0836 H   0  0  0  0  0  0
    7.2343   10.0741   -6.2948 H   0  0  0  0  0  0
    8.3856    9.6853   -7.6177 H   0  0  0  0  0  0
    9.9572    5.9825   -8.3014 H   0  0  0  0  0  0
    9.7693    4.8034   -6.9594 H   0  0  0  0  0  0
    7.9516  -11.1978   -9.0742 H   0  0  0  0  0  0
    9.7025  -10.8381   -8.8956 H   0  0  0  0  0  0
    8.3270  -12.2871  -11.1947 H   0  0  0  0  0  0
   10.0478  -11.7721  -11.2081 H   0  0  0  0  0  0
   10.7937   -9.4120  -10.7134 H   0  0  0  0  0  0
    9.8331   -7.9042  -10.8868 H   0  0  0  0  0  0
    8.3958   -9.7603  -11.3955 H   0  0  0  0  0  0
    7.4151   -9.2650   -8.5579 H   0  0  0  0  0  0
    8.2229    4.8986   -9.5679 H   0  0  0  0  0  0
    8.6313  -13.6190   -9.3056 H   0  0  0  0  0  0
  1  9  2  0  0  0
  1 22  1  0  0  0
  1 66  1  0  0  0
  2  8  2  0  0  0
  2  9  1  0  0  0
  2 67  1  0  0  0
  3  5  2  0  0  0
  3 24  1  0  0  0
  3 68  1  0  0  0
  4 19  1  0  0  0
  4 24  2  0  0  0
  4 69  1  0  0  0
  5 25  1  0  0  0
  5 70  1  0  0  0
  6  7  2  0  0  0
  6 10  1  0  0  0
  6 71  1  0  0  0
  7 12  1  0  0  0
  7 72  1  0  0  0
  8 13  1  0  0  0
  8 73  1  0  0  0
  9 27  1  0  0  0
 10 26  2  0  0  0
 10 49  1  0  0  0
 11 20  2  0  0  0
 11 21  1  0  0  0
 11 62  1  0  0  0
 12 23  2  0  0  0
 12 64  1  0  0  0
 13 22  2  0  0  0
 13 65  1  0  0  0
 14 27  2  0  0  0
 14 29  1  0  0  0
 14 42  1  0  0  0
 15 27  1  0  0  0
 15 30  1  0  0  0
 15 74  1  0  0  0
 15 75  1  0  0  0
 16 17  2  0  0  0
 16 18  1  0  0  0
 16 76  1  0  0  0
 17 20  1  0  0  0
 17 77  1  0  0  0
 18 21  2  0  0  0
 18 78  1  0  0  0
 19 25  2  0  0  0
 19 79  1  0  0  0
 20 80  1  0  0  0
 21 81  1  0  0  0
 22 82  1  0  0  0
 23 26  1  0  0  0
 23 83  1  0  0  0
 24 28  1  0  0  0
 25 48  1  0  0  0
 26 63  1  0  0  0
 28 50  2  0  0  0
 28 53  1  0  0  0
 29 39  1  0  0  0
 29 84  1  0  0  0
 29 85  1  0  0  0
 30 39  1  0  0  0
 30 86  1  0  0  0
 30 87  1  0  0  0
 31 33  1  0  0  0
 31 48  1  0  0  0
 31 88  1  0  0  0
 31 89  1  0  0  0
 32 34  1  0  0  0
 32 48  1  0  0  0
 32 90  1  0  0  0
 32 91  1  0  0  0
 33 51  1  0  0  0
 33 92  1  0  0  0
 33 93  1  0  0  0
 34 51  1  0  0  0
 34 94  1  0  0  0
 34 95  1  0  0  0
 35 37  1  0  0  0
 35 52  1  0  0  0
 35 96  1  0  0  0
 35 97  1  0  0  0
 36 38  1  0  0  0
 36 52  1  0  0  0
 36 98  1  0  0  0
 36 99  1  0  0  0
 37 58  1  0  0  0
 37100  1  0  0  0
 37101  1  0  0  0
 38 58  1  0  0  0
 38102  1  0  0  0
 38103  1  0  0  0
 39 40  1  0  0  0
 39 41  1  0  0  0
 40104  1  0  0  0
 40105  1  0  0  0
 40106  1  0  0  0
 41107  1  0  0  0
 41108  1  0  0  0
 41109  1  0  0  0
 42 51  1  0  0  0
 42110  1  0  0  0
 42111  1  0  0  0
 43 44  1  0  0  0
 43 46  1  0  0  0
 43112  1  0  0  0
 43113  1  0  0  0
 44 52  1  0  0  0
 44114  1  0  0  0
 44115  1  0  0  0
 45 46  1  0  0  0
 45 62  1  0  0  0
 45116  1  0  0  0
 45117  1  0  0  0
 46 49  1  0  0  0
 46118  1  0  0  0
 47 59  1  0  0  0
 47 60  1  0  0  0
 47 61  1  0  0  0
 47 63  1  0  0  0
 49119  1  0  0  0
 50 64  1  0  0  0
 51120  1  0  0  0
 52121  1  0  0  0
 54 63  2  0  0  0
 55 63  2  0  0  0
 56 64  2  0  0  0
 57 64  2  0  0  0
M  CHG  3  51   1  52   1  53  -1
M  END
> <s_m_source_file>
../4lvt_ligand.sdf

> <i_m_source_file_index>
1

> <s_epik_input>
W2NIXTFbY0hdYyhDbClbY0hdW2NIXWMxQyhbQ0gyXVtDSDJdMik9QyhbQ0gyXUMyKFtDSDNdKVtDSDNdKVtDSDJdW05IK10oW0NIMl1bQ0gyXTMpW0NIMl1bQ0gyXU4zYyhbY0hdW2NIXTQpW2NIXVtjSF1jNEMoPU8pW05IXVMoPU8pKD1PKWMoW2NIXWM1Uyg9TykoPU8pQyhGKShGKUYpW2NIXVtjSF1jNVtOSF1bQ0BIXShbQ0gyXVtDSDJdW05IK102W0NIMl1bQ0gyXU9bQ0gyXVtDSDJdNilbQ0gyXVNjN1tjSF1bY0hdW2NIXVtjSF1bY0hdNw==

> <s_epik_cmdline>
J2VwaWtfYXBwJywgJy1pbWFlJywgJ2xpZ2FuZF9wcm8ubWFlJywgJy1vbWFlJywgJ2xpZ2FuZF9wcmVwLm1hZScsICctbXMnLCAnMScsICctcGgnLCAnNycsICctcGh0JywgJzAuNScsICctbnQn

> <r_lp_tautomer_probability>
1

> <r_epik_Ionization_Penalty>
  0.1780

> <r_epik_Ionization_Penalty_Charging>
  0.1779

> <r_epik_Ionization_Penalty_Neutral>
  0.0000

> <r_epik_State_Penalty>
 -0.0000

> <r_epik_Charging_Adjusted_Penalty>
0.177909434977838

> <i_epik_Tot_Q>
1

> <i_epik_Tot_abs_Q>
3

$$$$
