4lwt_ligand
                    3D
 Schrodinger Suite 2020-3.
 50 53  0  0  1  0            999 V2000
   12.9010   10.1710   33.0750 C   0  0  0  0  0  0
   11.7150    9.2850   34.8110 C   0  0  0  0  0  0
   12.8530   10.0930   35.4400 C   0  0  1  0  0  0
   13.5740   10.5250   34.2060 C   0  0  0  0  0  0
   11.7850    9.4000   33.4340 N   0  0  0  0  0  0
   13.2550   10.5380   31.8010 C   0  0  0  0  0  0
   14.7540   11.2410   34.1360 C   0  0  0  0  0  0
   15.1970   11.6650   32.8860 C   0  0  0  0  0  0
   14.4080   11.3690   31.7200 C   0  0  0  0  0  0
   10.3080   13.8660   34.1220 C   0  0  0  0  0  0
   10.4740   15.3250   33.3190 Cl  0  0  0  0  0  0
   11.4200   13.2570   34.7980 C   0  0  0  0  0  0
   11.2080   12.0430   35.4630 C   0  0  0  0  0  0
   12.3350   11.3450   36.2040 C   0  0  0  0  0  0
   13.7480    9.2100   36.3320 C   0  0  2  0  0  0
    9.9380   11.4520   35.4620 C   0  0  0  0  0  0
    8.8720   12.0570   34.7940 C   0  0  0  0  0  0
    9.0410   13.2460   34.1240 C   0  0  0  0  0  0
   12.9170    8.2860   37.2260 C   0  0  0  0  0  0
   13.8110    7.4840   38.0820 N   0  0  0  0  0  0
   14.8060    8.2080   38.8910 C   0  0  0  0  0  0
   15.6240    9.1570   38.0020 C   0  0  0  0  0  0
   14.6950   10.0620   37.1830 C   0  0  0  0  0  0
   10.8480    8.6190   35.3930 O   0  0  0  0  0  0
   14.8350   12.0590   30.2780 Cl  0  0  0  0  0  0
   13.8650    6.1530   37.9650 C   0  0  0  0  0  0
   14.7410    5.5120   38.5590 O   0  0  0  0  0  0
   12.8200    5.5170   37.0910 C   0  0  0  0  0  0
   11.1244    8.9924   32.6546 H   0  0  0  0  0  0
   12.6974   10.2185   30.9206 H   0  0  0  0  0  0
   15.3237   11.4681   35.0371 H   0  0  0  0  0  0
   16.1327   12.2160   32.7917 H   0  0  0  0  0  0
   12.4031   13.7277   34.7933 H   0  0  0  0  0  0
   11.9582   11.0418   37.1920 H   0  0  0  0  0  0
   13.1579   12.0640   36.3303 H   0  0  0  0  0  0
   14.3551    8.5780   35.6672 H   0  0  0  0  0  0
    9.7806   10.5104   35.9880 H   0  0  0  0  0  0
    7.8918   11.5803   34.8036 H   0  0  0  0  0  0
    8.2033   13.7052   33.5991 H   0  0  0  0  0  0
   12.2516    8.8904   37.8600 H   0  0  0  0  0  0
   12.3141    7.6134   36.5983 H   0  0  0  0  0  0
   14.2914    8.7950   39.6660 H   0  0  0  0  0  0
   15.4856    7.4866   39.3682 H   0  0  0  0  0  0
   16.2692    9.7857   38.6332 H   0  0  0  0  0  0
   16.2470    8.5680   37.3129 H   0  0  0  0  0  0
   15.3016   10.7029   36.5263 H   0  0  0  0  0  0
   14.1071   10.6908   37.8678 H   0  0  0  0  0  0
   12.1618    6.2966   36.6799 H   0  0  0  0  0  0
   12.2237    4.8106   37.6872 H   0  0  0  0  0  0
   13.3099    4.9784   36.2664 H   0  0  0  0  0  0
  1  4  2  0  0  0
  1  5  1  0  0  0
  1  6  1  0  0  0
  2  3  1  0  0  0
  2  5  1  0  0  0
  2 24  2  0  0  0
  3  4  1  0  0  0
  3 14  1  0  0  0
  3 15  1  0  0  0
  4  7  1  0  0  0
  5 29  1  0  0  0
  6  9  2  0  0  0
  6 30  1  0  0  0
  7  8  2  0  0  0
  7 31  1  0  0  0
  8  9  1  0  0  0
  8 32  1  0  0  0
  9 25  1  0  0  0
 10 11  1  0  0  0
 10 12  2  0  0  0
 10 18  1  0  0  0
 12 13  1  0  0  0
 12 33  1  0  0  0
 13 14  1  0  0  0
 13 16  2  0  0  0
 14 34  1  0  0  0
 14 35  1  0  0  0
 15 19  1  0  0  0
 15 23  1  0  0  0
 15 36  1  0  0  0
 16 17  1  0  0  0
 16 37  1  0  0  0
 17 18  2  0  0  0
 17 38  1  0  0  0
 18 39  1  0  0  0
 19 20  1  0  0  0
 19 40  1  0  0  0
 19 41  1  0  0  0
 20 21  1  0  0  0
 20 26  1  0  0  0
 21 22  1  0  0  0
 21 42  1  0  0  0
 21 43  1  0  0  0
 22 23  1  0  0  0
 22 44  1  0  0  0
 22 45  1  0  0  0
 23 46  1  0  0  0
 23 47  1  0  0  0
 26 27  2  0  0  0
 26 28  1  0  0  0
 28 48  1  0  0  0
 28 49  1  0  0  0
 28 50  1  0  0  0
M  END
> <s_m_source_file>
../4lwt_ligand.sdf

> <i_m_source_file_index>
1

> <s_epik_input>
W2NIXTFjKENsKVtjSF1bY0hdYyhjMTIpW0NAXShDKD1PKVtOSF0yKShbQ0gyXWMoW2NIXWMzQ2wpW2NIXVtjSF1bY0hdMylbQ0BASF00W0NIMl1OKEMoPU8pW0NIM10pW0NIMl1bQ0gyXVtDSDJdNA==

> <s_epik_cmdline>
J2VwaWtfYXBwJywgJy1pbWFlJywgJ2xpZ2FuZF9wcm8ubWFlJywgJy1vbWFlJywgJ2xpZ2FuZF9wcmVwLm1hZScsICctbXMnLCAnMScsICctcGgnLCAnNycsICctcGh0JywgJzAuNScsICctbnQn

> <r_lp_tautomer_probability>
1

> <r_epik_Ionization_Penalty>
  0.0000

> <r_epik_Ionization_Penalty_Charging>
  0.0000

> <r_epik_Ionization_Penalty_Neutral>
  0.0000

> <r_epik_State_Penalty>
 -0.0000

> <r_epik_Charging_Adjusted_Penalty>
0

> <i_epik_Tot_Q>
0

> <i_epik_Tot_abs_Q>
0

$$$$
