4lww_ligand
                    3D
 Schrodinger Suite 2020-3.
 45 48  0  0  1  0            999 V2000
   15.2040    4.6870   -3.0190 C   0  0  0  0  0  0
   15.4390    5.2770   -4.2460 C   0  0  0  0  0  0
   16.4440    4.7910   -5.0620 C   0  0  0  0  0  0
   14.8760    6.4330   -0.9760 C   0  0  0  0  0  0
   16.4120    8.1500    0.5780 C   0  0  0  0  0  0
   15.6450    5.9470    0.0640 C   0  0  0  0  0  0
   15.2940   10.4100    4.2670 C   0  0  0  0  0  0
   14.1430   11.0130    4.6600 C   0  0  0  0  0  0
   14.1140   10.9320    6.0780 C   0  0  0  0  0  0
   15.5020   10.0380    7.8560 C   0  0  0  0  0  0
   17.2210    3.7260   -4.6430 C   0  0  0  0  0  0
   16.9960    3.1370   -3.4130 C   0  0  0  0  0  0
   15.9910    3.6250   -2.5980 C   0  0  0  0  0  0
   13.9440    5.2880   -1.9400 S   0  0  0  0  0  0
   12.9530    5.9670   -2.6920 O   0  0  0  0  0  0
   13.6450    4.1890   -1.0840 O   0  0  0  0  0  0
   14.8900    7.7870   -1.2540 C   0  0  0  0  0  0
   15.6620    8.6350   -0.4800 C   0  0  0  0  0  0
   16.4120    6.7960    0.8390 C   0  0  0  0  0  0
   17.2700    9.0860    1.3870 C   0  0  0  0  0  0
   16.7680    9.3470    2.7340 N   0  0  0  0  0  0
   15.7560   10.2130    2.9000 C   0  0  0  0  0  0
   15.2260   10.7730    1.9560 O   0  0  0  0  0  0
   13.2190   11.3560    7.0520 C   0  0  0  0  0  0
   13.4640   11.1130    8.3270 N   0  0  0  0  0  0
   14.5570   10.4750    8.7310 C   0  0  0  0  0  0
   15.2940   10.2550    6.4860 C   0  0  0  0  0  0
   15.9950    9.9380    5.3600 N   0  3  0  0  0  0
   14.8336    6.1235   -4.5700 H   0  0  0  0  0  0
   16.6240    5.2471   -6.0355 H   0  0  0  0  0  0
   15.6467    4.8779    0.2763 H   0  0  0  0  0  0
   13.3909   11.4686    4.0159 H   0  0  0  0  0  0
   16.3995    9.5313    8.2109 H   0  0  0  0  0  0
   18.0156    3.3490   -5.2868 H   0  0  0  0  0  0
   17.6061    2.2943   -3.0879 H   0  0  0  0  0  0
   15.8166    3.1736   -1.6213 H   0  0  0  0  0  0
   14.2967    8.1840   -2.0777 H   0  0  0  0  0  0
   15.6801    9.7010   -0.7065 H   0  0  0  0  0  0
   17.0152    6.3965    1.6542 H   0  0  0  0  0  0
   18.2775    8.6581    1.4959 H   0  0  0  0  0  0
   17.3374   10.0570    0.8745 H   0  0  0  0  0  0
   17.2189    8.8362    3.5976 H   0  0  0  0  0  0
   12.3134   11.8899    6.7638 H   0  0  0  0  0  0
   14.7008   10.2963    9.7966 H   0  0  0  0  0  0
   16.9489    9.4097    5.2153 H   0  0  0  0  0  0
  1  2  2  0  0  0
  1 13  1  0  0  0
  1 14  1  0  0  0
  2  3  1  0  0  0
  2 29  1  0  0  0
  3 11  2  0  0  0
  3 30  1  0  0  0
  4  6  2  0  0  0
  4 14  1  0  0  0
  4 17  1  0  0  0
  5 18  1  0  0  0
  5 19  2  0  0  0
  5 20  1  0  0  0
  6 19  1  0  0  0
  6 31  1  0  0  0
  7  8  2  0  0  0
  7 22  1  0  0  0
  7 28  1  0  0  0
  8  9  1  0  0  0
  8 32  1  0  0  0
  9 24  2  0  0  0
  9 27  1  0  0  0
 10 26  2  0  0  0
 10 27  1  0  0  0
 10 33  1  0  0  0
 11 12  1  0  0  0
 11 34  1  0  0  0
 12 13  2  0  0  0
 12 35  1  0  0  0
 13 36  1  0  0  0
 14 15  2  0  0  0
 14 16  2  0  0  0
 17 18  2  0  0  0
 17 37  1  0  0  0
 18 38  1  0  0  0
 19 39  1  0  0  0
 20 21  1  0  0  0
 20 40  1  0  0  0
 20 41  1  0  0  0
 21 22  1  0  0  0
 21 42  1  0  0  0
 22 23  2  0  0  0
 24 25  1  0  0  0
 24 43  1  0  0  0
 25 26  1  0  0  0
 26 44  1  0  0  0
 27 28  2  0  0  0
 28 45  1  0  0  0
M  CHG  1  28   1
M  END
> <s_m_source_file>
../4lww_ligand.sdf

> <i_m_source_file_index>
1

> <s_epik_input>
W2NIXTFbY0hdW2NIXVtjSF1bY0hdYzFTKD1PKSg9TyljMltjSF1bY0hdYyhbY0hdW2NIXTIpW0NIMl1bTkhdQyg9TyljKFtjSF0zKW5jKGMzNClbY0hdW2NIXVtuSF1bY0hdNA==

> <s_epik_cmdline>
J2VwaWtfYXBwJywgJy1pbWFlJywgJ2xpZ2FuZF9wcm8ubWFlJywgJy1vbWFlJywgJ2xpZ2FuZF9wcmVwLm1hZScsICctbXMnLCAnMScsICctcGgnLCAnNycsICctcGh0JywgJzAuNScsICctbnQn

> <r_lp_tautomer_probability>
1

> <r_epik_Ionization_Penalty>
  0.0002

> <r_epik_Ionization_Penalty_Charging>
  0.0000

> <r_epik_Ionization_Penalty_Neutral>
  0.0002

> <r_epik_State_Penalty>
 -0.0000

> <r_epik_Charging_Adjusted_Penalty>
1.65996099918305e-08

> <i_epik_Tot_Q>
1

> <i_epik_Tot_abs_Q>
1

$$$$
