4lxa_ligand
                    3D
 Schrodinger Suite 2020-3.
 72 74  0  0  1  0            999 V2000
   27.8630    9.2250   18.6900 F   0  0  0  0  0  0
   28.4790    9.2130   19.9050 C   0  0  0  0  0  0
   28.3380   10.4390   20.4650 F   0  0  0  0  0  0
   27.8300    8.2970   20.6690 F   0  0  0  0  0  0
   29.9840    8.8470   19.7250 C   0  0  0  0  0  0
   30.6190    9.8800   18.9450 O   0  0  0  0  0  0
   30.9180    9.6780   17.5980 C   0  0  0  0  0  0
   30.5380   10.6680   16.6570 C   0  0  0  0  0  0
   30.8240   10.4630   15.2800 C   0  0  0  0  0  0
   31.4810    9.2900   14.8540 C   0  0  0  0  0  0
   31.8560    8.3020   15.7970 C   0  0  0  0  0  0
   31.5770    8.5040   17.1660 C   0  0  0  0  0  0
   32.5420    6.9950   15.3660 C   0  0  0  0  0  0
   31.4750    6.0780   14.6590 C   0  0  1  0  0  0
   32.0500    4.6750   14.2880 C   0  0  1  0  0  0
   31.0760    3.8250   13.4110 C   0  0  2  0  0  0
   29.6510    3.6340   14.0210 C   0  0  0  0  0  0
   28.8500    5.1960   14.4150 S   0  0  1  0  0  0
   30.1260    5.9160   15.4450 C   0  0  0  0  0  0
   28.8150    6.0360   13.1660 O   0  0  0  0  0  0
   31.7170    2.5270   13.0340 N   0  3  0  0  0  0
   31.1730    1.6580   11.9410 C   0  0  0  0  0  0
   31.0220    2.4820   10.6450 C   0  0  0  0  0  0
   32.1710    2.9440    9.9630 C   0  0  0  0  0  0
   32.0950    3.7170    8.7650 C   0  0  0  0  0  0
   30.7830    4.0080    8.2820 C   0  0  0  0  0  0
   29.6170    3.5520    8.9480 C   0  0  0  0  0  0
   29.7330    2.7880   10.1300 C   0  0  0  0  0  0
   33.4180    4.1930    8.0650 C   0  0  0  0  0  0
   34.3730    2.9820    7.8190 C   0  0  0  0  0  0
   33.2530    4.8860    6.6710 C   0  0  0  0  0  0
   34.1470    5.2380    8.9640 C   0  0  0  0  0  0
   33.2770    4.8500   13.5560 O   0  0  0  0  0  0
   30.4750   11.3660   14.3710 F   0  0  0  0  0  0
   29.9050   11.7950   17.0740 N   0  0  0  0  0  0
   30.8150    8.6840   21.0270 C   0  0  0  0  0  0
   30.2270    7.8520   21.9210 F   0  0  0  0  0  0
   32.0320    8.1730   20.7170 F   0  0  0  0  0  0
   31.0090    9.9060   21.5770 F   0  0  0  0  0  0
   30.0142    7.8909   19.1820 H   0  0  0  0  0  0
   31.7007    9.1434   13.7965 H   0  0  0  0  0  0
   31.8717    7.7495   17.8953 H   0  0  0  0  0  0
   33.3610    7.2236   14.6681 H   0  0  0  0  0  0
   32.9471    6.4841   16.2519 H   0  0  0  0  0  0
   31.2324    6.6146   13.7299 H   0  0  0  0  0  0
   32.2907    4.1309   15.2132 H   0  0  0  0  0  0
   30.9146    4.3679   12.4680 H   0  0  0  0  0  0
   29.0128    3.0999   13.3016 H   0  0  0  0  0  0
   29.7251    3.0495   14.9499 H   0  0  0  0  0  0
   30.2843    5.2598   16.3136 H   0  0  0  0  0  0
   29.7811    6.9024   15.7887 H   0  0  0  0  0  0
   28.1036    5.7965   12.3619 H   0  0  0  0  0  0
   32.7517    2.7099   12.7087 H   0  0  0  0  0  0
   31.7197    1.8532   13.9035 H   0  0  0  0  0  0
   31.8627    0.8201   11.7612 H   0  0  0  0  0  0
   30.1896    1.2658   12.2395 H   0  0  0  0  0  0
   33.1534    2.7005   10.3676 H   0  0  0  0  0  0
   30.6744    4.5993    7.3728 H   0  0  0  0  0  0
   28.6317    3.7911    8.5478 H   0  0  0  0  0  0
   28.8392    2.4350   10.6444 H   0  0  0  0  0  0
   33.8670    2.2389    7.1852 H   0  0  0  0  0  0
   34.6381    2.5224    8.7826 H   0  0  0  0  0  0
   35.2866    3.3318    7.3159 H   0  0  0  0  0  0
   32.7416    4.2007    5.9791 H   0  0  0  0  0  0
   34.2445    5.1409    6.2686 H   0  0  0  0  0  0
   32.6570    5.8034    6.7859 H   0  0  0  0  0  0
   34.2980    4.8157    9.9684 H   0  0  0  0  0  0
   33.5348    6.1490    9.0375 H   0  0  0  0  0  0
   35.1224    5.4865    8.5202 H   0  0  0  0  0  0
   34.1042    5.4244   13.9984 H   0  0  0  0  0  0
   29.6896   11.9414   18.1427 H   0  0  0  0  0  0
   29.6078   12.5614   16.3430 H   0  0  0  0  0  0
  1  2  1  0  0  0
  2  3  1  0  0  0
  2  4  1  0  0  0
  2  5  1  0  0  0
  5  6  1  0  0  0
  5 36  1  0  0  0
  5 40  1  0  0  0
  6  7  1  0  0  0
  7  8  2  0  0  0
  7 12  1  0  0  0
  8  9  1  0  0  0
  8 35  1  0  0  0
  9 10  2  0  0  0
  9 34  1  0  0  0
 10 11  1  0  0  0
 10 41  1  0  0  0
 11 12  2  0  0  0
 11 13  1  0  0  0
 12 42  1  0  0  0
 13 14  1  0  0  0
 13 43  1  0  0  0
 13 44  1  0  0  0
 14 15  1  0  0  0
 14 19  1  0  0  0
 14 45  1  0  0  0
 15 16  1  0  0  0
 15 33  1  0  0  0
 15 46  1  0  0  0
 16 17  1  0  0  0
 16 21  1  0  0  0
 16 47  1  0  0  0
 17 18  1  0  0  0
 17 48  1  0  0  0
 17 49  1  0  0  0
 18 19  1  0  0  0
 18 20  1  0  0  0
 19 50  1  0  0  0
 19 51  1  0  0  0
 20 52  1  0  0  0
 21 22  1  0  0  0
 21 53  1  0  0  0
 21 54  1  0  0  0
 22 23  1  0  0  0
 22 55  1  0  0  0
 22 56  1  0  0  0
 23 24  2  0  0  0
 23 28  1  0  0  0
 24 25  1  0  0  0
 24 57  1  0  0  0
 25 26  2  0  0  0
 25 29  1  0  0  0
 26 27  1  0  0  0
 26 58  1  0  0  0
 27 28  2  0  0  0
 27 59  1  0  0  0
 28 60  1  0  0  0
 29 30  1  0  0  0
 29 31  1  0  0  0
 29 32  1  0  0  0
 30 61  1  0  0  0
 30 62  1  0  0  0
 30 63  1  0  0  0
 31 64  1  0  0  0
 31 65  1  0  0  0
 31 66  1  0  0  0
 32 67  1  0  0  0
 32 68  1  0  0  0
 32 69  1  0  0  0
 33 70  1  0  0  0
 35 71  1  0  0  0
 35 72  1  0  0  0
 36 37  1  0  0  0
 36 38  1  0  0  0
 36 39  1  0  0  0
M  CHG  1  21   1
M  END
> <s_m_source_file>
../4lxa_ligand.sdf

> <i_m_source_file_index>
1

> <s_epik_input>
RkMoRikoRilbQ0hdKEMoRikoRilGKU9jMWMoW05IMl0pYyhGKVtjSF1jKFtjSF0xKVtDSDJdW0NASF0yW0NASF0oW09IXSlbQ0BIXShbQ0gyXVtTQEBIXShbQ0gyXTIpW09IXSlbTkgyK11bQ0gyXWMzW2NIXWMoQyhbQ0gzXSkoW0NIM10pW0NIM10pW2NIXVtjSF1bY0hdMw==

> <s_epik_cmdline>
J2VwaWtfYXBwJywgJy1pbWFlJywgJ2xpZ2FuZF9wcm8ubWFlJywgJy1vbWFlJywgJ2xpZ2FuZF9wcmVwLm1hZScsICctbXMnLCAnMScsICctcGgnLCAnNycsICctcGh0JywgJzAuNScsICctbnQn

> <r_epik_Ionization_Penalty>
  0.0142

> <r_epik_Ionization_Penalty_Charging>
  0.0117

> <r_epik_Ionization_Penalty_Neutral>
  0.0025

> <r_epik_State_Penalty>
  0.0090

> <r_epik_Charging_Adjusted_Penalty>
0.020627048202242

> <i_epik_Tot_Q>
1

> <i_epik_Tot_abs_Q>
1

$$$$
