4lxb_ligand
                    3D
 Schrodinger Suite 2020-3.
 75 78  0  0  1  0            999 V2000
   17.4050  -11.4500   12.3260 C   0  0  0  0  0  0
   17.5710  -10.3800   11.3690 C   0  0  0  0  0  0
   16.7870   -9.3230   11.6920 C   0  0  0  0  0  0
   16.7060   -7.8680   10.8470 Cl  0  0  0  0  0  0
   15.8580   -9.5910   13.0900 S   0  0  0  0  0  0
   16.4970  -11.1360   13.2830 C   0  0  0  0  0  0
   15.9350  -11.9970   14.2600 C   0  0  0  0  0  0
   15.2940  -11.4910   15.1940 O   0  0  0  0  0  0
   16.1370  -13.3720   14.1580 N   0  0  0  0  0  0
   15.5430  -14.2330   15.1650 C   0  0  0  0  0  0
   14.1430  -14.6990   14.7680 C   0  0  1  0  0  0
   13.1900  -13.5030   14.4920 C   0  0  0  0  0  0
   13.1220  -13.0330   13.3380 O   0  0  0  0  0  0
   12.4380  -13.0390   15.5630 N   0  0  0  0  0  0
   11.8140  -11.7290   15.6340 C   0  0  0  0  0  0
   12.1600  -13.8250   16.7660 C   0  0  0  0  0  0
   10.8710  -13.2400   17.3030 C   0  0  0  0  0  0
   10.5890  -11.9470   16.5200 C   0  0  2  0  0  0
    9.3050  -11.9810   15.7900 N   0  3  0  0  0  0
    9.3030  -12.9530   14.7020 C   0  0  0  0  0  0
    8.1510  -12.1740   16.6710 C   0  0  0  0  0  0
   14.1190  -15.5040   13.5860 N   0  0  3  0  0  0
   13.2920  -16.9400   13.5640 S   0  0  0  0  0  0
   13.7390  -17.6090   14.7570 O   0  0  0  0  0  0
   13.6030  -17.5230   12.3220 O   0  0  0  0  0  0
   11.6640  -16.5670   13.7410 C   0  0  0  0  0  0
   10.8740  -15.9040   12.7670 C   0  0  0  0  0  0
   11.5170  -15.5090   11.6130 O   0  0  0  0  0  0
   11.4360  -16.2770   10.4910 C   0  0  0  0  0  0
   11.8960  -15.5500    9.4920 F   0  0  0  0  0  0
   10.2250  -16.4490    9.9980 F   0  0  0  0  0  0
   10.9860  -16.9920   14.9200 C   0  0  0  0  0  0
    9.6250  -16.7960   15.1130 C   0  0  0  0  0  0
    8.8580  -16.1530   14.1380 C   0  0  0  0  0  0
    9.4640  -15.6850   12.9270 C   0  0  0  0  0  0
    8.6210  -15.0330   11.9300 N   0  0  0  0  0  0
    9.0150  -13.7300   11.3700 C   0  0  0  0  0  0
    8.4980  -13.4860    9.9780 C   0  0  0  0  0  0
    7.0120  -13.7020    9.8930 C   0  0  0  0  0  0
    6.5550  -14.9960   10.4950 C   0  0  0  0  0  0
    7.4160  -15.6470   11.5220 C   0  0  0  0  0  0
    7.0410  -16.7080   12.0060 O   0  0  0  0  0  0
   17.9449  -12.3960   12.2837 H   0  0  0  0  0  0
   18.2356  -10.4179   10.5059 H   0  0  0  0  0  0
   16.7293  -13.8091   13.3406 H   0  0  0  0  0  0
   16.1740  -15.1232   15.3047 H   0  0  0  0  0  0
   15.4654  -13.6856   16.1160 H   0  0  0  0  0  0
   13.8172  -15.3592   15.5853 H   0  0  0  0  0  0
   12.5202  -11.0099   16.0747 H   0  0  0  0  0  0
   11.5384  -11.3988   14.6216 H   0  0  0  0  0  0
   12.0501  -14.8852   16.4940 H   0  0  0  0  0  0
   12.9916  -13.7133   17.4773 H   0  0  0  0  0  0
   10.0533  -13.9619   17.1604 H   0  0  0  0  0  0
   10.9856  -13.0229   18.3753 H   0  0  0  0  0  0
   10.4144  -11.0786   17.1723 H   0  0  0  0  0  0
    9.1926  -10.9878   15.3307 H   0  0  0  0  0  0
   10.1788  -12.7844   14.0581 H   0  0  0  0  0  0
    8.3840  -12.8373   14.1087 H   0  0  0  0  0  0
    9.3447  -13.9701   15.1189 H   0  0  0  0  0  0
    8.1787  -11.4291   17.4799 H   0  0  0  0  0  0
    8.1842  -13.1853   17.1025 H   0  0  0  0  0  0
    7.2235  -12.0525   16.0922 H   0  0  0  0  0  0
   14.5077  -15.1019   12.6387 H   0  0  0  0  0  0
   11.9182  -17.2291   10.7573 H   0  0  0  0  0  0
   11.5587  -17.4910   15.7017 H   0  0  0  0  0  0
    9.1521  -17.1458   16.0306 H   0  0  0  0  0  0
    7.7901  -16.0063   14.3000 H   0  0  0  0  0  0
    8.6258  -12.9236   12.0089 H   0  0  0  0  0  0
   10.1123  -13.6662   11.3266 H   0  0  0  0  0  0
    8.7153  -12.4489    9.6827 H   0  0  0  0  0  0
    8.9897  -14.1773    9.2778 H   0  0  0  0  0  0
    6.4927  -12.8919   10.4259 H   0  0  0  0  0  0
    6.7016  -13.7046    8.8377 H   0  0  0  0  0  0
    5.5869  -14.8460   10.9952 H   0  0  0  0  0  0
    6.4451  -15.7506    9.7023 H   0  0  0  0  0  0
  1  2  1  0  0  0
  1  6  2  0  0  0
  1 43  1  0  0  0
  2  3  2  0  0  0
  2 44  1  0  0  0
  3  4  1  0  0  0
  3  5  1  0  0  0
  5  6  1  0  0  0
  6  7  1  0  0  0
  7  8  2  0  0  0
  7  9  1  0  0  0
  9 10  1  0  0  0
  9 45  1  0  0  0
 10 11  1  0  0  0
 10 46  1  0  0  0
 10 47  1  0  0  0
 11 12  1  0  0  0
 11 22  1  0  0  0
 11 48  1  0  0  0
 12 13  2  0  0  0
 12 14  1  0  0  0
 14 15  1  0  0  0
 14 16  1  0  0  0
 15 18  1  0  0  0
 15 49  1  0  0  0
 15 50  1  0  0  0
 16 17  1  0  0  0
 16 51  1  0  0  0
 16 52  1  0  0  0
 17 18  1  0  0  0
 17 53  1  0  0  0
 17 54  1  0  0  0
 18 19  1  0  0  0
 18 55  1  0  0  0
 19 20  1  0  0  0
 19 21  1  0  0  0
 19 56  1  0  0  0
 20 57  1  0  0  0
 20 58  1  0  0  0
 20 59  1  0  0  0
 21 60  1  0  0  0
 21 61  1  0  0  0
 21 62  1  0  0  0
 22 23  1  0  0  0
 22 63  1  0  0  0
 23 24  2  0  0  0
 23 25  2  0  0  0
 23 26  1  0  0  0
 26 27  2  0  0  0
 26 32  1  0  0  0
 27 28  1  0  0  0
 27 35  1  0  0  0
 28 29  1  0  0  0
 29 30  1  0  0  0
 29 31  1  0  0  0
 29 64  1  0  0  0
 32 33  2  0  0  0
 32 65  1  0  0  0
 33 34  1  0  0  0
 33 66  1  0  0  0
 34 35  2  0  0  0
 34 67  1  0  0  0
 35 36  1  0  0  0
 36 37  1  0  0  0
 36 41  1  0  0  0
 37 38  1  0  0  0
 37 68  1  0  0  0
 37 69  1  0  0  0
 38 39  1  0  0  0
 38 70  1  0  0  0
 38 71  1  0  0  0
 39 40  1  0  0  0
 39 72  1  0  0  0
 39 73  1  0  0  0
 40 41  1  0  0  0
 40 74  1  0  0  0
 40 75  1  0  0  0
 41 42  2  0  0  0
M  CHG  1  19   1
M  END
> <s_m_source_file>
../4lxb_ligand.sdf

> <i_m_source_file_index>
1

> <s_epik_input>
Q2xjMVtjSF1bY0hdYyhzMSlDKD1PKVtOSF1bQ0gyXVtDQEBIXShDKD1PKU4yW0NIMl1bQ0BIXShbQ0gyXVtDSDJdMilbTkgrXShbQ0gzXSlbQ0gzXSlbTkhdUyg9TykoPU8pYzNjKE9bQ0hdKEYpRiljKFtjSF1bY0hdW2NIXTMpTjRbQ0gyXVtDSDJdW0NIMl1bQ0gyXUM0PU8=

> <s_epik_cmdline>
J2VwaWtfYXBwJywgJy1pbWFlJywgJ2xpZ2FuZF9wcm8ubWFlJywgJy1vbWFlJywgJ2xpZ2FuZF9wcmVwLm1hZScsICctbXMnLCAnMScsICctcGgnLCAnNycsICctcGh0JywgJzAuNScsICctbnQn

> <r_lp_tautomer_probability>
1

> <r_epik_Ionization_Penalty>
  0.0216

> <r_epik_Ionization_Penalty_Charging>
  0.0055

> <r_epik_Ionization_Penalty_Neutral>
  0.0161

> <r_epik_State_Penalty>
  0.0127

> <r_epik_Charging_Adjusted_Penalty>
0.0181614307977615

> <i_epik_Tot_Q>
1

> <i_epik_Tot_abs_Q>
1

$$$$
