4lxd_ligand
                    3D
 Schrodinger Suite 2020-3.
 86 91  0  0  1  0            999 V2000
   29.4840   28.2330    5.4050 C   0  0  0  0  0  0
   27.1090   27.8750    5.3430 C   0  0  0  0  0  0
   22.9140   31.4270   12.5320 C   0  0  0  0  0  0
   24.5180   33.1730   12.9230 C   0  0  0  0  0  0
   28.0200   30.4490    2.4590 Cl  0  0  0  0  0  0
   23.8710   30.7060   11.8300 C   0  0  0  0  0  0
   25.4550   32.4420   12.2120 C   0  0  0  0  0  0
   20.1390   37.5030   12.7150 C   0  0  0  0  0  0
   20.1740   36.3930   13.5430 C   0  0  0  0  0  0
   29.3840   29.1100    4.3450 C   0  0  0  0  0  0
   27.0060   28.7640    4.2960 C   0  0  0  0  0  0
   18.8900   35.1590   11.9390 C   0  0  0  0  0  0
   28.3470   27.6240    5.9140 C   0  0  0  0  0  0
   23.2480   32.6520   13.0740 C   0  0  0  0  0  0
   25.1560   31.2010   11.6560 C   0  0  0  0  0  0
   19.5040   37.4590   11.4780 C   0  0  0  0  0  0
   18.8830   36.2670   11.1200 C   0  0  0  0  0  0
   19.5640   35.2220   13.1380 C   0  0  0  0  0  0
   28.1410   29.3660    3.7970 C   0  0  0  0  0  0
   28.4790   26.6600    7.0090 C   0  0  0  0  0  0
   28.8570   26.9620    8.2740 C   0  0  0  0  0  0
   22.2320   33.4570   13.7880 C   0  0  0  0  0  0
   28.1720   25.2580    6.5770 C   0  0  0  0  0  0
   29.0260   25.8610    9.2790 C   0  0  0  0  0  0
   19.3310   40.6580   11.8420 C   0  0  0  0  0  0
   20.3650   40.5660    9.5920 C   0  0  0  0  0  0
   25.9220   29.0310   10.7330 C   0  0  0  0  0  0
   27.5260   30.9230   11.0890 C   0  0  0  0  0  0
   26.7560   28.5610    9.5500 C   0  0  0  0  0  0
   28.4240   30.3840    9.9730 C   0  0  0  0  0  0
   28.5390   24.2260    7.6330 C   0  0  0  0  0  0
   20.0260   41.9960   12.0470 C   0  0  0  0  0  0
   20.8700   41.9880    9.8330 C   0  0  0  0  0  0
   20.1590   39.7980   10.9030 C   0  0  0  0  0  0
   29.1570   28.3400    8.7830 C   0  0  0  0  0  0
   26.1440   30.4730   10.9030 N   0  0  0  0  0  0
   28.1930   28.9150    9.7900 N   0  3  0  0  0  0
   19.4390   38.5600   10.5900 N   0  0  0  0  0  0
   20.9430   32.9180   13.6950 N   0  0  0  0  0  0
   18.1660   36.0910    9.8650 N   0  3  0  0  0  0
   17.6790   34.9850    9.6370 O   0  0  0  0  0  0
   22.4630   34.5190   14.3430 O   0  5  0  0  0  0
   18.0710   37.0380    9.0930 O   0  5  0  0  0  0
   18.4020   32.9610   13.8680 O   0  0  0  0  0  0
   19.7470   34.2250   15.5430 O   0  0  0  0  0  0
   28.2380   24.7070    8.9440 O   0  0  0  0  0  0
   20.0650   42.6880   10.8030 O   0  0  0  0  0  0
   19.5700   33.7730   14.1690 S   0  0  0  0  0  0
   30.4586   28.0183    5.8433 H   0  0  0  0  0  0
   26.2200   27.3705    5.7214 H   0  0  0  0  0  0
   21.9067   31.0287   12.6542 H   0  0  0  0  0  0
   24.7776   34.1397   13.3546 H   0  0  0  0  0  0
   23.6088   29.7355   11.4088 H   0  0  0  0  0  0
   26.4573   32.8507   12.0837 H   0  0  0  0  0  0
   20.6175   38.4274   13.0385 H   0  0  0  0  0  0
   20.6794   36.4434   14.5074 H   0  0  0  0  0  0
   30.2741   29.5952    3.9444 H   0  0  0  0  0  0
   26.0312   28.9904    3.8640 H   0  0  0  0  0  0
   18.3706   34.2477   11.6426 H   0  0  0  0  0  0
   27.0950   25.1645    6.3738 H   0  0  0  0  0  0
   28.7391   25.0231    5.6642 H   0  0  0  0  0  0
   30.0828   25.5583    9.3170 H   0  0  0  0  0  0
   28.7111   26.2181   10.2706 H   0  0  0  0  0  0
   19.2254   40.1475   12.8106 H   0  0  0  0  0  0
   18.3354   40.8251   11.4052 H   0  0  0  0  0  0
   19.4019   40.6039    9.0619 H   0  0  0  0  0  0
   21.0971   40.0151    8.9833 H   0  0  0  0  0  0
   24.8586   28.8319   10.5341 H   0  0  0  0  0  0
   26.2331   28.4901   11.6389 H   0  0  0  0  0  0
   27.8909   30.5595   12.0610 H   0  0  0  0  0  0
   27.5468   32.0227   11.0775 H   0  0  0  0  0  0
   26.6570   27.4708    9.4416 H   0  0  0  0  0  0
   26.4020   29.0543    8.6327 H   0  0  0  0  0  0
   28.1930   30.9055    9.0324 H   0  0  0  0  0  0
   29.4784   30.5534   10.2368 H   0  0  0  0  0  0
   27.9689   23.3020    7.4564 H   0  0  0  0  0  0
   29.6158   24.0091    7.5751 H   0  0  0  0  0  0
   19.4682   42.5894   12.7864 H   0  0  0  0  0  0
   21.0499   41.8254   12.4110 H   0  0  0  0  0  0
   21.9042   41.9515   10.2060 H   0  0  0  0  0  0
   20.8403   42.5525    8.8894 H   0  0  0  0  0  0
   21.1075   39.5224   11.3871 H   0  0  0  0  0  0
   30.1405   28.3428    9.2758 H   0  0  0  0  0  0
   29.1667   29.0478    7.9411 H   0  0  0  0  0  0
   28.4116   28.4271   10.7513 H   0  0  0  0  0  0
   18.8481   38.4862    9.6651 H   0  0  0  0  0  0
  1 10  2  0  0  0
  1 13  1  0  0  0
  1 49  1  0  0  0
  2 11  1  0  0  0
  2 13  2  0  0  0
  2 50  1  0  0  0
  3  6  2  0  0  0
  3 14  1  0  0  0
  3 51  1  0  0  0
  4  7  1  0  0  0
  4 14  2  0  0  0
  4 52  1  0  0  0
  5 19  1  0  0  0
  6 15  1  0  0  0
  6 53  1  0  0  0
  7 15  2  0  0  0
  7 54  1  0  0  0
  8  9  2  0  0  0
  8 16  1  0  0  0
  8 55  1  0  0  0
  9 18  1  0  0  0
  9 56  1  0  0  0
 10 19  1  0  0  0
 10 57  1  0  0  0
 11 19  2  0  0  0
 11 58  1  0  0  0
 12 17  1  0  0  0
 12 18  2  0  0  0
 12 59  1  0  0  0
 13 20  1  0  0  0
 14 22  1  0  0  0
 15 36  1  0  0  0
 16 17  2  0  0  0
 16 38  1  0  0  0
 17 40  1  0  0  0
 18 48  1  0  0  0
 20 21  2  0  0  0
 20 23  1  0  0  0
 21 24  1  0  0  0
 21 35  1  0  0  0
 22 39  2  0  0  0
 22 42  1  0  0  0
 23 31  1  0  0  0
 23 60  1  0  0  0
 23 61  1  0  0  0
 24 46  1  0  0  0
 24 62  1  0  0  0
 24 63  1  0  0  0
 25 32  1  0  0  0
 25 34  1  0  0  0
 25 64  1  0  0  0
 25 65  1  0  0  0
 26 33  1  0  0  0
 26 34  1  0  0  0
 26 66  1  0  0  0
 26 67  1  0  0  0
 27 29  1  0  0  0
 27 36  1  0  0  0
 27 68  1  0  0  0
 27 69  1  0  0  0
 28 30  1  0  0  0
 28 36  1  0  0  0
 28 70  1  0  0  0
 28 71  1  0  0  0
 29 37  1  0  0  0
 29 72  1  0  0  0
 29 73  1  0  0  0
 30 37  1  0  0  0
 30 74  1  0  0  0
 30 75  1  0  0  0
 31 46  1  0  0  0
 31 76  1  0  0  0
 31 77  1  0  0  0
 32 47  1  0  0  0
 32 78  1  0  0  0
 32 79  1  0  0  0
 33 47  1  0  0  0
 33 80  1  0  0  0
 33 81  1  0  0  0
 34 38  1  0  0  0
 34 82  1  0  0  0
 35 37  1  0  0  0
 35 83  1  0  0  0
 35 84  1  0  0  0
 37 85  1  0  0  0
 38 86  1  0  0  0
 39 48  1  0  0  0
 40 41  2  0  0  0
 40 43  1  0  0  0
 44 48  2  0  0  0
 45 48  2  0  0  0
M  CHG  4  37   1  40   1  42  -1  43  -1
M  END
> <s_m_source_file>
../4lxd_ligand.sdf

> <i_m_source_file_index>
1

> <s_epik_input>
W2NIXTFbY0hdYyhDbClbY0hdW2NIXWMxQzI9QyhbQ0gyXU9bQ0gyXVtDSDJdMilbQ0gyXVtOSCtdKFtDSDJdW0NIMl0zKVtDSDJdW0NIMl1OM2MoW2NIXVtjSF00KVtjSF1bY0hdYzRDKD1PKVtOSF1TKD1PKSg9TyljKFtjSF1jNVtOK10oPU8pW08tXSlbY0hdW2NIXWM1W05IXVtDSF02W0NIMl1bQ0gyXU9bQ0gyXVtDSDJdNg==

> <s_epik_cmdline>
J2VwaWtfYXBwJywgJy1pbWFlJywgJ2xpZ2FuZF9wcm8ubWFlJywgJy1vbWFlJywgJ2xpZ2FuZF9wcmVwLm1hZScsICctbXMnLCAnMScsICctcGgnLCAnNycsICctcGh0JywgJzAuNScsICctbnQn

> <r_epik_Ionization_Penalty>
  0.1934

> <r_epik_Ionization_Penalty_Charging>
  0.1934

> <r_epik_Ionization_Penalty_Neutral>
  0.0000

> <r_epik_State_Penalty>
  0.1817

> <r_epik_Charging_Adjusted_Penalty>
0.375009549819042

> <i_epik_Tot_Q>
0

> <i_epik_Tot_abs_Q>
4

$$$$
