4lxk_ligand
                    3D
 Schrodinger Suite 2020-3.
 76 78  0  0  1  0            999 V2000
   31.7580    8.1790   20.6320 F   0  0  0  0  0  0
   30.5230    8.6360   20.9560 C   0  0  0  0  0  0
   29.9180    7.7100   21.7460 F   0  0  0  0  0  0
   30.6600    9.8010   21.6280 F   0  0  0  0  0  0
   29.7130    8.9060   19.6650 C   0  0  2  0  0  0
   30.3950    9.9360   18.9140 O   0  0  0  0  0  0
   30.7180    9.7200   17.5800 C   0  0  0  0  0  0
   30.3650   10.7000   16.6190 C   0  0  0  0  0  0
   30.6850   10.4850   15.2530 C   0  0  0  0  0  0
   31.3510    9.3020   14.8540 C   0  0  0  0  0  0
   31.6980    8.3200   15.8220 C   0  0  0  0  0  0
   31.3830    8.5400   17.1790 C   0  0  0  0  0  0
   32.3930    7.0070   15.4210 C   0  0  0  0  0  0
   31.4080    6.0450   14.6610 C   0  0  1  0  0  0
   32.0130    4.6650   14.2640 C   0  0  1  0  0  0
   31.0590    3.8290   13.3490 C   0  0  2  0  0  0
   29.6410    3.5810   13.9460 C   0  0  0  0  0  0
   28.8100    5.1100   14.3990 S   0  0  1  0  0  0
   30.0730    5.8260   15.4540 C   0  0  0  0  0  0
   28.7390    5.9950   13.1830 O   0  0  0  0  0  0
   31.6480    2.5000   13.0080 N   0  3  0  0  0  0
   31.0950    1.6420   11.9140 C   0  0  0  0  0  0
   30.9710    2.4560   10.6080 C   0  0  0  0  0  0
   32.1370    2.8960    9.9390 C   0  0  0  0  0  0
   32.0940    3.6550    8.7320 C   0  0  0  0  0  0
   30.7900    3.9490    8.2270 C   0  0  0  0  0  0
   29.6090    3.5190    8.8770 C   0  0  0  0  0  0
   29.6940    2.7670   10.0730 C   0  0  0  0  0  0
   33.4160    4.1250    8.0270 C   0  0  0  0  0  0
   34.3920    2.9200    7.9000 C   0  0  0  0  0  0
   33.2440    4.7170    6.5850 C   0  0  0  0  0  0
   34.1300    5.2460    8.8520 C   0  0  0  0  0  0
   33.2390    4.8120   13.5390 O   0  0  0  0  0  0
   30.3550   11.3960   14.3410 F   0  0  0  0  0  0
   29.7250   11.8310   17.0040 N   0  0  0  0  0  0
   28.2310    9.2670   19.9690 C   0  0  0  0  0  0
   27.5420    9.5200   18.7300 O   0  0  0  0  0  0
   26.1180    9.6780   18.8880 C   0  0  0  0  0  0
   29.7052    8.0272   19.0034 H   0  0  0  0  0  0
   31.5981    9.1435   13.8043 H   0  0  0  0  0  0
   31.6550    7.7931   17.9248 H   0  0  0  0  0  0
   33.2433    7.2294   14.7595 H   0  0  0  0  0  0
   32.7553    6.4933   16.3237 H   0  0  0  0  0  0
   31.1993    6.5662   13.7151 H   0  0  0  0  0  0
   32.2638    4.1446   15.2001 H   0  0  0  0  0  0
   30.9602    4.4148   12.4232 H   0  0  0  0  0  0
   29.0163    3.0623   13.2039 H   0  0  0  0  0  0
   29.7272    2.9608   14.8504 H   0  0  0  0  0  0
   30.2556    5.1450   16.2983 H   0  0  0  0  0  0
   29.7096    6.7921   15.8341 H   0  0  0  0  0  0
   28.0289    5.7640   12.3753 H   0  0  0  0  0  0
   32.6985    2.6304   12.7089 H   0  0  0  0  0  0
   31.5961    1.8397   13.8862 H   0  0  0  0  0  0
   31.7666    0.7877   11.7431 H   0  0  0  0  0  0
   30.0999    1.2738   12.2043 H   0  0  0  0  0  0
   33.1090    2.6446   10.3635 H   0  0  0  0  0  0
   30.7018    4.5261    7.3066 H   0  0  0  0  0  0
   28.6342    3.7668    8.4568 H   0  0  0  0  0  0
   28.7884    2.4304   10.5777 H   0  0  0  0  0  0
   33.9104    2.1174    7.3222 H   0  0  0  0  0  0
   34.6470    2.5474    8.9031 H   0  0  0  0  0  0
   35.3086    3.2433    7.3849 H   0  0  0  0  0  0
   32.7441    3.9774    5.9422 H   0  0  0  0  0  0
   34.2327    4.9574    6.1670 H   0  0  0  0  0  0
   32.6345    5.6314    6.6343 H   0  0  0  0  0  0
   34.2855    4.8990    9.8842 H   0  0  0  0  0  0
   33.5042    6.1506    8.8596 H   0  0  0  0  0  0
   35.1024    5.4766    8.3923 H   0  0  0  0  0  0
   34.0766    5.3704   13.9824 H   0  0  0  0  0  0
   29.4803   11.9906   18.0645 H   0  0  0  0  0  0
   29.4503   12.5893   16.2560 H   0  0  0  0  0  0
   27.7499    8.4290   20.4947 H   0  0  0  0  0  0
   28.1950   10.1660   20.6019 H   0  0  0  0  0  0
   25.6590    9.8675   17.9065 H   0  0  0  0  0  0
   25.9154   10.5269   19.5576 H   0  0  0  0  0  0
   25.6930    8.7602   19.3205 H   0  0  0  0  0  0
  1  2  1  0  0  0
  2  3  1  0  0  0
  2  4  1  0  0  0
  2  5  1  0  0  0
  5  6  1  0  0  0
  5 36  1  0  0  0
  5 39  1  0  0  0
  6  7  1  0  0  0
  7  8  2  0  0  0
  7 12  1  0  0  0
  8  9  1  0  0  0
  8 35  1  0  0  0
  9 10  2  0  0  0
  9 34  1  0  0  0
 10 11  1  0  0  0
 10 40  1  0  0  0
 11 12  2  0  0  0
 11 13  1  0  0  0
 12 41  1  0  0  0
 13 14  1  0  0  0
 13 42  1  0  0  0
 13 43  1  0  0  0
 14 15  1  0  0  0
 14 19  1  0  0  0
 14 44  1  0  0  0
 15 16  1  0  0  0
 15 33  1  0  0  0
 15 45  1  0  0  0
 16 17  1  0  0  0
 16 21  1  0  0  0
 16 46  1  0  0  0
 17 18  1  0  0  0
 17 47  1  0  0  0
 17 48  1  0  0  0
 18 19  1  0  0  0
 18 20  1  0  0  0
 19 49  1  0  0  0
 19 50  1  0  0  0
 20 51  1  0  0  0
 21 22  1  0  0  0
 21 52  1  0  0  0
 21 53  1  0  0  0
 22 23  1  0  0  0
 22 54  1  0  0  0
 22 55  1  0  0  0
 23 24  2  0  0  0
 23 28  1  0  0  0
 24 25  1  0  0  0
 24 56  1  0  0  0
 25 26  2  0  0  0
 25 29  1  0  0  0
 26 27  1  0  0  0
 26 57  1  0  0  0
 27 28  2  0  0  0
 27 58  1  0  0  0
 28 59  1  0  0  0
 29 30  1  0  0  0
 29 31  1  0  0  0
 29 32  1  0  0  0
 30 60  1  0  0  0
 30 61  1  0  0  0
 30 62  1  0  0  0
 31 63  1  0  0  0
 31 64  1  0  0  0
 31 65  1  0  0  0
 32 66  1  0  0  0
 32 67  1  0  0  0
 32 68  1  0  0  0
 33 69  1  0  0  0
 35 70  1  0  0  0
 35 71  1  0  0  0
 36 37  1  0  0  0
 36 72  1  0  0  0
 36 73  1  0  0  0
 37 38  1  0  0  0
 38 74  1  0  0  0
 38 75  1  0  0  0
 38 76  1  0  0  0
M  CHG  1  21   1
M  END
> <s_m_source_file>
../4lxk_ligand.sdf

> <i_m_source_file_index>
1

> <s_epik_input>
W0NIM11PW0NIMl1bQ0BIXShDKEYpKEYpRilPYzFjKFtOSDJdKWMoRilbY0hdYyhbY0hdMSlbQ0gyXVtDQEhdMltDQEhdKFtPSF0pW0NASF0oW0NIMl1bU0BASF0oW0NIMl0yKVtPSF0pW05IMitdW0NIMl1jM1tjSF1jKEMoW0NIM10pKFtDSDNdKVtDSDNdKVtjSF1bY0hdW2NIXTM=

> <s_epik_cmdline>
J2VwaWtfYXBwJywgJy1pbWFlJywgJ2xpZ2FuZF9wcm8ubWFlJywgJy1vbWFlJywgJ2xpZ2FuZF9wcmVwLm1hZScsICctbXMnLCAnMScsICctcGgnLCAnNycsICctcGh0JywgJzAuNScsICctbnQn

> <r_epik_Ionization_Penalty>
  0.0154

> <r_epik_Ionization_Penalty_Charging>
  0.0117

> <r_epik_Ionization_Penalty_Neutral>
  0.0037

> <r_epik_State_Penalty>
  0.0090

> <r_epik_Charging_Adjusted_Penalty>
0.020627048202242

> <i_epik_Tot_Q>
1

> <i_epik_Tot_abs_Q>
1

$$$$
