4lxm_ligand
                    3D
 Schrodinger Suite 2020-3.
 72 74  0  0  1  0            999 V2000
   27.8380    8.2430   20.0110 F   0  0  0  0  0  0
   28.5640    9.2370   19.4400 C   0  0  0  0  0  0
   27.9960    9.5110   18.2400 F   0  0  0  0  0  0
   28.5080   10.3580   20.2100 F   0  0  0  0  0  0
   30.0320    8.7780   19.2220 C   0  0  0  0  0  0
   30.7740    9.7730   18.4830 O   0  0  0  0  0  0
   31.1000    9.5500   17.1460 C   0  0  0  0  0  0
   30.7810   10.5540   16.1970 C   0  0  0  0  0  0
   31.1000   10.3500   14.8280 C   0  0  0  0  0  0
   31.7240    9.1480   14.4070 C   0  0  0  0  0  0
   32.0310    8.1420   15.3620 C   0  0  0  0  0  0
   31.7260    8.3500   16.7250 C   0  0  0  0  0  0
   32.6760    6.8050   14.9550 C   0  0  0  0  0  0
   31.6580    5.8540   14.2220 C   0  0  1  0  0  0
   32.1970    4.4150   13.9240 C   0  0  1  0  0  0
   31.1760    3.5250   13.1370 C   0  0  2  0  0  0
   29.7700    3.3960   13.7970 C   0  0  0  0  0  0
   29.0470    5.0300   13.9590 S   0  0  2  0  0  0
   30.2980    5.7710   14.9940 C   0  0  0  0  0  0
   27.8220    4.8770   14.8070 O   0  0  0  0  0  0
   31.7250    2.1940   12.7550 N   0  3  0  0  0  0
   31.0880    1.3610   11.6830 C   0  0  0  0  0  0
   30.9320    2.2000   10.3960 C   0  0  0  0  0  0
   32.0880    2.5940    9.6830 C   0  0  0  0  0  0
   32.0340    3.3770    8.4980 C   0  0  0  0  0  0
   30.7340    3.7500    8.0530 C   0  0  0  0  0  0
   29.5580    3.3670    8.7440 C   0  0  0  0  0  0
   29.6540    2.5890    9.9200 C   0  0  0  0  0  0
   33.3540    3.7890    7.7580 C   0  0  0  0  0  0
   34.2780    2.5500    7.5790 C   0  0  0  0  0  0
   33.1360    4.4070    6.3360 C   0  0  0  0  0  0
   34.1310    4.8600    8.5910 C   0  0  0  0  0  0
   33.3940    4.4390   13.1230 O   0  0  0  0  0  0
   30.8060   11.2910   13.9350 F   0  0  0  0  0  0
   30.1730   11.6950   16.5970 N   0  0  0  0  0  0
   30.8530    8.5050   20.5070 C   0  0  0  0  0  0
   30.1870    7.6590   21.3340 F   0  0  0  0  0  0
   31.1190    9.6650   21.1500 F   0  0  0  0  0  0
   32.0390    7.9260   20.1830 F   0  0  0  0  0  0
   29.9579    7.8565   18.6259 H   0  0  0  0  0  0
   31.9670    8.9967   13.3553 H   0  0  0  0  0  0
   31.9736    7.5825   17.4583 H   0  0  0  0  0  0
   33.5174    6.9965   14.2728 H   0  0  0  0  0  0
   33.0428    6.2864   15.8531 H   0  0  0  0  0  0
   31.4974    6.3194   13.2383 H   0  0  0  0  0  0
   32.4710    3.9825   14.8976 H   0  0  0  0  0  0
   31.0280    4.0393   12.1760 H   0  0  0  0  0  0
   29.1252    2.7665   13.1662 H   0  0  0  0  0  0
   29.8723    2.9359   14.7909 H   0  0  0  0  0  0
   30.4266    5.1583   15.8985 H   0  0  0  0  0  0
   29.9761    6.7833   15.2796 H   0  0  0  0  0  0
   26.9088    4.4371   14.3798 H   0  0  0  0  0  0
   32.7589    2.3124   12.3986 H   0  0  0  0  0  0
   31.7129    1.5275   13.6300 H   0  0  0  0  0  0
   31.7212    0.4862   11.4736 H   0  0  0  0  0  0
   30.0970    1.0238   12.0209 H   0  0  0  0  0  0
   33.0630    2.2836   10.0586 H   0  0  0  0  0  0
   30.6402    4.3514    7.1488 H   0  0  0  0  0  0
   28.5809    3.6718    8.3693 H   0  0  0  0  0  0
   28.7534    2.2905   10.4566 H   0  0  0  0  0  0
   33.7514    1.7813    6.9945 H   0  0  0  0  0  0
   34.5414    2.1433    8.5665 H   0  0  0  0  0  0
   35.1944    2.8495    7.0495 H   0  0  0  0  0  0
   32.5902    3.6905    5.7046 H   0  0  0  0  0  0
   34.1117    4.6292    5.8793 H   0  0  0  0  0  0
   32.5529    5.3355    6.4252 H   0  0  0  0  0  0
   34.3119    4.4750    9.6054 H   0  0  0  0  0  0
   33.5345    5.7823    8.6497 H   0  0  0  0  0  0
   35.0933    5.0761    8.1038 H   0  0  0  0  0  0
   34.2727    5.0061   13.4640 H   0  0  0  0  0  0
   29.9294   11.8452   17.6591 H   0  0  0  0  0  0
   29.9225   12.4722   15.8600 H   0  0  0  0  0  0
  1  2  1  0  0  0
  2  3  1  0  0  0
  2  4  1  0  0  0
  2  5  1  0  0  0
  5  6  1  0  0  0
  5 36  1  0  0  0
  5 40  1  0  0  0
  6  7  1  0  0  0
  7  8  2  0  0  0
  7 12  1  0  0  0
  8  9  1  0  0  0
  8 35  1  0  0  0
  9 10  2  0  0  0
  9 34  1  0  0  0
 10 11  1  0  0  0
 10 41  1  0  0  0
 11 12  2  0  0  0
 11 13  1  0  0  0
 12 42  1  0  0  0
 13 14  1  0  0  0
 13 43  1  0  0  0
 13 44  1  0  0  0
 14 15  1  0  0  0
 14 19  1  0  0  0
 14 45  1  0  0  0
 15 16  1  0  0  0
 15 33  1  0  0  0
 15 46  1  0  0  0
 16 17  1  0  0  0
 16 21  1  0  0  0
 16 47  1  0  0  0
 17 18  1  0  0  0
 17 48  1  0  0  0
 17 49  1  0  0  0
 18 19  1  0  0  0
 18 20  1  0  0  0
 19 50  1  0  0  0
 19 51  1  0  0  0
 20 52  1  0  0  0
 21 22  1  0  0  0
 21 53  1  0  0  0
 21 54  1  0  0  0
 22 23  1  0  0  0
 22 55  1  0  0  0
 22 56  1  0  0  0
 23 24  2  0  0  0
 23 28  1  0  0  0
 24 25  1  0  0  0
 24 57  1  0  0  0
 25 26  2  0  0  0
 25 29  1  0  0  0
 26 27  1  0  0  0
 26 58  1  0  0  0
 27 28  2  0  0  0
 27 59  1  0  0  0
 28 60  1  0  0  0
 29 30  1  0  0  0
 29 31  1  0  0  0
 29 32  1  0  0  0
 30 61  1  0  0  0
 30 62  1  0  0  0
 30 63  1  0  0  0
 31 64  1  0  0  0
 31 65  1  0  0  0
 31 66  1  0  0  0
 32 67  1  0  0  0
 32 68  1  0  0  0
 32 69  1  0  0  0
 33 70  1  0  0  0
 35 71  1  0  0  0
 35 72  1  0  0  0
 36 37  1  0  0  0
 36 38  1  0  0  0
 36 39  1  0  0  0
M  CHG  1  21   1
M  END
> <s_m_source_file>
../4lxm_ligand.sdf

> <i_m_source_file_index>
1

> <s_epik_input>
RkMoRikoRilbQ0hdKEMoRikoRilGKU9jMWMoW05IMl0pYyhGKVtjSF1jKFtjSF0xKVtDSDJdW0NASF0yW0NASF0oW09IXSlbQ0BIXShbQ0gyXVtTQEhdKFtDSDJdMilbT0hdKVtOSDIrXVtDSDJdYzNbY0hdYyhDKFtDSDNdKShbQ0gzXSlbQ0gzXSlbY0hdW2NIXVtjSF0z

> <s_epik_cmdline>
J2VwaWtfYXBwJywgJy1pbWFlJywgJ2xpZ2FuZF9wcm8ubWFlJywgJy1vbWFlJywgJ2xpZ2FuZF9wcmVwLm1hZScsICctbXMnLCAnMScsICctcGgnLCAnNycsICctcGh0JywgJzAuNScsICctbnQn

> <r_epik_Ionization_Penalty>
  0.0142

> <r_epik_Ionization_Penalty_Charging>
  0.0117

> <r_epik_Ionization_Penalty_Neutral>
  0.0025

> <r_epik_State_Penalty>
  0.0090

> <r_epik_Charging_Adjusted_Penalty>
0.020627048202242

> <i_epik_Tot_Q>
1

> <i_epik_Tot_abs_Q>
1

$$$$
