4lxz_ligand
                    3D
 Schrodinger Suite 2020-3.
 39 39  0  0  1  0            999 V2000
   19.6360  -19.8860   -2.0940 O   0  0  0  0  0  0
   20.4930  -17.6630   -0.9360 O   0  0  0  0  0  0
   20.8830  -19.7820   -1.4560 N   0  0  0  0  0  0
   21.2570  -18.6200   -0.8860 C   0  0  0  0  0  0
   22.5970  -18.5460   -0.1950 C   0  0  0  0  0  0
   23.5580  -17.4830   -0.7890 C   0  0  0  0  0  0
   24.9330  -17.7010   -0.1330 C   0  0  0  0  0  0
   25.9720  -16.7150   -0.7010 C   0  0  0  0  0  0
   27.3250  -17.0050   -0.0240 C   0  0  0  0  0  0
   28.3040  -15.8280   -0.1830 C   0  0  0  0  0  0
   28.0100  -14.7020    0.7790 C   0  0  0  0  0  0
   27.4610  -13.7120    0.3330 O   0  0  0  0  0  0
   28.3770  -14.8320    2.0940 N   0  0  0  0  0  0
   28.2700  -13.8990    3.1580 C   0  0  0  0  0  0
   28.0050  -12.5340    2.9690 C   0  0  0  0  0  0
   28.0010  -11.6580    4.0550 C   0  0  0  0  0  0
   28.2660  -12.1300    5.3400 C   0  0  0  0  0  0
   28.5530  -13.4780    5.5370 C   0  0  0  0  0  0
   28.5810  -14.3460    4.4510 C   0  0  0  0  0  0
   19.3334  -20.8361   -2.5585 H   0  0  0  0  0  0
   21.5570  -20.6506   -1.4209 H   0  0  0  0  0  0
   22.4493  -18.2924    0.8651 H   0  0  0  0  0  0
   23.1036  -19.5194   -0.2721 H   0  0  0  0  0  0
   23.6225  -17.6154   -1.8791 H   0  0  0  0  0  0
   23.1756  -16.4764   -0.5639 H   0  0  0  0  0  0
   24.8505  -17.5432    0.9525 H   0  0  0  0  0  0
   25.2742  -18.7281   -0.3293 H   0  0  0  0  0  0
   26.0542  -16.8554   -1.7889 H   0  0  0  0  0  0
   25.6541  -15.6838   -0.4874 H   0  0  0  0  0  0
   27.1671  -17.1817    1.0502 H   0  0  0  0  0  0
   27.7791  -17.8974   -0.4795 H   0  0  0  0  0  0
   29.3302  -16.1767    0.0051 H   0  0  0  0  0  0
   28.2342  -15.4285   -1.2055 H   0  0  0  0  0  0
   28.8276  -15.7706    2.4491 H   0  0  0  0  0  0
   27.8010  -12.1556    1.9673 H   0  0  0  0  0  0
   27.7898  -10.6002    3.8982 H   0  0  0  0  0  0
   28.2485  -11.4454    6.1880 H   0  0  0  0  0  0
   28.7554  -13.8522    6.5405 H   0  0  0  0  0  0
   28.8490  -15.3910    4.6068 H   0  0  0  0  0  0
  1  3  1  0  0  0
  1 20  1  0  0  0
  2  4  2  0  0  0
  3  4  1  0  0  0
  3 21  1  0  0  0
  4  5  1  0  0  0
  5  6  1  0  0  0
  5 22  1  0  0  0
  5 23  1  0  0  0
  6  7  1  0  0  0
  6 24  1  0  0  0
  6 25  1  0  0  0
  7  8  1  0  0  0
  7 26  1  0  0  0
  7 27  1  0  0  0
  8  9  1  0  0  0
  8 28  1  0  0  0
  8 29  1  0  0  0
  9 10  1  0  0  0
  9 30  1  0  0  0
  9 31  1  0  0  0
 10 11  1  0  0  0
 10 32  1  0  0  0
 10 33  1  0  0  0
 11 12  2  0  0  0
 11 13  1  0  0  0
 13 14  1  0  0  0
 13 34  1  0  0  0
 14 15  2  0  0  0
 14 19  1  0  0  0
 15 16  1  0  0  0
 15 35  1  0  0  0
 16 17  2  0  0  0
 16 36  1  0  0  0
 17 18  1  0  0  0
 17 37  1  0  0  0
 18 19  2  0  0  0
 18 38  1  0  0  0
 19 39  1  0  0  0
M  END
> <s_m_source_file>
../4lxz_ligand.sdf

> <i_m_source_file_index>
1

> <s_epik_input>
W09IXVtOSF1DKD1PKVtDSDJdW0NIMl1bQ0gyXVtDSDJdW0NIMl1bQ0gyXUMoPU8pW05IXWMxW2NIXVtjSF1bY0hdW2NIXVtjSF0x

> <s_epik_cmdline>
J2VwaWtfYXBwJywgJy1pbWFlJywgJ2xpZ2FuZF9wcm8ubWFlJywgJy1vbWFlJywgJ2xpZ2FuZF9wcmVwLm1hZScsICctbXMnLCAnMScsICctcGgnLCAnNycsICctcGh0JywgJzAuNScsICctbnQn

> <r_lp_tautomer_probability>
1

> <r_epik_Ionization_Penalty>
  0.0036

> <r_epik_Ionization_Penalty_Charging>
  0.0000

> <r_epik_Ionization_Penalty_Neutral>
  0.0036

> <r_epik_State_Penalty>
 -0.0000

> <r_epik_Charging_Adjusted_Penalty>
0

> <i_epik_Tot_Q>
0

> <i_epik_Tot_abs_Q>
0

> <s_epik_Chemistry_Notes>
This compound has a N-S or N-O group and may undergo hydrolysis at high or low pH.

$$$$
