4ly9_ligand
                    3D
 Schrodinger Suite 2020-3.
 65 68  0  0  1  0            999 V2000
   38.3610  -20.1460   13.5120 C   0  0  0  0  0  0
   36.9810  -20.7680   13.9080 C   0  0  1  0  0  0
   35.8760  -20.3360   12.9320 C   0  0  0  0  0  0
   36.0260  -20.9250   11.6160 O   0  0  0  0  0  0
   36.2560  -22.3580   11.5800 C   0  0  0  0  0  0
   37.3810  -22.6940   12.5800 C   0  0  0  0  0  0
   37.0070  -22.2400   13.9250 N   0  0  1  0  0  0
   37.9740  -22.7270   14.9270 C   0  0  0  0  0  0
   37.5180  -23.9710   15.7180 C   0  0  1  0  0  0
   38.2580  -25.2450   15.1800 C   0  0  0  0  0  0
   39.7210  -25.0170   15.0960 N   0  0  2  0  0  0
   40.4540  -26.1770   14.2610 S   0  0  0  0  0  0
   41.9100  -26.1510   14.5550 O   0  0  0  0  0  0
   40.0440  -25.9790   12.8430 O   0  0  0  0  0  0
   39.8670  -27.7520   14.7180 C   0  0  0  0  0  0
   38.9010  -28.4650   14.1160 C   0  0  0  0  0  0
   38.6450  -29.6230   14.7510 C   0  0  0  0  0  0
   39.3890  -29.9020   15.8550 C   0  0  0  0  0  0
   40.4700  -28.5870   16.0370 S   0  0  0  0  0  0
   40.1410  -25.0330   16.4750 C   0  0  0  0  0  0
   39.3990  -23.9860   17.3200 C   0  0  0  0  0  0
   38.0150  -23.7150   17.0180 N   0  0  0  0  0  0
   37.2960  -22.9030   17.8870 C   0  0  0  0  0  0
   37.8010  -22.6220   19.1490 C   0  0  0  0  0  0
   37.1200  -21.8240   20.0360 C   0  0  0  0  0  0
   36.0830  -22.3630   17.5500 C   0  0  0  0  0  0
   35.3730  -21.5490   18.4190 C   0  0  0  0  0  0
   35.8910  -21.2860   19.6620 C   0  0  0  0  0  0
   35.1670  -20.3890   20.6220 C   0  0  1  0  0  0
   34.4870  -21.1030   21.7460 C   0  0  0  0  0  0
   33.7030  -20.2520   22.4360 F   0  0  0  0  0  0
   35.4460  -21.6320   22.5550 F   0  0  0  0  0  0
   33.6990  -21.9800   21.1970 F   0  0  0  0  0  0
   36.2680  -19.5350   21.2450 C   0  0  0  0  0  0
   34.2300  -19.6290   19.9080 O   0  0  0  0  0  0
   38.2832  -19.0488   13.5157 H   0  0  0  0  0  0
   38.6432  -20.4902   12.5061 H   0  0  0  0  0  0
   39.1267  -20.4617   14.2359 H   0  0  0  0  0  0
   36.7526  -20.4508   14.9362 H   0  0  0  0  0  0
   34.8967  -20.6433   13.3276 H   0  0  0  0  0  0
   35.8973  -19.2425   12.8147 H   0  0  0  0  0  0
   35.3321  -22.8848   11.8610 H   0  0  0  0  0  0
   36.5535  -22.6562   10.5638 H   0  0  0  0  0  0
   37.5438  -23.7817   12.5968 H   0  0  0  0  0  0
   38.3084  -22.1891   12.2718 H   0  0  0  0  0  0
   38.9154  -22.9980   14.4266 H   0  0  0  0  0  0
   38.1663  -21.9353   15.6661 H   0  0  0  0  0  0
   36.4278  -24.1165   15.7367 H   0  0  0  0  0  0
   38.0721  -26.0908   15.8583 H   0  0  0  0  0  0
   37.8820  -25.4908   14.1759 H   0  0  0  0  0  0
   38.3823  -28.1414   13.2136 H   0  0  0  0  0  0
   37.8749  -30.3079   14.3962 H   0  0  0  0  0  0
   39.3126  -30.7824   16.4931 H   0  0  0  0  0  0
   39.9417  -26.0246   16.9075 H   0  0  0  0  0  0
   41.2181  -24.8176   16.5328 H   0  0  0  0  0  0
   39.4009  -24.2979   18.3748 H   0  0  0  0  0  0
   39.9035  -23.0132   17.2244 H   0  0  0  0  0  0
   38.7615  -23.0449   19.4435 H   0  0  0  0  0  0
   37.5367  -21.6143   21.0211 H   0  0  0  0  0  0
   35.6629  -22.5801   16.5679 H   0  0  0  0  0  0
   34.4155  -21.1234   18.1186 H   0  0  0  0  0  0
   36.9704  -20.1828   21.7899 H   0  0  0  0  0  0
   35.8205  -18.8113   21.9421 H   0  0  0  0  0  0
   36.8065  -18.9955   20.4520 H   0  0  0  0  0  0
   33.3842  -20.1254   19.4097 H   0  0  0  0  0  0
  1  2  1  0  0  0
  1 36  1  0  0  0
  1 37  1  0  0  0
  1 38  1  0  0  0
  2  3  1  0  0  0
  2  7  1  0  0  0
  2 39  1  0  0  0
  3  4  1  0  0  0
  3 40  1  0  0  0
  3 41  1  0  0  0
  4  5  1  0  0  0
  5  6  1  0  0  0
  5 42  1  0  0  0
  5 43  1  0  0  0
  6  7  1  0  0  0
  6 44  1  0  0  0
  6 45  1  0  0  0
  7  8  1  0  0  0
  8  9  1  0  0  0
  8 46  1  0  0  0
  8 47  1  0  0  0
  9 10  1  0  0  0
  9 22  1  0  0  0
  9 48  1  0  0  0
 10 11  1  0  0  0
 10 49  1  0  0  0
 10 50  1  0  0  0
 11 12  1  0  0  0
 11 20  1  0  0  0
 12 13  2  0  0  0
 12 14  2  0  0  0
 12 15  1  0  0  0
 15 16  2  0  0  0
 15 19  1  0  0  0
 16 17  1  0  0  0
 16 51  1  0  0  0
 17 18  2  0  0  0
 17 52  1  0  0  0
 18 19  1  0  0  0
 18 53  1  0  0  0
 20 21  1  0  0  0
 20 54  1  0  0  0
 20 55  1  0  0  0
 21 22  1  0  0  0
 21 56  1  0  0  0
 21 57  1  0  0  0
 22 23  1  0  0  0
 23 24  2  0  0  0
 23 26  1  0  0  0
 24 25  1  0  0  0
 24 58  1  0  0  0
 25 28  2  0  0  0
 25 59  1  0  0  0
 26 27  2  0  0  0
 26 60  1  0  0  0
 27 28  1  0  0  0
 27 61  1  0  0  0
 28 29  1  0  0  0
 29 30  1  0  0  0
 29 34  1  0  0  0
 29 35  1  0  0  0
 30 31  1  0  0  0
 30 32  1  0  0  0
 30 33  1  0  0  0
 34 62  1  0  0  0
 34 63  1  0  0  0
 34 64  1  0  0  0
 35 65  1  0  0  0
M  END
> <s_m_source_file>
../4ly9_ligand.sdf

> <i_m_source_file_index>
1

> <s_epik_input>
W0NIM11bQ0BIXTFbQ0gyXU9bQ0gyXVtDSDJdW05ASCtdMVtDSDJdW0NASF0yW0NIMl1OKFMoPU8pKD1PKWMzW2NIXVtjSF1bY0hdczMpW0NIMl1bQ0gyXU4yYzRbY0hdW2NIXWMoW2NIXVtjSF00KVtDQEBdKEMoRikoRilGKShbQ0gzXSlbT0hd

> <s_epik_cmdline>
J2VwaWtfYXBwJywgJy1pbWFlJywgJ2xpZ2FuZF9wcm8ubWFlJywgJy1vbWFlJywgJ2xpZ2FuZF9wcmVwLm1hZScsICctbXMnLCAnMScsICctcGgnLCAnNycsICctcGh0JywgJzAuNScsICctbnQn

> <r_epik_Ionization_Penalty>
  0.2148

> <r_epik_Ionization_Penalty_Charging>
  0.0000

> <r_epik_Ionization_Penalty_Neutral>
  0.2148

> <r_epik_State_Penalty>
  0.2050

> <r_epik_Charging_Adjusted_Penalty>
0.205022066473236

> <i_epik_Tot_Q>
0

> <i_epik_Tot_abs_Q>
0

$$$$
