4lyn_ligand
                    3D
 Schrodinger Suite 2020-3.
 50 52  0  0  1  0            999 V2000
   28.5820   28.0220   24.8570 C   0  0  0  0  0  0
   29.9390   28.2790   24.9920 C   0  0  0  0  0  0
   27.8110   26.7300   24.5870 C   0  0  0  0  0  0
   27.2000   31.3940   28.1370 C   0  0  0  0  0  0
   28.7200   25.5150   24.7640 C   0  0  0  0  0  0
   27.2760   26.7380   23.1560 C   0  0  0  0  0  0
   26.6410   26.6060   25.5630 C   0  0  0  0  0  0
   26.3150   32.2630   28.6880 C   0  0  0  0  0  0
   25.1140   30.4550   28.9440 C   0  0  0  0  0  0
   30.1290   29.5960   25.3080 N   0  0  0  0  0  0
   28.9070   30.1190   25.3540 C   0  0  0  0  0  0
   27.9220   29.2140   25.0740 O   0  0  0  0  0  0
   28.5420   31.4890   25.7620 C   0  0  0  0  0  0
   28.8380   31.5810   27.5340 S   0  0  0  0  0  0
   25.1460   31.7380   29.1710 N   0  0  0  0  0  0
   23.9480   29.7520   29.1830 N   0  0  0  0  0  0
   23.6780   28.4770   28.7650 C   0  0  0  0  0  0
   24.4640   27.7990   28.1090 O   0  0  0  0  0  0
   22.2830   27.9690   29.1230 C   0  0  1  0  0  0
   21.5900   27.4370   27.8680 C   0  0  0  0  0  0
   22.4160   26.9390   30.2380 C   0  0  0  0  0  0
   22.7290   25.6090   29.9750 C   0  0  0  0  0  0
   22.7570   24.6720   30.9970 C   0  0  0  0  0  0
   22.4900   25.0560   32.2970 C   0  0  0  0  0  0
   22.2160   26.3800   32.5760 C   0  0  0  0  0  0
   22.1780   27.3160   31.5530 C   0  0  0  0  0  0
   26.5230   29.7840   28.1750 S   0  0  0  0  0  0
   30.7329   27.5430   24.8654 H   0  0  0  0  0  0
   29.5689   25.5877   24.0682 H   0  0  0  0  0  0
   28.1509   24.5975   24.5535 H   0  0  0  0  0  0
   29.0948   25.4850   25.7978 H   0  0  0  0  0  0
   28.1158   26.8271   22.4511 H   0  0  0  0  0  0
   26.5944   27.5913   23.0242 H   0  0  0  0  0  0
   26.7327   25.8013   22.9625 H   0  0  0  0  0  0
   27.0231   26.6000   26.5945 H   0  0  0  0  0  0
   26.0982   25.6695   25.3675 H   0  0  0  0  0  0
   25.9599   27.4594   25.4292 H   0  0  0  0  0  0
   26.5253   33.3311   28.7436 H   0  0  0  0  0  0
   29.1675   32.2124   25.2184 H   0  0  0  0  0  0
   27.4828   31.6714   25.5279 H   0  0  0  0  0  0
   23.1331   30.2172   29.7571 H   0  0  0  0  0  0
   21.6425   28.7775   29.5050 H   0  0  0  0  0  0
   21.5330   28.2360   27.1141 H   0  0  0  0  0  0
   20.5742   27.1016   28.1243 H   0  0  0  0  0  0
   22.1643   26.5908   27.4629 H   0  0  0  0  0  0
   22.9547   25.3001   28.9543 H   0  0  0  0  0  0
   22.9901   23.6308   30.7742 H   0  0  0  0  0  0
   22.4957   24.3172   33.0984 H   0  0  0  0  0  0
   22.0289   26.6909   33.6038 H   0  0  0  0  0  0
   21.9590   28.3585   31.7838 H   0  0  0  0  0  0
  1  2  2  0  0  0
  1  3  1  0  0  0
  1 12  1  0  0  0
  2 10  1  0  0  0
  2 28  1  0  0  0
  3  5  1  0  0  0
  3  6  1  0  0  0
  3  7  1  0  0  0
  4  8  2  0  0  0
  4 14  1  0  0  0
  4 27  1  0  0  0
  5 29  1  0  0  0
  5 30  1  0  0  0
  5 31  1  0  0  0
  6 32  1  0  0  0
  6 33  1  0  0  0
  6 34  1  0  0  0
  7 35  1  0  0  0
  7 36  1  0  0  0
  7 37  1  0  0  0
  8 15  1  0  0  0
  8 38  1  0  0  0
  9 15  2  0  0  0
  9 16  1  0  0  0
  9 27  1  0  0  0
 10 11  2  0  0  0
 11 12  1  0  0  0
 11 13  1  0  0  0
 13 14  1  0  0  0
 13 39  1  0  0  0
 13 40  1  0  0  0
 16 17  1  0  0  0
 16 41  1  0  0  0
 17 18  2  0  0  0
 17 19  1  0  0  0
 19 20  1  0  0  0
 19 21  1  0  0  0
 19 42  1  0  0  0
 20 43  1  0  0  0
 20 44  1  0  0  0
 20 45  1  0  0  0
 21 22  2  0  0  0
 21 26  1  0  0  0
 22 23  1  0  0  0
 22 46  1  0  0  0
 23 24  2  0  0  0
 23 47  1  0  0  0
 24 25  1  0  0  0
 24 48  1  0  0  0
 25 26  2  0  0  0
 25 49  1  0  0  0
 26 50  1  0  0  0
M  END
> <s_m_source_file>
../4lyn_ligand.sdf

> <i_m_source_file_index>
1

> <s_epik_input>
W0NIM11DKFtDSDNdKShbQ0gzXSljMVtjSF1uYyhvMSlbQ0gyXVNjMltjSF1uYyhzMilbTkhdQyg9TylbQ0BASF0oW0NIM10pYzNbY0hdW2NIXVtjSF1bY0hdW2NIXTM=

> <s_epik_cmdline>
J2VwaWtfYXBwJywgJy1pbWFlJywgJ2xpZ2FuZF9wcm8ubWFlJywgJy1vbWFlJywgJ2xpZ2FuZF9wcmVwLm1hZScsICctbXMnLCAnMScsICctcGgnLCAnNycsICctcGh0JywgJzAuNScsICctbnQn

> <r_lp_tautomer_probability>
1

> <r_epik_Ionization_Penalty>
  0.0008

> <r_epik_Ionization_Penalty_Charging>
  0.0000

> <r_epik_Ionization_Penalty_Neutral>
  0.0008

> <r_epik_State_Penalty>
 -0.0000

> <r_epik_Charging_Adjusted_Penalty>
0

> <i_epik_Tot_Q>
0

> <i_epik_Tot_abs_Q>
0

$$$$
