4lys_ligand
                    3D
 Schrodinger Suite 2020-3.
 51 53  0  0  1  0            999 V2000
    6.9190   54.0140    4.4070 O   0  0  0  0  0  0
    6.3190   52.9510    4.5460 C   0  0  0  0  0  0
    6.1320   52.0800    3.3640 C   0  0  0  0  0  0
    5.8110   52.5710    5.7260 N   0  0  0  0  0  0
    5.1650   51.2900    5.9480 C   0  0  2  0  0  0
    3.8390   51.1530    5.2440 C   0  0  0  0  0  0
    3.2130   52.2960    4.9170 C   0  0  0  0  0  0
    4.9800   51.0260    7.4440 C   0  0  0  0  0  0
    4.3600   49.6620    7.7590 C   0  0  0  0  0  0
    4.7070   48.5800    6.7510 C   0  0  0  0  0  0
    5.4910   47.4970    7.1330 C   0  0  0  0  0  0
    5.8160   46.4940    6.2290 C   0  0  0  0  0  0
    5.3670   46.5710    4.9350 C   0  0  0  0  0  0
    4.5730   47.6270    4.5510 C   0  0  0  0  0  0
    4.1450   47.6790    3.2550 O   0  0  0  0  0  0
    4.7090   48.6710    2.3970 C   0  0  0  0  0  0
    5.6310   45.5580    4.0590 O   0  0  0  0  0  0
    6.6810   45.6610    3.1560 C   0  0  0  0  0  0
    6.5780   45.4050    6.5560 O   0  0  0  0  0  0
    7.1210   45.2290    7.8550 C   0  0  0  0  0  0
    4.2440   48.6430    5.4520 C   0  0  0  0  0  0
    3.3820   49.7870    4.9890 C   0  0  0  0  0  0
    2.2390   49.3840    4.3870 C   0  0  0  0  0  0
    1.1650   50.1400    3.7880 C   0  0  0  0  0  0
    1.0440   51.4650    3.7110 C   0  0  0  0  0  0
    1.9460   52.4870    4.2180 C   0  0  0  0  0  0
    1.6230   53.6540    4.0170 O   0  0  0  0  0  0
   -0.0210   51.9230    3.0840 O   0  0  0  0  0  0
    6.6097   52.5431    2.4880 H   0  0  0  0  0  0
    5.0570   51.9511    3.1700 H   0  0  0  0  0  0
    6.5903   51.0986    3.5556 H   0  0  0  0  0  0
    5.9038   53.2908    6.5526 H   0  0  0  0  0  0
    5.8650   50.5778    5.4867 H   0  0  0  0  0  0
    3.6619   53.2644    5.1828 H   0  0  0  0  0  0
    5.9577   51.0640    7.9467 H   0  0  0  0  0  0
    4.3174   51.7924    7.8724 H   0  0  0  0  0  0
    4.7137   49.3166    8.7417 H   0  0  0  0  0  0
    3.2638   49.7523    7.7749 H   0  0  0  0  0  0
    5.8562   47.4342    8.1581 H   0  0  0  0  0  0
    4.2651   48.5838    1.3943 H   0  0  0  0  0  0
    5.7969   48.5227    2.3306 H   0  0  0  0  0  0
    4.4995   49.6708    2.8051 H   0  0  0  0  0  0
    6.7281   44.7489    2.5429 H   0  0  0  0  0  0
    7.6263   45.7829    3.7052 H   0  0  0  0  0  0
    6.5203   46.5328    2.5047 H   0  0  0  0  0  0
    7.6940   44.2907    7.8888 H   0  0  0  0  0  0
    6.3046   45.1868    8.5910 H   0  0  0  0  0  0
    7.7853   46.0731    8.0922 H   0  0  0  0  0  0
    2.0133   48.3111    4.2973 H   0  0  0  0  0  0
    1.0873   49.8842    2.7210 H   0  0  0  0  0  0
    0.2188   49.8963    4.2933 H   0  0  0  0  0  0
  1  2  2  0  0  0
  2  3  1  0  0  0
  2  4  1  0  0  0
  3 29  1  0  0  0
  3 30  1  0  0  0
  3 31  1  0  0  0
  4  5  1  0  0  0
  4 32  1  0  0  0
  5  6  1  0  0  0
  5  8  1  0  0  0
  5 33  1  0  0  0
  6  7  2  0  0  0
  6 22  1  0  0  0
  7 26  1  0  0  0
  7 34  1  0  0  0
  8  9  1  0  0  0
  8 35  1  0  0  0
  8 36  1  0  0  0
  9 10  1  0  0  0
  9 37  1  0  0  0
  9 38  1  0  0  0
 10 11  2  0  0  0
 10 21  1  0  0  0
 11 12  1  0  0  0
 11 39  1  0  0  0
 12 13  2  0  0  0
 12 19  1  0  0  0
 13 14  1  0  0  0
 13 17  1  0  0  0
 14 15  1  0  0  0
 14 21  2  0  0  0
 15 16  1  0  0  0
 16 40  1  0  0  0
 16 41  1  0  0  0
 16 42  1  0  0  0
 17 18  1  0  0  0
 18 43  1  0  0  0
 18 44  1  0  0  0
 18 45  1  0  0  0
 19 20  1  0  0  0
 20 46  1  0  0  0
 20 47  1  0  0  0
 20 48  1  0  0  0
 21 22  1  0  0  0
 22 23  2  0  0  0
 23 24  1  0  0  0
 23 49  1  0  0  0
 24 25  1  0  0  0
 24 50  1  0  0  0
 24 51  1  0  0  0
 25 26  1  0  0  0
 25 28  2  0  0  0
 26 27  2  0  0  0
M  END
> <s_m_source_file>
../4lys_ligand.sdf

> <i_m_source_file_index>
1

> <s_epik_input>
Tz1DKFtDSDNdKVtOSF1bQ0BIXTFbQ0gyXVtDSDJdYyhbY0hdYyhPW0NIM10pYyhPW0NIM10pYzJPW0NIM10pYzJDKEMxPTMpPVtDSF1bQ0gyXUMoPU8pQyg9TylbQ0hdMw==

> <s_epik_cmdline>
J2VwaWtfYXBwJywgJy1pbWFlJywgJ2xpZ2FuZF9wcm8ubWFlJywgJy1vbWFlJywgJ2xpZ2FuZF9wcmVwLm1hZScsICctbXMnLCAnMScsICctcGgnLCAnNycsICctcGh0JywgJzAuNScsICctbnQn

> <r_lp_tautomer_probability>
1

> <r_epik_Ionization_Penalty>
  0.0000

> <r_epik_Ionization_Penalty_Charging>
  0.0000

> <r_epik_Ionization_Penalty_Neutral>
  0.0000

> <r_epik_State_Penalty>
 -0.0000

> <r_epik_Charging_Adjusted_Penalty>
0

> <i_epik_Tot_Q>
0

> <i_epik_Tot_abs_Q>
0

$$$$
