4lyw_ligand
                    3D
 Schrodinger Suite 2020-3.
 56 57  0  0  1  0            999 V2000
    4.7060    9.9960   23.9470 C   0  0  0  0  0  0
    4.1290    9.7990   22.5520 C   0  0  0  0  0  0
    5.2040    9.4760   21.5890 C   0  0  0  0  0  0
    6.5950    8.3540   20.2800 N   0  3  0  0  0  0
    5.5660    8.2050   21.1660 C   0  0  0  0  0  0
    5.0770    6.8930   21.4620 C   0  0  0  0  0  0
    3.7240    5.5770   23.0290 C   0  0  0  0  0  0
    3.4720    4.4860   22.2120 C   0  0  0  0  0  0
    2.7930    3.4020   22.7610 C   0  0  0  0  0  0
    2.3650    3.3900   24.0760 C   0  0  0  0  0  0
    2.6210    4.4770   24.8820 C   0  0  0  0  0  0
    3.2970    5.5490   24.3410 C   0  0  0  0  0  0
    3.5670    6.6550   25.1260 O   0  0  0  0  0  0
    0.5180    3.4530   20.5740 C   0  0  0  0  0  0
   -0.2040    1.2260   21.4020 C   0  0  0  0  0  0
    6.0960   11.8390   21.0150 C   0  0  0  0  0  0
    7.1170   12.4840   20.8100 O   0  0  0  0  0  0
    6.0580   10.4020   20.9380 C   0  0  0  0  0  0
    6.9110    9.6700   20.1250 C   0  0  0  0  0  0
    8.0110   10.0460   19.1950 C   0  0  0  0  0  0
    4.8170   12.5450   21.3010 C   0  0  0  0  0  0
    0.1130    2.9090   19.2190 C   0  0  0  0  0  0
    0.5740   -0.0520   21.1720 C   0  0  0  0  0  0
    4.4030    6.7620   22.6510 N   0  0  0  0  0  0
    0.7560    2.3440   21.5290 N   0  0  0  0  0  0
    5.2740    5.9670   20.6990 O   0  0  0  0  0  0
    3.0720    1.8820   20.5450 O   0  0  0  0  0  0
    2.4630    0.8150   22.7790 O   0  0  0  0  0  0
    2.3880    1.9160   21.8280 S   0  0  0  0  0  0
    3.8938   10.2351   24.6493 H   0  0  0  0  0  0
    5.4316   10.8226   23.9303 H   0  0  0  0  0  0
    5.2095    9.0726   24.2693 H   0  0  0  0  0  0
    3.4034    8.9724   22.5687 H   0  0  0  0  0  0
    3.6255   10.7224   22.2297 H   0  0  0  0  0  0
    3.7957    4.4772   21.1712 H   0  0  0  0  0  0
    1.8293    2.5270   24.4714 H   0  0  0  0  0  0
    2.2968    4.4890   25.9226 H   0  0  0  0  0  0
    4.1063    7.5137   24.6996 H   0  0  0  0  0  0
    1.4421    4.0409   20.4718 H   0  0  0  0  0  0
   -0.2841    4.0958   20.9657 H   0  0  0  0  0  0
   -0.8768    1.4040   20.5501 H   0  0  0  0  0  0
   -0.7966    1.1336   22.3241 H   0  0  0  0  0  0
    8.4349    9.1376   18.7421 H   0  0  0  0  0  0
    8.7960   10.5787   19.7519 H   0  0  0  0  0  0
    7.6149   10.6996   18.4038 H   0  0  0  0  0  0
    4.9957   13.6300   21.3304 H   0  0  0  0  0  0
    4.4235   12.2117   22.2726 H   0  0  0  0  0  0
    4.0867   12.3150   20.5112 H   0  0  0  0  0  0
   -0.0590    3.7448   18.5249 H   0  0  0  0  0  0
   -0.8111    2.3211   19.3212 H   0  0  0  0  0  0
    0.9151    2.2662   18.8273 H   0  0  0  0  0  0
   -0.1260   -0.8950   21.0752 H   0  0  0  0  0  0
    1.2468   -0.2300   22.0239 H   0  0  0  0  0  0
    1.1665    0.0404   20.2498 H   0  0  0  0  0  0
    4.3731    7.6011   23.3616 H   0  0  0  0  0  0
    7.0446    7.4693   19.8054 H   0  0  0  0  0  0
  1  2  1  0  0  0
  1 30  1  0  0  0
  1 31  1  0  0  0
  1 32  1  0  0  0
  2  3  1  0  0  0
  2 33  1  0  0  0
  2 34  1  0  0  0
  3  5  2  0  0  0
  3 18  1  0  0  0
  4  5  1  0  0  0
  4 19  1  0  0  0
  4 56  1  0  0  0
  5  6  1  0  0  0
  6 24  1  0  0  0
  6 26  2  0  0  0
  7  8  2  0  0  0
  7 12  1  0  0  0
  7 24  1  0  0  0
  8  9  1  0  0  0
  8 35  1  0  0  0
  9 10  2  0  0  0
  9 29  1  0  0  0
 10 11  1  0  0  0
 10 36  1  0  0  0
 11 12  2  0  0  0
 11 37  1  0  0  0
 12 13  1  0  0  0
 13 38  1  0  0  0
 14 22  1  0  0  0
 14 25  1  0  0  0
 14 39  1  0  0  0
 14 40  1  0  0  0
 15 23  1  0  0  0
 15 25  1  0  0  0
 15 41  1  0  0  0
 15 42  1  0  0  0
 16 17  2  0  0  0
 16 18  1  0  0  0
 16 21  1  0  0  0
 18 19  2  0  0  0
 19 20  1  0  0  0
 20 43  1  0  0  0
 20 44  1  0  0  0
 20 45  1  0  0  0
 21 46  1  0  0  0
 21 47  1  0  0  0
 21 48  1  0  0  0
 22 49  1  0  0  0
 22 50  1  0  0  0
 22 51  1  0  0  0
 23 52  1  0  0  0
 23 53  1  0  0  0
 23 54  1  0  0  0
 24 55  1  0  0  0
 25 29  1  0  0  0
 27 29  2  0  0  0
 28 29  2  0  0  0
M  CHG  1   4   1
M  END
> <s_m_source_file>
../4lyw_ligand.sdf

> <i_m_source_file_index>
1

> <s_epik_input>
Tz1DKFtDSDNdKWMxYyhbQ0gzXSlbbkhdYyhjMVtDSDJdW0NIM10pQyg9TylbTkhdYzJbY0hdYyhbY0hdW2NIXWMyW09IXSlTKD1PKSg9TylOKFtDSDJdW0NIM10pW0NIMl1bQ0gzXQ==

> <s_epik_cmdline>
J2VwaWtfYXBwJywgJy1pbWFlJywgJ2xpZ2FuZF9wcm8ubWFlJywgJy1vbWFlJywgJ2xpZ2FuZF9wcmVwLm1hZScsICctbXMnLCAnMScsICctcGgnLCAnNycsICctcGh0JywgJzAuNScsICctbnQn

> <r_lp_tautomer_probability>
0.999999999997365

> <r_epik_Ionization_Penalty>
  0.0163

> <r_epik_Ionization_Penalty_Charging>
  0.0000

> <r_epik_Ionization_Penalty_Neutral>
  0.0163

> <r_epik_State_Penalty>
  0.0129

> <r_epik_Charging_Adjusted_Penalty>
0.0128682712839152

> <i_epik_Tot_Q>
1

> <i_epik_Tot_abs_Q>
1

$$$$
