4lzr_ligand
                    3D
 Schrodinger Suite 2020-3.
 54 56  0  0  1  0            999 V2000
  -14.5370    6.0370   -5.7800 O   0  0  0  0  0  0
  -13.8110    6.4180   -4.8550 C   0  0  0  0  0  0
  -12.3610    6.0970   -4.7960 C   0  0  0  0  0  0
  -14.2680    7.1770   -3.8470 N   0  0  0  0  0  0
  -13.3990    7.8030   -2.8640 C   0  0  2  0  0  0
  -13.1780    6.9710   -1.6150 C   0  0  0  0  0  0
  -14.1460    6.1160   -1.2320 C   0  0  0  0  0  0
  -13.9090    9.2110   -2.5360 C   0  0  0  0  0  0
  -13.0720    9.9320   -1.4750 C   0  0  0  0  0  0
  -11.5990    9.6260   -1.6240 C   0  0  0  0  0  0
  -10.7890   10.6660   -2.0600 C   0  0  0  0  0  0
   -9.4250   10.4750   -2.2230 C   0  0  0  0  0  0
   -8.8700    9.2220   -1.9540 C   0  0  0  0  0  0
   -9.6750    8.1680   -1.5260 C   0  0  0  0  0  0
   -9.0870    6.9490   -1.2960 O   0  0  0  0  0  0
   -9.0450    6.0520   -2.4150 C   0  0  0  0  0  0
   -7.5060    9.0360   -2.0910 O   0  0  0  0  0  0
   -6.6980    9.4670   -1.0060 C   0  0  0  0  0  0
   -8.6080   11.5050   -2.6350 O   0  0  0  0  0  0
   -9.0390   12.8530   -2.8820 C   0  0  0  0  0  0
  -11.0500    8.3640   -1.3680 C   0  0  0  0  0  0
  -11.9260    7.2420   -0.8870 C   0  0  0  0  0  0
  -11.4770    6.6850    0.2460 C   0  0  0  0  0  0
  -12.0020    5.5830    1.0320 C   0  0  0  0  0  0
  -13.1580    4.9330    0.8990 C   0  0  0  0  0  0
  -14.2040    5.1940   -0.0890 C   0  0  0  0  0  0
  -15.2340    4.5570    0.0340 O   0  0  0  0  0  0
  -13.4060    3.8550    1.8360 O   0  0  0  0  0  0
  -12.3330    3.1890    2.5060 C   0  0  0  0  0  0
  -12.0877    5.4750   -5.6611 H   0  0  0  0  0  0
  -12.1443    5.5489   -3.8672 H   0  0  0  0  0  0
  -11.7779    7.0295   -4.8160 H   0  0  0  0  0  0
  -15.3575    7.3155   -3.7855 H   0  0  0  0  0  0
  -12.4210    7.8452   -3.3657 H   0  0  0  0  0  0
  -15.0278    6.1065   -1.8727 H   0  0  0  0  0  0
  -13.8905    9.8289   -3.4459 H   0  0  0  0  0  0
  -14.9394    9.1485   -2.1561 H   0  0  0  0  0  0
  -13.2121   11.0186   -1.5735 H   0  0  0  0  0  0
  -13.3934    9.6102   -0.4734 H   0  0  0  0  0  0
  -11.2284   11.6399   -2.2758 H   0  0  0  0  0  0
   -8.5552    5.1140   -2.1148 H   0  0  0  0  0  0
   -8.4777    6.5157   -3.2355 H   0  0  0  0  0  0
  -10.0700    5.8387   -2.7526 H   0  0  0  0  0  0
   -5.6407    9.2664   -1.2339 H   0  0  0  0  0  0
   -6.9865    8.9223   -0.0950 H   0  0  0  0  0  0
   -6.8408   10.5463   -0.8486 H   0  0  0  0  0  0
   -8.1786   13.4608   -3.1988 H   0  0  0  0  0  0
   -9.4673   13.2756   -1.9611 H   0  0  0  0  0  0
   -9.8011   12.8547   -3.6752 H   0  0  0  0  0  0
  -10.5666    7.1337    0.6434 H   0  0  0  0  0  0
  -11.3614    5.2393    1.8442 H   0  0  0  0  0  0
  -12.7407    2.4096    3.1665 H   0  0  0  0  0  0
  -11.7662    3.9173    3.1046 H   0  0  0  0  0  0
  -11.6665    2.7277    1.7624 H   0  0  0  0  0  0
  1  2  2  0  0  0
  2  3  1  0  0  0
  2  4  1  0  0  0
  3 30  1  0  0  0
  3 31  1  0  0  0
  3 32  1  0  0  0
  4  5  1  0  0  0
  4 33  1  0  0  0
  5  6  1  0  0  0
  5  8  1  0  0  0
  5 34  1  0  0  0
  6  7  2  0  0  0
  6 22  1  0  0  0
  7 26  1  0  0  0
  7 35  1  0  0  0
  8  9  1  0  0  0
  8 36  1  0  0  0
  8 37  1  0  0  0
  9 10  1  0  0  0
  9 38  1  0  0  0
  9 39  1  0  0  0
 10 11  2  0  0  0
 10 21  1  0  0  0
 11 12  1  0  0  0
 11 40  1  0  0  0
 12 13  2  0  0  0
 12 19  1  0  0  0
 13 14  1  0  0  0
 13 17  1  0  0  0
 14 15  1  0  0  0
 14 21  2  0  0  0
 15 16  1  0  0  0
 16 41  1  0  0  0
 16 42  1  0  0  0
 16 43  1  0  0  0
 17 18  1  0  0  0
 18 44  1  0  0  0
 18 45  1  0  0  0
 18 46  1  0  0  0
 19 20  1  0  0  0
 20 47  1  0  0  0
 20 48  1  0  0  0
 20 49  1  0  0  0
 21 22  1  0  0  0
 22 23  2  0  0  0
 23 24  1  0  0  0
 23 50  1  0  0  0
 24 25  2  0  0  0
 24 51  1  0  0  0
 25 26  1  0  0  0
 25 28  1  0  0  0
 26 27  2  0  0  0
 28 29  1  0  0  0
 29 52  1  0  0  0
 29 53  1  0  0  0
 29 54  1  0  0  0
M  END
> <s_m_source_file>
../4lzr_ligand.sdf

> <i_m_source_file_index>
1

> <s_epik_input>
Tz1DKFtDSDNdKVtOSF1bQ0BIXTFbQ0gyXVtDSDJdYyhbY0hdYyhPW0NIM10pYyhPW0NIM10pYzJPW0NIM10pYzJjKGMxMylbY0hdW2NIXWMoYyg9TylbY0hdMylPW0NIM10=

> <s_epik_cmdline>
J2VwaWtfYXBwJywgJy1pbWFlJywgJ2xpZ2FuZF9wcm8ubWFlJywgJy1vbWFlJywgJ2xpZ2FuZF9wcmVwLm1hZScsICctbXMnLCAnMScsICctcGgnLCAnNycsICctcGh0JywgJzAuNScsICctbnQn

> <r_lp_tautomer_probability>
1

> <r_epik_Ionization_Penalty>
  0.0000

> <r_epik_Ionization_Penalty_Charging>
  0.0000

> <r_epik_Ionization_Penalty_Neutral>
  0.0000

> <r_epik_State_Penalty>
 -0.0000

> <r_epik_Charging_Adjusted_Penalty>
0

> <i_epik_Tot_Q>
0

> <i_epik_Tot_abs_Q>
0

$$$$
