4m0e_ligand
                    3D
 Schrodinger Suite 2020-3.
 35 38  0  0  1  0            999 V2000
  -21.9220  -40.4310   26.4360 C   0  0  0  0  0  0
  -20.8500  -40.7160   25.2850 C   0  0  0  0  0  0
  -21.0960  -40.3650   23.8880 C   0  0  0  0  0  0
  -20.0970  -40.6540   22.8700 C   0  0  0  0  0  0
  -18.8400  -41.3020   23.2570 C   0  0  0  0  0  0
  -18.5870  -41.6580   24.6620 C   0  0  0  0  0  0
  -19.6030  -41.3510   25.6650 C   0  0  0  0  0  0
  -19.4110  -41.6760   27.0780 C   0  0  0  0  0  0
  -18.1650  -42.3210   27.4940 C   0  0  0  0  0  0
  -17.1390  -42.6000   26.4960 C   0  0  0  0  0  0
  -17.3260  -42.2970   25.0800 C   0  0  0  0  0  0
  -16.2130  -42.6280   24.1350 C   0  0  0  0  0  0
  -16.2790  -42.3790   22.9000 O   0  0  0  0  0  0
  -14.9840  -43.2650   24.5860 C   0  0  0  0  0  0
  -14.0660  -43.5380   23.7340 O   0  0  0  0  0  0
  -14.8330  -43.6020   26.0950 C   0  0  0  0  0  0
  -15.8520  -43.2890   26.9740 C   0  0  0  0  0  0
  -15.5000  -43.6870   28.3540 O   0  0  0  0  0  0
  -14.3550  -44.6420   28.2610 C   0  0  0  0  0  0
  -13.6170  -44.2840   26.9010 C   0  0  2  0  0  0
  -12.4200  -43.2130   27.0780 C   0  0  0  0  0  0
  -22.8095  -39.9497   25.9994 H   0  0  0  0  0  0
  -21.4795  -39.7666   27.1928 H   0  0  0  0  0  0
  -22.2146  -41.3806   26.9078 H   0  0  0  0  0  0
  -22.0329  -39.8841   23.6069 H   0  0  0  0  0  0
  -20.2817  -40.3909   21.8285 H   0  0  0  0  0  0
  -18.0881  -41.5214   22.4990 H   0  0  0  0  0  0
  -20.1840  -41.4414   27.8099 H   0  0  0  0  0  0
  -18.0056  -42.5899   28.5382 H   0  0  0  0  0  0
  -13.6915  -44.5044   29.1275 H   0  0  0  0  0  0
  -14.7375  -45.6733   28.2522 H   0  0  0  0  0  0
  -13.1405  -45.1622   26.4408 H   0  0  0  0  0  0
  -11.9577  -43.0148   26.0997 H   0  0  0  0  0  0
  -11.6634  -43.6190   27.7655 H   0  0  0  0  0  0
  -12.8241  -42.2762   27.4892 H   0  0  0  0  0  0
  1  2  1  0  0  0
  1 22  1  0  0  0
  1 23  1  0  0  0
  1 24  1  0  0  0
  2  3  2  0  0  0
  2  7  1  0  0  0
  3  4  1  0  0  0
  3 25  1  0  0  0
  4  5  2  0  0  0
  4 26  1  0  0  0
  5  6  1  0  0  0
  5 27  1  0  0  0
  6  7  2  0  0  0
  6 11  1  0  0  0
  7  8  1  0  0  0
  8  9  2  0  0  0
  8 28  1  0  0  0
  9 10  1  0  0  0
  9 29  1  0  0  0
 10 11  2  0  0  0
 10 17  1  0  0  0
 11 12  1  0  0  0
 12 13  2  0  0  0
 12 14  1  0  0  0
 14 15  2  0  0  0
 14 16  1  0  0  0
 16 17  2  0  0  0
 16 20  1  0  0  0
 17 18  1  0  0  0
 18 19  1  0  0  0
 19 20  1  0  0  0
 19 30  1  0  0  0
 19 31  1  0  0  0
 20 21  1  0  0  0
 20 32  1  0  0  0
 21 33  1  0  0  0
 21 34  1  0  0  0
 21 35  1  0  0  0
M  END
> <s_m_source_file>
../4m0e_ligand.sdf

> <i_m_source_file_index>
1

> <s_epik_input>
W2NIXTFbY0hdW2NIXWMoW0NIM10pYyhjMTIpW2NIXVtjSF1jM2MyQyg9TylDKD1PKUM0PUMzT1tDSDJdW0NAQEhdNFtDSDNd

> <s_epik_cmdline>
J2VwaWtfYXBwJywgJy1pbWFlJywgJ2xpZ2FuZF9wcm8ubWFlJywgJy1vbWFlJywgJ2xpZ2FuZF9wcmVwLm1hZScsICctbXMnLCAnMScsICctcGgnLCAnNycsICctcGh0JywgJzAuNScsICctbnQn

> <r_lp_tautomer_probability>
1

> <r_epik_Ionization_Penalty>
  0.0000

> <r_epik_Ionization_Penalty_Charging>
  0.0000

> <r_epik_Ionization_Penalty_Neutral>
  0.0000

> <r_epik_State_Penalty>
 -0.0000

> <r_epik_Charging_Adjusted_Penalty>
0

> <i_epik_Tot_Q>
0

> <i_epik_Tot_abs_Q>
0

$$$$
