4m0r_ligand
                    3D
 Schrodinger Suite 2020-3.
 42 44  0  0  1  0            999 V2000
  -19.8080   34.1910  -18.2240 O   0  0  0  0  0  0
  -19.7320   35.3800  -17.8360 C   0  0  0  0  0  0
  -20.6290   36.2300  -18.0540 O   0  5  0  0  0  0
  -18.5320   35.8350  -17.0620 C   0  0  0  0  0  0
  -18.2690   37.2000  -17.0550 C   0  0  0  0  0  0
  -17.1820   37.7050  -16.3530 C   0  0  0  0  0  0
  -16.3680   36.8250  -15.6530 C   0  0  0  0  0  0
  -16.6480   35.4600  -15.6710 C   0  0  0  0  0  0
  -17.7390   34.9300  -16.3590 C   0  0  0  0  0  0
  -18.0560   33.5860  -16.3910 N   0  0  0  0  0  0
  -17.7060   32.5950  -15.5040 C   0  0  0  0  0  0
  -18.0260   31.2710  -15.7940 C   0  0  0  0  0  0
  -18.7400   30.9480  -17.0800 C   0  0  0  0  0  0
  -19.7910   31.5430  -17.3830 O   0  0  0  0  0  0
  -18.2310   30.0970  -17.8480 O   0  5  0  0  0  0
  -17.0260   32.8460  -14.3060 C   0  0  0  0  0  0
  -16.6590   31.8280  -13.4380 C   0  0  0  0  0  0
  -16.9790   30.5180  -13.7510 C   0  0  0  0  0  0
  -17.6840   30.2360  -14.9210 C   0  0  0  0  0  0
  -18.0120   28.9440  -15.2230 N   0  0  0  0  0  0
  -18.7410   28.1030  -14.4160 C   0  0  0  0  0  0
  -19.0860   28.4120  -13.0900 C   0  0  0  0  0  0
  -19.7990   27.5260  -12.2990 C   0  0  0  0  0  0
  -20.2060   26.3010  -12.8170 C   0  0  0  0  0  0
  -19.8810   25.9770  -14.1270 C   0  0  0  0  0  0
  -19.1480   26.8680  -14.9160 C   0  0  0  0  0  0
  -18.8190   26.4750  -16.3280 C   0  0  0  0  0  0
  -18.5450   27.3680  -17.1590 O   0  0  0  0  0  0
  -18.8440   25.2620  -16.6350 O   0  5  0  0  0  0
  -18.9207   37.8792  -17.6046 H   0  0  0  0  0  0
  -16.9717   38.7745  -16.3518 H   0  0  0  0  0  0
  -15.5127   37.2004  -15.0912 H   0  0  0  0  0  0
  -15.9902   34.7818  -15.1274 H   0  0  0  0  0  0
  -18.6700   33.1851  -17.2109 H   0  0  0  0  0  0
  -16.7768   33.8750  -14.0469 H   0  0  0  0  0  0
  -16.1231   32.0577  -12.5171 H   0  0  0  0  0  0
  -16.6807   29.7087  -13.0846 H   0  0  0  0  0  0
  -17.6871   28.5026  -16.1768 H   0  0  0  0  0  0
  -18.7852   29.3731  -12.6729 H   0  0  0  0  0  0
  -20.0414   27.7892  -11.2694 H   0  0  0  0  0  0
  -20.7737   25.6034  -12.2012 H   0  0  0  0  0  0
  -20.1996   25.0213  -14.5432 H   0  0  0  0  0  0
  1  2  2  0  0  0
  2  3  1  0  0  0
  2  4  1  0  0  0
  4  5  2  0  0  0
  4  9  1  0  0  0
  5  6  1  0  0  0
  5 30  1  0  0  0
  6  7  2  0  0  0
  6 31  1  0  0  0
  7  8  1  0  0  0
  7 32  1  0  0  0
  8  9  2  0  0  0
  8 33  1  0  0  0
  9 10  1  0  0  0
 10 11  1  0  0  0
 10 34  1  0  0  0
 11 12  2  0  0  0
 11 16  1  0  0  0
 12 13  1  0  0  0
 12 19  1  0  0  0
 13 14  2  0  0  0
 13 15  1  0  0  0
 16 17  2  0  0  0
 16 35  1  0  0  0
 17 18  1  0  0  0
 17 36  1  0  0  0
 18 19  2  0  0  0
 18 37  1  0  0  0
 19 20  1  0  0  0
 20 21  1  0  0  0
 20 38  1  0  0  0
 21 22  2  0  0  0
 21 26  1  0  0  0
 22 23  1  0  0  0
 22 39  1  0  0  0
 23 24  2  0  0  0
 23 40  1  0  0  0
 24 25  1  0  0  0
 24 41  1  0  0  0
 25 26  2  0  0  0
 25 42  1  0  0  0
 26 27  1  0  0  0
 27 28  2  0  0  0
 27 29  1  0  0  0
M  CHG  3   3  -1  15  -1  29  -1
M  END
> <s_m_source_file>
../4m0r_ligand.sdf

> <i_m_source_file_index>
1

> <s_epik_input>
Tz1DKFtPSF0pYzFbY0hdW2NIXVtjSF1bY0hdYzFbTkhdYzJjKEMoPU8pW09IXSljKFtjSF1bY0hdW2NIXTIpW05IXWMzW2NIXVtjSF1bY0hdW2NIXWMzQyg9TylbT0hd

> <s_epik_cmdline>
J2VwaWtfYXBwJywgJy1pbWFlJywgJ2xpZ2FuZF9wcm8ubWFlJywgJy1vbWFlJywgJ2xpZ2FuZF9wcmVwLm1hZScsICctbXMnLCAnMScsICctcGgnLCAnNycsICctcGh0JywgJzAuNScsICctbnQn

> <r_lp_tautomer_probability>
1

> <r_epik_Ionization_Penalty>
  0.0047

> <r_epik_Ionization_Penalty_Charging>
  0.0047

> <r_epik_Ionization_Penalty_Neutral>
  0.0000

> <r_epik_State_Penalty>
 -0.0000

> <r_epik_Charging_Adjusted_Penalty>
0.00474539771632346

> <i_epik_Tot_Q>
-3

> <i_epik_Tot_abs_Q>
3

$$$$
