4m13_ligand
                    3D
 Schrodinger Suite 2020-3.
 45 47  0  0  1  0            999 V2000
   -4.8280    8.2800   13.1770 N   0  0  0  0  0  0
   -5.9160    7.6250   13.6250 N   0  0  0  0  0  0
   -5.4400    6.7140   14.5300 C   0  0  0  0  0  0
   -4.0100    6.8140   14.6280 C   0  0  0  0  0  0
   -3.6290    7.8300   13.7450 C   0  0  0  0  0  0
   -3.2400    6.0040   15.4490 N   0  0  0  0  0  0
   -1.8430    6.1290   15.5270 C   0  0  0  0  0  0
   -1.2110    5.2470   16.3970 N   0  0  0  0  0  0
   -1.1960    6.9640   14.8830 O   0  0  0  0  0  0
   -6.2960    5.7880   15.2740 C   0  0  0  0  0  0
   -7.6370    5.7640   14.9730 N   0  0  0  0  0  0
   -5.8340    5.0530   16.1550 O   0  0  0  0  0  0
   -4.9340    9.3780   12.2570 C   0  0  0  0  0  0
   -4.3100    9.2630   11.0400 C   0  0  0  0  0  0
   -4.4000   10.3270   10.1180 C   0  0  0  0  0  0
   -5.1070   11.4550   10.4330 C   0  0  0  0  0  0
   -5.6720   10.5390   12.6270 C   0  0  0  0  0  0
   -5.7440   11.5830   11.6900 C   0  0  0  0  0  0
   -6.4560   12.7680   12.0260 C   0  0  0  0  0  0
   -7.0740   12.8930   13.2320 C   0  0  0  0  0  0
   -7.0070   11.8140   14.1660 C   0  0  0  0  0  0
   -6.3150   10.6670   13.8840 C   0  0  0  0  0  0
   -7.6780   12.0670   15.3210 O   0  0  0  0  0  0
   -7.6970   11.0380   16.2960 C   0  0  0  0  0  0
   -8.3910   11.6470   17.5180 C   0  0  0  0  0  0
   -7.5530   12.7660   18.1140 C   0  0  0  0  0  0
   -2.6208    8.1920   13.5433 H   0  0  0  0  0  0
   -3.7211    5.2319   16.0675 H   0  0  0  0  0  0
   -1.8035    4.5115   16.9610 H   0  0  0  0  0  0
   -0.1187    5.2849   16.5211 H   0  0  0  0  0  0
   -8.0362    6.4224   14.1874 H   0  0  0  0  0  0
   -8.3109    5.0864   15.5177 H   0  0  0  0  0  0
   -3.7519    8.3610   10.7890 H   0  0  0  0  0  0
   -3.9040   10.2500    9.1504 H   0  0  0  0  0  0
   -5.1805   12.2648    9.7071 H   0  0  0  0  0  0
   -6.5072   13.5865   11.3080 H   0  0  0  0  0  0
   -7.6140   13.8061   13.4825 H   0  0  0  0  0  0
   -6.2591    9.8621   14.6168 H   0  0  0  0  0  0
   -8.2545   10.1736   15.9060 H   0  0  0  0  0  0
   -6.6657   10.7344   16.5289 H   0  0  0  0  0  0
   -9.3673   12.0563   17.2191 H   0  0  0  0  0  0
   -8.5379   10.8692   18.2818 H   0  0  0  0  0  0
   -8.0714   13.1865   18.9883 H   0  0  0  0  0  0
   -7.4053   13.5543   17.3612 H   0  0  0  0  0  0
   -6.5758   12.3671   18.4239 H   0  0  0  0  0  0
  1  2  1  0  0  0
  1  5  1  0  0  0
  1 13  1  0  0  0
  2  3  2  0  0  0
  3  4  1  0  0  0
  3 10  1  0  0  0
  4  5  2  0  0  0
  4  6  1  0  0  0
  5 27  1  0  0  0
  6  7  1  0  0  0
  6 28  1  0  0  0
  7  8  1  0  0  0
  7  9  2  0  0  0
  8 29  1  0  0  0
  8 30  1  0  0  0
 10 11  1  0  0  0
 10 12  2  0  0  0
 11 31  1  0  0  0
 11 32  1  0  0  0
 13 14  2  0  0  0
 13 17  1  0  0  0
 14 15  1  0  0  0
 14 33  1  0  0  0
 15 16  2  0  0  0
 15 34  1  0  0  0
 16 18  1  0  0  0
 16 35  1  0  0  0
 17 18  2  0  0  0
 17 22  1  0  0  0
 18 19  1  0  0  0
 19 20  2  0  0  0
 19 36  1  0  0  0
 20 21  1  0  0  0
 20 37  1  0  0  0
 21 22  2  0  0  0
 21 23  1  0  0  0
 22 38  1  0  0  0
 23 24  1  0  0  0
 24 25  1  0  0  0
 24 39  1  0  0  0
 24 40  1  0  0  0
 25 26  1  0  0  0
 25 41  1  0  0  0
 25 42  1  0  0  0
 26 43  1  0  0  0
 26 44  1  0  0  0
 26 45  1  0  0  0
M  END
> <s_m_source_file>
../4m13_ligand.sdf

> <i_m_source_file_index>
1

> <s_epik_input>
W05IMl1DKD1PKVtOSF1jKFtjSF0xKWMoQyg9TylbTkgyXSlubjEtYzJbY0hdW2NIXVtjSF1jKGMyMylbY0hdW2NIXWMoW2NIXTMpT1tDSDJdW0NIMl1bQ0gzXQ==

> <s_epik_cmdline>
J2VwaWtfYXBwJywgJy1pbWFlJywgJ2xpZ2FuZF9wcm8ubWFlJywgJy1vbWFlJywgJ2xpZ2FuZF9wcmVwLm1hZScsICctbXMnLCAnMScsICctcGgnLCAnNycsICctcGh0JywgJzAuNScsICctbnQn

> <r_lp_tautomer_probability>
1

> <r_epik_Ionization_Penalty>
  0.0000

> <r_epik_Ionization_Penalty_Charging>
  0.0000

> <r_epik_Ionization_Penalty_Neutral>
  0.0000

> <r_epik_State_Penalty>
 -0.0000

> <r_epik_Charging_Adjusted_Penalty>
0

> <i_epik_Tot_Q>
0

> <i_epik_Tot_abs_Q>
0

$$$$
