4m14_ligand
                    3D
 Schrodinger Suite 2020-3.
 45 47  0  0  1  0            999 V2000
    7.4070    4.3510   24.1000 N   0  0  0  0  0  0
    7.8760    4.7650   22.9060 N   0  0  0  0  0  0
    6.7900    5.1220   22.2070 C   0  0  0  0  0  0
    5.6050    4.9240   22.9580 C   0  0  0  0  0  0
    6.0390    4.4130   24.1630 C   0  0  0  0  0  0
    4.2920    5.1690   22.5610 N   0  0  0  0  0  0
    3.2250    4.4710   23.1100 C   0  0  0  0  0  0
    2.1010    4.5890   22.3320 N   0  0  0  0  0  0
    3.2830    3.8070   24.1490 O   0  0  0  0  0  0
    6.8960    5.6290   20.8620 C   0  0  0  0  0  0
    8.1660    5.5480   20.3400 N   0  0  0  0  0  0
    5.9230    6.0540   20.2550 O   0  0  0  0  0  0
    8.2460    3.8770   25.1320 C   0  0  0  0  0  0
    7.7970    2.7760   25.8360 C   0  0  0  0  0  0
    8.5440    2.2590   26.8740 C   0  0  0  0  0  0
    9.7330    2.8640   27.2280 C   0  0  0  0  0  0
    9.4500    4.4860   25.4670 C   0  0  0  0  0  0
   10.1810    3.9690   26.5340 C   0  0  0  0  0  0
   11.3830    4.5330   26.9050 C   0  0  0  0  0  0
   11.8650    5.6380   26.2350 C   0  0  0  0  0  0
   11.1560    6.1620   25.1740 C   0  0  0  0  0  0
    9.9550    5.5820   24.7880 C   0  0  0  0  0  0
   11.7180    7.3000   24.6000 O   0  0  0  0  0  0
   11.1820    7.6660   23.3280 C   0  0  0  0  0  0
   10.1480    8.7540   23.5260 C   0  0  0  0  0  0
   12.3330    8.2610   22.5500 C   0  0  0  0  0  0
    5.4138    4.1153   25.0048 H   0  0  0  0  0  0
    4.0818    5.9306   21.7956 H   0  0  0  0  0  0
    2.1266    5.2002   21.4178 H   0  0  0  0  0  0
    1.1743    4.0724   22.6225 H   0  0  0  0  0  0
    8.9887    5.1524   20.9537 H   0  0  0  0  0  0
    8.3589    5.8788   19.3088 H   0  0  0  0  0  0
    6.8468    2.3132   25.5695 H   0  0  0  0  0  0
    8.1970    1.3769   27.4121 H   0  0  0  0  0  0
   10.3191    2.4680   28.0574 H   0  0  0  0  0  0
   11.9534    4.1049   27.7293 H   0  0  0  0  0  0
   12.8046    6.0965   26.5433 H   0  0  0  0  0  0
    9.4043    5.9935   23.9421 H   0  0  0  0  0  0
   10.7399    6.7743   22.8595 H   0  0  0  0  0  0
    9.2948    8.3505   24.0911 H   0  0  0  0  0  0
    9.8016    9.1134   22.5458 H   0  0  0  0  0  0
   10.5964    9.5886   24.0850 H   0  0  0  0  0  0
   13.1033    7.4923   22.3896 H   0  0  0  0  0  0
   12.7641    9.0995   23.1167 H   0  0  0  0  0  0
   11.9693    8.6242   21.5775 H   0  0  0  0  0  0
  1  2  1  0  0  0
  1  5  1  0  0  0
  1 13  1  0  0  0
  2  3  2  0  0  0
  3  4  1  0  0  0
  3 10  1  0  0  0
  4  5  2  0  0  0
  4  6  1  0  0  0
  5 27  1  0  0  0
  6  7  1  0  0  0
  6 28  1  0  0  0
  7  8  1  0  0  0
  7  9  2  0  0  0
  8 29  1  0  0  0
  8 30  1  0  0  0
 10 11  1  0  0  0
 10 12  2  0  0  0
 11 31  1  0  0  0
 11 32  1  0  0  0
 13 14  2  0  0  0
 13 17  1  0  0  0
 14 15  1  0  0  0
 14 33  1  0  0  0
 15 16  2  0  0  0
 15 34  1  0  0  0
 16 18  1  0  0  0
 16 35  1  0  0  0
 17 18  2  0  0  0
 17 22  1  0  0  0
 18 19  1  0  0  0
 19 20  2  0  0  0
 19 36  1  0  0  0
 20 21  1  0  0  0
 20 37  1  0  0  0
 21 22  2  0  0  0
 21 23  1  0  0  0
 22 38  1  0  0  0
 23 24  1  0  0  0
 24 25  1  0  0  0
 24 26  1  0  0  0
 24 39  1  0  0  0
 25 40  1  0  0  0
 25 41  1  0  0  0
 25 42  1  0  0  0
 26 43  1  0  0  0
 26 44  1  0  0  0
 26 45  1  0  0  0
M  END
> <s_m_source_file>
../4m14_ligand.sdf

> <i_m_source_file_index>
1

> <s_epik_input>
W05IMl1DKD1PKVtOSF1jKFtjSF0xKWMoQyg9TylbTkgyXSlubjEtYzJbY0hdW2NIXVtjSF1jKGMyMylbY0hdW2NIXWMoW2NIXTMpT1tDSF0oW0NIM10pW0NIM10=

> <s_epik_cmdline>
J2VwaWtfYXBwJywgJy1pbWFlJywgJ2xpZ2FuZF9wcm8ubWFlJywgJy1vbWFlJywgJ2xpZ2FuZF9wcmVwLm1hZScsICctbXMnLCAnMScsICctcGgnLCAnNycsICctcGh0JywgJzAuNScsICctbnQn

> <r_lp_tautomer_probability>
1

> <r_epik_Ionization_Penalty>
  0.0000

> <r_epik_Ionization_Penalty_Charging>
  0.0000

> <r_epik_Ionization_Penalty_Neutral>
  0.0000

> <r_epik_State_Penalty>
 -0.0000

> <r_epik_Charging_Adjusted_Penalty>
0

> <i_epik_Tot_Q>
0

> <i_epik_Tot_abs_Q>
0

$$$$
