4m1d_ligand
                    3D
 Schrodinger Suite 2020-3.
217221  0  0  1  0            999 V2000
    0.8660   24.9840   71.7810 N   0  3  0  0  0  0
    0.8260   25.0620   70.3280 C   0  0  2  0  0  0
    0.1140   23.8440   69.7290 C   0  0  0  0  0  0
   -0.2230   22.8970   70.4460 O   0  0  0  0  0  0
    2.2440   25.1920   69.7730 C   0  0  0  0  0  0
    3.0860   26.7410   70.2640 S   0  0  0  0  0  0
   -0.1210   23.8720   68.4220 N   0  0  0  0  0  0
   -0.7860   22.7580   67.7420 C   0  0  2  0  0  0
    0.1110   22.1890   66.6620 C   0  0  0  0  0  0
    0.8420   22.9250   65.9970 O   0  0  0  0  0  0
   -2.0930   23.2410   67.1120 C   0  0  0  0  0  0
   -3.0770   23.8100   68.1130 C   0  0  0  0  0  0
   -4.3510   24.2100   67.3990 C   0  0  0  0  0  0
   -5.3600   24.7460   68.3100 N   0  0  0  0  0  0
   -6.5780   25.1040   67.9220 C   0  0  0  0  0  0
   -6.9330   24.9690   66.6470 N   0  0  0  0  0  0
   -7.4440   25.5910   68.8020 N   0  0  0  0  0  0
    0.0800   20.8670   66.5070 N   0  0  0  0  0  0
    0.8210   20.2210   65.4550 C   0  0  2  0  0  0
   -0.2070   19.5950   64.5210 C   0  0  0  0  0  0
   -1.1110   18.9100   64.9730 O   0  0  0  0  0  0
    1.7690   19.1570   66.0380 C   0  0  2  0  0  0
    2.8240   19.8300   66.9380 C   0  0  0  0  0  0
    2.4270   18.3420   64.9280 C   0  0  0  0  0  0
    3.8170   18.8460   67.5530 C   0  0  0  0  0  0
   -0.0610   19.8590   63.2300 N   0  0  0  0  0  0
   -1.0270   19.4600   62.2230 C   0  0  2  0  0  0
   -0.3990   18.4410   61.3010 C   0  0  0  0  0  0
    0.6330   18.7040   60.6640 O   0  0  0  0  0  0
   -1.4960   20.6760   61.4130 C   0  0  0  0  0  0
   -2.1240   21.7370   62.2570 C   0  0  0  0  0  0
   -3.4540   21.7090   62.6160 N   0  0  0  0  0  0
   -1.5960   22.8430   62.8310 C   0  0  0  0  0  0
   -3.7260   22.7710   63.3590 C   0  0  0  0  0  0
   -2.6120   23.4680   63.5170 N   0  0  0  0  0  0
   -1.0230   17.2670   61.2380 N   0  0  0  0  0  0
   -0.4780   16.1540   60.4700 C   0  0  2  0  0  0
   -1.4250   15.8770   59.3020 C   0  0  0  0  0  0
   -2.4120   15.1640   59.4390 O   0  0  0  0  0  0
   -0.3260   14.8780   61.3460 C   0  0  2  0  0  0
    0.4870   15.1540   62.6200 C   0  0  0  0  0  0
    0.2480   13.6840   60.5350 C   0  0  0  0  0  0
    1.8970   15.5850   62.3630 C   0  0  0  0  0  0
   -1.1260   16.4700   58.1510 N   0  0  0  0  0  0
   -1.9670   16.3190   56.9790 C   0  0  0  0  0  0
   -1.5300   17.2870   55.8950 C   0  0  0  0  0  0
   -0.7480   18.2070   56.1450 O   0  0  0  0  0  0
   -2.0380   17.0840   54.6770 N   0  0  0  0  0  0
   -1.5180   17.7980   53.5110 C   0  0  2  0  0  0
   -1.9670   19.2460   53.4980 C   0  0  0  0  0  0
   -3.1290   19.5240   53.7890 O   0  0  0  0  0  0
   -2.1210   17.0310   52.3270 C   0  0  0  0  0  0
   -3.3720   16.3840   52.8860 C   0  0  0  0  0  0
   -3.0710   16.0820   54.3340 C   0  0  0  0  0  0
   -1.0510   20.1480   53.1660 N   0  0  0  0  0  0
   -1.4090   21.5470   53.0070 C   0  0  0  0  0  0
   -1.4590   22.3220   54.3020 C   0  0  0  0  0  0
   -1.5730   23.5500   54.2660 O   0  0  0  0  0  0
   -1.3830   21.6300   55.4400 N   0  0  0  0  0  0
   -1.4700   22.2930   56.7460 C   0  0  2  0  0  0
   -0.1180   22.8590   57.1840 C   0  0  0  0  0  0
    0.9200   22.2280   56.9680 O   0  0  0  0  0  0
   -1.9370   21.2850   57.8080 C   0  0  0  0  0  0
   -3.1610   20.4760   57.3700 C   0  0  0  0  0  0
   -4.4240   21.2450   57.5790 C   0  0  0  0  0  0
   -5.5710   20.5360   57.0140 N   0  0  0  0  0  0
   -6.8410   20.8750   57.2330 C   0  0  0  0  0  0
   -7.1390   21.9190   58.0430 N   0  0  0  0  0  0
   -7.8110   20.1570   56.6700 N   0  0  0  0  0  0
   -0.1130   24.0330   57.8150 N   0  0  0  0  0  0
    1.1090   24.4750   58.4830 C   0  0  2  0  0  0
    1.4160   23.4480   59.5720 C   0  0  0  0  0  0
    0.5440   23.0850   60.3500 O   0  0  0  0  0  0
    0.9350   25.8730   59.0970 C   0  0  0  0  0  0
    2.6570   22.9870   59.6220 N   0  0  0  0  0  0
    3.0310   21.8870   60.4940 C   0  0  2  0  0  0
    2.8350   22.2550   61.9800 C   0  0  0  0  0  0
    2.3160   21.4570   62.7630 O   0  0  0  0  0  0
    4.4820   21.4960   60.1700 C   0  0  0  0  0  0
    4.9560   20.2200   60.7970 C   0  0  0  0  0  0
    4.0720   19.2950   61.3320 C   0  0  0  0  0  0
    6.3150   19.9390   60.8290 C   0  0  0  0  0  0
    4.5390   18.1260   61.9050 C   0  0  0  0  0  0
    6.7890   18.7640   61.3990 C   0  0  0  0  0  0
    5.8890   17.8580   61.9370 C   0  0  0  0  0  0
    3.2530   23.4620   62.3660 N   0  0  0  0  0  0
    3.1190   23.9380   63.7460 C   0  0  2  0  0  0
    2.4410   25.2920   63.7350 C   0  0  0  0  0  0
    2.8240   26.1680   62.9460 O   0  0  0  0  0  0
    4.4760   24.1980   64.3570 C   0  0  0  0  0  0
    5.1560   22.9990   64.9240 C   0  0  0  0  0  0
    5.5450   21.9520   64.1000 C   0  0  0  0  0  0
    5.4400   22.9190   66.2760 C   0  0  0  0  0  0
    6.2100   20.8590   64.6140 C   0  0  0  0  0  0
    6.1110   21.8190   66.8060 C   0  0  0  0  0  0
    6.4820   20.7900   65.9610 C   0  0  0  0  0  0
    7.1400   19.6850   66.4610 O   0  0  0  0  0  0
    1.4730   25.4780   64.6290 N   0  0  0  0  0  0
    0.8540   26.7950   64.7920 C   0  0  2  0  0  0
    0.8120   27.1410   66.2710 C   0  0  0  0  0  0
    0.7680   26.2570   67.1270 O   0  0  0  0  0  0
   -0.5780   26.8640   64.2220 C   0  0  2  0  0  0
   -1.4350   25.9400   64.9130 O   0  0  0  0  0  0
   -0.6020   26.5940   62.7120 C   0  0  0  0  0  0
    0.8510   28.4300   66.5770 N   0  0  0  0  0  0
    0.7520   28.8710   67.9590 C   0  0  2  0  0  0
   -0.2200   30.0390   68.0340 C   0  0  0  0  0  0
   -1.2550   30.0790   67.3490 O   0  0  0  0  0  0
    2.1190   29.2970   68.5030 C   0  0  0  0  0  0
    3.3380   27.9820   68.6530 S   0  0  0  0  0  0
    0.0270   30.9700   68.7900 O   0  0  0  0  0  0
   -0.1581   24.8907   72.1715 H   0  0  0  0  0  0
    1.3306   25.8958   72.1845 H   0  0  0  0  0  0
    1.4557   24.1066   72.0850 H   0  0  0  0  0  0
    0.2465   25.9677   70.0957 H   0  0  0  0  0  0
    2.8584   24.3554   70.1371 H   0  0  0  0  0  0
    2.2108   25.1712   68.6737 H   0  0  0  0  0  0
    0.1953   24.7561   67.8490 H   0  0  0  0  0  0
   -0.9759   21.9926   68.5089 H   0  0  0  0  0  0
   -1.8764   24.0324   66.3794 H   0  0  0  0  0  0
   -2.5894   22.3995   66.6067 H   0  0  0  0  0  0
   -3.3069   23.0497   68.8739 H   0  0  0  0  0  0
   -2.6366   24.6933   68.5987 H   0  0  0  0  0  0
   -4.1247   24.9847   66.6516 H   0  0  0  0  0  0
   -4.7815   23.3310   66.8971 H   0  0  0  0  0  0
   -5.1265   24.8703   69.3777 H   0  0  0  0  0  0
   -6.2165   24.5655   65.9163 H   0  0  0  0  0  0
   -7.9430   25.2608   66.3234 H   0  0  0  0  0  0
   -7.1521   25.7033   69.8566 H   0  0  0  0  0  0
   -0.5263   20.2667   67.2013 H   0  0  0  0  0  0
    1.4223   20.9857   64.9415 H   0  0  0  0  0  0
    1.1833   18.4511   66.6451 H   0  0  0  0  0  0
    3.4023   20.5547   66.3461 H   0  0  0  0  0  0
    2.3210   20.3510   67.7660 H   0  0  0  0  0  0
    1.6493   17.8759   64.3051 H   0  0  0  0  0  0
    3.0585   17.5590   65.3731 H   0  0  0  0  0  0
    3.0474   19.0038   64.3058 H   0  0  0  0  0  0
    4.5362   19.3942   68.1793 H   0  0  0  0  0  0
    4.3556   18.3195   66.7514 H   0  0  0  0  0  0
    3.2743   18.1157   68.1712 H   0  0  0  0  0  0
    0.8454   20.4083   62.9355 H   0  0  0  0  0  0
   -1.8717   19.0125   62.7673 H   0  0  0  0  0  0
   -0.6354   21.1271   60.8973 H   0  0  0  0  0  0
   -2.2421   20.3564   60.6706 H   0  0  0  0  0  0
   -0.5842   23.2745   62.8332 H   0  0  0  0  0  0
   -4.7021   23.0276   63.7707 H   0  0  0  0  0  0
   -1.9711   17.1473   61.7828 H   0  0  0  0  0  0
    0.5122   16.4791   60.1182 H   0  0  0  0  0  0
   -1.3319   14.5864   61.6824 H   0  0  0  0  0  0
    0.0033   15.9559   63.1971 H   0  0  0  0  0  0
    0.5338   14.2400   63.2303 H   0  0  0  0  0  0
   -0.3639   13.5241   59.6350 H   0  0  0  0  0  0
    0.2304   12.7765   61.1564 H   0  0  0  0  0  0
    1.2840   13.9059   60.2393 H   0  0  0  0  0  0
    2.4070   15.7612   63.3216 H   0  0  0  0  0  0
    1.8949   16.5132   61.7727 H   0  0  0  0  0  0
    2.4254   14.7973   61.8059 H   0  0  0  0  0  0
   -0.2167   17.0869   58.0997 H   0  0  0  0  0  0
   -1.8846   15.2901   56.5987 H   0  0  0  0  0  0
   -3.0128   16.5275   57.2488 H   0  0  0  0  0  0
   -0.4185   17.8211   53.5327 H   0  0  0  0  0  0
   -2.3531   17.7349   51.5142 H   0  0  0  0  0  0
   -1.3988   16.2826   51.9689 H   0  0  0  0  0  0
   -4.2182   17.0806   52.7924 H   0  0  0  0  0  0
   -3.5909   15.4636   52.3248 H   0  0  0  0  0  0
   -2.6631   15.0707   54.4784 H   0  0  0  0  0  0
   -3.9467   16.2205   54.9851 H   0  0  0  0  0  0
   -0.0108   19.8254   53.0110 H   0  0  0  0  0  0
   -0.6698   22.0435   52.3612 H   0  0  0  0  0  0
   -2.4056   21.6205   52.5473 H   0  0  0  0  0  0
   -1.2523   20.5392   55.3846 H   0  0  0  0  0  0
   -2.1903   23.1118   56.6022 H   0  0  0  0  0  0
   -1.1254   20.5734   58.0201 H   0  0  0  0  0  0
   -2.2045   21.8215   58.7303 H   0  0  0  0  0  0
   -3.0745   20.2297   56.3014 H   0  0  0  0  0  0
   -3.2160   19.5474   57.9570 H   0  0  0  0  0  0
   -4.5934   21.3860   58.6567 H   0  0  0  0  0  0
   -4.3410   22.2265   57.0894 H   0  0  0  0  0  0
   -5.4122   19.6637   56.3630 H   0  0  0  0  0  0
   -6.3307   22.5061   58.5034 H   0  0  0  0  0  0
   -8.1893   22.1797   58.2403 H   0  0  0  0  0  0
   -7.5589   19.3110   56.0137 H   0  0  0  0  0  0
   -1.0120   24.6665   57.8374 H   0  0  0  0  0  0
    1.9054   24.5269   57.7260 H   0  0  0  0  0  0
    0.7149   26.5986   58.3001 H   0  0  0  0  0  0
    1.8617   26.1648   59.6129 H   0  0  0  0  0  0
    0.1039   25.8562   59.8174 H   0  0  0  0  0  0
    3.4134   23.4610   58.9793 H   0  0  0  0  0  0
    2.3492   21.0535   60.2696 H   0  0  0  0  0  0
    4.5938   21.3703   59.0829 H   0  0  0  0  0  0
    5.1617   22.2871   60.5195 H   0  0  0  0  0  0
    3.0002   19.4909   61.3007 H   0  0  0  0  0  0
    7.0207   20.6507   60.4006 H   0  0  0  0  0  0
    3.8345   17.4132   62.3335 H   0  0  0  0  0  0
    7.8588   18.5567   61.4228 H   0  0  0  0  0  0
    6.2501   16.9326   62.3858 H   0  0  0  0  0  0
    3.7126   24.1081   61.6035 H   0  0  0  0  0  0
    2.5605   23.1563   64.2818 H   0  0  0  0  0  0
    5.1506   24.6079   63.5909 H   0  0  0  0  0  0
    4.3750   24.9199   65.1808 H   0  0  0  0  0  0
    5.3221   21.9944   63.0339 H   0  0  0  0  0  0
    5.1338   23.7298   66.9371 H   0  0  0  0  0  0
    6.5203   20.0496   63.9532 H   0  0  0  0  0  0
    6.3399   21.7706   67.8706 H   0  0  0  0  0  0
    7.4339   18.8678   65.7859 H   0  0  0  0  0  0
    1.1385   24.6326   65.2482 H   0  0  0  0  0  0
    1.5028   27.4795   64.2259 H   0  0  0  0  0  0
   -1.0108   27.8562   64.4176 H   0  0  0  0  0  0
   -1.5343   25.9948   66.0071 H   0  0  0  0  0  0
    0.0587   27.3098   62.2010 H   0  0  0  0  0  0
   -1.6290   26.7094   62.3352 H   0  0  0  0  0  0
   -0.2529   25.5692   62.5172 H   0  0  0  0  0  0
    0.9598   29.1696   65.7701 H   0  0  0  0  0  0
    0.3819   28.0072   68.5307 H   0  0  0  0  0  0
   -1.9349   30.9400   67.4294 H   0  0  0  0  0  0
    2.5594   30.0533   67.8365 H   0  0  0  0  0  0
    1.9966   29.7224   69.5100 H   0  0  0  0  0  0
  1  2  1  0  0  0
  1112  1  0  0  0
  1113  1  0  0  0
  1114  1  0  0  0
  2  3  1  0  0  0
  2  5  1  0  0  0
  2115  1  0  0  0
  3  4  2  0  0  0
  3  7  1  0  0  0
  5  6  1  0  0  0
  5116  1  0  0  0
  5117  1  0  0  0
  6110  1  0  0  0
  7  8  1  0  0  0
  7118  1  0  0  0
  8  9  1  0  0  0
  8 11  1  0  0  0
  8119  1  0  0  0
  9 10  2  0  0  0
  9 18  1  0  0  0
 11 12  1  0  0  0
 11120  1  0  0  0
 11121  1  0  0  0
 12 13  1  0  0  0
 12122  1  0  0  0
 12123  1  0  0  0
 13 14  1  0  0  0
 13124  1  0  0  0
 13125  1  0  0  0
 14 15  1  0  0  0
 14126  1  0  0  0
 15 16  1  0  0  0
 15 17  2  0  0  0
 16127  1  0  0  0
 16128  1  0  0  0
 17129  1  0  0  0
 18 19  1  0  0  0
 18130  1  0  0  0
 19 20  1  0  0  0
 19 22  1  0  0  0
 19131  1  0  0  0
 20 21  2  0  0  0
 20 26  1  0  0  0
 22 23  1  0  0  0
 22 24  1  0  0  0
 22132  1  0  0  0
 23 25  1  0  0  0
 23133  1  0  0  0
 23134  1  0  0  0
 24135  1  0  0  0
 24136  1  0  0  0
 24137  1  0  0  0
 25138  1  0  0  0
 25139  1  0  0  0
 25140  1  0  0  0
 26 27  1  0  0  0
 26141  1  0  0  0
 27 28  1  0  0  0
 27 30  1  0  0  0
 27142  1  0  0  0
 28 29  2  0  0  0
 28 36  1  0  0  0
 30 31  1  0  0  0
 30143  1  0  0  0
 30144  1  0  0  0
 31 32  2  0  0  0
 31 33  1  0  0  0
 32 34  1  0  0  0
 33 35  2  0  0  0
 33145  1  0  0  0
 34 35  1  0  0  0
 34146  1  0  0  0
 36 37  1  0  0  0
 36147  1  0  0  0
 37 38  1  0  0  0
 37 40  1  0  0  0
 37148  1  0  0  0
 38 39  2  0  0  0
 38 44  1  0  0  0
 40 41  1  0  0  0
 40 42  1  0  0  0
 40149  1  0  0  0
 41 43  1  0  0  0
 41150  1  0  0  0
 41151  1  0  0  0
 42152  1  0  0  0
 42153  1  0  0  0
 42154  1  0  0  0
 43155  1  0  0  0
 43156  1  0  0  0
 43157  1  0  0  0
 44 45  1  0  0  0
 44158  1  0  0  0
 45 46  1  0  0  0
 45159  1  0  0  0
 45160  1  0  0  0
 46 47  2  0  0  0
 46 48  1  0  0  0
 48 49  1  0  0  0
 48 54  1  0  0  0
 49 50  1  0  0  0
 49 52  1  0  0  0
 49161  1  0  0  0
 50 51  2  0  0  0
 50 55  1  0  0  0
 52 53  1  0  0  0
 52162  1  0  0  0
 52163  1  0  0  0
 53 54  1  0  0  0
 53164  1  0  0  0
 53165  1  0  0  0
 54166  1  0  0  0
 54167  1  0  0  0
 55 56  1  0  0  0
 55168  1  0  0  0
 56 57  1  0  0  0
 56169  1  0  0  0
 56170  1  0  0  0
 57 58  2  0  0  0
 57 59  1  0  0  0
 59 60  1  0  0  0
 59171  1  0  0  0
 60 61  1  0  0  0
 60 63  1  0  0  0
 60172  1  0  0  0
 61 62  2  0  0  0
 61 70  1  0  0  0
 63 64  1  0  0  0
 63173  1  0  0  0
 63174  1  0  0  0
 64 65  1  0  0  0
 64175  1  0  0  0
 64176  1  0  0  0
 65 66  1  0  0  0
 65177  1  0  0  0
 65178  1  0  0  0
 66 67  1  0  0  0
 66179  1  0  0  0
 67 68  1  0  0  0
 67 69  2  0  0  0
 68180  1  0  0  0
 68181  1  0  0  0
 69182  1  0  0  0
 70 71  1  0  0  0
 70183  1  0  0  0
 71 72  1  0  0  0
 71 74  1  0  0  0
 71184  1  0  0  0
 72 73  2  0  0  0
 72 75  1  0  0  0
 74185  1  0  0  0
 74186  1  0  0  0
 74187  1  0  0  0
 75 76  1  0  0  0
 75188  1  0  0  0
 76 77  1  0  0  0
 76 79  1  0  0  0
 76189  1  0  0  0
 77 78  2  0  0  0
 77 86  1  0  0  0
 79 80  1  0  0  0
 79190  1  0  0  0
 79191  1  0  0  0
 80 81  2  0  0  0
 80 82  1  0  0  0
 81 83  1  0  0  0
 81192  1  0  0  0
 82 84  2  0  0  0
 82193  1  0  0  0
 83 85  2  0  0  0
 83194  1  0  0  0
 84 85  1  0  0  0
 84195  1  0  0  0
 85196  1  0  0  0
 86 87  1  0  0  0
 86197  1  0  0  0
 87 88  1  0  0  0
 87 90  1  0  0  0
 87198  1  0  0  0
 88 89  2  0  0  0
 88 98  1  0  0  0
 90 91  1  0  0  0
 90199  1  0  0  0
 90200  1  0  0  0
 91 92  2  0  0  0
 91 93  1  0  0  0
 92 94  1  0  0  0
 92201  1  0  0  0
 93 95  2  0  0  0
 93202  1  0  0  0
 94 96  2  0  0  0
 94203  1  0  0  0
 95 96  1  0  0  0
 95204  1  0  0  0
 96 97  1  0  0  0
 97205  1  0  0  0
 98 99  1  0  0  0
 98206  1  0  0  0
 99100  1  0  0  0
 99102  1  0  0  0
 99207  1  0  0  0
100101  2  0  0  0
100105  1  0  0  0
102103  1  0  0  0
102104  1  0  0  0
102208  1  0  0  0
103209  1  0  0  0
104210  1  0  0  0
104211  1  0  0  0
104212  1  0  0  0
105106  1  0  0  0
105213  1  0  0  0
106107  1  0  0  0
106109  1  0  0  0
106214  1  0  0  0
107108  1  0  0  0
107111  2  0  0  0
108215  1  0  0  0
109110  1  0  0  0
109216  1  0  0  0
109217  1  0  0  0
M  CHG  1   1   1
M  END
> <s_m_source_file>
../4m1d_ligand.sdf

> <i_m_source_file_index>
1

> <s_epik_input>
Tz1DMVtDSDJdW05IXUMoPU8pW0NASF0oW0NAQEhdKFtDSDNdKVtDSDJdW0NIM10pW05IXUMoPU8pW0NASF0oW0NIMl1DMj1OW0NIMl1OPVtDSF0yKVtOSF1DKD1PKVtDQEhdKFtDQEBIXShbQ0gzXSlbQ0gyXVtDSDNdKVtOSF1DKD1PKVtDQEhdKFtDSDJdW0NIMl1bQ0gyXVtOSF0vQyhbTkgyXSk9TlxbSF0pW05IXUMoPU8pW0NAQEhdKFtOSDMrXSlbQ0gyXVNTW0NIMl1bQ0BASF0oQyg9TylbT0hdKVtOSF1DKD1PKVtDQEhdKFtDQEhdKFtPSF0pW0NIM10pW05IXUMoPU8pW0NASF0oW0NIMl1jM1tjSF1bY0hdYyhbT0hdKVtjSF1bY0hdMylbTkhdQyg9TylbQ0BIXShbQ0gyXWM0W2NIXVtjSF1bY0hdW2NIXVtjSF00KVtOSF1DKD1PKVtDQEhdKFtDSDNdKVtOSF1DKD1PKVtDQEhdKFtDSDJdW0NIMl1bQ0gyXVtOSF0vQyhbTkgyXSk9TlxbSF0pW05IXUMoPU8pW0NIMl1bTkhdQyg9TylbQ0BASF0oTjE1KVtDSDJdW0NIMl1bQ0gyXTU=

> <s_epik_cmdline>
J2VwaWtfYXBwJywgJy1pbWFlJywgJ2xpZ2FuZF9wcm8ubWFlJywgJy1vbWFlJywgJ2xpZ2FuZF9wcmVwLm1hZScsICctbXMnLCAnMScsICctcGgnLCAnNycsICctcGh0JywgJzAuNScsICctbnQn

> <s_epik_pKa_notes>
Molecule size exceeds maximum supported for generating protonation states

> <s_epik_Chemistry_Notes>
This compound has an imine and may undergo hydrolysis.

$$$$
