4m1j_ligand
                    3D
 Schrodinger Suite 2020-3.
 45 44  0  0  1  0            999 V2000
   24.5940   38.3170   11.2330 C   0  0  0  0  0  0
   24.0640   37.0960   10.5330 C   0  0  0  0  0  0
   24.7120   35.8390   11.0180 C   0  0  0  0  0  0
   24.3270   34.6200   10.2180 C   0  0  0  0  0  0
   25.1900   33.4150   10.5240 C   0  0  0  0  0  0
   24.6050   32.1420    9.9710 C   0  0  0  0  0  0
   25.4680   30.8940   10.0040 C   0  0  0  0  0  0
   26.0310   30.6110    8.6140 C   0  0  0  0  0  0
   25.5750   29.3390    7.9710 C   0  0  0  0  0  0
   25.6970   29.3980    6.4880 C   0  0  0  0  0  0
   25.9450   28.0290    6.0020 C   0  0  0  0  0  0
   24.8210   27.5600    5.1390 C   0  0  0  0  0  0
   25.3200   27.4180    3.7350 C   0  0  0  0  0  0
   24.6010   26.2340    3.0010 B   0  0  0  0  0  0
   23.1470   26.1140    3.1200 O   0  0  0  0  0  0
   24.9850   26.0920    1.5770 O   0  0  0  0  0  0
   24.0879   39.2122   10.8425 H   0  0  0  0  0  0
   25.6763   38.4008   11.0552 H   0  0  0  0  0  0
   24.4055   38.2311   12.3133 H   0  0  0  0  0  0
   22.9817   37.0122   10.7108 H   0  0  0  0  0  0
   24.2525   37.1819    9.4527 H   0  0  0  0  0  0
   25.8054   35.9428   10.9565 H   0  0  0  0  0  0
   24.4193   35.6549   12.0623 H   0  0  0  0  0  0
   23.2844   34.3494   10.4409 H   0  0  0  0  0  0
   24.4275   34.8390    9.1447 H   0  0  0  0  0  0
   26.1862   33.5550   10.0791 H   0  0  0  0  0  0
   25.2878   33.3012   11.6137 H   0  0  0  0  0  0
   23.6980   31.8798   10.5355 H   0  0  0  0  0  0
   24.3483   32.2865    8.9112 H   0  0  0  0  0  0
   26.3002   31.0422   10.7080 H   0  0  0  0  0  0
   24.8606   30.0367   10.3296 H   0  0  0  0  0  0
   25.7414   31.4216    7.9291 H   0  0  0  0  0  0
   27.1280   30.5510    8.6679 H   0  0  0  0  0  0
   26.1893   28.5028    8.3362 H   0  0  0  0  0  0
   24.5202   29.1573    8.2250 H   0  0  0  0  0  0
   24.7641   29.7924    6.0588 H   0  0  0  0  0  0
   26.5339   30.0576    6.2149 H   0  0  0  0  0  0
   26.8743   28.0115    5.4137 H   0  0  0  0  0  0
   26.0412   27.3472    6.8598 H   0  0  0  0  0  0
   24.4575   26.5889    5.5061 H   0  0  0  0  0  0
   24.0025   28.2941    5.1719 H   0  0  0  0  0  0
   25.1245   28.3477    3.1806 H   0  0  0  0  0  0
   26.4019   27.2199    3.7486 H   0  0  0  0  0  0
   22.6676   26.1926    4.1069 H   0  0  0  0  0  0
   26.0435   26.1536    1.2840 H   0  0  0  0  0  0
  1  2  1  0  0  0
  1 17  1  0  0  0
  1 18  1  0  0  0
  1 19  1  0  0  0
  2  3  1  0  0  0
  2 20  1  0  0  0
  2 21  1  0  0  0
  3  4  1  0  0  0
  3 22  1  0  0  0
  3 23  1  0  0  0
  4  5  1  0  0  0
  4 24  1  0  0  0
  4 25  1  0  0  0
  5  6  1  0  0  0
  5 26  1  0  0  0
  5 27  1  0  0  0
  6  7  1  0  0  0
  6 28  1  0  0  0
  6 29  1  0  0  0
  7  8  1  0  0  0
  7 30  1  0  0  0
  7 31  1  0  0  0
  8  9  1  0  0  0
  8 32  1  0  0  0
  8 33  1  0  0  0
  9 10  1  0  0  0
  9 34  1  0  0  0
  9 35  1  0  0  0
 10 11  1  0  0  0
 10 36  1  0  0  0
 10 37  1  0  0  0
 11 12  1  0  0  0
 11 38  1  0  0  0
 11 39  1  0  0  0
 12 13  1  0  0  0
 12 40  1  0  0  0
 12 41  1  0  0  0
 13 14  1  0  0  0
 13 42  1  0  0  0
 13 43  1  0  0  0
 14 15  1  0  0  0
 14 16  1  0  0  0
 15 44  1  0  0  0
 16 45  1  0  0  0
M  END
> <s_m_source_file>
../4m1j_ligand.sdf

> <i_m_source_file_index>
1

> <s_epik_input>
W0NIM11bQ0gyXVtDSDJdW0NIMl1bQ0gyXVtDSDJdW0NIMl1bQ0gyXVtDSDJdW0NIMl1bQ0gyXVtDSDJdW0NIMl1CKFtPSF0pW09IXQ==

> <s_epik_cmdline>
J2VwaWtfYXBwJywgJy1pbWFlJywgJ2xpZ2FuZF9wcm8ubWFlJywgJy1vbWFlJywgJ2xpZ2FuZF9wcmVwLm1hZScsICctbXMnLCAnMScsICctcGgnLCAnNycsICctcGh0JywgJzAuNScsICctbnQn

> <r_lp_tautomer_probability>
1

> <r_epik_Ionization_Penalty>
  0.0000

> <r_epik_Ionization_Penalty_Charging>
  0.0000

> <r_epik_Ionization_Penalty_Neutral>
  0.0000

> <r_epik_State_Penalty>
 -0.0000

> <r_epik_Charging_Adjusted_Penalty>
0

> <i_epik_Tot_Q>
0

> <i_epik_Tot_abs_Q>
0

> <s_epik_Chemistry_Notes>
This compound contains a Lewis acid (boronic acid) which adds nucleophiles to form tetrahedral complexes, lowering the experimental pKa

$$$$
