4m2u_ligand
                    3D
 Schrodinger Suite 2020-3.
 36 37  0  0  1  0            999 V2000
   15.1710    3.5450   15.6720 S   0  0  0  0  0  0
   16.1270    2.1520   15.8960 C   0  0  0  0  0  0
   17.4440    2.2250   15.2700 C   0  0  0  0  0  0
   17.4600    3.5510   14.6820 C   0  0  0  0  0  0
   18.7240    3.9180   13.9270 C   0  0  2  0  0  0
   18.8240    5.3970   13.5950 C   0  0  0  0  0  0
   17.5880    5.9550   12.9580 C   0  0  1  0  0  0
   16.2900    5.9180   14.2020 S   0  0  0  0  0  0
   16.3450    4.3020   14.8260 C   0  0  0  0  0  0
   15.4470    0.8200   16.8300 S   0  0  0  0  0  0
   15.9340    0.9220   18.2040 O   0  0  0  0  0  0
   13.9990    0.9660   16.7230 O   0  0  0  0  0  0
   16.0700   -0.5590   16.2440 N   0  0  0  0  0  0
   18.6830    3.1280   12.7030 N   0  3  0  0  0  0
   17.8730    7.3560   12.5020 C   0  0  0  0  0  0
   16.5980    6.7600   15.3240 O   0  0  0  0  0  0
   14.9960    6.2150   13.6350 O   0  0  0  0  0  0
   19.9070    3.1180   11.9390 C   0  0  0  0  0  0
   20.0380    2.0840   10.8520 C   0  0  0  0  0  0
   18.2263    1.4663   15.2494 H   0  0  0  0  0  0
   19.6182    3.6791   14.5214 H   0  0  0  0  0  0
   19.0040    5.9685   14.5175 H   0  0  0  0  0  0
   19.6562    5.5601   12.8944 H   0  0  0  0  0  0
   17.4395    5.4184   12.0093 H   0  0  0  0  0  0
   15.6647   -1.4127   16.8069 H   0  0  0  0  0  0
   17.1651   -0.5391   16.3461 H   0  0  0  0  0  0
   18.4589    2.0799   12.9504 H   0  0  0  0  0  0
   17.9010    3.5229   12.0377 H   0  0  0  0  0  0
   18.6696    7.3398   11.7436 H   0  0  0  0  0  0
   18.1966    7.9624   13.3608 H   0  0  0  0  0  0
   16.9617    7.7926   12.0673 H   0  0  0  0  0  0
   20.0327    4.0878   11.4353 H   0  0  0  0  0  0
   20.7584    2.9418   12.6128 H   0  0  0  0  0  0
   21.0143    2.1938   10.3572 H   0  0  0  0  0  0
   19.2349    2.2245   10.1136 H   0  0  0  0  0  0
   19.9605    1.0785   11.2912 H   0  0  0  0  0  0
  1  2  1  0  0  0
  1  9  1  0  0  0
  2  3  2  0  0  0
  2 10  1  0  0  0
  3  4  1  0  0  0
  3 20  1  0  0  0
  4  5  1  0  0  0
  4  9  2  0  0  0
  5  6  1  0  0  0
  5 14  1  0  0  0
  5 21  1  0  0  0
  6  7  1  0  0  0
  6 22  1  0  0  0
  6 23  1  0  0  0
  7  8  1  0  0  0
  7 15  1  0  0  0
  7 24  1  0  0  0
  8  9  1  0  0  0
  8 16  2  0  0  0
  8 17  2  0  0  0
 10 11  2  0  0  0
 10 12  2  0  0  0
 10 13  1  0  0  0
 13 25  1  0  0  0
 13 26  1  0  0  0
 14 18  1  0  0  0
 14 27  1  0  0  0
 14 28  1  0  0  0
 15 29  1  0  0  0
 15 30  1  0  0  0
 15 31  1  0  0  0
 18 19  1  0  0  0
 18 32  1  0  0  0
 18 33  1  0  0  0
 19 34  1  0  0  0
 19 35  1  0  0  0
 19 36  1  0  0  0
M  CHG  1  14   1
M  END
> <s_m_source_file>
../4m2u_ligand.sdf

> <i_m_source_file_index>
1

> <s_epik_input>
Tz1TKD1PKShbTkgyXSljKFtjSF0xKXNjKGMxMilTKD1PKSg9TylbQ0BASF0oW0NIM10pW0NIMl1bQ0BASF0yW05IMitdW0NIMl1bQ0gzXQ==

> <s_epik_cmdline>
J2VwaWtfYXBwJywgJy1pbWFlJywgJ2xpZ2FuZF9wcm8ubWFlJywgJy1vbWFlJywgJ2xpZ2FuZF9wcmVwLm1hZScsICctbXMnLCAnMScsICctcGgnLCAnNycsICctcGh0JywgJzAuNScsICctbnQn

> <r_epik_Ionization_Penalty>
  0.0955

> <r_epik_Ionization_Penalty_Charging>
  0.0059

> <r_epik_Ionization_Penalty_Neutral>
  0.0895

> <r_epik_State_Penalty>
  0.0799

> <r_epik_Charging_Adjusted_Penalty>
0.0858597936713432

> <i_epik_Tot_Q>
1

> <i_epik_Tot_abs_Q>
1

$$$$
