4m2v_ligand
                    3D
 Schrodinger Suite 2020-3.
 45 46  0  0  1  0            999 V2000
    1.6400    8.3000   84.3460 C   0  0  0  0  0  0
   -0.2140    3.8410   85.0740 C   0  0  0  0  0  0
   -1.2870    4.5570   85.4550 C   0  0  0  0  0  0
    0.9490    4.0960   84.1630 C   0  0  2  0  0  0
    0.5350    5.3890   83.4140 C   0  0  0  0  0  0
   -1.9470    0.9640   87.5100 S   0  0  0  0  0  0
    0.7240    9.4680   84.4920 C   0  0  0  0  0  0
    2.3470    1.9880   81.3530 C   0  0  0  0  0  0
    2.1170    3.1300   82.2920 C   0  0  0  0  0  0
   -2.3230    3.7370   86.4750 S   0  0  0  0  0  0
   -1.3560   -0.3860   86.8720 N   0  0  0  0  0  0
   -1.4030    1.1870   88.8390 O   0  0  0  0  0  0
   -3.4040    1.0910   87.4970 O   0  0  0  0  0  0
   -1.4120    2.2920   86.5380 C   0  0  0  0  0  0
   -0.1670    2.4150   85.6700 C   0  0  0  0  0  0
   -1.5120    6.1680   84.9070 S   0  0  0  0  0  0
   -1.7720    7.0580   86.0420 O   0  0  0  0  0  0
   -2.5480    6.2810   83.8780 O   0  0  0  0  0  0
   -0.0200    6.4180   84.3100 N   0  0  1  0  0  0
    1.0170    3.0070   83.2040 N   0  3  0  0  0  0
    1.1610    6.9930   84.8810 C   0  0  0  0  0  0
    1.2680   10.7170   84.6820 O   0  0  0  0  0  0
    0.6640   11.8230   84.1200 C   0  0  0  0  0  0
    1.8447    8.1257   83.2794 H   0  0  0  0  0  0
    2.5840    8.5064   84.8715 H   0  0  0  0  0  0
    1.9212    4.1289   84.6765 H   0  0  0  0  0  0
    1.4144    5.8201   82.9131 H   0  0  0  0  0  0
   -0.2329    5.1484   82.6641 H   0  0  0  0  0  0
    0.1095    9.5677   83.5851 H   0  0  0  0  0  0
    0.0699    9.3144   85.3630 H   0  0  0  0  0  0
    3.2142    2.2084   80.7131 H   0  0  0  0  0  0
    1.4552    1.8442   80.7253 H   0  0  0  0  0  0
    2.5407    1.0719   81.9303 H   0  0  0  0  0  0
    3.0088    3.2738   82.9197 H   0  0  0  0  0  0
    1.9233    4.0461   81.7147 H   0  0  0  0  0  0
   -1.6818   -1.2484   87.4722 H   0  0  0  0  0  0
   -0.2571   -0.3379   86.8654 H   0  0  0  0  0  0
    0.5977    1.6563   85.5035 H   0  0  0  0  0  0
    1.1328    2.0533   83.7398 H   0  0  0  0  0  0
    0.0917    2.9836   82.6096 H   0  0  0  0  0  0
    1.9424    6.2313   84.7418 H   0  0  0  0  0  0
    0.9360    7.0958   85.9528 H   0  0  0  0  0  0
    1.2377   12.7252   84.3788 H   0  0  0  0  0  0
   -0.3614   11.9170   84.5068 H   0  0  0  0  0  0
    0.6343   11.7085   83.0264 H   0  0  0  0  0  0
  1  7  1  0  0  0
  1 21  1  0  0  0
  1 24  1  0  0  0
  1 25  1  0  0  0
  2  3  2  0  0  0
  2  4  1  0  0  0
  2 15  1  0  0  0
  3 10  1  0  0  0
  3 16  1  0  0  0
  4  5  1  0  0  0
  4 20  1  0  0  0
  4 26  1  0  0  0
  5 19  1  0  0  0
  5 27  1  0  0  0
  5 28  1  0  0  0
  6 11  1  0  0  0
  6 12  2  0  0  0
  6 13  2  0  0  0
  6 14  1  0  0  0
  7 22  1  0  0  0
  7 29  1  0  0  0
  7 30  1  0  0  0
  8  9  1  0  0  0
  8 31  1  0  0  0
  8 32  1  0  0  0
  8 33  1  0  0  0
  9 20  1  0  0  0
  9 34  1  0  0  0
  9 35  1  0  0  0
 10 14  1  0  0  0
 11 36  1  0  0  0
 11 37  1  0  0  0
 14 15  2  0  0  0
 15 38  1  0  0  0
 16 17  2  0  0  0
 16 18  2  0  0  0
 16 19  1  0  0  0
 19 21  1  0  0  0
 20 39  1  0  0  0
 20 40  1  0  0  0
 21 41  1  0  0  0
 21 42  1  0  0  0
 22 23  1  0  0  0
 23 43  1  0  0  0
 23 44  1  0  0  0
 23 45  1  0  0  0
M  CHG  1  20   1
M  END
> <s_m_source_file>
../4m2v_ligand.sdf

> <i_m_source_file_index>
1

> <s_epik_input>
W0NIM11bQ0gyXVtOSDIrXVtDQEhdMVtDSDJdTihbQ0gyXVtDSDJdW0NIMl1PW0NIM10pUyg9TykoPU8pYyhjMTIpc2MoW2NIXTIpUyg9TykoPU8pW05IMl0=

> <s_epik_cmdline>
J2VwaWtfYXBwJywgJy1pbWFlJywgJ2xpZ2FuZF9wcm8ubWFlJywgJy1vbWFlJywgJ2xpZ2FuZF9wcmVwLm1hZScsICctbXMnLCAnMScsICctcGgnLCAnNycsICctcGh0JywgJzAuNScsICctbnQn

> <r_lp_tautomer_probability>
1

> <r_epik_Ionization_Penalty>
  0.0655

> <r_epik_Ionization_Penalty_Charging>
  0.0118

> <r_epik_Ionization_Penalty_Neutral>
  0.0537

> <r_epik_State_Penalty>
 -0.0000

> <r_epik_Charging_Adjusted_Penalty>
0.0117851752400128

> <i_epik_Tot_Q>
1

> <i_epik_Tot_abs_Q>
1

$$$$
