4m2w_ligand
                    3D
 Schrodinger Suite 2020-3.
 36 37  0  0  1  0            999 V2000
   15.2390    3.6180   15.7780 S   0  0  0  0  0  0
   16.2560    2.2600   15.9680 C   0  0  0  0  0  0
   17.5720    2.4470   15.3650 C   0  0  0  0  0  0
   17.5210    3.7620   14.7810 C   0  0  0  0  0  0
   18.7930    4.1790   14.0700 C   0  0  2  0  0  0
   18.8740    5.6860   13.9170 C   0  0  0  0  0  0
   17.6350    6.3130   13.3560 C   0  0  2  0  0  0
   16.1880    6.0670   14.3380 S   0  0  0  0  0  0
   16.3720    4.4570   14.9510 C   0  0  0  0  0  0
   15.6590    0.8920   16.9040 S   0  0  0  0  0  0
   16.1950    1.0650   18.2340 O   0  0  0  0  0  0
   14.1890    1.0170   16.8420 O   0  0  0  0  0  0
   16.2200   -0.4590   16.2660 N   0  0  0  0  0  0
   18.7910    3.4050   12.8490 N   0  3  0  0  0  0
   17.3970    5.6960   12.0240 C   0  0  0  0  0  0
   16.2330    6.9900   15.4640 O   0  0  0  0  0  0
   15.0130    6.1340   13.5070 O   0  0  0  0  0  0
   19.9950    3.4380   12.0770 C   0  0  0  0  0  0
   20.1230    2.3590   11.0510 C   0  0  0  0  0  0
   18.4074    1.7469   15.3583 H   0  0  0  0  0  0
   19.7297    3.9309   14.5906 H   0  0  0  0  0  0
   19.0514    6.1454   14.9006 H   0  0  0  0  0  0
   19.7010    5.9417   13.2383 H   0  0  0  0  0  0
   17.9476    7.3572   13.2081 H   0  0  0  0  0  0
   15.8515   -1.3186   16.8451 H   0  0  0  0  0  0
   17.3197   -0.4460   16.2884 H   0  0  0  0  0  0
   18.6124    2.3459   13.0866 H   0  0  0  0  0  0
   17.9947    3.7710   12.1842 H   0  0  0  0  0  0
   18.2858    5.8357   11.3912 H   0  0  0  0  0  0
   16.5289    6.1752   11.5478 H   0  0  0  0  0  0
   17.2003    4.6208   12.1478 H   0  0  0  0  0  0
   20.0574    4.3936   11.5357 H   0  0  0  0  0  0
   20.8624    3.3382   12.7460 H   0  0  0  0  0  0
   21.0773    2.4732   10.5159 H   0  0  0  0  0  0
   19.2905    2.4325   10.3358 H   0  0  0  0  0  0
   20.0955    1.3771   11.5461 H   0  0  0  0  0  0
  1  2  1  0  0  0
  1  9  1  0  0  0
  2  3  2  0  0  0
  2 10  1  0  0  0
  3  4  1  0  0  0
  3 20  1  0  0  0
  4  5  1  0  0  0
  4  9  2  0  0  0
  5  6  1  0  0  0
  5 14  1  0  0  0
  5 21  1  0  0  0
  6  7  1  0  0  0
  6 22  1  0  0  0
  6 23  1  0  0  0
  7  8  1  0  0  0
  7 15  1  0  0  0
  7 24  1  0  0  0
  8  9  1  0  0  0
  8 16  2  0  0  0
  8 17  2  0  0  0
 10 11  2  0  0  0
 10 12  2  0  0  0
 10 13  1  0  0  0
 13 25  1  0  0  0
 13 26  1  0  0  0
 14 18  1  0  0  0
 14 27  1  0  0  0
 14 28  1  0  0  0
 15 29  1  0  0  0
 15 30  1  0  0  0
 15 31  1  0  0  0
 18 19  1  0  0  0
 18 32  1  0  0  0
 18 33  1  0  0  0
 19 34  1  0  0  0
 19 35  1  0  0  0
 19 36  1  0  0  0
M  CHG  1  14   1
M  END
> <s_m_source_file>
../4m2w_ligand.sdf

> <i_m_source_file_index>
1

> <s_epik_input>
Tz1TKD1PKShbTkgyXSljKFtjSF0xKXNjKGMxMilTKD1PKSg9TylbQ0BIXShbQ0gzXSlbQ0gyXVtDQEBIXTJbTkgyK11bQ0gyXVtDSDNd

> <s_epik_cmdline>
J2VwaWtfYXBwJywgJy1pbWFlJywgJ2xpZ2FuZF9wcm8ubWFlJywgJy1vbWFlJywgJ2xpZ2FuZF9wcmVwLm1hZScsICctbXMnLCAnMScsICctcGgnLCAnNycsICctcGh0JywgJzAuNScsICctbnQn

> <r_epik_Ionization_Penalty>
  0.0955

> <r_epik_Ionization_Penalty_Charging>
  0.0059

> <r_epik_Ionization_Penalty_Neutral>
  0.0895

> <r_epik_State_Penalty>
  0.0799

> <r_epik_Charging_Adjusted_Penalty>
0.0858597936713432

> <i_epik_Tot_Q>
1

> <i_epik_Tot_abs_Q>
1

$$$$
