4m3b_ligand
                    3D
 Schrodinger Suite 2020-3.
 34 35  0  0  1  0            999 V2000
   32.2130  -17.4240   -7.7590 F   0  0  0  0  0  0
   30.9710  -17.4980   -7.3620 C   0  0  0  0  0  0
   30.2820  -17.4360   -8.4660 F   0  0  0  0  0  0
   30.7560  -18.6680   -6.7530 F   0  0  0  0  0  0
   30.5640  -16.3400   -6.4780 C   0  0  0  0  0  0
   29.0670  -16.3640   -6.1160 C   0  0  0  0  0  0
   28.6360  -15.0430   -5.5700 N   0  0  0  0  0  0
   28.4180  -14.0110   -6.3820 C   0  0  0  0  0  0
   28.3150  -14.1820   -7.6130 O   0  0  0  0  0  0
   28.1510  -12.6480   -5.7960 C   0  0  0  0  0  0
   28.2910  -12.4380   -4.4080 C   0  0  0  0  0  0
   28.0540  -11.1570   -3.8690 C   0  0  0  0  0  0
   27.7470  -11.5930   -6.6310 C   0  0  0  0  0  0
   27.4880  -10.3170   -6.0730 C   0  0  0  0  0  0
   27.6480  -10.1080   -4.6920 C   0  0  0  0  0  0
   27.3710   -8.8400   -4.1670 C   0  0  0  0  0  0
   27.0420   -7.8190   -5.0010 N   0  0  0  0  0  0
   27.3940   -8.4500   -2.8440 C   0  0  0  0  0  0
   26.9270   -6.8200   -2.7130 S   0  0  0  0  0  0
   26.7930   -6.6400   -4.4090 C   0  0  0  0  0  0
   26.3960   -5.3560   -5.0820 C   0  0  0  0  0  0
   31.1374  -16.3756   -5.5400 H   0  0  0  0  0  0
   30.7692  -15.3923   -6.9974 H   0  0  0  0  0  0
   28.4756  -16.5871   -7.0163 H   0  0  0  0  0  0
   28.8857  -17.1391   -5.3569 H   0  0  0  0  0  0
   28.4955  -14.9151   -4.4865 H   0  0  0  0  0  0
   28.5809  -13.2618   -3.7557 H   0  0  0  0  0  0
   28.1892  -10.9858   -2.8011 H   0  0  0  0  0  0
   27.6334  -11.7554   -7.7028 H   0  0  0  0  0  0
   27.1646   -9.4972   -6.7144 H   0  0  0  0  0  0
   27.6704   -9.0912   -2.0070 H   0  0  0  0  0  0
   26.3840   -5.5019   -6.1722 H   0  0  0  0  0  0
   27.1198   -4.5685   -4.8254 H   0  0  0  0  0  0
   25.3936   -5.0580   -4.7409 H   0  0  0  0  0  0
  1  2  1  0  0  0
  2  3  1  0  0  0
  2  4  1  0  0  0
  2  5  1  0  0  0
  5  6  1  0  0  0
  5 22  1  0  0  0
  5 23  1  0  0  0
  6  7  1  0  0  0
  6 24  1  0  0  0
  6 25  1  0  0  0
  7  8  1  0  0  0
  7 26  1  0  0  0
  8  9  2  0  0  0
  8 10  1  0  0  0
 10 11  2  0  0  0
 10 13  1  0  0  0
 11 12  1  0  0  0
 11 27  1  0  0  0
 12 15  2  0  0  0
 12 28  1  0  0  0
 13 14  2  0  0  0
 13 29  1  0  0  0
 14 15  1  0  0  0
 14 30  1  0  0  0
 15 16  1  0  0  0
 16 17  1  0  0  0
 16 18  2  0  0  0
 17 20  2  0  0  0
 18 19  1  0  0  0
 18 31  1  0  0  0
 19 20  1  0  0  0
 20 21  1  0  0  0
 21 32  1  0  0  0
 21 33  1  0  0  0
 21 34  1  0  0  0
M  END
> <s_m_source_file>
../4m3b_ligand.sdf

> <i_m_source_file_index>
1

> <s_epik_input>
RkMoRikoRilbQ0gyXVtDSDJdW05IXUMoPU8pYzFbY0hdW2NIXWMoW2NIXVtjSF0xKS1jMm5jKFtDSDNdKXNbY0hdMg==

> <s_epik_cmdline>
J2VwaWtfYXBwJywgJy1pbWFlJywgJ2xpZ2FuZF9wcm8ubWFlJywgJy1vbWFlJywgJ2xpZ2FuZF9wcmVwLm1hZScsICctbXMnLCAnMScsICctcGgnLCAnNycsICctcGh0JywgJzAuNScsICctbnQn

> <r_lp_tautomer_probability>
1

> <r_epik_Ionization_Penalty>
  0.0000

> <r_epik_Ionization_Penalty_Charging>
  0.0000

> <r_epik_Ionization_Penalty_Neutral>
  0.0000

> <r_epik_State_Penalty>
 -0.0000

> <r_epik_Charging_Adjusted_Penalty>
0

> <i_epik_Tot_Q>
0

> <i_epik_Tot_abs_Q>
0

$$$$
