4m3f_ligand
                    3D
 Schrodinger Suite 2020-3.
 41 42  0  0  1  0            999 V2000
   13.5890   27.7130    0.6320 O   0  0  0  0  0  0
   13.6700   27.8210    2.0630 S   0  0  0  0  0  0
   14.3270   26.6130    2.4110 O   0  0  0  0  0  0
   14.2860   29.2480    2.5060 N   0  0  3  0  0  0
   15.4450   29.5030    3.3180 C   0  0  0  0  0  0
   16.6940   29.7100    2.4380 C   0  0  0  0  0  0
   16.6280   30.7760    1.3670 C   0  0  0  0  0  0
   17.8800   31.6200    1.4200 C   0  0  0  0  0  0
   16.7140   30.1260    0.0190 C   0  0  0  0  0  0
   12.1250   27.6730    2.6900 C   0  0  0  0  0  0
   11.8880   27.8210    4.0590 C   0  0  0  0  0  0
   10.6090   27.6420    4.6750 C   0  0  0  0  0  0
    9.5350   27.3150    3.8270 C   0  0  0  0  0  0
    9.7370   27.1880    2.4740 C   0  0  0  0  0  0
   11.0110   27.3470    1.8860 C   0  0  0  0  0  0
    8.2510   27.1010    4.3460 C   0  0  0  0  0  0
    7.2260   26.7800    3.5110 N   0  0  0  0  0  0
    6.0300   26.6310    4.1380 C   0  0  0  0  0  0
    4.6790   26.2850    3.5300 C   0  0  0  0  0  0
    6.2630   26.7960    5.8350 S   0  0  0  0  0  0
    7.8960   27.1640    5.7180 C   0  0  0  0  0  0
   13.6077   30.0725    2.2412 H   0  0  0  0  0  0
   15.2797   30.4097    3.9185 H   0  0  0  0  0  0
   15.6198   28.6472    3.9866 H   0  0  0  0  0  0
   17.5476   29.9898    3.0729 H   0  0  0  0  0  0
   16.9249   28.7766    1.9037 H   0  0  0  0  0  0
   15.7020   31.3511    1.5147 H   0  0  0  0  0  0
   17.9231   32.1519    2.3819 H   0  0  0  0  0  0
   17.8650   32.3502    0.5975 H   0  0  0  0  0  0
   18.7634   30.9723    1.3192 H   0  0  0  0  0  0
   15.8389   29.4767   -0.1314 H   0  0  0  0  0  0
   17.6323   29.5232   -0.0395 H   0  0  0  0  0  0
   16.7339   30.9012   -0.7612 H   0  0  0  0  0  0
   12.7297   28.0895    4.6974 H   0  0  0  0  0  0
   10.4731   27.7537    5.7507 H   0  0  0  0  0  0
    8.8859   26.9569    1.8334 H   0  0  0  0  0  0
   11.1345   27.2180    0.8107 H   0  0  0  0  0  0
    4.7720   26.2336    2.4351 H   0  0  0  0  0  0
    3.9463   27.0598    3.7998 H   0  0  0  0  0  0
    4.3420   25.3114    3.9155 H   0  0  0  0  0  0
    8.5625   27.4072    6.5455 H   0  0  0  0  0  0
  1  2  2  0  0  0
  2  3  2  0  0  0
  2  4  1  0  0  0
  2 10  1  0  0  0
  4  5  1  0  0  0
  4 22  1  0  0  0
  5  6  1  0  0  0
  5 23  1  0  0  0
  5 24  1  0  0  0
  6  7  1  0  0  0
  6 25  1  0  0  0
  6 26  1  0  0  0
  7  8  1  0  0  0
  7  9  1  0  0  0
  7 27  1  0  0  0
  8 28  1  0  0  0
  8 29  1  0  0  0
  8 30  1  0  0  0
  9 31  1  0  0  0
  9 32  1  0  0  0
  9 33  1  0  0  0
 10 11  2  0  0  0
 10 15  1  0  0  0
 11 12  1  0  0  0
 11 34  1  0  0  0
 12 13  2  0  0  0
 12 35  1  0  0  0
 13 14  1  0  0  0
 13 16  1  0  0  0
 14 15  2  0  0  0
 14 36  1  0  0  0
 15 37  1  0  0  0
 16 17  1  0  0  0
 16 21  2  0  0  0
 17 18  2  0  0  0
 18 19  1  0  0  0
 18 20  1  0  0  0
 19 38  1  0  0  0
 19 39  1  0  0  0
 19 40  1  0  0  0
 20 21  1  0  0  0
 21 41  1  0  0  0
M  END
> <s_m_source_file>
../4m3f_ligand.sdf

> <i_m_source_file_index>
1

> <s_epik_input>
W0NIM11bQ0hdKFtDSDNdKVtDSDJdW0NIMl1bTkhdUyg9TykoPU8pYzFbY0hdW2NIXWMoW2NIXVtjSF0xKS1jMm5jKFtDSDNdKXNbY0hdMg==

> <s_epik_cmdline>
J2VwaWtfYXBwJywgJy1pbWFlJywgJ2xpZ2FuZF9wcm8ubWFlJywgJy1vbWFlJywgJ2xpZ2FuZF9wcmVwLm1hZScsICctbXMnLCAnMScsICctcGgnLCAnNycsICctcGh0JywgJzAuNScsICctbnQn

> <r_lp_tautomer_probability>
1

> <r_epik_Ionization_Penalty>
  0.0001

> <r_epik_Ionization_Penalty_Charging>
  0.0000

> <r_epik_Ionization_Penalty_Neutral>
  0.0001

> <r_epik_State_Penalty>
 -0.0000

> <r_epik_Charging_Adjusted_Penalty>
0

> <i_epik_Tot_Q>
0

> <i_epik_Tot_abs_Q>
0

$$$$
