4m3m_ligand
                    3D
 Schrodinger Suite 2020-3.
 44 44  0  0  1  0            999 V2000
  -68.5800   23.3450  141.1490 C   0  0  0  0  0  0
  -68.5300   22.3270  140.5050 O   0  0  0  0  0  0
  -68.0600   23.3590  142.2410 O   0  5  0  0  0  0
  -69.2040   24.4790  140.6920 C   0  0  0  0  0  0
  -68.9800   25.6770  141.4120 C   0  0  0  0  0  0
  -69.6300   26.8660  140.7920 C   0  0  1  0  0  0
  -71.0100   26.4830  140.4270 C   0  0  2  0  0  0
  -71.7410   26.1550  141.6670 N   0  0  0  0  0  0
  -72.5670   25.1290  142.0180 C   0  0  0  0  0  0
  -72.9180   24.2140  141.3220 O   0  0  0  0  0  0
  -73.1030   25.1630  143.4220 C   0  0  0  0  0  0
  -70.9260   25.4690  139.2400 C   0  0  1  0  0  0
  -70.0930   24.3980  139.6240 C   0  0  0  0  0  0
  -72.1560   25.0110  138.8020 O   0  0  0  0  0  0
  -72.4960   25.2390  137.4740 C   0  0  0  0  0  0
  -74.0200   25.1260  137.3630 C   0  0  0  0  0  0
  -71.8500   24.1960  136.6110 C   0  0  0  0  0  0
  -72.2480   22.8340  137.1220 C   0  0  0  0  0  0
  -74.6460   26.3760  137.9710 C   0  0  0  0  0  0
  -69.6150   28.0260  141.6810 N   0  3  0  0  0  0
  -68.3760   25.6615  142.3312 H   0  0  0  0  0  0
  -69.0724   27.1873  139.8999 H   0  0  0  0  0  0
  -71.6412   27.3088  140.0670 H   0  0  0  0  0  0
  -71.6642   26.8169  142.5422 H   0  0  0  0  0  0
  -72.7055   26.0453  143.9449 H   0  0  0  0  0  0
  -72.7944   24.2513  143.9544 H   0  0  0  0  0  0
  -74.2013   25.2173  143.3939 H   0  0  0  0  0  0
  -70.5295   25.8936  138.3059 H   0  0  0  0  0  0
  -69.5365   24.1871  138.6989 H   0  0  0  0  0  0
  -70.8160   23.5900  139.8092 H   0  0  0  0  0  0
  -72.1083   26.2363  137.2189 H   0  0  0  0  0  0
  -74.3052   25.0416  136.3040 H   0  0  0  0  0  0
  -74.3621   24.2333  137.9071 H   0  0  0  0  0  0
  -72.1882   24.3193  135.5716 H   0  0  0  0  0  0
  -70.7567   24.3081  136.6566 H   0  0  0  0  0  0
  -71.7812   22.0575  136.4981 H   0  0  0  0  0  0
  -73.3423   22.7312  137.0777 H   0  0  0  0  0  0
  -71.9108   22.7200  138.1628 H   0  0  0  0  0  0
  -75.7416   26.3096  137.8987 H   0  0  0  0  0  0
  -74.2956   27.2643  137.4249 H   0  0  0  0  0  0
  -74.3524   26.4560  139.0281 H   0  0  0  0  0  0
  -68.5751   28.2825  141.9315 H   0  0  0  0  0  0
  -70.1664   27.7887  142.6028 H   0  0  0  0  0  0
  -70.0923   28.8798  141.1778 H   0  0  0  0  0  0
  1  2  2  0  0  0
  1  3  1  0  0  0
  1  4  1  0  0  0
  4  5  2  0  0  0
  4 13  1  0  0  0
  5  6  1  0  0  0
  5 21  1  0  0  0
  6  7  1  0  0  0
  6 20  1  0  0  0
  6 22  1  0  0  0
  7  8  1  0  0  0
  7 12  1  0  0  0
  7 23  1  0  0  0
  8  9  1  0  0  0
  8 24  1  0  0  0
  9 10  2  0  0  0
  9 11  1  0  0  0
 11 25  1  0  0  0
 11 26  1  0  0  0
 11 27  1  0  0  0
 12 13  1  0  0  0
 12 14  1  0  0  0
 12 28  1  0  0  0
 13 29  1  0  0  0
 13 30  1  0  0  0
 14 15  1  0  0  0
 15 16  1  0  0  0
 15 17  1  0  0  0
 15 31  1  0  0  0
 16 19  1  0  0  0
 16 32  1  0  0  0
 16 33  1  0  0  0
 17 18  1  0  0  0
 17 34  1  0  0  0
 17 35  1  0  0  0
 18 36  1  0  0  0
 18 37  1  0  0  0
 18 38  1  0  0  0
 19 39  1  0  0  0
 19 40  1  0  0  0
 19 41  1  0  0  0
 20 42  1  0  0  0
 20 43  1  0  0  0
 20 44  1  0  0  0
M  CHG  2   3  -1  20   1
M  END
> <s_m_source_file>
../4m3m_ligand.sdf

> <i_m_source_file_index>
1

> <s_epik_input>
Tz1DKFtPSF0pQzE9W0NIXVtDQEhdKFtOSDMrXSlbQ0BIXShbTkhdQyg9TylbQ0gzXSlbQ0BASF0oW0NIMl0xKU9bQ0hdKFtDSDJdW0NIM10pW0NIMl1bQ0gzXQ==

> <s_epik_cmdline>
J2VwaWtfYXBwJywgJy1pbWFlJywgJ2xpZ2FuZF9wcm8ubWFlJywgJy1vbWFlJywgJ2xpZ2FuZF9wcmVwLm1hZScsICctbXMnLCAnMScsICctcGgnLCAnNycsICctcGh0JywgJzAuNScsICctbnQn

> <r_lp_tautomer_probability>
1

> <r_epik_Ionization_Penalty>
  0.0052

> <r_epik_Ionization_Penalty_Charging>
  0.0052

> <r_epik_Ionization_Penalty_Neutral>
  0.0000

> <r_epik_State_Penalty>
 -0.0000

> <r_epik_Charging_Adjusted_Penalty>
0.00515745881308367

> <i_epik_Tot_Q>
0

> <i_epik_Tot_abs_Q>
2

$$$$
