4m3q_ligand
                    3D
 Schrodinger Suite 2020-3.
 52 54  0  0  1  0            999 V2000
  -13.5650   40.8330  -20.6530 C   0  0  0  0  0  0
  -13.3850   41.4410  -19.2660 C   0  0  0  0  0  0
  -13.6080   42.9600  -19.2560 C   0  0  0  0  0  0
  -13.6570   43.5260  -17.8210 C   0  0  0  0  0  0
  -15.0170   43.8910  -17.4330 N   0  0  0  0  0  0
  -15.6720   43.1660  -16.3520 C   0  0  0  0  0  0
  -16.6910   43.6840  -15.6400 N   0  0  0  0  0  0
  -17.2590   42.9440  -14.6410 C   0  0  0  0  0  0
  -16.7900   41.6550  -14.3410 C   0  0  0  0  0  0
  -15.7290   41.1530  -15.1180 C   0  0  0  0  0  0
  -15.1400   39.8380  -14.9410 N   0  0  0  0  0  0
  -13.9580   39.4580  -15.6860 C   0  0  2  0  0  0
  -14.4330   38.6380  -16.8690 C   0  0  0  0  0  0
  -13.2940   37.9680  -17.6060 C   0  0  0  0  0  0
  -12.3940   37.1910  -16.6710 C   0  0  1  0  0  0
  -11.2880   36.7040  -17.4170 O   0  0  0  0  0  0
  -11.8900   38.0510  -15.5310 C   0  0  0  0  0  0
  -13.0290   38.7030  -14.7670 C   0  0  0  0  0  0
  -15.2200   41.9280  -16.0850 N   0  0  0  0  0  0
  -17.3900   40.8810  -13.3160 C   0  0  0  0  0  0
  -18.7600   40.9770  -13.1020 C   0  0  0  0  0  0
  -19.3490   40.2010  -12.1000 C   0  0  0  0  0  0
  -18.5560   39.3510  -11.3430 C   0  0  0  0  0  0
  -17.1890   39.2770  -11.5890 C   0  0  0  0  0  0
  -16.6530   40.0400  -12.5620 N   0  0  0  0  0  0
  -13.3944   39.7475  -20.6024 H   0  0  0  0  0  0
  -12.8428   41.2857  -21.3483 H   0  0  0  0  0  0
  -14.5876   41.0273  -21.0086 H   0  0  0  0  0  0
  -14.1072   40.9883  -18.5707 H   0  0  0  0  0  0
  -12.3624   41.2467  -18.9103 H   0  0  0  0  0  0
  -12.7855   43.4549  -19.7932 H   0  0  0  0  0  0
  -14.5622   43.1938  -19.7509 H   0  0  0  0  0  0
  -13.2862   42.7682  -17.1151 H   0  0  0  0  0  0
  -13.0255   44.4246  -17.7595 H   0  0  0  0  0  0
  -15.5378   44.7069  -17.9556 H   0  0  0  0  0  0
  -18.0881   43.3606  -14.0689 H   0  0  0  0  0  0
  -15.5973   39.1285  -14.2356 H   0  0  0  0  0  0
  -13.4168   40.3464  -16.0436 H   0  0  0  0  0  0
  -15.1180   37.8518  -16.5188 H   0  0  0  0  0  0
  -14.9583   39.2916  -17.5809 H   0  0  0  0  0  0
  -13.7006   37.2688  -18.3515 H   0  0  0  0  0  0
  -12.6857   38.7316  -18.1129 H   0  0  0  0  0  0
  -12.9305   36.3220  -16.2622 H   0  0  0  0  0  0
  -11.4559   36.0567  -18.2904 H   0  0  0  0  0  0
  -11.3157   37.4290  -14.8286 H   0  0  0  0  0  0
  -11.2431   38.8463  -15.9298 H   0  0  0  0  0  0
  -12.5987   39.3969  -14.0299 H   0  0  0  0  0  0
  -13.5909   37.9149  -14.2443 H   0  0  0  0  0  0
  -19.3674   41.6491  -13.7081 H   0  0  0  0  0  0
  -20.4214   40.2631  -11.9150 H   0  0  0  0  0  0
  -19.0032   38.7424  -10.5571 H   0  0  0  0  0  0
  -16.5585   38.6096  -11.0016 H   0  0  0  0  0  0
  1  2  1  0  0  0
  1 26  1  0  0  0
  1 27  1  0  0  0
  1 28  1  0  0  0
  2  3  1  0  0  0
  2 29  1  0  0  0
  2 30  1  0  0  0
  3  4  1  0  0  0
  3 31  1  0  0  0
  3 32  1  0  0  0
  4  5  1  0  0  0
  4 33  1  0  0  0
  4 34  1  0  0  0
  5  6  1  0  0  0
  5 35  1  0  0  0
  6  7  2  0  0  0
  6 19  1  0  0  0
  7  8  1  0  0  0
  8  9  2  0  0  0
  8 36  1  0  0  0
  9 10  1  0  0  0
  9 20  1  0  0  0
 10 11  1  0  0  0
 10 19  2  0  0  0
 11 12  1  0  0  0
 11 37  1  0  0  0
 12 13  1  0  0  0
 12 18  1  0  0  0
 12 38  1  0  0  0
 13 14  1  0  0  0
 13 39  1  0  0  0
 13 40  1  0  0  0
 14 15  1  0  0  0
 14 41  1  0  0  0
 14 42  1  0  0  0
 15 16  1  0  0  0
 15 17  1  0  0  0
 15 43  1  0  0  0
 16 44  1  0  0  0
 17 18  1  0  0  0
 17 45  1  0  0  0
 17 46  1  0  0  0
 18 47  1  0  0  0
 18 48  1  0  0  0
 20 21  2  0  0  0
 20 25  1  0  0  0
 21 22  1  0  0  0
 21 49  1  0  0  0
 22 23  2  0  0  0
 22 50  1  0  0  0
 23 24  1  0  0  0
 23 51  1  0  0  0
 24 25  2  0  0  0
 24 52  1  0  0  0
M  END
> <s_m_source_file>
../4m3q_ligand.sdf

> <i_m_source_file_index>
1

> <s_epik_input>
W0NIM11bQ0gyXVtDSDJdW0NIMl1bTkhdYzFuW2NIXWMoLWMyW2NIXVtjSF1bY0hdW2NIXW4yKWMobjEpW05IXVtDQEBIXTNbQ0gyXVtDSDJdW0NAQEhdKFtPSF0pW0NIMl1bQ0gyXTM=

> <s_epik_cmdline>
J2VwaWtfYXBwJywgJy1pbWFlJywgJ2xpZ2FuZF9wcm8ubWFlJywgJy1vbWFlJywgJ2xpZ2FuZF9wcmVwLm1hZScsICctbXMnLCAnMScsICctcGgnLCAnNycsICctcGh0JywgJzAuNScsICctbnQn

> <r_lp_tautomer_probability>
0.999999624730965

> <r_epik_Ionization_Penalty>
  0.0332

> <r_epik_Ionization_Penalty_Charging>
  0.0000

> <r_epik_Ionization_Penalty_Neutral>
  0.0332

> <r_epik_State_Penalty>
  0.0227

> <r_epik_Charging_Adjusted_Penalty>
0.0226943953232858

> <i_epik_Tot_Q>
0

> <i_epik_Tot_abs_Q>
0

$$$$
