4m4q_ligand
                    3D
 Schrodinger Suite 2020-3.
 39 42  0  0  1  0            999 V2000
    8.8630   19.8500   -8.6420 O   0  0  0  0  0  0
    9.4150   20.5040   -9.4990 C   0  0  0  0  0  0
    9.7990   21.8350   -9.2370 C   0  0  0  0  0  0
    9.5410   22.4270   -7.9870 O   0  0  0  0  0  0
   10.4430   22.5910  -10.2440 C   0  0  0  0  0  0
   10.7360   22.0660  -11.5110 C   0  0  0  0  0  0
   11.4310   23.0440  -12.4380 C   0  0  0  0  0  0
   12.8010   22.9890  -12.6260 C   0  0  0  0  0  0
   13.4200   23.9160  -13.4520 C   0  0  0  0  0  0
   12.6650   24.9010  -14.0740 C   0  0  0  0  0  0
   13.3310   25.9290  -14.9610 C   0  0  0  0  0  0
   12.7720   26.5900  -15.9950 N   0  0  0  0  0  0
   13.7040   27.4200  -16.5020 N   0  3  0  0  0  0
   14.8300   27.2780  -15.7820 N   0  0  0  0  0  0
   14.5990   26.3610  -14.8260 N   0  3  0  0  0  0
   11.3010   24.9710  -13.8610 C   0  0  0  0  0  0
   10.6830   24.0400  -13.0430 C   0  0  0  0  0  0
   10.3690   20.7250  -11.8260 C   0  0  0  0  0  0
    9.7010   19.9220  -10.8050 N   0  0  0  0  0  0
   10.6360   20.0690  -13.1680 C   0  0  0  0  0  0
   10.1360   20.6120  -14.3430 C   0  0  0  0  0  0
   10.3830   19.9900  -15.5580 C   0  0  0  0  0  0
   11.1220   18.8170  -15.5990 C   0  0  0  0  0  0
   11.3580   18.2190  -16.7740 F   0  0  0  0  0  0
   11.6170   18.2700  -14.4220 C   0  0  0  0  0  0
   11.3690   18.8950  -13.2100 C   0  0  0  0  0  0
    9.0407   21.8478   -7.1969 H   0  0  0  0  0  0
   10.7225   23.6219  -10.0268 H   0  0  0  0  0  0
   13.3913   22.2204  -12.1271 H   0  0  0  0  0  0
   14.4972   23.8710  -13.6123 H   0  0  0  0  0  0
   10.7134   25.7569  -14.3356 H   0  0  0  0  0  0
    9.6072   24.0912  -12.8753 H   0  0  0  0  0  0
    9.4139   18.8818  -11.0184 H   0  0  0  0  0  0
    9.5479   21.5292  -14.3112 H   0  0  0  0  0  0
    9.9963   20.4231  -16.4805 H   0  0  0  0  0  0
   12.2002   17.3496  -14.4516 H   0  0  0  0  0  0
   11.7523   18.4608  -12.2866 H   0  0  0  0  0  0
   13.4834   28.0002  -17.2860 H   0  0  0  0  0  0
   15.3947   26.0961  -14.1142 H   0  0  0  0  0  0
  1  2  2  0  0  0
  2  3  1  0  0  0
  2 19  1  0  0  0
  3  4  1  0  0  0
  3  5  2  0  0  0
  4 27  1  0  0  0
  5  6  1  0  0  0
  5 28  1  0  0  0
  6  7  1  0  0  0
  6 18  2  0  0  0
  7  8  2  0  0  0
  7 17  1  0  0  0
  8  9  1  0  0  0
  8 29  1  0  0  0
  9 10  2  0  0  0
  9 30  1  0  0  0
 10 11  1  0  0  0
 10 16  1  0  0  0
 11 12  2  0  0  0
 11 15  1  0  0  0
 12 13  1  0  0  0
 13 14  1  0  0  0
 13 38  1  0  0  0
 14 15  2  0  0  0
 15 39  1  0  0  0
 16 17  2  0  0  0
 16 31  1  0  0  0
 17 32  1  0  0  0
 18 19  1  0  0  0
 18 20  1  0  0  0
 19 33  1  0  0  0
 20 21  2  0  0  0
 20 26  1  0  0  0
 21 22  1  0  0  0
 21 34  1  0  0  0
 22 23  2  0  0  0
 22 35  1  0  0  0
 23 24  1  0  0  0
 23 25  1  0  0  0
 25 26  2  0  0  0
 25 36  1  0  0  0
 26 37  1  0  0  0
M  CHG  2  13   1  15   1
M  END
> <s_m_source_file>
../4m4q_ligand.sdf

> <i_m_source_file_index>
1

> <s_epik_input>
W2NIXTFbY0hdYyhGKVtjSF1bY0hdYzEtYyhbbkhdMiljKFtjSF1jKGMyPU8pW09IXSktYzNbY0hdW2NIXWMoW2NIXVtjSF0zKS1jNG5bbkhdbm40

> <s_epik_cmdline>
J2VwaWtfYXBwJywgJy1pbWFlJywgJ2xpZ2FuZF9wcm8ubWFlJywgJy1vbWFlJywgJ2xpZ2FuZF9wcmVwLm1hZScsICctbXMnLCAnMScsICctcGgnLCAnNycsICctcGh0JywgJzAuNScsICctbnQn

> <r_epik_Ionization_Penalty>
 10.5481

> <r_epik_Ionization_Penalty_Charging>
 10.5116

> <r_epik_Ionization_Penalty_Neutral>
  0.0365

> <r_epik_State_Penalty>
  0.0112

> <r_epik_Charging_Adjusted_Penalty>
10.5228866731563

> <i_epik_Tot_Q>
2

> <i_epik_Tot_abs_Q>
2

> <s_epik_Chemistry_Notes>
This compound has an imine and may undergo hydrolysis.

$$$$
