4m5h_ligand
                    3D
 Schrodinger Suite 2020-3.
 31 33  0  0  1  0            999 V2000
   73.9470    8.1060   67.4920 C   0  0  0  0  0  0
   72.9230    7.8280   66.5890 N   0  3  0  0  0  0
   72.4150    8.7750   65.6860 C   0  0  0  0  0  0
   72.8920   10.0810   65.6070 N   0  0  0  0  0  0
   73.9410   10.3780   66.5390 C   0  0  0  0  0  0
   74.4680    9.4920   67.4360 C   0  0  0  0  0  0
   74.3460    7.2370   68.2640 O   0  0  0  0  0  0
   71.4000    8.4070   64.8290 N   0  0  0  0  0  0
   74.5430   11.5550   66.6850 N   0  0  0  0  0  0
   75.4630   11.3880   67.6590 C   0  0  0  0  0  0
   75.4280   10.1220   68.1550 N   0  3  0  0  0  0
   76.4770   12.6610   68.2250 S   0  0  0  0  0  0
   75.5470   13.3010   69.6060 C   0  0  0  0  0  0
   74.3270   14.0660   69.1780 C   0  0  0  0  0  0
   72.9690   13.4440   69.2050 C   0  0  0  0  0  0
   71.7730   14.2240   68.7720 C   0  0  0  0  0  0
   71.9380   15.6270   68.3040 C   0  0  0  0  0  0
   73.2840   16.2550   68.2750 C   0  0  0  0  0  0
   74.4720   15.4750   68.7130 C   0  0  0  0  0  0
   70.7510   16.4050   67.8680 C   0  0  0  0  0  0
   69.8440   17.0080   67.5320 N   0  0  0  0  0  0
   70.9967    7.3841   64.8612 H   0  0  0  0  0  0
   75.2160   12.4675   70.2429 H   0  0  0  0  0  0
   76.1825   13.9807   70.1926 H   0  0  0  0  0  0
   72.8512   12.4144   69.5430 H   0  0  0  0  0  0
   70.7832   13.7684   68.7983 H   0  0  0  0  0  0
   73.4004   17.2837   67.9339 H   0  0  0  0  0  0
   75.4586   15.9381   68.6939 H   0  0  0  0  0  0
   70.9933    9.1362   64.1129 H   0  0  0  0  0  0
   75.9723    9.5782   68.9412 H   0  0  0  0  0  0
   72.4720    6.8251   66.5606 H   0  0  0  0  0  0
  1  2  1  0  0  0
  1  6  1  0  0  0
  1  7  2  0  0  0
  2  3  1  0  0  0
  2 31  1  0  0  0
  3  4  2  0  0  0
  3  8  1  0  0  0
  4  5  1  0  0  0
  5  6  2  0  0  0
  5  9  1  0  0  0
  6 11  1  0  0  0
  8 22  1  0  0  0
  8 29  1  0  0  0
  9 10  2  0  0  0
 10 11  1  0  0  0
 10 12  1  0  0  0
 11 30  1  0  0  0
 12 13  1  0  0  0
 13 14  1  0  0  0
 13 23  1  0  0  0
 13 24  1  0  0  0
 14 15  2  0  0  0
 14 19  1  0  0  0
 15 16  1  0  0  0
 15 25  1  0  0  0
 16 17  2  0  0  0
 16 26  1  0  0  0
 17 18  1  0  0  0
 17 20  1  0  0  0
 18 19  2  0  0  0
 18 27  1  0  0  0
 19 28  1  0  0  0
 20 21  3  0  0  0
M  CHG  2   2   1  11   1
M  END
> <s_m_source_file>
../4m5h_ligand.sdf

> <i_m_source_file_index>
1

> <s_epik_input>
W0hdL049YyhbbkhdMSlcW25IXWMoPU8pYyhjMTIpW25IXWMobjIpU1tDSDJdYzNbY0hdW2NIXWMoQyNOKVtjSF1bY0hdMw==

> <s_epik_cmdline>
J2VwaWtfYXBwJywgJy1pbWFlJywgJ2xpZ2FuZF9wcm8ubWFlJywgJy1vbWFlJywgJ2xpZ2FuZF9wcmVwLm1hZScsICctbXMnLCAnMScsICctcGgnLCAnNycsICctcGh0JywgJzAuNScsICctbnQn

> <r_lp_tautomer_probability>
1

> <r_epik_Ionization_Penalty>
 22.7153

> <r_epik_Ionization_Penalty_Charging>
 14.3237

> <r_epik_Ionization_Penalty_Neutral>
  8.3915

> <r_epik_State_Penalty>
 -0.0000

> <r_epik_Charging_Adjusted_Penalty>
14.3237235861873

> <i_epik_Tot_Q>
2

> <i_epik_Tot_abs_Q>
2

> <s_epik_Chemistry_Notes>
This compound has an imine and may undergo hydrolysis.

$$$$
