4m5i_ligand
                    3D
 Schrodinger Suite 2020-3.
 35 37  0  0  1  0            999 V2000
   55.4230    6.6660   33.4580 O   0  0  0  0  0  0
   54.9500    7.6420   32.6410 C   0  0  0  0  0  0
   53.9080    7.4080   31.8400 N   0  0  0  0  0  0
   53.4090    8.3400   31.0100 C   0  0  0  0  0  0
   52.3170    7.9840   30.2080 N   0  0  0  0  0  0
   53.8930    9.5660   30.9200 N   0  0  0  0  0  0
   54.9460    9.8640   31.7260 C   0  0  0  0  0  0
   55.5020    8.9360   32.5990 C   0  0  0  0  0  0
   56.5400    9.5470   33.2620 N   0  3  0  0  0  0
   55.6340   11.0230   31.8660 N   0  0  0  0  0  0
   56.5810   10.7980   32.7830 C   0  0  0  0  0  0
   57.6620   12.0380   33.3290 S   0  0  0  0  0  0
   56.7280   12.6700   34.7110 C   0  0  0  0  0  0
   55.2270   12.7230   34.6430 C   0  0  0  0  0  0
   54.5800   11.6940   34.7640 O   0  0  0  0  0  0
   54.4770   14.0090   34.4500 C   0  0  0  0  0  0
   53.1150   14.0200   34.7230 C   0  0  0  0  0  0
   52.3710   15.1790   34.5660 C   0  0  0  0  0  0
   52.9870   16.3400   34.1270 C   0  0  0  0  0  0
   52.1820   17.5840   33.9570 C   0  0  0  0  0  0
   54.3490   16.3340   33.8480 C   0  0  0  0  0  0
   55.0970   15.1720   34.0090 C   0  0  0  0  0  0
   51.8988    6.9683   30.2676 H   0  0  0  0  0  0
   51.8777    8.7201   29.5187 H   0  0  0  0  0  0
   56.9321   12.0581   35.6020 H   0  0  0  0  0  0
   57.0220   13.7118   34.9065 H   0  0  0  0  0  0
   52.6261   13.1075   35.0643 H   0  0  0  0  0  0
   51.3037   15.1771   34.7874 H   0  0  0  0  0  0
   51.1348   17.3828   34.2271 H   0  0  0  0  0  0
   52.2335   17.9137   32.9088 H   0  0  0  0  0  0
   52.5840   18.3729   34.6097 H   0  0  0  0  0  0
   54.8342   17.2461   33.5007 H   0  0  0  0  0  0
   56.1648   15.1738   33.7902 H   0  0  0  0  0  0
   57.1231    8.9857   34.0069 H   0  0  0  0  0  0
   53.4230    6.4207   31.8427 H   0  0  0  0  0  0
  1  2  2  0  0  0
  2  3  1  0  0  0
  2  8  1  0  0  0
  3  4  1  0  0  0
  3 35  1  0  0  0
  4  5  1  0  0  0
  4  6  2  0  0  0
  5 23  1  0  0  0
  5 24  1  0  0  0
  6  7  1  0  0  0
  7  8  2  0  0  0
  7 10  1  0  0  0
  8  9  1  0  0  0
  9 11  1  0  0  0
  9 34  1  0  0  0
 10 11  2  0  0  0
 11 12  1  0  0  0
 12 13  1  0  0  0
 13 14  1  0  0  0
 13 25  1  0  0  0
 13 26  1  0  0  0
 14 15  2  0  0  0
 14 16  1  0  0  0
 16 17  2  0  0  0
 16 22  1  0  0  0
 17 18  1  0  0  0
 17 27  1  0  0  0
 18 19  2  0  0  0
 18 28  1  0  0  0
 19 20  1  0  0  0
 19 21  1  0  0  0
 20 29  1  0  0  0
 20 30  1  0  0  0
 20 31  1  0  0  0
 21 22  2  0  0  0
 21 32  1  0  0  0
 22 33  1  0  0  0
M  CHG  1   9   1
M  END
> <s_m_source_file>
../4m5i_ligand.sdf

> <i_m_source_file_index>
1

> <s_epik_input>
W05IMl1jKG4xKVtuSF1jKD1PKWMoYzEyKVtuSF1jKG4yKVNbQ0gyXUMoPU8pYzNbY0hdW2NIXWMoW0NIM10pW2NIXVtjSF0z

> <s_epik_cmdline>
J2VwaWtfYXBwJywgJy1pbWFlJywgJ2xpZ2FuZF9wcm8ubWFlJywgJy1vbWFlJywgJ2xpZ2FuZF9wcmVwLm1hZScsICctbXMnLCAnMScsICctcGgnLCAnNycsICctcGh0JywgJzAuNScsICctbnQn

> <r_lp_tautomer_probability>
1

> <r_epik_Ionization_Penalty>
  0.0002

> <r_epik_Ionization_Penalty_Charging>
  0.0001

> <r_epik_Ionization_Penalty_Neutral>
  0.0001

> <r_epik_State_Penalty>
 -0.0000

> <r_epik_Charging_Adjusted_Penalty>
9.06029396051716e-05

> <i_epik_Tot_Q>
1

> <i_epik_Tot_abs_Q>
1

> <s_epik_Chemistry_Notes>
This compound has an imine and may undergo hydrolysis.

$$$$
