4m5k_ligand
                    3D
 Schrodinger Suite 2020-3.
 35 37  0  0  1  0            999 V2000
   54.2670   12.3580   34.5990 O   0  0  0  0  0  0
   54.7970   13.4160   34.2910 C   0  0  0  0  0  0
   53.9330   14.6550   34.3640 C   0  0  0  0  0  0
   52.6440   14.5710   34.9020 C   0  0  0  0  0  0
   51.8120   15.6880   34.9870 C   0  0  0  0  0  0
   50.4390   15.5820   35.5740 C   0  0  0  0  0  0
   52.2610   16.9130   34.5220 C   0  0  0  0  0  0
   53.5360   17.0150   33.9840 C   0  0  0  0  0  0
   54.3640   15.8980   33.9030 C   0  0  0  0  0  0
   56.2510   13.4310   33.8500 C   0  0  0  0  0  0
   57.3410   11.9950   33.7950 S   0  0  0  0  0  0
   56.3750   10.6960   33.1610 C   0  0  0  0  0  0
   55.5040   10.9040   32.1740 N   0  3  0  0  0  0
   54.8990    9.7150   31.9250 C   0  0  3  0  0  0
   55.4280    8.7730   32.7840 C   0  0  0  0  0  0
   56.3590    9.4150   33.5620 N   0  0  0  0  0  0
   53.9500    9.3900   31.0150 N   0  0  0  0  0  0
   53.5190    8.1370   31.0030 C   0  0  0  0  0  0
   52.5080    7.7840   30.0900 N   0  0  0  0  0  0
   53.9940    7.1870   31.8190 N   0  0  0  0  0  0
   54.9500    7.4510   32.7120 C   0  0  0  0  0  0
   55.4260    6.4780   33.5380 O   0  0  0  0  0  0
   52.2808   13.6091   35.2637 H   0  0  0  0  0  0
   50.2536   14.5442   35.8880 H   0  0  0  0  0  0
   49.6941   15.8755   34.8197 H   0  0  0  0  0  0
   50.3604   16.2484   36.4456 H   0  0  0  0  0  0
   51.6173   17.7908   34.5783 H   0  0  0  0  0  0
   53.8931   17.9788   33.6212 H   0  0  0  0  0  0
   55.3611   15.9969   33.4739 H   0  0  0  0  0  0
   56.3151   13.7836   32.8100 H   0  0  0  0  0  0
   56.8250   14.1058   34.5020 H   0  0  0  0  0  0
   52.0962    8.5405   29.4058 H   0  0  0  0  0  0
   52.1296    6.7516   30.0605 H   0  0  0  0  0  0
   53.5958    6.1632   31.7617 H   0  0  0  0  0  0
   55.3993   11.9072   31.7351 H   0  0  0  0  0  0
  1  2  2  0  0  0
  2  3  1  0  0  0
  2 10  1  0  0  0
  3  4  2  0  0  0
  3  9  1  0  0  0
  4  5  1  0  0  0
  4 23  1  0  0  0
  5  6  1  0  0  0
  5  7  2  0  0  0
  6 24  1  0  0  0
  6 25  1  0  0  0
  6 26  1  0  0  0
  7  8  1  0  0  0
  7 27  1  0  0  0
  8  9  2  0  0  0
  8 28  1  0  0  0
  9 29  1  0  0  0
 10 11  1  0  0  0
 10 30  1  0  0  0
 10 31  1  0  0  0
 11 12  1  0  0  0
 12 13  2  0  0  0
 12 16  1  0  0  0
 13 14  1  0  0  0
 13 35  1  0  0  0
 14 15  1  0  0  0
 14 17  1  0  0  0
 15 16  2  0  0  0
 15 21  1  0  0  0
 17 18  2  0  0  0
 18 19  1  0  0  0
 18 20  1  0  0  0
 19 32  1  0  0  0
 19 33  1  0  0  0
 20 21  1  0  0  0
 20 34  1  0  0  0
 21 22  2  0  0  0
M  CHG  1  13   1
M  END
> <s_m_source_file>
../4m5k_ligand.sdf

> <i_m_source_file_index>
1

> <s_epik_input>
W2NIXTFbY0hdW2NIXWMoW0NIM10pW2NIXWMxQyg9TylbQ0gyXVNDKD1OMilOPUMoW0NIXTIzKUMoPU8pW05IXUMoPU4zKVtOSDJd

> <s_epik_cmdline>
J2VwaWtfYXBwJywgJy1pbWFlJywgJ2xpZ2FuZF9wcm8ubWFlJywgJy1vbWFlJywgJ2xpZ2FuZF9wcmVwLm1hZScsICctbXMnLCAnMScsICctcGgnLCAnNycsICctcGh0JywgJzAuNScsICctbnQn

> <r_lp_tautomer_probability>
1

> <r_epik_Ionization_Penalty>
  0.0012

> <r_epik_Ionization_Penalty_Charging>
  0.0012

> <r_epik_Ionization_Penalty_Neutral>
  0.0000

> <r_epik_State_Penalty>
 -0.0000

> <r_epik_Charging_Adjusted_Penalty>
0.00117809406610644

> <i_epik_Tot_Q>
1

> <i_epik_Tot_abs_Q>
1

> <s_epik_Chemistry_Notes>
This compound has an imine and may undergo hydrolysis.

$$$$
