4m5o_ligand
                    3D
 Schrodinger Suite 2020-3.
 22 23  0  0  1  0            999 V2000
   10.0220   22.1940   -8.4190 O   0  0  0  0  0  0
   10.2310   21.7550   -9.5390 C   0  0  0  0  0  0
   10.9020   22.5190  -10.4350 N   0  0  0  0  0  0
   11.1570   22.0500  -11.6930 C   0  0  0  0  0  0
   10.7370   20.7760  -12.0760 C   0  0  0  0  0  0
   10.0460   20.0020  -11.1710 C   0  0  0  0  0  0
    9.7910   20.4860   -9.9190 C   0  0  1  0  0  0
    9.0960   19.7140   -8.9910 O   0  5  0  0  0  0
   11.9390   22.9560  -12.6160 C   0  0  0  0  0  0
   12.9830   23.7050  -12.0680 C   0  0  0  0  0  0
   13.7220   24.5480  -12.8810 C   0  0  0  0  0  0
   13.4180   24.6310  -14.2380 C   0  0  0  0  0  0
   12.3820   23.8850  -14.7880 C   0  0  0  0  0  0
   11.6350   23.0430  -13.9740 C   0  0  0  0  0  0
   10.9497   20.3872  -13.0828 H   0  0  0  0  0  0
    9.7011   18.9973  -11.4568 H   0  0  0  0  0  0
    8.8472   20.9212  -10.2795 H   0  0  0  0  0  0
   13.2148   23.6263  -11.0058 H   0  0  0  0  0  0
   14.5348   25.1417  -12.4626 H   0  0  0  0  0  0
   14.0020   25.2916  -14.8789 H   0  0  0  0  0  0
   12.1571   23.9603  -15.8519 H   0  0  0  0  0  0
   10.8183   22.4554  -14.3932 H   0  0  0  0  0  0
  1  2  2  0  0  0
  2  3  1  0  0  0
  2  7  1  0  0  0
  3  4  2  0  0  0
  4  5  1  0  0  0
  4  9  1  0  0  0
  5  6  2  0  0  0
  5 15  1  0  0  0
  6  7  1  0  0  0
  6 16  1  0  0  0
  7  8  1  0  0  0
  7 17  1  0  0  0
  9 10  2  0  0  0
  9 14  1  0  0  0
 10 11  1  0  0  0
 10 18  1  0  0  0
 11 12  2  0  0  0
 11 19  1  0  0  0
 12 13  1  0  0  0
 12 20  1  0  0  0
 13 14  2  0  0  0
 13 21  1  0  0  0
 14 22  1  0  0  0
M  CHG  1   8  -1
M  END
> <s_m_source_file>
../4m5o_ligand.sdf

> <i_m_source_file_index>
1

> <s_epik_input>
W09IXVtDSF0xW0NIXT1bQ0hdQyg9TkMxPU8pYzJbY0hdW2NIXVtjSF1bY0hdW2NIXTI=

> <s_epik_cmdline>
J2VwaWtfYXBwJywgJy1pbWFlJywgJ2xpZ2FuZF9wcm8ubWFlJywgJy1vbWFlJywgJ2xpZ2FuZF9wcmVwLm1hZScsICctbXMnLCAnMScsICctcGgnLCAnNycsICctcGh0JywgJzAuNScsICctbnQn

> <r_epik_Ionization_Penalty>
  0.3322

> <r_epik_Ionization_Penalty_Charging>
  0.3322

> <r_epik_Ionization_Penalty_Neutral>
  0.0000

> <r_epik_State_Penalty>
  0.3273

> <r_epik_Charging_Adjusted_Penalty>
0.659473186599653

> <i_epik_Tot_Q>
-1

> <i_epik_Tot_abs_Q>
1

> <s_epik_Chemistry_Notes>
This compound has an imine and may undergo hydrolysis.

$$$$
