4m5r_ligand
                    3D
 Schrodinger Suite 2020-3.
 20 21  0  0  1  0            999 V2000
   10.6920   12.7120  -16.7180 C   0  0  0  0  0  0
   10.5550   11.7610  -17.7120 C   0  0  0  0  0  0
   11.2850   10.5840  -17.6450 C   0  0  0  0  0  0
   11.1420    9.6390  -18.6380 O   0  0  0  0  0  0
   12.1530   10.3590  -16.5860 C   0  0  0  0  0  0
   12.2990   11.3220  -15.5970 C   0  0  0  0  0  0
   11.5650   12.4950  -15.6470 C   0  0  0  0  0  0
   11.6980   13.4420  -14.6770 N   0  0  0  0  0  0
   12.8680   13.9190  -14.2150 C   0  0  0  0  0  0
   12.5760   14.8710  -13.2480 C   0  0  0  0  0  0
   11.2340   14.9500  -13.1560 N   0  0  0  0  0  0
   10.6990   14.0670  -14.0240 C   0  0  0  0  0  0
   10.1164   13.6362  -16.7692 H   0  0  0  0  0  0
    9.8752   11.9359  -18.5459 H   0  0  0  0  0  0
   10.4528    9.8214  -19.4757 H   0  0  0  0  0  0
   12.7185    9.4288  -16.5309 H   0  0  0  0  0  0
   12.9958   11.1537  -14.7759 H   0  0  0  0  0  0
   13.8626   13.6139  -14.5403 H   0  0  0  0  0  0
   13.2983   15.4477  -12.6702 H   0  0  0  0  0  0
    9.6340   13.8885  -14.1726 H   0  0  0  0  0  0
  1  2  2  0  0  0
  1  7  1  0  0  0
  1 13  1  0  0  0
  2  3  1  0  0  0
  2 14  1  0  0  0
  3  4  1  0  0  0
  3  5  2  0  0  0
  4 15  1  0  0  0
  5  6  1  0  0  0
  5 16  1  0  0  0
  6  7  2  0  0  0
  6 17  1  0  0  0
  7  8  1  0  0  0
  8  9  1  0  0  0
  8 12  1  0  0  0
  9 10  2  0  0  0
  9 18  1  0  0  0
 10 11  1  0  0  0
 10 19  1  0  0  0
 11 12  2  0  0  0
 12 20  1  0  0  0
M  END
> <s_m_source_file>
../4m5r_ligand.sdf

> <i_m_source_file_index>
1

> <s_epik_input>
W09IXWMxW2NIXVtjSF1jKFtjSF1bY0hdMSktbjJbY0hdW2NIXW5bY0hdMg==

> <s_epik_cmdline>
J2VwaWtfYXBwJywgJy1pbWFlJywgJ2xpZ2FuZF9wcm8ubWFlJywgJy1vbWFlJywgJ2xpZ2FuZF9wcmVwLm1hZScsICctbXMnLCAnMScsICctcGgnLCAnNycsICctcGh0JywgJzAuNScsICctbnQn

> <r_lp_tautomer_probability>
1

> <r_epik_Ionization_Penalty>
  0.0433

> <r_epik_Ionization_Penalty_Charging>
  0.0318

> <r_epik_Ionization_Penalty_Neutral>
  0.0115

> <r_epik_State_Penalty>
 -0.0000

> <r_epik_Charging_Adjusted_Penalty>
0.0318180354398093

> <i_epik_Tot_Q>
0

> <i_epik_Tot_abs_Q>
0

$$$$
