4m6u_ligand
                    3D
 Schrodinger Suite 2020-3.
 10  9  0  0  1  0            999 V2000
  -22.6240   19.1650  -23.5560 C   0  0  0  0  0  0
  -21.9340   20.1990  -24.3950 C   0  0  0  0  0  0
  -22.8200   21.3890  -24.6170 C   0  0  0  0  0  0
  -23.5230   19.5360  -22.7710 O   0  0  0  0  0  0
  -22.2730   17.9710  -23.6740 O   0  5  0  0  0  0
  -20.7290   20.6160  -23.7430 O   0  0  0  0  0  0
  -23.2130   22.0340  -23.6220 O   0  0  0  0  0  0
  -23.1310   21.6900  -25.7900 O   0  5  0  0  0  0
  -21.6508   19.7616  -25.3637 H   0  0  0  0  0  0
  -19.9529   19.8765  -23.4964 H   0  0  0  0  0  0
  1  2  1  0  0  0
  1  4  2  0  0  0
  1  5  1  0  0  0
  2  3  1  0  0  0
  2  6  1  0  0  0
  2  9  1  0  0  0
  3  7  2  0  0  0
  3  8  1  0  0  0
  6 10  1  0  0  0
M  CHG  2   5  -1   8  -1
M  END
> <s_m_source_file>
../4m6u_ligand.sdf

> <i_m_source_file_index>
1

> <s_epik_input>
Tz1DKFtPSF0pW0NIXShbT0hdKUMoPU8pW09IXQ==

> <s_epik_cmdline>
J2VwaWtfYXBwJywgJy1pbWFlJywgJ2xpZ2FuZF9wcm8ubWFlJywgJy1vbWFlJywgJ2xpZ2FuZF9wcmVwLm1hZScsICctbXMnLCAnMScsICctcGgnLCAnNycsICctcGh0JywgJzAuNScsICctbnQn

> <r_lp_tautomer_probability>
1

> <r_epik_Ionization_Penalty>
  0.0046

> <r_epik_Ionization_Penalty_Charging>
  0.0034

> <r_epik_Ionization_Penalty_Neutral>
  0.0012

> <r_epik_State_Penalty>
 -0.0000

> <r_epik_Charging_Adjusted_Penalty>
0.00339494757808371

> <i_epik_Tot_Q>
-2

> <i_epik_Tot_abs_Q>
2

$$$$
