4m7c_ligand
                    3D
 Schrodinger Suite 2020-3.
212215  0  0  1  0            999 V2000
  -32.5500  -19.1270  -41.0150 N   0  3  0  0  0  0
  -31.3050  -18.5660  -41.6000 C   0  0  2  0  0  0
  -30.2670  -18.2930  -40.5240 C   0  0  0  0  0  0
  -30.6050  -17.9380  -39.3950 O   0  0  0  0  0  0
  -31.6070  -17.2840  -42.3620 C   0  0  0  0  0  0
  -32.3650  -17.5590  -43.5240 O   0  0  0  0  0  0
  -29.0010  -18.4560  -40.8910 N   0  0  0  0  0  0
  -27.8960  -18.2280  -39.9720 C   0  0  2  0  0  0
  -27.3090  -16.8420  -40.1770 C   0  0  0  0  0  0
  -27.2040  -16.3590  -41.3060 O   0  0  0  0  0  0
  -26.8230  -19.3000  -40.1550 C   0  0  0  0  0  0
  -27.2690  -20.6980  -39.7450 C   0  0  0  0  0  0
  -27.5550  -20.7730  -38.2540 C   0  0  0  0  0  0
  -26.3850  -20.3770  -37.4720 N   0  0  0  0  0  0
  -26.3710  -20.2250  -36.1530 C   0  0  0  0  0  0
  -27.4740  -20.4150  -35.4410 N   0  0  0  0  0  0
  -25.2520  -19.8630  -35.5450 N   0  0  0  0  0  0
  -26.9230  -16.2120  -39.0730 N   0  0  0  0  0  0
  -26.4590  -14.8320  -39.0860 C   0  0  0  0  0  0
  -25.0400  -14.6180  -39.5750 C   0  0  0  0  0  0
  -24.4140  -15.5160  -40.1460 O   0  0  0  0  0  0
  -24.5380  -13.4100  -39.3260 N   0  0  0  0  0  0
  -23.2380  -12.9570  -39.8190 C   0  0  2  0  0  0
  -22.0830  -13.8410  -39.3970 C   0  0  0  0  0  0
  -21.1610  -14.0740  -40.1780 O   0  0  0  0  0  0
  -22.9480  -11.5300  -39.3470 C   0  0  0  0  0  0
  -23.4220  -10.3480  -40.1850 C   0  0  0  0  0  0
  -22.8850   -9.0580  -39.5910 C   0  0  0  0  0  0
  -22.9800  -10.4990  -41.6370 C   0  0  0  0  0  0
  -22.1280  -14.3170  -38.1560 N   0  0  0  0  0  0
  -21.0520  -15.1320  -37.6100 C   0  0  2  0  0  0
  -20.8810  -16.4250  -38.3970 C   0  0  0  0  0  0
  -19.8350  -17.0660  -38.3280 O   0  0  0  0  0  0
  -21.2930  -15.4350  -36.1270 C   0  0  0  0  0  0
  -22.3100  -16.5340  -35.8450 C   0  0  0  0  0  0
  -23.7530  -16.0530  -35.8710 C   0  0  0  0  0  0
  -24.6190  -16.7850  -35.3500 O   0  0  0  0  0  0
  -24.0300  -14.9550  -36.4020 O   0  0  0  0  0  0
  -21.9130  -16.8010  -39.1440 N   0  0  0  0  0  0
  -21.8520  -17.9880  -39.9770 C   0  0  2  0  0  0
  -21.5850  -17.5970  -41.4260 C   0  0  0  0  0  0
  -20.6530  -18.1110  -42.0420 O   0  0  0  0  0  0
  -23.1340  -18.8360  -39.8550 C   0  0  0  0  0  0
  -23.0990  -20.0210  -40.8140 C   0  0  0  0  0  0
  -23.3060  -19.3190  -38.4230 C   0  0  0  0  0  0
  -22.3830  -16.6770  -41.9610 N   0  0  0  0  0  0
  -22.2910  -16.3280  -43.3820 C   0  0  2  0  0  0
  -21.0320  -15.5380  -43.7390 C   0  0  0  0  0  0
  -20.5600  -15.5930  -44.8750 O   0  0  0  0  0  0
  -23.5400  -15.5790  -43.8510 C   0  0  0  0  0  0
  -23.6030  -14.2760  -43.2940 O   0  0  0  0  0  0
  -20.5040  -14.7960  -42.7690 N   0  0  0  0  0  0
  -19.2740  -14.0350  -42.9660 C   0  0  2  0  0  0
  -18.2050  -14.5440  -42.0120 C   0  0  0  0  0  0
  -17.3470  -13.7850  -41.5510 O   0  0  0  0  0  0
  -19.5280  -12.5310  -42.7830 C   0  0  0  0  0  0
  -20.4060  -11.9320  -43.8400 C   0  0  0  0  0  0
  -21.6710  -12.4070  -44.1150 N   0  0  0  0  0  0
  -20.2030  -10.8930  -44.6870 C   0  0  0  0  0  0
  -22.2100  -11.6900  -45.0850 C   0  0  0  0  0  0
  -21.3390  -10.7650  -45.4510 N   0  0  0  0  0  0
  -18.2700  -15.8440  -41.7340 N   0  0  0  0  0  0
  -17.3830  -16.4940  -40.7780 C   0  0  2  0  0  0
  -15.9260  -16.2300  -41.1110 C   0  0  0  0  0  0
  -15.4900  -16.4460  -42.2430 O   0  0  0  0  0  0
  -17.6570  -17.9980  -40.7250 C   0  0  0  0  0  0
  -16.6120  -18.7830  -39.9590 C   0  0  0  0  0  0
  -17.2370  -19.6650  -38.8990 C   0  0  0  0  0  0
  -16.2300  -20.2260  -38.0020 N   0  0  0  0  0  0
  -16.4040  -20.4120  -36.6960 C   0  0  0  0  0  0
  -17.5490  -20.0730  -36.1160 N   0  0  0  0  0  0
  -15.4240  -20.9310  -35.9640 N   0  0  0  0  0  0
  -15.1850  -15.7600  -40.1110 N   0  0  0  0  0  0
  -13.7860  -15.3810  -40.2840 C   0  0  2  0  0  0
  -12.8280  -16.4840  -39.8480 C   0  0  0  0  0  0
  -11.8490  -16.7660  -40.5400 O   0  0  0  0  0  0
  -13.4820  -14.0980  -39.5100 C   0  0  0  0  0  0
  -14.3690  -12.8790  -39.7700 C   0  0  0  0  0  0
  -13.9560  -11.7620  -38.8270 C   0  0  0  0  0  0
  -14.2730  -12.4210  -41.2200 C   0  0  0  0  0  0
  -13.1160  -17.0990  -38.7030 N   0  0  0  0  0  0
  -12.2770  -18.1570  -38.1430 C   0  0  2  0  0  0
  -12.6680  -19.5160  -38.7100 C   0  0  0  0  0  0
  -13.8210  -19.7140  -39.0820 O   0  0  0  0  0  0
  -12.3990  -18.1710  -36.6290 C   0  0  0  0  0  0
  -11.7110  -20.4630  -38.7820 N   0  0  0  0  0  0
  -12.0910  -21.8040  -39.2420 C   0  0  2  0  0  0
  -13.0400  -22.4980  -38.2600 C   0  0  0  0  0  0
  -13.0270  -22.1810  -37.0680 O   0  0  0  0  0  0
  -10.7510  -22.5470  -39.3180 C   0  0  0  0  0  0
   -9.8320  -21.7900  -38.4190 C   0  0  0  0  0  0
  -10.2650  -20.3590  -38.5070 C   0  0  0  0  0  0
  -13.8620  -23.4200  -38.7610 N   0  0  0  0  0  0
  -14.7890  -24.1650  -37.9080 C   0  0  2  0  0  0
  -14.0340  -25.0700  -36.9460 C   0  0  0  0  0  0
  -13.0130  -25.6570  -37.3010 O   0  0  0  0  0  0
  -15.7630  -25.0050  -38.7390 C   0  0  0  0  0  0
  -16.7910  -24.2140  -39.4990 C   0  0  0  0  0  0
  -16.8780  -24.0790  -40.8510 C   0  0  0  0  0  0
  -17.8850  -23.4620  -38.9490 C   0  0  0  0  0  0
  -17.9500  -23.2860  -41.1840 N   0  0  0  0  0  0
  -18.5870  -22.8950  -40.0360 C   0  0  0  0  0  0
  -18.3380  -23.2110  -37.6480 C   0  0  0  0  0  0
  -19.7180  -22.0910  -39.8610 C   0  0  0  0  0  0
  -19.4650  -22.4100  -37.4760 C   0  0  0  0  0  0
  -20.1400  -21.8600  -38.5780 C   0  0  0  0  0  0
  -14.4270  -25.2380  -35.7920 O   0  0  0  0  0  0
  -32.3139  -20.0520  -40.4685 H   0  0  0  0  0  0
  -33.2657  -19.3493  -41.8202 H   0  0  0  0  0  0
  -32.9922  -18.3950  -40.3231 H   0  0  0  0  0  0
  -30.9145  -19.3287  -42.2898 H   0  0  0  0  0  0
  -32.1798  -16.6008  -41.7177 H   0  0  0  0  0  0
  -30.6634  -16.8030  -42.6590 H   0  0  0  0  0  0
  -32.6687  -16.7377  -44.1897 H   0  0  0  0  0  0
  -28.8000  -18.7734  -41.9249 H   0  0  0  0  0  0
  -28.3252  -18.2945  -38.9614 H   0  0  0  0  0  0
  -26.5312  -19.3496  -41.2144 H   0  0  0  0  0  0
  -25.9440  -19.0470  -39.5440 H   0  0  0  0  0  0
  -28.1861  -20.9650  -40.2905 H   0  0  0  0  0  0
  -26.4758  -21.4212  -39.9854 H   0  0  0  0  0  0
  -28.3880  -20.0987  -38.0061 H   0  0  0  0  0  0
  -27.8254  -21.8045  -37.9839 H   0  0  0  0  0  0
  -25.4270  -20.1814  -37.9761 H   0  0  0  0  0  0
  -28.4064  -20.7158  -35.9411 H   0  0  0  0  0  0
  -27.4562  -20.2717  -34.3505 H   0  0  0  0  0  0
  -24.3345  -19.7041  -36.1306 H   0  0  0  0  0  0
  -26.9628  -16.7700  -38.1259 H   0  0  0  0  0  0
  -27.1050  -14.2342  -39.7458 H   0  0  0  0  0  0
  -26.4977  -14.4225  -38.0658 H   0  0  0  0  0  0
  -25.1582  -12.7390  -38.7135 H   0  0  0  0  0  0
  -23.3521  -13.0278  -40.9108 H   0  0  0  0  0  0
  -23.4137  -11.3673  -38.3638 H   0  0  0  0  0  0
  -21.8607  -11.3843  -39.2663 H   0  0  0  0  0  0
  -24.5214  -10.3155  -40.1699 H   0  0  0  0  0  0
  -23.2155   -8.9703  -38.5455 H   0  0  0  0  0  0
  -23.2648   -8.2024  -40.1687 H   0  0  0  0  0  0
  -21.7857   -9.0668  -39.6285 H   0  0  0  0  0  0
  -23.3797  -11.4386  -42.0461 H   0  0  0  0  0  0
  -21.8812  -10.5159  -41.6859 H   0  0  0  0  0  0
  -23.3603   -9.6514  -42.2261 H   0  0  0  0  0  0
  -23.0068  -14.0807  -37.5381 H   0  0  0  0  0  0
  -20.1483  -14.5161  -37.7283 H   0  0  0  0  0  0
  -20.3497  -15.7547  -35.6601 H   0  0  0  0  0  0
  -21.6631  -14.5299  -35.6232 H   0  0  0  0  0  0
  -22.2148  -17.3250  -36.6034 H   0  0  0  0  0  0
  -22.1242  -16.9583  -34.8473 H   0  0  0  0  0  0
  -25.0715  -14.6018  -36.4239 H   0  0  0  0  0  0
  -22.8281  -16.1910  -39.1220 H   0  0  0  0  0  0
  -21.0011  -18.5653  -39.5863 H   0  0  0  0  0  0
  -24.0018  -18.2145  -40.1210 H   0  0  0  0  0  0
  -22.9743  -19.6555  -41.8440 H   0  0  0  0  0  0
  -24.0410  -20.5837  -40.7361 H   0  0  0  0  0  0
  -22.2565  -20.6786  -40.5537 H   0  0  0  0  0  0
  -23.3293  -18.4535  -37.7445 H   0  0  0  0  0  0
  -22.4643  -19.9738  -38.1533 H   0  0  0  0  0  0
  -24.2488  -19.8789  -38.3357 H   0  0  0  0  0  0
  -23.1212  -16.1752  -41.3181 H   0  0  0  0  0  0
  -22.2233  -17.3100  -43.8730 H   0  0  0  0  0  0
  -23.5236  -15.4891  -44.9472 H   0  0  0  0  0  0
  -24.4380  -16.1340  -43.5420 H   0  0  0  0  0  0
  -24.4463  -13.6134  -43.5387 H   0  0  0  0  0  0
  -21.0201  -14.7655  -41.7981 H   0  0  0  0  0  0
  -18.9517  -14.2167  -44.0019 H   0  0  0  0  0  0
  -20.0190  -12.3573  -41.8141 H   0  0  0  0  0  0
  -18.5699  -11.9913  -42.8104 H   0  0  0  0  0  0
  -19.3565  -10.2076  -44.8409 H   0  0  0  0  0  0
  -23.2028  -11.8360  -45.5107 H   0  0  0  0  0  0
  -19.0352  -16.4319  -42.2621 H   0  0  0  0  0  0
  -17.6154  -16.0308  -39.8077 H   0  0  0  0  0  0
  -18.6249  -18.1773  -40.2341 H   0  0  0  0  0  0
  -17.6842  -18.4020  -41.7478 H   0  0  0  0  0  0
  -16.0516  -19.4241  -40.6554 H   0  0  0  0  0  0
  -15.9196  -18.0861  -39.4642 H   0  0  0  0  0  0
  -17.9439  -19.0728  -38.2994 H   0  0  0  0  0  0
  -17.7722  -20.4958  -39.3821 H   0  0  0  0  0  0
  -15.2484  -20.5271  -38.3967 H   0  0  0  0  0  0
  -18.3638  -19.6429  -36.7170 H   0  0  0  0  0  0
  -14.4731  -21.2138  -36.4392 H   0  0  0  0  0  0
  -15.5636  -21.0779  -34.8828 H   0  0  0  0  0  0
  -15.6638  -15.6612  -39.1256 H   0  0  0  0  0  0
  -13.6787  -15.2251  -41.3676 H   0  0  0  0  0  0
  -13.5692  -14.2915  -38.4307 H   0  0  0  0  0  0
  -12.4598  -13.7638  -39.7411 H   0  0  0  0  0  0
  -15.4196  -13.1469  -39.5841 H   0  0  0  0  0  0
  -14.0324  -12.1129  -37.7873 H   0  0  0  0  0  0
  -14.6190  -10.8963  -38.9715 H   0  0  0  0  0  0
  -12.9175  -11.4680  -39.0394 H   0  0  0  0  0  0
  -14.5758  -13.2432  -41.8850 H   0  0  0  0  0  0
  -13.2362  -12.1305  -41.4448 H   0  0  0  0  0  0
  -14.9377  -11.5587  -41.3769 H   0  0  0  0  0  0
  -14.0270  -16.7817  -38.1744 H   0  0  0  0  0  0
  -11.2450  -17.9166  -38.4384 H   0  0  0  0  0  0
  -12.1149  -17.1864  -36.2292 H   0  0  0  0  0  0
  -11.7322  -18.9414  -36.2145 H   0  0  0  0  0  0
  -13.4383  -18.3953  -36.3470 H   0  0  0  0  0  0
  -12.6307  -21.7368  -40.1982 H   0  0  0  0  0  0
  -10.8868  -23.5839  -38.9768 H   0  0  0  0  0  0
  -10.3903  -22.5473  -40.3572 H   0  0  0  0  0  0
   -9.9254  -22.1734  -37.3922 H   0  0  0  0  0  0
   -8.7952  -21.9158  -38.7644 H   0  0  0  0  0  0
   -9.7732  -19.8193  -39.3297 H   0  0  0  0  0  0
  -10.1092  -19.8125  -37.5652 H   0  0  0  0  0  0
  -13.8323  -23.6154  -39.8431 H   0  0  0  0  0  0
  -15.3366  -23.3915  -37.3496 H   0  0  0  0  0  0
  -15.2011  -25.5897  -39.4822 H   0  0  0  0  0  0
  -16.3155  -25.6878  -38.0769 H   0  0  0  0  0  0
  -16.1947  -24.5350  -41.5674 H   0  0  0  0  0  0
  -17.8195  -23.6336  -36.7874 H   0  0  0  0  0  0
  -20.2446  -21.6637  -40.7143 H   0  0  0  0  0  0
  -19.8290  -22.2067  -36.4689 H   0  0  0  0  0  0
  -21.0179  -21.2364  -38.4091 H   0  0  0  0  0  0
  -13.8677  -25.8962  -35.1109 H   0  0  0  0  0  0
  1  2  1  0  0  0
  1108  1  0  0  0
  1109  1  0  0  0
  1110  1  0  0  0
  2  3  1  0  0  0
  2  5  1  0  0  0
  2111  1  0  0  0
  3  4  2  0  0  0
  3  7  1  0  0  0
  5  6  1  0  0  0
  5112  1  0  0  0
  5113  1  0  0  0
  6114  1  0  0  0
  7  8  1  0  0  0
  7115  1  0  0  0
  8  9  1  0  0  0
  8 11  1  0  0  0
  8116  1  0  0  0
  9 10  2  0  0  0
  9 18  1  0  0  0
 11 12  1  0  0  0
 11117  1  0  0  0
 11118  1  0  0  0
 12 13  1  0  0  0
 12119  1  0  0  0
 12120  1  0  0  0
 13 14  1  0  0  0
 13121  1  0  0  0
 13122  1  0  0  0
 14 15  1  0  0  0
 14123  1  0  0  0
 15 16  1  0  0  0
 15 17  2  0  0  0
 16124  1  0  0  0
 16125  1  0  0  0
 17126  1  0  0  0
 18 19  1  0  0  0
 18127  1  0  0  0
 19 20  1  0  0  0
 19128  1  0  0  0
 19129  1  0  0  0
 20 21  2  0  0  0
 20 22  1  0  0  0
 22 23  1  0  0  0
 22130  1  0  0  0
 23 24  1  0  0  0
 23 26  1  0  0  0
 23131  1  0  0  0
 24 25  2  0  0  0
 24 30  1  0  0  0
 26 27  1  0  0  0
 26132  1  0  0  0
 26133  1  0  0  0
 27 28  1  0  0  0
 27 29  1  0  0  0
 27134  1  0  0  0
 28135  1  0  0  0
 28136  1  0  0  0
 28137  1  0  0  0
 29138  1  0  0  0
 29139  1  0  0  0
 29140  1  0  0  0
 30 31  1  0  0  0
 30141  1  0  0  0
 31 32  1  0  0  0
 31 34  1  0  0  0
 31142  1  0  0  0
 32 33  2  0  0  0
 32 39  1  0  0  0
 34 35  1  0  0  0
 34143  1  0  0  0
 34144  1  0  0  0
 35 36  1  0  0  0
 35145  1  0  0  0
 35146  1  0  0  0
 36 37  2  0  0  0
 36 38  1  0  0  0
 38147  1  0  0  0
 39 40  1  0  0  0
 39148  1  0  0  0
 40 41  1  0  0  0
 40 43  1  0  0  0
 40149  1  0  0  0
 41 42  2  0  0  0
 41 46  1  0  0  0
 43 44  1  0  0  0
 43 45  1  0  0  0
 43150  1  0  0  0
 44151  1  0  0  0
 44152  1  0  0  0
 44153  1  0  0  0
 45154  1  0  0  0
 45155  1  0  0  0
 45156  1  0  0  0
 46 47  1  0  0  0
 46157  1  0  0  0
 47 48  1  0  0  0
 47 50  1  0  0  0
 47158  1  0  0  0
 48 49  2  0  0  0
 48 52  1  0  0  0
 50 51  1  0  0  0
 50159  1  0  0  0
 50160  1  0  0  0
 51161  1  0  0  0
 52 53  1  0  0  0
 52162  1  0  0  0
 53 54  1  0  0  0
 53 56  1  0  0  0
 53163  1  0  0  0
 54 55  2  0  0  0
 54 62  1  0  0  0
 56 57  1  0  0  0
 56164  1  0  0  0
 56165  1  0  0  0
 57 58  2  0  0  0
 57 59  1  0  0  0
 58 60  1  0  0  0
 59 61  2  0  0  0
 59166  1  0  0  0
 60 61  1  0  0  0
 60167  1  0  0  0
 62 63  1  0  0  0
 62168  1  0  0  0
 63 64  1  0  0  0
 63 66  1  0  0  0
 63169  1  0  0  0
 64 65  2  0  0  0
 64 73  1  0  0  0
 66 67  1  0  0  0
 66170  1  0  0  0
 66171  1  0  0  0
 67 68  1  0  0  0
 67172  1  0  0  0
 67173  1  0  0  0
 68 69  1  0  0  0
 68174  1  0  0  0
 68175  1  0  0  0
 69 70  1  0  0  0
 69176  1  0  0  0
 70 71  2  0  0  0
 70 72  1  0  0  0
 71177  1  0  0  0
 72178  1  0  0  0
 72179  1  0  0  0
 73 74  1  0  0  0
 73180  1  0  0  0
 74 75  1  0  0  0
 74 77  1  0  0  0
 74181  1  0  0  0
 75 76  2  0  0  0
 75 81  1  0  0  0
 77 78  1  0  0  0
 77182  1  0  0  0
 77183  1  0  0  0
 78 79  1  0  0  0
 78 80  1  0  0  0
 78184  1  0  0  0
 79185  1  0  0  0
 79186  1  0  0  0
 79187  1  0  0  0
 80188  1  0  0  0
 80189  1  0  0  0
 80190  1  0  0  0
 81 82  1  0  0  0
 81191  1  0  0  0
 82 83  1  0  0  0
 82 85  1  0  0  0
 82192  1  0  0  0
 83 84  2  0  0  0
 83 86  1  0  0  0
 85193  1  0  0  0
 85194  1  0  0  0
 85195  1  0  0  0
 86 87  1  0  0  0
 86 92  1  0  0  0
 87 88  1  0  0  0
 87 90  1  0  0  0
 87196  1  0  0  0
 88 89  2  0  0  0
 88 93  1  0  0  0
 90 91  1  0  0  0
 90197  1  0  0  0
 90198  1  0  0  0
 91 92  1  0  0  0
 91199  1  0  0  0
 91200  1  0  0  0
 92201  1  0  0  0
 92202  1  0  0  0
 93 94  1  0  0  0
 93203  1  0  0  0
 94 95  1  0  0  0
 94 97  1  0  0  0
 94204  1  0  0  0
 95 96  2  0  0  0
 95107  1  0  0  0
 97 98  1  0  0  0
 97205  1  0  0  0
 97206  1  0  0  0
 98 99  2  0  0  0
 98100  1  0  0  0
 99101  1  0  0  0
 99207  1  0  0  0
100102  2  0  0  0
100103  1  0  0  0
101102  1  0  0  0
102104  1  0  0  0
103105  2  0  0  0
103208  1  0  0  0
104106  2  0  0  0
104209  1  0  0  0
105106  1  0  0  0
105210  1  0  0  0
106211  1  0  0  0
107212  1  0  0  0
M  CHG  1   1   1
M  END
> <s_m_source_file>
../4m7c_ligand.sdf

> <i_m_source_file_index>
1

> <s_epik_input>
W0hdL049QyhbTkgyXSlcW05IXVtDSDJdW0NIMl1bQ0gyXVtDQEhdKFtOSF1DKD1PKVtDQEBIXShbTkgzK10pW0NIMl1bT0hdKUMoPU8pW05IXVtDSDJdQyg9TylbTkhdW0NAQEhdKFtDSDJdW0NIXShbQ0gzXSlbQ0gzXSlDKD1PKVtOSF1bQ0BASF0oW0NIMl1bQ0gyXUMoPU8pW09IXSlDKD1PKVtOSF1bQ0BASF0oW0NIXShbQ0gzXSlbQ0gzXSlDKD1PKVtOSF1bQ0BASF0oW0NIMl1bT0hdKUMoPU8pW05IXVtDQEBIXShbQ0gyXUMxPU5bQ0gyXU49W0NIXTEpQyg9TylbTkhdW0NAQEhdKFtDSDJdW0NIMl1bQ0gyXVtOSF0vQyg9TlxbSF0pW05IMl0pQyg9TylbTkhdW0NAQEhdKFtDSDJdW0NIXShbQ0gzXSlbQ0gzXSlDKD1PKVtOSF1bQ0BASF0oW0NIM10pQyg9TylOMltDQEBIXShbQ0gyXVtDSDJdW0NIMl0yKUMoPU8pW05IXVtDQEhdKEMoPU8pW09IXSlbQ0gyXWMzW2NIXVtuSF1jKGMzNClbY0hdW2NIXVtjSF1bY0hdNA==

> <s_epik_cmdline>
J2VwaWtfYXBwJywgJy1pbWFlJywgJ2xpZ2FuZF9wcm8ubWFlJywgJy1vbWFlJywgJ2xpZ2FuZF9wcmVwLm1hZScsICctbXMnLCAnMScsICctcGgnLCAnNycsICctcGh0JywgJzAuNScsICctbnQn

> <s_epik_pKa_notes>
Molecule size exceeds maximum supported for generating protonation states

> <s_epik_Chemistry_Notes>
This compound has an imine and may undergo hydrolysis.

$$$$
