4m7j_ligand
                    3D
 Schrodinger Suite 2020-3.
 88 90  0  0  1  0            999 V2000
    0.3160   44.5900  -17.2110 C   0  0  0  0  0  0
    0.2270   45.5790  -16.4390 O   0  5  0  0  0  0
    1.1680   43.6740  -17.1190 O   0  0  0  0  0  0
   -0.7630   44.4400  -18.3220 C   0  0  1  0  0  0
   -1.7200   43.2990  -17.9070 C   0  0  0  0  0  0
   -2.9310   43.2490  -18.8160 C   0  0  1  0  0  0
   -3.8930   42.2380  -18.3570 O   0  0  0  0  0  0
   -3.5870   44.6030  -18.8250 C   0  0  1  0  0  0
   -3.9270   44.9900  -17.4940 O   0  0  0  0  0  0
   -2.5780   45.6460  -19.3620 C   0  0  2  0  0  0
   -1.4630   45.6770  -18.4600 O   0  0  0  0  0  0
   -3.2180   47.0450  -19.4000 C   0  0  2  0  0  0
   -4.3060   47.0680  -20.3410 O   0  0  0  0  0  0
   -2.1830   48.0950  -19.7970 C   0  0  0  0  0  0
   -2.9050   49.3460  -19.7010 O   0  0  0  0  0  0
   -0.1820   44.0840  -19.5780 O   0  0  0  0  0  0
    0.6740   45.0690  -20.1760 C   0  0  0  0  0  0
    2.1240   44.7130  -19.8740 C   0  0  0  0  0  0
    2.9430   45.6470  -19.4020 C   0  0  0  0  0  0
   -4.5590   41.7050  -20.6390 C   0  0  0  0  0  0
   -5.4460   42.5940  -20.6780 O   0  5  0  0  0  0
   -3.9360   41.2480  -21.6150 O   0  0  0  0  0  0
   -4.1400   41.1480  -19.2540 C   0  0  2  0  0  0
   -5.3110   40.3040  -18.7150 C   0  0  0  0  0  0
   -4.9230   39.5100  -17.4540 C   0  0  1  0  0  0
   -6.0110   38.6720  -17.0130 O   0  0  0  0  0  0
   -3.6790   38.6780  -17.7010 C   0  0  1  0  0  0
   -3.9200   37.6190  -18.6310 O   0  0  0  0  0  0
   -2.5550   39.6240  -18.2090 C   0  0  2  0  0  0
   -2.9490   40.2780  -19.4260 O   0  0  0  0  0  0
   -1.2330   38.9270  -18.5610 C   0  0  2  0  0  0
   -1.3330   38.2810  -19.8230 O   0  0  0  0  0  0
   -0.7860   37.9220  -17.5310 C   0  0  0  0  0  0
    0.6160   37.7460  -17.7010 O   0  0  0  0  0  0
    0.7290   36.2000  -15.8280 C   0  0  0  0  0  0
    1.0450   37.0990  -15.0030 O   0  5  0  0  0  0
    0.2010   35.0970  -15.5370 O   0  0  0  0  0  0
    1.0920   36.4480  -17.3100 C   0  0  2  0  0  0
    2.6010   36.4420  -17.4010 C   0  0  0  0  0  0
    3.0430   36.5700  -18.8440 C   0  0  1  0  0  0
    4.5240   36.4880  -18.8960 O   0  0  0  0  0  0
    2.4280   35.4450  -19.6800 C   0  0  1  0  0  0
    2.9480   34.2040  -19.2270 O   0  0  0  0  0  0
    0.9260   35.5240  -19.5570 C   0  0  2  0  0  0
    0.5440   35.4120  -18.1560 O   0  0  0  0  0  0
    0.1330   34.5000  -20.4380 C   0  0  2  0  0  0
    0.8700   34.0730  -21.5660 O   0  0  0  0  0  0
   -1.0570   35.1930  -21.0540 C   0  0  0  0  0  0
   -1.9900   35.2440  -20.0580 O   0  0  0  0  0  0
   -1.1917   42.3362  -17.9698 H   0  0  0  0  0  0
   -2.0607   43.4636  -16.8741 H   0  0  0  0  0  0
   -2.6269   42.9553  -19.8315 H   0  0  0  0  0  0
   -4.5266   44.5491  -19.3944 H   0  0  0  0  0  0
   -4.6380   44.3867  -16.9105 H   0  0  0  0  0  0
   -2.1987   45.3711  -20.3572 H   0  0  0  0  0  0
   -3.6593   47.2901  -18.4227 H   0  0  0  0  0  0
   -5.1532   46.3771  -20.2192 H   0  0  0  0  0  0
   -1.3316   48.0518  -19.1018 H   0  0  0  0  0  0
   -1.8316   47.8950  -20.8200 H   0  0  0  0  0  0
   -2.3974   50.2934  -19.9352 H   0  0  0  0  0  0
    0.5136   45.0820  -21.2642 H   0  0  0  0  0  0
    0.4402   46.0597  -19.7590 H   0  0  0  0  0  0
    2.4946   43.6914  -20.0439 H   0  0  0  0  0  0
    2.5724   46.6686  -19.2321 H   0  0  0  0  0  0
    3.9916   45.3985  -19.1812 H   0  0  0  0  0  0
   -6.1515   40.9653  -18.4574 H   0  0  0  0  0  0
   -5.6313   39.5870  -19.4853 H   0  0  0  0  0  0
   -4.7407   40.1983  -16.6156 H   0  0  0  0  0  0
   -6.9916   39.1168  -16.7880 H   0  0  0  0  0  0
   -3.4027   38.1277  -16.7895 H   0  0  0  0  0  0
   -4.6891   36.8625  -18.4159 H   0  0  0  0  0  0
   -2.4077   40.3673  -17.4116 H   0  0  0  0  0  0
   -0.4498   39.6933  -18.6574 H   0  0  0  0  0  0
   -1.6475   38.8514  -20.7095 H   0  0  0  0  0  0
   -1.0101   38.3044  -16.5242 H   0  0  0  0  0  0
   -1.3186   36.9727  -17.6896 H   0  0  0  0  0  0
    3.0064   37.2874  -16.8257 H   0  0  0  0  0  0
    2.9894   35.4987  -16.9895 H   0  0  0  0  0  0
    2.7334   37.5447  -19.2492 H   0  0  0  0  0  0
    5.1350   37.2216  -18.3496 H   0  0  0  0  0  0
    2.7046   35.4729  -20.7443 H   0  0  0  0  0  0
    4.0312   34.0158  -19.2621 H   0  0  0  0  0  0
    0.6534   36.5370  -19.8880 H   0  0  0  0  0  0
   -0.1024   33.6069  -19.8405 H   0  0  0  0  0  0
    1.8136   33.5240  -21.4309 H   0  0  0  0  0  0
   -0.7632   36.1993  -21.3874 H   0  0  0  0  0  0
   -1.4145   34.6109  -21.9162 H   0  0  0  0  0  0
   -2.9696   35.7080  -20.2453 H   0  0  0  0  0  0
  1  2  1  0  0  0
  1  3  2  0  0  0
  1  4  1  0  0  0
  4  5  1  0  0  0
  4 11  1  0  0  0
  4 16  1  0  0  0
  5  6  1  0  0  0
  5 50  1  0  0  0
  5 51  1  0  0  0
  6  7  1  0  0  0
  6  8  1  0  0  0
  6 52  1  0  0  0
  7 23  1  0  0  0
  8  9  1  0  0  0
  8 10  1  0  0  0
  8 53  1  0  0  0
  9 54  1  0  0  0
 10 11  1  0  0  0
 10 12  1  0  0  0
 10 55  1  0  0  0
 12 13  1  0  0  0
 12 14  1  0  0  0
 12 56  1  0  0  0
 13 57  1  0  0  0
 14 15  1  0  0  0
 14 58  1  0  0  0
 14 59  1  0  0  0
 15 60  1  0  0  0
 16 17  1  0  0  0
 17 18  1  0  0  0
 17 61  1  0  0  0
 17 62  1  0  0  0
 18 19  2  0  0  0
 18 63  1  0  0  0
 19 64  1  0  0  0
 19 65  1  0  0  0
 20 21  1  0  0  0
 20 22  2  0  0  0
 20 23  1  0  0  0
 23 24  1  0  0  0
 23 30  1  0  0  0
 24 25  1  0  0  0
 24 66  1  0  0  0
 24 67  1  0  0  0
 25 26  1  0  0  0
 25 27  1  0  0  0
 25 68  1  0  0  0
 26 69  1  0  0  0
 27 28  1  0  0  0
 27 29  1  0  0  0
 27 70  1  0  0  0
 28 71  1  0  0  0
 29 30  1  0  0  0
 29 31  1  0  0  0
 29 72  1  0  0  0
 31 32  1  0  0  0
 31 33  1  0  0  0
 31 73  1  0  0  0
 32 74  1  0  0  0
 33 34  1  0  0  0
 33 75  1  0  0  0
 33 76  1  0  0  0
 34 38  1  0  0  0
 35 36  1  0  0  0
 35 37  2  0  0  0
 35 38  1  0  0  0
 38 39  1  0  0  0
 38 45  1  0  0  0
 39 40  1  0  0  0
 39 77  1  0  0  0
 39 78  1  0  0  0
 40 41  1  0  0  0
 40 42  1  0  0  0
 40 79  1  0  0  0
 41 80  1  0  0  0
 42 43  1  0  0  0
 42 44  1  0  0  0
 42 81  1  0  0  0
 43 82  1  0  0  0
 44 45  1  0  0  0
 44 46  1  0  0  0
 44 83  1  0  0  0
 46 47  1  0  0  0
 46 48  1  0  0  0
 46 84  1  0  0  0
 47 85  1  0  0  0
 48 49  1  0  0  0
 48 86  1  0  0  0
 48 87  1  0  0  0
 49 88  1  0  0  0
M  CHG  3   2  -1  21  -1  36  -1
M  END
> <s_m_source_file>
../4m7j_ligand.sdf

> <i_m_source_file_index>
1

> <s_epik_input>
W0NIMl09W0NIXVtDSDJdT1tDQF0xKEMoPU8pW09IXSlbQ0gyXVtDQEhdKFtDQEBIXShbT0hdKVtDQEhdKE8xKVtDQEhdKFtPSF0pW0NIMl1bT0hdKU9bQ0BdMihDKD1PKVtPSF0pW0NIMl1bQ0BASF0oW09IXSlbQ0BASF0oW09IXSlbQ0BIXShPMilbQ0BIXShbT0hdKVtDSDJdT1tDQF0zKEMoPU8pW09IXSlbQ0gyXVtDQEBIXShbT0hdKVtDQEBIXShbT0hdKVtDQEhdKE8zKVtDQEhdKFtPSF0pW0NIMl1bT0hd

> <s_epik_cmdline>
J2VwaWtfYXBwJywgJy1pbWFlJywgJ2xpZ2FuZF9wcm8ubWFlJywgJy1vbWFlJywgJ2xpZ2FuZF9wcmVwLm1hZScsICctbXMnLCAnMScsICctcGgnLCAnNycsICctcGh0JywgJzAuNScsICctbnQn

> <r_lp_tautomer_probability>
1

> <r_epik_Ionization_Penalty>
  0.0001

> <r_epik_Ionization_Penalty_Charging>
  0.0001

> <r_epik_Ionization_Penalty_Neutral>
  0.0000

> <r_epik_State_Penalty>
 -0.0000

> <r_epik_Charging_Adjusted_Penalty>
6.9339823244062e-05

> <i_epik_Tot_Q>
-3

> <i_epik_Tot_abs_Q>
3

$$$$
