4m84_ligand
                    3D
 Schrodinger Suite 2020-3.
 42 44  0  0  1  0            999 V2000
   17.4570   16.2750   62.9320 C   0  0  0  0  0  0
   16.1470   16.4060   63.3790 C   0  0  0  0  0  0
   15.7140   15.6260   64.4370 C   0  0  0  0  0  0
   14.4160   15.7150   64.9160 C   0  0  0  0  0  0
   14.0250   14.9290   65.9880 C   0  0  0  0  0  0
   14.9020   14.0320   66.5820 C   0  0  0  0  0  0
   16.2000   13.9380   66.1090 C   0  0  0  0  0  0
   16.6140   14.7400   65.0390 C   0  0  0  0  0  0
   17.8760   14.6510   64.5730 N   0  0  0  0  0  0
   18.3280   15.3670   63.5370 C   0  0  0  0  0  0
   19.6110   15.2560   63.1320 C   0  0  0  0  0  0
   20.3140   16.3540   62.7790 N   0  0  0  0  0  0
   21.4830   16.0370   62.4470 N   0  0  0  0  0  0
   22.5370   17.0590   62.0130 C   0  0  0  0  0  0
   23.3470   16.5370   60.8060 C   0  0  0  0  0  0
   21.9160   18.4270   61.6370 C   0  0  0  0  0  0
   23.4730   17.2900   63.2060 C   0  0  0  0  0  0
   21.6000   14.6930   62.5950 C   0  0  0  0  0  0
   22.7300   14.0230   62.3290 N   0  0  0  0  0  0
   20.4320   14.1810   63.0210 C   0  0  0  0  0  0
   20.2630   12.8430   63.2410 C   0  0  0  0  0  0
   21.1660   12.0410   62.9930 O   0  0  0  0  0  0
   19.1020   12.3890   63.7250 N   0  0  0  0  0  0
   17.8074   16.8872   62.1010 H   0  0  0  0  0  0
   15.4695   17.1142   62.9021 H   0  0  0  0  0  0
   13.7066   16.3999   64.4516 H   0  0  0  0  0  0
   13.0088   15.0168   66.3724 H   0  0  0  0  0  0
   14.5722   13.4078   67.4125 H   0  0  0  0  0  0
   16.8990   13.2399   66.5696 H   0  0  0  0  0  0
   22.6709   16.3733   59.9539 H   0  0  0  0  0  0
   23.8349   15.5884   61.0745 H   0  0  0  0  0  0
   24.1121   17.2776   60.5300 H   0  0  0  0  0  0
   21.2365   18.2985   60.7816 H   0  0  0  0  0  0
   22.7166   19.1312   61.3667 H   0  0  0  0  0  0
   21.3538   18.8229   62.4956 H   0  0  0  0  0  0
   23.9334   16.3355   63.5010 H   0  0  0  0  0  0
   22.8970   17.6959   64.0507 H   0  0  0  0  0  0
   24.2598   18.0042   62.9218 H   0  0  0  0  0  0
   23.6228   14.5653   61.9844 H   0  0  0  0  0  0
   22.7645   12.9308   62.4553 H   0  0  0  0  0  0
   18.2874   13.0929   63.9509 H   0  0  0  0  0  0
   18.9616   11.3117   63.8972 H   0  0  0  0  0  0
  1  2  2  0  0  0
  1 10  1  0  0  0
  1 24  1  0  0  0
  2  3  1  0  0  0
  2 25  1  0  0  0
  3  4  2  0  0  0
  3  8  1  0  0  0
  4  5  1  0  0  0
  4 26  1  0  0  0
  5  6  2  0  0  0
  5 27  1  0  0  0
  6  7  1  0  0  0
  6 28  1  0  0  0
  7  8  2  0  0  0
  7 29  1  0  0  0
  8  9  1  0  0  0
  9 10  2  0  0  0
 10 11  1  0  0  0
 11 12  2  0  0  0
 11 20  1  0  0  0
 12 13  1  0  0  0
 13 14  1  0  0  0
 13 18  1  0  0  0
 14 15  1  0  0  0
 14 16  1  0  0  0
 14 17  1  0  0  0
 15 30  1  0  0  0
 15 31  1  0  0  0
 15 32  1  0  0  0
 16 33  1  0  0  0
 16 34  1  0  0  0
 16 35  1  0  0  0
 17 36  1  0  0  0
 17 37  1  0  0  0
 17 38  1  0  0  0
 18 19  1  0  0  0
 18 20  2  0  0  0
 19 39  1  0  0  0
 19 40  1  0  0  0
 20 21  1  0  0  0
 21 22  2  0  0  0
 21 23  1  0  0  0
 23 41  1  0  0  0
 23 42  1  0  0  0
M  END
> <s_m_source_file>
../4m84_ligand.sdf

> <i_m_source_file_index>
1

> <s_epik_input>
W2NIXTFbY0hdW2NIXVtjSF1jKGMxMiluYyhbY0hdW2NIXTIpLWMzbm4oQyhbQ0gzXSkoW0NIM10pW0NIM10pYyhbTkgyXSljM0MoPU8pW05IMl0=

> <s_epik_cmdline>
J2VwaWtfYXBwJywgJy1pbWFlJywgJ2xpZ2FuZF9wcm8ubWFlJywgJy1vbWFlJywgJ2xpZ2FuZF9wcmVwLm1hZScsICctbXMnLCAnMScsICctcGgnLCAnNycsICctcGh0JywgJzAuNScsICctbnQn

> <r_lp_tautomer_probability>
1

> <r_epik_Ionization_Penalty>
  0.0023

> <r_epik_Ionization_Penalty_Charging>
  0.0000

> <r_epik_Ionization_Penalty_Neutral>
  0.0023

> <r_epik_State_Penalty>
 -0.0000

> <r_epik_Charging_Adjusted_Penalty>
0

> <i_epik_Tot_Q>
0

> <i_epik_Tot_abs_Q>
0

$$$$
