4m8t_ligand
                    3D
 Schrodinger Suite 2020-3.
 30 31  0  0  1  0            999 V2000
  -25.5600   11.4310  -22.4360 N   0  0  0  0  0  0
  -26.2150   10.7880  -21.7540 C   0  0  0  0  0  0
  -27.0810    9.9510  -20.8740 C   0  0  1  0  0  0
  -26.4430    9.8260  -19.5340 C   0  0  0  0  0  0
  -25.7470    8.6260  -19.1810 N   0  0  0  0  0  0
  -26.5140   10.7560  -18.7430 O   0  0  0  0  0  0
  -28.4240   10.5880  -20.7210 C   0  0  0  0  0  0
  -29.0050   11.5450  -21.7070 C   0  0  0  0  0  0
  -28.6860   11.4610  -23.0310 C   0  0  0  0  0  0
  -29.2750   12.4250  -24.0020 C   0  0  0  0  0  0
  -30.1350   13.3880  -23.5650 C   0  0  0  0  0  0
  -30.4840   13.4790  -22.1180 C   0  0  0  0  0  0
  -31.4340   14.5190  -21.6310 C   0  0  0  0  0  0
  -31.5320   14.9780  -20.3490 C   0  0  0  0  0  0
  -32.5480   15.9280  -20.3240 N   0  3  0  0  0  0
  -33.0650   16.0440  -21.5660 N   0  0  0  0  0  0
  -32.4030   15.1790  -22.4150 C   0  0  0  0  0  0
  -29.9490   12.5940  -21.2310 C   0  0  0  0  0  0
  -27.1998    8.9554  -21.3264 H   0  0  0  0  0  0
  -25.6873    7.7937  -19.8977 H   0  0  0  0  0  0
  -25.2718    8.5362  -18.1930 H   0  0  0  0  0  0
  -29.1976    9.8071  -20.6792 H   0  0  0  0  0  0
  -28.4469   11.1768  -19.7921 H   0  0  0  0  0  0
  -28.0000   10.6884  -23.3782 H   0  0  0  0  0  0
  -29.0189   12.3604  -25.0595 H   0  0  0  0  0  0
  -30.5684   14.0929  -24.2745 H   0  0  0  0  0  0
  -30.8639   14.5815  -19.5703 H   0  0  0  0  0  0
  -32.6877   15.1245  -23.4761 H   0  0  0  0  0  0
  -30.2114   12.6536  -20.1747 H   0  0  0  0  0  0
  -32.9483   16.5400  -19.5023 H   0  0  0  0  0  0
  1  2  3  0  0  0
  2  3  1  0  0  0
  3  4  1  0  0  0
  3  7  1  0  0  0
  3 19  1  0  0  0
  4  5  1  0  0  0
  4  6  2  0  0  0
  5 20  1  0  0  0
  5 21  1  0  0  0
  7  8  1  0  0  0
  7 22  1  0  0  0
  7 23  1  0  0  0
  8  9  2  0  0  0
  8 18  1  0  0  0
  9 10  1  0  0  0
  9 24  1  0  0  0
 10 11  2  0  0  0
 10 25  1  0  0  0
 11 12  1  0  0  0
 11 26  1  0  0  0
 12 13  1  0  0  0
 12 18  2  0  0  0
 13 14  2  0  0  0
 13 17  1  0  0  0
 14 15  1  0  0  0
 14 27  1  0  0  0
 15 16  1  0  0  0
 15 30  1  0  0  0
 16 17  2  0  0  0
 17 28  1  0  0  0
 18 29  1  0  0  0
M  CHG  1  15   1
M  END
> <s_m_source_file>
../4m8t_ligand.sdf

> <i_m_source_file_index>
1

> <s_epik_input>
TiNDW0NAQEhdKEMoPU8pW05IMl0pW0NIMl1jMVtjSF1bY0hdW2NIXWMoW2NIXTEpLWMyW2NIXVtuSF1uW2NIXTI=

> <s_epik_cmdline>
J2VwaWtfYXBwJywgJy1pbWFlJywgJ2xpZ2FuZF9wcm8ubWFlJywgJy1vbWFlJywgJ2xpZ2FuZF9wcmVwLm1hZScsICctbXMnLCAnMScsICctcGgnLCAnNycsICctcGh0JywgJzAuNScsICctbnQn

> <r_epik_Ionization_Penalty>
  0.0000

> <r_epik_Ionization_Penalty_Charging>
  0.0000

> <r_epik_Ionization_Penalty_Neutral>
  0.0000

> <r_epik_State_Penalty>
  0.4107

> <r_epik_Charging_Adjusted_Penalty>
0.410679838952604

> <i_epik_Tot_Q>
1

> <i_epik_Tot_abs_Q>
1

> <s_epik_Chemistry_Notes>
This compound has an imine and may undergo hydrolysis.

$$$$
