4m8x_ligand
                    3D
 Schrodinger Suite 2020-3.
 98101  0  0  1  0            999 V2000
  -11.8560   52.4580    2.3110 N   0  0  0  0  0  0
  -13.6770   51.0180   -1.3990 C   0  0  1  0  0  0
  -14.8720   47.1440    2.0770 O   0  0  0  0  0  0
  -11.9460   52.5510    3.8020 C   0  0  1  0  0  0
  -11.5400   51.1580    4.3600 C   0  0  0  0  0  0
  -12.4270   50.0510    3.7580 C   0  0  0  0  0  0
  -11.8690   48.9900    3.0260 C   0  0  0  0  0  0
  -12.6790   48.0050    2.4670 C   0  0  0  0  0  0
  -14.0620   48.0880    2.6330 C   0  0  0  0  0  0
  -15.8510   47.8390    1.2980 C   0  0  0  0  0  0
  -16.7000   46.6300    0.2050 P   0  0  0  0  0  0
  -18.3270   46.8040    0.2770 O   0  0  0  0  0  0
  -19.2180   46.0680    1.1400 C   0  0  0  0  0  0
  -20.0970   47.0590    1.9530 C   0  0  0  0  0  0
  -16.2170   47.1060   -1.2700 O   0  0  0  0  0  0
  -16.0840   45.1440    0.4050 O   0  0  0  0  0  0
  -14.8430   44.8110   -0.2450 C   0  0  0  0  0  0
  -14.5700   43.3070   -0.1260 C   0  0  0  0  0  0
  -14.6230   49.1480    3.3460 C   0  0  0  0  0  0
  -13.8080   50.1210    3.9220 C   0  0  0  0  0  0
  -10.9190   53.5740    4.2660 C   0  0  2  0  0  0
   -9.6880   52.8540    4.2210 O   0  0  0  0  0  0
  -11.1290   54.1590    5.6940 C   0  0  0  0  0  0
  -12.3620   54.9880    5.8710 N   0  0  1  0  0  0
  -12.8770   55.4390    4.5510 C   0  0  0  0  0  0
  -12.6640   56.9360    4.3050 C   0  0  0  0  0  0
  -11.1730   57.2400    4.1880 C   0  0  0  0  0  0
  -13.3080   57.7640    5.4160 C   0  0  0  0  0  0
  -13.5380   54.1110    6.7670 S   0  0  0  0  0  0
  -14.9370   54.4790    6.3460 O   0  0  0  0  0  0
  -13.3500   52.6050    6.6820 O   0  0  0  0  0  0
  -13.3090   54.4190    8.5190 C   0  0  0  0  0  0
  -12.3940   53.6360    9.2430 C   0  0  0  0  0  0
  -12.1990   53.8870   10.6000 C   0  0  0  0  0  0
  -12.9280   54.9050   11.2370 C   0  0  0  0  0  0
  -12.7680   55.1630   12.5720 O   0  0  0  0  0  0
  -12.9760   56.5490   12.8540 C   0  0  0  0  0  0
  -13.8340   55.6670   10.5190 C   0  0  0  0  0  0
  -14.0270   55.4290    9.1580 C   0  0  0  0  0  0
  -12.7530   52.8580    1.3860 C   0  0  0  0  0  0
  -13.8750   53.3640    1.5960 O   0  0  0  0  0  0
  -12.3540   52.6030    0.0880 O   0  0  0  0  0  0
  -13.4380   52.4530   -0.8740 C   0  0  1  0  0  0
  -12.9470   53.1280   -2.1360 C   0  0  0  0  0  0
  -12.0450   52.1520   -2.7240 O   0  0  0  0  0  0
  -12.5930   50.8150   -2.4570 C   0  0  1  0  0  0
  -11.5900   49.9510   -1.8310 O   0  0  0  0  0  0
  -12.2750   49.0990   -0.8820 C   0  0  0  0  0  0
  -13.4500   49.9020   -0.3650 C   0  0  0  0  0  0
  -10.9660   52.0148    1.8403 H   0  0  0  0  0  0
  -14.7210   50.9399   -1.7365 H   0  0  0  0  0  0
  -12.9555   52.8579    4.1129 H   0  0  0  0  0  0
  -10.4905   50.9518    4.1031 H   0  0  0  0  0  0
  -11.6577   51.1526    5.4537 H   0  0  0  0  0  0
  -10.7883   48.9371    2.8939 H   0  0  0  0  0  0
  -12.2386   47.1800    1.9071 H   0  0  0  0  0  0
  -16.5822   48.3150    1.9679 H   0  0  0  0  0  0
  -15.3555   48.6096    0.6892 H   0  0  0  0  0  0
  -19.8662   45.4205    0.5313 H   0  0  0  0  0  0
  -18.6291   45.4495    1.8334 H   0  0  0  0  0  0
  -20.7749   46.4940    2.6097 H   0  0  0  0  0  0
  -20.6876   47.6776    1.2613 H   0  0  0  0  0  0
  -19.4505   47.7067    2.5634 H   0  0  0  0  0  0
  -14.9019   45.0832   -1.3092 H   0  0  0  0  0  0
  -14.0200   45.3650    0.2301 H   0  0  0  0  0  0
  -13.6203   43.0661   -0.6260 H   0  0  0  0  0  0
  -15.3879   42.7470   -0.6030 H   0  0  0  0  0  0
  -14.5060   43.0289    0.9363 H   0  0  0  0  0  0
  -15.7056   49.2156    3.4533 H   0  0  0  0  0  0
  -14.2500   50.9336    4.4986 H   0  0  0  0  0  0
  -10.9145   54.4356    3.5822 H   0  0  0  0  0  0
   -9.3692   52.3675    3.2874 H   0  0  0  0  0  0
  -11.1994   53.3361    6.4206 H   0  0  0  0  0  0
  -10.2782   54.8059    5.9540 H   0  0  0  0  0  0
  -12.3597   54.8918    3.7492 H   0  0  0  0  0  0
  -13.9574   55.2412    4.4919 H   0  0  0  0  0  0
  -13.1484   57.2149    3.3576 H   0  0  0  0  0  0
  -10.7368   56.6311    3.3824 H   0  0  0  0  0  0
  -10.6744   57.0013    5.1390 H   0  0  0  0  0  0
  -11.0332   58.3066    3.9583 H   0  0  0  0  0  0
  -14.3799   57.5247    5.4772 H   0  0  0  0  0  0
  -13.1832   58.8343    5.1949 H   0  0  0  0  0  0
  -12.8244   57.5290    6.3757 H   0  0  0  0  0  0
  -11.8409   52.8383    8.7471 H   0  0  0  0  0  0
  -11.4813   53.2938   11.1667 H   0  0  0  0  0  0
  -12.8417   56.7282   13.9310 H   0  0  0  0  0  0
  -13.9968   56.8339   12.5594 H   0  0  0  0  0  0
  -12.2496   57.1512   12.2886 H   0  0  0  0  0  0
  -14.3979   56.4549   11.0184 H   0  0  0  0  0  0
  -14.7387   56.0323    8.5945 H   0  0  0  0  0  0
  -14.3104   52.8513   -0.3353 H   0  0  0  0  0  0
  -13.8032   53.3498   -2.7900 H   0  0  0  0  0  0
  -12.4329   54.0647   -1.8746 H   0  0  0  0  0  0
  -12.9066   50.3610   -3.4086 H   0  0  0  0  0  0
  -12.6138   48.1836   -1.3891 H   0  0  0  0  0  0
  -11.5877   48.8328   -0.0655 H   0  0  0  0  0  0
  -13.2288   50.3497    0.6151 H   0  0  0  0  0  0
  -14.3559   49.2826   -0.2891 H   0  0  0  0  0  0
  1  4  1  0  0  0
  1 40  1  0  0  0
  1 50  1  0  0  0
  2 43  1  0  0  0
  2 46  1  0  0  0
  2 49  1  0  0  0
  2 51  1  0  0  0
  3  9  1  0  0  0
  3 10  1  0  0  0
  4  5  1  0  0  0
  4 21  1  0  0  0
  4 52  1  0  0  0
  5  6  1  0  0  0
  5 53  1  0  0  0
  5 54  1  0  0  0
  6  7  2  0  0  0
  6 20  1  0  0  0
  7  8  1  0  0  0
  7 55  1  0  0  0
  8  9  2  0  0  0
  8 56  1  0  0  0
  9 19  1  0  0  0
 10 11  1  0  0  0
 10 57  1  0  0  0
 10 58  1  0  0  0
 11 12  1  0  0  0
 11 15  2  0  0  0
 11 16  1  0  0  0
 12 13  1  0  0  0
 13 14  1  0  0  0
 13 59  1  0  0  0
 13 60  1  0  0  0
 14 61  1  0  0  0
 14 62  1  0  0  0
 14 63  1  0  0  0
 16 17  1  0  0  0
 17 18  1  0  0  0
 17 64  1  0  0  0
 17 65  1  0  0  0
 18 66  1  0  0  0
 18 67  1  0  0  0
 18 68  1  0  0  0
 19 20  2  0  0  0
 19 69  1  0  0  0
 20 70  1  0  0  0
 21 22  1  0  0  0
 21 23  1  0  0  0
 21 71  1  0  0  0
 22 72  1  0  0  0
 23 24  1  0  0  0
 23 73  1  0  0  0
 23 74  1  0  0  0
 24 25  1  0  0  0
 24 29  1  0  0  0
 25 26  1  0  0  0
 25 75  1  0  0  0
 25 76  1  0  0  0
 26 27  1  0  0  0
 26 28  1  0  0  0
 26 77  1  0  0  0
 27 78  1  0  0  0
 27 79  1  0  0  0
 27 80  1  0  0  0
 28 81  1  0  0  0
 28 82  1  0  0  0
 28 83  1  0  0  0
 29 30  2  0  0  0
 29 31  2  0  0  0
 29 32  1  0  0  0
 32 33  2  0  0  0
 32 39  1  0  0  0
 33 34  1  0  0  0
 33 84  1  0  0  0
 34 35  2  0  0  0
 34 85  1  0  0  0
 35 36  1  0  0  0
 35 38  1  0  0  0
 36 37  1  0  0  0
 37 86  1  0  0  0
 37 87  1  0  0  0
 37 88  1  0  0  0
 38 39  2  0  0  0
 38 89  1  0  0  0
 39 90  1  0  0  0
 40 41  2  0  0  0
 40 42  1  0  0  0
 42 43  1  0  0  0
 43 44  1  0  0  0
 43 91  1  0  0  0
 44 45  1  0  0  0
 44 92  1  0  0  0
 44 93  1  0  0  0
 45 46  1  0  0  0
 46 47  1  0  0  0
 46 94  1  0  0  0
 47 48  1  0  0  0
 48 49  1  0  0  0
 48 95  1  0  0  0
 48 96  1  0  0  0
 49 97  1  0  0  0
 49 98  1  0  0  0
M  END
> <s_m_source_file>
../4m8x_ligand.sdf

> <i_m_source_file_index>
1

> <s_epik_input>
W0NIM11PYyhbY0hdW2NIXTEpW2NIXVtjSF1jMVMoPU8pKD1PKU4oW0NIMl1bQ0hdKFtDSDNdKVtDSDNdKVtDSDJdW0NAQEhdKFtPSF0pW0NAQEhdKFtOSF1DKD1PKU9bQ0BIXTJbQ0gyXU9bQ0BIXShbQ0BIXTIzKU9bQ0gyXVtDSDJdMylbQ0gyXWM0W2NIXVtjSF1jKFtjSF1bY0hdNClPW0NIMl1QKD1PKShPW0NIMl1bQ0gzXSlPW0NIMl1bQ0gzXQ==

> <s_epik_cmdline>
J2VwaWtfYXBwJywgJy1pbWFlJywgJ2xpZ2FuZF9wcm8ubWFlJywgJy1vbWFlJywgJ2xpZ2FuZF9wcmVwLm1hZScsICctbXMnLCAnMScsICctcGgnLCAnNycsICctcGh0JywgJzAuNScsICctbnQn

> <r_lp_tautomer_probability>
1

> <r_epik_Ionization_Penalty>
  0.0000

> <r_epik_Ionization_Penalty_Charging>
  0.0000

> <r_epik_Ionization_Penalty_Neutral>
  0.0000

> <r_epik_State_Penalty>
 -0.0000

> <r_epik_Charging_Adjusted_Penalty>
0

> <i_epik_Tot_Q>
0

> <i_epik_Tot_abs_Q>
0

> <s_epik_Chemistry_Notes>
This compound has an ester and may undergo hydrolysis at high or low pH. This compound contains an acetal/aminal-like group ( X-CH(R)-Y where X, Y are N, S, or O) that may be acid/base labile, releasing an aldehyde.

$$$$
