4m8y_ligand
                    3D
 Schrodinger Suite 2020-3.
 98101  0  0  1  0            999 V2000
  -11.7130   52.5480    2.1530 N   0  0  0  0  0  0
  -13.6420   51.3280   -1.4990 C   0  0  1  0  0  0
  -14.5730   47.0950    1.8150 O   0  0  0  0  0  0
  -11.8980   52.6670    3.5960 C   0  0  1  0  0  0
  -11.5780   51.3020    4.2250 C   0  0  0  0  0  0
  -12.3920   50.1710    3.5780 C   0  0  0  0  0  0
  -13.7750   50.1590    3.6670 C   0  0  0  0  0  0
  -14.4980   49.1220    3.0760 C   0  0  0  0  0  0
  -13.8530   48.0920    2.4010 C   0  0  0  0  0  0
  -15.4900   47.6750    0.8550 C   0  0  0  0  0  0
  -16.3720   46.4480   -0.2110 P   0  0  0  0  0  0
  -17.9580   46.8050   -0.2490 O   0  0  0  0  0  0
  -18.8740   46.2720    0.6790 C   0  0  0  0  0  0
  -20.1220   47.1540    0.6890 C   0  0  0  0  0  0
  -15.8510   46.6330   -1.7540 O   0  0  0  0  0  0
  -16.0110   44.9610    0.2420 O   0  0  0  0  0  0
  -14.7420   44.4310   -0.1650 C   0  0  0  0  0  0
  -14.6300   42.9500    0.1980 C   0  0  0  0  0  0
  -12.4660   48.1040    2.3230 C   0  0  0  0  0  0
  -11.7450   49.1370    2.9080 C   0  0  0  0  0  0
  -10.9730   53.7830    4.0930 C   0  0  2  0  0  0
   -9.6220   53.3680    3.8990 O   0  0  0  0  0  0
  -11.1640   54.1040    5.5710 C   0  0  0  0  0  0
  -12.3330   54.9660    5.8250 N   0  0  1  0  0  0
  -12.9790   55.4030    4.5810 C   0  0  0  0  0  0
  -12.6380   56.8560    4.3020 C   0  0  0  0  0  0
  -13.2680   57.7880    5.3230 C   0  0  0  0  0  0
  -11.1310   57.0230    4.3200 C   0  0  0  0  0  0
  -13.4030   54.1190    6.7100 S   0  0  0  0  0  0
  -13.2390   52.6510    6.4360 O   0  0  0  0  0  0
  -14.8020   54.5480    6.3500 O   0  0  0  0  0  0
  -13.1100   54.4660    8.4180 C   0  0  0  0  0  0
  -13.6920   55.5880    9.0090 C   0  0  0  0  0  0
  -13.4570   55.8880   10.3460 C   0  0  0  0  0  0
  -12.6310   55.0580   11.0980 C   0  0  0  0  0  0
  -12.3920   55.3320   12.4050 O   0  0  0  0  0  0
  -13.4800   56.0310   13.0120 C   0  0  0  0  0  0
  -12.0450   53.9400   10.5140 C   0  0  0  0  0  0
  -12.2850   53.6430    9.1780 C   0  0  0  0  0  0
  -12.6530   52.8530    1.2670 C   0  0  0  0  0  0
  -13.7690   53.2710    1.5730 O   0  0  0  0  0  0
  -12.2960   52.7110   -0.0360 O   0  0  0  0  0  0
  -13.3470   52.7400   -1.0020 C   0  0  1  0  0  0
  -12.7230   53.3770   -2.2130 C   0  0  0  0  0  0
  -11.9020   52.3460   -2.8110 O   0  0  0  0  0  0
  -12.5920   51.0770   -2.6000 C   0  0  1  0  0  0
  -11.6600   50.1070   -2.0380 O   0  0  0  0  0  0
  -12.4540   49.2760   -1.1610 C   0  0  0  0  0  0
  -13.3350   50.2780   -0.4290 C   0  0  0  0  0  0
  -10.7547   52.1894    1.7491 H   0  0  0  0  0  0
  -14.6985   51.2570   -1.7970 H   0  0  0  0  0  0
  -12.9396   52.9350    3.8269 H   0  0  0  0  0  0
  -10.5093   51.0783    4.0916 H   0  0  0  0  0  0
  -11.8159   51.3282    5.2987 H   0  0  0  0  0  0
  -14.2960   50.9566    4.1966 H   0  0  0  0  0  0
  -15.5858   49.1196    3.1447 H   0  0  0  0  0  0
  -16.2638   48.2479    1.3870 H   0  0  0  0  0  0
  -14.9380   48.3445    0.1789 H   0  0  0  0  0  0
  -19.1410   45.2467    0.3831 H   0  0  0  0  0  0
  -18.4163   46.2575    1.6791 H   0  0  0  0  0  0
  -20.8494   46.7518    1.4095 H   0  0  0  0  0  0
  -20.5698   47.1671   -0.3156 H   0  0  0  0  0  0
  -19.8450   48.1779    0.9803 H   0  0  0  0  0  0
  -14.6322   44.5382   -1.2542 H   0  0  0  0  0  0
  -13.9353   44.9818    0.3408 H   0  0  0  0  0  0
  -13.6503   42.5668   -0.1234 H   0  0  0  0  0  0
  -15.4280   42.3871   -0.3082 H   0  0  0  0  0  0
  -14.7311   42.8307    1.2868 H   0  0  0  0  0  0
  -11.9430   47.3019    1.8022 H   0  0  0  0  0  0
  -10.6570   49.1378    2.8414 H   0  0  0  0  0  0
  -11.1498   54.6931    3.5010 H   0  0  0  0  0  0
   -9.2715   53.0878    2.8947 H   0  0  0  0  0  0
  -11.3084   53.1697    6.1334 H   0  0  0  0  0  0
  -10.2737   54.6267    5.9507 H   0  0  0  0  0  0
  -12.6246   54.7811    3.7458 H   0  0  0  0  0  0
  -14.0698   55.2993    4.6782 H   0  0  0  0  0  0
  -13.0401   57.1216    3.3132 H   0  0  0  0  0  0
  -14.3609   57.6642    5.3072 H   0  0  0  0  0  0
  -13.0133   58.8291    5.0754 H   0  0  0  0  0  0
  -12.8860   57.5455    6.3256 H   0  0  0  0  0  0
  -10.6783   56.3469    3.5798 H   0  0  0  0  0  0
  -10.7471   56.7799    5.3218 H   0  0  0  0  0  0
  -10.8744   58.0634    4.0715 H   0  0  0  0  0  0
  -14.3376   56.2360    8.4163 H   0  0  0  0  0  0
  -13.9157   56.7657   10.8013 H   0  0  0  0  0  0
  -13.2437   56.2316   14.0674 H   0  0  0  0  0  0
  -14.3904   55.4167   12.9504 H   0  0  0  0  0  0
  -13.6436   56.9829   12.4855 H   0  0  0  0  0  0
  -11.3957   53.2950   11.1060 H   0  0  0  0  0  0
  -11.8263   52.7641    8.7249 H   0  0  0  0  0  0
  -14.2090   53.2422   -0.5385 H   0  0  0  0  0  0
  -13.5142   53.7103   -2.9007 H   0  0  0  0  0  0
  -12.1190   54.2422   -1.9021 H   0  0  0  0  0  0
  -12.9723   50.7114   -3.5653 H   0  0  0  0  0  0
  -13.0385   48.5631   -1.7612 H   0  0  0  0  0  0
  -11.7906   48.7238   -0.4792 H   0  0  0  0  0  0
  -12.8155   50.7555    0.4149 H   0  0  0  0  0  0
  -14.2750   49.8299   -0.0747 H   0  0  0  0  0  0
  1  4  1  0  0  0
  1 40  1  0  0  0
  1 50  1  0  0  0
  2 43  1  0  0  0
  2 46  1  0  0  0
  2 49  1  0  0  0
  2 51  1  0  0  0
  3  9  1  0  0  0
  3 10  1  0  0  0
  4  5  1  0  0  0
  4 21  1  0  0  0
  4 52  1  0  0  0
  5  6  1  0  0  0
  5 53  1  0  0  0
  5 54  1  0  0  0
  6  7  2  0  0  0
  6 20  1  0  0  0
  7  8  1  0  0  0
  7 55  1  0  0  0
  8  9  2  0  0  0
  8 56  1  0  0  0
  9 19  1  0  0  0
 10 11  1  0  0  0
 10 57  1  0  0  0
 10 58  1  0  0  0
 11 12  1  0  0  0
 11 15  2  0  0  0
 11 16  1  0  0  0
 12 13  1  0  0  0
 13 14  1  0  0  0
 13 59  1  0  0  0
 13 60  1  0  0  0
 14 61  1  0  0  0
 14 62  1  0  0  0
 14 63  1  0  0  0
 16 17  1  0  0  0
 17 18  1  0  0  0
 17 64  1  0  0  0
 17 65  1  0  0  0
 18 66  1  0  0  0
 18 67  1  0  0  0
 18 68  1  0  0  0
 19 20  2  0  0  0
 19 69  1  0  0  0
 20 70  1  0  0  0
 21 22  1  0  0  0
 21 23  1  0  0  0
 21 71  1  0  0  0
 22 72  1  0  0  0
 23 24  1  0  0  0
 23 73  1  0  0  0
 23 74  1  0  0  0
 24 25  1  0  0  0
 24 29  1  0  0  0
 25 26  1  0  0  0
 25 75  1  0  0  0
 25 76  1  0  0  0
 26 27  1  0  0  0
 26 28  1  0  0  0
 26 77  1  0  0  0
 27 78  1  0  0  0
 27 79  1  0  0  0
 27 80  1  0  0  0
 28 81  1  0  0  0
 28 82  1  0  0  0
 28 83  1  0  0  0
 29 30  2  0  0  0
 29 31  2  0  0  0
 29 32  1  0  0  0
 32 33  2  0  0  0
 32 39  1  0  0  0
 33 34  1  0  0  0
 33 84  1  0  0  0
 34 35  2  0  0  0
 34 85  1  0  0  0
 35 36  1  0  0  0
 35 38  1  0  0  0
 36 37  1  0  0  0
 37 86  1  0  0  0
 37 87  1  0  0  0
 37 88  1  0  0  0
 38 39  2  0  0  0
 38 89  1  0  0  0
 39 90  1  0  0  0
 40 41  2  0  0  0
 40 42  1  0  0  0
 42 43  1  0  0  0
 43 44  1  0  0  0
 43 91  1  0  0  0
 44 45  1  0  0  0
 44 92  1  0  0  0
 44 93  1  0  0  0
 45 46  1  0  0  0
 46 47  1  0  0  0
 46 94  1  0  0  0
 47 48  1  0  0  0
 48 49  1  0  0  0
 48 95  1  0  0  0
 48 96  1  0  0  0
 49 97  1  0  0  0
 49 98  1  0  0  0
M  END
> <s_m_source_file>
../4m8y_ligand.sdf

> <i_m_source_file_index>
1

> <s_epik_input>
W0NIM11PYyhbY0hdW2NIXTEpW2NIXVtjSF1jMVMoPU8pKD1PKU4oW0NIMl1bQ0hdKFtDSDNdKVtDSDNdKVtDSDJdW0NAQEhdKFtPSF0pW0NAQEhdKFtOSF1DKD1PKU9bQ0BIXTJbQ0gyXU9bQ0BIXShbQ0BIXTIzKU9bQ0gyXVtDSDJdMylbQ0gyXWM0W2NIXVtjSF1jKFtjSF1bY0hdNClPW0NIMl1QKD1PKShPW0NIMl1bQ0gzXSlPW0NIMl1bQ0gzXQ==

> <s_epik_cmdline>
J2VwaWtfYXBwJywgJy1pbWFlJywgJ2xpZ2FuZF9wcm8ubWFlJywgJy1vbWFlJywgJ2xpZ2FuZF9wcmVwLm1hZScsICctbXMnLCAnMScsICctcGgnLCAnNycsICctcGh0JywgJzAuNScsICctbnQn

> <r_lp_tautomer_probability>
1

> <r_epik_Ionization_Penalty>
  0.0000

> <r_epik_Ionization_Penalty_Charging>
  0.0000

> <r_epik_Ionization_Penalty_Neutral>
  0.0000

> <r_epik_State_Penalty>
 -0.0000

> <r_epik_Charging_Adjusted_Penalty>
0

> <i_epik_Tot_Q>
0

> <i_epik_Tot_abs_Q>
0

> <s_epik_Chemistry_Notes>
This compound has an ester and may undergo hydrolysis at high or low pH. This compound contains an acetal/aminal-like group ( X-CH(R)-Y where X, Y are N, S, or O) that may be acid/base labile, releasing an aldehyde.

$$$$
