4man_ligand
                    3D
 Schrodinger Suite 2020-3.
118125  0  0  1  0            999 V2000
  -15.1650    1.3410   10.7500 C   0  0  0  0  0  0
  -14.3970    1.5960    9.6430 C   0  0  0  0  0  0
  -11.2320    1.9860    8.3020 C   0  0  0  0  0  0
  -13.1260    3.0450    7.3620 C   0  0  0  0  0  0
  -13.9940   11.2540   11.1220 C   0  0  0  0  0  0
   -8.5330   13.7640    8.0680 C   0  0  0  0  0  0
  -10.4620    2.7140    4.4660 Cl  0  0  0  0  0  0
  -13.8170    9.8770   11.0770 C   0  0  0  0  0  0
  -10.1510   16.9850    7.3980 C   0  0  0  0  0  0
  -14.7650    1.8070   11.9730 C   0  0  0  0  0  0
   -9.0000   13.3000    9.2770 C   0  0  0  0  0  0
  -10.4410   16.7760    8.7250 C   0  0  0  0  0  0
  -10.5750    2.0770    7.0970 C   0  0  0  0  0  0
  -12.4820    3.1080    6.1470 C   0  0  0  0  0  0
  -11.2520   13.1280    5.8160 C   0  0  0  0  0  0
  -11.0850   12.5670    8.3040 C   0  0  0  0  0  0
  -11.5070   10.1730   10.7130 C   0  0  0  0  0  0
  -12.6330   16.0290    8.1370 C   0  0  0  0  0  0
  -10.3570   13.7500    4.9750 C   0  0  0  0  0  0
  -10.6370   13.0560    7.0890 C   0  0  0  0  0  0
  -12.5170    2.4710    8.4530 C   0  0  0  0  0  0
  -13.2270    2.3230    9.7090 C   0  0  0  0  0  0
  -12.9260   12.1180   10.9960 C   0  0  0  0  0  0
  -12.7980    2.7860   10.9490 C   0  0  0  0  0  0
   -9.3910   13.6360    6.9960 C   0  0  0  0  0  0
  -12.5650    9.2910   10.8690 C   0  0  0  0  0  0
  -11.0790   16.7240    6.4060 C   0  0  0  0  0  0
  -12.3190   16.2280    6.7980 C   0  0  0  0  0  0
  -10.2380   12.7140    9.3730 C   0  0  0  0  0  0
  -13.5810    2.5180   12.0680 C   0  0  0  0  0  0
  -11.6870   11.5400   10.7840 C   0  0  0  0  0  0
  -11.6760   16.3020    9.0910 C   0  0  0  0  0  0
  -11.2140    2.6150    6.0080 C   0  0  0  0  0  0
  -13.1380   13.6050   11.0020 C   0  0  0  0  0  0
   -7.8860   18.0340    2.9200 C   0  0  0  0  0  0
  -10.2920   18.1450    2.3080 C   0  0  0  0  0  0
  -13.4640    7.0250   10.7180 C   0  0  0  0  0  0
  -11.1930    7.4190   11.6340 C   0  0  0  0  0  0
  -13.0370    5.6140   10.3760 C   0  0  0  0  0  0
  -10.7550    6.0140   11.2540 C   0  0  0  0  0  0
   -7.6030   17.7500    1.4560 C   0  0  0  0  0  0
   -9.9010   18.0050    0.8490 C   0  0  0  0  0  0
   -9.2720   17.4930    3.2270 C   0  0  0  0  0  0
  -12.0470    4.2650   17.2260 C   0  0  0  0  0  0
  -14.2790    3.9610   16.2960 C   0  0  0  0  0  0
  -11.5780    3.6610   11.1020 C   0  0  0  0  0  0
   -9.6330   17.7890    4.6790 C   0  0  0  0  0  0
  -12.2280    2.6620   15.3910 C   0  0  0  0  0  0
  -13.1190    2.0570   14.3280 C   0  0  0  0  0  0
   -9.2320   14.0340    5.6980 N   0  3  0  0  0  0
  -12.2880    7.8920   10.7700 N   0  0  0  0  0  0
  -11.9460    5.1210   11.2840 N   0  3  0  0  0  0
  -10.7500   16.9180    5.0430 N   0  0  0  0  0  0
  -12.0070   14.4140   11.2640 N   0  0  0  0  0  0
  -12.9440    3.3480   16.5010 N   0  3  0  0  0  0
  -13.3590   15.9070    5.8260 N   0  3  0  0  0  0
  -14.4390   15.4930    6.2510 O   0  0  0  0  0  0
  -14.1860   14.1550   10.6720 O   0  5  0  0  0  0
  -13.1650   16.0380    4.6120 O   0  5  0  0  0  0
  -13.3490   16.5830   11.0450 O   0  0  0  0  0  0
  -10.8500   16.6400   11.5270 O   0  0  0  0  0  0
   -8.5660   18.4720    0.6730 O   0  0  0  0  0  0
  -10.5450   12.2820   10.6310 O   0  0  0  0  0  0
  -13.1630    3.0290   13.2910 O   0  0  0  0  0  0
  -11.9970   16.0940   10.8410 S   0  0  0  0  0  0
  -16.0889    0.7703   10.6564 H   0  0  0  0  0  0
  -14.7227    1.2105    8.6769 H   0  0  0  0  0  0
  -10.7305    1.5235    9.1521 H   0  0  0  0  0  0
  -14.1311    3.4552    7.4604 H   0  0  0  0  0  0
  -14.9963   11.6597   11.2595 H   0  0  0  0  0  0
   -7.5425   14.2069    7.9641 H   0  0  0  0  0  0
  -14.6848    9.2307   11.2085 H   0  0  0  0  0  0
   -9.1676   17.3650    7.1210 H   0  0  0  0  0  0
  -15.3704    1.6209   12.8601 H   0  0  0  0  0  0
   -8.3800   13.3989   10.1680 H   0  0  0  0  0  0
   -9.6903   16.9866    9.4867 H   0  0  0  0  0  0
   -9.5483    1.7223    7.0071 H   0  0  0  0  0  0
  -12.9863    3.5540    5.2897 H   0  0  0  0  0  0
  -12.2296   12.7998    5.4332 H   0  0  0  0  0  0
  -12.0598   12.0901    8.4060 H   0  0  0  0  0  0
  -10.5080    9.7774   10.5297 H   0  0  0  0  0  0
  -13.6180   15.6637    8.4277 H   0  0  0  0  0  0
  -10.6239   13.9289    3.9230 H   0  0  0  0  0  0
   -7.1301   17.5338    3.5433 H   0  0  0  0  0  0
   -7.8477   19.1190    3.0971 H   0  0  0  0  0  0
  -10.3614   19.2115    2.5683 H   0  0  0  0  0  0
  -11.2666   17.6629    2.4743 H   0  0  0  0  0  0
  -14.1579    7.3947    9.9487 H   0  0  0  0  0  0
  -13.9658    7.0292   11.6969 H   0  0  0  0  0  0
  -11.5436    7.4244   12.6766 H   0  0  0  0  0  0
  -10.3427    8.1090   11.5295 H   0  0  0  0  0  0
  -13.8980    4.9365   10.4740 H   0  0  0  0  0  0
  -12.6630    5.5845    9.3419 H   0  0  0  0  0  0
  -10.3212    6.0260   10.2432 H   0  0  0  0  0  0
  -10.0017    5.6579   11.9721 H   0  0  0  0  0  0
   -6.5841   18.0825    1.2083 H   0  0  0  0  0  0
   -7.6920   16.6698    1.2682 H   0  0  0  0  0  0
   -9.9636   16.9476    0.5525 H   0  0  0  0  0  0
  -10.5850   18.6013    0.2272 H   0  0  0  0  0  0
   -9.2757   16.4055    3.0619 H   0  0  0  0  0  0
  -12.6031    4.7559   18.0382 H   0  0  0  0  0  0
  -11.6627    5.0270   16.5319 H   0  0  0  0  0  0
  -11.2056    3.6966   17.6490 H   0  0  0  0  0  0
  -14.6244    4.4111   17.2384 H   0  0  0  0  0  0
  -14.9925    3.1873   15.9760 H   0  0  0  0  0  0
  -14.2101    4.7392   15.5216 H   0  0  0  0  0  0
  -11.0039    3.3388   11.9833 H   0  0  0  0  0  0
  -10.9496    3.5744   10.2033 H   0  0  0  0  0  0
   -8.7635   17.5864    5.3216 H   0  0  0  0  0  0
   -9.9229   18.8456    4.7767 H   0  0  0  0  0  0
  -11.6186    1.8709   15.8524 H   0  0  0  0  0  0
  -11.5678    3.4128   14.9323 H   0  0  0  0  0  0
  -12.6823    1.1096   13.9792 H   0  0  0  0  0  0
  -14.1168    1.8673   14.7503 H   0  0  0  0  0  0
  -12.3693    5.1879   12.2971 H   0  0  0  0  0  0
  -11.3334   16.4146    4.2580 H   0  0  0  0  0  0
  -13.2307    2.4776   17.1095 H   0  0  0  0  0  0
   -8.3722   14.5169    5.2105 H   0  0  0  0  0  0
  1  2  2  0  0  0
  1 10  1  0  0  0
  1 66  1  0  0  0
  2 22  1  0  0  0
  2 67  1  0  0  0
  3 13  2  0  0  0
  3 21  1  0  0  0
  3 68  1  0  0  0
  4 14  1  0  0  0
  4 21  2  0  0  0
  4 69  1  0  0  0
  5  8  2  0  0  0
  5 23  1  0  0  0
  5 70  1  0  0  0
  6 11  2  0  0  0
  6 25  1  0  0  0
  6 71  1  0  0  0
  7 33  1  0  0  0
  8 26  1  0  0  0
  8 72  1  0  0  0
  9 12  2  0  0  0
  9 27  1  0  0  0
  9 73  1  0  0  0
 10 30  2  0  0  0
 10 74  1  0  0  0
 11 29  1  0  0  0
 11 75  1  0  0  0
 12 32  1  0  0  0
 12 76  1  0  0  0
 13 33  1  0  0  0
 13 77  1  0  0  0
 14 33  2  0  0  0
 14 78  1  0  0  0
 15 19  2  0  0  0
 15 20  1  0  0  0
 15 79  1  0  0  0
 16 20  1  0  0  0
 16 29  2  0  0  0
 16 80  1  0  0  0
 17 26  2  0  0  0
 17 31  1  0  0  0
 17 81  1  0  0  0
 18 28  1  0  0  0
 18 32  2  0  0  0
 18 82  1  0  0  0
 19 50  1  0  0  0
 19 83  1  0  0  0
 20 25  2  0  0  0
 21 22  1  0  0  0
 22 24  2  0  0  0
 23 31  2  0  0  0
 23 34  1  0  0  0
 24 30  1  0  0  0
 24 46  1  0  0  0
 25 50  1  0  0  0
 26 51  1  0  0  0
 27 28  2  0  0  0
 27 53  1  0  0  0
 28 56  1  0  0  0
 29 63  1  0  0  0
 30 64  1  0  0  0
 31 63  1  0  0  0
 32 65  1  0  0  0
 34 54  2  0  0  0
 34 58  1  0  0  0
 35 41  1  0  0  0
 35 43  1  0  0  0
 35 84  1  0  0  0
 35 85  1  0  0  0
 36 42  1  0  0  0
 36 43  1  0  0  0
 36 86  1  0  0  0
 36 87  1  0  0  0
 37 39  1  0  0  0
 37 51  1  0  0  0
 37 88  1  0  0  0
 37 89  1  0  0  0
 38 40  1  0  0  0
 38 51  1  0  0  0
 38 90  1  0  0  0
 38 91  1  0  0  0
 39 52  1  0  0  0
 39 92  1  0  0  0
 39 93  1  0  0  0
 40 52  1  0  0  0
 40 94  1  0  0  0
 40 95  1  0  0  0
 41 62  1  0  0  0
 41 96  1  0  0  0
 41 97  1  0  0  0
 42 62  1  0  0  0
 42 98  1  0  0  0
 42 99  1  0  0  0
 43 47  1  0  0  0
 43100  1  0  0  0
 44 55  1  0  0  0
 44101  1  0  0  0
 44102  1  0  0  0
 44103  1  0  0  0
 45 55  1  0  0  0
 45104  1  0  0  0
 45105  1  0  0  0
 45106  1  0  0  0
 46 52  1  0  0  0
 46107  1  0  0  0
 46108  1  0  0  0
 47 53  1  0  0  0
 47109  1  0  0  0
 47110  1  0  0  0
 48 49  1  0  0  0
 48 55  1  0  0  0
 48111  1  0  0  0
 48112  1  0  0  0
 49 64  1  0  0  0
 49113  1  0  0  0
 49114  1  0  0  0
 50118  1  0  0  0
 52115  1  0  0  0
 53116  1  0  0  0
 54 65  1  0  0  0
 55117  1  0  0  0
 56 57  2  0  0  0
 56 59  1  0  0  0
 60 65  2  0  0  0
 61 65  2  0  0  0
M  CHG  6  50   1  52   1  55   1  56   1  58  -1  59  -1
M  END
> <s_m_source_file>
../4man_ligand.sdf

> <i_m_source_file_index>
1

> <s_epik_input>
W2NIXTFbY0hdYyhDbClbY0hdW2NIXWMxLWMyW2NIXVtjSF1bY0hdYyhPW0NIMl1bQ0gyXVtOSCtdKFtDSDNdKVtDSDNdKWMyW0NIMl1bTkgrXShbQ0gyXVtDSDJdMylbQ0gyXVtDSDJdTjNjKFtjSF1jNE9jKFtjSF01KVtjSF1bY0hdYyhjNTYpW25IXVtjSF1bY0hdNilbY0hdW2NIXWM0Qyg9TylbTkhdUyg9TykoPU8pYyhbY0hdYzdbTitdKD1PKVtPLV0pW2NIXVtjSF1jN1tOSF1bQ0gyXVtDSF04W0NIMl1bQ0gyXU9bQ0gyXVtDSDJdOA==

> <s_epik_cmdline>
J2VwaWtfYXBwJywgJy1pbWFlJywgJ2xpZ2FuZF9wcm8ubWFlJywgJy1vbWFlJywgJ2xpZ2FuZF9wcmVwLm1hZScsICctbXMnLCAnMScsICctcGgnLCAnNycsICctcGh0JywgJzAuNScsICctbnQn

> <r_lp_tautomer_probability>
1

> <r_epik_Ionization_Penalty>
  0.0653

> <r_epik_Ionization_Penalty_Charging>
  0.0653

> <r_epik_Ionization_Penalty_Neutral>
  0.0000

> <r_epik_State_Penalty>
 -0.0000

> <r_epik_Charging_Adjusted_Penalty>
0.0652981826165041

> <i_epik_Tot_Q>
2

> <i_epik_Tot_abs_Q>
6

$$$$
