4mao_ligand
                    3D
 Schrodinger Suite 2020-3.
 49 52  0  0  1  0            999 V2000
    3.7710   10.8480  -19.9730 C   0  0  1  0  0  0
    2.8100   11.9240  -19.6010 C   0  0  0  0  0  0
    2.0960   12.7540  -19.2910 N   0  0  0  0  0  0
    3.1100    9.8710  -20.8150 N   0  0  0  0  0  0
    3.2380    8.4850  -20.6760 C   0  0  0  0  0  0
    2.4930    7.9180  -21.6510 N   0  0  0  0  0  0
    1.9240    8.9400  -22.3870 C   0  0  0  0  0  0
    2.3190   10.1500  -21.8540 N   0  0  0  0  0  0
    4.9920   11.4170  -20.6530 C   0  0  0  0  0  0
    6.0040   10.3200  -20.6340 C   0  0  0  0  0  0
    6.4950    9.8950  -19.3990 C   0  0  0  0  0  0
    7.4320    8.8570  -19.3340 C   0  0  0  0  0  0
    7.8520    8.2640  -20.5180 C   0  0  0  0  0  0
    8.7550    7.2400  -20.7670 N   0  0  0  0  0  0
    8.8700    6.9660  -22.0490 N   0  0  0  0  0  0
    8.0440    7.8180  -22.6800 C   0  0  3  0  0  0
    7.8260    7.8780  -24.1790 C   0  0  0  0  0  0
    6.4470    8.1350  -24.6950 C   0  0  0  0  0  0
    6.2250    8.1860  -26.0530 C   0  0  0  0  0  0
    4.9440    8.4230  -26.4970 O   0  0  0  0  0  0
    4.6680    9.6770  -27.0180 C   0  0  0  0  0  0
    7.3690    7.9940  -27.0230 C   0  0  0  0  0  0
    7.1090    8.0500  -28.3880 O   0  0  0  0  0  0
    6.4920    6.9720  -29.0240 C   0  0  0  0  0  0
    8.6400    7.7610  -26.5330 C   0  0  0  0  0  0
    9.7310    7.5610  -27.3570 O   0  0  0  0  0  0
   10.7920    8.4280  -27.2850 C   0  0  0  0  0  0
    8.8720    7.6980  -25.0390 C   0  0  0  0  0  0
    7.3400    8.6940  -21.7550 C   0  0  0  0  0  0
    6.4100    9.7230  -21.8320 C   0  0  0  0  0  0
    4.0885   10.3190  -19.0623 H   0  0  0  0  0  0
    3.8273    7.9611  -19.9235 H   0  0  0  0  0  0
    1.2693    8.8112  -23.2489 H   0  0  0  0  0  0
    4.7356   11.7102  -21.6817 H   0  0  0  0  0  0
    5.3438   12.2987  -20.0973 H   0  0  0  0  0  0
    6.1481   10.3724  -18.4826 H   0  0  0  0  0  0
    7.8240    8.5209  -18.3741 H   0  0  0  0  0  0
    5.6207    8.2814  -23.9994 H   0  0  0  0  0  0
    3.6140    9.7206  -27.3298 H   0  0  0  0  0  0
    5.3156    9.8635  -27.8874 H   0  0  0  0  0  0
    4.8553   10.4423  -26.2504 H   0  0  0  0  0  0
    6.3701    7.1982  -30.0936 H   0  0  0  0  0  0
    5.5049    6.7955  -28.5717 H   0  0  0  0  0  0
    7.1146    6.0726  -28.9080 H   0  0  0  0  0  0
   11.5654    8.1215  -28.0046 H   0  0  0  0  0  0
   11.2105    8.4117  -26.2678 H   0  0  0  0  0  0
   10.4507    9.4458  -27.5248 H   0  0  0  0  0  0
    9.8724    7.5092  -24.6496 H   0  0  0  0  0  0
    6.0111   10.0532  -22.7912 H   0  0  0  0  0  0
  1  2  1  0  0  0
  1  4  1  0  0  0
  1  9  1  0  0  0
  1 31  1  0  0  0
  2  3  3  0  0  0
  4  5  1  0  0  0
  4  8  1  0  0  0
  5  6  2  0  0  0
  5 32  1  0  0  0
  6  7  1  0  0  0
  7  8  2  0  0  0
  7 33  1  0  0  0
  9 10  1  0  0  0
  9 34  1  0  0  0
  9 35  1  0  0  0
 10 11  2  0  0  0
 10 30  1  0  0  0
 11 12  1  0  0  0
 11 36  1  0  0  0
 12 13  2  0  0  0
 12 37  1  0  0  0
 13 14  1  0  0  0
 13 29  1  0  0  0
 14 15  2  0  0  0
 15 16  1  0  0  0
 16 17  1  0  0  0
 16 29  1  0  0  0
 17 18  2  0  0  0
 17 28  1  0  0  0
 18 19  1  0  0  0
 18 38  1  0  0  0
 19 20  1  0  0  0
 19 22  2  0  0  0
 20 21  1  0  0  0
 21 39  1  0  0  0
 21 40  1  0  0  0
 21 41  1  0  0  0
 22 23  1  0  0  0
 22 25  1  0  0  0
 23 24  1  0  0  0
 24 42  1  0  0  0
 24 43  1  0  0  0
 24 44  1  0  0  0
 25 26  1  0  0  0
 25 28  2  0  0  0
 26 27  1  0  0  0
 27 45  1  0  0  0
 27 46  1  0  0  0
 27 47  1  0  0  0
 28 48  1  0  0  0
 29 30  2  0  0  0
 30 49  1  0  0  0
M  END
> <s_m_source_file>
../4mao_ligand.sdf

> <i_m_source_file_index>
1

> <s_epik_input>
bjFbY0hdbltjSF1uMVtDQEhdKEMjTilbQ0gyXWMoW2NIXVtjSF0yKVtjSF1jKGMyMylbQ0hdKE49TjMpYzRbY0hdYyhPW0NIM10pYyhPW0NIM10pYyhbY0hdNClPW0NIM10=

> <s_epik_cmdline>
J2VwaWtfYXBwJywgJy1pbWFlJywgJ2xpZ2FuZF9wcm8ubWFlJywgJy1vbWFlJywgJ2xpZ2FuZF9wcmVwLm1hZScsICctbXMnLCAnMScsICctcGgnLCAnNycsICctcGh0JywgJzAuNScsICctbnQn

> <r_lp_tautomer_probability>
1

> <r_epik_Ionization_Penalty>
  0.0000

> <r_epik_Ionization_Penalty_Charging>
  0.0000

> <r_epik_Ionization_Penalty_Neutral>
  0.0000

> <r_epik_State_Penalty>
 -0.0000

> <r_epik_Charging_Adjusted_Penalty>
0

> <i_epik_Tot_Q>
0

> <i_epik_Tot_abs_Q>
0

$$$$
