4mb9_ligand
                    3D
 Schrodinger Suite 2020-3.
 48 51  0  0  1  0            999 V2000
   19.6720   34.1440    1.5880 C   0  0  0  0  0  0
   19.3310   32.6640    1.6460 C   0  0  0  0  0  0
   18.4250   30.6560    3.4840 O   0  0  0  0  0  0
   16.3570   31.6800    3.5350 N   0  0  0  0  0  0
   15.8560   30.8820    4.5510 C   0  0  0  0  0  0
   14.4580   30.2610    6.1410 C   0  0  0  0  0  0
   13.3900   30.2380    7.0330 C   0  0  0  0  0  0
   13.2760   29.1960    7.9380 C   0  0  0  0  0  0
   14.2900   28.2150    7.8880 C   0  0  0  0  0  0
   15.3820   29.2300    6.2210 C   0  0  0  0  0  0
   15.5200   24.8970   11.0550 C   0  0  0  0  0  0
   16.4290   23.8420   10.4470 C   0  0  0  0  0  0
   14.4510   23.8690    9.2480 C   0  0  0  0  0  0
   11.3820   28.0240    9.1570 C   0  0  0  0  0  0
   10.3790   27.9860   10.0550 N   0  0  0  0  0  0
   17.9930   32.4950    2.1510 N   0  0  0  0  0  0
   17.6620   31.5450    3.0940 C   0  0  0  0  0  0
   14.7460   31.2010    5.1850 N   0  0  0  0  0  0
   15.3500   28.1880    7.0540 N   0  0  0  0  0  0
   16.6620   29.3950    5.0390 S   0  0  0  0  0  0
   14.1660   27.1790    8.7700 O   0  0  0  0  0  0
   15.1800   26.2000    8.9290 C   0  0  0  0  0  0
   14.5820   25.2000    9.9150 C   0  0  2  0  0  0
   15.7910   23.3600    9.2520 O   0  0  0  0  0  0
   12.1660   29.1390    8.9250 C   0  0  0  0  0  0
   10.1610   29.1160   10.7430 C   0  0  0  0  0  0
   10.8430   30.2630   10.6230 N   0  0  0  0  0  0
   11.8280   30.2280    9.7040 C   0  0  0  0  0  0
   20.6943   34.2698    1.2020 H   0  0  0  0  0  0
   19.6056   34.5754    2.5977 H   0  0  0  0  0  0
   18.9629   34.6578    0.9223 H   0  0  0  0  0  0
   19.3974   32.2326    0.6363 H   0  0  0  0  0  0
   20.0401   32.1501    2.3116 H   0  0  0  0  0  0
   15.7143   32.4379    3.0633 H   0  0  0  0  0  0
   12.6473   31.0357    7.0194 H   0  0  0  0  0  0
   15.0081   24.4776   11.9337 H   0  0  0  0  0  0
   16.1206   25.7664   11.3608 H   0  0  0  0  0  0
   17.4040   24.2917   10.2080 H   0  0  0  0  0  0
   16.5701   23.0213   11.1657 H   0  0  0  0  0  0
   13.7608   23.2360    9.8251 H   0  0  0  0  0  0
   14.0581   24.0062    8.2298 H   0  0  0  0  0  0
   11.5878   27.1229    8.5792 H   0  0  0  0  0  0
   17.1811   33.1400    1.7840 H   0  0  0  0  0  0
   15.4001   25.7386    7.9550 H   0  0  0  0  0  0
   16.0901   26.6754    9.3236 H   0  0  0  0  0  0
   13.6307   25.6293   10.2624 H   0  0  0  0  0  0
    9.3498   29.0999   11.4709 H   0  0  0  0  0  0
   12.4090   31.1394    9.5632 H   0  0  0  0  0  0
  1  2  1  0  0  0
  1 29  1  0  0  0
  1 30  1  0  0  0
  1 31  1  0  0  0
  2 16  1  0  0  0
  2 32  1  0  0  0
  2 33  1  0  0  0
  3 17  2  0  0  0
  4  5  1  0  0  0
  4 17  1  0  0  0
  4 34  1  0  0  0
  5 18  2  0  0  0
  5 20  1  0  0  0
  6  7  2  0  0  0
  6 10  1  0  0  0
  6 18  1  0  0  0
  7  8  1  0  0  0
  7 35  1  0  0  0
  8  9  2  0  0  0
  8 25  1  0  0  0
  9 19  1  0  0  0
  9 21  1  0  0  0
 10 19  2  0  0  0
 10 20  1  0  0  0
 11 12  1  0  0  0
 11 23  1  0  0  0
 11 36  1  0  0  0
 11 37  1  0  0  0
 12 24  1  0  0  0
 12 38  1  0  0  0
 12 39  1  0  0  0
 13 23  1  0  0  0
 13 24  1  0  0  0
 13 40  1  0  0  0
 13 41  1  0  0  0
 14 15  2  0  0  0
 14 25  1  0  0  0
 14 42  1  0  0  0
 15 26  1  0  0  0
 16 17  1  0  0  0
 16 43  1  0  0  0
 21 22  1  0  0  0
 22 23  1  0  0  0
 22 44  1  0  0  0
 22 45  1  0  0  0
 23 46  1  0  0  0
 25 28  2  0  0  0
 26 27  2  0  0  0
 26 47  1  0  0  0
 27 28  1  0  0  0
 28 48  1  0  0  0
M  END
> <s_m_source_file>
../4mb9_ligand.sdf

> <i_m_source_file_index>
1

> <s_epik_input>
W0NIM11bQ0gyXVtOSF1DKD1PKVtOSF1jKG4xKXNjKGMxMiluYyhjKFtjSF0yKS1jM1tjSF1uW2NIXW5bY0hdMylPW0NIMl1bQ0BASF00W0NIMl1bQ0gyXU9bQ0gyXTQ=

> <s_epik_cmdline>
J2VwaWtfYXBwJywgJy1pbWFlJywgJ2xpZ2FuZF9wcm8ubWFlJywgJy1vbWFlJywgJ2xpZ2FuZF9wcmVwLm1hZScsICctbXMnLCAnMScsICctcGgnLCAnNycsICctcGh0JywgJzAuNScsICctbnQn

> <r_lp_tautomer_probability>
1

> <r_epik_Ionization_Penalty>
  0.0022

> <r_epik_Ionization_Penalty_Charging>
  0.0000

> <r_epik_Ionization_Penalty_Neutral>
  0.0022

> <r_epik_State_Penalty>
 -0.0000

> <r_epik_Charging_Adjusted_Penalty>
0

> <i_epik_Tot_Q>
0

> <i_epik_Tot_abs_Q>
0

$$$$
