4mbc_ligand
                    3D
 Schrodinger Suite 2020-3.
 55 58  0  0  1  0            999 V2000
   19.1340   34.6860    1.8490 C   0  0  0  0  0  0
   19.6590   33.5670    1.3240 C   0  0  0  0  0  0
   19.0560   32.2220    1.5370 C   0  0  0  0  0  0
   15.6100   30.9350    4.7280 C   0  0  0  0  0  0
   14.1850   30.3800    6.3300 C   0  0  0  0  0  0
   13.0980   30.4640    7.1810 C   0  0  0  0  0  0
   12.9680   29.4170    8.0810 C   0  0  0  0  0  0
   13.9050   28.3780    8.0700 C   0  0  0  0  0  0
   15.0580   29.3040    6.4120 C   0  0  0  0  0  0
   13.7440   27.3420    9.0020 O   0  0  0  0  0  0
   13.8320   25.0160    8.7430 C   0  0  0  0  0  0
   12.0730   25.4280   10.3510 C   0  0  0  0  0  0
   11.6840   25.1510   11.7910 C   0  0  0  0  0  0
   12.4230   22.9410   11.4560 C   0  0  0  0  0  0
   10.9940   28.3290    9.1000 C   0  0  0  0  0  0
   11.5570   30.4830    9.8410 C   0  0  0  0  0  0
    9.9580   28.3490   10.0190 C   0  0  0  0  0  0
    9.7780   29.4620   10.8140 C   0  0  0  0  0  0
   11.8430   29.4210    9.0150 C   0  0  0  0  0  0
   17.3290   31.4290    3.1260 C   0  0  0  0  0  0
   12.8200   23.2740   10.0260 C   0  0  0  0  0  0
   14.6820   26.2720    8.8660 C   0  0  0  0  0  0
   10.5560   30.5600   10.7420 N   0  0  0  0  0  0
   14.5340   31.2930    5.3570 N   0  0  0  0  0  0
   14.9630   28.2610    7.2640 N   0  0  0  0  0  0
   13.2750   24.6580   10.0490 N   0  0  0  0  0  0
   16.1020   31.7310    3.7070 N   0  0  0  0  0  0
   17.6870   32.2540    2.1220 N   0  0  0  0  0  0
   18.0450   30.5200    3.4960 O   0  0  0  0  0  0
   11.3190   23.7600   11.8730 O   0  0  0  0  0  0
   16.3240   29.4320    5.2530 S   0  0  0  0  0  0
   18.2234   34.6305    2.4636 H   0  0  0  0  0  0
   19.6146   35.6581    1.6644 H   0  0  0  0  0  0
   20.5696   33.6225    0.7094 H   0  0  0  0  0  0
   18.9836   31.6959    0.5737 H   0  0  0  0  0  0
   19.6881   31.6416    2.2252 H   0  0  0  0  0  0
   12.3931   31.2947    7.1467 H   0  0  0  0  0  0
   13.0090   25.1980    8.0363 H   0  0  0  0  0  0
   14.4542   24.1867    8.3754 H   0  0  0  0  0  0
   11.2519   25.1251    9.6846 H   0  0  0  0  0  0
   12.2702   26.5028   10.2247 H   0  0  0  0  0  0
   12.5383   25.3665   12.4495 H   0  0  0  0  0  0
   10.8345   25.7913   12.0710 H   0  0  0  0  0  0
   12.1276   21.8832   11.5176 H   0  0  0  0  0  0
   13.2767   23.1228   12.1254 H   0  0  0  0  0  0
   11.1398   27.4650    8.4516 H   0  0  0  0  0  0
   12.2075   31.3538    9.7589 H   0  0  0  0  0  0
    9.2905   27.4925   10.1133 H   0  0  0  0  0  0
    8.9637   29.4528   11.5385 H   0  0  0  0  0  0
   13.6233   22.5964    9.7013 H   0  0  0  0  0  0
   11.9486   23.1525    9.3658 H   0  0  0  0  0  0
   15.2970   26.4354    7.9687 H   0  0  0  0  0  0
   15.3306   26.2379    9.7538 H   0  0  0  0  0  0
   15.5227   32.5987    3.3582 H   0  0  0  0  0  0
   16.9400   32.9628    1.7352 H   0  0  0  0  0  0
  1  2  2  0  0  0
  1 32  1  0  0  0
  1 33  1  0  0  0
  2  3  1  0  0  0
  2 34  1  0  0  0
  3 28  1  0  0  0
  3 35  1  0  0  0
  3 36  1  0  0  0
  4 24  2  0  0  0
  4 27  1  0  0  0
  4 31  1  0  0  0
  5  6  2  0  0  0
  5  9  1  0  0  0
  5 24  1  0  0  0
  6  7  1  0  0  0
  6 37  1  0  0  0
  7  8  2  0  0  0
  7 19  1  0  0  0
  8 10  1  0  0  0
  8 25  1  0  0  0
  9 25  2  0  0  0
  9 31  1  0  0  0
 10 22  1  0  0  0
 11 22  1  0  0  0
 11 26  1  0  0  0
 11 38  1  0  0  0
 11 39  1  0  0  0
 12 13  1  0  0  0
 12 26  1  0  0  0
 12 40  1  0  0  0
 12 41  1  0  0  0
 13 30  1  0  0  0
 13 42  1  0  0  0
 13 43  1  0  0  0
 14 21  1  0  0  0
 14 30  1  0  0  0
 14 44  1  0  0  0
 14 45  1  0  0  0
 15 17  2  0  0  0
 15 19  1  0  0  0
 15 46  1  0  0  0
 16 19  2  0  0  0
 16 23  1  0  0  0
 16 47  1  0  0  0
 17 18  1  0  0  0
 17 48  1  0  0  0
 18 23  2  0  0  0
 18 49  1  0  0  0
 20 27  1  0  0  0
 20 28  1  0  0  0
 20 29  2  0  0  0
 21 26  1  0  0  0
 21 50  1  0  0  0
 21 51  1  0  0  0
 22 52  1  0  0  0
 22 53  1  0  0  0
 27 54  1  0  0  0
 28 55  1  0  0  0
M  END
> <s_m_source_file>
../4mbc_ligand.sdf

> <i_m_source_file_index>
1

> <s_epik_input>
W0NIMl09W0NIXVtDSDJdW05IXUMoPU8pW05IXWMobjEpc2MoYzEyKW5jKGMoW2NIXTIpLWMzW2NIXVtjSF1bY0hdbltjSF0zKU9bQ0gyXVtDSDJdW05IK100W0NIMl1bQ0gyXU9bQ0gyXVtDSDJdNA==

> <s_epik_cmdline>
J2VwaWtfYXBwJywgJy1pbWFlJywgJ2xpZ2FuZF9wcm8ubWFlJywgJy1vbWFlJywgJ2xpZ2FuZF9wcmVwLm1hZScsICctbXMnLCAnMScsICctcGgnLCAnNycsICctcGh0JywgJzAuNScsICctbnQn

> <r_epik_Ionization_Penalty>
  0.0698

> <r_epik_Ionization_Penalty_Charging>
  0.0000

> <r_epik_Ionization_Penalty_Neutral>
  0.0698

> <r_epik_State_Penalty>
  0.0569

> <r_epik_Charging_Adjusted_Penalty>
0.0568695327243307

> <i_epik_Tot_Q>
0

> <i_epik_Tot_abs_Q>
0

$$$$
