4mbf_ligand
                    3D
 Schrodinger Suite 2020-3.
 47 46  0  0  1  0            999 V2000
   13.7680   33.0550    3.1290 O   0  0  0  0  0  0
   12.8370   33.8380    2.8850 C   0  0  0  0  0  0
   12.9960   35.0070    2.4620 O   0  5  0  0  0  0
   11.4150   33.3140    3.1860 C   0  0  0  0  0  0
   10.3130   33.9590    2.3170 C   0  0  0  0  0  0
   10.5440   33.6700    0.8270 C   0  0  0  0  0  0
    9.3910   34.2230   -0.0230 C   0  0  0  0  0  0
    9.3790   35.7510   -0.0310 C   0  0  0  0  0  0
   10.1760   36.3710   -0.7360 O   0  0  0  0  0  0
    8.4390   36.3000    0.7990 O   0  0  0  0  0  0
    8.4940   37.7140    1.0430 C   0  0  0  0  0  0
    7.3130   38.1690    1.9240 C   0  0  2  0  0  0
    6.0090   38.1270    1.1180 C   0  0  0  0  0  0
    7.6150   40.0120    2.4520 S   0  0  0  0  0  0
    8.1790   40.7000    1.2170 O   0  0  0  0  0  0
    8.7010   40.0450    3.5270 O   0  0  0  0  0  0
    7.1960   37.2800    3.1840 C   0  0  2  0  0  0
    6.0410   37.7640    4.0760 C   0  0  0  0  0  0
    6.2530   38.7500    4.8270 O   0  5  0  0  0  0
    4.9640   37.1380    4.0000 O   0  0  0  0  0  0
    8.4470   37.3520    3.9570 N   0  3  0  0  0  0
    8.7950   36.3610    4.7670 C   0  0  0  0  0  0
    7.9530   35.1230    4.8110 C   0  0  0  0  0  0
    8.5190   34.0630    5.7330 C   0  0  0  0  0  0
    9.5240   34.2010    6.4190 O   0  0  0  0  0  0
   11.3782   32.2294    3.0060 H   0  0  0  0  0  0
   11.1631   33.5201    4.2367 H   0  0  0  0  0  0
    9.3328   33.5522    2.6064 H   0  0  0  0  0  0
   10.3171   35.0485    2.4687 H   0  0  0  0  0  0
   11.4819   34.1445    0.5026 H   0  0  0  0  0  0
   10.6095   32.5832    0.6701 H   0  0  0  0  0  0
    9.4986   33.8717   -1.0598 H   0  0  0  0  0  0
    8.4324   33.8709    0.3858 H   0  0  0  0  0  0
    9.4340   37.9609    1.5582 H   0  0  0  0  0  0
    8.4481   38.2534    0.0854 H   0  0  0  0  0  0
    6.1084   38.7635    0.2264 H   0  0  0  0  0  0
    5.1808   38.4956    1.7411 H   0  0  0  0  0  0
    5.8025   37.0919    0.8084 H   0  0  0  0  0  0
    6.5041   40.5834    2.9083 H   0  0  0  0  0  0
    7.0414   36.2313    2.8901 H   0  0  0  0  0  0
    9.2997   37.4372    3.2674 H   0  0  0  0  0  0
    9.7980   36.0003    4.4952 H   0  0  0  0  0  0
    8.8045   36.7226    5.8058 H   0  0  0  0  0  0
    6.9449   35.3778    5.1698 H   0  0  0  0  0  0
    7.8846   34.6900    3.8021 H   0  0  0  0  0  0
    7.9598   33.1162    5.7609 H   0  0  0  0  0  0
    8.4200   38.2315    4.6171 H   0  0  0  0  0  0
  1  2  2  0  0  0
  2  3  1  0  0  0
  2  4  1  0  0  0
  4  5  1  0  0  0
  4 26  1  0  0  0
  4 27  1  0  0  0
  5  6  1  0  0  0
  5 28  1  0  0  0
  5 29  1  0  0  0
  6  7  1  0  0  0
  6 30  1  0  0  0
  6 31  1  0  0  0
  7  8  1  0  0  0
  7 32  1  0  0  0
  7 33  1  0  0  0
  8  9  2  0  0  0
  8 10  1  0  0  0
 10 11  1  0  0  0
 11 12  1  0  0  0
 11 34  1  0  0  0
 11 35  1  0  0  0
 12 13  1  0  0  0
 12 14  1  0  0  0
 12 17  1  0  0  0
 13 36  1  0  0  0
 13 37  1  0  0  0
 13 38  1  0  0  0
 14 15  2  0  0  0
 14 16  2  0  0  0
 14 39  1  0  0  0
 17 18  1  0  0  0
 17 21  1  0  0  0
 17 40  1  0  0  0
 18 19  1  0  0  0
 18 20  2  0  0  0
 21 22  1  0  0  0
 21 41  1  0  0  0
 21 47  1  0  0  0
 22 23  1  0  0  0
 22 42  1  0  0  0
 22 43  1  0  0  0
 23 24  1  0  0  0
 23 44  1  0  0  0
 23 45  1  0  0  0
 24 25  2  0  0  0
 24 46  1  0  0  0
M  CHG  3   3  -1  19  -1  21   1
M  END
> <s_m_source_file>
../4mbf_ligand.sdf

> <i_m_source_file_index>
1

> <s_epik_input>
Tz1DKFtPSF0pW0NIMl1bQ0gyXVtDSDJdW0NIMl1DKD1PKU9bQ0gyXVtDQF0oW0NIM10pKFtTSF0oPU8pPU8pW0NASF0oQyg9TylbT0hdKVtOSF1bQ0gyXVtDSDJdW0NIXT1P

> <s_epik_cmdline>
J2VwaWtfYXBwJywgJy1pbWFlJywgJ2xpZ2FuZF9wcm8ubWFlJywgJy1vbWFlJywgJ2xpZ2FuZF9wcmVwLm1hZScsICctbXMnLCAnMScsICctcGgnLCAnNycsICctcGh0JywgJzAuNScsICctbnQn

> <r_lp_tautomer_probability>
0.99990000499975

> <r_epik_Ionization_Penalty>
  0.1647

> <r_epik_Ionization_Penalty_Charging>
  0.1646

> <r_epik_Ionization_Penalty_Neutral>
  0.0000

> <r_epik_State_Penalty>
  0.1502

> <r_epik_Charging_Adjusted_Penalty>
0.314832041843384

> <i_epik_Tot_Q>
-1

> <i_epik_Tot_abs_Q>
3

> <s_epik_Chemistry_Notes>
This compound has an ester and may undergo hydrolysis at high or low pH.

$$$$
