4mbi_ligand
                    3D
 Schrodinger Suite 2020-3.
 38 40  0  0  1  0            999 V2000
   23.5870   32.9630   -5.0260 N   0  3  0  0  0  0
   23.6600   38.0040   -0.3540 N   0  0  0  0  0  0
   22.2440   34.8110   -4.0750 C   0  0  0  0  0  0
   22.9020   36.7940   -2.6990 C   0  0  0  0  0  0
   23.3550   38.1330   -2.6700 C   0  0  0  0  0  0
   23.7500   38.7250   -1.4760 C   0  0  0  0  0  0
   23.2120   36.7370   -0.3880 C   0  0  0  0  0  0
   22.9170   35.0480    1.4240 C   0  0  0  0  0  0
   23.7610   37.3500    1.7530 C   0  0  0  0  0  0
   23.7340   31.6320   -4.4470 C   0  0  0  0  0  0
   22.3740   33.0070   -5.8240 C   0  0  0  0  0  0
   23.5290   33.9720   -3.9900 C   0  0  0  0  0  0
   22.5520   36.2280   -3.8890 N   0  0  0  0  0  0
   22.8430   36.0900   -1.5300 N   0  0  0  0  0  0
   23.2760   36.3220    0.9390 C   0  0  0  0  0  0
   22.4430   33.9930    0.6430 C   0  0  0  0  0  0
   22.2060   32.9660    1.4880 N   0  3  0  0  0  0
   22.5430   33.4050    2.7730 N   0  0  0  0  0  0
   22.9900   34.6940    2.7670 C   0  0  0  0  0  0
   24.0200   38.4390    0.9360 N   0  0  0  0  0  0
   24.4595   33.1788   -5.6602 H   0  0  0  0  0  0
   21.7790   34.6705   -5.0619 H   0  0  0  0  0  0
   21.5434   34.4892   -3.2904 H   0  0  0  0  0  0
   23.3950   38.7080   -3.5951 H   0  0  0  0  0  0
   24.1229   39.7490   -1.4552 H   0  0  0  0  0  0
   23.9083   37.3035    2.8320 H   0  0  0  0  0  0
   23.7756   30.8842   -5.2527 H   0  0  0  0  0  0
   22.8750   31.4195   -3.7935 H   0  0  0  0  0  0
   24.6622   31.5887   -3.8583 H   0  0  0  0  0  0
   22.4237   32.2384   -6.6093 H   0  0  0  0  0  0
   22.2762   33.9995   -6.2880 H   0  0  0  0  0  0
   21.5036   32.8164   -5.1789 H   0  0  0  0  0  0
   23.5576   33.4865   -3.0033 H   0  0  0  0  0  0
   24.3893   34.6502   -4.0900 H   0  0  0  0  0  0
   22.5092   36.9172   -4.7453 H   0  0  0  0  0  0
   22.3346   34.1191   -0.4444 H   0  0  0  0  0  0
   23.2945   35.1749    3.7083 H   0  0  0  0  0  0
   21.8282   31.9440    1.3374 H   0  0  0  0  0  0
  1 10  1  0  0  0
  1 11  1  0  0  0
  1 12  1  0  0  0
  1 21  1  0  0  0
  2  6  1  0  0  0
  2  7  1  0  0  0
  2 20  1  0  0  0
  3 12  1  0  0  0
  3 13  1  0  0  0
  3 22  1  0  0  0
  3 23  1  0  0  0
  4  5  1  0  0  0
  4 13  1  0  0  0
  4 14  2  0  0  0
  5  6  2  0  0  0
  5 24  1  0  0  0
  6 25  1  0  0  0
  7 14  1  0  0  0
  7 15  2  0  0  0
  8 15  1  0  0  0
  8 16  2  0  0  0
  8 19  1  0  0  0
  9 15  1  0  0  0
  9 20  2  0  0  0
  9 26  1  0  0  0
 10 27  1  0  0  0
 10 28  1  0  0  0
 10 29  1  0  0  0
 11 30  1  0  0  0
 11 31  1  0  0  0
 11 32  1  0  0  0
 12 33  1  0  0  0
 12 34  1  0  0  0
 13 35  1  0  0  0
 16 17  1  0  0  0
 16 36  1  0  0  0
 17 18  1  0  0  0
 17 38  1  0  0  0
 18 19  2  0  0  0
 19 37  1  0  0  0
M  CHG  2   1   1  17   1
M  END
> <s_m_source_file>
../4mbi_ligand.sdf

> <i_m_source_file_index>
1

> <s_epik_input>
W0NIM11bTkgrXShbQ0gzXSlbQ0gyXVtDSDJdW05IXWMoW2NIXVtjSF0xKW5jKG4xMiljKFtjSF1uMiktYzNbY0hdW25IXW5bY0hdMw==

> <s_epik_cmdline>
J2VwaWtfYXBwJywgJy1pbWFlJywgJ2xpZ2FuZF9wcm8ubWFlJywgJy1vbWFlJywgJ2xpZ2FuZF9wcmVwLm1hZScsICctbXMnLCAnMScsICctcGgnLCAnNycsICctcGh0JywgJzAuNScsICctbnQn

> <r_epik_Ionization_Penalty>
  0.0017

> <r_epik_Ionization_Penalty_Charging>
  0.0017

> <r_epik_Ionization_Penalty_Neutral>
  0.0000

> <r_epik_State_Penalty>
  0.4107

> <r_epik_Charging_Adjusted_Penalty>
0.412408324587191

> <i_epik_Tot_Q>
2

> <i_epik_Tot_abs_Q>
2

> <s_epik_Chemistry_Notes>
This compound has an imine and may undergo hydrolysis.

$$$$
