4mbl_ligand
                    3D
 Schrodinger Suite 2020-3.
 51 55  0  0  1  0            999 V2000
   39.7570    5.3910    4.8560 N   0  3  0  0  0  0
   40.3720    4.1270    5.2870 C   0  0  1  0  0  0
   39.9930    2.9580    4.3780 C   0  0  1  0  0  0
   40.5250    1.6450    4.9470 C   0  0  0  0  0  0
   42.0520    1.6970    5.0560 C   0  0  0  0  0  0
   42.5420    2.9360    5.8480 C   0  0  0  0  0  0
   41.8880    4.2470    5.3730 C   0  0  0  0  0  0
   38.6050    2.9470    3.9740 N   0  0  0  0  0  0
   38.3500    3.0960    2.6320 C   0  0  0  0  0  0
   37.0690    3.4110    2.2050 C   0  0  0  0  0  0
   36.7920    3.4670    0.8670 C   0  0  0  0  0  0
   37.8630    3.2870    0.0070 N   0  0  0  0  0  0
   39.1270    3.0300    0.5100 C   0  0  0  0  0  0
   39.3690    2.9170    1.8110 N   0  0  0  0  0  0
   37.8410    3.4020   -1.3400 N   0  0  0  0  0  0
   39.1270    3.1090   -1.7280 C   0  0  0  0  0  0
   39.9880    2.9290   -0.6290 C   0  0  0  0  0  0
   41.4480    2.6180   -0.6650 C   0  0  0  0  0  0
   42.1340    2.5810   -1.8830 C   0  0  0  0  0  0
   43.4620    2.2620   -1.9360 C   0  0  0  0  0  0
   44.1960    1.9890   -0.7520 C   0  0  0  0  0  0
   43.5130    2.0340    0.4920 C   0  0  0  0  0  0
   42.1320    2.3590    0.5040 C   0  0  0  0  0  0
   45.5990    1.7540   -0.7480 C   0  0  0  0  0  0
   46.2620    1.5010    0.4230 C   0  0  0  0  0  0
   45.5910    1.5210    1.6320 C   0  0  0  0  0  0
   44.2410    1.7580    1.6780 C   0  0  0  0  0  0
   38.6650    5.2687    4.8049 H   0  0  0  0  0  0
   40.1421    5.6662    3.8630 H   0  0  0  0  0  0
   40.0038    6.1836    5.5777 H   0  0  0  0  0  0
   39.9545    3.9550    6.2900 H   0  0  0  0  0  0
   40.4357    3.1018    3.3813 H   0  0  0  0  0  0
   40.0978    1.4789    5.9469 H   0  0  0  0  0  0
   40.2391    0.8154    4.2837 H   0  0  0  0  0  0
   42.4135    0.7963    5.5738 H   0  0  0  0  0  0
   42.4903    1.7412    4.0481 H   0  0  0  0  0  0
   42.3017    2.8084    6.9138 H   0  0  0  0  0  0
   43.6303    3.0413    5.7275 H   0  0  0  0  0  0
   42.2931    4.4941    4.3806 H   0  0  0  0  0  0
   42.1531    5.0420    6.0856 H   0  0  0  0  0  0
   37.8137    2.8235    4.7280 H   0  0  0  0  0  0
   36.2845    3.6135    2.9342 H   0  0  0  0  0  0
   35.7821    3.6439    0.4969 H   0  0  0  0  0  0
   39.4436    3.0256   -2.7677 H   0  0  0  0  0  0
   41.6007    2.8104   -2.8056 H   0  0  0  0  0  0
   43.9650    2.2165   -2.9019 H   0  0  0  0  0  0
   41.6017    2.4048    1.4552 H   0  0  0  0  0  0
   46.1521    1.7756   -1.6870 H   0  0  0  0  0  0
   47.3295    1.2816    0.4020 H   0  0  0  0  0  0
   46.1403    1.3467    2.5572 H   0  0  0  0  0  0
   43.7218    1.7341    2.6361 H   0  0  0  0  0  0
  1  2  1  0  0  0
  1 28  1  0  0  0
  1 29  1  0  0  0
  1 30  1  0  0  0
  2  3  1  0  0  0
  2  7  1  0  0  0
  2 31  1  0  0  0
  3  4  1  0  0  0
  3  8  1  0  0  0
  3 32  1  0  0  0
  4  5  1  0  0  0
  4 33  1  0  0  0
  4 34  1  0  0  0
  5  6  1  0  0  0
  5 35  1  0  0  0
  5 36  1  0  0  0
  6  7  1  0  0  0
  6 37  1  0  0  0
  6 38  1  0  0  0
  7 39  1  0  0  0
  7 40  1  0  0  0
  8  9  1  0  0  0
  8 41  1  0  0  0
  9 10  1  0  0  0
  9 14  2  0  0  0
 10 11  2  0  0  0
 10 42  1  0  0  0
 11 12  1  0  0  0
 11 43  1  0  0  0
 12 13  1  0  0  0
 12 15  1  0  0  0
 13 14  1  0  0  0
 13 17  2  0  0  0
 15 16  2  0  0  0
 16 17  1  0  0  0
 16 44  1  0  0  0
 17 18  1  0  0  0
 18 19  2  0  0  0
 18 23  1  0  0  0
 19 20  1  0  0  0
 19 45  1  0  0  0
 20 21  2  0  0  0
 20 46  1  0  0  0
 21 22  1  0  0  0
 21 24  1  0  0  0
 22 23  2  0  0  0
 22 27  1  0  0  0
 23 47  1  0  0  0
 24 25  2  0  0  0
 24 48  1  0  0  0
 25 26  1  0  0  0
 25 49  1  0  0  0
 26 27  2  0  0  0
 26 50  1  0  0  0
 27 51  1  0  0  0
M  CHG  1   1   1
M  END
> <s_m_source_file>
../4mbl_ligand.sdf

> <i_m_source_file_index>
1

> <s_epik_input>
W0NIMl0xW0NIMl1bQ0gyXVtDSDJdW0NASF0oW0NAQEhdMVtOSDMrXSlbTkhdYyhbY0hdW2NIXTIpbmMobjIzKWMoW2NIXW4zKS1jKFtjSF1bY0hdNClbY0hdYyhjNDUpW2NIXVtjSF1bY0hdW2NIXTU=

> <s_epik_cmdline>
J2VwaWtfYXBwJywgJy1pbWFlJywgJ2xpZ2FuZF9wcm8ubWFlJywgJy1vbWFlJywgJ2xpZ2FuZF9wcmVwLm1hZScsICctbXMnLCAnMScsICctcGgnLCAnNycsICctcGh0JywgJzAuNScsICctbnQn

> <r_lp_tautomer_probability>
1

> <r_epik_Ionization_Penalty>
  0.0002

> <r_epik_Ionization_Penalty_Charging>
  0.0002

> <r_epik_Ionization_Penalty_Neutral>
  0.0000

> <r_epik_State_Penalty>
 -0.0000

> <r_epik_Charging_Adjusted_Penalty>
0.000221028742301118

> <i_epik_Tot_Q>
1

> <i_epik_Tot_abs_Q>
1

$$$$
