4mbp_ligand
                    3D
 Schrodinger Suite 2020-3.
 87 90  0  0  1  0            999 V2000
    9.7690   24.4750   40.2340 C   0  0  2  0  0  0
    8.8510   24.3510   38.9850 C   0  0  1  0  0  0
    9.6210   24.0810   37.7540 C   0  0  2  0  0  0
   10.6010   25.2840   37.5690 C   0  0  1  0  0  0
   11.4420   25.6590   38.7620 C   0  0  1  0  0  0
   11.8090   27.1020   38.5630 C   0  0  0  0  0  0
    8.0180   23.2330   39.1270 O   0  0  0  0  0  0
    8.7260   23.8070   36.6470 O   0  0  0  0  0  0
   11.6000   24.8260   36.6220 O   0  0  0  0  0  0
   10.7280   25.5230   40.0920 O   0  0  0  0  0  0
   12.5080   27.4940   39.7270 O   0  0  0  0  0  0
   11.7860   20.6510   43.4410 C   0  0  2  0  0  0
   10.6240   21.4490   43.8680 C   0  0  1  0  0  0
    9.9910   22.1520   42.6020 C   0  0  2  0  0  0
   11.0290   22.9390   41.7420 C   0  0  1  0  0  0
   12.2730   22.1290   41.5090 C   0  0  1  0  0  0
   13.5030   22.9820   41.0500 C   0  0  0  0  0  0
    9.7190   20.4990   44.4970 O   0  0  0  0  0  0
    8.9760   23.1470   42.9850 O   0  0  0  0  0  0
   10.4080   23.1840   40.4480 O   0  0  0  0  0  0
   12.6720   21.4350   42.7350 O   0  0  0  0  0  0
   14.3560   21.9910   40.5250 O   0  0  0  0  0  0
   11.8270   15.5020   41.9730 C   0  0  2  0  0  0
   11.2230   15.9680   43.3800 C   0  0  1  0  0  0
   10.7170   17.3690   43.2040 C   0  0  2  0  0  0
   11.8760   18.2890   42.7800 C   0  0  1  0  0  0
   12.5320   17.7740   41.4790 C   0  0  1  0  0  0
   13.8960   18.4540   41.2530 C   0  0  0  0  0  0
   10.1280   15.0440   43.6340 O   0  0  0  0  0  0
   10.1180   17.9470   44.5340 O   0  0  0  0  0  0
   11.3110   19.5910   42.5640 O   0  0  0  0  0  0
   12.8380   16.4190   41.5810 O   0  0  0  0  0  0
   14.2380   18.0360   39.7960 O   0  0  0  0  0  0
    9.0230   13.0360   38.0450 C   0  0  1  0  0  0
    9.2270   12.4600   39.6130 C   0  0  1  0  0  0
    9.4290   13.5370   40.5980 C   0  0  2  0  0  0
   10.5120   14.4930   40.2080 C   0  0  1  0  0  0
   10.2640   15.1240   38.7320 C   0  0  1  0  0  0
   11.5610   15.8780   38.2510 C   0  0  0  0  0  0
    7.9070   13.9670   38.0220 O   0  0  0  0  0  0
    8.0160   11.7690   39.8340 O   0  0  0  0  0  0
    9.8620   13.0090   41.9460 O   0  0  0  0  0  0
   10.7120   15.5950   41.0970 O   0  0  0  0  0  0
   10.0180   14.0260   37.9230 O   0  0  0  0  0  0
   11.0910   16.4510   37.0520 O   0  0  0  0  0  0
    9.2377   24.7617   41.1535 H   0  0  0  0  0  0
    8.2380   25.2572   38.8703 H   0  0  0  0  0  0
   10.1661   23.1268   37.8025 H   0  0  0  0  0  0
   10.0120   26.1648   37.2738 H   0  0  0  0  0  0
   12.3067   24.9806   38.8071 H   0  0  0  0  0  0
   12.4424   27.1993   37.6690 H   0  0  0  0  0  0
   10.8941   27.6982   38.4308 H   0  0  0  0  0  0
    7.3236   23.1690   39.9777 H   0  0  0  0  0  0
    8.0103   22.9741   36.7115 H   0  0  0  0  0  0
   11.2933   24.4748   35.6257 H   0  0  0  0  0  0
   12.8859   28.5227   39.8214 H   0  0  0  0  0  0
   12.3464   20.2615   44.3037 H   0  0  0  0  0  0
   10.8929   22.1964   44.6290 H   0  0  0  0  0  0
    9.5064   21.3549   42.0191 H   0  0  0  0  0  0
   11.3209   23.8901   42.2112 H   0  0  0  0  0  0
   11.9799   21.3912   40.7476 H   0  0  0  0  0  0
   13.1792   23.7180   40.2993 H   0  0  0  0  0  0
   13.9297   23.5066   41.9176 H   0  0  0  0  0  0
   10.0400   19.9417   45.3894 H   0  0  0  0  0  0
    8.1182   22.8470   43.6048 H   0  0  0  0  0  0
   15.3343   22.2720   40.1080 H   0  0  0  0  0  0
   12.3010   14.5138   41.8799 H   0  0  0  0  0  0
   11.8831   15.9607   44.2599 H   0  0  0  0  0  0
    9.9466   17.2989   42.4220 H   0  0  0  0  0  0
   12.6419   18.3844   43.5638 H   0  0  0  0  0  0
   11.8178   17.8867   40.6500 H   0  0  0  0  0  0
   13.7874   19.5421   41.3720 H   0  0  0  0  0  0
   14.6209   18.0752   41.9885 H   0  0  0  0  0  0
   10.3349   13.9743   43.7857 H   0  0  0  0  0  0
    9.2706   17.4419   45.0207 H   0  0  0  0  0  0
   15.1765   18.3745   39.3326 H   0  0  0  0  0  0
    8.9764   12.2811   37.2463 H   0  0  0  0  0  0
   10.0662   11.7944   39.8635 H   0  0  0  0  0  0
    8.4429   14.0240   40.6183 H   0  0  0  0  0  0
   11.4095   13.8764   40.3643 H   0  0  0  0  0  0
    9.3900   15.7800   38.6068 H   0  0  0  0  0  0
   11.8582   16.6169   39.0098 H   0  0  0  0  0  0
   12.3750   15.1523   38.1073 H   0  0  0  0  0  0
    6.8758   13.5915   38.0975 H   0  0  0  0  0  0
    7.7298   10.9362   39.1749 H   0  0  0  0  0  0
    9.2378   12.2738   42.4751 H   0  0  0  0  0  0
   11.7629   17.0673   36.4366 H   0  0  0  0  0  0
  1  2  1  0  0  0
  1 10  1  0  0  0
  1 20  1  0  0  0
  1 46  1  0  0  0
  2  3  1  0  0  0
  2  7  1  0  0  0
  2 47  1  0  0  0
  3  4  1  0  0  0
  3  8  1  0  0  0
  3 48  1  0  0  0
  4  5  1  0  0  0
  4  9  1  0  0  0
  4 49  1  0  0  0
  5  6  1  0  0  0
  5 10  1  0  0  0
  5 50  1  0  0  0
  6 11  1  0  0  0
  6 51  1  0  0  0
  6 52  1  0  0  0
  7 53  1  0  0  0
  8 54  1  0  0  0
  9 55  1  0  0  0
 11 56  1  0  0  0
 12 13  1  0  0  0
 12 21  1  0  0  0
 12 31  1  0  0  0
 12 57  1  0  0  0
 13 14  1  0  0  0
 13 18  1  0  0  0
 13 58  1  0  0  0
 14 15  1  0  0  0
 14 19  1  0  0  0
 14 59  1  0  0  0
 15 16  1  0  0  0
 15 20  1  0  0  0
 15 60  1  0  0  0
 16 17  1  0  0  0
 16 21  1  0  0  0
 16 61  1  0  0  0
 17 22  1  0  0  0
 17 62  1  0  0  0
 17 63  1  0  0  0
 18 64  1  0  0  0
 19 65  1  0  0  0
 22 66  1  0  0  0
 23 24  1  0  0  0
 23 32  1  0  0  0
 23 43  1  0  0  0
 23 67  1  0  0  0
 24 25  1  0  0  0
 24 29  1  0  0  0
 24 68  1  0  0  0
 25 26  1  0  0  0
 25 30  1  0  0  0
 25 69  1  0  0  0
 26 27  1  0  0  0
 26 31  1  0  0  0
 26 70  1  0  0  0
 27 28  1  0  0  0
 27 32  1  0  0  0
 27 71  1  0  0  0
 28 33  1  0  0  0
 28 72  1  0  0  0
 28 73  1  0  0  0
 29 74  1  0  0  0
 30 75  1  0  0  0
 33 76  1  0  0  0
 34 35  1  0  0  0
 34 40  1  0  0  0
 34 44  1  0  0  0
 34 77  1  0  0  0
 35 36  1  0  0  0
 35 41  1  0  0  0
 35 78  1  0  0  0
 36 37  1  0  0  0
 36 42  1  0  0  0
 36 79  1  0  0  0
 37 38  1  0  0  0
 37 43  1  0  0  0
 37 80  1  0  0  0
 38 39  1  0  0  0
 38 44  1  0  0  0
 38 81  1  0  0  0
 39 45  1  0  0  0
 39 82  1  0  0  0
 39 83  1  0  0  0
 40 84  1  0  0  0
 41 85  1  0  0  0
 42 86  1  0  0  0
 45 87  1  0  0  0
M  END
> <s_m_source_file>
../4mbp_ligand.sdf

> <i_m_source_file_index>
1

> <s_epik_input>
W09IXVtDSDJdW0NAQEhdKE8xKVtDQEBIXShbT0hdKVtDQEhdKFtPSF0pW0NAQEhdKFtPSF0pW0NASF0xT1tDQEhdKFtDQEhdKE8yKVtDSDJdW09IXSlbQ0BIXShbT0hdKVtDQEBIXShbT0hdKVtDQEhdMk9bQ0BIXShbQ0BIXShPMylbQ0gyXVtPSF0pW0NASF0oW09IXSlbQ0BASF0oW09IXSlbQ0BIXTNPW0NASF0oW0NASF0oTzQpW0NIMl1bT0hdKVtDQEhdKFtPSF0pW0NAQEhdKFtPSF0pW0NASF00W09IXQ==

> <s_epik_cmdline>
J2VwaWtfYXBwJywgJy1pbWFlJywgJ2xpZ2FuZF9wcm8ubWFlJywgJy1vbWFlJywgJ2xpZ2FuZF9wcmVwLm1hZScsICctbXMnLCAnMScsICctcGgnLCAnNycsICctcGh0JywgJzAuNScsICctbnQn

> <r_lp_tautomer_probability>
1

> <r_epik_Ionization_Penalty>
  0.0000

> <r_epik_Ionization_Penalty_Charging>
  0.0000

> <r_epik_Ionization_Penalty_Neutral>
  0.0000

> <r_epik_State_Penalty>
 -0.0000

> <r_epik_Charging_Adjusted_Penalty>
0

> <i_epik_Tot_Q>
0

> <i_epik_Tot_abs_Q>
0

> <s_epik_Chemistry_Notes>
This compound contains an acetal/aminal-like group ( X-CH(R)-Y where X, Y are N, S, or O) that may be acid/base labile, releasing an aldehyde.

$$$$
