4mc6_ligand
                    3D
 Schrodinger Suite 2020-3.
 74 76  0  0  1  0            999 V2000
   16.4920   18.5950    2.0500 C   0  0  0  0  0  0
   17.5330   18.3370    2.9130 C   0  0  0  0  0  0
   17.4780   18.6460    4.2530 C   0  0  0  0  0  0
   16.3480   19.2520    4.7690 C   0  0  0  0  0  0
   15.3110   19.5010    3.8860 C   0  0  0  0  0  0
   15.3550   19.1930    2.5410 C   0  0  0  0  0  0
   18.6330   17.7450    2.4370 F   0  0  0  0  0  0
   16.3240   19.5540    6.2360 C   0  0  0  0  0  0
   13.8050   20.2250    4.4860 S   0  0  0  0  0  0
   14.2750   21.6480    5.2320 N   0  0  2  0  0  0
   12.9650   20.5140    3.3480 O   0  0  0  0  0  0
   13.3040   19.3570    5.5350 O   0  0  0  0  0  0
   14.5460   22.8170    4.3920 C   0  0  0  0  0  0
   14.8730   21.5700    6.5710 C   0  0  0  0  0  0
   16.2970   21.0290    6.5780 C   0  0  1  0  0  0
   16.8300   21.1790    7.9960 C   0  0  0  0  0  0
   13.5700   23.9350    4.7040 C   0  0  2  0  0  0
   12.0780   23.6780    4.4250 C   0  0  1  0  0  0
   14.0110   25.1310    4.0760 O   0  0  0  0  0  0
   11.2800   24.6640    5.1420 N   0  0  0  0  0  0
   11.6820   23.6160    2.9490 C   0  0  0  0  0  0
   10.2220   23.3370    2.8100 C   0  0  0  0  0  0
    9.7630   22.0470    3.0020 C   0  0  0  0  0  0
    8.4130   21.7790    2.9200 C   0  0  0  0  0  0
    7.5330   22.8030    2.6410 C   0  0  0  0  0  0
    7.9890   24.0830    2.4310 C   0  0  0  0  0  0
    9.3380   24.3570    2.5030 C   0  0  0  0  0  0
   10.8710   24.4500    6.4440 C   0  0  0  0  0  0
   10.1040   25.4830    6.9590 N   0  0  0  0  0  0
   11.2060   23.4730    7.0930 O   0  0  0  0  0  0
    9.6650   25.5920    8.3300 C   0  0  0  0  0  0
    8.6780   24.5010    8.6990 C   0  0  0  0  0  0
   10.8370   25.5440    9.2860 C   0  0  0  0  0  0
   18.3340   21.1220    8.1120 C   0  0  0  0  0  0
   16.4260   22.4820    8.6180 C   0  0  0  0  0  0
    9.0150   26.9570    8.4690 C   0  0  0  0  0  0
   16.5676   18.3298    0.9954 H   0  0  0  0  0  0
   18.3210   18.4141    4.9038 H   0  0  0  0  0  0
   14.5125   19.4174    1.8868 H   0  0  0  0  0  0
   15.4265   19.1064    6.6878 H   0  0  0  0  0  0
   17.2224   19.1338    6.7116 H   0  0  0  0  0  0
   15.5693   23.1741    4.5798 H   0  0  0  0  0  0
   14.4433   22.5391    3.3327 H   0  0  0  0  0  0
   14.9033   22.5746    7.0181 H   0  0  0  0  0  0
   14.2680   20.9048    7.2046 H   0  0  0  0  0  0
   16.8976   21.5740    5.8349 H   0  0  0  0  0  0
   16.3873   20.3233    8.5269 H   0  0  0  0  0  0
   13.6368   24.0945    5.7903 H   0  0  0  0  0  0
   11.8276   22.6857    4.8283 H   0  0  0  0  0  0
   15.0573   25.4539    4.1811 H   0  0  0  0  0  0
   10.9907   25.6027    4.6469 H   0  0  0  0  0  0
   11.9090   24.5787    2.4677 H   0  0  0  0  0  0
   12.2476   22.8148    2.4509 H   0  0  0  0  0  0
   10.4671   21.2434    3.2178 H   0  0  0  0  0  0
    8.0442   20.7650    3.0746 H   0  0  0  0  0  0
    6.4643   22.5956    2.5863 H   0  0  0  0  0  0
    7.2826   24.8824    2.2072 H   0  0  0  0  0  0
    9.7050   25.3669    2.3200 H   0  0  0  0  0  0
    9.8304   26.2604    6.2304 H   0  0  0  0  0  0
    9.1614   23.5185    8.5940 H   0  0  0  0  0  0
    7.8060   24.5540    8.0305 H   0  0  0  0  0  0
    8.3508   24.6393    9.7401 H   0  0  0  0  0  0
   11.3321   24.5646    9.2103 H   0  0  0  0  0  0
   10.4775   25.6946   10.3146 H   0  0  0  0  0  0
   11.5533   26.3379    9.0280 H   0  0  0  0  0  0
   18.7004   20.1832    7.6711 H   0  0  0  0  0  0
   18.6218   21.1658    9.1728 H   0  0  0  0  0  0
   18.7756   21.9754    7.5766 H   0  0  0  0  0  0
   15.3324   22.5892    8.5670 H   0  0  0  0  0  0
   16.9015   23.3112    8.0736 H   0  0  0  0  0  0
   16.7477   22.5016    9.6697 H   0  0  0  0  0  0
    8.1562   27.0255    7.7851 H   0  0  0  0  0  0
    9.7469   27.7389    8.2180 H   0  0  0  0  0  0
    8.6710   27.0956    9.5046 H   0  0  0  0  0  0
  1  2  2  0  0  0
  1  6  1  0  0  0
  1 37  1  0  0  0
  2  3  1  0  0  0
  2  7  1  0  0  0
  3  4  2  0  0  0
  3 38  1  0  0  0
  4  5  1  0  0  0
  4  8  1  0  0  0
  5  6  2  0  0  0
  5  9  1  0  0  0
  6 39  1  0  0  0
  8 15  1  0  0  0
  8 40  1  0  0  0
  8 41  1  0  0  0
  9 10  1  0  0  0
  9 11  2  0  0  0
  9 12  2  0  0  0
 10 13  1  0  0  0
 10 14  1  0  0  0
 13 17  1  0  0  0
 13 42  1  0  0  0
 13 43  1  0  0  0
 14 15  1  0  0  0
 14 44  1  0  0  0
 14 45  1  0  0  0
 15 16  1  0  0  0
 15 46  1  0  0  0
 16 34  1  0  0  0
 16 35  1  0  0  0
 16 47  1  0  0  0
 17 18  1  0  0  0
 17 19  1  0  0  0
 17 48  1  0  0  0
 18 20  1  0  0  0
 18 21  1  0  0  0
 18 49  1  0  0  0
 19 50  1  0  0  0
 20 28  1  0  0  0
 20 51  1  0  0  0
 21 22  1  0  0  0
 21 52  1  0  0  0
 21 53  1  0  0  0
 22 23  2  0  0  0
 22 27  1  0  0  0
 23 24  1  0  0  0
 23 54  1  0  0  0
 24 25  2  0  0  0
 24 55  1  0  0  0
 25 26  1  0  0  0
 25 56  1  0  0  0
 26 27  2  0  0  0
 26 57  1  0  0  0
 27 58  1  0  0  0
 28 29  1  0  0  0
 28 30  2  0  0  0
 29 31  1  0  0  0
 29 59  1  0  0  0
 31 32  1  0  0  0
 31 33  1  0  0  0
 31 36  1  0  0  0
 32 60  1  0  0  0
 32 61  1  0  0  0
 32 62  1  0  0  0
 33 63  1  0  0  0
 33 64  1  0  0  0
 33 65  1  0  0  0
 34 66  1  0  0  0
 34 67  1  0  0  0
 34 68  1  0  0  0
 35 69  1  0  0  0
 35 70  1  0  0  0
 35 71  1  0  0  0
 36 72  1  0  0  0
 36 73  1  0  0  0
 36 74  1  0  0  0
M  END
> <s_m_source_file>
../4mc6_ligand.sdf

> <i_m_source_file_index>
1

> <s_epik_input>
W2NIXTFjKEYpW2NIXVtjSF1jKGMxMilTKD1PKSg9TylOKFtDSDJdW0NASF0oW0NIMl0yKVtDSF0oW0NIM10pW0NIM10pW0NIMl1bQ0BASF0oW09IXSlbQ0BASF0oW05IXUMoPU8pW05IXUMoW0NIM10pKFtDSDNdKVtDSDNdKVtDSDJdYzNbY0hdW2NIXVtjSF1bY0hdW2NIXTM=

> <s_epik_cmdline>
J2VwaWtfYXBwJywgJy1pbWFlJywgJ2xpZ2FuZF9wcm8ubWFlJywgJy1vbWFlJywgJ2xpZ2FuZF9wcmVwLm1hZScsICctbXMnLCAnMScsICctcGgnLCAnNycsICctcGh0JywgJzAuNScsICctbnQn

> <r_lp_tautomer_probability>
1

> <r_epik_Ionization_Penalty>
  0.0001

> <r_epik_Ionization_Penalty_Charging>
  0.0000

> <r_epik_Ionization_Penalty_Neutral>
  0.0001

> <r_epik_State_Penalty>
 -0.0000

> <r_epik_Charging_Adjusted_Penalty>
0

> <i_epik_Tot_Q>
0

> <i_epik_Tot_abs_Q>
0

$$$$
