4mc9_ligand
                    3D
 Schrodinger Suite 2020-3.
 72 75  0  0  1  0            999 V2000
    9.4360   27.2540    8.5980 C   0  0  0  0  0  0
    8.4730   27.5790    7.6740 C   0  0  0  0  0  0
    8.1870   26.7580    6.6040 C   0  0  0  0  0  0
    8.8990   25.5920    6.3930 C   0  0  0  0  0  0
    9.8600   25.2800    7.3350 C   0  0  0  0  0  0
   10.1230   26.0760    8.4300 C   0  0  0  0  0  0
    7.8030   28.7260    7.8440 F   0  0  0  0  0  0
    8.5680   24.7330    5.2020 C   0  0  0  0  0  0
   10.7830   23.7730    7.2050 S   0  0  0  0  0  0
   11.5110   23.8150    5.6950 N   0  0  2  0  0  0
   11.8160   23.7470    8.2040 O   0  0  0  0  0  0
    9.8380   22.6760    7.1680 O   0  0  0  0  0  0
   12.7250   24.6300    5.5540 C   0  0  0  0  0  0
   10.6590   23.5270    4.5280 C   0  0  0  0  0  0
    9.6710   24.6260    4.1650 C   0  0  1  0  0  0
    9.1220   24.2520    2.7950 C   0  0  0  0  0  0
   13.8810   23.7570    5.1020 C   0  0  2  0  0  0
   14.3230   22.6620    6.0650 C   0  0  1  0  0  0
   14.9900   24.5700    4.7700 O   0  0  0  0  0  0
   15.1640   21.7420    5.3260 N   0  0  0  0  0  0
   15.0240   23.1500    7.3290 C   0  0  0  0  0  0
   15.3440   22.0020    8.2180 C   0  0  0  0  0  0
   14.3760   21.4510    9.0400 C   0  0  0  0  0  0
   14.6870   20.3660    9.8320 C   0  0  0  0  0  0
   15.9500   19.8230    9.7880 C   0  0  0  0  0  0
   16.9180   20.3760    8.9800 C   0  0  0  0  0  0
   16.6240   21.4780    8.1970 C   0  0  0  0  0  0
   14.7410   20.5070    4.8990 C   0  0  0  0  0  0
   15.8010   19.9100    4.2640 O   0  0  0  0  0  0
   13.6280   20.0230    5.0550 O   0  0  0  0  0  0
   15.5360   18.6530    3.6460 C   0  0  2  0  0  0
   16.8900   18.0500    3.3940 C   0  0  0  0  0  0
   17.2470   18.4760    2.0870 O   0  0  0  0  0  0
   16.0600   18.4310    1.3190 C   0  0  0  0  0  0
   14.9820   18.9000    2.2630 C   0  0  0  0  0  0
    8.1030   25.1890    2.1910 C   0  0  0  0  0  0
   10.2660   24.1890    1.8220 C   0  0  0  0  0  0
    9.6491   27.9119    9.4405 H   0  0  0  0  0  0
    7.3883   27.0321    5.9148 H   0  0  0  0  0  0
   10.8733   25.7717    9.1597 H   0  0  0  0  0  0
    8.3498   23.7086    5.5381 H   0  0  0  0  0  0
    7.6881   25.1448    4.6861 H   0  0  0  0  0  0
   12.5520   25.4194    4.8077 H   0  0  0  0  0  0
   12.9730   25.0890    6.5224 H   0  0  0  0  0  0
   11.2918   23.3677    3.6424 H   0  0  0  0  0  0
   10.0652   22.6216    4.7220 H   0  0  0  0  0  0
   10.1518   25.6151    4.1433 H   0  0  0  0  0  0
    8.6048   23.2943    2.9539 H   0  0  0  0  0  0
   13.5456   23.2552    4.1824 H   0  0  0  0  0  0
   13.4313   22.1246    6.4201 H   0  0  0  0  0  0
   14.8634   25.4184    4.0814 H   0  0  0  0  0  0
   16.1994   22.0200    5.0798 H   0  0  0  0  0  0
   15.9577   23.6633    7.0555 H   0  0  0  0  0  0
   14.3658   23.8481    7.8671 H   0  0  0  0  0  0
   13.3714   21.8734    9.0611 H   0  0  0  0  0  0
   13.9325   19.9389   10.4925 H   0  0  0  0  0  0
   16.1859   18.9498   10.3963 H   0  0  0  0  0  0
   17.9186   19.9444    8.9572 H   0  0  0  0  0  0
   17.3932   21.9288    7.5699 H   0  0  0  0  0  0
   14.8574   18.0789    4.2940 H   0  0  0  0  0  0
   17.6012   18.4175    4.1484 H   0  0  0  0  0  0
   16.8211   16.9540    3.4583 H   0  0  0  0  0  0
   16.1610   19.0960    0.4486 H   0  0  0  0  0  0
   15.8846   17.4010    0.9751 H   0  0  0  0  0  0
   14.0520   18.3271    2.1329 H   0  0  0  0  0  0
   14.7724   19.9726    2.1381 H   0  0  0  0  0  0
    7.2379   25.2736    2.8651 H   0  0  0  0  0  0
    7.7731   24.7944    1.2187 H   0  0  0  0  0  0
    8.5560   26.1813    2.0494 H   0  0  0  0  0  0
   11.0433   23.5160    2.2130 H   0  0  0  0  0  0
   10.6874   25.1959    1.6858 H   0  0  0  0  0  0
    9.9045   23.8090    0.8551 H   0  0  0  0  0  0
  1  2  2  0  0  0
  1  6  1  0  0  0
  1 38  1  0  0  0
  2  3  1  0  0  0
  2  7  1  0  0  0
  3  4  2  0  0  0
  3 39  1  0  0  0
  4  5  1  0  0  0
  4  8  1  0  0  0
  5  6  2  0  0  0
  5  9  1  0  0  0
  6 40  1  0  0  0
  8 15  1  0  0  0
  8 41  1  0  0  0
  8 42  1  0  0  0
  9 10  1  0  0  0
  9 11  2  0  0  0
  9 12  2  0  0  0
 10 13  1  0  0  0
 10 14  1  0  0  0
 13 17  1  0  0  0
 13 43  1  0  0  0
 13 44  1  0  0  0
 14 15  1  0  0  0
 14 45  1  0  0  0
 14 46  1  0  0  0
 15 16  1  0  0  0
 15 47  1  0  0  0
 16 36  1  0  0  0
 16 37  1  0  0  0
 16 48  1  0  0  0
 17 18  1  0  0  0
 17 19  1  0  0  0
 17 49  1  0  0  0
 18 20  1  0  0  0
 18 21  1  0  0  0
 18 50  1  0  0  0
 19 51  1  0  0  0
 20 28  1  0  0  0
 20 52  1  0  0  0
 21 22  1  0  0  0
 21 53  1  0  0  0
 21 54  1  0  0  0
 22 23  2  0  0  0
 22 27  1  0  0  0
 23 24  1  0  0  0
 23 55  1  0  0  0
 24 25  2  0  0  0
 24 56  1  0  0  0
 25 26  1  0  0  0
 25 57  1  0  0  0
 26 27  2  0  0  0
 26 58  1  0  0  0
 27 59  1  0  0  0
 28 29  1  0  0  0
 28 30  2  0  0  0
 29 31  1  0  0  0
 31 32  1  0  0  0
 31 35  1  0  0  0
 31 60  1  0  0  0
 32 33  1  0  0  0
 32 61  1  0  0  0
 32 62  1  0  0  0
 33 34  1  0  0  0
 34 35  1  0  0  0
 34 63  1  0  0  0
 34 64  1  0  0  0
 35 65  1  0  0  0
 35 66  1  0  0  0
 36 67  1  0  0  0
 36 68  1  0  0  0
 36 69  1  0  0  0
 37 70  1  0  0  0
 37 71  1  0  0  0
 37 72  1  0  0  0
M  END
> <s_m_source_file>
../4mc9_ligand.sdf

> <i_m_source_file_index>
1

> <s_epik_input>
W2NIXTFjKEYpW2NIXVtjSF1jKGMxMilTKD1PKSg9TylOKFtDSDJdW0NASF0oW0NIMl0yKVtDSF0oW0NIM10pW0NIM10pW0NIMl1bQ0BASF0oW09IXSlbQ0BIXShbQ0gyXWMzW2NIXVtjSF1bY0hdW2NIXVtjSF0zKVtOSF1DKD1PKU9bQ0BASF00W0NIMl1PW0NIMl1bQ0gyXTQ=

> <s_epik_cmdline>
J2VwaWtfYXBwJywgJy1pbWFlJywgJ2xpZ2FuZF9wcm8ubWFlJywgJy1vbWFlJywgJ2xpZ2FuZF9wcmVwLm1hZScsICctbXMnLCAnMScsICctcGgnLCAnNycsICctcGh0JywgJzAuNScsICctbnQn

> <r_lp_tautomer_probability>
1

> <r_epik_Ionization_Penalty>
  0.0000

> <r_epik_Ionization_Penalty_Charging>
  0.0000

> <r_epik_Ionization_Penalty_Neutral>
  0.0000

> <r_epik_State_Penalty>
 -0.0000

> <r_epik_Charging_Adjusted_Penalty>
0

> <i_epik_Tot_Q>
0

> <i_epik_Tot_abs_Q>
0

> <s_epik_Chemistry_Notes>
This compound has an ester and may undergo hydrolysis at high or low pH.

$$$$
