4mcb_ligand
                    3D
 Schrodinger Suite 2020-3.
 46 49  0  0  1  0            999 V2000
   25.1930   44.2490   -2.5680 C   0  0  0  0  0  0
   23.6750   42.8880   -3.8210 C   0  0  0  0  0  0
   26.2580   43.5300   -3.0800 C   0  0  0  0  0  0
   24.7430   42.1550   -4.3160 C   0  0  0  0  0  0
   28.1150   38.6900   -8.6670 C   0  0  0  0  0  0
   28.1880   37.9490   -7.5100 C   0  0  0  0  0  0
   20.7320   42.9490    1.6530 C   0  0  0  0  0  0
   20.2110   41.6750   -0.1930 C   0  0  0  0  0  0
   20.8860   42.8430    0.2890 C   0  0  0  0  0  0
   23.8970   43.9380   -2.9510 C   0  0  0  0  0  0
   26.0370   42.4830   -3.9640 C   0  0  0  0  0  0
   19.5810   40.9840    0.8310 C   0  0  0  0  0  0
   28.4870   40.1180   -7.1160 C   0  0  0  0  0  0
   18.7750   39.3570   -0.4630 C   0  0  0  0  0  0
   20.0810   41.1260   -1.5360 C   0  0  0  0  0  0
   21.6720   43.8880   -0.3510 C   0  0  0  0  0  0
   22.7400   44.7020   -2.3960 C   0  0  0  0  0  0
   27.1800   41.6800   -4.5210 C   0  0  0  0  0  0
   28.7280   41.3440   -6.3280 C   0  0  0  0  0  0
   28.2990   40.0290   -8.4170 N   0  0  0  0  0  0
   18.8630   39.8370    0.7390 N   0  0  0  0  0  0
   28.4280   38.8790   -6.5360 N   0  3  0  0  0  0
   19.3540   39.9540   -1.5690 N   0  0  0  0  0  0
   21.8120   43.8280   -1.7050 N   0  0  0  0  0  0
   27.5010   42.0200   -5.9030 N   0  0  1  0  0  0
   20.5660   41.6140   -2.5490 O   0  0  0  0  0  0
   22.1960   44.7710    0.3220 O   0  0  0  0  0  0
   19.8250   41.6980    2.3820 S   0  0  0  0  0  0
   25.3726   45.0606   -1.8630 H   0  0  0  0  0  0
   22.6575   42.6350   -4.1191 H   0  0  0  0  0  0
   27.2761   43.7870   -2.7877 H   0  0  0  0  0  0
   24.5599   41.3154   -4.9866 H   0  0  0  0  0  0
   27.9291   38.1905   -9.6292 H   0  0  0  0  0  0
   28.0575   36.8574   -7.5468 H   0  0  0  0  0  0
   21.1582   43.7720    2.2267 H   0  0  0  0  0  0
   18.2147   38.4336   -0.6097 H   0  0  0  0  0  0
   23.1063   45.4558   -1.6835 H   0  0  0  0  0  0
   22.2039   45.2024   -3.2158 H   0  0  0  0  0  0
   28.0819   41.8580   -3.9169 H   0  0  0  0  0  0
   26.9249   40.6104   -4.4925 H   0  0  0  0  0  0
   29.2941   41.0906   -5.4196 H   0  0  0  0  0  0
   29.3047   42.0604   -6.9315 H   0  0  0  0  0  0
   19.2492   39.4916   -2.5616 H   0  0  0  0  0  0
   21.2099   43.1047   -2.2744 H   0  0  0  0  0  0
   26.6756   41.7062   -6.5590 H   0  0  0  0  0  0
   28.5378   38.5624   -5.4883 H   0  0  0  0  0  0
  1  3  2  0  0  0
  1 10  1  0  0  0
  1 29  1  0  0  0
  2  4  1  0  0  0
  2 10  2  0  0  0
  2 30  1  0  0  0
  3 11  1  0  0  0
  3 31  1  0  0  0
  4 11  2  0  0  0
  4 32  1  0  0  0
  5  6  2  0  0  0
  5 20  1  0  0  0
  5 33  1  0  0  0
  6 22  1  0  0  0
  6 34  1  0  0  0
  7  9  2  0  0  0
  7 28  1  0  0  0
  7 35  1  0  0  0
  8  9  1  0  0  0
  8 12  2  0  0  0
  8 15  1  0  0  0
  9 16  1  0  0  0
 10 17  1  0  0  0
 11 18  1  0  0  0
 12 21  1  0  0  0
 12 28  1  0  0  0
 13 19  1  0  0  0
 13 20  2  0  0  0
 13 22  1  0  0  0
 14 21  2  0  0  0
 14 23  1  0  0  0
 14 36  1  0  0  0
 15 23  1  0  0  0
 15 26  2  0  0  0
 16 24  1  0  0  0
 16 27  2  0  0  0
 17 24  1  0  0  0
 17 37  1  0  0  0
 17 38  1  0  0  0
 18 25  1  0  0  0
 18 39  1  0  0  0
 18 40  1  0  0  0
 19 25  1  0  0  0
 19 41  1  0  0  0
 19 42  1  0  0  0
 22 46  1  0  0  0
 23 43  1  0  0  0
 24 44  1  0  0  0
 25 45  1  0  0  0
M  CHG  1  22   1
M  END
> <s_m_source_file>
../4mcb_ligand.sdf

> <i_m_source_file_index>
1

> <s_epik_input>
W25IXTFbY0hdW2NIXW5jMVtDSDJdW05IMitdW0NIMl1jKFtjSF1bY0hdMilbY0hdW2NIXWMyW0NIMl1bTkhdQyg9TyljM1tjSF1zYyhjMzQpbltjSF1bbkhdYzQ9Tw==

> <s_epik_cmdline>
J2VwaWtfYXBwJywgJy1pbWFlJywgJ2xpZ2FuZF9wcm8ubWFlJywgJy1vbWFlJywgJ2xpZ2FuZF9wcmVwLm1hZScsICctbXMnLCAnMScsICctcGgnLCAnNycsICctcGh0JywgJzAuNScsICctbnQn

> <r_lp_tautomer_probability>
1

> <r_epik_Ionization_Penalty>
  0.1082

> <r_epik_Ionization_Penalty_Charging>
  0.0194

> <r_epik_Ionization_Penalty_Neutral>
  0.0888

> <r_epik_State_Penalty>
 -0.0000

> <r_epik_Charging_Adjusted_Penalty>
0.0193967223514853

> <i_epik_Tot_Q>
1

> <i_epik_Tot_abs_Q>
1

> <s_epik_Chemistry_Notes>
This compound has an imine and may undergo hydrolysis.

$$$$
