4mcc_ligand
                    3D
 Schrodinger Suite 2020-3.
 37 39  0  0  1  0            999 V2000
   26.0490   44.0170   -2.6800 C   0  0  0  0  0  0
   24.8010   42.6790   -4.2150 C   0  0  0  0  0  0
   24.8810   44.6340   -2.2740 C   0  0  0  0  0  0
   23.6310   43.3060   -3.8180 C   0  0  0  0  0  0
   20.6260   43.0660    1.6230 C   0  0  0  0  0  0
   20.0600   41.8340   -0.2450 C   0  0  0  0  0  0
   20.7440   42.9860    0.2550 C   0  0  0  0  0  0
   26.0120   43.0410   -3.6560 C   0  0  0  0  0  0
   23.6710   44.2850   -2.8480 C   0  0  0  0  0  0
   19.4490   41.1130    0.7680 C   0  0  0  0  0  0
   18.6370   39.5260   -0.5500 C   0  0  0  0  0  0
   19.9160   41.3310   -1.5970 C   0  0  0  0  0  0
   21.4930   44.0430   -0.3810 C   0  0  0  0  0  0
   27.2850   42.3670   -4.0650 C   0  0  0  0  0  0
   22.4190   44.9510   -2.3860 C   0  0  0  0  0  0
   18.7300   39.9730    0.6640 N   0  0  0  0  0  0
   19.2020   40.1520   -1.6550 N   0  0  0  0  0  0
   27.5210   42.3620   -5.5030 N   0  3  0  0  0  0
   21.5760   43.9930   -1.7090 N   0  0  0  0  0  0
   20.3850   41.8650   -2.5920 O   0  0  0  0  0  0
   21.9910   44.9340    0.3080 O   0  0  0  0  0  0
   19.7270   41.7960    2.3240 S   0  0  0  0  0  0
   27.0000   44.3010   -2.2295 H   0  0  0  0  0  0
   24.7662   41.8959   -4.9724 H   0  0  0  0  0  0
   24.9129   45.3990   -1.4982 H   0  0  0  0  0  0
   22.6804   43.0257   -4.2718 H   0  0  0  0  0  0
   21.0687   43.8714    2.2091 H   0  0  0  0  0  0
   18.0816   38.6026   -0.7138 H   0  0  0  0  0  0
   28.1384   42.8815   -3.5990 H   0  0  0  0  0  0
   27.2660   41.3173   -3.7368 H   0  0  0  0  0  0
   22.6720   45.7666   -1.6927 H   0  0  0  0  0  0
   21.8802   45.3607   -3.2531 H   0  0  0  0  0  0
   19.0925   39.7069   -2.6550 H   0  0  0  0  0  0
   28.4713   41.8508   -5.7168 H   0  0  0  0  0  0
   27.5711   43.3978   -5.8699 H   0  0  0  0  0  0
   26.6987   41.8336   -6.0077 H   0  0  0  0  0  0
   21.0194   43.2429   -2.2900 H   0  0  0  0  0  0
  1  3  2  0  0  0
  1  8  1  0  0  0
  1 23  1  0  0  0
  2  4  1  0  0  0
  2  8  2  0  0  0
  2 24  1  0  0  0
  3  9  1  0  0  0
  3 25  1  0  0  0
  4  9  2  0  0  0
  4 26  1  0  0  0
  5  7  2  0  0  0
  5 22  1  0  0  0
  5 27  1  0  0  0
  6  7  1  0  0  0
  6 10  2  0  0  0
  6 12  1  0  0  0
  7 13  1  0  0  0
  8 14  1  0  0  0
  9 15  1  0  0  0
 10 16  1  0  0  0
 10 22  1  0  0  0
 11 16  2  0  0  0
 11 17  1  0  0  0
 11 28  1  0  0  0
 12 17  1  0  0  0
 12 20  2  0  0  0
 13 19  1  0  0  0
 13 21  2  0  0  0
 14 18  1  0  0  0
 14 29  1  0  0  0
 14 30  1  0  0  0
 15 19  1  0  0  0
 15 31  1  0  0  0
 15 32  1  0  0  0
 17 33  1  0  0  0
 18 34  1  0  0  0
 18 35  1  0  0  0
 18 36  1  0  0  0
 19 37  1  0  0  0
M  CHG  1  18   1
M  END
> <s_m_source_file>
../4mcc_ligand.sdf

> <i_m_source_file_index>
1

> <s_epik_input>
W05IMytdW0NIMl1jMVtjSF1bY0hdYyhbY0hdW2NIXTEpW0NIMl1bTkhdQyg9TyljMltjSF1zYyhjMjMpbltjSF1bbkhdYzM9Tw==

> <s_epik_cmdline>
J2VwaWtfYXBwJywgJy1pbWFlJywgJ2xpZ2FuZF9wcm8ubWFlJywgJy1vbWFlJywgJ2xpZ2FuZF9wcmVwLm1hZScsICctbXMnLCAnMScsICctcGgnLCAnNycsICctcGh0JywgJzAuNScsICctbnQn

> <r_lp_tautomer_probability>
1

> <r_epik_Ionization_Penalty>
  0.0401

> <r_epik_Ionization_Penalty_Charging>
  0.0401

> <r_epik_Ionization_Penalty_Neutral>
  0.0000

> <r_epik_State_Penalty>
 -0.0000

> <r_epik_Charging_Adjusted_Penalty>
0.0400645869175747

> <i_epik_Tot_Q>
1

> <i_epik_Tot_abs_Q>
1

$$$$
