4mcv_ligand
                    3D
 Schrodinger Suite 2020-3.
 63 68  0  0  1  0            999 V2000
   86.4200   71.3170  -40.8320 C   0  0  0  0  0  0
   88.7380   72.6710  -39.8120 C   0  0  0  0  0  0
   90.3430   71.4440  -40.9530 C   0  0  0  0  0  0
   92.4240   72.5160  -40.1600 C   0  0  0  0  0  0
   91.1060   70.5680  -41.7470 C   0  0  0  0  0  0
   90.3620   74.2620  -38.5440 C   0  0  0  0  0  0
   91.6900   73.7500  -36.3570 C   0  0  0  0  0  0
   85.6110   74.1010  -38.4050 C   0  0  0  0  0  0
   84.1520   70.4740  -41.4180 O   0  0  0  0  0  0
   85.4330   70.4340  -41.5280 C   0  0  0  0  0  0
   86.1700   69.5150  -42.3520 N   0  0  0  0  0  0
   87.5630   69.7990  -42.2070 C   0  0  1  0  0  0
   87.9500   70.1570  -43.6440 C   0  0  0  0  0  0
   88.9990   69.3530  -44.3680 C   0  0  0  0  0  0
   89.4340   69.9700  -45.6240 C   0  0  0  0  0  0
   88.6480   67.8510  -44.5350 C   0  0  0  0  0  0
   87.7010   70.9260  -41.2400 C   0  0  0  0  0  0
   86.2640   72.4400  -39.8640 C   0  0  0  0  0  0
   87.3980   73.0910  -39.3750 C   0  0  0  0  0  0
   88.8830   71.6200  -40.7180 C   0  0  0  0  0  0
   90.9980   72.4260  -40.1540 C   0  0  0  0  0  0
   93.1700   71.6480  -40.9450 C   0  0  0  0  0  0
   92.5010   70.6560  -41.7540 C   0  0  0  0  0  0
   90.0480   73.1470  -39.4850 N   0  0  0  0  0  0
   90.3360   73.9130  -37.0700 C   0  0  0  0  0  0
   92.3490   72.4040  -36.4420 C   0  0  0  0  0  0
   93.3300   72.0770  -35.4560 N   0  3  0  0  0  0
   86.9910   74.0820  -38.5030 N   0  0  0  0  0  0
   84.7290   74.9190  -37.6550 C   0  0  0  0  0  0
   83.3180   74.7170  -37.7460 C   0  0  0  0  0  0
   82.8070   73.7060  -38.5790 C   0  0  0  0  0  0
   83.6770   72.9020  -39.3170 C   0  0  0  0  0  0
   85.1040   73.1010  -39.2300 C   0  0  0  0  0  0
   92.9256   73.2659  -39.5484 H   0  0  0  0  0  0
   90.6068   69.8172  -42.3595 H   0  0  0  0  0  0
   91.3734   74.6421  -38.7504 H   0  0  0  0  0  0
   89.6310   75.0727  -38.6792 H   0  0  0  0  0  0
   92.4151   74.4607  -36.7802 H   0  0  0  0  0  0
   91.5650   73.9499  -35.2826 H   0  0  0  0  0  0
   85.8407   68.7014  -43.0151 H   0  0  0  0  0  0
   88.1581   68.9756  -41.7853 H   0  0  0  0  0  0
   87.0645   70.0805  -44.2921 H   0  0  0  0  0  0
   88.3384   71.1857  -43.6737 H   0  0  0  0  0  0
   89.8878   69.4276  -43.7242 H   0  0  0  0  0  0
   89.6693   71.0303  -45.4494 H   0  0  0  0  0  0
   88.6289   69.8910  -46.3694 H   0  0  0  0  0  0
   90.3302   69.4519  -45.9959 H   0  0  0  0  0  0
   88.3290   67.4391  -43.5662 H   0  0  0  0  0  0
   89.5337   67.3050  -44.8918 H   0  0  0  0  0  0
   87.8324   67.7441  -45.2654 H   0  0  0  0  0  0
   94.2579   71.7148  -40.9510 H   0  0  0  0  0  0
   93.0855   69.9741  -42.3717 H   0  0  0  0  0  0
   89.8075   74.7025  -36.5156 H   0  0  0  0  0  0
   89.8149   72.9545  -36.9292 H   0  0  0  0  0  0
   91.5857   71.6162  -36.3597 H   0  0  0  0  0  0
   92.8695   72.3108  -37.4066 H   0  0  0  0  0  0
   93.7202   71.0666  -35.6480 H   0  0  0  0  0  0
   92.8706   72.1090  -34.4570 H   0  0  0  0  0  0
   94.1544   72.8037  -35.5039 H   0  0  0  0  0  0
   85.1306   75.7089  -37.0033 H   0  0  0  0  0  0
   82.6329   75.3518  -37.1650 H   0  0  0  0  0  0
   81.7305   73.5500  -38.6484 H   0  0  0  0  0  0
   83.2703   72.1136  -39.9673 H   0  0  0  0  0  0
  1 10  1  0  0  0
  1 17  2  0  0  0
  1 18  1  0  0  0
  2 19  1  0  0  0
  2 20  2  0  0  0
  2 24  1  0  0  0
  3  5  2  0  0  0
  3 20  1  0  0  0
  3 21  1  0  0  0
  4 21  2  0  0  0
  4 22  1  0  0  0
  4 34  1  0  0  0
  5 23  1  0  0  0
  5 35  1  0  0  0
  6 24  1  0  0  0
  6 25  1  0  0  0
  6 36  1  0  0  0
  6 37  1  0  0  0
  7 25  1  0  0  0
  7 26  1  0  0  0
  7 38  1  0  0  0
  7 39  1  0  0  0
  8 28  2  0  0  0
  8 29  1  0  0  0
  8 33  1  0  0  0
  9 10  2  0  0  0
 10 11  1  0  0  0
 11 12  1  0  0  0
 11 40  1  0  0  0
 12 13  1  0  0  0
 12 17  1  0  0  0
 12 41  1  0  0  0
 13 14  1  0  0  0
 13 42  1  0  0  0
 13 43  1  0  0  0
 14 15  1  0  0  0
 14 16  1  0  0  0
 14 44  1  0  0  0
 15 45  1  0  0  0
 15 46  1  0  0  0
 15 47  1  0  0  0
 16 48  1  0  0  0
 16 49  1  0  0  0
 16 50  1  0  0  0
 17 20  1  0  0  0
 18 19  2  0  0  0
 18 33  1  0  0  0
 19 28  1  0  0  0
 21 24  1  0  0  0
 22 23  2  0  0  0
 22 51  1  0  0  0
 23 52  1  0  0  0
 25 53  1  0  0  0
 25 54  1  0  0  0
 26 27  1  0  0  0
 26 55  1  0  0  0
 26 56  1  0  0  0
 27 57  1  0  0  0
 27 58  1  0  0  0
 27 59  1  0  0  0
 29 30  2  0  0  0
 29 60  1  0  0  0
 30 31  1  0  0  0
 30 61  1  0  0  0
 31 32  1  0  0  0
 31 62  1  0  0  0
 32 33  2  0  0  0
 32 63  1  0  0  0
M  CHG  1  27   1
M  END
> <s_m_source_file>
../4mcv_ligand.sdf

> <i_m_source_file_index>
1

> <s_epik_input>
W2NIXTFbY0hdW2NIXVtjSF1jMmMxbihbQ0gyXVtDSDJdW0NIMl1bQ0gyXVtOSDMrXSljKGMyYyhjMzQpW0NAQEhdKFtOSF1DMz1PKVtDSDJdW0NIXShbQ0gzXSlbQ0gzXSljNWM0QzZDKD1ONSlbQ0hdPVtDSF1bQ0gyXVtDSF09Ng==

> <s_epik_cmdline>
J2VwaWtfYXBwJywgJy1pbWFlJywgJ2xpZ2FuZF9wcm8ubWFlJywgJy1vbWFlJywgJ2xpZ2FuZF9wcmVwLm1hZScsICctbXMnLCAnMScsICctcGgnLCAnNycsICctcGh0JywgJzAuNScsICctbnQn

> <r_lp_tautomer_probability>
1

> <r_epik_Ionization_Penalty>
  0.0033

> <r_epik_Ionization_Penalty_Charging>
  0.0006

> <r_epik_Ionization_Penalty_Neutral>
  0.0027

> <r_epik_State_Penalty>
 -0.0000

> <r_epik_Charging_Adjusted_Penalty>
0.000618024219613023

> <i_epik_Tot_Q>
1

> <i_epik_Tot_abs_Q>
1

> <s_epik_Chemistry_Notes>
This compound has an imine and may undergo hydrolysis.

$$$$
