4mdn_ligand
                    3D
 Schrodinger Suite 2020-3.
 63 68  0  0  1  0            999 V2000
  -13.1880   -6.2280    1.8050 O   0  5  0  0  0  0
  -14.1100   -6.0900    2.6450 C   0  0  0  0  0  0
  -14.2200   -6.8240    3.6440 O   0  0  0  0  0  0
  -15.0950   -5.0130    2.3690 C   0  0  0  0  0  0
  -14.9960   -4.1770    1.3290 N   0  0  0  0  0  0
  -16.0330   -3.3190    1.3500 C   0  0  0  0  0  0
  -16.3620   -2.2970    0.4990 C   0  0  0  0  0  0
  -17.4970   -1.5640    0.7400 C   0  0  0  0  0  0
  -17.8630   -0.2830   -0.4230 Cl  0  0  0  0  0  0
  -18.3130   -1.8200    1.8370 C   0  0  0  0  0  0
  -17.9770   -2.8500    2.7070 C   0  0  0  0  0  0
  -16.8360   -3.5940    2.4470 C   0  0  0  0  0  0
  -16.2250   -4.6420    3.1080 C   0  0  0  0  0  0
  -16.9830   -5.1890    4.2730 C   0  0  2  0  0  0
  -17.2880   -4.3250    5.4830 C   0  0  0  0  0  0
  -16.3530   -3.4710    5.9300 N   0  0  0  0  0  0
  -16.5340   -2.5430    7.0520 C   0  0  0  0  0  0
  -17.7190   -1.6160    6.8130 C   0  0  0  0  0  0
  -15.3260   -1.6260    7.1190 C   0  0  0  0  0  0
  -16.7190   -3.2360    8.3990 C   0  0  0  0  0  0
  -18.3970   -4.4160    5.9590 O   0  0  0  0  0  0
  -16.8790   -6.6630    4.2830 N   0  0  0  0  0  0
  -18.0330   -7.4270    4.3640 C   0  0  0  0  0  0
  -18.4310   -8.5570    4.4220 O   0  0  0  0  0  0
  -18.2140   -6.0670    3.8220 C   0  0  1  0  0  0
  -18.5580   -6.2190    2.3090 C   0  0  0  0  0  0
  -17.6600   -6.7370    1.3750 C   0  0  0  0  0  0
  -17.9620   -6.8750    0.0110 C   0  0  0  0  0  0
  -19.8160   -5.8910    1.7720 C   0  0  0  0  0  0
  -20.1340   -6.0200    0.3950 C   0  0  0  0  0  0
  -19.1950   -6.5120   -0.5250 C   0  0  0  0  0  0
  -19.3820   -6.7240   -1.9000 O   0  0  0  0  0  0
  -20.5000   -6.3390   -2.7440 C   0  0  0  0  0  0
  -20.0780   -6.6080   -4.1800 C   0  0  0  0  0  0
  -19.9180   -7.9220   -4.6250 C   0  0  0  0  0  0
  -19.8310   -5.5550   -5.0530 C   0  0  0  0  0  0
  -19.4170   -5.8030   -6.3570 C   0  0  0  0  0  0
  -19.2500   -7.1220   -6.7800 C   0  0  0  0  0  0
  -18.7030   -7.4320   -8.4520 Cl  0  0  0  0  0  0
  -19.4990   -8.1910   -5.9250 C   0  0  0  0  0  0
  -15.7194   -2.0723   -0.3651 H   0  0  0  0  0  0
  -19.2124   -1.2101    2.0077 H   0  0  0  0  0  0
  -18.5975   -3.0687    3.5760 H   0  0  0  0  0  0
  -15.3956   -3.4999    5.3891 H   0  0  0  0  0  0
  -17.5985   -1.1092    5.8441 H   0  0  0  0  0  0
  -17.7653   -0.8657    7.6160 H   0  0  0  0  0  0
  -18.6488   -2.2038    6.8063 H   0  0  0  0  0  0
  -15.1912   -1.1256    6.1487 H   0  0  0  0  0  0
  -14.4290   -2.2178    7.3541 H   0  0  0  0  0  0
  -15.4825   -0.8702    7.9027 H   0  0  0  0  0  0
  -17.5940   -3.9009    8.3521 H   0  0  0  0  0  0
  -16.8749   -2.4795    9.1822 H   0  0  0  0  0  0
  -15.8215   -3.8271    8.6336 H   0  0  0  0  0  0
  -16.6752   -7.0500    1.7217 H   0  0  0  0  0  0
  -17.2013   -7.2824   -0.6549 H   0  0  0  0  0  0
  -20.5858   -5.5188    2.4480 H   0  0  0  0  0  0
  -21.1254   -5.7318    0.0455 H   0  0  0  0  0  0
  -21.3836   -6.9375   -2.4776 H   0  0  0  0  0  0
  -20.7215   -5.2719   -2.5950 H   0  0  0  0  0  0
  -20.1241   -8.7485   -3.9449 H   0  0  0  0  0  0
  -19.9627   -4.5278   -4.7130 H   0  0  0  0  0  0
  -19.2251   -4.9763   -7.0410 H   0  0  0  0  0  0
  -19.3687   -9.2180   -6.2661 H   0  0  0  0  0  0
  1  2  1  0  0  0
  2  3  2  0  0  0
  2  4  1  0  0  0
  4  5  2  0  0  0
  4 13  1  0  0  0
  5  6  1  0  0  0
  6  7  2  0  0  0
  6 12  1  0  0  0
  7  8  1  0  0  0
  7 41  1  0  0  0
  8  9  1  0  0  0
  8 10  2  0  0  0
 10 11  1  0  0  0
 10 42  1  0  0  0
 11 12  1  0  0  0
 11 43  1  0  0  0
 12 13  2  0  0  0
 13 14  1  0  0  0
 14 15  1  0  0  0
 14 22  1  0  0  0
 14 25  1  0  0  0
 15 16  1  0  0  0
 15 21  2  0  0  0
 16 17  1  0  0  0
 16 44  1  0  0  0
 17 18  1  0  0  0
 17 19  1  0  0  0
 17 20  1  0  0  0
 18 45  1  0  0  0
 18 46  1  0  0  0
 18 47  1  0  0  0
 19 48  1  0  0  0
 19 49  1  0  0  0
 19 50  1  0  0  0
 20 51  1  0  0  0
 20 52  1  0  0  0
 20 53  1  0  0  0
 22 23  1  0  0  0
 22 25  1  0  0  0
 23 24  2  0  0  0
 23 25  1  0  0  0
 25 26  1  0  0  0
 26 27  2  0  0  0
 26 29  1  0  0  0
 27 28  1  0  0  0
 27 54  1  0  0  0
 28 31  2  0  0  0
 28 55  1  0  0  0
 29 30  2  0  0  0
 29 56  1  0  0  0
 30 31  1  0  0  0
 30 57  1  0  0  0
 31 32  1  0  0  0
 32 33  1  0  0  0
 33 34  1  0  0  0
 33 58  1  0  0  0
 33 59  1  0  0  0
 34 35  2  0  0  0
 34 36  1  0  0  0
 35 40  1  0  0  0
 35 60  1  0  0  0
 36 37  2  0  0  0
 36 61  1  0  0  0
 37 38  1  0  0  0
 37 62  1  0  0  0
 38 39  1  0  0  0
 38 40  2  0  0  0
 40 63  1  0  0  0
M  CHG  1   1  -1
M  END
> <s_m_source_file>
../4mdn_ligand.sdf

> <i_m_source_file_index>
1

> <s_epik_input>
W0NIXTFDKENsKT1bQ0hdW0NIMl1DKEM9MTIpPUMoQyg9TjIpQyg9TylbT0hdKVtDQF0zKEMoPU8pW05IXUMoW0NIM10pKFtDSDNdKVtDSDNdKU4oQzQ9TylbQ0BdMzRjNVtjSF1bY0hdYyhbY0hdW2NIXTUpT1tDSDJdYzZbY0hdW2NIXWMoQ2wpW2NIXVtjSF02

> <s_epik_cmdline>
J2VwaWtfYXBwJywgJy1pbWFlJywgJ2xpZ2FuZF9wcm8ubWFlJywgJy1vbWFlJywgJ2xpZ2FuZF9wcmVwLm1hZScsICctbXMnLCAnMScsICctcGgnLCAnNycsICctcGh0JywgJzAuNScsICctbnQn

> <r_lp_tautomer_probability>
1

> <r_epik_Ionization_Penalty>
  0.0000

> <r_epik_Ionization_Penalty_Charging>
  0.0000

> <r_epik_Ionization_Penalty_Neutral>
  0.0000

> <r_epik_State_Penalty>
 -0.0000

> <r_epik_Charging_Adjusted_Penalty>
5.84284865817696e-08

> <i_epik_Tot_Q>
-1

> <i_epik_Tot_abs_Q>
1

> <s_epik_Chemistry_Notes>
This compound has an imine and may undergo hydrolysis.

$$$$
