4mdq_ligand
                    3D
 Schrodinger Suite 2020-3.
 62 64  0  0  1  0            999 V2000
    4.8960   19.7930   12.7620 C   0  0  0  0  0  0
    4.7420   18.4780   12.3440 C   0  0  0  0  0  0
    5.6820   17.5130   12.6880 C   0  0  0  0  0  0
    6.7860   17.8810   13.4480 C   0  0  0  0  0  0
    6.9440   19.2120   13.8610 C   0  0  0  0  0  0
    6.0030   20.1920   13.5240 C   0  0  0  0  0  0
    6.2180   21.5020   13.9580 C   0  0  0  0  0  0
    5.7590   22.4340   12.9000 N   0  0  0  0  0  0
    4.6400   23.1810   13.0450 C   0  0  0  0  0  0
    3.8590   23.0330   13.9670 O   0  0  0  0  0  0
    4.1260   24.0070   11.9120 C   0  0  2  0  0  0
    3.1990   25.0130   12.2800 N   0  0  1  0  0  0
    3.0770   26.2280   11.4200 C   0  0  1  0  0  0
    1.6460   26.7280   11.3770 C   0  0  0  0  0  0
    0.7180   25.7090   10.6810 C   0  0  0  0  0  0
   -0.6930   26.3260   10.6620 C   0  0  0  0  0  0
    1.1660   25.4190    9.2530 C   0  0  0  0  0  0
    3.8920   27.4570   11.9280 C   0  0  0  0  0  0
    4.4500   28.2610   11.1700 O   0  0  0  0  0  0
    3.9010   27.7210   13.2050 N   0  0  0  0  0  0
    4.7170   29.0390   13.4710 O   0  0  0  0  0  0
    4.4210   23.5340   10.4980 C   0  0  0  0  0  0
    3.6570   22.5240   10.0640 C   0  0  0  0  0  0
    2.6510   21.8480   10.6640 C   0  0  0  0  0  0
    1.9860   20.8160    9.9930 C   0  0  0  0  0  0
    2.3950   20.5150    8.6970 C   0  0  2  0  0  0
    1.6090   19.2330    7.7990 Cl  0  0  0  0  0  0
    3.4530   21.2360    8.1380 C   0  0  0  0  0  0
    4.0560   22.2280    8.8230 C   0  0  0  0  0  0
    5.0590   23.0640    8.5140 N   0  0  0  0  0  0
    5.3080   23.8600    9.5540 C   0  0  0  0  0  0
    6.2620   24.8240    9.4920 C   0  0  0  0  0  0
    6.9930   24.9240    8.5000 O   0  0  0  0  0  0
    6.3260   25.7360   10.4530 N   0  0  0  0  0  0
    7.2430   26.6790   10.2560 O   0  5  0  0  0  0
    4.1540   20.5331   12.5008 H   0  0  0  0  0  0
    3.8869   18.1978   11.7468 H   0  0  0  0  0  0
    5.5497   16.4909   12.3650 H   0  0  0  0  0  0
    7.5240   17.1415   13.7215 H   0  0  0  0  0  0
    7.8035   19.4963   14.4499 H   0  0  0  0  0  0
    5.6512   21.6792   14.8839 H   0  0  0  0  0  0
    7.2905   21.6533   14.1500 H   0  0  0  0  0  0
    6.3327   22.5320   11.9666 H   0  0  0  0  0  0
    4.5222   24.9907   11.6199 H   0  0  0  0  0  0
    2.1853   24.5865   12.3039 H   0  0  0  0  0  0
    3.4382   25.8522   10.4513 H   0  0  0  0  0  0
    1.2829   26.8891   12.4028 H   0  0  0  0  0  0
    1.6054   27.6760   10.8206 H   0  0  0  0  0  0
    0.7430   24.7487   11.2168 H   0  0  0  0  0  0
   -1.0157   26.5350   11.6926 H   0  0  0  0  0  0
   -1.3953   25.6207   10.1938 H   0  0  0  0  0  0
   -0.6757   27.2630   10.0860 H   0  0  0  0  0  0
    2.1738   24.9784    9.2672 H   0  0  0  0  0  0
    1.1835   26.3559    8.6768 H   0  0  0  0  0  0
    0.4639   24.7135    8.7846 H   0  0  0  0  0  0
    3.4446   27.1776   14.0455 H   0  0  0  0  0  0
    4.8313   29.4174   14.4975 H   0  0  0  0  0  0
    2.3570   22.1164   11.6894 H   0  0  0  0  0  0
    1.1694   20.2727   10.4910 H   0  0  0  0  0  0
    3.1216   19.7911    9.0944 H   0  0  0  0  0  0
    3.7925   20.9834    7.1227 H   0  0  0  0  0  0
    5.6990   25.7587   11.3565 H   0  0  0  0  0  0
  1  2  2  0  0  0
  1  6  1  0  0  0
  1 36  1  0  0  0
  2  3  1  0  0  0
  2 37  1  0  0  0
  3  4  2  0  0  0
  3 38  1  0  0  0
  4  5  1  0  0  0
  4 39  1  0  0  0
  5  6  2  0  0  0
  5 40  1  0  0  0
  6  7  1  0  0  0
  7  8  1  0  0  0
  7 41  1  0  0  0
  7 42  1  0  0  0
  8  9  1  0  0  0
  8 43  1  0  0  0
  9 10  2  0  0  0
  9 11  1  0  0  0
 11 12  1  0  0  0
 11 22  1  0  0  0
 11 44  1  0  0  0
 12 13  1  0  0  0
 12 45  1  0  0  0
 13 14  1  0  0  0
 13 18  1  0  0  0
 13 46  1  0  0  0
 14 15  1  0  0  0
 14 47  1  0  0  0
 14 48  1  0  0  0
 15 16  1  0  0  0
 15 17  1  0  0  0
 15 49  1  0  0  0
 16 50  1  0  0  0
 16 51  1  0  0  0
 16 52  1  0  0  0
 17 53  1  0  0  0
 17 54  1  0  0  0
 17 55  1  0  0  0
 18 19  2  0  0  0
 18 20  1  0  0  0
 20 21  1  0  0  0
 20 56  1  0  0  0
 21 57  1  0  0  0
 22 23  2  0  0  0
 22 31  1  0  0  0
 23 24  1  0  0  0
 23 29  1  0  0  0
 24 25  2  0  0  0
 24 58  1  0  0  0
 25 26  1  0  0  0
 25 59  1  0  0  0
 26 27  1  0  0  0
 26 28  1  0  0  0
 26 60  1  0  0  0
 28 29  2  0  0  0
 28 61  1  0  0  0
 29 30  1  0  0  0
 30 31  2  0  0  0
 31 32  1  0  0  0
 32 33  2  0  0  0
 32 34  1  0  0  0
 34 35  1  0  0  0
 34 62  1  0  0  0
M  CHG  1  35  -1
M  END
> <i_m_stars>
0

> <s_m_entry_id>
57

> <s_m_entry_name>
Structure57

> <s_pdb_PDB_TITLE>
4mdq_protein

> <s_pdb_PDB_format_version>
3.0

> <s_m_Source_Path>
/disk1/aquila/PDBbind2020/fail/4mdq

> <s_m_Source_File>
4mdq_protein.pdb

> <i_m_Source_File_Index>
1

> <s_ppw_entry_id_backup>
55

> <b_ppw_prepared>
1

> <s_ppw_prepared_with_version>
2020-2

> <b_ppw_assigned_bond_orders>
1

> <b_ppw_added_hydrogens>
1

> <b_ppw_treated_metals>
1

> <b_ppw_created_disulfur>
1

> <s_ppw_het_states>
eJztVsFOwkAQ/ZVNr9K6M7Ntodw8eTUeDQeCnMTioR4M4d/tDPR1QRM0MdHE5fTeLsubnTcvyy6jrHEP/aemMHF+MXE9KoEqoBpoCjQbEHsgAmIgAYIG9xp0QNBgaDA0GBoCDYGGQEOgIdAQ3EOgIdAQaAg0AjQCNAI0AjQCNAI0AjQCNIJpKDz011rLh+YZnQ1d0A1rN6Hx1nNG963xBAvsLMMHs4BghvlAcMTMINhijnBEA3a1qsgbpTJSLZKr2DkzLaIy6mrNjJoVmZsRFdSsx8xNjqhgV5SiSC3ILOWRhnHXyqhPaMD1dcOsZwyB+U+YBBuCmOJGiuynGINhM0GYDiuDMSI2HYQ5sRHhiKJIRTYspMNSF9NSj+/2E5cPJLvvlt3avazb5aZ7a+xL7mm13Fw/bzdzd5vfbNtHt9q+tl3j/NzdNe6KMhu938i2/xfZzimFO4X7W+Gmwvse77J+qX96qRCuNOfH9fOY98t0IeZ5inl6wlPK/1jKK67L4xM+kI/ZruRCtn2K9s9FOx+dStlO2f402zGFv6fZ5qIMNPw9H8h5tnX9C+/2Yv8O/YBLXA==

> <i_pdb_PDB_Model>
1

> <s_m_source_file>
../4mdq_ligand.sdf

> <i_m_source_file_index>
1

> <s_epik_input>
W2NIXTFbY0hdW2NIXVtjSF1bY0hdYzFbQ0gyXVtOSF1DKD1PKVtDQEhdKFtOSF1bQ0BASF0oW0NIMl1bQ0hdKFtDSDNdKVtDSDNdKUMoPU8pW05IXVtPSF0pQz0yQyhDKD1PKVtOSF1bTy1dKT1OQyhDMjMpPVtDSF1bQ0BASF0oQ2wpW0NIXT1bQ0hdMw==

> <s_epik_cmdline>
J2VwaWtfYXBwJywgJy1pbWFlJywgJ2xpZ2FuZF9wcm8ubWFlJywgJy1vbWFlJywgJ2xpZ2FuZF9wcmVwLm1hZScsICctbXMnLCAnMScsICctcGgnLCAnNycsICctcGh0JywgJzAuNScsICctbnQn

> <r_lp_tautomer_probability>
1

> <r_epik_Ionization_Penalty>
  0.2036

> <r_epik_Ionization_Penalty_Charging>
  0.1888

> <r_epik_Ionization_Penalty_Neutral>
  0.0148

> <r_epik_State_Penalty>
 -0.0000

> <r_epik_Charging_Adjusted_Penalty>
0.188840991061729

> <i_epik_Tot_Q>
-1

> <i_epik_Tot_abs_Q>
1

> <s_epik_Chemistry_Notes>
This compound has an imine and may undergo hydrolysis. This compound has a N-S or N-O group and may undergo hydrolysis at high or low pH.

$$$$
