4mdr_ligand
                    3D
 Schrodinger Suite 2020-3.
132134  0  0  1  0            999 V2000
  -24.1530    8.1570   35.7950 N   0  3  0  0  0  0
  -22.7240    7.8370   36.1440 C   0  0  2  0  0  0
  -21.9410    7.2890   34.8970 C   0  0  0  0  0  0
  -20.7340    7.4640   34.7850 O   0  0  0  0  0  0
  -22.6360    6.9670   37.4730 C   0  0  2  0  0  0
  -21.3580    6.3200   37.6040 O   0  0  0  0  0  0
  -23.7640    5.9170   37.5580 C   0  0  0  0  0  0
  -22.6550    6.6970   33.9470 N   0  0  0  0  0  0
  -22.0490    6.1200   32.7280 C   0  0  2  0  0  0
  -22.5690    6.8040   31.4790 C   0  0  0  0  0  0
  -23.6900    7.2590   31.4540 O   0  0  0  0  0  0
  -22.3540    4.6360   32.6380 C   0  0  0  0  0  0
  -21.7860    3.7830   33.7520 C   0  0  0  0  0  0
  -20.4080    3.6110   33.8980 C   0  0  0  0  0  0
  -22.6480    3.1130   34.6420 C   0  0  0  0  0  0
  -19.8890    2.7990   34.9140 C   0  0  0  0  0  0
  -22.1620    2.2960   35.6620 C   0  0  0  0  0  0
  -20.7810    2.1440   35.8070 C   0  0  0  0  0  0
  -20.3130    1.3260   36.8170 O   0  0  0  0  0  0
  -21.7570    6.8980   30.4320 N   0  0  0  0  0  0
  -22.2610    7.5000   29.2070 C   0  0  2  0  0  0
  -22.7580    6.4230   28.2600 C   0  0  0  0  0  0
  -22.1130    5.3430   28.1310 O   0  0  0  0  0  0
  -21.1790    8.3190   28.5600 C   0  0  0  0  0  0
  -21.6470    9.1050   27.3810 C   0  0  0  0  0  0
  -21.0130   10.5120   27.3650 C   0  0  0  0  0  0
  -20.8710   10.9830   25.9300 C   0  0  0  0  0  0
  -19.6610   11.8790   25.7460 N   0  3  0  0  0  0
  -23.8880    6.7130   27.6200 N   0  0  0  0  0  0
  -24.5140    5.8250   26.6690 C   0  0  2  0  0  0
  -24.6260    6.4100   25.2790 C   0  0  0  0  0  0
  -24.6860    7.6380   25.0830 O   0  0  0  0  0  0
  -25.8770    5.3160   27.1170 C   0  0  0  0  0  0
  -25.8230    4.4520   28.3250 C   0  0  0  0  0  0
  -25.8240    5.0150   29.6220 C   0  0  0  0  0  0
  -25.8440    3.0770   28.2090 C   0  0  0  0  0  0
  -25.7740    4.1780   30.7840 C   0  0  0  0  0  0
  -25.7920    2.2600   29.3550 C   0  0  0  0  0  0
  -25.7560    2.8220   30.6340 C   0  0  0  0  0  0
  -24.6680    5.5400   24.2920 N   0  0  0  0  0  0
  -24.9040    5.9760   22.9060 C   0  0  2  0  0  0
  -25.9710    5.0920   22.2940 C   0  0  0  0  0  0
  -26.1530    3.9610   22.7380 O   0  0  0  0  0  0
  -23.5740    5.9260   22.1000 C   0  0  0  0  0  0
  -22.8550    4.5400   22.1230 C   0  0  0  0  0  0
  -23.2520    3.5300   21.2860 C   0  0  0  0  0  0
  -21.7340    4.3370   22.9070 C   0  0  0  0  0  0
  -22.5690    2.2840   21.2600 C   0  0  0  0  0  0
  -21.0720    3.0870   22.9210 C   0  0  0  0  0  0
  -21.5210    2.0700   22.0820 C   0  0  0  0  0  0
  -26.6200    5.5890   21.2500 N   0  0  0  0  0  0
  -27.6520    4.8550   20.5570 C   0  0  2  0  0  0
  -27.1190    4.0390   19.3710 C   0  0  0  0  0  0
  -27.6800    3.0020   19.0150 O   0  0  0  0  0  0
  -28.7520    5.8020   20.0930 C   0  0  0  0  0  0
  -29.4380    6.5640   21.2600 C   0  0  0  0  0  0
  -30.1540    5.6160   22.2520 C   0  0  0  0  0  0
  -30.8100    4.6560   21.7940 O   0  0  0  0  0  0
  -30.0650    5.8400   23.4820 O   0  5  0  0  0  0
  -26.0330    4.4940   18.7760 N   0  0  0  0  0  0
  -25.3260    3.6300   17.8000 C   0  0  2  0  0  0
  -23.8100    3.9520   17.8120 C   0  0  0  0  0  0
  -22.9980    3.0930   17.3790 O   0  0  0  0  0  0
  -25.9090    3.8090   16.3760 C   0  0  0  0  0  0
  -25.8040    5.2510   15.8390 C   0  0  0  0  0  0
  -26.2610    5.4010   14.3880 C   0  0  0  0  0  0
  -26.2700    4.4230   13.6000 O   0  0  0  0  0  0
  -26.6470    6.6190   14.0230 N   0  0  0  0  0  0
  -23.3820    5.0710   18.2280 O   0  5  0  0  0  0
  -24.1798    8.7577   34.8739 H   0  0  0  0  0  0
  -24.6127    8.7254   36.6170 H   0  0  0  0  0  0
  -24.7106    7.2217   35.6391 H   0  0  0  0  0  0
  -22.2370    8.7954   36.3770 H   0  0  0  0  0  0
  -22.6851    7.6224   38.3551 H   0  0  0  0  0  0
  -20.4338    6.9154   37.5671 H   0  0  0  0  0  0
  -24.7386    6.4169   37.4573 H   0  0  0  0  0  0
  -23.7141    5.4031   38.5293 H   0  0  0  0  0  0
  -23.6431    5.1826   36.7480 H   0  0  0  0  0  0
  -23.7436    6.6463   34.0969 H   0  0  0  0  0  0
  -20.9658    6.2888   32.8188 H   0  0  0  0  0  0
  -23.4433    4.4838   32.6566 H   0  0  0  0  0  0
  -21.9435    4.2335   31.7002 H   0  0  0  0  0  0
  -19.7274    4.1154   33.2121 H   0  0  0  0  0  0
  -23.7252    3.2367   34.5302 H   0  0  0  0  0  0
  -18.8118    2.6703   35.0193 H   0  0  0  0  0  0
  -22.8490    1.7839   36.3357 H   0  0  0  0  0  0
  -19.2306    1.1872   36.9553 H   0  0  0  0  0  0
  -20.7211    6.5310   30.4787 H   0  0  0  0  0  0
  -23.0953    8.1588   29.4897 H   0  0  0  0  0  0
  -20.7739    9.0342   29.2910 H   0  0  0  0  0  0
  -20.3743    7.6544   28.2125 H   0  0  0  0  0  0
  -21.3649    8.5812   26.4558 H   0  0  0  0  0  0
  -22.7410    9.2123   27.4226 H   0  0  0  0  0  0
  -21.6569   11.2106   27.9194 H   0  0  0  0  0  0
  -20.0212   10.4727   27.8390 H   0  0  0  0  0  0
  -20.7586   10.1120   25.2677 H   0  0  0  0  0  0
  -21.7674   11.5508   25.6400 H   0  0  0  0  0  0
  -19.5963   12.1965   24.6948 H   0  0  0  0  0  0
  -18.7502   11.3257   26.0187 H   0  0  0  0  0  0
  -19.7590   12.7646   26.3911 H   0  0  0  0  0  0
  -24.3463    7.6868   27.8474 H   0  0  0  0  0  0
  -23.7870    4.9995   26.6613 H   0  0  0  0  0  0
  -26.5278    6.1706   27.3538 H   0  0  0  0  0  0
  -26.3304    4.7226   26.3094 H   0  0  0  0  0  0
  -25.8632    6.0980   29.7393 H   0  0  0  0  0  0
  -25.9014    2.6191   27.2215 H   0  0  0  0  0  0
  -25.7505    4.6210   31.7796 H   0  0  0  0  0  0
  -25.7797    1.1758   29.2430 H   0  0  0  0  0  0
  -25.7135    2.1771   31.5117 H   0  0  0  0  0  0
  -24.5234    4.4727   24.5158 H   0  0  0  0  0  0
  -25.2804    7.0093   22.9301 H   0  0  0  0  0  0
  -23.7753    6.1645   21.0452 H   0  0  0  0  0  0
  -22.8669    6.6602   22.5134 H   0  0  0  0  0  0
  -24.1072    3.6852   20.6282 H   0  0  0  0  0  0
  -21.3550    5.1523   23.5233 H   0  0  0  0  0  0
  -22.8924    1.5002   20.5750 H   0  0  0  0  0  0
  -20.2203    2.9216   23.5808 H   0  0  0  0  0  0
  -21.0248    1.0995   22.0896 H   0  0  0  0  0  0
  -26.3458    6.6006   20.9160 H   0  0  0  0  0  0
  -28.0250    4.1611   21.3247 H   0  0  0  0  0  0
  -28.3259    6.5531   19.4116 H   0  0  0  0  0  0
  -29.5307    5.2299   19.5673 H   0  0  0  0  0  0
  -28.6817    7.1315   21.8221 H   0  0  0  0  0  0
  -30.1894    7.2571   20.8538 H   0  0  0  0  0  0
  -25.6508    5.5016   18.9965 H   0  0  0  0  0  0
  -25.4974    2.5949   18.1306 H   0  0  0  0  0  0
  -25.3676    3.1581   15.6737 H   0  0  0  0  0  0
  -26.9751    3.5380   16.3795 H   0  0  0  0  0  0
  -26.4312    5.9165   16.4503 H   0  0  0  0  0  0
  -24.7573    5.5856   15.8889 H   0  0  0  0  0  0
  -26.6214    7.4448   14.7492 H   0  0  0  0  0  0
  -26.9921    6.8015   12.9946 H   0  0  0  0  0  0
  1  2  1  0  0  0
  1 70  1  0  0  0
  1 71  1  0  0  0
  1 72  1  0  0  0
  2  3  1  0  0  0
  2  5  1  0  0  0
  2 73  1  0  0  0
  3  4  2  0  0  0
  3  8  1  0  0  0
  5  6  1  0  0  0
  5  7  1  0  0  0
  5 74  1  0  0  0
  6 75  1  0  0  0
  7 76  1  0  0  0
  7 77  1  0  0  0
  7 78  1  0  0  0
  8  9  1  0  0  0
  8 79  1  0  0  0
  9 10  1  0  0  0
  9 12  1  0  0  0
  9 80  1  0  0  0
 10 11  2  0  0  0
 10 20  1  0  0  0
 12 13  1  0  0  0
 12 81  1  0  0  0
 12 82  1  0  0  0
 13 14  2  0  0  0
 13 15  1  0  0  0
 14 16  1  0  0  0
 14 83  1  0  0  0
 15 17  2  0  0  0
 15 84  1  0  0  0
 16 18  2  0  0  0
 16 85  1  0  0  0
 17 18  1  0  0  0
 17 86  1  0  0  0
 18 19  1  0  0  0
 19 87  1  0  0  0
 20 21  1  0  0  0
 20 88  1  0  0  0
 21 22  1  0  0  0
 21 24  1  0  0  0
 21 89  1  0  0  0
 22 23  2  0  0  0
 22 29  1  0  0  0
 24 25  1  0  0  0
 24 90  1  0  0  0
 24 91  1  0  0  0
 25 26  1  0  0  0
 25 92  1  0  0  0
 25 93  1  0  0  0
 26 27  1  0  0  0
 26 94  1  0  0  0
 26 95  1  0  0  0
 27 28  1  0  0  0
 27 96  1  0  0  0
 27 97  1  0  0  0
 28 98  1  0  0  0
 28 99  1  0  0  0
 28100  1  0  0  0
 29 30  1  0  0  0
 29101  1  0  0  0
 30 31  1  0  0  0
 30 33  1  0  0  0
 30102  1  0  0  0
 31 32  2  0  0  0
 31 40  1  0  0  0
 33 34  1  0  0  0
 33103  1  0  0  0
 33104  1  0  0  0
 34 35  2  0  0  0
 34 36  1  0  0  0
 35 37  1  0  0  0
 35105  1  0  0  0
 36 38  2  0  0  0
 36106  1  0  0  0
 37 39  2  0  0  0
 37107  1  0  0  0
 38 39  1  0  0  0
 38108  1  0  0  0
 39109  1  0  0  0
 40 41  1  0  0  0
 40110  1  0  0  0
 41 42  1  0  0  0
 41 44  1  0  0  0
 41111  1  0  0  0
 42 43  2  0  0  0
 42 51  1  0  0  0
 44 45  1  0  0  0
 44112  1  0  0  0
 44113  1  0  0  0
 45 46  2  0  0  0
 45 47  1  0  0  0
 46 48  1  0  0  0
 46114  1  0  0  0
 47 49  2  0  0  0
 47115  1  0  0  0
 48 50  2  0  0  0
 48116  1  0  0  0
 49 50  1  0  0  0
 49117  1  0  0  0
 50118  1  0  0  0
 51 52  1  0  0  0
 51119  1  0  0  0
 52 53  1  0  0  0
 52 55  1  0  0  0
 52120  1  0  0  0
 53 54  2  0  0  0
 53 60  1  0  0  0
 55 56  1  0  0  0
 55121  1  0  0  0
 55122  1  0  0  0
 56 57  1  0  0  0
 56123  1  0  0  0
 56124  1  0  0  0
 57 58  2  0  0  0
 57 59  1  0  0  0
 60 61  1  0  0  0
 60125  1  0  0  0
 61 62  1  0  0  0
 61 64  1  0  0  0
 61126  1  0  0  0
 62 63  2  0  0  0
 62 69  1  0  0  0
 64 65  1  0  0  0
 64127  1  0  0  0
 64128  1  0  0  0
 65 66  1  0  0  0
 65129  1  0  0  0
 65130  1  0  0  0
 66 67  2  0  0  0
 66 68  1  0  0  0
 68131  1  0  0  0
 68132  1  0  0  0
M  CHG  4   1   1  28   1  59  -1  69  -1
M  END
> <s_m_source_file>
../4mdr_ligand.sdf

> <i_m_source_file_index>
1

> <s_epik_input>
W2NIXTFbY0hdYyhbT0hdKVtjSF1bY0hdYzFbQ0gyXVtDQEhdKFtOSF1DKD1PKVtDQEBIXShbTkgzK10pW0NASF0oW09IXSlbQ0gzXSlDKD1PKVtOSF1bQ0BASF0oW0NIMl1bQ0gyXVtDSDJdW0NIMl1bTkgzK10pQyg9TylbTkhdW0NAQEhdKFtDSDJdYzJbY0hdW2NIXVtjSF1bY0hdW2NIXTIpQyg9TylbTkhdW0NAQEhdKFtDSDJdYzNbY0hdW2NIXVtjSF1bY0hdW2NIXTMpQyg9TylbTkhdW0NAQEhdKFtDSDJdW0NIMl1DKD1PKVtPSF0pQyg9TylbTkhdW0NASF0oQyg9TylbT0hdKVtDSDJdW0NIMl1DKD1PKVtOSDJd

> <s_epik_cmdline>
J2VwaWtfYXBwJywgJy1pbWFlJywgJ2xpZ2FuZF9wcm8ubWFlJywgJy1vbWFlJywgJ2xpZ2FuZF9wcmVwLm1hZScsICctbXMnLCAnMScsICctcGgnLCAnNycsICctcGh0JywgJzAuNScsICctbnQn

> <r_lp_tautomer_probability>
0.999999999997365

> <r_epik_Ionization_Penalty>
  0.0888

> <r_epik_Ionization_Penalty_Charging>
  0.0879

> <r_epik_Ionization_Penalty_Neutral>
  0.0009

> <r_epik_State_Penalty>
  0.0760

> <r_epik_Charging_Adjusted_Penalty>
0.163927744844737

> <i_epik_Tot_Q>
0

> <i_epik_Tot_abs_Q>
4

$$$$
