4mds_ligand
                    3D
 Schrodinger Suite 2020-3.
 71 74  0  0  1  0            999 V2000
  -13.4120   16.2900  -23.5140 O   0  0  0  0  0  0
  -14.0390   15.2460  -23.7520 C   0  0  0  0  0  0
  -15.3490   15.2130  -23.4560 N   0  0  0  0  0  0
  -16.0720   16.4110  -22.9370 C   0  0  1  0  0  0
  -16.1430   17.4800  -24.0070 C   0  0  0  0  0  0
  -16.3870   17.1740  -25.1720 O   0  0  0  0  0  0
  -15.9120   18.7320  -23.6000 N   0  0  0  0  0  0
  -15.9860   19.9760  -24.3950 C   0  0  0  0  0  0
  -17.4610   20.2090  -24.7780 C   0  0  0  0  0  0
  -15.1350   19.9790  -25.6550 C   0  0  0  0  0  0
  -13.7230   19.4530  -25.4880 C   0  0  0  0  0  0
  -15.5390   21.0950  -23.4390 C   0  0  0  0  0  0
  -17.4300   16.1180  -22.3810 C   0  0  0  0  0  0
  -18.5740   16.2110  -23.1740 C   0  0  0  0  0  0
  -19.6060   15.8440  -22.3420 C   0  0  0  0  0  0
  -19.0890   15.5500  -21.0960 C   0  0  0  0  0  0
  -17.7550   15.7230  -21.1520 N   0  0  0  0  0  0
  -16.7980   15.5150  -20.0350 C   0  0  0  0  0  0
  -16.1030   14.0340  -23.7420 C   0  0  0  0  0  0
  -17.0070   14.0780  -24.7930 C   0  0  0  0  0  0
  -17.8040   12.9730  -25.1160 C   0  0  0  0  0  0
  -15.9970   12.8560  -23.0010 C   0  0  0  0  0  0
  -16.7770   11.7370  -23.3370 C   0  0  0  0  0  0
  -17.6880   11.7860  -24.3940 C   0  0  0  0  0  0
  -18.4070   10.6270  -24.6370 N   0  0  0  0  0  0
  -19.3800   10.3850  -25.5220 C   0  0  0  0  0  0
  -20.0530    9.0580  -25.6450 C   0  0  0  0  0  0
  -19.7660   11.2790  -26.2610 O   0  0  0  0  0  0
  -13.2970   14.0520  -24.3380 C   0  0  0  0  0  0
  -12.0180   14.5470  -24.7740 N   0  0  0  0  0  0
  -10.9070   14.3230  -24.0180 N   0  0  0  0  0  0
   -9.8140   14.9430  -24.5630 N   0  0  0  0  0  0
  -10.2810   15.5850  -25.6660 C   0  0  0  0  0  0
  -11.6590   15.3490  -25.7880 C   0  0  0  0  0  0
   -9.5830   16.3760  -26.5720 C   0  0  0  0  0  0
  -10.3020   16.9400  -27.6400 C   0  0  0  0  0  0
  -11.6800   16.7030  -27.7630 C   0  0  0  0  0  0
  -12.3870   15.9140  -26.8480 C   0  0  0  0  0  0
  -15.4839   16.7625  -22.0765 H   0  0  0  0  0  0
  -15.6382   18.7750  -22.5355 H   0  0  0  0  0  0
  -17.7921   19.4139  -25.4623 H   0  0  0  0  0  0
  -17.5610   21.1854  -25.2746 H   0  0  0  0  0  0
  -18.0823   20.1939  -23.8704 H   0  0  0  0  0  0
  -15.6123   19.3505  -26.4213 H   0  0  0  0  0  0
  -15.0409   21.0083  -26.0315 H   0  0  0  0  0  0
  -13.1980   19.4991  -26.4535 H   0  0  0  0  0  0
  -13.7590   18.4103  -25.1396 H   0  0  0  0  0  0
  -13.1876   20.0680  -24.7497 H   0  0  0  0  0  0
  -16.1653   21.0768  -22.5349 H   0  0  0  0  0  0
  -15.6455   22.0689  -23.9392 H   0  0  0  0  0  0
  -14.4866   20.9396  -23.1592 H   0  0  0  0  0  0
  -18.6362   16.5085  -24.2208 H   0  0  0  0  0  0
  -20.6586   15.7936  -22.6205 H   0  0  0  0  0  0
  -19.6593   15.2341  -20.2225 H   0  0  0  0  0  0
  -15.7772   15.7344  -20.3811 H   0  0  0  0  0  0
  -16.8532   14.4704  -19.6946 H   0  0  0  0  0  0
  -17.0550   16.1861  -19.2022 H   0  0  0  0  0  0
  -17.0989   14.9919  -25.3798 H   0  0  0  0  0  0
  -18.5188   13.0412  -25.9361 H   0  0  0  0  0  0
  -15.3068   12.8041  -22.1589 H   0  0  0  0  0  0
  -16.6694   10.8162  -22.7637 H   0  0  0  0  0  0
  -18.2028    9.7197  -24.0495 H   0  0  0  0  0  0
  -19.6091    8.3537  -24.9260 H   0  0  0  0  0  0
  -19.9191    8.6723  -26.6664 H   0  0  0  0  0  0
  -21.1266    9.1703  -25.4332 H   0  0  0  0  0  0
  -13.1787   13.2784  -23.5650 H   0  0  0  0  0  0
  -13.8708   13.6420  -25.1822 H   0  0  0  0  0  0
   -8.5135   16.5528  -26.4577 H   0  0  0  0  0  0
   -9.7889   17.5620  -28.3734 H   0  0  0  0  0  0
  -12.2180   17.1486  -28.5997 H   0  0  0  0  0  0
  -13.4586   15.7450  -26.9538 H   0  0  0  0  0  0
  1  2  2  0  0  0
  2  3  1  0  0  0
  2 29  1  0  0  0
  3  4  1  0  0  0
  3 19  1  0  0  0
  4  5  1  0  0  0
  4 13  1  0  0  0
  4 39  1  0  0  0
  5  6  2  0  0  0
  5  7  1  0  0  0
  7  8  1  0  0  0
  7 40  1  0  0  0
  8  9  1  0  0  0
  8 10  1  0  0  0
  8 12  1  0  0  0
  9 41  1  0  0  0
  9 42  1  0  0  0
  9 43  1  0  0  0
 10 11  1  0  0  0
 10 44  1  0  0  0
 10 45  1  0  0  0
 11 46  1  0  0  0
 11 47  1  0  0  0
 11 48  1  0  0  0
 12 49  1  0  0  0
 12 50  1  0  0  0
 12 51  1  0  0  0
 13 14  2  0  0  0
 13 17  1  0  0  0
 14 15  1  0  0  0
 14 52  1  0  0  0
 15 16  2  0  0  0
 15 53  1  0  0  0
 16 17  1  0  0  0
 16 54  1  0  0  0
 17 18  1  0  0  0
 18 55  1  0  0  0
 18 56  1  0  0  0
 18 57  1  0  0  0
 19 20  2  0  0  0
 19 22  1  0  0  0
 20 21  1  0  0  0
 20 58  1  0  0  0
 21 24  2  0  0  0
 21 59  1  0  0  0
 22 23  2  0  0  0
 22 60  1  0  0  0
 23 24  1  0  0  0
 23 61  1  0  0  0
 24 25  1  0  0  0
 25 26  1  0  0  0
 25 62  1  0  0  0
 26 27  1  0  0  0
 26 28  2  0  0  0
 27 63  1  0  0  0
 27 64  1  0  0  0
 27 65  1  0  0  0
 29 30  1  0  0  0
 29 66  1  0  0  0
 29 67  1  0  0  0
 30 31  1  0  0  0
 30 34  1  0  0  0
 31 32  2  0  0  0
 32 33  1  0  0  0
 33 34  2  0  0  0
 33 35  1  0  0  0
 34 38  1  0  0  0
 35 36  2  0  0  0
 35 68  1  0  0  0
 36 37  1  0  0  0
 36 69  1  0  0  0
 37 38  2  0  0  0
 37 70  1  0  0  0
 38 71  1  0  0  0
M  END
> <s_m_source_file>
../4mds_ligand.sdf

> <i_m_source_file_index>
1

> <s_epik_input>
W2NIXTFbY0hdW2NIXVtjSF1jKGMxMiluKG5uMilbQ0gyXUMoPU8pTihbQ0BASF0oQyg9TylbTkhdQyhbQ0gzXSkoW0NIM10pW0NIMl1bQ0gzXSljM1tjSF1bY0hdW2NIXW4zW0NIM10pYzRbY0hdW2NIXWMoW2NIXVtjSF00KVtOSF1DKD1PKVtDSDNd

> <s_epik_cmdline>
J2VwaWtfYXBwJywgJy1pbWFlJywgJ2xpZ2FuZF9wcm8ubWFlJywgJy1vbWFlJywgJ2xpZ2FuZF9wcmVwLm1hZScsICctbXMnLCAnMScsICctcGgnLCAnNycsICctcGh0JywgJzAuNScsICctbnQn

> <r_lp_tautomer_probability>
1

> <r_epik_Ionization_Penalty>
  0.0000

> <r_epik_Ionization_Penalty_Charging>
  0.0000

> <r_epik_Ionization_Penalty_Neutral>
  0.0000

> <r_epik_State_Penalty>
 -0.0000

> <r_epik_Charging_Adjusted_Penalty>
0

> <i_epik_Tot_Q>
0

> <i_epik_Tot_abs_Q>
0

$$$$
