4mdt_ligand
                    3D
 Schrodinger Suite 2020-3.
101103  0  0  1  0            999 V2000
   29.0680  -38.8820  -14.0840 C   0  0  0  0  0  0
   30.2910  -38.3450  -14.1230 C   0  0  0  0  0  0
   28.5440  -39.4010  -15.3660 C   0  0  0  0  0  0
   30.6290  -38.7260  -16.4840 C   0  0  0  0  0  0
   37.0830  -43.7490   -8.4160 C   0  0  0  0  0  0
   33.8870  -42.7610   -8.1100 C   0  0  2  0  0  0
   34.9680  -43.0120   -9.1480 C   0  0  2  0  0  0
   34.4520  -43.2170  -10.5830 C   0  0  1  0  0  0
   33.6760  -36.0110  -13.8570 C   0  0  1  0  0  0
   32.4060  -36.1700  -14.6640 C   0  0  2  0  0  0
   34.1070  -37.4230  -13.5190 C   0  0  1  0  0  0
   33.3060  -42.2480  -10.8950 C   0  0  1  0  0  0
   32.4050  -37.6220  -15.1240 C   0  0  2  0  0  0
   32.7220  -41.9110   -8.6240 C   0  0  2  0  0  0
   46.7650  -55.1670   -9.8290 C   0  0  0  0  0  0
   37.8970  -44.8310   -7.7560 C   0  0  0  0  0  0
   34.0700  -37.6520  -12.0110 C   0  0  0  0  0  0
   32.7030  -42.4300  -12.2690 C   0  0  0  0  0  0
   45.6520  -54.5250   -9.0290 C   0  0  0  0  0  0
   45.1110  -53.2920   -9.7300 C   0  0  0  0  0  0
   43.5980  -53.3110   -9.8380 C   0  0  0  0  0  0
   43.0090  -52.5180   -8.6950 C   0  0  0  0  0  0
   41.8580  -51.6650   -9.1580 C   0  0  0  0  0  0
   41.2460  -50.9420   -7.9750 C   0  0  0  0  0  0
   39.7930  -50.5490   -8.1650 C   0  0  0  0  0  0
   39.4750  -49.3200   -7.3370 C   0  0  0  0  0  0
   38.4910  -48.3880   -8.0210 C   0  0  0  0  0  0
   38.2210  -47.1880   -7.1400 C   0  0  0  0  0  0
   37.2690  -46.2090   -7.7870 C   0  0  1  0  0  0
   29.3600  -39.2740  -16.4680 N   0  0  0  0  0  0
   31.0800  -38.2410  -15.2490 N   0  0  0  0  0  0
   34.5190  -42.1520   -6.9520 N   0  0  0  0  0  0
   27.4350  -39.9050  -15.3980 O   0  0  0  0  0  0
   31.2670  -38.6920  -17.5330 O   0  0  0  0  0  0
   37.5870  -42.6650   -8.6850 O   0  0  0  0  0  0
   31.9720  -38.3380   -7.2440 O   0  0  0  0  0  0
   32.4760  -36.6150   -9.5080 O   0  0  0  0  0  0
   33.2630  -38.3480  -14.2240 O   0  0  0  0  0  0
   32.2670  -42.3550   -9.9170 O   0  0  0  0  0  0
   35.5170  -42.9140  -11.4830 O   0  0  0  0  0  0
   34.7150  -35.3640  -14.5830 O   0  0  0  0  0  0
   32.3040  -35.2380  -15.7390 O   0  0  0  0  0  0
   31.6840  -41.4590  -12.4350 O   0  0  0  0  0  0
   36.0950  -46.1680   -6.9840 O   0  0  0  0  0  0
   30.3770  -40.3390   -7.8780 O   0  5  0  0  0  0
   30.5100  -37.1890  -11.2170 O   0  5  0  0  0  0
   35.7710  -44.1030   -8.6670 O   0  0  0  0  0  0
   32.9640  -40.5000   -8.4860 O   0  0  0  0  0  0
   32.8610  -38.2890  -11.6220 O   0  0  0  0  0  0
   31.3750  -38.9590   -9.7030 O   0  0  0  0  0  0
   31.7170  -39.4680   -8.2110 P   0  0  2  0  0  0
   31.8940  -37.6310  -10.4670 P   0  0  1  0  0  0
   28.4903  -38.9345  -13.1612 H   0  0  0  0  0  0
   30.6979  -37.9578  -13.1889 H   0  0  0  0  0  0
   33.4514  -43.7213   -7.7968 H   0  0  0  0  0  0
   35.6321  -42.1379   -9.2183 H   0  0  0  0  0  0
   34.1444  -44.2613  -10.7407 H   0  0  0  0  0  0
   33.5316  -35.3440  -12.9943 H   0  0  0  0  0  0
   31.5033  -35.8908  -14.1009 H   0  0  0  0  0  0
   35.1264  -37.6235  -13.8803 H   0  0  0  0  0  0
   33.7087  -41.2266  -10.8268 H   0  0  0  0  0  0
   32.7921  -37.7109  -16.1498 H   0  0  0  0  0  0
   31.8143  -42.0226   -8.0128 H   0  0  0  0  0  0
   47.1346  -56.0553   -9.2957 H   0  0  0  0  0  0
   47.5871  -54.4474   -9.9564 H   0  0  0  0  0  0
   46.3821  -55.4649  -10.8163 H   0  0  0  0  0  0
   38.8711  -44.9159   -8.2599 H   0  0  0  0  0  0
   38.0529  -44.5782   -6.6969 H   0  0  0  0  0  0
   34.9157  -38.2907  -11.7163 H   0  0  0  0  0  0
   34.1422  -36.6851  -11.4914 H   0  0  0  0  0  0
   33.4832  -42.2949  -13.0326 H   0  0  0  0  0  0
   32.2795  -43.4418  -12.3525 H   0  0  0  0  0  0
   44.8299  -55.2446   -8.9016 H   0  0  0  0  0  0
   46.0348  -54.2271   -8.0417 H   0  0  0  0  0  0
   45.4018  -52.3929   -9.1669 H   0  0  0  0  0  0
   45.5252  -53.2373  -10.7476 H   0  0  0  0  0  0
   43.2931  -52.8621  -10.7948 H   0  0  0  0  0  0
   43.2400  -54.3500   -9.7899 H   0  0  0  0  0  0
   42.6440  -53.2079   -7.9199 H   0  0  0  0  0  0
   43.7815  -51.8618   -8.2676 H   0  0  0  0  0  0
   42.2197  -50.9261   -9.8882 H   0  0  0  0  0  0
   41.0952  -52.3026   -9.6287 H   0  0  0  0  0  0
   41.2900  -51.5895   -7.0868 H   0  0  0  0  0  0
   41.8065  -50.0155   -7.7815 H   0  0  0  0  0  0
   39.6089  -50.3273   -9.2266 H   0  0  0  0  0  0
   39.1442  -51.3779   -7.8457 H   0  0  0  0  0  0
   39.0342  -49.6283   -6.3775 H   0  0  0  0  0  0
   40.3997  -48.7541   -7.1507 H   0  0  0  0  0  0
   38.9129  -48.0478   -8.9782 H   0  0  0  0  0  0
   37.5474  -48.9224   -8.2055 H   0  0  0  0  0  0
   37.7755  -47.5224   -6.1915 H   0  0  0  0  0  0
   39.1657  -46.6627   -6.9363 H   0  0  0  0  0  0
   36.9894  -46.5120   -8.8068 H   0  0  0  0  0  0
   29.0153  -39.6267  -17.4512 H   0  0  0  0  0  0
   34.9629  -41.1880   -7.2412 H   0  0  0  0  0  0
   33.7659  -41.9882   -6.1671 H   0  0  0  0  0  0
   36.4531  -43.4901  -11.4412 H   0  0  0  0  0  0
   34.5863  -34.3245  -14.9189 H   0  0  0  0  0  0
   32.2947  -34.1578  -15.5314 H   0  0  0  0  0  0
   31.1127  -41.4163  -13.3740 H   0  0  0  0  0  0
   35.2570  -45.5144   -7.2679 H   0  0  0  0  0  0
  1  2  2  0  0  0
  1  3  1  0  0  0
  1 53  1  0  0  0
  2 31  1  0  0  0
  2 54  1  0  0  0
  3 30  1  0  0  0
  3 33  2  0  0  0
  4 30  1  0  0  0
  4 31  1  0  0  0
  4 34  2  0  0  0
  5 16  1  0  0  0
  5 35  2  0  0  0
  5 47  1  0  0  0
  6  7  1  0  0  0
  6 14  1  0  0  0
  6 32  1  0  0  0
  6 55  1  0  0  0
  7  8  1  0  0  0
  7 47  1  0  0  0
  7 56  1  0  0  0
  8 12  1  0  0  0
  8 40  1  0  0  0
  8 57  1  0  0  0
  9 10  1  0  0  0
  9 11  1  0  0  0
  9 41  1  0  0  0
  9 58  1  0  0  0
 10 13  1  0  0  0
 10 42  1  0  0  0
 10 59  1  0  0  0
 11 17  1  0  0  0
 11 38  1  0  0  0
 11 60  1  0  0  0
 12 18  1  0  0  0
 12 39  1  0  0  0
 12 61  1  0  0  0
 13 31  1  0  0  0
 13 38  1  0  0  0
 13 62  1  0  0  0
 14 39  1  0  0  0
 14 48  1  0  0  0
 14 63  1  0  0  0
 15 19  1  0  0  0
 15 64  1  0  0  0
 15 65  1  0  0  0
 15 66  1  0  0  0
 16 29  1  0  0  0
 16 67  1  0  0  0
 16 68  1  0  0  0
 17 49  1  0  0  0
 17 69  1  0  0  0
 17 70  1  0  0  0
 18 43  1  0  0  0
 18 71  1  0  0  0
 18 72  1  0  0  0
 19 20  1  0  0  0
 19 73  1  0  0  0
 19 74  1  0  0  0
 20 21  1  0  0  0
 20 75  1  0  0  0
 20 76  1  0  0  0
 21 22  1  0  0  0
 21 77  1  0  0  0
 21 78  1  0  0  0
 22 23  1  0  0  0
 22 79  1  0  0  0
 22 80  1  0  0  0
 23 24  1  0  0  0
 23 81  1  0  0  0
 23 82  1  0  0  0
 24 25  1  0  0  0
 24 83  1  0  0  0
 24 84  1  0  0  0
 25 26  1  0  0  0
 25 85  1  0  0  0
 25 86  1  0  0  0
 26 27  1  0  0  0
 26 87  1  0  0  0
 26 88  1  0  0  0
 27 28  1  0  0  0
 27 89  1  0  0  0
 27 90  1  0  0  0
 28 29  1  0  0  0
 28 91  1  0  0  0
 28 92  1  0  0  0
 29 44  1  0  0  0
 29 93  1  0  0  0
 30 94  1  0  0  0
 32 95  1  0  0  0
 32 96  1  0  0  0
 36 51  2  0  0  0
 37 52  2  0  0  0
 40 97  1  0  0  0
 41 98  1  0  0  0
 42 99  1  0  0  0
 43100  1  0  0  0
 44101  1  0  0  0
 45 51  1  0  0  0
 46 52  1  0  0  0
 48 51  1  0  0  0
 49 52  1  0  0  0
 50 51  1  0  0  0
 50 52  1  0  0  0
M  CHG  2  45  -1  46  -1
M  END
> <s_m_source_file>
../4mdt_ligand.sdf

> <i_m_source_file_index>
1

> <s_epik_input>
Tz1jMVtjSF1bY0hdbihjKD1PKVtuSF0xKVtDQEBIXShbQ0BIXShbT0hdKVtDQEBIXTJbT0hdKU9bQ0BASF0yW0NIMl1PW1BAQF0oPU8pKFtPSF0pT1tQQEBdKD1PKShbT0hdKU9bQ0BIXTNPW0NASF0oW0NIMl1bT0hdKVtDQEBIXShbT0hdKVtDQEBIXShbQ0BIXTNbTkgzK10pT0MoPU8pW0NIMl1bQ0BIXShbT0hdKVtDSDJdW0NIMl1bQ0gyXVtDSDJdW0NIMl1bQ0gyXVtDSDJdW0NIMl1bQ0gyXVtDSDJdW0NIM10=

> <s_epik_cmdline>
J2VwaWtfYXBwJywgJy1pbWFlJywgJ2xpZ2FuZF9wcm8ubWFlJywgJy1vbWFlJywgJ2xpZ2FuZF9wcmVwLm1hZScsICctbXMnLCAnMScsICctcGgnLCAnNycsICctcGh0JywgJzAuNScsICctbnQn

> <r_lp_tautomer_probability>
0.999537046341301

> <r_epik_Ionization_Penalty>
  0.2313

> <r_epik_Ionization_Penalty_Charging>
  0.0030

> <r_epik_Ionization_Penalty_Neutral>
  0.2283

> <r_epik_State_Penalty>
  0.2188

> <r_epik_Charging_Adjusted_Penalty>
0.221872941953644

> <i_epik_Tot_Q>
-2

> <i_epik_Tot_abs_Q>
2

> <s_epik_Chemistry_Notes>
This compound has an ester and may undergo hydrolysis at high or low pH. This compound contains an acetal/aminal-like group ( X-CH(R)-Y where X, Y are N, S, or O) that may be acid/base labile, releasing an aldehyde.

$$$$
