4men_ligand
                    3D
 Schrodinger Suite 2020-3.
 37 39  0  0  1  0            999 V2000
   31.0820   19.3430    1.8980 C   0  0  0  0  0  0
   31.2970   18.1320    1.0030 C   0  0  0  0  0  0
   30.1780   17.2880    0.7560 C   0  0  0  0  0  0
   32.5560   17.9440    0.4690 N   0  0  0  0  0  0
   32.7020   16.8720   -0.3260 C   0  0  0  0  0  0
   31.6120   15.9080   -0.6160 N   0  0  0  0  0  0
   32.0700   14.9240   -1.5370 N   0  0  0  0  0  0
   33.3680   15.3520   -1.7550 C   0  0  0  0  0  0
   33.7880   16.5210   -1.0460 N   0  0  0  0  0  0
   30.3410   16.1250   -0.0540 C   0  0  0  0  0  0
   29.2790   15.2550   -0.2050 N   0  0  0  0  0  0
   28.0770   15.4150    0.6790 C   0  0  0  0  0  0
   29.1330   14.5130   -1.4930 C   0  0  0  0  0  0
   28.7740   15.4210   -2.6400 C   0  0  0  0  0  0
   27.5100   16.0460   -2.6220 C   0  0  0  0  0  0
   27.1230   16.8670   -3.6770 C   0  0  0  0  0  0
   29.6210   15.6280   -3.7060 C   0  0  0  0  0  0
   29.1940   16.4520   -4.7730 C   0  0  0  0  0  0
   27.9140   17.0760   -4.7340 C   0  0  0  0  0  0
   27.4280   17.9410   -5.8700 C   0  0  0  0  0  0
   30.0388   19.3608    2.2464 H   0  0  0  0  0  0
   31.2947   20.2609    1.3303 H   0  0  0  0  0  0
   31.7570   19.2830    2.7645 H   0  0  0  0  0  0
   29.2041   17.5283    1.1824 H   0  0  0  0  0  0
   34.0375   14.8239   -2.4339 H   0  0  0  0  0  0
   28.3569   15.9814    1.5795 H   0  0  0  0  0  0
   27.7024   14.4230    0.9715 H   0  0  0  0  0  0
   27.2907   15.9578    0.1340 H   0  0  0  0  0  0
   30.0822   14.0142   -1.7384 H   0  0  0  0  0  0
   28.3377   13.7595   -1.3940 H   0  0  0  0  0  0
   26.8354   15.8859   -1.7809 H   0  0  0  0  0  0
   26.1480   17.3530   -3.6403 H   0  0  0  0  0  0
   30.6067   15.1632   -3.7270 H   0  0  0  0  0  0
   29.8482   16.6106   -5.6303 H   0  0  0  0  0  0
   26.4223   18.3210   -5.6372 H   0  0  0  0  0  0
   27.3902   17.3455   -6.7941 H   0  0  0  0  0  0
   28.1171   18.7874   -6.0071 H   0  0  0  0  0  0
  1  2  1  0  0  0
  1 21  1  0  0  0
  1 22  1  0  0  0
  1 23  1  0  0  0
  2  3  1  0  0  0
  2  4  2  0  0  0
  3 10  2  0  0  0
  3 24  1  0  0  0
  4  5  1  0  0  0
  5  6  1  0  0  0
  5  9  2  0  0  0
  6  7  1  0  0  0
  6 10  1  0  0  0
  7  8  2  0  0  0
  8  9  1  0  0  0
  8 25  1  0  0  0
 10 11  1  0  0  0
 11 12  1  0  0  0
 11 13  1  0  0  0
 12 26  1  0  0  0
 12 27  1  0  0  0
 12 28  1  0  0  0
 13 14  1  0  0  0
 13 29  1  0  0  0
 13 30  1  0  0  0
 14 15  2  0  0  0
 14 17  1  0  0  0
 15 16  1  0  0  0
 15 31  1  0  0  0
 16 19  2  0  0  0
 16 32  1  0  0  0
 17 18  2  0  0  0
 17 33  1  0  0  0
 18 19  1  0  0  0
 18 34  1  0  0  0
 19 20  1  0  0  0
 20 35  1  0  0  0
 20 36  1  0  0  0
 20 37  1  0  0  0
M  END
> <s_m_source_file>
../4men_ligand.sdf

> <i_m_source_file_index>
1

> <s_epik_input>
bjFbY0hdbm4oYzEyKWMoW2NIXWMobjIpW0NIM10pTihbQ0gzXSlbQ0gyXWMzW2NIXVtjSF1jKFtDSDNdKVtjSF1bY0hdMw==

> <s_epik_cmdline>
J2VwaWtfYXBwJywgJy1pbWFlJywgJ2xpZ2FuZF9wcm8ubWFlJywgJy1vbWFlJywgJ2xpZ2FuZF9wcmVwLm1hZScsICctbXMnLCAnMScsICctcGgnLCAnNycsICctcGh0JywgJzAuNScsICctbnQn

> <r_lp_tautomer_probability>
1

> <r_epik_Ionization_Penalty>
  0.0001

> <r_epik_Ionization_Penalty_Charging>
  0.0000

> <r_epik_Ionization_Penalty_Neutral>
  0.0001

> <r_epik_State_Penalty>
 -0.0000

> <r_epik_Charging_Adjusted_Penalty>
0

> <i_epik_Tot_Q>
0

> <i_epik_Tot_abs_Q>
0

$$$$
