4meo_ligand
                    3D
 Schrodinger Suite 2020-3.
 40 42  0  0  1  0            999 V2000
   28.1710   13.1290    3.7430 O   0  0  0  0  0  0
   26.9660   13.3500    3.8150 C   0  0  0  0  0  0
   26.1750   12.9010    4.9850 C   0  0  0  0  0  0
   26.2100   14.0820    2.7950 N   0  0  0  0  0  0
   26.7000   14.6100    1.5400 C   0  0  0  0  0  0
   25.8460   14.5660    0.4130 C   0  0  0  0  0  0
   26.3470   14.9800   -0.8570 C   0  0  0  0  0  0
   27.6250   15.4470   -1.0230 C   0  0  0  0  0  0
   28.4580   15.4990    0.0930 C   0  0  0  0  0  0
   28.0220   15.0950    1.3710 C   0  0  0  0  0  0
   29.8230   15.9760   -0.0460 C   0  0  0  0  0  0
   30.7940   15.4150   -1.0420 C   0  0  0  0  0  0
   30.5190   14.3110   -1.9300 C   0  0  0  0  0  0
   31.4700   13.8280   -2.8080 C   0  0  0  0  0  0
   32.7780   14.4300   -2.8660 C   0  0  0  0  0  0
   33.0820   15.4660   -2.0310 C   0  0  0  0  0  0
   32.0850   15.9930   -1.0790 C   0  0  0  0  0  0
   32.4260   17.1160   -0.1370 N   0  0  0  0  0  0
   33.6570   17.6830   -0.2220 O   0  0  0  0  0  0
   31.5100   17.5730    0.7780 C   0  0  3  0  0  0
   31.9720   18.6440    1.7350 C   0  0  0  0  0  0
   30.2120   17.0290    0.8390 C   0  0  0  0  0  0
   26.8307   12.3652    5.6871 H   0  0  0  0  0  0
   25.3715   12.2294    4.6484 H   0  0  0  0  0  0
   25.7357   13.7751    5.4878 H   0  0  0  0  0  0
   25.1392   14.2850    2.9441 H   0  0  0  0  0  0
   24.8173   14.2199    0.5138 H   0  0  0  0  0  0
   25.6908   14.9230   -1.7254 H   0  0  0  0  0  0
   27.9803   15.7691   -2.0018 H   0  0  0  0  0  0
   28.6971   15.1550    2.2247 H   0  0  0  0  0  0
   29.5337   13.8454   -1.9073 H   0  0  0  0  0  0
   31.2299   12.9879   -3.4597 H   0  0  0  0  0  0
   33.5206   14.0600   -3.5729 H   0  0  0  0  0  0
   34.0764   15.9109   -2.0679 H   0  0  0  0  0  0
   34.3845   17.3104   -0.9581 H   0  0  0  0  0  0
   30.9155   17.0528    0.0125 H   0  0  0  0  0  0
   33.0123   18.9175    1.5048 H   0  0  0  0  0  0
   31.9120   18.2652    2.7660 H   0  0  0  0  0  0
   31.3285   19.5302    1.6319 H   0  0  0  0  0  0
   29.4954   17.4213    1.5756 H   0  0  0  0  0  0
  1  2  2  0  0  0
  2  3  1  0  0  0
  2  4  1  0  0  0
  3 23  1  0  0  0
  3 24  1  0  0  0
  3 25  1  0  0  0
  4  5  1  0  0  0
  4 26  1  0  0  0
  5  6  2  0  0  0
  5 10  1  0  0  0
  6  7  1  0  0  0
  6 27  1  0  0  0
  7  8  2  0  0  0
  7 28  1  0  0  0
  8  9  1  0  0  0
  8 29  1  0  0  0
  9 10  2  0  0  0
  9 11  1  0  0  0
 10 30  1  0  0  0
 11 12  1  0  0  0
 11 22  2  0  0  0
 12 13  2  0  0  0
 12 17  1  0  0  0
 13 14  1  0  0  0
 13 31  1  0  0  0
 14 15  2  0  0  0
 14 32  1  0  0  0
 15 16  1  0  0  0
 15 33  1  0  0  0
 16 17  2  0  0  0
 16 34  1  0  0  0
 17 18  1  0  0  0
 18 19  1  0  0  0
 18 20  1  0  0  0
 19 35  1  0  0  0
 20 21  1  0  0  0
 20 22  1  0  0  0
 20 36  1  0  0  0
 21 37  1  0  0  0
 21 38  1  0  0  0
 21 39  1  0  0  0
 22 40  1  0  0  0
M  END
> <s_m_source_file>
../4meo_ligand.sdf

> <i_m_source_file_index>
1

> <s_epik_input>
Tz1DKFtDSDNdKVtOSF1jMVtjSF1bY0hdW2NIXWMoW2NIXTEpQzI9W0NIXVtDSF0oW0NIM10pTihbT0hdKWMoYzIzKVtjSF1bY0hdW2NIXVtjSF0z

> <s_epik_cmdline>
J2VwaWtfYXBwJywgJy1pbWFlJywgJ2xpZ2FuZF9wcm8ubWFlJywgJy1vbWFlJywgJ2xpZ2FuZF9wcmVwLm1hZScsICctbXMnLCAnMScsICctcGgnLCAnNycsICctcGh0JywgJzAuNScsICctbnQn

> <r_lp_tautomer_probability>
1

> <r_epik_Ionization_Penalty>
  0.0002

> <r_epik_Ionization_Penalty_Charging>
  0.0000

> <r_epik_Ionization_Penalty_Neutral>
  0.0002

> <r_epik_State_Penalty>
 -0.0000

> <r_epik_Charging_Adjusted_Penalty>
0

> <i_epik_Tot_Q>
0

> <i_epik_Tot_abs_Q>
0

> <s_epik_Chemistry_Notes>
This compound has a N-S or N-O group and may undergo hydrolysis at high or low pH.

$$$$
