4mep_ligand
                    3D
 Schrodinger Suite 2020-3.
 40 43  0  0  1  0            999 V2000
   32.5840   28.3770   12.7990 Cl  0  0  0  0  0  0
   33.9460   27.9090   11.9340 C   0  0  0  0  0  0
   34.4920   26.6420   12.0400 C   0  0  0  0  0  0
   34.4580   28.9730   11.0430 C   0  0  0  0  0  0
   33.9860   30.1060   10.8880 O   0  0  0  0  0  0
   35.6040   28.5930   10.2550 N   0  0  0  0  0  0
   36.1750   27.3860   10.3500 C   0  0  0  0  0  0
   35.6470   26.3540   11.2200 C   0  0  2  0  0  0
   36.1620   25.0250   11.2340 C   0  0  0  0  0  0
   36.0270   24.1190   12.2220 N   0  0  0  0  0  0
   36.7700   22.9770   11.8080 C   0  0  0  0  0  0
   36.8270   21.7010   12.5320 C   0  0  0  0  0  0
   35.9650   21.4890   13.5630 C   0  0  0  0  0  0
   35.9750   20.2770   14.3080 C   0  0  0  0  0  0
   36.8540   19.2990   13.9620 C   0  0  0  0  0  0
   37.7040   19.5060   12.8840 C   0  0  0  0  0  0
   37.6910   20.6520   12.1520 C   0  0  0  0  0  0
   37.3080   23.1620   10.6020 N   0  0  0  0  0  0
   36.9410   24.3890   10.2040 N   0  0  0  0  0  0
   37.2890   24.8760    8.8900 C   0  0  0  0  0  0
   36.4470   24.8100    7.7370 C   0  0  0  0  0  0
   35.0460   24.3300    7.7240 C   0  0  0  0  0  0
   38.5630   25.3970    8.8990 N   0  0  0  0  0  0
   39.0420   25.8840    7.7280 C   0  0  0  0  0  0
   38.2970   25.8510    6.5570 C   0  0  0  0  0  0
   37.0000   25.3040    6.5540 C   0  0  0  0  0  0
   34.0463   25.9066   12.7260 H   0  0  0  0  0  0
   37.0721   27.1537    9.7573 H   0  0  0  0  0  0
   36.6912   26.4379   11.5556 H   0  0  0  0  0  0
   35.2485   22.2675   13.8249 H   0  0  0  0  0  0
   35.2889   20.1347   15.1429 H   0  0  0  0  0  0
   36.8908   18.3653   14.5233 H   0  0  0  0  0  0
   38.4089   18.7197   12.6140 H   0  0  0  0  0  0
   38.3398   20.7589   11.2827 H   0  0  0  0  0  0
   34.7700   23.9773    8.7287 H   0  0  0  0  0  0
   34.9484   23.5030    7.0053 H   0  0  0  0  0  0
   34.3791   25.1533    7.4283 H   0  0  0  0  0  0
   40.0430   26.3148    7.7052 H   0  0  0  0  0  0
   38.7187   26.2509    5.6349 H   0  0  0  0  0  0
   36.4270   25.2661    5.6275 H   0  0  0  0  0  0
  1  2  1  0  0  0
  2  3  2  0  0  0
  2  4  1  0  0  0
  3  8  1  0  0  0
  3 27  1  0  0  0
  4  5  2  0  0  0
  4  6  1  0  0  0
  6  7  2  0  0  0
  7  8  1  0  0  0
  7 28  1  0  0  0
  8  9  1  0  0  0
  8 29  1  0  0  0
  9 10  2  0  0  0
  9 19  1  0  0  0
 10 11  1  0  0  0
 11 12  1  0  0  0
 11 18  2  0  0  0
 12 13  2  0  0  0
 12 17  1  0  0  0
 13 14  1  0  0  0
 13 30  1  0  0  0
 14 15  2  0  0  0
 14 31  1  0  0  0
 15 16  1  0  0  0
 15 32  1  0  0  0
 16 17  2  0  0  0
 16 33  1  0  0  0
 17 34  1  0  0  0
 18 19  1  0  0  0
 19 20  1  0  0  0
 20 21  2  0  0  0
 20 23  1  0  0  0
 21 22  1  0  0  0
 21 26  1  0  0  0
 22 35  1  0  0  0
 22 36  1  0  0  0
 22 37  1  0  0  0
 23 24  2  0  0  0
 24 25  1  0  0  0
 24 38  1  0  0  0
 25 26  2  0  0  0
 25 39  1  0  0  0
 26 40  1  0  0  0
M  END
> <s_m_source_file>
../4mep_ligand.sdf

> <i_m_source_file_index>
1

> <s_epik_input>
Tz1DMU49W0NIXVtDQEBIXShbQ0hdPUMxQ2wpYzJuYygtYzNbY0hdW2NIXVtjSF1bY0hdW2NIXTMpbm4yLWM0YyhbQ0gzXSlbY0hdW2NIXVtjSF1uNA==

> <s_epik_cmdline>
J2VwaWtfYXBwJywgJy1pbWFlJywgJ2xpZ2FuZF9wcm8ubWFlJywgJy1vbWFlJywgJ2xpZ2FuZF9wcmVwLm1hZScsICctbXMnLCAnMScsICctcGgnLCAnNycsICctcGh0JywgJzAuNScsICctbnQn

> <r_lp_tautomer_probability>
1

> <r_epik_Ionization_Penalty>
  0.0000

> <r_epik_Ionization_Penalty_Charging>
  0.0000

> <r_epik_Ionization_Penalty_Neutral>
  0.0000

> <r_epik_State_Penalty>
 -0.0000

> <r_epik_Charging_Adjusted_Penalty>
0

> <i_epik_Tot_Q>
0

> <i_epik_Tot_abs_Q>
0

> <s_epik_Chemistry_Notes>
This compound has an imine and may undergo hydrolysis.

$$$$
