4meq_ligand
                    3D
 Schrodinger Suite 2020-3.
 28 30  0  0  1  0            999 V2000
   29.0310   15.7910   -0.6100 C   0  0  0  0  0  0
   27.9610   15.4720    0.1800 C   0  0  0  0  0  0
   26.8230   14.9490   -0.3770 C   0  0  0  0  0  0
   33.0990   15.5000   -1.9290 C   0  0  0  0  0  0
   26.7040   14.7900   -1.7110 C   0  0  0  0  0  0
   27.7070   15.1260   -2.5280 C   0  0  0  0  0  0
   28.8970   15.6160   -1.9860 C   0  0  0  0  0  0
   32.6670   16.9340   -0.3720 C   0  0  0  0  0  0
   32.6690   17.8780    0.5680 N   0  0  0  0  0  0
   33.7020   16.4840   -1.1320 N   0  0  0  0  0  0
   30.1920   16.5520   -0.1880 C   0  0  0  0  0  0
   33.8910   14.7830   -2.8390 N   0  0  0  0  0  0
   31.4540   18.1590    1.1430 C   0  0  0  0  0  0
   31.3380   19.2490    2.2250 C   0  0  0  0  0  0
   31.7350   15.2970   -1.7430 N   0  0  0  0  0  0
   31.4450   16.2140   -0.7660 N   0  0  0  0  0  0
   30.2570   17.5220    0.7890 C   0  0  0  0  0  0
   28.0134   15.6343    1.2566 H   0  0  0  0  0  0
   25.9974   14.6556    0.2714 H   0  0  0  0  0  0
   25.7817   14.3839   -2.1265 H   0  0  0  0  0  0
   27.5971   15.0186   -3.6071 H   0  0  0  0  0  0
   29.7288   15.8639   -2.6453 H   0  0  0  0  0  0
   34.9650   15.0041   -2.9266 H   0  0  0  0  0  0
   33.4378   13.9999   -3.4646 H   0  0  0  0  0  0
   32.3318   19.6776    2.4217 H   0  0  0  0  0  0
   30.9399   18.8065    3.1500 H   0  0  0  0  0  0
   30.6595   20.0413    1.8760 H   0  0  0  0  0  0
   29.3407   17.8050    1.3071 H   0  0  0  0  0  0
  1  2  2  0  0  0
  1  7  1  0  0  0
  1 11  1  0  0  0
  2  3  1  0  0  0
  2 18  1  0  0  0
  3  5  2  0  0  0
  3 19  1  0  0  0
  4 10  1  0  0  0
  4 12  1  0  0  0
  4 15  2  0  0  0
  5  6  1  0  0  0
  5 20  1  0  0  0
  6  7  2  0  0  0
  6 21  1  0  0  0
  7 22  1  0  0  0
  8  9  1  0  0  0
  8 10  2  0  0  0
  8 16  1  0  0  0
  9 13  2  0  0  0
 11 16  1  0  0  0
 11 17  2  0  0  0
 12 23  1  0  0  0
 12 24  1  0  0  0
 13 14  1  0  0  0
 13 17  1  0  0  0
 14 25  1  0  0  0
 14 26  1  0  0  0
 14 27  1  0  0  0
 15 16  1  0  0  0
 17 28  1  0  0  0
M  END
> <s_m_source_file>
../4meq_ligand.sdf

> <i_m_source_file_index>
1

> <s_epik_input>
bjFjKFtOSDJdKW5uKGMxMiljKFtjSF1jKG4yKVtDSDNdKS1jM1tjSF1bY0hdW2NIXVtjSF1bY0hdMw==

> <s_epik_cmdline>
J2VwaWtfYXBwJywgJy1pbWFlJywgJ2xpZ2FuZF9wcm8ubWFlJywgJy1vbWFlJywgJ2xpZ2FuZF9wcmVwLm1hZScsICctbXMnLCAnMScsICctcGgnLCAnNycsICctcGh0JywgJzAuNScsICctbnQn

> <r_lp_tautomer_probability>
1

> <r_epik_Ionization_Penalty>
  0.0001

> <r_epik_Ionization_Penalty_Charging>
  0.0000

> <r_epik_Ionization_Penalty_Neutral>
  0.0001

> <r_epik_State_Penalty>
 -0.0000

> <r_epik_Charging_Adjusted_Penalty>
0

> <i_epik_Tot_Q>
0

> <i_epik_Tot_abs_Q>
0

$$$$
