4mex_ligand
                    3D
 Schrodinger Suite 2020-3.
142146  0  0  1  0            999 V2000
   20.1400  111.5360    2.3180 C   0  0  0  0  0  0
   19.8110  110.1450    2.8620 C   0  0  0  0  0  0
   19.3410  109.2460    1.7170 C   0  0  0  0  0  0
   21.0600  109.5390    3.5060 C   0  0  1  0  0  0
   20.7550  108.2350    4.0070 O   0  0  0  0  0  0
   22.1750  109.4380    2.4630 C   0  0  1  0  0  0
   23.5320  109.6140    3.1460 C   0  0  0  0  0  0
   22.1180  108.0670    1.7860 C   0  0  0  0  0  0
   21.5210  107.9100    0.7220 O   0  0  0  0  0  0
   22.7560  107.0860    2.4390 N   0  0  0  0  0  0
   22.7990  105.7090    1.9280 C   0  0  2  0  0  0
   21.5030  105.2490    1.7220 C   0  0  0  0  0  0
   21.2060  104.6480    0.6910 O   0  0  0  0  0  0
   23.5000  104.8140    2.9370 C   0  0  2  0  0  0
   22.5760  103.8360    3.4350 O   0  0  0  0  0  0
   24.0190  105.6640    4.0990 C   0  0  0  0  0  0
   20.5260  105.4740    2.6990 N   0  0  0  0  0  0
   19.1440  104.9880    2.4870 C   0  0  2  0  0  0
   18.3180  106.0090    1.7030 C   0  0  1  0  0  0
   18.1620  105.5370    0.2560 C   0  0  0  0  0  0
   16.9370  106.1510    2.3450 C   0  0  0  0  0  0
   16.7260  107.6010    2.7880 C   0  0  0  0  0  0
   18.5420  104.7510    3.7180 C   0  0  0  0  0  0
   18.3820  105.6650    4.5260 O   0  0  0  0  0  0
   18.1120  103.4590    4.0400 N   0  0  0  0  0  0
   17.4700  103.1970    5.3480 C   0  0  2  0  0  0
   18.4370  102.8240    6.2740 C   0  0  0  0  0  0
   19.3430  102.0530    5.9610 O   0  0  0  0  0  0
   16.5400  102.1730    5.2110 C   0  0  0  0  0  0
   16.7480  100.9560    5.8500 C   0  0  0  0  0  0
   15.8180   99.9320    5.7130 C   0  0  0  0  0  0
   14.6800  100.1240    4.9380 C   0  0  0  0  0  0
   13.7710   99.1220    4.8040 O   0  0  0  0  0  0
   14.4730  101.3420    4.2990 C   0  0  0  0  0  0
   15.4030  102.3660    4.4360 C   0  0  0  0  0  0
   17.2970  104.2400    7.9060 C   0  0  0  0  0  0
   18.3830  103.3110    7.5210 N   0  0  0  0  0  0
   19.4090  102.9190    8.5130 C   0  0  2  0  0  0
   20.6490  103.4050    8.1150 C   0  0  0  0  0  0
   21.6530  102.6980    8.1830 O   0  0  0  0  0  0
   19.4790  101.3980    8.6580 C   0  0  0  0  0  0
   18.9790  101.0260    9.9010 C   0  0  0  0  0  0
   19.6300  100.0520   10.6480 C   0  0  0  0  0  0
   19.1310   99.6800   11.8910 C   0  0  0  0  0  0
   17.9800  100.2820   12.3860 C   0  0  0  0  0  0
   17.3290  101.2570   11.6390 C   0  0  0  0  0  0
   17.8290  101.6290   10.3960 C   0  0  0  0  0  0
   20.7560  104.7140    7.6300 N   0  0  0  0  0  0
   22.0730  105.2390    7.2040 C   0  0  2  0  0  0
   21.9110  106.5010    6.3540 C   0  0  2  0  0  0
   23.1280  107.2510    6.3760 O   0  0  0  0  0  0
   20.7740  107.3550    6.9190 C   0  0  0  0  0  0
   22.7430  104.2670    6.4690 C   0  0  0  0  0  0
   23.9670  104.3010    6.3520 O   0  0  0  0  0  0
   22.0160  103.2390    5.8560 N   0  0  0  0  0  0
   22.7200  102.2000    5.0730 C   0  0  2  0  0  0
   23.2630  102.7710    3.9270 C   0  0  0  0  0  0
   24.2900  102.3220    3.4210 O   0  0  0  0  0  0
   21.7730  101.0780    4.6800 C   0  0  0  0  0  0
   20.8780  101.5430    3.6590 O   0  0  0  0  0  0
   18.8060  100.1380    1.2910 N   0  0  0  0  0  0
   20.0780  100.8290    1.6030 C   0  0  0  0  0  0
   20.4850  100.4930    2.8890 C   0  0  0  0  0  0
   20.4780   99.3240    3.2710 O   0  0  0  0  0  0
   13.1640   99.1970    3.5060 C   0  0  2  0  0  0
   12.1580   98.0550    3.3460 C   0  0  0  0  0  0
   14.2400   99.0820    2.4330 C   0  0  1  0  0  0
   14.3030   97.8590    1.6800 O   0  0  0  0  0  0
   13.7940   99.0410    1.0030 C   0  0  0  0  0  0
   15.4340   99.7300    2.7250 C   0  0  0  0  0  0
   16.5190   99.6110    1.8650 C   0  0  0  0  0  0
   17.7140  100.2590    2.1580 C   0  0  0  0  0  0
   17.8100  100.9380    3.1780 O   0  0  0  0  0  0
   19.2417  111.9707    1.8554 H   0  0  0  0  0  0
   20.9380  111.4559    1.5651 H   0  0  0  0  0  0
   20.4770  112.1818    3.1423 H   0  0  0  0  0  0
   19.0130  110.2271    3.6146 H   0  0  0  0  0  0
   18.4432  109.6813    1.2539 H   0  0  0  0  0  0
   19.1030  108.2464    2.1097 H   0  0  0  0  0  0
   20.1388  109.1639    0.9642 H   0  0  0  0  0  0
   21.3828  110.1265    4.3781 H   0  0  0  0  0  0
   19.9732  108.1081    4.7703 H   0  0  0  0  0  0
   22.0417  110.2261    1.7073 H   0  0  0  0  0  0
   23.5725  110.5997    3.6325 H   0  0  0  0  0  0
   24.3325  109.5426    2.3949 H   0  0  0  0  0  0
   23.6670  108.8262    3.9018 H   0  0  0  0  0  0
   23.2575  107.3374    3.3852 H   0  0  0  0  0  0
   23.2794  105.6924    0.9386 H   0  0  0  0  0  0
   24.3137  104.2497    2.4580 H   0  0  0  0  0  0
   24.7274  106.4138    3.7170 H   0  0  0  0  0  0
   24.5281  105.0165    4.8281 H   0  0  0  0  0  0
   23.1745  106.1726    4.5870 H   0  0  0  0  0  0
   20.7843  106.0113    3.6234 H   0  0  0  0  0  0
   19.1793  104.0121    1.9806 H   0  0  0  0  0  0
   18.8302  106.9823    1.7181 H   0  0  0  0  0  0
   19.1553  105.4350   -0.2055 H   0  0  0  0  0  0
   17.5696  106.2727   -0.3078 H   0  0  0  0  0  0
   17.6490  104.5641    0.2410 H   0  0  0  0  0  0
   16.1627  105.8748    1.6141 H   0  0  0  0  0  0
   16.8691  105.4872    3.2195 H   0  0  0  0  0  0
   15.7327  107.7025    3.2496 H   0  0  0  0  0  0
   16.7936  108.2650    1.9137 H   0  0  0  0  0  0
   17.5001  107.8774    3.5191 H   0  0  0  0  0  0
   18.2510  102.6380    3.3213 H   0  0  0  0  0  0
   16.9443  104.0757    5.7498 H   0  0  0  0  0  0
   17.6399  100.8048    6.4581 H   0  0  0  0  0  0
   15.9812   98.9776    6.2137 H   0  0  0  0  0  0
   13.5813  101.4936    3.6907 H   0  0  0  0  0  0
   15.2403  103.3205    3.9354 H   0  0  0  0  0  0
   16.6375  104.4110    7.0424 H   0  0  0  0  0  0
   17.7312  105.1970    8.2310 H   0  0  0  0  0  0
   16.7153  103.8023    8.7307 H   0  0  0  0  0  0
   19.1905  103.4137    9.4709 H   0  0  0  0  0  0
   18.8790  100.9262    7.8659 H   0  0  0  0  0  0
   20.5250  101.0691    8.5708 H   0  0  0  0  0  0
   20.5321   99.5795   10.2593 H   0  0  0  0  0  0
   19.6422   98.9164   12.4773 H   0  0  0  0  0  0
   17.5878   99.9895   13.3600 H   0  0  0  0  0  0
   16.4269  101.7297   12.0275 H   0  0  0  0  0  0
   17.3190  102.3935    9.8099 H   0  0  0  0  0  0
   19.8624  105.3522    7.5654 H   0  0  0  0  0  0
   22.6941  105.4194    8.0938 H   0  0  0  0  0  0
   21.7332  106.2497    5.2980 H   0  0  0  0  0  0
   24.0598  106.7983    6.0061 H   0  0  0  0  0  0
   19.8381  106.7773    6.9017 H   0  0  0  0  0  0
   20.6569  108.2612    6.3066 H   0  0  0  0  0  0
   21.0097  107.6404    7.9549 H   0  0  0  0  0  0
   20.9212  103.2042    5.9568 H   0  0  0  0  0  0
   23.5739  101.8239    5.6556 H   0  0  0  0  0  0
   22.3534  100.2252    4.2982 H   0  0  0  0  0  0
   21.1932  100.7624    5.5599 H   0  0  0  0  0  0
   18.7198   99.5301    0.3783 H   0  0  0  0  0  0
   20.8493  100.5203    0.8821 H   0  0  0  0  0  0
   19.9298  101.9170    1.5380 H   0  0  0  0  0  0
   12.6661  100.1767    3.4582 H   0  0  0  0  0  0
   11.3818   98.1389    4.1209 H   0  0  0  0  0  0
   12.6778   97.0912    3.4505 H   0  0  0  0  0  0
   11.6913   98.1141    2.3516 H   0  0  0  0  0  0
   12.7342   99.3290    0.9411 H   0  0  0  0  0  0
   14.3996   99.7419    0.4098 H   0  0  0  0  0  0
   15.5198  100.3376    3.6379 H   0  0  0  0  0  0
   16.4330   99.0039    0.9517 H   0  0  0  0  0  0
  1  2  1  0  0  0
  1 74  1  0  0  0
  1 75  1  0  0  0
  1 76  1  0  0  0
  2  3  1  0  0  0
  2  4  1  0  0  0
  2 77  1  0  0  0
  3 78  1  0  0  0
  3 79  1  0  0  0
  3 80  1  0  0  0
  4  5  1  0  0  0
  4  6  1  0  0  0
  4 81  1  0  0  0
  5 82  1  0  0  0
  6  7  1  0  0  0
  6  8  1  0  0  0
  6 83  1  0  0  0
  7 84  1  0  0  0
  7 85  1  0  0  0
  7 86  1  0  0  0
  8  9  2  0  0  0
  8 10  1  0  0  0
 10 11  1  0  0  0
 10 87  1  0  0  0
 11 12  1  0  0  0
 11 14  1  0  0  0
 11 88  1  0  0  0
 12 13  2  0  0  0
 12 17  1  0  0  0
 14 15  1  0  0  0
 14 16  1  0  0  0
 14 89  1  0  0  0
 15 57  1  0  0  0
 16 90  1  0  0  0
 16 91  1  0  0  0
 16 92  1  0  0  0
 17 18  1  0  0  0
 17 93  1  0  0  0
 18 19  1  0  0  0
 18 23  1  0  0  0
 18 94  1  0  0  0
 19 20  1  0  0  0
 19 21  1  0  0  0
 19 95  1  0  0  0
 20 96  1  0  0  0
 20 97  1  0  0  0
 20 98  1  0  0  0
 21 22  1  0  0  0
 21 99  1  0  0  0
 21100  1  0  0  0
 22101  1  0  0  0
 22102  1  0  0  0
 22103  1  0  0  0
 23 24  2  0  0  0
 23 25  1  0  0  0
 25 26  1  0  0  0
 25104  1  0  0  0
 26 27  1  0  0  0
 26 29  1  0  0  0
 26105  1  0  0  0
 27 28  2  0  0  0
 27 37  1  0  0  0
 29 30  2  0  0  0
 29 35  1  0  0  0
 30 31  1  0  0  0
 30106  1  0  0  0
 31 32  2  0  0  0
 31107  1  0  0  0
 32 33  1  0  0  0
 32 34  1  0  0  0
 33 65  1  0  0  0
 34 35  2  0  0  0
 34108  1  0  0  0
 35109  1  0  0  0
 36 37  1  0  0  0
 36110  1  0  0  0
 36111  1  0  0  0
 36112  1  0  0  0
 37 38  1  0  0  0
 38 39  1  0  0  0
 38 41  1  0  0  0
 38113  1  0  0  0
 39 40  2  0  0  0
 39 48  1  0  0  0
 41 42  1  0  0  0
 41114  1  0  0  0
 41115  1  0  0  0
 42 43  2  0  0  0
 42 47  1  0  0  0
 43 44  1  0  0  0
 43116  1  0  0  0
 44 45  2  0  0  0
 44117  1  0  0  0
 45 46  1  0  0  0
 45118  1  0  0  0
 46 47  2  0  0  0
 46119  1  0  0  0
 47120  1  0  0  0
 48 49  1  0  0  0
 48121  1  0  0  0
 49 50  1  0  0  0
 49 53  1  0  0  0
 49122  1  0  0  0
 50 51  1  0  0  0
 50 52  1  0  0  0
 50123  1  0  0  0
 51124  1  0  0  0
 52125  1  0  0  0
 52126  1  0  0  0
 52127  1  0  0  0
 53 54  2  0  0  0
 53 55  1  0  0  0
 55 56  1  0  0  0
 55128  1  0  0  0
 56 57  1  0  0  0
 56 59  1  0  0  0
 56129  1  0  0  0
 57 58  2  0  0  0
 59 60  1  0  0  0
 59130  1  0  0  0
 59131  1  0  0  0
 60 63  1  0  0  0
 61 62  1  0  0  0
 61 72  1  0  0  0
 61132  1  0  0  0
 62 63  1  0  0  0
 62133  1  0  0  0
 62134  1  0  0  0
 63 64  2  0  0  0
 65 66  1  0  0  0
 65 67  1  0  0  0
 65135  1  0  0  0
 66136  1  0  0  0
 66137  1  0  0  0
 66138  1  0  0  0
 67 68  1  0  0  0
 67 69  1  0  0  0
 67 70  1  0  0  0
 68 69  1  0  0  0
 69139  1  0  0  0
 69140  1  0  0  0
 70 71  2  0  0  0
 70141  1  0  0  0
 71 72  1  0  0  0
 71142  1  0  0  0
 72 73  2  0  0  0
M  END
> <s_m_source_file>
../4mex_ligand.sdf

> <i_m_source_file_index>
1

> <s_epik_input>
W0NIMl0xT1tDQF0xMltDQEBIXShbQ0gzXSlPYzNbY0hdW2NIXWMoW2NIXVtjSF0zKVtDQEBIXTRbTkhdQyg9TylbQ0BASF0oW0NAQEhdKFtDSDNdKVtDSDJdW0NIM10pW05IXUMoPU8pW0NAQEhdKFtOSF1DKD1PKVtDQEhdKFtDSDNdKVtDQEhdKFtPSF0pW0NIXShbQ0gzXSlbQ0gzXSlbQ0BASF0oW0NIM10pT0MoPU8pW0NASF0oW0NIMl1PQyg9TylbQ0gyXVtOSF1DKD1PKVxbQ0hdPVtDSF1cMilbTkhdQyg9TylbQ0BASF0oW0NASF0oW09IXSlbQ0gzXSlbTkhdQyg9TylbQ0BASF0oTihDND1PKVtDSDNdKVtDSDJdYzVbY0hdW2NIXVtjSF1bY0hdW2NIXTU=

> <s_epik_cmdline>
J2VwaWtfYXBwJywgJy1pbWFlJywgJ2xpZ2FuZF9wcm8ubWFlJywgJy1vbWFlJywgJ2xpZ2FuZF9wcmVwLm1hZScsICctbXMnLCAnMScsICctcGgnLCAnNycsICctcGh0JywgJzAuNScsICctbnQn

> <r_lp_tautomer_probability>
1

> <r_epik_Ionization_Penalty>
  0.0000

> <r_epik_Ionization_Penalty_Charging>
  0.0000

> <r_epik_Ionization_Penalty_Neutral>
  0.0000

> <r_epik_State_Penalty>
 -0.0000

> <r_epik_Charging_Adjusted_Penalty>
0

> <i_epik_Tot_Q>
0

> <i_epik_Tot_abs_Q>
0

> <s_epik_Chemistry_Notes>
This compound has an ester and may undergo hydrolysis at high or low pH.

$$$$
