4mf0_ligand
                    3D
 Schrodinger Suite 2020-3.
 56 60  0  0  1  0            999 V2000
    0.7310   59.7420    6.9050 C   0  0  0  0  0  0
    0.3830   61.1520    7.1340 N   0  3  0  0  0  0
    0.6540   61.5150    8.5340 C   0  0  0  0  0  0
    1.1270   62.0260    6.2070 C   0  0  0  0  0  0
    0.2410   62.9330    5.3730 C   0  0  0  0  0  0
   -0.9390   63.4820    5.8840 C   0  0  0  0  0  0
   -1.7080   64.3420    5.1000 C   0  0  0  0  0  0
   -1.3200   64.6550    3.7960 C   0  0  0  0  0  0
   -0.1240   64.1300    3.3010 C   0  0  0  0  0  0
    0.6470   63.2700    4.0810 C   0  0  0  0  0  0
   -2.1920   65.6030    2.9870 C   0  0  1  0  0  0
   -1.7370   66.0440    1.5900 C   0  0  0  0  0  0
   -2.9140   65.0720    1.7410 C   0  0  2  0  0  0
   -4.3150   65.5320    1.3840 C   0  0  0  0  0  0
   -4.5960   66.7150    1.3680 O   0  0  0  0  0  0
   -5.2150   64.5810    1.0350 N   0  0  0  0  0  0
   -6.5500   64.7560    0.6790 C   0  0  0  0  0  0
   -7.3090   63.7740    0.3090 N   0  0  0  0  0  0
   -8.5970   64.0360    0.0250 C   0  0  0  0  0  0
   -9.5950   63.1400   -0.4250 C   0  0  0  0  0  0
  -10.8630   63.5970   -0.6590 C   0  0  0  0  0  0
  -11.2070   64.9600   -0.4860 C   0  0  0  0  0  0
  -10.2220   65.8650   -0.0670 C   0  0  0  0  0  0
   -8.9280   65.3990    0.1960 C   0  0  0  0  0  0
   -7.4810   66.2580    0.7290 S   0  0  0  0  0  0
  -12.6030   65.4240   -0.7570 C   0  0  0  0  0  0
  -13.2970   65.0010   -1.9130 C   0  0  0  0  0  0
  -14.5970   65.4510   -2.1540 C   0  0  0  0  0  0
  -15.1920   66.2980   -1.2220 C   0  0  0  0  0  0
  -14.5220   66.6860   -0.1380 N   0  0  0  0  0  0
  -13.2780   66.2870    0.1220 C   0  0  0  0  0  0
    0.1673   59.1070    7.6043 H   0  0  0  0  0  0
    1.8095   59.5994    7.0680 H   0  0  0  0  0  0
    0.4766   59.4648    5.8714 H   0  0  0  0  0  0
   -0.6914   61.2884    6.9417 H   0  0  0  0  0  0
    0.0878   60.8489    9.2017 H   0  0  0  0  0  0
    0.3469   62.5567    8.7087 H   0  0  0  0  0  0
    1.7298   61.4107    8.7381 H   0  0  0  0  0  0
    1.8079   62.6728    6.7798 H   0  0  0  0  0  0
    1.7097   61.4078    5.5082 H   0  0  0  0  0  0
   -1.2586   63.2375    6.8970 H   0  0  0  0  0  0
   -2.6211   64.7740    5.5096 H   0  0  0  0  0  0
    0.2087   64.3948    2.2974 H   0  0  0  0  0  0
    1.5728   62.8581    3.6794 H   0  0  0  0  0  0
   -2.4955   66.1238    3.9071 H   0  0  0  0  0  0
   -1.8266   67.1369    1.5032 H   0  0  0  0  0  0
   -0.6887   65.7486    1.4355 H   0  0  0  0  0  0
   -3.1681   64.0702    1.3644 H   0  0  0  0  0  0
   -4.9156   63.5228    1.0109 H   0  0  0  0  0  0
   -9.3544   62.0890   -0.5848 H   0  0  0  0  0  0
  -11.6285   62.8939   -0.9871 H   0  0  0  0  0  0
  -10.4611   66.9217    0.0530 H   0  0  0  0  0  0
  -12.8168   64.3223   -2.6179 H   0  0  0  0  0  0
  -15.1343   65.1460   -3.0520 H   0  0  0  0  0  0
  -16.2128   66.6457   -1.3807 H   0  0  0  0  0  0
  -12.7785   66.6339    1.0266 H   0  0  0  0  0  0
  1  2  1  0  0  0
  1 32  1  0  0  0
  1 33  1  0  0  0
  1 34  1  0  0  0
  2  3  1  0  0  0
  2  4  1  0  0  0
  2 35  1  0  0  0
  3 36  1  0  0  0
  3 37  1  0  0  0
  3 38  1  0  0  0
  4  5  1  0  0  0
  4 39  1  0  0  0
  4 40  1  0  0  0
  5  6  2  0  0  0
  5 10  1  0  0  0
  6  7  1  0  0  0
  6 41  1  0  0  0
  7  8  2  0  0  0
  7 42  1  0  0  0
  8  9  1  0  0  0
  8 11  1  0  0  0
  9 10  2  0  0  0
  9 43  1  0  0  0
 10 44  1  0  0  0
 11 12  1  0  0  0
 11 13  1  0  0  0
 11 45  1  0  0  0
 12 13  1  0  0  0
 12 46  1  0  0  0
 12 47  1  0  0  0
 13 14  1  0  0  0
 13 48  1  0  0  0
 14 15  2  0  0  0
 14 16  1  0  0  0
 16 17  1  0  0  0
 16 49  1  0  0  0
 17 18  2  0  0  0
 17 25  1  0  0  0
 18 19  1  0  0  0
 19 20  2  0  0  0
 19 24  1  0  0  0
 20 21  1  0  0  0
 20 50  1  0  0  0
 21 22  2  0  0  0
 21 51  1  0  0  0
 22 23  1  0  0  0
 22 26  1  0  0  0
 23 24  2  0  0  0
 23 52  1  0  0  0
 24 25  1  0  0  0
 26 27  2  0  0  0
 26 31  1  0  0  0
 27 28  1  0  0  0
 27 53  1  0  0  0
 28 29  2  0  0  0
 28 54  1  0  0  0
 29 30  1  0  0  0
 29 55  1  0  0  0
 30 31  2  0  0  0
 31 56  1  0  0  0
M  CHG  1   2   1
M  END
> <s_m_source_file>
../4mf0_ligand.sdf

> <i_m_source_file_index>
1

> <s_epik_input>
W0NIM11bTkgrXShbQ0gzXSlbQ0gyXWMxW2NIXVtjSF1jKFtjSF1bY0hdMSlbQ0BIXTJbQ0gyXVtDQEBIXTJDKD1PKVtOSF1jKG4zKXNjKGMzNClbY0hdYyhbY0hdW2NIXTQpLWM1W2NIXVtjSF1bY0hdbltjSF01

> <s_epik_cmdline>
J2VwaWtfYXBwJywgJy1pbWFlJywgJ2xpZ2FuZF9wcm8ubWFlJywgJy1vbWFlJywgJ2xpZ2FuZF9wcmVwLm1hZScsICctbXMnLCAnMScsICctcGgnLCAnNycsICctcGh0JywgJzAuNScsICctbnQn

> <r_epik_Ionization_Penalty>
  0.0479

> <r_epik_Ionization_Penalty_Charging>
  0.0429

> <r_epik_Ionization_Penalty_Neutral>
  0.0050

> <r_epik_State_Penalty>
  0.0363

> <r_epik_Charging_Adjusted_Penalty>
0.0791561969934673

> <i_epik_Tot_Q>
1

> <i_epik_Tot_abs_Q>
1

$$$$
