4mfe_ligand
                    3D
 Schrodinger Suite 2020-3.
 10  9  0  0  1  0            999 V2000
  -39.6810   -5.3650   12.2900 C   0  0  0  0  0  0
  -40.6710   -5.1430   11.5290 O   0  5  0  0  0  0
  -39.5760   -4.8580   13.4290 O   0  0  0  0  0  0
  -38.6760   -6.2980   11.8290 C   0  0  0  0  0  0
  -37.5840   -6.3850   12.3650 O   0  0  0  0  0  0
  -39.0690   -7.1290   10.6320 C   0  0  0  0  0  0
  -38.4220   -8.3960   10.6550 O   0  0  0  0  0  0
  -40.1573   -7.2890   10.6381 H   0  0  0  0  0  0
  -38.7809   -6.6030    9.7099 H   0  0  0  0  0  0
  -38.6043   -9.1214    9.8484 H   0  0  0  0  0  0
  1  2  1  0  0  0
  1  3  2  0  0  0
  1  4  1  0  0  0
  4  5  2  0  0  0
  4  6  1  0  0  0
  6  7  1  0  0  0
  6  8  1  0  0  0
  6  9  1  0  0  0
  7 10  1  0  0  0
M  CHG  1   2  -1
M  END
> <s_m_source_file>
../4mfe_ligand.sdf

> <i_m_source_file_index>
1

> <s_epik_input>
W09IXUMoPU8pQyg9TylbQ0gyXVtPSF0=

> <s_epik_cmdline>
J2VwaWtfYXBwJywgJy1pbWFlJywgJ2xpZ2FuZF9wcm8ubWFlJywgJy1vbWFlJywgJ2xpZ2FuZF9wcmVwLm1hZScsICctbXMnLCAnMScsICctcGgnLCAnNycsICctcGh0JywgJzAuNScsICctbnQn

> <r_lp_tautomer_probability>
1

> <r_epik_Ionization_Penalty>
  0.0001

> <r_epik_Ionization_Penalty_Charging>
  0.0000

> <r_epik_Ionization_Penalty_Neutral>
  0.0000

> <r_epik_State_Penalty>
 -0.0000

> <r_epik_Charging_Adjusted_Penalty>
4.8909686192891e-05

> <i_epik_Tot_Q>
-1

> <i_epik_Tot_abs_Q>
1

$$$$
