4mg6_ligand
                    3D
 Schrodinger Suite 2020-3.
 43 44  0  0  1  0            999 V2000
   25.2020    3.0030    3.4950 C   0  0  0  0  0  0
   24.9670    2.7260    4.9800 C   0  0  0  0  0  0
   23.4750    2.4860    5.2310 C   0  0  0  0  0  0
   23.0800    3.0340    6.6060 C   0  0  0  0  0  0
   21.6560    3.2070    6.6630 O   0  0  0  0  0  0
   21.3560    4.4620    7.0970 C   0  0  0  0  0  0
   22.2060    5.2820    7.4300 O   0  0  0  0  0  0
   19.9990    4.7650    7.1890 C   0  0  0  0  0  0
   19.3670    4.6430    8.4210 C   0  0  0  0  0  0
   18.0160    4.9340    8.5560 C   0  0  0  0  0  0
   17.2850    5.3600    7.4570 C   0  0  0  0  0  0
   17.9120    5.4920    6.2280 C   0  0  0  0  0  0
   19.2620    5.1970    6.0860 C   0  0  0  0  0  0
   19.8320    5.3450    4.8270 C   0  0  0  0  0  0
   19.1210    5.5880    3.8520 O   0  0  0  0  0  0
   21.1870    5.2260    4.7690 O   0  0  0  0  0  0
   21.6310    5.6610    3.4860 C   0  0  0  0  0  0
   22.5590    6.6820    3.6330 C   0  0  0  0  0  0
   22.2710    7.7820    4.4320 C   0  0  0  0  0  0
   23.2040    8.8050    4.5740 C   0  0  0  0  0  0
   24.4300    8.7320    3.9250 C   0  0  0  0  0  0
   24.7170    7.6300    3.1290 C   0  0  0  0  0  0
   23.7850    6.6060    2.9860 C   0  0  0  0  0  0
   26.2742    3.1747    3.3192 H   0  0  0  0  0  0
   24.6336    3.8954    3.1940 H   0  0  0  0  0  0
   24.8673    2.1382    2.9033 H   0  0  0  0  0  0
   25.5354    1.8336    5.2810 H   0  0  0  0  0  0
   25.3017    3.5907    5.5718 H   0  0  0  0  0  0
   22.8859    2.9968    4.4551 H   0  0  0  0  0  0
   23.2667    1.4064    5.1983 H   0  0  0  0  0  0
   23.3943    2.3260    7.3870 H   0  0  0  0  0  0
   23.5734    4.0034    6.7699 H   0  0  0  0  0  0
   19.9377    4.3156    9.2900 H   0  0  0  0  0  0
   17.5299    4.8276    9.5258 H   0  0  0  0  0  0
   16.2243    5.5895    7.5592 H   0  0  0  0  0  0
   17.3400    5.8307    5.3642 H   0  0  0  0  0  0
   22.0973    4.8185    2.9543 H   0  0  0  0  0  0
   20.7720    6.0300    2.9064 H   0  0  0  0  0  0
   21.3130    7.8437    4.9483 H   0  0  0  0  0  0
   22.9714    9.6681    5.1978 H   0  0  0  0  0  0
   25.1608    9.5326    4.0393 H   0  0  0  0  0  0
   25.6758    7.5670    2.6144 H   0  0  0  0  0  0
   24.0185    5.7418    2.3641 H   0  0  0  0  0  0
  1  2  1  0  0  0
  1 24  1  0  0  0
  1 25  1  0  0  0
  1 26  1  0  0  0
  2  3  1  0  0  0
  2 27  1  0  0  0
  2 28  1  0  0  0
  3  4  1  0  0  0
  3 29  1  0  0  0
  3 30  1  0  0  0
  4  5  1  0  0  0
  4 31  1  0  0  0
  4 32  1  0  0  0
  5  6  1  0  0  0
  6  7  2  0  0  0
  6  8  1  0  0  0
  8  9  2  0  0  0
  8 13  1  0  0  0
  9 10  1  0  0  0
  9 33  1  0  0  0
 10 11  2  0  0  0
 10 34  1  0  0  0
 11 12  1  0  0  0
 11 35  1  0  0  0
 12 13  2  0  0  0
 12 36  1  0  0  0
 13 14  1  0  0  0
 14 15  2  0  0  0
 14 16  1  0  0  0
 16 17  1  0  0  0
 17 18  1  0  0  0
 17 37  1  0  0  0
 17 38  1  0  0  0
 18 19  2  0  0  0
 18 23  1  0  0  0
 19 20  1  0  0  0
 19 39  1  0  0  0
 20 21  2  0  0  0
 20 40  1  0  0  0
 21 22  1  0  0  0
 21 41  1  0  0  0
 22 23  2  0  0  0
 22 42  1  0  0  0
 23 43  1  0  0  0
M  END
> <s_m_source_file>
../4mg6_ligand.sdf

> <i_m_source_file_index>
1

> <s_epik_input>
W0NIM11bQ0gyXVtDSDJdW0NIMl1PQyg9TyljMVtjSF1bY0hdW2NIXVtjSF1jMUMoPU8pT1tDSDJdYzJbY0hdW2NIXVtjSF1bY0hdW2NIXTI=

> <s_epik_cmdline>
J2VwaWtfYXBwJywgJy1pbWFlJywgJ2xpZ2FuZF9wcm8ubWFlJywgJy1vbWFlJywgJ2xpZ2FuZF9wcmVwLm1hZScsICctbXMnLCAnMScsICctcGgnLCAnNycsICctcGh0JywgJzAuNScsICctbnQn

> <r_lp_tautomer_probability>
1

> <r_epik_Ionization_Penalty>
  0.0000

> <r_epik_Ionization_Penalty_Charging>
  0.0000

> <r_epik_Ionization_Penalty_Neutral>
  0.0000

> <r_epik_State_Penalty>
 -0.0000

> <r_epik_Charging_Adjusted_Penalty>
0

> <i_epik_Tot_Q>
0

> <i_epik_Tot_abs_Q>
0

> <s_epik_Chemistry_Notes>
This compound has an ester and may undergo hydrolysis at high or low pH.

$$$$
