4mg7_ligand
                    3D
 Schrodinger Suite 2020-3.
 56 58  0  0  1  0            999 V2000
   -5.0500   -6.3700   21.8030 C   0  0  0  0  0  0
   -5.5930   -4.9670   21.7600 C   0  0  0  0  0  0
   -6.3730   -4.7840   20.4550 C   0  0  0  0  0  0
   -6.3560   -4.5740   23.0870 C   0  0  2  0  0  0
   -7.0780   -3.2040   22.8780 C   0  0  1  0  0  0
   -5.4740   -4.5760   24.1970 O   0  0  0  0  0  0
   -7.4870   -5.4710   23.3910 C   0  0  0  0  0  0
   -8.6860   -4.5960   23.5240 C   0  0  0  0  0  0
   -8.2230   -3.2550   23.8700 C   0  0  1  0  0  0
   -7.8330   -3.3350   25.3910 C   0  0  0  0  0  0
   -9.2520   -2.1530   23.5950 C   0  0  0  0  0  0
   -8.8020   -0.9240   24.0090 C   0  0  0  0  0  0
   -7.7200   -0.2360   23.5430 C   0  0  0  0  0  0
   -7.4260    0.9430   24.1540 C   0  0  0  0  0  0
   -6.8820   -0.6990   22.5410 C   0  0  0  0  0  0
   -6.1700   -1.9830   22.9260 C   0  0  2  0  0  0
   -5.1870   -2.1490   21.9990 O   0  0  0  0  0  0
   -3.9180   -2.1890   22.3510 C   0  0  0  0  0  0
   -3.5830   -2.1140   23.5120 O   0  0  0  0  0  0
   -2.9890   -2.5250   21.3370 C   0  0  0  0  0  0
   -1.6720   -2.7370   21.6620 C   0  0  0  0  0  0
   -0.7490   -3.1020   20.7200 C   0  0  0  0  0  0
   -1.1000   -3.2680   19.4090 C   0  0  0  0  0  0
   -0.2030   -3.6170   18.5140 O   0  0  0  0  0  0
   -2.4120   -3.0650   19.0330 C   0  0  0  0  0  0
   -3.3190   -2.6970   20.0070 C   0  0  0  0  0  0
   -4.5306   -6.5912   20.8589 H   0  0  0  0  0  0
   -5.8789   -7.0799   21.9405 H   0  0  0  0  0  0
   -4.3436   -6.4642   22.6410 H   0  0  0  0  0  0
   -4.7464   -4.2668   21.7050 H   0  0  0  0  0  0
   -5.7434   -5.0881   19.6058 H   0  0  0  0  0  0
   -6.6556   -3.7270   20.3419 H   0  0  0  0  0  0
   -7.2803   -5.4055   20.4799 H   0  0  0  0  0  0
   -7.4718   -3.0416   21.8638 H   0  0  0  0  0  0
   -4.5589   -3.9661   24.1735 H   0  0  0  0  0  0
   -7.6128   -6.1933   22.5710 H   0  0  0  0  0  0
   -7.2851   -6.0112   24.3277 H   0  0  0  0  0  0
   -9.2335   -4.5767   22.5701 H   0  0  0  0  0  0
   -9.3413   -4.9897   24.3149 H   0  0  0  0  0  0
   -7.0950   -4.1372   25.5386 H   0  0  0  0  0  0
   -8.7312   -3.5485   25.9891 H   0  0  0  0  0  0
   -7.4000   -2.3753   25.7094 H   0  0  0  0  0  0
   -9.4547   -2.1018   22.5150 H   0  0  0  0  0  0
  -10.1845   -2.3796   24.1327 H   0  0  0  0  0  0
   -9.4240   -0.4950   24.8084 H   0  0  0  0  0  0
   -8.1872    1.1598   24.9180 H   0  0  0  0  0  0
   -7.4157    1.7505   23.4071 H   0  0  0  0  0  0
   -6.4374    0.8722   24.6311 H   0  0  0  0  0  0
   -7.4707   -0.8973   21.6332 H   0  0  0  0  0  0
   -6.1166    0.0604   22.3230 H   0  0  0  0  0  0
   -5.7045   -1.9077   23.9198 H   0  0  0  0  0  0
   -1.3535   -2.6114   22.6968 H   0  0  0  0  0  0
    0.2862   -3.2636   21.0206 H   0  0  0  0  0  0
    0.8422   -3.7781   18.8167 H   0  0  0  0  0  0
   -2.7237   -3.1916   17.9962 H   0  0  0  0  0  0
   -4.3546   -2.5329   19.7091 H   0  0  0  0  0  0
  1  2  1  0  0  0
  1 27  1  0  0  0
  1 28  1  0  0  0
  1 29  1  0  0  0
  2  3  1  0  0  0
  2  4  1  0  0  0
  2 30  1  0  0  0
  3 31  1  0  0  0
  3 32  1  0  0  0
  3 33  1  0  0  0
  4  5  1  0  0  0
  4  6  1  0  0  0
  4  7  1  0  0  0
  5  9  1  0  0  0
  5 16  1  0  0  0
  5 34  1  0  0  0
  6 35  1  0  0  0
  7  8  1  0  0  0
  7 36  1  0  0  0
  7 37  1  0  0  0
  8  9  1  0  0  0
  8 38  1  0  0  0
  8 39  1  0  0  0
  9 10  1  0  0  0
  9 11  1  0  0  0
 10 40  1  0  0  0
 10 41  1  0  0  0
 10 42  1  0  0  0
 11 12  1  0  0  0
 11 43  1  0  0  0
 11 44  1  0  0  0
 12 13  2  0  0  0
 12 45  1  0  0  0
 13 14  1  0  0  0
 13 15  1  0  0  0
 14 46  1  0  0  0
 14 47  1  0  0  0
 14 48  1  0  0  0
 15 16  1  0  0  0
 15 49  1  0  0  0
 15 50  1  0  0  0
 16 17  1  0  0  0
 16 51  1  0  0  0
 17 18  1  0  0  0
 18 19  2  0  0  0
 18 20  1  0  0  0
 20 21  2  0  0  0
 20 26  1  0  0  0
 21 22  1  0  0  0
 21 52  1  0  0  0
 22 23  2  0  0  0
 22 53  1  0  0  0
 23 24  1  0  0  0
 23 25  1  0  0  0
 24 54  1  0  0  0
 25 26  2  0  0  0
 25 55  1  0  0  0
 26 56  1  0  0  0
M  END
> <s_m_source_file>
../4mg7_ligand.sdf

> <i_m_source_file_index>
1

> <s_epik_input>
W0NIM11bQ0hdKFtDSDNdKVtDQF0oW09IXSkoW0NIMl1bQ0gyXTEpW0NAQEhdKFtDQF0xMltDSDNdKVtDQEhdKFtDSDJdQyhbQ0gzXSk9W0NIXVtDSDJdMilPQyg9TyljM1tjSF1bY0hdYyhbT0hdKVtjSF1bY0hdMw==

> <s_epik_cmdline>
J2VwaWtfYXBwJywgJy1pbWFlJywgJ2xpZ2FuZF9wcm8ubWFlJywgJy1vbWFlJywgJ2xpZ2FuZF9wcmVwLm1hZScsICctbXMnLCAnMScsICctcGgnLCAnNycsICctcGh0JywgJzAuNScsICctbnQn

> <r_epik_Ionization_Penalty>
  0.0208

> <r_epik_Ionization_Penalty_Charging>
  0.0000

> <r_epik_Ionization_Penalty_Neutral>
  0.0208

> <r_epik_State_Penalty>
  0.0167

> <r_epik_Charging_Adjusted_Penalty>
0.0167056751677904

> <i_epik_Tot_Q>
0

> <i_epik_Tot_abs_Q>
0

> <s_epik_Chemistry_Notes>
This compound has an ester and may undergo hydrolysis at high or low pH.

$$$$
