4mg8_ligand
                    3D
 Schrodinger Suite 2020-3.
 49 50  0  0  1  0            999 V2000
   -7.6530   -5.1250   24.3950 C   0  0  0  0  0  0
   -6.4560   -4.2240   24.4950 C   0  0  0  0  0  0
   -6.6530   -2.9680   23.7350 C   0  0  0  0  0  0
   -5.3430   -2.2170   23.5800 C   0  0  2  0  0  0
   -5.6220   -0.7530   23.2250 C   0  0  0  0  0  0
   -4.5180   -2.8640   22.6240 O   0  0  0  0  0  0
   -3.2220   -2.7530   22.7800 C   0  0  0  0  0  0
   -2.7470   -2.2070   23.7550 O   0  0  0  0  0  0
   -2.3850   -3.2060   21.7030 C   0  0  0  0  0  0
   -1.0260   -3.0230   21.7980 C   0  0  0  0  0  0
   -0.5410   -2.4810   22.9190 O   0  0  0  0  0  0
   -0.1420   -3.3920   20.8250 C   0  0  0  0  0  0
   -0.6040   -3.9410   19.6840 C   0  0  0  0  0  0
    0.2740   -4.2990   18.7470 O   0  0  0  0  0  0
   -1.9420   -4.1200   19.5320 C   0  0  0  0  0  0
   -2.8540   -3.7880   20.4960 C   0  0  0  0  0  0
   -4.1700   -4.0250   20.1890 C   0  0  0  0  0  0
   -4.5920   -5.3680   20.6670 C   0  0  0  0  0  0
   -6.0310   -5.6040   20.5150 C   0  0  0  0  0  0
   -6.4970   -6.8980   21.1750 C   0  0  0  0  0  0
   -6.7970   -6.7690   22.7040 C   0  0  0  0  0  0
   -7.8610   -5.7620   23.0240 C   0  0  1  0  0  0
   -9.0680   -6.4300   22.9870 O   0  0  0  0  0  0
   -7.5524   -5.9497   25.1160 H   0  0  0  0  0  0
   -8.5640   -4.5508   24.6195 H   0  0  0  0  0  0
   -6.2776   -3.9670   25.5496 H   0  0  0  0  0  0
   -5.5735   -4.7402   24.0891 H   0  0  0  0  0  0
   -7.0464   -3.2025   22.7349 H   0  0  0  0  0  0
   -7.3681   -2.3248   24.2687 H   0  0  0  0  0  0
   -4.7372   -2.2693   24.4967 H   0  0  0  0  0  0
   -6.2634   -0.3042   23.9978 H   0  0  0  0  0  0
   -6.1310   -0.7025   22.2512 H   0  0  0  0  0  0
   -4.6719   -0.2013   23.1712 H   0  0  0  0  0  0
   -1.2265   -2.1729   23.7222 H   0  0  0  0  0  0
    0.9281   -3.2439   20.9697 H   0  0  0  0  0  0
    1.3496   -4.1363   18.9102 H   0  0  0  0  0  0
   -2.3060   -4.5483   18.5981 H   0  0  0  0  0  0
   -4.8016   -3.2636   20.6701 H   0  0  0  0  0  0
   -4.3062   -3.9787   19.0985 H   0  0  0  0  0  0
   -4.0638   -6.1440   20.0935 H   0  0  0  0  0  0
   -4.3475   -5.4708   21.7346 H   0  0  0  0  0  0
   -6.5891   -4.7751   20.9749 H   0  0  0  0  0  0
   -6.2815   -5.6659   19.4457 H   0  0  0  0  0  0
   -7.4241   -7.2421   20.6933 H   0  0  0  0  0  0
   -5.7187   -7.6673   21.0638 H   0  0  0  0  0  0
   -7.1357   -7.7400   23.0944 H   0  0  0  0  0  0
   -5.8829   -6.4601   23.2322 H   0  0  0  0  0  0
   -7.9102   -4.9759   22.2561 H   0  0  0  0  0  0
  -10.0030   -5.8882   23.1924 H   0  0  0  0  0  0
  1  2  1  0  0  0
  1 22  1  0  0  0
  1 24  1  0  0  0
  1 25  1  0  0  0
  2  3  1  0  0  0
  2 26  1  0  0  0
  2 27  1  0  0  0
  3  4  1  0  0  0
  3 28  1  0  0  0
  3 29  1  0  0  0
  4  5  1  0  0  0
  4  6  1  0  0  0
  4 30  1  0  0  0
  5 31  1  0  0  0
  5 32  1  0  0  0
  5 33  1  0  0  0
  6  7  1  0  0  0
  7  8  2  0  0  0
  7  9  1  0  0  0
  9 10  2  0  0  0
  9 16  1  0  0  0
 10 11  1  0  0  0
 10 12  1  0  0  0
 11 34  1  0  0  0
 12 13  2  0  0  0
 12 35  1  0  0  0
 13 14  1  0  0  0
 13 15  1  0  0  0
 14 36  1  0  0  0
 15 16  2  0  0  0
 15 37  1  0  0  0
 16 17  1  0  0  0
 17 18  1  0  0  0
 17 38  1  0  0  0
 17 39  1  0  0  0
 18 19  1  0  0  0
 18 40  1  0  0  0
 18 41  1  0  0  0
 19 20  1  0  0  0
 19 42  1  0  0  0
 19 43  1  0  0  0
 20 21  1  0  0  0
 20 44  1  0  0  0
 20 45  1  0  0  0
 21 22  1  0  0  0
 21 46  1  0  0  0
 21 47  1  0  0  0
 22 23  1  0  0  0
 22 48  1  0  0  0
 23 49  1  0  0  0
M  END
> <s_m_source_file>
../4mg8_ligand.sdf

> <i_m_source_file_index>
1

> <s_epik_input>
Tz1DMU9bQ0BASF0oW0NIM10pW0NIMl1bQ0gyXVtDSDJdW0NASF0oW09IXSlbQ0gyXVtDSDJdW0NIMl1bQ0gyXVtDSDJdYyhjMTIpW2NIXWMoW09IXSlbY0hdYzJbT0hd

> <s_epik_cmdline>
J2VwaWtfYXBwJywgJy1pbWFlJywgJ2xpZ2FuZF9wcm8ubWFlJywgJy1vbWFlJywgJ2xpZ2FuZF9wcmVwLm1hZScsICctbXMnLCAnMScsICctcGgnLCAnNycsICctcGh0JywgJzAuNScsICctbnQn

> <r_epik_Ionization_Penalty>
  0.0438

> <r_epik_Ionization_Penalty_Charging>
  0.0000

> <r_epik_Ionization_Penalty_Neutral>
  0.0438

> <r_epik_State_Penalty>
  0.0335

> <r_epik_Charging_Adjusted_Penalty>
0.0335322342839686

> <i_epik_Tot_Q>
0

> <i_epik_Tot_abs_Q>
0

> <s_epik_Chemistry_Notes>
This compound has an ester and may undergo hydrolysis at high or low pH.

$$$$
