4mga_ligand
                    3D
 Schrodinger Suite 2020-3.
 37 37  0  0  1  0            999 V2000
   -6.4980   -6.4340   20.8830 C   0  0  0  0  0  0
   -5.5440   -5.5920   21.7280 C   0  0  0  0  0  0
   -4.1030   -6.0140   21.4820 C   0  0  0  0  0  0
   -5.9320   -5.8920   23.1810 C   0  0  0  0  0  0
   -5.8500   -4.1050   21.4280 C   0  0  0  0  0  0
   -4.9650   -2.9950   22.0480 C   0  0  0  0  0  0
   -4.9280   -3.0710   23.5760 C   0  0  0  0  0  0
   -5.5920   -1.6590   21.6620 C   0  0  0  0  0  0
   -3.6350   -3.0020   21.5690 C   0  0  0  0  0  0
   -2.5850   -2.6180   22.4010 C   0  0  0  0  0  0
   -1.2770   -2.5880   21.9260 C   0  0  0  0  0  0
   -1.0170   -2.9290   20.6030 C   0  0  0  0  0  0
    0.2600   -2.8960   20.1370 O   0  0  0  0  0  0
   -2.0560   -3.2950   19.7560 C   0  0  0  0  0  0
   -3.3660   -3.3210   20.2340 C   0  0  0  0  0  0
   -6.3092   -7.5013   21.0706 H   0  0  0  0  0  0
   -6.3350   -6.2145   19.8175 H   0  0  0  0  0  0
   -7.5368   -6.1925   21.1524 H   0  0  0  0  0  0
   -3.9873   -7.0811   21.7227 H   0  0  0  0  0  0
   -3.4328   -5.4194   22.1202 H   0  0  0  0  0  0
   -3.8472   -5.8466   20.4253 H   0  0  0  0  0  0
   -5.7191   -6.9473   23.4069 H   0  0  0  0  0  0
   -7.0052   -5.6962   23.3218 H   0  0  0  0  0  0
   -5.3500   -5.2477   23.8564 H   0  0  0  0  0  0
   -5.7808   -3.9278   20.3446 H   0  0  0  0  0  0
   -6.8652   -3.8623   21.7751 H   0  0  0  0  0  0
   -5.9557   -3.0667   23.9683 H   0  0  0  0  0  0
   -4.3803   -2.2036   23.9731 H   0  0  0  0  0  0
   -4.4215   -3.9973   23.8849 H   0  0  0  0  0  0
   -6.6307   -1.6237   22.0224 H   0  0  0  0  0  0
   -5.5798   -1.5509   20.5674 H   0  0  0  0  0  0
   -5.0176   -0.8391   22.1179 H   0  0  0  0  0  0
   -2.7902   -2.3383   23.4343 H   0  0  0  0  0  0
   -0.4605   -2.2987   22.5876 H   0  0  0  0  0  0
    1.0827   -2.6063   20.8072 H   0  0  0  0  0  0
   -1.8476   -3.5613   18.7198 H   0  0  0  0  0  0
   -4.1830   -3.5909   19.5649 H   0  0  0  0  0  0
  1  2  1  0  0  0
  1 16  1  0  0  0
  1 17  1  0  0  0
  1 18  1  0  0  0
  2  3  1  0  0  0
  2  4  1  0  0  0
  2  5  1  0  0  0
  3 19  1  0  0  0
  3 20  1  0  0  0
  3 21  1  0  0  0
  4 22  1  0  0  0
  4 23  1  0  0  0
  4 24  1  0  0  0
  5  6  1  0  0  0
  5 25  1  0  0  0
  5 26  1  0  0  0
  6  7  1  0  0  0
  6  8  1  0  0  0
  6  9  1  0  0  0
  7 27  1  0  0  0
  7 28  1  0  0  0
  7 29  1  0  0  0
  8 30  1  0  0  0
  8 31  1  0  0  0
  8 32  1  0  0  0
  9 10  2  0  0  0
  9 15  1  0  0  0
 10 11  1  0  0  0
 10 33  1  0  0  0
 11 12  2  0  0  0
 11 34  1  0  0  0
 12 13  1  0  0  0
 12 14  1  0  0  0
 13 35  1  0  0  0
 14 15  2  0  0  0
 14 36  1  0  0  0
 15 37  1  0  0  0
M  END
> <s_m_source_file>
../4mga_ligand.sdf

> <i_m_source_file_index>
1

> <s_epik_input>
W0NIM11DKFtDSDNdKShbQ0gzXSlbQ0gyXUMoW0NIM10pKFtDSDNdKWMxW2NIXVtjSF1jKFtPSF0pW2NIXVtjSF0x

> <s_epik_cmdline>
J2VwaWtfYXBwJywgJy1pbWFlJywgJ2xpZ2FuZF9wcm8ubWFlJywgJy1vbWFlJywgJ2xpZ2FuZF9wcmVwLm1hZScsICctbXMnLCAnMScsICctcGgnLCAnNycsICctcGh0JywgJzAuNScsICctbnQn

> <r_lp_tautomer_probability>
1

> <r_epik_Ionization_Penalty>
  0.0003

> <r_epik_Ionization_Penalty_Charging>
  0.0000

> <r_epik_Ionization_Penalty_Neutral>
  0.0003

> <r_epik_State_Penalty>
 -0.0000

> <r_epik_Charging_Adjusted_Penalty>
0

> <i_epik_Tot_Q>
0

> <i_epik_Tot_abs_Q>
0

$$$$
