4mgb_ligand
                    3D
 Schrodinger Suite 2020-3.
 32 33  0  0  1  0            999 V2000
   -4.9800   -6.2450   21.6990 C   0  0  0  0  0  0
   -5.8500   -5.0940   19.6750 C   0  0  0  0  0  0
   -0.4250   -2.2360   20.4390 O   0  5  0  0  0  0
   -8.8270   -1.9960   24.0730 O   0  0  0  0  0  0
   -1.6180   -3.1230   17.9630 Cl  0  0  0  0  0  0
   -1.2420   -2.4370   23.2340 Cl  0  0  0  0  0  0
   -8.7350   -4.8610   24.7910 Cl  0  0  0  0  0  0
   -7.4010   -0.3740   22.0950 Cl  0  0  0  0  0  0
   -3.4810   -4.0160   19.6670 C   0  0  0  0  0  0
   -3.3300   -3.7180   22.0610 C   0  0  0  0  0  0
   -6.8910   -4.7930   22.8050 C   0  0  0  0  0  0
   -6.2920   -2.7840   21.5920 C   0  0  0  0  0  0
   -1.6110   -2.8840   20.6160 C   0  0  0  0  0  0
   -7.9380   -2.7130   23.3290 C   0  0  0  0  0  0
   -2.2740   -3.3570   19.5040 C   0  0  0  0  0  0
   -2.1140   -3.0490   21.8980 C   0  0  0  0  0  0
   -7.8030   -4.0730   23.5680 C   0  0  0  0  0  0
   -7.1990   -2.0560   22.3560 C   0  0  0  0  0  0
   -4.0170   -4.1960   20.9390 C   0  0  0  0  0  0
   -6.1390   -4.1490   21.8220 C   0  0  0  0  0  0
   -5.2340   -4.8790   21.0570 C   0  0  0  0  0  0
   -4.2639   -6.8111   21.0852 H   0  0  0  0  0  0
   -5.9268   -6.8011   21.7645 H   0  0  0  0  0  0
   -4.5667   -6.1044   22.7087 H   0  0  0  0  0  0
   -5.1531   -5.6701   19.0486 H   0  0  0  0  0  0
   -6.0453   -4.1189   19.2049 H   0  0  0  0  0  0
   -6.7950   -5.6478   19.7769 H   0  0  0  0  0  0
   -9.4236   -2.4964   24.8500 H   0  0  0  0  0  0
   -4.0138   -4.3956   18.7952 H   0  0  0  0  0  0
   -3.7423   -3.8672   23.0589 H   0  0  0  0  0  0
   -6.7632   -5.8621   22.9749 H   0  0  0  0  0  0
   -5.7050   -2.2890   20.8184 H   0  0  0  0  0  0
  1 21  1  0  0  0
  1 22  1  0  0  0
  1 23  1  0  0  0
  1 24  1  0  0  0
  2 21  1  0  0  0
  2 25  1  0  0  0
  2 26  1  0  0  0
  2 27  1  0  0  0
  3 13  1  0  0  0
  4 14  1  0  0  0
  4 28  1  0  0  0
  5 15  1  0  0  0
  6 16  1  0  0  0
  7 17  1  0  0  0
  8 18  1  0  0  0
  9 15  2  0  0  0
  9 19  1  0  0  0
  9 29  1  0  0  0
 10 16  1  0  0  0
 10 19  2  0  0  0
 10 30  1  0  0  0
 11 17  2  0  0  0
 11 20  1  0  0  0
 11 31  1  0  0  0
 12 18  1  0  0  0
 12 20  2  0  0  0
 12 32  1  0  0  0
 13 15  1  0  0  0
 13 16  2  0  0  0
 14 17  1  0  0  0
 14 18  2  0  0  0
 19 21  1  0  0  0
 20 21  1  0  0  0
M  CHG  1   3  -1
M  END
> <s_m_source_file>
../4mgb_ligand.sdf

> <i_m_source_file_index>
1

> <s_epik_input>
W09IXWMxYyhDbClbY0hdYyhbY0hdYzFDbClDKFtDSDNdKShbQ0gzXSljKFtjSF1jMkNsKVtjSF1jKENsKWMyW09IXQ==

> <s_epik_cmdline>
J2VwaWtfYXBwJywgJy1pbWFlJywgJ2xpZ2FuZF9wcm8ubWFlJywgJy1vbWFlJywgJ2xpZ2FuZF9wcmVwLm1hZScsICctbXMnLCAnMScsICctcGgnLCAnNycsICctcGh0JywgJzAuNScsICctbnQn

> <r_lp_tautomer_probability>
0.999999999997365

> <r_epik_Ionization_Penalty>
  0.2206

> <r_epik_Ionization_Penalty_Charging>
  0.0065

> <r_epik_Ionization_Penalty_Neutral>
  0.2141

> <r_epik_State_Penalty>
  0.2043

> <r_epik_Charging_Adjusted_Penalty>
0.210804260906395

> <i_epik_Tot_Q>
-1

> <i_epik_Tot_abs_Q>
1

$$$$
