4mgc_ligand
                    3D
 Schrodinger Suite 2020-3.
 28 29  0  0  1  0            999 V2000
   -2.0230   -4.9330   22.2060 O   0  0  0  0  0  0
   -2.5600   -5.1590   20.9780 C   0  0  0  0  0  0
   -1.7400   -5.4750   19.9020 C   0  0  0  0  0  0
   -2.3030   -5.7260   18.6610 C   0  0  0  0  0  0
   -1.4970   -6.0140   17.6060 O   0  0  0  0  0  0
   -3.6860   -5.6810   18.5150 C   0  0  0  0  0  0
   -4.4920   -5.3800   19.6120 C   0  0  0  0  0  0
   -3.9490   -5.1750   20.8790 C   0  0  0  0  0  0
   -4.7320   -4.8090   21.9890 C   0  0  0  0  0  0
   -4.1910   -4.3810   23.0060 O   0  0  0  0  0  0
   -6.1260   -4.9640   21.9520 C   0  0  0  0  0  0
   -6.7520   -5.7820   21.0150 C   0  0  0  0  0  0
   -8.1290   -5.9770   21.0380 C   0  0  0  0  0  0
   -8.9020   -5.4000   22.0400 C   0  0  0  0  0  0
  -10.2480   -5.5930   22.0700 O   0  0  0  0  0  0
   -8.2910   -4.6250   23.0100 C   0  0  0  0  0  0
   -6.9160   -4.4610   22.9850 C   0  0  0  0  0  0
   -6.3030   -3.6850   23.9150 O   0  0  0  0  0  0
   -0.9306   -4.9113   22.3331 H   0  0  0  0  0  0
   -0.6591   -5.5252   20.0333 H   0  0  0  0  0  0
   -0.4056   -6.0452   17.7401 H   0  0  0  0  0  0
   -4.1388   -5.8809   17.5439 H   0  0  0  0  0  0
   -5.5707   -5.3033   19.4757 H   0  0  0  0  0  0
   -6.1531   -6.2776   20.2510 H   0  0  0  0  0  0
   -8.6042   -6.5844   20.2677 H   0  0  0  0  0  0
  -10.7326   -6.2093   21.2984 H   0  0  0  0  0  0
   -8.8871   -4.1474   23.7876 H   0  0  0  0  0  0
   -5.2107   -3.5575   23.8914 H   0  0  0  0  0  0
  1  2  1  0  0  0
  1 19  1  0  0  0
  2  3  2  0  0  0
  2  8  1  0  0  0
  3  4  1  0  0  0
  3 20  1  0  0  0
  4  5  1  0  0  0
  4  6  2  0  0  0
  5 21  1  0  0  0
  6  7  1  0  0  0
  6 22  1  0  0  0
  7  8  2  0  0  0
  7 23  1  0  0  0
  8  9  1  0  0  0
  9 10  2  0  0  0
  9 11  1  0  0  0
 11 12  2  0  0  0
 11 17  1  0  0  0
 12 13  1  0  0  0
 12 24  1  0  0  0
 13 14  2  0  0  0
 13 25  1  0  0  0
 14 15  1  0  0  0
 14 16  1  0  0  0
 15 26  1  0  0  0
 16 17  2  0  0  0
 16 27  1  0  0  0
 17 18  1  0  0  0
 18 28  1  0  0  0
M  END
> <s_m_source_file>
../4mgc_ligand.sdf

> <i_m_source_file_index>
1

> <s_epik_input>
W09IXWMxW2NIXWMoW09IXSlbY0hdW2NIXWMxQyg9TyljMltjSF1bY0hdYyhbT0hdKVtjSF1jMltPSF0=

> <s_epik_cmdline>
J2VwaWtfYXBwJywgJy1pbWFlJywgJ2xpZ2FuZF9wcm8ubWFlJywgJy1vbWFlJywgJ2xpZ2FuZF9wcmVwLm1hZScsICctbXMnLCAnMScsICctcGgnLCAnNycsICctcGh0JywgJzAuNScsICctbnQn

> <r_lp_tautomer_probability>
1

> <r_epik_Ionization_Penalty>
  0.1987

> <r_epik_Ionization_Penalty_Charging>
  0.0000

> <r_epik_Ionization_Penalty_Neutral>
  0.1987

> <r_epik_State_Penalty>
 -0.0000

> <r_epik_Charging_Adjusted_Penalty>
0

> <i_epik_Tot_Q>
0

> <i_epik_Tot_abs_Q>
0

$$$$
