4mgv_ligand
                    3D
 Schrodinger Suite 2020-3.
 43 46  0  0  1  0            999 V2000
  -11.4000    3.6780   20.1100 O   0  0  0  0  0  0
  -11.2060    3.5180   21.3080 C   0  0  0  0  0  0
   -9.8490    3.0410   21.7430 C   0  0  0  0  0  0
   -9.9970    2.6060   23.2240 C   0  0  0  0  0  0
   -8.6440    2.2000   23.7810 C   0  0  1  0  0  0
   -8.1620    1.0390   22.9090 C   0  0  0  0  0  0
   -7.9710    1.4670   21.4430 C   0  0  1  0  0  0
   -9.3370    1.8790   20.8880 C   0  0  0  0  0  0
   -7.7050    3.4140   23.6270 C   0  0  0  0  0  0
   -7.4840    3.8420   22.1640 C   0  0  1  0  0  0
   -6.9790    2.6500   21.3620 C   0  0  0  0  0  0
   -8.8440    4.2010   21.5640 C   0  0  0  0  0  0
  -12.0740    3.7080   22.3390 N   0  0  0  0  0  0
  -13.4210    4.1970   22.3580 N   0  0  0  0  0  0
  -13.4460    5.4480   22.8170 C   0  0  0  0  0  0
  -12.3830    5.9420   23.1150 O   0  0  0  0  0  0
  -14.6250    6.3590   23.0280 C   0  0  0  0  0  0
  -15.4510    6.2160   24.1430 C   0  0  0  0  0  0
  -16.5120    7.1010   24.3470 C   0  0  0  0  0  0
  -16.7210    8.1040   23.4780 N   0  0  0  0  0  0
  -15.9340    8.2800   22.3990 C   0  0  0  0  0  0
  -14.8650    7.4220   22.1560 C   0  0  0  0  0  0
  -10.3957    3.4443   23.8143 H   0  0  0  0  0  0
  -10.6869    1.7517   23.2880 H   0  0  0  0  0  0
   -8.6893    1.8939   24.8366 H   0  0  0  0  0  0
   -7.1981    0.6701   23.2896 H   0  0  0  0  0  0
   -8.9029    0.2264   22.9380 H   0  0  0  0  0  0
   -7.5673    0.6331   20.8499 H   0  0  0  0  0  0
  -10.0455    1.0397   20.9480 H   0  0  0  0  0  0
   -9.2442    2.2065   19.8420 H   0  0  0  0  0  0
   -8.1306    4.2767   24.1605 H   0  0  0  0  0  0
   -6.7192    3.1711   24.0503 H   0  0  0  0  0  0
   -6.7705    4.6782   22.1235 H   0  0  0  0  0  0
   -6.0045    2.3398   21.7672 H   0  0  0  0  0  0
   -6.8589    2.9566   20.3124 H   0  0  0  0  0  0
   -8.7134    4.4108   20.4921 H   0  0  0  0  0  0
   -9.2274    5.0996   22.0694 H   0  0  0  0  0  0
  -11.5825    3.4134   23.2780 H   0  0  0  0  0  0
  -14.2453    3.5514   22.0207 H   0  0  0  0  0  0
  -15.2681    5.4123   24.8562 H   0  0  0  0  0  0
  -17.1684    6.9783   25.2085 H   0  0  0  0  0  0
  -16.1358    9.1007   21.7107 H   0  0  0  0  0  0
  -14.2203    7.5792   21.2913 H   0  0  0  0  0  0
  1  2  2  0  0  0
  2  3  1  0  0  0
  2 13  1  0  0  0
  3  4  1  0  0  0
  3  8  1  0  0  0
  3 12  1  0  0  0
  4  5  1  0  0  0
  4 23  1  0  0  0
  4 24  1  0  0  0
  5  6  1  0  0  0
  5  9  1  0  0  0
  5 25  1  0  0  0
  6  7  1  0  0  0
  6 26  1  0  0  0
  6 27  1  0  0  0
  7  8  1  0  0  0
  7 11  1  0  0  0
  7 28  1  0  0  0
  8 29  1  0  0  0
  8 30  1  0  0  0
  9 10  1  0  0  0
  9 31  1  0  0  0
  9 32  1  0  0  0
 10 11  1  0  0  0
 10 12  1  0  0  0
 10 33  1  0  0  0
 11 34  1  0  0  0
 11 35  1  0  0  0
 12 36  1  0  0  0
 12 37  1  0  0  0
 13 14  1  0  0  0
 13 38  1  0  0  0
 14 15  1  0  0  0
 14 39  1  0  0  0
 15 16  2  0  0  0
 15 17  1  0  0  0
 17 18  2  0  0  0
 17 22  1  0  0  0
 18 19  1  0  0  0
 18 40  1  0  0  0
 19 20  2  0  0  0
 19 41  1  0  0  0
 20 21  1  0  0  0
 21 22  2  0  0  0
 21 42  1  0  0  0
 22 43  1  0  0  0
M  END
> <s_m_source_file>
../4mgv_ligand.sdf

> <i_m_source_file_index>
1

> <s_epik_input>
W0NIMl0xW0NASF0oW0NIMl0yKVtDSDJdW0NASF0oW0NIMl0zKVtDSDJdW0NAQEhdMVtDSDJdQzIzQyg9TylbTkhdW05IXUMoPU8pYzRbY0hdW2NIXW5bY0hdW2NIXTQ=

> <s_epik_cmdline>
J2VwaWtfYXBwJywgJy1pbWFlJywgJ2xpZ2FuZF9wcm8ubWFlJywgJy1vbWFlJywgJ2xpZ2FuZF9wcmVwLm1hZScsICctbXMnLCAnMScsICctcGgnLCAnNycsICctcGh0JywgJzAuNScsICctbnQn

> <r_lp_tautomer_probability>
1

> <r_epik_Ionization_Penalty>
  0.0006

> <r_epik_Ionization_Penalty_Charging>
  0.0000

> <r_epik_Ionization_Penalty_Neutral>
  0.0006

> <r_epik_State_Penalty>
 -0.0000

> <r_epik_Charging_Adjusted_Penalty>
0

> <i_epik_Tot_Q>
0

> <i_epik_Tot_abs_Q>
0

$$$$
