4mh7_ligand
                    3D
 Schrodinger Suite 2020-3.
 62 63  0  0  1  0            999 V2000
   12.9460   16.6330   20.2150 C   0  0  0  0  0  0
   13.1140   18.1280   20.3040 C   0  0  0  0  0  0
   13.0620   18.8060   18.9310 C   0  0  0  0  0  0
   14.2780   19.7490   18.7160 C   0  0  0  0  0  0
   14.2250   20.3330   17.3860 N   0  0  0  0  0  0
   14.9140   19.6650   16.2990 C   0  0  0  0  0  0
   16.0140   20.2190   15.7490 N   0  0  0  0  0  0
   16.6720   19.6000   14.7400 C   0  0  0  0  0  0
   16.2260   18.3570   14.2380 C   0  0  0  0  0  0
   16.8540   17.5260   13.1000 C   0  0  0  0  0  0
   16.2610   16.4890   12.8830 O   0  0  0  0  0  0
   18.0300   17.7870   12.2590 N   0  0  0  0  0  0
   18.9050   18.9470   12.3160 C   0  0  0  0  0  0
   18.4560   16.8110   11.2330 C   0  0  0  0  0  0
   19.7600   16.1450   11.7790 C   0  0  0  0  0  0
   20.9720   16.3160   10.8860 C   0  0  0  0  0  0
   22.2490   15.7450   11.5440 C   0  0  0  0  0  0
   15.0650   17.8160   14.8560 C   0  0  0  0  0  0
   14.4770   16.5320   14.4530 N   0  0  0  0  0  0
   13.3330   16.0450   15.1560 C   0  0  2  0  0  0
   13.8250   15.2570   16.3740 C   0  0  0  0  0  0
   12.6660   14.6350   17.1300 C   0  0  0  0  0  0
   11.7810   13.8060   16.2360 C   0  0  1  0  0  0
   10.6190   13.4410   16.9590 O   0  0  0  0  0  0
   11.3450   14.5570   14.9690 C   0  0  0  0  0  0
   12.5120   15.1860   14.2320 C   0  0  0  0  0  0
   14.4510   18.4840   15.8560 N   0  0  0  0  0  0
   12.9910   16.1982   21.2244 H   0  0  0  0  0  0
   13.7516   16.2097   19.5971 H   0  0  0  0  0  0
   11.9727   16.4000   19.7585 H   0  0  0  0  0  0
   12.3084   18.5513   20.9219 H   0  0  0  0  0  0
   14.0873   18.3611   20.7605 H   0  0  0  0  0  0
   13.0724   18.0389   18.1427 H   0  0  0  0  0  0
   12.1407   19.4017   18.8509 H   0  0  0  0  0  0
   14.2551   20.5536   19.4657 H   0  0  0  0  0  0
   15.2104   19.1751   18.8224 H   0  0  0  0  0  0
   13.6686   21.2668   17.2171 H   0  0  0  0  0  0
   17.5577   20.0672   14.3094 H   0  0  0  0  0  0
   18.5459   19.6394   13.0917 H   0  0  0  0  0  0
   18.9031   19.4560   11.3408 H   0  0  0  0  0  0
   19.9279   18.6231   12.5586 H   0  0  0  0  0  0
   17.6622   16.0639   11.0856 H   0  0  0  0  0  0
   18.6467   17.3353   10.2850 H   0  0  0  0  0  0
   20.0157   16.5849   12.7542 H   0  0  0  0  0  0
   19.5980   15.0633   11.8959 H   0  0  0  0  0  0
   20.8049   15.7873    9.9360 H   0  0  0  0  0  0
   21.1328   17.3858   10.6869 H   0  0  0  0  0  0
   23.1049   15.8872   10.8678 H   0  0  0  0  0  0
   22.1115   14.6715   11.7407 H   0  0  0  0  0  0
   22.4393   16.2700   12.4917 H   0  0  0  0  0  0
   14.9034   15.9474   13.6245 H   0  0  0  0  0  0
   12.7254   16.9098   15.4609 H   0  0  0  0  0  0
   14.4994   14.4535   16.0429 H   0  0  0  0  0  0
   14.3652   15.9323   17.0538 H   0  0  0  0  0  0
   13.0551   13.9820   17.9251 H   0  0  0  0  0  0
   12.0508   15.4299   17.5767 H   0  0  0  0  0  0
   12.3213   12.8853   15.9708 H   0  0  0  0  0  0
   10.7112   12.8899   17.9065 H   0  0  0  0  0  0
   10.8489   13.8572   14.2804 H   0  0  0  0  0  0
   10.6455   15.3609   15.2417 H   0  0  0  0  0  0
   12.1193   15.8028   13.4102 H   0  0  0  0  0  0
   13.1424   14.3844   13.8198 H   0  0  0  0  0  0
  1  2  1  0  0  0
  1 28  1  0  0  0
  1 29  1  0  0  0
  1 30  1  0  0  0
  2  3  1  0  0  0
  2 31  1  0  0  0
  2 32  1  0  0  0
  3  4  1  0  0  0
  3 33  1  0  0  0
  3 34  1  0  0  0
  4  5  1  0  0  0
  4 35  1  0  0  0
  4 36  1  0  0  0
  5  6  1  0  0  0
  5 37  1  0  0  0
  6  7  2  0  0  0
  6 27  1  0  0  0
  7  8  1  0  0  0
  8  9  2  0  0  0
  8 38  1  0  0  0
  9 10  1  0  0  0
  9 18  1  0  0  0
 10 11  2  0  0  0
 10 12  1  0  0  0
 12 13  1  0  0  0
 12 14  1  0  0  0
 13 39  1  0  0  0
 13 40  1  0  0  0
 13 41  1  0  0  0
 14 15  1  0  0  0
 14 42  1  0  0  0
 14 43  1  0  0  0
 15 16  1  0  0  0
 15 44  1  0  0  0
 15 45  1  0  0  0
 16 17  1  0  0  0
 16 46  1  0  0  0
 16 47  1  0  0  0
 17 48  1  0  0  0
 17 49  1  0  0  0
 17 50  1  0  0  0
 18 19  1  0  0  0
 18 27  2  0  0  0
 19 20  1  0  0  0
 19 51  1  0  0  0
 20 21  1  0  0  0
 20 26  1  0  0  0
 20 52  1  0  0  0
 21 22  1  0  0  0
 21 53  1  0  0  0
 21 54  1  0  0  0
 22 23  1  0  0  0
 22 55  1  0  0  0
 22 56  1  0  0  0
 23 24  1  0  0  0
 23 25  1  0  0  0
 23 57  1  0  0  0
 24 58  1  0  0  0
 25 26  1  0  0  0
 25 59  1  0  0  0
 25 60  1  0  0  0
 26 61  1  0  0  0
 26 62  1  0  0  0
M  END
> <s_m_source_file>
../4mh7_ligand.sdf

> <i_m_source_file_index>
1

> <s_epik_input>
W0NIM11bQ0gyXVtDSDJdW0NIMl1bTkhdYzFuW2NIXWMoQyg9TylOKFtDSDNdKVtDSDJdW0NIMl1bQ0gyXVtDSDNdKWMobjEpW05IXVtDQEBIXTJbQ0gyXVtDSDJdW0NAQEhdKFtPSF0pW0NIMl1bQ0gyXTI=

> <s_epik_cmdline>
J2VwaWtfYXBwJywgJy1pbWFlJywgJ2xpZ2FuZF9wcm8ubWFlJywgJy1vbWFlJywgJ2xpZ2FuZF9wcmVwLm1hZScsICctbXMnLCAnMScsICctcGgnLCAnNycsICctcGh0JywgJzAuNScsICctbnQn

> <r_lp_tautomer_probability>
0.999999624730965

> <r_epik_Ionization_Penalty>
  0.0395

> <r_epik_Ionization_Penalty_Charging>
  0.0000

> <r_epik_Ionization_Penalty_Neutral>
  0.0395

> <r_epik_State_Penalty>
  0.0271

> <r_epik_Charging_Adjusted_Penalty>
0.0271412033139838

> <i_epik_Tot_Q>
0

> <i_epik_Tot_abs_Q>
0

$$$$
