4mho_ligand
                    3D
 Schrodinger Suite 2020-3.
 51 53  0  0  1  0            999 V2000
   37.6580   27.8150   37.2030 C   0  0  0  0  0  0
   38.5720   28.2890   38.1470 C   0  0  0  0  0  0
   39.9110   27.8920   38.0960 C   0  0  0  0  0  0
   40.3380   27.0140   37.0970 C   0  0  0  0  0  0
   39.4170   26.5500   36.1340 C   0  0  0  0  0  0
   38.0720   26.9480   36.1870 C   0  0  0  0  0  0
   37.1520   26.4920   35.2160 C   0  0  0  0  0  0
   37.5530   26.4040   33.8700 C   0  0  0  0  0  0
   36.6530   25.9610   32.8870 C   0  0  0  0  0  0
   35.8500   26.1260   35.5700 C   0  0  0  0  0  0
   34.9390   25.6800   34.5910 C   0  0  0  0  0  0
   35.3440   25.5780   33.2480 C   0  0  0  0  0  0
   34.4250   25.1510   32.3150 O   0  0  0  0  0  0
   34.9560   24.7520   31.0460 C   0  0  0  0  0  0
   33.8420   24.1100   30.1940 C   0  0  0  0  0  0
   32.6700   24.1050   30.5690 O   0  0  0  0  0  0
   34.2550   23.6170   29.0190 N   0  0  0  0  0  0
   33.3310   22.9860   28.0640 C   0  0  2  0  0  0
   33.3140   21.5590   28.3250 O   0  0  0  0  0  0
   32.2380   20.9540   27.5830 C   0  0  2  0  0  0
   32.1640   19.4850   28.0100 C   0  0  0  0  0  0
   33.2840   18.7800   27.4700 O   0  0  0  0  0  0
   32.4560   21.1120   26.0340 C   0  0  1  0  0  0
   31.2930   20.6310   25.3190 O   0  0  0  0  0  0
   32.7180   22.6060   25.6560 C   0  0  2  0  0  0
   33.2030   22.7000   24.3280 O   0  0  0  0  0  0
   33.7750   23.2420   26.6090 C   0  0  1  0  0  0
   33.9200   24.6510   26.3640 O   0  0  0  0  0  0
   36.6140   28.1233   37.2588 H   0  0  0  0  0  0
   38.2389   28.9725   38.9280 H   0  0  0  0  0  0
   40.6204   28.2666   38.8339 H   0  0  0  0  0  0
   41.3778   26.6889   37.0615 H   0  0  0  0  0  0
   39.7521   25.8781   35.3438 H   0  0  0  0  0  0
   38.5688   26.6815   33.5885 H   0  0  0  0  0  0
   36.9662   25.9130   31.8441 H   0  0  0  0  0  0
   35.5365   26.1860   36.6122 H   0  0  0  0  0  0
   33.9207   25.4142   34.8749 H   0  0  0  0  0  0
   35.3537   25.6333   30.5215 H   0  0  0  0  0  0
   35.7638   24.0214   31.1999 H   0  0  0  0  0  0
   35.3254   23.6962   28.7782 H   0  0  0  0  0  0
   32.3231   23.3889   28.2423 H   0  0  0  0  0  0
   31.3187   21.4860   27.8693 H   0  0  0  0  0  0
   32.1827   19.4209   29.1080 H   0  0  0  0  0  0
   31.2315   19.0400   27.6326 H   0  0  0  0  0  0
   33.4054   17.7050   27.6693 H   0  0  0  0  0  0
   33.2876   20.4766   25.6951 H   0  0  0  0  0  0
   30.9519   19.5945   25.4577 H   0  0  0  0  0  0
   31.7735   23.1698   25.6538 H   0  0  0  0  0  0
   32.6032   22.3062   23.4942 H   0  0  0  0  0  0
   34.7871   22.8561   26.4172 H   0  0  0  0  0  0
   34.6315   25.2424   26.9591 H   0  0  0  0  0  0
  1  2  2  0  0  0
  1  6  1  0  0  0
  1 29  1  0  0  0
  2  3  1  0  0  0
  2 30  1  0  0  0
  3  4  2  0  0  0
  3 31  1  0  0  0
  4  5  1  0  0  0
  4 32  1  0  0  0
  5  6  2  0  0  0
  5 33  1  0  0  0
  6  7  1  0  0  0
  7  8  2  0  0  0
  7 10  1  0  0  0
  8  9  1  0  0  0
  8 34  1  0  0  0
  9 12  2  0  0  0
  9 35  1  0  0  0
 10 11  2  0  0  0
 10 36  1  0  0  0
 11 12  1  0  0  0
 11 37  1  0  0  0
 12 13  1  0  0  0
 13 14  1  0  0  0
 14 15  1  0  0  0
 14 38  1  0  0  0
 14 39  1  0  0  0
 15 16  2  0  0  0
 15 17  1  0  0  0
 17 18  1  0  0  0
 17 40  1  0  0  0
 18 19  1  0  0  0
 18 27  1  0  0  0
 18 41  1  0  0  0
 19 20  1  0  0  0
 20 21  1  0  0  0
 20 23  1  0  0  0
 20 42  1  0  0  0
 21 22  1  0  0  0
 21 43  1  0  0  0
 21 44  1  0  0  0
 22 45  1  0  0  0
 23 24  1  0  0  0
 23 25  1  0  0  0
 23 46  1  0  0  0
 24 47  1  0  0  0
 25 26  1  0  0  0
 25 27  1  0  0  0
 25 48  1  0  0  0
 26 49  1  0  0  0
 27 28  1  0  0  0
 27 50  1  0  0  0
 28 51  1  0  0  0
M  END
> <s_m_source_file>
../4mho_ligand.sdf

> <i_m_source_file_index>
1

> <s_epik_input>
W2NIXTFbY0hdW2NIXVtjSF1bY0hdYzEtYzJbY0hdW2NIXWMoW2NIXVtjSF0yKU9bQ0gyXUMoPU8pW05IXVtDQEBIXTNPW0NASF0oW0NIMl1bT0hdKVtDQEBIXShbT0hdKVtDQEhdKFtPSF0pW0NASF0zW09IXQ==

> <s_epik_cmdline>
J2VwaWtfYXBwJywgJy1pbWFlJywgJ2xpZ2FuZF9wcm8ubWFlJywgJy1vbWFlJywgJ2xpZ2FuZF9wcmVwLm1hZScsICctbXMnLCAnMScsICctcGgnLCAnNycsICctcGh0JywgJzAuNScsICctbnQn

> <r_lp_tautomer_probability>
1

> <r_epik_Ionization_Penalty>
  0.0000

> <r_epik_Ionization_Penalty_Charging>
  0.0000

> <r_epik_Ionization_Penalty_Neutral>
  0.0000

> <r_epik_State_Penalty>
 -0.0000

> <r_epik_Charging_Adjusted_Penalty>
0

> <i_epik_Tot_Q>
0

> <i_epik_Tot_abs_Q>
0

> <s_epik_Chemistry_Notes>
This compound contains an acetal/aminal-like group ( X-CH(R)-Y where X, Y are N, S, or O) that may be acid/base labile, releasing an aldehyde.

$$$$
