4mi3_ligand
                    3D
 Schrodinger Suite 2020-3.
 55 56  0  0  1  0            999 V2000
   40.7160   27.1100   34.9900 C   0  0  0  0  0  0
   39.9490   28.1510   34.1610 C   0  0  0  0  0  0
   39.4910   29.2820   35.0850 C   0  0  0  0  0  0
   38.8340   27.5850   33.4280 C   0  0  0  0  0  0
   38.7170   27.8910   32.0590 C   0  0  0  0  0  0
   37.6830   27.3810   31.2730 C   0  0  0  0  0  0
   37.8630   26.7430   34.0060 C   0  0  0  0  0  0
   36.8090   26.2340   33.2290 C   0  0  0  0  0  0
   36.7260   26.5470   31.8510 C   0  0  0  0  0  0
   35.6780   26.0620   31.0320 C   0  0  0  0  0  0
   35.9600   24.6980   30.3560 C   0  0  1  0  0  0
   36.6460   23.7510   31.3130 C   0  0  0  0  0  0
   34.6410   24.0690   29.8210 C   0  0  0  0  0  0
   33.5510   24.1720   30.3810 O   0  0  0  0  0  0
   34.7920   23.4460   28.6610 N   0  0  0  0  0  0
   33.6690   22.8650   27.9410 C   0  0  2  0  0  0
   33.5760   21.4590   28.2000 O   0  0  0  0  0  0
   32.3910   20.9380   27.5810 C   0  0  2  0  0  0
   32.2450   19.4920   28.0210 C   0  0  0  0  0  0
   33.2840   18.7650   27.3500 O   0  0  0  0  0  0
   32.4710   21.0910   26.0200 C   0  0  1  0  0  0
   31.2610   20.6190   25.3920 O   0  0  0  0  0  0
   32.7160   22.5500   25.5990 C   0  0  2  0  0  0
   33.0170   22.6200   24.1890 O   0  0  0  0  0  0
   33.9140   23.1180   26.4230 C   0  0  1  0  0  0
   34.1010   24.5310   26.1750 O   0  0  0  0  0  0
   41.5455   27.6017   35.5193 H   0  0  0  0  0  0
   41.1164   26.3326   34.3227 H   0  0  0  0  0  0
   40.0354   26.6502   35.7217 H   0  0  0  0  0  0
   40.5894   28.5292   33.3506 H   0  0  0  0  0  0
   40.3589   29.6885   35.6249 H   0  0  0  0  0  0
   38.7595   28.8915   35.8078 H   0  0  0  0  0  0
   39.0255   30.0788   34.4863 H   0  0  0  0  0  0
   39.4566   28.5463   31.5989 H   0  0  0  0  0  0
   37.6235   27.6327   30.2141 H   0  0  0  0  0  0
   37.9301   26.4849   35.0629 H   0  0  0  0  0  0
   36.0534   25.5966   33.6883 H   0  0  0  0  0  0
   34.7688   25.9335   31.6377 H   0  0  0  0  0  0
   35.4813   26.7816   30.2236 H   0  0  0  0  0  0
   36.6566   24.8594   29.5201 H   0  0  0  0  0  0
   37.5751   24.2108   31.6809 H   0  0  0  0  0  0
   36.8830   22.8115   30.7923 H   0  0  0  0  0  0
   35.9792   23.5414   32.1624 H   0  0  0  0  0  0
   35.8078   23.3760   28.2447 H   0  0  0  0  0  0
   32.7326   23.2851   28.3369 H   0  0  0  0  0  0
   31.5416   21.5240   27.9620 H   0  0  0  0  0  0
   32.3581   19.4279   29.1133 H   0  0  0  0  0  0
   31.2509   19.1196   27.7329 H   0  0  0  0  0  0
   33.3878   17.6815   27.5087 H   0  0  0  0  0  0
   33.2739   20.4502   25.6266 H   0  0  0  0  0  0
   30.9136   19.5907   25.5707 H   0  0  0  0  0  0
   31.8012   23.1489   25.7194 H   0  0  0  0  0  0
   32.2836   22.2618   23.4516 H   0  0  0  0  0  0
   34.8613   22.6715   26.0866 H   0  0  0  0  0  0
   34.9089   25.0766   26.6845 H   0  0  0  0  0  0
  1  2  1  0  0  0
  1 27  1  0  0  0
  1 28  1  0  0  0
  1 29  1  0  0  0
  2  3  1  0  0  0
  2  4  1  0  0  0
  2 30  1  0  0  0
  3 31  1  0  0  0
  3 32  1  0  0  0
  3 33  1  0  0  0
  4  5  2  0  0  0
  4  7  1  0  0  0
  5  6  1  0  0  0
  5 34  1  0  0  0
  6  9  2  0  0  0
  6 35  1  0  0  0
  7  8  2  0  0  0
  7 36  1  0  0  0
  8  9  1  0  0  0
  8 37  1  0  0  0
  9 10  1  0  0  0
 10 11  1  0  0  0
 10 38  1  0  0  0
 10 39  1  0  0  0
 11 12  1  0  0  0
 11 13  1  0  0  0
 11 40  1  0  0  0
 12 41  1  0  0  0
 12 42  1  0  0  0
 12 43  1  0  0  0
 13 14  2  0  0  0
 13 15  1  0  0  0
 15 16  1  0  0  0
 15 44  1  0  0  0
 16 17  1  0  0  0
 16 25  1  0  0  0
 16 45  1  0  0  0
 17 18  1  0  0  0
 18 19  1  0  0  0
 18 21  1  0  0  0
 18 46  1  0  0  0
 19 20  1  0  0  0
 19 47  1  0  0  0
 19 48  1  0  0  0
 20 49  1  0  0  0
 21 22  1  0  0  0
 21 23  1  0  0  0
 21 50  1  0  0  0
 22 51  1  0  0  0
 23 24  1  0  0  0
 23 25  1  0  0  0
 23 52  1  0  0  0
 24 53  1  0  0  0
 25 26  1  0  0  0
 25 54  1  0  0  0
 26 55  1  0  0  0
M  END
> <s_m_source_file>
../4mi3_ligand.sdf

> <i_m_source_file_index>
1

> <s_epik_input>
W0NIM11bQ0hdKFtDSDNdKWMxW2NIXVtjSF1jKFtjSF1bY0hdMSlbQ0gyXVtDQEBIXShbQ0gzXSlDKD1PKVtOSF1bQ0BASF0yT1tDQEhdKFtDSDJdW09IXSlbQ0BASF0oW09IXSlbQ0BIXShbT0hdKVtDQEhdMltPSF0=

> <s_epik_cmdline>
J2VwaWtfYXBwJywgJy1pbWFlJywgJ2xpZ2FuZF9wcm8ubWFlJywgJy1vbWFlJywgJ2xpZ2FuZF9wcmVwLm1hZScsICctbXMnLCAnMScsICctcGgnLCAnNycsICctcGh0JywgJzAuNScsICctbnQn

> <r_lp_tautomer_probability>
1

> <r_epik_Ionization_Penalty>
  0.0000

> <r_epik_Ionization_Penalty_Charging>
  0.0000

> <r_epik_Ionization_Penalty_Neutral>
  0.0000

> <r_epik_State_Penalty>
 -0.0000

> <r_epik_Charging_Adjusted_Penalty>
0

> <i_epik_Tot_Q>
0

> <i_epik_Tot_abs_Q>
0

> <s_epik_Chemistry_Notes>
This compound contains an acetal/aminal-like group ( X-CH(R)-Y where X, Y are N, S, or O) that may be acid/base labile, releasing an aldehyde.

$$$$
