4mi6_ligand
                    3D
 Schrodinger Suite 2020-3.
 56 58  0  0  1  0            999 V2000
   37.1360   26.3190   33.9310 C   0  0  0  0  0  0
   37.4140   27.0580   35.1110 C   0  0  0  0  0  0
   36.4290   27.0990   36.1010 C   0  0  0  0  0  0
   36.6410   28.2250   37.1380 C   0  0  0  0  0  0
   38.0910   28.3100   37.5930 C   0  0  0  0  0  0
   39.0440   28.4650   36.4080 C   0  0  0  0  0  0
   38.6610   27.6990   35.2790 C   0  0  0  0  0  0
   39.5990   27.6050   34.2650 C   0  0  0  0  0  0
   39.3180   26.8820   33.1080 C   0  0  0  0  0  0
   38.1100   26.2000   32.9250 C   0  0  0  0  0  0
   37.9400   25.5730   31.6760 C   0  0  0  0  0  0
   37.0490   24.3490   31.6030 C   0  0  0  0  0  0
   36.8540   24.1000   30.0660 C   0  0  0  0  0  0
   35.4060   23.8310   29.5820 C   0  0  0  0  0  0
   34.4020   24.1780   30.2030 O   0  0  0  0  0  0
   35.3430   23.2230   28.4000 N   0  0  0  0  0  0
   34.0690   22.8610   27.7810 C   0  0  2  0  0  0
   33.8150   21.4550   28.0440 O   0  0  0  0  0  0
   32.5890   20.9920   27.4480 C   0  0  2  0  0  0
   32.3380   19.5490   27.8490 C   0  0  0  0  0  0
   33.3850   18.7530   27.2650 O   0  0  0  0  0  0
   32.6730   21.1660   25.9100 C   0  0  1  0  0  0
   31.4380   20.7280   25.2900 O   0  0  0  0  0  0
   32.9380   22.6210   25.5410 C   0  0  2  0  0  0
   33.1430   22.7120   24.1290 O   0  0  0  0  0  0
   34.1950   23.1390   26.2800 C   0  0  1  0  0  0
   34.3620   24.5680   26.0800 O   0  0  0  0  0  0
   36.1639   25.8424   33.8050 H   0  0  0  0  0  0
   35.4466   27.2630   35.6342 H   0  0  0  0  0  0
   36.4199   26.1452   36.6489 H   0  0  0  0  0  0
   36.3621   29.1912   36.6923 H   0  0  0  0  0  0
   36.0131   28.0336   38.0207 H   0  0  0  0  0  0
   38.2169   29.1787   38.2559 H   0  0  0  0  0  0
   38.3592   27.3921   38.1366 H   0  0  0  0  0  0
   39.0753   29.5200   36.0982 H   0  0  0  0  0  0
   40.0524   28.1395   36.7034 H   0  0  0  0  0  0
   40.5640   28.1002   34.3728 H   0  0  0  0  0  0
   40.0664   26.8462   32.3164 H   0  0  0  0  0  0
   37.4995   26.2868   30.9643 H   0  0  0  0  0  0
   38.9167   25.2352   31.2993 H   0  0  0  0  0  0
   37.5481   23.5022   32.0967 H   0  0  0  0  0  0
   36.0955   24.5588   32.1098 H   0  0  0  0  0  0
   37.1971   24.9819   29.5053 H   0  0  0  0  0  0
   37.4393   23.2204   29.7599 H   0  0  0  0  0  0
   36.2886   22.9933   27.8871 H   0  0  0  0  0  0
   33.2347   23.4186   28.2316 H   0  0  0  0  0  0
   31.7781   21.6092   27.8622 H   0  0  0  0  0  0
   32.3557   19.4648   28.9456 H   0  0  0  0  0  0
   31.3551   19.2295   27.4725 H   0  0  0  0  0  0
   33.4037   17.6650   27.4261 H   0  0  0  0  0  0
   33.4687   20.5296   25.4955 H   0  0  0  0  0  0
   31.0804   19.6991   25.4432 H   0  0  0  0  0  0
   32.0584   23.2427   25.7644 H   0  0  0  0  0  0
   32.3525   22.3872   23.4364 H   0  0  0  0  0  0
   35.0978   22.6690   25.8628 H   0  0  0  0  0  0
   35.2118   25.0923   26.5414 H   0  0  0  0  0  0
  1  2  2  0  0  0
  1 10  1  0  0  0
  1 28  1  0  0  0
  2  3  1  0  0  0
  2  7  1  0  0  0
  3  4  1  0  0  0
  3 29  1  0  0  0
  3 30  1  0  0  0
  4  5  1  0  0  0
  4 31  1  0  0  0
  4 32  1  0  0  0
  5  6  1  0  0  0
  5 33  1  0  0  0
  5 34  1  0  0  0
  6  7  1  0  0  0
  6 35  1  0  0  0
  6 36  1  0  0  0
  7  8  2  0  0  0
  8  9  1  0  0  0
  8 37  1  0  0  0
  9 10  2  0  0  0
  9 38  1  0  0  0
 10 11  1  0  0  0
 11 12  1  0  0  0
 11 39  1  0  0  0
 11 40  1  0  0  0
 12 13  1  0  0  0
 12 41  1  0  0  0
 12 42  1  0  0  0
 13 14  1  0  0  0
 13 43  1  0  0  0
 13 44  1  0  0  0
 14 15  2  0  0  0
 14 16  1  0  0  0
 16 17  1  0  0  0
 16 45  1  0  0  0
 17 18  1  0  0  0
 17 26  1  0  0  0
 17 46  1  0  0  0
 18 19  1  0  0  0
 19 20  1  0  0  0
 19 22  1  0  0  0
 19 47  1  0  0  0
 20 21  1  0  0  0
 20 48  1  0  0  0
 20 49  1  0  0  0
 21 50  1  0  0  0
 22 23  1  0  0  0
 22 24  1  0  0  0
 22 51  1  0  0  0
 23 52  1  0  0  0
 24 25  1  0  0  0
 24 26  1  0  0  0
 24 53  1  0  0  0
 25 54  1  0  0  0
 26 27  1  0  0  0
 26 55  1  0  0  0
 27 56  1  0  0  0
M  END
> <s_m_source_file>
../4mi6_ligand.sdf

> <i_m_source_file_index>
1

> <s_epik_input>
W0NIMl0xW0NIMl1bQ0gyXVtDSDJdYyhjMTIpW2NIXVtjSF1jKFtjSF0yKVtDSDJdW0NIMl1bQ0gyXUMoPU8pW05IXVtDQEBIXTNPW0NASF0oW0NIMl1bT0hdKVtDQEBIXShbT0hdKVtDQEhdKFtPSF0pW0NASF0zW09IXQ==

> <s_epik_cmdline>
J2VwaWtfYXBwJywgJy1pbWFlJywgJ2xpZ2FuZF9wcm8ubWFlJywgJy1vbWFlJywgJ2xpZ2FuZF9wcmVwLm1hZScsICctbXMnLCAnMScsICctcGgnLCAnNycsICctcGh0JywgJzAuNScsICctbnQn

> <r_lp_tautomer_probability>
1

> <r_epik_Ionization_Penalty>
  0.0000

> <r_epik_Ionization_Penalty_Charging>
  0.0000

> <r_epik_Ionization_Penalty_Neutral>
  0.0000

> <r_epik_State_Penalty>
 -0.0000

> <r_epik_Charging_Adjusted_Penalty>
0

> <i_epik_Tot_Q>
0

> <i_epik_Tot_abs_Q>
0

> <s_epik_Chemistry_Notes>
This compound contains an acetal/aminal-like group ( X-CH(R)-Y where X, Y are N, S, or O) that may be acid/base labile, releasing an aldehyde.

$$$$
