4mi9_ligand
                    3D
 Schrodinger Suite 2020-3.
 52 53  0  0  1  0            999 V2000
   40.6330   27.3750   34.9600 C   0  0  0  0  0  0
   39.2230   27.9340   34.7000 C   0  0  0  0  0  0
   38.4250   27.0200   33.9530 C   0  0  0  0  0  0
   37.2250   26.5120   34.4530 C   0  0  0  0  0  0
   36.4570   25.6280   33.6840 C   0  0  0  0  0  0
   38.8360   26.6310   32.6770 C   0  0  0  0  0  0
   38.0820   25.7390   31.9120 C   0  0  0  0  0  0
   36.8900   25.2270   32.4170 C   0  0  0  0  0  0
   36.1100   24.3230   31.6410 C   0  0  2  0  0  0
   36.9970   23.2480   31.0330 C   0  0  0  0  0  0
   35.3850   25.1140   30.5890 C   0  0  0  0  0  0
   34.3230   24.2300   29.8790 C   0  0  0  0  0  0
   33.2220   24.0900   30.4060 O   0  0  0  0  0  0
   34.6320   23.7290   28.6690 N   0  0  0  0  0  0
   33.6060   22.9820   27.9000 C   0  0  2  0  0  0
   33.5700   21.5550   28.1610 O   0  0  0  0  0  0
   32.3990   20.9750   27.5370 C   0  0  2  0  0  0
   32.2700   19.5220   27.9620 C   0  0  0  0  0  0
   33.3400   18.7750   27.3520 O   0  0  0  0  0  0
   32.4750   21.1490   25.9590 C   0  0  1  0  0  0
   31.2860   20.6450   25.3350 O   0  0  0  0  0  0
   32.6970   22.5890   25.5540 C   0  0  2  0  0  0
   33.0540   22.6400   24.1460 O   0  0  0  0  0  0
   33.8540   23.2070   26.3990 C   0  0  1  0  0  0
   33.9750   24.5880   26.1280 O   0  0  0  0  0  0
   41.2169   28.1069   35.5374 H   0  0  0  0  0  0
   41.1337   27.1820   33.9998 H   0  0  0  0  0  0
   40.5562   26.4366   35.5287 H   0  0  0  0  0  0
   38.7223   28.1270   35.6602 H   0  0  0  0  0  0
   39.2997   28.8725   34.1313 H   0  0  0  0  0  0
   36.8839   26.8043   35.4461 H   0  0  0  0  0  0
   35.5135   25.2496   34.0772 H   0  0  0  0  0  0
   39.7642   27.0317   32.2696 H   0  0  0  0  0  0
   38.4262   25.4439   30.9208 H   0  0  0  0  0  0
   35.3869   23.8470   32.3196 H   0  0  0  0  0  0
   37.5066   22.6956   31.8362 H   0  0  0  0  0  0
   37.7461   23.7176   30.3785 H   0  0  0  0  0  0
   36.3799   22.5531   30.4444 H   0  0  0  0  0  0
   34.8803   25.9716   31.0579 H   0  0  0  0  0  0
   36.1057   25.4767   29.8413 H   0  0  0  0  0  0
   35.6389   23.8707   28.2493 H   0  0  0  0  0  0
   32.6337   23.3394   28.2699 H   0  0  0  0  0  0
   31.5334   21.5162   27.9466 H   0  0  0  0  0  0
   32.3389   19.4530   29.0577 H   0  0  0  0  0  0
   31.2981   19.1278   27.6302 H   0  0  0  0  0  0
   33.4290   17.6937   27.5334 H   0  0  0  0  0  0
   33.2924   20.5518   25.5287 H   0  0  0  0  0  0
   30.9667   19.6082   25.5167 H   0  0  0  0  0  0
   31.7576   23.1496   25.6689 H   0  0  0  0  0  0
   32.3598   22.2482   23.3880 H   0  0  0  0  0  0
   34.8318   22.7973   26.1058 H   0  0  0  0  0  0
   34.7451   25.1836   26.6401 H   0  0  0  0  0  0
  1  2  1  0  0  0
  1 26  1  0  0  0
  1 27  1  0  0  0
  1 28  1  0  0  0
  2  3  1  0  0  0
  2 29  1  0  0  0
  2 30  1  0  0  0
  3  4  2  0  0  0
  3  6  1  0  0  0
  4  5  1  0  0  0
  4 31  1  0  0  0
  5  8  2  0  0  0
  5 32  1  0  0  0
  6  7  2  0  0  0
  6 33  1  0  0  0
  7  8  1  0  0  0
  7 34  1  0  0  0
  8  9  1  0  0  0
  9 10  1  0  0  0
  9 11  1  0  0  0
  9 35  1  0  0  0
 10 36  1  0  0  0
 10 37  1  0  0  0
 10 38  1  0  0  0
 11 12  1  0  0  0
 11 39  1  0  0  0
 11 40  1  0  0  0
 12 13  2  0  0  0
 12 14  1  0  0  0
 14 15  1  0  0  0
 14 41  1  0  0  0
 15 16  1  0  0  0
 15 24  1  0  0  0
 15 42  1  0  0  0
 16 17  1  0  0  0
 17 18  1  0  0  0
 17 20  1  0  0  0
 17 43  1  0  0  0
 18 19  1  0  0  0
 18 44  1  0  0  0
 18 45  1  0  0  0
 19 46  1  0  0  0
 20 21  1  0  0  0
 20 22  1  0  0  0
 20 47  1  0  0  0
 21 48  1  0  0  0
 22 23  1  0  0  0
 22 24  1  0  0  0
 22 49  1  0  0  0
 23 50  1  0  0  0
 24 25  1  0  0  0
 24 51  1  0  0  0
 25 52  1  0  0  0
M  END
> <s_m_source_file>
../4mi9_ligand.sdf

> <i_m_source_file_index>
1

> <s_epik_input>
W0NIM11bQ0gyXWMxW2NIXVtjSF1jKFtjSF1bY0hdMSlbQ0BIXShbQ0gzXSlbQ0gyXUMoPU8pW05IXVtDQEBIXTJPW0NASF0oW0NIMl1bT0hdKVtDQEBIXShbT0hdKVtDQEhdKFtPSF0pW0NASF0yW09IXQ==

> <s_epik_cmdline>
J2VwaWtfYXBwJywgJy1pbWFlJywgJ2xpZ2FuZF9wcm8ubWFlJywgJy1vbWFlJywgJ2xpZ2FuZF9wcmVwLm1hZScsICctbXMnLCAnMScsICctcGgnLCAnNycsICctcGh0JywgJzAuNScsICctbnQn

> <r_lp_tautomer_probability>
1

> <r_epik_Ionization_Penalty>
  0.0000

> <r_epik_Ionization_Penalty_Charging>
  0.0000

> <r_epik_Ionization_Penalty_Neutral>
  0.0000

> <r_epik_State_Penalty>
 -0.0000

> <r_epik_Charging_Adjusted_Penalty>
0

> <i_epik_Tot_Q>
0

> <i_epik_Tot_abs_Q>
0

> <s_epik_Chemistry_Notes>
This compound contains an acetal/aminal-like group ( X-CH(R)-Y where X, Y are N, S, or O) that may be acid/base labile, releasing an aldehyde.

$$$$
