4mib_ligand
                    3D
 Schrodinger Suite 2020-3.
 66 69  0  0  1  0            999 V2000
   -9.7340    8.9450   10.4620 C   0  0  0  0  0  0
   -8.6870    9.4700   11.1920 C   0  0  0  0  0  0
   -7.5550   10.1050   10.6760 C   0  0  0  0  0  0
   -7.4840   10.1770    9.3030 C   0  0  0  0  0  0
   -8.5390    9.7170    8.4560 C   0  0  0  0  0  0
   -9.6740    9.0760    9.0320 C   0  0  0  0  0  0
  -10.7010    8.5850    8.2760 N   0  0  0  0  0  0
  -10.6280    8.7180    6.9600 C   0  0  0  0  0  0
   -9.5650    9.3670    6.3040 C   0  0  0  0  0  0
   -8.5160    9.8690    7.0530 C   0  0  0  0  0  0
   -9.6520    9.5800    4.9230 N   0  0  0  0  0  0
   -8.6860   10.3790    4.1520 C   0  0  0  0  0  0
   -9.3650   10.5570    2.8040 C   0  0  0  0  0  0
  -10.2330    9.3000    2.6680 C   0  0  1  0  0  0
  -10.7530    9.0680    4.0960 C   0  0  0  0  0  0
  -11.4330    9.5070    1.7370 C   0  0  0  0  0  0
  -11.0010    9.6650    0.3220 N   0  0  3  0  0  0
  -11.1180    8.4350   -0.7110 S   0  0  0  0  0  0
  -10.5540    8.8690   -1.9500 O   0  0  0  0  0  0
  -10.5650    7.2830   -0.0700 O   0  0  0  0  0  0
  -12.8290    8.1570   -0.9550 C   0  0  0  0  0  0
   -6.3160   10.6140    8.7070 O   0  0  0  0  0  0
   -5.4850    9.6710    8.0400 C   0  0  0  0  0  0
   -6.5030   10.7040   11.6520 C   0  0  0  0  0  0
   -6.9830   10.6950   13.1180 C   0  0  0  0  0  0
   -5.1900    9.9100   11.6120 C   0  0  0  0  0  0
   -6.1900   12.1660   11.3290 C   0  0  0  0  0  0
  -10.8610    8.3000   11.1890 C   0  0  0  0  0  0
  -11.1700    6.8880   10.9470 C   0  0  0  0  0  0
  -10.6430    6.1650   10.0960 O   0  0  0  0  0  0
  -12.1820    6.3830   11.7560 N   0  0  0  0  0  0
  -12.8660    7.1010   12.6880 C   0  0  0  0  0  0
  -12.5950    8.4130   12.8880 C   0  0  0  0  0  0
  -11.5710    9.0170   12.1260 C   0  0  0  0  0  0
   -8.7496    9.3804   12.2765 H   0  0  0  0  0  0
  -11.4331    8.3032    6.3535 H   0  0  0  0  0  0
   -7.6826   10.3753    6.5661 H   0  0  0  0  0  0
   -8.5130   11.3378    4.6626 H   0  0  0  0  0  0
   -7.7364    9.8295    4.0723 H   0  0  0  0  0  0
   -9.9644   11.4793    2.8143 H   0  0  0  0  0  0
   -8.6016   10.6247    2.0150 H   0  0  0  0  0  0
   -9.6567    8.4666    2.2398 H   0  0  0  0  0  0
  -10.9178    8.0043    4.3226 H   0  0  0  0  0  0
  -11.6698    9.6355    4.3138 H   0  0  0  0  0  0
  -12.1024    8.6366    1.8026 H   0  0  0  0  0  0
  -11.9791   10.4130    2.0386 H   0  0  0  0  0  0
  -10.7542   10.6629   -0.0696 H   0  0  0  0  0  0
  -13.2761    9.0328   -1.4481 H   0  0  0  0  0  0
  -13.3165    7.9952    0.0177 H   0  0  0  0  0  0
  -12.9695    7.2684   -1.5879 H   0  0  0  0  0  0
   -4.6049   10.1856    7.6268 H   0  0  0  0  0  0
   -6.0499    9.1975    7.2234 H   0  0  0  0  0  0
   -5.1578    8.9010    8.7541 H   0  0  0  0  0  0
   -7.2270    9.6651   13.4176 H   0  0  0  0  0  0
   -7.8782   11.3268   13.2146 H   0  0  0  0  0  0
   -6.1860   11.0866   13.7672 H   0  0  0  0  0  0
   -5.3932    8.8537   11.8420 H   0  0  0  0  0  0
   -4.4911   10.3195   12.3562 H   0  0  0  0  0  0
   -4.7449    9.9878   10.6091 H   0  0  0  0  0  0
   -7.1195   12.7538   11.3524 H   0  0  0  0  0  0
   -5.7396   12.2319   10.3276 H   0  0  0  0  0  0
   -5.4858   12.5636   12.0747 H   0  0  0  0  0  0
  -13.6493    6.6166   13.2894 H   0  0  0  0  0  0
  -13.4931    9.0100   12.6715 H   0  0  0  0  0  0
  -12.2938    8.5699   13.9343 H   0  0  0  0  0  0
  -11.3445   10.0805   12.2921 H   0  0  0  0  0  0
  1  2  2  0  0  0
  1  6  1  0  0  0
  1 28  1  0  0  0
  2  3  1  0  0  0
  2 35  1  0  0  0
  3  4  2  0  0  0
  3 24  1  0  0  0
  4  5  1  0  0  0
  4 22  1  0  0  0
  5  6  2  0  0  0
  5 10  1  0  0  0
  6  7  1  0  0  0
  7  8  2  0  0  0
  8  9  1  0  0  0
  8 36  1  0  0  0
  9 10  2  0  0  0
  9 11  1  0  0  0
 10 37  1  0  0  0
 11 12  1  0  0  0
 11 15  1  0  0  0
 12 13  1  0  0  0
 12 38  1  0  0  0
 12 39  1  0  0  0
 13 14  1  0  0  0
 13 40  1  0  0  0
 13 41  1  0  0  0
 14 15  1  0  0  0
 14 16  1  0  0  0
 14 42  1  0  0  0
 15 43  1  0  0  0
 15 44  1  0  0  0
 16 17  1  0  0  0
 16 45  1  0  0  0
 16 46  1  0  0  0
 17 18  1  0  0  0
 17 47  1  0  0  0
 18 19  2  0  0  0
 18 20  2  0  0  0
 18 21  1  0  0  0
 21 48  1  0  0  0
 21 49  1  0  0  0
 21 50  1  0  0  0
 22 23  1  0  0  0
 23 51  1  0  0  0
 23 52  1  0  0  0
 23 53  1  0  0  0
 24 25  1  0  0  0
 24 26  1  0  0  0
 24 27  1  0  0  0
 25 54  1  0  0  0
 25 55  1  0  0  0
 25 56  1  0  0  0
 26 57  1  0  0  0
 26 58  1  0  0  0
 26 59  1  0  0  0
 27 60  1  0  0  0
 27 61  1  0  0  0
 27 62  1  0  0  0
 28 29  1  0  0  0
 28 34  2  0  0  0
 29 30  2  0  0  0
 29 31  1  0  0  0
 31 32  2  0  0  0
 32 33  1  0  0  0
 32 63  1  0  0  0
 33 34  1  0  0  0
 33 64  1  0  0  0
 33 65  1  0  0  0
 34 66  1  0  0  0
M  END
> <s_m_source_file>
../4mib_ligand.sdf

> <i_m_source_file_index>
1

> <s_epik_input>
Tz1DMU49W0NIXVtDSDJdW0NIXT1DMWMoW2NIXWMoQyhbQ0gzXSkoW0NIM10pW0NIM10pYzJPW0NIM10pYyhjMjMpbltjSF1jKFtjSF0zKU40W0NIMl1bQ0gyXVtDQEBIXShbQ0gyXTQpW0NIMl1bTkhdUyg9TykoPU8pW0NIM10=

> <s_epik_cmdline>
J2VwaWtfYXBwJywgJy1pbWFlJywgJ2xpZ2FuZF9wcm8ubWFlJywgJy1vbWFlJywgJ2xpZ2FuZF9wcmVwLm1hZScsICctbXMnLCAnMScsICctcGgnLCAnNycsICctcGh0JywgJzAuNScsICctbnQn

> <r_lp_tautomer_probability>
1

> <r_epik_Ionization_Penalty>
  0.0024

> <r_epik_Ionization_Penalty_Charging>
  0.0000

> <r_epik_Ionization_Penalty_Neutral>
  0.0024

> <r_epik_State_Penalty>
 -0.0000

> <r_epik_Charging_Adjusted_Penalty>
0

> <i_epik_Tot_Q>
0

> <i_epik_Tot_abs_Q>
0

> <s_epik_Chemistry_Notes>
This compound has an imine and may undergo hydrolysis.

$$$$
