4mic_ligand
                    3D
 Schrodinger Suite 2020-3.
 52 53  0  0  1  0            999 V2000
   39.5530   28.8480   34.7690 C   0  0  0  0  0  0
   39.7590   27.3280   34.6910 C   0  0  0  0  0  0
   40.0740   26.7590   36.0740 C   0  0  0  0  0  0
   38.6180   26.7550   34.1100 C   0  0  0  0  0  0
   38.6450   26.5560   32.7330 C   0  0  0  0  0  0
   37.5550   26.0090   32.0760 C   0  0  0  0  0  0
   37.4660   26.4090   34.8300 C   0  0  0  0  0  0
   36.3720   25.8580   34.1600 C   0  0  0  0  0  0
   36.4100   25.6450   32.7790 C   0  0  0  0  0  0
   35.3080   25.1060   32.1130 C   0  0  0  0  0  0
   35.4500   24.4540   30.7240 C   0  0  0  0  0  0
   34.2330   23.8930   29.9730 C   0  0  0  0  0  0
   33.0940   23.9590   30.4340 O   0  0  0  0  0  0
   34.5330   23.3380   28.7920 N   0  0  0  0  0  0
   33.5070   22.7410   27.9230 C   0  0  2  0  0  0
   33.4260   21.3110   28.1790 O   0  0  0  0  0  0
   32.3300   20.7420   27.4460 C   0  0  2  0  0  0
   32.2270   19.2620   27.7820 C   0  0  0  0  0  0
   33.4810   18.6600   27.4050 O   0  0  0  0  0  0
   32.4880   20.9780   25.9100 C   0  0  1  0  0  0
   31.2860   20.5930   25.2430 O   0  0  0  0  0  0
   32.7320   22.4580   25.5970 C   0  0  2  0  0  0
   33.0200   22.6240   24.2010 O   0  0  0  0  0  0
   33.8830   22.9760   26.4660 C   0  0  1  0  0  0
   34.1020   24.3770   26.2450 O   0  0  0  0  0  0
   40.4394   29.3153   35.2228 H   0  0  0  0  0  0
   38.6676   29.0669   35.3840 H   0  0  0  0  0  0
   39.4045   29.2503   33.7560 H   0  0  0  0  0  0
   40.5653   27.0327   34.0035 H   0  0  0  0  0  0
   40.9752   27.2464   36.4744 H   0  0  0  0  0  0
   40.2478   25.6758   35.9939 H   0  0  0  0  0  0
   39.2257   26.9454   36.7490 H   0  0  0  0  0  0
   39.5332   26.8335   32.1654 H   0  0  0  0  0  0
   37.5943   25.8620   30.9967 H   0  0  0  0  0  0
   37.4246   26.5693   35.9074 H   0  0  0  0  0  0
   35.4766   25.5904   34.7211 H   0  0  0  0  0  0
   34.8667   24.3044   32.7235 H   0  0  0  0  0  0
   34.5591   25.8941   31.9458 H   0  0  0  0  0  0
   35.8659   25.1861   30.0161 H   0  0  0  0  0  0
   36.1236   23.5871   30.7930 H   0  0  0  0  0  0
   35.5873   23.3380   28.4783 H   0  0  0  0  0  0
   32.5302   23.1832   28.1685 H   0  0  0  0  0  0
   31.4344   21.2672   27.8094 H   0  0  0  0  0  0
   32.0455   19.1426   28.8603 H   0  0  0  0  0  0
   31.3947   18.8151   27.2185 H   0  0  0  0  0  0
   33.6413   17.5823   27.5564 H   0  0  0  0  0  0
   33.2988   20.3539   25.5061 H   0  0  0  0  0  0
   30.9154   19.5609   25.3295 H   0  0  0  0  0  0
   31.8265   23.0612   25.7592 H   0  0  0  0  0  0
   32.2887   22.2994   23.4461 H   0  0  0  0  0  0
   34.8389   22.5024   26.1978 H   0  0  0  0  0  0
   34.8964   24.9030   26.7948 H   0  0  0  0  0  0
  1  2  1  0  0  0
  1 26  1  0  0  0
  1 27  1  0  0  0
  1 28  1  0  0  0
  2  3  1  0  0  0
  2  4  1  0  0  0
  2 29  1  0  0  0
  3 30  1  0  0  0
  3 31  1  0  0  0
  3 32  1  0  0  0
  4  5  2  0  0  0
  4  7  1  0  0  0
  5  6  1  0  0  0
  5 33  1  0  0  0
  6  9  2  0  0  0
  6 34  1  0  0  0
  7  8  2  0  0  0
  7 35  1  0  0  0
  8  9  1  0  0  0
  8 36  1  0  0  0
  9 10  1  0  0  0
 10 11  1  0  0  0
 10 37  1  0  0  0
 10 38  1  0  0  0
 11 12  1  0  0  0
 11 39  1  0  0  0
 11 40  1  0  0  0
 12 13  2  0  0  0
 12 14  1  0  0  0
 14 15  1  0  0  0
 14 41  1  0  0  0
 15 16  1  0  0  0
 15 24  1  0  0  0
 15 42  1  0  0  0
 16 17  1  0  0  0
 17 18  1  0  0  0
 17 20  1  0  0  0
 17 43  1  0  0  0
 18 19  1  0  0  0
 18 44  1  0  0  0
 18 45  1  0  0  0
 19 46  1  0  0  0
 20 21  1  0  0  0
 20 22  1  0  0  0
 20 47  1  0  0  0
 21 48  1  0  0  0
 22 23  1  0  0  0
 22 24  1  0  0  0
 22 49  1  0  0  0
 23 50  1  0  0  0
 24 25  1  0  0  0
 24 51  1  0  0  0
 25 52  1  0  0  0
M  END
> <s_m_source_file>
../4mic_ligand.sdf

> <i_m_source_file_index>
1

> <s_epik_input>
W0NIM11bQ0hdKFtDSDNdKWMxW2NIXVtjSF1jKFtjSF1bY0hdMSlbQ0gyXVtDSDJdQyg9TylbTkhdW0NAQEhdMk9bQ0BIXShbQ0gyXVtPSF0pW0NAQEhdKFtPSF0pW0NASF0oW09IXSlbQ0BIXTJbT0hd

> <s_epik_cmdline>
J2VwaWtfYXBwJywgJy1pbWFlJywgJ2xpZ2FuZF9wcm8ubWFlJywgJy1vbWFlJywgJ2xpZ2FuZF9wcmVwLm1hZScsICctbXMnLCAnMScsICctcGgnLCAnNycsICctcGh0JywgJzAuNScsICctbnQn

> <r_lp_tautomer_probability>
1

> <r_epik_Ionization_Penalty>
  0.0000

> <r_epik_Ionization_Penalty_Charging>
  0.0000

> <r_epik_Ionization_Penalty_Neutral>
  0.0000

> <r_epik_State_Penalty>
 -0.0000

> <r_epik_Charging_Adjusted_Penalty>
0

> <i_epik_Tot_Q>
0

> <i_epik_Tot_abs_Q>
0

> <s_epik_Chemistry_Notes>
This compound contains an acetal/aminal-like group ( X-CH(R)-Y where X, Y are N, S, or O) that may be acid/base labile, releasing an aldehyde.

$$$$
