4mji_ligand
                    3D
 Schrodinger Suite 2020-3.
124125  0  0  1  0            999 V2000
   52.6860    6.0000 -148.1890 N   0  3  0  0  0  0
   51.8390    4.7910 -148.1090 C   0  0  2  0  0  0
   50.3770    5.1840 -147.8740 C   0  0  0  0  0  0
   50.0480    6.3590 -147.8270 O   0  0  0  0  0  0
   52.3420    3.8340 -147.0110 C   0  0  2  0  0  0
   52.0900    4.4060 -145.7250 O   0  0  0  0  0  0
   53.8370    3.5780 -147.1510 C   0  0  0  0  0  0
   49.5070    4.1970 -147.7310 N   0  0  0  0  0  0
   48.0760    4.4520 -147.6540 C   0  0  2  0  0  0
   47.5790    4.8960 -146.2770 C   0  0  0  0  0  0
   48.1230    4.4940 -145.2440 O   0  0  0  0  0  0
   47.3080    3.2180 -148.0930 C   0  0  0  0  0  0
   46.5170    5.6950 -146.2860 N   0  0  0  0  0  0
   45.8080    6.1130 -145.0920 C   0  0  2  0  0  0
   45.1050    4.9720 -144.3910 C   0  0  0  0  0  0
   44.6540    4.0370 -145.0570 O   0  0  0  0  0  0
   44.7450    7.0880 -145.5150 C   0  0  0  0  0  0
   44.0720    7.7870 -144.3830 C   0  0  0  0  0  0
   44.8030    8.5740 -143.5000 C   0  0  0  0  0  0
   42.7030    7.6970 -144.2270 C   0  0  0  0  0  0
   44.1790    9.2360 -142.4630 C   0  0  0  0  0  0
   42.0770    8.3690 -143.2040 C   0  0  0  0  0  0
   42.8160    9.1410 -142.3210 C   0  0  0  0  0  0
   45.0030    5.0570 -143.0530 N   0  0  0  0  0  0
   44.1400    4.1400 -142.2570 C   0  0  2  0  0  0
   42.9020    4.8530 -141.7520 C   0  0  0  0  0  0
   43.0170    5.8950 -141.1120 O   0  0  0  0  0  0
   44.8560    3.5250 -141.0640 C   0  0  2  0  0  0
   46.1310    3.0290 -141.4840 O   0  0  0  0  0  0
   44.0370    2.3900 -140.5300 C   0  0  0  0  0  0
   41.7240    4.3180 -142.0580 N   0  0  0  0  0  0
   40.5140    5.1110 -141.8850 C   0  0  2  0  0  0
   39.8980    4.9890 -140.5100 C   0  0  0  0  0  0
   40.0510    3.9520 -139.8410 O   0  0  0  0  0  0
   39.4350    4.9030 -142.9930 C   0  0  2  0  0  0
   39.0370    3.4350 -143.1740 C   0  0  0  0  0  0
   39.8930    5.5400 -144.2940 C   0  0  0  0  0  0
   37.6590    3.1020 -142.6510 C   0  0  0  0  0  0
   39.1760    6.0420 -140.0990 N   0  0  0  0  0  0
   38.4490    6.1400 -138.8490 C   0  0  2  0  0  0
   37.2650    5.2150 -138.8930 C   0  0  0  0  0  0
   36.8760    4.8020 -139.9700 O   0  0  0  0  0  0
   37.9250    7.5730 -138.8850 C   0  0  0  0  0  0
   37.7330    7.8480 -140.3390 C   0  0  0  0  0  0
   38.9390    7.2180 -140.9520 C   0  0  0  0  0  0
   36.6630    4.9130 -137.7550 N   0  0  0  0  0  0
   35.4100    4.1900 -137.8040 C   0  0  2  0  0  0
   34.2390    5.1450 -137.9420 C   0  0  0  0  0  0
   34.3750    6.3620 -137.7610 O   0  0  0  0  0  0
   35.2330    3.3160 -136.5790 C   0  0  0  0  0  0
   35.3880    4.0980 -135.4160 O   0  0  0  0  0  0
   33.0900    4.5470 -138.2510 N   0  0  0  0  0  0
   31.7570    5.1880 -138.4530 C   0  0  2  0  0  0
   31.3780    5.3380 -139.9430 C   0  0  0  0  0  0
   30.4740    4.6260 -140.4150 O   0  5  0  0  0  0
   31.5030    6.4530 -137.5690 C   0  0  2  0  0  0
   31.2650    6.0270 -136.1170 C   0  0  0  0  0  0
   30.2730    7.2030 -138.0230 C   0  0  0  0  0  0
   32.5230    5.8040 -135.2860 C   0  0  0  0  0  0
   31.9640    6.1290 -140.6950 O   0  0  0  0  0  0
   52.3044    6.6634 -148.9791 H   0  0  0  0  0  0
   53.7204    5.7081 -148.4231 H   0  0  0  0  0  0
   52.6634    6.5280 -147.2243 H   0  0  0  0  0  0
   51.9261    4.2891 -149.0840 H   0  0  0  0  0  0
   51.7895    2.8835 -147.0468 H   0  0  0  0  0  0
   51.0624    4.6652 -145.4301 H   0  0  0  0  0  0
   54.0427    3.1375 -148.1377 H   0  0  0  0  0  0
   54.1654    2.8835 -146.3637 H   0  0  0  0  0  0
   54.3825    4.5282 -147.0527 H   0  0  0  0  0  0
   49.8860    3.1661 -147.6703 H   0  0  0  0  0  0
   47.9421    5.2946 -148.3483 H   0  0  0  0  0  0
   47.6642    2.8974 -149.0831 H   0  0  0  0  0  0
   46.2351    3.4542 -148.1481 H   0  0  0  0  0  0
   47.4683    2.4084 -147.3658 H   0  0  0  0  0  0
   46.1818    6.0420 -147.2745 H   0  0  0  0  0  0
   46.5751    6.5368 -144.4272 H   0  0  0  0  0  0
   45.1924    7.8640 -146.1534 H   0  0  0  0  0  0
   43.9629    6.5567 -146.0772 H   0  0  0  0  0  0
   45.8812    8.6689 -143.6286 H   0  0  0  0  0  0
   42.1165    7.0909 -144.9175 H   0  0  0  0  0  0
   44.7636    9.8305 -141.7609 H   0  0  0  0  0  0
   40.9959    8.2945 -143.0868 H   0  0  0  0  0  0
   42.3147    9.6735 -141.5127 H   0  0  0  0  0  0
   45.5870    5.8400 -142.5472 H   0  0  0  0  0  0
   43.8721    3.3425 -142.9657 H   0  0  0  0  0  0
   45.0461    4.2677 -140.2752 H   0  0  0  0  0  0
   46.8768    3.7178 -141.9076 H   0  0  0  0  0  0
   43.0557    2.7667 -140.2058 H   0  0  0  0  0  0
   44.5560    1.9344 -139.6738 H   0  0  0  0  0  0
   43.8980    1.6355 -141.3183 H   0  0  0  0  0  0
   41.6569    3.2880 -142.4382 H   0  0  0  0  0  0
   40.9488    6.1179 -141.9693 H   0  0  0  0  0  0
   38.5076    5.4102 -142.6885 H   0  0  0  0  0  0
   39.0476    3.1815 -144.2443 H   0  0  0  0  0  0
   39.7512    2.7927 -142.6380 H   0  0  0  0  0  0
   40.1667    6.5897 -144.1118 H   0  0  0  0  0  0
   39.0773    5.4963 -145.0307 H   0  0  0  0  0  0
   40.7666    4.9952 -144.6814 H   0  0  0  0  0  0
   37.4513    2.0348 -142.8183 H   0  0  0  0  0  0
   36.9095    3.7088 -143.1802 H   0  0  0  0  0  0
   37.6131    3.3200 -141.5738 H   0  0  0  0  0  0
   39.0827    5.8751 -137.9898 H   0  0  0  0  0  0
   36.9813    7.6325 -138.3229 H   0  0  0  0  0  0
   38.6662    8.2460 -138.4294 H   0  0  0  0  0  0
   36.7932    7.3879 -140.6782 H   0  0  0  0  0  0
   37.6897    8.9347 -140.5041 H   0  0  0  0  0  0
   39.8194    7.8768 -140.9211 H   0  0  0  0  0  0
   38.7623    6.8905 -141.9872 H   0  0  0  0  0  0
   37.0951    5.1995 -136.7848 H   0  0  0  0  0  0
   35.4849    3.5560 -138.6998 H   0  0  0  0  0  0
   34.2276    2.8699 -136.5891 H   0  0  0  0  0  0
   35.9888    2.5168 -136.5864 H   0  0  0  0  0  0
   35.2933    3.6328 -134.4237 H   0  0  0  0  0  0
   33.1979    3.4574 -138.3563 H   0  0  0  0  0  0
   31.0689    4.4272 -138.0559 H   0  0  0  0  0  0
   32.3700    7.1250 -137.6504 H   0  0  0  0  0  0
   30.6830    6.8028 -135.5980 H   0  0  0  0  0  0
   30.7087    5.0782 -136.0997 H   0  0  0  0  0  0
   30.4053    7.5272 -139.0658 H   0  0  0  0  0  0
   30.1230    8.0838 -137.3814 H   0  0  0  0  0  0
   29.3950    6.5441 -137.9524 H   0  0  0  0  0  0
   32.2403    5.5031 -134.2664 H   0  0  0  0  0  0
   33.1054    6.7363 -135.2451 H   0  0  0  0  0  0
   33.1311    5.0117 -135.7468 H   0  0  0  0  0  0
  1  2  1  0  0  0
  1 61  1  0  0  0
  1 62  1  0  0  0
  1 63  1  0  0  0
  2  3  1  0  0  0
  2  5  1  0  0  0
  2 64  1  0  0  0
  3  4  2  0  0  0
  3  8  1  0  0  0
  5  6  1  0  0  0
  5  7  1  0  0  0
  5 65  1  0  0  0
  6 66  1  0  0  0
  7 67  1  0  0  0
  7 68  1  0  0  0
  7 69  1  0  0  0
  8  9  1  0  0  0
  8 70  1  0  0  0
  9 10  1  0  0  0
  9 12  1  0  0  0
  9 71  1  0  0  0
 10 11  2  0  0  0
 10 13  1  0  0  0
 12 72  1  0  0  0
 12 73  1  0  0  0
 12 74  1  0  0  0
 13 14  1  0  0  0
 13 75  1  0  0  0
 14 15  1  0  0  0
 14 17  1  0  0  0
 14 76  1  0  0  0
 15 16  2  0  0  0
 15 24  1  0  0  0
 17 18  1  0  0  0
 17 77  1  0  0  0
 17 78  1  0  0  0
 18 19  2  0  0  0
 18 20  1  0  0  0
 19 21  1  0  0  0
 19 79  1  0  0  0
 20 22  2  0  0  0
 20 80  1  0  0  0
 21 23  2  0  0  0
 21 81  1  0  0  0
 22 23  1  0  0  0
 22 82  1  0  0  0
 23 83  1  0  0  0
 24 25  1  0  0  0
 24 84  1  0  0  0
 25 26  1  0  0  0
 25 28  1  0  0  0
 25 85  1  0  0  0
 26 27  2  0  0  0
 26 31  1  0  0  0
 28 29  1  0  0  0
 28 30  1  0  0  0
 28 86  1  0  0  0
 29 87  1  0  0  0
 30 88  1  0  0  0
 30 89  1  0  0  0
 30 90  1  0  0  0
 31 32  1  0  0  0
 31 91  1  0  0  0
 32 33  1  0  0  0
 32 35  1  0  0  0
 32 92  1  0  0  0
 33 34  2  0  0  0
 33 39  1  0  0  0
 35 36  1  0  0  0
 35 37  1  0  0  0
 35 93  1  0  0  0
 36 38  1  0  0  0
 36 94  1  0  0  0
 36 95  1  0  0  0
 37 96  1  0  0  0
 37 97  1  0  0  0
 37 98  1  0  0  0
 38 99  1  0  0  0
 38100  1  0  0  0
 38101  1  0  0  0
 39 40  1  0  0  0
 39 45  1  0  0  0
 40 41  1  0  0  0
 40 43  1  0  0  0
 40102  1  0  0  0
 41 42  2  0  0  0
 41 46  1  0  0  0
 43 44  1  0  0  0
 43103  1  0  0  0
 43104  1  0  0  0
 44 45  1  0  0  0
 44105  1  0  0  0
 44106  1  0  0  0
 45107  1  0  0  0
 45108  1  0  0  0
 46 47  1  0  0  0
 46109  1  0  0  0
 47 48  1  0  0  0
 47 50  1  0  0  0
 47110  1  0  0  0
 48 49  2  0  0  0
 48 52  1  0  0  0
 50 51  1  0  0  0
 50111  1  0  0  0
 50112  1  0  0  0
 51113  1  0  0  0
 52 53  1  0  0  0
 52114  1  0  0  0
 53 54  1  0  0  0
 53 56  1  0  0  0
 53115  1  0  0  0
 54 55  1  0  0  0
 54 60  2  0  0  0
 56 57  1  0  0  0
 56 58  1  0  0  0
 56116  1  0  0  0
 57 59  1  0  0  0
 57117  1  0  0  0
 57118  1  0  0  0
 58119  1  0  0  0
 58120  1  0  0  0
 58121  1  0  0  0
 59122  1  0  0  0
 59123  1  0  0  0
 59124  1  0  0  0
M  CHG  2   1   1  55  -1
M  END
> <s_m_source_file>
../4mji_ligand.sdf

> <i_m_source_file_index>
1

> <s_epik_input>
W09IXVtDQEhdKFtDSDNdKVtDQEhdKFtOSDMrXSlDKD1PKVtOSF1bQ0BASF0oW0NIM10pQyg9TylbTkhdW0NAQEhdKFtDSDJdYzFbY0hdW2NIXVtjSF1bY0hdW2NIXTEpQyg9TylbTkhdW0NAQEhdKFtDQEhdKFtPSF0pW0NIM10pQyg9TylbTkhdW0NAQEhdKFtDQEBIXShbQ0gzXSlbQ0gyXVtDSDNdKUMoPU8pTjJbQ0BASF0oW0NIMl1bQ0gyXVtDSDJdMilDKD1PKVtOSF1bQ0BASF0oW0NIMl1bT0hdKUMoPU8pW05IXVtDQEhdKEMoPU8pW09IXSlbQ0BASF0oW0NIM10pW0NIMl1bQ0gzXQ==

> <s_epik_cmdline>
J2VwaWtfYXBwJywgJy1pbWFlJywgJ2xpZ2FuZF9wcm8ubWFlJywgJy1vbWFlJywgJ2xpZ2FuZF9wcmVwLm1hZScsICctbXMnLCAnMScsICctcGgnLCAnNycsICctcGh0JywgJzAuNScsICctbnQn

> <r_epik_Ionization_Penalty>
  0.0811

> <r_epik_Ionization_Penalty_Charging>
  0.0811

> <r_epik_Ionization_Penalty_Neutral>
  0.0000

> <r_epik_State_Penalty>
  0.0717

> <r_epik_Charging_Adjusted_Penalty>
0.15271630095864

> <i_epik_Tot_Q>
0

> <i_epik_Tot_abs_Q>
2

$$$$
