4mjo_ligand
                    3D
 Schrodinger Suite 2020-3.
 48 49  0  0  1  0            999 V2000
   38.8300   12.2860  -22.8050 N   0  0  0  0  0  0
   38.9100   11.0320  -22.4070 C   0  0  0  0  0  0
   39.7480    8.9530  -23.2380 C   0  0  0  0  0  0
   40.8580    7.2510  -24.3380 C   0  0  0  0  0  0
   35.9700   12.9250  -20.9100 C   0  0  0  0  0  0
   34.4680   13.7350  -22.2960 C   0  0  0  0  0  0
   41.5240    6.7890  -25.4200 N   0  0  0  0  0  0
   34.7230   13.1370  -21.1520 C   0  0  0  0  0  0
   39.5030    8.1340  -22.1260 C   0  0  0  0  0  0
   41.8170    9.5930  -27.8640 C   0  0  0  0  0  0
   38.2640   13.3820  -21.9670 S   0  0  0  0  0  0
   36.6900   13.4330  -21.8430 C   0  0  0  0  0  0
   35.8240   14.2600  -23.0180 S   0  0  0  0  0  0
   40.4350    8.5070  -24.2830 N   0  0  0  0  0  0
   39.4490   10.2540  -23.3240 N   0  0  0  0  0  0
   41.8340    7.4790  -26.5260 C   0  0  0  0  0  0
   40.6150    6.3920  -23.2740 C   0  0  0  0  0  0
   38.7050   14.5360  -22.6080 O   0  0  0  0  0  0
   38.9410   13.4940  -20.7200 O   0  0  0  0  0  0
   39.9250    6.8030  -22.1250 C   0  0  0  0  0  0
   38.4870   10.6470  -21.3240 O   0  5  0  0  0  0
   42.4310    6.8940  -27.3970 O   0  0  0  0  0  0
   41.5240    8.7600  -26.7130 N   0  0  0  0  0  0
   33.1220   14.0820  -22.8410 C   0  0  0  0  0  0
   39.6050    5.5950  -20.6380 Br  0  0  0  0  0  0
   33.5810   12.8060  -20.2200 C   0  0  0  0  0  0
   31.8320   16.0820  -22.8890 O   0  0  0  0  0  0
   32.9360   15.4870  -22.2740 C   0  0  0  0  0  0
   31.7360   17.4760  -22.5990 C   0  0  0  0  0  0
   36.3568   12.3927  -20.0410 H   0  0  0  0  0  0
   41.8705    5.7454  -25.4483 H   0  0  0  0  0  0
   38.9809    8.5383  -21.2588 H   0  0  0  0  0  0
   41.4199   10.6048  -27.6949 H   0  0  0  0  0  0
   41.3473    9.1596  -28.7593 H   0  0  0  0  0  0
   42.9059    9.6461  -28.0105 H   0  0  0  0  0  0
   39.7109   10.6658  -24.3098 H   0  0  0  0  0  0
   40.9727    5.3641  -23.3344 H   0  0  0  0  0  0
   40.9802    9.1802  -25.8541 H   0  0  0  0  0  0
   33.1524   14.0512  -23.9401 H   0  0  0  0  0  0
   32.3800   13.3574  -22.4743 H   0  0  0  0  0  0
   33.9743   12.3127  -19.3189 H   0  0  0  0  0  0
   32.8760   12.1321  -20.7288 H   0  0  0  0  0  0
   33.0612   13.7322  -19.9337 H   0  0  0  0  0  0
   32.7679   15.4251  -21.1887 H   0  0  0  0  0  0
   33.8381   16.0846  -22.4718 H   0  0  0  0  0  0
   30.8539   17.8958  -23.1046 H   0  0  0  0  0  0
   32.6417   17.9880  -22.9562 H   0  0  0  0  0  0
   31.6384   17.6186  -21.5127 H   0  0  0  0  0  0
  1  2  2  0  0  0
  1 11  1  0  0  0
  2 15  1  0  0  0
  2 21  1  0  0  0
  3  9  2  0  0  0
  3 14  1  0  0  0
  3 15  1  0  0  0
  4  7  1  0  0  0
  4 14  2  0  0  0
  4 17  1  0  0  0
  5  8  1  0  0  0
  5 12  2  0  0  0
  5 30  1  0  0  0
  6  8  2  0  0  0
  6 13  1  0  0  0
  6 24  1  0  0  0
  7 16  1  0  0  0
  7 31  1  0  0  0
  8 26  1  0  0  0
  9 20  1  0  0  0
  9 32  1  0  0  0
 10 23  1  0  0  0
 10 33  1  0  0  0
 10 34  1  0  0  0
 10 35  1  0  0  0
 11 12  1  0  0  0
 11 18  2  0  0  0
 11 19  2  0  0  0
 12 13  1  0  0  0
 15 36  1  0  0  0
 16 22  2  0  0  0
 16 23  1  0  0  0
 17 20  2  0  0  0
 17 37  1  0  0  0
 20 25  1  0  0  0
 23 38  1  0  0  0
 24 28  1  0  0  0
 24 39  1  0  0  0
 24 40  1  0  0  0
 26 41  1  0  0  0
 26 42  1  0  0  0
 26 43  1  0  0  0
 27 28  1  0  0  0
 27 29  1  0  0  0
 28 44  1  0  0  0
 28 45  1  0  0  0
 29 46  1  0  0  0
 29 47  1  0  0  0
 29 48  1  0  0  0
M  CHG  1  21  -1
M  END
> <s_m_source_file>
../4mjo_ligand.sdf

> <i_m_source_file_index>
1

> <s_epik_input>
W0NIM11PW0NIMl1bQ0gyXWMxYyhbQ0gzXSlbY0hdYyhzMSlTKD1PKSg9TylbTkhdQyg9TylbTkhdYzJbY0hdYyhCcilbY0hdYyhuMilbTkhdQyg9TylbTkhdW0NIM10=

> <s_epik_cmdline>
J2VwaWtfYXBwJywgJy1pbWFlJywgJ2xpZ2FuZF9wcm8ubWFlJywgJy1vbWFlJywgJ2xpZ2FuZF9wcmVwLm1hZScsICctbXMnLCAnMScsICctcGgnLCAnNycsICctcGh0JywgJzAuNScsICctbnQn

> <r_lp_tautomer_probability>
1

> <r_epik_Ionization_Penalty>
  0.0008

> <r_epik_Ionization_Penalty_Charging>
  0.0008

> <r_epik_Ionization_Penalty_Neutral>
  0.0001

> <r_epik_State_Penalty>
 -0.0000

> <r_epik_Charging_Adjusted_Penalty>
0.000757508070379463

> <i_epik_Tot_Q>
-1

> <i_epik_Tot_abs_Q>
1

$$$$
