4mjp_ligand
                    3D
 Schrodinger Suite 2020-3.
 42 44  0  0  1  0            999 V2000
  -19.1220  -18.2370   45.9690 C   0  0  0  0  0  0
  -18.2320  -17.2160   45.5920 C   0  0  0  0  0  0
  -17.5350  -17.2100   44.3700 C   0  0  0  0  0  0
  -16.5740  -16.1170   43.9830 C   0  0  0  0  0  0
  -15.1450  -16.6420   44.1730 C   0  0  0  0  0  0
  -14.3530  -14.1360   44.0980 C   0  0  0  0  0  0
  -17.7510  -18.3660   43.4410 C   0  0  0  0  0  0
  -17.3320  -19.5590   41.3730 C   0  0  0  0  0  0
  -18.8780  -20.5340   42.9580 C   0  0  0  0  0  0
  -22.0920  -21.1160   44.0950 O   0  0  0  0  0  0
  -21.7020  -20.3170   44.9420 C   0  0  0  0  0  0
  -22.5380  -19.3500   45.3000 O   0  5  0  0  0  0
  -20.3330  -20.4470   45.5770 C   0  0  2  0  0  0
  -20.4940  -20.5190   47.0950 C   0  0  0  0  0  0
  -19.3850  -19.3600   45.1560 C   0  0  0  0  0  0
  -18.6790  -19.4630   43.8380 C   0  0  0  0  0  0
  -18.2130  -20.5750   41.7340 C   0  0  0  0  0  0
  -17.1010  -18.4690   42.2120 C   0  0  0  0  0  0
  -16.7190  -14.8380   44.7940 C   0  0  0  0  0  0
  -15.8210  -13.7390   44.2490 C   0  0  0  0  0  0
  -14.0290  -15.6090   44.3610 C   0  0  0  0  0  0
  -19.6304  -18.1578   46.9299 H   0  0  0  0  0  0
  -18.0740  -16.3868   46.2817 H   0  0  0  0  0  0
  -16.8165  -15.8624   42.9407 H   0  0  0  0  0  0
  -15.1045  -17.2789   45.0689 H   0  0  0  0  0  0
  -14.8502  -17.2301   43.2914 H   0  0  0  0  0  0
  -14.0207  -13.9277   43.0703 H   0  0  0  0  0  0
  -13.7418  -13.5565   44.8055 H   0  0  0  0  0  0
  -16.8129  -19.6166   40.4163 H   0  0  0  0  0  0
  -19.5575  -21.3409   43.2322 H   0  0  0  0  0  0
  -19.8640  -21.3697   45.2047 H   0  0  0  0  0  0
  -21.1950  -21.3270   47.3514 H   0  0  0  0  0  0
  -20.8861  -19.5613   47.4680 H   0  0  0  0  0  0
  -19.5168  -20.7205   47.5582 H   0  0  0  0  0  0
  -18.3839  -21.4093   41.0537 H   0  0  0  0  0  0
  -16.4047  -17.6892   41.9034 H   0  0  0  0  0  0
  -17.7626  -14.4930   44.7510 H   0  0  0  0  0  0
  -16.4402  -15.0335   45.8400 H   0  0  0  0  0  0
  -15.9013  -12.8879   44.9413 H   0  0  0  0  0  0
  -16.2263  -13.4526   43.2673 H   0  0  0  0  0  0
  -13.6728  -15.6392   45.4013 H   0  0  0  0  0  0
  -13.1959  -15.8414   43.6813 H   0  0  0  0  0  0
  1  2  2  0  0  0
  1 15  1  0  0  0
  1 22  1  0  0  0
  2  3  1  0  0  0
  2 23  1  0  0  0
  3  4  1  0  0  0
  3  7  2  0  0  0
  4  5  1  0  0  0
  4 19  1  0  0  0
  4 24  1  0  0  0
  5 21  1  0  0  0
  5 25  1  0  0  0
  5 26  1  0  0  0
  6 20  1  0  0  0
  6 21  1  0  0  0
  6 27  1  0  0  0
  6 28  1  0  0  0
  7 16  1  0  0  0
  7 18  1  0  0  0
  8 17  1  0  0  0
  8 18  2  0  0  0
  8 29  1  0  0  0
  9 16  1  0  0  0
  9 17  2  0  0  0
  9 30  1  0  0  0
 10 11  2  0  0  0
 11 12  1  0  0  0
 11 13  1  0  0  0
 13 14  1  0  0  0
 13 15  1  0  0  0
 13 31  1  0  0  0
 14 32  1  0  0  0
 14 33  1  0  0  0
 14 34  1  0  0  0
 15 16  2  0  0  0
 17 35  1  0  0  0
 18 36  1  0  0  0
 19 20  1  0  0  0
 19 37  1  0  0  0
 19 38  1  0  0  0
 20 39  1  0  0  0
 20 40  1  0  0  0
 21 41  1  0  0  0
 21 42  1  0  0  0
M  CHG  1  12  -1
M  END
> <s_m_source_file>
../4mjp_ligand.sdf

> <i_m_source_file_index>
1

> <s_epik_input>
W2NIXTFbY0hdW2NIXVtjSF1jKGMxMiljKFtDQEBIXShbQ0gzXSlDKD1PKVtPSF0pW2NIXVtjSF1jMltDSF0zW0NIMl1bQ0gyXVtDSDJdW0NIMl1bQ0gyXTM=

> <s_epik_cmdline>
J2VwaWtfYXBwJywgJy1pbWFlJywgJ2xpZ2FuZF9wcm8ubWFlJywgJy1vbWFlJywgJ2xpZ2FuZF9wcmVwLm1hZScsICctbXMnLCAnMScsICctcGgnLCAnNycsICctcGh0JywgJzAuNScsICctbnQn

> <r_lp_tautomer_probability>
1

> <r_epik_Ionization_Penalty>
  0.0016

> <r_epik_Ionization_Penalty_Charging>
  0.0016

> <r_epik_Ionization_Penalty_Neutral>
  0.0000

> <r_epik_State_Penalty>
 -0.0000

> <r_epik_Charging_Adjusted_Penalty>
0.00158217379059907

> <i_epik_Tot_Q>
-1

> <i_epik_Tot_abs_Q>
1

$$$$
