4mjq_ligand
                    3D
 Schrodinger Suite 2020-3.
 31 32  0  0  1  0            999 V2000
  -21.7930    0.7740  -23.6200 C   0  0  0  0  0  0
  -22.1010   -0.1210  -22.6120 C   0  0  0  0  0  0
  -23.4000   -0.5370  -22.4280 C   0  0  0  0  0  0
  -26.3900   -0.6700  -21.6450 C   0  0  0  0  0  0
  -25.7870   -0.0870  -20.5320 C   0  0  0  0  0  0
  -27.4420   -0.9960  -19.0080 C   0  0  0  0  0  0
  -30.6150   -1.5820  -19.5800 C   0  0  0  0  0  0
  -30.5480   -0.3710  -19.5470 O   0  0  0  0  0  0
  -31.8110   -2.1610  -19.5190 O   0  5  0  0  0  0
  -29.3720   -2.4220  -19.6810 C   0  0  0  0  0  0
  -28.1390   -1.6090  -20.0420 C   0  0  0  0  0  0
  -26.2900   -0.2540  -19.2470 C   0  0  0  0  0  0
  -27.6250   -1.4710  -21.4370 C   0  0  0  0  0  0
  -28.2460   -2.0510  -22.5010 N   0  0  0  0  0  0
  -25.8200   -0.5050  -23.0270 C   0  0  0  0  0  0
  -26.4830   -0.8090  -24.0060 O   0  0  0  0  0  0
  -24.4110   -0.0420  -23.2430 C   0  0  0  0  0  0
  -20.0100    1.2930  -23.8370 Br  0  0  0  0  0  0
  -22.7870    1.2660  -24.4590 C   0  0  0  0  0  0
  -24.1000    0.8520  -24.2670 C   0  0  0  0  0  0
  -21.3124   -0.4983  -21.9610 H   0  0  0  0  0  0
  -23.6359   -1.2551  -21.6426 H   0  0  0  0  0  0
  -24.8923    0.5193  -20.6737 H   0  0  0  0  0  0
  -27.8064   -1.0990  -17.9859 H   0  0  0  0  0  0
  -29.1806   -2.9113  -18.7146 H   0  0  0  0  0  0
  -29.5090   -3.1877  -20.4588 H   0  0  0  0  0  0
  -25.7698    0.2071  -18.4074 H   0  0  0  0  0  0
  -27.8349   -1.9251  -23.5135 H   0  0  0  0  0  0
  -29.1588   -2.6455  -22.3481 H   0  0  0  0  0  0
  -22.5398    1.9668  -25.2564 H   0  0  0  0  0  0
  -24.8889    1.2273  -24.9188 H   0  0  0  0  0  0
  1  2  2  0  0  0
  1 18  1  0  0  0
  1 19  1  0  0  0
  2  3  1  0  0  0
  2 21  1  0  0  0
  3 17  2  0  0  0
  3 22  1  0  0  0
  4  5  2  0  0  0
  4 13  1  0  0  0
  4 15  1  0  0  0
  5 12  1  0  0  0
  5 23  1  0  0  0
  6 11  1  0  0  0
  6 12  2  0  0  0
  6 24  1  0  0  0
  7  8  2  0  0  0
  7  9  1  0  0  0
  7 10  1  0  0  0
 10 11  1  0  0  0
 10 25  1  0  0  0
 10 26  1  0  0  0
 11 13  2  0  0  0
 12 27  1  0  0  0
 13 14  1  0  0  0
 14 28  1  0  0  0
 14 29  1  0  0  0
 15 16  2  0  0  0
 15 17  1  0  0  0
 17 20  1  0  0  0
 19 20  2  0  0  0
 19 30  1  0  0  0
 20 31  1  0  0  0
M  CHG  1   9  -1
M  END
> <s_m_source_file>
../4mjq_ligand.sdf

> <i_m_source_file_index>
1

> <s_epik_input>
QnJjMVtjSF1bY0hdYyhbY0hdW2NIXTEpQyg9TyljMltjSF1bY0hdW2NIXWMoYzJbTkgyXSlbQ0gyXUMoPU8pW09IXQ==

> <s_epik_cmdline>
J2VwaWtfYXBwJywgJy1pbWFlJywgJ2xpZ2FuZF9wcm8ubWFlJywgJy1vbWFlJywgJ2xpZ2FuZF9wcmVwLm1hZScsICctbXMnLCAnMScsICctcGgnLCAnNycsICctcGh0JywgJzAuNScsICctbnQn

> <r_lp_tautomer_probability>
1

> <r_epik_Ionization_Penalty>
  0.0009

> <r_epik_Ionization_Penalty_Charging>
  0.0009

> <r_epik_Ionization_Penalty_Neutral>
  0.0000

> <r_epik_State_Penalty>
 -0.0000

> <r_epik_Charging_Adjusted_Penalty>
0.00087336310691263

> <i_epik_Tot_Q>
-1

> <i_epik_Tot_abs_Q>
1

$$$$
