4mjr_ligand
                    3D
 Schrodinger Suite 2020-3.
 29 31  0  0  1  0            999 V2000
  -19.4960    0.5810  -24.4290 Cl  0  0  0  0  0  0
  -21.1980    1.0570  -24.1850 C   0  0  0  0  0  0
  -21.5820    2.1790  -24.9040 C   0  0  0  0  0  0
  -22.8600    2.7040  -24.8170 C   0  0  0  0  0  0
  -23.7800    2.0740  -24.0030 C   0  0  0  0  0  0
  -25.0900    2.3170  -23.7010 N   0  0  0  0  0  0
  -22.0700    0.3740  -23.3450 C   0  0  0  0  0  0
  -23.3550    0.8780  -23.2460 C   0  0  0  0  0  0
  -24.5250    0.4380  -22.4930 C   0  0  0  0  0  0
  -24.7430   -0.6170  -21.6150 C   0  0  0  0  0  0
  -26.0310   -0.7360  -21.0540 C   0  0  0  0  0  0
  -25.5940    1.4010  -22.8290 C   0  0  0  0  0  0
  -26.8380    1.2370  -22.2460 C   0  0  0  0  0  0
  -27.0620    0.1840  -21.3590 C   0  0  0  0  0  0
  -28.4500    0.0640  -20.8310 C   0  0  2  0  0  0
  -28.6220    0.4360  -19.3820 C   0  0  0  0  0  0
  -28.9040   -1.3520  -21.0260 C   0  0  0  0  0  0
  -29.1980   -1.7960  -22.2460 O   0  5  0  0  0  0
  -29.0090   -2.1080  -20.0730 O   0  0  0  0  0  0
  -20.8555    2.6621  -25.5574 H   0  0  0  0  0  0
  -23.1342    3.5964  -25.3796 H   0  0  0  0  0  0
  -21.7578   -0.5125  -22.7930 H   0  0  0  0  0  0
  -23.9270   -1.3174  -21.3834 H   0  0  0  0  0  0
  -26.2247   -1.5701  -20.3635 H   0  0  0  0  0  0
  -27.6444    1.9319  -22.4802 H   0  0  0  0  0  0
  -29.0485    0.7897  -21.4012 H   0  0  0  0  0  0
  -28.2915    1.4738  -19.2282 H   0  0  0  0  0  0
  -28.0181   -0.2377  -18.7563 H   0  0  0  0  0  0
  -29.6820    0.3436  -19.1031 H   0  0  0  0  0  0
  1  2  1  0  0  0
  2  3  2  0  0  0
  2  7  1  0  0  0
  3  4  1  0  0  0
  3 20  1  0  0  0
  4  5  2  0  0  0
  4 21  1  0  0  0
  5  6  1  0  0  0
  5  8  1  0  0  0
  6 12  2  0  0  0
  7  8  2  0  0  0
  7 22  1  0  0  0
  8  9  1  0  0  0
  9 10  2  0  0  0
  9 12  1  0  0  0
 10 11  1  0  0  0
 10 23  1  0  0  0
 11 14  2  0  0  0
 11 24  1  0  0  0
 12 13  1  0  0  0
 13 14  1  0  0  0
 13 25  1  0  0  0
 14 15  1  0  0  0
 15 16  1  0  0  0
 15 17  1  0  0  0
 15 26  1  0  0  0
 16 27  1  0  0  0
 16 28  1  0  0  0
 16 29  1  0  0  0
 17 18  1  0  0  0
 17 19  2  0  0  0
M  CHG  1  18  -1
M  END
> <s_m_source_file>
../4mjr_ligand.sdf

> <i_m_source_file_index>
1

> <s_epik_input>
W2NIXTFbY0hdYyhDbClbY0hdYyhjMTIpQz0zQyg9TjIpW0NIMl1DKD1bQ0hdW0NIXTMpW0NASF0oW0NIM10pQyg9TylbT0hd

> <s_epik_cmdline>
J2VwaWtfYXBwJywgJy1pbWFlJywgJ2xpZ2FuZF9wcm8ubWFlJywgJy1vbWFlJywgJ2xpZ2FuZF9wcmVwLm1hZScsICctbXMnLCAnMScsICctcGgnLCAnNycsICctcGh0JywgJzAuNScsICctbnQn

> <r_lp_tautomer_probability>
1

> <r_epik_Ionization_Penalty>
  0.0026

> <r_epik_Ionization_Penalty_Charging>
  0.0002

> <r_epik_Ionization_Penalty_Neutral>
  0.0024

> <r_epik_State_Penalty>
 -0.0000

> <r_epik_Charging_Adjusted_Penalty>
0.000176684615168938

> <i_epik_Tot_Q>
-1

> <i_epik_Tot_abs_Q>
1

> <s_epik_Chemistry_Notes>
This compound has an imine and may undergo hydrolysis.

$$$$
