4mk1_ligand
                    3D
 Schrodinger Suite 2020-3.
 13 13  0  0  1  0            999 V2000
   10.0340   22.3100   -7.9810 O   0  0  0  0  0  0
   10.3280   21.7660   -9.2090 C   0  0  0  0  0  0
   11.1550   22.4480  -10.1070 C   0  0  0  0  0  0
   11.4360   21.8200  -11.3260 C   0  0  0  0  0  0
   12.5800   22.6870  -12.6410 Br  0  0  0  0  0  0
   10.8960   20.5720  -11.6120 C   0  0  0  0  0  0
   10.1150   19.9560  -10.7210 N   0  0  0  0  0  0
    9.8240   20.5160   -9.5460 C   0  0  0  0  0  0
    9.0530   19.8520   -8.6560 O   0  0  0  0  0  0
   10.4302   23.2994   -7.7086 H   0  0  0  0  0  0
   11.5644   23.4293   -9.8673 H   0  0  0  0  0  0
   11.1108   20.0938  -12.5677 H   0  0  0  0  0  0
    9.6963   18.9647  -10.9491 H   0  0  0  0  0  0
  1  2  1  0  0  0
  1 10  1  0  0  0
  2  3  2  0  0  0
  2  8  1  0  0  0
  3  4  1  0  0  0
  3 11  1  0  0  0
  4  5  1  0  0  0
  4  6  2  0  0  0
  6  7  1  0  0  0
  6 12  1  0  0  0
  7  8  1  0  0  0
  7 13  1  0  0  0
  8  9  2  0  0  0
M  END
> <s_m_source_file>
../4mk1_ligand.sdf

> <i_m_source_file_index>
1

> <s_epik_input>
W09IXWMxW2NIXWMoQnIpW2NIXW5jMVtPSF0=

> <s_epik_cmdline>
J2VwaWtfYXBwJywgJy1pbWFlJywgJ2xpZ2FuZF9wcm8ubWFlJywgJy1vbWFlJywgJ2xpZ2FuZF9wcmVwLm1hZScsICctbXMnLCAnMScsICctcGgnLCAnNycsICctcGh0JywgJzAuNScsICctbnQn

> <r_lp_tautomer_probability>
0.993451916926782

> <r_epik_Ionization_Penalty>
  0.1558

> <r_epik_Ionization_Penalty_Charging>
  0.0026

> <r_epik_Ionization_Penalty_Neutral>
  0.1532

> <r_epik_State_Penalty>
  0.1425

> <r_epik_Charging_Adjusted_Penalty>
0.14510239218986

> <i_epik_Tot_Q>
0

> <i_epik_Tot_abs_Q>
0

$$$$
