4mk5_ligand
                    3D
 Schrodinger Suite 2020-3.
 27 28  0  0  1  0            999 V2000
    9.9230   22.3060   -7.6890 O   0  0  0  0  0  0
   10.1210   21.8850   -8.9930 C   0  0  0  0  0  0
   10.7700   22.6990   -9.9370 C   0  0  0  0  0  0
   10.9370   22.1580  -11.2420 C   0  0  0  0  0  0
   10.4820   20.8680  -11.5010 C   0  0  0  0  0  0
   10.6260   20.2240  -12.8270 C   0  0  0  0  0  0
   10.5610   21.0200  -13.9750 C   0  0  0  0  0  0
   10.6740   20.4090  -15.2090 C   0  0  0  0  0  0
   10.5900   21.2000  -16.3180 O   0  0  0  0  0  0
   10.5790   20.5840  -17.5700 C   0  0  0  0  0  0
   10.8760   19.0430  -15.3270 C   0  0  0  0  0  0
   10.9510   18.2440  -14.1860 C   0  0  0  0  0  0
   10.8400   18.8530  -12.9360 C   0  0  0  0  0  0
    9.8790   20.1320  -10.5490 N   0  0  0  0  0  0
    9.6910   20.6150   -9.3340 C   0  0  0  0  0  0
    9.0670   19.8360   -8.4200 O   0  0  0  0  0  0
   10.2511   23.3092   -7.3791 H   0  0  0  0  0  0
   11.1280   23.6964   -9.6817 H   0  0  0  0  0  0
   11.4140   22.7445  -12.0272 H   0  0  0  0  0  0
   10.4242   22.0986  -13.8979 H   0  0  0  0  0  0
   10.5080   21.3509  -18.3554 H   0  0  0  0  0  0
    9.7140   19.9080  -17.6384 H   0  0  0  0  0  0
   11.5063   20.0075  -17.7032 H   0  0  0  0  0  0
   10.9765   18.5917  -16.3141 H   0  0  0  0  0  0
   11.0933   17.1666  -14.2695 H   0  0  0  0  0  0
   10.9219   18.2476  -12.0333 H   0  0  0  0  0  0
    9.5347   19.1126  -10.7776 H   0  0  0  0  0  0
  1  2  1  0  0  0
  1 17  1  0  0  0
  2  3  2  0  0  0
  2 15  1  0  0  0
  3  4  1  0  0  0
  3 18  1  0  0  0
  4  5  2  0  0  0
  4 19  1  0  0  0
  5  6  1  0  0  0
  5 14  1  0  0  0
  6  7  2  0  0  0
  6 13  1  0  0  0
  7  8  1  0  0  0
  7 20  1  0  0  0
  8  9  1  0  0  0
  8 11  2  0  0  0
  9 10  1  0  0  0
 10 21  1  0  0  0
 10 22  1  0  0  0
 10 23  1  0  0  0
 11 12  1  0  0  0
 11 24  1  0  0  0
 12 13  2  0  0  0
 12 25  1  0  0  0
 13 26  1  0  0  0
 14 15  1  0  0  0
 14 27  1  0  0  0
 15 16  2  0  0  0
M  END
> <s_m_source_file>
../4mk5_ligand.sdf

> <i_m_source_file_index>
1

> <s_epik_input>
W09IXWMxW2NIXVtjSF1jKG5jMVtPSF0pLWMyW2NIXWMoT1tDSDNdKVtjSF1bY0hdW2NIXTI=

> <s_epik_cmdline>
J2VwaWtfYXBwJywgJy1pbWFlJywgJ2xpZ2FuZF9wcm8ubWFlJywgJy1vbWFlJywgJ2xpZ2FuZF9wcmVwLm1hZScsICctbXMnLCAnMScsICctcGgnLCAnNycsICctcGh0JywgJzAuNScsICctbnQn

> <r_lp_tautomer_probability>
0.993451916926782

> <r_epik_Ionization_Penalty>
  0.0136

> <r_epik_Ionization_Penalty_Charging>
  0.0002

> <r_epik_Ionization_Penalty_Neutral>
  0.0134

> <r_epik_State_Penalty>
  0.0104

> <r_epik_Charging_Adjusted_Penalty>
0.0106085268923487

> <i_epik_Tot_Q>
0

> <i_epik_Tot_abs_Q>
0

$$$$
