4mk7_ligand
                    3D
 Schrodinger Suite 2020-3.
 38 39  0  0  1  0            999 V2000
  -10.5480    9.3290   19.2830 C   0  0  0  0  0  0
  -10.4250    9.0210   17.9300 C   0  0  0  0  0  0
   -9.2870    9.3720   17.2260 C   0  0  0  0  0  0
   -8.2500   10.0370   17.8810 C   0  0  0  0  0  0
   -8.3690   10.4160   19.2320 C   0  0  0  0  0  0
   -9.5310   10.0460   19.9080 C   0  0  0  0  0  0
   -7.2700   11.1780   20.0180 C   0  0  0  0  0  0
   -7.8060   11.6860   21.3690 C   0  0  0  0  0  0
   -6.0840   10.2540   20.3270 C   0  0  0  0  0  0
   -6.7520   12.4120   19.2600 C   0  0  0  0  0  0
   -7.0310   10.2660   17.2980 O   0  0  0  0  0  0
   -6.8050    9.7610   15.9780 C   0  0  0  0  0  0
  -11.7090    8.8470   20.0780 C   0  0  0  0  0  0
  -12.1770    7.4760   19.8730 C   0  0  0  0  0  0
  -11.7010    6.6590   19.0770 O   0  0  0  0  0  0
  -13.2520    7.1100   20.6950 N   0  0  0  0  0  0
  -13.8340    7.9200   21.6200 C   0  0  0  0  0  0
  -13.3880    9.1860   21.8090 C   0  0  0  0  0  0
  -12.3130    9.6510   21.0200 C   0  0  0  0  0  0
  -11.2342    8.4978   17.4205 H   0  0  0  0  0  0
   -9.2011    9.1306   16.1665 H   0  0  0  0  0  0
   -9.6465   10.3259   20.9551 H   0  0  0  0  0  0
   -8.1907   10.8372   21.9534 H   0  0  0  0  0  0
   -8.6171   12.4080   21.1935 H   0  0  0  0  0  0
   -6.9931   12.1757   21.9252 H   0  0  0  0  0  0
   -6.4421    9.3667   20.8697 H   0  0  0  0  0  0
   -5.3517   10.7921   20.9468 H   0  0  0  0  0  0
   -5.6082    9.9410   19.3859 H   0  0  0  0  0  0
   -7.5937   13.0826   19.0326 H   0  0  0  0  0  0
   -6.2741   12.0923   18.3222 H   0  0  0  0  0  0
   -6.0177   12.9435   19.8831 H   0  0  0  0  0  0
   -5.7877   10.0253   15.6535 H   0  0  0  0  0  0
   -7.5370   10.2029   15.2860 H   0  0  0  0  0  0
   -6.9165    8.6667   15.9800 H   0  0  0  0  0  0
  -13.6857    6.1021   20.6171 H   0  0  0  0  0  0
  -14.6675    7.5472   22.2153 H   0  0  0  0  0  0
  -13.8500    9.8324   22.5552 H   0  0  0  0  0  0
  -11.9525   10.6702   21.1595 H   0  0  0  0  0  0
  1  2  2  0  0  0
  1  6  1  0  0  0
  1 13  1  0  0  0
  2  3  1  0  0  0
  2 20  1  0  0  0
  3  4  2  0  0  0
  3 21  1  0  0  0
  4  5  1  0  0  0
  4 11  1  0  0  0
  5  6  2  0  0  0
  5  7  1  0  0  0
  6 22  1  0  0  0
  7  8  1  0  0  0
  7  9  1  0  0  0
  7 10  1  0  0  0
  8 23  1  0  0  0
  8 24  1  0  0  0
  8 25  1  0  0  0
  9 26  1  0  0  0
  9 27  1  0  0  0
  9 28  1  0  0  0
 10 29  1  0  0  0
 10 30  1  0  0  0
 10 31  1  0  0  0
 11 12  1  0  0  0
 12 32  1  0  0  0
 12 33  1  0  0  0
 12 34  1  0  0  0
 13 14  1  0  0  0
 13 19  2  0  0  0
 14 15  2  0  0  0
 14 16  1  0  0  0
 16 17  1  0  0  0
 16 35  1  0  0  0
 17 18  2  0  0  0
 17 36  1  0  0  0
 18 19  1  0  0  0
 18 37  1  0  0  0
 19 38  1  0  0  0
M  END
> <s_m_source_file>
../4mk7_ligand.sdf

> <i_m_source_file_index>
1

> <s_epik_input>
W2NIXTFbY0hdW2NIXVtuSF1jKD1PKWMxLWMyW2NIXVtjSF1jKE9bQ0gzXSljKFtjSF0yKUMoW0NIM10pKFtDSDNdKVtDSDNd

> <s_epik_cmdline>
J2VwaWtfYXBwJywgJy1pbWFlJywgJ2xpZ2FuZF9wcm8ubWFlJywgJy1vbWFlJywgJ2xpZ2FuZF9wcmVwLm1hZScsICctbXMnLCAnMScsICctcGgnLCAnNycsICctcGh0JywgJzAuNScsICctbnQn

> <r_lp_tautomer_probability>
1

> <r_epik_Ionization_Penalty>
  0.0000

> <r_epik_Ionization_Penalty_Charging>
  0.0000

> <r_epik_Ionization_Penalty_Neutral>
  0.0000

> <r_epik_State_Penalty>
 -0.0000

> <r_epik_Charging_Adjusted_Penalty>
3.39585469707554e-05

> <i_epik_Tot_Q>
0

> <i_epik_Tot_abs_Q>
0

$$$$
