4mk8_ligand
                    3D
 Schrodinger Suite 2020-3.
 62 64  0  0  1  0            999 V2000
  -51.1180   -8.9210  -13.5710 C   0  0  0  0  0  0
  -50.0030   -9.4860  -12.9490 C   0  0  0  0  0  0
  -49.9720   -9.4410  -11.5230 C   0  0  0  0  0  0
  -50.9900   -8.8280  -10.7750 C   0  0  0  0  0  0
  -52.0670   -8.2690  -11.4590 C   0  0  0  0  0  0
  -52.1380   -8.3100  -12.8500 C   0  0  0  0  0  0
  -53.3100   -7.7320  -13.5600 C   0  0  0  0  0  0
  -53.9260   -8.4060  -14.5930 C   0  0  0  0  0  0
  -55.0130   -7.8350  -15.3080 C   0  0  0  0  0  0
  -55.4490   -6.6020  -14.9540 C   0  0  0  0  0  0
  -54.8720   -5.9320  -13.9190 N   0  0  0  0  0  0
  -53.7900   -6.4120  -13.1550 C   0  0  0  0  0  0
  -53.3310   -5.7360  -12.2300 O   0  0  0  0  0  0
  -50.9460   -8.7070   -9.2570 C   0  0  0  0  0  0
  -52.1880   -9.3810   -8.5810 C   0  0  0  0  0  0
  -52.1880   -9.3100   -7.0750 C   0  0  0  0  0  0
  -51.6440  -10.3380   -6.3130 C   0  0  0  0  0  0
  -51.7550  -10.3420   -4.9340 C   0  0  0  0  0  0
  -52.4170   -9.3060   -4.2840 C   0  0  0  0  0  0
  -52.9330   -8.2570   -5.0370 C   0  0  0  0  0  0
  -52.8170   -8.2650   -6.4160 C   0  0  0  0  0  0
  -52.5950   -9.3740   -2.8700 N   0  0  0  0  0  0
  -53.1620   -8.2170   -1.8810 S   0  0  0  0  0  0
  -52.8860   -8.6590   -0.5490 O   0  0  0  0  0  0
  -52.6110   -6.9700   -2.3180 O   0  0  0  0  0  0
  -54.8970   -8.1750   -2.0950 C   0  0  0  0  0  0
  -48.8600   -9.9330  -10.8620 O   0  0  0  0  0  0
  -49.0120  -11.1810  -10.1850 C   0  0  0  0  0  0
  -48.8270   -9.9340  -13.8610 C   0  0  0  0  0  0
  -49.1930   -9.8630  -15.3550 C   0  0  0  0  0  0
  -47.6010   -9.0160  -13.6650 C   0  0  0  0  0  0
  -48.4030  -11.3850  -13.5980 C   0  0  0  0  0  0
  -51.1914   -8.9602  -14.6578 H   0  0  0  0  0  0
  -52.8686   -7.7909  -10.8960 H   0  0  0  0  0  0
  -53.5711   -9.3994  -14.8674 H   0  0  0  0  0  0
  -55.4869   -8.3784  -16.1255 H   0  0  0  0  0  0
  -56.2702   -6.1418  -15.5036 H   0  0  0  0  0  0
  -55.2492   -4.9408  -13.6270 H   0  0  0  0  0  0
  -50.0381   -9.1977   -8.8762 H   0  0  0  0  0  0
  -50.9344   -7.6441   -8.9741 H   0  0  0  0  0  0
  -53.1074   -8.8859   -8.9269 H   0  0  0  0  0  0
  -52.2206  -10.4463   -8.8533 H   0  0  0  0  0  0
  -51.1211  -11.1547   -6.8107 H   0  0  0  0  0  0
  -51.3228  -11.1587   -4.3559 H   0  0  0  0  0  0
  -53.4309   -7.4250   -4.5390 H   0  0  0  0  0  0
  -53.2268   -7.4363   -6.9934 H   0  0  0  0  0  0
  -52.2954  -10.3498   -2.4600 H   0  0  0  0  0  0
  -55.3307   -9.1294   -1.7619 H   0  0  0  0  0  0
  -55.1316   -8.0168   -3.1580 H   0  0  0  0  0  0
  -55.3200   -7.3524   -1.4997 H   0  0  0  0  0  0
  -48.0612  -11.4559   -9.7049 H   0  0  0  0  0  0
  -49.2954  -11.9589  -10.9093 H   0  0  0  0  0  0
  -49.7965  -11.0896   -9.4193 H   0  0  0  0  0  0
  -49.5076   -8.8396  -15.6072 H   0  0  0  0  0  0
  -50.0163  -10.5618  -15.5644 H   0  0  0  0  0  0
  -48.3165  -10.1369  -15.9606 H   0  0  0  0  0  0
  -47.8916   -7.9715  -13.8508 H   0  0  0  0  0  0
  -46.8085   -9.3071  -14.3702 H   0  0  0  0  0  0
  -47.2295   -9.1155  -12.6344 H   0  0  0  0  0  0
  -49.2683  -12.0503  -13.7344 H   0  0  0  0  0  0
  -48.0288  -11.4766  -12.5677 H   0  0  0  0  0  0
  -47.6079  -11.6682  -14.3034 H   0  0  0  0  0  0
  1  2  2  0  0  0
  1  6  1  0  0  0
  1 33  1  0  0  0
  2  3  1  0  0  0
  2 29  1  0  0  0
  3  4  2  0  0  0
  3 27  1  0  0  0
  4  5  1  0  0  0
  4 14  1  0  0  0
  5  6  2  0  0  0
  5 34  1  0  0  0
  6  7  1  0  0  0
  7  8  2  0  0  0
  7 12  1  0  0  0
  8  9  1  0  0  0
  8 35  1  0  0  0
  9 10  2  0  0  0
  9 36  1  0  0  0
 10 11  1  0  0  0
 10 37  1  0  0  0
 11 12  1  0  0  0
 11 38  1  0  0  0
 12 13  2  0  0  0
 14 15  1  0  0  0
 14 39  1  0  0  0
 14 40  1  0  0  0
 15 16  1  0  0  0
 15 41  1  0  0  0
 15 42  1  0  0  0
 16 17  2  0  0  0
 16 21  1  0  0  0
 17 18  1  0  0  0
 17 43  1  0  0  0
 18 19  2  0  0  0
 18 44  1  0  0  0
 19 20  1  0  0  0
 19 22  1  0  0  0
 20 21  2  0  0  0
 20 45  1  0  0  0
 21 46  1  0  0  0
 22 23  1  0  0  0
 22 47  1  0  0  0
 23 24  2  0  0  0
 23 25  2  0  0  0
 23 26  1  0  0  0
 26 48  1  0  0  0
 26 49  1  0  0  0
 26 50  1  0  0  0
 27 28  1  0  0  0
 28 51  1  0  0  0
 28 52  1  0  0  0
 28 53  1  0  0  0
 29 30  1  0  0  0
 29 31  1  0  0  0
 29 32  1  0  0  0
 30 54  1  0  0  0
 30 55  1  0  0  0
 30 56  1  0  0  0
 31 57  1  0  0  0
 31 58  1  0  0  0
 31 59  1  0  0  0
 32 60  1  0  0  0
 32 61  1  0  0  0
 32 62  1  0  0  0
M  END
> <s_m_source_file>
../4mk8_ligand.sdf

> <i_m_source_file_index>
1

> <s_epik_input>
Tz1jMVtuSF1bY0hdW2NIXVtjSF1jMS1jKFtjSF1jMkMoW0NIM10pKFtDSDNdKVtDSDNdKVtjSF1jKGMyT1tDSDNdKVtDSDJdW0NIMl1jM1tjSF1bY0hdYyhbY0hdW2NIXTMpW05IXVMoPU8pKD1PKVtDSDNd

> <s_epik_cmdline>
J2VwaWtfYXBwJywgJy1pbWFlJywgJ2xpZ2FuZF9wcm8ubWFlJywgJy1vbWFlJywgJ2xpZ2FuZF9wcmVwLm1hZScsICctbXMnLCAnMScsICctcGgnLCAnNycsICctcGh0JywgJzAuNScsICctbnQn

> <r_lp_tautomer_probability>
1

> <r_epik_Ionization_Penalty>
  0.0078

> <r_epik_Ionization_Penalty_Charging>
  0.0000

> <r_epik_Ionization_Penalty_Neutral>
  0.0078

> <r_epik_State_Penalty>
 -0.0000

> <r_epik_Charging_Adjusted_Penalty>
3.39585469707554e-05

> <i_epik_Tot_Q>
0

> <i_epik_Tot_abs_Q>
0

$$$$
