4mka_ligand
                    3D
 Schrodinger Suite 2020-3.
 61 64  0  0  1  0            999 V2000
  -10.1590    9.6890    2.5600 N   0  0  0  0  0  0
  -10.5670    8.4510    1.5850 S   0  0  0  0  0  0
  -10.3440    8.9040    0.2470 O   0  0  0  0  0  0
   -9.8700    7.2880    2.0470 O   0  0  0  0  0  0
  -12.2850    8.1970    1.7930 C   0  0  0  0  0  0
   -9.7620    9.7090    3.9400 C   0  0  0  0  0  0
   -9.1230   10.8600    4.3830 C   0  0  0  0  0  0
   -8.7060   10.9660    5.6970 C   0  0  0  0  0  0
   -8.9160    9.9290    6.6120 C   0  0  0  0  0  0
   -8.5030   10.0220    7.9900 C   0  0  0  0  0  0
   -8.7180    9.0260    8.8540 C   0  0  0  0  0  0
   -9.3290    7.8440    8.4340 O   0  0  0  0  0  0
   -9.7840    7.6430    7.1180 C   0  0  0  0  0  0
  -10.2990    6.5690    6.8780 O   0  0  0  0  0  0
   -9.5660    8.7520    6.1700 C   0  0  0  0  0  0
   -9.9910    8.6590    4.8330 C   0  0  0  0  0  0
   -8.5570    9.0410   10.3220 C   0  0  0  0  0  0
   -7.4530    9.6110   10.9910 C   0  0  0  0  0  0
   -7.3730    9.6600   12.4150 C   0  0  0  0  0  0
   -8.4440    9.1150   13.1270 C   0  0  0  0  0  0
   -9.5350    8.5400   12.4830 C   0  0  0  0  0  0
   -9.5850    8.5160   11.0950 C   0  0  0  0  0  0
  -10.6280    7.9120   13.2680 C   0  0  0  0  0  0
  -11.0580    6.5780   12.8700 C   0  0  0  0  0  0
  -10.5900    5.9340   11.9270 O   0  0  0  0  0  0
  -12.1240    6.0730   13.6180 N   0  0  0  0  0  0
  -12.7490    6.7400   14.6240 C   0  0  0  0  0  0
  -12.3540    7.9880   14.9770 C   0  0  0  0  0  0
  -11.2690    8.5790   14.2870 C   0  0  0  0  0  0
   -6.1780   10.2430   13.2240 C   0  0  0  0  0  0
   -6.5230   10.3950   14.7150 C   0  0  0  0  0  0
   -4.9340    9.3280   13.1580 C   0  0  0  0  0  0
   -5.7800   11.6370   12.7340 C   0  0  0  0  0  0
   -6.4430   10.1970   10.2520 O   0  0  0  0  0  0
   -5.4240    9.3510    9.7270 C   0  0  0  0  0  0
  -10.1626   10.7185    2.1726 H   0  0  0  0  0  0
  -12.8320    9.0842    1.4414 H   0  0  0  0  0  0
  -12.5045    8.0289    2.8577 H   0  0  0  0  0  0
  -12.5988    7.3181    1.2107 H   0  0  0  0  0  0
   -8.9494   11.6841    3.6910 H   0  0  0  0  0  0
   -8.2037   11.8756    6.0264 H   0  0  0  0  0  0
   -8.0031   10.9270    8.3354 H   0  0  0  0  0  0
  -10.5035    7.7601    4.4902 H   0  0  0  0  0  0
   -8.4245    9.1409   14.2165 H   0  0  0  0  0  0
  -10.4508    8.0751   10.6010 H   0  0  0  0  0  0
  -13.5847    6.2676   15.1611 H   0  0  0  0  0  0
  -13.1889    8.6903   14.8366 H   0  0  0  0  0  0
  -12.0466    7.9903   16.0332 H   0  0  0  0  0  0
  -10.9397    9.5878   14.5766 H   0  0  0  0  0  0
   -6.8186    9.4178   15.1244 H   0  0  0  0  0  0
   -7.3541   11.1066   14.8283 H   0  0  0  0  0  0
   -5.6430   10.7693   15.2586 H   0  0  0  0  0  0
   -5.2015    8.3198   13.5072 H   0  0  0  0  0  0
   -4.1413    9.7400   13.7998 H   0  0  0  0  0  0
   -4.5739    9.2731   12.1201 H   0  0  0  0  0  0
   -6.6544   12.3032   12.7740 H   0  0  0  0  0  0
   -5.4160   11.5714   11.6980 H   0  0  0  0  0  0
   -4.9835   12.0384   13.3778 H   0  0  0  0  0  0
   -4.6969    9.9571    9.1667 H   0  0  0  0  0  0
   -5.8758    8.6064    9.0551 H   0  0  0  0  0  0
   -4.9126    8.8364   10.5538 H   0  0  0  0  0  0
  1  2  1  0  0  0
  1  6  1  0  0  0
  1 36  1  0  0  0
  2  3  2  0  0  0
  2  4  2  0  0  0
  2  5  1  0  0  0
  5 37  1  0  0  0
  5 38  1  0  0  0
  5 39  1  0  0  0
  6  7  2  0  0  0
  6 16  1  0  0  0
  7  8  1  0  0  0
  7 40  1  0  0  0
  8  9  2  0  0  0
  8 41  1  0  0  0
  9 10  1  0  0  0
  9 15  1  0  0  0
 10 11  2  0  0  0
 10 42  1  0  0  0
 11 12  1  0  0  0
 11 17  1  0  0  0
 12 13  1  0  0  0
 13 14  2  0  0  0
 13 15  1  0  0  0
 15 16  2  0  0  0
 16 43  1  0  0  0
 17 18  2  0  0  0
 17 22  1  0  0  0
 18 19  1  0  0  0
 18 34  1  0  0  0
 19 20  2  0  0  0
 19 30  1  0  0  0
 20 21  1  0  0  0
 20 44  1  0  0  0
 21 22  2  0  0  0
 21 23  1  0  0  0
 22 45  1  0  0  0
 23 24  1  0  0  0
 23 29  2  0  0  0
 24 25  2  0  0  0
 24 26  1  0  0  0
 26 27  2  0  0  0
 27 28  1  0  0  0
 27 46  1  0  0  0
 28 29  1  0  0  0
 28 47  1  0  0  0
 28 48  1  0  0  0
 29 49  1  0  0  0
 30 31  1  0  0  0
 30 32  1  0  0  0
 30 33  1  0  0  0
 31 50  1  0  0  0
 31 51  1  0  0  0
 31 52  1  0  0  0
 32 53  1  0  0  0
 32 54  1  0  0  0
 32 55  1  0  0  0
 33 56  1  0  0  0
 33 57  1  0  0  0
 33 58  1  0  0  0
 34 35  1  0  0  0
 35 59  1  0  0  0
 35 60  1  0  0  0
 35 61  1  0  0  0
M  END
> <s_m_source_file>
../4mka_ligand.sdf

> <i_m_source_file_index>
1

> <s_epik_input>
Tz1TKD1PKShbQ0gzXSlbTkhdYyhbY0hdW2NIXTEpW2NIXWMoYzEyKWMoPU8pb2MoW2NIXTIpLWMzYyhPW0NIM10pYyhDKFtDSDNdKShbQ0gzXSlbQ0gzXSlbY0hdYyhbY0hdMylDND1bQ0hdW0NIMl1bQ0hdPU5DND1P

> <s_epik_cmdline>
J2VwaWtfYXBwJywgJy1pbWFlJywgJ2xpZ2FuZF9wcm8ubWFlJywgJy1vbWFlJywgJ2xpZ2FuZF9wcmVwLm1hZScsICctbXMnLCAnMScsICctcGgnLCAnNycsICctcGh0JywgJzAuNScsICctbnQn

> <r_epik_Ionization_Penalty>
  0.0199

> <r_epik_Ionization_Penalty_Charging>
  0.0000

> <r_epik_Ionization_Penalty_Neutral>
  0.0199

> <r_epik_State_Penalty>
  0.0159

> <r_epik_Charging_Adjusted_Penalty>
0.0159092340845227

> <i_epik_Tot_Q>
0

> <i_epik_Tot_abs_Q>
0

> <s_epik_Chemistry_Notes>
This compound has an imine and may undergo hydrolysis.

$$$$
