4mm4_ligand
                    3D
 Schrodinger Suite 2020-3.
 45 48  0  0  1  0            999 V2000
  116.6140  -21.7660  101.9500 F   0  0  0  0  0  0
  115.7990  -20.5280  103.8720 C   0  0  0  0  0  0
  117.9530  -19.8990  102.7580 C   0  0  0  0  0  0
  113.8460  -14.5330  103.1320 C   0  0  0  0  0  0
  115.9780  -19.4760  104.8040 C   0  0  0  0  0  0
  118.1250  -18.8810  103.6690 C   0  0  0  0  0  0
  112.9290  -14.0390  102.1780 C   0  0  0  0  0  0
  112.0360  -15.2380  104.5580 C   0  0  0  0  0  0
  118.3430  -16.7200  107.9760 C   0  0  0  0  0  0
  118.2030  -17.8080  106.9440 C   0  0  0  0  0  0
  116.4390  -15.5430  107.0250 C   0  0  0  0  0  0
  109.3170  -14.1080  102.4300 C   0  0  0  0  0  0
  115.4360  -16.2520  104.8560 C   0  0  0  0  0  0
  117.0500  -16.0420  108.2600 N   0  3  0  0  0  0
  114.2280  -15.6420  105.3070 O   0  0  0  0  0  0
  110.4540  -13.7600  101.6990 O   0  0  0  0  0  0
  109.6650  -14.6940  103.5530 O   0  0  0  0  0  0
  116.7740  -20.7590  102.8440 C   0  0  0  0  0  0
  113.3550  -15.1450  104.3330 C   0  0  0  0  0  0
  117.1470  -18.6300  104.7240 C   0  0  0  0  0  0
  111.5860  -14.1420  102.4110 C   0  0  0  0  0  0
  111.1090  -14.7390  103.6020 C   0  0  0  0  0  0
  116.1560  -16.7120  106.1100 C   0  0  1  0  0  0
  117.4170  -17.4000  105.7500 C   0  0  1  0  0  0
  114.9168  -21.1650  103.9358 H   0  0  0  0  0  0
  118.6935  -20.0631  101.9752 H   0  0  0  0  0  0
  114.9186  -14.4498  102.9570 H   0  0  0  0  0  0
  115.2337  -19.3047  105.5817 H   0  0  0  0  0  0
  119.0103  -18.2488  103.6012 H   0  0  0  0  0  0
  113.2909  -13.5773  101.2593 H   0  0  0  0  0  0
  111.6732  -15.6979  105.4772 H   0  0  0  0  0  0
  118.7147  -17.1525  108.9166 H   0  0  0  0  0  0
  119.0534  -15.9616  107.6152 H   0  0  0  0  0  0
  119.2005  -18.1103  106.5923 H   0  0  0  0  0  0
  117.6938  -18.6744  107.3913 H   0  0  0  0  0  0
  115.4996  -15.0232  107.2647 H   0  0  0  0  0  0
  117.1294  -14.8435  106.5310 H   0  0  0  0  0  0
  108.7374  -13.2018  102.6599 H   0  0  0  0  0  0
  108.6981  -14.7989  101.8387 H   0  0  0  0  0  0
  115.1951  -17.1005  104.1988 H   0  0  0  0  0  0
  116.0333  -15.5150  104.2992 H   0  0  0  0  0  0
  116.3587  -16.7545  108.7337 H   0  0  0  0  0  0
  117.2223  -15.1927  108.9375 H   0  0  0  0  0  0
  115.5234  -17.4344  106.6466 H   0  0  0  0  0  0
  118.0389  -16.6069  105.3092 H   0  0  0  0  0  0
  1 18  1  0  0  0
  2  5  2  0  0  0
  2 18  1  0  0  0
  2 25  1  0  0  0
  3  6  1  0  0  0
  3 18  2  0  0  0
  3 26  1  0  0  0
  4  7  2  0  0  0
  4 19  1  0  0  0
  4 27  1  0  0  0
  5 20  1  0  0  0
  5 28  1  0  0  0
  6 20  2  0  0  0
  6 29  1  0  0  0
  7 21  1  0  0  0
  7 30  1  0  0  0
  8 19  2  0  0  0
  8 22  1  0  0  0
  8 31  1  0  0  0
  9 10  1  0  0  0
  9 14  1  0  0  0
  9 32  1  0  0  0
  9 33  1  0  0  0
 10 24  1  0  0  0
 10 34  1  0  0  0
 10 35  1  0  0  0
 11 14  1  0  0  0
 11 23  1  0  0  0
 11 36  1  0  0  0
 11 37  1  0  0  0
 12 16  1  0  0  0
 12 17  1  0  0  0
 12 38  1  0  0  0
 12 39  1  0  0  0
 13 15  1  0  0  0
 13 23  1  0  0  0
 13 40  1  0  0  0
 13 41  1  0  0  0
 14 42  1  0  0  0
 14 43  1  0  0  0
 15 19  1  0  0  0
 16 21  1  0  0  0
 17 22  1  0  0  0
 20 24  1  0  0  0
 21 22  2  0  0  0
 23 24  1  0  0  0
 23 44  1  0  0  0
 24 45  1  0  0  0
M  CHG  1  14   1
M  END
> <s_m_source_file>
../4mm4_ligand.sdf

> <i_m_source_file_index>
1

> <s_epik_input>
RmMxW2NIXVtjSF1jKFtjSF1bY0hdMSlbQ0BASF0yW0NIMl1bQ0gyXVtOSDIrXVtDSDJdW0NASF0yW0NIMl1PYyhbY0hdW2NIXTMpW2NIXWMoYzM0KU9bQ0gyXU80

> <s_epik_cmdline>
J2VwaWtfYXBwJywgJy1pbWFlJywgJ2xpZ2FuZF9wcm8ubWFlJywgJy1vbWFlJywgJ2xpZ2FuZF9wcmVwLm1hZScsICctbXMnLCAnMScsICctcGgnLCAnNycsICctcGh0JywgJzAuNScsICctbnQn

> <r_lp_tautomer_probability>
1

> <r_epik_Ionization_Penalty>
  0.0016

> <r_epik_Ionization_Penalty_Charging>
  0.0016

> <r_epik_Ionization_Penalty_Neutral>
  0.0000

> <r_epik_State_Penalty>
 -0.0000

> <r_epik_Charging_Adjusted_Penalty>
0.00157979294428329

> <i_epik_Tot_Q>
1

> <i_epik_Tot_abs_Q>
1

> <s_epik_Chemistry_Notes>
This compound contains an acetal/aminal-like group ( X-CH(R)-Y where X, Y are N, S, or O) that may be acid/base labile, releasing an aldehyde.

$$$$
