4mm5_ligand
                    3D
 Schrodinger Suite 2020-3.
 38 40  0  0  1  0            999 V2000
  180.4610  -14.3790   96.8770 Cl  0  0  0  0  0  0
  181.1120  -15.2920   98.1840 C   0  0  0  0  0  0
  180.2820  -15.8700   99.0060 C   0  0  0  0  0  0
  178.5600  -15.7090   98.7710 Cl  0  0  0  0  0  0
  182.4300  -15.3690   98.2930 C   0  0  0  0  0  0
  182.9690  -16.1150   99.3640 C   0  0  0  0  0  0
  182.0840  -16.7890  100.3340 C   0  0  0  0  0  0
  180.7160  -16.5990  100.0350 C   0  0  0  0  0  0
  182.6000  -17.6550  101.5270 C   0  0  1  0  0  0
  183.5690  -18.5400  100.9990 C   0  0  0  0  0  0
  183.3230  -19.2800   99.6730 C   0  0  0  0  0  0
  184.2060  -20.1390   99.1390 C   0  0  0  0  0  0
  185.2570  -20.4030   99.6370 C   0  0  0  0  0  0
  185.6410  -19.9250  100.6950 C   0  0  0  0  0  0
  184.9010  -19.0110  101.4340 C   0  0  0  0  0  0
  185.3850  -18.3780  102.7580 C   0  0  1  0  0  0
  186.7030  -18.1300  102.6010 N   0  3  0  0  0  0
  186.9020  -16.8280  102.0040 C   0  0  0  0  0  0
  184.7200  -16.9390  103.0510 C   0  0  0  0  0  0
  183.2190  -16.8190  102.5850 C   0  0  0  0  0  0
  183.0810  -14.8699   97.5752 H   0  0  0  0  0  0
  184.0504  -16.1939   99.4756 H   0  0  0  0  0  0
  179.9762  -17.0735  100.6797 H   0  0  0  0  0  0
  181.8150  -18.2533  102.0125 H   0  0  0  0  0  0
  182.3884  -19.0985   99.1423 H   0  0  0  0  0  0
  183.9476  -20.6225   98.1969 H   0  0  0  0  0  0
  185.9098  -21.1076   99.1218 H   0  0  0  0  0  0
  186.6143  -20.2321  101.0779 H   0  0  0  0  0  0
  185.2686  -19.1039  103.5762 H   0  0  0  0  0  0
  187.2001  -18.1546  103.5820 H   0  0  0  0  0  0
  187.1449  -18.8960  101.9467 H   0  0  0  0  0  0
  187.9792  -16.6410  101.8828 H   0  0  0  0  0  0
  186.4667  -16.0557  102.6552 H   0  0  0  0  0  0
  186.4114  -16.7970  101.0199 H   0  0  0  0  0  0
  184.7409  -16.7388  104.1324 H   0  0  0  0  0  0
  185.2871  -16.1585  102.5226 H   0  0  0  0  0  0
  183.1621  -15.7594  102.2952 H   0  0  0  0  0  0
  182.6812  -16.9693  103.5327 H   0  0  0  0  0  0
  1  2  1  0  0  0
  2  3  2  0  0  0
  2  5  1  0  0  0
  3  4  1  0  0  0
  3  8  1  0  0  0
  5  6  2  0  0  0
  5 21  1  0  0  0
  6  7  1  0  0  0
  6 22  1  0  0  0
  7  8  2  0  0  0
  7  9  1  0  0  0
  8 23  1  0  0  0
  9 10  1  0  0  0
  9 20  1  0  0  0
  9 24  1  0  0  0
 10 11  2  0  0  0
 10 15  1  0  0  0
 11 12  1  0  0  0
 11 25  1  0  0  0
 12 13  2  0  0  0
 12 26  1  0  0  0
 13 14  1  0  0  0
 13 27  1  0  0  0
 14 15  2  0  0  0
 14 28  1  0  0  0
 15 16  1  0  0  0
 16 17  1  0  0  0
 16 19  1  0  0  0
 16 29  1  0  0  0
 17 18  1  0  0  0
 17 30  1  0  0  0
 17 31  1  0  0  0
 18 32  1  0  0  0
 18 33  1  0  0  0
 18 34  1  0  0  0
 19 20  1  0  0  0
 19 35  1  0  0  0
 19 36  1  0  0  0
 20 37  1  0  0  0
 20 38  1  0  0  0
M  CHG  1  17   1
M  END
> <s_m_source_file>
../4mm5_ligand.sdf

> <i_m_source_file_index>
1

> <s_epik_input>
Q2xjMWMoQ2wpW2NIXWMoW2NIXVtjSF0xKVtDQEBIXTJbQ0gyXVtDSDJdW0NASF0oW05IMitdW0NIM10pYyhjMjMpW2NIXVtjSF1bY0hdW2NIXTM=

> <s_epik_cmdline>
J2VwaWtfYXBwJywgJy1pbWFlJywgJ2xpZ2FuZF9wcm8ubWFlJywgJy1vbWFlJywgJ2xpZ2FuZF9wcmVwLm1hZScsICctbXMnLCAnMScsICctcGgnLCAnNycsICctcGh0JywgJzAuNScsICctbnQn

> <r_epik_Ionization_Penalty>
  0.0157

> <r_epik_Ionization_Penalty_Charging>
  0.0157

> <r_epik_Ionization_Penalty_Neutral>
  0.0000

> <r_epik_State_Penalty>
  0.0124

> <r_epik_Charging_Adjusted_Penalty>
0.0281076452545391

> <i_epik_Tot_Q>
1

> <i_epik_Tot_abs_Q>
1

$$$$
