4mm7_ligand
                    3D
 Schrodinger Suite 2020-3.
 45 46  0  0  1  0            999 V2000
  179.7940  -15.8310  100.4100 O   0  0  0  0  0  0
  180.0480  -16.7060   99.3170 C   0  0  0  0  0  0
  180.2760  -15.8850   98.0560 C   0  0  0  0  0  0
  178.7980  -17.5500   99.1620 C   0  0  0  0  0  0
  177.5890  -16.6830   98.8480 C   0  0  0  0  0  0
  177.8020  -15.8500   97.5980 C   0  0  0  0  0  0
  179.0680  -15.0290   97.7140 C   0  0  0  0  0  0
  181.3180  -17.5080   99.6450 C   0  0  1  0  0  0
  181.5770  -17.5920  101.1410 C   0  0  0  0  0  0
  183.0120  -17.4290  101.3240 N   0  3  0  0  0  0
  183.5180  -16.3280  102.1180 C   0  0  0  0  0  0
  183.9660  -18.3440  100.7250 C   0  0  0  0  0  0
  181.3420  -18.8850   99.0810 C   0  0  0  0  0  0
  180.9760  -19.9830   99.8530 C   0  0  0  0  0  0
  181.0050  -21.2550   99.2990 C   0  0  0  0  0  0
  181.4170  -21.4410   97.9870 C   0  0  0  0  0  0
  181.4480  -22.6940   97.4550 O   0  0  0  0  0  0
  181.7970  -20.3510   97.2190 C   0  0  0  0  0  0
  181.7610  -19.0810   97.7720 C   0  0  0  0  0  0
  178.9240  -15.1583  100.3853 H   0  0  0  0  0  0
  181.1400  -15.2202   98.2026 H   0  0  0  0  0  0
  180.4719  -16.5597   97.2096 H   0  0  0  0  0  0
  178.9397  -18.2677   98.3405 H   0  0  0  0  0  0
  178.6062  -18.0964  100.0972 H   0  0  0  0  0  0
  176.7092  -17.3241   98.6898 H   0  0  0  0  0  0
  177.3988  -16.0004   99.6894 H   0  0  0  0  0  0
  177.8867  -16.5139   96.7250 H   0  0  0  0  0  0
  176.9481  -15.1704   97.4603 H   0  0  0  0  0  0
  178.9169  -14.2765   98.5020 H   0  0  0  0  0  0
  179.2374  -14.5234   96.7519 H   0  0  0  0  0  0
  182.1333  -16.9636   99.1461 H   0  0  0  0  0  0
  181.0227  -16.7926  101.6545 H   0  0  0  0  0  0
  181.2422  -18.5701  101.5168 H   0  0  0  0  0  0
  183.0554  -16.7993  100.4231 H   0  0  0  0  0  0
  182.6750  -15.7323  102.4981 H   0  0  0  0  0  0
  184.1641  -15.6928  101.4943 H   0  0  0  0  0  0
  184.0990  -16.7230  102.9644 H   0  0  0  0  0  0
  183.4264  -19.1176  100.1590 H   0  0  0  0  0  0
  184.5648  -18.8191  101.5161 H   0  0  0  0  0  0
  184.6299  -17.7888  100.0460 H   0  0  0  0  0  0
  180.6676  -19.8446  100.8893 H   0  0  0  0  0  0
  180.7022  -22.1136   99.8983 H   0  0  0  0  0  0
  181.1463  -23.5582   98.0651 H   0  0  0  0  0  0
  182.1216  -20.4920   96.1881 H   0  0  0  0  0  0
  182.0658  -18.2242   97.1711 H   0  0  0  0  0  0
  1  2  1  0  0  0
  1 20  1  0  0  0
  2  3  1  0  0  0
  2  4  1  0  0  0
  2  8  1  0  0  0
  3  7  1  0  0  0
  3 21  1  0  0  0
  3 22  1  0  0  0
  4  5  1  0  0  0
  4 23  1  0  0  0
  4 24  1  0  0  0
  5  6  1  0  0  0
  5 25  1  0  0  0
  5 26  1  0  0  0
  6  7  1  0  0  0
  6 27  1  0  0  0
  6 28  1  0  0  0
  7 29  1  0  0  0
  7 30  1  0  0  0
  8  9  1  0  0  0
  8 13  1  0  0  0
  8 31  1  0  0  0
  9 10  1  0  0  0
  9 32  1  0  0  0
  9 33  1  0  0  0
 10 11  1  0  0  0
 10 12  1  0  0  0
 10 34  1  0  0  0
 11 35  1  0  0  0
 11 36  1  0  0  0
 11 37  1  0  0  0
 12 38  1  0  0  0
 12 39  1  0  0  0
 12 40  1  0  0  0
 13 14  2  0  0  0
 13 19  1  0  0  0
 14 15  1  0  0  0
 14 41  1  0  0  0
 15 16  2  0  0  0
 15 42  1  0  0  0
 16 17  1  0  0  0
 16 18  1  0  0  0
 17 43  1  0  0  0
 18 19  2  0  0  0
 18 44  1  0  0  0
 19 45  1  0  0  0
M  CHG  1  10   1
M  END
> <s_m_source_file>
../4mm7_ligand.sdf

> <i_m_source_file_index>
1

> <s_epik_input>
W0NIMl0xW0NIMl1bQ0gyXVtDSDJdW0NIMl1DMShbT0hdKVtDQEBIXShbQ0gyXVtOSCtdKFtDSDNdKVtDSDNdKWMyW2NIXVtjSF1jKFtPSF0pW2NIXVtjSF0y

> <s_epik_cmdline>
J2VwaWtfYXBwJywgJy1pbWFlJywgJ2xpZ2FuZF9wcm8ubWFlJywgJy1vbWFlJywgJ2xpZ2FuZF9wcmVwLm1hZScsICctbXMnLCAnMScsICctcGgnLCAnNycsICctcGh0JywgJzAuNScsICctbnQn

> <r_lp_tautomer_probability>
1

> <r_epik_Ionization_Penalty>
  0.0055

> <r_epik_Ionization_Penalty_Charging>
  0.0050

> <r_epik_Ionization_Penalty_Neutral>
  0.0005

> <r_epik_State_Penalty>
 -0.0000

> <r_epik_Charging_Adjusted_Penalty>
0.00498407640453833

> <i_epik_Tot_Q>
1

> <i_epik_Tot_abs_Q>
1

$$$$
