4mm8_ligand
                    3D
 Schrodinger Suite 2020-3.
 41 42  0  0  1  0            999 V2000
  -33.3630   14.6240   16.2070 F   0  0  0  0  0  0
  -33.3990   13.3420   16.5680 C   0  0  0  0  0  0
  -34.3030   13.1470   17.5440 F   0  0  0  0  0  0
  -33.7770   12.5900   15.5180 F   0  0  0  0  0  0
  -32.0390   12.9200   17.0450 C   0  0  0  0  0  0
  -31.9910   11.9500   18.0180 C   0  0  0  0  0  0
  -30.7690   11.5240   18.5040 C   0  0  0  0  0  0
  -29.6240   12.0670   17.9940 C   0  0  0  0  0  0
  -29.6720   13.0490   17.0000 C   0  0  0  0  0  0
  -30.8950   13.4670   16.5290 C   0  0  0  0  0  0
  -28.3610   11.6230   18.4750 O   0  0  0  0  0  0
  -28.3840   10.3450   19.0230 C   0  0  2  0  0  0
  -27.1380   10.0390   19.8080 C   0  0  0  0  0  0
  -26.0960   11.1940   19.5470 C   0  0  0  0  0  0
  -25.5150   11.6870   20.7640 N   0  3  0  0  0  0
  -26.3530   12.6870   21.3780 C   0  0  0  0  0  0
  -28.5210    9.2430   17.9750 C   0  0  0  0  0  0
  -29.6330    8.4150   18.0050 C   0  0  0  0  0  0
  -29.7550    7.3870   17.0400 C   0  0  0  0  0  0
  -28.7530    7.2100   16.0800 C   0  0  0  0  0  0
  -27.6370    8.0300   16.0630 C   0  0  0  0  0  0
  -27.5100    9.0600   17.0220 C   0  0  0  0  0  0
  -32.9138   11.5181   18.4051 H   0  0  0  0  0  0
  -30.7197   10.7645   19.2842 H   0  0  0  0  0  0
  -28.7519   13.4780   16.6032 H   0  0  0  0  0  0
  -30.9528   14.2280   15.7508 H   0  0  0  0  0  0
  -29.2743   10.4472   19.6609 H   0  0  0  0  0  0
  -27.3832    9.9856   20.8790 H   0  0  0  0  0  0
  -26.7243    9.0746   19.4781 H   0  0  0  0  0  0
  -25.2830   10.8171   18.9090 H   0  0  0  0  0  0
  -26.5977   12.0337   19.0438 H   0  0  0  0  0  0
  -25.3869   10.8553   21.4724 H   0  0  0  0  0  0
  -24.5353   12.1374   20.5465 H   0  0  0  0  0  0
  -25.8801   13.0426   22.3053 H   0  0  0  0  0  0
  -27.3349   12.2495   21.6115 H   0  0  0  0  0  0
  -26.4833   13.5317   20.6855 H   0  0  0  0  0  0
  -30.4040    8.5543   18.7628 H   0  0  0  0  0  0
  -30.6280    6.7344   17.0448 H   0  0  0  0  0  0
  -28.8516    6.4182   15.3374 H   0  0  0  0  0  0
  -26.8600    7.8815   15.3131 H   0  0  0  0  0  0
  -26.6328    9.7070   17.0205 H   0  0  0  0  0  0
  1  2  1  0  0  0
  2  3  1  0  0  0
  2  4  1  0  0  0
  2  5  1  0  0  0
  5  6  2  0  0  0
  5 10  1  0  0  0
  6  7  1  0  0  0
  6 23  1  0  0  0
  7  8  2  0  0  0
  7 24  1  0  0  0
  8  9  1  0  0  0
  8 11  1  0  0  0
  9 10  2  0  0  0
  9 25  1  0  0  0
 10 26  1  0  0  0
 11 12  1  0  0  0
 12 13  1  0  0  0
 12 17  1  0  0  0
 12 27  1  0  0  0
 13 14  1  0  0  0
 13 28  1  0  0  0
 13 29  1  0  0  0
 14 15  1  0  0  0
 14 30  1  0  0  0
 14 31  1  0  0  0
 15 16  1  0  0  0
 15 32  1  0  0  0
 15 33  1  0  0  0
 16 34  1  0  0  0
 16 35  1  0  0  0
 16 36  1  0  0  0
 17 18  2  0  0  0
 17 22  1  0  0  0
 18 19  1  0  0  0
 18 37  1  0  0  0
 19 20  2  0  0  0
 19 38  1  0  0  0
 20 21  1  0  0  0
 20 39  1  0  0  0
 21 22  2  0  0  0
 21 40  1  0  0  0
 22 41  1  0  0  0
M  CHG  1  15   1
M  END
> <s_m_source_file>
../4mm8_ligand.sdf

> <i_m_source_file_index>
1

> <s_epik_input>
RkMoRikoRiljMVtjSF1bY0hdYyhbY0hdW2NIXTEpT1tDQEhdKFtDSDJdW0NIMl1bTkgyK11bQ0gzXSljMltjSF1bY0hdW2NIXVtjSF1bY0hdMg==

> <s_epik_cmdline>
J2VwaWtfYXBwJywgJy1pbWFlJywgJ2xpZ2FuZF9wcm8ubWFlJywgJy1vbWFlJywgJ2xpZ2FuZF9wcmVwLm1hZScsICctbXMnLCAnMScsICctcGgnLCAnNycsICctcGh0JywgJzAuNScsICctbnQn

> <r_lp_tautomer_probability>
1

> <r_epik_Ionization_Penalty>
  0.0008

> <r_epik_Ionization_Penalty_Charging>
  0.0008

> <r_epik_Ionization_Penalty_Neutral>
  0.0000

> <r_epik_State_Penalty>
 -0.0000

> <r_epik_Charging_Adjusted_Penalty>
0.000752709891267998

> <i_epik_Tot_Q>
1

> <i_epik_Tot_abs_Q>
1

$$$$
