4mm9_ligand
                    3D
 Schrodinger Suite 2020-3.
 46 46  0  0  1  0            999 V2000
  189.5950  -22.0780   97.9380 C   0  0  0  0  0  0
  188.5590  -21.4020   98.5200 O   0  0  0  0  0  0
  188.2860  -20.0490   97.9390 C   0  0  0  0  0  0
  189.3820  -19.0330   98.4310 C   0  0  0  0  0  0
  189.6190  -17.7810   97.5020 C   0  0  0  0  0  0
  190.2900  -16.6000   98.2470 C   0  0  0  0  0  0
  189.4620  -16.2140   99.5300 C   0  0  1  0  0  0
  190.2250  -15.5610  100.5120 N   0  0  1  0  0  0
  189.3480  -15.2270  101.6200 O   0  0  0  0  0  0
  190.0320  -15.2870  102.8310 C   0  0  0  0  0  0
  191.4840  -15.7420  102.6330 C   0  0  0  0  0  0
  191.7090  -17.0670  103.1230 N   0  3  0  0  0  0
  188.1190  -15.6290   99.1500 C   0  0  0  0  0  0
  187.9160  -14.8750   97.9170 C   0  0  0  0  0  0
  186.6720  -14.4130   97.6140 C   0  0  0  0  0  0
  185.5720  -14.6670   98.4730 C   0  0  0  0  0  0
  185.7740  -15.4150   99.6640 C   0  0  0  0  0  0
  187.0370  -15.8890   99.9760 C   0  0  0  0  0  0
  184.2000  -14.1660   98.1330 C   0  0  0  0  0  0
  183.7400  -13.3170   99.0580 F   0  0  0  0  0  0
  184.2030  -13.5630   96.9430 F   0  0  0  0  0  0
  183.3180  -15.2110   98.0690 F   0  0  0  0  0  0
  189.7177  -23.0545   98.4294 H   0  0  0  0  0  0
  190.5208  -21.4940   98.0465 H   0  0  0  0  0  0
  189.3800  -22.2294   96.8699 H   0  0  0  0  0  0
  188.3103  -20.1098   96.8410 H   0  0  0  0  0  0
  187.2940  -19.7032   98.2652 H   0  0  0  0  0  0
  189.0980  -18.6363   99.4169 H   0  0  0  0  0  0
  190.3510  -19.5478   98.5081 H   0  0  0  0  0  0
  190.2726  -18.0648   96.6640 H   0  0  0  0  0  0
  188.6539  -17.4268   97.1106 H   0  0  0  0  0  0
  191.3066  -16.8890   98.5519 H   0  0  0  0  0  0
  190.3415  -15.7272   97.5795 H   0  0  0  0  0  0
  189.2181  -17.0519  100.1997 H   0  0  0  0  0  0
  190.9788  -16.1690  100.8323 H   0  0  0  0  0  0
  190.0393  -14.2909  103.2977 H   0  0  0  0  0  0
  189.5308  -16.0018  103.5002 H   0  0  0  0  0  0
  191.7293  -15.7290  101.5608 H   0  0  0  0  0  0
  192.1586  -15.0603  103.1718 H   0  0  0  0  0  0
  192.7604  -17.3452  102.9583 H   0  0  0  0  0  0
  191.0552  -17.7716  102.5882 H   0  0  0  0  0  0
  191.4844  -17.1030  104.1992 H   0  0  0  0  0  0
  188.7527  -14.6836   97.2451 H   0  0  0  0  0  0
  186.5190  -13.8403   96.6993 H   0  0  0  0  0  0
  184.9357  -15.6154  100.3313 H   0  0  0  0  0  0
  187.1822  -16.4747  100.8837 H   0  0  0  0  0  0
  1  2  1  0  0  0
  1 23  1  0  0  0
  1 24  1  0  0  0
  1 25  1  0  0  0
  2  3  1  0  0  0
  3  4  1  0  0  0
  3 26  1  0  0  0
  3 27  1  0  0  0
  4  5  1  0  0  0
  4 28  1  0  0  0
  4 29  1  0  0  0
  5  6  1  0  0  0
  5 30  1  0  0  0
  5 31  1  0  0  0
  6  7  1  0  0  0
  6 32  1  0  0  0
  6 33  1  0  0  0
  7  8  1  0  0  0
  7 13  1  0  0  0
  7 34  1  0  0  0
  8  9  1  0  0  0
  8 35  1  0  0  0
  9 10  1  0  0  0
 10 11  1  0  0  0
 10 36  1  0  0  0
 10 37  1  0  0  0
 11 12  1  0  0  0
 11 38  1  0  0  0
 11 39  1  0  0  0
 12 40  1  0  0  0
 12 41  1  0  0  0
 12 42  1  0  0  0
 13 14  2  0  0  0
 13 18  1  0  0  0
 14 15  1  0  0  0
 14 43  1  0  0  0
 15 16  2  0  0  0
 15 44  1  0  0  0
 16 17  1  0  0  0
 16 19  1  0  0  0
 17 18  2  0  0  0
 17 45  1  0  0  0
 18 46  1  0  0  0
 19 20  1  0  0  0
 19 21  1  0  0  0
 19 22  1  0  0  0
M  CHG  1  12   1
M  END
> <s_m_source_file>
../4mm9_ligand.sdf

> <i_m_source_file_index>
1

> <s_epik_input>
W0NIM11PW0NIMl1bQ0gyXVtDSDJdW0NIMl1bQ0BASF0oW05IMitdT1tDSDJdW0NIMl1bTkgzK10pYzFbY0hdW2NIXWMoQyhGKShGKUYpW2NIXVtjSF0x

> <s_epik_cmdline>
J2VwaWtfYXBwJywgJy1pbWFlJywgJ2xpZ2FuZF9wcm8ubWFlJywgJy1vbWFlJywgJ2xpZ2FuZF9wcmVwLm1hZScsICctbXMnLCAnMScsICctcGgnLCAnNycsICctcGh0JywgJzAuNScsICctbnQn

> <r_lp_tautomer_probability>
1

> <r_epik_Ionization_Penalty>
  0.0033

> <r_epik_Ionization_Penalty_Charging>
  0.0031

> <r_epik_Ionization_Penalty_Neutral>
  0.0003

> <r_epik_State_Penalty>
 -0.0000

> <r_epik_Charging_Adjusted_Penalty>
0.00308273944112073

> <i_epik_Tot_Q>
1

> <i_epik_Tot_abs_Q>
1

> <s_epik_Chemistry_Notes>
This compound has a N-S or N-O group and may undergo hydrolysis at high or low pH.

$$$$
