4mma_ligand
                    3D
 Schrodinger Suite 2020-3.
 46 48  0  0  1  0            999 V2000
  162.2830   -3.4170  341.5260 C   0  0  0  0  0  0
  161.4420   -2.4970  340.8580 C   0  0  0  0  0  0
  161.9170   -1.6410  339.8350 C   0  0  0  0  0  0
  163.2620   -1.7130  339.4610 C   0  0  0  0  0  0
  165.5620   -2.7290  339.7140 C   0  0  0  0  0  0
  165.7630   -4.0420  338.9820 C   0  0  0  0  0  0
  166.6110   -7.5690  339.9960 C   0  0  0  0  0  0
  166.0240   -7.7380  341.2540 C   0  0  0  0  0  0
  165.3170   -6.6800  341.8500 C   0  0  0  0  0  0
  165.1610   -5.4620  341.1770 C   0  0  0  0  0  0
  164.1180   -2.6300  340.0940 C   0  0  0  0  0  0
  163.6130   -3.5310  341.1510 C   0  0  0  0  0  0
  166.3070   -2.7280  344.3050 C   0  0  0  0  0  0
  165.9930   -4.2720  346.2800 C   0  0  0  0  0  0
  166.5000   -6.3600  339.3040 C   0  0  0  0  0  0
  165.8130   -5.2820  339.8540 C   0  0  0  0  0  0
  164.6950   -4.2900  343.2060 C   0  0  0  0  0  0
  165.8950   -3.3860  343.0030 C   0  0  0  0  0  0
  167.9150   -4.6620  344.6220 C   0  0  0  0  0  0
  164.4580   -4.4380  341.7990 N   0  0  0  0  0  0
  166.7380   -3.8890  345.0780 N   0  3  0  0  0  0
  159.7130   -2.4600  341.4430 Cl  0  0  0  0  0  0
  161.8872   -4.0341  342.3326 H   0  0  0  0  0  0
  161.2440   -0.9364  339.3464 H   0  0  0  0  0  0
  163.6464   -1.0583  338.6789 H   0  0  0  0  0  0
  166.1945   -2.7103  340.6138 H   0  0  0  0  0  0
  165.8397   -1.8946  339.0533 H   0  0  0  0  0  0
  164.9359   -4.1972  338.2736 H   0  0  0  0  0  0
  166.7156   -4.0135  338.4328 H   0  0  0  0  0  0
  167.1644   -8.3942  339.5477 H   0  0  0  0  0  0
  166.1151   -8.6921  341.7731 H   0  0  0  0  0  0
  164.8869   -6.8083  342.8433 H   0  0  0  0  0  0
  167.1131   -2.0050  344.1114 H   0  0  0  0  0  0
  165.4429   -2.2056  344.7413 H   0  0  0  0  0  0
  165.1622   -3.5682  346.4362 H   0  0  0  0  0  0
  166.6642   -4.2462  347.1511 H   0  0  0  0  0  0
  165.5933   -5.2892  346.1551 H   0  0  0  0  0  0
  166.9578   -6.2600  338.3199 H   0  0  0  0  0  0
  165.0043   -5.1924  343.7537 H   0  0  0  0  0  0
  163.9268   -3.7555  343.7841 H   0  0  0  0  0  0
  165.6321   -2.6112  342.2677 H   0  0  0  0  0  0
  166.7296   -3.9896  342.6170 H   0  0  0  0  0  0
  168.3214   -4.2057  343.7073 H   0  0  0  0  0  0
  167.6137   -5.6989  344.4119 H   0  0  0  0  0  0
  168.6846   -4.6559  345.4079 H   0  0  0  0  0  0
  167.3876   -3.2427  345.6865 H   0  0  0  0  0  0
  1  2  2  0  0  0
  1 12  1  0  0  0
  1 23  1  0  0  0
  2  3  1  0  0  0
  2 22  1  0  0  0
  3  4  2  0  0  0
  3 24  1  0  0  0
  4 11  1  0  0  0
  4 25  1  0  0  0
  5  6  1  0  0  0
  5 11  1  0  0  0
  5 26  1  0  0  0
  5 27  1  0  0  0
  6 16  1  0  0  0
  6 28  1  0  0  0
  6 29  1  0  0  0
  7  8  2  0  0  0
  7 15  1  0  0  0
  7 30  1  0  0  0
  8  9  1  0  0  0
  8 31  1  0  0  0
  9 10  2  0  0  0
  9 32  1  0  0  0
 10 16  1  0  0  0
 10 20  1  0  0  0
 11 12  2  0  0  0
 12 20  1  0  0  0
 13 18  1  0  0  0
 13 21  1  0  0  0
 13 33  1  0  0  0
 13 34  1  0  0  0
 14 21  1  0  0  0
 14 35  1  0  0  0
 14 36  1  0  0  0
 14 37  1  0  0  0
 15 16  2  0  0  0
 15 38  1  0  0  0
 17 18  1  0  0  0
 17 20  1  0  0  0
 17 39  1  0  0  0
 17 40  1  0  0  0
 18 41  1  0  0  0
 18 42  1  0  0  0
 19 21  1  0  0  0
 19 43  1  0  0  0
 19 44  1  0  0  0
 19 45  1  0  0  0
 21 46  1  0  0  0
M  CHG  1  21   1
M  END
> <s_m_source_file>
../4mma_ligand.sdf

> <i_m_source_file_index>
1

> <s_epik_input>
W0NIM11bTkgrXShbQ0gzXSlbQ0gyXVtDSDJdW0NIMl1OMWMoW2NIXWMoQ2wpW2NIXVtjSF0yKWMyW0NIMl1bQ0gyXWMoYzEzKVtjSF1bY0hdW2NIXVtjSF0z

> <s_epik_cmdline>
J2VwaWtfYXBwJywgJy1pbWFlJywgJ2xpZ2FuZF9wcm8ubWFlJywgJy1vbWFlJywgJ2xpZ2FuZF9wcmVwLm1hZScsICctbXMnLCAnMScsICctcGgnLCAnNycsICctcGh0JywgJzAuNScsICctbnQn

> <r_lp_tautomer_probability>
1

> <r_epik_Ionization_Penalty>
  0.0018

> <r_epik_Ionization_Penalty_Charging>
  0.0015

> <r_epik_Ionization_Penalty_Neutral>
  0.0003

> <r_epik_State_Penalty>
 -0.0000

> <r_epik_Charging_Adjusted_Penalty>
0.00150792337963876

> <i_epik_Tot_Q>
1

> <i_epik_Tot_abs_Q>
1

$$$$
