4mmp_ligand
                    3D
 Schrodinger Suite 2020-3.
 39 39  0  0  1  0            999 V2000
   21.4500   30.2640   12.8010 C   0  0  0  0  0  0
   19.9550   30.1270   12.9040 C   0  0  1  0  0  0
   19.5600   28.8940   13.7070 C   0  0  0  0  0  0
   18.0560   28.7140   13.5890 C   0  0  1  0  0  0
   17.6290   28.5850   12.1340 C   0  0  2  0  0  0
   18.1260   29.9150   11.4110 C   0  0  2  0  0  0
   17.9160   29.9690    9.9150 C   0  0  1  0  0  0
   18.4120   31.2880    9.2660 C   0  0  1  0  0  0
   18.1150   31.4290    7.7820 C   0  0  0  0  0  0
   15.6760   27.2480   11.5380 C   0  0  0  0  0  0
   14.1610   27.2530   11.3670 C   0  0  0  0  0  0
   16.1910   28.4220   11.9390 N   0  0  0  0  0  0
   22.0060   31.2390   13.3540 O   0  0  0  0  0  0
   22.1090   29.4010   12.1610 O   0  5  0  0  0  0
   19.4220   31.3760   13.4870 O   0  0  0  0  0  0
   17.6180   27.5500   14.2900 O   0  0  0  0  0  0
   19.5870   30.0530   11.5380 O   0  0  0  0  0  0
   18.5650   28.8340    9.2540 O   0  0  0  0  0  0
   17.8390   32.3610    9.9950 O   0  0  0  0  0  0
   16.6590   31.2090    7.4970 O   0  0  0  0  0  0
   16.4190   26.2590   11.3270 O   0  0  0  0  0  0
   20.0795   28.0121   13.3040 H   0  0  0  0  0  0
   19.8426   29.0365   14.7605 H   0  0  0  0  0  0
   17.5653   29.5688   14.0774 H   0  0  0  0  0  0
   18.0074   27.6308   11.7386 H   0  0  0  0  0  0
   17.5768   30.7439   11.8815 H   0  0  0  0  0  0
   16.8311   29.8649    9.7661 H   0  0  0  0  0  0
   19.5055   31.3721    9.3509 H   0  0  0  0  0  0
   18.3890   32.4405    7.4477 H   0  0  0  0  0  0
   18.6989   30.6860    7.2190 H   0  0  0  0  0  0
   13.7668   28.2484   11.6196 H   0  0  0  0  0  0
   13.7142   26.5014   12.0345 H   0  0  0  0  0  0
   13.9090   27.0128   10.3235 H   0  0  0  0  0  0
   15.5119   29.2680   12.1209 H   0  0  0  0  0  0
   19.6063   31.6113   14.5456 H   0  0  0  0  0  0
   17.8276   27.4437   15.3646 H   0  0  0  0  0  0
   18.3396   27.8070    9.5771 H   0  0  0  0  0  0
   17.9608   32.4110   11.0871 H   0  0  0  0  0  0
   16.2841   31.2773    6.4651 H   0  0  0  0  0  0
  1  2  1  0  0  0
  1 13  2  0  0  0
  1 14  1  0  0  0
  2  3  1  0  0  0
  2 15  1  0  0  0
  2 17  1  0  0  0
  3  4  1  0  0  0
  3 22  1  0  0  0
  3 23  1  0  0  0
  4  5  1  0  0  0
  4 16  1  0  0  0
  4 24  1  0  0  0
  5  6  1  0  0  0
  5 12  1  0  0  0
  5 25  1  0  0  0
  6  7  1  0  0  0
  6 17  1  0  0  0
  6 26  1  0  0  0
  7  8  1  0  0  0
  7 18  1  0  0  0
  7 27  1  0  0  0
  8  9  1  0  0  0
  8 19  1  0  0  0
  8 28  1  0  0  0
  9 20  1  0  0  0
  9 29  1  0  0  0
  9 30  1  0  0  0
 10 11  1  0  0  0
 10 12  1  0  0  0
 10 21  2  0  0  0
 11 31  1  0  0  0
 11 32  1  0  0  0
 11 33  1  0  0  0
 12 34  1  0  0  0
 15 35  1  0  0  0
 16 36  1  0  0  0
 18 37  1  0  0  0
 19 38  1  0  0  0
 20 39  1  0  0  0
M  CHG  1  14  -1
M  END
> <s_m_source_file>
../4mmp_ligand.sdf

> <i_m_source_file_index>
1

> <s_epik_input>
Tz1DKFtPSF0pW0NAXTEoW09IXSlbQ0gyXVtDQEhdKFtPSF0pW0NAQEhdKFtOSF1DKD1PKVtDSDNdKVtDQEBIXShPMSlbQ0BIXShbT0hdKVtDQEhdKFtPSF0pW0NIMl1bT0hd

> <s_epik_cmdline>
J2VwaWtfYXBwJywgJy1pbWFlJywgJ2xpZ2FuZF9wcm8ubWFlJywgJy1vbWFlJywgJ2xpZ2FuZF9wcmVwLm1hZScsICctbXMnLCAnMScsICctcGgnLCAnNycsICctcGh0JywgJzAuNScsICctbnQn

> <r_lp_tautomer_probability>
1

> <r_epik_Ionization_Penalty>
  0.0000

> <r_epik_Ionization_Penalty_Charging>
  0.0000

> <r_epik_Ionization_Penalty_Neutral>
  0.0000

> <r_epik_State_Penalty>
 -0.0000

> <r_epik_Charging_Adjusted_Penalty>
2.59170082529691e-05

> <i_epik_Tot_Q>
-1

> <i_epik_Tot_abs_Q>
1

$$$$
