4mnp_ligand
                    3D
 Schrodinger Suite 2020-3.
 39 39  0  0  1  0            999 V2000
   22.4830   28.2630   40.7160 C   0  0  0  0  0  0
   21.8660   26.9580   41.0130 C   0  0  1  0  0  0
   22.8490   25.9460   41.2720 C   0  0  0  0  0  0
   22.3470   24.6090   41.3370 C   0  0  1  0  0  0
   21.5150   24.2590   40.2070 C   0  0  2  0  0  0
   20.3700   25.2270   39.9500 C   0  0  2  0  0  0
   19.7020   24.9790   38.7400 C   0  0  1  0  0  0
   18.6590   26.0860   38.5180 C   0  0  1  0  0  0
   17.7580   25.7190   37.3870 C   0  0  0  0  0  0
   21.4070   21.7770   39.6410 C   0  0  0  0  0  0
   20.8160   20.4460   39.8820 C   0  0  0  0  0  0
   20.9400   22.9220   40.4280 N   0  0  0  0  0  0
   23.1500   28.4150   39.6640 O   0  0  0  0  0  0
   22.3410   29.2360   41.5100 O   0  5  0  0  0  0
   21.1470   27.1260   42.1850 O   0  0  0  0  0  0
   23.4400   23.6690   41.4940 O   0  0  0  0  0  0
   20.9080   26.6230   39.9810 O   0  0  0  0  0  0
   20.6210   25.0130   37.6790 O   0  0  0  0  0  0
   17.9270   26.2310   39.6500 O   0  0  0  0  0  0
   16.9420   24.6160   37.5580 O   0  0  0  0  0  0
   22.2940   21.9200   38.7780 O   0  0  0  0  0  0
   23.6056   25.9568   40.4736 H   0  0  0  0  0  0
   23.3338   26.1447   42.2392 H   0  0  0  0  0  0
   21.6959   24.5689   42.2227 H   0  0  0  0  0  0
   22.2082   24.2738   39.3530 H   0  0  0  0  0  0
   19.5627   25.0838   40.6833 H   0  0  0  0  0  0
   19.3013   23.9560   38.7938 H   0  0  0  0  0  0
   19.1002   27.0798   38.3513 H   0  0  0  0  0  0
   17.0771   26.5563   37.1741 H   0  0  0  0  0  0
   18.3613   25.5007   36.4935 H   0  0  0  0  0  0
   20.0564   20.5201   40.6742 H   0  0  0  0  0  0
   21.6047   19.7458   40.1946 H   0  0  0  0  0  0
   20.3465   20.0803   38.9569 H   0  0  0  0  0  0
   20.1563   22.7789   41.1865 H   0  0  0  0  0  0
   21.6685   27.3882   43.1174 H   0  0  0  0  0  0
   24.1641   23.7990   42.3118 H   0  0  0  0  0  0
   21.4539   24.2951   37.6496 H   0  0  0  0  0  0
   18.4220   26.5024   40.5941 H   0  0  0  0  0  0
   16.2603   24.3060   36.7523 H   0  0  0  0  0  0
  1  2  1  0  0  0
  1 13  2  0  0  0
  1 14  1  0  0  0
  2  3  1  0  0  0
  2 15  1  0  0  0
  2 17  1  0  0  0
  3  4  1  0  0  0
  3 22  1  0  0  0
  3 23  1  0  0  0
  4  5  1  0  0  0
  4 16  1  0  0  0
  4 24  1  0  0  0
  5  6  1  0  0  0
  5 12  1  0  0  0
  5 25  1  0  0  0
  6  7  1  0  0  0
  6 17  1  0  0  0
  6 26  1  0  0  0
  7  8  1  0  0  0
  7 18  1  0  0  0
  7 27  1  0  0  0
  8  9  1  0  0  0
  8 19  1  0  0  0
  8 28  1  0  0  0
  9 20  1  0  0  0
  9 29  1  0  0  0
  9 30  1  0  0  0
 10 11  1  0  0  0
 10 12  1  0  0  0
 10 21  2  0  0  0
 11 31  1  0  0  0
 11 32  1  0  0  0
 11 33  1  0  0  0
 12 34  1  0  0  0
 15 35  1  0  0  0
 16 36  1  0  0  0
 18 37  1  0  0  0
 19 38  1  0  0  0
 20 39  1  0  0  0
M  CHG  1  14  -1
M  END
> <s_m_source_file>
../4mnp_ligand.sdf

> <i_m_source_file_index>
1

> <s_epik_input>
Tz1DKFtPSF0pW0NAXTEoW09IXSlbQ0gyXVtDQEhdKFtPSF0pW0NAQEhdKFtOSF1DKD1PKVtDSDNdKVtDQEBIXShPMSlbQ0BIXShbT0hdKVtDQEhdKFtPSF0pW0NIMl1bT0hd

> <s_epik_cmdline>
J2VwaWtfYXBwJywgJy1pbWFlJywgJ2xpZ2FuZF9wcm8ubWFlJywgJy1vbWFlJywgJ2xpZ2FuZF9wcmVwLm1hZScsICctbXMnLCAnMScsICctcGgnLCAnNycsICctcGh0JywgJzAuNScsICctbnQn

> <r_lp_tautomer_probability>
1

> <r_epik_Ionization_Penalty>
  0.0000

> <r_epik_Ionization_Penalty_Charging>
  0.0000

> <r_epik_Ionization_Penalty_Neutral>
  0.0000

> <r_epik_State_Penalty>
 -0.0000

> <r_epik_Charging_Adjusted_Penalty>
2.59170082529691e-05

> <i_epik_Tot_Q>
-1

> <i_epik_Tot_abs_Q>
1

$$$$
