4mnv_ligand
                    3D
 Schrodinger Suite 2020-3.
199198  0  0  1  0            999 V2000
   28.3220   25.7060   -5.6530 N   0  3  0  0  0  0
   29.5960   24.9620   -5.4330 C   0  0  2  0  0  0
   29.6680   23.7410   -6.3430 C   0  0  0  0  0  0
   28.9360   22.7690   -6.1470 O   0  0  0  0  0  0
   29.7400   24.4730   -3.9730 C   0  0  2  0  0  0
   29.5500   25.5700   -3.0760 O   0  0  0  0  0  0
   31.1270   23.8570   -3.7380 C   0  0  0  0  0  0
   30.5490   23.8060   -7.3350 N   0  0  0  0  0  0
   30.8610   22.6550   -8.1670 C   0  0  2  0  0  0
   31.8490   21.7770   -7.4120 C   0  0  0  0  0  0
   32.8740   22.2620   -6.9110 O   0  0  0  0  0  0
   31.4510   23.1020   -9.5100 C   0  0  0  0  0  0
   31.7030   21.7560  -10.7030 S   0  0  0  0  0  0
   31.5170   20.4920   -7.2970 N   0  0  0  0  0  0
   32.4440   19.4940   -6.7830 C   0  0  2  0  0  0
   32.6060   18.3980   -7.8170 C   0  0  0  0  0  0
   31.6700   18.0480   -8.5230 O   0  0  0  0  0  0
   31.9420   18.8850   -5.4740 C   0  0  0  0  0  0
   31.9820   19.8350   -4.2960 C   0  0  0  0  0  0
   31.4810   19.1560   -3.0260 C   0  0  0  0  0  0
   30.6140   20.0520   -2.2650 N   0  0  0  0  0  0
   29.3100   20.2230   -2.4790 C   0  0  0  0  0  0
   28.6710   19.5530   -3.4320 N   0  0  0  0  0  0
   28.6350   21.0800   -1.7260 N   0  0  0  0  0  0
   33.8020   17.8460   -7.8960 N   0  0  0  0  0  0
   34.0690   16.7960   -8.8700 C   0  0  2  0  0  0
   33.1560   15.5620   -8.6930 C   0  0  0  0  0  0
   32.8650   14.8560   -9.6620 O   0  0  0  0  0  0
   35.5370   16.4080   -8.8160 C   0  0  0  0  0  0
   35.9310   15.4400   -9.9080 C   0  0  0  0  0  0
   37.4220   15.3640  -10.0880 C   0  0  0  0  0  0
   38.1870   15.9800   -9.3360 O   0  0  0  0  0  0
   37.8510   14.6060  -11.0880 N   0  0  0  0  0  0
   32.6940   15.3130   -7.4710 N   0  0  0  0  0  0
   31.7810   14.1880   -7.2080 C   0  0  2  0  0  0
   30.4720   14.2630   -8.0080 C   0  0  0  0  0  0
   29.8390   13.2400   -8.2530 O   0  0  0  0  0  0
   31.4860   14.0320   -5.7150 C   0  0  0  0  0  0
   30.9990   15.2390   -5.1350 O   0  0  0  0  0  0
   30.0830   15.4630   -8.4340 N   0  0  0  0  0  0
   28.9640   15.6170   -9.3780 C   0  0  2  0  0  0
   29.2300   14.8520  -10.6840 C   0  0  0  0  0  0
   28.3000   14.3360  -11.3010 O   0  0  0  0  0  0
   28.7120   17.1030   -9.6950 C   0  0  0  0  0  0
   28.2700   17.9450   -8.4980 C   0  0  0  0  0  0
   28.1360   19.7120   -8.8730 S   0  0  0  0  0  0
   26.4730   19.7690   -9.5370 C   0  0  0  0  0  0
   30.4980   14.7900  -11.0850 N   0  0  0  0  0  0
   30.9300   14.1000  -12.3060 C   0  0  2  0  0  0
   31.3050   12.6220  -12.0710 C   0  0  0  0  0  0
   31.1700   11.7930  -12.9630 O   0  0  0  0  0  0
   32.1060   14.8600  -12.9410 C   0  0  0  0  0  0
   31.6360   16.3480  -13.8940 S   0  0  0  0  0  0
   31.7590   12.2730  -10.8720 N   0  0  0  0  0  0
   32.0920   10.8740  -10.6020 C   0  0  2  0  0  0
   30.8510   10.0010  -10.3900 C   0  0  0  0  0  0
   30.9100    8.7960  -10.5520 O   0  0  0  0  0  0
   32.9720   10.7170   -9.3700 C   0  0  2  0  0  0
   32.2760   11.2270   -8.2410 O   0  0  0  0  0  0
   34.2980   11.4590   -9.5460 C   0  0  0  0  0  0
   29.7420   10.6220  -10.0200 N   0  0  0  0  0  0
   28.5090    9.9020   -9.7920 C   0  0  2  0  0  0
   28.1430    9.1200  -11.0440 C   0  0  0  0  0  0
   28.1470    9.6740  -12.1380 O   0  0  0  0  0  0
   27.3920   10.8670   -9.4580 C   0  0  0  0  0  0
   27.8240    7.8450  -10.8710 N   0  0  0  0  0  0
   27.4590    6.9850  -11.9940 C   0  0  2  0  0  0
   25.9880    6.6130  -11.9660 C   0  0  0  0  0  0
   25.3090    6.5980  -12.9930 O   0  0  0  0  0  0
   28.3190    5.7490  -11.9910 C   0  0  0  0  0  0
   29.7130    6.0460  -12.5050 C   0  0  0  0  0  0
   30.5250    4.7930  -12.4900 C   0  0  0  0  0  0
   31.8750    4.9820  -13.0100 N   0  0  0  0  0  0
   32.7330    3.9850  -13.1840 C   0  0  0  0  0  0
   32.3730    2.7460  -12.8600 N   0  0  0  0  0  0
   33.9550    4.2240  -13.6520 N   0  0  0  0  0  0
   42.4160   15.0360   -9.7860 N   0  3  0  0  0  0
   42.6790   16.0090  -10.8420 C   0  0  2  0  0  0
   41.4290   16.1940  -11.6980 C   0  0  0  0  0  0
   40.7580   15.2150  -12.0450 O   0  0  0  0  0  0
   43.8550   15.5760  -11.7550 C   0  0  2  0  0  0
   43.6320   14.2490  -12.2520 O   0  0  0  0  0  0
   45.1870   15.6160  -11.0030 C   0  0  0  0  0  0
   41.1090   17.4440  -12.0250 N   0  0  0  0  0  0
   40.0240   17.7280  -12.9630 C   0  0  2  0  0  0
   40.6020   17.7400  -14.3760 C   0  0  0  0  0  0
   41.4080   18.6070  -14.7000 O   0  0  0  0  0  0
   39.3390   19.0570  -12.6440 C   0  0  0  0  0  0
   37.6750   19.1720  -13.3460 S   0  0  0  0  0  0
   40.1990   16.7700  -15.2180 N   0  0  0  0  0  0
   40.8290   16.5860  -16.5260 C   0  0  2  0  0  0
   40.4480   17.6800  -17.5140 C   0  0  0  0  0  0
   39.3160   18.1530  -17.4940 O   0  0  0  0  0  0
   40.2610   15.2480  -16.9900 C   0  0  0  0  0  0
   38.8940   15.2190  -16.3910 C   0  0  0  0  0  0
   39.0370   15.8760  -15.0450 C   0  0  0  0  0  0
   41.4110   18.0790  -18.3920 N   0  0  0  0  0  0
   25.4495    6.3128  -10.8672 O   0  0  0  0  0  0
   28.2646   26.0326   -6.7018 H   0  0  0  0  0  0
   28.2923   26.5854   -4.9929 H   0  0  0  0  0  0
   27.4697   25.0486   -5.4265 H   0  0  0  0  0  0
   30.3876   25.6848   -5.6799 H   0  0  0  0  0  0
   28.9514   23.7465   -3.7274 H   0  0  0  0  0  0
   28.6094   26.1400   -3.0957 H   0  0  0  0  0  0
   31.2748   23.0127   -4.4274 H   0  0  0  0  0  0
   31.1984   23.4997   -2.7001 H   0  0  0  0  0  0
   31.9012   24.6174   -3.9181 H   0  0  0  0  0  0
   31.0485   24.7688   -7.5183 H   0  0  0  0  0  0
   29.9180   22.1187   -8.3488 H   0  0  0  0  0  0
   30.7747   23.8286   -9.9839 H   0  0  0  0  0  0
   32.4322   23.5699   -9.3419 H   0  0  0  0  0  0
   32.1218   21.9731  -11.6967 H   0  0  0  0  0  0
   30.5041   20.1944   -7.6059 H   0  0  0  0  0  0
   33.3918   20.0229   -6.6042 H   0  0  0  0  0  0
   30.8970   18.5639   -5.5960 H   0  0  0  0  0  0
   32.5641   18.0167   -5.2112 H   0  0  0  0  0  0
   33.0164   20.1708   -4.1308 H   0  0  0  0  0  0
   31.3429   20.7055   -4.5051 H   0  0  0  0  0  0
   30.9110   18.2539   -3.2930 H   0  0  0  0  0  0
   32.3389   18.8750   -2.3975 H   0  0  0  0  0  0
   31.0296   20.6515   -1.4417 H   0  0  0  0  0  0
   29.2190   18.8388   -4.0641 H   0  0  0  0  0  0
   27.5940   19.7126   -3.5889 H   0  0  0  0  0  0
   29.1516   21.6413   -0.9335 H   0  0  0  0  0  0
   34.6004   18.1844   -7.2193 H   0  0  0  0  0  0
   33.8368   17.2571   -9.8413 H   0  0  0  0  0  0
   36.1586   17.3087   -8.9269 H   0  0  0  0  0  0
   35.7544   15.9292   -7.8499 H   0  0  0  0  0  0
   35.5654   14.4338   -9.6554 H   0  0  0  0  0  0
   35.4875   15.7626  -10.8615 H   0  0  0  0  0  0
   37.1281   14.0788  -11.7279 H   0  0  0  0  0  0
   38.9298   14.5045  -11.2776 H   0  0  0  0  0  0
   33.0089   15.9700   -6.6469 H   0  0  0  0  0  0
   32.3552   13.3205   -7.5653 H   0  0  0  0  0  0
   30.7242   13.2516   -5.5714 H   0  0  0  0  0  0
   32.4077   13.7462   -5.1870 H   0  0  0  0  0  0
   30.7451   15.2718   -4.0652 H   0  0  0  0  0  0
   30.6175   16.3508   -8.0651 H   0  0  0  0  0  0
   28.0970   15.1831   -8.8584 H   0  0  0  0  0  0
   29.6368   17.5578  -10.0797 H   0  0  0  0  0  0
   27.9193   17.1869  -10.4530 H   0  0  0  0  0  0
   27.2821   17.6040   -8.1547 H   0  0  0  0  0  0
   28.9998   17.8345   -7.6825 H   0  0  0  0  0  0
   26.2273   20.8026   -9.8221 H   0  0  0  0  0  0
   25.7615   19.4200   -8.7742 H   0  0  0  0  0  0
   26.4093   19.1194  -10.4224 H   0  0  0  0  0  0
   31.2389   15.2926  -10.4458 H   0  0  0  0  0  0
   30.0433   14.1222  -12.9566 H   0  0  0  0  0  0
   32.7951   15.1948  -12.1517 H   0  0  0  0  0  0
   32.6398   14.1951  -13.6360 H   0  0  0  0  0  0
   32.4115   16.9550  -14.3840 H   0  0  0  0  0  0
   31.8849   13.0303  -10.0842 H   0  0  0  0  0  0
   32.6323   10.5867  -11.5161 H   0  0  0  0  0  0
   33.1606    9.6539   -9.1595 H   0  0  0  0  0  0
   31.2976   10.8083   -7.9628 H   0  0  0  0  0  0
   34.8293   11.0577  -10.4216 H   0  0  0  0  0  0
   34.9169   11.3220   -8.6470 H   0  0  0  0  0  0
   34.1013   12.5308   -9.6959 H   0  0  0  0  0  0
   29.7743   11.7134   -9.8865 H   0  0  0  0  0  0
   28.6948    9.2310   -8.9404 H   0  0  0  0  0  0
   27.6553   11.4334   -8.5525 H   0  0  0  0  0  0
   26.4627   10.3054   -9.2819 H   0  0  0  0  0  0
   27.2462   11.5635  -10.2968 H   0  0  0  0  0  0
   27.8391    7.4383   -9.8490 H   0  0  0  0  0  0
   27.6527    7.5740  -12.9026 H   0  0  0  0  0  0
   28.4000    5.3612  -10.9648 H   0  0  0  0  0  0
   27.8638    4.9840  -12.6372 H   0  0  0  0  0  0
   29.6503    6.4306  -13.5337 H   0  0  0  0  0  0
   30.1888    6.7996  -11.8602 H   0  0  0  0  0  0
   30.6134    4.4257  -11.4569 H   0  0  0  0  0  0
   30.0323    4.0293  -13.1097 H   0  0  0  0  0  0
   32.2247    5.9896  -13.2790 H   0  0  0  0  0  0
   31.3620    2.5504  -12.4732 H   0  0  0  0  0  0
   33.0863    1.9171  -12.9789 H   0  0  0  0  0  0
   34.2508    5.2492  -13.9194 H   0  0  0  0  0  0
   41.5768   15.3851   -9.1665 H   0  0  0  0  0  0
   43.3129   14.9239   -9.1591 H   0  0  0  0  0  0
   42.1602   14.0658  -10.2368 H   0  0  0  0  0  0
   42.9340   16.9330  -10.3024 H   0  0  0  0  0  0
   43.9059   16.2246  -12.6420 H   0  0  0  0  0  0
   42.7198   14.0217  -12.8232 H   0  0  0  0  0  0
   45.3616   16.6324  -10.6202 H   0  0  0  0  0  0
   46.0024   15.3364  -11.6864 H   0  0  0  0  0  0
   45.1545   14.9079  -10.1618 H   0  0  0  0  0  0
   41.6779   18.2711  -11.5753 H   0  0  0  0  0  0
   39.2813   16.9253  -12.8445 H   0  0  0  0  0  0
   39.2531   19.1727  -11.5535 H   0  0  0  0  0  0
   39.9356   19.8849  -13.0547 H   0  0  0  0  0  0
   37.0734   20.0794  -13.1891 H   0  0  0  0  0  0
   41.9237   16.6276  -16.4262 H   0  0  0  0  0  0
   40.2356   15.2219  -18.0894 H   0  0  0  0  0  0
   40.8970   14.4310  -16.6184 H   0  0  0  0  0  0
   38.1982   15.7726  -17.0385 H   0  0  0  0  0  0
   38.5567   14.1762  -16.2974 H   0  0  0  0  0  0
   39.2485   15.1503  -14.2458 H   0  0  0  0  0  0
   38.1529   16.4720  -14.7745 H   0  0  0  0  0  0
   42.4088   17.6170  -18.3613 H   0  0  0  0  0  0
   41.1904   18.8630  -19.1314 H   0  0  0  0  0  0
   24.3841    6.0413  -10.8329 H   0  0  0  0  0  0
  1  2  1  0  0  0
  1 99  1  0  0  0
  1100  1  0  0  0
  1101  1  0  0  0
  2  3  1  0  0  0
  2  5  1  0  0  0
  2102  1  0  0  0
  3  4  2  0  0  0
  3  8  1  0  0  0
  5  6  1  0  0  0
  5  7  1  0  0  0
  5103  1  0  0  0
  6104  1  0  0  0
  7105  1  0  0  0
  7106  1  0  0  0
  7107  1  0  0  0
  8  9  1  0  0  0
  8108  1  0  0  0
  9 10  1  0  0  0
  9 12  1  0  0  0
  9109  1  0  0  0
 10 11  2  0  0  0
 10 14  1  0  0  0
 12 13  1  0  0  0
 12110  1  0  0  0
 12111  1  0  0  0
 13112  1  0  0  0
 14 15  1  0  0  0
 14113  1  0  0  0
 15 16  1  0  0  0
 15 18  1  0  0  0
 15114  1  0  0  0
 16 17  2  0  0  0
 16 25  1  0  0  0
 18 19  1  0  0  0
 18115  1  0  0  0
 18116  1  0  0  0
 19 20  1  0  0  0
 19117  1  0  0  0
 19118  1  0  0  0
 20 21  1  0  0  0
 20119  1  0  0  0
 20120  1  0  0  0
 21 22  1  0  0  0
 21121  1  0  0  0
 22 23  1  0  0  0
 22 24  2  0  0  0
 23122  1  0  0  0
 23123  1  0  0  0
 24124  1  0  0  0
 25 26  1  0  0  0
 25125  1  0  0  0
 26 27  1  0  0  0
 26 29  1  0  0  0
 26126  1  0  0  0
 27 28  2  0  0  0
 27 34  1  0  0  0
 29 30  1  0  0  0
 29127  1  0  0  0
 29128  1  0  0  0
 30 31  1  0  0  0
 30129  1  0  0  0
 30130  1  0  0  0
 31 32  2  0  0  0
 31 33  1  0  0  0
 33131  1  0  0  0
 33132  1  0  0  0
 34 35  1  0  0  0
 34133  1  0  0  0
 35 36  1  0  0  0
 35 38  1  0  0  0
 35134  1  0  0  0
 36 37  2  0  0  0
 36 40  1  0  0  0
 38 39  1  0  0  0
 38135  1  0  0  0
 38136  1  0  0  0
 39137  1  0  0  0
 40 41  1  0  0  0
 40138  1  0  0  0
 41 42  1  0  0  0
 41 44  1  0  0  0
 41139  1  0  0  0
 42 43  2  0  0  0
 42 48  1  0  0  0
 44 45  1  0  0  0
 44140  1  0  0  0
 44141  1  0  0  0
 45 46  1  0  0  0
 45142  1  0  0  0
 45143  1  0  0  0
 46 47  1  0  0  0
 47144  1  0  0  0
 47145  1  0  0  0
 47146  1  0  0  0
 48 49  1  0  0  0
 48147  1  0  0  0
 49 50  1  0  0  0
 49 52  1  0  0  0
 49148  1  0  0  0
 50 51  2  0  0  0
 50 54  1  0  0  0
 52 53  1  0  0  0
 52149  1  0  0  0
 52150  1  0  0  0
 53151  1  0  0  0
 54 55  1  0  0  0
 54152  1  0  0  0
 55 56  1  0  0  0
 55 58  1  0  0  0
 55153  1  0  0  0
 56 57  2  0  0  0
 56 61  1  0  0  0
 58 59  1  0  0  0
 58 60  1  0  0  0
 58154  1  0  0  0
 59155  1  0  0  0
 60156  1  0  0  0
 60157  1  0  0  0
 60158  1  0  0  0
 61 62  1  0  0  0
 61159  1  0  0  0
 62 63  1  0  0  0
 62 65  1  0  0  0
 62160  1  0  0  0
 63 64  2  0  0  0
 63 66  1  0  0  0
 65161  1  0  0  0
 65162  1  0  0  0
 65163  1  0  0  0
 66 67  1  0  0  0
 66164  1  0  0  0
 67 68  1  0  0  0
 67 70  1  0  0  0
 67165  1  0  0  0
 68 69  2  0  0  0
 68 98  1  0  0  0
 70 71  1  0  0  0
 70166  1  0  0  0
 70167  1  0  0  0
 71 72  1  0  0  0
 71168  1  0  0  0
 71169  1  0  0  0
 72 73  1  0  0  0
 72170  1  0  0  0
 72171  1  0  0  0
 73 74  1  0  0  0
 73172  1  0  0  0
 74 75  1  0  0  0
 74 76  2  0  0  0
 75173  1  0  0  0
 75174  1  0  0  0
 76175  1  0  0  0
 77 78  1  0  0  0
 77176  1  0  0  0
 77177  1  0  0  0
 77178  1  0  0  0
 78 79  1  0  0  0
 78 81  1  0  0  0
 78179  1  0  0  0
 79 80  2  0  0  0
 79 84  1  0  0  0
 81 82  1  0  0  0
 81 83  1  0  0  0
 81180  1  0  0  0
 82181  1  0  0  0
 83182  1  0  0  0
 83183  1  0  0  0
 83184  1  0  0  0
 84 85  1  0  0  0
 84185  1  0  0  0
 85 86  1  0  0  0
 85 88  1  0  0  0
 85186  1  0  0  0
 86 87  2  0  0  0
 86 90  1  0  0  0
 88 89  1  0  0  0
 88187  1  0  0  0
 88188  1  0  0  0
 89189  1  0  0  0
 90 91  1  0  0  0
 90 96  1  0  0  0
 91 92  1  0  0  0
 91 94  1  0  0  0
 91190  1  0  0  0
 92 93  2  0  0  0
 92 97  1  0  0  0
 94 95  1  0  0  0
 94191  1  0  0  0
 94192  1  0  0  0
 95 96  1  0  0  0
 95193  1  0  0  0
 95194  1  0  0  0
 96195  1  0  0  0
 96196  1  0  0  0
 97197  1  0  0  0
 97198  1  0  0  0
 98199  1  0  0  0
M  CHG  2   1   1  77   1
M  END
> <s_m_source_file>
../4mnv_ligand.sdf

> <i_m_source_file_index>
1

> <s_epik_input>
W09IXVtDQEhdKFtDSDNdKVtDQEhdKFtOSDMrXSlDKD1PKVtOSF1bQ0BASF0oW0NIMl1bU0hdKUMoPU8pW05IXVtDQEBIXShbQ0gyXVtDSDJdW0NIMl1bTkhdL0MoW05IMl0pPU5cW0hdKUMoPU8pW05IXVtDQEBIXShbQ0gyXVtDSDJdQyg9TylbTkgyXSlDKD1PKVtOSF1bQ0BASF0oW0NIMl1bT0hdKUMoPU8pW05IXVtDQEBIXShbQ0gyXVtDSDJdU1tDSDNdKUMoPU8pW05IXVtDQEBIXShbQ0gyXVtTSF0pQyg9TylbTkhdW0NAQEhdKFtDQEhdKFtPSF0pW0NIM10pQyg9TylbTkhdW0NAQEhdKFtDSDNdKUMoPU8pW05IXVtDQEhdKEMoPU8pW09IXSlbQ0gyXVtDSDJdW0NIMl1bTkhdL0MoW05IMl0pPU5cW0hdLltPSF1bQ0BIXShbQ0gzXSlbQ0BIXShbTkgzK10pQyg9TylbTkhdW0NAQEhdKFtDSDJdW1NIXSlDKD1PKU4xW0NASF0oQyg9TylbTkgyXSlbQ0gyXVtDSDJdW0NIMl0x

> <s_epik_cmdline>
J2VwaWtfYXBwJywgJy1pbWFlJywgJ2xpZ2FuZF9wcm8ubWFlJywgJy1vbWFlJywgJ2xpZ2FuZF9wcmVwLm1hZScsICctbXMnLCAnMScsICctcGgnLCAnNycsICctcGh0JywgJzAuNScsICctbnQn

> <s_epik_pKa_notes>
Molecule size exceeds maximum supported for generating protonation states

> <s_epik_Chemistry_Notes>
This compound has an imine and may undergo hydrolysis.

$$$$
