4mnw_ligand
                    3D
 Schrodinger Suite 2020-3.
210211  0  0  1  0            999 V2000
   36.3850   21.1140  -11.3550 N   0  3  0  0  0  0
   36.4910   19.7350  -11.8980 C   0  0  2  0  0  0
   35.1380   19.0740  -11.9130 C   0  0  0  0  0  0
   34.2730   19.3800  -11.1000 O   0  0  0  0  0  0
   37.4630   18.8700  -11.0980 C   0  0  0  0  0  0
   37.2920   18.9680   -9.5940 C   0  0  0  0  0  0
   38.2140   20.0070   -8.9810 C   0  0  0  0  0  0
   38.0200   21.2100   -9.1680 O   0  0  0  0  0  0
   39.2260   19.5490   -8.2490 N   0  0  0  0  0  0
   34.9690   18.1600  -12.8430 N   0  0  0  0  0  0
   33.7430   17.4160  -12.9570 C   0  0  2  0  0  0
   34.1650   16.0040  -13.2800 C   0  0  0  0  0  0
   34.1530   15.5840  -14.4170 O   0  0  0  0  0  0
   32.8880   18.0240  -14.0640 C   0  0  0  0  0  0
   31.2740   17.2580  -14.2830 S   0  0  0  0  0  0
   34.5590   15.2950  -12.2390 N   0  0  0  0  0  0
   35.2940   14.0440  -12.3230 C   0  0  2  0  0  0
   34.5020   12.7970  -12.0770 C   0  0  0  0  0  0
   34.9280   11.7150  -12.4530 O   0  0  0  0  0  0
   36.3730   14.0540  -11.2490 C   0  0  0  0  0  0
   37.5410   14.8620  -11.5710 C   0  0  0  0  0  0
   38.5140   15.3080  -10.7190 C   0  0  0  0  0  0
   37.9110   15.3020  -12.8610 C   0  0  0  0  0  0
   39.4560   16.0110  -11.4100 N   0  0  0  0  0  0
   39.1120   16.0260  -12.7250 C   0  0  0  0  0  0
   37.3510   15.1650  -14.1160 C   0  0  0  0  0  0
   39.7470   16.5760  -13.7980 C   0  0  0  0  0  0
   37.9780   15.7170  -15.1720 C   0  0  0  0  0  0
   39.1600   16.4090  -15.0210 C   0  0  0  0  0  0
   33.3720   12.9530  -11.4200 N   0  0  0  0  0  0
   32.6450   11.8350  -10.8550 C   0  0  2  0  0  0
   31.5630   11.3180  -11.7940 C   0  0  0  0  0  0
   30.6840   12.0630  -12.2000 O   0  0  0  0  0  0
   32.0480   12.3070   -9.5320 C   0  0  0  0  0  0
   31.1600   11.2810   -8.8590 C   0  0  0  0  0  0
   31.2910   10.0730   -9.0820 O   0  0  0  0  0  0
   30.3360   11.7420   -8.0650 O   0  0  0  0  0  0
   31.6200   10.0280  -12.0960 N   0  0  0  0  0  0
   30.6190    9.3900  -12.9560 C   0  0  2  0  0  0
   29.2230    9.3600  -12.3330 C   0  0  0  0  0  0
   28.2280    9.3700  -13.0560 O   0  0  0  0  0  0
   31.0430    7.9620  -13.3070 C   0  0  0  0  0  0
   30.9920    6.9830  -12.1390 C   0  0  0  0  0  0
   31.4620    5.5970  -12.5410 C   0  0  0  0  0  0
   32.8920    5.5690  -12.8100 N   0  0  0  0  0  0
   33.6100    4.4590  -12.9390 C   0  0  0  0  0  0
   33.0330    3.2650  -12.8210 N   0  0  0  0  0  0
   34.9120    4.5430  -13.1690 N   0  0  0  0  0  0
   29.1570    9.2900  -11.0040 N   0  0  0  0  0  0
   27.8800    9.1720  -10.2970 C   0  0  0  0  0  0
   27.2230   10.5120  -10.0360 C   0  0  0  0  0  0
   27.0700   10.9280   -8.8870 O   0  0  0  0  0  0
   26.8100   11.1700  -11.1140 N   0  0  0  0  0  0
   26.2270   12.5080  -11.0330 C   0  0  2  0  0  0
   24.8610   12.6060  -11.7250 C   0  0  0  0  0  0
   24.4650   13.6710  -12.1980 O   0  0  0  0  0  0
   27.1990   13.5250  -11.6230 C   0  0  0  0  0  0
   27.4890   13.3140  -13.3920 S   0  0  0  0  0  0
   24.1310   11.4970  -11.7320 N   0  0  0  0  0  0
   22.8020   11.4240  -12.3390 C   0  0  2  0  0  0
   21.7950   12.2820  -11.5870 C   0  0  0  0  0  0
   21.8520   12.3650  -10.3690 O   0  0  0  0  0  0
   22.2750    9.9830  -12.3020 C   0  0  0  0  0  0
   23.1050    8.9420  -13.0530 C   0  0  0  0  0  0
   24.2310    8.3420  -12.2280 C   0  0  0  0  0  0
   24.4910    8.8250  -11.1080 O   0  0  0  0  0  0
   24.8730    7.3820  -12.7030 O   0  0  0  0  0  0
   20.8710   12.9020  -12.3110 N   0  0  0  0  0  0
   19.6950   13.5310  -11.7060 C   0  0  2  0  0  0
   20.0430   14.6260  -10.6920 C   0  0  0  0  0  0
   19.4470   14.7070   -9.6160 O   0  0  0  0  0  0
   18.8220   12.4420  -11.0630 C   0  0  0  0  0  0
   17.4090   12.9080  -10.7780 C   0  0  0  0  0  0
   16.8240   13.6670  -11.5450 O   0  0  0  0  0  0
   16.8470   12.4400   -9.6690 N   0  0  0  0  0  0
   21.0150   15.4630  -11.0500 N   0  0  0  0  0  0
   21.4520   16.5790  -10.2060 C   0  0  2  0  0  0
   20.8600   17.8950  -10.6960 C   0  0  0  0  0  0
   20.5240   18.0360  -11.8680 O   0  0  0  0  0  0
   22.9730   16.7120  -10.2310 C   0  0  0  0  0  0
   23.7380   15.5900   -9.5550 C   0  0  0  0  0  0
   24.1850   15.9450   -8.1420 C   0  0  0  0  0  0
   25.0760   17.1100   -8.0860 N   0  0  0  0  0  0
   26.4090   17.0860   -8.1910 C   0  0  0  0  0  0
   27.0790   15.9500   -8.3760 N   0  0  0  0  0  0
   27.0830   18.2280   -8.1150 N   0  0  0  0  0  0
   20.7610   18.8590   -9.7880 N   0  0  0  0  0  0
   20.3310   20.2220  -10.1250 C   0  0  2  0  0  0
   21.4150   21.0240  -10.8690 C   0  0  0  0  0  0
   21.1270   21.7130  -11.8520 O   0  0  0  0  0  0
   19.9320   20.9810   -8.8530 C   0  0  0  0  0  0
   18.5740   20.6130   -8.2830 C   0  0  0  0  0  0
   18.2410   21.5080   -7.0960 C   0  0  0  0  0  0
   17.4410   20.7790   -6.0300 C   0  0  0  0  0  0
   16.9920   21.7110   -4.9580 N   0  3  0  0  0  0
   22.6490   20.9200  -10.3800 N   0  0  0  0  0  0
   23.7970   21.7330  -10.8250 C   0  0  2  0  0  0
   23.5030   23.2240  -10.6910 C   0  0  0  0  0  0
   23.5460   23.9700  -11.6690 O   0  0  0  0  0  0
   24.2270   21.4070  -12.2590 C   0  0  0  0  0  0
   24.5940   19.6730  -12.6160 S   0  0  0  0  0  0
   23.2010   23.6100   -9.4550 N   0  0  0  0  0  0
   22.9040   24.9870   -9.0060 C   0  0  2  0  0  0
   21.5050   25.0550   -8.3960 C   0  0  0  0  0  0
   21.3340   24.7960   -7.2050 O   0  0  0  0  0  0
   23.0790   26.0540  -10.0960 C   0  0  0  0  0  0
   24.5390   26.3230  -10.4190 C   0  0  0  0  0  0
   25.3520   26.5560   -9.5250 O   0  0  0  0  0  0
   24.8780   26.2880  -11.6990 N   0  0  0  0  0  0
   20.5100   25.3830   -9.2110 N   0  0  0  0  0  0
   35.6758   21.6942  -11.9636 H   0  0  0  0  0  0
   37.3732   21.5964  -11.3838 H   0  0  0  0  0  0
   36.0275   21.0723  -10.3155 H   0  0  0  0  0  0
   36.8677   19.8487  -12.9252 H   0  0  0  0  0  0
   37.3227   17.8134  -11.3699 H   0  0  0  0  0  0
   38.4958   19.1730  -11.3251 H   0  0  0  0  0  0
   36.2547   19.2501   -9.3605 H   0  0  0  0  0  0
   37.5195   17.9946   -9.1349 H   0  0  0  0  0  0
   39.3585   18.4658   -8.1103 H   0  0  0  0  0  0
   39.9303   20.2534   -7.7824 H   0  0  0  0  0  0
   35.7947   17.9703  -13.5446 H   0  0  0  0  0  0
   33.1757   17.4589  -12.0156 H   0  0  0  0  0  0
   32.7062   19.0866  -13.8451 H   0  0  0  0  0  0
   33.4140   17.9326  -15.0257 H   0  0  0  0  0  0
   30.5888   17.6310  -15.0585 H   0  0  0  0  0  0
   34.2940   15.7123  -11.2563 H   0  0  0  0  0  0
   35.6284   14.0336  -13.3709 H   0  0  0  0  0  0
   35.9556   14.4552  -10.3137 H   0  0  0  0  0  0
   36.7317   13.0279  -11.0800 H   0  0  0  0  0  0
   38.5334   15.1276   -9.6442 H   0  0  0  0  0  0
   36.4170   14.6191  -14.2494 H   0  0  0  0  0  0
   40.6820   17.1250  -13.6859 H   0  0  0  0  0  0
   37.5421   15.6145  -16.1658 H   0  0  0  0  0  0
   39.6404   16.8352  -15.9017 H   0  0  0  0  0  0
   32.9829   13.9757  -11.3070 H   0  0  0  0  0  0
   33.3693   11.0186  -10.7173 H   0  0  0  0  0  0
   32.8590   12.5471   -8.8287 H   0  0  0  0  0  0
   31.4355   13.2041   -9.7054 H   0  0  0  0  0  0
   30.6340    9.3468   -8.5810 H   0  0  0  0  0  0
   32.4479    9.4340  -11.6815 H   0  0  0  0  0  0
   30.5962   10.0352  -13.8466 H   0  0  0  0  0  0
   30.3785    7.5637  -14.0879 H   0  0  0  0  0  0
   32.0795    7.9673  -13.6753 H   0  0  0  0  0  0
   31.6414    7.3452  -11.3284 H   0  0  0  0  0  0
   29.9580    6.9031  -11.7724 H   0  0  0  0  0  0
   31.2493    4.8875  -11.7277 H   0  0  0  0  0  0
   30.9327    5.2801  -13.4517 H   0  0  0  0  0  0
   33.4495    6.5109  -12.9201 H   0  0  0  0  0  0
   31.9521    3.1929  -12.6300 H   0  0  0  0  0  0
   33.6372    2.3505  -12.9145 H   0  0  0  0  0  0
   35.3908    5.5285  -13.2668 H   0  0  0  0  0  0
   30.0988    9.3232  -10.4366 H   0  0  0  0  0  0
   27.1829    8.5690  -10.8973 H   0  0  0  0  0  0
   28.0429    8.6843   -9.3246 H   0  0  0  0  0  0
   26.9185   10.6755  -12.0906 H   0  0  0  0  0  0
   26.0779   12.6840   -9.9575 H   0  0  0  0  0  0
   26.8015   14.5401  -11.4761 H   0  0  0  0  0  0
   28.1730   13.4362  -11.1196 H   0  0  0  0  0  0
   28.1732   13.9929  -13.9220 H   0  0  0  0  0  0
   24.5669   10.6074  -11.2539 H   0  0  0  0  0  0
   22.9523   11.7979  -13.3625 H   0  0  0  0  0  0
   22.2259    9.6372  -11.2589 H   0  0  0  0  0  0
   21.2698    9.9486  -12.7473 H   0  0  0  0  0  0
   22.4547    8.1128  -13.3686 H   0  0  0  0  0  0
   23.5621    9.4071  -13.9388 H   0  0  0  0  0  0
   25.6930    6.9295  -12.1261 H   0  0  0  0  0  0
   21.0117   12.9335  -13.4015 H   0  0  0  0  0  0
   19.1780   14.0257  -12.5414 H   0  0  0  0  0  0
   18.7585   11.5765  -11.7389 H   0  0  0  0  0  0
   19.2698   12.1294  -10.1081 H   0  0  0  0  0  0
   17.4100   11.7616   -9.0111 H   0  0  0  0  0  0
   15.8186   12.7309   -9.4086 H   0  0  0  0  0  0
   21.4951   15.2894  -12.0243 H   0  0  0  0  0  0
   21.0871   16.3320   -9.1981 H   0  0  0  0  0  0
   23.3215   16.7405  -11.2740 H   0  0  0  0  0  0
   23.2684   17.6404   -9.7203 H   0  0  0  0  0  0
   23.0984   14.6974   -9.4899 H   0  0  0  0  0  0
   24.6379   15.3542  -10.1420 H   0  0  0  0  0  0
   23.3035   16.1743   -7.5253 H   0  0  0  0  0  0
   24.7273   15.0940   -7.7043 H   0  0  0  0  0  0
   24.6564   18.1171   -7.9461 H   0  0  0  0  0  0
   26.5360   14.9956   -8.4412 H   0  0  0  0  0  0
   28.1754   15.9661   -8.4636 H   0  0  0  0  0  0
   26.5448   19.1752   -7.9624 H   0  0  0  0  0  0
   21.0161   18.6039   -8.7489 H   0  0  0  0  0  0
   19.4703   20.0692  -10.7927 H   0  0  0  0  0  0
   20.6693   20.7826   -8.0611 H   0  0  0  0  0  0
   19.9021   22.0601   -9.0641 H   0  0  0  0  0  0
   17.8040   20.7417   -9.0579 H   0  0  0  0  0  0
   18.5878   19.5646   -7.9504 H   0  0  0  0  0  0
   19.1728   21.8681   -6.6355 H   0  0  0  0  0  0
   17.6462   22.3670   -7.4399 H   0  0  0  0  0  0
   16.5530   20.3192   -6.4883 H   0  0  0  0  0  0
   18.0652   19.9963   -5.5742 H   0  0  0  0  0  0
   16.4172   21.1531   -4.2041 H   0  0  0  0  0  0
   16.3575   22.4955   -5.3962 H   0  0  0  0  0  0
   17.8698   22.1726   -4.4821 H   0  0  0  0  0  0
   22.7826   20.1649   -9.5913 H   0  0  0  0  0  0
   24.6091   21.4505  -10.1389 H   0  0  0  0  0  0
   23.4263   21.6946  -12.9562 H   0  0  0  0  0  0
   25.1433   21.9647  -12.5028 H   0  0  0  0  0  0
   24.9080   19.3741  -13.6270 H   0  0  0  0  0  0
   23.1843   22.7804   -8.7329 H   0  0  0  0  0  0
   23.6681   25.1865   -8.2403 H   0  0  0  0  0  0
   22.5843   25.7191  -11.0197 H   0  0  0  0  0  0
   22.6272   26.9990   -9.7600 H   0  0  0  0  0  0
   24.1166   26.0756  -12.4640 H   0  0  0  0  0  0
   25.9209   26.4714  -11.9970 H   0  0  0  0  0  0
   20.7158   25.6056  -10.2684 H   0  0  0  0  0  0
   19.4796   25.4322   -8.8290 H   0  0  0  0  0  0
  1  2  1  0  0  0
  1111  1  0  0  0
  1112  1  0  0  0
  1113  1  0  0  0
  2  3  1  0  0  0
  2  5  1  0  0  0
  2114  1  0  0  0
  3  4  2  0  0  0
  3 10  1  0  0  0
  5  6  1  0  0  0
  5115  1  0  0  0
  5116  1  0  0  0
  6  7  1  0  0  0
  6117  1  0  0  0
  6118  1  0  0  0
  7  8  2  0  0  0
  7  9  1  0  0  0
  9119  1  0  0  0
  9120  1  0  0  0
 10 11  1  0  0  0
 10121  1  0  0  0
 11 12  1  0  0  0
 11 14  1  0  0  0
 11122  1  0  0  0
 12 13  2  0  0  0
 12 16  1  0  0  0
 14 15  1  0  0  0
 14123  1  0  0  0
 14124  1  0  0  0
 15125  1  0  0  0
 16 17  1  0  0  0
 16126  1  0  0  0
 17 18  1  0  0  0
 17 20  1  0  0  0
 17127  1  0  0  0
 18 19  2  0  0  0
 18 30  1  0  0  0
 20 21  1  0  0  0
 20128  1  0  0  0
 20129  1  0  0  0
 21 22  2  0  0  0
 21 23  1  0  0  0
 22 24  1  0  0  0
 22130  1  0  0  0
 23 25  2  0  0  0
 23 26  1  0  0  0
 24 25  1  0  0  0
 25 27  1  0  0  0
 26 28  2  0  0  0
 26131  1  0  0  0
 27 29  2  0  0  0
 27132  1  0  0  0
 28 29  1  0  0  0
 28133  1  0  0  0
 29134  1  0  0  0
 30 31  1  0  0  0
 30135  1  0  0  0
 31 32  1  0  0  0
 31 34  1  0  0  0
 31136  1  0  0  0
 32 33  2  0  0  0
 32 38  1  0  0  0
 34 35  1  0  0  0
 34137  1  0  0  0
 34138  1  0  0  0
 35 36  1  0  0  0
 35 37  2  0  0  0
 36139  1  0  0  0
 38 39  1  0  0  0
 38140  1  0  0  0
 39 40  1  0  0  0
 39 42  1  0  0  0
 39141  1  0  0  0
 40 41  2  0  0  0
 40 49  1  0  0  0
 42 43  1  0  0  0
 42142  1  0  0  0
 42143  1  0  0  0
 43 44  1  0  0  0
 43144  1  0  0  0
 43145  1  0  0  0
 44 45  1  0  0  0
 44146  1  0  0  0
 44147  1  0  0  0
 45 46  1  0  0  0
 45148  1  0  0  0
 46 47  1  0  0  0
 46 48  2  0  0  0
 47149  1  0  0  0
 47150  1  0  0  0
 48151  1  0  0  0
 49 50  1  0  0  0
 49152  1  0  0  0
 50 51  1  0  0  0
 50153  1  0  0  0
 50154  1  0  0  0
 51 52  2  0  0  0
 51 53  1  0  0  0
 53 54  1  0  0  0
 53155  1  0  0  0
 54 55  1  0  0  0
 54 57  1  0  0  0
 54156  1  0  0  0
 55 56  2  0  0  0
 55 59  1  0  0  0
 57 58  1  0  0  0
 57157  1  0  0  0
 57158  1  0  0  0
 58159  1  0  0  0
 59 60  1  0  0  0
 59160  1  0  0  0
 60 61  1  0  0  0
 60 63  1  0  0  0
 60161  1  0  0  0
 61 62  2  0  0  0
 61 68  1  0  0  0
 63 64  1  0  0  0
 63162  1  0  0  0
 63163  1  0  0  0
 64 65  1  0  0  0
 64164  1  0  0  0
 64165  1  0  0  0
 65 66  2  0  0  0
 65 67  1  0  0  0
 67166  1  0  0  0
 68 69  1  0  0  0
 68167  1  0  0  0
 69 70  1  0  0  0
 69 72  1  0  0  0
 69168  1  0  0  0
 70 71  2  0  0  0
 70 76  1  0  0  0
 72 73  1  0  0  0
 72169  1  0  0  0
 72170  1  0  0  0
 73 74  2  0  0  0
 73 75  1  0  0  0
 75171  1  0  0  0
 75172  1  0  0  0
 76 77  1  0  0  0
 76173  1  0  0  0
 77 78  1  0  0  0
 77 80  1  0  0  0
 77174  1  0  0  0
 78 79  2  0  0  0
 78 87  1  0  0  0
 80 81  1  0  0  0
 80175  1  0  0  0
 80176  1  0  0  0
 81 82  1  0  0  0
 81177  1  0  0  0
 81178  1  0  0  0
 82 83  1  0  0  0
 82179  1  0  0  0
 82180  1  0  0  0
 83 84  1  0  0  0
 83181  1  0  0  0
 84 85  1  0  0  0
 84 86  2  0  0  0
 85182  1  0  0  0
 85183  1  0  0  0
 86184  1  0  0  0
 87 88  1  0  0  0
 87185  1  0  0  0
 88 89  1  0  0  0
 88 91  1  0  0  0
 88186  1  0  0  0
 89 90  2  0  0  0
 89 96  1  0  0  0
 91 92  1  0  0  0
 91187  1  0  0  0
 91188  1  0  0  0
 92 93  1  0  0  0
 92189  1  0  0  0
 92190  1  0  0  0
 93 94  1  0  0  0
 93191  1  0  0  0
 93192  1  0  0  0
 94 95  1  0  0  0
 94193  1  0  0  0
 94194  1  0  0  0
 95195  1  0  0  0
 95196  1  0  0  0
 95197  1  0  0  0
 96 97  1  0  0  0
 96198  1  0  0  0
 97 98  1  0  0  0
 97100  1  0  0  0
 97199  1  0  0  0
 98 99  2  0  0  0
 98102  1  0  0  0
100101  1  0  0  0
100200  1  0  0  0
100201  1  0  0  0
101202  1  0  0  0
102103  1  0  0  0
102203  1  0  0  0
103104  1  0  0  0
103106  1  0  0  0
103204  1  0  0  0
104105  2  0  0  0
104110  1  0  0  0
106107  1  0  0  0
106205  1  0  0  0
106206  1  0  0  0
107108  2  0  0  0
107109  1  0  0  0
109207  1  0  0  0
109208  1  0  0  0
110209  1  0  0  0
110210  1  0  0  0
M  CHG  2   1   1  95   1
M  END
> <s_m_source_file>
../4mnw_ligand.sdf

> <i_m_source_file_index>
1

> <s_epik_input>
Tz1DKFtOSDJdKVtDSDJdW0NIMl1bQ0BIXShbTkgzK10pQyg9TylbTkhdW0NAQEhdKFtDSDJdW1NIXSlDKD1PKVtOSF1bQ0BASF0oW0NIMl1jMVtjSF1bbkhdYyhjMTIpW2NIXVtjSF1bY0hdW2NIXTIpQyg9TylbTkhdW0NAQEhdKFtDSDJdQyg9TylbT0hdKUMoPU8pW05IXVtDQEBIXShbQ0gyXVtDSDJdW0NIMl1bTkhdL0MoW05IMl0pPU5cW0hdKUMoPU8pW05IXVtDSDJdQyg9TylbTkhdW0NAQEhdKFtDSDJdW1NIXSlDKD1PKVtOSF1bQ0BASF0oW0NIMl1bQ0gyXUMoPU8pW09IXSlDKD1PKVtOSF1bQ0BASF0oW0NIMl1DKD1PKVtOSDJdKUMoPU8pW05IXVtDQEBIXShbQ0gyXVtDSDJdW0NIMl1bTkhdL0MoW05IMl0pPU5cW0hdKUMoPU8pW05IXVtDQEBIXShbQ0gyXVtDSDJdW0NIMl1bQ0gyXVtOSDMrXSlDKD1PKVtOSF1bQ0BASF0oW0NIMl1bU0hdKUMoPU8pW05IXVtDQEhdKEMoPU8pW05IMl0pW0NIMl1DKD1PKVtOSDJd

> <s_epik_cmdline>
J2VwaWtfYXBwJywgJy1pbWFlJywgJ2xpZ2FuZF9wcm8ubWFlJywgJy1vbWFlJywgJ2xpZ2FuZF9wcmVwLm1hZScsICctbXMnLCAnMScsICctcGgnLCAnNycsICctcGh0JywgJzAuNScsICctbnQn

> <s_epik_pKa_notes>
Molecule size exceeds maximum supported for generating protonation states

> <s_epik_Chemistry_Notes>
This compound has an imine and may undergo hydrolysis.

$$$$
