4mnx_ligand
                    3D
 Schrodinger Suite 2020-3.
209210  0  0  1  0            999 V2000
   35.4820   18.9400  -11.2980 N   0  3  0  0  0  0
   35.7960   17.4760  -11.2570 C   0  0  2  0  0  0
   34.6780   16.7200  -10.5370 C   0  0  0  0  0  0
   34.6480   16.6670   -9.3010 O   0  0  0  0  0  0
   37.1530   17.2380  -10.5710 C   0  0  0  0  0  0
   37.7710   15.8270  -10.5450 C   0  0  0  0  0  0
   37.3110   15.0080   -9.3460 C   0  0  0  0  0  0
   37.5330   15.0640  -11.8460 C   0  0  0  0  0  0
   33.7530   16.1640  -11.3140 N   0  0  0  0  0  0
   32.6310   15.3970  -10.7850 C   0  0  2  0  0  0
   32.6690   13.9560  -11.2910 C   0  0  0  0  0  0
   33.1330   13.6940  -12.3920 O   0  0  0  0  0  0
   31.3040   16.0290  -11.2100 C   0  0  0  0  0  0
   31.0670   17.7640  -10.7300 S   0  0  0  0  0  0
   32.1750   13.0260  -10.4760 N   0  0  0  0  0  0
   32.0650   11.6120  -10.8650 C   0  0  2  0  0  0
   30.8800   11.4700  -11.8240 C   0  0  0  0  0  0
   29.7670   11.8950  -11.4960 O   0  0  0  0  0  0
   31.8550   10.7370   -9.6100 C   0  0  0  0  0  0
   31.5430    9.3860   -9.9350 O   0  0  0  0  0  0
   31.1050   10.8860  -13.0000 N   0  0  0  0  0  0
   30.0090   10.6790  -13.9720 C   0  0  2  0  0  0
   28.8750    9.8800  -13.3120 C   0  0  0  0  0  0
   27.6710   10.2130  -13.4310 O   0  0  0  0  0  0
   30.5130    9.9430  -15.2260 C   0  0  0  0  0  0
   31.7070   10.6390  -15.8770 C   0  0  0  0  0  0
   32.7610   10.7340  -15.2110 O   0  0  0  0  0  0
   31.5900   11.0850  -17.0500 O   0  0  0  0  0  0
   29.2840    8.8270  -12.6140 N   0  0  0  0  0  0
   28.4120    8.1190  -11.7000 C   0  0  2  0  0  0
   28.2330    9.0120  -10.4700 C   0  0  0  0  0  0
   29.1270    9.1210   -9.6190 O   0  0  0  0  0  0
   29.0140    6.7700  -11.3340 C   0  0  0  0  0  0
   29.0320    5.7870  -12.4900 C   0  0  0  0  0  0
   29.9690    4.6250  -12.2290 C   0  0  0  0  0  0
   31.3500    4.9460  -12.5960 N   0  0  0  0  0  0
   32.3310    4.0500  -12.7480 C   0  0  0  0  0  0
   32.1160    2.7580  -12.5230 N   0  0  0  0  0  0
   33.5450    4.4470  -13.1090 N   0  0  0  0  0  0
   27.0580    9.6360  -10.4000 N   0  0  0  0  0  0
   26.8320   10.8130   -9.5440 C   0  0  0  0  0  0
   26.0190   11.8710  -10.2690 C   0  0  0  0  0  0
   25.2920   12.6520   -9.6370 O   0  0  0  0  0  0
   26.0910   11.8580  -11.6050 N   0  0  0  0  0  0
   25.5130   12.9220  -12.4120 C   0  0  2  0  0  0
   24.0920   12.6140  -12.9160 C   0  0  0  0  0  0
   23.5550   13.3490  -13.7440 O   0  0  0  0  0  0
   26.4440   13.2470  -13.5780 C   0  0  0  0  0  0
   26.3260   14.9660  -14.0930 S   0  0  0  0  0  0
   23.4780   11.5570  -12.3830 N   0  0  0  0  0  0
   22.1260   11.1620  -12.7740 C   0  0  2  0  0  0
   21.0770   12.0150  -12.0680 C   0  0  0  0  0  0
   21.1010   12.1500  -10.8480 O   0  0  0  0  0  0
   21.8750    9.6770  -12.4770 C   0  0  0  0  0  0
   22.8370    8.6980  -13.1700 C   0  0  0  0  0  0
   24.1000    8.3800  -12.3820 C   0  0  0  0  0  0
   24.8400    7.4380  -12.8020 O   0  0  0  0  0  0
   24.3590    9.0430  -11.3420 O   0  0  0  0  0  0
   20.1660   12.5950  -12.8520 N   0  0  0  0  0  0
   18.9460   13.2090  -12.3170 C   0  0  2  0  0  0
   19.2610   14.2960  -11.2620 C   0  0  0  0  0  0
   18.6850   14.3100  -10.1640 O   0  0  0  0  0  0
   18.0430   12.0990  -11.7400 C   0  0  0  0  0  0
   16.7180   12.6280  -11.2180 C   0  0  0  0  0  0
   16.0350   13.3850  -11.9070 O   0  0  0  0  0  0
   16.3560   12.2410   -9.9830 N   0  0  0  0  0  0
   20.1970   15.1850  -11.5990 N   0  0  0  0  0  0
   20.6740   16.1950  -10.6760 C   0  0  2  0  0  0
   20.2210   17.5740  -11.0850 C   0  0  0  0  0  0
   20.0040   17.8650  -12.2730 O   0  0  0  0  0  0
   22.2040   16.1960  -10.5820 C   0  0  0  0  0  0
   22.8440   14.8480  -10.3080 C   0  0  0  0  0  0
   22.3480   14.1940   -9.0330 C   0  0  0  0  0  0
   22.5780   15.0500   -7.8770 N   0  0  0  0  0  0
   23.6730   15.0540   -7.1200 C   0  0  0  0  0  0
   24.6730   14.1950   -7.3340 N   0  0  0  0  0  0
   23.7600   15.9160   -6.1090 N   0  0  0  0  0  0
   20.1090   18.4340  -10.0810 N   0  0  0  0  0  0
   19.7220   19.8150  -10.3060 C   0  0  2  0  0  0
   20.9340   20.6710  -10.6650 C   0  0  0  0  0  0
   22.0450   20.4480  -10.1630 O   0  0  0  0  0  0
   19.0180   20.3810   -9.0650 C   0  0  0  0  0  0
   18.5240   21.7760   -9.3010 C   0  0  0  0  0  0
   17.3230   22.1470   -9.8550 C   0  0  0  0  0  0
   19.2390   22.9790   -9.0360 C   0  0  0  0  0  0
   17.2480   23.5190   -9.9300 N   0  0  0  0  0  0
   18.4140   24.0540   -9.4370 C   0  0  0  0  0  0
   20.5010   23.2570   -8.4950 C   0  0  0  0  0  0
   18.8120   25.3880   -9.3070 C   0  0  0  0  0  0
   20.8910   24.5800   -8.3650 C   0  0  0  0  0  0
   20.0490   25.6270   -8.7690 C   0  0  0  0  0  0
   20.7010   21.6580  -11.5340 N   0  0  0  0  0  0
   21.7240   22.6190  -11.9100 C   0  0  2  0  0  0
   21.1350   23.9900  -12.3030 C   0  0  0  0  0  0
   20.1320   24.0650  -13.0000 O   0  0  0  0  0  0
   22.5540   22.0760  -13.0610 C   0  0  0  0  0  0
   24.1420   22.9210  -13.2640 S   0  0  0  0  0  0
   21.7920   25.0420  -11.8100 N   0  0  0  0  0  0
   21.5000   26.4630  -12.0730 C   0  0  2  0  0  0
   21.2870   26.7760  -13.5520 C   0  0  0  0  0  0
   20.4250   27.5790  -13.9210 O   0  0  0  0  0  0
   22.7070   27.2700  -11.5790 C   0  0  0  0  0  0
   22.4810   28.7490  -11.3810 C   0  0  0  0  0  0
   23.3960   29.3090  -10.2910 C   0  0  0  0  0  0
   24.7470   29.7600  -10.8250 C   0  0  0  0  0  0
   24.6090   30.9980  -11.6500 N   0  3  0  0  0  0
   22.1020   26.1600  -14.3900 N   0  0  0  0  0  0
   34.5104   19.0929  -11.7906 H   0  0  0  0  0  0
   36.2658   19.4675  -11.8614 H   0  0  0  0  0  0
   35.4391   19.3347  -10.2721 H   0  0  0  0  0  0
   35.8531   17.1184  -12.2957 H   0  0  0  0  0  0
   37.9231   17.8544  -11.0579 H   0  0  0  0  0  0
   37.0802   17.5138   -9.5086 H   0  0  0  0  0  0
   38.8568   15.9681  -10.4394 H   0  0  0  0  0  0
   37.4921   15.5769   -8.4221 H   0  0  0  0  0  0
   37.8724   14.0627   -9.3105 H   0  0  0  0  0  0
   36.2363   14.7929   -9.4395 H   0  0  0  0  0  0
   37.8723   15.6740  -12.6961 H   0  0  0  0  0  0
   36.4596   14.8493  -11.9540 H   0  0  0  0  0  0
   38.0957   14.1191  -11.8251 H   0  0  0  0  0  0
   33.8610   16.3029  -12.3998 H   0  0  0  0  0  0
   32.7560   15.4284   -9.6926 H   0  0  0  0  0  0
   31.2178   15.9984  -12.3062 H   0  0  0  0  0  0
   30.4706   15.4689  -10.7609 H   0  0  0  0  0  0
   30.1379   18.2873  -10.9999 H   0  0  0  0  0  0
   31.8425   13.3495   -9.4786 H   0  0  0  0  0  0
   33.0015   11.3227  -11.3642 H   0  0  0  0  0  0
   32.7738   10.7369   -9.0052 H   0  0  0  0  0  0
   31.0241   11.1433   -9.0146 H   0  0  0  0  0  0
   31.3686    8.6536   -9.1330 H   0  0  0  0  0  0
   32.1256   10.5557  -13.2433 H   0  0  0  0  0  0
   29.6572   11.6814  -14.2573 H   0  0  0  0  0  0
   30.8245    8.9240  -14.9527 H   0  0  0  0  0  0
   29.7051    9.8921  -15.9708 H   0  0  0  0  0  0
   32.4395   11.5889  -17.5341 H   0  0  0  0  0  0
   30.3245    8.4966  -12.7486 H   0  0  0  0  0  0
   27.4528    7.9324  -12.2051 H   0  0  0  0  0  0
   30.0534    6.9102  -11.0023 H   0  0  0  0  0  0
   28.4281    6.3152  -10.5217 H   0  0  0  0  0  0
   28.0199    5.3852  -12.6454 H   0  0  0  0  0  0
   29.3666    6.3009  -13.4032 H   0  0  0  0  0  0
   29.9468    4.3692  -11.1594 H   0  0  0  0  0  0
   29.6480    3.7551  -12.8208 H   0  0  0  0  0  0
   31.6443    5.9917  -12.7687 H   0  0  0  0  0  0
   31.1162    2.4109  -12.2230 H   0  0  0  0  0  0
   32.9378    2.0357  -12.6367 H   0  0  0  0  0  0
   33.7413    5.5125  -13.2994 H   0  0  0  0  0  0
   26.2379    9.2380  -11.0156 H   0  0  0  0  0  0
   26.2850   10.5089   -8.6394 H   0  0  0  0  0  0
   27.8002   11.2495   -9.2577 H   0  0  0  0  0  0
   26.6033   11.0150  -12.0917 H   0  0  0  0  0  0
   25.4418   13.7690  -11.7138 H   0  0  0  0  0  0
   27.4852   13.0527  -13.2810 H   0  0  0  0  0  0
   26.1850   12.6159  -14.4409 H   0  0  0  0  0  0
   26.9442   15.3346  -14.9248 H   0  0  0  0  0  0
   24.0235   10.9753  -11.6253 H   0  0  0  0  0  0
   22.0856   11.3462  -13.8577 H   0  0  0  0  0  0
   21.9717    9.4979  -11.3960 H   0  0  0  0  0  0
   20.8611    9.4038  -12.8047 H   0  0  0  0  0  0
   22.3231    7.7414  -13.3454 H   0  0  0  0  0  0
   23.1614    9.1217  -14.1319 H   0  0  0  0  0  0
   25.7611    7.1785  -12.2595 H   0  0  0  0  0  0
   20.3558   12.6022  -13.9355 H   0  0  0  0  0  0
   18.4555   13.7034  -13.1684 H   0  0  0  0  0  0
   17.8234   11.3601  -12.5247 H   0  0  0  0  0  0
   18.5591   11.6039  -10.9043 H   0  0  0  0  0  0
   17.0027   11.5622   -9.4077 H   0  0  0  0  0  0
   15.4130   12.6030   -9.5475 H   0  0  0  0  0  0
   20.6084   15.1327  -12.6178 H   0  0  0  0  0  0
   20.2107   15.9093   -9.7201 H   0  0  0  0  0  0
   22.6294   16.5534  -11.5313 H   0  0  0  0  0  0
   22.5207   16.8609   -9.7649 H   0  0  0  0  0  0
   22.6232   14.1617  -11.1388 H   0  0  0  0  0  0
   23.9330   14.9715  -10.2139 H   0  0  0  0  0  0
   21.2684   14.0001   -9.1164 H   0  0  0  0  0  0
   22.8802   13.2440   -8.8772 H   0  0  0  0  0  0
   21.8084   15.7713   -7.5649 H   0  0  0  0  0  0
   24.6134   13.4778   -8.1659 H   0  0  0  0  0  0
   25.5562   14.2047   -6.6784 H   0  0  0  0  0  0
   22.9432   16.6287   -5.9220 H   0  0  0  0  0  0
   20.3167   18.0803   -9.0603 H   0  0  0  0  0  0
   19.0307   19.7833  -11.1610 H   0  0  0  0  0  0
   18.1570   19.7456   -8.8102 H   0  0  0  0  0  0
   19.7225   20.3998   -8.2204 H   0  0  0  0  0  0
   16.5459   21.4579  -10.1856 H   0  0  0  0  0  0
   21.1625   22.4489   -8.1827 H   0  0  0  0  0  0
   18.1635   26.2057   -9.6214 H   0  0  0  0  0  0
   21.8684   24.8114   -7.9417 H   0  0  0  0  0  0
   20.3876   26.6564   -8.6519 H   0  0  0  0  0  0
   19.6932   21.7289  -11.9692 H   0  0  0  0  0  0
   22.3333   22.7226  -11.0000 H   0  0  0  0  0  0
   22.7666   21.0105  -12.8891 H   0  0  0  0  0  0
   21.9960   22.1914  -14.0019 H   0  0  0  0  0  0
   24.8297   22.6142  -14.0658 H   0  0  0  0  0  0
   22.6252   24.7652  -11.1473 H   0  0  0  0  0  0
   20.5602   26.6830  -11.5454 H   0  0  0  0  0  0
   23.0353   26.8792  -10.6046 H   0  0  0  0  0  0
   23.5287   27.1823  -12.3050 H   0  0  0  0  0  0
   22.6898   29.2809  -12.3209 H   0  0  0  0  0  0
   21.4361   28.9239  -11.0851 H   0  0  0  0  0  0
   22.9151   30.1789   -9.8198 H   0  0  0  0  0  0
   23.5780   28.5345   -9.5314 H   0  0  0  0  0  0
   25.4225   29.9703   -9.9827 H   0  0  0  0  0  0
   25.1780   28.9647  -11.4509 H   0  0  0  0  0  0
   25.5981   31.3021  -12.0231 H   0  0  0  0  0  0
   24.1860   31.8045  -11.0330 H   0  0  0  0  0  0
   23.9414   30.7988  -12.5012 H   0  0  0  0  0  0
   22.8529   25.4531  -14.0073 H   0  0  0  0  0  0
   22.0296   26.3541  -15.4703 H   0  0  0  0  0  0
  1  2  1  0  0  0
  1108  1  0  0  0
  1109  1  0  0  0
  1110  1  0  0  0
  2  3  1  0  0  0
  2  5  1  0  0  0
  2111  1  0  0  0
  3  4  2  0  0  0
  3  9  1  0  0  0
  5  6  1  0  0  0
  5112  1  0  0  0
  5113  1  0  0  0
  6  7  1  0  0  0
  6  8  1  0  0  0
  6114  1  0  0  0
  7115  1  0  0  0
  7116  1  0  0  0
  7117  1  0  0  0
  8118  1  0  0  0
  8119  1  0  0  0
  8120  1  0  0  0
  9 10  1  0  0  0
  9121  1  0  0  0
 10 11  1  0  0  0
 10 13  1  0  0  0
 10122  1  0  0  0
 11 12  2  0  0  0
 11 15  1  0  0  0
 13 14  1  0  0  0
 13123  1  0  0  0
 13124  1  0  0  0
 14125  1  0  0  0
 15 16  1  0  0  0
 15126  1  0  0  0
 16 17  1  0  0  0
 16 19  1  0  0  0
 16127  1  0  0  0
 17 18  2  0  0  0
 17 21  1  0  0  0
 19 20  1  0  0  0
 19128  1  0  0  0
 19129  1  0  0  0
 20130  1  0  0  0
 21 22  1  0  0  0
 21131  1  0  0  0
 22 23  1  0  0  0
 22 25  1  0  0  0
 22132  1  0  0  0
 23 24  2  0  0  0
 23 29  1  0  0  0
 25 26  1  0  0  0
 25133  1  0  0  0
 25134  1  0  0  0
 26 27  2  0  0  0
 26 28  1  0  0  0
 28135  1  0  0  0
 29 30  1  0  0  0
 29136  1  0  0  0
 30 31  1  0  0  0
 30 33  1  0  0  0
 30137  1  0  0  0
 31 32  2  0  0  0
 31 40  1  0  0  0
 33 34  1  0  0  0
 33138  1  0  0  0
 33139  1  0  0  0
 34 35  1  0  0  0
 34140  1  0  0  0
 34141  1  0  0  0
 35 36  1  0  0  0
 35142  1  0  0  0
 35143  1  0  0  0
 36 37  1  0  0  0
 36144  1  0  0  0
 37 38  1  0  0  0
 37 39  2  0  0  0
 38145  1  0  0  0
 38146  1  0  0  0
 39147  1  0  0  0
 40 41  1  0  0  0
 40148  1  0  0  0
 41 42  1  0  0  0
 41149  1  0  0  0
 41150  1  0  0  0
 42 43  2  0  0  0
 42 44  1  0  0  0
 44 45  1  0  0  0
 44151  1  0  0  0
 45 46  1  0  0  0
 45 48  1  0  0  0
 45152  1  0  0  0
 46 47  2  0  0  0
 46 50  1  0  0  0
 48 49  1  0  0  0
 48153  1  0  0  0
 48154  1  0  0  0
 49155  1  0  0  0
 50 51  1  0  0  0
 50156  1  0  0  0
 51 52  1  0  0  0
 51 54  1  0  0  0
 51157  1  0  0  0
 52 53  2  0  0  0
 52 59  1  0  0  0
 54 55  1  0  0  0
 54158  1  0  0  0
 54159  1  0  0  0
 55 56  1  0  0  0
 55160  1  0  0  0
 55161  1  0  0  0
 56 57  1  0  0  0
 56 58  2  0  0  0
 57162  1  0  0  0
 59 60  1  0  0  0
 59163  1  0  0  0
 60 61  1  0  0  0
 60 63  1  0  0  0
 60164  1  0  0  0
 61 62  2  0  0  0
 61 67  1  0  0  0
 63 64  1  0  0  0
 63165  1  0  0  0
 63166  1  0  0  0
 64 65  2  0  0  0
 64 66  1  0  0  0
 66167  1  0  0  0
 66168  1  0  0  0
 67 68  1  0  0  0
 67169  1  0  0  0
 68 69  1  0  0  0
 68 71  1  0  0  0
 68170  1  0  0  0
 69 70  2  0  0  0
 69 78  1  0  0  0
 71 72  1  0  0  0
 71171  1  0  0  0
 71172  1  0  0  0
 72 73  1  0  0  0
 72173  1  0  0  0
 72174  1  0  0  0
 73 74  1  0  0  0
 73175  1  0  0  0
 73176  1  0  0  0
 74 75  1  0  0  0
 74177  1  0  0  0
 75 76  1  0  0  0
 75 77  2  0  0  0
 76178  1  0  0  0
 76179  1  0  0  0
 77180  1  0  0  0
 78 79  1  0  0  0
 78181  1  0  0  0
 79 80  1  0  0  0
 79 82  1  0  0  0
 79182  1  0  0  0
 80 81  2  0  0  0
 80 92  1  0  0  0
 82 83  1  0  0  0
 82183  1  0  0  0
 82184  1  0  0  0
 83 84  2  0  0  0
 83 85  1  0  0  0
 84 86  1  0  0  0
 84185  1  0  0  0
 85 87  2  0  0  0
 85 88  1  0  0  0
 86 87  1  0  0  0
 87 89  1  0  0  0
 88 90  2  0  0  0
 88186  1  0  0  0
 89 91  2  0  0  0
 89187  1  0  0  0
 90 91  1  0  0  0
 90188  1  0  0  0
 91189  1  0  0  0
 92 93  1  0  0  0
 92190  1  0  0  0
 93 94  1  0  0  0
 93 96  1  0  0  0
 93191  1  0  0  0
 94 95  2  0  0  0
 94 98  1  0  0  0
 96 97  1  0  0  0
 96192  1  0  0  0
 96193  1  0  0  0
 97194  1  0  0  0
 98 99  1  0  0  0
 98195  1  0  0  0
 99100  1  0  0  0
 99102  1  0  0  0
 99196  1  0  0  0
100101  2  0  0  0
100107  1  0  0  0
102103  1  0  0  0
102197  1  0  0  0
102198  1  0  0  0
103104  1  0  0  0
103199  1  0  0  0
103200  1  0  0  0
104105  1  0  0  0
104201  1  0  0  0
104202  1  0  0  0
105106  1  0  0  0
105203  1  0  0  0
105204  1  0  0  0
106205  1  0  0  0
106206  1  0  0  0
106207  1  0  0  0
107208  1  0  0  0
107209  1  0  0  0
M  CHG  2   1   1 106   1
M  END
> <s_m_source_file>
../4mnx_ligand.sdf

> <i_m_source_file_index>
1

> <s_epik_input>
W0NIM11bQ0hdKFtDSDNdKVtDSDJdW0NASF0oW05IMytdKUMoPU8pW05IXVtDQEBIXShbQ0gyXVtTSF0pQyg9TylbTkhdW0NAQEhdKFtDSDJdW09IXSlDKD1PKVtOSF1bQ0BASF0oW0NIMl1DKD1PKVtPSF0pQyg9TylbTkhdW0NAQEhdKFtDSDJdW0NIMl1bQ0gyXVtOSF0vQyhbTkgyXSk9TlxbSF0pQyg9TylbTkhdW0NIMl1DKD1PKVtOSF1bQ0BASF0oW0NIMl1bU0hdKUMoPU8pW05IXVtDQEBIXShbQ0gyXVtDSDJdQyg9TylbT0hdKUMoPU8pW05IXVtDQEBIXShbQ0gyXUMoPU8pW05IMl0pQyg9TylbTkhdW0NAQEhdKFtDSDJdW0NIMl1bQ0gyXVtOSF0vQyhbTkgyXSk9TlxbSF0pQyg9TylbTkhdW0NAQEhdKFtDSDJdYzFbY0hdW25IXWMoYzEyKVtjSF1bY0hdW2NIXVtjSF0yKUMoPU8pW05IXVtDQEBIXShbQ0gyXVtTSF0pQyg9TylbTkhdW0NASF0oQyg9TylbTkgyXSlbQ0gyXVtDSDJdW0NIMl1bQ0gyXVtOSDMrXQ==

> <s_epik_cmdline>
J2VwaWtfYXBwJywgJy1pbWFlJywgJ2xpZ2FuZF9wcm8ubWFlJywgJy1vbWFlJywgJ2xpZ2FuZF9wcmVwLm1hZScsICctbXMnLCAnMScsICctcGgnLCAnNycsICctcGh0JywgJzAuNScsICctbnQn

> <s_epik_pKa_notes>
Molecule size exceeds maximum supported for generating protonation states

> <s_epik_Chemistry_Notes>
This compound has an imine and may undergo hydrolysis.

$$$$
