4mny_ligand
                    3D
 Schrodinger Suite 2020-3.
190193  0  0  1  0            999 V2000
  -31.5000   -4.6150  -26.1850 N   0  3  0  0  0  0
  -32.2720   -3.6980  -27.0710 C   0  0  0  0  0  0
  -31.3540   -2.8820  -27.9550 C   0  0  0  0  0  0
  -30.2690   -3.3390  -28.3200 O   0  0  0  0  0  0
  -31.7820   -1.6710  -28.2950 N   0  0  0  0  0  0
  -30.9930   -0.7940  -29.1520 C   0  0  2  0  0  0
  -30.8220    0.5950  -28.5460 C   0  0  0  0  0  0
  -31.0070    1.6090  -29.2220 O   0  0  0  0  0  0
  -31.6190   -0.7300  -30.5420 C   0  0  0  0  0  0
  -31.2110   -2.1800  -31.5400 S   0  0  0  0  0  0
  -30.4400    0.6260  -27.2710 N   0  0  0  0  0  0
  -30.0840    1.8780  -26.5990 C   0  0  2  0  0  0
  -28.5980    2.1780  -26.7900 C   0  0  0  0  0  0
  -28.1800    3.3330  -26.7470 O   0  0  0  0  0  0
  -30.4060    1.8070  -25.1030 C   0  0  0  0  0  0
  -31.0420    3.0790  -24.5490 C   0  0  0  0  0  0
  -32.4310    3.3900  -25.1030 C   0  0  0  0  0  0
  -32.9370    4.4950  -24.9030 O   0  0  0  0  0  0
  -33.0570    2.4290  -25.7900 N   0  0  0  0  0  0
  -27.7970    1.1360  -26.9810 N   0  0  0  0  0  0
  -26.3800    1.3240  -27.3000 C   0  0  2  0  0  0
  -26.1090    0.8250  -28.7240 C   0  0  0  0  0  0
  -26.3440   -0.3410  -29.0490 O   0  0  0  0  0  0
  -25.4640    0.6440  -26.2630 C   0  0  0  0  0  0
  -23.9920    0.9190  -26.5770 C   0  0  0  0  0  0
  -25.8020    1.1530  -24.8640 C   0  0  0  0  0  0
  -25.6610    1.7460  -29.5710 N   0  0  0  0  0  0
  -25.3530    1.4710  -30.9730 C   0  0  2  0  0  0
  -24.1860    2.3180  -31.4450 C   0  0  0  0  0  0
  -23.7850    3.2620  -30.7710 O   0  0  0  0  0  0
  -26.5330    1.8480  -31.8610 C   0  0  0  0  0  0
  -27.8030    1.1470  -31.4770 C   0  0  0  0  0  0
  -28.0210   -0.0150  -31.8320 O   0  0  0  0  0  0
  -28.6670    1.8590  -30.7570 N   0  0  0  0  0  0
  -23.6740    1.9930  -32.6300 N   0  0  0  0  0  0
  -22.8320    2.9150  -33.3750 C   0  0  2  0  0  0
  -23.6340    4.1750  -33.6850 C   0  0  0  0  0  0
  -23.1660    5.2920  -33.4590 O   0  0  0  0  0  0
  -22.3270    2.2870  -34.6890 C   0  0  0  0  0  0
  -21.5510    3.2620  -35.5450 C   0  0  0  0  0  0
  -20.2890    3.7120  -35.1620 C   0  0  0  0  0  0
  -22.0860    3.7500  -36.7400 C   0  0  0  0  0  0
  -19.5970    4.6280  -35.9400 C   0  0  0  0  0  0
  -21.4010    4.6550  -37.5260 C   0  0  0  0  0  0
  -20.1570    5.0960  -37.1230 C   0  0  0  0  0  0
  -19.4890    6.0080  -37.9150 O   0  0  0  0  0  0
  -24.8410    3.9790  -34.2130 N   0  0  0  0  0  0
  -25.6930    5.0910  -34.6390 C   0  0  2  0  0  0
  -27.1450    4.7210  -34.4030 C   0  0  0  0  0  0
  -27.4830    3.5400  -34.4710 O   0  0  0  0  0  0
  -25.4720    5.4170  -36.1310 C   0  0  0  0  0  0
  -25.5330    4.0150  -37.2860 S   0  0  0  0  0  0
  -28.0010    5.7170  -34.1030 N   0  0  0  0  0  0
  -29.4310    5.4440  -33.8630 C   0  0  2  0  0  0
  -30.0900    4.5000  -34.8730 C   0  0  0  0  0  0
  -29.9220    4.6660  -36.0810 O   0  0  0  0  0  0
  -30.0550    6.8360  -33.9430 C   0  0  0  0  0  0
  -29.0070    7.7090  -33.3710 C   0  0  0  0  0  0
  -27.6900    7.1390  -33.8670 C   0  0  0  0  0  0
  -30.8540    3.5120  -34.3820 N   0  0  0  0  0  0
  -31.4530    2.5260  -35.2800 C   0  0  2  0  0  0
  -32.3000    3.1140  -36.4080 C   0  0  0  0  0  0
  -32.9730    4.1390  -36.2310 O   0  0  0  0  0  0
  -32.3010    1.6700  -34.3480 C   0  0  0  0  0  0
  -31.6200    1.7770  -33.0380 C   0  0  0  0  0  0
  -31.0880    3.1750  -32.9680 C   0  0  0  0  0  0
  -32.2260    2.4510  -37.5540 N   0  0  0  0  0  0
  -32.9980    2.7700  -38.7450 C   0  0  2  0  0  0
  -33.9350    1.5840  -39.0560 C   0  0  0  0  0  0
  -33.5160    0.4270  -38.9940 O   0  0  0  0  0  0
  -32.0320    3.0510  -39.9130 C   0  0  0  0  0  0
  -32.7650    3.1390  -41.2440 C   0  0  0  0  0  0
  -31.2580    4.3300  -39.6360 C   0  0  0  0  0  0
  -35.2300    1.8530  -39.3400 N   0  0  0  0  0  0
  -36.0890    0.7200  -39.6800 C   0  0  2  0  0  0
  -35.5870   -0.1140  -40.8620 C   0  0  0  0  0  0
  -35.1030    0.4300  -41.8630 O   0  0  0  0  0  0
  -37.4320    1.3890  -40.0090 C   0  0  0  0  0  0
  -37.4280    2.6300  -39.1920 C   0  0  0  0  0  0
  -36.0060    3.1000  -39.1920 C   0  0  0  0  0  0
  -35.6960   -1.4300  -40.7290 N   0  0  0  0  0  0
  -35.1500   -2.3510  -41.7200 C   0  0  2  0  0  0
  -36.0170   -2.4870  -42.9790 C   0  0  0  0  0  0
  -37.2690   -2.3960  -42.9260 O   0  0  0  0  0  0
  -34.9130   -3.7280  -41.0890 C   0  0  0  0  0  0
  -33.9600   -3.7190  -39.5450 S   0  0  0  0  0  0
  -35.3410   -2.7200  -44.1010 N   0  0  0  0  0  0
  -35.9710   -3.0610  -45.3760 C   0  0  2  0  0  0
  -35.4200   -4.3720  -45.9160 C   0  0  0  0  0  0
  -36.1790   -5.2130  -46.4110 O   0  0  0  0  0  0
  -35.7390   -1.9650  -46.4200 C   0  0  0  0  0  0
  -36.3350   -0.5880  -46.1500 C   0  0  0  0  0  0
  -35.8610    0.4040  -47.2040 C   0  0  0  0  0  0
  -37.8530   -0.6430  -46.1120 C   0  0  0  0  0  0
  -34.1000   -4.5450  -45.8240 N   0  0  0  0  0  0
  -32.1962   -5.1912  -25.5579 H   0  0  0  0  0  0
  -30.8296   -4.0256  -25.5423 H   0  0  0  0  0  0
  -30.9045   -5.3049  -26.8010 H   0  0  0  0  0  0
  -32.9424   -4.2874  -27.7137 H   0  0  0  0  0  0
  -32.8675   -3.0081  -26.4550 H   0  0  0  0  0  0
  -32.7574   -1.3349  -27.9133 H   0  0  0  0  0  0
  -29.9962   -1.2555  -29.2105 H   0  0  0  0  0  0
  -32.7137   -0.6757  -30.4490 H   0  0  0  0  0  0
  -31.2511    0.1627  -31.0691 H   0  0  0  0  0  0
  -31.5963   -2.2672  -32.5666 H   0  0  0  0  0  0
  -30.3959   -0.3254  -26.7207 H   0  0  0  0  0  0
  -30.6973    2.6545  -27.0795 H   0  0  0  0  0  0
  -31.1104    0.9825  -24.9183 H   0  0  0  0  0  0
  -29.4796    1.6316  -24.5364 H   0  0  0  0  0  0
  -31.1468    2.9911  -23.4575 H   0  0  0  0  0  0
  -30.4034    3.9422  -24.7877 H   0  0  0  0  0  0
  -32.5678    1.4561  -25.9451 H   0  0  0  0  0  0
  -34.0613    2.6113  -26.2002 H   0  0  0  0  0  0
  -28.2118    0.1207  -26.8966 H   0  0  0  0  0  0
  -26.1977    2.4074  -27.2461 H   0  0  0  0  0  0
  -25.6259   -0.4434  -26.2987 H   0  0  0  0  0  0
  -23.7571    0.5494  -27.5861 H   0  0  0  0  0  0
  -23.3576    0.4037  -25.8408 H   0  0  0  0  0  0
  -23.8031    2.0016  -26.5298 H   0  0  0  0  0  0
  -26.8613    0.9515  -24.6465 H   0  0  0  0  0  0
  -25.6169    2.2361  -24.8133 H   0  0  0  0  0  0
  -25.1714    0.6382  -24.1242 H   0  0  0  0  0  0
  -25.5247    2.7598  -29.1666 H   0  0  0  0  0  0
  -25.1228    0.3958  -31.0031 H   0  0  0  0  0  0
  -26.7142    2.9306  -31.7898 H   0  0  0  0  0  0
  -26.3067    1.5819  -32.9041 H   0  0  0  0  0  0
  -28.4221    2.8915  -30.4673 H   0  0  0  0  0  0
  -29.6259    1.4149  -30.4517 H   0  0  0  0  0  0
  -23.9017    0.9995  -33.0436 H   0  0  0  0  0  0
  -21.9783    3.1324  -32.7162 H   0  0  0  0  0  0
  -21.6636    1.4402  -34.4594 H   0  0  0  0  0  0
  -23.1847    1.9314  -35.2788 H   0  0  0  0  0  0
  -19.8408    3.3399  -34.2407 H   0  0  0  0  0  0
  -23.0700    3.4072  -37.0600 H   0  0  0  0  0  0
  -18.6151    4.9806  -35.6242 H   0  0  0  0  0  0
  -21.8386    5.0178  -38.4561 H   0  0  0  0  0  0
  -18.4962    6.3741  -37.6146 H   0  0  0  0  0  0
  -25.1924    2.9427  -34.3250 H   0  0  0  0  0  0
  -25.4099    5.9544  -34.0191 H   0  0  0  0  0  0
  -26.2464    6.1202  -36.4713 H   0  0  0  0  0  0
  -24.4795    5.8723  -36.2638 H   0  0  0  0  0  0
  -25.3830    4.1825  -38.3628 H   0  0  0  0  0  0
  -29.5374    4.9222  -32.9005 H   0  0  0  0  0  0
  -30.2782    7.0780  -34.9926 H   0  0  0  0  0  0
  -30.9854    6.8550  -33.3565 H   0  0  0  0  0  0
  -29.1566    8.7404  -33.7229 H   0  0  0  0  0  0
  -29.0678    7.6838  -32.2730 H   0  0  0  0  0  0
  -26.8890    7.2196  -33.1174 H   0  0  0  0  0  0
  -27.3597    7.6032  -34.8080 H   0  0  0  0  0  0
  -30.6419    1.9947  -35.7995 H   0  0  0  0  0  0
  -33.3256    2.0688  -34.3147 H   0  0  0  0  0  0
  -32.3224    0.6347  -34.7191 H   0  0  0  0  0  0
  -32.3433    1.5844  -32.2319 H   0  0  0  0  0  0
  -30.8073    1.0376  -32.9857 H   0  0  0  0  0  0
  -30.1398    3.2391  -32.4140 H   0  0  0  0  0  0
  -31.8126    3.8819  -32.5376 H   0  0  0  0  0  0
  -31.5203    1.6072  -37.5656 H   0  0  0  0  0  0
  -33.5890    3.6731  -38.5325 H   0  0  0  0  0  0
  -31.3210    2.2163  -40.0006 H   0  0  0  0  0  0
  -33.3163    2.2038  -41.4215 H   0  0  0  0  0  0
  -32.0371    3.2949  -42.0538 H   0  0  0  0  0  0
  -33.4713    3.9819  -41.2186 H   0  0  0  0  0  0
  -30.7379    4.2421  -38.6707 H   0  0  0  0  0  0
  -31.9552    5.1801  -39.6008 H   0  0  0  0  0  0
  -30.5209    4.4931  -40.4361 H   0  0  0  0  0  0
  -36.1020    0.0192  -38.8322 H   0  0  0  0  0  0
  -37.4804    1.6035  -41.0868 H   0  0  0  0  0  0
  -38.2554    0.7142  -39.7321 H   0  0  0  0  0  0
  -38.0979    3.3726  -39.6500 H   0  0  0  0  0  0
  -37.7765    2.4001  -38.1743 H   0  0  0  0  0  0
  -35.7289    3.5946  -38.2494 H   0  0  0  0  0  0
  -35.7870    3.7705  -40.0361 H   0  0  0  0  0  0
  -36.2151   -1.8213  -39.8416 H   0  0  0  0  0  0
  -34.2028   -1.8742  -42.0124 H   0  0  0  0  0  0
  -35.8808   -4.1960  -40.8560 H   0  0  0  0  0  0
  -34.3585   -4.3642  -41.7946 H   0  0  0  0  0  0
  -33.7445   -4.6647  -39.0261 H   0  0  0  0  0  0
  -34.2458   -2.6436  -44.0317 H   0  0  0  0  0  0
  -37.0416   -3.1565  -45.1419 H   0  0  0  0  0  0
  -34.6589   -1.7930  -46.5372 H   0  0  0  0  0  0
  -36.1668   -2.2797  -47.3833 H   0  0  0  0  0  0
  -35.9907   -0.2498  -45.1615 H   0  0  0  0  0  0
  -34.7613    0.4290  -47.2157 H   0  0  0  0  0  0
  -36.2481    1.4056  -46.9652 H   0  0  0  0  0  0
  -36.2313    0.0938  -48.1923 H   0  0  0  0  0  0
  -38.1747   -1.3638  -45.3459 H   0  0  0  0  0  0
  -38.2332   -0.9584  -47.0948 H   0  0  0  0  0  0
  -38.2500    0.3534  -45.8678 H   0  0  0  0  0  0
  -33.4727   -3.7617  -45.3734 H   0  0  0  0  0  0
  -33.6392   -5.4709  -46.1987 H   0  0  0  0  0  0
  1  2  1  0  0  0
  1 96  1  0  0  0
  1 97  1  0  0  0
  1 98  1  0  0  0
  2  3  1  0  0  0
  2 99  1  0  0  0
  2100  1  0  0  0
  3  4  2  0  0  0
  3  5  1  0  0  0
  5  6  1  0  0  0
  5101  1  0  0  0
  6  7  1  0  0  0
  6  9  1  0  0  0
  6102  1  0  0  0
  7  8  2  0  0  0
  7 11  1  0  0  0
  9 10  1  0  0  0
  9103  1  0  0  0
  9104  1  0  0  0
 10105  1  0  0  0
 11 12  1  0  0  0
 11106  1  0  0  0
 12 13  1  0  0  0
 12 15  1  0  0  0
 12107  1  0  0  0
 13 14  2  0  0  0
 13 20  1  0  0  0
 15 16  1  0  0  0
 15108  1  0  0  0
 15109  1  0  0  0
 16 17  1  0  0  0
 16110  1  0  0  0
 16111  1  0  0  0
 17 18  2  0  0  0
 17 19  1  0  0  0
 19112  1  0  0  0
 19113  1  0  0  0
 20 21  1  0  0  0
 20114  1  0  0  0
 21 22  1  0  0  0
 21 24  1  0  0  0
 21115  1  0  0  0
 22 23  2  0  0  0
 22 27  1  0  0  0
 24 25  1  0  0  0
 24 26  1  0  0  0
 24116  1  0  0  0
 25117  1  0  0  0
 25118  1  0  0  0
 25119  1  0  0  0
 26120  1  0  0  0
 26121  1  0  0  0
 26122  1  0  0  0
 27 28  1  0  0  0
 27123  1  0  0  0
 28 29  1  0  0  0
 28 31  1  0  0  0
 28124  1  0  0  0
 29 30  2  0  0  0
 29 35  1  0  0  0
 31 32  1  0  0  0
 31125  1  0  0  0
 31126  1  0  0  0
 32 33  2  0  0  0
 32 34  1  0  0  0
 34127  1  0  0  0
 34128  1  0  0  0
 35 36  1  0  0  0
 35129  1  0  0  0
 36 37  1  0  0  0
 36 39  1  0  0  0
 36130  1  0  0  0
 37 38  2  0  0  0
 37 47  1  0  0  0
 39 40  1  0  0  0
 39131  1  0  0  0
 39132  1  0  0  0
 40 41  2  0  0  0
 40 42  1  0  0  0
 41 43  1  0  0  0
 41133  1  0  0  0
 42 44  2  0  0  0
 42134  1  0  0  0
 43 45  2  0  0  0
 43135  1  0  0  0
 44 45  1  0  0  0
 44136  1  0  0  0
 45 46  1  0  0  0
 46137  1  0  0  0
 47 48  1  0  0  0
 47138  1  0  0  0
 48 49  1  0  0  0
 48 51  1  0  0  0
 48139  1  0  0  0
 49 50  2  0  0  0
 49 53  1  0  0  0
 51 52  1  0  0  0
 51140  1  0  0  0
 51141  1  0  0  0
 52142  1  0  0  0
 53 54  1  0  0  0
 53 59  1  0  0  0
 54 55  1  0  0  0
 54 57  1  0  0  0
 54143  1  0  0  0
 55 56  2  0  0  0
 55 60  1  0  0  0
 57 58  1  0  0  0
 57144  1  0  0  0
 57145  1  0  0  0
 58 59  1  0  0  0
 58146  1  0  0  0
 58147  1  0  0  0
 59148  1  0  0  0
 59149  1  0  0  0
 60 61  1  0  0  0
 60 66  1  0  0  0
 61 62  1  0  0  0
 61 64  1  0  0  0
 61150  1  0  0  0
 62 63  2  0  0  0
 62 67  1  0  0  0
 64 65  1  0  0  0
 64151  1  0  0  0
 64152  1  0  0  0
 65 66  1  0  0  0
 65153  1  0  0  0
 65154  1  0  0  0
 66155  1  0  0  0
 66156  1  0  0  0
 67 68  1  0  0  0
 67157  1  0  0  0
 68 69  1  0  0  0
 68 71  1  0  0  0
 68158  1  0  0  0
 69 70  2  0  0  0
 69 74  1  0  0  0
 71 72  1  0  0  0
 71 73  1  0  0  0
 71159  1  0  0  0
 72160  1  0  0  0
 72161  1  0  0  0
 72162  1  0  0  0
 73163  1  0  0  0
 73164  1  0  0  0
 73165  1  0  0  0
 74 75  1  0  0  0
 74 80  1  0  0  0
 75 76  1  0  0  0
 75 78  1  0  0  0
 75166  1  0  0  0
 76 77  2  0  0  0
 76 81  1  0  0  0
 78 79  1  0  0  0
 78167  1  0  0  0
 78168  1  0  0  0
 79 80  1  0  0  0
 79169  1  0  0  0
 79170  1  0  0  0
 80171  1  0  0  0
 80172  1  0  0  0
 81 82  1  0  0  0
 81173  1  0  0  0
 82 83  1  0  0  0
 82 85  1  0  0  0
 82174  1  0  0  0
 83 84  2  0  0  0
 83 87  1  0  0  0
 85 86  1  0  0  0
 85175  1  0  0  0
 85176  1  0  0  0
 86177  1  0  0  0
 87 88  1  0  0  0
 87178  1  0  0  0
 88 89  1  0  0  0
 88 91  1  0  0  0
 88179  1  0  0  0
 89 90  2  0  0  0
 89 95  1  0  0  0
 91 92  1  0  0  0
 91180  1  0  0  0
 91181  1  0  0  0
 92 93  1  0  0  0
 92 94  1  0  0  0
 92182  1  0  0  0
 93183  1  0  0  0
 93184  1  0  0  0
 93185  1  0  0  0
 94186  1  0  0  0
 94187  1  0  0  0
 94188  1  0  0  0
 95189  1  0  0  0
 95190  1  0  0  0
M  CHG  1   1   1
M  END
> <s_m_source_file>
../4mny_ligand.sdf

> <i_m_source_file_index>
1

> <s_epik_input>
W05IMytdW0NIMl1DKD1PKVtOSF1bQ0BASF0oW0NIMl1bU0hdKUMoPU8pW05IXVtDQEBIXShbQ0gyXVtDSDJdQyg9TylbTkgyXSlDKD1PKVtOSF1bQ0BASF0oW0NIXShbQ0gzXSlbQ0gzXSlDKD1PKVtOSF1bQ0BASF0oW0NIMl1DKD1PKVtOSDJdKUMoPU8pW05IXVtDQEBIXShbQ0gyXWMxW2NIXVtjSF1jKFtPSF0pW2NIXVtjSF0xKUMoPU8pW05IXVtDQEBIXShbQ0gyXVtTSF0pQyg9TylOMltDQEBIXShbQ0gyXVtDSDJdW0NIMl0yKUMoPU8pTjNbQ0BASF0oW0NIMl1bQ0gyXVtDSDJdMylDKD1PKVtOSF1bQ0BASF0oW0NIXShbQ0gzXSlbQ0gzXSlDKD1PKU40W0NAQEhdKFtDSDJdW0NIMl1bQ0gyXTQpQyg9TylbTkhdW0NAQEhdKFtDSDJdW1NIXSlDKD1PKVtOSF1bQ0BIXShDKD1PKVtOSDJdKVtDSDJdW0NIXShbQ0gzXSlbQ0gzXQ==

> <s_epik_cmdline>
J2VwaWtfYXBwJywgJy1pbWFlJywgJ2xpZ2FuZF9wcm8ubWFlJywgJy1vbWFlJywgJ2xpZ2FuZF9wcmVwLm1hZScsICctbXMnLCAnMScsICctcGgnLCAnNycsICctcGh0JywgJzAuNScsICctbnQn

> <s_epik_pKa_notes>
Molecule size exceeds maximum supported for generating protonation states

$$$$
