4mo8_ligand
                    3D
 Schrodinger Suite 2020-3.
 27 27  0  0  1  0            999 V2000
   -5.2720    1.0160   16.3920 S   0  0  0  0  0  0
   -4.6950    1.3190   17.6640 O   0  0  0  0  0  0
   -6.6160    1.4200   16.1170 O   0  0  0  0  0  0
   -4.2660    1.7550   15.3610 N   0  0  3  0  0  0
   -4.3770    1.4240   13.9240 C   0  0  0  0  0  0
   -4.7620    2.6430   13.1590 C   0  0  0  0  0  0
   -3.0370    5.6360   14.2580 N   0  0  0  0  0  0
   -1.8430    3.0400   12.0910 N   0  3  0  0  0  0
   -2.5170    3.8890   12.9950 C   0  0  0  0  0  0
   -2.0460    5.0460   13.5560 C   0  0  0  0  0  0
   -4.0960    4.8550   14.1470 C   0  0  0  0  0  0
   -5.3780    5.0870   14.8300 C   0  0  0  0  0  0
   -3.8330    3.7600   13.3880 N   0  0  0  0  0  0
   -0.6440    3.2610   11.9030 O   0  0  0  0  0  0
   -2.4650    2.1620   11.4940 O   0  5  0  0  0  0
   -5.1640   -0.5580   16.1400 N   0  0  0  0  0  0
   -3.4169    2.3530   15.7237 H   0  0  0  0  0  0
   -3.4086    1.0529   13.5574 H   0  0  0  0  0  0
   -5.1437    0.6476   13.7847 H   0  0  0  0  0  0
   -4.7633    2.4153   12.0828 H   0  0  0  0  0  0
   -5.7673    2.9666   13.4665 H   0  0  0  0  0  0
   -1.0312    5.4300   13.4522 H   0  0  0  0  0  0
   -5.3353    6.0412   15.3756 H   0  0  0  0  0  0
   -5.5695    4.2677   15.5385 H   0  0  0  0  0  0
   -6.1878    5.1256   14.0865 H   0  0  0  0  0  0
   -5.8390   -1.0868   16.8290 H   0  0  0  0  0  0
   -4.1292   -0.8873   16.3156 H   0  0  0  0  0  0
  1  2  2  0  0  0
  1  3  2  0  0  0
  1  4  1  0  0  0
  1 16  1  0  0  0
  4  5  1  0  0  0
  4 17  1  0  0  0
  5  6  1  0  0  0
  5 18  1  0  0  0
  5 19  1  0  0  0
  6 13  1  0  0  0
  6 20  1  0  0  0
  6 21  1  0  0  0
  7 10  1  0  0  0
  7 11  2  0  0  0
  8  9  1  0  0  0
  8 14  2  0  0  0
  8 15  1  0  0  0
  9 10  2  0  0  0
  9 13  1  0  0  0
 10 22  1  0  0  0
 11 12  1  0  0  0
 11 13  1  0  0  0
 12 23  1  0  0  0
 12 24  1  0  0  0
 12 25  1  0  0  0
 16 26  1  0  0  0
 16 27  1  0  0  0
M  CHG  2   8   1  15  -1
M  END
> <s_m_source_file>
../4mo8_ligand.sdf

> <i_m_source_file_index>
1

> <s_epik_input>
Tz1TKD1PKShbTkgyXSlbTkhdW0NIMl1bQ0gyXW4xYyhbQ0gzXSluW2NIXWMxW04rXSg9TylbTy1d

> <s_epik_cmdline>
J2VwaWtfYXBwJywgJy1pbWFlJywgJ2xpZ2FuZF9wcm8ubWFlJywgJy1vbWFlJywgJ2xpZ2FuZF9wcmVwLm1hZScsICctbXMnLCAnMScsICctcGgnLCAnNycsICctcGh0JywgJzAuNScsICctbnQn

> <r_lp_tautomer_probability>
1

> <r_epik_Ionization_Penalty>
  0.1289

> <r_epik_Ionization_Penalty_Charging>
  0.0000

> <r_epik_Ionization_Penalty_Neutral>
  0.1289

> <r_epik_State_Penalty>
 -0.0000

> <r_epik_Charging_Adjusted_Penalty>
4.2909753614764e-06

> <i_epik_Tot_Q>
0

> <i_epik_Tot_abs_Q>
2

$$$$
