4mot_ligand
                    3D
 Schrodinger Suite 2020-3.
 51 53  0  0  1  0            999 V2000
   17.3410   24.7710    7.5040 C   0  0  0  0  0  0
   16.9490   25.2050    6.0970 C   0  0  0  0  0  0
   18.0980   25.9330    5.4100 C   0  0  0  0  0  0
   15.0000   28.2980    7.2210 N   0  0  0  0  0  0
   13.9380   28.2930    8.0940 C   0  0  0  0  0  0
   12.9760   29.4440    8.0510 C   0  0  0  0  0  0
   13.1740   30.4420    7.1660 C   0  0  0  0  0  0
   14.2830   30.4150    6.2790 C   0  0  0  0  0  0
   15.1430   29.3640    6.3530 C   0  0  0  0  0  0
   15.7120   31.0180    4.7270 C   0  0  0  0  0  0
   19.1940   32.3240    1.5770 C   0  0  0  0  0  0
   19.8440   33.6390    1.4570 C   0  0  0  0  0  0
   19.2530   34.7780    1.8210 C   0  0  0  0  0  0
   11.0080   28.3350    9.0150 C   0  0  0  0  0  0
   15.7450   26.1430    6.2170 C   0  0  0  0  0  0
   15.9630   27.1970    7.2770 C   0  0  0  0  0  0
   13.7930   27.3560    8.8840 O   0  0  0  0  0  0
   16.4320   29.5110    5.2070 S   0  0  0  0  0  0
   14.6140   31.3610    5.3540 N   0  0  0  0  0  0
   16.2370   31.8000    3.7270 N   0  0  0  0  0  0
   17.4640   31.4930    3.1430 C   0  0  0  0  0  0
   18.1330   30.5290    3.5110 O   0  0  0  0  0  0
   17.8230   32.3620    2.1500 N   0  0  0  0  0  0
   11.8230   29.4480    8.9690 C   0  0  0  0  0  0
    9.9500   28.3670    9.9040 C   0  0  0  0  0  0
    9.7670   29.4800   10.6880 C   0  0  0  0  0  0
   10.5230   30.5890   10.6770 N   0  0  0  0  0  0
   11.5360   30.5090    9.7910 C   0  0  0  0  0  0
   18.2063   24.0939    7.4511 H   0  0  0  0  0  0
   16.4953   24.2491    7.9757 H   0  0  0  0  0  0
   17.6044   25.6567    8.1009 H   0  0  0  0  0  0
   16.7065   24.3185    5.4926 H   0  0  0  0  0  0
   18.9617   25.2571    5.3250 H   0  0  0  0  0  0
   18.3799   26.8154    6.0032 H   0  0  0  0  0  0
   17.7818   26.2520    4.4059 H   0  0  0  0  0  0
   12.4757   31.2782    7.1310 H   0  0  0  0  0  0
   19.7249   31.4165    1.2535 H   0  0  0  0  0  0
   20.8639   33.7135    1.0516 H   0  0  0  0  0  0
   19.9356   35.6206    1.6362 H   0  0  0  0  0  0
   19.0038   34.7359    2.8916 H   0  0  0  0  0  0
   18.3322   34.9168    1.2354 H   0  0  0  0  0  0
   11.1906   27.4692    8.3785 H   0  0  0  0  0  0
   15.5768   26.6487    5.2547 H   0  0  0  0  0  0
   14.8516   25.5603    6.4860 H   0  0  0  0  0  0
   16.9803   27.5924    7.1404 H   0  0  0  0  0  0
   15.8921   26.6972    8.2543 H   0  0  0  0  0  0
   15.6870   32.6851    3.3749 H   0  0  0  0  0  0
   17.0904   33.0921    1.7755 H   0  0  0  0  0  0
    9.2692   27.5193    9.9820 H   0  0  0  0  0  0
    8.9289   29.4608   11.3847 H   0  0  0  0  0  0
   12.1941   31.3751    9.7203 H   0  0  0  0  0  0
  1  2  1  0  0  0
  1 29  1  0  0  0
  1 30  1  0  0  0
  1 31  1  0  0  0
  2  3  1  0  0  0
  2 15  1  0  0  0
  2 32  1  0  0  0
  3 33  1  0  0  0
  3 34  1  0  0  0
  3 35  1  0  0  0
  4  5  1  0  0  0
  4  9  1  0  0  0
  4 16  1  0  0  0
  5  6  1  0  0  0
  5 17  2  0  0  0
  6  7  2  0  0  0
  6 24  1  0  0  0
  7  8  1  0  0  0
  7 36  1  0  0  0
  8  9  2  0  0  0
  8 19  1  0  0  0
  9 18  1  0  0  0
 10 18  1  0  0  0
 10 19  2  0  0  0
 10 20  1  0  0  0
 11 12  2  0  0  0
 11 23  1  0  0  0
 11 37  1  0  0  0
 12 13  1  0  0  0
 12 38  1  0  0  0
 13 39  1  0  0  0
 13 40  1  0  0  0
 13 41  1  0  0  0
 14 24  2  0  0  0
 14 25  1  0  0  0
 14 42  1  0  0  0
 15 16  1  0  0  0
 15 43  1  0  0  0
 15 44  1  0  0  0
 16 45  1  0  0  0
 16 46  1  0  0  0
 20 21  1  0  0  0
 20 47  1  0  0  0
 21 22  2  0  0  0
 21 23  1  0  0  0
 23 48  1  0  0  0
 24 28  1  0  0  0
 25 26  2  0  0  0
 25 49  1  0  0  0
 26 27  1  0  0  0
 26 50  1  0  0  0
 27 28  2  0  0  0
 28 51  1  0  0  0
M  END
> <s_m_source_file>
../4mot_ligand.sdf

> <i_m_source_file_index>
1

> <s_epik_input>
W2NIXTFuW2NIXVtjSF1bY0hdYzEtYyhbY0hdMiljKD1PKW4oW0NIMl1bQ0gyXVtDSF0oW0NIM10pW0NIM10pYyhjMjMpc2MobjMpW05IXUMoPU8pW05IXS9bQ0hdPVtDSF1cW0NIM10=

> <s_epik_cmdline>
J2VwaWtfYXBwJywgJy1pbWFlJywgJ2xpZ2FuZF9wcm8ubWFlJywgJy1vbWFlJywgJ2xpZ2FuZF9wcmVwLm1hZScsICctbXMnLCAnMScsICctcGgnLCAnNycsICctcGh0JywgJzAuNScsICctbnQn

> <r_epik_Ionization_Penalty>
  0.3815

> <r_epik_Ionization_Penalty_Charging>
  0.0000

> <r_epik_Ionization_Penalty_Neutral>
  0.3815

> <r_epik_State_Penalty>
  0.3793

> <r_epik_Charging_Adjusted_Penalty>
0.37933480848517

> <i_epik_Tot_Q>
0

> <i_epik_Tot_abs_Q>
0

$$$$
