4mp2_ligand
                    3D
 Schrodinger Suite 2020-3.
 31 33  0  0  1  0            999 V2000
   18.9170    1.8330  -38.5440 C   0  0  0  0  0  0
   17.8000    2.4780  -38.0080 C   0  0  0  0  0  0
   12.4710    0.0320  -38.1640 O   0  0  0  0  0  0
   16.6290    1.7440  -37.9230 C   0  0  0  0  0  0
   16.5870    0.3570  -38.3750 C   0  0  0  0  0  0
   10.2290    5.7420  -36.3990 O   0  0  0  0  0  0
   17.7110   -0.2640  -38.9030 C   0  0  0  0  0  0
   11.7500    2.6670  -39.8010 O   0  5  0  0  0  0
   18.8780    0.4990  -38.9810 C   0  0  0  0  0  0
   14.4360    1.0000  -37.7970 N   0  0  0  0  0  0
   15.2050   -0.1990  -38.1810 C   0  0  0  0  0  0
   15.2720    2.1590  -37.4130 C   0  0  0  0  0  0
   13.1010    1.0170  -37.8230 C   0  0  0  0  0  0
   11.4030    4.4360  -34.0480 Br  0  0  0  0  0  0
   11.5560    3.8060  -35.8180 C   0  0  0  0  0  0
   10.8860    4.6200  -36.8500 C   0  0  0  0  0  0
   10.9610    4.2310  -38.1940 C   0  0  0  0  0  0
   11.6640    3.0750  -38.5130 C   0  0  0  0  0  0
   12.2630    2.6550  -36.1260 C   0  0  0  0  0  0
   12.3510    2.2700  -37.4560 C   0  0  0  0  0  0
   19.8531    2.3853  -38.6261 H   0  0  0  0  0  0
   17.8480    3.5136  -37.6714 H   0  0  0  0  0  0
   10.2170    5.9777  -35.3246 H   0  0  0  0  0  0
   17.6837   -1.2998  -39.2412 H   0  0  0  0  0  0
   19.7814    0.0478  -39.3914 H   0  0  0  0  0  0
   14.8556   -0.6495  -39.1218 H   0  0  0  0  0  0
   15.2256   -0.9659  -37.3927 H   0  0  0  0  0  0
   15.3211    2.3151  -36.3252 H   0  0  0  0  0  0
   14.9660    3.0945  -37.9042 H   0  0  0  0  0  0
   10.4786    4.8220  -38.9725 H   0  0  0  0  0  0
   12.7388    2.0659  -35.3420 H   0  0  0  0  0  0
  1  2  2  0  0  0
  1  9  1  0  0  0
  1 21  1  0  0  0
  2  4  1  0  0  0
  2 22  1  0  0  0
  3 13  2  0  0  0
  4  5  2  0  0  0
  4 12  1  0  0  0
  5  7  1  0  0  0
  5 11  1  0  0  0
  6 16  1  0  0  0
  6 23  1  0  0  0
  7  9  2  0  0  0
  7 24  1  0  0  0
  8 18  1  0  0  0
  9 25  1  0  0  0
 10 11  1  0  0  0
 10 12  1  0  0  0
 10 13  1  0  0  0
 11 26  1  0  0  0
 11 27  1  0  0  0
 12 28  1  0  0  0
 12 29  1  0  0  0
 13 20  1  0  0  0
 14 15  1  0  0  0
 15 16  2  0  0  0
 15 19  1  0  0  0
 16 17  1  0  0  0
 17 18  2  0  0  0
 17 30  1  0  0  0
 18 20  1  0  0  0
 19 20  2  0  0  0
 19 31  1  0  0  0
M  CHG  1   8  -1
M  END
> <s_m_source_file>
../4mp2_ligand.sdf

> <i_m_source_file_index>
1

> <s_epik_input>
W2NIXTFbY0hdW2NIXVtjSF1jKGMxMilbQ0gyXU4oW0NIMl0yKUMoPU8pYyhbY0hdMyljKFtPSF0pW2NIXWMoW09IXSljM0Jy

> <s_epik_cmdline>
J2VwaWtfYXBwJywgJy1pbWFlJywgJ2xpZ2FuZF9wcm8ubWFlJywgJy1vbWFlJywgJ2xpZ2FuZF9wcmVwLm1hZScsICctbXMnLCAnMScsICctcGgnLCAnNycsICctcGh0JywgJzAuNScsICctbnQn

> <r_epik_Ionization_Penalty>
  0.2257

> <r_epik_Ionization_Penalty_Charging>
  0.2144

> <r_epik_Ionization_Penalty_Neutral>
  0.0113

> <r_epik_State_Penalty>
  0.3542

> <r_epik_Charging_Adjusted_Penalty>
0.568582478102396

> <i_epik_Tot_Q>
-1

> <i_epik_Tot_abs_Q>
1

$$$$
