4mpe_ligand
                    3D
 Schrodinger Suite 2020-3.
 31 33  0  0  1  0            999 V2000
   15.0350    2.2380  -37.0670 C   0  0  0  0  0  0
   11.6050    2.4720  -38.9340 O   0  5  0  0  0  0
   11.4320    3.0810  -37.7410 C   0  0  0  0  0  0
   10.7350    4.3000  -37.6560 C   0  0  0  0  0  0
   10.5880    4.8910  -36.4020 C   0  0  0  0  0  0
    9.9640    6.0470  -36.3110 O   0  0  0  0  0  0
   11.1020    4.3400  -35.2390 C   0  0  0  0  0  0
   11.8030    3.1190  -35.3050 C   0  0  0  0  0  0
   11.9450    2.5240  -36.5670 C   0  0  3  0  0  0
   12.8290    1.0200  -36.6230 S   0  0  0  0  0  0
   14.1500    1.2570  -37.6340 N   0  0  0  0  0  0
   16.3860    1.8950  -37.6350 C   0  0  0  0  0  0
   16.3010    0.6250  -38.1810 C   0  0  0  0  0  0
   17.3990    0.0300  -38.8020 C   0  0  0  0  0  0
   18.5850    0.7450  -38.8440 C   0  0  0  0  0  0
   19.6670    0.1640  -39.4320 O   0  0  0  0  0  0
   18.6920    2.0670  -38.2790 C   0  0  0  0  0  0
   17.6310    2.6400  -37.6810 C   0  0  0  0  0  0
   14.9120    0.1260  -38.0030 C   0  0  0  0  0  0
   12.1000   -0.1590  -37.2620 O   0  0  0  0  0  0
   13.1960    0.5910  -35.3100 O   0  0  0  0  0  0
   14.7843    3.0471  -36.3810 H   0  0  0  0  0  0
   10.3225    4.7623  -38.5649 H   0  0  0  0  0  0
   10.9676    4.8455  -34.2713 H   0  0  0  0  0  0
   12.2134    2.6702  -34.3884 H   0  0  0  0  0  0
   12.8870    3.0712  -36.7190 H   0  0  0  0  0  0
   17.3264   -0.9654  -39.2402 H   0  0  0  0  0  0
   19.5835   -0.8448  -39.8626 H   0  0  0  0  0  0
   19.6378    2.6057  -38.3364 H   0  0  0  0  0  0
   17.7046    3.6356  -37.2435 H   0  0  0  0  0  0
   14.5565   -0.8965  -38.1303 H   0  0  0  0  0  0
  1 11  1  0  0  0
  1 12  2  0  0  0
  1 22  1  0  0  0
  2  3  1  0  0  0
  3  4  2  0  0  0
  3  9  1  0  0  0
  4  5  1  0  0  0
  4 23  1  0  0  0
  5  6  2  0  0  0
  5  7  1  0  0  0
  7  8  2  0  0  0
  7 24  1  0  0  0
  8  9  1  0  0  0
  8 25  1  0  0  0
  9 10  1  0  0  0
  9 26  1  0  0  0
 10 11  1  0  0  0
 10 20  2  0  0  0
 10 21  2  0  0  0
 11 19  1  0  0  0
 12 13  1  0  0  0
 12 18  1  0  0  0
 13 14  1  0  0  0
 13 19  2  0  0  0
 14 15  2  0  0  0
 14 27  1  0  0  0
 15 16  1  0  0  0
 15 17  1  0  0  0
 16 28  1  0  0  0
 17 18  2  0  0  0
 17 29  1  0  0  0
 18 30  1  0  0  0
 19 31  1  0  0  0
M  CHG  1   2  -1
M  END
> <s_m_source_file>
../4mpe_ligand.sdf

> <i_m_source_file_index>
1

> <s_epik_input>
W2NIXTFbY0hdYyhbT0hdKVtjSF1jKGMxMilbY0hdbihbY0hdMilTKD1PKSg9TylbQ0hdM1tDSF09W0NIXUMoPU8pW0NIXT1DM1tPSF0=

> <s_epik_cmdline>
J2VwaWtfYXBwJywgJy1pbWFlJywgJ2xpZ2FuZF9wcm8ubWFlJywgJy1vbWFlJywgJ2xpZ2FuZF9wcmVwLm1hZScsICctbXMnLCAnMScsICctcGgnLCAnNycsICctcGh0JywgJzAuNScsICctbnQn

> <r_epik_Ionization_Penalty>
  0.0225

> <r_epik_Ionization_Penalty_Charging>
  0.0022

> <r_epik_Ionization_Penalty_Neutral>
  0.0203

> <r_epik_State_Penalty>
  0.0329

> <r_epik_Charging_Adjusted_Penalty>
0.0351297764189204

> <i_epik_Tot_Q>
-1

> <i_epik_Tot_abs_Q>
1

$$$$
