4mpn_ligand
                    3D
 Schrodinger Suite 2020-3.
 32 34  0  0  1  0            999 V2000
   16.4750    1.8240  -37.5840 C   0  0  0  0  0  0
   16.3120    0.5580  -38.1370 C   0  0  0  0  0  0
   11.6470    2.3790  -38.8840 O   0  5  0  0  0  0
   11.4780    3.0250  -37.6780 C   0  0  0  0  0  0
   10.7980    4.2320  -37.6030 C   0  0  0  0  0  0
   10.6460    4.8540  -36.3670 C   0  0  0  0  0  0
    9.9800    6.0520  -36.2640 O   0  0  0  0  0  0
   11.1780    4.2870  -35.2250 C   0  0  0  0  0  0
   11.8670    3.0980  -35.2990 C   0  0  0  0  0  0
   12.0110    2.4650  -36.5280 C   0  0  0  0  0  0
   12.8760    0.9530  -36.6190 S   0  0  0  0  0  0
   14.2410    1.3390  -37.3990 N   0  0  0  0  0  0
   15.2100    2.2950  -37.0040 C   0  0  0  0  0  0
   14.8710    0.1550  -37.9280 C   0  0  0  0  0  0
   17.4180   -0.0860  -38.7550 C   0  0  0  0  0  0
   18.6450    0.5860  -38.7870 C   0  0  0  0  0  0
   18.7850    1.8590  -38.2250 C   0  0  0  0  0  0
   17.7120    2.4780  -37.6220 C   0  0  0  0  0  0
   17.8050    3.7220  -37.0620 O   0  0  0  0  0  0
   19.7410    0.0040  -39.3780 O   0  0  0  0  0  0
   13.1870    0.5400  -35.2580 O   0  0  0  0  0  0
   12.1930   -0.1290  -37.2970 O   0  0  0  0  0  0
   10.3868    4.6888  -38.5032 H   0  0  0  0  0  0
    9.5489    6.5205  -37.1610 H   0  0  0  0  0  0
   11.0516    4.7828  -34.2626 H   0  0  0  0  0  0
   12.2967    2.6558  -34.4002 H   0  0  0  0  0  0
   15.0508    3.1880  -36.3996 H   0  0  0  0  0  0
   14.4115   -0.8123  -38.1312 H   0  0  0  0  0  0
   17.3131   -1.0786  -39.1931 H   0  0  0  0  0  0
   19.7497    2.3649  -38.2643 H   0  0  0  0  0  0
   16.9232    4.1801  -36.5903 H   0  0  0  0  0  0
   19.6572   -0.9966  -39.8273 H   0  0  0  0  0  0
  1  2  1  0  0  0
  1 13  2  0  0  0
  1 18  1  0  0  0
  2 14  2  0  0  0
  2 15  1  0  0  0
  3  4  1  0  0  0
  4  5  2  0  0  0
  4 10  1  0  0  0
  5  6  1  0  0  0
  5 23  1  0  0  0
  6  7  1  0  0  0
  6  8  2  0  0  0
  7 24  1  0  0  0
  8  9  1  0  0  0
  8 25  1  0  0  0
  9 10  2  0  0  0
  9 26  1  0  0  0
 10 11  1  0  0  0
 11 12  1  0  0  0
 11 21  2  0  0  0
 11 22  2  0  0  0
 12 13  1  0  0  0
 12 14  1  0  0  0
 13 27  1  0  0  0
 14 28  1  0  0  0
 15 16  2  0  0  0
 15 29  1  0  0  0
 16 17  1  0  0  0
 16 20  1  0  0  0
 17 18  2  0  0  0
 17 30  1  0  0  0
 18 19  1  0  0  0
 19 31  1  0  0  0
 20 32  1  0  0  0
M  CHG  1   3  -1
M  END
> <s_m_source_file>
../4mpn_ligand.sdf

> <i_m_source_file_index>
1

> <s_epik_input>
W09IXWMxW2NIXWMoW09IXSlbY0hdYyhjMTIpW2NIXW4oW2NIXTIpUyg9TykoPU8pYzNbY0hdW2NIXWMoW09IXSlbY0hdYzNbT0hd

> <s_epik_cmdline>
J2VwaWtfYXBwJywgJy1pbWFlJywgJ2xpZ2FuZF9wcm8ubWFlJywgJy1vbWFlJywgJ2xpZ2FuZF9wcmVwLm1hZScsICctbXMnLCAnMScsICctcGgnLCAnNycsICctcGh0JywgJzAuNScsICctbnQn

> <r_lp_tautomer_probability>
1

> <r_epik_Ionization_Penalty>
  0.1489

> <r_epik_Ionization_Penalty_Charging>
  0.0162

> <r_epik_Ionization_Penalty_Neutral>
  0.1328

> <r_epik_State_Penalty>
 -0.0000

> <r_epik_Charging_Adjusted_Penalty>
0.016153941587525

> <i_epik_Tot_Q>
-1

> <i_epik_Tot_abs_Q>
1

$$$$
