4mq1_ligand
                    3D
 Schrodinger Suite 2020-3.
 60 63  0  0  1  0            999 V2000
   45.1380   16.3730  -39.7970 N   0  0  0  0  0  0
   45.3290   15.4270  -38.8620 C   0  0  0  0  0  0
   45.9790   13.1490  -38.7200 C   0  0  0  0  0  0
   43.8760   16.5370  -37.3760 C   0  0  0  0  0  0
   42.3820   17.8040  -35.9210 C   0  0  0  0  0  0
   42.8320   18.6340  -38.0760 C   0  0  0  0  0  0
   39.5990   20.9910  -35.5040 C   0  0  0  0  0  0
   37.4000   22.6080  -34.9620 C   0  0  0  0  0  0
   37.7960   21.6740  -34.0420 C   0  0  0  0  0  0
   38.8730   20.8730  -34.3240 C   0  0  0  0  0  0
   37.5810   23.6750  -37.0810 C   0  0  0  0  0  0
   37.2480   23.8670  -40.7620 C   0  0  0  0  0  0
   41.8110   17.8780  -34.8300 O   0  0  0  0  0  0
   43.2300   16.6730  -36.1850 N   0  0  0  0  0  0
   44.7080   15.4950  -37.6420 N   0  0  0  0  0  0
   46.1890   14.4420  -39.2740 O   0  0  0  0  0  0
   44.3150   17.4760  -39.5420 C   0  0  0  0  0  0
   43.6710   17.5500  -38.3080 C   0  0  0  0  0  0
   42.1750   18.7980  -36.8800 C   0  0  0  0  0  0
   41.3240   19.9250  -36.7390 C   0  0  0  0  0  0
   41.2440   20.7330  -37.6520 O   0  0  0  0  0  0
   40.5650   20.0380  -35.6240 N   0  0  0  0  0  0
   39.1740   21.9140  -36.4510 C   0  0  0  0  0  0
   39.3670   19.6800  -33.1760 Cl  0  0  0  0  0  0
   38.0570   22.7150  -36.2030 C   0  0  0  0  0  0
   36.6990   24.4590  -36.6950 O   0  0  0  0  0  0
   37.9580   23.5790  -38.3680 N   0  0  0  0  0  0
   37.5130   24.5490  -39.4120 C   0  0  1  0  0  0
   36.1480   24.7710  -41.3170 C   0  0  0  0  0  0
   36.1370   24.5000  -42.7200 N   0  3  0  0  0  0
   38.5330   25.5050  -39.5960 C   0  0  0  0  0  0
   38.3290   26.8030  -39.2170 C   0  0  0  0  0  0
   39.3670   27.7330  -39.3620 C   0  0  0  0  0  0
   39.0900   29.3230  -38.8740 Cl  0  0  0  0  0  0
   40.5890   27.3900  -39.9180 C   0  0  0  0  0  0
   40.7980   26.0810  -40.3180 C   0  0  0  0  0  0
   39.7700   25.1510  -40.1360 C   0  0  0  0  0  0
   46.7265   12.4509  -39.1248 H   0  0  0  0  0  0
   44.9698   12.7977  -38.9811 H   0  0  0  0  0  0
   46.0783   13.1985  -37.6256 H   0  0  0  0  0  0
   42.6914   19.3739  -38.8640 H   0  0  0  0  0  0
   36.5689   23.2745  -34.7316 H   0  0  0  0  0  0
   37.2620   21.5686  -33.0976 H   0  0  0  0  0  0
   38.1700   23.8706  -41.3618 H   0  0  0  0  0  0
   36.9256   22.8292  -40.5915 H   0  0  0  0  0  0
   43.3519   15.9092  -35.4028 H   0  0  0  0  0  0
   44.1810   18.2577  -40.2898 H   0  0  0  0  0  0
   40.7464   19.3319  -34.8002 H   0  0  0  0  0  0
   39.7148   22.0137  -37.3921 H   0  0  0  0  0  0
   38.6211   22.7444  -38.6396 H   0  0  0  0  0  0
   36.6158   25.0694  -39.0456 H   0  0  0  0  0  0
   35.1892   24.5157  -40.8421 H   0  0  0  0  0  0
   36.3944   25.8216  -41.1038 H   0  0  0  0  0  0
   35.3652   25.1149  -43.2061 H   0  0  0  0  0  0
   35.9160   23.4353  -42.8860 H   0  0  0  0  0  0
   37.1213   24.7412  -43.1477 H   0  0  0  0  0  0
   37.3677   27.1113  -38.8059 H   0  0  0  0  0  0
   41.3726   28.1381  -40.0385 H   0  0  0  0  0  0
   41.7454   25.7814  -40.7660 H   0  0  0  0  0  0
   39.9407   24.1142  -40.4258 H   0  0  0  0  0  0
  1  2  2  0  0  0
  1 17  1  0  0  0
  2 15  1  0  0  0
  2 16  1  0  0  0
  3 16  1  0  0  0
  3 38  1  0  0  0
  3 39  1  0  0  0
  3 40  1  0  0  0
  4 14  1  0  0  0
  4 15  2  0  0  0
  4 18  1  0  0  0
  5 13  2  0  0  0
  5 14  1  0  0  0
  5 19  1  0  0  0
  6 18  1  0  0  0
  6 19  2  0  0  0
  6 41  1  0  0  0
  7 10  2  0  0  0
  7 22  1  0  0  0
  7 23  1  0  0  0
  8  9  2  0  0  0
  8 25  1  0  0  0
  8 42  1  0  0  0
  9 10  1  0  0  0
  9 43  1  0  0  0
 10 24  1  0  0  0
 11 25  1  0  0  0
 11 26  2  0  0  0
 11 27  1  0  0  0
 12 28  1  0  0  0
 12 29  1  0  0  0
 12 44  1  0  0  0
 12 45  1  0  0  0
 14 46  1  0  0  0
 17 18  2  0  0  0
 17 47  1  0  0  0
 19 20  1  0  0  0
 20 21  2  0  0  0
 20 22  1  0  0  0
 22 48  1  0  0  0
 23 25  2  0  0  0
 23 49  1  0  0  0
 27 28  1  0  0  0
 27 50  1  0  0  0
 28 31  1  0  0  0
 28 51  1  0  0  0
 29 30  1  0  0  0
 29 52  1  0  0  0
 29 53  1  0  0  0
 30 54  1  0  0  0
 30 55  1  0  0  0
 30 56  1  0  0  0
 31 32  2  0  0  0
 31 37  1  0  0  0
 32 33  1  0  0  0
 32 57  1  0  0  0
 33 34  1  0  0  0
 33 35  2  0  0  0
 35 36  1  0  0  0
 35 58  1  0  0  0
 36 37  2  0  0  0
 36 59  1  0  0  0
 37 60  1  0  0  0
M  CHG  1  30   1
M  END
> <s_m_source_file>
../4mq1_ligand.sdf

> <i_m_source_file_index>
1

> <s_epik_input>
W0NIM11PYyhuMSluW2NIXWMoYzEyKVtjSF1jKGMoPU8pW25IXTIpQyg9TylbTkhdYzNjKENsKVtjSF1bY0hdYyhbY0hdMylDKD1PKVtOSF1bQ0BIXShbQ0gyXVtDSDJdW05IMytdKWM0W2NIXWMoQ2wpW2NIXVtjSF1bY0hdNA==

> <s_epik_cmdline>
J2VwaWtfYXBwJywgJy1pbWFlJywgJ2xpZ2FuZF9wcm8ubWFlJywgJy1vbWFlJywgJ2xpZ2FuZF9wcmVwLm1hZScsICctbXMnLCAnMScsICctcGgnLCAnNycsICctcGh0JywgJzAuNScsICctbnQn

> <r_epik_Ionization_Penalty>
  0.1010

> <r_epik_Ionization_Penalty_Charging>
  0.1004

> <r_epik_Ionization_Penalty_Neutral>
  0.0006

> <r_epik_State_Penalty>
  0.0893

> <r_epik_Charging_Adjusted_Penalty>
0.189676403190656

> <i_epik_Tot_Q>
1

> <i_epik_Tot_abs_Q>
1

$$$$
