4mq2_ligand
                    3D
 Schrodinger Suite 2020-3.
 40 42  0  0  1  0            999 V2000
   44.3860   17.2690  -38.9500 N   0  0  0  0  0  0
   44.4440   16.2660  -38.0570 C   0  0  0  0  0  0
   44.8770   14.0320  -37.8550 C   0  0  0  0  0  0
   42.8260   17.2930  -36.6820 C   0  0  0  0  0  0
   41.1490   18.4290  -35.2930 C   0  0  0  0  0  0
   41.8850   19.4330  -37.3400 C   0  0  0  0  0  0
   38.3810   21.4000  -34.8570 C   0  0  0  0  0  0
   36.3100   23.0910  -34.1770 C   0  0  0  0  0  0
   36.7800   22.1620  -33.2770 C   0  0  0  0  0  0
   37.8070   21.3220  -33.6150 C   0  0  0  0  0  0
   36.3380   24.1220  -36.3190 C   0  0  0  0  0  0
   40.4500   18.4280  -34.2650 O   0  0  0  0  0  0
   42.0310   17.3560  -35.5300 N   0  0  0  0  0  0
   43.6750   16.2560  -36.9250 N   0  0  0  0  0  0
   45.3280   15.2890  -38.3760 O   0  0  0  0  0  0
   43.5280   18.3650  -38.7180 C   0  0  0  0  0  0
   42.7370   18.3610  -37.5770 C   0  0  0  0  0  0
   41.0810   19.4820  -36.2090 C   0  0  0  0  0  0
   40.1900   20.5620  -36.0560 C   0  0  0  0  0  0
   40.1140   21.4560  -36.8980 O   0  0  0  0  0  0
   39.3310   20.4810  -35.0240 N   0  0  0  0  0  0
   37.9060   22.3070  -35.7990 C   0  0  0  0  0  0
   38.3730   20.1550  -32.4430 Cl  0  0  0  0  0  0
   36.8570   23.1640  -35.4430 C   0  0  0  0  0  0
   35.4440   24.9000  -35.9680 O   0  0  0  0  0  0
   36.8940   24.0840  -37.5730 O   0  0  0  0  0  0
   36.4200   25.1110  -38.4410 C   0  0  0  0  0  0
   45.5996   13.2455  -38.1182 H   0  0  0  0  0  0
   43.8952   13.7873  -38.2865 H   0  0  0  0  0  0
   44.7901   14.0987  -36.7605 H   0  0  0  0  0  0
   41.8471   20.2529  -38.0573 H   0  0  0  0  0  0
   35.5061   23.7691  -33.8907 H   0  0  0  0  0  0
   36.3306   22.0943  -32.2862 H   0  0  0  0  0  0
   42.0851   16.5533  -34.7798 H   0  0  0  0  0  0
   43.4871   19.1977  -39.4202 H   0  0  0  0  0  0
   39.4187   19.6453  -34.3141 H   0  0  0  0  0  0
   38.3427   22.3499  -36.7968 H   0  0  0  0  0  0
   36.9082   25.0161  -39.4222 H   0  0  0  0  0  0
   36.6552   26.0945  -38.0080 H   0  0  0  0  0  0
   35.3310   25.0147  -38.5624 H   0  0  0  0  0  0
  1  2  2  0  0  0
  1 16  1  0  0  0
  2 14  1  0  0  0
  2 15  1  0  0  0
  3 15  1  0  0  0
  3 28  1  0  0  0
  3 29  1  0  0  0
  3 30  1  0  0  0
  4 13  1  0  0  0
  4 14  2  0  0  0
  4 17  1  0  0  0
  5 12  2  0  0  0
  5 13  1  0  0  0
  5 18  1  0  0  0
  6 17  1  0  0  0
  6 18  2  0  0  0
  6 31  1  0  0  0
  7 10  2  0  0  0
  7 21  1  0  0  0
  7 22  1  0  0  0
  8  9  2  0  0  0
  8 24  1  0  0  0
  8 32  1  0  0  0
  9 10  1  0  0  0
  9 33  1  0  0  0
 10 23  1  0  0  0
 11 24  1  0  0  0
 11 25  2  0  0  0
 11 26  1  0  0  0
 13 34  1  0  0  0
 16 17  2  0  0  0
 16 35  1  0  0  0
 18 19  1  0  0  0
 19 20  2  0  0  0
 19 21  1  0  0  0
 21 36  1  0  0  0
 22 24  2  0  0  0
 22 37  1  0  0  0
 26 27  1  0  0  0
 27 38  1  0  0  0
 27 39  1  0  0  0
 27 40  1  0  0  0
M  END
> <s_m_source_file>
../4mq2_ligand.sdf

> <i_m_source_file_index>
1

> <s_epik_input>
W0NIM11PYyhuMSluW2NIXWMoYzEyKVtjSF1jKGMoPU8pW25IXTIpQyg9TylbTkhdYzNjKENsKVtjSF1bY0hdYyhbY0hdMylDKD1PKU9bQ0gzXQ==

> <s_epik_cmdline>
J2VwaWtfYXBwJywgJy1pbWFlJywgJ2xpZ2FuZF9wcm8ubWFlJywgJy1vbWFlJywgJ2xpZ2FuZF9wcmVwLm1hZScsICctbXMnLCAnMScsICctcGgnLCAnNycsICctcGh0JywgJzAuNScsICctbnQn

> <r_epik_Ionization_Penalty>
  0.0996

> <r_epik_Ionization_Penalty_Charging>
  0.0992

> <r_epik_Ionization_Penalty_Neutral>
  0.0004

> <r_epik_State_Penalty>
  0.0893

> <r_epik_Charging_Adjusted_Penalty>
0.188447609017471

> <i_epik_Tot_Q>
0

> <i_epik_Tot_abs_Q>
0

> <s_epik_Chemistry_Notes>
This compound has an ester and may undergo hydrolysis at high or low pH.

$$$$
