4mqp_ligand
                    3D
 Schrodinger Suite 2020-3.
 39 41  0  0  1  0            999 V2000
   23.9850    3.1250   25.8220 O   0  5  0  0  0  0
   24.2570    3.6320   27.3150 P   0  0  0  0  0  0
   25.6340    3.0500   27.8100 O   0  0  0  0  0  0
   23.0520    3.2490   28.2720 O   0  5  0  0  0  0
   24.3420    5.2750   27.2500 O   0  0  0  0  0  0
   24.7210    6.0120   28.4250 C   0  0  0  0  0  0
   24.2570    7.3580   28.3990 C   0  0  0  0  0  0
   25.2030    8.3610   28.3460 C   0  0  0  0  0  0
   24.8550    9.7170   28.3410 N   0  3  0  0  0  0
   23.5770   10.1060   28.4120 C   0  0  0  0  0  0
   23.2720   11.4900   28.4110 C   0  0  0  0  0  0
   22.5910    9.1190   28.4690 C   0  0  0  0  0  0
   21.3050    9.5550   28.5460 O   0  5  0  0  0  0
   22.8960    7.7250   28.4730 C   0  0  0  0  0  0
   21.9520    6.6860   28.5310 C   0  0  0  0  0  0
   20.6140    7.1180   28.9110 N   0  0  0  0  0  0
   19.6710    6.3480   28.9710 N   0  0  0  0  0  0
   18.5060    6.8920   29.3650 C   0  0  0  0  0  0
   17.3240    6.2750   29.4230 N   0  0  0  0  0  0
   16.3030    7.0590   29.8660 C   0  0  0  0  0  0
   15.0180    6.7040   30.0310 C   0  0  0  0  0  0
   14.0650    7.6160   30.4840 C   0  0  0  0  0  0
   14.4470    8.9130   30.7960 C   0  0  0  0  0  0
   15.7860    9.2440   30.6250 C   0  0  0  0  0  0
   16.6690    8.3380   30.1700 C   0  0  0  0  0  0
   18.3110    8.4870   29.8730 S   0  0  0  0  0  0
   24.2970    5.5253   29.3157 H   0  0  0  0  0  0
   25.8178    6.0339   28.5062 H   0  0  0  0  0  0
   26.2576    8.0882   28.3067 H   0  0  0  0  0  0
   24.2047   12.0710   28.3610 H   0  0  0  0  0  0
   22.7292   11.7465   29.3327 H   0  0  0  0  0  0
   22.6453   11.7267   27.5385 H   0  0  0  0  0  0
   21.8697    6.2098   27.5428 H   0  0  0  0  0  0
   22.2735    5.9394   29.2721 H   0  0  0  0  0  0
   14.7137    5.6818   29.8061 H   0  0  0  0  0  0
   13.0242    7.3111   30.5925 H   0  0  0  0  0  0
   13.7252    9.6437   31.1609 H   0  0  0  0  0  0
   16.1250   10.2522   30.8631 H   0  0  0  0  0  0
   25.6392   10.4858   28.2778 H   0  0  0  0  0  0
  1  2  1  0  0  0
  2  3  2  0  0  0
  2  4  1  0  0  0
  2  5  1  0  0  0
  5  6  1  0  0  0
  6  7  1  0  0  0
  6 27  1  0  0  0
  6 28  1  0  0  0
  7  8  2  0  0  0
  7 14  1  0  0  0
  8  9  1  0  0  0
  8 29  1  0  0  0
  9 10  2  0  0  0
  9 39  1  0  0  0
 10 11  1  0  0  0
 10 12  1  0  0  0
 11 30  1  0  0  0
 11 31  1  0  0  0
 11 32  1  0  0  0
 12 13  1  0  0  0
 12 14  2  0  0  0
 14 15  1  0  0  0
 15 16  1  0  0  0
 15 33  1  0  0  0
 15 34  1  0  0  0
 16 17  2  0  0  0
 17 18  1  0  0  0
 18 19  2  0  0  0
 18 26  1  0  0  0
 19 20  1  0  0  0
 20 21  2  0  0  0
 20 25  1  0  0  0
 21 22  1  0  0  0
 21 35  1  0  0  0
 22 23  2  0  0  0
 22 36  1  0  0  0
 23 24  1  0  0  0
 23 37  1  0  0  0
 24 25  2  0  0  0
 24 38  1  0  0  0
 25 26  1  0  0  0
M  CHG  4   1  -1   4  -1   9   1  13  -1
M  END
> <s_m_source_file>
../4mqp_ligand.sdf

> <i_m_source_file_index>
1

> <s_epik_input>
W09IXVAoPU8pKFtPSF0pT1tDSDJdYzFbY0hdbmMoW0NIM10pYyhbT0hdKWMxW0NIMl0vTj1OL2MobjIpc2MoYzIzKVtjSF1bY0hdW2NIXVtjSF0z

> <s_epik_cmdline>
J2VwaWtfYXBwJywgJy1pbWFlJywgJ2xpZ2FuZF9wcm8ubWFlJywgJy1vbWFlJywgJ2xpZ2FuZF9wcmVwLm1hZScsICctbXMnLCAnMScsICctcGgnLCAnNycsICctcGh0JywgJzAuNScsICctbnQn

> <r_lp_tautomer_probability>
0.56342

> <r_epik_Ionization_Penalty>
  0.0781

> <r_epik_Ionization_Penalty_Charging>
  0.0781

> <r_epik_Ionization_Penalty_Neutral>
  0.0000

> <r_epik_State_Penalty>
  0.3705

> <r_epik_Charging_Adjusted_Penalty>
0.448598552282212

> <i_epik_Tot_Q>
-2

> <i_epik_Tot_abs_Q>
4

$$$$
