4mr3_ligand
                    3D
 Schrodinger Suite 2020-3.
 42 44  0  0  1  0            999 V2000
   22.4690   31.5070   20.6270 O   0  0  0  0  0  0
   23.2390   31.2210   19.4790 C   0  0  0  0  0  0
   22.4540   32.7550   21.1970 C   0  0  0  0  0  0
   21.5710   33.0200   22.2560 C   0  0  0  0  0  0
   21.4970   34.2350   22.8460 C   0  0  0  0  0  0
   23.0880   37.6200   22.4370 N   0  0  0  0  0  0
   19.8640   33.4040   24.4470 C   0  0  0  0  0  0
   20.6610   34.4930   23.9260 O   0  0  0  0  0  0
   22.2900   35.3110   22.4130 C   0  0  0  0  0  0
   27.1960   41.5700   19.7830 O   0  0  0  0  0  0
   23.9620   36.0700   20.8360 N   0  0  0  0  0  0
   22.2460   36.6240   22.9880 C   0  0  0  0  0  0
   23.8980   37.3060   21.3890 C   0  0  0  0  0  0
   21.4940   36.9730   23.9220 O   0  0  0  0  0  0
   24.7590   38.3670   20.8420 C   0  0  0  0  0  0
   26.0220   38.1430   20.2540 C   0  0  0  0  0  0
   26.8270   39.2150   19.8920 C   0  0  0  0  0  0
   28.1800   38.8780   19.3520 C   0  0  0  0  0  0
   26.3720   40.5500   20.0640 C   0  0  0  0  0  0
   25.1080   40.7880   20.5860 C   0  0  0  0  0  0
   24.6350   42.2030   20.7390 C   0  0  0  0  0  0
   24.3180   39.7290   20.9730 C   0  0  0  0  0  0
   23.1720   35.0130   21.3330 C   0  0  0  0  0  0
   23.2720   33.7710   20.7290 C   0  0  0  0  0  0
   23.1005   30.1666   19.1980 H   0  0  0  0  0  0
   24.3016   31.4065   19.6947 H   0  0  0  0  0  0
   22.9149   31.8671   18.6498 H   0  0  0  0  0  0
   20.9235   32.2199   22.6147 H   0  0  0  0  0  0
   23.0838   38.6371   22.8559 H   0  0  0  0  0  0
   19.2601   33.7637   25.2931 H   0  0  0  0  0  0
   20.5268   32.5947   24.7873 H   0  0  0  0  0  0
   19.1991   33.0255   23.6567 H   0  0  0  0  0  0
   28.1958   41.3715   19.3696 H   0  0  0  0  0  0
   26.3675   37.1234   20.0831 H   0  0  0  0  0  0
   28.2976   37.7850   19.3134 H   0  0  0  0  0  0
   28.9532   39.3071   20.0062 H   0  0  0  0  0  0
   28.2845   39.2940   18.3391 H   0  0  0  0  0  0
   25.4112   42.8907   20.3723 H   0  0  0  0  0  0
   24.4338   42.4096   21.8005 H   0  0  0  0  0  0
   23.7131   42.3464   20.1564 H   0  0  0  0  0  0
   23.3310   39.9287   21.3902 H   0  0  0  0  0  0
   23.9718   33.5980   19.9115 H   0  0  0  0  0  0
  1  2  1  0  0  0
  1  3  1  0  0  0
  2 25  1  0  0  0
  2 26  1  0  0  0
  2 27  1  0  0  0
  3  4  2  0  0  0
  3 24  1  0  0  0
  4  5  1  0  0  0
  4 28  1  0  0  0
  5  8  1  0  0  0
  5  9  2  0  0  0
  6 12  1  0  0  0
  6 13  1  0  0  0
  6 29  1  0  0  0
  7  8  1  0  0  0
  7 30  1  0  0  0
  7 31  1  0  0  0
  7 32  1  0  0  0
  9 12  1  0  0  0
  9 23  1  0  0  0
 10 19  1  0  0  0
 10 33  1  0  0  0
 11 13  2  0  0  0
 11 23  1  0  0  0
 12 14  2  0  0  0
 13 15  1  0  0  0
 15 16  2  0  0  0
 15 22  1  0  0  0
 16 17  1  0  0  0
 16 34  1  0  0  0
 17 18  1  0  0  0
 17 19  2  0  0  0
 18 35  1  0  0  0
 18 36  1  0  0  0
 18 37  1  0  0  0
 19 20  1  0  0  0
 20 21  1  0  0  0
 20 22  2  0  0  0
 21 38  1  0  0  0
 21 39  1  0  0  0
 21 40  1  0  0  0
 22 41  1  0  0  0
 23 24  2  0  0  0
 24 42  1  0  0  0
M  END
> <s_m_source_file>
../4mr3_ligand.sdf

> <i_m_source_file_index>
1

> <s_epik_input>
W0NIM11PYzFbY0hdYyhPW0NIM10pW2NIXWMoYzEyKW5jKFtuSF1jMj1PKS1jM1tjSF1jKFtDSDNdKWMoW09IXSljKFtDSDNdKVtjSF0z

> <s_epik_cmdline>
J2VwaWtfYXBwJywgJy1pbWFlJywgJ2xpZ2FuZF9wcm8ubWFlJywgJy1vbWFlJywgJ2xpZ2FuZF9wcmVwLm1hZScsICctbXMnLCAnMScsICctcGgnLCAnNycsICctcGh0JywgJzAuNScsICctbnQn

> <r_lp_tautomer_probability>
1

> <r_epik_Ionization_Penalty>
  0.0015

> <r_epik_Ionization_Penalty_Charging>
  0.0014

> <r_epik_Ionization_Penalty_Neutral>
  0.0001

> <r_epik_State_Penalty>
 -0.0000

> <r_epik_Charging_Adjusted_Penalty>
0.00135754630649834

> <i_epik_Tot_Q>
0

> <i_epik_Tot_abs_Q>
0

$$$$
