4mr4_ligand
                    3D
 Schrodinger Suite 2020-3.
 49 51  0  0  1  0            999 V2000
   27.7130   15.8490    0.3550 O   0  0  0  0  0  0
   26.9460   14.9330   -0.4550 C   0  0  0  0  0  0
   29.0610   15.9900    0.0050 C   0  0  0  0  0  0
   29.8320   16.9060    0.6910 C   0  0  0  0  0  0
   31.1580   17.0890    0.3100 C   0  0  0  0  0  0
   33.5430   15.7430   -2.2280 N   0  0  0  0  0  0
   31.3240   19.0110    1.8890 C   0  0  0  0  0  0
   31.9440   18.0110    0.9710 O   0  0  0  0  0  0
   31.7270   16.3490   -0.7280 C   0  0  0  0  0  0
   35.0830   11.3140   -6.5850 O   0  0  0  0  0  0
   31.4230   14.6230   -2.4990 N   0  0  0  0  0  0
   33.1270   16.5650   -1.1180 C   0  0  0  0  0  0
   32.6930   14.8440   -2.8610 C   0  0  0  0  0  0
   36.6090    8.9220   -7.3050 O   0  0  0  0  0  0
   33.9610   17.3340   -0.6190 O   0  0  0  0  0  0
   33.2740   13.9980   -3.9810 C   0  0  0  0  0  0
   34.6570   13.9550   -4.1220 C   0  0  0  0  0  0
   35.2530   13.0860   -5.0440 C   0  0  0  0  0  0
   36.7620   13.0610   -5.1530 C   0  0  0  0  0  0
   34.4550   12.2610   -5.7850 C   0  0  0  0  0  0
   35.1730   10.0580   -5.8760 C   0  0  0  0  0  0
   36.6450    9.6070   -6.0750 C   0  0  0  0  0  0
   33.0440   12.2600   -5.6830 C   0  0  0  0  0  0
   32.2090   11.2790   -6.4740 C   0  0  0  0  0  0
   32.4370   13.1600   -4.7740 C   0  0  0  0  0  0
   30.9500   15.3960   -1.4110 C   0  0  0  0  0  0
   29.6000   15.1900   -1.0460 C   0  0  0  0  0  0
   25.9083   14.9025   -0.0913 H   0  0  0  0  0  0
   27.3873   13.9276   -0.3892 H   0  0  0  0  0  0
   26.9579   15.2709   -1.5017 H   0  0  0  0  0  0
   29.4094   17.4769    1.5178 H   0  0  0  0  0  0
   34.5728   15.8125   -2.6083 H   0  0  0  0  0  0
   32.1088   19.6524    2.3164 H   0  0  0  0  0  0
   30.7968   18.4870    2.6998 H   0  0  0  0  0  0
   30.6094   19.6307    1.3274 H   0  0  0  0  0  0
   37.5287    8.4792   -7.7151 H   0  0  0  0  0  0
   35.2827   14.6038   -3.5091 H   0  0  0  0  0  0
   37.1915   13.8062   -4.4673 H   0  0  0  0  0  0
   37.0590   13.2984   -6.1852 H   0  0  0  0  0  0
   37.1324   12.0603   -4.8858 H   0  0  0  0  0  0
   34.9320   10.2180   -4.8147 H   0  0  0  0  0  0
   34.4610    9.3403   -6.3096 H   0  0  0  0  0  0
   36.9860    8.9228   -5.2841 H   0  0  0  0  0  0
   37.3392   10.4571   -6.1489 H   0  0  0  0  0  0
   32.8650   10.6746   -7.1176 H   0  0  0  0  0  0
   31.4894   11.8295   -7.0978 H   0  0  0  0  0  0
   31.6650   10.6192   -5.7821 H   0  0  0  0  0  0
   31.3520   13.2110   -4.6825 H   0  0  0  0  0  0
   28.9893   14.4425   -1.5523 H   0  0  0  0  0  0
  1  2  1  0  0  0
  1  3  1  0  0  0
  2 28  1  0  0  0
  2 29  1  0  0  0
  2 30  1  0  0  0
  3  4  2  0  0  0
  3 27  1  0  0  0
  4  5  1  0  0  0
  4 31  1  0  0  0
  5  8  1  0  0  0
  5  9  2  0  0  0
  6 12  1  0  0  0
  6 13  1  0  0  0
  6 32  1  0  0  0
  7  8  1  0  0  0
  7 33  1  0  0  0
  7 34  1  0  0  0
  7 35  1  0  0  0
  9 12  1  0  0  0
  9 26  1  0  0  0
 10 20  1  0  0  0
 10 21  1  0  0  0
 11 13  2  0  0  0
 11 26  1  0  0  0
 12 15  2  0  0  0
 13 16  1  0  0  0
 14 22  1  0  0  0
 14 36  1  0  0  0
 16 17  2  0  0  0
 16 25  1  0  0  0
 17 18  1  0  0  0
 17 37  1  0  0  0
 18 19  1  0  0  0
 18 20  2  0  0  0
 19 38  1  0  0  0
 19 39  1  0  0  0
 19 40  1  0  0  0
 20 23  1  0  0  0
 21 22  1  0  0  0
 21 41  1  0  0  0
 21 42  1  0  0  0
 22 43  1  0  0  0
 22 44  1  0  0  0
 23 24  1  0  0  0
 23 25  2  0  0  0
 24 45  1  0  0  0
 24 46  1  0  0  0
 24 47  1  0  0  0
 25 48  1  0  0  0
 26 27  2  0  0  0
 27 49  1  0  0  0
M  END
> <s_m_source_file>
../4mr4_ligand.sdf

> <i_m_source_file_index>
1

> <s_epik_input>
W0NIM11PYzFbY0hdYyhPW0NIM10pW2NIXWMoYzEyKW5jKFtuSF1jMj1PKS1jM1tjSF1jKFtDSDNdKWMoYyhbQ0gzXSlbY0hdMylPW0NIMl1bQ0gyXVtPSF0=

> <s_epik_cmdline>
J2VwaWtfYXBwJywgJy1pbWFlJywgJ2xpZ2FuZF9wcm8ubWFlJywgJy1vbWFlJywgJ2xpZ2FuZF9wcmVwLm1hZScsICctbXMnLCAnMScsICctcGgnLCAnNycsICctcGh0JywgJzAuNScsICctbnQn

> <r_lp_tautomer_probability>
1

> <r_epik_Ionization_Penalty>
  0.0008

> <r_epik_Ionization_Penalty_Charging>
  0.0008

> <r_epik_Ionization_Penalty_Neutral>
  0.0000

> <r_epik_State_Penalty>
 -0.0000

> <r_epik_Charging_Adjusted_Penalty>
0.00083742406417432

> <i_epik_Tot_Q>
0

> <i_epik_Tot_abs_Q>
0

$$$$
