4mr6_ligand
                    3D
 Schrodinger Suite 2020-3.
 49 51  0  0  1  0            999 V2000
   -7.5970   45.7380   38.6640 O   0  0  0  0  0  0
   -8.3790   46.9340   38.7580 C   0  0  0  0  0  0
   -7.5560   44.8380   39.7210 C   0  0  0  0  0  0
   -6.7870   43.7010   39.6000 C   0  0  0  0  0  0
   -6.6870   42.8180   40.7080 C   0  0  0  0  0  0
   -8.1000   42.6380   44.1230 N   0  0  0  0  0  0
   -5.4150   41.2530   39.3210 C   0  0  0  0  0  0
   -5.9360   41.7010   40.6110 O   0  0  0  0  0  0
   -7.3830   43.1060   41.8930 C   0  0  0  0  0  0
  -11.6250   45.0390   48.9500 O   0  0  0  0  0  0
   -8.9760   44.5320   43.0780 N   0  0  0  0  0  0
   -7.2840   42.2630   43.0750 C   0  0  0  0  0  0
   -8.8960   43.7270   44.0950 C   0  0  0  0  0  0
  -12.8400   44.6750   51.3310 O   0  0  0  0  0  0
   -6.5360   41.3030   43.2840 O   0  0  0  0  0  0
   -9.6670   44.0170   45.3480 C   0  0  0  0  0  0
   -9.8750   43.0640   46.3510 C   0  0  0  0  0  0
  -10.5510   43.3820   47.5480 C   0  0  0  0  0  0
  -10.6660   42.3180   48.6060 C   0  0  0  0  0  0
  -11.0100   44.6780   47.7190 C   0  0  0  0  0  0
  -12.9430   44.6260   48.9530 C   0  0  0  0  0  0
  -13.5370   45.2960   50.2470 C   0  0  0  0  0  0
  -10.8160   45.6350   46.7450 C   0  0  0  0  0  0
  -11.2540   47.0750   46.9670 C   0  0  0  0  0  0
  -10.1450   45.3170   45.5490 C   0  0  0  0  0  0
   -8.1970   44.2640   41.9580 C   0  0  0  0  0  0
   -8.2790   45.1540   40.8750 C   0  0  0  0  0  0
   -8.2813   47.5101   37.8261 H   0  0  0  0  0  0
   -8.0214   47.5404   39.6032 H   0  0  0  0  0  0
   -9.4350   46.6701   38.9170 H   0  0  0  0  0  0
   -6.2639   43.4828   38.6690 H   0  0  0  0  0  0
   -8.1242   42.0366   45.0437 H   0  0  0  0  0  0
   -4.8332   40.3301   39.4611 H   0  0  0  0  0  0
   -4.7672   42.0339   38.8960 H   0  0  0  0  0  0
   -6.2525   41.0579   38.6351 H   0  0  0  0  0  0
  -13.0659   44.9644   52.3679 H   0  0  0  0  0  0
   -9.5051   42.0493   46.2039 H   0  0  0  0  0  0
  -10.2308   41.3798   48.2313 H   0  0  0  0  0  0
  -11.7263   42.1580   48.8514 H   0  0  0  0  0  0
  -10.1250   42.6384   49.5086 H   0  0  0  0  0  0
  -13.4390   44.9761   48.0357 H   0  0  0  0  0  0
  -12.9830   43.5275   48.9951 H   0  0  0  0  0  0
  -14.6156   45.1049   50.3472 H   0  0  0  0  0  0
  -13.3534   46.3804   50.2662 H   0  0  0  0  0  0
  -11.7601   47.1584   47.9401 H   0  0  0  0  0  0
  -11.9463   47.3752   46.1666 H   0  0  0  0  0  0
  -10.3722   47.7325   46.9548 H   0  0  0  0  0  0
   -9.9985   46.0791   44.7836 H   0  0  0  0  0  0
   -8.8845   46.0586   40.9320 H   0  0  0  0  0  0
  1  2  1  0  0  0
  1  3  1  0  0  0
  2 28  1  0  0  0
  2 29  1  0  0  0
  2 30  1  0  0  0
  3  4  2  0  0  0
  3 27  1  0  0  0
  4  5  1  0  0  0
  4 31  1  0  0  0
  5  8  1  0  0  0
  5  9  2  0  0  0
  6 12  1  0  0  0
  6 13  1  0  0  0
  6 32  1  0  0  0
  7  8  1  0  0  0
  7 33  1  0  0  0
  7 34  1  0  0  0
  7 35  1  0  0  0
  9 12  1  0  0  0
  9 26  1  0  0  0
 10 20  1  0  0  0
 10 21  1  0  0  0
 11 13  2  0  0  0
 11 26  1  0  0  0
 12 15  2  0  0  0
 13 16  1  0  0  0
 14 22  1  0  0  0
 14 36  1  0  0  0
 16 17  2  0  0  0
 16 25  1  0  0  0
 17 18  1  0  0  0
 17 37  1  0  0  0
 18 19  1  0  0  0
 18 20  2  0  0  0
 19 38  1  0  0  0
 19 39  1  0  0  0
 19 40  1  0  0  0
 20 23  1  0  0  0
 21 22  1  0  0  0
 21 41  1  0  0  0
 21 42  1  0  0  0
 22 43  1  0  0  0
 22 44  1  0  0  0
 23 24  1  0  0  0
 23 25  2  0  0  0
 24 45  1  0  0  0
 24 46  1  0  0  0
 24 47  1  0  0  0
 25 48  1  0  0  0
 26 27  2  0  0  0
 27 49  1  0  0  0
M  END
> <s_m_source_file>
../4mr6_ligand.sdf

> <i_m_source_file_index>
1

> <s_epik_input>
W0NIM11PYzFbY0hdYyhPW0NIM10pW2NIXWMoYzEyKW5jKFtuSF1jMj1PKS1jM1tjSF1jKFtDSDNdKWMoYyhbQ0gzXSlbY0hdMylPW0NIMl1bQ0gyXVtPSF0=

> <s_epik_cmdline>
J2VwaWtfYXBwJywgJy1pbWFlJywgJ2xpZ2FuZF9wcm8ubWFlJywgJy1vbWFlJywgJ2xpZ2FuZF9wcmVwLm1hZScsICctbXMnLCAnMScsICctcGgnLCAnNycsICctcGh0JywgJzAuNScsICctbnQn

> <r_lp_tautomer_probability>
1

> <r_epik_Ionization_Penalty>
  0.0008

> <r_epik_Ionization_Penalty_Charging>
  0.0008

> <r_epik_Ionization_Penalty_Neutral>
  0.0000

> <r_epik_State_Penalty>
 -0.0000

> <r_epik_Charging_Adjusted_Penalty>
0.00083742406417432

> <i_epik_Tot_Q>
0

> <i_epik_Tot_abs_Q>
0

$$$$
