4mra_ligand
                    3D
 Schrodinger Suite 2020-3.
 32 34  0  0  1  0            999 V2000
    8.2080   23.7750   29.5360 C   0  0  0  0  0  0
    7.6880   25.0600   29.6380 C   0  0  0  0  0  0
    7.0900   25.4800   30.9310 C   0  0  0  0  0  0
    7.0720   24.5580   32.0960 C   0  0  0  0  0  0
    7.6340   23.2910   31.8990 C   0  0  0  0  0  0
    8.1830   22.9150   30.6560 C   0  0  0  0  0  0
    6.5140   26.8220   31.0970 C   0  0  0  0  0  0
    5.9370   27.1990   32.4220 C   0  0  0  0  0  0
    5.9770   26.2150   33.5280 C   0  0  0  0  0  0
    5.3890   26.6070   34.8410 C   0  0  0  0  0  0
    6.0050   27.6070   35.6280 C   0  0  0  0  0  0
    5.4480   27.9890   36.8640 C   0  0  0  0  0  0
    4.2680   27.3690   37.3240 C   0  0  0  0  0  0
    3.6210   26.3240   36.4900 C   0  0  0  0  0  0
    4.2040   25.9720   35.2630 C   0  0  0  0  0  0
    6.5350   24.9630   33.3200 O   0  0  0  0  0  0
    6.5350   27.5860   30.1060 O   0  0  0  0  0  0
    2.4780   25.7360   36.9340 O   0  0  0  0  0  0
    3.6960   27.6730   38.5180 O   0  0  0  0  0  0
    5.3710   28.4160   32.6410 O   0  0  0  0  0  0
    8.7220   21.6550   30.5680 O   0  0  0  0  0  0
    7.6850   25.9150   28.5810 O   0  0  0  0  0  0
    8.6343   23.4317   28.5934 H   0  0  0  0  0  0
    7.6474   22.5796   32.7247 H   0  0  0  0  0  0
    6.9183   28.0862   35.2754 H   0  0  0  0  0  0
    5.9281   28.7623   37.4637 H   0  0  0  0  0  0
    3.7410   25.2088   34.6375 H   0  0  0  0  0  0
    2.0458   26.0341   37.9006 H   0  0  0  0  0  0
    4.1460   28.4415   39.1636 H   0  0  0  0  0  0
    5.3329   29.1587   31.8305 H   0  0  0  0  0  0
    9.1637   21.3106   29.6213 H   0  0  0  0  0  0
    8.1273   25.6060   27.6224 H   0  0  0  0  0  0
  1  2  2  0  0  0
  1  6  1  0  0  0
  1 23  1  0  0  0
  2  3  1  0  0  0
  2 22  1  0  0  0
  3  4  2  0  0  0
  3  7  1  0  0  0
  4  5  1  0  0  0
  4 16  1  0  0  0
  5  6  2  0  0  0
  5 24  1  0  0  0
  6 21  1  0  0  0
  7  8  1  0  0  0
  7 17  2  0  0  0
  8  9  2  0  0  0
  8 20  1  0  0  0
  9 10  1  0  0  0
  9 16  1  0  0  0
 10 11  2  0  0  0
 10 15  1  0  0  0
 11 12  1  0  0  0
 11 25  1  0  0  0
 12 13  2  0  0  0
 12 26  1  0  0  0
 13 14  1  0  0  0
 13 19  1  0  0  0
 14 15  2  0  0  0
 14 18  1  0  0  0
 15 27  1  0  0  0
 18 28  1  0  0  0
 19 29  1  0  0  0
 20 30  1  0  0  0
 21 31  1  0  0  0
 22 32  1  0  0  0
M  END
> <s_m_source_file>
../4mra_ligand.sdf

> <i_m_source_file_index>
1

> <s_epik_input>
W09IXWMxW2NIXWMoW09IXSlbY0hdYyhjMTIpb2MoYyhjMj1PKVtPSF0pLWMzW2NIXVtjSF1jKFtPSF0pYyhbY0hdMylbT0hd

> <s_epik_cmdline>
J2VwaWtfYXBwJywgJy1pbWFlJywgJ2xpZ2FuZF9wcm8ubWFlJywgJy1vbWFlJywgJ2xpZ2FuZF9wcmVwLm1hZScsICctbXMnLCAnMScsICctcGgnLCAnNycsICctcGh0JywgJzAuNScsICctbnQn

> <r_lp_tautomer_probability>
0.999999999999776

> <r_epik_Ionization_Penalty>
  0.0466

> <r_epik_Ionization_Penalty_Charging>
  0.0000

> <r_epik_Ionization_Penalty_Neutral>
  0.0466

> <r_epik_State_Penalty>
  0.0262

> <r_epik_Charging_Adjusted_Penalty>
0.0262048054598103

> <i_epik_Tot_Q>
0

> <i_epik_Tot_abs_Q>
0

$$$$
