4mrd_ligand
                    3D
 Schrodinger Suite 2020-3.
 94 97  0  0  1  0            999 V2000
   10.3020  -11.9610    8.0710 C   0  0  1  0  0  0
   10.5090  -10.6100    7.4070 C   0  0  1  0  0  0
   10.5840  -10.7530    5.8860 C   0  0  2  0  0  0
   11.5810  -11.8260    5.4490 C   0  0  1  0  0  0
   11.4370  -13.0980    6.2880 C   0  0  1  0  0  0
   12.6030  -14.0080    5.9880 C   0  0  0  0  0  0
    9.4140   -9.7830    7.7820 O   0  0  0  0  0  0
   10.9360   -9.5120    5.2520 O   0  0  0  0  0  0
   11.3330  -12.1290    4.0640 O   0  0  0  0  0  0
   11.3820  -12.8180    7.6970 O   0  0  0  0  0  0
   13.6370  -13.8810    6.6980 O   0  0  0  0  0  0
   10.2840  -11.7000    9.4840 O   0  0  0  0  0  0
   12.4850  -14.8550    5.0540 O   0  5  0  0  0  0
    8.7330  -13.4200   12.4220 C   0  0  1  0  0  0
    8.9440  -12.3410   11.3710 C   0  0  1  0  0  0
    9.9850  -12.7880   10.3500 C   0  0  2  0  0  0
   11.2700  -13.2490   11.0350 C   0  0  1  0  0  0
   10.9530  -14.2250   12.1780 C   0  0  1  0  0  0
   12.2280  -14.6650   12.9100 C   0  0  0  0  0  0
    6.8810  -11.2870   10.5840 C   0  0  0  0  0  0
    5.6890  -11.4800    9.6980 C   0  0  0  0  0  0
    7.7190  -12.3170   10.6020 N   0  0  0  0  0  0
   12.0950  -13.8710   10.0350 O   0  0  0  0  0  0
    9.9880  -13.6500   13.0760 O   0  0  0  0  0  0
   12.0430  -14.6200   14.3310 O   0  0  0  0  0  0
    7.0510  -10.2640   11.2210 O   0  0  0  0  0  0
    5.1530  -14.5370   16.2930 C   0  0  1  0  0  0
    6.6660  -14.5940   16.5750 C   0  0  1  0  0  0
    7.5020  -13.8180   15.5660 C   0  0  2  0  0  0
    7.0930  -14.0250   14.1050 C   0  0  1  0  0  0
    5.5580  -13.9700   13.9570 C   0  0  1  0  0  0
    5.1160  -14.4150   12.5910 C   0  0  0  0  0  0
    6.9860  -14.0710   17.8680 O   0  0  0  0  0  0
    8.8900  -14.1190   15.7650 O   0  0  0  0  0  0
    7.7130  -12.9830   13.3210 O   0  0  0  0  0  0
    4.8650  -14.7860   14.9090 O   0  0  0  0  0  0
    5.4710  -15.5370   12.1600 O   0  5  0  0  0  0
    4.5290  -15.6200   17.0010 O   0  0  0  0  0  0
    4.3940  -13.6280   11.9360 O   0  0  0  0  0  0
    1.6570  -16.0710   19.3140 C   0  0  0  0  0  0
    3.0490  -16.3010   18.7350 C   0  0  1  0  0  0
    3.2000  -15.4250   17.4890 C   0  0  2  0  0  0
    2.1660  -15.8770   16.4490 C   0  0  1  0  0  0
    0.7550  -16.0650   17.0190 C   0  0  1  0  0  0
    0.0030  -17.0350   16.1170 C   0  0  0  0  0  0
    5.0810  -16.4900   20.1950 C   0  0  0  0  0  0
    5.8600  -15.7410   21.2300 C   0  0  0  0  0  0
    4.0080  -15.8250   19.7390 N   0  0  0  0  0  0
    2.0920  -14.9430   15.3600 O   0  0  0  0  0  0
    0.6880  -16.5490   18.3790 O   0  0  0  0  0  0
   -1.3680  -17.0210   16.5090 O   0  0  0  0  0  0
    5.4220  -17.6080   19.8300 O   0  0  0  0  0  0
    9.3857  -12.5061    7.8002 H   0  0  0  0  0  0
   11.4226  -10.1134    7.7659 H   0  0  0  0  0  0
    9.5732  -10.9997    5.5290 H   0  0  0  0  0  0
   12.6127  -11.4531    5.5300 H   0  0  0  0  0  0
   10.4752  -13.5900    6.0811 H   0  0  0  0  0  0
    9.2185   -9.5778    8.8449 H   0  0  0  0  0  0
   10.3359   -8.6093    5.4390 H   0  0  0  0  0  0
   11.3920  -11.3325    3.3076 H   0  0  0  0  0  0
    8.3948  -14.3951   12.0414 H   0  0  0  0  0  0
    9.1966  -11.3804   11.8436 H   0  0  0  0  0  0
    9.5780  -13.5930    9.7204 H   0  0  0  0  0  0
   11.8475  -12.4039   11.4379 H   0  0  0  0  0  0
   10.4479  -15.1200   11.7857 H   0  0  0  0  0  0
   12.4811  -15.6951   12.6187 H   0  0  0  0  0  0
   13.0563  -13.9935   12.6397 H   0  0  0  0  0  0
    5.7412  -12.4712    9.2240 H   0  0  0  0  0  0
    5.6801  -10.7018    8.9206 H   0  0  0  0  0  0
    4.7703  -11.4087   10.2987 H   0  0  0  0  0  0
    7.4381  -13.1852    9.9877 H   0  0  0  0  0  0
   12.4098  -13.3003    9.1489 H   0  0  0  0  0  0
   12.8661  -14.9065   15.0021 H   0  0  0  0  0  0
    4.7303  -13.5600   16.5701 H   0  0  0  0  0  0
    6.9461  -15.6578   16.5734 H   0  0  0  0  0  0
    7.3825  -12.7451   15.7774 H   0  0  0  0  0  0
    7.4652  -14.9842   13.7159 H   0  0  0  0  0  0
    5.2439  -12.9367   14.1659 H   0  0  0  0  0  0
    6.4981  -14.4825   18.7639 H   0  0  0  0  0  0
    9.3367  -14.0185   16.7652 H   0  0  0  0  0  0
    1.5605  -16.6165   20.2643 H   0  0  0  0  0  0
    1.5067  -14.9959   19.4915 H   0  0  0  0  0  0
    3.2379  -17.3609   18.5092 H   0  0  0  0  0  0
    3.0982  -14.3480   17.6884 H   0  0  0  0  0  0
    2.5250  -16.8305   16.0343 H   0  0  0  0  0  0
    0.2905  -15.0717   17.1069 H   0  0  0  0  0  0
    0.1038  -16.7148   15.0695 H   0  0  0  0  0  0
    0.4230  -18.0449   16.2337 H   0  0  0  0  0  0
    5.3860  -14.7649   21.4104 H   0  0  0  0  0  0
    6.8898  -15.5885   20.8747 H   0  0  0  0  0  0
    5.8768  -16.3190   22.1657 H   0  0  0  0  0  0
    3.8803  -14.8317   20.1941 H   0  0  0  0  0  0
    3.0033  -14.6673   14.8090 H   0  0  0  0  0  0
   -2.0968  -17.6558   15.9836 H   0  0  0  0  0  0
  1  2  1  0  0  0
  1 10  1  0  0  0
  1 12  1  0  0  0
  1 53  1  0  0  0
  2  3  1  0  0  0
  2  7  1  0  0  0
  2 54  1  0  0  0
  3  4  1  0  0  0
  3  8  1  0  0  0
  3 55  1  0  0  0
  4  5  1  0  0  0
  4  9  1  0  0  0
  4 56  1  0  0  0
  5  6  1  0  0  0
  5 10  1  0  0  0
  5 57  1  0  0  0
  6 11  2  0  0  0
  6 13  1  0  0  0
  7 58  1  0  0  0
  8 59  1  0  0  0
  9 60  1  0  0  0
 12 16  1  0  0  0
 14 15  1  0  0  0
 14 24  1  0  0  0
 14 35  1  0  0  0
 14 61  1  0  0  0
 15 16  1  0  0  0
 15 22  1  0  0  0
 15 62  1  0  0  0
 16 17  1  0  0  0
 16 63  1  0  0  0
 17 18  1  0  0  0
 17 23  1  0  0  0
 17 64  1  0  0  0
 18 19  1  0  0  0
 18 24  1  0  0  0
 18 65  1  0  0  0
 19 25  1  0  0  0
 19 66  1  0  0  0
 19 67  1  0  0  0
 20 21  1  0  0  0
 20 22  1  0  0  0
 20 26  2  0  0  0
 21 68  1  0  0  0
 21 69  1  0  0  0
 21 70  1  0  0  0
 22 71  1  0  0  0
 23 72  1  0  0  0
 25 73  1  0  0  0
 27 28  1  0  0  0
 27 36  1  0  0  0
 27 38  1  0  0  0
 27 74  1  0  0  0
 28 29  1  0  0  0
 28 33  1  0  0  0
 28 75  1  0  0  0
 29 30  1  0  0  0
 29 34  1  0  0  0
 29 76  1  0  0  0
 30 31  1  0  0  0
 30 35  1  0  0  0
 30 77  1  0  0  0
 31 32  1  0  0  0
 31 36  1  0  0  0
 31 78  1  0  0  0
 32 37  1  0  0  0
 32 39  2  0  0  0
 33 79  1  0  0  0
 34 80  1  0  0  0
 38 42  1  0  0  0
 40 41  1  0  0  0
 40 50  1  0  0  0
 40 81  1  0  0  0
 40 82  1  0  0  0
 41 42  1  0  0  0
 41 48  1  0  0  0
 41 83  1  0  0  0
 42 43  1  0  0  0
 42 84  1  0  0  0
 43 44  1  0  0  0
 43 49  1  0  0  0
 43 85  1  0  0  0
 44 45  1  0  0  0
 44 50  1  0  0  0
 44 86  1  0  0  0
 45 51  1  0  0  0
 45 87  1  0  0  0
 45 88  1  0  0  0
 46 47  1  0  0  0
 46 48  1  0  0  0
 46 52  2  0  0  0
 47 89  1  0  0  0
 47 90  1  0  0  0
 47 91  1  0  0  0
 48 92  1  0  0  0
 49 93  1  0  0  0
 51 94  1  0  0  0
M  CHG  2  13  -1  37  -1
M  END
> <s_m_source_file>
../4mrd_ligand.sdf

> <i_m_source_file_index>
1

> <s_epik_input>
Tz1DKFtPSF0pW0NAQEhdKE8xKVtDQEBIXShbT0hdKVtDQEhdKFtPSF0pW0NAQEhdKFtPSF0pW0NAQEhdMU9bQ0BASF0oW0NASF0oW09IXSlbQ0BIXShPMilbQ0gyXVtPSF0pW0NAQEhdKFtOSF1DKD1PKVtDSDNdKVtDQEBIXTJPW0NASF0oW0NASF0oTzMpQyg9TylbT0hdKVtDQEhdKFtPSF0pW0NAQEhdKFtPSF0pW0NAQEhdM09bQ0BIXTRbQ0BIXShbT0hdKVtDQEBIXShbQ0gyXVtPSF0pT1tDSDJdW0NAQEhdNFtOSF1DKD1PKVtDSDNd

> <s_epik_cmdline>
J2VwaWtfYXBwJywgJy1pbWFlJywgJ2xpZ2FuZF9wcm8ubWFlJywgJy1vbWFlJywgJ2xpZ2FuZF9wcmVwLm1hZScsICctbXMnLCAnMScsICctcGgnLCAnNycsICctcGh0JywgJzAuNScsICctbnQn

> <r_lp_tautomer_probability>
1

> <r_epik_Ionization_Penalty>
  0.0001

> <r_epik_Ionization_Penalty_Charging>
  0.0001

> <r_epik_Ionization_Penalty_Neutral>
  0.0000

> <r_epik_State_Penalty>
 -0.0000

> <r_epik_Charging_Adjusted_Penalty>
0.000109779414149936

> <i_epik_Tot_Q>
-2

> <i_epik_Tot_abs_Q>
2

> <s_epik_Chemistry_Notes>
This compound contains an acetal/aminal-like group ( X-CH(R)-Y where X, Y are N, S, or O) that may be acid/base labile, releasing an aldehyde.

$$$$
