4mre_ligand
                    3D
 Schrodinger Suite 2020-3.
 19 19  0  0  1  0            999 V2000
   12.4070   -5.0500    0.6870 C   0  0  0  0  0  0
   11.7010   -4.4870   -0.3910 C   0  0  0  0  0  0
   12.3080   -3.5770   -1.2700 C   0  0  0  0  0  0
   11.5980   -3.0100   -2.3350 C   0  0  0  0  0  0
   10.2430   -3.3430   -2.5600 C   0  0  0  0  0  0
    9.6450   -4.2510   -1.6690 C   0  0  0  0  0  0
    8.3510   -4.6140   -1.7990 N   0  0  0  0  0  0
   10.3610   -4.8130   -0.6150 C   0  0  0  0  0  0
    9.7410   -5.6790    0.2350 N   0  0  0  0  0  0
   13.4387   -4.6684    0.6889 H   0  0  0  0  0  0
   12.4212   -6.1451    0.5840 H   0  0  0  0  0  0
   11.9133   -4.7769    1.6313 H   0  0  0  0  0  0
   13.3532   -3.3062   -1.1206 H   0  0  0  0  0  0
   12.0962   -2.3032   -2.9986 H   0  0  0  0  0  0
    9.6841   -2.9130   -3.3911 H   0  0  0  0  0  0
    7.7424   -4.1980   -2.6155 H   0  0  0  0  0  0
    7.9054   -5.3257   -1.0885 H   0  0  0  0  0  0
   10.3010   -6.1263    1.0695 H   0  0  0  0  0  0
    8.6805   -5.9308    0.0867 H   0  0  0  0  0  0
  1  2  1  0  0  0
  1 10  1  0  0  0
  1 11  1  0  0  0
  1 12  1  0  0  0
  2  3  2  0  0  0
  2  8  1  0  0  0
  3  4  1  0  0  0
  3 13  1  0  0  0
  4  5  2  0  0  0
  4 14  1  0  0  0
  5  6  1  0  0  0
  5 15  1  0  0  0
  6  7  1  0  0  0
  6  8  2  0  0  0
  7 16  1  0  0  0
  7 17  1  0  0  0
  8  9  1  0  0  0
  9 18  1  0  0  0
  9 19  1  0  0  0
M  END
> <s_m_source_file>
../4mre_ligand.sdf

> <i_m_source_file_index>
1

> <s_epik_input>
W0NIM11jMVtjSF1bY0hdW2NIXWMoW05IMl0pYzFbTkgyXQ==

> <s_epik_cmdline>
J2VwaWtfYXBwJywgJy1pbWFlJywgJ2xpZ2FuZF9wcm8ubWFlJywgJy1vbWFlJywgJ2xpZ2FuZF9wcmVwLm1hZScsICctbXMnLCAnMScsICctcGgnLCAnNycsICctcGh0JywgJzAuNScsICctbnQn

> <r_lp_tautomer_probability>
1

> <r_epik_Ionization_Penalty>
  0.0125

> <r_epik_Ionization_Penalty_Charging>
  0.0000

> <r_epik_Ionization_Penalty_Neutral>
  0.0125

> <r_epik_State_Penalty>
 -0.0000

> <r_epik_Charging_Adjusted_Penalty>
0

> <i_epik_Tot_Q>
0

> <i_epik_Tot_abs_Q>
0

$$$$
