4mrf_ligand
                    3D
 Schrodinger Suite 2020-3.
 22 23  0  0  1  0            999 V2000
    9.9300   -6.4600    0.8730 C   0  0  0  0  0  0
    9.1740   -5.6590   -0.2140 C   0  0  0  0  0  0
   10.0040   -4.7680   -0.9380 C   0  0  0  0  0  0
    9.4230   -4.0700   -1.9850 C   0  0  0  0  0  0
   10.1550   -3.1700   -2.7610 C   0  0  0  0  0  0
   11.5080   -2.9530   -2.4790 C   0  0  0  0  0  0
   12.1180   -3.6630   -1.4320 C   0  0  0  0  0  0
   11.3680   -4.5660   -0.6490 C   0  0  0  0  0  0
   11.9980   -5.2760    0.4040 C   0  0  0  0  0  0
   11.0540   -5.7150    1.4520 N   0  3  0  0  0  0
    9.2383   -6.7121    1.6903 H   0  0  0  0  0  0
   10.3316   -7.3852    0.4340 H   0  0  0  0  0  0
    8.7272   -6.3557   -0.9386 H   0  0  0  0  0  0
    8.3801   -5.0608    0.2570 H   0  0  0  0  0  0
    8.3678   -4.2279   -2.2080 H   0  0  0  0  0  0
    9.6748   -2.6388   -3.5828 H   0  0  0  0  0  0
   12.0841   -2.2386   -3.0671 H   0  0  0  0  0  0
   13.1776   -3.5155   -1.2229 H   0  0  0  0  0  0
   12.4879   -6.1738   -0.0008 H   0  0  0  0  0  0
   12.7506   -4.6316    0.8819 H   0  0  0  0  0  0
   10.6733   -4.8264    1.9769 H   0  0  0  0  0  0
   11.5927   -6.3583    2.1633 H   0  0  0  0  0  0
  1  2  1  0  0  0
  1 10  1  0  0  0
  1 11  1  0  0  0
  1 12  1  0  0  0
  2  3  1  0  0  0
  2 13  1  0  0  0
  2 14  1  0  0  0
  3  4  2  0  0  0
  3  8  1  0  0  0
  4  5  1  0  0  0
  4 15  1  0  0  0
  5  6  2  0  0  0
  5 16  1  0  0  0
  6  7  1  0  0  0
  6 17  1  0  0  0
  7  8  2  0  0  0
  7 18  1  0  0  0
  8  9  1  0  0  0
  9 10  1  0  0  0
  9 19  1  0  0  0
  9 20  1  0  0  0
 10 21  1  0  0  0
 10 22  1  0  0  0
M  CHG  1  10   1
M  END
> <s_m_source_file>
../4mrf_ligand.sdf

> <i_m_source_file_index>
1

> <s_epik_input>
W0NIMl0xW0NIMl1bTkgyK11bQ0gyXWMoYzEyKVtjSF1bY0hdW2NIXVtjSF0y

> <s_epik_cmdline>
J2VwaWtfYXBwJywgJy1pbWFlJywgJ2xpZ2FuZF9wcm8ubWFlJywgJy1vbWFlJywgJ2xpZ2FuZF9wcmVwLm1hZScsICctbXMnLCAnMScsICctcGgnLCAnNycsICctcGh0JywgJzAuNScsICctbnQn

> <r_epik_Ionization_Penalty>
  0.0107

> <r_epik_Ionization_Penalty_Charging>
  0.0107

> <r_epik_Ionization_Penalty_Neutral>
  0.0000

> <r_epik_State_Penalty>
  0.0082

> <r_epik_Charging_Adjusted_Penalty>
0.0188198788371321

> <i_epik_Tot_Q>
1

> <i_epik_Tot_abs_Q>
1

$$$$
