4mrg_ligand
                    3D
 Schrodinger Suite 2020-3.
 24 25  0  0  1  0            999 V2000
   12.3240   -4.9690    0.7350 C   0  0  0  0  0  0
   11.4020   -5.5960    1.7340 N   0  3  0  0  0  0
   10.3820   -6.3890    1.0260 C   0  0  0  0  0  0
    9.5190   -5.4860    0.1490 C   0  0  0  0  0  0
   10.3150   -4.6470   -0.7080 C   0  0  0  0  0  0
   11.6710   -4.3780   -0.4030 C   0  0  0  0  0  0
   12.3800   -3.5280   -1.2740 C   0  0  0  0  0  0
   11.7760   -2.9490   -2.4010 C   0  0  0  0  0  0
   10.4120   -3.1900   -2.6860 C   0  0  0  0  0  0
    9.7170   -4.0430   -1.8330 C   0  0  0  0  0  0
    8.3870   -4.3150   -2.0830 N   0  0  0  0  0  0
   12.9005   -4.1678    1.2205 H   0  0  0  0  0  0
   13.0136   -5.7313    0.3435 H   0  0  0  0  0  0
   11.9781   -6.2514    2.4037 H   0  0  0  0  0  0
   10.9111   -4.8085    2.3247 H   0  0  0  0  0  0
   10.8763   -7.1386    0.3906 H   0  0  0  0  0  0
    9.7383   -6.8969    1.7592 H   0  0  0  0  0  0
    8.8673   -6.1050   -0.4851 H   0  0  0  0  0  0
    8.9008   -4.8373    0.7871 H   0  0  0  0  0  0
   13.4284   -3.3135   -1.0668 H   0  0  0  0  0  0
   12.3622   -2.3094   -3.0609 H   0  0  0  0  0  0
    9.9228   -2.7251   -3.5419 H   0  0  0  0  0  0
    7.8283   -4.9875   -1.4155 H   0  0  0  0  0  0
    7.8859   -3.8592   -2.9497 H   0  0  0  0  0  0
  1  2  1  0  0  0
  1  6  1  0  0  0
  1 12  1  0  0  0
  1 13  1  0  0  0
  2  3  1  0  0  0
  2 14  1  0  0  0
  2 15  1  0  0  0
  3  4  1  0  0  0
  3 16  1  0  0  0
  3 17  1  0  0  0
  4  5  1  0  0  0
  4 18  1  0  0  0
  4 19  1  0  0  0
  5  6  2  0  0  0
  5 10  1  0  0  0
  6  7  1  0  0  0
  7  8  2  0  0  0
  7 20  1  0  0  0
  8  9  1  0  0  0
  8 21  1  0  0  0
  9 10  2  0  0  0
  9 22  1  0  0  0
 10 11  1  0  0  0
 11 23  1  0  0  0
 11 24  1  0  0  0
M  CHG  1   2   1
M  END
> <s_m_source_file>
../4mrg_ligand.sdf

> <i_m_source_file_index>
1

> <s_epik_input>
W0NIMl0xW0NIMl1bTkgyK11bQ0gyXWMoYzEyKVtjSF1bY0hdW2NIXWMyW05IMl0=

> <s_epik_cmdline>
J2VwaWtfYXBwJywgJy1pbWFlJywgJ2xpZ2FuZF9wcm8ubWFlJywgJy1vbWFlJywgJ2xpZ2FuZF9wcmVwLm1hZScsICctbXMnLCAnMScsICctcGgnLCAnNycsICctcGh0JywgJzAuNScsICctbnQn

> <r_epik_Ionization_Penalty>
  0.0106

> <r_epik_Ionization_Penalty_Charging>
  0.0106

> <r_epik_Ionization_Penalty_Neutral>
  0.0000

> <r_epik_State_Penalty>
  0.0081

> <r_epik_Charging_Adjusted_Penalty>
0.0186437498758611

> <i_epik_Tot_Q>
1

> <i_epik_Tot_abs_Q>
1

$$$$
