4mrh_ligand
                    3D
 Schrodinger Suite 2020-3.
 19 19  0  0  1  0            999 V2000
    2.5940    4.5330  -11.1050 N   0  0  0  0  0  0
    1.8070    4.1300  -10.1030 C   0  0  0  0  0  0
    1.3590    4.9950   -9.0800 C   0  0  0  0  0  0
    0.5530    4.5210   -8.0170 C   0  0  0  0  0  0
    0.0670    5.3960   -6.9750 C   0  0  0  0  0  0
    0.2380    3.1510   -8.0030 C   0  0  0  0  0  0
   -0.7030    2.4790   -6.7070 Cl  0  0  0  0  0  0
    0.6950    2.2840   -9.0050 C   0  0  0  0  0  0
    1.4800    2.7590  -10.0570 C   0  0  0  0  0  0
    1.9260    1.9390  -11.0410 N   0  0  0  0  0  0
    2.8798    5.5920  -11.1881 H   0  0  0  0  0  0
    2.9560    3.8058  -11.8467 H   0  0  0  0  0  0
    1.6393    6.0479   -9.1096 H   0  0  0  0  0  0
    0.4189    6.4210   -7.1632 H   0  0  0  0  0  0
    0.4450    5.0516   -6.0011 H   0  0  0  0  0  0
   -1.0329    5.3815   -6.9674 H   0  0  0  0  0  0
    0.4344    1.2265   -8.9623 H   0  0  0  0  0  0
    2.5430    2.3438  -11.8567 H   0  0  0  0  0  0
    1.6707    0.8692  -11.0233 H   0  0  0  0  0  0
  1  2  1  0  0  0
  1 11  1  0  0  0
  1 12  1  0  0  0
  2  3  2  0  0  0
  2  9  1  0  0  0
  3  4  1  0  0  0
  3 13  1  0  0  0
  4  5  1  0  0  0
  4  6  2  0  0  0
  5 14  1  0  0  0
  5 15  1  0  0  0
  5 16  1  0  0  0
  6  7  1  0  0  0
  6  8  1  0  0  0
  8  9  2  0  0  0
  8 17  1  0  0  0
  9 10  1  0  0  0
 10 18  1  0  0  0
 10 19  1  0  0  0
M  END
> <s_m_source_file>
../4mrh_ligand.sdf

> <i_m_source_file_index>
1

> <s_epik_input>
W05IMl1jMVtjSF1jKFtDSDNdKWMoQ2wpW2NIXWMxW05IMl0=

> <s_epik_cmdline>
J2VwaWtfYXBwJywgJy1pbWFlJywgJ2xpZ2FuZF9wcm8ubWFlJywgJy1vbWFlJywgJ2xpZ2FuZF9wcmVwLm1hZScsICctbXMnLCAnMScsICctcGgnLCAnNycsICctcGh0JywgJzAuNScsICctbnQn

> <r_lp_tautomer_probability>
1

> <r_epik_Ionization_Penalty>
  0.0038

> <r_epik_Ionization_Penalty_Charging>
  0.0000

> <r_epik_Ionization_Penalty_Neutral>
  0.0038

> <r_epik_State_Penalty>
 -0.0000

> <r_epik_Charging_Adjusted_Penalty>
0

> <i_epik_Tot_Q>
0

> <i_epik_Tot_abs_Q>
0

$$$$
