4msa_ligand
                    3D
 Schrodinger Suite 2020-3.
 17 18  0  0  1  0            999 V2000
    4.3230  -28.0040  -29.5820 O   0  5  0  0  0  0
    4.4260  -28.7140  -30.5750 N   0  3  0  0  0  0
    4.7490  -29.8880  -30.4320 O   0  0  0  0  0  0
    4.1990  -28.1950  -31.8000 C   0  0  0  0  0  0
    3.5090  -26.9820  -31.9110 C   0  0  0  0  0  0
    3.2530  -26.3850  -33.1400 C   0  0  0  0  0  0
    3.7240  -27.0680  -34.2600 C   0  0  0  0  0  0
    3.6270  -26.7620  -35.5670 N   0  0  0  0  0  0
    4.2320  -27.7480  -36.2680 C   0  0  0  0  0  0
    4.7160  -28.6800  -35.4210 N   0  3  0  0  0  0
    4.4080  -28.2860  -34.1640 C   0  0  0  0  0  0
    4.6710  -28.8830  -32.9280 C   0  0  0  0  0  0
    3.1608  -26.4891  -31.0033 H   0  0  0  0  0  0
    2.7164  -25.4399  -33.2228 H   0  0  0  0  0  0
    4.2682  -27.6995  -37.3663 H   0  0  0  0  0  0
    5.2105  -29.8265  -32.8453 H   0  0  0  0  0  0
    5.2484  -29.5581  -35.8154 H   0  0  0  0  0  0
  1  2  1  0  0  0
  2  3  2  0  0  0
  2  4  1  0  0  0
  4  5  2  0  0  0
  4 12  1  0  0  0
  5  6  1  0  0  0
  5 13  1  0  0  0
  6  7  2  0  0  0
  6 14  1  0  0  0
  7  8  1  0  0  0
  7 11  1  0  0  0
  8  9  2  0  0  0
  9 10  1  0  0  0
  9 15  1  0  0  0
 10 11  1  0  0  0
 10 17  1  0  0  0
 11 12  2  0  0  0
 12 16  1  0  0  0
M  CHG  3   1  -1   2   1  10   1
M  END
> <s_m_source_file>
../4msa_ligand.sdf

> <i_m_source_file_index>
1

> <s_epik_input>
W08tXVtOK10oPU8pYyhbY0hdW2NIXTEpW2NIXWMoYzEyKVtuSF1bY0hdbjI=

> <s_epik_cmdline>
J2VwaWtfYXBwJywgJy1pbWFlJywgJ2xpZ2FuZF9wcm8ubWFlJywgJy1vbWFlJywgJ2xpZ2FuZF9wcmVwLm1hZScsICctbXMnLCAnMScsICctcGgnLCAnNycsICctcGh0JywgJzAuNScsICctbnQn

> <r_epik_Ionization_Penalty>
  0.0000

> <r_epik_Ionization_Penalty_Charging>
  0.0000

> <r_epik_Ionization_Penalty_Neutral>
  0.0000

> <r_epik_State_Penalty>
  0.1386

> <r_epik_Charging_Adjusted_Penalty>
0.138619970590334

> <i_epik_Tot_Q>
1

> <i_epik_Tot_abs_Q>
3

> <s_epik_Chemistry_Notes>
This compound has an imine and may undergo hydrolysis.

$$$$
