4mse_ligand
                    3D
 Schrodinger Suite 2020-3.
 36 39  0  0  1  0            999 V2000
    5.0940   12.7490   46.9810 C   0  0  0  0  0  0
    4.8140   12.7920   45.4970 C   0  0  0  0  0  0
    4.2220   13.7040   44.7080 N   0  0  0  0  0  0
    4.1030   13.4750   43.3920 C   0  0  0  0  0  0
    3.5120   14.3350   42.4750 C   0  0  0  0  0  0
    3.4880   13.9200   41.1470 C   0  0  0  0  0  0
    4.0070   12.7100   40.6950 C   0  0  0  0  0  0
    4.6020   11.8330   41.6000 C   0  0  0  0  0  0
    4.6180   12.2720   42.9210 C   0  0  0  0  0  0
    5.2350   11.5580   44.3630 S   0  0  0  0  0  0
    2.9320   14.7330   40.2590 O   0  0  0  0  0  0
    3.4450   16.0840   40.1120 C   0  0  0  0  0  0
    3.2110   16.6450   38.7280 C   0  0  0  0  0  0
    2.4150   15.9700   37.8070 C   0  0  0  0  0  0
    2.2140   16.5020   36.5360 C   0  0  0  0  0  0
    2.8190   17.7090   36.2060 C   0  0  0  0  0  0
    2.6350   18.2670   34.9460 C   0  0  0  0  0  0
    3.2540   19.4770   34.6380 C   0  0  0  0  0  0
    4.0510   20.1270   35.5810 C   0  0  0  0  0  0
    4.2280   19.5660   36.8440 C   0  0  0  0  0  0
    3.6130   18.3550   37.1610 C   0  0  0  0  0  0
    3.7890   17.8190   38.3890 N   0  0  0  0  0  0
    4.7155   13.6680   47.4523 H   0  0  0  0  0  0
    6.1786   12.6715   47.1474 H   0  0  0  0  0  0
    4.5918   11.8762   47.4237 H   0  0  0  0  0  0
    3.0867   15.2907   42.7815 H   0  0  0  0  0  0
    3.9483   12.4497   39.6382 H   0  0  0  0  0  0
    5.0234   10.8748   41.2962 H   0  0  0  0  0  0
    2.9459   16.7464   40.8346 H   0  0  0  0  0  0
    4.5289   16.0871   40.2997 H   0  0  0  0  0  0
    1.9484   15.0238   38.0811 H   0  0  0  0  0  0
    1.5910   15.9793   35.8102 H   0  0  0  0  0  0
    2.0128   17.7631   34.2064 H   0  0  0  0  0  0
    3.1143   19.9195   33.6517 H   0  0  0  0  0  0
    4.5340   21.0714   35.3302 H   0  0  0  0  0  0
    4.8469   20.0733   37.5841 H   0  0  0  0  0  0
  1  2  1  0  0  0
  1 23  1  0  0  0
  1 24  1  0  0  0
  1 25  1  0  0  0
  2  3  2  0  0  0
  2 10  1  0  0  0
  3  4  1  0  0  0
  4  5  2  0  0  0
  4  9  1  0  0  0
  5  6  1  0  0  0
  5 26  1  0  0  0
  6  7  2  0  0  0
  6 11  1  0  0  0
  7  8  1  0  0  0
  7 27  1  0  0  0
  8  9  2  0  0  0
  8 28  1  0  0  0
  9 10  1  0  0  0
 11 12  1  0  0  0
 12 13  1  0  0  0
 12 29  1  0  0  0
 12 30  1  0  0  0
 13 14  2  0  0  0
 13 22  1  0  0  0
 14 15  1  0  0  0
 14 31  1  0  0  0
 15 16  2  0  0  0
 15 32  1  0  0  0
 16 17  1  0  0  0
 16 21  1  0  0  0
 17 18  2  0  0  0
 17 33  1  0  0  0
 18 19  1  0  0  0
 18 34  1  0  0  0
 19 20  2  0  0  0
 19 35  1  0  0  0
 20 21  1  0  0  0
 20 36  1  0  0  0
 21 22  2  0  0  0
M  END
> <s_m_source_file>
../4mse_ligand.sdf

> <i_m_source_file_index>
1

> <s_epik_input>
W0NIM11jKG4xKXNjKGMxMilbY0hdW2NIXWMoW2NIXTIpT1tDSDJdYyhbY0hdW2NIXTMpbmMoYzM0KVtjSF1bY0hdW2NIXVtjSF00

> <s_epik_cmdline>
J2VwaWtfYXBwJywgJy1pbWFlJywgJ2xpZ2FuZF9wcm8ubWFlJywgJy1vbWFlJywgJ2xpZ2FuZF9wcmVwLm1hZScsICctbXMnLCAnMScsICctcGgnLCAnNycsICctcGh0JywgJzAuNScsICctbnQn

> <r_lp_tautomer_probability>
1

> <r_epik_Ionization_Penalty>
  0.0025

> <r_epik_Ionization_Penalty_Charging>
  0.0000

> <r_epik_Ionization_Penalty_Neutral>
  0.0025

> <r_epik_State_Penalty>
 -0.0000

> <r_epik_Charging_Adjusted_Penalty>
0

> <i_epik_Tot_Q>
0

> <i_epik_Tot_abs_Q>
0

$$$$
