4msg_ligand
                    3D
 Schrodinger Suite 2020-3.
 59 63  0  0  1  0            999 V2000
   -1.0390   43.0350   29.9750 N   0  0  0  0  0  0
    0.2560   42.5600   29.9240 C   0  0  0  0  0  0
    0.6090   41.5870   30.5720 O   0  0  0  0  0  0
    1.2140   43.2590   29.0930 C   0  0  0  0  0  0
    2.5980   42.8490   28.9060 C   0  0  0  0  0  0
    3.4770   43.6060   28.0040 C   0  0  0  0  0  0
    2.9580   44.7800   27.2680 C   0  0  0  0  0  0
    1.5680   45.1970   27.4470 C   0  0  0  0  0  0
    0.6690   44.4460   28.3320 C   0  0  0  0  0  0
   -0.6740   44.8030   28.4930 N   0  0  0  0  0  0
   -1.5040   44.1180   29.2620 C   0  0  0  0  0  0
   -3.2330   44.5000   29.3940 S   0  0  0  0  0  0
   -9.0150   39.7620   27.1020 C   0  0  0  0  0  0
   -8.5640   38.6090   26.6270 N   0  0  0  0  0  0
   -9.4470   37.5810   26.7760 N   0  0  0  0  0  0
  -10.5060   38.2180   27.3980 C   0  0  0  0  0  0
  -11.7980   37.6180   27.8540 C   0  0  0  0  0  0
  -10.2280   39.5490   27.5890 O   0  0  0  0  0  0
  -12.0530   36.1700   27.7070 C   0  0  0  0  0  0
  -13.3030   35.5800   28.1640 C   0  0  0  0  0  0
  -14.3270   36.4160   28.7710 C   0  0  0  0  0  0
  -14.1070   37.8550   28.9320 C   0  0  0  0  0  0
  -12.8430   38.4540   28.4720 C   0  0  0  0  0  0
   -6.2900   42.2440   28.0430 C   0  0  0  0  0  0
   -5.9600   42.7010   26.6210 C   0  0  1  0  0  0
   -7.1830   42.7890   25.7050 C   0  0  0  0  0  0
   -8.0140   41.5100   25.7160 C   0  0  0  0  0  0
   -8.3720   41.0640   27.1340 C   0  0  2  0  0  0
   -7.1840   40.9900   28.0960 C   0  0  0  0  0  0
   -3.5030   45.7990   28.1460 C   0  0  0  0  0  0
   -3.3040   45.3060   26.6810 C   0  0  0  0  0  0
   -3.9920   43.9550   26.5370 C   0  0  0  0  0  0
   -3.3210   42.9470   26.3530 O   0  0  0  0  0  0
   -5.3360   43.9980   26.6640 N   0  0  0  0  0  0
   -1.7813   42.5405   30.6188 H   0  0  0  0  0  0
    2.9834   41.9782   29.4364 H   0  0  0  0  0  0
    4.5158   43.3014   27.8766 H   0  0  0  0  0  0
    3.6111   45.3333   26.5932 H   0  0  0  0  0  0
    1.1955   46.0743   26.9181 H   0  0  0  0  0  0
  -11.2945   35.5346   27.2499 H   0  0  0  0  0  0
  -13.4720   34.5091   28.0510 H   0  0  0  0  0  0
  -15.2626   35.9693   29.1076 H   0  0  0  0  0  0
  -14.8746   38.4790   29.3897 H   0  0  0  0  0  0
  -12.6786   39.5251   28.5895 H   0  0  0  0  0  0
   -5.3583   42.0060   28.5771 H   0  0  0  0  0  0
   -6.8210   43.0486   28.5728 H   0  0  0  0  0  0
   -5.2420   41.9838   26.1967 H   0  0  0  0  0  0
   -7.8294   43.6157   26.0348 H   0  0  0  0  0  0
   -6.8544   42.9705   24.6710 H   0  0  0  0  0  0
   -8.9509   41.6767   25.1642 H   0  0  0  0  0  0
   -7.4456   40.6993   25.2368 H   0  0  0  0  0  0
   -9.0891   41.8026   27.5216 H   0  0  0  0  0  0
   -6.5897   40.1044   27.8267 H   0  0  0  0  0  0
   -7.5840   40.8676   29.1133 H   0  0  0  0  0  0
   -4.5322   46.1784   28.2284 H   0  0  0  0  0  0
   -2.7940   46.6229   28.3149 H   0  0  0  0  0  0
   -3.7489   46.0332   25.9858 H   0  0  0  0  0  0
   -2.2289   45.2075   26.4701 H   0  0  0  0  0  0
   -5.9518   44.9007   26.7905 H   0  0  0  0  0  0
  1  2  1  0  0  0
  1 11  1  0  0  0
  1 35  1  0  0  0
  2  3  2  0  0  0
  2  4  1  0  0  0
  4  5  2  0  0  0
  4  9  1  0  0  0
  5  6  1  0  0  0
  5 36  1  0  0  0
  6  7  2  0  0  0
  6 37  1  0  0  0
  7  8  1  0  0  0
  7 38  1  0  0  0
  8  9  2  0  0  0
  8 39  1  0  0  0
  9 10  1  0  0  0
 10 11  2  0  0  0
 11 12  1  0  0  0
 12 30  1  0  0  0
 13 14  2  0  0  0
 13 18  1  0  0  0
 13 28  1  0  0  0
 14 15  1  0  0  0
 15 16  2  0  0  0
 16 17  1  0  0  0
 16 18  1  0  0  0
 17 19  2  0  0  0
 17 23  1  0  0  0
 19 20  1  0  0  0
 19 40  1  0  0  0
 20 21  2  0  0  0
 20 41  1  0  0  0
 21 22  1  0  0  0
 21 42  1  0  0  0
 22 23  2  0  0  0
 22 43  1  0  0  0
 23 44  1  0  0  0
 24 25  1  0  0  0
 24 29  1  0  0  0
 24 45  1  0  0  0
 24 46  1  0  0  0
 25 26  1  0  0  0
 25 34  1  0  0  0
 25 47  1  0  0  0
 26 27  1  0  0  0
 26 48  1  0  0  0
 26 49  1  0  0  0
 27 28  1  0  0  0
 27 50  1  0  0  0
 27 51  1  0  0  0
 28 29  1  0  0  0
 28 52  1  0  0  0
 29 53  1  0  0  0
 29 54  1  0  0  0
 30 31  1  0  0  0
 30 55  1  0  0  0
 30 56  1  0  0  0
 31 32  1  0  0  0
 31 57  1  0  0  0
 31 58  1  0  0  0
 32 33  2  0  0  0
 32 34  1  0  0  0
 34 59  1  0  0  0
M  END
> <s_m_source_file>
../4msg_ligand.sdf

> <i_m_source_file_index>
1

> <s_epik_input>
W2NIXTFbY0hdW2NIXVtjSF1jKGMxMiluYyhbbkhdYzI9TylTW0NIMl1bQ0gyXUMoPU8pW05IXVtDQEhdM1tDSDJdW0NIMl1bQ0BASF0oW0NIMl1bQ0gyXTMpYzRubmMobzQpLWM1W2NIXVtjSF1bY0hdW2NIXVtjSF01

> <s_epik_cmdline>
J2VwaWtfYXBwJywgJy1pbWFlJywgJ2xpZ2FuZF9wcm8ubWFlJywgJy1vbWFlJywgJ2xpZ2FuZF9wcmVwLm1hZScsICctbXMnLCAnMScsICctcGgnLCAnNycsICctcGh0JywgJzAuNScsICctbnQn

> <r_lp_tautomer_probability>
0.883938

> <r_epik_Ionization_Penalty>
  0.0631

> <r_epik_Ionization_Penalty_Charging>
  0.0631

> <r_epik_Ionization_Penalty_Neutral>
  0.0000

> <r_epik_State_Penalty>
  0.1239

> <r_epik_Charging_Adjusted_Penalty>
0.186979752050921

> <i_epik_Tot_Q>
0

> <i_epik_Tot_abs_Q>
0

$$$$
