4msl_ligand
                    3D
 Schrodinger Suite 2020-3.
 44 45  0  0  1  0            999 V2000
  -32.9190   38.5640   15.8490 C   0  0  0  0  0  0
  -32.4500   34.5860   17.5840 C   0  0  0  0  0  0
  -33.8860   36.3900   16.8000 C   0  0  0  0  0  0
  -36.2430   34.8880   17.5020 C   0  0  0  0  0  0
  -34.9620   34.3210   17.7060 C   0  0  0  0  0  0
  -34.3890   39.3790   13.4310 O   0  0  0  0  0  0
  -33.6450   40.3830   13.6010 C   0  0  0  0  0  0
  -34.0230   41.5210   13.2100 O   0  5  0  0  0  0
  -32.3380   40.2280   14.2510 C   0  0  2  0  0  0
  -31.2460   40.6040   13.2690 C   0  0  0  0  0  0
  -29.8870   41.0400   13.8510 C   0  0  0  0  0  0
  -28.7120   40.7440   12.9720 C   0  0  0  0  0  0
  -29.6910   40.6290   15.2510 C   0  0  0  0  0  0
  -32.1740   38.8570   14.6630 N   0  3  0  0  0  0
  -32.7520   37.1470   16.4670 C   0  0  0  0  0  0
  -31.4680   36.6270   16.6910 C   0  0  0  0  0  0
  -30.3660   37.3570   16.3690 O   0  0  0  0  0  0
  -31.3220   35.3440   17.2500 C   0  0  0  0  0  0
  -33.7460   35.1010   17.3620 C   0  0  0  0  0  0
  -35.2170   36.9530   16.5580 O   0  0  0  0  0  0
  -36.3720   36.2430   16.9520 C   0  0  0  0  0  0
  -37.4660   36.7510   16.8370 O   0  0  0  0  0  0
  -34.8850   32.9250   18.2730 C   0  0  0  0  0  0
  -32.6308   39.2655   16.6457 H   0  0  0  0  0  0
  -33.9943   38.6668   15.6413 H   0  0  0  0  0  0
  -32.3276   33.5934   18.0175 H   0  0  0  0  0  0
  -37.1364   34.3167   17.7541 H   0  0  0  0  0  0
  -32.3001   40.8514   15.1565 H   0  0  0  0  0  0
  -31.0230   39.7432   12.6214 H   0  0  0  0  0  0
  -31.5833   41.4496   12.6516 H   0  0  0  0  0  0
  -29.8985   42.1384   13.9096 H   0  0  0  0  0  0
  -28.9287   41.0764   11.9460 H   0  0  0  0  0  0
  -28.5167   39.6615   12.9732 H   0  0  0  0  0  0
  -27.8273   41.2767   13.3509 H   0  0  0  0  0  0
  -30.5899   40.8761   15.8349 H   0  0  0  0  0  0
  -28.8236   41.1595   15.6709 H   0  0  0  0  0  0
  -29.5131   39.5443   15.2932 H   0  0  0  0  0  0
  -31.1045   38.6784   14.8483 H   0  0  0  0  0  0
  -32.5177   38.2077   13.8443 H   0  0  0  0  0  0
  -30.4792   38.3601   15.9320 H   0  0  0  0  0  0
  -30.3253   34.9385   17.4238 H   0  0  0  0  0  0
  -35.9018   32.5445   18.4499 H   0  0  0  0  0  0
  -34.3306   32.9451   19.2228 H   0  0  0  0  0  0
  -34.3665   32.2676   17.5596 H   0  0  0  0  0  0
  1 14  1  0  0  0
  1 15  1  0  0  0
  1 24  1  0  0  0
  1 25  1  0  0  0
  2 18  2  0  0  0
  2 19  1  0  0  0
  2 26  1  0  0  0
  3 15  1  0  0  0
  3 19  2  0  0  0
  3 20  1  0  0  0
  4  5  2  0  0  0
  4 21  1  0  0  0
  4 27  1  0  0  0
  5 19  1  0  0  0
  5 23  1  0  0  0
  6  7  2  0  0  0
  7  8  1  0  0  0
  7  9  1  0  0  0
  9 10  1  0  0  0
  9 14  1  0  0  0
  9 28  1  0  0  0
 10 11  1  0  0  0
 10 29  1  0  0  0
 10 30  1  0  0  0
 11 12  1  0  0  0
 11 13  1  0  0  0
 11 31  1  0  0  0
 12 32  1  0  0  0
 12 33  1  0  0  0
 12 34  1  0  0  0
 13 35  1  0  0  0
 13 36  1  0  0  0
 13 37  1  0  0  0
 14 38  1  0  0  0
 14 39  1  0  0  0
 15 16  2  0  0  0
 16 17  1  0  0  0
 16 18  1  0  0  0
 17 40  1  0  0  0
 18 41  1  0  0  0
 20 21  1  0  0  0
 21 22  2  0  0  0
 23 42  1  0  0  0
 23 43  1  0  0  0
 23 44  1  0  0  0
M  CHG  2   8  -1  14   1
M  END
> <s_m_source_file>
../4msl_ligand.sdf

> <i_m_source_file_index>
1

> <s_epik_input>
W0NIM11bQ0hdKFtDSDNdKVtDSDJdW0NAQEhdKEMoPU8pW09IXSlbTkgyK11bQ0gyXWMxYyhbT0hdKVtjSF1bY0hdYyhjMTIpYyhbQ0gzXSlbY0hdYyhvMik9Tw==

> <s_epik_cmdline>
J2VwaWtfYXBwJywgJy1pbWFlJywgJ2xpZ2FuZF9wcm8ubWFlJywgJy1vbWFlJywgJ2xpZ2FuZF9wcmVwLm1hZScsICctbXMnLCAnMScsICctcGgnLCAnNycsICctcGh0JywgJzAuNScsICctbnQn

> <r_epik_Ionization_Penalty>
  0.1493

> <r_epik_Ionization_Penalty_Charging>
  0.0093

> <r_epik_Ionization_Penalty_Neutral>
  0.1401

> <r_epik_State_Penalty>
  0.1294

> <r_epik_Charging_Adjusted_Penalty>
0.138630210242666

> <i_epik_Tot_Q>
0

> <i_epik_Tot_abs_Q>
2

$$$$
