4mss_ligand
                    3D
 Schrodinger Suite 2020-3.
 31 31  0  0  1  0            999 V2000
   68.3050   -9.2640    2.7750 N   0  3  0  0  0  0
   67.5930   -8.0090    2.6690 C   0  0  0  0  0  0
   69.0590   -6.3810    3.6610 N   0  0  0  0  0  0
   67.7830   -7.0440    3.7880 C   0  0  2  0  0  0
   67.7990   -7.6970    5.1730 C   0  0  1  0  0  0
   67.6650   -6.7080    6.1710 O   0  0  0  0  0  0
   66.6520   -8.6420    5.4080 C   0  0  2  0  0  0
   66.6590   -8.8410    6.8250 O   0  0  0  0  0  0
   66.6470   -9.9680    4.6480 C   0  0  1  0  0  0
   65.5510   -9.9890    3.7230 O   0  0  0  0  0  0
   67.8130  -10.2660    3.7420 C   0  0  0  0  0  0
   69.1680   -4.9520    3.5580 C   0  0  0  0  0  0
   68.1730   -4.2590    3.5090 O   0  0  0  0  0  0
   70.5500   -4.3200    3.4630 C   0  0  0  0  0  0
   68.2901   -9.7773    1.8022 H   0  0  0  0  0  0
   69.3465   -9.0708    3.0717 H   0  0  0  0  0  0
   67.9130   -7.4817    1.7582 H   0  0  0  0  0  0
   66.5116   -8.2040    2.6190 H   0  0  0  0  0  0
   69.9864   -6.9722    3.6408 H   0  0  0  0  0  0
   66.9555   -6.3269    3.6836 H   0  0  0  0  0  0
   68.7628   -8.2150    5.2860 H   0  0  0  0  0  0
   68.3884   -5.8812    6.2266 H   0  0  0  0  0  0
   65.7189   -8.1710    5.0653 H   0  0  0  0  0  0
   66.6632   -7.9741    7.5021 H   0  0  0  0  0  0
   66.5910  -10.7205    5.4484 H   0  0  0  0  0  0
   64.5272   -9.8018    4.0790 H   0  0  0  0  0  0
   67.4912  -11.1690    3.2025 H   0  0  0  0  0  0
   68.6197  -10.5258    4.4433 H   0  0  0  0  0  0
   71.3175   -5.1054    3.5265 H   0  0  0  0  0  0
   70.6851   -3.6077    4.2902 H   0  0  0  0  0  0
   70.6458   -3.7904    2.5037 H   0  0  0  0  0  0
  1  2  1  0  0  0
  1 11  1  0  0  0
  1 15  1  0  0  0
  1 16  1  0  0  0
  2  4  1  0  0  0
  2 17  1  0  0  0
  2 18  1  0  0  0
  3  4  1  0  0  0
  3 12  1  0  0  0
  3 19  1  0  0  0
  4  5  1  0  0  0
  4 20  1  0  0  0
  5  6  1  0  0  0
  5  7  1  0  0  0
  5 21  1  0  0  0
  6 22  1  0  0  0
  7  8  1  0  0  0
  7  9  1  0  0  0
  7 23  1  0  0  0
  8 24  1  0  0  0
  9 10  1  0  0  0
  9 11  1  0  0  0
  9 25  1  0  0  0
 10 26  1  0  0  0
 11 27  1  0  0  0
 11 28  1  0  0  0
 12 13  2  0  0  0
 12 14  1  0  0  0
 14 29  1  0  0  0
 14 30  1  0  0  0
 14 31  1  0  0  0
M  CHG  1   1   1
M  END
> <s_m_source_file>
../4mss_ligand.sdf

> <i_m_source_file_index>
1

> <s_epik_input>
Tz1DKFtDSDNdKVtOSF1bQ0BIXTFbQ0gyXVtOSDIrXVtDSDJdW0NASF0oW09IXSlbQ0BASF0oW09IXSlbQ0BASF0xW09IXQ==

> <s_epik_cmdline>
J2VwaWtfYXBwJywgJy1pbWFlJywgJ2xpZ2FuZF9wcm8ubWFlJywgJy1vbWFlJywgJ2xpZ2FuZF9wcmVwLm1hZScsICctbXMnLCAnMScsICctcGgnLCAnNycsICctcGh0JywgJzAuNScsICctbnQn

> <r_epik_Ionization_Penalty>
  0.0395

> <r_epik_Ionization_Penalty_Charging>
  0.0395

> <r_epik_Ionization_Penalty_Neutral>
  0.0000

> <r_epik_State_Penalty>
  0.0332

> <r_epik_Charging_Adjusted_Penalty>
0.0727802488514207

> <i_epik_Tot_Q>
1

> <i_epik_Tot_abs_Q>
1

$$$$
