4mti_ligand
                    3D
 Schrodinger Suite 2020-3.
 86 90  0  0  1  0            999 V2000
    3.3340   24.1630   21.8830 C   0  0  0  0  0  0
    2.8570   24.9610   20.6640 C   0  0  0  0  0  0
    3.8120   26.1170   20.3000 C   0  0  2  0  0  0
    3.1210   26.9710   19.2990 N   0  3  0  0  0  0
    3.8100   28.2460   18.9720 C   0  0  0  0  0  0
    5.1170   25.5310   19.7870 C   0  0  0  0  0  0
    5.2040   25.1190   18.6410 O   0  0  0  0  0  0
    6.1830   25.4720   20.6300 N   0  0  0  0  0  0
    7.4950   24.9170   20.2430 C   0  0  1  0  0  0
    8.5730   26.0350   20.1620 C   0  0  0  0  0  0
    8.1190   27.1630   19.2100 C   0  0  0  0  0  0
    9.2360   28.2090   19.0420 C   0  0  0  0  0  0
    9.6350   28.8070   20.4130 C   0  0  0  0  0  0
   10.0470   27.6970   21.4050 C   0  0  0  0  0  0
    8.9290   26.6380   21.5420 C   0  0  0  0  0  0
    7.8730   23.8270   21.2410 C   0  0  0  0  0  0
    7.3150   23.7990   22.3270 O   0  0  0  0  0  0
    8.8010   22.8750   20.9710 N   0  0  0  0  0  0
    9.5350   22.8650   19.6710 C   0  0  0  0  0  0
    9.9590   21.4520   19.2800 C   0  0  1  0  0  0
   11.0380   21.4060   18.1850 C   0  0  0  0  0  0
   11.8790   20.1500   18.5340 C   0  0  0  0  0  0
   11.2450   19.6030   19.8450 C   0  0  0  0  0  0
   10.6080   20.8010   20.4480 N   0  3  2  0  0  0
    9.6370   20.5240   21.5000 C   0  0  0  0  0  0
    9.0850   21.8850   22.0350 C   0  0  1  0  0  0
   10.0900   22.4700   23.0100 C   0  0  0  0  0  0
   10.7950   23.3930   22.6720 O   0  0  0  0  0  0
   10.1880   21.9670   24.2600 N   0  0  0  0  0  0
   11.1390   22.4660   25.2470 C   0  0  2  0  0  0
   12.4220   21.6720   24.9950 C   0  0  0  0  0  0
   13.3100   21.6610   26.2490 C   0  0  0  0  0  0
   12.5860   21.0510   27.3170 O   0  0  0  0  0  0
   11.3610   21.5360   27.6060 C   0  0  0  0  0  0
   10.8660   21.3070   28.8950 C   0  0  0  0  0  0
    9.6060   21.7870   29.2120 C   0  0  0  0  0  0
    8.8590   22.4860   28.2590 C   0  0  0  0  0  0
    9.3570   22.7050   26.9860 C   0  0  0  0  0  0
   10.6090   22.2160   26.6440 C   0  0  0  0  0  0
    2.6180   23.3555   22.0956 H   0  0  0  0  0  0
    3.4029   24.8308   22.7543 H   0  0  0  0  0  0
    4.3233   23.7301   21.6736 H   0  0  0  0  0  0
    2.7881   24.2932   19.7927 H   0  0  0  0  0  0
    1.8676   25.3938   20.8733 H   0  0  0  0  0  0
    4.0633   26.7715   21.1476 H   0  0  0  0  0  0
    3.0195   26.4184   18.3533 H   0  0  0  0  0  0
    2.1231   27.2417   19.6744 H   0  0  0  0  0  0
    3.2208   28.8005   18.2267 H   0  0  0  0  0  0
    4.8078   28.0291   18.5630 H   0  0  0  0  0  0
    3.9114   28.8524   19.8842 H   0  0  0  0  0  0
    6.0302   25.8654   21.6458 H   0  0  0  0  0  0
    7.3847   24.4703   19.2439 H   0  0  0  0  0  0
    9.4837   25.5603   19.7678 H   0  0  0  0  0  0
    7.8777   26.7366   18.2251 H   0  0  0  0  0  0
    7.2273   27.6560   19.6245 H   0  0  0  0  0  0
   10.1191   27.7331   18.5908 H   0  0  0  0  0  0
    8.8830   29.0207   18.3889 H   0  0  0  0  0  0
   10.4843   29.4934   20.2804 H   0  0  0  0  0  0
    8.7814   29.3573   20.8355 H   0  0  0  0  0  0
   10.9605   27.2025   21.0431 H   0  0  0  0  0  0
   10.2372   28.1407   22.3934 H   0  0  0  0  0  0
    8.0377   27.1165   21.9740 H   0  0  0  0  0  0
    9.2774   25.8387   22.2126 H   0  0  0  0  0  0
    8.8843   23.2651   18.8795 H   0  0  0  0  0  0
   10.4371   23.4890   19.7544 H   0  0  0  0  0  0
    9.0385   20.9466   18.9525 H   0  0  0  0  0  0
   10.5569   21.3204   17.1995 H   0  0  0  0  0  0
   11.6372   22.3278   18.2217 H   0  0  0  0  0  0
   11.8098   19.4224   17.7119 H   0  0  0  0  0  0
   12.9299   20.4410   18.6786 H   0  0  0  0  0  0
   10.5136   18.8190   19.5992 H   0  0  0  0  0  0
   12.0336   19.1811   20.4854 H   0  0  0  0  0  0
   11.3434   21.4174   20.9859 H   0  0  0  0  0  0
    8.8142   19.9200   21.0898 H   0  0  0  0  0  0
   10.1270   19.9709   22.3149 H   0  0  0  0  0  0
    8.1083   21.7208   22.5137 H   0  0  0  0  0  0
    9.5071   21.1431   24.5198 H   0  0  0  0  0  0
   11.2783   23.5515   25.1359 H   0  0  0  0  0  0
   12.1658   20.6351   24.7321 H   0  0  0  0  0  0
   12.9816   22.1325   24.1675 H   0  0  0  0  0  0
   14.2267   21.0885   26.0441 H   0  0  0  0  0  0
   13.5754   22.6937   26.5194 H   0  0  0  0  0  0
   11.4579   20.7639   29.6318 H   0  0  0  0  0  0
    9.1955   21.6192   30.2077 H   0  0  0  0  0  0
    7.8709   22.8637   28.5220 H   0  0  0  0  0  0
    8.7677   23.2594   26.2556 H   0  0  0  0  0  0
  1  2  1  0  0  0
  1 40  1  0  0  0
  1 41  1  0  0  0
  1 42  1  0  0  0
  2  3  1  0  0  0
  2 43  1  0  0  0
  2 44  1  0  0  0
  3  4  1  0  0  0
  3  6  1  0  0  0
  3 45  1  0  0  0
  4  5  1  0  0  0
  4 46  1  0  0  0
  4 47  1  0  0  0
  5 48  1  0  0  0
  5 49  1  0  0  0
  5 50  1  0  0  0
  6  7  2  0  0  0
  6  8  1  0  0  0
  8  9  1  0  0  0
  8 51  1  0  0  0
  9 10  1  0  0  0
  9 16  1  0  0  0
  9 52  1  0  0  0
 10 11  1  0  0  0
 10 15  1  0  0  0
 10 53  1  0  0  0
 11 12  1  0  0  0
 11 54  1  0  0  0
 11 55  1  0  0  0
 12 13  1  0  0  0
 12 56  1  0  0  0
 12 57  1  0  0  0
 13 14  1  0  0  0
 13 58  1  0  0  0
 13 59  1  0  0  0
 14 15  1  0  0  0
 14 60  1  0  0  0
 14 61  1  0  0  0
 15 62  1  0  0  0
 15 63  1  0  0  0
 16 17  2  0  0  0
 16 18  1  0  0  0
 18 19  1  0  0  0
 18 26  1  0  0  0
 19 20  1  0  0  0
 19 64  1  0  0  0
 19 65  1  0  0  0
 20 21  1  0  0  0
 20 24  1  0  0  0
 20 66  1  0  0  0
 21 22  1  0  0  0
 21 67  1  0  0  0
 21 68  1  0  0  0
 22 23  1  0  0  0
 22 69  1  0  0  0
 22 70  1  0  0  0
 23 24  1  0  0  0
 23 71  1  0  0  0
 23 72  1  0  0  0
 24 25  1  0  0  0
 24 73  1  0  0  0
 25 26  1  0  0  0
 25 74  1  0  0  0
 25 75  1  0  0  0
 26 27  1  0  0  0
 26 76  1  0  0  0
 27 28  2  0  0  0
 27 29  1  0  0  0
 29 30  1  0  0  0
 29 77  1  0  0  0
 30 31  1  0  0  0
 30 39  1  0  0  0
 30 78  1  0  0  0
 31 32  1  0  0  0
 31 79  1  0  0  0
 31 80  1  0  0  0
 32 33  1  0  0  0
 32 81  1  0  0  0
 32 82  1  0  0  0
 33 34  1  0  0  0
 34 35  2  0  0  0
 34 39  1  0  0  0
 35 36  1  0  0  0
 35 83  1  0  0  0
 36 37  2  0  0  0
 36 84  1  0  0  0
 37 38  1  0  0  0
 37 85  1  0  0  0
 38 39  2  0  0  0
 38 86  1  0  0  0
M  CHG  2   4   1  24   1
M  END
> <s_m_source_file>
../4mti_ligand.sdf

> <i_m_source_file_index>
1

> <s_epik_input>
W0NIMl0xW0NIMl1bQ0gyXVtDSDJdW0NIMl1bQ0hdMVtDQEhdKFtOSF1DKD1PKVtDQEhdKFtDSDJdW0NIM10pW05IMitdW0NIM10pQyg9TylOKFtDSDJdMilbQ0BASF0oW0NIMl1bTkBIK10oW0NAQEhdMjMpW0NIMl1bQ0gyXVtDSDJdMylDKD1PKVtOSF1bQ0BIXShbQ0gyXVtDSDJdTzQpYyhjNDUpW2NIXVtjSF1bY0hdW2NIXTU=

> <s_epik_cmdline>
J2VwaWtfYXBwJywgJy1pbWFlJywgJ2xpZ2FuZF9wcm8ubWFlJywgJy1vbWFlJywgJ2xpZ2FuZF9wcmVwLm1hZScsICctbXMnLCAnMScsICctcGgnLCAnNycsICctcGh0JywgJzAuNScsICctbnQn

> <r_lp_tautomer_probability>
1

> <r_epik_Ionization_Penalty>
  0.0942

> <r_epik_Ionization_Penalty_Charging>
  0.0942

> <r_epik_Ionization_Penalty_Neutral>
  0.0000

> <r_epik_State_Penalty>
 -0.0000

> <r_epik_Charging_Adjusted_Penalty>
0.0941796186278666

> <i_epik_Tot_Q>
2

> <i_epik_Tot_abs_Q>
2

$$$$
