4mu7_ligand
                    3D
 Schrodinger Suite 2020-3.
 89 94  0  0  1  0            999 V2000
   21.1780   -7.4570  -11.6630 C   0  0  0  0  0  0
   22.2530   -6.4700  -11.2070 C   0  0  0  0  0  0
   23.6290   -7.1350  -11.3000 C   0  0  2  0  0  0
   24.6210   -6.1870  -10.7490 N   0  3  0  0  0  0
   25.9820   -6.7730  -10.5920 C   0  0  0  0  0  0
   23.9330   -7.4680  -12.7270 C   0  0  0  0  0  0
   24.3830   -6.6060  -13.4440 O   0  0  0  0  0  0
   23.6920   -8.7040  -13.1720 N   0  0  0  0  0  0
   23.9680   -9.1880  -14.5150 C   0  0  1  0  0  0
   25.1540  -10.0870  -14.0860 C   0  0  0  0  0  0
   25.0410  -11.5640  -14.4760 C   0  0  0  0  0  0
   26.2260  -12.3830  -13.9210 C   0  0  0  0  0  0
   27.3180  -11.5190  -13.2540 C   0  0  0  0  0  0
   27.6930  -10.3160  -14.1360 C   0  0  0  0  0  0
   26.4810   -9.4360  -14.4880 C   0  0  0  0  0  0
   22.7930   -9.9280  -15.1080 C   0  0  0  0  0  0
   21.9810  -10.3970  -14.3310 O   0  0  0  0  0  0
   22.6320  -10.1000  -16.4560 N   0  0  0  0  0  0
   23.6310   -9.5550  -17.4260 C   0  0  0  0  0  0
   23.5950  -10.4270  -18.6850 C   0  0  2  0  0  0
   24.5280   -9.8970  -19.8060 C   0  0  0  0  0  0
   23.5970   -9.6040  -20.9720 C   0  0  0  0  0  0
   23.8930   -9.2240  -22.2720 C   0  0  0  0  0  0
   22.8170   -9.0100  -23.1430 C   0  0  0  0  0  0
   21.5000   -9.1590  -22.7340 C   0  0  0  0  0  0
   21.1850   -9.5400  -21.4320 C   0  0  0  0  0  0
   22.2550   -9.7880  -20.5500 C   0  0  0  0  0  0
   22.2450  -10.1100  -19.2040 N   0  0  0  0  0  0
   21.0950  -10.5840  -18.4610 C   0  0  0  0  0  0
   21.4700  -10.8400  -16.9600 C   0  0  1  0  0  0
   21.7270  -12.3150  -16.7610 C   0  0  0  0  0  0
   22.8750  -12.7380  -16.6340 O   0  0  0  0  0  0
   20.6560  -13.1350  -16.7420 N   0  0  0  0  0  0
   20.7660  -14.5860  -16.5360 C   0  0  2  0  0  0
   20.9850  -15.2850  -17.8860 C   0  0  0  0  0  0
   19.6500  -15.6730  -18.5300 C   0  0  0  0  0  0
   18.9890  -16.5530  -17.6240 O   0  0  0  0  0  0
   18.7150  -16.0660  -16.3820 C   0  0  0  0  0  0
   17.5910  -16.5420  -15.7020 C   0  0  0  0  0  0
   17.3030  -16.0450  -14.4360 C   0  0  0  0  0  0
   18.1200  -15.0790  -13.8710 C   0  0  0  0  0  0
   19.2400  -14.6130  -14.5490 C   0  0  0  0  0  0
   19.5370  -15.1000  -15.8130 C   0  0  0  0  0  0
   20.1895   -6.9792  -11.5962 H   0  0  0  0  0  0
   21.1995   -8.3470  -11.0169 H   0  0  0  0  0  0
   21.3716   -7.7549  -12.7040 H   0  0  0  0  0  0
   22.2315   -5.5800  -11.8531 H   0  0  0  0  0  0
   22.0594   -6.1720  -10.1660 H   0  0  0  0  0  0
   23.6876   -8.0720  -10.7268 H   0  0  0  0  0  0
   24.7118   -5.3201  -11.4200 H   0  0  0  0  0  0
   24.2922   -5.8486   -9.7553 H   0  0  0  0  0  0
   26.6627   -6.0138  -10.1794 H   0  0  0  0  0  0
   26.3538   -7.1046  -11.5727 H   0  0  0  0  0  0
   25.9342   -7.6331   -9.9080 H   0  0  0  0  0  0
   23.2470   -9.3779  -12.4251 H   0  0  0  0  0  0
   24.1424   -8.4280  -15.2908 H   0  0  0  0  0  0
   25.1288  -10.1526  -12.9882 H   0  0  0  0  0  0
   24.1073  -11.9801  -14.0697 H   0  0  0  0  0  0
   25.0362  -11.6545  -15.5723 H   0  0  0  0  0  0
   25.8594  -13.0907  -13.1629 H   0  0  0  0  0  0
   26.7035  -12.9391  -14.7412 H   0  0  0  0  0  0
   26.9494  -11.1438  -12.2879 H   0  0  0  0  0  0
   28.2191  -12.1285  -13.0910 H   0  0  0  0  0  0
   28.4234   -9.6866  -13.6064 H   0  0  0  0  0  0
   28.1332  -10.6750  -15.0780 H   0  0  0  0  0  0
   26.4900   -9.2624  -15.5742 H   0  0  0  0  0  0
   26.5927   -8.4762  -13.9623 H   0  0  0  0  0  0
   23.3699   -8.5162  -17.6764 H   0  0  0  0  0  0
   24.6335   -9.5823  -16.9741 H   0  0  0  0  0  0
   23.8276  -11.4766  -18.4524 H   0  0  0  0  0  0
   25.0437   -8.9907  -19.4558 H   0  0  0  0  0  0
   25.2715  -10.6672  -20.0590 H   0  0  0  0  0  0
   24.9235   -9.0966  -22.6036 H   0  0  0  0  0  0
   23.0208   -8.7176  -24.1731 H   0  0  0  0  0  0
   20.6955   -8.9742  -23.4459 H   0  0  0  0  0  0
   20.1494   -9.6424  -21.1076 H   0  0  0  0  0  0
   20.2950   -9.8302  -18.5034 H   0  0  0  0  0  0
   20.7357  -11.5252  -18.9026 H   0  0  0  0  0  0
   20.6489  -10.4633  -16.3324 H   0  0  0  0  0  0
   19.6683  -12.6737  -16.8894 H   0  0  0  0  0  0
   21.6361  -14.7709  -15.8889 H   0  0  0  0  0  0
   21.5201  -14.6071  -18.5673 H   0  0  0  0  0  0
   21.5804  -16.1974  -17.7342 H   0  0  0  0  0  0
   19.0485  -14.7680  -18.7007 H   0  0  0  0  0  0
   19.8384  -16.1746  -19.4907 H   0  0  0  0  0  0
   16.9476  -17.2941  -16.1587 H   0  0  0  0  0  0
   16.4359  -16.4147  -13.8887 H   0  0  0  0  0  0
   17.8818  -14.6806  -12.8848 H   0  0  0  0  0  0
   19.8847  -13.8651  -14.0875 H   0  0  0  0  0  0
  1  2  1  0  0  0
  1 44  1  0  0  0
  1 45  1  0  0  0
  1 46  1  0  0  0
  2  3  1  0  0  0
  2 47  1  0  0  0
  2 48  1  0  0  0
  3  4  1  0  0  0
  3  6  1  0  0  0
  3 49  1  0  0  0
  4  5  1  0  0  0
  4 50  1  0  0  0
  4 51  1  0  0  0
  5 52  1  0  0  0
  5 53  1  0  0  0
  5 54  1  0  0  0
  6  7  2  0  0  0
  6  8  1  0  0  0
  8  9  1  0  0  0
  8 55  1  0  0  0
  9 10  1  0  0  0
  9 16  1  0  0  0
  9 56  1  0  0  0
 10 11  1  0  0  0
 10 15  1  0  0  0
 10 57  1  0  0  0
 11 12  1  0  0  0
 11 58  1  0  0  0
 11 59  1  0  0  0
 12 13  1  0  0  0
 12 60  1  0  0  0
 12 61  1  0  0  0
 13 14  1  0  0  0
 13 62  1  0  0  0
 13 63  1  0  0  0
 14 15  1  0  0  0
 14 64  1  0  0  0
 14 65  1  0  0  0
 15 66  1  0  0  0
 15 67  1  0  0  0
 16 17  2  0  0  0
 16 18  1  0  0  0
 18 19  1  0  0  0
 18 30  1  0  0  0
 19 20  1  0  0  0
 19 68  1  0  0  0
 19 69  1  0  0  0
 20 21  1  0  0  0
 20 28  1  0  0  0
 20 70  1  0  0  0
 21 22  1  0  0  0
 21 71  1  0  0  0
 21 72  1  0  0  0
 22 23  2  0  0  0
 22 27  1  0  0  0
 23 24  1  0  0  0
 23 73  1  0  0  0
 24 25  2  0  0  0
 24 74  1  0  0  0
 25 26  1  0  0  0
 25 75  1  0  0  0
 26 27  2  0  0  0
 26 76  1  0  0  0
 27 28  1  0  0  0
 28 29  1  0  0  0
 29 30  1  0  0  0
 29 77  1  0  0  0
 29 78  1  0  0  0
 30 31  1  0  0  0
 30 79  1  0  0  0
 31 32  2  0  0  0
 31 33  1  0  0  0
 33 34  1  0  0  0
 33 80  1  0  0  0
 34 35  1  0  0  0
 34 43  1  0  0  0
 34 81  1  0  0  0
 35 36  1  0  0  0
 35 82  1  0  0  0
 35 83  1  0  0  0
 36 37  1  0  0  0
 36 84  1  0  0  0
 36 85  1  0  0  0
 37 38  1  0  0  0
 38 39  2  0  0  0
 38 43  1  0  0  0
 39 40  1  0  0  0
 39 86  1  0  0  0
 40 41  2  0  0  0
 40 87  1  0  0  0
 41 42  1  0  0  0
 41 88  1  0  0  0
 42 43  2  0  0  0
 42 89  1  0  0  0
M  CHG  1   4   1
M  END
> <s_m_source_file>
../4mu7_ligand.sdf

> <i_m_source_file_index>
1

> <s_epik_input>
W0NIMl0xW0NIMl1bQ0gyXVtDSDJdW0NIMl1bQ0hdMVtDQEhdKFtOSF1DKD1PKVtDQEhdKFtDSDJdW0NIM10pW05IMitdW0NIM10pQyg9TylOKFtDSDJdMilbQ0BASF0oW0NIMl1OKFtDQEhdMjMpYzRjKFtDSDJdMylbY0hdW2NIXVtjSF1bY0hdNClDKD1PKVtOSF1bQ0BIXShbQ0gyXVtDSDJdTzUpYyhjNTYpW2NIXVtjSF1bY0hdW2NIXTY=

> <s_epik_cmdline>
J2VwaWtfYXBwJywgJy1pbWFlJywgJ2xpZ2FuZF9wcm8ubWFlJywgJy1vbWFlJywgJ2xpZ2FuZF9wcmVwLm1hZScsICctbXMnLCAnMScsICctcGgnLCAnNycsICctcGh0JywgJzAuNScsICctbnQn

> <r_lp_tautomer_probability>
1

> <r_epik_Ionization_Penalty>
  0.0691

> <r_epik_Ionization_Penalty_Charging>
  0.0691

> <r_epik_Ionization_Penalty_Neutral>
  0.0000

> <r_epik_State_Penalty>
  0.0605

> <r_epik_Charging_Adjusted_Penalty>
0.129600302577447

> <i_epik_Tot_Q>
1

> <i_epik_Tot_abs_Q>
1

$$$$
