4muv_ligand
                    3D
 Schrodinger Suite 2020-3.
 34 37  0  0  1  0            999 V2000
   12.8990   -0.8020   88.9850 P   0  0  2  0  0  0
   11.6160   -0.1600   88.4990 O   0  5  0  0  0  0
   12.8330   -1.5160   90.2880 O   0  0  0  0  0  0
   13.9870    0.2920   89.0710 O   0  0  0  0  0  0
   15.2950   -0.0580   89.1370 C   0  0  0  0  0  0
   15.6010   -0.9850   87.9470 C   0  0  1  0  0  0
   16.9810   -1.4780   87.7680 O   0  0  0  0  0  0
   14.8090   -2.1090   88.0200 C   0  0  1  0  0  0
   13.3880   -1.8060   87.8550 O   0  0  0  0  0  0
   15.4280   -3.0090   86.8740 C   0  0  1  0  0  0
   14.7510   -2.7320   85.6480 O   0  0  0  0  0  0
   16.7810   -2.6330   86.8150 C   0  0  2  0  0  0
   17.7490   -3.6400   87.1330 N   0  0  0  0  0  0
   18.7030   -4.1700   86.2980 C   0  0  0  0  0  0
   19.3680   -5.1680   86.8830 N   0  0  0  0  0  0
   18.8220   -5.2770   88.1390 C   0  0  0  0  0  0
   19.1130   -6.1680   89.2280 C   0  0  0  0  0  0
   19.9910   -7.0650   89.2270 O   0  0  0  0  0  0
   18.3380   -5.9690   90.3450 N   0  3  0  0  0  0
   17.3170   -5.0350   90.4280 C   0  0  0  0  0  0
   16.6080   -4.9430   91.5680 N   0  0  0  0  0  0
   17.0090   -4.1670   89.4120 N   0  0  0  0  0  0
   17.8140   -4.3510   88.2680 C   0  0  0  0  0  0
   15.9195    0.8460   89.0843 H   0  0  0  0  0  0
   15.4871   -0.5816   90.0851 H   0  0  0  0  0  0
   15.3652   -0.4081   87.0406 H   0  0  0  0  0  0
   14.8164   -2.5004   89.0480 H   0  0  0  0  0  0
   15.3878   -4.1039   86.9720 H   0  0  0  0  0  0
   13.6828   -2.9727   85.5430 H   0  0  0  0  0  0
   16.9304   -2.4489   85.7409 H   0  0  0  0  0  0
   18.8929   -3.8188   85.2838 H   0  0  0  0  0  0
   16.8244   -5.6212   92.4066 H   0  0  0  0  0  0
   15.8120   -4.1896   91.6613 H   0  0  0  0  0  0
   18.5110   -6.5715   91.2489 H   0  0  0  0  0  0
  1  2  1  0  0  0
  1  3  2  0  0  0
  1  4  1  0  0  0
  1  9  1  0  0  0
  4  5  1  0  0  0
  5  6  1  0  0  0
  5 24  1  0  0  0
  5 25  1  0  0  0
  6  7  1  0  0  0
  6  8  1  0  0  0
  6 26  1  0  0  0
  7 12  1  0  0  0
  8  9  1  0  0  0
  8 10  1  0  0  0
  8 27  1  0  0  0
 10 11  1  0  0  0
 10 12  1  0  0  0
 10 28  1  0  0  0
 11 29  1  0  0  0
 12 13  1  0  0  0
 12 30  1  0  0  0
 13 14  1  0  0  0
 13 23  1  0  0  0
 14 15  2  0  0  0
 14 31  1  0  0  0
 15 16  1  0  0  0
 16 17  1  0  0  0
 16 23  2  0  0  0
 17 18  2  0  0  0
 17 19  1  0  0  0
 19 20  1  0  0  0
 19 34  1  0  0  0
 20 21  1  0  0  0
 20 22  2  0  0  0
 21 32  1  0  0  0
 21 33  1  0  0  0
 22 23  1  0  0  0
M  CHG  2   2  -1  19   1
M  END
> <s_m_source_file>
../4muv_ligand.sdf

> <i_m_source_file_index>
1

> <s_epik_input>
W0NIMl0xT1tQQEBdKD1PKShbT0hdKU9bQ0BIXShbQ0BASF0xMilbQ0BASF0oW09IXSlbQ0BASF0oTzIpbihbY0hdbjMpYyhjMzQpW25IXWMoPU5cW0hdKVxbbkhdYzQ9Tw==

> <s_epik_cmdline>
J2VwaWtfYXBwJywgJy1pbWFlJywgJ2xpZ2FuZF9wcm8ubWFlJywgJy1vbWFlJywgJ2xpZ2FuZF9wcmVwLm1hZScsICctbXMnLCAnMScsICctcGgnLCAnNycsICctcGh0JywgJzAuNScsICctbnQn

> <r_epik_Ionization_Penalty>
  2.3888

> <r_epik_Ionization_Penalty_Charging>
  2.3887

> <r_epik_Ionization_Penalty_Neutral>
  0.0001

> <r_epik_State_Penalty>
  0.2212

> <r_epik_Charging_Adjusted_Penalty>
2.60994165546953

> <i_epik_Tot_Q>
0

> <i_epik_Tot_abs_Q>
2

> <s_epik_Chemistry_Notes>
This compound has an imine and may undergo hydrolysis. This compound contains an acetal/aminal-like group ( X-CH(R)-Y where X, Y are N, S, or O) that may be acid/base labile, releasing an aldehyde.

$$$$
