4mvh_ligand
                    3D
 Schrodinger Suite 2020-3.
 48 52  0  0  1  0            999 V2000
  -14.4200   45.0050   86.6820 O   0  0  0  0  0  0
  -15.1930   44.2400   87.2380 C   0  0  0  0  0  0
  -16.6080   44.7030   87.4830 C   0  0  0  0  0  0
  -17.6910   43.9210   87.6340 N   0  0  0  0  0  0
  -18.8050   44.7350   87.8450 C   0  0  0  0  0  0
  -20.1790   44.4410   88.0690 C   0  0  0  0  0  0
  -21.0970   45.4920   88.2510 C   0  0  0  0  0  0
  -20.6560   46.8310   88.2150 C   0  0  0  0  0  0
  -19.3100   47.1210   87.9980 C   0  0  0  0  0  0
  -18.3680   46.0460   87.8130 C   0  0  0  0  0  0
  -17.0010   46.0080   87.5860 N   0  0  0  0  0  0
  -14.6970   42.8700   87.6740 C   0  0  0  0  0  0
  -15.5740   41.9320   88.2670 C   0  0  0  0  0  0
  -15.1070   40.6800   88.6630 C   0  0  0  0  0  0
  -13.7710   40.3440   88.4690 C   0  0  0  0  0  0
  -13.3370   39.1020   88.8920 O   0  0  0  0  0  0
  -12.9630   38.2090   87.9070 C   0  0  0  0  0  0
  -13.6950   38.0730   86.7760 N   0  0  0  0  0  0
  -13.3250   37.1830   85.8270 C   0  0  0  0  0  0
  -12.1900   36.4020   86.0270 C   0  0  0  0  0  0
  -11.4570   36.5320   87.1700 N   0  0  0  0  0  0
  -11.8200   37.4160   88.1220 C   0  0  0  0  0  0
  -11.0310   37.5650   89.3590 N   0  0  0  0  0  0
  -10.9010   36.3450   89.9070 C   0  0  0  0  0  0
  -10.6060   36.4750   91.3780 C   0  0  0  0  0  0
   -9.6300   37.5340   91.6740 O   0  0  0  0  0  0
  -10.0310   38.8090   91.0620 C   0  0  0  0  0  0
  -10.2730   38.6580   89.5840 C   0  0  0  0  0  0
  -12.8890   41.2720   87.8940 C   0  0  0  0  0  0
  -13.3630   42.5320   87.4940 C   0  0  0  0  0  0
  -20.5199   43.3956   88.0994 H   0  0  0  0  0  0
  -22.1603   45.2675   88.4216 H   0  0  0  0  0  0
  -21.3751   47.6509   88.3584 H   0  0  0  0  0  0
  -18.9712   48.1566   87.9683 H   0  0  0  0  0  0
  -16.6225   42.1902   88.4153 H   0  0  0  0  0  0
  -15.7879   39.9647   89.1243 H   0  0  0  0  0  0
  -13.9104   37.0782   84.9136 H   0  0  0  0  0  0
  -11.8856   35.6830   85.2664 H   0  0  0  0  0  0
  -11.8357   35.7810   89.7721 H   0  0  0  0  0  0
  -10.0752   35.8088   89.4166 H   0  0  0  0  0  0
  -11.5339   36.7138   91.9183 H   0  0  0  0  0  0
  -10.1960   35.5264   91.7550 H   0  0  0  0  0  0
  -10.9591   39.1657   91.5325 H   0  0  0  0  0  0
   -9.2350   39.5535   91.2106 H   0  0  0  0  0  0
   -9.3093   38.5490   89.0650 H   0  0  0  0  0  0
  -10.7942   39.5499   89.2059 H   0  0  0  0  0  0
  -11.8384   41.0153   87.7582 H   0  0  0  0  0  0
  -12.6791   43.2488   87.0395 H   0  0  0  0  0  0
  1  2  2  0  0  0
  2  3  1  0  0  0
  2 12  1  0  0  0
  3  4  2  0  0  0
  3 11  1  0  0  0
  4  5  1  0  0  0
  5  6  2  0  0  0
  5 10  1  0  0  0
  6  7  1  0  0  0
  6 31  1  0  0  0
  7  8  2  0  0  0
  7 32  1  0  0  0
  8  9  1  0  0  0
  8 33  1  0  0  0
  9 10  1  0  0  0
  9 34  1  0  0  0
 10 11  2  0  0  0
 12 13  2  0  0  0
 12 30  1  0  0  0
 13 14  1  0  0  0
 13 35  1  0  0  0
 14 15  2  0  0  0
 14 36  1  0  0  0
 15 16  1  0  0  0
 15 29  1  0  0  0
 16 17  1  0  0  0
 17 18  2  0  0  0
 17 22  1  0  0  0
 18 19  1  0  0  0
 19 20  2  0  0  0
 19 37  1  0  0  0
 20 21  1  0  0  0
 20 38  1  0  0  0
 21 22  2  0  0  0
 22 23  1  0  0  0
 23 24  1  0  0  0
 23 28  1  0  0  0
 24 25  1  0  0  0
 24 39  1  0  0  0
 24 40  1  0  0  0
 25 26  1  0  0  0
 25 41  1  0  0  0
 25 42  1  0  0  0
 26 27  1  0  0  0
 27 28  1  0  0  0
 27 43  1  0  0  0
 27 44  1  0  0  0
 28 45  1  0  0  0
 28 46  1  0  0  0
 29 30  2  0  0  0
 29 47  1  0  0  0
 30 48  1  0  0  0
M  END
> <s_m_source_file>
../4mvh_ligand.sdf

> <i_m_source_file_index>
1

> <s_epik_input>
W0NIXTFbQ0hdPVtDSF1bQ0gyXUMoQz0xMik9TkMoPU4yKUMoPU8pYzNbY0hdW2NIXWMoW2NIXVtjSF0zKU9jNG5bY0hdW2NIXW5jNE41W0NIMl1bQ0gyXU9bQ0gyXVtDSDJdNQ==

> <s_epik_cmdline>
J2VwaWtfYXBwJywgJy1pbWFlJywgJ2xpZ2FuZF9wcm8ubWFlJywgJy1vbWFlJywgJ2xpZ2FuZF9wcmVwLm1hZScsICctbXMnLCAnMScsICctcGgnLCAnNycsICctcGh0JywgJzAuNScsICctbnQn

> <r_lp_tautomer_probability>
1

> <r_epik_Ionization_Penalty>
  0.0017

> <r_epik_Ionization_Penalty_Charging>
  0.0000

> <r_epik_Ionization_Penalty_Neutral>
  0.0017

> <r_epik_State_Penalty>
 -0.0000

> <r_epik_Charging_Adjusted_Penalty>
0

> <i_epik_Tot_Q>
0

> <i_epik_Tot_abs_Q>
0

> <s_epik_Chemistry_Notes>
This compound has an imine and may undergo hydrolysis.

$$$$
