4mvw_ligand
                    3D
 Schrodinger Suite 2020-3.
 40 41  0  0  1  0            999 V2000
  -41.2900   14.5180    7.1960 C   0  0  0  0  0  0
  -40.7020   15.7640    7.1470 C   0  0  0  0  0  0
  -41.7190   17.1710    7.0600 Cl  0  0  0  0  0  0
  -39.3340   15.9250    7.1090 C   0  0  0  0  0  0
  -38.5550   14.7880    7.0910 C   0  0  0  0  0  0
  -36.8160   14.9510    7.0030 Cl  0  0  0  0  0  0
  -39.1130   13.5250    7.1280 C   0  0  0  0  0  0
  -40.4950   13.3820    7.1830 C   0  0  0  0  0  0
  -41.1310   12.0150    7.2050 C   0  0  0  0  0  0
  -41.3860   11.5130    8.5560 N   0  3  0  0  0  0
  -42.7670   11.7190    8.9900 C   0  0  0  0  0  0
  -42.9820   11.3640   10.4500 C   0  0  0  0  0  0
  -43.9450   12.2720   11.1910 C   0  0  0  0  0  0
  -43.2870   13.0750   12.2120 N   0  0  0  0  0  0
  -43.9760   13.8910   13.0300 C   0  0  0  0  0  0
  -45.1870   13.7880   13.2070 O   0  0  0  0  0  0
  -43.2210   14.8530   13.6780 N   0  0  0  0  0  0
  -43.6840   15.8410   14.5600 C   0  0  0  0  0  0
  -42.7290   16.6520   15.2460 C   0  0  0  0  0  0
  -43.2690   17.5760   16.0430 C   0  0  0  0  0  0
  -44.9310   17.4990   15.9750 S   0  0  0  0  0  0
  -44.9430   16.2060   14.8790 C   0  0  0  0  0  0
  -42.3750   14.4263    7.2447 H   0  0  0  0  0  0
  -38.8834   16.9174    7.0937 H   0  0  0  0  0  0
  -38.4721   12.6434    7.1141 H   0  0  0  0  0  0
  -42.0964   12.0512    6.6789 H   0  0  0  0  0  0
  -40.4677   11.2939    6.7049 H   0  0  0  0  0  0
  -41.1824   10.4325    8.5902 H   0  0  0  0  0  0
  -40.7301   12.0325    9.2701 H   0  0  0  0  0  0
  -43.0392   12.7765    8.8571 H   0  0  0  0  0  0
  -43.4384   11.0891    8.3880 H   0  0  0  0  0  0
  -43.3880   10.3443   10.5234 H   0  0  0  0  0  0
  -42.0224   11.4159   10.9852 H   0  0  0  0  0  0
  -44.4231   12.9596   10.4778 H   0  0  0  0  0  0
  -44.7158   11.6631   11.6861 H   0  0  0  0  0  0
  -42.1947   13.0250   12.3317 H   0  0  0  0  0  0
  -42.1329   14.8953   13.5221 H   0  0  0  0  0  0
  -41.6526   16.5269   15.1286 H   0  0  0  0  0  0
  -42.7028   18.2808   16.6519 H   0  0  0  0  0  0
  -45.8438   15.7344   14.4861 H   0  0  0  0  0  0
  1  2  2  0  0  0
  1  8  1  0  0  0
  1 23  1  0  0  0
  2  3  1  0  0  0
  2  4  1  0  0  0
  4  5  2  0  0  0
  4 24  1  0  0  0
  5  6  1  0  0  0
  5  7  1  0  0  0
  7  8  2  0  0  0
  7 25  1  0  0  0
  8  9  1  0  0  0
  9 10  1  0  0  0
  9 26  1  0  0  0
  9 27  1  0  0  0
 10 11  1  0  0  0
 10 28  1  0  0  0
 10 29  1  0  0  0
 11 12  1  0  0  0
 11 30  1  0  0  0
 11 31  1  0  0  0
 12 13  1  0  0  0
 12 32  1  0  0  0
 12 33  1  0  0  0
 13 14  1  0  0  0
 13 34  1  0  0  0
 13 35  1  0  0  0
 14 15  1  0  0  0
 14 36  1  0  0  0
 15 16  2  0  0  0
 15 17  1  0  0  0
 17 18  1  0  0  0
 17 37  1  0  0  0
 18 19  1  0  0  0
 18 22  2  0  0  0
 19 20  2  0  0  0
 19 38  1  0  0  0
 20 21  1  0  0  0
 20 39  1  0  0  0
 21 22  1  0  0  0
 22 40  1  0  0  0
M  CHG  1  10   1
M  END
> <s_m_source_file>
../4mvw_ligand.sdf

> <i_m_source_file_index>
1

> <s_epik_input>
Q2xjMVtjSF1jKFtjSF1jKENsKVtjSF0xKVtDSDJdW05IMitdW0NIMl1bQ0gyXVtDSDJdW05IXUMoPU8pW05IXWMyW2NIXVtjSF1zW2NIXTI=

> <s_epik_cmdline>
J2VwaWtfYXBwJywgJy1pbWFlJywgJ2xpZ2FuZF9wcm8ubWFlJywgJy1vbWFlJywgJ2xpZ2FuZF9wcmVwLm1hZScsICctbXMnLCAnMScsICctcGgnLCAnNycsICctcGh0JywgJzAuNScsICctbnQn

> <r_epik_Ionization_Penalty>
  0.0230

> <r_epik_Ionization_Penalty_Charging>
  0.0230

> <r_epik_Ionization_Penalty_Neutral>
  0.0000

> <r_epik_State_Penalty>
  0.0186

> <r_epik_Charging_Adjusted_Penalty>
0.0415441796755597

> <i_epik_Tot_Q>
1

> <i_epik_Tot_abs_Q>
1

$$$$
