4mvx_ligand
                    3D
 Schrodinger Suite 2020-3.
 43 44  0  0  1  0            999 V2000
  -45.6720  -13.7090  -12.7080 O   0  0  0  0  0  0
  -42.0160  -17.1800   -7.0640 Cl  0  0  0  0  0  0
  -37.1160  -14.9390   -6.9770 Cl  0  0  0  0  0  0
  -44.8450  -17.6790  -15.9750 C   0  0  0  0  0  0
  -45.7850  -16.7490  -15.6020 C   0  0  0  0  0  0
  -43.5340  -17.5300  -15.5700 C   0  0  0  0  0  0
  -45.4290  -15.6710  -14.8060 C   0  0  0  0  0  0
  -43.1580  -16.4530  -14.7850 C   0  0  0  0  0  0
  -39.6430  -15.9140   -7.1580 C   0  0  0  0  0  0
  -41.6120  -14.5250   -7.0420 C   0  0  0  0  0  0
  -39.4370  -13.5130   -7.0420 C   0  0  0  0  0  0
  -43.3500  -11.2910  -10.0510 C   0  0  0  0  0  0
  -42.8740  -12.0840   -8.8480 C   0  0  0  0  0  0
  -44.3600  -12.0040  -10.9330 C   0  0  0  0  0  0
  -41.4930  -12.0370   -6.8130 C   0  0  0  0  0  0
  -41.9090  -11.3360   -8.0370 N   0  3  0  0  0  0
  -43.7440  -12.7700  -12.0110 N   0  0  0  0  0  0
  -43.6750  -14.4620  -13.5430 N   0  0  0  0  0  0
  -44.4440  -13.6530  -12.7470 C   0  0  0  0  0  0
  -41.0150  -15.7630   -7.1130 C   0  0  0  0  0  0
  -38.8680  -14.7740   -7.1000 C   0  0  0  0  0  0
  -40.8270  -13.3830   -7.0000 C   0  0  0  0  0  0
  -44.1080  -15.5180  -14.3880 C   0  0  0  0  0  0
  -45.1338  -18.5321  -16.5890 H   0  0  0  0  0  0
  -46.8173  -16.8594  -15.9340 H   0  0  0  0  0  0
  -42.7885  -18.2662  -15.8705 H   0  0  0  0  0  0
  -46.1827  -14.9426  -14.5068 H   0  0  0  0  0  0
  -42.1183  -16.3381  -14.4785 H   0  0  0  0  0  0
  -39.1875  -16.9011   -7.2367 H   0  0  0  0  0  0
  -42.6986  -14.4426   -7.0189 H   0  0  0  0  0  0
  -38.8033  -12.6262   -7.0292 H   0  0  0  0  0  0
  -43.8304  -10.3617   -9.7108 H   0  0  0  0  0  0
  -42.4904  -11.0460  -10.6921 H   0  0  0  0  0  0
  -43.7344  -12.3343   -8.2100 H   0  0  0  0  0  0
  -42.3882  -13.0104   -9.1883 H   0  0  0  0  0  0
  -44.9493  -12.7045  -10.3231 H   0  0  0  0  0  0
  -45.0314  -11.2643  -11.3935 H   0  0  0  0  0  0
  -40.7694  -11.4171   -6.2634 H   0  0  0  0  0  0
  -42.3729  -12.2222   -6.1794 H   0  0  0  0  0  0
  -41.0016  -11.1463   -8.6291 H   0  0  0  0  0  0
  -42.3532  -10.3778   -7.7296 H   0  0  0  0  0  0
  -42.6772  -12.6341  -12.2423 H   0  0  0  0  0  0
  -42.5839  -14.3262  -13.5742 H   0  0  0  0  0  0
  1 19  2  0  0  0
  2 20  1  0  0  0
  3 21  1  0  0  0
  4  5  2  0  0  0
  4  6  1  0  0  0
  4 24  1  0  0  0
  5  7  1  0  0  0
  5 25  1  0  0  0
  6  8  2  0  0  0
  6 26  1  0  0  0
  7 23  2  0  0  0
  7 27  1  0  0  0
  8 23  1  0  0  0
  8 28  1  0  0  0
  9 20  2  0  0  0
  9 21  1  0  0  0
  9 29  1  0  0  0
 10 20  1  0  0  0
 10 22  2  0  0  0
 10 30  1  0  0  0
 11 21  2  0  0  0
 11 22  1  0  0  0
 11 31  1  0  0  0
 12 13  1  0  0  0
 12 14  1  0  0  0
 12 32  1  0  0  0
 12 33  1  0  0  0
 13 16  1  0  0  0
 13 34  1  0  0  0
 13 35  1  0  0  0
 14 17  1  0  0  0
 14 36  1  0  0  0
 14 37  1  0  0  0
 15 16  1  0  0  0
 15 22  1  0  0  0
 15 38  1  0  0  0
 15 39  1  0  0  0
 16 40  1  0  0  0
 16 41  1  0  0  0
 17 19  1  0  0  0
 17 42  1  0  0  0
 18 19  1  0  0  0
 18 23  1  0  0  0
 18 43  1  0  0  0
M  CHG  1  16   1
M  END
> <s_m_source_file>
../4mvx_ligand.sdf

> <i_m_source_file_index>
1

> <s_epik_input>
W2NIXTFbY0hdW2NIXVtjSF1bY0hdYzFbTkhdQyg9TylbTkhdW0NIMl1bQ0gyXVtDSDJdW05IMitdW0NIMl1jKFtjSF0yKVtjSF1jKENsKVtjSF1jMkNs

> <s_epik_cmdline>
J2VwaWtfYXBwJywgJy1pbWFlJywgJ2xpZ2FuZF9wcm8ubWFlJywgJy1vbWFlJywgJ2xpZ2FuZF9wcmVwLm1hZScsICctbXMnLCAnMScsICctcGgnLCAnNycsICctcGh0JywgJzAuNScsICctbnQn

> <r_epik_Ionization_Penalty>
  0.0231

> <r_epik_Ionization_Penalty_Charging>
  0.0231

> <r_epik_Ionization_Penalty_Neutral>
  0.0000

> <r_epik_State_Penalty>
  0.0186

> <r_epik_Charging_Adjusted_Penalty>
0.0416953274702929

> <i_epik_Tot_Q>
1

> <i_epik_Tot_abs_Q>
1

$$$$
