4mw1_ligand
                    3D
 Schrodinger Suite 2020-3.
 44 45  0  0  1  0            999 V2000
  -41.6950  -17.7880   -7.0710 C   0  0  0  0  0  0
  -42.1660  -16.4520   -6.9750 O   0  0  0  0  0  0
  -41.2520  -15.4400   -6.9860 C   0  0  0  0  0  0
  -41.8120  -14.1790   -7.0030 C   0  0  0  0  0  0
  -39.8860  -15.6230   -7.0390 C   0  0  0  0  0  0
  -39.0890  -14.5080   -7.1210 C   0  0  0  0  0  0
  -37.3700  -14.7200   -7.1630 Cl  0  0  0  0  0  0
  -39.6160  -13.2330   -7.1570 C   0  0  0  0  0  0
  -40.9980  -13.0600   -7.0970 C   0  0  0  0  0  0
  -41.6290  -11.6890   -7.1120 C   0  0  0  0  0  0
  -42.0230  -11.2070   -8.4400 N   0  3  0  0  0  0
  -43.0800  -12.0040   -9.0660 C   0  0  0  0  0  0
  -43.6410  -11.3270  -10.2990 C   0  0  0  0  0  0
  -44.5670  -12.1890  -11.1360 C   0  0  0  0  0  0
  -43.8450  -13.0040  -12.1020 N   0  0  0  0  0  0
  -44.4720  -13.8500  -12.9380 C   0  0  0  0  0  0
  -45.6830  -13.8260  -13.1170 O   0  0  0  0  0  0
  -43.6590  -14.7360  -13.6330 N   0  0  0  0  0  0
  -44.1160  -15.7380  -14.5220 C   0  0  0  0  0  0
  -43.1640  -16.6190  -15.1180 C   0  0  0  0  0  0
  -43.7330  -17.5560  -15.9090 C   0  0  0  0  0  0
  -45.4230  -17.4070  -15.9460 S   0  0  0  0  0  0
  -45.4000  -16.0630  -14.9080 C   0  0  0  0  0  0
  -42.5494  -18.4805   -7.0484 H   0  0  0  0  0  0
  -41.0264  -18.0028   -6.2243 H   0  0  0  0  0  0
  -41.1443  -17.9157   -8.0146 H   0  0  0  0  0  0
  -42.8941  -14.0623   -6.9426 H   0  0  0  0  0  0
  -39.4522  -16.6227   -7.0165 H   0  0  0  0  0  0
  -38.9569  -12.3681   -7.2318 H   0  0  0  0  0  0
  -42.5398  -11.6978   -6.4952 H   0  0  0  0  0  0
  -40.9184  -10.9538   -6.7062 H   0  0  0  0  0  0
  -42.3951  -10.1749   -8.3599 H   0  0  0  0  0  0
  -41.1527  -11.2318   -9.1122 H   0  0  0  0  0  0
  -42.6740  -12.9819   -9.3641 H   0  0  0  0  0  0
  -43.9015  -12.1511   -8.3494 H   0  0  0  0  0  0
  -44.2195  -10.4407   -9.9994 H   0  0  0  0  0  0
  -42.8146  -11.0202  -10.9569 H   0  0  0  0  0  0
  -45.1335  -12.8645  -10.4781 H   0  0  0  0  0  0
  -45.2660  -11.5453  -11.6901 H   0  0  0  0  0  0
  -42.7487  -12.9398  -12.1656 H   0  0  0  0  0  0
  -42.5666  -14.6904  -13.5124 H   0  0  0  0  0  0
  -42.0893  -16.5439  -14.9524 H   0  0  0  0  0  0
  -43.1742  -18.3150  -16.4565 H   0  0  0  0  0  0
  -46.2906  -15.5233  -14.5862 H   0  0  0  0  0  0
  1  2  1  0  0  0
  1 24  1  0  0  0
  1 25  1  0  0  0
  1 26  1  0  0  0
  2  3  1  0  0  0
  3  4  2  0  0  0
  3  5  1  0  0  0
  4  9  1  0  0  0
  4 27  1  0  0  0
  5  6  2  0  0  0
  5 28  1  0  0  0
  6  7  1  0  0  0
  6  8  1  0  0  0
  8  9  2  0  0  0
  8 29  1  0  0  0
  9 10  1  0  0  0
 10 11  1  0  0  0
 10 30  1  0  0  0
 10 31  1  0  0  0
 11 12  1  0  0  0
 11 32  1  0  0  0
 11 33  1  0  0  0
 12 13  1  0  0  0
 12 34  1  0  0  0
 12 35  1  0  0  0
 13 14  1  0  0  0
 13 36  1  0  0  0
 13 37  1  0  0  0
 14 15  1  0  0  0
 14 38  1  0  0  0
 14 39  1  0  0  0
 15 16  1  0  0  0
 15 40  1  0  0  0
 16 17  2  0  0  0
 16 18  1  0  0  0
 18 19  1  0  0  0
 18 41  1  0  0  0
 19 20  1  0  0  0
 19 23  2  0  0  0
 20 21  2  0  0  0
 20 42  1  0  0  0
 21 22  1  0  0  0
 21 43  1  0  0  0
 22 23  1  0  0  0
 23 44  1  0  0  0
M  CHG  1  11   1
M  END
> <s_m_source_file>
../4mw1_ligand.sdf

> <i_m_source_file_index>
1

> <s_epik_input>
W0NIM11PYzFbY0hdYyhbY0hdYyhDbClbY0hdMSlbQ0gyXVtOSDIrXVtDSDJdW0NIMl1bQ0gyXVtOSF1DKD1PKVtOSF1jMltjSF1bY0hdc1tjSF0y

> <s_epik_cmdline>
J2VwaWtfYXBwJywgJy1pbWFlJywgJ2xpZ2FuZF9wcm8ubWFlJywgJy1vbWFlJywgJ2xpZ2FuZF9wcmVwLm1hZScsICctbXMnLCAnMScsICctcGgnLCAnNycsICctcGh0JywgJzAuNScsICctbnQn

> <r_lp_tautomer_probability>
1

> <r_epik_Ionization_Penalty>
  0.0201

> <r_epik_Ionization_Penalty_Charging>
  0.0200

> <r_epik_Ionization_Penalty_Neutral>
  0.0000

> <r_epik_State_Penalty>
  0.0160

> <r_epik_Charging_Adjusted_Penalty>
0.0360337798836727

> <i_epik_Tot_Q>
1

> <i_epik_Tot_abs_Q>
1

$$$$
