4mw2_ligand
                    3D
 Schrodinger Suite 2020-3.
 48 49  0  0  1  0            999 V2000
  -45.1200   13.7520   13.5000 O   0  0  0  0  0  0
  -43.9600   13.8320   13.1090 C   0  0  0  0  0  0
  -43.1290   14.8210   13.5930 N   0  0  0  0  0  0
  -43.5630   15.8280   14.4720 C   0  0  0  0  0  0
  -42.6110   16.7710   14.9690 C   0  0  0  0  0  0
  -43.1650   17.7130   15.7660 C   0  0  0  0  0  0
  -44.8580   17.4710   15.9120 S   0  0  0  0  0  0
  -44.8460   16.0970   14.9250 C   0  0  0  0  0  0
  -43.4380   12.9620   12.2310 N   0  0  0  0  0  0
  -44.2870   11.9880   11.5580 C   0  0  0  0  0  0
  -43.7100   11.4810   10.2700 C   0  0  0  0  0  0
  -43.8760   12.4530    9.1240 C   0  0  0  0  0  0
  -43.5840   11.8210    7.8320 N   0  3  0  0  0  0
  -43.4010   12.7810    6.7430 C   0  0  0  0  0  0
  -42.2820   13.7750    6.9640 C   0  0  0  0  0  0
  -40.9920   13.3270    7.2750 C   0  0  0  0  0  0
  -40.7800   11.9970    7.4400 O   0  0  0  0  0  0
  -42.4930   15.1360    6.8030 C   0  0  0  0  0  0
  -41.4380   16.0110    6.9290 C   0  0  0  0  0  0
  -41.7170   17.7110    6.6750 Cl  0  0  0  0  0  0
  -40.1630   15.5770    7.2310 C   0  0  0  0  0  0
  -39.9170   14.2190    7.4080 C   0  0  0  0  0  0
  -38.5070   13.7310    7.7010 C   0  0  0  0  0  0
  -37.4520   14.5310    6.9700 C   0  0  0  0  0  0
  -36.8050   15.5390    7.4440 C   0  0  0  0  0  0
  -42.0711   14.8463   13.2926 H   0  0  0  0  0  0
  -41.5481   16.7348   14.7304 H   0  0  0  0  0  0
  -42.6111   18.5173   16.2502 H   0  0  0  0  0  0
  -45.7267   15.5039   14.6786 H   0  0  0  0  0  0
  -42.3585   12.9888   12.0211 H   0  0  0  0  0  0
  -44.4402   11.1191   12.2150 H   0  0  0  0  0  0
  -45.2589   12.4475   11.3253 H   0  0  0  0  0  0
  -42.6331   11.2969   10.3980 H   0  0  0  0  0  0
  -44.2112   10.5434    9.9876 H   0  0  0  0  0  0
  -44.9120   12.8220    9.1034 H   0  0  0  0  0  0
  -43.1876   13.3003    9.2592 H   0  0  0  0  0  0
  -42.6580   11.2328    7.9125 H   0  0  0  0  0  0
  -44.4160   11.1584    7.5515 H   0  0  0  0  0  0
  -43.1698   12.2409    5.8131 H   0  0  0  0  0  0
  -44.3243   13.3636    6.6088 H   0  0  0  0  0  0
  -41.6164   11.2899    7.3377 H   0  0  0  0  0  0
  -43.4910   15.5117    6.5774 H   0  0  0  0  0  0
  -39.3505   16.2967    7.3306 H   0  0  0  0  0  0
  -38.3071   13.8138    8.7795 H   0  0  0  0  0  0
  -38.4105   12.6804    7.3898 H   0  0  0  0  0  0
  -37.2543   14.1830    5.9454 H   0  0  0  0  0  0
  -37.0027   15.8870    8.4686 H   0  0  0  0  0  0
  -36.0548   16.0518    6.8242 H   0  0  0  0  0  0
  1  2  2  0  0  0
  2  3  1  0  0  0
  2  9  1  0  0  0
  3  4  1  0  0  0
  3 26  1  0  0  0
  4  5  1  0  0  0
  4  8  2  0  0  0
  5  6  2  0  0  0
  5 27  1  0  0  0
  6  7  1  0  0  0
  6 28  1  0  0  0
  7  8  1  0  0  0
  8 29  1  0  0  0
  9 10  1  0  0  0
  9 30  1  0  0  0
 10 11  1  0  0  0
 10 31  1  0  0  0
 10 32  1  0  0  0
 11 12  1  0  0  0
 11 33  1  0  0  0
 11 34  1  0  0  0
 12 13  1  0  0  0
 12 35  1  0  0  0
 12 36  1  0  0  0
 13 14  1  0  0  0
 13 37  1  0  0  0
 13 38  1  0  0  0
 14 15  1  0  0  0
 14 39  1  0  0  0
 14 40  1  0  0  0
 15 16  2  0  0  0
 15 18  1  0  0  0
 16 17  1  0  0  0
 16 22  1  0  0  0
 17 41  1  0  0  0
 18 19  2  0  0  0
 18 42  1  0  0  0
 19 20  1  0  0  0
 19 21  1  0  0  0
 21 22  2  0  0  0
 21 43  1  0  0  0
 22 23  1  0  0  0
 23 24  1  0  0  0
 23 44  1  0  0  0
 23 45  1  0  0  0
 24 25  2  0  0  0
 24 46  1  0  0  0
 25 47  1  0  0  0
 25 48  1  0  0  0
M  CHG  1  13   1
M  END
> <s_m_source_file>
../4mw2_ligand.sdf

> <i_m_source_file_index>
1

> <s_epik_input>
W2NIXTFzW2NIXVtjSF1jMVtOSF1DKD1PKVtOSF1bQ0gyXVtDSDJdW0NIMl1bTkgyK11bQ0gyXWMyYyhbT0hdKWMoW2NIXWMoQ2wpW2NIXTIpW0NIMl1bQ0hdPVtDSDJd

> <s_epik_cmdline>
J2VwaWtfYXBwJywgJy1pbWFlJywgJ2xpZ2FuZF9wcm8ubWFlJywgJy1vbWFlJywgJ2xpZ2FuZF9wcmVwLm1hZScsICctbXMnLCAnMScsICctcGgnLCAnNycsICctcGh0JywgJzAuNScsICctbnQn

> <r_lp_tautomer_probability>
1

> <r_epik_Ionization_Penalty>
  0.0320

> <r_epik_Ionization_Penalty_Charging>
  0.0167

> <r_epik_Ionization_Penalty_Neutral>
  0.0154

> <r_epik_State_Penalty>
 -0.0000

> <r_epik_Charging_Adjusted_Penalty>
0.0166616313854206

> <i_epik_Tot_Q>
1

> <i_epik_Tot_abs_Q>
1

$$$$
