4mw4_ligand
                    3D
 Schrodinger Suite 2020-3.
 40 41  0  0  1  0            999 V2000
  -36.7560   15.2180    7.0000 I   0  0  0  0  0  0
  -38.8640   14.9130    7.0920 C   0  0  0  0  0  0
  -39.4150   13.6130    7.0930 C   0  0  0  0  0  0
  -38.6000   12.5260    7.1240 O   0  5  0  0  0  0
  -39.7070   16.0190    7.1100 C   0  0  0  0  0  0
  -41.0760   15.8210    7.0890 C   0  0  0  0  0  0
  -42.1300   17.1990    7.0350 Cl  0  0  0  0  0  0
  -41.6330   14.5630    7.0740 C   0  0  0  0  0  0
  -40.8200   13.4410    7.0790 C   0  0  0  0  0  0
  -41.4230   12.0550    7.0450 C   0  0  0  0  0  0
  -41.6680   11.4320    8.3520 N   0  3  0  0  0  0
  -42.9500   11.8190    8.9530 C   0  0  0  0  0  0
  -43.1370   11.2450   10.3560 C   0  0  0  0  0  0
  -44.1150   11.9880   11.2490 C   0  0  0  0  0  0
  -43.4470   12.8720   12.1960 N   0  0  0  0  0  0
  -44.1240   13.7500   12.9590 C   0  0  0  0  0  0
  -45.3500   13.7500   13.0360 O   0  0  0  0  0  0
  -43.3430   14.6490   13.6630 N   0  0  0  0  0  0
  -43.8000   15.6870   14.5240 C   0  0  0  0  0  0
  -42.8400   16.5810   15.0920 C   0  0  0  0  0  0
  -43.3780   17.5340   15.8670 C   0  0  0  0  0  0
  -45.0700   17.3820   15.9270 S   0  0  0  0  0  0
  -45.0740   16.0210   14.9120 C   0  0  0  0  0  0
  -39.2949   17.0276    7.1402 H   0  0  0  0  0  0
  -42.7169   14.4487    7.0581 H   0  0  0  0  0  0
  -42.3968   12.0912    6.5346 H   0  0  0  0  0  0
  -40.7496   11.3754    6.5022 H   0  0  0  0  0  0
  -41.6728   10.3376    8.2414 H   0  0  0  0  0  0
  -40.8731   11.7261    9.0532 H   0  0  0  0  0  0
  -43.0045   12.9152    9.0262 H   0  0  0  0  0  0
  -43.7751   11.4520    8.3249 H   0  0  0  0  0  0
  -43.5104   10.2129   10.2831 H   0  0  0  0  0  0
  -42.1729   11.2495   10.8855 H   0  0  0  0  0  0
  -44.7849   12.6013   10.6285 H   0  0  0  0  0  0
  -44.7096   11.2632   11.8245 H   0  0  0  0  0  0
  -42.3531   12.8352   12.3052 H   0  0  0  0  0  0
  -42.2466   14.6028   13.5865 H   0  0  0  0  0  0
  -41.7684   16.4958   14.9116 H   0  0  0  0  0  0
  -42.8072   18.3025   16.3882 H   0  0  0  0  0  0
  -45.9715   15.4823   14.6079 H   0  0  0  0  0  0
  1  2  1  0  0  0
  2  3  2  0  0  0
  2  5  1  0  0  0
  3  4  1  0  0  0
  3  9  1  0  0  0
  5  6  2  0  0  0
  5 24  1  0  0  0
  6  7  1  0  0  0
  6  8  1  0  0  0
  8  9  2  0  0  0
  8 25  1  0  0  0
  9 10  1  0  0  0
 10 11  1  0  0  0
 10 26  1  0  0  0
 10 27  1  0  0  0
 11 12  1  0  0  0
 11 28  1  0  0  0
 11 29  1  0  0  0
 12 13  1  0  0  0
 12 30  1  0  0  0
 12 31  1  0  0  0
 13 14  1  0  0  0
 13 32  1  0  0  0
 13 33  1  0  0  0
 14 15  1  0  0  0
 14 34  1  0  0  0
 14 35  1  0  0  0
 15 16  1  0  0  0
 15 36  1  0  0  0
 16 17  2  0  0  0
 16 18  1  0  0  0
 18 19  1  0  0  0
 18 37  1  0  0  0
 19 20  1  0  0  0
 19 23  2  0  0  0
 20 21  2  0  0  0
 20 38  1  0  0  0
 21 22  1  0  0  0
 21 39  1  0  0  0
 22 23  1  0  0  0
 23 40  1  0  0  0
M  CHG  2   4  -1  11   1
M  END
> <s_m_source_file>
../4mw4_ligand.sdf

> <i_m_source_file_index>
1

> <s_epik_input>
SWMxYyhbT0hdKWMoW2NIXWMoQ2wpW2NIXTEpW0NIMl1bTkgyK11bQ0gyXVtDSDJdW0NIMl1bTkhdQyg9TylbTkhdYzJbY0hdW2NIXXNbY0hdMg==

> <s_epik_cmdline>
J2VwaWtfYXBwJywgJy1pbWFlJywgJ2xpZ2FuZF9wcm8ubWFlJywgJy1vbWFlJywgJ2xpZ2FuZF9wcmVwLm1hZScsICctbXMnLCAnMScsICctcGgnLCAnNycsICctcGh0JywgJzAuNScsICctbnQn

> <r_epik_Ionization_Penalty>
  0.2995

> <r_epik_Ionization_Penalty_Charging>
  0.2995

> <r_epik_Ionization_Penalty_Neutral>
  0.0000

> <r_epik_State_Penalty>
  0.2795

> <r_epik_Charging_Adjusted_Penalty>
0.578946477769503

> <i_epik_Tot_Q>
0

> <i_epik_Tot_abs_Q>
2

$$$$
