4mw5_ligand
                    3D
 Schrodinger Suite 2020-3.
 47 48  0  0  1  0            999 V2000
  -41.5580  -17.8760   -7.0910 C   0  0  0  0  0  0
  -42.0010  -16.5400   -6.9730 O   0  0  0  0  0  0
  -41.0690  -15.5380   -7.0230 C   0  0  0  0  0  0
  -41.6690  -14.2970   -6.9560 C   0  0  0  0  0  0
  -39.7000  -15.6690   -7.1350 C   0  0  0  0  0  0
  -38.9440  -14.5230   -7.1540 C   0  0  0  0  0  0
  -37.2230  -14.6670   -7.2090 Cl  0  0  0  0  0  0
  -39.5130  -13.2690   -7.0960 C   0  0  0  0  0  0
  -40.8970  -13.1480   -7.0060 C   0  0  0  0  0  0
  -41.5720  -11.7990   -6.9930 C   0  0  0  0  0  0
  -41.8800  -11.2900   -8.3320 N   0  3  0  0  0  0
  -43.0570  -11.9260   -8.9260 C   0  0  0  0  0  0
  -43.5110  -11.2180  -10.1820 C   0  0  0  0  0  0
  -44.4360  -12.0360  -11.0520 C   0  0  0  0  0  0
  -43.7180  -12.8690  -12.0110 N   0  0  0  0  0  0
  -44.3780  -13.6870  -12.8490 C   0  0  0  0  0  0
  -45.6060  -13.7370  -12.8700 O   0  0  0  0  0  0
  -43.5780  -14.4960  -13.6150 N   0  0  0  0  0  0
  -44.0010  -15.5480  -14.4730 C   0  0  0  0  0  0
  -45.3150  -15.6580  -14.9200 C   0  0  0  0  0  0
  -45.6870  -16.7220  -15.7280 C   0  0  0  0  0  0
  -44.7630  -17.6650  -16.1030 C   0  0  0  0  0  0
  -43.4540  -17.5530  -15.6750 C   0  0  0  0  0  0
  -43.0690  -16.5030  -14.8590 C   0  0  0  0  0  0
  -42.4213  -18.5551   -7.0317 H   0  0  0  0  0  0
  -40.8562  -18.1030   -6.2750 H   0  0  0  0  0  0
  -41.0515  -18.0103   -8.0582 H   0  0  0  0  0  0
  -42.7524  -14.2209   -6.8636 H   0  0  0  0  0  0
  -39.2333  -16.6515   -7.2062 H   0  0  0  0  0  0
  -38.8843  -12.3789   -7.1204 H   0  0  0  0  0  0
  -42.5202  -11.8688   -6.4398 H   0  0  0  0  0  0
  -40.9151  -11.0650   -6.5035 H   0  0  0  0  0  0
  -42.0750  -10.2088   -8.2773 H   0  0  0  0  0  0
  -41.0260  -11.4752   -9.0001 H   0  0  0  0  0  0
  -42.8186  -12.9678   -9.1865 H   0  0  0  0  0  0
  -43.8865  -11.9093   -8.2038 H   0  0  0  0  0  0
  -44.0513  -10.2992   -9.9101 H   0  0  0  0  0  0
  -42.6346  -10.9602  -10.7948 H   0  0  0  0  0  0
  -45.0438  -12.6991  -10.4189 H   0  0  0  0  0  0
  -45.0966  -11.3634  -11.6187 H   0  0  0  0  0  0
  -42.6195  -12.8337  -12.0561 H   0  0  0  0  0  0
  -42.4864  -14.3608  -13.6026 H   0  0  0  0  0  0
  -46.0519  -14.9072  -14.6347 H   0  0  0  0  0  0
  -46.7192  -16.8098  -16.0672 H   0  0  0  0  0  0
  -45.0610  -18.5002  -16.7369 H   0  0  0  0  0  0
  -42.7190  -18.2970  -15.9822 H   0  0  0  0  0  0
  -42.0360  -16.4258  -14.5199 H   0  0  0  0  0  0
  1  2  1  0  0  0
  1 25  1  0  0  0
  1 26  1  0  0  0
  1 27  1  0  0  0
  2  3  1  0  0  0
  3  4  2  0  0  0
  3  5  1  0  0  0
  4  9  1  0  0  0
  4 28  1  0  0  0
  5  6  2  0  0  0
  5 29  1  0  0  0
  6  7  1  0  0  0
  6  8  1  0  0  0
  8  9  2  0  0  0
  8 30  1  0  0  0
  9 10  1  0  0  0
 10 11  1  0  0  0
 10 31  1  0  0  0
 10 32  1  0  0  0
 11 12  1  0  0  0
 11 33  1  0  0  0
 11 34  1  0  0  0
 12 13  1  0  0  0
 12 35  1  0  0  0
 12 36  1  0  0  0
 13 14  1  0  0  0
 13 37  1  0  0  0
 13 38  1  0  0  0
 14 15  1  0  0  0
 14 39  1  0  0  0
 14 40  1  0  0  0
 15 16  1  0  0  0
 15 41  1  0  0  0
 16 17  2  0  0  0
 16 18  1  0  0  0
 18 19  1  0  0  0
 18 42  1  0  0  0
 19 20  2  0  0  0
 19 24  1  0  0  0
 20 21  1  0  0  0
 20 43  1  0  0  0
 21 22  2  0  0  0
 21 44  1  0  0  0
 22 23  1  0  0  0
 22 45  1  0  0  0
 23 24  2  0  0  0
 23 46  1  0  0  0
 24 47  1  0  0  0
M  CHG  1  11   1
M  END
> <s_m_source_file>
../4mw5_ligand.sdf

> <i_m_source_file_index>
1

> <s_epik_input>
W0NIM11PYzFbY0hdYyhbY0hdYyhDbClbY0hdMSlbQ0gyXVtOSDIrXVtDSDJdW0NIMl1bQ0gyXVtOSF1DKD1PKVtOSF1jMltjSF1bY0hdW2NIXVtjSF1bY0hdMg==

> <s_epik_cmdline>
J2VwaWtfYXBwJywgJy1pbWFlJywgJ2xpZ2FuZF9wcm8ubWFlJywgJy1vbWFlJywgJ2xpZ2FuZF9wcmVwLm1hZScsICctbXMnLCAnMScsICctcGgnLCAnNycsICctcGh0JywgJzAuNScsICctbnQn

> <r_lp_tautomer_probability>
1

> <r_epik_Ionization_Penalty>
  0.0201

> <r_epik_Ionization_Penalty_Charging>
  0.0201

> <r_epik_Ionization_Penalty_Neutral>
  0.0000

> <r_epik_State_Penalty>
  0.0161

> <r_epik_Charging_Adjusted_Penalty>
0.0361651639464671

> <i_epik_Tot_Q>
1

> <i_epik_Tot_abs_Q>
1

$$$$
