4mw6_ligand
                    3D
 Schrodinger Suite 2020-3.
 61 63  0  0  1  0            999 V2000
  -36.9930  -15.0110   -7.1020 Cl  0  0  0  0  0  0
  -38.6980  -14.6780   -7.2380 C   0  0  0  0  0  0
  -39.5960  -15.7130   -7.0970 C   0  0  0  0  0  0
  -39.1180  -13.3800   -7.4370 C   0  0  0  0  0  0
  -40.4810  -13.0850   -7.4550 C   0  0  0  0  0  0
  -41.3910  -14.1290   -7.2290 C   0  0  0  0  0  0
  -42.7340  -13.8050   -7.0010 O   0  0  0  0  0  0
  -43.7490  -14.8090   -7.1660 C   0  0  0  0  0  0
  -45.1500  -14.2680   -7.1890 C   0  0  0  0  0  0
  -45.5690  -13.2960   -6.2920 C   0  0  0  0  0  0
  -46.9070  -12.9470   -6.2010 C   0  0  0  0  0  0
  -47.8400  -13.5550   -7.0140 C   0  0  0  0  0  0
  -47.4340  -14.5000   -7.9280 C   0  0  0  0  0  0
  -46.0970  -14.8490   -8.0210 C   0  0  0  0  0  0
  -40.9660  -15.4580   -7.1050 C   0  0  0  0  0  0
  -41.7830  -16.7360   -7.1320 C   0  0  0  0  0  0
  -41.3090  -17.6600   -6.1590 C   0  0  0  0  0  0
  -41.5950  -17.6560   -5.0100 C   0  0  0  0  0  0
  -40.9670  -11.6980   -7.8200 C   0  0  0  0  0  0
  -41.2360  -11.5240   -9.2600 N   0  3  0  0  0  0
  -42.5630  -10.9550   -9.5670 C   0  0  0  0  0  0
  -43.6410  -12.0160   -9.7790 C   0  0  0  0  0  0
  -44.3140  -12.0200  -11.1450 C   0  0  0  0  0  0
  -43.6150  -12.8390  -12.1320 N   0  0  0  0  0  0
  -44.2570  -13.6810  -12.9710 C   0  0  0  0  0  0
  -45.4680  -13.6060  -13.2040 O   0  0  0  0  0  0
  -43.4400  -14.6300  -13.6020 N   0  0  0  0  0  0
  -43.8350  -15.6880  -14.4950 C   0  0  0  0  0  0
  -42.8290  -16.5860  -14.9760 C   0  0  0  0  0  0
  -43.3040  -17.5650  -15.7760 C   0  0  0  0  0  0
  -45.0110  -17.4250  -15.9570 S   0  0  0  0  0  0
  -45.0890  -16.0380  -14.9680 C   0  0  0  0  0  0
  -39.2340  -16.7343   -6.9788 H   0  0  0  0  0  0
  -38.3857  -12.5854   -7.5801 H   0  0  0  0  0  0
  -43.5908  -15.3374   -8.1177 H   0  0  0  0  0  0
  -43.6933  -15.5269   -6.3344 H   0  0  0  0  0  0
  -44.8380  -12.8017   -5.6521 H   0  0  0  0  0  0
  -47.2230  -12.1891   -5.4841 H   0  0  0  0  0  0
  -48.8938  -13.2884   -6.9331 H   0  0  0  0  0  0
  -48.1665  -14.9751   -8.5805 H   0  0  0  0  0  0
  -45.7843  -15.5896   -8.7571 H   0  0  0  0  0  0
  -42.8360  -16.5026   -6.9157 H   0  0  0  0  0  0
  -41.7069  -17.1989   -8.1270 H   0  0  0  0  0  0
  -40.6222  -18.4240   -6.5522 H   0  0  0  0  0  0
  -42.2818  -16.8920   -4.6168 H   0  0  0  0  0  0
  -41.1739  -18.4163   -4.3357 H   0  0  0  0  0  0
  -41.9035  -11.4847   -7.2838 H   0  0  0  0  0  0
  -40.2054  -10.9564   -7.5371 H   0  0  0  0  0  0
  -40.4872  -10.8447   -9.6934 H   0  0  0  0  0  0
  -41.1807  -12.5002   -9.7639 H   0  0  0  0  0  0
  -42.8885  -10.3138   -8.7346 H   0  0  0  0  0  0
  -42.5013  -10.3568  -10.4881 H   0  0  0  0  0  0
  -43.2010  -13.0162   -9.6524 H   0  0  0  0  0  0
  -44.4456  -11.8735   -9.0426 H   0  0  0  0  0  0
  -45.3354  -12.4169  -11.0493 H   0  0  0  0  0  0
  -44.3550  -10.9929  -11.5366 H   0  0  0  0  0  0
  -42.5194  -12.7853  -12.2146 H   0  0  0  0  0  0
  -42.3529  -14.6180  -13.4347 H   0  0  0  0  0  0
  -41.7741  -16.4883  -14.7195 H   0  0  0  0  0  0
  -42.6918  -18.3368  -16.2425 H   0  0  0  0  0  0
  -46.0068  -15.4969  -14.7378 H   0  0  0  0  0  0
  1  2  1  0  0  0
  2  3  2  0  0  0
  2  4  1  0  0  0
  3 15  1  0  0  0
  3 33  1  0  0  0
  4  5  2  0  0  0
  4 34  1  0  0  0
  5  6  1  0  0  0
  5 19  1  0  0  0
  6  7  1  0  0  0
  6 15  2  0  0  0
  7  8  1  0  0  0
  8  9  1  0  0  0
  8 35  1  0  0  0
  8 36  1  0  0  0
  9 10  2  0  0  0
  9 14  1  0  0  0
 10 11  1  0  0  0
 10 37  1  0  0  0
 11 12  2  0  0  0
 11 38  1  0  0  0
 12 13  1  0  0  0
 12 39  1  0  0  0
 13 14  2  0  0  0
 13 40  1  0  0  0
 14 41  1  0  0  0
 15 16  1  0  0  0
 16 17  1  0  0  0
 16 42  1  0  0  0
 16 43  1  0  0  0
 17 18  2  0  0  0
 17 44  1  0  0  0
 18 45  1  0  0  0
 18 46  1  0  0  0
 19 20  1  0  0  0
 19 47  1  0  0  0
 19 48  1  0  0  0
 20 21  1  0  0  0
 20 49  1  0  0  0
 20 50  1  0  0  0
 21 22  1  0  0  0
 21 51  1  0  0  0
 21 52  1  0  0  0
 22 23  1  0  0  0
 22 53  1  0  0  0
 22 54  1  0  0  0
 23 24  1  0  0  0
 23 55  1  0  0  0
 23 56  1  0  0  0
 24 25  1  0  0  0
 24 57  1  0  0  0
 25 26  2  0  0  0
 25 27  1  0  0  0
 27 28  1  0  0  0
 27 58  1  0  0  0
 28 29  1  0  0  0
 28 32  2  0  0  0
 29 30  2  0  0  0
 29 59  1  0  0  0
 30 31  1  0  0  0
 30 60  1  0  0  0
 31 32  1  0  0  0
 32 61  1  0  0  0
M  CHG  1  20   1
M  END
> <s_m_source_file>
../4mw6_ligand.sdf

> <i_m_source_file_index>
1

> <s_epik_input>
W2NIXTFbY0hdW2NIXVtjSF1bY0hdYzFbQ0gyXU9jKGMoW2NIXWMyQ2wpW0NIMl1bQ0hdPVtDSDJdKWMoW2NIXTIpW0NIMl1bTkgyK11bQ0gyXVtDSDJdW0NIMl1bTkhdQyg9TylbTkhdYzNbY0hdW2NIXXNbY0hdMw==

> <s_epik_cmdline>
J2VwaWtfYXBwJywgJy1pbWFlJywgJ2xpZ2FuZF9wcm8ubWFlJywgJy1vbWFlJywgJ2xpZ2FuZF9wcmVwLm1hZScsICctbXMnLCAnMScsICctcGgnLCAnNycsICctcGh0JywgJzAuNScsICctbnQn

> <r_lp_tautomer_probability>
1

> <r_epik_Ionization_Penalty>
  0.0181

> <r_epik_Ionization_Penalty_Charging>
  0.0181

> <r_epik_Ionization_Penalty_Neutral>
  0.0000

> <r_epik_State_Penalty>
  0.0144

> <r_epik_Charging_Adjusted_Penalty>
0.0324274321393061

> <i_epik_Tot_Q>
1

> <i_epik_Tot_abs_Q>
1

$$$$
