4mw7_ligand
                    3D
 Schrodinger Suite 2020-3.
 47 48  0  0  1  0            999 V2000
   41.7820   17.4110   -7.0800 I   0  0  0  0  0  0
   40.7680   15.5620   -7.0500 C   0  0  0  0  0  0
   41.4680   14.3470   -7.1340 C   0  0  0  0  0  0
   42.8160   14.3330   -7.4330 O   0  0  0  0  0  0
   43.6930   14.5900   -6.3350 C   0  0  0  0  0  0
   45.0800   14.5490   -6.8470 C   0  0  0  0  0  0
   39.3940   15.5680   -6.8900 C   0  0  0  0  0  0
   38.7340   14.3620   -6.7930 C   0  0  0  0  0  0
   36.9960   14.3600   -6.6620 Cl  0  0  0  0  0  0
   39.4080   13.1570   -6.8310 C   0  0  0  0  0  0
   40.7930   13.1310   -6.9970 C   0  0  0  0  0  0
   41.5520   11.8250   -6.9890 C   0  0  0  0  0  0
   41.6480   11.1700   -8.2970 N   0  3  0  0  0  0
   42.9850   11.2590   -8.8930 C   0  0  0  0  0  0
   42.9740   11.1260  -10.4060 C   0  0  0  0  0  0
   43.9320   12.0430  -11.1330 C   0  0  0  0  0  0
   43.2910   12.7890  -12.2070 N   0  0  0  0  0  0
   43.9760   13.6310  -13.0010 C   0  0  0  0  0  0
   45.1880   13.5460  -13.1610 O   0  0  0  0  0  0
   43.2120   14.6000  -13.6420 N   0  0  0  0  0  0
   43.6660   15.6380  -14.5070 C   0  0  0  0  0  0
   42.7140   16.5970  -14.9780 C   0  0  0  0  0  0
   43.2290   17.5420  -15.7650 C   0  0  0  0  0  0
   44.9020   17.3050  -15.9610 S   0  0  0  0  0  0
   44.9160   15.9140  -14.9790 C   0  0  0  0  0  0
   43.4707   15.5810   -5.9124 H   0  0  0  0  0  0
   43.5480   13.8209   -5.5621 H   0  0  0  0  0  0
   45.7812   14.7439   -6.0222 H   0  0  0  0  0  0
   45.2065   15.3164   -7.6249 H   0  0  0  0  0  0
   45.2838   13.5562   -7.2747 H   0  0  0  0  0  0
   38.8442   16.5079   -6.8416 H   0  0  0  0  0  0
   38.8556   12.2227   -6.7309 H   0  0  0  0  0  0
   42.5812   12.0012   -6.6431 H   0  0  0  0  0  0
   41.0540   11.1156   -6.3117 H   0  0  0  0  0  0
   41.4025   10.1029   -8.1916 H   0  0  0  0  0  0
   40.9415   11.6415   -8.9959 H   0  0  0  0  0  0
   43.4315   12.2339   -8.6479 H   0  0  0  0  0  0
   43.6192   10.4542   -8.4928 H   0  0  0  0  0  0
   43.2472   10.0978  -10.6857 H   0  0  0  0  0  0
   41.9676   11.3544  -10.7869 H   0  0  0  0  0  0
   44.3536   12.7699  -10.4232 H   0  0  0  0  0  0
   44.7449   11.4481  -11.5749 H   0  0  0  0  0  0
   42.2125   12.6729  -12.3897 H   0  0  0  0  0  0
   42.1208   14.6199  -13.5044 H   0  0  0  0  0  0
   41.6568   16.5582  -14.7155 H   0  0  0  0  0  0
   42.6584   18.3523  -16.2189 H   0  0  0  0  0  0
   45.8047   15.3231  -14.7572 H   0  0  0  0  0  0
  1  2  1  0  0  0
  2  3  2  0  0  0
  2  7  1  0  0  0
  3  4  1  0  0  0
  3 11  1  0  0  0
  4  5  1  0  0  0
  5  6  1  0  0  0
  5 26  1  0  0  0
  5 27  1  0  0  0
  6 28  1  0  0  0
  6 29  1  0  0  0
  6 30  1  0  0  0
  7  8  2  0  0  0
  7 31  1  0  0  0
  8  9  1  0  0  0
  8 10  1  0  0  0
 10 11  2  0  0  0
 10 32  1  0  0  0
 11 12  1  0  0  0
 12 13  1  0  0  0
 12 33  1  0  0  0
 12 34  1  0  0  0
 13 14  1  0  0  0
 13 35  1  0  0  0
 13 36  1  0  0  0
 14 15  1  0  0  0
 14 37  1  0  0  0
 14 38  1  0  0  0
 15 16  1  0  0  0
 15 39  1  0  0  0
 15 40  1  0  0  0
 16 17  1  0  0  0
 16 41  1  0  0  0
 16 42  1  0  0  0
 17 18  1  0  0  0
 17 43  1  0  0  0
 18 19  2  0  0  0
 18 20  1  0  0  0
 20 21  1  0  0  0
 20 44  1  0  0  0
 21 22  1  0  0  0
 21 25  2  0  0  0
 22 23  2  0  0  0
 22 45  1  0  0  0
 23 24  1  0  0  0
 23 46  1  0  0  0
 24 25  1  0  0  0
 25 47  1  0  0  0
M  CHG  1  13   1
M  END
> <s_m_source_file>
../4mw7_ligand.sdf

> <i_m_source_file_index>
1

> <s_epik_input>
W0NIM11bQ0gyXU9jKGMxSSljKFtjSF1jKENsKVtjSF0xKVtDSDJdW05IMitdW0NIMl1bQ0gyXVtDSDJdW05IXUMoPU8pW05IXWMyW2NIXVtjSF1zW2NIXTI=

> <s_epik_cmdline>
J2VwaWtfYXBwJywgJy1pbWFlJywgJ2xpZ2FuZF9wcm8ubWFlJywgJy1vbWFlJywgJ2xpZ2FuZF9wcmVwLm1hZScsICctbXMnLCAnMScsICctcGgnLCAnNycsICctcGh0JywgJzAuNScsICctbnQn

> <r_lp_tautomer_probability>
1

> <r_epik_Ionization_Penalty>
  0.0216

> <r_epik_Ionization_Penalty_Charging>
  0.0216

> <r_epik_Ionization_Penalty_Neutral>
  0.0000

> <r_epik_State_Penalty>
  0.0174

> <r_epik_Charging_Adjusted_Penalty>
0.0389413815614727

> <i_epik_Tot_Q>
1

> <i_epik_Tot_abs_Q>
1

$$$$
