4mw9_ligand
                    3D
 Schrodinger Suite 2020-3.
 41 42  0  0  1  0            999 V2000
  -45.3800   13.9750   13.1040 O   0  0  0  0  0  0
  -44.1630   13.9170   13.0020 C   0  0  0  0  0  0
  -43.3540   14.7610   13.7210 N   0  0  0  0  0  0
  -43.8040   15.7980   14.5730 C   0  0  0  0  0  0
  -42.8410   16.7390   15.0590 C   0  0  0  0  0  0
  -43.3660   17.6940   15.8370 C   0  0  0  0  0  0
  -45.0500   17.4810   15.9920 S   0  0  0  0  0  0
  -45.0650   16.0920   15.0170 C   0  0  0  0  0  0
  -43.5480   13.0270   12.2060 N   0  0  0  0  0  0
  -44.3060   12.0910   11.3850 C   0  0  0  0  0  0
  -43.4350   11.3260   10.4220 C   0  0  0  0  0  0
  -43.2280   12.0310    9.1090 C   0  0  0  0  0  0
  -41.9850   11.6250    8.4540 N   0  3  0  0  0  0
  -41.8230   12.1170    7.0810 C   0  0  0  0  0  0
  -41.1980   13.4840    7.1140 C   0  0  0  0  0  0
  -39.8360   13.6380    7.1660 C   0  0  0  0  0  0
  -39.3100   14.9200    7.1850 C   0  0  0  0  0  0
  -37.9380   15.0910    7.2130 C   0  0  0  0  0  0
  -36.8030   15.2700    7.2420 C   0  0  0  0  0  0
  -40.1210   16.0390    7.1640 C   0  0  0  0  0  0
  -41.4790   15.8700    7.1110 C   0  0  0  0  0  0
  -42.0240   14.5880    7.0840 C   0  0  0  0  0  0
  -42.2604   14.6591   13.6601 H   0  0  0  0  0  0
  -41.7794   16.6833   14.8182 H   0  0  0  0  0  0
  -42.7958   18.4960   16.3059 H   0  0  0  0  0  0
  -45.9569   15.5131   14.7771 H   0  0  0  0  0  0
  -42.4483   13.0141   12.1819 H   0  0  0  0  0  0
  -44.8129   11.3615   12.0337 H   0  0  0  0  0  0
  -45.0552   12.6420   10.7975 H   0  0  0  0  0  0
  -42.4431   11.1682   10.8707 H   0  0  0  0  0  0
  -43.8976   10.3523   10.2033 H   0  0  0  0  0  0
  -44.0630   11.7977    8.4320 H   0  0  0  0  0  0
  -43.1859   13.1170    9.2786 H   0  0  0  0  0  0
  -41.1270   12.0031    9.0292 H   0  0  0  0  0  0
  -41.9382   10.5271    8.4046 H   0  0  0  0  0  0
  -41.1744   11.4288    6.5191 H   0  0  0  0  0  0
  -42.8073   12.1736    6.5932 H   0  0  0  0  0  0
  -39.1796   12.7682    7.1919 H   0  0  0  0  0  0
  -39.6872   17.0387    7.1892 H   0  0  0  0  0  0
  -42.1349   16.7403    7.0899 H   0  0  0  0  0  0
  -43.1052   14.4574    7.0391 H   0  0  0  0  0  0
  1  2  2  0  0  0
  2  3  1  0  0  0
  2  9  1  0  0  0
  3  4  1  0  0  0
  3 23  1  0  0  0
  4  5  1  0  0  0
  4  8  2  0  0  0
  5  6  2  0  0  0
  5 24  1  0  0  0
  6  7  1  0  0  0
  6 25  1  0  0  0
  7  8  1  0  0  0
  8 26  1  0  0  0
  9 10  1  0  0  0
  9 27  1  0  0  0
 10 11  1  0  0  0
 10 28  1  0  0  0
 10 29  1  0  0  0
 11 12  1  0  0  0
 11 30  1  0  0  0
 11 31  1  0  0  0
 12 13  1  0  0  0
 12 32  1  0  0  0
 12 33  1  0  0  0
 13 14  1  0  0  0
 13 34  1  0  0  0
 13 35  1  0  0  0
 14 15  1  0  0  0
 14 36  1  0  0  0
 14 37  1  0  0  0
 15 16  2  0  0  0
 15 22  1  0  0  0
 16 17  1  0  0  0
 16 38  1  0  0  0
 17 18  1  0  0  0
 17 20  2  0  0  0
 18 19  3  0  0  0
 20 21  1  0  0  0
 20 39  1  0  0  0
 21 22  2  0  0  0
 21 40  1  0  0  0
 22 41  1  0  0  0
M  CHG  1  13   1
M  END
> <s_m_source_file>
../4mw9_ligand.sdf

> <i_m_source_file_index>
1

> <s_epik_input>
W2NIXTFzW2NIXVtjSF1jMVtOSF1DKD1PKVtOSF1bQ0gyXVtDSDJdW0NIMl1bTkgyK11bQ0gyXWMyW2NIXWMoQyNbQ0hdKVtjSF1bY0hdW2NIXTI=

> <s_epik_cmdline>
J2VwaWtfYXBwJywgJy1pbWFlJywgJ2xpZ2FuZF9wcm8ubWFlJywgJy1vbWFlJywgJ2xpZ2FuZF9wcmVwLm1hZScsICctbXMnLCAnMScsICctcGgnLCAnNycsICctcGh0JywgJzAuNScsICctbnQn

> <r_epik_Ionization_Penalty>
  0.0159

> <r_epik_Ionization_Penalty_Charging>
  0.0158

> <r_epik_Ionization_Penalty_Neutral>
  0.0000

> <r_epik_State_Penalty>
  0.0125

> <r_epik_Charging_Adjusted_Penalty>
0.028306249870382

> <i_epik_Tot_Q>
1

> <i_epik_Tot_abs_Q>
1

$$$$
