4mwb_ligand
                    3D
 Schrodinger Suite 2020-3.
 37 38  0  0  1  0            999 V2000
   45.5090   13.8470  -13.0930 O   0  0  0  0  0  0
   44.2980   13.8770  -12.9100 C   0  0  0  0  0  0
   43.4770   14.7560  -13.6050 N   0  0  0  0  0  0
   43.8920   15.7840  -14.5010 C   0  0  0  0  0  0
   42.9990   16.7000  -15.1420 C   0  0  0  0  0  0
   43.6420   17.6190  -15.9220 C   0  0  0  0  0  0
   45.3250   17.3970  -15.8810 S   0  0  0  0  0  0
   45.2150   16.0630  -14.8360 C   0  0  0  0  0  0
   43.6800   13.0250  -12.0770 N   0  0  0  0  0  0
   44.4340   12.1390  -11.1980 C   0  0  0  0  0  0
   43.5550   11.4750  -10.1710 C   0  0  0  0  0  0
   43.1270   12.4090   -9.0680 C   0  0  0  0  0  0
   42.0550   11.8360   -8.2580 N   0  3  0  0  0  0
   41.7340   12.4450   -6.9970 C   0  0  0  0  0  0
   40.8320   13.6310   -7.0480 C   0  0  0  0  0  0
   39.4190   13.6190   -7.0820 C   0  0  0  0  0  0
   41.2960   14.8890   -7.0770 C   0  0  0  0  0  0
   42.9070   15.4280   -7.0340 Cl  0  0  0  0  0  0
   40.0860   16.1040   -7.1530 S   0  0  0  0  0  0
   38.8930   14.8590   -7.1320 C   0  0  0  0  0  0
   37.2220   15.2670   -7.1400 Cl  0  0  0  0  0  0
   42.3848   14.6969  -13.4888 H   0  0  0  0  0  0
   41.9163   16.6678  -15.0204 H   0  0  0  0  0  0
   43.1387   18.3959  -16.4975 H   0  0  0  0  0  0
   46.0722   15.4961  -14.4729 H   0  0  0  0  0  0
   42.5802   13.0044  -12.0668 H   0  0  0  0  0  0
   44.9155   11.3516  -11.7965 H   0  0  0  0  0  0
   45.2037   12.7179  -10.6665 H   0  0  0  0  0  0
   42.6450   11.0948  -10.6581 H   0  0  0  0  0  0
   44.0995   10.6390   -9.7077 H   0  0  0  0  0  0
   43.9839   12.6165   -8.4102 H   0  0  0  0  0  0
   42.7639   13.3508   -9.5053 H   0  0  0  0  0  0
   41.1128   11.8624   -8.8251 H   0  0  0  0  0  0
   42.3024   10.7941   -8.0063 H   0  0  0  0  0  0
   41.2310   11.7094   -6.3521 H   0  0  0  0  0  0
   42.6585   12.7883   -6.5097 H   0  0  0  0  0  0
   38.8209   12.7078   -7.0692 H   0  0  0  0  0  0
  1  2  2  0  0  0
  2  3  1  0  0  0
  2  9  1  0  0  0
  3  4  1  0  0  0
  3 22  1  0  0  0
  4  5  1  0  0  0
  4  8  2  0  0  0
  5  6  2  0  0  0
  5 23  1  0  0  0
  6  7  1  0  0  0
  6 24  1  0  0  0
  7  8  1  0  0  0
  8 25  1  0  0  0
  9 10  1  0  0  0
  9 26  1  0  0  0
 10 11  1  0  0  0
 10 27  1  0  0  0
 10 28  1  0  0  0
 11 12  1  0  0  0
 11 29  1  0  0  0
 11 30  1  0  0  0
 12 13  1  0  0  0
 12 31  1  0  0  0
 12 32  1  0  0  0
 13 14  1  0  0  0
 13 33  1  0  0  0
 13 34  1  0  0  0
 14 15  1  0  0  0
 14 35  1  0  0  0
 14 36  1  0  0  0
 15 16  1  0  0  0
 15 17  2  0  0  0
 16 20  2  0  0  0
 16 37  1  0  0  0
 17 18  1  0  0  0
 17 19  1  0  0  0
 19 20  1  0  0  0
 20 21  1  0  0  0
M  CHG  1  13   1
M  END
> <s_m_source_file>
../4mwb_ligand.sdf

> <i_m_source_file_index>
1

> <s_epik_input>
W2NIXTFzW2NIXVtjSF1jMVtOSF1DKD1PKVtOSF1bQ0gyXVtDSDJdW0NIMl1bTkgyK11bQ0gyXWMyW2NIXWMoQ2wpc2MyQ2w=

> <s_epik_cmdline>
J2VwaWtfYXBwJywgJy1pbWFlJywgJ2xpZ2FuZF9wcm8ubWFlJywgJy1vbWFlJywgJ2xpZ2FuZF9wcmVwLm1hZScsICctbXMnLCAnMScsICctcGgnLCAnNycsICctcGh0JywgJzAuNScsICctbnQn

> <r_lp_tautomer_probability>
1

> <r_epik_Ionization_Penalty>
  0.0019

> <r_epik_Ionization_Penalty_Charging>
  0.0019

> <r_epik_Ionization_Penalty_Neutral>
  0.0000

> <r_epik_State_Penalty>
 -0.0000

> <r_epik_Charging_Adjusted_Penalty>
0.0018671629311698

> <i_epik_Tot_Q>
1

> <i_epik_Tot_abs_Q>
1

$$$$
