4mwc_ligand
                    3D
 Schrodinger Suite 2020-3.
 46 48  0  0  1  0            999 V2000
  -45.5890   13.4810   13.2360 O   0  0  0  0  0  0
  -44.3920   13.6620   13.0110 C   0  0  0  0  0  0
  -43.6580   14.6570   13.6440 N   0  0  0  0  0  0
  -44.1070   15.6750   14.5170 C   0  0  0  0  0  0
  -43.1330   16.5250   15.1290 C   0  0  0  0  0  0
  -43.6740   17.4850   15.9090 C   0  0  0  0  0  0
  -45.3810   17.3820   15.9050 S   0  0  0  0  0  0
  -45.3910   16.0380   14.8680 C   0  0  0  0  0  0
  -43.6780   12.8800   12.1810 N   0  0  0  0  0  0
  -44.2880   11.8140   11.3980 C   0  0  0  0  0  0
  -43.3300   11.2250   10.3810 C   0  0  0  0  0  0
  -43.1330   12.1350    9.1940 C   0  0  0  0  0  0
  -42.3140   11.5300    8.1450 N   0  3  0  0  0  0
  -42.0680   12.2960    6.9120 C   0  0  0  0  0  0
  -41.6870   13.7470    7.0920 C   0  0  0  0  0  0
  -40.3030   14.1190    7.0650 C   0  0  0  0  0  0
  -39.1230   13.3830    6.9660 C   0  0  0  0  0  0
  -37.8970   14.0320    6.9590 C   0  0  0  0  0  0
  -37.8270   15.4090    7.0500 C   0  0  0  0  0  0
  -38.9800   16.1640    7.1520 C   0  0  0  0  0  0
  -40.2130   15.5190    7.1560 C   0  0  0  0  0  0
  -41.7760   16.2720    7.2630 S   0  0  0  0  0  0
  -42.5900   14.7400    7.2030 C   0  0  0  0  0  0
  -44.0840   14.7300    7.2720 C   0  0  0  0  0  0
  -42.5708   14.7211   13.4895 H   0  0  0  0  0  0
  -42.0594   16.4091   14.9803 H   0  0  0  0  0  0
  -43.1003   18.2257   16.4661 H   0  0  0  0  0  0
  -46.2920   15.5294   14.5250 H   0  0  0  0  0  0
  -42.5969   13.0685   12.1053 H   0  0  0  0  0  0
  -44.6112   11.0048   12.0694 H   0  0  0  0  0  0
  -45.1590   12.2100   10.8553 H   0  0  0  0  0  0
  -42.3501   11.0603   10.8528 H   0  0  0  0  0  0
  -43.7269   10.2663   10.0157 H   0  0  0  0  0  0
  -44.1110   12.3825    8.7554 H   0  0  0  0  0  0
  -42.6327   13.0590    9.5194 H   0  0  0  0  0  0
  -41.3120   11.3111    8.5426 H   0  0  0  0  0  0
  -42.7854   10.5963    7.8045 H   0  0  0  0  0  0
  -41.2425   11.8332    6.3514 H   0  0  0  0  0  0
  -42.9771   12.2959    6.2927 H   0  0  0  0  0  0
  -39.1639   12.2961    6.8940 H   0  0  0  0  0  0
  -36.9790   13.4495    6.8809 H   0  0  0  0  0  0
  -36.8555   15.9032    7.0413 H   0  0  0  0  0  0
  -38.9243   17.2499    7.2283 H   0  0  0  0  0  0
  -44.4464   13.6926    7.2226 H   0  0  0  0  0  0
  -44.4939   15.3023    6.4267 H   0  0  0  0  0  0
  -44.4104   15.1878    8.2174 H   0  0  0  0  0  0
  1  2  2  0  0  0
  2  3  1  0  0  0
  2  9  1  0  0  0
  3  4  1  0  0  0
  3 25  1  0  0  0
  4  5  1  0  0  0
  4  8  2  0  0  0
  5  6  2  0  0  0
  5 26  1  0  0  0
  6  7  1  0  0  0
  6 27  1  0  0  0
  7  8  1  0  0  0
  8 28  1  0  0  0
  9 10  1  0  0  0
  9 29  1  0  0  0
 10 11  1  0  0  0
 10 30  1  0  0  0
 10 31  1  0  0  0
 11 12  1  0  0  0
 11 32  1  0  0  0
 11 33  1  0  0  0
 12 13  1  0  0  0
 12 34  1  0  0  0
 12 35  1  0  0  0
 13 14  1  0  0  0
 13 36  1  0  0  0
 13 37  1  0  0  0
 14 15  1  0  0  0
 14 38  1  0  0  0
 14 39  1  0  0  0
 15 16  1  0  0  0
 15 23  2  0  0  0
 16 17  2  0  0  0
 16 21  1  0  0  0
 17 18  1  0  0  0
 17 40  1  0  0  0
 18 19  2  0  0  0
 18 41  1  0  0  0
 19 20  1  0  0  0
 19 42  1  0  0  0
 20 21  2  0  0  0
 20 43  1  0  0  0
 21 22  1  0  0  0
 22 23  1  0  0  0
 23 24  1  0  0  0
 24 44  1  0  0  0
 24 45  1  0  0  0
 24 46  1  0  0  0
M  CHG  1  13   1
M  END
> <s_m_source_file>
../4mwc_ligand.sdf

> <i_m_source_file_index>
1

> <s_epik_input>
W2NIXTFzW2NIXVtjSF1jMVtOSF1DKD1PKVtOSF1bQ0gyXVtDSDJdW0NIMl1bTkgyK11bQ0gyXWMyYyhbQ0gzXSlzYyhjMjMpW2NIXVtjSF1bY0hdW2NIXTM=

> <s_epik_cmdline>
J2VwaWtfYXBwJywgJy1pbWFlJywgJ2xpZ2FuZF9wcm8ubWFlJywgJy1vbWFlJywgJ2xpZ2FuZF9wcmVwLm1hZScsICctbXMnLCAnMScsICctcGgnLCAnNycsICctcGh0JywgJzAuNScsICctbnQn

> <r_lp_tautomer_probability>
1

> <r_epik_Ionization_Penalty>
  0.0019

> <r_epik_Ionization_Penalty_Charging>
  0.0019

> <r_epik_Ionization_Penalty_Neutral>
  0.0000

> <r_epik_State_Penalty>
 -0.0000

> <r_epik_Charging_Adjusted_Penalty>
0.0018671629311698

> <i_epik_Tot_Q>
1

> <i_epik_Tot_abs_Q>
1

$$$$
