4mwe_ligand
                    3D
 Schrodinger Suite 2020-3.
 55 56  0  0  1  0            999 V2000
  -36.9120  -15.1650   -7.0110 Cl  0  0  0  0  0  0
  -38.6300  -14.8800   -7.0940 C   0  0  0  0  0  0
  -39.4970  -15.9470   -6.9630 C   0  0  0  0  0  0
  -40.8710  -15.7400   -7.0480 C   0  0  0  0  0  0
  -41.8180  -16.9290   -7.0640 C   0  0  0  0  0  0
  -41.5390  -17.9180   -6.0250 C   0  0  0  0  0  0
  -41.3470  -17.6760   -4.7890 C   0  0  0  0  0  0
  -41.3310  -14.4380   -7.2440 C   0  0  0  0  0  0
  -42.6870  -14.2230   -7.3810 O   0  0  0  0  0  0
  -43.5210  -14.2840   -6.2110 C   0  0  0  0  0  0
  -44.9420  -14.3870   -6.6610 C   0  0  0  0  0  0
  -45.3710  -14.6740   -7.8740 C   0  0  0  0  0  0
  -39.0870  -13.5980   -7.3050 C   0  0  0  0  0  0
  -40.4570  -13.3560   -7.3890 C   0  0  0  0  0  0
  -40.9840  -11.9780   -7.7190 C   0  0  0  0  0  0
  -41.2940  -11.8040   -9.1490 N   0  3  0  0  0  0
  -42.5640  -11.1010   -9.4150 C   0  0  0  0  0  0
  -43.7030  -12.0470   -9.8000 C   0  0  0  0  0  0
  -44.2180  -11.9470  -11.2280 C   0  0  0  0  0  0
  -43.5500  -12.8790  -12.1330 N   0  0  0  0  0  0
  -44.2240  -13.7300  -12.9390 C   0  0  0  0  0  0
  -45.4460  -13.6700  -13.1050 O   0  0  0  0  0  0
  -43.4330  -14.6860  -13.6130 N   0  0  0  0  0  0
  -43.8920  -15.7220  -14.4890 C   0  0  0  0  0  0
  -42.9610  -16.6850  -14.9910 C   0  0  0  0  0  0
  -43.5260  -17.6360  -15.7880 C   0  0  0  0  0  0
  -45.2460  -17.3700  -15.9360 S   0  0  0  0  0  0
  -45.1780  -15.9880  -14.9400 C   0  0  0  0  0  0
  -39.1059  -16.9501   -6.7932 H   0  0  0  0  0  0
  -42.8495  -16.5782   -6.9128 H   0  0  0  0  0  0
  -41.7441  -17.4436   -8.0334 H   0  0  0  0  0  0
  -41.5015  -18.9532   -6.3951 H   0  0  0  0  0  0
  -41.3845  -16.6408   -4.4189 H   0  0  0  0  0  0
  -41.1438  -18.5023   -4.0919 H   0  0  0  0  0  0
  -43.2478  -15.1649   -5.6115 H   0  0  0  0  0  0
  -43.3779  -13.3734   -5.6108 H   0  0  0  0  0  0
  -45.6638  -14.1933   -5.8538 H   0  0  0  0  0  0
  -44.6492  -14.8677   -8.6812 H   0  0  0  0  0  0
  -46.4508  -14.7197   -8.0790 H   0  0  0  0  0  0
  -38.3794  -12.7751   -7.4060 H   0  0  0  0  0  0
  -41.9091  -11.7940   -7.1531 H   0  0  0  0  0  0
  -40.2317  -11.2229   -7.4472 H   0  0  0  0  0  0
  -40.4959  -11.2182   -9.6285 H   0  0  0  0  0  0
  -41.3654  -12.7900   -9.6313 H   0  0  0  0  0  0
  -42.8756  -10.5532   -8.5135 H   0  0  0  0  0  0
  -42.4241  -10.3923  -10.2446 H   0  0  0  0  0  0
  -43.3733  -13.0887   -9.6727 H   0  0  0  0  0  0
  -44.5725  -11.8560   -9.1539 H   0  0  0  0  0  0
  -45.2946  -12.1720  -11.2461 H   0  0  0  0  0  0
  -44.0499  -10.9285  -11.6080 H   0  0  0  0  0  0
  -42.4514  -12.9089  -12.1791 H   0  0  0  0  0  0
  -42.3401  -14.6817  -13.4887 H   0  0  0  0  0  0
  -41.8966  -16.6607  -14.7576 H   0  0  0  0  0  0
  -42.9802  -18.4493  -16.2664 H   0  0  0  0  0  0
  -46.0469  -15.3811  -14.6857 H   0  0  0  0  0  0
  1  2  1  0  0  0
  2  3  2  0  0  0
  2 13  1  0  0  0
  3  4  1  0  0  0
  3 29  1  0  0  0
  4  5  1  0  0  0
  4  8  2  0  0  0
  5  6  1  0  0  0
  5 30  1  0  0  0
  5 31  1  0  0  0
  6  7  2  0  0  0
  6 32  1  0  0  0
  7 33  1  0  0  0
  7 34  1  0  0  0
  8  9  1  0  0  0
  8 14  1  0  0  0
  9 10  1  0  0  0
 10 11  1  0  0  0
 10 35  1  0  0  0
 10 36  1  0  0  0
 11 12  2  0  0  0
 11 37  1  0  0  0
 12 38  1  0  0  0
 12 39  1  0  0  0
 13 14  2  0  0  0
 13 40  1  0  0  0
 14 15  1  0  0  0
 15 16  1  0  0  0
 15 41  1  0  0  0
 15 42  1  0  0  0
 16 17  1  0  0  0
 16 43  1  0  0  0
 16 44  1  0  0  0
 17 18  1  0  0  0
 17 45  1  0  0  0
 17 46  1  0  0  0
 18 19  1  0  0  0
 18 47  1  0  0  0
 18 48  1  0  0  0
 19 20  1  0  0  0
 19 49  1  0  0  0
 19 50  1  0  0  0
 20 21  1  0  0  0
 20 51  1  0  0  0
 21 22  2  0  0  0
 21 23  1  0  0  0
 23 24  1  0  0  0
 23 52  1  0  0  0
 24 25  1  0  0  0
 24 28  2  0  0  0
 25 26  2  0  0  0
 25 53  1  0  0  0
 26 27  1  0  0  0
 26 54  1  0  0  0
 27 28  1  0  0  0
 28 55  1  0  0  0
M  CHG  1  16   1
M  END
> <s_m_source_file>
../4mwe_ligand.sdf

> <i_m_source_file_index>
1

> <s_epik_input>
Q2xjMVtjSF1jKFtDSDJdW0NIXT1bQ0gyXSljKE9bQ0gyXVtDSF09W0NIMl0pYyhbY0hdMSlbQ0gyXVtOSDIrXVtDSDJdW0NIMl1bQ0gyXVtOSF1DKD1PKVtOSF1jMltjSF1bY0hdc1tjSF0y

> <s_epik_cmdline>
J2VwaWtfYXBwJywgJy1pbWFlJywgJ2xpZ2FuZF9wcm8ubWFlJywgJy1vbWFlJywgJ2xpZ2FuZF9wcmVwLm1hZScsICctbXMnLCAnMScsICctcGgnLCAnNycsICctcGh0JywgJzAuNScsICctbnQn

> <r_lp_tautomer_probability>
1

> <r_epik_Ionization_Penalty>
  0.0174

> <r_epik_Ionization_Penalty_Charging>
  0.0174

> <r_epik_Ionization_Penalty_Neutral>
  0.0000

> <r_epik_State_Penalty>
  0.0138

> <r_epik_Charging_Adjusted_Penalty>
0.0311687379488059

> <i_epik_Tot_Q>
1

> <i_epik_Tot_abs_Q>
1

$$$$
