4mwq_ligand
                    3D
 Schrodinger Suite 2020-3.
 46 46  0  0  1  0            999 V2000
  -19.8350   64.9760  -23.7980 C   0  0  0  0  0  0
  -19.7720   65.3330  -22.6320 O   0  0  0  0  0  0
  -21.0120   65.0050  -24.5050 O   0  5  0  0  0  0
  -18.6680   64.3980  -24.4940 C   0  0  1  0  0  0
  -17.3220   64.0370  -23.7460 C   0  0  0  0  0  0
  -16.4720   62.9380  -24.3680 C   0  0  1  0  0  0
  -16.5120   62.7500  -25.8540 C   0  0  1  0  0  0
  -15.6550   61.7140  -26.3980 N   0  0  0  0  0  0
  -14.3760   61.9600  -27.0350 C   0  0  0  0  0  0
  -13.9320   63.0980  -27.1370 O   0  0  0  0  0  0
  -13.6060   60.7580  -27.5570 C   0  0  0  0  0  0
  -17.8330   62.9180  -26.5750 C   0  0  1  0  0  0
  -18.9960   63.6540  -25.8610 C   0  0  0  0  0  0
  -17.8560   62.9430  -27.9950 O   0  0  0  0  0  0
  -18.0590   61.7610  -28.7550 C   0  0  0  0  0  0
  -19.4600   61.1780  -28.6080 C   0  0  0  0  0  0
  -17.6170   61.9630  -30.1900 C   0  0  0  0  0  0
  -16.2020   62.4260  -30.3860 C   0  0  0  0  0  0
  -20.6250   62.0170  -29.0320 C   0  0  0  0  0  0
  -15.2080   62.6780  -23.7370 N   0  3  0  0  0  0
  -18.3716   65.4462  -24.6472 H   0  0  0  0  0  0
  -16.6769   64.9269  -23.7022 H   0  0  0  0  0  0
  -17.5496   63.6985  -22.7244 H   0  0  0  0  0  0
  -16.9953   62.0271  -24.0420 H   0  0  0  0  0  0
  -15.9509   63.6498  -26.1464 H   0  0  0  0  0  0
  -15.9631   60.6595  -26.3417 H   0  0  0  0  0  0
  -14.1823   59.8412  -27.3637 H   0  0  0  0  0  0
  -12.6342   60.6949  -27.0456 H   0  0  0  0  0  0
  -13.4443   60.8681  -28.6395 H   0  0  0  0  0  0
  -18.0771   61.8458  -26.6021 H   0  0  0  0  0  0
  -19.7615   62.8839  -25.6848 H   0  0  0  0  0  0
  -19.3712   64.3830  -26.5944 H   0  0  0  0  0  0
  -17.3782   61.0396  -28.2795 H   0  0  0  0  0  0
  -19.5396   60.2593  -29.2077 H   0  0  0  0  0  0
  -19.6503   60.9431  -27.5504 H   0  0  0  0  0  0
  -17.7054   61.0133  -30.7380 H   0  0  0  0  0  0
  -18.2546   62.7221  -30.6667 H   0  0  0  0  0  0
  -15.9980   62.5365  -31.4613 H   0  0  0  0  0  0
  -15.5112   61.6859  -29.9558 H   0  0  0  0  0  0
  -16.0604   63.3947  -29.8845 H   0  0  0  0  0  0
  -21.5585   61.4597  -28.8644 H   0  0  0  0  0  0
  -20.5309   62.2619  -30.1002 H   0  0  0  0  0  0
  -20.6416   62.9458  -28.4429 H   0  0  0  0  0  0
  -15.2973   62.8473  -22.6538 H   0  0  0  0  0  0
  -14.4452   63.3532  -24.1521 H   0  0  0  0  0  0
  -14.9136   61.6344  -23.9220 H   0  0  0  0  0  0
  1  2  2  0  0  0
  1  3  1  0  0  0
  1  4  1  0  0  0
  4  5  1  0  0  0
  4 13  1  0  0  0
  4 21  1  0  0  0
  5  6  1  0  0  0
  5 22  1  0  0  0
  5 23  1  0  0  0
  6  7  1  0  0  0
  6 20  1  0  0  0
  6 24  1  0  0  0
  7  8  1  0  0  0
  7 12  1  0  0  0
  7 25  1  0  0  0
  8  9  1  0  0  0
  8 26  1  0  0  0
  9 10  2  0  0  0
  9 11  1  0  0  0
 11 27  1  0  0  0
 11 28  1  0  0  0
 11 29  1  0  0  0
 12 13  1  0  0  0
 12 14  1  0  0  0
 12 30  1  0  0  0
 13 31  1  0  0  0
 13 32  1  0  0  0
 14 15  1  0  0  0
 15 16  1  0  0  0
 15 17  1  0  0  0
 15 33  1  0  0  0
 16 19  1  0  0  0
 16 34  1  0  0  0
 16 35  1  0  0  0
 17 18  1  0  0  0
 17 36  1  0  0  0
 17 37  1  0  0  0
 18 38  1  0  0  0
 18 39  1  0  0  0
 18 40  1  0  0  0
 19 41  1  0  0  0
 19 42  1  0  0  0
 19 43  1  0  0  0
 20 44  1  0  0  0
 20 45  1  0  0  0
 20 46  1  0  0  0
M  CHG  2   3  -1  20   1
M  END
> <s_m_source_file>
../4mwq_ligand.sdf

> <i_m_source_file_index>
1

> <s_epik_input>
Tz1DKFtPSF0pW0NASF0xW0NIMl1bQ0BIXShbTkgzK10pW0NAQEhdKFtOSF1DKD1PKVtDSDNdKVtDQEBIXShbQ0gyXTEpT1tDSF0oW0NIMl1bQ0gzXSlbQ0gyXVtDSDNd

> <s_epik_cmdline>
J2VwaWtfYXBwJywgJy1pbWFlJywgJ2xpZ2FuZF9wcm8ubWFlJywgJy1vbWFlJywgJ2xpZ2FuZF9wcmVwLm1hZScsICctbXMnLCAnMScsICctcGgnLCAnNycsICctcGh0JywgJzAuNScsICctbnQn

> <r_lp_tautomer_probability>
1

> <r_epik_Ionization_Penalty>
  0.0019

> <r_epik_Ionization_Penalty_Charging>
  0.0019

> <r_epik_Ionization_Penalty_Neutral>
  0.0000

> <r_epik_State_Penalty>
 -0.0000

> <r_epik_Charging_Adjusted_Penalty>
0.00188816947072547

> <i_epik_Tot_Q>
0

> <i_epik_Tot_abs_Q>
2

$$$$
