4mwr_ligand
                    3D
 Schrodinger Suite 2020-3.
 45 45  0  0  1  0            999 V2000
   64.7070   19.5640  -23.8770 C   0  0  0  0  0  0
   64.8720   20.7130  -24.3840 O   0  5  0  0  0  0
   65.0480   19.3480  -22.6830 O   0  0  0  0  0  0
   64.1030   18.4630  -24.6990 C   0  0  1  0  0  0
   63.3570   17.5160  -23.7880 C   0  0  0  0  0  0
   62.4880   16.5550  -24.5150 C   0  0  1  0  0  0
   62.5750   16.6570  -25.9210 C   0  0  1  0  0  0
   61.5030   15.7900  -26.5310 N   0  0  0  0  0  0
   61.8380   14.4960  -27.1410 C   0  0  0  0  0  0
   62.9900   14.1060  -27.1610 O   0  0  0  0  0  0
   60.7490   13.6510  -27.7420 C   0  0  0  0  0  0
   62.4380   18.0710  -26.4390 C   0  0  1  0  0  0
   63.2860   19.0370  -25.6800 O   0  0  0  0  0  0
   62.7340   18.1610  -27.8770 C   0  0  2  0  0  0
   64.0100   17.7340  -28.1650 O   0  0  0  0  0  0
   62.6140   19.6140  -28.3030 C   0  0  2  0  0  0
   61.3940   20.1220  -27.9130 O   0  0  0  0  0  0
   62.7520   19.7470  -29.7850 C   0  0  0  0  0  0
   61.7630   19.1890  -30.5760 O   0  0  0  0  0  0
   62.8480   15.1390  -24.0990 N   0  0  0  0  0  0
   61.8590   14.0940  -23.8900 C   0  0  0  0  0  0
   60.5870   14.3920  -24.0680 N   0  0  0  0  0  0
   62.1620   12.8930  -23.5380 N   0  3  0  0  0  0
   64.8461   17.8989  -25.2817 H   0  0  0  0  0  0
   64.0778   16.9285  -23.2004 H   0  0  0  0  0  0
   62.7129   18.0926  -23.1078 H   0  0  0  0  0  0
   61.4448   16.8348  -24.3065 H   0  0  0  0  0  0
   63.5946   16.3069  -26.1397 H   0  0  0  0  0  0
   60.4549   16.1238  -26.5229 H   0  0  0  0  0  0
   59.7826   14.1644  -27.6301 H   0  0  0  0  0  0
   60.7107   12.6806  -27.2255 H   0  0  0  0  0  0
   60.9571   13.4899  -28.8101 H   0  0  0  0  0  0
   61.3863   18.3649  -26.3068 H   0  0  0  0  0  0
   62.0873   17.4572  -28.4214 H   0  0  0  0  0  0
   64.3097   16.7012  -27.9336 H   0  0  0  0  0  0
   63.3570   20.2412  -27.7886 H   0  0  0  0  0  0
   61.1084   20.1123  -26.8508 H   0  0  0  0  0  0
   62.7723   20.8126  -30.0572 H   0  0  0  0  0  0
   63.6869   19.2675  -30.1107 H   0  0  0  0  0  0
   61.8269   19.2647  -31.6715 H   0  0  0  0  0  0
   63.9011   14.8630  -23.9412 H   0  0  0  0  0  0
   60.2974   15.4097  -24.3688 H   0  0  0  0  0  0
   59.8154   13.6229  -23.9157 H   0  0  0  0  0  0
   63.2147   12.6146  -23.3820 H   0  0  0  0  0  0
   61.3681   12.1454  -23.3933 H   0  0  0  0  0  0
  1  2  1  0  0  0
  1  3  2  0  0  0
  1  4  1  0  0  0
  4  5  1  0  0  0
  4 13  1  0  0  0
  4 24  1  0  0  0
  5  6  1  0  0  0
  5 25  1  0  0  0
  5 26  1  0  0  0
  6  7  1  0  0  0
  6 20  1  0  0  0
  6 27  1  0  0  0
  7  8  1  0  0  0
  7 12  1  0  0  0
  7 28  1  0  0  0
  8  9  1  0  0  0
  8 29  1  0  0  0
  9 10  2  0  0  0
  9 11  1  0  0  0
 11 30  1  0  0  0
 11 31  1  0  0  0
 11 32  1  0  0  0
 12 13  1  0  0  0
 12 14  1  0  0  0
 12 33  1  0  0  0
 14 15  1  0  0  0
 14 16  1  0  0  0
 14 34  1  0  0  0
 15 35  1  0  0  0
 16 17  1  0  0  0
 16 18  1  0  0  0
 16 36  1  0  0  0
 17 37  1  0  0  0
 18 19  1  0  0  0
 18 38  1  0  0  0
 18 39  1  0  0  0
 19 40  1  0  0  0
 20 21  1  0  0  0
 20 41  1  0  0  0
 21 22  1  0  0  0
 21 23  2  0  0  0
 22 42  1  0  0  0
 22 43  1  0  0  0
 23 44  1  0  0  0
 23 45  1  0  0  0
M  CHG  2   2  -1  23   1
M  END
> <s_m_source_file>
../4mwr_ligand.sdf

> <i_m_source_file_index>
1

> <s_epik_input>
W09IXUMoPU8pW0NASF0xW0NIMl1bQ0BIXShbTkhdL0MoW05IMl0pPU5cW0hdKVtDQEBIXShbTkhdQyg9TylbQ0gzXSlbQ0BASF0oTzEpW0NASF0oW09IXSlbQ0BIXShbT0hdKVtDSDJdW09IXQ==

> <s_epik_cmdline>
J2VwaWtfYXBwJywgJy1pbWFlJywgJ2xpZ2FuZF9wcm8ubWFlJywgJy1vbWFlJywgJ2xpZ2FuZF9wcmVwLm1hZScsICctbXMnLCAnMScsICctcGgnLCAnNycsICctcGh0JywgJzAuNScsICctbnQn

> <r_lp_tautomer_probability>
1

> <r_epik_Ionization_Penalty>
  0.0001

> <r_epik_Ionization_Penalty_Charging>
  0.0001

> <r_epik_Ionization_Penalty_Neutral>
  0.0000

> <r_epik_State_Penalty>
 -0.0000

> <r_epik_Charging_Adjusted_Penalty>
9.91098658302066e-05

> <i_epik_Tot_Q>
0

> <i_epik_Tot_abs_Q>
2

> <s_epik_Chemistry_Notes>
This compound has an imine and may undergo hydrolysis.

$$$$
