4mwu_ligand
                    3D
 Schrodinger Suite 2020-3.
 48 48  0  0  1  0            999 V2000
   63.6720   18.6520  -24.3430 C   0  0  2  0  0  0
   63.6360   17.2400  -23.7770 C   0  0  0  0  0  0
   62.5590   16.4400  -24.4250 C   0  0  1  0  0  0
   62.5440   16.5160  -25.9060 C   0  0  2  0  0  0
   62.5400   17.9350  -26.3780 C   0  0  1  0  0  0
   63.6580   18.7200  -25.7560 O   0  0  0  0  0  0
   64.6050   19.6350  -23.7610 C   0  0  0  0  0  0
   65.1450   19.4520  -22.6420 O   0  0  0  0  0  0
   64.8020   20.7000  -24.4060 O   0  5  0  0  0  0
   62.6860   18.0960  -27.8330 C   0  0  1  0  0  0
   62.4990   19.5690  -28.2320 C   0  0  1  0  0  0
   62.6530   19.7700  -29.7290 C   0  0  0  0  0  0
   61.7420   19.1140  -30.5470 O   0  0  0  0  0  0
   63.9770   17.6940  -28.2000 O   0  0  0  0  0  0
   64.1380   16.6470  -29.1130 C   0  0  0  0  0  0
   61.2600   20.0480  -27.8390 O   0  0  0  0  0  0
   62.7820   15.0230  -24.0680 N   0  0  0  0  0  0
   61.7780   14.0340  -23.8340 C   0  0  0  0  0  0
   60.5070   14.3540  -23.8890 N   0  0  0  0  0  0
   62.1020   12.8050  -23.5660 N   0  3  0  0  0  0
   61.6400   14.4680  -27.1150 C   0  0  0  0  0  0
   60.4510   13.7420  -27.6530 C   0  0  0  0  0  0
   62.7720   14.0080  -27.2120 O   0  0  0  0  0  0
   61.4150   15.7300  -26.4810 N   0  0  0  0  0  0
   62.6910   19.0531  -24.0486 H   0  0  0  0  0  0
   64.6027   16.7475  -23.9585 H   0  0  0  0  0  0
   63.4442   17.2836  -22.6947 H   0  0  0  0  0  0
   61.5996   16.8439  -24.0696 H   0  0  0  0  0  0
   63.4740   16.0526  -26.2670 H   0  0  0  0  0  0
   61.5442   18.3065  -26.0945 H   0  0  0  0  0  0
   61.9788   17.4243  -28.3416 H   0  0  0  0  0  0
   63.2096   20.1965  -27.6741 H   0  0  0  0  0  0
   62.5508   20.8389  -29.9679 H   0  0  0  0  0  0
   63.6452   19.4167  -30.0463 H   0  0  0  0  0  0
   61.8058   19.2233  -31.6397 H   0  0  0  0  0  0
   65.2104   16.4694  -29.2818 H   0  0  0  0  0  0
   63.6561   16.9135  -30.0652 H   0  0  0  0  0  0
   63.6742   15.7346  -28.7100 H   0  0  0  0  0  0
   60.9584   19.9918  -26.7827 H   0  0  0  0  0  0
   63.8066   14.6381  -23.9584 H   0  0  0  0  0  0
   60.2096   15.3888  -24.1143 H   0  0  0  0  0  0
   59.7386   13.5875  -23.7098 H   0  0  0  0  0  0
   63.1616   12.5142  -23.5148 H   0  0  0  0  0  0
   60.7751   12.7947  -28.1085 H   0  0  0  0  0  0
   59.9549   14.3635  -28.4130 H   0  0  0  0  0  0
   59.7473   13.5331  -26.8337 H   0  0  0  0  0  0
   60.3877   16.1188  -26.4216 H   0  0  0  0  0  0
   61.3167   12.0550  -23.3902 H   0  0  0  0  0  0
  1  2  1  0  0  0
  1  6  1  0  0  0
  1  7  1  0  0  0
  1 25  1  0  0  0
  2  3  1  0  0  0
  2 26  1  0  0  0
  2 27  1  0  0  0
  3  4  1  0  0  0
  3 17  1  0  0  0
  3 28  1  0  0  0
  4  5  1  0  0  0
  4 24  1  0  0  0
  4 29  1  0  0  0
  5  6  1  0  0  0
  5 10  1  0  0  0
  5 30  1  0  0  0
  7  8  2  0  0  0
  7  9  1  0  0  0
 10 11  1  0  0  0
 10 14  1  0  0  0
 10 31  1  0  0  0
 11 12  1  0  0  0
 11 16  1  0  0  0
 11 32  1  0  0  0
 12 13  1  0  0  0
 12 33  1  0  0  0
 12 34  1  0  0  0
 13 35  1  0  0  0
 14 15  1  0  0  0
 15 36  1  0  0  0
 15 37  1  0  0  0
 15 38  1  0  0  0
 16 39  1  0  0  0
 17 18  1  0  0  0
 17 40  1  0  0  0
 18 19  1  0  0  0
 18 20  2  0  0  0
 19 41  1  0  0  0
 19 42  1  0  0  0
 20 43  1  0  0  0
 20 48  1  0  0  0
 21 22  1  0  0  0
 21 23  2  0  0  0
 21 24  1  0  0  0
 22 44  1  0  0  0
 22 45  1  0  0  0
 22 46  1  0  0  0
 24 47  1  0  0  0
M  CHG  2   9  -1  20   1
M  END
> <s_m_source_file>
../4mwu_ligand.sdf

> <i_m_source_file_index>
1

> <s_epik_input>
Tz1DKFtPSF0pW0NAQEhdMVtDSDJdW0NASF0oW05IXS9DKFtOSDJdKT1OXFtIXSlbQ0BASF0oW05IXUMoPU8pW0NIM10pW0NAQEhdKE8xKVtDQEhdKE9bQ0gzXSlbQ0BIXShbT0hdKVtDSDJdW09IXQ==

> <s_epik_cmdline>
J2VwaWtfYXBwJywgJy1pbWFlJywgJ2xpZ2FuZF9wcm8ubWFlJywgJy1vbWFlJywgJ2xpZ2FuZF9wcmVwLm1hZScsICctbXMnLCAnMScsICctcGgnLCAnNycsICctcGh0JywgJzAuNScsICctbnQn

> <r_lp_tautomer_probability>
1

> <r_epik_Ionization_Penalty>
  0.0001

> <r_epik_Ionization_Penalty_Charging>
  0.0001

> <r_epik_Ionization_Penalty_Neutral>
  0.0000

> <r_epik_State_Penalty>
 -0.0000

> <r_epik_Charging_Adjusted_Penalty>
0.000101776872218888

> <i_epik_Tot_Q>
0

> <i_epik_Tot_abs_Q>
2

> <s_epik_Chemistry_Notes>
This compound has an imine and may undergo hydrolysis.

$$$$
