4mwv_ligand
                    3D
 Schrodinger Suite 2020-3.
 51 51  0  0  1  0            999 V2000
   62.9380   16.4410  -24.7690 C   0  0  1  0  0  0
   61.6900   15.8290  -24.4160 N   0  0  0  0  0  0
   61.5930   14.4080  -23.9980 C   0  0  0  0  0  0
   62.6900   13.6580  -23.9080 N   0  0  0  0  0  0
   60.4260   13.8620  -23.7000 N   0  3  0  0  0  0
   62.7330   17.4910  -25.7660 C   0  0  2  0  0  0
   62.3870   16.8980  -27.1740 C   0  0  2  0  0  0
   62.2480   17.9960  -28.3690 C   0  0  0  0  0  0
   61.1510   19.0150  -28.0080 C   0  0  0  0  0  0
   61.1270   20.3360  -28.7490 C   0  0  0  0  0  0
   62.0840   17.4090  -29.7510 C   0  0  0  0  0  0
   63.2980   16.7630  -30.3890 C   0  0  0  0  0  0
   61.1750   15.9190  -27.1910 N   0  0  0  0  0  0
   61.3490   14.5080  -27.3640 C   0  0  0  0  0  0
   60.1400   13.6410  -27.3600 C   0  0  0  0  0  0
   62.4580   14.0380  -27.5130 O   0  0  0  0  0  0
   63.9760   18.2810  -25.7300 C   0  0  2  0  0  0
   64.9120   17.7620  -26.6310 O   0  0  0  0  0  0
   64.4920   18.1710  -24.3640 C   0  0  1  0  0  0
   64.4890   19.5230  -23.6710 C   0  0  0  0  0  0
   64.9500   19.6020  -22.3620 O   0  0  0  0  0  0
   64.6220   20.6730  -24.4450 O   0  5  0  0  0  0
   63.6000   17.2160  -23.6490 C   0  0  0  0  0  0
   63.5088   15.5657  -25.1125 H   0  0  0  0  0  0
   60.7605   16.4162  -24.4497 H   0  0  0  0  0  0
   63.6725   14.0892  -24.1505 H   0  0  0  0  0  0
   62.6135   12.6074  -23.5911 H   0  0  0  0  0  0
   59.5056   14.4607  -23.7666 H   0  0  0  0  0  0
   61.8930   18.1412  -25.4802 H   0  0  0  0  0  0
   63.2734   16.2700  -27.3469 H   0  0  0  0  0  0
   63.1856   18.5525  -28.5144 H   0  0  0  0  0  0
   60.1621   18.5695  -28.1914 H   0  0  0  0  0  0
   61.2390   19.2877  -26.9460 H   0  0  0  0  0  0
   60.2913   20.9485  -28.3796 H   0  0  0  0  0  0
   60.9976   20.1503  -29.8255 H   0  0  0  0  0  0
   62.0746   20.8684  -28.5800 H   0  0  0  0  0  0
   61.3166   16.6213  -29.7261 H   0  0  0  0  0  0
   61.7754   18.1995  -30.4509 H   0  0  0  0  0  0
   63.0298   16.3832  -31.3859 H   0  0  0  0  0  0
   63.6431   15.9295  -29.7596 H   0  0  0  0  0  0
   64.1020   17.5077  -30.4844 H   0  0  0  0  0  0
   60.1530   16.3068  -27.0681 H   0  0  0  0  0  0
   59.2441   14.2618  -27.2119 H   0  0  0  0  0  0
   60.2172   12.9080  -26.5435 H   0  0  0  0  0  0
   60.0649   13.1122  -28.3216 H   0  0  0  0  0  0
   63.8224   19.3236  -26.0452 H   0  0  0  0  0  0
   64.6952   17.7605  -27.7094 H   0  0  0  0  0  0
   65.5268   17.7992  -24.3948 H   0  0  0  0  0  0
   62.8305   17.7289  -23.0533 H   0  0  0  0  0  0
   64.1607   16.5227  -23.0049 H   0  0  0  0  0  0
   60.3757   12.8091  -23.3856 H   0  0  0  0  0  0
  1  2  1  0  0  0
  1  6  1  0  0  0
  1 23  1  0  0  0
  1 24  1  0  0  0
  2  3  1  0  0  0
  2 25  1  0  0  0
  3  4  1  0  0  0
  3  5  2  0  0  0
  4 26  1  0  0  0
  4 27  1  0  0  0
  5 28  1  0  0  0
  5 51  1  0  0  0
  6  7  1  0  0  0
  6 17  1  0  0  0
  6 29  1  0  0  0
  7  8  1  0  0  0
  7 13  1  0  0  0
  7 30  1  0  0  0
  8  9  1  0  0  0
  8 11  1  0  0  0
  8 31  1  0  0  0
  9 10  1  0  0  0
  9 32  1  0  0  0
  9 33  1  0  0  0
 10 34  1  0  0  0
 10 35  1  0  0  0
 10 36  1  0  0  0
 11 12  1  0  0  0
 11 37  1  0  0  0
 11 38  1  0  0  0
 12 39  1  0  0  0
 12 40  1  0  0  0
 12 41  1  0  0  0
 13 14  1  0  0  0
 13 42  1  0  0  0
 14 15  1  0  0  0
 14 16  2  0  0  0
 15 43  1  0  0  0
 15 44  1  0  0  0
 15 45  1  0  0  0
 17 18  1  0  0  0
 17 19  1  0  0  0
 17 46  1  0  0  0
 18 47  1  0  0  0
 19 20  1  0  0  0
 19 23  1  0  0  0
 19 48  1  0  0  0
 20 21  2  0  0  0
 20 22  1  0  0  0
 23 49  1  0  0  0
 23 50  1  0  0  0
M  CHG  2   5   1  22  -1
M  END
> <s_m_source_file>
../4mwv_ligand.sdf

> <i_m_source_file_index>
1

> <s_epik_input>
W0hdXE49QyhbTkgyXSlcW05IXVtDQEhdMVtDQEhdKFtDQEhdKFtDSF0oW0NIMl1bQ0gzXSlbQ0gyXVtDSDNdKVtOSF1DKD1PKVtDSDNdKVtDQEhdKFtPSF0pW0NASF0oW0NIMl0xKUMoPU8pW09IXQ==

> <s_epik_cmdline>
J2VwaWtfYXBwJywgJy1pbWFlJywgJ2xpZ2FuZF9wcm8ubWFlJywgJy1vbWFlJywgJ2xpZ2FuZF9wcmVwLm1hZScsICctbXMnLCAnMScsICctcGgnLCAnNycsICctcGh0JywgJzAuNScsICctbnQn

> <r_lp_tautomer_probability>
1

> <r_epik_Ionization_Penalty>
  0.0002

> <r_epik_Ionization_Penalty_Charging>
  0.0002

> <r_epik_Ionization_Penalty_Neutral>
  0.0000

> <r_epik_State_Penalty>
 -0.0000

> <r_epik_Charging_Adjusted_Penalty>
0.000179684030402543

> <i_epik_Tot_Q>
0

> <i_epik_Tot_abs_Q>
2

> <s_epik_Chemistry_Notes>
This compound has an imine and may undergo hydrolysis.

$$$$
