4mww_ligand
                    3D
 Schrodinger Suite 2020-3.
 46 46  0  0  1  0            999 V2000
  -19.7230   23.6760   64.8630 C   0  0  0  0  0  0
  -19.6500   22.5010   65.1710 O   0  0  0  0  0  0
  -20.8740   24.3970   65.0420 O   0  5  0  0  0  0
  -18.6330   24.3420   64.1170 C   0  0  2  0  0  0
  -17.1900   23.7250   63.9650 C   0  0  0  0  0  0
  -16.3820   24.3540   62.8410 C   0  0  1  0  0  0
  -16.4020   25.8510   62.7170 C   0  0  1  0  0  0
  -15.6200   26.4230   61.6330 N   0  0  0  0  0  0
  -14.3220   27.0320   61.8380 C   0  0  0  0  0  0
  -13.8840   27.2110   62.9700 O   0  0  0  0  0  0
  -13.6270   27.6120   60.6220 C   0  0  0  0  0  0
  -17.6560   26.6270   63.0840 C   0  0  1  0  0  0
  -18.7980   25.9010   63.8540 C   0  0  0  0  0  0
  -17.5430   28.0330   63.2920 O   0  0  0  0  0  0
  -18.3450   28.9870   62.6040 C   0  0  0  0  0  0
  -19.7030   29.2210   63.2520 C   0  0  0  0  0  0
  -17.5960   30.2860   62.3660 C   0  0  0  0  0  0
  -16.1360   30.3180   62.7170 C   0  0  0  0  0  0
  -19.7110   29.6040   64.6970 C   0  0  0  0  0  0
  -15.1660   23.6840   62.4760 N   0  3  0  0  0  0
  -19.0728   23.6963   63.3426 H   0  0  0  0  0  0
  -16.6281   23.8721   64.8992 H   0  0  0  0  0  0
  -17.2719   22.6489   63.7519 H   0  0  0  0  0  0
  -16.9363   24.0712   61.9339 H   0  0  0  0  0  0
  -15.7481   26.0666   63.5749 H   0  0  0  0  0  0
  -16.0096   26.4044   60.6045 H   0  0  0  0  0  0
  -14.1825   27.3331   59.7144 H   0  0  0  0  0  0
  -12.6027   27.2157   60.5613 H   0  0  0  0  0  0
  -13.5916   28.7081   60.7080 H   0  0  0  0  0  0
  -18.0321   26.7874   62.0628 H   0  0  0  0  0  0
  -19.7066   26.0785   63.2599 H   0  0  0  0  0  0
  -18.8800   26.4285   64.8158 H   0  0  0  0  0  0
  -18.5140   28.4800   61.6425 H   0  0  0  0  0  0
  -20.2236   30.0363   62.7282 H   0  0  0  0  0  0
  -20.3034   28.3015   63.1876 H   0  0  0  0  0  0
  -17.6445   30.5469   61.2985 H   0  0  0  0  0  0
  -18.0560   31.0888   62.9609 H   0  0  0  0  0  0
  -15.7269   31.3143   62.4935 H   0  0  0  0  0  0
  -15.6002   29.5606   62.1261 H   0  0  0  0  0  0
  -16.0117   30.1025   63.7885 H   0  0  0  0  0  0
  -20.7490   29.7410   65.0342 H   0  0  0  0  0  0
  -19.1551   30.5438   64.8303 H   0  0  0  0  0  0
  -19.2348   28.8090   65.2897 H   0  0  0  0  0  0
  -15.2893   22.5996   62.6138 H   0  0  0  0  0  0
  -14.3440   24.0434   63.1125 H   0  0  0  0  0  0
  -14.9330   23.8955   61.4220 H   0  0  0  0  0  0
  1  2  2  0  0  0
  1  3  1  0  0  0
  1  4  1  0  0  0
  4  5  1  0  0  0
  4 13  1  0  0  0
  4 21  1  0  0  0
  5  6  1  0  0  0
  5 22  1  0  0  0
  5 23  1  0  0  0
  6  7  1  0  0  0
  6 20  1  0  0  0
  6 24  1  0  0  0
  7  8  1  0  0  0
  7 12  1  0  0  0
  7 25  1  0  0  0
  8  9  1  0  0  0
  8 26  1  0  0  0
  9 10  2  0  0  0
  9 11  1  0  0  0
 11 27  1  0  0  0
 11 28  1  0  0  0
 11 29  1  0  0  0
 12 13  1  0  0  0
 12 14  1  0  0  0
 12 30  1  0  0  0
 13 31  1  0  0  0
 13 32  1  0  0  0
 14 15  1  0  0  0
 15 16  1  0  0  0
 15 17  1  0  0  0
 15 33  1  0  0  0
 16 19  1  0  0  0
 16 34  1  0  0  0
 16 35  1  0  0  0
 17 18  1  0  0  0
 17 36  1  0  0  0
 17 37  1  0  0  0
 18 38  1  0  0  0
 18 39  1  0  0  0
 18 40  1  0  0  0
 19 41  1  0  0  0
 19 42  1  0  0  0
 19 43  1  0  0  0
 20 44  1  0  0  0
 20 45  1  0  0  0
 20 46  1  0  0  0
M  CHG  2   3  -1  20   1
M  END
> <s_m_source_file>
../4mww_ligand.sdf

> <i_m_source_file_index>
1

> <s_epik_input>
Tz1DKFtPSF0pW0NAQEhdMVtDSDJdW0NASF0oW05IMytdKVtDQEBIXShbTkhdQyg9TylbQ0gzXSlbQ0BASF0oW0NIMl0xKU9bQ0hdKFtDSDJdW0NIM10pW0NIMl1bQ0gzXQ==

> <s_epik_cmdline>
J2VwaWtfYXBwJywgJy1pbWFlJywgJ2xpZ2FuZF9wcm8ubWFlJywgJy1vbWFlJywgJ2xpZ2FuZF9wcmVwLm1hZScsICctbXMnLCAnMScsICctcGgnLCAnNycsICctcGh0JywgJzAuNScsICctbnQn

> <r_lp_tautomer_probability>
1

> <r_epik_Ionization_Penalty>
  0.0019

> <r_epik_Ionization_Penalty_Charging>
  0.0019

> <r_epik_Ionization_Penalty_Neutral>
  0.0000

> <r_epik_State_Penalty>
 -0.0000

> <r_epik_Charging_Adjusted_Penalty>
0.00188816947072547

> <i_epik_Tot_Q>
0

> <i_epik_Tot_abs_Q>
2

$$$$
