4mwx_ligand
                    3D
 Schrodinger Suite 2020-3.
 45 45  0  0  1  0            999 V2000
  -23.7730  -64.7420  -19.4470 C   0  0  0  0  0  0
  -24.4320  -65.0710  -20.4720 O   0  0  0  0  0  0
  -22.5160  -64.9190  -19.4420 O   0  5  0  0  0  0
  -24.5190  -64.1850  -18.2540 C   0  0  1  0  0  0
  -23.7590  -63.3620  -17.3810 C   0  0  0  0  0  0
  -24.4640  -62.4600  -16.5180 C   0  0  1  0  0  0
  -25.9450  -62.5670  -16.5640 C   0  0  1  0  0  0
  -26.5740  -61.4710  -15.8260 N   0  0  0  0  0  0
  -27.1950  -61.6480  -14.5640 C   0  0  0  0  0  0
  -27.2310  -62.7900  -14.0110 O   0  0  0  0  0  0
  -27.8120  -60.4320  -13.8890 C   0  0  0  0  0  0
  -26.5510  -62.5720  -17.9730 C   0  0  1  0  0  0
  -25.7800  -63.6120  -18.7750 O   0  0  0  0  0  0
  -27.9290  -62.8380  -18.0680 C   0  0  2  0  0  0
  -28.2260  -64.1040  -17.6010 O   0  0  0  0  0  0
  -28.3050  -62.7950  -19.5540 C   0  0  2  0  0  0
  -27.9060  -61.6000  -20.1210 O   0  0  0  0  0  0
  -29.7700  -62.9070  -19.7500 C   0  0  0  0  0  0
  -30.5840  -61.8900  -19.1890 O   0  0  0  0  0  0
  -24.0960  -62.7500  -15.0600 N   0  0  0  0  0  0
  -23.9050  -61.7440  -14.0340 C   0  0  0  0  0  0
  -23.9990  -60.4710  -14.3200 N   0  3  0  0  0  0
  -23.6220  -62.1080  -12.7950 N   0  0  0  0  0  0
  -24.7412  -64.9459  -17.4913 H   0  0  0  0  0  0
  -23.1639  -63.9947  -16.7061 H   0  0  0  0  0  0
  -23.0867  -62.7229  -17.9722 H   0  0  0  0  0  0
  -24.1583  -61.4867  -16.9294 H   0  0  0  0  0  0
  -26.1420  -63.5265  -16.0634 H   0  0  0  0  0  0
  -26.5784  -60.4551  -16.2479 H   0  0  0  0  0  0
  -27.6742  -59.5480  -14.5290 H   0  0  0  0  0  0
  -27.3213  -60.2626  -12.9192 H   0  0  0  0  0  0
  -28.8865  -60.6063  -13.7308 H   0  0  0  0  0  0
  -26.5502  -61.5484  -18.3758 H   0  0  0  0  0  0
  -28.4441  -62.1388  -17.3929 H   0  0  0  0  0  0
  -28.0348  -64.3609  -16.5487 H   0  0  0  0  0  0
  -27.7788  -63.5881  -20.1054 H   0  0  0  0  0  0
  -26.8467  -61.3047  -20.0934 H   0  0  0  0  0  0
  -29.9974  -62.9016  -20.8262 H   0  0  0  0  0  0
  -30.1288  -63.8464  -19.3042 H   0  0  0  0  0  0
  -31.6767  -61.9313  -19.3090 H   0  0  0  0  0  0
  -23.9566  -63.7881  -14.7240 H   0  0  0  0  0  0
  -24.2339  -60.1539  -15.3468 H   0  0  0  0  0  0
  -23.5399  -63.1750  -12.5404 H   0  0  0  0  0  0
  -23.4686  -61.3439  -12.0187 H   0  0  0  0  0  0
  -23.8431  -59.7177  -13.5337 H   0  0  0  0  0  0
  1  2  2  0  0  0
  1  3  1  0  0  0
  1  4  1  0  0  0
  4  5  1  0  0  0
  4 13  1  0  0  0
  4 24  1  0  0  0
  5  6  1  0  0  0
  5 25  1  0  0  0
  5 26  1  0  0  0
  6  7  1  0  0  0
  6 20  1  0  0  0
  6 27  1  0  0  0
  7  8  1  0  0  0
  7 12  1  0  0  0
  7 28  1  0  0  0
  8  9  1  0  0  0
  8 29  1  0  0  0
  9 10  2  0  0  0
  9 11  1  0  0  0
 11 30  1  0  0  0
 11 31  1  0  0  0
 11 32  1  0  0  0
 12 13  1  0  0  0
 12 14  1  0  0  0
 12 33  1  0  0  0
 14 15  1  0  0  0
 14 16  1  0  0  0
 14 34  1  0  0  0
 15 35  1  0  0  0
 16 17  1  0  0  0
 16 18  1  0  0  0
 16 36  1  0  0  0
 17 37  1  0  0  0
 18 19  1  0  0  0
 18 38  1  0  0  0
 18 39  1  0  0  0
 19 40  1  0  0  0
 20 21  1  0  0  0
 20 41  1  0  0  0
 21 22  2  0  0  0
 21 23  1  0  0  0
 22 42  1  0  0  0
 22 45  1  0  0  0
 23 43  1  0  0  0
 23 44  1  0  0  0
M  CHG  2   3  -1  22   1
M  END
> <s_m_source_file>
../4mwx_ligand.sdf

> <i_m_source_file_index>
1

> <s_epik_input>
Tz1DKFtPSF0pW0NASF0xW0NIMl1bQ0BIXShbTkhdL0MoPU5cW0hdKVtOSDJdKVtDQEBIXShbTkhdQyg9TylbQ0gzXSlbQ0BASF0oTzEpW0NASF0oW09IXSlbQ0BIXShbT0hdKVtDSDJdW09IXQ==

> <s_epik_cmdline>
J2VwaWtfYXBwJywgJy1pbWFlJywgJ2xpZ2FuZF9wcm8ubWFlJywgJy1vbWFlJywgJ2xpZ2FuZF9wcmVwLm1hZScsICctbXMnLCAnMScsICctcGgnLCAnNycsICctcGh0JywgJzAuNScsICctbnQn

> <r_lp_tautomer_probability>
1

> <r_epik_Ionization_Penalty>
  0.0001

> <r_epik_Ionization_Penalty_Charging>
  0.0001

> <r_epik_Ionization_Penalty_Neutral>
  0.0000

> <r_epik_State_Penalty>
 -0.0000

> <r_epik_Charging_Adjusted_Penalty>
0.000137447957460867

> <i_epik_Tot_Q>
0

> <i_epik_Tot_abs_Q>
2

> <s_epik_Chemistry_Notes>
This compound has an imine and may undergo hydrolysis.

$$$$
