4mwy_ligand
                    3D
 Schrodinger Suite 2020-3.
 48 48  0  0  1  0            999 V2000
   24.3750  -63.7510   18.6210 C   0  0  2  0  0  0
   23.7560  -63.6020   17.2620 C   0  0  0  0  0  0
   24.4430  -62.5990   16.4500 C   0  0  1  0  0  0
   25.9010  -62.7070   16.5270 C   0  0  2  0  0  0
   26.3990  -62.7300   17.9450 C   0  0  1  0  0  0
   25.8130  -63.8480   18.6350 O   0  0  0  0  0  0
   23.7560  -64.7160   19.5530 C   0  0  0  0  0  0
   24.4470  -65.1050   20.5350 O   0  5  0  0  0  0
   22.5730  -65.1080   19.4010 O   0  0  0  0  0  0
   27.8640  -62.9370   18.0000 C   0  0  1  0  0  0
   28.3650  -62.7480   19.5130 C   0  0  1  0  0  0
   29.9490  -62.9080   19.7240 C   0  0  0  0  0  0
   30.7170  -61.9670   19.0170 O   0  0  0  0  0  0
   28.2440  -64.1930   17.5890 O   0  0  0  0  0  0
   29.1320  -64.3180   16.5320 C   0  0  0  0  0  0
   27.8290  -61.5370   20.1590 O   0  0  0  0  0  0
   24.0650  -62.8420   15.0140 N   0  0  0  0  0  0
   23.8710  -61.8130   13.9940 C   0  0  0  0  0  0
   23.5800  -62.1660   12.7700 N   0  3  0  0  0  0
   23.9750  -60.5350   14.2970 N   0  0  0  0  0  0
   27.1790  -61.7450   14.5230 C   0  0  0  0  0  0
   27.7910  -60.5370   13.8680 C   0  0  0  0  0  0
   27.2240  -62.8400   13.9690 O   0  0  0  0  0  0
   26.5440  -61.5800   15.8120 N   0  0  0  0  0  0
   24.1597  -62.7682   19.0656 H   0  0  0  0  0  0
   23.8036  -64.5636   16.7300 H   0  0  0  0  0  0
   22.7055  -63.2939   17.3693 H   0  0  0  0  0  0
   24.1571  -61.6141   16.8479 H   0  0  0  0  0  0
   26.1500  -63.6590   16.0353 H   0  0  0  0  0  0
   26.1223  -61.7843   18.4339 H   0  0  0  0  0  0
   28.2994  -62.2958   17.2194 H   0  0  0  0  0  0
   27.8692  -63.5294   20.1076 H   0  0  0  0  0  0
   30.1907  -62.7892   20.7905 H   0  0  0  0  0  0
   30.2651  -63.9057   19.3854 H   0  0  0  0  0  0
   31.8144  -61.9861   19.0903 H   0  0  0  0  0  0
   29.3243  -65.3837   16.3388 H   0  0  0  0  0  0
   30.0768  -63.8150   16.7855 H   0  0  0  0  0  0
   28.6995  -63.8546   15.6330 H   0  0  0  0  0  0
   26.7555  -61.3069   20.0914 H   0  0  0  0  0  0
   23.9099  -63.8692   14.6523 H   0  0  0  0  0  0
   23.4918  -63.2315   12.5111 H   0  0  0  0  0  0
   24.2197  -60.2318   15.3257 H   0  0  0  0  0  0
   23.8171  -59.7712   13.5213 H   0  0  0  0  0  0
   28.2298  -60.8266   12.9018 H   0  0  0  0  0  0
   28.5765  -60.1255   14.5189 H   0  0  0  0  0  0
   27.0142  -59.7756   13.7044 H   0  0  0  0  0  0
   26.5491  -60.5755   16.2603 H   0  0  0  0  0  0
   23.4232  -61.3977   11.9985 H   0  0  0  0  0  0
  1  2  1  0  0  0
  1  6  1  0  0  0
  1  7  1  0  0  0
  1 25  1  0  0  0
  2  3  1  0  0  0
  2 26  1  0  0  0
  2 27  1  0  0  0
  3  4  1  0  0  0
  3 17  1  0  0  0
  3 28  1  0  0  0
  4  5  1  0  0  0
  4 24  1  0  0  0
  4 29  1  0  0  0
  5  6  1  0  0  0
  5 10  1  0  0  0
  5 30  1  0  0  0
  7  8  1  0  0  0
  7  9  2  0  0  0
 10 11  1  0  0  0
 10 14  1  0  0  0
 10 31  1  0  0  0
 11 12  1  0  0  0
 11 16  1  0  0  0
 11 32  1  0  0  0
 12 13  1  0  0  0
 12 33  1  0  0  0
 12 34  1  0  0  0
 13 35  1  0  0  0
 14 15  1  0  0  0
 15 36  1  0  0  0
 15 37  1  0  0  0
 15 38  1  0  0  0
 16 39  1  0  0  0
 17 18  1  0  0  0
 17 40  1  0  0  0
 18 19  2  0  0  0
 18 20  1  0  0  0
 19 41  1  0  0  0
 19 48  1  0  0  0
 20 42  1  0  0  0
 20 43  1  0  0  0
 21 22  1  0  0  0
 21 23  2  0  0  0
 21 24  1  0  0  0
 22 44  1  0  0  0
 22 45  1  0  0  0
 22 46  1  0  0  0
 24 47  1  0  0  0
M  CHG  2   8  -1  19   1
M  END
> <s_m_source_file>
../4mwy_ligand.sdf

> <i_m_source_file_index>
1

> <s_epik_input>
W09IXUMoPU8pW0NAQEhdMVtDSDJdW0NASF0oW05IXS9DKD1OXFtIXSlbTkgyXSlbQ0BASF0oW05IXUMoPU8pW0NIM10pW0NAQEhdKE8xKVtDQEhdKE9bQ0gzXSlbQ0BIXShbT0hdKVtDSDJdW09IXQ==

> <s_epik_cmdline>
J2VwaWtfYXBwJywgJy1pbWFlJywgJ2xpZ2FuZF9wcm8ubWFlJywgJy1vbWFlJywgJ2xpZ2FuZF9wcmVwLm1hZScsICctbXMnLCAnMScsICctcGgnLCAnNycsICctcGh0JywgJzAuNScsICctbnQn

> <r_lp_tautomer_probability>
1

> <r_epik_Ionization_Penalty>
  0.0001

> <r_epik_Ionization_Penalty_Charging>
  0.0001

> <r_epik_Ionization_Penalty_Neutral>
  0.0000

> <r_epik_State_Penalty>
 -0.0000

> <r_epik_Charging_Adjusted_Penalty>
0.00014315671762345

> <i_epik_Tot_Q>
0

> <i_epik_Tot_abs_Q>
2

> <s_epik_Chemistry_Notes>
This compound has an imine and may undergo hydrolysis.

$$$$
