4mx0_ligand
                    3D
 Schrodinger Suite 2020-3.
 51 51  0  0  1  0            999 V2000
   24.6790  -63.0970   16.3200 C   0  0  1  0  0  0
   24.3520  -61.8120   15.7740 N   0  0  0  0  0  0
   23.9560  -61.6480   14.3540 C   0  0  0  0  0  0
   23.8580  -62.7120   13.5620 N   0  0  0  0  0  0
   23.6800  -60.4580   13.8490 N   0  3  0  0  0  0
   25.7480  -62.9690   17.3200 C   0  0  2  0  0  0
   27.1190  -62.6850   16.6130 C   0  0  2  0  0  0
   28.4470  -62.6740   17.5560 C   0  0  0  0  0  0
   28.2210  -61.7630   18.7760 C   0  0  0  0  0  0
   28.0380  -60.2960   18.4900 C   0  0  0  0  0  0
   29.7160  -62.3600   16.7990 C   0  0  0  0  0  0
   31.0490  -62.4820   17.5080 C   0  0  0  0  0  0
   27.1350  -61.4580   15.6420 N   0  0  0  0  0  0
   27.3120  -61.6280   14.2260 C   0  0  0  0  0  0
   27.3120  -60.4110   13.3640 C   0  0  0  0  0  0
   27.4530  -62.7400   13.7430 O   0  0  0  0  0  0
   25.6840  -64.2350   18.0760 C   0  0  2  0  0  0
   26.5210  -65.1980   17.5070 O   0  0  0  0  0  0
   24.2960  -64.6970   18.0030 C   0  0  1  0  0  0
   23.6860  -64.7070   19.3910 C   0  0  0  0  0  0
   22.3670  -65.1260   19.5220 O   0  0  0  0  0  0
   24.5140  -64.8880   20.4990 O   0  5  0  0  0  0
   23.5730  -63.7430   17.1220 C   0  0  0  0  0  0
   24.9431  -63.6535   15.4087 H   0  0  0  0  0  0
   24.3915  -60.9170   16.4123 H   0  0  0  0  0  0
   24.0820  -63.7140   13.9568 H   0  0  0  0  0  0
   23.5530  -62.5900   12.5122 H   0  0  0  0  0  0
   23.7531  -59.5614   14.4821 H   0  0  0  0  0  0
   25.5712  -62.1445   18.0264 H   0  0  0  0  0  0
   27.1444  -63.5809   15.9753 H   0  0  0  0  0  0
   28.6816  -63.6734   17.9512 H   0  0  0  0  0  0
   27.3132  -62.0823   19.3088 H   0  0  0  0  0  0
   29.0864  -61.8333   19.4514 H   0  0  0  0  0  0
   27.8860  -59.7543   19.4352 H   0  0  0  0  0  0
   27.1606  -60.1555   17.8416 H   0  0  0  0  0  0
   28.9338  -59.9065   17.9842 H   0  0  0  0  0  0
   29.8033  -63.0340   15.9341 H   0  0  0  0  0  0
   29.6862  -61.3173   16.4497 H   0  0  0  0  0  0
   31.8595  -62.2179   16.8128 H   0  0  0  0  0  0
   31.1863  -63.5167   17.8552 H   0  0  0  0  0  0
   31.0691  -61.8000   18.3708 H   0  0  0  0  0  0
   27.0092  -60.4402   16.0398 H   0  0  0  0  0  0
   27.1723  -59.5178   13.9907 H   0  0  0  0  0  0
   26.4919  -60.4787   12.6340 H   0  0  0  0  0  0
   28.2718  -60.3388   12.8315 H   0  0  0  0  0  0
   26.0438  -64.1175   19.1088 H   0  0  0  0  0  0
   27.6073  -65.0292   17.4689 H   0  0  0  0  0  0
   24.2562  -65.7132   17.5838 H   0  0  0  0  0  0
   23.0350  -62.9715   17.6923 H   0  0  0  0  0  0
   22.8738  -64.2496   16.4406 H   0  0  0  0  0  0
   23.3772  -60.3643   12.7956 H   0  0  0  0  0  0
  1  2  1  0  0  0
  1  6  1  0  0  0
  1 23  1  0  0  0
  1 24  1  0  0  0
  2  3  1  0  0  0
  2 25  1  0  0  0
  3  4  1  0  0  0
  3  5  2  0  0  0
  4 26  1  0  0  0
  4 27  1  0  0  0
  5 28  1  0  0  0
  5 51  1  0  0  0
  6  7  1  0  0  0
  6 17  1  0  0  0
  6 29  1  0  0  0
  7  8  1  0  0  0
  7 13  1  0  0  0
  7 30  1  0  0  0
  8  9  1  0  0  0
  8 11  1  0  0  0
  8 31  1  0  0  0
  9 10  1  0  0  0
  9 32  1  0  0  0
  9 33  1  0  0  0
 10 34  1  0  0  0
 10 35  1  0  0  0
 10 36  1  0  0  0
 11 12  1  0  0  0
 11 37  1  0  0  0
 11 38  1  0  0  0
 12 39  1  0  0  0
 12 40  1  0  0  0
 12 41  1  0  0  0
 13 14  1  0  0  0
 13 42  1  0  0  0
 14 15  1  0  0  0
 14 16  2  0  0  0
 15 43  1  0  0  0
 15 44  1  0  0  0
 15 45  1  0  0  0
 17 18  1  0  0  0
 17 19  1  0  0  0
 17 46  1  0  0  0
 18 47  1  0  0  0
 19 20  1  0  0  0
 19 23  1  0  0  0
 19 48  1  0  0  0
 20 21  2  0  0  0
 20 22  1  0  0  0
 23 49  1  0  0  0
 23 50  1  0  0  0
M  CHG  2   5   1  22  -1
M  END
> <s_m_source_file>
../4mx0_ligand.sdf

> <i_m_source_file_index>
1

> <s_epik_input>
W0hdXE49QyhbTkgyXSlcW05IXVtDQEhdMVtDQEhdKFtDQEhdKFtDSF0oW0NIMl1bQ0gzXSlbQ0gyXVtDSDNdKVtOSF1DKD1PKVtDSDNdKVtDQEhdKFtPSF0pW0NASF0oW0NIMl0xKUMoPU8pW09IXQ==

> <s_epik_cmdline>
J2VwaWtfYXBwJywgJy1pbWFlJywgJ2xpZ2FuZF9wcm8ubWFlJywgJy1vbWFlJywgJ2xpZ2FuZF9wcmVwLm1hZScsICctbXMnLCAnMScsICctcGgnLCAnNycsICctcGh0JywgJzAuNScsICctbnQn

> <r_lp_tautomer_probability>
1

> <r_epik_Ionization_Penalty>
  0.0002

> <r_epik_Ionization_Penalty_Charging>
  0.0002

> <r_epik_Ionization_Penalty_Neutral>
  0.0000

> <r_epik_State_Penalty>
 -0.0000

> <r_epik_Charging_Adjusted_Penalty>
0.000179684030402543

> <i_epik_Tot_Q>
0

> <i_epik_Tot_abs_Q>
2

> <s_epik_Chemistry_Notes>
This compound has an imine and may undergo hydrolysis.

$$$$
