4mx1_ligand
                    3D
 Schrodinger Suite 2020-3.
 43 45  0  0  1  0            999 V2000
  -23.9710    8.8080   -6.3600 C   0  0  0  0  0  0
  -24.2870    8.0680   -5.2840 N   0  0  0  0  0  0
  -22.1220    8.2520   -9.2320 O   0  0  0  0  0  0
  -22.8220    8.8190   -8.3660 C   0  0  0  0  0  0
  -23.1990    8.1510   -7.2600 N   0  3  0  0  0  0
  -25.5170   14.6200   -8.1710 O   0  0  0  0  0  0
  -23.2180   10.1600   -8.5610 C   0  0  0  0  0  0
  -24.2950   10.0880   -6.4430 N   0  0  0  0  0  0
  -25.1990   15.1030  -14.9190 O   0  0  0  0  0  0
  -24.0210   10.7840   -7.5220 C   0  0  0  0  0  0
  -24.4810   12.0270   -7.6700 N   0  0  0  0  0  0
  -24.2190   12.6980   -8.8080 C   0  0  0  0  0  0
  -22.9010   10.9390   -9.6780 N   0  0  0  0  0  0
  -23.3510   12.1930   -9.8060 C   0  0  0  0  0  0
  -24.6770   14.6440  -10.2080 N   0  0  0  0  0  0
  -24.7670   14.0890   -8.9990 C   0  0  0  0  0  0
  -25.2110   15.6490  -12.7770 N   0  0  0  0  0  0
  -25.1500   16.0490  -10.4410 C   0  0  0  0  0  0
  -26.1190   13.6760  -13.3560 N   0  0  0  0  0  0
  -26.0570   16.0010  -11.6500 C   0  0  0  0  0  0
  -25.5140   14.7920  -13.7700 C   0  0  0  0  0  0
  -26.5030   12.4790  -13.9200 C   0  0  0  0  0  0
  -26.3360   11.3710  -13.1410 C   0  0  0  0  0  0
  -26.7100   10.0730  -13.5600 C   0  0  0  0  0  0
  -27.2960    9.9230  -14.8060 C   0  0  0  0  0  0
  -27.4810   11.0540  -15.5980 C   0  0  0  0  0  0
  -27.0920   12.3420  -15.2030 C   0  0  0  0  0  0
  -24.0037    7.0058   -5.2445 H   0  0  0  0  0  0
  -23.0571   12.8090  -10.6559 H   0  0  0  0  0  0
  -24.2513   14.0621  -11.0388 H   0  0  0  0  0  0
  -24.2125   16.0995  -12.8770 H   0  0  0  0  0  0
  -25.6952   16.4041   -9.5541 H   0  0  0  0  0  0
  -24.2839   16.7018  -10.6247 H   0  0  0  0  0  0
  -26.4374   13.5795  -12.3075 H   0  0  0  0  0  0
  -26.5239   16.9799  -11.8337 H   0  0  0  0  0  0
  -26.8403   15.2385  -11.5272 H   0  0  0  0  0  0
  -25.8947   11.4918  -12.1517 H   0  0  0  0  0  0
  -26.5408    9.2096  -12.9165 H   0  0  0  0  0  0
  -27.6062    8.9398  -15.1598 H   0  0  0  0  0  0
  -27.9517   10.9316  -16.5735 H   0  0  0  0  0  0
  -27.2364   13.2031  -15.8555 H   0  0  0  0  0  0
  -24.8290    8.5243   -4.4426 H   0  0  0  0  0  0
  -22.9025    7.1084   -7.0730 H   0  0  0  0  0  0
  1  2  1  0  0  0
  1  5  1  0  0  0
  1  8  2  0  0  0
  2 28  1  0  0  0
  2 42  1  0  0  0
  3  4  2  0  0  0
  4  5  1  0  0  0
  4  7  1  0  0  0
  5 43  1  0  0  0
  6 16  2  0  0  0
  7 10  2  0  0  0
  7 13  1  0  0  0
  8 10  1  0  0  0
  9 21  2  0  0  0
 10 11  1  0  0  0
 11 12  2  0  0  0
 12 14  1  0  0  0
 12 16  1  0  0  0
 13 14  2  0  0  0
 14 29  1  0  0  0
 15 16  1  0  0  0
 15 18  1  0  0  0
 15 30  1  0  0  0
 17 20  1  0  0  0
 17 21  1  0  0  0
 17 31  1  0  0  0
 18 20  1  0  0  0
 18 32  1  0  0  0
 18 33  1  0  0  0
 19 21  1  0  0  0
 19 22  1  0  0  0
 19 34  1  0  0  0
 20 35  1  0  0  0
 20 36  1  0  0  0
 22 23  2  0  0  0
 22 27  1  0  0  0
 23 24  1  0  0  0
 23 37  1  0  0  0
 24 25  2  0  0  0
 24 38  1  0  0  0
 25 26  1  0  0  0
 25 39  1  0  0  0
 26 27  2  0  0  0
 26 40  1  0  0  0
 27 41  1  0  0  0
M  CHG  1   5   1
M  END
> <s_m_source_file>
../4mx1_ligand.sdf

> <i_m_source_file_index>
1

> <s_epik_input>
Tz1jMVtuSF0vYyg9TlxbSF0pW25IXWMoYzEyKW5jKFtjSF1uMilDKD1PKVtOSF1bQ0gyXVtDSDJdW05IXUMoPU8pW05IXWMzW2NIXVtjSF1bY0hdW2NIXVtjSF0z

> <s_epik_cmdline>
J2VwaWtfYXBwJywgJy1pbWFlJywgJ2xpZ2FuZF9wcm8ubWFlJywgJy1vbWFlJywgJ2xpZ2FuZF9wcmVwLm1hZScsICctbXMnLCAnMScsICctcGgnLCAnNycsICctcGh0JywgJzAuNScsICctbnQn

> <r_lp_tautomer_probability>
1

> <r_epik_Ionization_Penalty>
  0.2786

> <r_epik_Ionization_Penalty_Charging>
  0.2785

> <r_epik_Ionization_Penalty_Neutral>
  0.0001

> <r_epik_State_Penalty>
 -0.0000

> <r_epik_Charging_Adjusted_Penalty>
0.278547180283863

> <i_epik_Tot_Q>
1

> <i_epik_Tot_abs_Q>
1

> <s_epik_Chemistry_Notes>
This compound has an imine and may undergo hydrolysis.

$$$$
