4mx5_ligand
                    3D
 Schrodinger Suite 2020-3.
 31 32  0  0  1  0            999 V2000
   24.2010  -10.0330   -6.5600 N   0  0  0  0  0  0
   23.8690   -8.7500   -6.4310 C   0  0  0  0  0  0
   24.1900   -8.0540   -5.3140 N   0  0  0  0  0  0
   23.0240   -8.1620   -7.3750 N   0  3  0  0  0  0
   22.7190   -8.8790   -8.5100 C   0  0  0  0  0  0
   21.9160   -8.3120   -9.2950 O   0  0  0  0  0  0
   22.8000  -10.9820   -9.7330 N   0  0  0  0  0  0
   23.2670  -12.2560   -9.8350 C   0  0  0  0  0  0
   24.2020  -12.6990   -8.8690 C   0  0  0  0  0  0
   24.4240  -11.9810   -7.7600 N   0  0  0  0  0  0
   23.0730  -10.2130   -8.6350 C   0  0  0  0  0  0
   23.9400  -10.7170   -7.6610 C   0  0  0  0  0  0
   24.7430  -14.0140   -9.0310 C   0  0  0  0  0  0
   25.5380  -14.4810   -8.2200 O   0  0  0  0  0  0
   24.6650  -14.5640  -10.2770 N   0  0  0  0  0  0
   25.1940  -15.8940  -10.5340 C   0  0  0  0  0  0
   26.5260  -15.7860  -11.3210 C   0  0  0  0  0  0
   27.4580  -14.7380  -10.8460 N   0  0  0  0  0  0
   28.7090  -15.0260  -10.4280 C   0  0  0  0  0  0
   29.4350  -14.0940  -10.0090 O   0  0  0  0  0  0
   29.1510  -16.2170  -10.4670 O   0  5  0  0  0  0
   24.8541   -8.5008   -4.5594 H   0  0  0  0  0  0
   22.9315  -12.9150  -10.6358 H   0  0  0  0  0  0
   24.1965  -13.9916  -11.0912 H   0  0  0  0  0  0
   25.3766  -16.4069   -9.5782 H   0  0  0  0  0  0
   24.4672  -16.4696  -11.1260 H   0  0  0  0  0  0
   27.0692  -16.7402  -11.2551 H   0  0  0  0  0  0
   26.3114  -15.5584  -12.3756 H   0  0  0  0  0  0
   27.1383  -13.6857  -10.8260 H   0  0  0  0  0  0
   23.7866   -7.0421   -5.1616 H   0  0  0  0  0  0
   22.6221   -7.1530   -7.2006 H   0  0  0  0  0  0
  1  2  2  0  0  0
  1 12  1  0  0  0
  2  3  1  0  0  0
  2  4  1  0  0  0
  3 22  1  0  0  0
  3 30  1  0  0  0
  4  5  1  0  0  0
  4 31  1  0  0  0
  5  6  2  0  0  0
  5 11  1  0  0  0
  7  8  2  0  0  0
  7 11  1  0  0  0
  8  9  1  0  0  0
  8 23  1  0  0  0
  9 10  2  0  0  0
  9 13  1  0  0  0
 10 12  1  0  0  0
 11 12  2  0  0  0
 13 14  2  0  0  0
 13 15  1  0  0  0
 15 16  1  0  0  0
 15 24  1  0  0  0
 16 17  1  0  0  0
 16 25  1  0  0  0
 16 26  1  0  0  0
 17 18  1  0  0  0
 17 27  1  0  0  0
 17 28  1  0  0  0
 18 19  1  0  0  0
 18 29  1  0  0  0
 19 20  2  0  0  0
 19 21  1  0  0  0
M  CHG  2   4   1  21  -1
M  END
> <s_m_source_file>
../4mx5_ligand.sdf

> <i_m_source_file_index>
1

> <s_epik_input>
Tz1jMVtuSF1jKD1OL1tIXSlcW25IXWMoYzEyKW5jKFtjSF1uMilDKD1PKVtOSF1bQ0gyXVtDSDJdW05IXUMoPU8pW09IXQ==

> <s_epik_cmdline>
J2VwaWtfYXBwJywgJy1pbWFlJywgJ2xpZ2FuZF9wcm8ubWFlJywgJy1vbWFlJywgJ2xpZ2FuZF9wcmVwLm1hZScsICctbXMnLCAnMScsICctcGgnLCAnNycsICctcGh0JywgJzAuNScsICctbnQn

> <r_lp_tautomer_probability>
1

> <r_epik_Ionization_Penalty>
  0.2809

> <r_epik_Ionization_Penalty_Charging>
  0.2808

> <r_epik_Ionization_Penalty_Neutral>
  0.0000

> <r_epik_State_Penalty>
 -0.0000

> <r_epik_Charging_Adjusted_Penalty>
0.28084511422803

> <i_epik_Tot_Q>
0

> <i_epik_Tot_abs_Q>
2

> <s_epik_Chemistry_Notes>
This compound has an imine and may undergo hydrolysis.

$$$$
