4mx9_ligand
                    3D
 Schrodinger Suite 2020-3.
 60 64  0  0  1  0            999 V2000
   -2.0650  -17.6820  -29.2470 C   0  0  0  0  0  0
   -1.9160  -16.3840  -28.4730 C   0  0  0  0  0  0
   -2.9660  -16.2190  -27.4460 N   0  3  1  0  0  0
   -2.8470  -14.8650  -26.8830 C   0  0  0  0  0  0
   -4.2730  -16.2700  -28.0820 C   0  0  0  0  0  0
   -4.4990  -17.6150  -28.7530 C   0  0  0  0  0  0
   -3.4770  -17.8660  -29.8540 C   0  0  2  0  0  0
   -3.7350  -19.2890  -30.3600 C   0  0  0  0  0  0
   -2.5730  -20.1040  -30.6940 N   0  0  0  0  0  0
   -1.4240  -19.7530  -30.9040 N   0  0  0  0  0  0
   -2.7060  -21.3860  -30.8340 C   0  0  0  0  0  0
   -3.7800  -22.1410  -30.7110 N   0  0  0  0  0  0
   -3.6560  -23.4320  -30.9020 C   0  0  0  0  0  0
   -2.4830  -23.9670  -31.2150 N   0  0  0  0  0  0
   -1.4170  -23.2280  -31.3640 C   0  0  0  0  0  0
   -0.3040  -23.8430  -31.6730 N   0  0  0  0  0  0
   -1.4940  -21.8820  -31.1630 C   0  0  0  0  0  0
   -0.6790  -20.7930  -31.1870 C   0  0  0  0  0  0
    0.6440  -20.7260  -31.4840 C   0  0  0  0  0  0
    1.1980  -21.4930  -32.4790 C   0  0  0  0  0  0
    1.4420  -19.8440  -30.8190 C   0  0  0  0  0  0
    2.7770  -19.7320  -31.1060 C   0  0  0  0  0  0
    3.3150  -20.4980  -32.0900 C   0  0  0  0  0  0
    4.6410  -20.3890  -32.3930 C   0  0  0  0  0  0
    2.5290  -21.3750  -32.7690 C   0  0  0  0  0  0
    3.0690  -22.1470  -33.7480 C   0  0  0  0  0  0
    4.4040  -22.0570  -34.0620 C   0  0  0  0  0  0
    5.1960  -21.1720  -33.3830 C   0  0  0  0  0  0
    6.4860  -21.0910  -33.7040 O   0  0  0  0  0  0
    7.2720  -21.4580  -32.6170 C   0  0  0  0  0  0
    8.7580  -21.3230  -32.9100 C   0  0  0  0  0  0
   -1.3407  -17.7005  -30.0747 H   0  0  0  0  0  0
   -1.8766  -18.5329  -28.5758 H   0  0  0  0  0  0
   -0.9395  -16.3689  -27.9669 H   0  0  0  0  0  0
   -1.9823  -15.5334  -29.1673 H   0  0  0  0  0  0
   -2.8705  -17.0069  -26.6844 H   0  0  0  0  0  0
   -1.8725  -14.7599  -26.3837 H   0  0  0  0  0  0
   -3.6529  -14.6994  -26.1529 H   0  0  0  0  0  0
   -2.9266  -14.1234  -27.6915 H   0  0  0  0  0  0
   -5.0557  -16.1175  -27.3243 H   0  0  0  0  0  0
   -4.3412  -15.4794  -28.8438 H   0  0  0  0  0  0
   -4.4106  -18.4171  -28.0055 H   0  0  0  0  0  0
   -5.5045  -17.6382  -29.1985 H   0  0  0  0  0  0
   -3.5700  -17.1700  -30.7007 H   0  0  0  0  0  0
   -4.2791  -19.8582  -29.5919 H   0  0  0  0  0  0
   -4.3361  -19.2476  -31.2803 H   0  0  0  0  0  0
   -4.5299  -24.0757  -30.8021 H   0  0  0  0  0  0
   -0.3013  -24.9326  -31.8237 H   0  0  0  0  0  0
    0.6288  -23.2703  -31.7820 H   0  0  0  0  0  0
    0.5778  -22.1947  -33.0367 H   0  0  0  0  0  0
    1.0089  -19.2140  -30.0420 H   0  0  0  0  0  0
    3.4021  -19.0339  -30.5492 H   0  0  0  0  0  0
    5.2647  -19.6792  -31.8496 H   0  0  0  0  0  0
    2.4348  -22.8472  -34.2917 H   0  0  0  0  0  0
    4.8281  -22.6853  -34.8453 H   0  0  0  0  0  0
    7.0336  -20.8136  -31.7580 H   0  0  0  0  0  0
    7.0696  -22.5072  -32.3557 H   0  0  0  0  0  0
    9.3353  -21.6237  -32.0233 H   0  0  0  0  0  0
    8.9888  -20.2770  -33.1604 H   0  0  0  0  0  0
    9.0248  -21.9706  -33.7582 H   0  0  0  0  0  0
  1  2  1  0  0  0
  1  7  1  0  0  0
  1 32  1  0  0  0
  1 33  1  0  0  0
  2  3  1  0  0  0
  2 34  1  0  0  0
  2 35  1  0  0  0
  3  4  1  0  0  0
  3  5  1  0  0  0
  3 36  1  0  0  0
  4 37  1  0  0  0
  4 38  1  0  0  0
  4 39  1  0  0  0
  5  6  1  0  0  0
  5 40  1  0  0  0
  5 41  1  0  0  0
  6  7  1  0  0  0
  6 42  1  0  0  0
  6 43  1  0  0  0
  7  8  1  0  0  0
  7 44  1  0  0  0
  8  9  1  0  0  0
  8 45  1  0  0  0
  8 46  1  0  0  0
  9 10  1  0  0  0
  9 11  1  0  0  0
 10 18  2  0  0  0
 11 12  1  0  0  0
 11 17  2  0  0  0
 12 13  2  0  0  0
 13 14  1  0  0  0
 13 47  1  0  0  0
 14 15  2  0  0  0
 15 16  1  0  0  0
 15 17  1  0  0  0
 16 48  1  0  0  0
 16 49  1  0  0  0
 17 18  1  0  0  0
 18 19  1  0  0  0
 19 20  2  0  0  0
 19 21  1  0  0  0
 20 25  1  0  0  0
 20 50  1  0  0  0
 21 22  2  0  0  0
 21 51  1  0  0  0
 22 23  1  0  0  0
 22 52  1  0  0  0
 23 24  1  0  0  0
 23 25  2  0  0  0
 24 28  2  0  0  0
 24 53  1  0  0  0
 25 26  1  0  0  0
 26 27  2  0  0  0
 26 54  1  0  0  0
 27 28  1  0  0  0
 27 55  1  0  0  0
 28 29  1  0  0  0
 29 30  1  0  0  0
 30 31  1  0  0  0
 30 56  1  0  0  0
 30 57  1  0  0  0
 31 58  1  0  0  0
 31 59  1  0  0  0
 31 60  1  0  0  0
M  CHG  1   3   1
M  END
> <s_m_source_file>
../4mx9_ligand.sdf

> <i_m_source_file_index>
1

> <s_epik_input>
W0NIM11bTkBASCtdMVtDSDJdW0NIMl1bQ0BIXShbQ0gyXVtDSDJdMSlbQ0gyXW4ybmMoYyhjMjMpYyhbTkgyXSluW2NIXW4zKS1jKFtjSF1bY0hdNClbY0hdYyhjNDUpW2NIXVtjSF1jKFtjSF01KU9bQ0gyXVtDSDNd

> <s_epik_cmdline>
J2VwaWtfYXBwJywgJy1pbWFlJywgJ2xpZ2FuZF9wcm8ubWFlJywgJy1vbWFlJywgJ2xpZ2FuZF9wcmVwLm1hZScsICctbXMnLCAnMScsICctcGgnLCAnNycsICctcGh0JywgJzAuNScsICctbnQn

> <r_lp_tautomer_probability>
1

> <r_epik_Ionization_Penalty>
  0.0020

> <r_epik_Ionization_Penalty_Charging>
  0.0015

> <r_epik_Ionization_Penalty_Neutral>
  0.0005

> <r_epik_State_Penalty>
 -0.0000

> <r_epik_Charging_Adjusted_Penalty>
0.00148717089305683

> <i_epik_Tot_Q>
1

> <i_epik_Tot_abs_Q>
1

$$$$
