4mxa_ligand
                    3D
 Schrodinger Suite 2020-3.
 57 61  0  0  1  0            999 V2000
   -3.0150  -23.5160  -31.0310 N   0  0  0  0  0  0
   -4.1610  -22.9450  -30.7230 C   0  0  0  0  0  0
   -4.2260  -21.6280  -30.5690 N   0  0  0  0  0  0
   -3.1350  -20.8570  -30.7550 C   0  0  0  0  0  0
   -1.9240  -21.4290  -31.0890 C   0  0  0  0  0  0
   -1.8880  -22.7930  -31.2320 C   0  0  0  0  0  0
    8.4400  -21.4820  -31.7110 C   0  0  0  0  0  0
   -0.7640  -23.3990  -31.5310 N   0  0  0  0  0  0
    4.4220  -21.4450  -33.8300 C   0  0  0  0  0  0
    1.1100  -19.8990  -30.4990 C   0  0  0  0  0  0
    3.0380  -21.4490  -33.7790 C   0  0  0  0  0  0
    2.4890  -19.8960  -30.5610 C   0  0  0  0  0  0
    4.4670  -20.3820  -31.6690 C   0  0  0  0  0  0
    0.9720  -20.9320  -32.6080 C   0  0  0  0  0  0
    6.9460  -21.8630  -31.8670 C   0  0  0  0  0  0
   -5.2600  -17.0790  -27.1410 C   0  0  0  0  0  0
   -2.8630  -16.7780  -27.1060 C   0  0  0  0  0  0
   -5.2530  -17.4910  -28.5820 C   0  0  0  0  0  0
   -2.7430  -17.3090  -28.5480 C   0  0  0  0  0  0
   -3.8920  -18.5420  -30.3590 C   0  0  0  0  0  0
   -1.7300  -19.2600  -30.9130 N   0  0  0  0  0  0
   -4.1780  -16.0990  -26.9210 N   0  3  0  0  0  0
    6.4670  -20.8710  -32.7920 O   0  0  0  0  0  0
    5.1210  -20.9040  -32.7710 C   0  0  0  0  0  0
    0.3310  -20.4220  -31.4900 C   0  0  0  0  0  0
   -1.0380  -20.3610  -31.2220 C   0  0  0  0  0  0
    3.1090  -20.4040  -31.6500 C   0  0  0  0  0  0
    2.3630  -20.9230  -32.6810 C   0  0  0  0  0  0
   -3.9360  -18.2120  -28.8760 C   0  0  0  0  0  0
   -2.8980  -19.5540  -30.6690 N   0  0  0  0  0  0
   -5.0561  -23.5536  -30.5945 H   0  0  0  0  0  0
    8.9258  -22.1809  -31.0141 H   0  0  0  0  0  0
    8.5180  -20.4579  -31.3171 H   0  0  0  0  0  0
    8.9366  -21.5368  -32.6910 H   0  0  0  0  0  0
   -0.7422  -24.4929  -31.6442 H   0  0  0  0  0  0
    0.1569  -22.8133  -31.6686 H   0  0  0  0  0  0
    4.9481  -21.8608  -34.6893 H   0  0  0  0  0  0
    0.6242  -19.4667  -29.6242 H   0  0  0  0  0  0
    2.4701  -21.8693  -34.6090 H   0  0  0  0  0  0
    3.0743  -19.4868  -29.7375 H   0  0  0  0  0  0
    5.0291  -19.9624  -30.8347 H   0  0  0  0  0  0
    0.3866  -21.3408  -33.4316 H   0  0  0  0  0  0
    6.8680  -22.8871  -32.2609 H   0  0  0  0  0  0
    6.4493  -21.8082  -30.8870 H   0  0  0  0  0  0
   -6.2307  -16.6241  -26.8944 H   0  0  0  0  0  0
   -5.0974  -17.9625  -26.5062 H   0  0  0  0  0  0
   -2.7859  -17.6170  -26.3987 H   0  0  0  0  0  0
   -2.0536  -16.0589  -26.9115 H   0  0  0  0  0  0
   -6.1006  -18.1652  -28.7747 H   0  0  0  0  0  0
   -5.3421  -16.5986  -29.2190 H   0  0  0  0  0  0
   -2.7266  -16.4625  -29.2503 H   0  0  0  0  0  0
   -1.8130  -17.8877  -28.6495 H   0  0  0  0  0  0
   -4.8741  -18.9196  -30.6799 H   0  0  0  0  0  0
   -3.6438  -17.6347  -30.9293 H   0  0  0  0  0  0
   -4.2758  -15.2763  -27.6446 H   0  0  0  0  0  0
   -4.2482  -15.6986  -25.8989 H   0  0  0  0  0  0
   -3.8795  -19.1266  -28.2675 H   0  0  0  0  0  0
  1  2  1  0  0  0
  1  6  2  0  0  0
  2  3  2  0  0  0
  2 31  1  0  0  0
  3  4  1  0  0  0
  4  5  2  0  0  0
  4 30  1  0  0  0
  5  6  1  0  0  0
  5 26  1  0  0  0
  6  8  1  0  0  0
  7 15  1  0  0  0
  7 32  1  0  0  0
  7 33  1  0  0  0
  7 34  1  0  0  0
  8 35  1  0  0  0
  8 36  1  0  0  0
  9 11  2  0  0  0
  9 24  1  0  0  0
  9 37  1  0  0  0
 10 12  1  0  0  0
 10 25  2  0  0  0
 10 38  1  0  0  0
 11 28  1  0  0  0
 11 39  1  0  0  0
 12 27  2  0  0  0
 12 40  1  0  0  0
 13 24  2  0  0  0
 13 27  1  0  0  0
 13 41  1  0  0  0
 14 25  1  0  0  0
 14 28  2  0  0  0
 14 42  1  0  0  0
 15 23  1  0  0  0
 15 43  1  0  0  0
 15 44  1  0  0  0
 16 18  1  0  0  0
 16 22  1  0  0  0
 16 45  1  0  0  0
 16 46  1  0  0  0
 17 19  1  0  0  0
 17 22  1  0  0  0
 17 47  1  0  0  0
 17 48  1  0  0  0
 18 29  1  0  0  0
 18 49  1  0  0  0
 18 50  1  0  0  0
 19 29  1  0  0  0
 19 51  1  0  0  0
 19 52  1  0  0  0
 20 29  1  0  0  0
 20 30  1  0  0  0
 20 53  1  0  0  0
 20 54  1  0  0  0
 21 26  2  0  0  0
 21 30  1  0  0  0
 22 55  1  0  0  0
 22 56  1  0  0  0
 23 24  1  0  0  0
 25 26  1  0  0  0
 27 28  1  0  0  0
 29 57  1  0  0  0
M  CHG  1  22   1
M  END
> <s_m_source_file>
../4mxa_ligand.sdf

> <i_m_source_file_index>
1

> <s_epik_input>
W0NIMl0xW0NIMl1bTkgyK11bQ0gyXVtDSDJdW0NIXTFbQ0gyXW4ybmMoYyhjMjMpYyhbTkgyXSluW2NIXW4zKS1jKFtjSF1bY0hdNClbY0hdYyhjNDUpW2NIXVtjSF1jKFtjSF01KU9bQ0gyXVtDSDNd

> <s_epik_cmdline>
J2VwaWtfYXBwJywgJy1pbWFlJywgJ2xpZ2FuZF9wcm8ubWFlJywgJy1vbWFlJywgJ2xpZ2FuZF9wcmVwLm1hZScsICctbXMnLCAnMScsICctcGgnLCAnNycsICctcGh0JywgJzAuNScsICctbnQn

> <r_lp_tautomer_probability>
1

> <r_epik_Ionization_Penalty>
  0.0010

> <r_epik_Ionization_Penalty_Charging>
  0.0004

> <r_epik_Ionization_Penalty_Neutral>
  0.0005

> <r_epik_State_Penalty>
 -0.0000

> <r_epik_Charging_Adjusted_Penalty>
0.000433073767326883

> <i_epik_Tot_Q>
1

> <i_epik_Tot_abs_Q>
1

$$$$
