4my6_ligand
                    3D
 Schrodinger Suite 2020-3.
 87 93  0  0  1  0            999 V2000
   20.9950   -8.6690  -17.3670 C   0  0  0  0  0  0
   21.1490   -9.7410  -16.7700 O   0  0  0  0  0  0
   20.7270   -8.6650  -18.8460 C   0  0  0  0  0  0
   24.0640   -9.5550  -13.9650 Cl  0  0  0  0  0  0
   24.4720   -8.9890  -15.5390 C   0  0  0  0  0  0
   25.3810   -9.7580  -16.3060 C   0  0  0  0  0  0
   25.7120   -9.2810  -17.5660 C   0  0  0  0  0  0
   25.1970   -8.0910  -18.0780 C   0  0  0  0  0  0
   24.2970   -7.3180  -17.2960 C   0  0  0  0  0  0
   23.9600   -7.7500  -16.0060 C   0  0  0  0  0  0
   22.9810   -6.9540  -15.1660 C   0  0  0  0  0  0
   21.5230   -7.4530  -15.2960 C   0  0  2  0  0  0
   21.0700   -7.4650  -16.7200 N   0  0  0  0  0  0
   20.6400   -6.5130  -14.5610 C   0  0  0  0  0  0
   20.2920   -5.4710  -15.0640 O   0  0  0  0  0  0
   20.2740   -6.8100  -13.2720 N   0  0  0  0  0  0
   20.6160   -8.0600  -12.5670 C   0  0  0  0  0  0
   20.3000   -7.7250  -11.1040 C   0  0  0  0  0  0
   19.1750   -6.7160  -11.1890 C   0  0  0  0  0  0
   19.4970   -5.8610  -12.4310 C   0  0  1  0  0  0
   20.3740   -4.6990  -12.0720 C   0  0  0  0  0  0
   21.6160   -4.7110  -12.0360 O   0  0  0  0  0  0
   19.7340   -3.5420  -11.7770 N   0  0  0  0  0  0
   18.2340   -5.4310  -13.1550 C   0  0  0  0  0  0
   17.6380   -4.2430  -12.9030 C   0  0  0  0  0  0
   18.2850   -3.3060  -11.9120 C   0  0  2  0  0  0
   18.1550   -1.8210  -12.2470 C   0  0  0  0  0  0
   19.3780   -1.2160  -11.5350 C   0  0  0  0  0  0
   20.4600   -2.3030  -11.4820 C   0  0  1  0  0  0
   21.0890   -2.3760  -10.1140 C   0  0  0  0  0  0
   20.7270   -3.2250   -9.2940 O   0  0  0  0  0  0
   22.0920   -1.4860   -9.8070 N   0  0  0  0  0  0
   22.7160   -0.5270  -10.7890 C   0  0  0  0  0  0
   24.1050   -0.2480  -10.2500 C   0  0  0  0  0  0
   23.8190   -0.3060   -8.7450 C   0  0  1  0  0  0
   22.8400   -1.4820   -8.5560 C   0  0  1  0  0  0
   21.9740   -1.2590   -7.3430 C   0  0  0  0  0  0
   20.7500   -0.9780   -7.3840 O   0  0  0  0  0  0
   25.0100   -0.5090   -7.8730 C   0  0  0  0  0  0
   25.0730   -1.1990   -6.7110 C   0  0  0  0  0  0
   23.9960   -1.9440   -6.0000 C   0  0  1  0  0  0
   24.3050   -1.9910   -4.4970 C   0  0  0  0  0  0
   23.0310   -1.6200   -3.7720 C   0  0  0  0  0  0
   21.9630   -1.2710   -4.8160 C   0  0  2  0  0  0
   22.6110   -1.3860   -6.1380 N   0  0  0  0  0  0
   21.5240    0.1300   -4.5540 C   0  0  0  0  0  0
   20.5060    0.3100   -3.8070 O   0  5  0  0  0  0
   22.1980    1.0570   -5.0850 O   0  0  0  0  0  0
   20.6963   -9.7005  -19.2159 H   0  0  0  0  0  0
   21.5275   -8.1148  -19.3622 H   0  0  0  0  0  0
   19.7610   -8.1767  -19.0423 H   0  0  0  0  0  0
   25.8033  -10.6866  -15.9220 H   0  0  0  0  0  0
   26.4021   -9.8596  -18.1800 H   0  0  0  0  0  0
   25.4836   -7.7548  -19.0744 H   0  0  0  0  0  0
   23.8724   -6.3972  -17.6959 H   0  0  0  0  0  0
   23.2643   -7.0265  -14.1056 H   0  0  0  0  0  0
   23.0012   -5.8999  -15.4797 H   0  0  0  0  0  0
   21.4357   -8.4740  -14.8960 H   0  0  0  0  0  0
   20.8071   -6.5219  -17.2215 H   0  0  0  0  0  0
   19.9973   -8.8818  -12.9567 H   0  0  0  0  0  0
   21.6789   -8.2930  -12.7283 H   0  0  0  0  0  0
   19.9945   -8.6404  -10.5760 H   0  0  0  0  0  0
   21.1954   -7.3053  -10.6223 H   0  0  0  0  0  0
   18.2162   -7.2442  -11.2977 H   0  0  0  0  0  0
   19.1571   -6.1086  -10.2721 H   0  0  0  0  0  0
   17.8039   -6.1147  -13.9018 H   0  0  0  0  0  0
   16.7019   -3.9775  -13.4161 H   0  0  0  0  0  0
   17.7580   -3.5507  -10.9780 H   0  0  0  0  0  0
   18.1850   -1.6874  -13.3384 H   0  0  0  0  0  0
   17.1999   -1.4394  -11.8570 H   0  0  0  0  0  0
   19.7360   -0.3425  -12.0996 H   0  0  0  0  0  0
   19.0939   -0.9045  -10.5190 H   0  0  0  0  0  0
   21.2834   -2.1459  -12.1943 H   0  0  0  0  0  0
   22.7562   -0.9952  -11.7836 H   0  0  0  0  0  0
   22.1116    0.3907  -10.8399 H   0  0  0  0  0  0
   24.7987   -1.0246  -10.6046 H   0  0  0  0  0  0
   24.4448    0.7365  -10.6040 H   0  0  0  0  0  0
   23.4488    0.6759   -8.4150 H   0  0  0  0  0  0
   23.2908   -2.4724   -8.3948 H   0  0  0  0  0  0
   25.9107   -0.0188   -8.2711 H   0  0  0  0  0  0
   26.0224   -1.2608   -6.1588 H   0  0  0  0  0  0
   23.9952   -2.9197   -6.5080 H   0  0  0  0  0  0
   24.6282   -3.0055   -4.2207 H   0  0  0  0  0  0
   25.1070   -1.2748   -4.2649 H   0  0  0  0  0  0
   22.6957   -2.4711   -3.1610 H   0  0  0  0  0  0
   23.2185   -0.7530   -3.1215 H   0  0  0  0  0  0
   21.0762   -1.9217   -4.8049 H   0  0  0  0  0  0
  1  2  2  0  0  0
  1  3  1  0  0  0
  1 13  1  0  0  0
  3 49  1  0  0  0
  3 50  1  0  0  0
  3 51  1  0  0  0
  4  5  1  0  0  0
  5  6  2  0  0  0
  5 10  1  0  0  0
  6  7  1  0  0  0
  6 52  1  0  0  0
  7  8  2  0  0  0
  7 53  1  0  0  0
  8  9  1  0  0  0
  8 54  1  0  0  0
  9 10  2  0  0  0
  9 55  1  0  0  0
 10 11  1  0  0  0
 11 12  1  0  0  0
 11 56  1  0  0  0
 11 57  1  0  0  0
 12 13  1  0  0  0
 12 14  1  0  0  0
 12 58  1  0  0  0
 13 59  1  0  0  0
 14 15  2  0  0  0
 14 16  1  0  0  0
 16 17  1  0  0  0
 16 20  1  0  0  0
 17 18  1  0  0  0
 17 60  1  0  0  0
 17 61  1  0  0  0
 18 19  1  0  0  0
 18 62  1  0  0  0
 18 63  1  0  0  0
 19 20  1  0  0  0
 19 64  1  0  0  0
 19 65  1  0  0  0
 20 21  1  0  0  0
 20 24  1  0  0  0
 21 22  2  0  0  0
 21 23  1  0  0  0
 23 26  1  0  0  0
 23 29  1  0  0  0
 24 25  2  0  0  0
 24 66  1  0  0  0
 25 26  1  0  0  0
 25 67  1  0  0  0
 26 27  1  0  0  0
 26 68  1  0  0  0
 27 28  1  0  0  0
 27 69  1  0  0  0
 27 70  1  0  0  0
 28 29  1  0  0  0
 28 71  1  0  0  0
 28 72  1  0  0  0
 29 30  1  0  0  0
 29 73  1  0  0  0
 30 31  2  0  0  0
 30 32  1  0  0  0
 32 33  1  0  0  0
 32 36  1  0  0  0
 33 34  1  0  0  0
 33 74  1  0  0  0
 33 75  1  0  0  0
 34 35  1  0  0  0
 34 76  1  0  0  0
 34 77  1  0  0  0
 35 36  1  0  0  0
 35 39  1  0  0  0
 35 78  1  0  0  0
 36 37  1  0  0  0
 36 79  1  0  0  0
 37 38  2  0  0  0
 37 45  1  0  0  0
 39 40  2  0  0  0
 39 80  1  0  0  0
 40 41  1  0  0  0
 40 81  1  0  0  0
 41 42  1  0  0  0
 41 45  1  0  0  0
 41 82  1  0  0  0
 42 43  1  0  0  0
 42 83  1  0  0  0
 42 84  1  0  0  0
 43 44  1  0  0  0
 43 85  1  0  0  0
 43 86  1  0  0  0
 44 45  1  0  0  0
 44 46  1  0  0  0
 44 87  1  0  0  0
 46 47  1  0  0  0
 46 48  2  0  0  0
M  CHG  1  47  -1
M  END
> <s_m_source_file>
../4my6_ligand.sdf

> <i_m_source_file_index>
1

> <s_epik_input>
Q2xjMVtjSF1bY0hdW2NIXVtjSF1jMVtDSDJdW0NASF0oW05IXUMoPU8pW0NIM10pQyg9TylOKFtDSDJdW0NIMl1bQ0gyXTIpW0NAXTIzQyg9TylONFtDQEhdKFtDSF09W0NIXTMpW0NIMl1bQ0gyXVtDQEhdNEMoPU8pTihbQ0gyXVtDSDJdNSlbQ0BASF0oW0NASF01NilDKD1PKU43W0NAQEhdKFtDSF09W0NIXTYpW0NIMl1bQ0gyXVtDQEhdN0MoPU8pW09IXQ==

> <s_epik_cmdline>
J2VwaWtfYXBwJywgJy1pbWFlJywgJ2xpZ2FuZF9wcm8ubWFlJywgJy1vbWFlJywgJ2xpZ2FuZF9wcmVwLm1hZScsICctbXMnLCAnMScsICctcGgnLCAnNycsICctcGh0JywgJzAuNScsICctbnQn

> <r_lp_tautomer_probability>
1

> <r_epik_Ionization_Penalty>
  0.0003

> <r_epik_Ionization_Penalty_Charging>
  0.0003

> <r_epik_Ionization_Penalty_Neutral>
  0.0000

> <r_epik_State_Penalty>
 -0.0000

> <r_epik_Charging_Adjusted_Penalty>
0.000312376356414184

> <i_epik_Tot_Q>
-1

> <i_epik_Tot_abs_Q>
1

$$$$
