4myd_ligand
                    3D
 Schrodinger Suite 2020-3.
 27 27  0  0  1  0            999 V2000
   23.4220   76.2480   11.7760 O   0  0  0  0  0  0
   24.4100   75.5300   11.9730 C   0  0  0  0  0  0
   24.5120   74.4810   12.6240 O   0  5  0  0  0  0
   25.6720   75.9730   11.2300 C   0  0  1  0  0  0
   26.1440   77.3360   11.7490 C   0  0  1  0  0  0
   27.0820   77.2430   12.9060 C   0  0  0  0  0  0
   27.8720   76.1770   13.0620 C   0  0  0  0  0  0
   27.8030   75.0680   12.1370 C   0  0  0  0  0  0
   26.7120   78.0780   10.7150 O   0  0  0  0  0  0
   26.7790   74.9430   11.2610 C   0  0  0  0  0  0
   26.7670   73.8210   10.3060 C   0  0  0  0  0  0
   25.7860   73.7520    9.5230 O   0  0  0  0  0  0
   27.8870   72.8000   10.2930 C   0  0  0  0  0  0
   29.1360   73.3130    9.6460 C   0  0  0  0  0  0
   30.2040   72.2960    9.2840 C   0  0  0  0  0  0
   29.9310   71.0850    9.4120 O   0  0  0  0  0  0
   31.2420   72.8800    8.8780 O   0  5  0  0  0  0
   25.4110   76.0636   10.1653 H   0  0  0  0  0  0
   25.2807   77.9321   12.0796 H   0  0  0  0  0  0
   27.1181   78.0657   13.6352 H   0  0  0  0  0  0
   28.5833   76.1375   13.9002 H   0  0  0  0  0  0
   28.6059   74.3164   12.1554 H   0  0  0  0  0  0
   26.1503   78.2434    9.7838 H   0  0  0  0  0  0
   28.1370   72.5169   11.3261 H   0  0  0  0  0  0
   27.5636   71.9080    9.7364 H   0  0  0  0  0  0
   28.8799   73.8156    8.7017 H   0  0  0  0  0  0
   29.6307   74.0282   10.3196 H   0  0  0  0  0  0
  1  2  2  0  0  0
  2  3  1  0  0  0
  2  4  1  0  0  0
  4  5  1  0  0  0
  4 10  1  0  0  0
  4 18  1  0  0  0
  5  6  1  0  0  0
  5  9  1  0  0  0
  5 19  1  0  0  0
  6  7  2  0  0  0
  6 20  1  0  0  0
  7  8  1  0  0  0
  7 21  1  0  0  0
  8 10  2  0  0  0
  8 22  1  0  0  0
  9 23  1  0  0  0
 10 11  1  0  0  0
 11 12  2  0  0  0
 11 13  1  0  0  0
 13 14  1  0  0  0
 13 24  1  0  0  0
 13 25  1  0  0  0
 14 15  1  0  0  0
 14 26  1  0  0  0
 14 27  1  0  0  0
 15 16  2  0  0  0
 15 17  1  0  0  0
M  CHG  2   3  -1  17  -1
M  END
> <s_m_source_file>
../4myd_ligand.sdf

> <i_m_source_file_index>
1

> <s_epik_input>
Tz1DKFtPSF0pW0NASF0xW0NASF0oW09IXSlbQ0hdPVtDSF1bQ0hdPUMxQyg9TylbQ0gyXVtDSDJdQyg9TylbT0hd

> <s_epik_cmdline>
J2VwaWtfYXBwJywgJy1pbWFlJywgJ2xpZ2FuZF9wcm8ubWFlJywgJy1vbWFlJywgJ2xpZ2FuZF9wcmVwLm1hZScsICctbXMnLCAnMScsICctcGgnLCAnNycsICctcGh0JywgJzAuNScsICctbnQn

> <r_lp_tautomer_probability>
1

> <r_epik_Ionization_Penalty>
  0.0021

> <r_epik_Ionization_Penalty_Charging>
  0.0021

> <r_epik_Ionization_Penalty_Neutral>
  0.0000

> <r_epik_State_Penalty>
 -0.0000

> <r_epik_Charging_Adjusted_Penalty>
0.00210910650648468

> <i_epik_Tot_Q>
-2

> <i_epik_Tot_abs_Q>
2

$$$$
