4myh_ligand
                    3D
 Schrodinger Suite 2020-3.
 36 35  0  0  1  0            999 V2000
   49.2940  -60.7770  -92.4120 N   0  3  0  0  0  0
   48.2180  -59.9210  -91.9700 C   0  0  2  0  0  0
   46.9120  -60.4880  -92.4440 C   0  0  0  0  0  0
   46.0750  -60.9780  -91.6090 O   0  0  0  0  0  0
   46.6260  -60.4550  -93.6950 O   0  5  0  0  0  0
   48.4300  -58.4990  -92.4360 C   0  0  0  0  0  0
   48.6640  -57.5370  -91.2930 C   0  0  0  0  0  0
   48.2690  -56.1430  -91.7890 C   0  0  0  0  0  0
   49.1190  -55.2200  -91.7290 O   0  0  0  0  0  0
   46.9190  -55.9620  -92.3020 N   0  0  0  0  0  0
   46.3830  -54.7170  -92.8240 C   0  0  2  0  0  0
   45.7070  -53.7730  -91.8220 C   0  0  0  0  0  0
   44.8760  -52.9380  -92.1900 O   0  0  0  0  0  0
   45.6420  -54.9130  -94.1330 C   0  0  0  0  0  0
   46.5580  -54.1030  -95.3970 S   0  0  0  0  0  0
   46.0900  -53.8470  -90.4230 N   0  0  0  0  0  0
   45.5140  -52.9750  -89.4140 C   0  0  0  0  0  0
   46.2500  -51.6570  -89.4160 C   0  0  0  0  0  0
   45.6490  -50.5860  -89.0790 O   0  5  0  0  0  0
   47.4650  -51.6180  -89.7490 O   0  0  0  0  0  0
   49.1143  -61.8034  -92.0596 H   0  0  0  0  0  0
   50.2465  -60.4100  -92.0020 H   0  0  0  0  0  0
   49.3407  -60.7695  -93.5110 H   0  0  0  0  0  0
   48.2323  -59.9202  -90.8701 H   0  0  0  0  0  0
   49.3088  -58.4567  -93.0962 H   0  0  0  0  0  0
   47.5411  -58.1571  -92.9864 H   0  0  0  0  0  0
   48.0452  -57.8322  -90.4328 H   0  0  0  0  0  0
   49.7256  -57.5599  -91.0059 H   0  0  0  0  0  0
   46.2889  -56.8632  -92.2740 H   0  0  0  0  0  0
   47.3201  -54.1883  -93.0527 H   0  0  0  0  0  0
   45.5603  -55.9882  -94.3506 H   0  0  0  0  0  0
   44.6350  -54.4775  -94.0531 H   0  0  0  0  0  0
   46.1960  -54.1202  -96.4356 H   0  0  0  0  0  0
   46.8437  -54.5956  -90.1376 H   0  0  0  0  0  0
   44.4512  -52.8040  -89.6406 H   0  0  0  0  0  0
   45.6066  -53.4474  -88.4249 H   0  0  0  0  0  0
  1  2  1  0  0  0
  1 21  1  0  0  0
  1 22  1  0  0  0
  1 23  1  0  0  0
  2  3  1  0  0  0
  2  6  1  0  0  0
  2 24  1  0  0  0
  3  4  2  0  0  0
  3  5  1  0  0  0
  6  7  1  0  0  0
  6 25  1  0  0  0
  6 26  1  0  0  0
  7  8  1  0  0  0
  7 27  1  0  0  0
  7 28  1  0  0  0
  8  9  2  0  0  0
  8 10  1  0  0  0
 10 11  1  0  0  0
 10 29  1  0  0  0
 11 12  1  0  0  0
 11 14  1  0  0  0
 11 30  1  0  0  0
 12 13  2  0  0  0
 12 16  1  0  0  0
 14 15  1  0  0  0
 14 31  1  0  0  0
 14 32  1  0  0  0
 15 33  1  0  0  0
 16 17  1  0  0  0
 16 34  1  0  0  0
 17 18  1  0  0  0
 17 35  1  0  0  0
 17 36  1  0  0  0
 18 19  1  0  0  0
 18 20  2  0  0  0
M  CHG  3   1   1   5  -1  19  -1
M  END
> <s_m_source_file>
../4myh_ligand.sdf

> <i_m_source_file_index>
1

> <s_epik_input>
Tz1DKFtPSF0pW0NAQEhdKFtOSDMrXSlbQ0gyXVtDSDJdQyg9TylbTkhdW0NAQEhdKFtDSDJdW1NIXSlDKD1PKVtOSF1bQ0gyXUMoPU8pW09IXQ==

> <s_epik_cmdline>
J2VwaWtfYXBwJywgJy1pbWFlJywgJ2xpZ2FuZF9wcm8ubWFlJywgJy1vbWFlJywgJ2xpZ2FuZF9wcmVwLm1hZScsICctbXMnLCAnMScsICctcGgnLCAnNycsICctcGh0JywgJzAuNScsICctbnQn

> <r_lp_tautomer_probability>
1

> <r_epik_Ionization_Penalty>
  0.0108

> <r_epik_Ionization_Penalty_Charging>
  0.0025

> <r_epik_Ionization_Penalty_Neutral>
  0.0083

> <r_epik_State_Penalty>
 -0.0000

> <r_epik_Charging_Adjusted_Penalty>
0.0025426613454744

> <i_epik_Tot_Q>
-1

> <i_epik_Tot_abs_Q>
3

$$$$
