4myq_ligand
                    3D
 Schrodinger Suite 2020-3.
 43 45  0  0  1  0            999 V2000
  -17.7070   32.6790   -7.6990 C   0  0  0  0  0  0
  -16.9960   30.5010   -7.3390 C   0  0  0  0  0  0
  -15.7960   31.0330   -6.8280 C   0  0  0  0  0  0
  -19.8550   35.5620   -8.9820 C   0  0  0  0  0  0
  -15.3430   38.8990   -3.7860 O   0  5  0  0  0  0
  -14.7370   39.1950   -4.8370 C   0  0  0  0  0  0
  -15.0800   40.1180   -5.5630 O   0  0  0  0  0  0
  -13.4800   38.4800   -5.2500 C   0  0  0  0  0  0
  -13.7920   37.0090   -5.5720 C   0  0  0  0  0  0
  -14.5480   36.6580   -6.7060 C   0  0  0  0  0  0
  -14.7710   35.2800   -7.0210 C   0  0  0  0  0  0
  -13.2520   36.0210   -4.7830 C   0  0  0  0  0  0
  -13.4460   34.6950   -5.0770 C   0  0  0  0  0  0
  -14.2120   34.2950   -6.1650 C   0  0  0  0  0  0
  -14.4410   32.9480   -6.3630 N   0  0  0  0  0  0
  -15.5980   32.4320   -6.8220 C   0  0  0  0  0  0
  -14.7000   30.1180   -6.3430 C   0  0  0  0  0  0
  -13.6440   29.9980   -7.4360 C   0  0  0  0  0  0
  -17.2150   28.9930   -7.4070 C   0  0  0  0  0  0
  -17.9370   31.3340   -7.7830 N   0  0  0  0  0  0
  -16.5420   33.1910   -7.2460 N   0  0  0  0  0  0
  -18.6340   33.6030   -8.2230 C   0  0  0  0  0  0
  -19.8080   33.2590   -8.8600 C   0  0  0  0  0  0
  -20.5170   34.4050   -9.2950 C   0  0  0  0  0  0
  -18.4040   35.2560   -8.1820 S   0  0  0  0  0  0
  -20.4560   37.2330   -9.3890 Cl  0  0  0  0  0  0
  -13.0594   38.9643   -6.1436 H   0  0  0  0  0  0
  -12.7475   38.5232   -4.4305 H   0  0  0  0  0  0
  -14.9642   37.4367   -7.3451 H   0  0  0  0  0  0
  -15.3551   34.9940   -7.8957 H   0  0  0  0  0  0
  -12.6602   36.2956   -3.9098 H   0  0  0  0  0  0
  -12.9881   33.9369   -4.4416 H   0  0  0  0  0  0
  -13.6491   32.2172   -6.1421 H   0  0  0  0  0  0
  -14.2486   30.5375   -5.4318 H   0  0  0  0  0  0
  -15.1216   29.1267   -6.1204 H   0  0  0  0  0  0
  -12.8374   29.3324   -7.0950 H   0  0  0  0  0  0
  -13.2298   30.9929   -7.6565 H   0  0  0  0  0  0
  -14.1029   29.5821   -8.3451 H   0  0  0  0  0  0
  -16.3349   28.4758   -6.9972 H   0  0  0  0  0  0
  -17.3632   28.6909   -8.4543 H   0  0  0  0  0  0
  -18.1049   28.7248   -6.8186 H   0  0  0  0  0  0
  -20.1473   32.2340   -9.0097 H   0  0  0  0  0  0
  -21.4738   34.3703   -9.8159 H   0  0  0  0  0  0
  1 20  2  0  0  0
  1 21  1  0  0  0
  1 22  1  0  0  0
  2  3  2  0  0  0
  2 19  1  0  0  0
  2 20  1  0  0  0
  3 16  1  0  0  0
  3 17  1  0  0  0
  4 24  2  0  0  0
  4 25  1  0  0  0
  4 26  1  0  0  0
  5  6  1  0  0  0
  6  7  2  0  0  0
  6  8  1  0  0  0
  8  9  1  0  0  0
  8 27  1  0  0  0
  8 28  1  0  0  0
  9 10  2  0  0  0
  9 12  1  0  0  0
 10 11  1  0  0  0
 10 29  1  0  0  0
 11 14  2  0  0  0
 11 30  1  0  0  0
 12 13  2  0  0  0
 12 31  1  0  0  0
 13 14  1  0  0  0
 13 32  1  0  0  0
 14 15  1  0  0  0
 15 16  1  0  0  0
 15 33  1  0  0  0
 16 21  2  0  0  0
 17 18  1  0  0  0
 17 34  1  0  0  0
 17 35  1  0  0  0
 18 36  1  0  0  0
 18 37  1  0  0  0
 18 38  1  0  0  0
 19 39  1  0  0  0
 19 40  1  0  0  0
 19 41  1  0  0  0
 22 23  2  0  0  0
 22 25  1  0  0  0
 23 24  1  0  0  0
 23 42  1  0  0  0
 24 43  1  0  0  0
M  CHG  1   5  -1
M  END
> <s_m_source_file>
../4myq_ligand.sdf

> <i_m_source_file_index>
1

> <s_epik_input>
Q2xjMVtjSF1bY0hdYyhzMSktYzJuYyhbQ0gzXSljKFtDSDJdW0NIM10pYyhuMilbTkhdYyhbY0hdW2NIXTMpW2NIXVtjSF1jM1tDSDJdQyg9TylbT0hd

> <s_epik_cmdline>
J2VwaWtfYXBwJywgJy1pbWFlJywgJ2xpZ2FuZF9wcm8ubWFlJywgJy1vbWFlJywgJ2xpZ2FuZF9wcmVwLm1hZScsICctbXMnLCAnMScsICctcGgnLCAnNycsICctcGh0JywgJzAuNScsICctbnQn

> <r_lp_tautomer_probability>
1

> <r_epik_Ionization_Penalty>
  0.0020

> <r_epik_Ionization_Penalty_Charging>
  0.0020

> <r_epik_Ionization_Penalty_Neutral>
  0.0001

> <r_epik_State_Penalty>
 -0.0000

> <r_epik_Charging_Adjusted_Penalty>
0.00196091624271598

> <i_epik_Tot_Q>
-1

> <i_epik_Tot_abs_Q>
1

$$$$
