4mz5_ligand
                    3D
 Schrodinger Suite 2020-3.
133134  0  0  1  0            999 V2000
   43.6090   48.2190   42.2390 N   0  3  0  0  0  0
   44.7020   49.0620   42.7280 C   0  0  2  0  0  0
   45.3130   49.9830   41.6550 C   0  0  0  0  0  0
   45.3110   51.2030   41.8300 O   0  0  0  0  0  0
   45.7840   48.2230   43.4330 C   0  0  0  0  0  0
   46.7140   49.0410   44.1280 O   0  0  0  0  0  0
   45.8260   49.4170   40.5400 N   0  0  0  0  0  0
   46.4980   50.3050   39.5810 C   0  0  2  0  0  0
   45.4990   51.1860   38.8400 C   0  0  0  0  0  0
   45.8710   52.2280   38.2990 O   0  0  0  0  0  0
   47.1520   49.3310   38.5870 C   0  0  0  0  0  0
   46.9960   47.9600   39.1830 C   0  0  0  0  0  0
   45.7760   48.0330   40.0380 C   0  0  0  0  0  0
   44.2420   50.7580   38.8210 N   0  0  0  0  0  0
   43.1940   51.4860   38.1230 C   0  0  2  0  0  0
   42.4720   52.5090   39.0070 C   0  0  0  0  0  0
   41.5470   53.1720   38.5440 O   0  0  0  0  0  0
   42.1980   50.5010   37.5240 C   0  0  0  0  0  0
   41.9890   49.4210   38.4130 O   0  0  0  0  0  0
   42.8880   52.6380   40.2690 N   0  0  0  0  0  0
   42.3910   53.7220   41.1230 C   0  0  2  0  0  0
   42.8810   55.0300   40.5230 C   0  0  0  0  0  0
   44.0390   55.1210   40.1120 O   0  0  0  0  0  0
   42.9410   53.6070   42.5500 C   0  0  0  0  0  0
   42.5910   52.3300   43.2980 C   0  0  0  0  0  0
   41.1500   52.3260   43.8050 C   0  0  0  0  0  0
   40.9780   51.2510   44.8750 C   0  0  0  0  0  0
   39.6310   51.2920   45.4870 N   0  3  0  0  0  0
   42.0130   56.0360   40.4550 N   0  0  0  0  0  0
   42.4210   57.3520   39.9620 C   0  0  2  0  0  0
   42.2880   58.4250   41.0390 C   0  0  0  0  0  0
   41.4400   58.3260   41.9290 O   0  0  0  0  0  0
   41.5790   57.7710   38.7530 C   0  0  0  0  0  0
   41.7710   56.9400   37.4890 C   0  0  0  0  0  0
   40.8270   57.4430   36.4130 C   0  0  0  0  0  0
   39.5090   57.6660   36.9920 N   0  0  0  0  0  0
   38.8200   58.8010   36.9170 C   0  0  0  0  0  0
   39.2970   59.8460   36.2560 N   0  0  0  0  0  0
   37.6360   58.8790   37.5000 N   0  3  0  0  0  0
   43.1160   59.4600   40.9470 N   0  0  0  0  0  0
   42.9510   60.6350   41.8010 C   0  0  2  0  0  0
   41.8290   61.5380   41.2900 C   0  0  0  0  0  0
   41.4650   61.4990   40.1090 O   0  0  0  0  0  0
   44.2350   61.4110   41.8910 C   0  0  0  0  0  0
   41.2770   62.3380   42.1970 N   0  0  0  0  0  0
   40.3080   63.3670   41.8530 C   0  0  2  0  0  0
   40.9480   64.2860   40.8180 C   0  0  0  0  0  0
   42.1030   64.6830   40.9750 O   0  0  0  0  0  0
   39.9380   64.1540   43.1200 C   0  0  0  0  0  0
   38.7930   65.1370   42.9780 C   0  0  0  0  0  0
   38.5360   65.8760   44.3010 C   0  0  0  0  0  0
   37.8210   65.0580   45.2900 N   0  0  0  0  0  0
   38.3780   64.5190   46.3750 C   0  0  0  0  0  0
   39.6700   64.7060   46.6320 N   0  0  0  0  0  0
   37.6400   63.7970   47.2110 N   0  3  0  0  0  0
   40.2210   64.5940   39.7330 N   0  0  0  0  0  0
   40.7730   65.4890   38.7120 C   0  0  2  0  0  0
   40.3390   66.9350   38.9450 C   0  0  0  0  0  0
   41.1402   67.8741   38.6926 O   0  0  0  0  0  0
   40.1480   64.9540   37.4240 C   0  0  0  0  0  0
   38.7940   64.4740   37.8660 C   0  0  0  0  0  0
   38.9490   63.9850   39.2990 C   0  0  0  0  0  0
   39.1864   67.1871   39.3872 O   0  5  0  0  0  0
   42.8553   48.8475   41.7421 H   0  0  0  0  0  0
   43.1459   47.6914   43.0858 H   0  0  0  0  0  0
   44.0048   47.4849   41.5218 H   0  0  0  0  0  0
   44.1918   49.7091   43.4567 H   0  0  0  0  0  0
   45.3086   47.5465   44.1585 H   0  0  0  0  0  0
   46.3340   47.6317   42.6861 H   0  0  0  0  0  0
   47.5460   48.5803   44.6808 H   0  0  0  0  0  0
   47.1919   50.9744   40.1105 H   0  0  0  0  0  0
   46.6416   49.4013   37.6151 H   0  0  0  0  0  0
   48.2136   49.5912   38.4633 H   0  0  0  0  0  0
   46.8777   47.2210   38.3768 H   0  0  0  0  0  0
   47.8886   47.7147   39.7771 H   0  0  0  0  0  0
   45.8054   47.3339   40.8867 H   0  0  0  0  0  0
   44.8458   47.8821   39.4707 H   0  0  0  0  0  0
   44.0031   49.8252   39.3528 H   0  0  0  0  0  0
   43.7299   52.0379   37.3367 H   0  0  0  0  0  0
   41.2403   51.0115   37.3443 H   0  0  0  0  0  0
   42.5917   50.1145   36.5723 H   0  0  0  0  0  0
   41.2961   48.6111   38.1412 H   0  0  0  0  0  0
   43.6155   51.9147   40.6659 H   0  0  0  0  0  0
   41.2939   53.6442   41.1423 H   0  0  0  0  0  0
   44.0397   53.6547   42.5244 H   0  0  0  0  0  0
   42.5521   54.4351   43.1607 H   0  0  0  0  0  0
   42.7170   51.4665   42.6283 H   0  0  0  0  0  0
   43.2563   52.2200   44.1671 H   0  0  0  0  0  0
   40.9105   53.3090   44.2368 H   0  0  0  0  0  0
   40.4674   52.1170   42.9681 H   0  0  0  0  0  0
   41.1211   50.2582   44.4236 H   0  0  0  0  0  0
   41.7225   51.4029   45.6704 H   0  0  0  0  0  0
   39.5507   50.5035   46.2497 H   0  0  0  0  0  0
   38.8700   51.1291   44.7096 H   0  0  0  0  0  0
   39.4713   52.2739   45.9564 H   0  0  0  0  0  0
   40.9747   55.8667   40.7765 H   0  0  0  0  0  0
   43.4774   57.2176   39.6863 H   0  0  0  0  0  0
   40.5112   57.7001   39.0076 H   0  0  0  0  0  0
   41.8224   58.8080   38.4783 H   0  0  0  0  0  0
   42.8105   57.0352   37.1420 H   0  0  0  0  0  0
   41.5526   55.8843   37.7075 H   0  0  0  0  0  0
   41.2116   58.3872   36.0000 H   0  0  0  0  0  0
   40.7539   56.6945   35.6102 H   0  0  0  0  0  0
   39.0068   56.8578   37.5439 H   0  0  0  0  0  0
   40.2816   59.7862   35.7692 H   0  0  0  0  0  0
   38.7083   60.7732   36.1942 H   0  0  0  0  0  0
   37.2356   58.0145   38.0498 H   0  0  0  0  0  0
   43.9355   59.4235   40.2141 H   0  0  0  0  0  0
   42.6958   60.2417   42.7961 H   0  0  0  0  0  0
   45.0359   60.7531   42.2594 H   0  0  0  0  0  0
   44.1055   62.2549   42.5846 H   0  0  0  0  0  0
   44.5032   61.7929   40.8949 H   0  0  0  0  0  0
   41.5812   62.1972   43.2447 H   0  0  0  0  0  0
   39.4142   62.8786   41.4375 H   0  0  0  0  0  0
   39.6428   63.4525   43.9142 H   0  0  0  0  0  0
   40.8063   64.7412   43.4536 H   0  0  0  0  0  0
   39.0391   65.8769   42.2021 H   0  0  0  0  0  0
   37.8788   64.5962   42.6921 H   0  0  0  0  0  0
   39.4963   66.1736   44.7473 H   0  0  0  0  0  0
   37.9278   66.7721   44.1083 H   0  0  0  0  0  0
   36.7480   64.8527   45.1615 H   0  0  0  0  0  0
   40.2869   65.3028   45.9440 H   0  0  0  0  0  0
   40.1213   64.2639   47.5325 H   0  0  0  0  0  0
   36.5712   63.6384   47.0046 H   0  0  0  0  0  0
   41.8727   65.4781   38.7352 H   0  0  0  0  0  0
   40.0841   65.7647   36.6832 H   0  0  0  0  0  0
   40.7713   64.1405   37.0244 H   0  0  0  0  0  0
   38.0749   65.3046   37.8118 H   0  0  0  0  0  0
   38.4615   63.6576   37.2080 H   0  0  0  0  0  0
   39.0266   62.8896   39.3621 H   0  0  0  0  0  0
   38.1345   64.3331   39.9512 H   0  0  0  0  0  0
   37.0512   59.8084   37.4353 H   0  0  0  0  0  0
   38.0977   63.3577   48.1096 H   0  0  0  0  0  0
  1  2  1  0  0  0
  1 64  1  0  0  0
  1 65  1  0  0  0
  1 66  1  0  0  0
  2  3  1  0  0  0
  2  5  1  0  0  0
  2 67  1  0  0  0
  3  4  2  0  0  0
  3  7  1  0  0  0
  5  6  1  0  0  0
  5 68  1  0  0  0
  5 69  1  0  0  0
  6 70  1  0  0  0
  7  8  1  0  0  0
  7 13  1  0  0  0
  8  9  1  0  0  0
  8 11  1  0  0  0
  8 71  1  0  0  0
  9 10  2  0  0  0
  9 14  1  0  0  0
 11 12  1  0  0  0
 11 72  1  0  0  0
 11 73  1  0  0  0
 12 13  1  0  0  0
 12 74  1  0  0  0
 12 75  1  0  0  0
 13 76  1  0  0  0
 13 77  1  0  0  0
 14 15  1  0  0  0
 14 78  1  0  0  0
 15 16  1  0  0  0
 15 18  1  0  0  0
 15 79  1  0  0  0
 16 17  2  0  0  0
 16 20  1  0  0  0
 18 19  1  0  0  0
 18 80  1  0  0  0
 18 81  1  0  0  0
 19 82  1  0  0  0
 20 21  1  0  0  0
 20 83  1  0  0  0
 21 22  1  0  0  0
 21 24  1  0  0  0
 21 84  1  0  0  0
 22 23  2  0  0  0
 22 29  1  0  0  0
 24 25  1  0  0  0
 24 85  1  0  0  0
 24 86  1  0  0  0
 25 26  1  0  0  0
 25 87  1  0  0  0
 25 88  1  0  0  0
 26 27  1  0  0  0
 26 89  1  0  0  0
 26 90  1  0  0  0
 27 28  1  0  0  0
 27 91  1  0  0  0
 27 92  1  0  0  0
 28 93  1  0  0  0
 28 94  1  0  0  0
 28 95  1  0  0  0
 29 30  1  0  0  0
 29 96  1  0  0  0
 30 31  1  0  0  0
 30 33  1  0  0  0
 30 97  1  0  0  0
 31 32  2  0  0  0
 31 40  1  0  0  0
 33 34  1  0  0  0
 33 98  1  0  0  0
 33 99  1  0  0  0
 34 35  1  0  0  0
 34100  1  0  0  0
 34101  1  0  0  0
 35 36  1  0  0  0
 35102  1  0  0  0
 35103  1  0  0  0
 36 37  1  0  0  0
 36104  1  0  0  0
 37 38  1  0  0  0
 37 39  2  0  0  0
 38105  1  0  0  0
 38106  1  0  0  0
 39107  1  0  0  0
 39132  1  0  0  0
 40 41  1  0  0  0
 40108  1  0  0  0
 41 42  1  0  0  0
 41 44  1  0  0  0
 41109  1  0  0  0
 42 43  2  0  0  0
 42 45  1  0  0  0
 44110  1  0  0  0
 44111  1  0  0  0
 44112  1  0  0  0
 45 46  1  0  0  0
 45113  1  0  0  0
 46 47  1  0  0  0
 46 49  1  0  0  0
 46114  1  0  0  0
 47 48  2  0  0  0
 47 56  1  0  0  0
 49 50  1  0  0  0
 49115  1  0  0  0
 49116  1  0  0  0
 50 51  1  0  0  0
 50117  1  0  0  0
 50118  1  0  0  0
 51 52  1  0  0  0
 51119  1  0  0  0
 51120  1  0  0  0
 52 53  1  0  0  0
 52121  1  0  0  0
 53 54  1  0  0  0
 53 55  2  0  0  0
 54122  1  0  0  0
 54123  1  0  0  0
 55124  1  0  0  0
 55133  1  0  0  0
 56 57  1  0  0  0
 56 62  1  0  0  0
 57 58  1  0  0  0
 57 60  1  0  0  0
 57125  1  0  0  0
 58 59  2  0  0  0
 58 63  1  0  0  0
 60 61  1  0  0  0
 60126  1  0  0  0
 60127  1  0  0  0
 61 62  1  0  0  0
 61128  1  0  0  0
 61129  1  0  0  0
 62130  1  0  0  0
 62131  1  0  0  0
M  CHG  5   1   1  28   1  39   1  55   1  63  -1
M  END
> <s_m_source_file>
../4mz5_ligand.sdf

> <i_m_source_file_index>
1

> <s_epik_input>
W09IXVtDSDJdW0NASF0oW05IMytdKUMoPU8pTjFbQ0BASF0oW0NIMl1bQ0gyXVtDSDJdMSlDKD1PKVtOSF1bQ0BASF0oW0NIMl1bT0hdKUMoPU8pW05IXVtDQEBIXShbQ0gyXVtDSDJdW0NIMl1bQ0gyXVtOSDMrXSlDKD1PKVtOSF1bQ0BASF0oW0NIMl1bQ0gyXVtDSDJdW05IXS9DKFtOSDJdKT1OXFtIXSlDKD1PKVtOSF1bQ0BASF0oW0NIM10pQyg9TylbTkhdW0NASF0oQyg9TylOMltDQEhdKEMoPU8pW09IXSlbQ0gyXVtDSDJdW0NIMl0yKVtDSDJdW0NIMl1bQ0gyXVtOSF0vQyhbTkgyXSk9TlxbSF0=

> <s_epik_cmdline>
J2VwaWtfYXBwJywgJy1pbWFlJywgJ2xpZ2FuZF9wcm8ubWFlJywgJy1vbWFlJywgJ2xpZ2FuZF9wcmVwLm1hZScsICctbXMnLCAnMScsICctcGgnLCAnNycsICctcGh0JywgJzAuNScsICctbnQn

> <r_epik_Ionization_Penalty>
  0.1421

> <r_epik_Ionization_Penalty_Charging>
  0.1421

> <r_epik_Ionization_Penalty_Neutral>
  0.0000

> <r_epik_State_Penalty>
  0.1306

> <r_epik_Charging_Adjusted_Penalty>
0.272684730391049

> <i_epik_Tot_Q>
3

> <i_epik_Tot_abs_Q>
5

> <s_epik_Chemistry_Notes>
This compound has an imine and may undergo hydrolysis.

$$$$
