4mz6_ligand
                    3D
 Schrodinger Suite 2020-3.
118118  0  0  1  0            999 V2000
   44.2860   50.7900   39.1840 N   0  3  0  0  0  0
   43.4490   51.6370   38.3230 C   0  0  2  0  0  0
   42.5640   52.6280   39.0870 C   0  0  0  0  0  0
   41.6250   53.2060   38.5080 O   0  0  0  0  0  0
   42.5970   50.7830   37.3890 C   0  0  0  0  0  0
   42.1080   49.6490   38.0740 O   0  0  0  0  0  0
   42.8710   52.8390   40.3690 N   0  0  0  0  0  0
   42.2530   53.9360   41.1260 C   0  0  2  0  0  0
   42.7480   55.2530   40.5170 C   0  0  0  0  0  0
   43.9010   55.3240   40.0840 O   0  0  0  0  0  0
   42.6570   53.8850   42.6100 C   0  0  0  0  0  0
   42.4170   52.5470   43.3310 C   0  0  0  0  0  0
   40.9590   52.3510   43.7180 C   0  0  0  0  0  0
   40.8010   51.2520   44.7710 C   0  0  0  0  0  0
   39.4550   51.3710   45.4760 N   0  3  0  0  0  0
   41.9000   56.2830   40.4780 N   0  0  0  0  0  0
   42.2740   57.5800   39.8950 C   0  0  2  0  0  0
   42.1540   58.7110   40.9170 C   0  0  0  0  0  0
   41.1950   58.7390   41.7020 O   0  0  0  0  0  0
   41.3720   57.9090   38.6840 C   0  0  0  0  0  0
   41.4540   56.9190   37.5020 C   0  0  0  0  0  0
   40.2420   57.0170   36.5740 C   0  0  0  0  0  0
   39.8980   58.4010   36.2570 N   0  0  0  0  0  0
   38.8350   59.0500   36.7180 C   0  0  0  0  0  0
   37.9600   58.4520   37.5180 N   0  0  0  0  0  0
   38.6370   60.3080   36.3640 N   0  3  0  0  0  0
   43.0980   59.6570   40.8970 N   0  0  0  0  0  0
   42.9580   60.8800   41.6780 C   0  0  2  0  0  0
   41.7010   61.6360   41.2280 C   0  0  0  0  0  0
   41.2210   61.4740   40.0990 O   0  0  0  0  0  0
   44.1820   61.7720   41.5200 C   0  0  0  0  0  0
   41.1670   62.4530   42.1260 N   0  0  0  0  0  0
   40.0710   63.3530   41.8200 C   0  0  2  0  0  0
   40.5140   64.2780   40.6820 C   0  0  0  0  0  0
   41.6700   64.7040   40.6370 O   0  0  0  0  0  0
   39.7360   64.1420   43.0980 C   0  0  0  0  0  0
   38.6550   65.1800   42.9920 C   0  0  0  0  0  0
   38.4800   65.9140   44.3530 C   0  0  0  0  0  0
   37.7420   65.1170   45.3530 N   0  0  0  0  0  0
   38.2970   64.4800   46.3920 C   0  0  0  0  0  0
   39.6250   64.5250   46.6160 N   0  0  0  0  0  0
   37.5110   63.8070   47.2250 N   0  3  0  0  0  0
   39.6080   64.5470   39.7310 N   0  0  0  0  0  0
   39.8010   65.4920   38.6130 C   0  0  2  0  0  0
   39.9130   66.9540   39.0570 C   0  0  0  0  0  0
   39.2540   67.3430   40.0300 O   0  0  0  0  0  0
   38.5290   65.3030   37.7810 C   0  0  0  0  0  0
   38.1380   63.8750   38.0700 C   0  0  0  0  0  0
   38.4170   63.7050   39.5360 C   0  0  0  0  0  0
   40.7140   67.7360   38.3250 N   0  0  0  0  0  0
   41.0990   69.1100   38.6980 C   0  0  2  0  0  0
   39.9880   70.0380   39.2000 C   0  0  0  0  0  0
   40.2741   71.0677   39.8675 O   0  5  0  0  0  0
   41.8550   69.7700   37.5480 C   0  0  0  0  0  0
   38.7836   69.7705   38.9443 O   0  0  0  0  0  0
   44.8904   51.4258   39.8476 H   0  0  0  0  0  0
   44.9509   50.1757   38.5591 H   0  0  0  0  0  0
   43.6431   50.1345   39.7898 H   0  0  0  0  0  0
   44.1886   52.2205   37.7551 H   0  0  0  0  0  0
   41.7464   51.3768   37.0232 H   0  0  0  0  0  0
   43.2073   50.4523   36.5357 H   0  0  0  0  0  0
   41.4722   48.9210   37.5489 H   0  0  0  0  0  0
   43.5996   52.1755   40.8579 H   0  0  0  0  0  0
   41.1630   53.8146   41.0412 H   0  0  0  0  0  0
   43.7330   54.0930   42.7044 H   0  0  0  0  0  0
   42.0870   54.6399   43.1714 H   0  0  0  0  0  0
   42.7078   51.7171   42.6702 H   0  0  0  0  0  0
   43.0202   52.5124   44.2502 H   0  0  0  0  0  0
   40.5601   53.2891   44.1314 H   0  0  0  0  0  0
   40.3785   52.0664   42.8281 H   0  0  0  0  0  0
   40.8619   50.2671   44.2850 H   0  0  0  0  0  0
   41.6030   51.3423   45.5184 H   0  0  0  0  0  0
   39.3628   50.5728   46.2273 H   0  0  0  0  0  0
   38.6449   51.2754   44.7381 H   0  0  0  0  0  0
   39.3860   52.3507   45.9715 H   0  0  0  0  0  0
   40.8943   56.1391   40.8997 H   0  0  0  0  0  0
   43.3260   57.4572   39.5981 H   0  0  0  0  0  0
   40.3195   57.9222   39.0036 H   0  0  0  0  0  0
   41.6451   58.8952   38.2806 H   0  0  0  0  0  0
   42.3549   57.1315   36.9076 H   0  0  0  0  0  0
   41.5037   55.8902   37.8881 H   0  0  0  0  0  0
   40.4595   56.4950   35.6305 H   0  0  0  0  0  0
   39.3709   56.5515   37.0582 H   0  0  0  0  0  0
   40.5433   58.9886   35.5874 H   0  0  0  0  0  0
   38.1155   57.4053   37.8186 H   0  0  0  0  0  0
   37.0797   59.0033   37.8801 H   0  0  0  0  0  0
   39.3558   60.8126   35.7017 H   0  0  0  0  0  0
   43.9927   59.4999   40.2767 H   0  0  0  0  0  0
   42.8772   60.5590   42.7270 H   0  0  0  0  0  0
   45.0792   61.2243   41.8442 H   0  0  0  0  0  0
   44.0603   62.6743   42.1373 H   0  0  0  0  0  0
   44.2907   62.0618   40.4644 H   0  0  0  0  0  0
   41.5915   62.4283   43.1405 H   0  0  0  0  0  0
   39.1998   62.7640   41.4973 H   0  0  0  0  0  0
   39.4030   63.4459   43.8819 H   0  0  0  0  0  0
   40.6315   64.6803   43.4419 H   0  0  0  0  0  0
   38.9262   65.9142   42.2191 H   0  0  0  0  0  0
   37.7061   64.6947   42.7199 H   0  0  0  0  0  0
   39.4693   66.1436   44.7756 H   0  0  0  0  0  0
   37.9223   66.8491   44.1963 H   0  0  0  0  0  0
   36.6497   65.0125   45.2756 H   0  0  0  0  0  0
   40.2801   65.0810   45.9291 H   0  0  0  0  0  0
   40.0540   64.0058   47.4857 H   0  0  0  0  0  0
   36.4263   63.7673   47.0465 H   0  0  0  0  0  0
   40.7478   65.2625   38.1022 H   0  0  0  0  0  0
   37.7656   66.0236   38.1095 H   0  0  0  0  0  0
   38.7578   65.4703   36.7181 H   0  0  0  0  0  0
   37.0734   63.7313   37.8334 H   0  0  0  0  0  0
   38.7455   63.1965   37.4532 H   0  0  0  0  0  0
   38.6539   62.6660   39.8085 H   0  0  0  0  0  0
   37.5991   64.0736   40.1725 H   0  0  0  0  0  0
   41.0913   67.2934   37.3913 H   0  0  0  0  0  0
   41.7354   68.9260   39.5761 H   0  0  0  0  0  0
   42.6493   69.0952   37.1962 H   0  0  0  0  0  0
   42.3023   70.7126   37.8964 H   0  0  0  0  0  0
   41.1582   69.9778   36.7226 H   0  0  0  0  0  0
   37.9448   63.2894   48.0933 H   0  0  0  0  0  0
   37.7534   60.8503   36.7317 H   0  0  0  0  0  0
  1  2  1  0  0  0
  1 56  1  0  0  0
  1 57  1  0  0  0
  1 58  1  0  0  0
  2  3  1  0  0  0
  2  5  1  0  0  0
  2 59  1  0  0  0
  3  4  2  0  0  0
  3  7  1  0  0  0
  5  6  1  0  0  0
  5 60  1  0  0  0
  5 61  1  0  0  0
  6 62  1  0  0  0
  7  8  1  0  0  0
  7 63  1  0  0  0
  8  9  1  0  0  0
  8 11  1  0  0  0
  8 64  1  0  0  0
  9 10  2  0  0  0
  9 16  1  0  0  0
 11 12  1  0  0  0
 11 65  1  0  0  0
 11 66  1  0  0  0
 12 13  1  0  0  0
 12 67  1  0  0  0
 12 68  1  0  0  0
 13 14  1  0  0  0
 13 69  1  0  0  0
 13 70  1  0  0  0
 14 15  1  0  0  0
 14 71  1  0  0  0
 14 72  1  0  0  0
 15 73  1  0  0  0
 15 74  1  0  0  0
 15 75  1  0  0  0
 16 17  1  0  0  0
 16 76  1  0  0  0
 17 18  1  0  0  0
 17 20  1  0  0  0
 17 77  1  0  0  0
 18 19  2  0  0  0
 18 27  1  0  0  0
 20 21  1  0  0  0
 20 78  1  0  0  0
 20 79  1  0  0  0
 21 22  1  0  0  0
 21 80  1  0  0  0
 21 81  1  0  0  0
 22 23  1  0  0  0
 22 82  1  0  0  0
 22 83  1  0  0  0
 23 24  1  0  0  0
 23 84  1  0  0  0
 24 25  1  0  0  0
 24 26  2  0  0  0
 25 85  1  0  0  0
 25 86  1  0  0  0
 26 87  1  0  0  0
 26118  1  0  0  0
 27 28  1  0  0  0
 27 88  1  0  0  0
 28 29  1  0  0  0
 28 31  1  0  0  0
 28 89  1  0  0  0
 29 30  2  0  0  0
 29 32  1  0  0  0
 31 90  1  0  0  0
 31 91  1  0  0  0
 31 92  1  0  0  0
 32 33  1  0  0  0
 32 93  1  0  0  0
 33 34  1  0  0  0
 33 36  1  0  0  0
 33 94  1  0  0  0
 34 35  2  0  0  0
 34 43  1  0  0  0
 36 37  1  0  0  0
 36 95  1  0  0  0
 36 96  1  0  0  0
 37 38  1  0  0  0
 37 97  1  0  0  0
 37 98  1  0  0  0
 38 39  1  0  0  0
 38 99  1  0  0  0
 38100  1  0  0  0
 39 40  1  0  0  0
 39101  1  0  0  0
 40 41  1  0  0  0
 40 42  2  0  0  0
 41102  1  0  0  0
 41103  1  0  0  0
 42104  1  0  0  0
 42117  1  0  0  0
 43 44  1  0  0  0
 43 49  1  0  0  0
 44 45  1  0  0  0
 44 47  1  0  0  0
 44105  1  0  0  0
 45 46  2  0  0  0
 45 50  1  0  0  0
 47 48  1  0  0  0
 47106  1  0  0  0
 47107  1  0  0  0
 48 49  1  0  0  0
 48108  1  0  0  0
 48109  1  0  0  0
 49110  1  0  0  0
 49111  1  0  0  0
 50 51  1  0  0  0
 50112  1  0  0  0
 51 52  1  0  0  0
 51 54  1  0  0  0
 51113  1  0  0  0
 52 53  1  0  0  0
 52 55  2  0  0  0
 54114  1  0  0  0
 54115  1  0  0  0
 54116  1  0  0  0
M  CHG  5   1   1  15   1  26   1  42   1  53  -1
M  END
> <s_m_source_file>
../4mz6_ligand.sdf

> <i_m_source_file_index>
1

> <s_epik_input>
W09IXVtDSDJdW0NASF0oW05IMytdKUMoPU8pW05IXVtDQEBIXShbQ0gyXVtDSDJdW0NIMl1bQ0gyXVtOSDMrXSlDKD1PKVtOSF1bQ0BASF0oW0NIMl1bQ0gyXVtDSDJdW05IXS9DKFtOSDJdKT1OXFtIXSlDKD1PKVtOSF1bQ0BASF0oW0NIM10pQyg9TylbTkhdW0NAQEhdKFtDSDJdW0NIMl1bQ0gyXVtOSF0vQyhbTkgyXSk9TlxbSF0pQyg9TylOMVtDQEBIXShbQ0gyXVtDSDJdW0NIMl0xKUMoPU8pW05IXVtDQEBIXShbQ0gzXSlDKD1PKVtPSF0=

> <s_epik_cmdline>
J2VwaWtfYXBwJywgJy1pbWFlJywgJ2xpZ2FuZF9wcm8ubWFlJywgJy1vbWFlJywgJ2xpZ2FuZF9wcmVwLm1hZScsICctbXMnLCAnMScsICctcGgnLCAnNycsICctcGh0JywgJzAuNScsICctbnQn

> <r_epik_Ionization_Penalty>
  0.1505

> <r_epik_Ionization_Penalty_Charging>
  0.1505

> <r_epik_Ionization_Penalty_Neutral>
  0.0000

> <r_epik_State_Penalty>
  0.1391

> <r_epik_Charging_Adjusted_Penalty>
0.289590792740229

> <i_epik_Tot_Q>
3

> <i_epik_Tot_abs_Q>
5

> <s_epik_Chemistry_Notes>
This compound has an imine and may undergo hydrolysis.

$$$$
