4mzf_ligand
                    3D
 Schrodinger Suite 2020-3.
174173  0  0  1  0            999 V2000
   -6.4870    9.5990    6.4110 N   0  3  0  0  0  0
   -6.9500    9.2950    5.0640 C   0  0  2  0  0  0
   -8.4200    8.8570    5.0800 C   0  0  0  0  0  0
   -8.9280    8.4000    6.1120 O   0  0  0  0  0  0
   -6.0810    8.2150    4.4470 C   0  0  0  0  0  0
   -9.0920    9.0090    3.9370 N   0  0  0  0  0  0
  -10.4690    8.5420    3.7740 C   0  0  2  0  0  0
  -10.5750    7.0530    4.0190 C   0  0  0  0  0  0
   -9.6170    6.3110    3.8130 O   0  0  0  0  0  0
  -10.9670    8.7920    2.3510 C   0  0  0  0  0  0
  -11.2050   10.2260    2.0140 C   0  0  0  0  0  0
  -11.5400   10.3770    0.5450 C   0  0  0  0  0  0
  -11.3080   11.7520    0.1100 N   0  0  0  0  0  0
  -12.1390   12.7570    0.3560 C   0  0  0  0  0  0
  -13.2620   12.5260    1.0280 N   0  0  0  0  0  0
  -11.8610   13.9870   -0.0780 N   0  0  0  0  0  0
  -11.7630    6.6200    4.4220 N   0  0  0  0  0  0
  -12.0620    5.2060    4.5200 C   0  0  2  0  0  0
  -13.0050    4.8070    3.3880 C   0  0  0  0  0  0
  -13.9020    5.5600    2.9990 O   0  0  0  0  0  0
  -12.6880    4.8620    5.8800 C   0  0  2  0  0  0
  -11.8760    5.4120    6.9290 O   0  0  0  0  0  0
  -12.7980    3.3410    6.0590 C   0  0  0  0  0  0
  -12.7690    3.6270    2.8430 N   0  0  0  0  0  0
  -13.5820    3.0980    1.7930 C   0  0  1  0  0  0
  -12.8800    1.8750    1.1980 C   0  0  0  0  0  0
  -13.1060    1.8140   -0.2840 C   0  0  0  0  0  0
  -12.1540    2.6980   -1.0670 C   0  0  0  0  0  0
  -12.3210    2.1690   -2.4850 C   0  0  0  0  0  0
  -12.2010    3.0670   -3.6890 N   0  3  0  0  0  0
  -14.9600    2.6810    2.3060 C   0  0  0  0  0  0
  -15.1240    2.0500    3.3520 O   0  0  0  0  0  0
  -13.0150    4.3230   -3.5610 C   0  0  0  0  0  0
  -12.6540    2.2980   -4.8840 C   0  0  0  0  0  0
  -10.7600    3.4240   -3.8420 C   0  0  0  0  0  0
  -15.9830    3.0600    1.5450 N   0  0  0  0  0  0
  -17.3760    2.7860    1.9260 C   0  0  2  0  0  0
  -17.8900    1.4530    1.4390 C   0  0  0  0  0  0
  -17.5170    0.9910    0.3660 O   0  0  0  0  0  0
  -18.3180    3.8310    1.3270 C   0  0  0  0  0  0
  -18.2530    5.1940    1.9410 C   0  0  0  0  0  0
  -19.3230    6.0890    1.3650 C   0  0  0  0  0  0
  -19.9740    5.7420    0.3640 O   0  0  0  0  0  0
  -19.5110    7.2470    1.9820 N   0  0  0  0  0  0
  -18.7810    0.8580    2.2260 N   0  0  0  0  0  0
  -19.6300   -0.2040    1.7230 C   0  0  2  0  0  0
  -20.6950    0.4970    0.8930 C   0  0  0  0  0  0
  -21.1410    1.5970    1.2380 O   0  0  0  0  0  0
  -20.3260   -0.9530    2.8590 C   0  0  2  0  0  0
  -21.2090   -0.0520    3.5400 O   0  0  0  0  0  0
  -19.3070   -1.5030    3.8440 C   0  0  0  0  0  0
  -21.0860   -0.1190   -0.2100 N   0  0  0  0  0  0
  -22.0500    0.4990   -1.1060 C   0  0  2  0  0  0
  -23.0890   -0.5340   -1.5490 C   0  0  0  0  0  0
  -22.7950   -1.7280   -1.6220 O   0  0  0  0  0  0
  -21.3320    1.0910   -2.2970 C   0  0  0  0  0  0
  -28.0130    5.1090   -5.4440 C   0  0  0  0  0  0
  -30.4700    5.2920   -5.4340 C   0  0  0  0  0  0
  -24.3050   -0.0760   -1.8340 N   0  0  0  0  0  0
  -25.3770   -0.9790   -2.2230 C   0  0  1  0  0  0
  -26.7530   -0.2950   -2.2400 C   0  0  0  0  0  0
  -26.8340    0.8430   -3.2680 C   0  0  0  0  0  0
  -28.2520    1.4300   -3.3630 C   0  0  0  0  0  0
  -28.2590    2.7530   -3.9680 N   0  0  0  0  0  0
  -29.3720    3.3620   -4.3990 C   0  0  0  0  0  0
  -30.5150    2.8650   -4.1840 N   0  0  0  0  0  0
  -29.2860    4.5190   -5.0590 N   0  0  0  0  0  0
  -25.1400   -1.6140   -3.5690 C   0  0  0  0  0  0
  -24.5150   -1.0040   -4.4760 O   0  0  0  0  0  0
  -25.6350   -2.8410   -3.6830 N   0  0  0  0  0  0
  -25.7960   -3.5820   -4.9360 C   0  0  2  0  0  0
  -24.4890   -4.1030   -5.5180 C   0  0  0  0  0  0
  -24.0240   -5.1770   -5.1240 O   0  0  0  0  0  0
  -26.6170   -2.7850   -5.9570 C   0  0  0  0  0  0
  -26.3720   -3.1640   -7.4010 C   0  0  0  0  0  0
  -27.6700   -3.5690   -8.1010 C   0  0  0  0  0  0
  -27.5810   -3.3210   -9.6030 C   0  0  0  0  0  0
  -27.3710   -1.8640   -9.8660 N   0  3  0  0  0  0
  -23.8826   -3.4390   -6.4006 O   0  0  0  0  0  0
   -7.1229   10.3823    6.8492 H   0  0  0  0  0  0
   -5.4460    9.9521    6.3699 H   0  0  0  0  0  0
   -6.5424    8.6922    7.0311 H   0  0  0  0  0  0
   -6.8440   10.2278    4.4908 H   0  0  0  0  0  0
   -5.0319    8.5458    4.4439 H   0  0  0  0  0  0
   -6.4090    8.0260    3.4142 H   0  0  0  0  0  0
   -6.1721    7.2903    5.0357 H   0  0  0  0  0  0
   -8.5766    9.5043    3.1009 H   0  0  0  0  0  0
  -11.0392    9.1115    4.5227 H   0  0  0  0  0  0
  -10.2246    8.4163    1.6314 H   0  0  0  0  0  0
  -11.9223    8.2681    2.1995 H   0  0  0  0  0  0
  -12.0443   10.6090    2.6131 H   0  0  0  0  0  0
  -10.2996   10.8100    2.2359 H   0  0  0  0  0  0
  -10.9052    9.7014   -0.0471 H   0  0  0  0  0  0
  -12.5978   10.1228    0.3821 H   0  0  0  0  0  0
  -10.3999   12.0035   -0.4575 H   0  0  0  0  0  0
  -13.4902   11.5110    1.3855 H   0  0  0  0  0  0
  -10.9311   14.1769   -0.6341 H   0  0  0  0  0  0
  -12.5616   14.8116    0.1202 H   0  0  0  0  0  0
  -12.5297    7.3638    4.6848 H   0  0  0  0  0  0
  -11.0934    4.6942    4.4208 H   0  0  0  0  0  0
  -13.6787    5.3298    5.9785 H   0  0  0  0  0  0
  -11.6839    6.4945    6.9657 H   0  0  0  0  0  0
  -13.4202    2.9212    5.2548 H   0  0  0  0  0  0
  -13.2586    3.1188    7.0329 H   0  0  0  0  0  0
  -11.7941    2.8934    6.0175 H   0  0  0  0  0  0
  -11.9148    3.0471    3.2225 H   0  0  0  0  0  0
  -13.6838    3.9238    1.0735 H   0  0  0  0  0  0
  -11.7996    1.9410    1.3939 H   0  0  0  0  0  0
  -13.2812    0.9610    1.6601 H   0  0  0  0  0  0
  -12.9658    0.7806   -0.6340 H   0  0  0  0  0  0
  -14.1306    2.1427   -0.5125 H   0  0  0  0  0  0
  -12.4593    3.7495   -0.9613 H   0  0  0  0  0  0
  -11.1328    2.5718   -0.6782 H   0  0  0  0  0  0
  -11.5645    1.3944   -2.6788 H   0  0  0  0  0  0
  -13.3260    1.7367   -2.5991 H   0  0  0  0  0  0
  -14.0775    4.0614   -3.4481 H   0  0  0  0  0  0
  -12.8828    4.9391   -4.4627 H   0  0  0  0  0  0
  -12.6808    4.8882   -2.6785 H   0  0  0  0  0  0
  -13.7161    2.0355   -4.7701 H   0  0  0  0  0  0
  -12.0569    1.3788   -4.9764 H   0  0  0  0  0  0
  -12.5230    2.9126   -5.7868 H   0  0  0  0  0  0
  -10.4271    3.9910   -2.9602 H   0  0  0  0  0  0
  -10.6285    4.0390   -4.7445 H   0  0  0  0  0  0
  -10.1624    2.5051   -3.9341 H   0  0  0  0  0  0
  -15.7637    3.5922    0.6077 H   0  0  0  0  0  0
  -17.3288    2.7965    3.0249 H   0  0  0  0  0  0
  -18.0876    3.9634    0.2596 H   0  0  0  0  0  0
  -19.3589    3.4930    1.4382 H   0  0  0  0  0  0
  -18.4030    5.1141    3.0278 H   0  0  0  0  0  0
  -17.2684    5.6408    1.7386 H   0  0  0  0  0  0
  -18.9069    7.5045    2.8645 H   0  0  0  0  0  0
  -20.2712    7.9505    1.6116 H   0  0  0  0  0  0
  -18.8686    1.1828    3.2733 H   0  0  0  0  0  0
  -18.9973   -0.9074    1.1618 H   0  0  0  0  0  0
  -20.9454   -1.7719    2.4644 H   0  0  0  0  0  0
  -22.0180    0.4481    2.9873 H   0  0  0  0  0  0
  -18.6290   -2.1945    3.3223 H   0  0  0  0  0  0
  -19.8288   -2.0395    4.6501 H   0  0  0  0  0  0
  -18.7259   -0.6730    4.2722 H   0  0  0  0  0  0
  -20.6728   -1.1107   -0.4461 H   0  0  0  0  0  0
  -22.5405    1.3068   -0.5431 H   0  0  0  0  0  0
  -20.5930    1.8283   -1.9503 H   0  0  0  0  0  0
  -22.0610    1.5847   -2.9564 H   0  0  0  0  0  0
  -20.8195    0.2908   -2.8511 H   0  0  0  0  0  0
  -28.1931    6.0558   -5.9742 H   0  0  0  0  0  0
  -27.4725    4.4156   -6.1051 H   0  0  0  0  0  0
  -27.4110    5.3017   -4.5437 H   0  0  0  0  0  0
  -30.1595    6.2030   -5.9666 H   0  0  0  0  0  0
  -31.0289    5.5693   -4.5281 H   0  0  0  0  0  0
  -31.1118    4.6849   -6.0893 H   0  0  0  0  0  0
  -24.4929    1.0060   -1.7714 H   0  0  0  0  0  0
  -25.3230   -1.7470   -1.4373 H   0  0  0  0  0  0
  -27.5270   -1.0345   -2.4932 H   0  0  0  0  0  0
  -26.9632    0.1307   -1.2477 H   0  0  0  0  0  0
  -26.1459    1.6502   -2.9764 H   0  0  0  0  0  0
  -26.5520    0.4614   -4.2604 H   0  0  0  0  0  0
  -28.8817    0.7698   -3.9774 H   0  0  0  0  0  0
  -28.6828    1.5131   -2.3543 H   0  0  0  0  0  0
  -27.3164    3.3065   -4.0912 H   0  0  0  0  0  0
  -30.6074    1.9123   -3.6419 H   0  0  0  0  0  0
  -25.9362   -3.3002   -2.7299 H   0  0  0  0  0  0
  -26.3630   -4.4733   -4.6293 H   0  0  0  0  0  0
  -27.6892   -2.9392   -5.7658 H   0  0  0  0  0  0
  -26.3782   -1.7152   -5.8647 H   0  0  0  0  0  0
  -25.9400   -2.3061   -7.9370 H   0  0  0  0  0  0
  -25.6734   -4.0126   -7.4439 H   0  0  0  0  0  0
  -27.8599   -4.6390   -7.9308 H   0  0  0  0  0  0
  -28.5050   -2.9792   -7.6949 H   0  0  0  0  0  0
  -26.7369   -3.8904  -10.0192 H   0  0  0  0  0  0
  -28.5153   -3.6458  -10.0843 H   0  0  0  0  0  0
  -27.3078   -1.6926  -10.9507 H   0  0  0  0  0  0
  -26.4362   -1.5361   -9.3879 H   0  0  0  0  0  0
  -28.2146   -1.2915   -9.4529 H   0  0  0  0  0  0
  -22.9384   -3.8159   -6.8207 H   0  0  0  0  0  0
  1  2  1  0  0  0
  1 80  1  0  0  0
  1 81  1  0  0  0
  1 82  1  0  0  0
  2  3  1  0  0  0
  2  5  1  0  0  0
  2 83  1  0  0  0
  3  4  2  0  0  0
  3  6  1  0  0  0
  5 84  1  0  0  0
  5 85  1  0  0  0
  5 86  1  0  0  0
  6  7  1  0  0  0
  6 87  1  0  0  0
  7  8  1  0  0  0
  7 10  1  0  0  0
  7 88  1  0  0  0
  8  9  2  0  0  0
  8 17  1  0  0  0
 10 11  1  0  0  0
 10 89  1  0  0  0
 10 90  1  0  0  0
 11 12  1  0  0  0
 11 91  1  0  0  0
 11 92  1  0  0  0
 12 13  1  0  0  0
 12 93  1  0  0  0
 12 94  1  0  0  0
 13 14  1  0  0  0
 13 95  1  0  0  0
 14 15  2  0  0  0
 14 16  1  0  0  0
 15 96  1  0  0  0
 16 97  1  0  0  0
 16 98  1  0  0  0
 17 18  1  0  0  0
 17 99  1  0  0  0
 18 19  1  0  0  0
 18 21  1  0  0  0
 18100  1  0  0  0
 19 20  2  0  0  0
 19 24  1  0  0  0
 21 22  1  0  0  0
 21 23  1  0  0  0
 21101  1  0  0  0
 22102  1  0  0  0
 23103  1  0  0  0
 23104  1  0  0  0
 23105  1  0  0  0
 24 25  1  0  0  0
 24106  1  0  0  0
 25 26  1  0  0  0
 25 31  1  0  0  0
 25107  1  0  0  0
 26 27  1  0  0  0
 26108  1  0  0  0
 26109  1  0  0  0
 27 28  1  0  0  0
 27110  1  0  0  0
 27111  1  0  0  0
 28 29  1  0  0  0
 28112  1  0  0  0
 28113  1  0  0  0
 29 30  1  0  0  0
 29114  1  0  0  0
 29115  1  0  0  0
 30 33  1  0  0  0
 30 34  1  0  0  0
 30 35  1  0  0  0
 31 32  2  0  0  0
 31 36  1  0  0  0
 33116  1  0  0  0
 33117  1  0  0  0
 33118  1  0  0  0
 34119  1  0  0  0
 34120  1  0  0  0
 34121  1  0  0  0
 35122  1  0  0  0
 35123  1  0  0  0
 35124  1  0  0  0
 36 37  1  0  0  0
 36125  1  0  0  0
 37 38  1  0  0  0
 37 40  1  0  0  0
 37126  1  0  0  0
 38 39  2  0  0  0
 38 45  1  0  0  0
 40 41  1  0  0  0
 40127  1  0  0  0
 40128  1  0  0  0
 41 42  1  0  0  0
 41129  1  0  0  0
 41130  1  0  0  0
 42 43  2  0  0  0
 42 44  1  0  0  0
 44131  1  0  0  0
 44132  1  0  0  0
 45 46  1  0  0  0
 45133  1  0  0  0
 46 47  1  0  0  0
 46 49  1  0  0  0
 46134  1  0  0  0
 47 48  2  0  0  0
 47 52  1  0  0  0
 49 50  1  0  0  0
 49 51  1  0  0  0
 49135  1  0  0  0
 50136  1  0  0  0
 51137  1  0  0  0
 51138  1  0  0  0
 51139  1  0  0  0
 52 53  1  0  0  0
 52140  1  0  0  0
 53 54  1  0  0  0
 53 56  1  0  0  0
 53141  1  0  0  0
 54 55  2  0  0  0
 54 59  1  0  0  0
 56142  1  0  0  0
 56143  1  0  0  0
 56144  1  0  0  0
 57 67  1  0  0  0
 57145  1  0  0  0
 57146  1  0  0  0
 57147  1  0  0  0
 58 67  1  0  0  0
 58148  1  0  0  0
 58149  1  0  0  0
 58150  1  0  0  0
 59 60  1  0  0  0
 59151  1  0  0  0
 60 61  1  0  0  0
 60 68  1  0  0  0
 60152  1  0  0  0
 61 62  1  0  0  0
 61153  1  0  0  0
 61154  1  0  0  0
 62 63  1  0  0  0
 62155  1  0  0  0
 62156  1  0  0  0
 63 64  1  0  0  0
 63157  1  0  0  0
 63158  1  0  0  0
 64 65  1  0  0  0
 64159  1  0  0  0
 65 66  2  0  0  0
 65 67  1  0  0  0
 66160  1  0  0  0
 68 69  2  0  0  0
 68 70  1  0  0  0
 70 71  1  0  0  0
 70161  1  0  0  0
 71 72  1  0  0  0
 71 74  1  0  0  0
 71162  1  0  0  0
 72 73  2  0  0  0
 72 79  1  0  0  0
 74 75  1  0  0  0
 74163  1  0  0  0
 74164  1  0  0  0
 75 76  1  0  0  0
 75165  1  0  0  0
 75166  1  0  0  0
 76 77  1  0  0  0
 76167  1  0  0  0
 76168  1  0  0  0
 77 78  1  0  0  0
 77169  1  0  0  0
 77170  1  0  0  0
 78171  1  0  0  0
 78172  1  0  0  0
 78173  1  0  0  0
 79174  1  0  0  0
M  CHG  3   1   1  30   1  78   1
M  END
> <s_m_source_file>
../4mzf_ligand.sdf

> <i_m_source_file_index>
1

> <s_epik_input>
W0hdL049QyhbTkgyXSlcW05IXVtDSDJdW0NIMl1bQ0gyXVtDQEhdKFtOSF1DKD1PKVtDQEBIXShbTkgzK10pW0NIM10pQyg9TylbTkhdW0NAQEhdKFtDQEhdKFtPSF0pW0NIM10pQyg9TylbTkhdW0NAQEhdKFtDSDJdW0NIMl1bQ0gyXVtDSDJdW04rXShbQ0gzXSkoW0NIM10pW0NIM10pQyg9TylbTkhdW0NAQEhdKFtDSDJdW0NIMl1DKD1PKVtOSDJdKUMoPU8pW05IXVtDQEBIXShbQ0BIXShbT0hdKVtDSDNdKUMoPU8pW05IXVtDQEBIXShbQ0gzXSlDKD1PKVtOSF1bQ0BASF0oW0NIMl1bQ0gyXVtDSDJdW05IXS9DKD1OXFtIXSlOKFtDSDNdKVtDSDNdKUMoPU8pW05IXVtDQEhdKEMoPU8pW09IXSlbQ0gyXVtDSDJdW0NIMl1bQ0gyXVtOSDMrXQ==

> <s_epik_cmdline>
J2VwaWtfYXBwJywgJy1pbWFlJywgJ2xpZ2FuZF9wcm8ubWFlJywgJy1vbWFlJywgJ2xpZ2FuZF9wcmVwLm1hZScsICctbXMnLCAnMScsICctcGgnLCAnNycsICctcGh0JywgJzAuNScsICctbnQn

> <s_epik_pKa_notes>
Molecule size exceeds maximum supported for generating protonation states

> <s_epik_Chemistry_Notes>
This compound has an imine and may undergo hydrolysis.

$$$$
