4mzh_ligand
                    3D
 Schrodinger Suite 2020-3.
123122  0  0  1  0            999 V2000
    6.5620    9.2200   -5.7010 N   0  3  0  0  0  0
    7.1050    8.9440   -4.3780 C   0  0  2  0  0  0
    8.5600    8.4870   -4.4520 C   0  0  0  0  0  0
    9.0570    8.1430   -5.5240 O   0  0  0  0  0  0
    6.2570    7.9020   -3.6730 C   0  0  0  0  0  0
    9.2350    8.4910   -3.3040 N   0  0  0  0  0  0
   10.6220    8.0430   -3.2180 C   0  0  2  0  0  0
   10.7420    6.5560   -3.5200 C   0  0  0  0  0  0
    9.7630    5.8160   -3.4850 O   0  0  0  0  0  0
   11.1900    8.2960   -1.8210 C   0  0  0  0  0  0
   11.2470    9.7450   -1.4080 C   0  0  0  0  0  0
   11.7960    9.8730    0.0020 C   0  0  0  0  0  0
   11.6800   11.2410    0.4840 N   0  0  0  0  0  0
   12.5630   12.1960    0.2160 C   0  0  0  0  0  0
   13.6310   11.9280   -0.5260 N   0  0  0  0  0  0
   12.3830   13.4180    0.6950 N   0  3  0  0  0  0
   11.9660    6.1290   -3.8010 N   0  0  0  0  0  0
   12.2690    4.7230   -3.9980 C   0  0  2  0  0  0
   13.0690    4.2350   -2.7910 C   0  0  0  0  0  0
   13.8660    4.9840   -2.2310 O   0  0  0  0  0  0
   13.0930    4.4960   -5.2730 C   0  0  2  0  0  0
   12.7340    5.4560   -6.2740 O   0  0  0  0  0  0
   12.8660    3.1000   -5.8140 C   0  0  0  0  0  0
   12.8630    2.9830   -2.3940 N   0  0  0  0  0  0
   13.6190    2.4200   -1.3030 C   0  0  1  0  0  0
   12.9310    1.2480   -0.5910 C   0  0  0  0  0  0
   11.9910    1.7510    0.4800 C   0  0  0  0  0  0
   12.6200    1.5440    1.8420 C   0  0  0  0  0  0
   11.5280    1.8510    2.8520 C   0  0  0  0  0  0
   11.9700    2.4940    4.1340 N   0  3  0  0  0  0
   14.9840    1.9040   -1.7280 C   0  0  0  0  0  0
   15.1530    1.1560   -2.6920 O   0  0  0  0  0  0
   12.8290    3.6800    3.8430 C   0  0  0  0  0  0
   12.6790    1.5110    5.0050 C   0  0  0  0  0  0
   10.7420    2.9570    4.8400 C   0  0  0  0  0  0
   16.0000    2.3210   -0.9790 N   0  0  0  0  0  0
   17.3380    1.7800   -1.1760 C   0  0  2  0  0  0
   17.4690    0.4620   -0.4260 C   0  0  0  0  0  0
   16.4720   -0.1830   -0.0970 O   0  0  0  0  0  0
   18.4050    2.7650   -0.6890 C   0  0  0  0  0  0
   18.4100    4.0990   -1.4200 C   0  0  0  0  0  0
   19.5900    4.9660   -1.0280 C   0  0  0  0  0  0
   20.7460    4.5700   -1.1870 O   0  0  0  0  0  0
   19.3050    6.1520   -0.5050 N   0  0  0  0  0  0
   18.7070    0.0690   -0.1570 N   0  0  0  0  0  0
   18.9740   -1.1290    0.6280 C   0  0  2  0  0  0
   20.1960   -0.9400    1.5320 C   0  0  0  0  0  0
   21.1010   -0.1580    1.2120 O   0  0  0  0  0  0
   19.1440   -2.3730   -0.2720 C   0  0  2  0  0  0
   18.3100   -3.4350    0.2080 O   0  0  0  0  0  0
   20.5970   -2.8410   -0.3140 C   0  0  0  0  0  0
   20.2040   -1.6650    2.6520 N   0  0  0  0  0  0
   21.2320   -1.5410    3.6870 C   0  0  2  0  0  0
   22.6310   -1.8390    3.1620 C   0  0  0  0  0  0
   22.8620   -2.8860    2.5660 O   0  0  0  0  0  0
   20.9070   -2.4600    4.8670 C   0  0  0  0  0  0
   23.5573   -1.0039    3.3413 O   0  5  0  0  0  0
    7.1842    9.9760   -6.2023 H   0  0  0  0  0  0
    5.5334    9.5975   -5.6037 H   0  0  0  0  0  0
    6.5583    8.2949   -6.2961 H   0  0  0  0  0  0
    7.0550    9.9004   -3.8369 H   0  0  0  0  0  0
    5.2135    8.2473   -3.6288 H   0  0  0  0  0  0
    6.6366    7.7502   -2.6518 H   0  0  0  0  0  0
    6.3061    6.9531   -4.2273 H   0  0  0  0  0  0
    8.7149    8.8465   -2.4022 H   0  0  0  0  0  0
   11.1495    8.6362   -3.9795 H   0  0  0  0  0  0
   10.5691    7.7801   -1.0738 H   0  0  0  0  0  0
   12.2200    7.9133   -1.7691 H   0  0  0  0  0  0
   11.9012   10.2976   -2.0984 H   0  0  0  0  0  0
   10.2350   10.1751   -1.4385 H   0  0  0  0  0  0
   11.2318    9.2121    0.6765 H   0  0  0  0  0  0
   12.8576    9.5849    0.0097 H   0  0  0  0  0  0
   10.8231   11.5332    1.1088 H   0  0  0  0  0  0
   13.7831   10.9143   -0.9251 H   0  0  0  0  0  0
   14.3636   12.7197   -0.7416 H   0  0  0  0  0  0
   11.4992   13.6430    1.3100 H   0  0  0  0  0  0
   12.7649    6.8806   -3.8834 H   0  0  0  0  0  0
   11.2979    4.2150   -4.0928 H   0  0  0  0  0  0
   14.1625    4.6545   -5.0705 H   0  0  0  0  0  0
   12.8311    6.5315   -6.0645 H   0  0  0  0  0  0
   13.1409    2.3605   -5.0474 H   0  0  0  0  0  0
   13.4869    2.9482   -6.7092 H   0  0  0  0  0  0
   11.8053    2.9772   -6.0783 H   0  0  0  0  0  0
   12.1046    2.3751   -2.9091 H   0  0  0  0  0  0
   13.6817    3.3135   -0.6645 H   0  0  0  0  0  0
   12.3554    0.6617   -1.3223 H   0  0  0  0  0  0
   13.6916    0.6056   -0.1232 H   0  0  0  0  0  0
   11.7978    2.8227    0.3245 H   0  0  0  0  0  0
   11.0429    1.1959    0.4259 H   0  0  0  0  0  0
   12.9660    0.5037    1.9318 H   0  0  0  0  0  0
   13.4750    2.2262    1.9585 H   0  0  0  0  0  0
   10.7974    2.5405    2.4039 H   0  0  0  0  0  0
   11.0223    0.9177    3.1403 H   0  0  0  0  0  0
   13.7406    3.3533    3.3212 H   0  0  0  0  0  0
   13.1037    4.1741    4.7866 H   0  0  0  0  0  0
   12.2755    4.3863    3.2068 H   0  0  0  0  0  0
   13.5889    1.1599    4.4963 H   0  0  0  0  0  0
   12.0177    0.6552    5.2058 H   0  0  0  0  0  0
   12.9529    1.9935    5.9548 H   0  0  0  0  0  0
   10.2082    3.6831    4.2093 H   0  0  0  0  0  0
   11.0233    3.4340    5.7905 H   0  0  0  0  0  0
   10.0881    2.0957    5.0414 H   0  0  0  0  0  0
   15.8229    3.0819   -0.2046 H   0  0  0  0  0  0
   17.4438    1.6228   -2.2596 H   0  0  0  0  0  0
   18.2427    2.9840    0.3767 H   0  0  0  0  0  0
   19.4025    2.3216   -0.8244 H   0  0  0  0  0  0
   18.4626    3.9226   -2.5045 H   0  0  0  0  0  0
   17.4885    4.6507   -1.1825 H   0  0  0  0  0  0
   18.2566    6.4616   -0.3828 H   0  0  0  0  0  0
   20.1172    6.8254   -0.1937 H   0  0  0  0  0  0
   19.5427    0.6717   -0.5422 H   0  0  0  0  0  0
   18.0753   -1.2432    1.2519 H   0  0  0  0  0  0
   18.8010   -2.1545   -1.2941 H   0  0  0  0  0  0
   17.2253   -3.2809    0.3063 H   0  0  0  0  0  0
   21.2348   -2.0241   -0.6827 H   0  0  0  0  0  0
   20.6841   -3.7066   -0.9872 H   0  0  0  0  0  0
   20.9187   -3.1294    0.6976 H   0  0  0  0  0  0
   19.3823   -2.3856    2.7765 H   0  0  0  0  0  0
   21.1957   -0.4832    3.9867 H   0  0  0  0  0  0
   19.8958   -2.2367    5.2380 H   0  0  0  0  0  0
   21.6378   -2.2950    5.6724 H   0  0  0  0  0  0
   20.9538   -3.5088    4.5386 H   0  0  0  0  0  0
   13.1174   14.2076    0.4777 H   0  0  0  0  0  0
  1  2  1  0  0  0
  1 58  1  0  0  0
  1 59  1  0  0  0
  1 60  1  0  0  0
  2  3  1  0  0  0
  2  5  1  0  0  0
  2 61  1  0  0  0
  3  4  2  0  0  0
  3  6  1  0  0  0
  5 62  1  0  0  0
  5 63  1  0  0  0
  5 64  1  0  0  0
  6  7  1  0  0  0
  6 65  1  0  0  0
  7  8  1  0  0  0
  7 10  1  0  0  0
  7 66  1  0  0  0
  8  9  2  0  0  0
  8 17  1  0  0  0
 10 11  1  0  0  0
 10 67  1  0  0  0
 10 68  1  0  0  0
 11 12  1  0  0  0
 11 69  1  0  0  0
 11 70  1  0  0  0
 12 13  1  0  0  0
 12 71  1  0  0  0
 12 72  1  0  0  0
 13 14  1  0  0  0
 13 73  1  0  0  0
 14 15  1  0  0  0
 14 16  2  0  0  0
 15 74  1  0  0  0
 15 75  1  0  0  0
 16 76  1  0  0  0
 16123  1  0  0  0
 17 18  1  0  0  0
 17 77  1  0  0  0
 18 19  1  0  0  0
 18 21  1  0  0  0
 18 78  1  0  0  0
 19 20  2  0  0  0
 19 24  1  0  0  0
 21 22  1  0  0  0
 21 23  1  0  0  0
 21 79  1  0  0  0
 22 80  1  0  0  0
 23 81  1  0  0  0
 23 82  1  0  0  0
 23 83  1  0  0  0
 24 25  1  0  0  0
 24 84  1  0  0  0
 25 26  1  0  0  0
 25 31  1  0  0  0
 25 85  1  0  0  0
 26 27  1  0  0  0
 26 86  1  0  0  0
 26 87  1  0  0  0
 27 28  1  0  0  0
 27 88  1  0  0  0
 27 89  1  0  0  0
 28 29  1  0  0  0
 28 90  1  0  0  0
 28 91  1  0  0  0
 29 30  1  0  0  0
 29 92  1  0  0  0
 29 93  1  0  0  0
 30 33  1  0  0  0
 30 34  1  0  0  0
 30 35  1  0  0  0
 31 32  2  0  0  0
 31 36  1  0  0  0
 33 94  1  0  0  0
 33 95  1  0  0  0
 33 96  1  0  0  0
 34 97  1  0  0  0
 34 98  1  0  0  0
 34 99  1  0  0  0
 35100  1  0  0  0
 35101  1  0  0  0
 35102  1  0  0  0
 36 37  1  0  0  0
 36103  1  0  0  0
 37 38  1  0  0  0
 37 40  1  0  0  0
 37104  1  0  0  0
 38 39  2  0  0  0
 38 45  1  0  0  0
 40 41  1  0  0  0
 40105  1  0  0  0
 40106  1  0  0  0
 41 42  1  0  0  0
 41107  1  0  0  0
 41108  1  0  0  0
 42 43  2  0  0  0
 42 44  1  0  0  0
 44109  1  0  0  0
 44110  1  0  0  0
 45 46  1  0  0  0
 45111  1  0  0  0
 46 47  1  0  0  0
 46 49  1  0  0  0
 46112  1  0  0  0
 47 48  2  0  0  0
 47 52  1  0  0  0
 49 50  1  0  0  0
 49 51  1  0  0  0
 49113  1  0  0  0
 50114  1  0  0  0
 51115  1  0  0  0
 51116  1  0  0  0
 51117  1  0  0  0
 52 53  1  0  0  0
 52118  1  0  0  0
 53 54  1  0  0  0
 53 56  1  0  0  0
 53119  1  0  0  0
 54 55  2  0  0  0
 54 57  1  0  0  0
 56120  1  0  0  0
 56121  1  0  0  0
 56122  1  0  0  0
M  CHG  4   1   1  16   1  30   1  57  -1
M  END
> <s_m_source_file>
../4mzh_ligand.sdf

> <i_m_source_file_index>
1

> <s_epik_input>
W0hdL049QyhbTkgyXSlcW05IXVtDSDJdW0NIMl1bQ0gyXVtDQEhdKFtOSF1DKD1PKVtDQEBIXShbTkgzK10pW0NIM10pQyg9TylbTkhdW0NAQEhdKFtDQEhdKFtPSF0pW0NIM10pQyg9TylbTkhdW0NAQEhdKFtDSDJdW0NIMl1bQ0gyXVtDSDJdW04rXShbQ0gzXSkoW0NIM10pW0NIM10pQyg9TylbTkhdW0NAQEhdKFtDSDJdW0NIMl1DKD1PKVtOSDJdKUMoPU8pW05IXVtDQEBIXShbQ0BIXShbT0hdKVtDSDNdKUMoPU8pW05IXVtDQEBIXShbQ0gzXSlDKD1PKVtPSF0=

> <s_epik_cmdline>
J2VwaWtfYXBwJywgJy1pbWFlJywgJ2xpZ2FuZF9wcm8ubWFlJywgJy1vbWFlJywgJ2xpZ2FuZF9wcmVwLm1hZScsICctbXMnLCAnMScsICctcGgnLCAnNycsICctcGh0JywgJzAuNScsICctbnQn

> <r_epik_Ionization_Penalty>
  0.1252

> <r_epik_Ionization_Penalty_Charging>
  0.1252

> <r_epik_Ionization_Penalty_Neutral>
  0.0000

> <r_epik_State_Penalty>
  0.1145

> <r_epik_Charging_Adjusted_Penalty>
0.239746464291294

> <i_epik_Tot_Q>
2

> <i_epik_Tot_abs_Q>
4

> <s_epik_Chemistry_Notes>
This compound has an imine and may undergo hydrolysis.

$$$$
