4mzj_ligand
                    3D
 Schrodinger Suite 2020-3.
323325  0  0  1  0            999 V2000
   13.3100   11.7540   26.5300 C   0  0  0  0  0  0
   14.3110   11.4020   27.1330 O   0  0  0  0  0  0
   13.4190   12.6650   25.3310 C   0  0  0  0  0  0
   12.0850   11.3700   26.8750 N   0  0  0  0  0  0
   11.8500   10.4900   28.0120 C   0  0  2  0  0  0
   11.9410    9.0230   27.6030 C   0  0  0  0  0  0
   12.6400    8.2340   28.2380 O   0  0  0  0  0  0
   10.4830   10.7770   28.6390 C   0  0  0  0  0  0
    9.9250    9.6280   29.4630 C   0  0  0  0  0  0
   10.1420    9.8590   30.9490 C   0  0  0  0  0  0
    9.2890    8.9180   31.7840 C   0  0  0  0  0  0
    9.3870    9.2230   33.2390 N   0  3  0  0  0  0
   11.2300    8.6650   26.5390 N   0  0  0  0  0  0
   11.2300    7.2940   26.0430 C   0  0  2  0  0  0
   11.9670    7.1610   24.7150 C   0  0  0  0  0  0
   11.3470    7.0380   23.6590 O   0  0  0  0  0  0
    9.7970    6.7760   25.9030 C   0  0  0  0  0  0
    8.9550    7.0500   27.1340 C   0  0  0  0  0  0
    8.1370    7.9700   27.1480 O   0  0  0  0  0  0
    9.1530    6.2510   28.1760 N   0  0  0  0  0  0
   13.3640    7.2960   24.9120 N   0  0  0  0  0  0
   14.2630    7.4500   23.7710 C   0  0  2  0  0  0
   14.2350    6.2910   22.7620 C   0  0  0  0  0  0
   14.1560    6.5380   21.5590 O   0  0  0  0  0  0
   15.6940    7.7560   24.2370 C   0  0  0  0  0  0
   16.6480    8.1700   23.1210 C   0  0  0  0  0  0
   17.3980    6.9830   22.5270 C   0  0  0  0  0  0
   18.4220    7.4460   21.5100 C   0  0  0  0  0  0
   14.3130    5.0300   23.2370 N   0  0  0  0  0  0
   14.2760    3.9600   22.2340 C   0  0  2  0  0  0
   13.0070    4.0040   21.3770 C   0  0  0  0  0  0
   13.0710    3.7510   20.1670 O   0  0  0  0  0  0
   14.3200    2.6850   23.0880 C   0  0  0  0  0  0
   15.0320    3.1030   24.3370 C   0  0  0  0  0  0
   14.5290    4.4960   24.5960 C   0  0  0  0  0  0
   11.8700    4.3430   21.9770 N   0  0  0  0  0  0
   10.6290    4.4070   21.2200 C   0  0  2  0  0  0
   10.6490    5.5750   20.2370 C   0  0  0  0  0  0
   10.1450    5.4630   19.1190 O   0  0  0  0  0  0
    9.4200    4.5020   22.1420 C   0  0  0  0  0  0
    9.1700    3.2640   22.7830 O   0  0  0  0  0  0
   11.2350    6.6920   20.6410 N   0  0  0  0  0  0
   11.3670    7.8130   19.7170 C   0  0  2  0  0  0
   12.2340    7.4210   18.5320 C   0  0  0  0  0  0
   11.9270    7.7700   17.3880 O   0  0  0  0  0  0
   11.9260    9.0430   20.4260 C   0  0  0  0  0  0
   12.2550   10.2500   19.5480 C   0  0  0  0  0  0
   11.0150   10.7480   18.8090 C   0  0  0  0  0  0
   12.8320   11.3440   20.4040 C   0  0  0  0  0  0
   13.3070    6.6900   18.8000 N   0  0  0  0  0  0
   14.1590    6.1920   17.7170 C   0  0  2  0  0  0
   13.3900    5.2800   16.7590 C   0  0  0  0  0  0
   13.6120    5.3150   15.5430 O   0  0  0  0  0  0
   15.4270    5.5320   18.2730 C   0  0  0  0  0  0
   16.3360    6.5630   18.9400 C   0  0  0  0  0  0
   17.4440    5.9190   19.7790 C   0  0  0  0  0  0
   18.4460    6.9670   20.2690 C   0  0  0  0  0  0
   12.4690    4.4730   17.2780 N   0  0  0  0  0  0
   11.6640    3.6510   16.3830 C   0  0  2  0  0  0
   10.7330    4.5320   15.5410 C   0  0  0  0  0  0
   10.5480    4.2650   14.3450 O   0  0  0  0  0  0
   10.8590    2.5980   17.1530 C   0  0  0  0  0  0
   11.6950    1.6030   17.9830 C   0  0  0  0  0  0
   12.8000    0.9010   17.1870 C   0  0  0  0  0  0
   12.2580    0.3030   15.9710 N   0  0  0  0  0  0
   12.8710    0.3240   14.7930 C   0  0  0  0  0  0
   14.0690    0.8820   14.6720 N   0  0  0  0  0  0
   12.2780   -0.2090   13.7430 N   0  0  0  0  0  0
   10.1430    5.5660   16.1470 N   0  0  0  0  0  0
    9.3180    6.5100   15.3800 C   0  0  2  0  0  0
   10.1300    7.1430   14.2490 C   0  0  0  0  0  0
    9.6980    7.1590   13.0920 O   0  0  0  0  0  0
    8.6970    7.6140   16.2660 C   0  0  0  0  0  0
    8.1580    8.7570   15.4110 C   0  0  0  0  0  0
    7.5850    7.0180   17.1270 C   0  0  0  0  0  0
   11.3160    7.6450   14.5770 N   0  0  0  0  0  0
   12.1500    8.2820   13.5760 C   0  0  2  0  0  0
   12.5600    7.2940   12.4960 C   0  0  0  0  0  0
   12.6300    7.6620   11.3280 O   0  0  0  0  0  0
   13.3660    8.9140   14.2530 C   0  0  0  0  0  0
   12.9880   10.1070   15.1160 C   0  0  0  0  0  0
   13.9970   10.3850   16.2120 C   0  0  0  0  0  0
   14.6120    9.4610   16.7560 O   0  0  0  0  0  0
   14.1610   11.6550   16.5540 N   0  0  0  0  0  0
   12.8240    6.0480   12.8830 N   0  0  0  0  0  0
   13.2000    5.0290   11.9100 C   0  0  2  0  0  0
   12.0730    4.7890   10.9210 C   0  0  0  0  0  0
   12.3130    4.6620    9.7250 O   0  0  0  0  0  0
   13.5870    3.7250   12.6040 C   0  0  0  0  0  0
   10.8440    4.6920   11.4120 N   0  0  0  0  0  0
    9.7250    4.4690   10.5000 C   0  0  2  0  0  0
    9.4300    5.6790    9.6280 C   0  0  0  0  0  0
    9.0080    5.5300    8.4890 O   0  0  0  0  0  0
    8.4920    3.9720   11.2460 C   0  0  0  0  0  0
    8.5990    2.5310   11.6400 C   0  0  0  0  0  0
    8.3370    1.5050   10.7580 N   0  0  0  0  0  0
    8.9890    1.9480   12.7930 C   0  0  0  0  0  0
    8.5320    0.3500   11.3630 C   0  0  0  0  0  0
    8.9340    0.5880   12.6000 N   0  0  0  0  0  0
    9.6820    6.8770   10.1470 N   0  0  0  0  0  0
    9.5420    8.0690    9.3250 C   0  0  2  0  0  0
   10.5370    8.0200    8.1670 C   0  0  0  0  0  0
   10.1670    8.2640    7.0250 O   0  0  0  0  0  0
    9.7130    9.3650   10.1380 C   0  0  2  0  0  0
    8.5500    9.5080   11.1200 C   0  0  0  0  0  0
    9.7900   10.5820    9.1960 C   0  0  0  0  0  0
    8.7020   10.6860   12.0720 C   0  0  0  0  0  0
   11.7930    7.6840    8.4520 N   0  0  0  0  0  0
   12.7950    7.5830    7.3980 C   0  0  2  0  0  0
   12.4160    6.5050    6.3740 C   0  0  0  0  0  0
   12.6410    6.6710    5.1740 O   0  0  0  0  0  0
   14.1810    7.3230    7.9890 C   0  0  0  0  0  0
   14.7690    8.5330    8.7060 C   0  0  0  0  0  0
   16.2050    8.2840    9.1360 C   0  0  0  0  0  0
   16.8030    9.5090    9.6600 N   0  0  0  0  0  0
   16.8150    9.8370   10.9470 C   0  0  0  0  0  0
   16.2860    9.0200   11.8530 N   0  0  0  0  0  0
   17.3660   10.9810   11.3290 N   0  0  0  0  0  0
   11.8320    5.4080    6.8510 N   0  0  0  0  0  0
   11.3290    4.3630    5.9670 C   0  0  2  0  0  0
   10.2300    4.9040    5.0500 C   0  0  0  0  0  0
   10.2560    4.6720    3.8390 O   0  0  0  0  0  0
   10.7950    3.1930    6.8000 C   0  0  0  0  0  0
   10.1600    2.0770    5.9950 C   0  0  0  0  0  0
    9.2000    1.2830    6.8650 C   0  0  0  0  0  0
    7.9710    2.1350    7.2040 C   0  0  0  0  0  0
    7.0390    1.3980    8.0850 N   0  3  0  0  0  0
    9.2640    5.6130    5.6240 N   0  0  0  0  0  0
    8.1620    6.1670    4.8420 C   0  0  2  0  0  0
    8.6790    7.1190    3.7670 C   0  0  0  0  0  0
    8.1950    7.1220    2.6360 O   0  0  0  0  0  0
    7.1690    6.8910    5.7530 C   0  0  0  0  0  0
    6.3090    5.9630    6.5960 C   0  0  0  0  0  0
    5.3840    5.1270    5.7260 C   0  0  0  0  0  0
    4.0440    5.8160    5.5240 C   0  0  0  0  0  0
    2.9230    4.8390    5.4530 N   0  3  0  0  0  0
    9.6680    7.9240    4.1380 N   0  0  0  0  0  0
   10.2850    8.8940    3.2280 C   0  0  2  0  0  0
   10.8420    8.2610    1.9650 C   0  0  0  0  0  0
   10.8590    8.8890    0.9070 O   0  0  0  0  0  0
   11.4360    9.6250    3.9230 C   0  0  0  0  0  0
   11.0200   10.7800    4.7950 C   0  0  0  0  0  0
   12.2420   11.1520    6.0820 S   0  0  0  0  0  0
   13.7820   11.0670    5.1730 C   0  0  0  0  0  0
   11.3190    7.0250    2.0860 N   0  0  0  0  0  0
   11.9280    6.3100    0.9720 C   0  0  2  0  0  0
   10.8680    5.6290    0.1140 C   0  0  0  0  0  0
    9.9780    4.9550    0.6370 O   0  0  0  0  0  0
   12.9320    5.2530    1.4750 C   0  0  0  0  0  0
   13.3140    4.2980    0.3590 C   0  0  0  0  0  0
   14.1670    5.9290    2.0520 C   0  0  0  0  0  0
   10.9017    5.7559   -1.1391 O   0  0  0  0  0  0
   14.4764   12.9085   25.1504 H   0  0  0  0  0  0
   12.8569   13.5911   25.5219 H   0  0  0  0  0  0
   13.0031   12.1592   24.4472 H   0  0  0  0  0  0
   11.2367   11.7343   26.2769 H   0  0  0  0  0  0
   12.6560   10.7223   28.7236 H   0  0  0  0  0  0
   10.5617   11.6468   29.3078 H   0  0  0  0  0  0
    9.7527   10.9903   27.8445 H   0  0  0  0  0  0
    8.8449    9.5343   29.2772 H   0  0  0  0  0  0
   10.4287    8.6930   29.1767 H   0  0  0  0  0  0
   11.1996    9.6853   31.1964 H   0  0  0  0  0  0
    9.8714   10.8946   31.2025 H   0  0  0  0  0  0
    8.2355    9.0131   31.4823 H   0  0  0  0  0  0
    9.6236    7.8821   31.6259 H   0  0  0  0  0  0
    8.7565    8.5208   33.8041 H   0  0  0  0  0  0
    9.0444   10.2522   33.4218 H   0  0  0  0  0  0
   10.4325    9.1212   33.5653 H   0  0  0  0  0  0
   10.6308    9.4341   26.0297 H   0  0  0  0  0  0
   11.7786    6.7265   26.8091 H   0  0  0  0  0  0
    9.3119    7.2664   25.0461 H   0  0  0  0  0  0
    9.8145    5.6881   25.7412 H   0  0  0  0  0  0
    9.8958    5.4420   28.1154 H   0  0  0  0  0  0
    8.5742    6.3982   29.0998 H   0  0  0  0  0  0
   13.7699    7.2841   25.9343 H   0  0  0  0  0  0
   13.8282    8.3188   23.2551 H   0  0  0  0  0  0
   15.6743    8.5817   24.9635 H   0  0  0  0  0  0
   16.1247    6.8613   24.7103 H   0  0  0  0  0  0
   16.0790    8.6514   22.3120 H   0  0  0  0  0  0
   17.3913    8.8773   23.5176 H   0  0  0  0  0  0
   17.9171    6.4385   23.3295 H   0  0  0  0  0  0
   16.6842    6.3099   22.0295 H   0  0  0  0  0  0
   19.1593    8.2000   21.8229 H   0  0  0  0  0  0
   15.1131    4.0734   21.5294 H   0  0  0  0  0  0
   13.2940    2.3449   23.2922 H   0  0  0  0  0  0
   14.8657    1.8989   22.5455 H   0  0  0  0  0  0
   14.7759    2.4121   25.1537 H   0  0  0  0  0  0
   16.1182    3.0806   24.1648 H   0  0  0  0  0  0
   15.2660    5.1203   25.1224 H   0  0  0  0  0  0
   13.5783    4.5059   25.1492 H   0  0  0  0  0  0
   11.8711    4.5758   23.0521 H   0  0  0  0  0  0
   10.5878    3.4563   20.6682 H   0  0  0  0  0  0
    9.6049    5.2659   22.9116 H   0  0  0  0  0  0
    8.5322    4.7802   21.5551 H   0  0  0  0  0  0
    8.3275    3.1677   23.4837 H   0  0  0  0  0  0
   11.6212    6.7769   21.6675 H   0  0  0  0  0  0
   10.3490    8.0356   19.3646 H   0  0  0  0  0  0
   11.1966    9.4022   21.1670 H   0  0  0  0  0  0
   12.8649    8.7782   20.9343 H   0  0  0  0  0  0
   13.0040    9.9593   18.7967 H   0  0  0  0  0  0
   10.6070    9.9362   18.1889 H   0  0  0  0  0  0
   11.2878   11.5983   18.1667 H   0  0  0  0  0  0
   10.2570   11.0682   19.5390 H   0  0  0  0  0  0
   13.7231   10.9681   20.9281 H   0  0  0  0  0  0
   12.0821   11.6669   21.1411 H   0  0  0  0  0  0
   13.1128   12.1970   19.7688 H   0  0  0  0  0  0
   13.5555    6.4581   19.8462 H   0  0  0  0  0  0
   14.4532    7.0871   17.1494 H   0  0  0  0  0  0
   15.1484    4.7733   19.0192 H   0  0  0  0  0  0
   15.9811    5.0529   17.4523 H   0  0  0  0  0  0
   16.8151    7.1832   18.1681 H   0  0  0  0  0  0
   15.7381    7.2029   19.6056 H   0  0  0  0  0  0
   16.9995    5.4220   20.6539 H   0  0  0  0  0  0
   17.9813    5.1773   19.1697 H   0  0  0  0  0  0
   19.2041    7.3239   19.5563 H   0  0  0  0  0  0
   12.3102    4.4201   18.3652 H   0  0  0  0  0  0
   12.3943    3.1411   15.7374 H   0  0  0  0  0  0
   10.1806    3.0992   17.8591 H   0  0  0  0  0  0
   10.2713    1.9956   16.4447 H   0  0  0  0  0  0
   12.1817    2.1361   18.8130 H   0  0  0  0  0  0
   11.0375    0.8188   18.3864 H   0  0  0  0  0  0
   13.5733    1.6325   16.9097 H   0  0  0  0  0  0
   13.2492    0.1085   17.8036 H   0  0  0  0  0  0
   11.2827   -0.2052   15.9955 H   0  0  0  0  0  0
   14.5604    1.3256   15.5505 H   0  0  0  0  0  0
   14.5706    0.9009   13.6932 H   0  0  0  0  0  0
   11.2850   -0.6705   13.8475 H   0  0  0  0  0  0
   10.2788    5.7078   17.2293 H   0  0  0  0  0  0
    8.5143    5.8827   14.9671 H   0  0  0  0  0  0
    9.4705    8.0323   16.9269 H   0  0  0  0  0  0
    8.9721    9.1726   14.7991 H   0  0  0  0  0  0
    7.7520    9.5435   16.0641 H   0  0  0  0  0  0
    7.3613    8.3789   14.7535 H   0  0  0  0  0  0
    7.9924    6.1969   17.7352 H   0  0  0  0  0  0
    6.7856    6.6316   16.4776 H   0  0  0  0  0  0
    7.1762    7.7963   17.7882 H   0  0  0  0  0  0
   11.6635    7.5741   15.6183 H   0  0  0  0  0  0
   11.5294    9.0601   13.1074 H   0  0  0  0  0  0
   13.8560    8.1686   14.8967 H   0  0  0  0  0  0
   14.0750    9.2586   13.4858 H   0  0  0  0  0  0
   12.9194   11.0071   14.4875 H   0  0  0  0  0  0
   12.0158    9.9195   15.5952 H   0  0  0  0  0  0
   13.5896   12.4414   16.0392 H   0  0  0  0  0  0
   14.8685   11.9226   17.3526 H   0  0  0  0  0  0
   12.7559    5.7908   13.9503 H   0  0  0  0  0  0
   14.0722    5.4393   11.3801 H   0  0  0  0  0  0
   14.4034    3.9168   13.3158 H   0  0  0  0  0  0
   13.9201    2.9944   11.8522 H   0  0  0  0  0  0
   12.7163    3.3246   13.1439 H   0  0  0  0  0  0
   10.6633    4.7778   12.4937 H   0  0  0  0  0  0
   10.0741    3.6702    9.8292 H   0  0  0  0  0  0
    8.3552    4.5636   12.1632 H   0  0  0  0  0  0
    7.6058    4.0815   10.6036 H   0  0  0  0  0  0
    9.3110    2.3532   13.7636 H   0  0  0  0  0  0
    8.3865   -0.6346   10.9186 H   0  0  0  0  0  0
    9.9962    6.9670   11.1973 H   0  0  0  0  0  0
    8.5096    8.0255    8.9479 H   0  0  0  0  0  0
   10.6491    9.3173   10.7137 H   0  0  0  0  0  0
    7.6140    9.6545   10.5610 H   0  0  0  0  0  0
    8.4728    8.5973   11.7321 H   0  0  0  0  0  0
   10.6330   10.4549    8.5009 H   0  0  0  0  0  0
    9.9387   11.4962    9.7895 H   0  0  0  0  0  0
    8.8532   10.6637    8.6252 H   0  0  0  0  0  0
    7.8336   10.7271   12.7460 H   0  0  0  0  0  0
    8.7617   11.6196   11.4934 H   0  0  0  0  0  0
    9.6205   10.5624   12.6645 H   0  0  0  0  0  0
   12.0714    7.4816    9.4968 H   0  0  0  0  0  0
   12.7910    8.5661    6.9045 H   0  0  0  0  0  0
   14.1201    6.5030    8.7197 H   0  0  0  0  0  0
   14.8769    7.0455    7.1836 H   0  0  0  0  0  0
   14.7539    9.4019    8.0316 H   0  0  0  0  0  0
   14.1712    8.7543    9.6025 H   0  0  0  0  0  0
   16.2244    7.5134    9.9208 H   0  0  0  0  0  0
   16.7926    7.9416    8.2714 H   0  0  0  0  0  0
   17.2805   10.2248    8.9747 H   0  0  0  0  0  0
   15.8287    8.0707   11.5372 H   0  0  0  0  0  0
   16.3057    9.2934   12.9183 H   0  0  0  0  0  0
   17.8039   11.6576   10.5803 H   0  0  0  0  0  0
   11.7333    5.3007    7.9413 H   0  0  0  0  0  0
   12.1888    4.0465    5.3583 H   0  0  0  0  0  0
   11.6205    2.7422    7.3704 H   0  0  0  0  0  0
   10.0257    3.5592    7.4957 H   0  0  0  0  0  0
    9.6063    2.5060    5.1468 H   0  0  0  0  0  0
   10.9446    1.4044    5.6182 H   0  0  0  0  0  0
    8.8767    0.3807    6.3252 H   0  0  0  0  0  0
    9.7058    0.9911    7.7972 H   0  0  0  0  0  0
    8.2916    3.0522    7.7197 H   0  0  0  0  0  0
    7.4424    2.4014    6.2768 H   0  0  0  0  0  0
    6.1691    2.0322    8.3109 H   0  0  0  0  0  0
    7.5520    1.1323    9.0211 H   0  0  0  0  0  0
    6.7028    0.4814    7.5782 H   0  0  0  0  0  0
    9.3056    5.7795    6.7105 H   0  0  0  0  0  0
    7.6790    5.3013    4.3652 H   0  0  0  0  0  0
    7.7176    7.5438    6.4479 H   0  0  0  0  0  0
    6.4858    7.4985    5.1413 H   0  0  0  0  0  0
    6.9565    5.2850    7.1714 H   0  0  0  0  0  0
    5.6956    6.5591    7.2877 H   0  0  0  0  0  0
    5.8490    4.9703    4.7415 H   0  0  0  0  0  0
    5.2081    4.1537    6.2075 H   0  0  0  0  0  0
    3.8527    6.4994    6.3645 H   0  0  0  0  0  0
    4.0633    6.3871    4.5841 H   0  0  0  0  0  0
    1.9754    5.3782    5.3069 H   0  0  0  0  0  0
    2.8773    4.2646    6.3900 H   0  0  0  0  0  0
    3.0880    4.1523    4.6096 H   0  0  0  0  0  0
   10.0222    7.8413    5.1761 H   0  0  0  0  0  0
    9.4504    9.5611    2.9664 H   0  0  0  0  0  0
   11.9800    8.9210    4.5699 H   0  0  0  0  0  0
   12.1221   10.0323    3.1658 H   0  0  0  0  0  0
   10.8950   11.6805    4.1757 H   0  0  0  0  0  0
   10.0676   10.5408    5.2907 H   0  0  0  0  0  0
   14.6210   11.2777    5.8525 H   0  0  0  0  0  0
   13.7709   11.8106    4.3625 H   0  0  0  0  0  0
   13.9003   10.0604    4.7455 H   0  0  0  0  0  0
   11.2408    6.5433    3.0718 H   0  0  0  0  0  0
   12.4371    7.0931    0.3910 H   0  0  0  0  0  0
   12.4630    4.6577    2.2723 H   0  0  0  0  0  0
   12.4073    3.8217   -0.0424 H   0  0  0  0  0  0
   13.9903    3.5252    0.7532 H   0  0  0  0  0  0
   13.8212    4.8549   -0.4426 H   0  0  0  0  0  0
   13.8667    6.6152    2.8576 H   0  0  0  0  0  0
   14.6789    6.4951    1.2599 H   0  0  0  0  0  0
   14.8481    5.1654    2.4557 H   0  0  0  0  0  0
   10.1388    5.2663   -1.7622 H   0  0  0  0  0  0
  1  2  2  0  0  0
  1  3  1  0  0  0
  1  4  1  0  0  0
  3153  1  0  0  0
  3154  1  0  0  0
  3155  1  0  0  0
  4  5  1  0  0  0
  4156  1  0  0  0
  5  6  1  0  0  0
  5  8  1  0  0  0
  5157  1  0  0  0
  6  7  2  0  0  0
  6 13  1  0  0  0
  8  9  1  0  0  0
  8158  1  0  0  0
  8159  1  0  0  0
  9 10  1  0  0  0
  9160  1  0  0  0
  9161  1  0  0  0
 10 11  1  0  0  0
 10162  1  0  0  0
 10163  1  0  0  0
 11 12  1  0  0  0
 11164  1  0  0  0
 11165  1  0  0  0
 12166  1  0  0  0
 12167  1  0  0  0
 12168  1  0  0  0
 13 14  1  0  0  0
 13169  1  0  0  0
 14 15  1  0  0  0
 14 17  1  0  0  0
 14170  1  0  0  0
 15 16  2  0  0  0
 15 21  1  0  0  0
 17 18  1  0  0  0
 17171  1  0  0  0
 17172  1  0  0  0
 18 19  2  0  0  0
 18 20  1  0  0  0
 20173  1  0  0  0
 20174  1  0  0  0
 21 22  1  0  0  0
 21175  1  0  0  0
 22 23  1  0  0  0
 22 25  1  0  0  0
 22176  1  0  0  0
 23 24  2  0  0  0
 23 29  1  0  0  0
 25 26  1  0  0  0
 25177  1  0  0  0
 25178  1  0  0  0
 26 27  1  0  0  0
 26179  1  0  0  0
 26180  1  0  0  0
 27 28  1  0  0  0
 27181  1  0  0  0
 27182  1  0  0  0
 28 57  2  0  0  0
 28183  1  0  0  0
 29 30  1  0  0  0
 29 35  1  0  0  0
 30 31  1  0  0  0
 30 33  1  0  0  0
 30184  1  0  0  0
 31 32  2  0  0  0
 31 36  1  0  0  0
 33 34  1  0  0  0
 33185  1  0  0  0
 33186  1  0  0  0
 34 35  1  0  0  0
 34187  1  0  0  0
 34188  1  0  0  0
 35189  1  0  0  0
 35190  1  0  0  0
 36 37  1  0  0  0
 36191  1  0  0  0
 37 38  1  0  0  0
 37 40  1  0  0  0
 37192  1  0  0  0
 38 39  2  0  0  0
 38 42  1  0  0  0
 40 41  1  0  0  0
 40193  1  0  0  0
 40194  1  0  0  0
 41195  1  0  0  0
 42 43  1  0  0  0
 42196  1  0  0  0
 43 44  1  0  0  0
 43 46  1  0  0  0
 43197  1  0  0  0
 44 45  2  0  0  0
 44 50  1  0  0  0
 46 47  1  0  0  0
 46198  1  0  0  0
 46199  1  0  0  0
 47 48  1  0  0  0
 47 49  1  0  0  0
 47200  1  0  0  0
 48201  1  0  0  0
 48202  1  0  0  0
 48203  1  0  0  0
 49204  1  0  0  0
 49205  1  0  0  0
 49206  1  0  0  0
 50 51  1  0  0  0
 50207  1  0  0  0
 51 52  1  0  0  0
 51 54  1  0  0  0
 51208  1  0  0  0
 52 53  2  0  0  0
 52 58  1  0  0  0
 54 55  1  0  0  0
 54209  1  0  0  0
 54210  1  0  0  0
 55 56  1  0  0  0
 55211  1  0  0  0
 55212  1  0  0  0
 56 57  1  0  0  0
 56213  1  0  0  0
 56214  1  0  0  0
 57215  1  0  0  0
 58 59  1  0  0  0
 58216  1  0  0  0
 59 60  1  0  0  0
 59 62  1  0  0  0
 59217  1  0  0  0
 60 61  2  0  0  0
 60 69  1  0  0  0
 62 63  1  0  0  0
 62218  1  0  0  0
 62219  1  0  0  0
 63 64  1  0  0  0
 63220  1  0  0  0
 63221  1  0  0  0
 64 65  1  0  0  0
 64222  1  0  0  0
 64223  1  0  0  0
 65 66  1  0  0  0
 65224  1  0  0  0
 66 67  1  0  0  0
 66 68  2  0  0  0
 67225  1  0  0  0
 67226  1  0  0  0
 68227  1  0  0  0
 69 70  1  0  0  0
 69228  1  0  0  0
 70 71  1  0  0  0
 70 73  1  0  0  0
 70229  1  0  0  0
 71 72  2  0  0  0
 71 76  1  0  0  0
 73 74  1  0  0  0
 73 75  1  0  0  0
 73230  1  0  0  0
 74231  1  0  0  0
 74232  1  0  0  0
 74233  1  0  0  0
 75234  1  0  0  0
 75235  1  0  0  0
 75236  1  0  0  0
 76 77  1  0  0  0
 76237  1  0  0  0
 77 78  1  0  0  0
 77 80  1  0  0  0
 77238  1  0  0  0
 78 79  2  0  0  0
 78 85  1  0  0  0
 80 81  1  0  0  0
 80239  1  0  0  0
 80240  1  0  0  0
 81 82  1  0  0  0
 81241  1  0  0  0
 81242  1  0  0  0
 82 83  2  0  0  0
 82 84  1  0  0  0
 84243  1  0  0  0
 84244  1  0  0  0
 85 86  1  0  0  0
 85245  1  0  0  0
 86 87  1  0  0  0
 86 89  1  0  0  0
 86246  1  0  0  0
 87 88  2  0  0  0
 87 90  1  0  0  0
 89247  1  0  0  0
 89248  1  0  0  0
 89249  1  0  0  0
 90 91  1  0  0  0
 90250  1  0  0  0
 91 92  1  0  0  0
 91 94  1  0  0  0
 91251  1  0  0  0
 92 93  2  0  0  0
 92100  1  0  0  0
 94 95  1  0  0  0
 94252  1  0  0  0
 94253  1  0  0  0
 95 96  2  0  0  0
 95 97  1  0  0  0
 96 98  1  0  0  0
 97 99  2  0  0  0
 97254  1  0  0  0
 98 99  1  0  0  0
 98255  1  0  0  0
100101  1  0  0  0
100256  1  0  0  0
101102  1  0  0  0
101104  1  0  0  0
101257  1  0  0  0
102103  2  0  0  0
102108  1  0  0  0
104105  1  0  0  0
104106  1  0  0  0
104258  1  0  0  0
105107  1  0  0  0
105259  1  0  0  0
105260  1  0  0  0
106261  1  0  0  0
106262  1  0  0  0
106263  1  0  0  0
107264  1  0  0  0
107265  1  0  0  0
107266  1  0  0  0
108109  1  0  0  0
108267  1  0  0  0
109110  1  0  0  0
109112  1  0  0  0
109268  1  0  0  0
110111  2  0  0  0
110119  1  0  0  0
112113  1  0  0  0
112269  1  0  0  0
112270  1  0  0  0
113114  1  0  0  0
113271  1  0  0  0
113272  1  0  0  0
114115  1  0  0  0
114273  1  0  0  0
114274  1  0  0  0
115116  1  0  0  0
115275  1  0  0  0
116117  1  0  0  0
116118  2  0  0  0
117276  1  0  0  0
117277  1  0  0  0
118278  1  0  0  0
119120  1  0  0  0
119279  1  0  0  0
120121  1  0  0  0
120123  1  0  0  0
120280  1  0  0  0
121122  2  0  0  0
121128  1  0  0  0
123124  1  0  0  0
123281  1  0  0  0
123282  1  0  0  0
124125  1  0  0  0
124283  1  0  0  0
124284  1  0  0  0
125126  1  0  0  0
125285  1  0  0  0
125286  1  0  0  0
126127  1  0  0  0
126287  1  0  0  0
126288  1  0  0  0
127289  1  0  0  0
127290  1  0  0  0
127291  1  0  0  0
128129  1  0  0  0
128292  1  0  0  0
129130  1  0  0  0
129132  1  0  0  0
129293  1  0  0  0
130131  2  0  0  0
130137  1  0  0  0
132133  1  0  0  0
132294  1  0  0  0
132295  1  0  0  0
133134  1  0  0  0
133296  1  0  0  0
133297  1  0  0  0
134135  1  0  0  0
134298  1  0  0  0
134299  1  0  0  0
135136  1  0  0  0
135300  1  0  0  0
135301  1  0  0  0
136302  1  0  0  0
136303  1  0  0  0
136304  1  0  0  0
137138  1  0  0  0
137305  1  0  0  0
138139  1  0  0  0
138141  1  0  0  0
138306  1  0  0  0
139140  2  0  0  0
139145  1  0  0  0
141142  1  0  0  0
141307  1  0  0  0
141308  1  0  0  0
142143  1  0  0  0
142309  1  0  0  0
142310  1  0  0  0
143144  1  0  0  0
144311  1  0  0  0
144312  1  0  0  0
144313  1  0  0  0
145146  1  0  0  0
145314  1  0  0  0
146147  1  0  0  0
146149  1  0  0  0
146315  1  0  0  0
147148  2  0  0  0
147152  1  0  0  0
149150  1  0  0  0
149151  1  0  0  0
149316  1  0  0  0
150317  1  0  0  0
150318  1  0  0  0
150319  1  0  0  0
151320  1  0  0  0
151321  1  0  0  0
151322  1  0  0  0
152323  1  0  0  0
M  CHG  3  12   1 127   1 136   1
M  END
> <s_m_source_file>
../4mzj_ligand.sdf

> <i_m_source_file_index>
1

> <s_epik_input>
W05IMytdW0NIMl1bQ0gyXVtDSDJdW0NIMl1bQ0BIXShbTkhdQyg9TylbQ0gzXSlDKD1PKVtOSF1bQ0BASF0oW0NIMl1DKD1PKVtOSDJdKUMoPU8pW05IXVtDQEhdKEMxPU8pW0NIMl1bQ0gyXVtDSDJdL1tDSF09W0NIXVxbQ0gyXVtDSDJdW0NIMl1bQ0BIXShbTkhdQyg9TylbQ0BIXShbQ0gyXVtDSF0oW0NIM10pW0NIM10pW05IXUMoPU8pW0NASF0oW0NIMl1bT0hdKVtOSF1DKD1PKVtDQEBIXShOMTIpW0NIMl1bQ0gyXVtDSDJdMilDKD1PKVtOSF1bQ0BASF0oW0NIMl1bQ0gyXVtDSDJdW05IXS9DKFtOSDJdKT1OXFtIXSlDKD1PKVtOSF1bQ0BASF0oW0NIXShbQ0gzXSlbQ0gzXSlDKD1PKVtOSF1bQ0BASF0oW0NIMl1bQ0gyXUMoPU8pW05IMl0pQyg9TylbTkhdW0NAQEhdKFtDSDNdKUMoPU8pW05IXVtDQEBIXShbQ0gyXUMzPU5bQ0gyXU49W0NIXTMpQyg9TylbTkhdW0NAQEhdKFtDQEBIXShbQ0gzXSlbQ0gyXVtDSDNdKUMoPU8pW05IXVtDQEBIXShbQ0gyXVtDSDJdW0NIMl1bTkhdL0MoW05IMl0pPU5cW0hdKUMoPU8pW05IXVtDQEBIXShbQ0gyXVtDSDJdW0NIMl1bQ0gyXVtOSDMrXSlDKD1PKVtOSF1bQ0BASF0oW0NIMl1bQ0gyXVtDSDJdW0NIMl1bTkgzK10pQyg9TylbTkhdW0NAQEhdKFtDSDJdW0NIMl1TW0NIM10pQyg9TylbTkhdW0NASF0oQyg9TylbT0hdKVtDSF0oW0NIM10pW0NIM10=

> <s_epik_cmdline>
J2VwaWtfYXBwJywgJy1pbWFlJywgJ2xpZ2FuZF9wcm8ubWFlJywgJy1vbWFlJywgJ2xpZ2FuZF9wcmVwLm1hZScsICctbXMnLCAnMScsICctcGgnLCAnNycsICctcGh0JywgJzAuNScsICctbnQn

> <s_epik_pKa_notes>
Molecule size exceeds maximum supported for generating protonation states

> <s_epik_Chemistry_Notes>
This compound has an imine and may undergo hydrolysis.

$$$$
