4mzk_ligand
                    3D
 Schrodinger Suite 2020-3.
317319  0  0  1  0            999 V2000
   14.9220   11.4130   27.7230 C   0  0  0  0  0  0
   15.5750   10.7460   28.5080 O   0  0  0  0  0  0
   15.3870   12.7890   27.3130 C   0  0  0  0  0  0
   13.6770   11.1060   27.3740 N   0  0  0  0  0  0
   12.9960    9.9340   27.9140 C   0  0  2  0  0  0
   12.3740    9.0970   26.8010 C   0  0  0  0  0  0
   12.1410    9.5900   25.6970 O   0  0  0  0  0  0
   11.9230   10.3540   28.9190 C   0  0  0  0  0  0
   11.5930    9.2920   29.9550 C   0  0  0  0  0  0
   10.7400    9.8610   31.0780 C   0  0  0  0  0  0
    9.9330    8.7720   31.7650 C   0  0  0  0  0  0
    9.0420    9.3250   32.8230 N   0  3  0  0  0  0
   12.1070    7.8300   27.0990 N   0  0  0  0  0  0
   11.5070    6.9170   26.1180 C   0  0  2  0  0  0
   12.3050    6.8310   24.8160 C   0  0  0  0  0  0
   11.7330    6.6790   23.7340 O   0  0  0  0  0  0
   10.0580    7.3210   25.8150 C   0  0  0  0  0  0
    9.2010    7.4130   27.0640 C   0  0  0  0  0  0
    9.3850    6.6590   28.0180 O   0  0  0  0  0  0
    8.2630    8.3520   27.0660 N   0  0  0  0  0  0
   13.6240    6.9440   24.9170 N   0  0  0  0  0  0
   14.4740    6.9910   23.7220 C   0  0  2  0  0  0
   14.3410    5.7790   22.7770 C   0  0  0  0  0  0
   14.2520    5.9680   21.5580 O   0  0  0  0  0  0
   15.9570    7.2830   24.0700 C   0  0  2  0  0  0
   16.0750    8.6020   24.8460 C   0  0  0  0  0  0
   16.8140    7.3140   22.8080 C   0  0  0  0  0  0
   15.6770    9.8410   24.0410 C   0  0  0  0  0  0
   14.3190    4.5410   23.3150 N   0  0  0  0  0  0
   14.1650    3.4110   22.3840 C   0  0  2  0  0  0
   12.9280    3.5240   21.4870 C   0  0  0  0  0  0
   13.0460    3.2690   20.2890 O   0  0  0  0  0  0
   14.0300    2.2090   23.3200 C   0  0  0  0  0  0
   14.8240    2.6070   24.5200 C   0  0  0  0  0  0
   14.5500    4.0750   24.6950 C   0  0  0  0  0  0
   11.7810    3.9070   22.0470 N   0  0  0  0  0  0
   10.5600    4.0260   21.2540 C   0  0  2  0  0  0
   10.6660    5.1750   20.2610 C   0  0  0  0  0  0
   10.1460    5.0990   19.1370 O   0  0  0  0  0  0
    9.3420    4.2220   22.1610 C   0  0  0  0  0  0
    9.1650    3.0800   22.9860 O   0  0  0  0  0  0
   11.3200    6.2540   20.6710 N   0  0  0  0  0  0
   11.5530    7.3490   19.7330 C   0  0  2  0  0  0
   12.4070    6.8970   18.5460 C   0  0  0  0  0  0
   12.1580    7.3020   17.4110 O   0  0  0  0  0  0
   12.1860    8.5620   20.4260 C   0  0  0  0  0  0
   12.5810    9.7470   19.5230 C   0  0  0  0  0  0
   11.3770   10.3430   18.7530 C   0  0  0  0  0  0
   13.2780   10.8540   20.3440 C   0  0  0  0  0  0
   13.4290    6.0840   18.8020 N   0  0  0  0  0  0
   14.2670    5.6100   17.7090 C   0  0  2  0  0  0
   13.4390    4.7780   16.7330 C   0  0  0  0  0  0
   13.6450    4.8640   15.5260 O   0  0  0  0  0  0
   15.4540    4.7870   18.2200 C   0  0  0  0  0  0
   16.5210    5.4710   19.0730 C   0  0  0  0  0  0
   17.6870    4.5210   19.3100 C   0  0  0  0  0  0
   17.0160    6.7280   18.4120 C   0  0  0  0  0  0
   12.5120    3.9720   17.2490 N   0  0  0  0  0  0
   11.6670    3.1580   16.3770 C   0  0  2  0  0  0
   10.7730    4.0580   15.5310 C   0  0  0  0  0  0
   10.5890    3.8200   14.3420 O   0  0  0  0  0  0
   10.8260    2.1470   17.1700 C   0  0  0  0  0  0
   11.6350    1.1090   17.9850 C   0  0  0  0  0  0
   12.7440    0.4320   17.1740 C   0  0  0  0  0  0
   12.2360   -0.0830   15.9120 N   0  0  0  0  0  0
   12.8890   -0.0150   14.7590 C   0  0  0  0  0  0
   14.1070    0.5150   14.7160 N   0  0  0  0  0  0
   12.3230   -0.4820   13.6530 N   0  0  0  0  0  0
   10.2110    5.0980   16.1350 N   0  0  0  0  0  0
    9.3950    6.0230   15.3560 C   0  0  2  0  0  0
   10.2300    6.6900   14.2530 C   0  0  0  0  0  0
    9.8080    6.7440   13.0870 O   0  0  0  0  0  0
    8.7220    7.0790   16.2540 C   0  0  0  0  0  0
    7.6510    7.9450   15.5410 C   0  0  0  0  0  0
    8.2570    9.1560   14.8360 C   0  0  0  0  0  0
    7.2050   10.0180   14.1300 C   0  0  0  0  0  0
   11.3970    7.2170   14.6110 N   0  0  0  0  0  0
   12.2350    7.8930   13.6250 C   0  0  2  0  0  0
   12.6300    6.9200   12.5190 C   0  0  0  0  0  0
   12.7140    7.3000   11.3520 O   0  0  0  0  0  0
   13.4720    8.5120   14.2880 C   0  0  0  0  0  0
   13.1270    9.7150   15.1740 C   0  0  0  0  0  0
   14.2120   10.0390   16.1900 C   0  0  0  0  0  0
   14.9110    9.1510   16.6700 O   0  0  0  0  0  0
   14.3360   11.3160   16.5390 N   0  0  0  0  0  0
   12.8560    5.6650   12.8920 N   0  0  0  0  0  0
   13.1960    4.6360   11.9150 C   0  0  2  0  0  0
   12.0430    4.4150   10.9290 C   0  0  0  0  0  0
   12.2610    4.2820    9.7280 O   0  0  0  0  0  0
   13.5650    3.3300   12.6190 C   0  0  0  0  0  0
   10.8130    4.3710   11.4210 N   0  0  0  0  0  0
    9.6850    4.1900   10.5010 C   0  0  2  0  0  0
    9.4320    5.4090    9.6170 C   0  0  0  0  0  0
    8.9770    5.2750    8.4840 O   0  0  0  0  0  0
    8.4240    3.7600   11.2480 C   0  0  0  0  0  0
    8.4650    2.3250   11.6770 C   0  0  0  0  0  0
    8.1140    1.2940   10.8330 N   0  0  0  0  0  0
    8.8550    1.7540   12.8370 C   0  0  0  0  0  0
    8.2690    0.1430   11.4670 C   0  0  0  0  0  0
    8.7110    0.3940   12.6840 N   0  0  0  0  0  0
    9.7390    6.5960   10.1260 N   0  0  0  0  0  0
    9.6190    7.8050    9.3180 C   0  0  2  0  0  0
   10.6280    7.8010    8.1680 C   0  0  0  0  0  0
   10.2960    8.1820    7.0430 O   0  0  0  0  0  0
    9.7610    9.0440   10.1960 C   0  0  0  0  0  0
    8.5050    9.2990   11.0310 C   0  0  0  0  0  0
    8.7290   10.3040   12.1560 C   0  0  0  0  0  0
    7.4250   10.5450   12.9220 C   0  0  0  0  0  0
   11.8400    7.3280    8.4410 N   0  0  0  0  0  0
   12.8580    7.2280    7.3950 C   0  0  2  0  0  0
   12.4820    6.1500    6.3790 C   0  0  0  0  0  0
   12.6950    6.3100    5.1680 O   0  0  0  0  0  0
   14.2400    6.9680    8.0000 C   0  0  0  0  0  0
   14.8200    8.2090    8.6760 C   0  0  0  0  0  0
   16.3140    8.1150    8.9210 C   0  0  0  0  0  0
   16.8360    9.3880    9.4330 N   0  0  0  0  0  0
   16.8790    9.7130   10.7260 C   0  0  0  0  0  0
   16.4420    8.8570   11.6510 N   0  0  0  0  0  0
   17.3620   10.8920   11.0930 N   0  0  0  0  0  0
   11.9180    5.0520    6.8780 N   0  0  0  0  0  0
   11.3940    4.0000    6.0060 C   0  0  2  0  0  0
   10.3280    4.5560    5.0660 C   0  0  0  0  0  0
   10.3880    4.3590    3.8450 O   0  0  0  0  0  0
   10.7840    2.8710    6.8470 C   0  0  0  0  0  0
   10.1720    1.7230    6.0370 C   0  0  0  0  0  0
    9.0850    1.0070    6.8490 C   0  0  0  0  0  0
    7.9180    1.9730    7.1150 C   0  0  0  0  0  0
    6.9200    1.5330    8.1470 N   0  3  0  0  0  0
    9.3490    5.2550    5.6320 N   0  0  0  0  0  0
    8.2230    5.7400    4.8290 C   0  0  2  0  0  0
    8.6460    6.7600    3.7840 C   0  0  0  0  0  0
    8.0450    6.8330    2.7120 O   0  0  0  0  0  0
    7.1120    6.3230    5.7130 C   0  0  0  0  0  0
    6.3250    5.2720    6.4890 C   0  0  0  0  0  0
    9.6770    7.5410    4.0940 N   0  0  0  0  0  0
   10.1470    8.5890    3.1830 C   0  0  2  0  0  0
   11.0050    8.0210    2.0540 C   0  0  0  0  0  0
   11.2980    8.7150    1.0780 O   0  0  0  0  0  0
   10.9160    9.6970    3.9310 C   0  0  0  0  0  0
   12.3390    9.3110    4.3800 C   0  0  0  0  0  0
   13.3260   10.5760    5.2550 S   0  0  0  0  0  0
   14.1150   11.3860    3.8540 C   0  0  0  0  0  0
   11.4190    6.8170    2.1150 N   0  0  0  0  0  0
   12.3930    6.2630    1.1790 C   0  0  2  0  0  0
   11.8090    5.9690   -0.2100 C   0  0  0  0  0  0
   10.5990    5.7990   -0.3710 O   0  0  0  0  0  0
   13.0650    5.0040    1.7460 C   0  0  0  0  0  0
   12.0350    3.8960    1.9650 C   0  0  0  0  0  0
   14.1340    4.5270    0.8090 C   0  0  0  0  0  0
   12.5808    5.9002   -1.2036 O   0  0  0  0  0  0
   16.4237   12.9407   27.6481 H   0  0  0  0  0  0
   14.7378   13.5479   27.7741 H   0  0  0  0  0  0
   15.3384   12.8813   26.2180 H   0  0  0  0  0  0
   13.1593   11.7619   26.6585 H   0  0  0  0  0  0
   13.7812    9.3494   28.4158 H   0  0  0  0  0  0
   12.2624   11.2457   29.4665 H   0  0  0  0  0  0
   10.9900   10.5852   28.3841 H   0  0  0  0  0  0
   11.0382    8.4720   29.4756 H   0  0  0  0  0  0
   12.5251    8.9001   30.3881 H   0  0  0  0  0  0
   11.3898   10.3392   31.8257 H   0  0  0  0  0  0
   10.0431   10.6065   30.6675 H   0  0  0  0  0  0
    9.3068    8.2559   31.0223 H   0  0  0  0  0  0
   10.6170    8.0492   32.2337 H   0  0  0  0  0  0
    8.4783    8.5055   33.2928 H   0  0  0  0  0  0
    8.3398   10.0422   32.3730 H   0  0  0  0  0  0
    9.6500    9.8356   33.5844 H   0  0  0  0  0  0
   12.3470    7.4701   28.1104 H   0  0  0  0  0  0
   11.5476    5.9365   26.6150 H   0  0  0  0  0  0
   10.0467    8.3062   25.3259 H   0  0  0  0  0  0
    9.6013    6.5752   25.1478 H   0  0  0  0  0  0
    8.1352    9.0036   26.1890 H   0  0  0  0  0  0
    7.6134    8.4786   27.9446 H   0  0  0  0  0  0
   14.0777    7.0027   25.9173 H   0  0  0  0  0  0
   14.0312    7.8474   23.1924 H   0  0  0  0  0  0
   16.3451    6.4747   24.7072 H   0  0  0  0  0  0
   15.4207    8.5673   25.7296 H   0  0  0  0  0  0
   17.1172    8.7467   25.1669 H   0  0  0  0  0  0
   16.7116    6.3591   22.2717 H   0  0  0  0  0  0
   17.8676    7.4684   23.0840 H   0  0  0  0  0  0
   16.4807    8.1369   22.1586 H   0  0  0  0  0  0
   15.7902   10.7376   24.6681 H   0  0  0  0  0  0
   14.6291    9.7483   23.7195 H   0  0  0  0  0  0
   16.3255    9.9276   23.1568 H   0  0  0  0  0  0
   15.0252    3.3820   21.6990 H   0  0  0  0  0  0
   12.9682    2.0462   23.5569 H   0  0  0  0  0  0
   14.4373    1.3135   22.8279 H   0  0  0  0  0  0
   14.4896    2.0240   25.3908 H   0  0  0  0  0  0
   15.8906    2.4113   24.3354 H   0  0  0  0  0  0
   15.4061    4.6149   25.1258 H   0  0  0  0  0  0
   13.6527    4.2666   25.3018 H   0  0  0  0  0  0
   11.7624    4.1349   23.1230 H   0  0  0  0  0  0
   10.4755    3.0759   20.7061 H   0  0  0  0  0  0
    9.4959    5.1074   22.7953 H   0  0  0  0  0  0
    8.4437    4.3656   21.5426 H   0  0  0  0  0  0
    8.3335    3.0447   23.7053 H   0  0  0  0  0  0
   11.6855    6.3290   21.7058 H   0  0  0  0  0  0
   10.5473    7.6169   19.3769 H   0  0  0  0  0  0
   11.4812    8.9714   21.1647 H   0  0  0  0  0  0
   13.1111    8.2525   20.9343 H   0  0  0  0  0  0
   13.2840    9.3433   18.7795 H   0  0  0  0  0  0
   10.8853    9.5499   18.1706 H   0  0  0  0  0  0
   11.7309   11.1316   18.0727 H   0  0  0  0  0  0
   10.6596   10.7709   19.4687 H   0  0  0  0  0  0
   14.1319   10.4243   20.8883 H   0  0  0  0  0  0
   12.5636   11.2827   21.0622 H   0  0  0  0  0  0
   13.6349   11.6434   19.6662 H   0  0  0  0  0  0
   13.6419    5.7698   19.8345 H   0  0  0  0  0  0
   14.6379    6.5244   17.2228 H   0  0  0  0  0  0
   15.0854    3.9638   18.8496 H   0  0  0  0  0  0
   16.0093    4.3743   17.3648 H   0  0  0  0  0  0
   16.0728    5.7554   20.0365 H   0  0  0  0  0  0
   17.3200    3.6036   19.7934 H   0  0  0  0  0  0
   18.4292    5.0066   19.9606 H   0  0  0  0  0  0
   18.1541    4.2665   18.3472 H   0  0  0  0  0  0
   16.1703    7.4108   18.2430 H   0  0  0  0  0  0
   17.4823    6.4762   17.4481 H   0  0  0  0  0  0
   17.7574    7.2163   19.0615 H   0  0  0  0  0  0
   12.3852    3.9221   18.3405 H   0  0  0  0  0  0
   12.3668    2.6052   15.7330 H   0  0  0  0  0  0
   10.1910    2.6834   17.8904 H   0  0  0  0  0  0
   10.1916    1.5744   16.4774 H   0  0  0  0  0  0
   12.1095    1.6063   18.8438 H   0  0  0  0  0  0
   10.9597    0.3192   18.3459 H   0  0  0  0  0  0
   13.5390    1.1614   16.9598 H   0  0  0  0  0  0
   13.1612   -0.4061   17.7516 H   0  0  0  0  0  0
   11.2490   -0.5671   15.8729 H   0  0  0  0  0  0
   14.5718    0.9007   15.6354 H   0  0  0  0  0  0
   14.6503    0.5680   13.7610 H   0  0  0  0  0  0
   11.3147   -0.9197   13.6938 H   0  0  0  0  0  0
   10.3558    5.2657   17.2125 H   0  0  0  0  0  0
    8.6192    5.3900   14.9007 H   0  0  0  0  0  0
    8.2193    6.5786   17.0948 H   0  0  0  0  0  0
    9.4846    7.7704   16.6417 H   0  0  0  0  0  0
    7.1313    7.3371   14.7857 H   0  0  0  0  0  0
    6.9238    8.3112   16.2806 H   0  0  0  0  0  0
    8.7718    9.7897   15.5731 H   0  0  0  0  0  0
    8.9777    8.8161   14.0777 H   0  0  0  0  0  0
    6.2490   10.1989   14.6432 H   0  0  0  0  0  0
   11.7300    7.1415   15.6567 H   0  0  0  0  0  0
   11.6153    8.6969   13.2012 H   0  0  0  0  0  0
   13.9654    7.7584   14.9193 H   0  0  0  0  0  0
   14.1716    8.8545   13.5113 H   0  0  0  0  0  0
   12.9841   10.6053   14.5440 H   0  0  0  0  0  0
   12.2011    9.5071   15.7304 H   0  0  0  0  0  0
   13.6866   12.0768   16.0813 H   0  0  0  0  0  0
   15.0879   11.6117   17.2854 H   0  0  0  0  0  0
   12.7829    5.4077   13.9590 H   0  0  0  0  0  0
   14.0715    5.0239   11.3737 H   0  0  0  0  0  0
   14.3927    3.5126   13.3201 H   0  0  0  0  0  0
   13.8753    2.5854   11.8712 H   0  0  0  0  0  0
   12.6924    2.9525   13.1722 H   0  0  0  0  0  0
   10.6313    4.4679   12.5016 H   0  0  0  0  0  0
   10.0104    3.3724    9.8410 H   0  0  0  0  0  0
    8.3039    4.3774   12.1504 H   0  0  0  0  0  0
    7.5484    3.8908   10.5951 H   0  0  0  0  0  0
    9.2307    2.1640   13.7861 H   0  0  0  0  0  0
    8.0659   -0.8449   11.0536 H   0  0  0  0  0  0
   10.0867    6.6628   11.1675 H   0  0  0  0  0  0
    8.6056    7.7843    8.8906 H   0  0  0  0  0  0
   10.6099    8.9113   10.8828 H   0  0  0  0  0  0
    9.9371    9.9250    9.5613 H   0  0  0  0  0  0
    7.7086    9.6951   10.3838 H   0  0  0  0  0  0
    8.1708    8.3559   11.4881 H   0  0  0  0  0  0
    9.4865    9.9132   12.8513 H   0  0  0  0  0  0
    9.0775   11.2573   11.7321 H   0  0  0  0  0  0
    6.6569   11.1738   12.4481 H   0  0  0  0  0  0
   12.0733    7.0098    9.4678 H   0  0  0  0  0  0
   12.8675    8.2067    6.8930 H   0  0  0  0  0  0
   14.1656    6.1720    8.7556 H   0  0  0  0  0  0
   14.9350    6.6564    7.2064 H   0  0  0  0  0  0
   14.6430    9.0892    8.0405 H   0  0  0  0  0  0
   14.3328    8.3569    9.6511 H   0  0  0  0  0  0
   16.5155    7.3250    9.6595 H   0  0  0  0  0  0
   16.8259    7.8742    7.9776 H   0  0  0  0  0  0
   17.2239   10.1441    8.7346 H   0  0  0  0  0  0
   16.0409    7.8783   11.3489 H   0  0  0  0  0  0
   16.4828    9.1298   12.7159 H   0  0  0  0  0  0
   17.7230   11.5995   10.3320 H   0  0  0  0  0  0
   11.8504    4.9450    7.9707 H   0  0  0  0  0  0
   12.2574    3.6410    5.4266 H   0  0  0  0  0  0
   11.5624    2.4279    7.4856 H   0  0  0  0  0  0
    9.9796    3.2772    7.4778 H   0  0  0  0  0  0
    9.7228    2.1229    5.1160 H   0  0  0  0  0  0
   10.9575    0.9981    5.7771 H   0  0  0  0  0  0
    8.7179    0.1377    6.2837 H   0  0  0  0  0  0
    9.5058    0.6698    7.8078 H   0  0  0  0  0  0
    8.3133    2.9380    7.4651 H   0  0  0  0  0  0
    7.3490    2.1252    6.1860 H   0  0  0  0  0  0
    6.1374    2.2991    8.2502 H   0  0  0  0  0  0
    7.4279    1.3952    9.1129 H   0  0  0  0  0  0
    6.4636    0.5824    7.8338 H   0  0  0  0  0  0
    9.3879    5.4687    6.7103 H   0  0  0  0  0  0
    7.8691    4.8368    4.3103 H   0  0  0  0  0  0
    7.5527    7.0101    6.4503 H   0  0  0  0  0  0
    6.3934    6.8705    5.0854 H   0  0  0  0  0  0
    5.5517    5.7666    7.0952 H   0  0  0  0  0  0
    7.0075    4.7156    7.1482 H   0  0  0  0  0  0
    5.8482    4.5759    5.7832 H   0  0  0  0  0  0
   10.1797    7.3860    5.0601 H   0  0  0  0  0  0
    9.2182    8.9968    2.7575 H   0  0  0  0  0  0
   11.0187   10.5766    3.2785 H   0  0  0  0  0  0
   10.3635    9.9773    4.8399 H   0  0  0  0  0  0
   12.2864    8.4569    5.0711 H   0  0  0  0  0  0
   12.9387    9.0344    3.5003 H   0  0  0  0  0  0
   14.7636   12.1969    4.2169 H   0  0  0  0  0  0
   13.3438   11.8028    3.1895 H   0  0  0  0  0  0
   14.7196   10.6531    3.2996 H   0  0  0  0  0  0
   11.0085    6.1876    2.9183 H   0  0  0  0  0  0
   13.1202    7.0830    1.0854 H   0  0  0  0  0  0
   13.5390    5.2481    2.7082 H   0  0  0  0  0  0
   11.2540    4.2522    2.6529 H   0  0  0  0  0  0
   12.5309    3.0147    2.3979 H   0  0  0  0  0  0
   11.5789    3.6238    1.0017 H   0  0  0  0  0  0
   14.8716    5.3286    0.6557 H   0  0  0  0  0  0
   13.6813    4.2558   -0.1561 H   0  0  0  0  0  0
   14.6333    3.6467    1.2401 H   0  0  0  0  0  0
   12.1729    5.6901   -2.2033 H   0  0  0  0  0  0
  1  2  2  0  0  0
  1  3  1  0  0  0
  1  4  1  0  0  0
  3151  1  0  0  0
  3152  1  0  0  0
  3153  1  0  0  0
  4  5  1  0  0  0
  4154  1  0  0  0
  5  6  1  0  0  0
  5  8  1  0  0  0
  5155  1  0  0  0
  6  7  2  0  0  0
  6 13  1  0  0  0
  8  9  1  0  0  0
  8156  1  0  0  0
  8157  1  0  0  0
  9 10  1  0  0  0
  9158  1  0  0  0
  9159  1  0  0  0
 10 11  1  0  0  0
 10160  1  0  0  0
 10161  1  0  0  0
 11 12  1  0  0  0
 11162  1  0  0  0
 11163  1  0  0  0
 12164  1  0  0  0
 12165  1  0  0  0
 12166  1  0  0  0
 13 14  1  0  0  0
 13167  1  0  0  0
 14 15  1  0  0  0
 14 17  1  0  0  0
 14168  1  0  0  0
 15 16  2  0  0  0
 15 21  1  0  0  0
 17 18  1  0  0  0
 17169  1  0  0  0
 17170  1  0  0  0
 18 19  2  0  0  0
 18 20  1  0  0  0
 20171  1  0  0  0
 20172  1  0  0  0
 21 22  1  0  0  0
 21173  1  0  0  0
 22 23  1  0  0  0
 22 25  1  0  0  0
 22174  1  0  0  0
 23 24  2  0  0  0
 23 29  1  0  0  0
 25 26  1  0  0  0
 25 27  1  0  0  0
 25175  1  0  0  0
 26 28  1  0  0  0
 26176  1  0  0  0
 26177  1  0  0  0
 27178  1  0  0  0
 27179  1  0  0  0
 27180  1  0  0  0
 28181  1  0  0  0
 28182  1  0  0  0
 28183  1  0  0  0
 29 30  1  0  0  0
 29 35  1  0  0  0
 30 31  1  0  0  0
 30 33  1  0  0  0
 30184  1  0  0  0
 31 32  2  0  0  0
 31 36  1  0  0  0
 33 34  1  0  0  0
 33185  1  0  0  0
 33186  1  0  0  0
 34 35  1  0  0  0
 34187  1  0  0  0
 34188  1  0  0  0
 35189  1  0  0  0
 35190  1  0  0  0
 36 37  1  0  0  0
 36191  1  0  0  0
 37 38  1  0  0  0
 37 40  1  0  0  0
 37192  1  0  0  0
 38 39  2  0  0  0
 38 42  1  0  0  0
 40 41  1  0  0  0
 40193  1  0  0  0
 40194  1  0  0  0
 41195  1  0  0  0
 42 43  1  0  0  0
 42196  1  0  0  0
 43 44  1  0  0  0
 43 46  1  0  0  0
 43197  1  0  0  0
 44 45  2  0  0  0
 44 50  1  0  0  0
 46 47  1  0  0  0
 46198  1  0  0  0
 46199  1  0  0  0
 47 48  1  0  0  0
 47 49  1  0  0  0
 47200  1  0  0  0
 48201  1  0  0  0
 48202  1  0  0  0
 48203  1  0  0  0
 49204  1  0  0  0
 49205  1  0  0  0
 49206  1  0  0  0
 50 51  1  0  0  0
 50207  1  0  0  0
 51 52  1  0  0  0
 51 54  1  0  0  0
 51208  1  0  0  0
 52 53  2  0  0  0
 52 58  1  0  0  0
 54 55  1  0  0  0
 54209  1  0  0  0
 54210  1  0  0  0
 55 56  1  0  0  0
 55 57  1  0  0  0
 55211  1  0  0  0
 56212  1  0  0  0
 56213  1  0  0  0
 56214  1  0  0  0
 57215  1  0  0  0
 57216  1  0  0  0
 57217  1  0  0  0
 58 59  1  0  0  0
 58218  1  0  0  0
 59 60  1  0  0  0
 59 62  1  0  0  0
 59219  1  0  0  0
 60 61  2  0  0  0
 60 69  1  0  0  0
 62 63  1  0  0  0
 62220  1  0  0  0
 62221  1  0  0  0
 63 64  1  0  0  0
 63222  1  0  0  0
 63223  1  0  0  0
 64 65  1  0  0  0
 64224  1  0  0  0
 64225  1  0  0  0
 65 66  1  0  0  0
 65226  1  0  0  0
 66 67  1  0  0  0
 66 68  2  0  0  0
 67227  1  0  0  0
 67228  1  0  0  0
 68229  1  0  0  0
 69 70  1  0  0  0
 69230  1  0  0  0
 70 71  1  0  0  0
 70 73  1  0  0  0
 70231  1  0  0  0
 71 72  2  0  0  0
 71 77  1  0  0  0
 73 74  1  0  0  0
 73232  1  0  0  0
 73233  1  0  0  0
 74 75  1  0  0  0
 74234  1  0  0  0
 74235  1  0  0  0
 75 76  1  0  0  0
 75236  1  0  0  0
 75237  1  0  0  0
 76108  2  0  0  0
 76238  1  0  0  0
 77 78  1  0  0  0
 77239  1  0  0  0
 78 79  1  0  0  0
 78 81  1  0  0  0
 78240  1  0  0  0
 79 80  2  0  0  0
 79 86  1  0  0  0
 81 82  1  0  0  0
 81241  1  0  0  0
 81242  1  0  0  0
 82 83  1  0  0  0
 82243  1  0  0  0
 82244  1  0  0  0
 83 84  2  0  0  0
 83 85  1  0  0  0
 85245  1  0  0  0
 85246  1  0  0  0
 86 87  1  0  0  0
 86247  1  0  0  0
 87 88  1  0  0  0
 87 90  1  0  0  0
 87248  1  0  0  0
 88 89  2  0  0  0
 88 91  1  0  0  0
 90249  1  0  0  0
 90250  1  0  0  0
 90251  1  0  0  0
 91 92  1  0  0  0
 91252  1  0  0  0
 92 93  1  0  0  0
 92 95  1  0  0  0
 92253  1  0  0  0
 93 94  2  0  0  0
 93101  1  0  0  0
 95 96  1  0  0  0
 95254  1  0  0  0
 95255  1  0  0  0
 96 97  2  0  0  0
 96 98  1  0  0  0
 97 99  1  0  0  0
 98100  2  0  0  0
 98256  1  0  0  0
 99100  1  0  0  0
 99257  1  0  0  0
101102  1  0  0  0
101258  1  0  0  0
102103  1  0  0  0
102105  1  0  0  0
102259  1  0  0  0
103104  2  0  0  0
103109  1  0  0  0
105106  1  0  0  0
105260  1  0  0  0
105261  1  0  0  0
106107  1  0  0  0
106262  1  0  0  0
106263  1  0  0  0
107108  1  0  0  0
107264  1  0  0  0
107265  1  0  0  0
108266  1  0  0  0
109110  1  0  0  0
109267  1  0  0  0
110111  1  0  0  0
110113  1  0  0  0
110268  1  0  0  0
111112  2  0  0  0
111120  1  0  0  0
113114  1  0  0  0
113269  1  0  0  0
113270  1  0  0  0
114115  1  0  0  0
114271  1  0  0  0
114272  1  0  0  0
115116  1  0  0  0
115273  1  0  0  0
115274  1  0  0  0
116117  1  0  0  0
116275  1  0  0  0
117118  1  0  0  0
117119  2  0  0  0
118276  1  0  0  0
118277  1  0  0  0
119278  1  0  0  0
120121  1  0  0  0
120279  1  0  0  0
121122  1  0  0  0
121124  1  0  0  0
121280  1  0  0  0
122123  2  0  0  0
122129  1  0  0  0
124125  1  0  0  0
124281  1  0  0  0
124282  1  0  0  0
125126  1  0  0  0
125283  1  0  0  0
125284  1  0  0  0
126127  1  0  0  0
126285  1  0  0  0
126286  1  0  0  0
127128  1  0  0  0
127287  1  0  0  0
127288  1  0  0  0
128289  1  0  0  0
128290  1  0  0  0
128291  1  0  0  0
129130  1  0  0  0
129292  1  0  0  0
130131  1  0  0  0
130133  1  0  0  0
130293  1  0  0  0
131132  2  0  0  0
131135  1  0  0  0
133134  1  0  0  0
133294  1  0  0  0
133295  1  0  0  0
134296  1  0  0  0
134297  1  0  0  0
134298  1  0  0  0
135136  1  0  0  0
135299  1  0  0  0
136137  1  0  0  0
136139  1  0  0  0
136300  1  0  0  0
137138  2  0  0  0
137143  1  0  0  0
139140  1  0  0  0
139301  1  0  0  0
139302  1  0  0  0
140141  1  0  0  0
140303  1  0  0  0
140304  1  0  0  0
141142  1  0  0  0
142305  1  0  0  0
142306  1  0  0  0
142307  1  0  0  0
143144  1  0  0  0
143308  1  0  0  0
144145  1  0  0  0
144147  1  0  0  0
144309  1  0  0  0
145146  2  0  0  0
145150  1  0  0  0
147148  1  0  0  0
147149  1  0  0  0
147310  1  0  0  0
148311  1  0  0  0
148312  1  0  0  0
148313  1  0  0  0
149314  1  0  0  0
149315  1  0  0  0
149316  1  0  0  0
150317  1  0  0  0
M  CHG  2  12   1 128   1
M  END
> <s_m_source_file>
../4mzk_ligand.sdf

> <i_m_source_file_index>
1

> <s_epik_input>
W05IMytdW0NIMl1bQ0gyXVtDSDJdW0NIMl1bQ0BIXShbTkhdQyg9TylbQ0gzXSlDKD1PKVtOSF1bQ0BASF0oW0NIMl1DKD1PKVtOSDJdKUMoPU8pW05IXVtDQEBIXShbQ0BASF0oW0NIM10pW0NIMl1bQ0gzXSlDKD1PKU4xW0NAQEhdKFtDSDJdW0NIMl1bQ0gyXTEpQyg9TylbTkhdW0NAQEhdKFtDSDJdW09IXSlDKD1PKVtOSF1bQ0BASF0oW0NIMl1bQ0hdKFtDSDNdKVtDSDNdKUMoPU8pW05IXVtDQEBIXShbQ0gyXVtDSF0oW0NIM10pW0NIM10pQyg9TylbTkhdW0NAQEhdKFtDSDJdW0NIMl1bQ0gyXVtOSF0vQyhbTkgyXSk9TlxbSF0pQyg9TylbTkhdW0NAQEhdMkMoPU8pW05IXVtDQEBIXShbQ0gyXVtDSDJdQyg9TylbTkgyXSlDKD1PKVtOSF1bQ0BASF0oW0NIM10pQyg9TylbTkhdW0NAQEhdKFtDSDJdQzM9TltDSDJdTj1bQ0hdMylDKD1PKVtOSF1bQ0BASF0oW0NIMl1bQ0gyXVtDSDJdL1tDSF09W0NIXVxbQ0gyXVtDSDJdW0NIMl0yKUMoPU8pW05IXVtDQEBIXShbQ0gyXVtDSDJdW0NIMl1bTkhdL0MoW05IMl0pPU5cW0hdKUMoPU8pW05IXVtDQEBIXShbQ0gyXVtDSDJdW0NIMl1bQ0gyXVtOSDMrXSlDKD1PKVtOSF1bQ0BASF0oW0NIMl1bQ0gzXSlDKD1PKVtOSF1bQ0BASF0oW0NIMl1bQ0gyXVNbQ0gzXSlDKD1PKVtOSF1bQ0BIXShDKD1PKVtPSF0pW0NIXShbQ0gzXSlbQ0gzXQ==

> <s_epik_cmdline>
J2VwaWtfYXBwJywgJy1pbWFlJywgJ2xpZ2FuZF9wcm8ubWFlJywgJy1vbWFlJywgJ2xpZ2FuZF9wcmVwLm1hZScsICctbXMnLCAnMScsICctcGgnLCAnNycsICctcGh0JywgJzAuNScsICctbnQn

> <s_epik_pKa_notes>
Molecule size exceeds maximum supported for generating protonation states

> <s_epik_Chemistry_Notes>
This compound has an imine and may undergo hydrolysis.

$$$$
