4mzl_ligand
                    3D
 Schrodinger Suite 2020-3.
300301  0  0  1  0            999 V2000
   29.7760   -7.6130   19.0550 C   0  0  0  0  0  0
   29.4450   -8.9560   19.6280 C   0  0  0  0  0  0
   29.2900   -8.9080   21.0760 C   0  0  0  0  0  0
   28.3160   -7.8330   21.4120 C   0  0  0  0  0  0
   27.0710   -7.9780   21.1140 O   0  0  0  0  0  0
   28.7300   -6.6250   21.9710 N   0  0  0  0  0  0
   27.8630   -5.4660   22.1850 C   0  0  2  0  0  0
   27.7860   -4.5120   20.9950 C   0  0  0  0  0  0
   26.7110   -4.0030   20.6740 O   0  0  0  0  0  0
   28.3110   -4.6810   23.4190 C   0  0  0  0  0  0
   28.0480   -5.4270   24.7170 C   0  0  0  0  0  0
   27.1530   -6.2770   24.7890 O   0  0  0  0  0  0
   28.8400   -5.1270   25.7450 N   0  0  0  0  0  0
   28.9210   -4.2510   20.3520 N   0  0  0  0  0  0
   28.9600   -3.1970   19.3250 C   0  0  2  0  0  0
   28.0890   -3.5640   18.1140 C   0  0  0  0  0  0
   27.3490   -2.7350   17.6060 O   0  0  0  0  0  0
   30.4090   -2.8290   18.9270 C   0  0  2  0  0  0
   31.0270   -1.9730   20.0170 C   0  0  0  0  0  0
   30.4530   -2.0050   17.6610 C   0  0  0  0  0  0
   30.3470   -0.6010   20.1900 C   0  0  0  0  0  0
   28.1480   -4.8150   17.6760 N   0  0  0  0  0  0
   27.3210   -5.2520   16.5660 C   0  0  0  0  0  0
   25.8370   -5.1240   16.8530 C   0  0  0  0  0  0
   25.0460   -4.7500   15.9720 O   0  0  0  0  0  0
   28.9630   -7.0250   18.1790 C   0  0  0  0  0  0
   29.3100   -5.6930   17.6160 C   0  0  0  0  0  0
   25.4480   -5.4330   18.0870 N   0  0  0  0  0  0
   24.0570   -5.2430   18.4900 C   0  0  2  0  0  0
   23.7040   -3.7670   18.4700 C   0  0  0  0  0  0
   22.6060   -3.4140   18.0680 O   0  0  0  0  0  0
   23.7680   -5.8430   19.8670 C   0  0  0  0  0  0
   24.2690   -5.0330   20.9010 O   0  0  0  0  0  0
   24.6200   -2.9060   18.9100 N   0  0  0  0  0  0
   24.3740   -1.4510   18.8320 C   0  0  2  0  0  0
   24.0840   -0.9660   17.4010 C   0  0  0  0  0  0
   23.1800   -0.1260   17.1720 O   0  0  0  0  0  0
   25.5300   -0.6520   19.4670 C   0  0  0  0  0  0
   25.3260    0.8720   19.4770 C   0  0  0  0  0  0
   24.1350    1.2620   20.3680 C   0  0  0  0  0  0
   26.5920    1.6160   19.9460 C   0  0  0  0  0  0
   24.8240   -1.4850   16.4290 N   0  0  0  0  0  0
   24.5580   -1.1200   15.0250 C   0  0  2  0  0  0
   23.1550   -1.4820   14.5900 C   0  0  0  0  0  0
   22.5540   -0.7840   13.7770 O   0  0  0  0  0  0
   25.5450   -1.8150   14.0910 C   0  0  0  0  0  0
   26.7130   -0.9330   13.6740 C   0  0  0  0  0  0
   27.5810   -0.5890   14.8570 C   0  0  0  0  0  0
   27.5380   -1.6230   12.5940 C   0  0  0  0  0  0
   22.6330   -2.5910   15.1010 N   0  0  0  0  0  0
   21.2870   -2.9830   14.7270 C   0  0  2  0  0  0
   20.2710   -2.0330   15.3590 C   0  0  0  0  0  0
   19.2540   -1.6990   14.7430 O   0  0  0  0  0  0
   21.0210   -4.4430   15.1300 C   0  0  0  0  0  0
   22.0370   -5.4270   14.5790 C   0  0  0  0  0  0
   22.1340   -5.3030   13.1000 C   0  0  0  0  0  0
   20.7990   -5.2440   12.5120 N   0  0  0  0  0  0
   20.4790   -4.5710   11.4140 C   0  0  0  0  0  0
   21.4250   -3.9030   10.7560 N   0  0  0  0  0  0
   19.2100   -4.5750   10.9800 N   0  0  0  0  0  0
   20.5520   -1.5770   16.5780 N   0  0  0  0  0  0
   19.7090   -0.5670   17.2290 C   0  0  2  0  0  0
   19.7070    0.7430   16.4450 C   0  0  0  0  0  0
   18.6550    1.3320   16.1760 O   0  0  0  0  0  0
   20.1880   -0.3040   18.6890 C   0  0  0  0  0  0
   19.4090    0.8310   19.3300 C   0  0  0  0  0  0
   20.0560   -1.5740   19.5400 C   0  0  0  0  0  0
   20.8900    1.1890   16.0520 N   0  0  0  0  0  0
   21.0120    2.4580   15.3600 C   0  0  2  0  0  0
   20.3780    2.3210   13.9830 C   0  0  0  0  0  0
   19.7750    3.2610   13.4760 O   0  0  0  0  0  0
   22.4870    2.8760   15.2720 C   0  0  0  0  0  0
   23.0840    3.2520   16.6340 C   0  0  0  0  0  0
   24.6040    3.1880   16.6620 C   0  0  0  0  0  0
   25.2120    2.3230   16.0220 O   0  0  0  0  0  0
   25.2330    4.1110   17.4130 N   0  0  0  0  0  0
   20.4640    1.1290   13.4030 N   0  0  0  0  0  0
   19.8730    0.9080   12.0840 C   0  0  2  0  0  0
   18.3500    1.0030   12.1290 C   0  0  0  0  0  0
   17.7030    1.5830   11.2370 O   0  0  0  0  0  0
   20.3380   -0.4130   11.5080 C   0  0  0  0  0  0
   17.7560    0.4330   13.1670 N   0  0  0  0  0  0
   16.2940    0.4730   13.2710 C   0  0  2  0  0  0
   15.8320    1.8600   13.6220 C   0  0  0  0  0  0
   14.7580    2.2720   13.2110 O   0  0  0  0  0  0
   15.7680   -0.5710   14.2560 C   0  0  0  0  0  0
   15.7780   -1.9470   13.6840 C   0  0  0  0  0  0
   14.7770   -2.3950   12.8560 N   0  0  0  0  0  0
   16.6860   -2.9440   13.7760 C   0  0  0  0  0  0
   15.0550   -3.6330   12.4750 C   0  0  0  0  0  0
   16.1920   -3.9960   13.0320 N   0  0  0  0  0  0
   16.6450    2.5980   14.3720 N   0  0  0  0  0  0
   16.2990    3.9900   14.6560 C   0  0  2  0  0  0
   16.3280    4.8080   13.3590 C   0  0  0  0  0  0
   15.4630    5.6480   13.1330 O   0  0  0  0  0  0
   17.2150    4.6060   15.7530 C   0  0  2  0  0  0
   16.8560    4.0470   17.1240 C   0  0  0  0  0  0
   17.0930    6.1220   15.7910 C   0  0  0  0  0  0
   17.8570    4.4180   18.1910 C   0  0  0  0  0  0
   17.3100    4.5710   12.4950 N   0  0  0  0  0  0
   17.3760    5.3370   11.2590 C   0  0  2  0  0  0
   16.2420    4.9840   10.3210 C   0  0  0  0  0  0
   15.7460    5.8270    9.5700 O   0  0  0  0  0  0
   18.7470    5.1620   10.5780 C   0  0  0  0  0  0
   19.8910    5.8850   11.3070 C   0  0  0  0  0  0
   21.1090    6.0420   10.3980 C   0  0  0  0  0  0
   22.0990    6.9090   11.0280 N   0  0  0  0  0  0
   23.0360    6.4860   11.8700 C   0  0  0  0  0  0
   23.1240    5.1950   12.1530 N   0  0  0  0  0  0
   23.8780    7.3540   12.4280 N   0  0  0  0  0  0
   15.8480    3.7250   10.3620 N   0  0  0  0  0  0
   14.6740    3.2570    9.6330 C   0  0  2  0  0  0
   13.4080    3.9850   10.0720 C   0  0  0  0  0  0
   12.6180    4.3980    9.2390 O   0  0  0  0  0  0
   14.4870    1.7510    9.8620 C   0  0  0  0  0  0
   13.1620    1.2180    9.3230 C   0  0  0  0  0  0
   12.7960   -0.1440    9.9770 C   0  0  0  0  0  0
   12.3790    0.0340   11.4460 C   0  0  0  0  0  0
   12.1190   -1.2760   12.1220 N   0  3  0  0  0  0
   13.2080    4.1310   11.3800 N   0  0  0  0  0  0
   12.0550    4.8820   11.9040 C   0  0  2  0  0  0
   12.0480    6.3670   11.5110 C   0  0  0  0  0  0
   10.9740    6.9550   11.3540 O   0  0  0  0  0  0
   12.0020    4.7610   13.4350 C   0  0  0  0  0  0
   11.6910    3.3650   13.9600 C   0  0  0  0  0  0
   10.2070    3.0230   13.7690 C   0  0  0  0  0  0
   13.2290    6.9740   11.3630 N   0  0  0  0  0  0
   13.3300    8.3920   10.9770 C   0  0  2  0  0  0
   12.7380    8.5680    9.6070 C   0  0  0  0  0  0
   11.9480    9.4780    9.3500 O   0  0  0  0  0  0
   14.7910    8.8340   10.8710 C   0  0  0  0  0  0
   15.4950    9.1710   12.1620 C   0  0  0  0  0  0
   17.2520    9.4520   11.7900 S   0  0  0  0  0  0
   18.0170    8.5470   13.1330 C   0  0  0  0  0  0
   13.1550    7.6840    8.7140 N   0  0  0  0  0  0
   12.6190    7.6320    7.3650 C   0  0  2  0  0  0
   11.2090    7.0890    7.3940 C   0  0  0  0  0  0
   11.0110    5.8760    7.3710 O   0  0  0  0  0  0
   13.4440    6.6840    6.5160 C   0  0  0  0  0  0
   13.0050    6.7440    5.0880 C   0  0  0  0  0  0
   14.9110    7.0390    6.6370 C   0  0  0  0  0  0
   10.2320    7.8832    7.4420 O   0  0  0  0  0  0
   30.7043   -7.1116   19.3663 H   0  0  0  0  0  0
   28.5015   -9.3177   19.1932 H   0  0  0  0  0  0
   30.2527   -9.6645   19.3922 H   0  0  0  0  0  0
   28.9177   -9.8780   21.4372 H   0  0  0  0  0  0
   30.2628   -8.6920   21.5420 H   0  0  0  0  0  0
   29.7907   -6.5790   22.2587 H   0  0  0  0  0  0
   26.8745   -5.9291   22.3207 H   0  0  0  0  0  0
   29.3916   -4.4849   23.3564 H   0  0  0  0  0  0
   27.7670   -3.7260   23.4635 H   0  0  0  0  0  0
   29.6228   -4.3626   25.6314 H   0  0  0  0  0  0
   28.7113   -5.6436   26.7076 H   0  0  0  0  0  0
   29.8305   -4.8230   20.5879 H   0  0  0  0  0  0
   28.5103   -2.3184   19.8106 H   0  0  0  0  0  0
   30.9690   -3.7625   18.7690 H   0  0  0  0  0  0
   30.9539   -2.4978   20.9810 H   0  0  0  0  0  0
   32.0849   -1.7859   19.7807 H   0  0  0  0  0  0
   30.0145   -2.5813   16.8330 H   0  0  0  0  0  0
   31.4974   -1.7560   17.4217 H   0  0  0  0  0  0
   29.8791   -1.0780   17.8068 H   0  0  0  0  0  0
   30.8484   -0.0421   20.9939 H   0  0  0  0  0  0
   29.2881   -0.7468   20.4500 H   0  0  0  0  0  0
   30.4191   -0.0349   19.2496 H   0  0  0  0  0  0
   27.5456   -4.6416   15.6789 H   0  0  0  0  0  0
   27.5309   -6.3092   16.3463 H   0  0  0  0  0  0
   28.0328   -7.5247   17.8706 H   0  0  0  0  0  0
   29.6265   -5.8113   16.5692 H   0  0  0  0  0  0
   30.1321   -5.2537   18.2001 H   0  0  0  0  0  0
   26.1789   -5.8331   18.8051 H   0  0  0  0  0  0
   23.4657   -5.7845   17.7369 H   0  0  0  0  0  0
   22.6810   -5.9447   20.0018 H   0  0  0  0  0  0
   24.2410   -6.8333   19.9421 H   0  0  0  0  0  0
   24.1367   -5.3359   21.9502 H   0  0  0  0  0  0
   25.5631   -3.2825   19.3329 H   0  0  0  0  0  0
   23.4575   -1.3101   19.4238 H   0  0  0  0  0  0
   25.6588   -0.9630   20.5142 H   0  0  0  0  0  0
   26.4587   -0.8454   18.9102 H   0  0  0  0  0  0
   25.1118    1.1714   18.4404 H   0  0  0  0  0  0
   23.2341    0.7290   20.0299 H   0  0  0  0  0  0
   23.9663    2.3469   20.3003 H   0  0  0  0  0  0
   24.3527    0.9891   21.4111 H   0  0  0  0  0  0
   27.4411    1.3341   19.3061 H   0  0  0  0  0  0
   26.8123    1.3435   20.9887 H   0  0  0  0  0  0
   26.4259    2.7012   19.8779 H   0  0  0  0  0  0
   25.6355   -2.1872   16.6704 H   0  0  0  0  0  0
   24.6734   -0.0264   14.9981 H   0  0  0  0  0  0
   25.9641   -2.6996   14.5929 H   0  0  0  0  0  0
   25.0244   -2.1264   13.1734 H   0  0  0  0  0  0
   26.3101    0.0095   13.2749 H   0  0  0  0  0  0
   26.9719   -0.0924   15.6266 H   0  0  0  0  0  0
   28.3878    0.0862   14.5358 H   0  0  0  0  0  0
   28.0168   -1.5098   15.2720 H   0  0  0  0  0  0
   26.8911   -1.8673   11.7385 H   0  0  0  0  0  0
   27.9736   -2.5478   13.0002 H   0  0  0  0  0  0
   28.3446   -0.9518   12.2639 H   0  0  0  0  0  0
   23.2115   -3.2106   15.8020 H   0  0  0  0  0  0
   21.2373   -2.8913   13.6320 H   0  0  0  0  0  0
   21.0437   -4.5307   16.2263 H   0  0  0  0  0  0
   20.0331   -4.7520   14.7578 H   0  0  0  0  0  0
   23.0234   -5.2211   15.0201 H   0  0  0  0  0  0
   21.7291   -6.4523   14.8320 H   0  0  0  0  0  0
   22.6817   -4.3839   12.8443 H   0  0  0  0  0  0
   22.6690   -6.1738   12.6933 H   0  0  0  0  0  0
   19.9657   -5.7849   12.9842 H   0  0  0  0  0  0
   22.4611   -3.9099   11.1253 H   0  0  0  0  0  0
   18.4406   -5.1318   11.5351 H   0  0  0  0  0  0
   18.9385   -4.0215   10.0690 H   0  0  0  0  0  0
   21.4368   -1.9729   17.0979 H   0  0  0  0  0  0
   18.6973   -0.9985   17.2098 H   0  0  0  0  0  0
   21.2452   -0.0013   18.6647 H   0  0  0  0  0  0
   19.5084    1.7373   18.7146 H   0  0  0  0  0  0
   19.8068    1.0260   20.3368 H   0  0  0  0  0  0
   18.3475    0.5518   19.4029 H   0  0  0  0  0  0
   20.6226   -2.3911   19.0695 H   0  0  0  0  0  0
   18.9957   -1.8577   19.6133 H   0  0  0  0  0  0
   20.4551   -1.3836   20.5472 H   0  0  0  0  0  0
   21.7866    0.5852   16.2558 H   0  0  0  0  0  0
   20.4650    3.2096   15.9481 H   0  0  0  0  0  0
   23.0802    2.0440   14.8648 H   0  0  0  0  0  0
   22.5814    3.7510   14.6121 H   0  0  0  0  0  0
   22.7905    4.2803   16.8917 H   0  0  0  0  0  0
   22.7087    2.5602   17.4025 H   0  0  0  0  0  0
   24.6488    4.8617   17.9654 H   0  0  0  0  0  0
   26.3313    4.1147   17.4744 H   0  0  0  0  0  0
   20.9820    0.3068   13.9184 H   0  0  0  0  0  0
   20.2508    1.7210   11.4466 H   0  0  0  0  0  0
   21.4376   -0.4400   11.4936 H   0  0  0  0  0  0
   19.9551   -0.5209   10.4824 H   0  0  0  0  0  0
   19.9591   -1.2377   12.1295 H   0  0  0  0  0  0
   18.3494   -0.0671   13.9466 H   0  0  0  0  0  0
   15.9090    0.2269   12.2704 H   0  0  0  0  0  0
   16.3972   -0.5736   15.1583 H   0  0  0  0  0  0
   14.7319   -0.3254   14.5322 H   0  0  0  0  0  0
   17.6520   -3.0418   14.2930 H   0  0  0  0  0  0
   14.4456   -4.2475   11.8124 H   0  0  0  0  0  0
   17.5725    2.1680   14.7779 H   0  0  0  0  0  0
   15.2695    3.9565   15.0420 H   0  0  0  0  0  0
   18.2593    4.3511   15.5198 H   0  0  0  0  0  0
   15.8758    4.4381   17.4342 H   0  0  0  0  0  0
   16.8131    2.9490   17.0726 H   0  0  0  0  0  0
   17.3504    6.5354   14.8047 H   0  0  0  0  0  0
   17.7803    6.5263   16.5488 H   0  0  0  0  0  0
   16.0601    6.4004   16.0470 H   0  0  0  0  0  0
   17.5437    3.9870   19.1534 H   0  0  0  0  0  0
   17.9097    5.5132   18.2794 H   0  0  0  0  0  0
   18.8471    4.0241   17.9178 H   0  0  0  0  0  0
   18.0688    3.8035   12.7076 H   0  0  0  0  0  0
   17.2377    6.3834   11.5687 H   0  0  0  0  0  0
   19.0041    4.0931   10.5407 H   0  0  0  0  0  0
   18.7024    5.5643    9.5552 H   0  0  0  0  0  0
   19.5533    6.8843   11.6189 H   0  0  0  0  0  0
   20.1858    5.3043   12.1935 H   0  0  0  0  0  0
   21.5592    5.0552   10.2145 H   0  0  0  0  0  0
   20.7976    6.4866    9.4413 H   0  0  0  0  0  0
   22.0997    7.9882   10.8153 H   0  0  0  0  0  0
   22.4265    4.4816   11.6898 H   0  0  0  0  0  0
   23.8013    8.4252   12.1901 H   0  0  0  0  0  0
   24.6501    6.9997   13.1268 H   0  0  0  0  0  0
   16.4350    3.0206   10.9697 H   0  0  0  0  0  0
   14.8845    3.4909    8.5790 H   0  0  0  0  0  0
   15.2950    1.2004    9.3580 H   0  0  0  0  0  0
   14.5154    1.5378   10.9408 H   0  0  0  0  0  0
   12.3605    1.9389    9.5419 H   0  0  0  0  0  0
   13.2396    1.0752    8.2351 H   0  0  0  0  0  0
   11.9586   -0.6006    9.4291 H   0  0  0  0  0  0
   13.6673   -0.8144    9.9400 H   0  0  0  0  0  0
   13.1812    0.5488   11.9951 H   0  0  0  0  0  0
   11.4578    0.6331   11.4957 H   0  0  0  0  0  0
   11.8250   -1.0974   13.1668 H   0  0  0  0  0  0
   13.0322   -1.8887   12.0977 H   0  0  0  0  0  0
   11.3088   -1.8044   11.5982 H   0  0  0  0  0  0
   13.9288    3.6747   12.0745 H   0  0  0  0  0  0
   11.1934    4.3988   11.4200 H   0  0  0  0  0  0
   12.9755    5.0476   13.8594 H   0  0  0  0  0  0
   11.2201    5.4271   13.8286 H   0  0  0  0  0  0
   12.2962    2.6253   13.4155 H   0  0  0  0  0  0
   11.9290    3.3152   15.0328 H   0  0  0  0  0  0
   10.0110    2.0121   14.1558 H   0  0  0  0  0  0
    9.9568    3.0609   12.6985 H   0  0  0  0  0  0
    9.5897    3.7509   14.3158 H   0  0  0  0  0  0
   14.1416    6.3852   11.5377 H   0  0  0  0  0  0
   12.7867    8.9579   11.7481 H   0  0  0  0  0  0
   15.3844    8.0311   10.4093 H   0  0  0  0  0  0
   14.8558    9.7405   10.2513 H   0  0  0  0  0  0
   15.0497   10.0782   12.5965 H   0  0  0  0  0  0
   15.3861    8.3347   12.8682 H   0  0  0  0  0  0
   19.1112    8.6214   13.0488 H   0  0  0  0  0  0
   17.7162    7.4902   13.0812 H   0  0  0  0  0  0
   17.6934    8.9737   14.0938 H   0  0  0  0  0  0
   13.9350    6.9729    9.0237 H   0  0  0  0  0  0
   12.6541    8.6639    6.9856 H   0  0  0  0  0  0
   13.2902    5.6515    6.8629 H   0  0  0  0  0  0
   11.9384    6.4834    5.0211 H   0  0  0  0  0  0
   13.5947    6.0312    4.4929 H   0  0  0  0  0  0
   13.1589    7.7616    4.6995 H   0  0  0  0  0  0
   15.2144    6.9893    7.6932 H   0  0  0  0  0  0
   15.0743    8.0580    6.2562 H   0  0  0  0  0  0
   15.5100    6.3276    6.0495 H   0  0  0  0  0  0
    9.2046    7.4907    7.4632 H   0  0  0  0  0  0
  1  2  1  0  0  0
  1 26  2  0  0  0
  1143  1  0  0  0
  2  3  1  0  0  0
  2144  1  0  0  0
  2145  1  0  0  0
  3  4  1  0  0  0
  3146  1  0  0  0
  3147  1  0  0  0
  4  5  2  0  0  0
  4  6  1  0  0  0
  6  7  1  0  0  0
  6148  1  0  0  0
  7  8  1  0  0  0
  7 10  1  0  0  0
  7149  1  0  0  0
  8  9  2  0  0  0
  8 14  1  0  0  0
 10 11  1  0  0  0
 10150  1  0  0  0
 10151  1  0  0  0
 11 12  2  0  0  0
 11 13  1  0  0  0
 13152  1  0  0  0
 13153  1  0  0  0
 14 15  1  0  0  0
 14154  1  0  0  0
 15 16  1  0  0  0
 15 18  1  0  0  0
 15155  1  0  0  0
 16 17  2  0  0  0
 16 22  1  0  0  0
 18 19  1  0  0  0
 18 20  1  0  0  0
 18156  1  0  0  0
 19 21  1  0  0  0
 19157  1  0  0  0
 19158  1  0  0  0
 20159  1  0  0  0
 20160  1  0  0  0
 20161  1  0  0  0
 21162  1  0  0  0
 21163  1  0  0  0
 21164  1  0  0  0
 22 23  1  0  0  0
 22 27  1  0  0  0
 23 24  1  0  0  0
 23165  1  0  0  0
 23166  1  0  0  0
 24 25  2  0  0  0
 24 28  1  0  0  0
 26 27  1  0  0  0
 26167  1  0  0  0
 27168  1  0  0  0
 27169  1  0  0  0
 28 29  1  0  0  0
 28170  1  0  0  0
 29 30  1  0  0  0
 29 32  1  0  0  0
 29171  1  0  0  0
 30 31  2  0  0  0
 30 34  1  0  0  0
 32 33  1  0  0  0
 32172  1  0  0  0
 32173  1  0  0  0
 33174  1  0  0  0
 34 35  1  0  0  0
 34175  1  0  0  0
 35 36  1  0  0  0
 35 38  1  0  0  0
 35176  1  0  0  0
 36 37  2  0  0  0
 36 42  1  0  0  0
 38 39  1  0  0  0
 38177  1  0  0  0
 38178  1  0  0  0
 39 40  1  0  0  0
 39 41  1  0  0  0
 39179  1  0  0  0
 40180  1  0  0  0
 40181  1  0  0  0
 40182  1  0  0  0
 41183  1  0  0  0
 41184  1  0  0  0
 41185  1  0  0  0
 42 43  1  0  0  0
 42186  1  0  0  0
 43 44  1  0  0  0
 43 46  1  0  0  0
 43187  1  0  0  0
 44 45  2  0  0  0
 44 50  1  0  0  0
 46 47  1  0  0  0
 46188  1  0  0  0
 46189  1  0  0  0
 47 48  1  0  0  0
 47 49  1  0  0  0
 47190  1  0  0  0
 48191  1  0  0  0
 48192  1  0  0  0
 48193  1  0  0  0
 49194  1  0  0  0
 49195  1  0  0  0
 49196  1  0  0  0
 50 51  1  0  0  0
 50197  1  0  0  0
 51 52  1  0  0  0
 51 54  1  0  0  0
 51198  1  0  0  0
 52 53  2  0  0  0
 52 61  1  0  0  0
 54 55  1  0  0  0
 54199  1  0  0  0
 54200  1  0  0  0
 55 56  1  0  0  0
 55201  1  0  0  0
 55202  1  0  0  0
 56 57  1  0  0  0
 56203  1  0  0  0
 56204  1  0  0  0
 57 58  1  0  0  0
 57205  1  0  0  0
 58 59  2  0  0  0
 58 60  1  0  0  0
 59206  1  0  0  0
 60207  1  0  0  0
 60208  1  0  0  0
 61 62  1  0  0  0
 61209  1  0  0  0
 62 63  1  0  0  0
 62 65  1  0  0  0
 62210  1  0  0  0
 63 64  2  0  0  0
 63 68  1  0  0  0
 65 66  1  0  0  0
 65 67  1  0  0  0
 65211  1  0  0  0
 66212  1  0  0  0
 66213  1  0  0  0
 66214  1  0  0  0
 67215  1  0  0  0
 67216  1  0  0  0
 67217  1  0  0  0
 68 69  1  0  0  0
 68218  1  0  0  0
 69 70  1  0  0  0
 69 72  1  0  0  0
 69219  1  0  0  0
 70 71  2  0  0  0
 70 77  1  0  0  0
 72 73  1  0  0  0
 72220  1  0  0  0
 72221  1  0  0  0
 73 74  1  0  0  0
 73222  1  0  0  0
 73223  1  0  0  0
 74 75  2  0  0  0
 74 76  1  0  0  0
 76224  1  0  0  0
 76225  1  0  0  0
 77 78  1  0  0  0
 77226  1  0  0  0
 78 79  1  0  0  0
 78 81  1  0  0  0
 78227  1  0  0  0
 79 80  2  0  0  0
 79 82  1  0  0  0
 81228  1  0  0  0
 81229  1  0  0  0
 81230  1  0  0  0
 82 83  1  0  0  0
 82231  1  0  0  0
 83 84  1  0  0  0
 83 86  1  0  0  0
 83232  1  0  0  0
 84 85  2  0  0  0
 84 92  1  0  0  0
 86 87  1  0  0  0
 86233  1  0  0  0
 86234  1  0  0  0
 87 88  2  0  0  0
 87 89  1  0  0  0
 88 90  1  0  0  0
 89 91  2  0  0  0
 89235  1  0  0  0
 90 91  1  0  0  0
 90236  1  0  0  0
 92 93  1  0  0  0
 92237  1  0  0  0
 93 94  1  0  0  0
 93 96  1  0  0  0
 93238  1  0  0  0
 94 95  2  0  0  0
 94100  1  0  0  0
 96 97  1  0  0  0
 96 98  1  0  0  0
 96239  1  0  0  0
 97 99  1  0  0  0
 97240  1  0  0  0
 97241  1  0  0  0
 98242  1  0  0  0
 98243  1  0  0  0
 98244  1  0  0  0
 99245  1  0  0  0
 99246  1  0  0  0
 99247  1  0  0  0
100101  1  0  0  0
100248  1  0  0  0
101102  1  0  0  0
101104  1  0  0  0
101249  1  0  0  0
102103  2  0  0  0
102111  1  0  0  0
104105  1  0  0  0
104250  1  0  0  0
104251  1  0  0  0
105106  1  0  0  0
105252  1  0  0  0
105253  1  0  0  0
106107  1  0  0  0
106254  1  0  0  0
106255  1  0  0  0
107108  1  0  0  0
107256  1  0  0  0
108109  2  0  0  0
108110  1  0  0  0
109257  1  0  0  0
110258  1  0  0  0
110259  1  0  0  0
111112  1  0  0  0
111260  1  0  0  0
112113  1  0  0  0
112115  1  0  0  0
112261  1  0  0  0
113114  2  0  0  0
113120  1  0  0  0
115116  1  0  0  0
115262  1  0  0  0
115263  1  0  0  0
116117  1  0  0  0
116264  1  0  0  0
116265  1  0  0  0
117118  1  0  0  0
117266  1  0  0  0
117267  1  0  0  0
118119  1  0  0  0
118268  1  0  0  0
118269  1  0  0  0
119270  1  0  0  0
119271  1  0  0  0
119272  1  0  0  0
120121  1  0  0  0
120273  1  0  0  0
121122  1  0  0  0
121124  1  0  0  0
121274  1  0  0  0
122123  2  0  0  0
122127  1  0  0  0
124125  1  0  0  0
124275  1  0  0  0
124276  1  0  0  0
125126  1  0  0  0
125277  1  0  0  0
125278  1  0  0  0
126279  1  0  0  0
126280  1  0  0  0
126281  1  0  0  0
127128  1  0  0  0
127282  1  0  0  0
128129  1  0  0  0
128131  1  0  0  0
128283  1  0  0  0
129130  2  0  0  0
129135  1  0  0  0
131132  1  0  0  0
131284  1  0  0  0
131285  1  0  0  0
132133  1  0  0  0
132286  1  0  0  0
132287  1  0  0  0
133134  1  0  0  0
134288  1  0  0  0
134289  1  0  0  0
134290  1  0  0  0
135136  1  0  0  0
135291  1  0  0  0
136137  1  0  0  0
136139  1  0  0  0
136292  1  0  0  0
137138  2  0  0  0
137142  1  0  0  0
139140  1  0  0  0
139141  1  0  0  0
139293  1  0  0  0
140294  1  0  0  0
140295  1  0  0  0
140296  1  0  0  0
141297  1  0  0  0
141298  1  0  0  0
141299  1  0  0  0
142300  1  0  0  0
M  CHG  1 119   1
M  END
> <s_m_source_file>
../4mzl_ligand.sdf

> <i_m_source_file_index>
1

> <s_epik_input>
Tz1DKFtOSDJdKVtDSDJdW0NASF0oW05IXTEpQyg9TylbTkhdW0NAQEhdKFtDQEBIXShbQ0gzXSlbQ0gyXVtDSDNdKUMoPU8pTihbQ0gyXVxbQ0hdPVtDSF1cW0NIMl1bQ0gyXUMxPU8pW0NIMl1DKD1PKVtOSF1bQ0BASF0oW0NIMl1bT0hdKUMoPU8pW05IXVtDQEBIXShbQ0gyXVtDSF0oW0NIM10pW0NIM10pQyg9TylbTkhdW0NAQEhdKFtDSDJdW0NIXShbQ0gzXSlbQ0gzXSlDKD1PKVtOSF1bQ0BASF0oW0NIMl1bQ0gyXVtDSDJdW05IXS9DKD1OXFtIXSlbTkgyXSlDKD1PKVtOSF1bQ0BASF0oW0NIXShbQ0gzXSlbQ0gzXSlDKD1PKVtOSF1bQ0BASF0oW0NIMl1bQ0gyXUMoPU8pW05IMl0pQyg9TylbTkhdW0NAQEhdKFtDSDNdKUMoPU8pW05IXVtDQEBIXShbQ0gyXUMyPU5bQ0gyXU49W0NIXTIpQyg9TylbTkhdW0NAQEhdKFtDQEBIXShbQ0gzXSlbQ0gyXVtDSDNdKUMoPU8pW05IXVtDQEBIXShbQ0gyXVtDSDJdW0NIMl1bTkhdL0MoPU5cW0hdKVtOSDJdKUMoPU8pW05IXVtDQEBIXShbQ0gyXVtDSDJdW0NIMl1bQ0gyXVtOSDMrXSlDKD1PKVtOSF1bQ0BASF0oW0NIMl1bQ0gyXVtDSDNdKUMoPU8pW05IXVtDQEBIXShbQ0gyXVtDSDJdU1tDSDNdKUMoPU8pW05IXVtDQEhdKEMoPU8pW09IXSlbQ0hdKFtDSDNdKVtDSDNd

> <s_epik_cmdline>
J2VwaWtfYXBwJywgJy1pbWFlJywgJ2xpZ2FuZF9wcm8ubWFlJywgJy1vbWFlJywgJ2xpZ2FuZF9wcmVwLm1hZScsICctbXMnLCAnMScsICctcGgnLCAnNycsICctcGh0JywgJzAuNScsICctbnQn

> <s_epik_pKa_notes>
Molecule size exceeds maximum supported for generating protonation states

> <s_epik_Chemistry_Notes>
This compound has an imine and may undergo hydrolysis.

$$$$
