4mzo_ligand
                    3D
 Schrodinger Suite 2020-3.
 52 54  0  0  1  0            999 V2000
  -18.5130  -19.3590  -30.0530 S   0  0  0  0  0  0
  -18.8780  -17.7700  -29.9160 N   0  0  1  0  0  0
  -18.0320  -15.6120  -30.6950 C   0  0  2  0  0  0
  -18.9880  -16.1990  -31.7600 C   0  0  1  0  0  0
  -16.7260  -15.1340  -31.2210 C   0  0  0  0  0  0
  -17.7270  -16.8240  -29.8150 C   0  0  0  0  0  0
  -19.8330  -17.1500  -30.8700 C   0  0  0  0  0  0
  -15.9290  -14.2650  -30.5660 N   0  0  0  0  0  0
  -19.8310  -15.1570  -32.4290 C   0  0  0  0  0  0
  -22.7040  -14.0120  -35.6410 N   0  0  0  0  0  0
  -19.7650  -20.0140  -30.0050 O   0  0  0  0  0  0
  -17.5970  -19.3170  -31.1540 O   0  0  0  0  0  0
  -17.6850  -19.7410  -28.5460 C   0  0  0  0  0  0
  -22.0240  -14.6020  -34.7070 C   0  0  0  0  0  0
  -16.4260  -15.5310  -32.3250 O   0  0  0  0  0  0
  -20.2680  -14.1530  -31.8180 O   0  0  0  0  0  0
  -19.9470  -15.3190  -33.7800 N   0  0  0  0  0  0
  -14.8530  -11.7980  -29.9170 O   0  0  0  0  0  0
  -14.6140  -13.8700  -31.2580 C   0  0  0  0  0  0
  -16.2340  -13.7360  -29.1880 C   0  0  0  0  0  0
  -20.5700  -14.4420  -34.7010 C   0  0  0  0  0  0
  -16.0410  -12.2140  -29.2080 C   0  0  0  0  0  0
  -14.6200  -12.3150  -31.2350 C   0  0  0  0  0  0
  -18.4860  -19.7950  -27.4040 C   0  0  0  0  0  0
  -16.3020  -19.9280  -28.5330 C   0  0  0  0  0  0
  -15.6810  -20.1780  -27.3260 C   0  0  0  0  0  0
  -17.8700  -20.0710  -26.1900 C   0  0  0  0  0  0
  -16.4830  -20.2520  -26.1900 C   0  0  0  0  0  0
  -18.4721  -14.7243  -30.2172 H   0  0  0  0  0  0
  -18.4933  -16.6572  -32.6291 H   0  0  0  0  0  0
  -17.6006  -16.5108  -28.7681 H   0  0  0  0  0  0
  -16.8103  -17.3236  -30.1615 H   0  0  0  0  0  0
  -20.3132  -17.9362  -31.4711 H   0  0  0  0  0  0
  -20.6011  -16.5950  -30.3114 H   0  0  0  0  0  0
  -22.1857  -13.4101  -36.4020 H   0  0  0  0  0  0
  -22.5136  -15.2104  -33.9323 H   0  0  0  0  0  0
  -19.5281  -16.2132  -34.2647 H   0  0  0  0  0  0
  -13.7647  -14.2870  -30.6969 H   0  0  0  0  0  0
  -14.6059  -14.2668  -32.2839 H   0  0  0  0  0  0
  -17.2724  -13.9828  -28.9221 H   0  0  0  0  0  0
  -15.5499  -14.1952  -28.4592 H   0  0  0  0  0  0
  -20.0951  -13.7044  -35.3647 H   0  0  0  0  0  0
  -15.9827  -11.8737  -28.1636 H   0  0  0  0  0  0
  -16.9275  -11.7739  -29.6881 H   0  0  0  0  0  0
  -15.4131  -11.9645  -31.9118 H   0  0  0  0  0  0
  -13.6441  -11.9623  -31.6000 H   0  0  0  0  0  0
  -19.5612  -19.6259  -27.4631 H   0  0  0  0  0  0
  -15.7247  -19.8777  -29.4562 H   0  0  0  0  0  0
  -14.6011  -20.3127  -27.2642 H   0  0  0  0  0  0
  -18.4478  -20.1441  -25.2687 H   0  0  0  0  0  0
  -15.9977  -20.4651  -25.2376 H   0  0  0  0  0  0
  -23.7989  -14.1136  -35.6720 H   0  0  0  0  0  0
  1  2  1  0  0  0
  1 11  2  0  0  0
  1 12  2  0  0  0
  1 13  1  0  0  0
  2  6  1  0  0  0
  2  7  1  0  0  0
  3  4  1  0  0  0
  3  5  1  0  0  0
  3  6  1  0  0  0
  3 29  1  0  0  0
  4  7  1  0  0  0
  4  9  1  0  0  0
  4 30  1  0  0  0
  5  8  1  0  0  0
  5 15  2  0  0  0
  6 31  1  0  0  0
  6 32  1  0  0  0
  7 33  1  0  0  0
  7 34  1  0  0  0
  8 19  1  0  0  0
  8 20  1  0  0  0
  9 16  2  0  0  0
  9 17  1  0  0  0
 10 14  1  0  0  0
 10 35  1  0  0  0
 10 52  1  0  0  0
 13 24  2  0  0  0
 13 25  1  0  0  0
 14 21  2  0  0  0
 14 36  1  0  0  0
 17 21  1  0  0  0
 17 37  1  0  0  0
 18 22  1  0  0  0
 18 23  1  0  0  0
 19 23  1  0  0  0
 19 38  1  0  0  0
 19 39  1  0  0  0
 20 22  1  0  0  0
 20 40  1  0  0  0
 20 41  1  0  0  0
 21 42  1  0  0  0
 22 43  1  0  0  0
 22 44  1  0  0  0
 23 45  1  0  0  0
 23 46  1  0  0  0
 24 27  1  0  0  0
 24 47  1  0  0  0
 25 26  2  0  0  0
 25 48  1  0  0  0
 26 28  1  0  0  0
 26 49  1  0  0  0
 27 28  2  0  0  0
 27 50  1  0  0  0
 28 51  1  0  0  0
M  END
> <s_m_source_file>
../4mzo_ligand.sdf

> <i_m_source_file_index>
1

> <s_epik_input>
W2NIXTFbY0hdW2NIXVtjSF1bY0hdYzFTKD1PKSg9TylOMltDSDJdW0NASF0oW0NAQEhdKFtDSDJdMilDKD1PKVtOSF1bQ0gyXS9bQ0hdPU5cW0hdKUMoPU8pTjNbQ0gyXVtDSDJdT1tDSDJdW0NIMl0z

> <s_epik_cmdline>
J2VwaWtfYXBwJywgJy1pbWFlJywgJ2xpZ2FuZF9wcm8ubWFlJywgJy1vbWFlJywgJ2xpZ2FuZF9wcmVwLm1hZScsICctbXMnLCAnMScsICctcGgnLCAnNycsICctcGh0JywgJzAuNScsICctbnQn

> <r_lp_tautomer_probability>
1

> <r_epik_Ionization_Penalty>
  0.0002

> <r_epik_Ionization_Penalty_Charging>
  0.0002

> <r_epik_Ionization_Penalty_Neutral>
  0.0000

> <r_epik_State_Penalty>
 -0.0000

> <r_epik_Charging_Adjusted_Penalty>
0.000204902453240367

> <i_epik_Tot_Q>
0

> <i_epik_Tot_abs_Q>
0

> <s_epik_Chemistry_Notes>
This compound has an imine and may undergo hydrolysis.

$$$$
