4mzs_ligand
                    3D
 Schrodinger Suite 2020-3.
 52 54  0  0  1  0            999 V2000
   -4.8730    0.2590  -17.8520 S   0  0  0  0  0  0
   -5.1340   -1.2910  -18.3990 N   0  0  1  0  0  0
   -5.8420   -3.4870  -17.6620 C   0  0  2  0  0  0
   -7.0420   -2.5790  -18.0460 C   0  0  1  0  0  0
   -6.0270   -4.2470  -16.3610 C   0  0  0  0  0  0
   -3.1040    0.4550  -17.8410 C   0  0  0  0  0  0
   -4.6730   -2.4700  -17.6290 C   0  0  0  0  0  0
   -6.3670   -1.6920  -19.0930 C   0  0  0  0  0  0
   -5.2810   -5.3610  -16.0670 N   0  0  0  0  0  0
   -8.2030   -3.3510  -18.6290 C   0  0  0  0  0  0
  -12.4370   -3.3280  -20.1730 N   0  0  0  0  0  0
   -5.4450    1.1430  -18.8090 O   0  0  0  0  0  0
   -5.3000    0.2270  -16.5040 O   0  0  0  0  0  0
  -11.2330   -2.9850  -19.8550 C   0  0  0  0  0  0
   -2.3180    0.5830  -18.9980 C   0  0  0  0  0  0
   -6.9020   -3.8840  -15.5890 O   0  0  0  0  0  0
   -8.0300   -4.2340  -19.4650 O   0  0  0  0  0  0
   -9.4420   -2.9830  -18.2230 N   0  0  0  0  0  0
   -4.4660   -7.9760  -15.8110 O   0  0  0  0  0  0
   -2.9890    0.5580  -20.5820 Cl  0  0  0  0  0  0
   -2.4480    0.4190  -16.6230 C   0  0  0  0  0  0
   -4.1870   -5.8670  -16.9400 C   0  0  0  0  0  0
   -5.4890   -6.0650  -14.7760 C   0  0  0  0  0  0
  -10.6470   -3.6630  -18.6930 C   0  0  0  0  0  0
   -5.6020   -7.5720  -15.0410 C   0  0  0  0  0  0
   -4.3110   -7.3910  -17.1090 C   0  0  0  0  0  0
   -0.9350    0.7050  -18.9340 C   0  0  0  0  0  0
   -1.0680    0.5620  -16.5640 C   0  0  0  0  0  0
   -0.3020    0.6910  -17.7060 C   0  0  0  0  0  0
   -5.6855   -4.3308  -18.3501 H   0  0  0  0  0  0
   -7.5208   -2.0473  -17.2105 H   0  0  0  0  0  0
   -3.7710   -2.8865  -18.1012 H   0  0  0  0  0  0
   -4.4400   -2.1662  -16.5978 H   0  0  0  0  0  0
   -6.9542   -0.7964  -19.3442 H   0  0  0  0  0  0
   -6.1092   -2.2322  -20.0159 H   0  0  0  0  0  0
  -12.9656   -4.0909  -19.5827 H   0  0  0  0  0  0
  -10.6501   -2.2301  -20.4030 H   0  0  0  0  0  0
   -9.5642   -2.1480  -17.5174 H   0  0  0  0  0  0
   -3.0178    0.2776  -15.7046 H   0  0  0  0  0  0
   -4.2540   -5.3868  -17.9274 H   0  0  0  0  0  0
   -3.2145   -5.6315  -16.4830 H   0  0  0  0  0  0
   -4.6361   -5.8686  -14.1097 H   0  0  0  0  0  0
   -6.4139   -5.7010  -14.3047 H   0  0  0  0  0  0
  -11.1215   -4.5688  -18.2877 H   0  0  0  0  0  0
   -6.5221   -7.7893  -15.6033 H   0  0  0  0  0  0
   -5.6149   -8.1236  -14.0894 H   0  0  0  0  0  0
   -3.4050   -7.7926  -17.5864 H   0  0  0  0  0  0
   -5.1885   -7.6319  -17.7270 H   0  0  0  0  0  0
   -0.3521    0.8113  -19.8489 H   0  0  0  0  0  0
   -0.5765    0.5727  -15.5911 H   0  0  0  0  0  0
    0.7823    0.7802  -17.6397 H   0  0  0  0  0  0
  -12.9337   -2.8572  -21.0341 H   0  0  0  0  0  0
  1  2  1  0  0  0
  1  6  1  0  0  0
  1 12  2  0  0  0
  1 13  2  0  0  0
  2  7  1  0  0  0
  2  8  1  0  0  0
  3  4  1  0  0  0
  3  5  1  0  0  0
  3  7  1  0  0  0
  3 30  1  0  0  0
  4  8  1  0  0  0
  4 10  1  0  0  0
  4 31  1  0  0  0
  5  9  1  0  0  0
  5 16  2  0  0  0
  6 15  2  0  0  0
  6 21  1  0  0  0
  7 32  1  0  0  0
  7 33  1  0  0  0
  8 34  1  0  0  0
  8 35  1  0  0  0
  9 22  1  0  0  0
  9 23  1  0  0  0
 10 17  2  0  0  0
 10 18  1  0  0  0
 11 14  1  0  0  0
 11 36  1  0  0  0
 11 52  1  0  0  0
 14 24  2  0  0  0
 14 37  1  0  0  0
 15 20  1  0  0  0
 15 27  1  0  0  0
 18 24  1  0  0  0
 18 38  1  0  0  0
 19 25  1  0  0  0
 19 26  1  0  0  0
 21 28  2  0  0  0
 21 39  1  0  0  0
 22 26  1  0  0  0
 22 40  1  0  0  0
 22 41  1  0  0  0
 23 25  1  0  0  0
 23 42  1  0  0  0
 23 43  1  0  0  0
 24 44  1  0  0  0
 25 45  1  0  0  0
 25 46  1  0  0  0
 26 47  1  0  0  0
 26 48  1  0  0  0
 27 29  2  0  0  0
 27 49  1  0  0  0
 28 29  1  0  0  0
 28 50  1  0  0  0
 29 51  1  0  0  0
M  END
> <s_m_source_file>
../4mzs_ligand.sdf

> <i_m_source_file_index>
1

> <s_epik_input>
W2NIXTFbY0hdW2NIXVtjSF1jKENsKWMxUyg9TykoPU8pTjJbQ0gyXVtDQEhdKFtDQEBIXShbQ0gyXTIpQyg9TylbTkhdW0NIMl0vW0NIXT1OXFtIXSlDKD1PKU4zW0NIMl1bQ0gyXU9bQ0gyXVtDSDJdMw==

> <s_epik_cmdline>
J2VwaWtfYXBwJywgJy1pbWFlJywgJ2xpZ2FuZF9wcm8ubWFlJywgJy1vbWFlJywgJ2xpZ2FuZF9wcmVwLm1hZScsICctbXMnLCAnMScsICctcGgnLCAnNycsICctcGh0JywgJzAuNScsICctbnQn

> <r_lp_tautomer_probability>
1

> <r_epik_Ionization_Penalty>
  0.0002

> <r_epik_Ionization_Penalty_Charging>
  0.0002

> <r_epik_Ionization_Penalty_Neutral>
  0.0000

> <r_epik_State_Penalty>
 -0.0000

> <r_epik_Charging_Adjusted_Penalty>
0.000203883916135311

> <i_epik_Tot_Q>
0

> <i_epik_Tot_abs_Q>
0

> <s_epik_Chemistry_Notes>
This compound has an imine and may undergo hydrolysis.

$$$$
