4n00_ligand
                    3D
 Schrodinger Suite 2020-3.
 48 52  0  0  1  0            999 V2000
   27.6130   17.0160    9.9950 C   0  0  0  0  0  0
   28.5940   17.6570    9.1870 C   0  0  0  0  0  0
   29.1120   18.9080    9.6160 C   0  0  0  0  0  0
   28.6120   19.4820   10.8160 C   0  0  0  0  0  0
   27.6640   18.8850   11.5690 N   0  0  0  0  0  0
   27.1780   17.6880   11.1680 C   0  0  0  0  0  0
   27.0790   15.7830    9.5460 C   0  0  0  0  0  0
   27.9290   14.7110    9.1580 C   0  0  0  0  0  0
   27.3670   13.5060    8.6700 C   0  0  0  0  0  0
   25.9610   13.3680    8.5470 C   0  0  0  0  0  0
   25.1000   14.4270    8.9380 C   0  0  0  0  0  0
   25.6680   15.6320    9.4230 C   0  0  0  0  0  0
   25.4630   12.1740    8.0810 O   0  0  0  0  0  0
   24.1320   12.1150    7.5820 C   0  0  2  0  0  0
   23.1620   12.8220    8.5550 C   0  0  1  0  0  0
   23.5710   14.2920    8.7970 C   0  0  1  0  0  0
   23.7260   10.6320    7.4370 C   0  0  0  0  0  0
   22.2430   10.5430    7.0040 C   0  0  0  0  0  0
   21.4150   11.2270    7.9470 O   0  0  0  0  0  0
   21.6920   12.6270    8.0940 C   0  0  0  0  0  0
   22.8280   14.8520    9.9280 N   0  3  0  0  0  0
   22.1570   15.8900    9.5460 C   0  0  0  0  0  0
   22.3130   16.2030    8.2300 N   0  0  0  0  0  0
   23.1480   15.2780    7.6870 C   0  0  0  0  0  0
   23.5380   15.2160    6.5160 O   0  0  0  0  0  0
   21.3200   16.6680   10.3210 N   0  0  0  0  0  0
   21.6930   17.3150    7.5020 C   0  0  0  0  0  0
   26.2430   17.1320   11.9580 F   0  0  0  0  0  0
   28.9397   17.1984    8.2605 H   0  0  0  0  0  0
   29.8797   19.4189    9.0349 H   0  0  0  0  0  0
   29.0100   20.4431   11.1415 H   0  0  0  0  0  0
   29.0111   14.8165    9.2360 H   0  0  0  0  0  0
   28.0192   12.6797    8.3873 H   0  0  0  0  0  0
   25.0140   16.4567    9.7065 H   0  0  0  0  0  0
   24.1648   12.6377    6.6147 H   0  0  0  0  0  0
   23.2376   12.3499    9.5457 H   0  0  0  0  0  0
   24.3593   10.1511    6.6770 H   0  0  0  0  0  0
   23.8577   10.1198    8.4015 H   0  0  0  0  0  0
   22.1217   11.0064    6.0138 H   0  0  0  0  0  0
   21.9382    9.4872    6.9545 H   0  0  0  0  0  0
   21.0123   13.0571    8.8444 H   0  0  0  0  0  0
   21.5402   13.1328    7.1290 H   0  0  0  0  0  0
   22.7787   14.5202   10.9756 H   0  0  0  0  0  0
   21.1800   16.4323   11.3863 H   0  0  0  0  0  0
   21.0678   17.9013    8.1914 H   0  0  0  0  0  0
   21.0684   16.9177    6.6884 H   0  0  0  0  0  0
   22.4779   17.9600    7.0802 H   0  0  0  0  0  0
   20.7932   17.5235    9.8731 H   0  0  0  0  0  0
  1  2  2  0  0  0
  1  6  1  0  0  0
  1  7  1  0  0  0
  2  3  1  0  0  0
  2 29  1  0  0  0
  3  4  2  0  0  0
  3 30  1  0  0  0
  4  5  1  0  0  0
  4 31  1  0  0  0
  5  6  2  0  0  0
  6 28  1  0  0  0
  7  8  2  0  0  0
  7 12  1  0  0  0
  8  9  1  0  0  0
  8 32  1  0  0  0
  9 10  2  0  0  0
  9 33  1  0  0  0
 10 11  1  0  0  0
 10 13  1  0  0  0
 11 12  2  0  0  0
 11 16  1  0  0  0
 12 34  1  0  0  0
 13 14  1  0  0  0
 14 15  1  0  0  0
 14 17  1  0  0  0
 14 35  1  0  0  0
 15 16  1  0  0  0
 15 20  1  0  0  0
 15 36  1  0  0  0
 16 21  1  0  0  0
 16 24  1  0  0  0
 17 18  1  0  0  0
 17 37  1  0  0  0
 17 38  1  0  0  0
 18 19  1  0  0  0
 18 39  1  0  0  0
 18 40  1  0  0  0
 19 20  1  0  0  0
 20 41  1  0  0  0
 20 42  1  0  0  0
 21 22  2  0  0  0
 21 43  1  0  0  0
 22 23  1  0  0  0
 22 26  1  0  0  0
 23 24  1  0  0  0
 23 27  1  0  0  0
 24 25  2  0  0  0
 26 44  1  0  0  0
 26 48  1  0  0  0
 27 45  1  0  0  0
 27 46  1  0  0  0
 27 47  1  0  0  0
M  CHG  1  21   1
M  END
> <s_m_source_file>
../4n00_ligand.sdf

> <i_m_source_file_index>
1

> <s_epik_input>
RmMxbltjSF1bY0hdW2NIXWMxLWMoW2NIXTIpW2NIXVtjSF1jKGMyW0NAXTM0W05IXS9DKD1OL1tIXSlOKEM0PU8pW0NIM10pT1tDQEBIXTVbQ0BASF0zW0NIMl1PW0NIMl1bQ0gyXTU=

> <s_epik_cmdline>
J2VwaWtfYXBwJywgJy1pbWFlJywgJ2xpZ2FuZF9wcm8ubWFlJywgJy1vbWFlJywgJ2xpZ2FuZF9wcmVwLm1hZScsICctbXMnLCAnMScsICctcGgnLCAnNycsICctcGh0JywgJzAuNScsICctbnQn

> <r_lp_tautomer_probability>
1

> <r_epik_Ionization_Penalty>
  0.4963

> <r_epik_Ionization_Penalty_Charging>
  0.4963

> <r_epik_Ionization_Penalty_Neutral>
  0.0000

> <r_epik_State_Penalty>
  0.3490

> <r_epik_Charging_Adjusted_Penalty>
0.845300567536376

> <i_epik_Tot_Q>
1

> <i_epik_Tot_abs_Q>
1

> <s_epik_Chemistry_Notes>
This compound has an imine and may undergo hydrolysis.

$$$$
