4n07_ligand
                    3D
 Schrodinger Suite 2020-3.
 27 29  0  0  1  0            999 V2000
    5.1010   -1.3990   43.5440 C   0  0  0  0  0  0
    6.0740   -2.3840   42.8900 C   0  0  0  0  0  0
    4.6010   -2.7790   43.1110 C   0  0  0  0  0  0
    3.5560   -3.0070   42.0460 N   0  0  0  0  0  0
    4.0160   -4.0210   41.0710 C   0  0  0  0  0  0
    3.5070   -3.7250   39.7030 N   0  0  3  0  0  0
    1.8630   -3.8130   39.6760 S   0  0  0  0  0  0
    1.4130   -5.2670   39.7860 O   0  0  0  0  0  0
    1.3320   -3.1550   38.4170 O   0  0  0  0  0  0
    1.3180   -2.9660   41.1100 C   0  0  0  0  0  0
    2.2450   -2.6600   42.1510 C   0  0  0  0  0  0
    1.7920   -1.9940   43.3040 C   0  0  0  0  0  0
    0.4450   -1.6380   43.4190 C   0  0  0  0  0  0
   -0.4540   -1.9520   42.3960 C   0  0  0  0  0  0
   -1.7590   -1.5970   42.5490 F   0  0  0  0  0  0
   -0.0490   -2.6310   41.2280 C   0  0  0  0  0  0
    5.4594   -1.1445   44.5523 H   0  0  0  0  0  0
    5.0399   -0.4850   42.9350 H   0  0  0  0  0  0
    6.4789   -1.9417   41.9678 H   0  0  0  0  0  0
    6.8984   -2.6012   43.5851 H   0  0  0  0  0  0
    4.0894   -3.6318   43.5812 H   0  0  0  0  0  0
    5.1156   -4.0289   41.0415 H   0  0  0  0  0  0
    3.6502   -5.0132   41.3737 H   0  0  0  0  0  0
    4.1899   -3.3329   38.9350 H   0  0  0  0  0  0
    2.4900   -1.7558   44.1066 H   0  0  0  0  0  0
    0.0951   -1.1143   44.3086 H   0  0  0  0  0  0
   -0.7638   -2.8875   40.4461 H   0  0  0  0  0  0
  1  2  1  0  0  0
  1  3  1  0  0  0
  1 17  1  0  0  0
  1 18  1  0  0  0
  2  3  1  0  0  0
  2 19  1  0  0  0
  2 20  1  0  0  0
  3  4  1  0  0  0
  3 21  1  0  0  0
  4  5  1  0  0  0
  4 11  1  0  0  0
  5  6  1  0  0  0
  5 22  1  0  0  0
  5 23  1  0  0  0
  6  7  1  0  0  0
  6 24  1  0  0  0
  7  8  2  0  0  0
  7  9  2  0  0  0
  7 10  1  0  0  0
 10 11  2  0  0  0
 10 16  1  0  0  0
 11 12  1  0  0  0
 12 13  2  0  0  0
 12 25  1  0  0  0
 13 14  1  0  0  0
 13 26  1  0  0  0
 14 15  1  0  0  0
 14 16  2  0  0  0
 16 27  1  0  0  0
M  END
> <s_m_source_file>
../4n07_ligand.sdf

> <i_m_source_file_index>
1

> <s_epik_input>
Tz1TMSg9TylbTkhdW0NIMl1OKFtDSF0yW0NIMl1bQ0gyXTIpYyhjMTMpW2NIXVtjSF1jKEYpW2NIXTM=

> <s_epik_cmdline>
J2VwaWtfYXBwJywgJy1pbWFlJywgJ2xpZ2FuZF9wcm8ubWFlJywgJy1vbWFlJywgJ2xpZ2FuZF9wcmVwLm1hZScsICctbXMnLCAnMScsICctcGgnLCAnNycsICctcGh0JywgJzAuNScsICctbnQn

> <r_lp_tautomer_probability>
1

> <r_epik_Ionization_Penalty>
  0.0004

> <r_epik_Ionization_Penalty_Charging>
  0.0000

> <r_epik_Ionization_Penalty_Neutral>
  0.0004

> <r_epik_State_Penalty>
 -0.0000

> <r_epik_Charging_Adjusted_Penalty>
0

> <i_epik_Tot_Q>
0

> <i_epik_Tot_abs_Q>
0

> <s_epik_Chemistry_Notes>
This compound contains an acetal/aminal-like group ( X-CH(R)-Y where X, Y are N, S, or O) that may be acid/base labile, releasing an aldehyde.

$$$$
