4n1b_ligand
                    3D
 Schrodinger Suite 2020-3.
 59 63  0  0  1  0            999 V2000
   16.1620  -23.8440  -32.8680 C   0  0  0  0  0  0
   17.3630  -24.2600  -33.6590 C   0  0  1  0  0  0
   17.6200  -25.7520  -33.5600 C   0  0  0  0  0  0
   18.8170  -26.0890  -34.4110 C   0  0  0  0  0  0
   18.4680  -25.7790  -35.8450 C   0  0  0  0  0  0
   18.2590  -24.2890  -36.0010 C   0  0  0  0  0  0
   15.8210  -24.0860  -35.6470 C   0  0  0  0  0  0
   15.1940  -25.0650  -35.2670 O   0  0  0  0  0  0
   14.8460  -21.0070  -35.8380 C   0  0  0  0  0  0
   13.0630  -22.4180  -36.8840 C   0  0  0  0  0  0
   11.7450  -22.5990  -37.2390 C   0  0  0  0  0  0
   10.8070  -21.6320  -36.9660 C   0  0  0  0  0  0
   11.1840  -20.4720  -36.3330 C   0  0  0  0  0  0
   12.4970  -20.2840  -35.9750 C   0  0  0  0  0  0
   14.5300  -26.0650  -39.0250 C   0  0  0  0  0  0
   15.7940  -26.7910  -39.2780 C   0  0  0  0  0  0
   16.0170  -28.1460  -39.3230 C   0  0  0  0  0  0
   17.3020  -28.5840  -39.5810 C   0  0  0  0  0  0
   18.3380  -27.6900  -39.7880 C   0  0  0  0  0  0
   18.1120  -26.3300  -39.7420 C   0  0  0  0  0  0
   15.4070  -24.9040  -32.4690 O   0  5  0  0  0  0
   15.8930  -22.6750  -32.6220 O   0  0  0  0  0  0
   17.1810  -23.7570  -35.0810 C   0  0  1  0  0  0
   15.3430  -23.2210  -36.6230 N   0  0  0  0  0  0
   15.7450  -21.8370  -36.7160 C   0  0  0  0  0  0
   13.4360  -21.2520  -36.2460 C   0  0  0  0  0  0
   14.0480  -23.4930  -37.2050 C   0  0  2  0  0  0
   14.1500  -23.6040  -38.7120 C   0  0  0  0  0  0
   14.9890  -24.6970  -39.1190 N   0  0  0  0  0  0
   16.8260  -25.9240  -39.4850 C   0  0  0  0  0  0
   16.3350  -24.5600  -39.3860 C   0  0  0  0  0  0
   17.0360  -23.5670  -39.5190 O   0  0  0  0  0  0
   18.2665  -23.8002  -33.2321 H   0  0  0  0  0  0
   17.8170  -26.0214  -32.5118 H   0  0  0  0  0  0
   16.7372  -26.3008  -33.9199 H   0  0  0  0  0  0
   19.6776  -25.4842  -34.0892 H   0  0  0  0  0  0
   19.0571  -27.1567  -34.2997 H   0  0  0  0  0  0
   19.2886  -26.1053  -36.5008 H   0  0  0  0  0  0
   17.5450  -26.3100  -36.1208 H   0  0  0  0  0  0
   19.1953  -23.7610  -35.7674 H   0  0  0  0  0  0
   17.9613  -24.0669  -37.0364 H   0  0  0  0  0  0
   14.9899  -21.2977  -34.7869 H   0  0  0  0  0  0
   15.0942  -19.9425  -35.9612 H   0  0  0  0  0  0
   11.4426  -23.5179  -37.7413 H   0  0  0  0  0  0
    9.7661  -21.7850  -37.2511 H   0  0  0  0  0  0
   10.4430  -19.7028  -36.1154 H   0  0  0  0  0  0
   12.7961  -19.3634  -35.4738 H   0  0  0  0  0  0
   13.7905  -26.3380  -39.7922 H   0  0  0  0  0  0
   14.1442  -26.3357  -38.0311 H   0  0  0  0  0  0
   15.2047  -28.8543  -39.1601 H   0  0  0  0  0  0
   17.5036  -29.6544  -39.6223 H   0  0  0  0  0  0
   19.3418  -28.0640  -39.9892 H   0  0  0  0  0  0
   18.9162  -25.6119  -39.9021 H   0  0  0  0  0  0
   17.2613  -22.6611  -35.0296 H   0  0  0  0  0  0
   15.6584  -21.4942  -37.7576 H   0  0  0  0  0  0
   16.7869  -21.7293  -36.3799 H   0  0  0  0  0  0
   13.7324  -24.4398  -36.7423 H   0  0  0  0  0  0
   13.1481  -23.7654  -39.1364 H   0  0  0  0  0  0
   14.5758  -22.6755  -39.1201 H   0  0  0  0  0  0
  1  2  1  0  0  0
  1 21  1  0  0  0
  1 22  2  0  0  0
  2  3  1  0  0  0
  2 23  1  0  0  0
  2 33  1  0  0  0
  3  4  1  0  0  0
  3 34  1  0  0  0
  3 35  1  0  0  0
  4  5  1  0  0  0
  4 36  1  0  0  0
  4 37  1  0  0  0
  5  6  1  0  0  0
  5 38  1  0  0  0
  5 39  1  0  0  0
  6 23  1  0  0  0
  6 40  1  0  0  0
  6 41  1  0  0  0
  7  8  2  0  0  0
  7 23  1  0  0  0
  7 24  1  0  0  0
  9 25  1  0  0  0
  9 26  1  0  0  0
  9 42  1  0  0  0
  9 43  1  0  0  0
 10 11  2  0  0  0
 10 26  1  0  0  0
 10 27  1  0  0  0
 11 12  1  0  0  0
 11 44  1  0  0  0
 12 13  2  0  0  0
 12 45  1  0  0  0
 13 14  1  0  0  0
 13 46  1  0  0  0
 14 26  2  0  0  0
 14 47  1  0  0  0
 15 16  1  0  0  0
 15 29  1  0  0  0
 15 48  1  0  0  0
 15 49  1  0  0  0
 16 17  2  0  0  0
 16 30  1  0  0  0
 17 18  1  0  0  0
 17 50  1  0  0  0
 18 19  2  0  0  0
 18 51  1  0  0  0
 19 20  1  0  0  0
 19 52  1  0  0  0
 20 30  2  0  0  0
 20 53  1  0  0  0
 23 54  1  0  0  0
 24 25  1  0  0  0
 24 27  1  0  0  0
 25 55  1  0  0  0
 25 56  1  0  0  0
 27 28  1  0  0  0
 27 57  1  0  0  0
 28 29  1  0  0  0
 28 58  1  0  0  0
 28 59  1  0  0  0
 29 31  1  0  0  0
 30 31  1  0  0  0
 31 32  2  0  0  0
M  CHG  1  21  -1
M  END
> <s_m_source_file>
../4n1b_ligand.sdf

> <i_m_source_file_index>
1

> <s_epik_input>
W09IXUMoPU8pW0NASF0xW0NIMl1bQ0gyXVtDSDJdW0NIMl1bQ0BIXTFDKD1PKU4oW0NIMl1bQ0gyXWMoYzIzKVtjSF1bY0hdW2NIXVtjSF0yKVtDQEBIXTNbQ0gyXU4oW0NIMl00KUMoPU8pYyhjNDUpW2NIXVtjSF1bY0hdW2NIXTU=

> <s_epik_cmdline>
J2VwaWtfYXBwJywgJy1pbWFlJywgJ2xpZ2FuZF9wcm8ubWFlJywgJy1vbWFlJywgJ2xpZ2FuZF9wcmVwLm1hZScsICctbXMnLCAnMScsICctcGgnLCAnNycsICctcGh0JywgJzAuNScsICctbnQn

> <r_lp_tautomer_probability>
1

> <r_epik_Ionization_Penalty>
  0.0053

> <r_epik_Ionization_Penalty_Charging>
  0.0053

> <r_epik_Ionization_Penalty_Neutral>
  0.0000

> <r_epik_State_Penalty>
 -0.0000

> <r_epik_Charging_Adjusted_Penalty>
0.00534134557948159

> <i_epik_Tot_Q>
-1

> <i_epik_Tot_abs_Q>
1

$$$$
