4n1t_ligand
                    3D
 Schrodinger Suite 2020-3.
 27 28  0  0  1  0            999 V2000
   16.2810  -10.7210    2.6500 C   0  0  0  0  0  0
   17.4760  -13.1170    5.7870 N   0  0  0  0  0  0
   17.0860  -12.2500    4.7540 C   0  0  0  0  0  0
   15.7540  -12.1010    4.4600 N   0  0  0  0  0  0
   15.3470  -11.2810    3.4220 C   0  0  0  0  0  0
   13.8890  -11.2650    3.1270 C   0  0  0  0  0  0
   13.4250  -11.6570    1.9000 C   0  0  0  0  0  0
   12.0300  -11.7020    1.6790 C   0  0  0  0  0  0
   11.1680  -11.3390    2.6560 C   0  0  0  0  0  0
   11.6610  -10.9470    3.8460 C   0  0  0  0  0  0
   10.6300  -10.5160    5.1210 Cl  0  0  0  0  0  0
   13.0310  -10.9050    4.0990 C   0  0  0  0  0  0
   13.5790  -10.3550    5.6010 Cl  0  0  0  0  0  0
   17.6680  -10.8520    3.0430 C   0  0  0  0  0  0
   18.6820  -10.2420    2.2580 N   0  0  0  0  0  0
   18.3850   -9.4420    1.0840 C   0  0  0  0  0  0
   18.0250  -11.5950    4.0700 N   0  0  0  0  0  0
   16.0059  -10.1783    1.7456 H   0  0  0  0  0  0
   16.7150  -13.6653    6.3616 H   0  0  0  0  0  0
   18.5426  -13.2480    6.0218 H   0  0  0  0  0  0
   14.1205  -11.9300    1.1063 H   0  0  0  0  0  0
   11.6457  -12.0318    0.7138 H   0  0  0  0  0  0
   10.0921  -11.3634    2.4829 H   0  0  0  0  0  0
   19.7258  -10.3947    2.5698 H   0  0  0  0  0  0
   19.3238   -9.0761    0.6425 H   0  0  0  0  0  0
   17.7575   -8.5859    1.3728 H   0  0  0  0  0  0
   17.8486  -10.0576    0.3469 H   0  0  0  0  0  0
  1  5  2  0  0  0
  1 14  1  0  0  0
  1 18  1  0  0  0
  2  3  1  0  0  0
  2 19  1  0  0  0
  2 20  1  0  0  0
  3  4  2  0  0  0
  3 17  1  0  0  0
  4  5  1  0  0  0
  5  6  1  0  0  0
  6  7  2  0  0  0
  6 12  1  0  0  0
  7  8  1  0  0  0
  7 21  1  0  0  0
  8  9  2  0  0  0
  8 22  1  0  0  0
  9 10  1  0  0  0
  9 23  1  0  0  0
 10 11  1  0  0  0
 10 12  2  0  0  0
 12 13  1  0  0  0
 14 15  1  0  0  0
 14 17  2  0  0  0
 15 16  1  0  0  0
 15 24  1  0  0  0
 16 25  1  0  0  0
 16 26  1  0  0  0
 16 27  1  0  0  0
M  END
> <s_m_source_file>
../4n1t_ligand.sdf

> <i_m_source_file_index>
1

> <s_epik_input>
W0NIM11bTkhdYyhuMSlbY0hdYyhuYzFbTkgyXSktYzJbY0hdW2NIXVtjSF1jKENsKWMyQ2w=

> <s_epik_cmdline>
J2VwaWtfYXBwJywgJy1pbWFlJywgJ2xpZ2FuZF9wcm8ubWFlJywgJy1vbWFlJywgJ2xpZ2FuZF9wcmVwLm1hZScsICctbXMnLCAnMScsICctcGgnLCAnNycsICctcGh0JywgJzAuNScsICctbnQn

> <r_lp_tautomer_probability>
0.999999624730965

> <r_epik_Ionization_Penalty>
  0.3948

> <r_epik_Ionization_Penalty_Charging>
  0.0000

> <r_epik_Ionization_Penalty_Neutral>
  0.3948

> <r_epik_State_Penalty>
  0.3254

> <r_epik_Charging_Adjusted_Penalty>
0.325405103867304

> <i_epik_Tot_Q>
0

> <i_epik_Tot_abs_Q>
0

$$$$
