4n1u_ligand
                    3D
 Schrodinger Suite 2020-3.
 29 31  0  0  1  0            999 V2000
    0.7230   75.9940   15.3760 C   0  0  0  0  0  0
    2.3590   74.5480   18.9490 C   0  0  0  0  0  0
    3.0900   78.0900   12.8540 N   0  0  0  0  0  0
    2.2970   77.3640   13.7310 C   0  0  0  0  0  0
    0.9890   77.3550   13.4910 N   0  0  0  0  0  0
    0.1560   76.6970   14.3020 C   0  0  0  0  0  0
   -1.2910   76.6320   13.9570 C   0  0  0  0  0  0
   -1.6140   76.2800   12.6400 C   0  0  0  0  0  0
   -2.9530   76.2180   12.2390 C   0  0  0  0  0  0
   -3.9700   76.3920   13.1580 C   0  0  0  0  0  0
   -3.6250   76.7000   14.4600 C   0  0  0  0  0  0
   -4.7740   76.9150   15.7370 Cl  0  0  0  0  0  0
   -2.3030   76.7930   14.8440 C   0  0  0  0  0  0
   -1.9500   77.2090   16.4700 Cl  0  0  0  0  0  0
    2.1090   76.0330   15.5950 C   0  0  0  0  0  0
    2.7200   75.3710   16.6990 N   0  0  0  0  0  0
    1.9420   74.4540   17.5190 C   0  0  0  0  0  0
    1.0900   75.1910   18.5110 C   0  0  0  0  0  0
    2.8870   76.6840   14.7340 N   0  0  0  0  0  0
    0.0844   75.4151   16.0431 H   0  0  0  0  0  0
    2.6737   74.6125   20.0010 H   0  0  0  0  0  0
    2.6264   78.6513   12.0293 H   0  0  0  0  0  0
    4.1823   78.1043   12.9834 H   0  0  0  0  0  0
   -0.8212   76.0542   11.9269 H   0  0  0  0  0  0
   -3.1959   76.0309   11.1930 H   0  0  0  0  0  0
   -5.0146   76.2892   12.8642 H   0  0  0  0  0  0
    3.7796   75.5530   16.9316 H   0  0  0  0  0  0
    1.7845   73.6514   16.7834 H   0  0  0  0  0  0
    0.4669   75.7307   19.2394 H   0  0  0  0  0  0
  1  6  2  0  0  0
  1 15  1  0  0  0
  1 20  1  0  0  0
  2 17  1  0  0  0
  2 18  2  0  0  0
  2 21  1  0  0  0
  3  4  1  0  0  0
  3 22  1  0  0  0
  3 23  1  0  0  0
  4  5  2  0  0  0
  4 19  1  0  0  0
  5  6  1  0  0  0
  6  7  1  0  0  0
  7  8  2  0  0  0
  7 13  1  0  0  0
  8  9  1  0  0  0
  8 24  1  0  0  0
  9 10  2  0  0  0
  9 25  1  0  0  0
 10 11  1  0  0  0
 10 26  1  0  0  0
 11 12  1  0  0  0
 11 13  2  0  0  0
 13 14  1  0  0  0
 15 16  1  0  0  0
 15 19  2  0  0  0
 16 17  1  0  0  0
 16 27  1  0  0  0
 17 18  1  0  0  0
 17 28  1  0  0  0
 18 29  1  0  0  0
M  END
> <s_m_source_file>
../4n1u_ligand.sdf

> <i_m_source_file_index>
1

> <s_epik_input>
W0NIXTE9W0NIXVtDSF0xW05IXWMobjIpW2NIXWMobmMyW05IMl0pLWMzW2NIXVtjSF1bY0hdYyhDbCljM0Ns

> <s_epik_cmdline>
J2VwaWtfYXBwJywgJy1pbWFlJywgJ2xpZ2FuZF9wcm8ubWFlJywgJy1vbWFlJywgJ2xpZ2FuZF9wcmVwLm1hZScsICctbXMnLCAnMScsICctcGgnLCAnNycsICctcGh0JywgJzAuNScsICctbnQn

> <r_lp_tautomer_probability>
0.999999624730965

> <r_epik_Ionization_Penalty>
  0.4501

> <r_epik_Ionization_Penalty_Charging>
  0.0000

> <r_epik_Ionization_Penalty_Neutral>
  0.4501

> <r_epik_State_Penalty>
  0.3641

> <r_epik_Charging_Adjusted_Penalty>
0.364064734377756

> <i_epik_Tot_Q>
0

> <i_epik_Tot_abs_Q>
0

$$$$
