4n1z_ligand
                    3D
 Schrodinger Suite 2020-3.
 48 48  0  0  1  0            999 V2000
   24.2110   19.9300    3.7370 C   0  0  0  0  0  0
   33.0840   16.1030   10.2860 O   0  5  0  0  0  0
   35.8500   14.3920    6.3310 O   0  5  0  0  0  0
   34.9570   17.6990    7.2840 O   0  0  0  0  0  0
   35.3440   16.4880   10.4230 O   0  0  0  0  0  0
   33.6740   18.3110    9.2140 O   0  5  0  0  0  0
   36.4030   16.3990    6.4680 O   0  0  0  0  0  0
   37.2330   15.3010    8.6140 O   0  0  0  0  0  0
   32.5580   13.9990    8.4590 C   0  0  0  0  0  0
   31.3090   13.8940    8.9350 C   0  0  0  0  0  0
   31.3530   15.6260    7.6390 C   0  0  0  0  0  0
   24.4760   19.5590    5.2470 C   0  0  0  0  0  0
   25.2750   18.2740    5.3910 C   0  0  0  0  0  0
   26.6210   18.5000    6.1190 C   0  0  0  0  0  0
   27.3930   17.1720    6.1580 C   0  0  0  0  0  0
   27.9350   16.8550    7.5400 C   0  0  0  0  0  0
   28.4840   15.4440    7.5040 C   0  0  0  0  0  0
   29.2410   15.1360    8.7560 C   0  0  0  0  0  0
   33.6760   15.4710    6.9830 C   0  0  0  0  0  0
   32.5580   15.0610    7.6730 N   0  0  0  0  0  0
   30.6010   14.8810    8.4340 N   0  3  0  0  0  0
   34.6640   16.2960    7.8440 C   0  0  2  0  0  0
   34.1790   16.8140    9.5000 P   0  0  0  0  0  0
   36.1180   15.4130    7.5840 P   0  0  0  0  0  0
   23.6317   20.8637    3.6851 H   0  0  0  0  0  0
   23.6448   19.1198    3.2543 H   0  0  0  0  0  0
   25.1717   20.0653    3.2186 H   0  0  0  0  0  0
   34.1828   18.4794    7.3228 H   0  0  0  0  0  0
   38.1381   14.7199    8.3837 H   0  0  0  0  0  0
   33.4008   13.3427    8.6760 H   0  0  0  0  0  0
   30.9452   13.1256    9.6171 H   0  0  0  0  0  0
   31.0510   16.5104    7.0781 H   0  0  0  0  0  0
   25.0422   20.3692    5.7297 H   0  0  0  0  0  0
   23.5153   19.4238    5.7654 H   0  0  0  0  0  0
   24.6922   17.5429    5.9705 H   0  0  0  0  0  0
   25.4912   17.8630    4.3939 H   0  0  0  0  0  0
   27.2082   19.2564    5.5776 H   0  0  0  0  0  0
   26.4292   18.8495    7.1442 H   0  0  0  0  0  0
   26.7249   16.3506    5.8597 H   0  0  0  0  0  0
   28.2447   17.2224    5.4637 H   0  0  0  0  0  0
   28.7314   17.5699    7.7944 H   0  0  0  0  0  0
   27.1235   16.9320    8.2787 H   0  0  0  0  0  0
   27.6531   14.7296    7.4075 H   0  0  0  0  0  0
   29.1619   15.3361    6.6445 H   0  0  0  0  0  0
   29.1803   15.9941    9.4416 H   0  0  0  0  0  0
   28.8052   14.2491    9.2392 H   0  0  0  0  0  0
   34.2198   14.5907    6.6096 H   0  0  0  0  0  0
   33.3724   16.1015    6.1343 H   0  0  0  0  0  0
  1 12  1  0  0  0
  1 25  1  0  0  0
  1 26  1  0  0  0
  1 27  1  0  0  0
  2 23  1  0  0  0
  3 24  1  0  0  0
  4 22  1  0  0  0
  4 28  1  0  0  0
  5 23  2  0  0  0
  6 23  1  0  0  0
  7 24  2  0  0  0
  8 24  1  0  0  0
  8 29  1  0  0  0
  9 10  2  0  0  0
  9 20  1  0  0  0
  9 30  1  0  0  0
 10 21  1  0  0  0
 10 31  1  0  0  0
 11 20  1  0  0  0
 11 21  2  0  0  0
 11 32  1  0  0  0
 12 13  1  0  0  0
 12 33  1  0  0  0
 12 34  1  0  0  0
 13 14  1  0  0  0
 13 35  1  0  0  0
 13 36  1  0  0  0
 14 15  1  0  0  0
 14 37  1  0  0  0
 14 38  1  0  0  0
 15 16  1  0  0  0
 15 39  1  0  0  0
 15 40  1  0  0  0
 16 17  1  0  0  0
 16 41  1  0  0  0
 16 42  1  0  0  0
 17 18  1  0  0  0
 17 43  1  0  0  0
 17 44  1  0  0  0
 18 21  1  0  0  0
 18 45  1  0  0  0
 18 46  1  0  0  0
 19 20  1  0  0  0
 19 22  1  0  0  0
 19 47  1  0  0  0
 19 48  1  0  0  0
 22 23  1  0  0  0
 22 24  1  0  0  0
M  CHG  4   2  -1   3  -1   6  -1  21   1
M  END
> <s_m_source_file>
../4n1z_ligand.sdf

> <i_m_source_file_index>
1

> <s_epik_input>
W0NIM11bQ0gyXVtDSDJdW0NIMl1bQ0gyXVtDSDJdW0NIMl1bQ0gyXVtuK10oW2NIXTEpW2NIXVtjSF1uMVtDSDJdQyhbT0hdKShQKD1PKShbT0hdKVtPSF0pUCg9TykoW09IXSlbT0hd

> <s_epik_cmdline>
J2VwaWtfYXBwJywgJy1pbWFlJywgJ2xpZ2FuZF9wcm8ubWFlJywgJy1vbWFlJywgJ2xpZ2FuZF9wcmVwLm1hZScsICctbXMnLCAnMScsICctcGgnLCAnNycsICctcGh0JywgJzAuNScsICctbnQn

> <r_lp_tautomer_probability>
1

> <r_epik_Ionization_Penalty>
  0.1153

> <r_epik_Ionization_Penalty_Charging>
  0.1152

> <r_epik_Ionization_Penalty_Neutral>
  0.0001

> <r_epik_State_Penalty>
  0.1048

> <r_epik_Charging_Adjusted_Penalty>
0.220073125570439

> <i_epik_Tot_Q>
-2

> <i_epik_Tot_abs_Q>
4

$$$$
