4n3r_ligand
                    3D
 Schrodinger Suite 2020-3.
 56 60  0  0  1  0            999 V2000
  -11.0590   39.7610   27.7340 C   0  0  0  0  0  0
  -11.8950   38.5990   27.9180 C   0  0  0  0  0  0
  -12.9990   38.5640   28.7990 C   0  0  0  0  0  0
  -13.7390   37.4010   28.8920 N   0  0  0  0  0  0
  -13.3900   36.2520   28.1460 C   0  0  0  0  0  0
  -14.0400   35.0670   28.1930 N   0  0  0  0  0  0
  -12.3300   36.2190   27.2730 N   0  0  0  0  0  0
  -11.5530   37.3340   27.1280 C   0  0  0  0  0  0
  -10.4370   37.3510   26.1980 C   0  0  0  0  0  0
   -9.6230   38.5580   26.0370 C   0  0  0  0  0  0
   -9.9150   39.7960   26.8010 C   0  0  0  0  0  0
   -9.0870   41.0460   26.7250 C   0  0  0  0  0  0
   -7.6450   40.9380   26.7830 C   0  0  0  0  0  0
   -9.6630   42.3760   26.6490 C   0  0  0  0  0  0
   -8.8960   43.5800   26.6340 C   0  0  0  0  0  0
   -7.4850   43.4410   26.6930 C   0  0  0  0  0  0
   -6.9090   44.6370   26.6440 F   0  0  0  0  0  0
   -6.8250   42.1170   26.7710 C   0  0  0  0  0  0
   -5.3620   41.8830   26.8720 C   0  0  0  0  0  0
   -4.7020   40.9490   26.4150 O   0  0  0  0  0  0
   -4.8030   42.9080   27.5900 N   0  0  0  0  0  0
   -3.5010   42.8600   27.9140 C   0  0  0  0  0  0
   -3.0500   41.8240   28.7920 C   0  0  0  0  0  0
   -2.6330   43.8180   27.3180 C   0  0  0  0  0  0
   -1.2090   43.7600   27.5900 C   0  0  0  0  0  0
   -0.7310   42.6890   28.4920 C   0  0  0  0  0  0
   -1.6600   41.7540   29.0640 C   0  0  0  0  0  0
   -1.2310   40.7630   29.8490 N   0  0  0  0  0  0
    0.0330   40.2510   29.9060 C   0  0  0  0  0  0
    0.2060   39.2230   30.4730 O   0  0  0  0  0  0
    1.1190   41.0560   29.2630 C   0  0  0  0  0  0
    0.7680   42.5390   28.8590 C   0  0  0  0  0  0
    1.0790   43.5720   30.0130 C   0  0  0  0  0  0
    1.6510   42.7760   27.5810 C   0  0  0  0  0  0
  -11.2832   40.6572   28.3125 H   0  0  0  0  0  0
  -13.2620   39.4384   29.3943 H   0  0  0  0  0  0
  -14.9128   34.9442   28.8511 H   0  0  0  0  0  0
  -13.6959   34.2260   27.5731 H   0  0  0  0  0  0
  -10.2038   36.4594   25.6160 H   0  0  0  0  0  0
   -8.7844   38.5465   25.3407 H   0  0  0  0  0  0
   -7.1778   39.9546   26.8362 H   0  0  0  0  0  0
  -10.7486   42.4609   26.6004 H   0  0  0  0  0  0
   -9.3715   44.5593   26.5798 H   0  0  0  0  0  0
   -5.4206   43.7646   27.8979 H   0  0  0  0  0  0
   -3.7490   41.1148   29.2354 H   0  0  0  0  0  0
   -3.0354   44.5898   26.6618 H   0  0  0  0  0  0
   -0.5183   44.4775   27.1471 H   0  0  0  0  0  0
   -1.9276   40.2705   30.5434 H   0  0  0  0  0  0
    1.9749   41.1317   29.9498 H   0  0  0  0  0  0
    1.4381   40.5640   28.3323 H   0  0  0  0  0  0
    0.4346   43.3595   30.8788 H   0  0  0  0  0  0
    0.8847   44.5932   29.6532 H   0  0  0  0  0  0
    2.1342   43.4826   30.3105 H   0  0  0  0  0  0
    1.3928   42.0313   26.8137 H   0  0  0  0  0  0
    2.7139   42.6760   27.8460 H   0  0  0  0  0  0
    1.4644   43.7866   27.1887 H   0  0  0  0  0  0
  1  2  2  0  0  0
  1 11  1  0  0  0
  1 35  1  0  0  0
  2  3  1  0  0  0
  2  8  1  0  0  0
  3  4  2  0  0  0
  3 36  1  0  0  0
  4  5  1  0  0  0
  5  6  1  0  0  0
  5  7  2  0  0  0
  6 37  1  0  0  0
  6 38  1  0  0  0
  7  8  1  0  0  0
  8  9  2  0  0  0
  9 10  1  0  0  0
  9 39  1  0  0  0
 10 11  2  0  0  0
 10 40  1  0  0  0
 11 12  1  0  0  0
 12 13  2  0  0  0
 12 14  1  0  0  0
 13 18  1  0  0  0
 13 41  1  0  0  0
 14 15  2  0  0  0
 14 42  1  0  0  0
 15 16  1  0  0  0
 15 43  1  0  0  0
 16 17  1  0  0  0
 16 18  2  0  0  0
 18 19  1  0  0  0
 19 20  2  0  0  0
 19 21  1  0  0  0
 21 22  1  0  0  0
 21 44  1  0  0  0
 22 23  2  0  0  0
 22 24  1  0  0  0
 23 27  1  0  0  0
 23 45  1  0  0  0
 24 25  2  0  0  0
 24 46  1  0  0  0
 25 26  1  0  0  0
 25 47  1  0  0  0
 26 27  2  0  0  0
 26 32  1  0  0  0
 27 28  1  0  0  0
 28 29  1  0  0  0
 28 48  1  0  0  0
 29 30  2  0  0  0
 29 31  1  0  0  0
 31 32  1  0  0  0
 31 49  1  0  0  0
 31 50  1  0  0  0
 32 33  1  0  0  0
 32 34  1  0  0  0
 33 51  1  0  0  0
 33 52  1  0  0  0
 33 53  1  0  0  0
 34 54  1  0  0  0
 34 55  1  0  0  0
 34 56  1  0  0  0
M  END
> <s_m_source_file>
../4n3r_ligand.sdf

> <i_m_source_file_index>
1

> <s_epik_input>
W2NIXTFuYyhbTkgyXSluYyhjMTIpW2NIXVtjSF1jKFtjSF0yKS1jM1tjSF1jKGMoRilbY0hdW2NIXTMpQyg9TylbTkhdYyhbY0hdW2NIXTQpW2NIXWMoYzQ1KVtOSF1DKD1PKVtDSDJdQzUoW0NIM10pW0NIM10=

> <s_epik_cmdline>
J2VwaWtfYXBwJywgJy1pbWFlJywgJ2xpZ2FuZF9wcm8ubWFlJywgJy1vbWFlJywgJ2xpZ2FuZF9wcmVwLm1hZScsICctbXMnLCAnMScsICctcGgnLCAnNycsICctcGh0JywgJzAuNScsICctbnQn

> <r_lp_tautomer_probability>
1

> <r_epik_Ionization_Penalty>
  0.0025

> <r_epik_Ionization_Penalty_Charging>
  0.0000

> <r_epik_Ionization_Penalty_Neutral>
  0.0025

> <r_epik_State_Penalty>
 -0.0000

> <r_epik_Charging_Adjusted_Penalty>
0

> <i_epik_Tot_Q>
0

> <i_epik_Tot_abs_Q>
0

$$$$
