4n3w_ligand
                    3D
 Schrodinger Suite 2020-3.
109109  0  0  1  0            999 V2000
   22.5820   23.6250    5.9630 N   0  3  0  0  0  0
   22.5600   22.3120    6.6940 C   0  0  2  0  0  0
   23.9380   21.9240    7.2050 C   0  0  0  0  0  0
   24.9130   21.9130    6.4760 O   0  0  0  0  0  0
   22.0500   21.1730    5.8280 C   0  0  0  0  0  0
   21.6520   19.9820    6.6940 C   0  0  0  0  0  0
   22.0350   18.6440    6.1010 C   0  0  0  0  0  0
   21.1110   17.5950    6.5330 N   0  0  0  0  0  0
   20.9590   16.4260    5.9150 C   0  0  0  0  0  0
   21.6870   16.1260    4.8360 N   0  0  0  0  0  0
   20.0790   15.5430    6.3770 N   0  3  0  0  0  0
   24.0250   21.5890    8.4710 N   0  0  0  0  0  0
   25.3380   21.4310    9.0800 C   0  0  2  0  0  0
   25.9780   20.0950    8.7740 C   0  0  0  0  0  0
   25.3280   19.2200    8.2210 O   0  0  0  0  0  0
   25.2330   21.7560   10.5550 C   0  0  0  0  0  0
   25.0060   23.2120   10.7710 C   0  0  0  0  0  0
   23.7910   23.8110   10.5170 N   0  0  0  0  0  0
   25.8650   24.2090   11.0960 C   0  0  0  0  0  0
   23.8980   25.1090   10.7190 C   0  0  0  0  0  0
   25.1430   25.3760   11.0820 N   0  0  0  0  0  0
   27.2630   19.9810    9.0940 N   0  0  0  0  0  0
   28.0310   18.7620    8.8510 C   0  0  2  0  0  0
   28.8680   18.5420   10.0740 C   0  0  0  0  0  0
   29.2490   19.5150   10.7300 O   0  0  0  0  0  0
   28.9580   18.9240    7.6490 C   0  0  0  0  0  0
   30.2960   19.5480    8.0210 C   0  0  0  0  0  0
   30.9650   20.3780    6.9490 C   0  0  0  0  0  0
   31.9990   19.6570    6.2100 N   0  0  0  0  0  0
   33.1450   19.2080    6.7220 C   0  0  0  0  0  0
   33.4370   19.3590    8.0110 N   0  0  0  0  0  0
   34.0050   18.5780    5.9330 N   0  3  0  0  0  0
   25.8570   11.0920   12.5620 O   0  0  0  0  0  0
   26.7430   10.8800   13.3710 C   0  0  0  0  0  0
   27.0280    9.5360   13.9290 C   0  0  0  0  0  0
   27.5320   11.8400   13.7990 N   0  0  0  0  0  0
   27.3970   13.2470   13.4110 C   0  0  0  0  0  0
   28.7650   13.7430   12.9500 C   0  0  0  0  0  0
   28.7490   15.1320   12.3510 C   0  0  0  0  0  0
   30.1360   15.5210   11.7770 C   0  0  0  0  0  0
   30.0500   17.0240   11.5180 C   0  0  2  0  0  0
   29.2640   17.2970   10.3180 N   0  0  0  0  0  0
   31.4310   17.6240   11.4050 C   0  0  0  0  0  0
   32.1810   17.3230   10.5070 O   0  0  0  0  0  0
   31.7680   18.4400   12.3820 N   0  0  0  0  0  0
   32.8660   19.3630   12.2770 C   0  0  2  0  0  0
   33.9790   18.7810   13.1040 C   0  0  0  0  0  0
   33.7260   18.3990   14.2390 O   0  0  0  0  0  0
   32.4520   20.7410   12.8500 C   0  0  0  0  0  0
   33.4220   21.8100   12.4040 C   0  0  0  0  0  0
   31.0210   21.1120   12.4390 C   0  0  0  0  0  0
   35.1463   18.6886   12.6388 O   0  5  0  0  0  0
   22.9580   24.4117    6.6336 H   0  0  0  0  0  0
   21.5633   23.8790    5.6347 H   0  0  0  0  0  0
   23.2408   23.5452    5.0857 H   0  0  0  0  0  0
   21.8707   22.4777    7.5351 H   0  0  0  0  0  0
   21.1716   21.5105    5.2583 H   0  0  0  0  0  0
   22.8411   20.8599    5.1308 H   0  0  0  0  0  0
   22.1463   20.0595    7.6736 H   0  0  0  0  0  0
   20.5608   19.9782    6.8332 H   0  0  0  0  0  0
   22.0074   18.7081    5.0032 H   0  0  0  0  0  0
   23.0507   18.3756    6.4272 H   0  0  0  0  0  0
   20.4838   17.7471    7.4238 H   0  0  0  0  0  0
   22.4175   16.8504    4.4466 H   0  0  0  0  0  0
   21.5560   15.1546    4.3368 H   0  0  0  0  0  0
   19.4751   15.7813    7.2650 H   0  0  0  0  0  0
   23.1174   21.4278    9.0712 H   0  0  0  0  0  0
   26.0049   22.1622    8.5999 H   0  0  0  0  0  0
   25.3023   21.0763   11.4171 H   0  0  0  0  0  0
   26.9367   24.2282   11.3432 H   0  0  0  0  0  0
   23.0968   25.8394   10.6063 H   0  0  0  0  0  0
   27.7469   20.8523    9.5595 H   0  0  0  0  0  0
   27.3252   17.9393    8.6639 H   0  0  0  0  0  0
   29.1574   17.9379    7.2043 H   0  0  0  0  0  0
   28.4790   19.5733    6.9014 H   0  0  0  0  0  0
   30.1613   20.2171    8.8836 H   0  0  0  0  0  0
   31.0113   18.7538    8.2811 H   0  0  0  0  0  0
   30.2119   20.7106    6.2195 H   0  0  0  0  0  0
   31.4423   21.2557    7.4093 H   0  0  0  0  0  0
   31.8629   19.4447    5.1393 H   0  0  0  0  0  0
   32.7331   19.8794    8.6771 H   0  0  0  0  0  0
   34.3824   18.9635    8.4108 H   0  0  0  0  0  0
   33.7767   18.4459    4.8651 H   0  0  0  0  0  0
   26.3176    8.8074   13.5113 H   0  0  0  0  0  0
   26.9236    9.5638   15.0237 H   0  0  0  0  0  0
   28.0542    9.2399   13.6660 H   0  0  0  0  0  0
   28.3320   11.5341   14.4892 H   0  0  0  0  0  0
   26.6664   13.3333   12.5932 H   0  0  0  0  0  0
   27.0515   13.8340   14.2747 H   0  0  0  0  0  0
   29.4538   13.7682   13.8072 H   0  0  0  0  0  0
   29.1614   13.0636   12.1810 H   0  0  0  0  0  0
   28.0119   15.1711   11.5354 H   0  0  0  0  0  0
   28.4765   15.8627   13.1267 H   0  0  0  0  0  0
   30.9178   15.2800   12.5123 H   0  0  0  0  0  0
   30.3196   14.9592   10.8493 H   0  0  0  0  0  0
   29.5165   17.5175   12.3437 H   0  0  0  0  0  0
   29.0074   16.4776    9.6304 H   0  0  0  0  0  0
   31.1723   18.3967   13.3057 H   0  0  0  0  0  0
   33.1470   19.4524   11.2173 H   0  0  0  0  0  0
   32.4881   20.6934   13.9484 H   0  0  0  0  0  0
   34.4417   21.5289   12.7060 H   0  0  0  0  0  0
   33.1520   22.7683   12.8717 H   0  0  0  0  0  0
   33.3785   21.9110   11.3095 H   0  0  0  0  0  0
   30.3284   20.3244   12.7708 H   0  0  0  0  0  0
   30.9676   21.2101   11.3447 H   0  0  0  0  0  0
   30.7412   22.0674   12.9069 H   0  0  0  0  0  0
   34.9466   18.1876    6.3465 H   0  0  0  0  0  0
   19.9548   14.5741    5.8713 H   0  0  0  0  0  0
   22.9325   23.2007   10.2001 H   0  0  0  0  0  0
  1  2  1  0  0  0
  1 53  1  0  0  0
  1 54  1  0  0  0
  1 55  1  0  0  0
  2  3  1  0  0  0
  2  5  1  0  0  0
  2 56  1  0  0  0
  3  4  2  0  0  0
  3 12  1  0  0  0
  5  6  1  0  0  0
  5 57  1  0  0  0
  5 58  1  0  0  0
  6  7  1  0  0  0
  6 59  1  0  0  0
  6 60  1  0  0  0
  7  8  1  0  0  0
  7 61  1  0  0  0
  7 62  1  0  0  0
  8  9  1  0  0  0
  8 63  1  0  0  0
  9 10  1  0  0  0
  9 11  2  0  0  0
 10 64  1  0  0  0
 10 65  1  0  0  0
 11 66  1  0  0  0
 11108  1  0  0  0
 12 13  1  0  0  0
 12 67  1  0  0  0
 13 14  1  0  0  0
 13 16  1  0  0  0
 13 68  1  0  0  0
 14 15  2  0  0  0
 14 22  1  0  0  0
 16 17  2  0  0  0
 16 69  1  0  0  0
 17 18  1  0  0  0
 17 19  1  0  0  0
 18 20  1  0  0  0
 18109  1  0  0  0
 19 21  2  0  0  0
 19 70  1  0  0  0
 20 21  1  0  0  0
 20 71  1  0  0  0
 22 23  1  0  0  0
 22 72  1  0  0  0
 23 24  1  0  0  0
 23 26  1  0  0  0
 23 73  1  0  0  0
 24 25  2  0  0  0
 24 42  1  0  0  0
 26 27  1  0  0  0
 26 74  1  0  0  0
 26 75  1  0  0  0
 27 28  1  0  0  0
 27 76  1  0  0  0
 27 77  1  0  0  0
 28 29  1  0  0  0
 28 78  1  0  0  0
 28 79  1  0  0  0
 29 30  1  0  0  0
 29 80  1  0  0  0
 30 31  1  0  0  0
 30 32  2  0  0  0
 31 81  1  0  0  0
 31 82  1  0  0  0
 32 83  1  0  0  0
 32107  1  0  0  0
 33 34  2  0  0  0
 34 35  1  0  0  0
 34 36  1  0  0  0
 35 84  1  0  0  0
 35 85  1  0  0  0
 35 86  1  0  0  0
 36 37  1  0  0  0
 36 87  1  0  0  0
 37 38  1  0  0  0
 37 88  1  0  0  0
 37 89  1  0  0  0
 38 39  1  0  0  0
 38 90  1  0  0  0
 38 91  1  0  0  0
 39 40  1  0  0  0
 39 92  1  0  0  0
 39 93  1  0  0  0
 40 41  1  0  0  0
 40 94  1  0  0  0
 40 95  1  0  0  0
 41 42  1  0  0  0
 41 43  1  0  0  0
 41 96  1  0  0  0
 42 97  1  0  0  0
 43 44  2  0  0  0
 43 45  1  0  0  0
 45 46  1  0  0  0
 45 98  1  0  0  0
 46 47  1  0  0  0
 46 49  1  0  0  0
 46 99  1  0  0  0
 47 48  2  0  0  0
 47 52  1  0  0  0
 49 50  1  0  0  0
 49 51  1  0  0  0
 49100  1  0  0  0
 50101  1  0  0  0
 50102  1  0  0  0
 50103  1  0  0  0
 51104  1  0  0  0
 51105  1  0  0  0
 51106  1  0  0  0
M  CHG  4   1   1  11   1  32   1  52  -1
M  END
> <s_m_source_file>
../4n3w_ligand.sdf

> <i_m_source_file_index>
1

> <s_epik_input>
W0hdL049QyhbTkgyXSlcW05IXVtDSDJdW0NIMl1bQ0gyXVtDQEhdKFtOSDMrXSlDKD1PKVtOSF1bQ0BASF0oW0NIMl1DMT1OW0NIMl1OPVtDSF0xKUMoPU8pW05IXVtDQEBIXShbQ0gyXVtDSDJdW0NIMl1bTkhdL0MoW05IMl0pPU5cW0hdKUMoPU8pW05IXVtDQEhdKEMoPU8pW05IXVtDQEhdKEMoPU8pW09IXSlbQ0hdKFtDSDNdKVtDSDNdKVtDSDJdW0NIMl1bQ0gyXVtDSDJdW05IXUMoPU8pW0NIM10=

> <s_epik_cmdline>
J2VwaWtfYXBwJywgJy1pbWFlJywgJ2xpZ2FuZF9wcm8ubWFlJywgJy1vbWFlJywgJ2xpZ2FuZF9wcmVwLm1hZScsICctbXMnLCAnMScsICctcGgnLCAnNycsICctcGh0JywgJzAuNScsICctbnQn

> <r_epik_Ionization_Penalty>
  0.1744

> <r_epik_Ionization_Penalty_Charging>
  0.1743

> <r_epik_Ionization_Penalty_Neutral>
  0.0000

> <r_epik_State_Penalty>
  0.1635

> <r_epik_Charging_Adjusted_Penalty>
0.337858745457665

> <i_epik_Tot_Q>
2

> <i_epik_Tot_abs_Q>
4

> <s_epik_Chemistry_Notes>
This compound has an imine and may undergo hydrolysis.

$$$$
