4n4t_ligand
                    3D
 Schrodinger Suite 2020-3.
 56 60  0  0  1  0            999 V2000
   -7.2950   46.6320   28.4240 C   0  0  0  0  0  0
   -7.4840   47.2320   29.7220 C   0  0  0  0  0  0
   -6.6190   46.7990   30.8230 C   0  0  0  0  0  0
   -5.5650   45.7910   30.6860 C   0  0  0  0  0  0
   -5.3840   45.2010   29.3900 C   0  0  0  0  0  0
   -6.2560   45.6300   28.2730 C   0  0  0  0  0  0
   -6.1720   45.0680   26.9140 C   0  0  1  0  0  0
   -4.9910   45.5460   26.1540 C   0  0  0  0  0  0
   -4.2930   46.8490   26.4120 C   0  0  0  0  0  0
   -5.2800   45.4350   24.6970 C   0  0  0  0  0  0
   -3.9980   44.3890   26.6200 O   0  0  0  0  0  0
   -4.6880   43.1960   26.8960 C   0  0  0  0  0  0
   -4.0010   42.1940   27.0070 O   0  0  0  0  0  0
   -6.0190   43.5770   26.9710 N   0  0  0  0  0  0
   -8.3450   43.0950   26.7280 C   0  0  0  0  0  0
   -6.9900   42.7030   27.0710 C   0  0  0  0  0  0
   -6.5870   41.3870   27.5280 C   0  0  0  0  0  0
   -7.5430   40.3980   27.6550 C   0  0  0  0  0  0
   -8.9290   40.7310   27.3160 C   0  0  0  0  0  0
   -9.3270   42.0750   26.8590 C   0  0  0  0  0  0
   -9.8530   39.6090   27.4280 C   0  0  0  0  0  0
  -11.0320   39.7720   28.2100 C   0  0  0  0  0  0
  -11.9610   38.7200   28.4190 C   0  0  0  0  0  0
  -11.5980   37.4560   27.7780 C   0  0  0  0  0  0
  -10.4590   37.3110   27.0120 N   0  0  0  0  0  0
   -9.5630   38.3140   26.7890 C   0  0  0  0  0  0
  -13.4210   40.3200   29.8140 N   0  0  0  0  0  0
  -14.6240   40.6110   30.4240 C   0  0  0  0  0  0
  -15.7280   39.6590   30.4160 C   0  0  0  0  0  0
  -15.4830   38.3970   29.7250 C   0  0  0  0  0  0
  -14.2650   38.1390   29.1210 N   0  0  0  0  0  0
  -13.1950   39.0690   29.1340 C   0  0  0  0  0  0
  -12.2590   36.3120   27.8890 N   0  0  0  0  0  0
   -7.9169   46.9238   27.5777 H   0  0  0  0  0  0
   -8.2518   47.9893   29.8802 H   0  0  0  0  0  0
   -6.7689   47.2541   31.8020 H   0  0  0  0  0  0
   -4.9437   45.5009   31.5333 H   0  0  0  0  0  0
   -4.6139   44.4463   29.2302 H   0  0  0  0  0  0
   -7.0998   45.4028   26.4271 H   0  0  0  0  0  0
   -4.9437   47.6808   26.1042 H   0  0  0  0  0  0
   -3.3565   46.8836   25.8360 H   0  0  0  0  0  0
   -4.0671   46.9378   27.4849 H   0  0  0  0  0  0
   -5.9656   46.2411   24.3967 H   0  0  0  0  0  0
   -5.7461   44.4606   24.4889 H   0  0  0  0  0  0
   -4.3417   45.5213   24.1295 H   0  0  0  0  0  0
   -8.5927   44.1022   26.3930 H   0  0  0  0  0  0
   -5.5439   41.1811   27.7680 H   0  0  0  0  0  0
   -7.2740   39.3988   27.9975 H   0  0  0  0  0  0
  -10.3699   42.2859   26.6225 H   0  0  0  0  0  0
  -11.2284   40.7425   28.6657 H   0  0  0  0  0  0
   -8.6781   38.1653   26.1701 H   0  0  0  0  0  0
  -14.7514   41.5722   30.9220 H   0  0  0  0  0  0
  -16.6810   39.8770   30.8980 H   0  0  0  0  0  0
  -16.2718   37.6459   29.6841 H   0  0  0  0  0  0
  -13.1909   36.2695   28.4719 H   0  0  0  0  0  0
  -11.8755   35.4054   27.3981 H   0  0  0  0  0  0
  1  2  2  0  0  0
  1  6  1  0  0  0
  1 34  1  0  0  0
  2  3  1  0  0  0
  2 35  1  0  0  0
  3  4  2  0  0  0
  3 36  1  0  0  0
  4  5  1  0  0  0
  4 37  1  0  0  0
  5  6  2  0  0  0
  5 38  1  0  0  0
  6  7  1  0  0  0
  7  8  1  0  0  0
  7 14  1  0  0  0
  7 39  1  0  0  0
  8  9  1  0  0  0
  8 10  1  0  0  0
  8 11  1  0  0  0
  9 40  1  0  0  0
  9 41  1  0  0  0
  9 42  1  0  0  0
 10 43  1  0  0  0
 10 44  1  0  0  0
 10 45  1  0  0  0
 11 12  1  0  0  0
 12 13  2  0  0  0
 12 14  1  0  0  0
 14 16  1  0  0  0
 15 16  2  0  0  0
 15 20  1  0  0  0
 15 46  1  0  0  0
 16 17  1  0  0  0
 17 18  2  0  0  0
 17 47  1  0  0  0
 18 19  1  0  0  0
 18 48  1  0  0  0
 19 20  2  0  0  0
 19 21  1  0  0  0
 20 49  1  0  0  0
 21 22  2  0  0  0
 21 26  1  0  0  0
 22 23  1  0  0  0
 22 50  1  0  0  0
 23 24  2  0  0  0
 23 32  1  0  0  0
 24 25  1  0  0  0
 24 33  1  0  0  0
 25 26  2  0  0  0
 26 51  1  0  0  0
 27 28  2  0  0  0
 27 32  1  0  0  0
 28 29  1  0  0  0
 28 52  1  0  0  0
 29 30  2  0  0  0
 29 53  1  0  0  0
 30 31  1  0  0  0
 30 54  1  0  0  0
 31 32  2  0  0  0
 33 55  1  0  0  0
 33 56  1  0  0  0
M  END
> <s_m_source_file>
../4n4t_ligand.sdf

> <i_m_source_file_index>
1

> <s_epik_input>
W2NIXTFbY0hdW2NIXVtjSF1bY0hdYzFbQ0BASF0oQzIoW0NIM10pW0NIM10pTihDKE8yKT1PKWMzW2NIXVtjSF1jKFtjSF1bY0hdMyktYzRbY0hdYyhjKFtOSDJdKW5bY0hdNCktYzVuW2NIXVtjSF1bY0hdbjU=

> <s_epik_cmdline>
J2VwaWtfYXBwJywgJy1pbWFlJywgJ2xpZ2FuZF9wcm8ubWFlJywgJy1vbWFlJywgJ2xpZ2FuZF9wcmVwLm1hZScsICctbXMnLCAnMScsICctcGgnLCAnNycsICctcGh0JywgJzAuNScsICctbnQn

> <r_lp_tautomer_probability>
1

> <r_epik_Ionization_Penalty>
  0.0015

> <r_epik_Ionization_Penalty_Charging>
  0.0000

> <r_epik_Ionization_Penalty_Neutral>
  0.0015

> <r_epik_State_Penalty>
 -0.0000

> <r_epik_Charging_Adjusted_Penalty>
0

> <i_epik_Tot_Q>
0

> <i_epik_Tot_abs_Q>
0

> <s_epik_Chemistry_Notes>
This compound has an ester and may undergo hydrolysis at high or low pH.

$$$$
