4n4v_ligand
                    3D
 Schrodinger Suite 2020-3.
 62 66  0  0  1  0            999 V2000
   -7.1940   46.2450   28.4490 C   0  0  0  0  0  0
   -7.6030   46.7400   29.7560 C   0  0  0  0  0  0
   -6.7110   46.5230   30.9000 C   0  0  0  0  0  0
   -5.4260   45.8300   30.7980 C   0  0  0  0  0  0
   -5.0070   45.3300   29.4890 C   0  0  0  0  0  0
   -5.9000   45.5420   28.3170 C   0  0  0  0  0  0
   -5.5880   45.0560   26.9480 C   0  0  1  0  0  0
   -4.3340   45.6840   26.2640 C   0  0  0  0  0  0
   -3.7490   46.9810   26.7470 C   0  0  0  0  0  0
   -4.0580   45.6700   24.7780 C   0  0  0  0  0  0
   -3.3460   44.6000   26.7270 O   0  0  0  0  0  0
   -4.0760   43.3540   26.8780 C   0  0  0  0  0  0
   -3.6480   42.2580   26.9070 O   0  0  0  0  0  0
   -5.3210   43.6290   26.9140 N   0  0  0  0  0  0
   -6.1080   42.4550   26.8860 C   0  0  1  0  0  0
   -6.4270   42.0410   28.3250 C   0  0  0  0  0  0
   -7.5850   41.1180   28.4080 C   0  0  0  0  0  0
   -8.6250   41.2640   27.2920 C   0  0  1  0  0  0
   -8.3450   41.8550   25.9100 C   0  0  0  0  0  0
   -7.2010   42.8230   25.8780 C   0  0  0  0  0  0
   -9.4110   40.0740   27.2950 C   0  0  0  0  0  0
  -10.6270   40.1790   28.0580 C   0  0  0  0  0  0
  -11.4930   39.0570   28.1880 C   0  0  0  0  0  0
  -10.9890   37.8920   27.4940 C   0  0  0  0  0  0
   -9.8070   37.8540   26.7660 N   0  0  0  0  0  0
   -8.9700   38.8960   26.6160 C   0  0  0  0  0  0
  -13.2950   40.3870   29.5850 N   0  0  0  0  0  0
  -14.5900   40.4870   30.1330 C   0  0  0  0  0  0
  -15.5460   39.4130   30.0610 C   0  0  0  0  0  0
  -15.0600   38.2270   29.3810 C   0  0  0  0  0  0
  -13.7710   38.1380   28.8390 N   0  0  0  0  0  0
  -12.8170   39.1980   28.8990 C   0  0  0  0  0  0
  -11.6350   36.7020   27.5350 N   0  0  0  0  0  0
   -7.8339   46.3909   27.5788 H   0  0  0  0  0  0
   -8.5522   47.2609   29.8816 H   0  0  0  0  0  0
   -7.0210   46.8969   31.8758 H   0  0  0  0  0  0
   -4.7963   45.6899   31.6766 H   0  0  0  0  0  0
   -4.0559   44.8103   29.3734 H   0  0  0  0  0  0
   -6.5323   45.3005   26.4395 H   0  0  0  0  0  0
   -4.4059   47.8122   26.4511 H   0  0  0  0  0  0
   -2.7538   47.1232   26.3004 H   0  0  0  0  0  0
   -3.6591   46.9570   27.8431 H   0  0  0  0  0  0
   -4.7004   46.4103   24.2788 H   0  0  0  0  0  0
   -4.2707   44.6688   24.3750 H   0  0  0  0  0  0
   -3.0020   45.9207   24.5988 H   0  0  0  0  0  0
   -5.6057   41.5485   26.5171 H   0  0  0  0  0  0
   -5.5557   41.5307   28.7614 H   0  0  0  0  0  0
   -6.6640   42.9354   28.9199 H   0  0  0  0  0  0
   -7.2287   40.0781   28.3665 H   0  0  0  0  0  0
   -8.1198   41.2848   29.3547 H   0  0  0  0  0  0
   -9.2410   42.1234   27.5954 H   0  0  0  0  0  0
   -8.1026   41.0445   25.2069 H   0  0  0  0  0  0
   -9.2353   42.3946   25.5547 H   0  0  0  0  0  0
   -7.5924   43.8243   26.1108 H   0  0  0  0  0  0
   -6.7787   42.8214   24.8623 H   0  0  0  0  0  0
  -10.8859   41.1224   28.5386 H   0  0  0  0  0  0
   -8.0487   38.8472   26.0355 H   0  0  0  0  0  0
  -14.8786   41.4130   30.6303 H   0  0  0  0  0  0
  -16.5491   39.4847   30.4814 H   0  0  0  0  0  0
  -15.7258   37.3690   29.2879 H   0  0  0  0  0  0
  -12.5841   36.6100   28.0834 H   0  0  0  0  0  0
  -11.2105   35.8277   27.0199 H   0  0  0  0  0  0
  1  2  2  0  0  0
  1  6  1  0  0  0
  1 34  1  0  0  0
  2  3  1  0  0  0
  2 35  1  0  0  0
  3  4  2  0  0  0
  3 36  1  0  0  0
  4  5  1  0  0  0
  4 37  1  0  0  0
  5  6  2  0  0  0
  5 38  1  0  0  0
  6  7  1  0  0  0
  7  8  1  0  0  0
  7 14  1  0  0  0
  7 39  1  0  0  0
  8  9  1  0  0  0
  8 10  1  0  0  0
  8 11  1  0  0  0
  9 40  1  0  0  0
  9 41  1  0  0  0
  9 42  1  0  0  0
 10 43  1  0  0  0
 10 44  1  0  0  0
 10 45  1  0  0  0
 11 12  1  0  0  0
 12 13  2  0  0  0
 12 14  1  0  0  0
 14 15  1  0  0  0
 15 16  1  0  0  0
 15 20  1  0  0  0
 15 46  1  0  0  0
 16 17  1  0  0  0
 16 47  1  0  0  0
 16 48  1  0  0  0
 17 18  1  0  0  0
 17 49  1  0  0  0
 17 50  1  0  0  0
 18 19  1  0  0  0
 18 21  1  0  0  0
 18 51  1  0  0  0
 19 20  1  0  0  0
 19 52  1  0  0  0
 19 53  1  0  0  0
 20 54  1  0  0  0
 20 55  1  0  0  0
 21 22  2  0  0  0
 21 26  1  0  0  0
 22 23  1  0  0  0
 22 56  1  0  0  0
 23 24  2  0  0  0
 23 32  1  0  0  0
 24 25  1  0  0  0
 24 33  1  0  0  0
 25 26  2  0  0  0
 26 57  1  0  0  0
 27 28  2  0  0  0
 27 32  1  0  0  0
 28 29  1  0  0  0
 28 58  1  0  0  0
 29 30  2  0  0  0
 29 59  1  0  0  0
 30 31  1  0  0  0
 30 60  1  0  0  0
 31 32  2  0  0  0
 33 61  1  0  0  0
 33 62  1  0  0  0
M  END
> <s_m_source_file>
../4n4v_ligand.sdf

> <i_m_source_file_index>
1

> <s_epik_input>
W2NIXTFbY0hdW2NIXVtjSF1bY0hdYzFbQ0BASF0oQzIoW0NIM10pW0NIM10pTihDKE8yKT1PKVtDQEhdM1tDSDJdW0NIMl1bQ0BASF0oW0NIMl1bQ0gyXTMpYzRbY0hdYyhjKFtOSDJdKW5bY0hdNCktYzVuW2NIXVtjSF1bY0hdbjU=

> <s_epik_cmdline>
J2VwaWtfYXBwJywgJy1pbWFlJywgJ2xpZ2FuZF9wcm8ubWFlJywgJy1vbWFlJywgJ2xpZ2FuZF9wcmVwLm1hZScsICctbXMnLCAnMScsICctcGgnLCAnNycsICctcGh0JywgJzAuNScsICctbnQn

> <r_lp_tautomer_probability>
0.999999772200052

> <r_epik_Ionization_Penalty>
  0.0628

> <r_epik_Ionization_Penalty_Charging>
  0.0000

> <r_epik_Ionization_Penalty_Neutral>
  0.0628

> <r_epik_State_Penalty>
  0.0546

> <r_epik_Charging_Adjusted_Penalty>
0.0545914672205596

> <i_epik_Tot_Q>
0

> <i_epik_Tot_abs_Q>
0

> <s_epik_Chemistry_Notes>
This compound has an ester and may undergo hydrolysis at high or low pH.

$$$$
