4n5g_ligand
                    3D
 Schrodinger Suite 2020-3.
 52 55  0  0  1  0            999 V2000
    7.5280    7.6010   24.0980 C   0  0  0  0  0  0
    6.1790    7.7970   23.4440 C   0  0  0  0  0  0
    5.6560    7.0340   22.2940 C   0  0  0  0  0  0
    4.2520    7.5720   21.9690 C   0  0  0  0  0  0
    3.9490    8.6290   22.8980 C   0  0  0  0  0  0
    5.1630    8.7930   23.8430 C   0  0  0  0  0  0
    5.3290    9.6540   24.8750 C   0  0  0  0  0  0
    4.5240   10.9170   25.1170 C   0  0  0  0  0  0
    4.0130   11.1530   26.3840 C   0  0  0  0  0  0
    3.2790   12.3020   26.6430 C   0  0  0  0  0  0
    3.0640   13.2230   25.6310 C   0  0  0  0  0  0
    3.5810   12.9960   24.3650 C   0  0  0  0  0  0
    4.3160   11.8450   24.1070 C   0  0  0  0  0  0
    2.2670   14.4770   25.9160 C   0  0  0  0  0  0
    2.7810   15.1690   27.1600 C   0  0  0  0  0  0
    0.7910   14.1730   26.0360 C   0  0  0  0  0  0
    2.7160    9.2820   22.8040 C   0  0  0  0  0  0
    1.7850    8.9160   21.8170 C   0  0  0  0  0  0
    2.0930    7.8700   20.9020 C   0  0  0  0  0  0
    3.3280    7.2070   20.9900 C   0  0  0  0  0  0
    1.4480    7.6100   20.2140 F   0  0  0  0  0  0
    6.3690    5.9130   21.5670 C   0  0  0  0  0  0
    5.7880    4.5640   21.9260 C   0  0  0  0  0  0
    5.6740    4.3850   23.4250 C   0  0  0  0  0  0
    6.6850    4.1100   24.2720 N   0  0  0  0  0  0
    6.1750    4.0350   25.5090 N   0  3  0  0  0  0
    4.8570    4.2600   25.4460 N   0  0  0  0  0  0
    4.5380    4.4790   24.1550 N   0  3  0  0  0  0
    8.0678    6.7890   23.5888 H   0  0  0  0  0  0
    7.3875    7.3400   25.1573 H   0  0  0  0  0  0
    8.1101    8.5314   24.0237 H   0  0  0  0  0  0
    6.1045    9.4630   25.6314 H   0  0  0  0  0  0
    4.1889   10.4315   27.1818 H   0  0  0  0  0  0
    2.8732   12.4790   27.6390 H   0  0  0  0  0  0
    3.4107   13.7219   23.5700 H   0  0  0  0  0  0
    4.7282   11.6718   23.1129 H   0  0  0  0  0  0
    2.3973   15.1607   25.0642 H   0  0  0  0  0  0
    3.8549   15.3780   27.0461 H   0  0  0  0  0  0
    2.6247   14.5180   28.0328 H   0  0  0  0  0  0
    2.2369   16.1139   27.3053 H   0  0  0  0  0  0
    0.4444   13.6714   25.1205 H   0  0  0  0  0  0
    0.2334   15.1112   26.1737 H   0  0  0  0  0  0
    0.6213   13.5152   26.9012 H   0  0  0  0  0  0
    2.4747   10.0827   23.5031 H   0  0  0  0  0  0
    0.8275    9.4328   21.7521 H   0  0  0  0  0  0
    3.5651    6.4048   20.2911 H   0  0  0  0  0  0
    6.2687    6.0580   20.4812 H   0  0  0  0  0  0
    7.4344    5.9178   21.8407 H   0  0  0  0  0  0
    4.7832    4.4694   21.4885 H   0  0  0  0  0  0
    6.4366    3.7684   21.5305 H   0  0  0  0  0  0
    6.7733    3.8368   26.2853 H   0  0  0  0  0  0
    3.4952    4.6878   23.8739 H   0  0  0  0  0  0
  1  2  1  0  0  0
  1 29  1  0  0  0
  1 30  1  0  0  0
  1 31  1  0  0  0
  2  3  2  0  0  0
  2  6  1  0  0  0
  3  4  1  0  0  0
  3 22  1  0  0  0
  4  5  2  0  0  0
  4 20  1  0  0  0
  5  6  1  0  0  0
  5 17  1  0  0  0
  6  7  2  0  0  0
  7  8  1  0  0  0
  7 32  1  0  0  0
  8  9  2  0  0  0
  8 13  1  0  0  0
  9 10  1  0  0  0
  9 33  1  0  0  0
 10 11  2  0  0  0
 10 34  1  0  0  0
 11 12  1  0  0  0
 11 14  1  0  0  0
 12 13  2  0  0  0
 12 35  1  0  0  0
 13 36  1  0  0  0
 14 15  1  0  0  0
 14 16  1  0  0  0
 14 37  1  0  0  0
 15 38  1  0  0  0
 15 39  1  0  0  0
 15 40  1  0  0  0
 16 41  1  0  0  0
 16 42  1  0  0  0
 16 43  1  0  0  0
 17 18  2  0  0  0
 17 44  1  0  0  0
 18 19  1  0  0  0
 18 45  1  0  0  0
 19 20  2  0  0  0
 19 21  1  0  0  0
 20 46  1  0  0  0
 22 23  1  0  0  0
 22 47  1  0  0  0
 22 48  1  0  0  0
 23 24  1  0  0  0
 23 49  1  0  0  0
 23 50  1  0  0  0
 24 25  2  0  0  0
 24 28  1  0  0  0
 25 26  1  0  0  0
 26 27  1  0  0  0
 26 51  1  0  0  0
 27 28  2  0  0  0
 28 52  1  0  0  0
M  CHG  2  26   1  28   1
M  END
> <s_m_source_file>
../4n5g_ligand.sdf

> <i_m_source_file_index>
1

> <s_epik_input>
bjFuW25IXW5jMVtDSDJdW0NIMl1DMj1DKFtDSDNdKS9DKGMoYzIzKVtjSF1bY0hdYyhGKVtjSF0zKT1bQ0hdL2M0W2NIXVtjSF1jKFtjSF1bY0hdNClbQ0hdKFtDSDNdKVtDSDNd

> <s_epik_cmdline>
J2VwaWtfYXBwJywgJy1pbWFlJywgJ2xpZ2FuZF9wcm8ubWFlJywgJy1vbWFlJywgJ2xpZ2FuZF9wcmVwLm1hZScsICctbXMnLCAnMScsICctcGgnLCAnNycsICctcGh0JywgJzAuNScsICctbnQn

> <r_epik_Ionization_Penalty>
 12.7615

> <r_epik_Ionization_Penalty_Charging>
 12.7613

> <r_epik_Ionization_Penalty_Neutral>
  0.0003

> <r_epik_State_Penalty>
  0.0112

> <r_epik_Charging_Adjusted_Penalty>
12.7724880516146

> <i_epik_Tot_Q>
2

> <i_epik_Tot_abs_Q>
2

> <s_epik_Chemistry_Notes>
This compound has an imine and may undergo hydrolysis.

$$$$
