4n5t_ligand
                    3D
 Schrodinger Suite 2020-3.
248253  0  0  1  0            999 V2000
    5.4730   30.8430  -19.5980 C   0  0  0  0  0  0
    4.2780   31.1270  -19.6390 O   0  0  0  0  0  0
    6.5330   31.8860  -19.9060 C   0  0  0  0  0  0
    5.9080   29.6280  -19.2850 N   0  0  0  0  0  0
    4.9960   28.5240  -19.0160 C   0  0  2  0  0  0
    4.6190   28.4700  -17.5350 C   0  0  0  0  0  0
    5.0960   29.2710  -16.7350 O   0  0  0  0  0  0
    5.6500   27.2040  -19.4250 C   0  0  0  0  0  0
    6.1210   27.1280  -20.8800 C   0  0  0  0  0  0
    6.8030   25.7910  -21.1390 C   0  0  0  0  0  0
    4.9270   27.3110  -21.8010 C   0  0  0  0  0  0
    3.7550   27.5270  -17.1790 N   0  0  0  0  0  0
    3.4190   27.3080  -15.7770 C   0  0  2  0  0  0
    4.4680   26.4010  -15.1540 C   0  0  0  0  0  0
    5.1830   25.6900  -15.8630 O   0  0  0  0  0  0
    2.0450   26.6330  -15.6160 C   0  0  2  0  0  0
    2.0890   25.3110  -16.1640 O   0  0  0  0  0  0
    0.9670   27.4480  -16.3330 C   0  0  0  0  0  0
    4.5700   26.4180  -13.8270 N   0  0  0  0  0  0
    5.5330   25.5460  -13.1750 C   0  0  2  0  0  0
    5.2900   24.0820  -13.5380 C   0  0  0  0  0  0
    6.2350   23.3400  -13.8180 O   0  0  0  0  0  0
    5.4860   25.7100  -11.6490 C   0  0  0  0  0  0
    6.3140   24.6920  -10.9250 C   0  0  0  0  0  0
    7.7010   24.7880  -10.9240 C   0  0  0  0  0  0
    5.7200   23.5880  -10.3320 C   0  0  0  0  0  0
    8.4830   23.7990  -10.3510 C   0  0  0  0  0  0
    6.4970   22.5910   -9.7540 C   0  0  0  0  0  0
    7.8840   22.6950   -9.7670 C   0  0  0  0  0  0
    4.9390   20.9020  -15.4160 O   0  0  0  0  0  0
    4.3440   21.9660  -15.2630 C   0  0  0  0  0  0
    3.6720   22.3030  -13.9390 C   0  0  1  0  0  0
    2.1580   22.1730  -14.0900 C   0  0  0  0  0  0
    4.1210   21.4180  -12.7730 C   0  0  0  0  0  0
    4.0240   23.6630  -13.5380 N   0  0  0  0  0  0
    3.6140   19.9630  -12.8170 C   0  0  0  0  0  0
    4.1890   19.1670  -11.6280 C   0  0  0  0  0  0
    3.5310   17.7810  -11.5230 C   0  0  0  0  0  0
    3.9810   16.8760  -12.6760 C   0  0  0  0  0  0
    5.4880   16.6030  -12.5830 C   0  0  0  0  0  0
    5.9310   15.6600  -13.6750 C   0  0  0  0  0  0
    4.2420   22.8800  -16.2210 N   0  0  0  0  0  0
    4.7610   22.6170  -17.5600 C   0  0  2  0  0  0
    6.2850   22.5490  -17.5740 C   0  0  0  0  0  0
    6.8580   21.6850  -18.2320 O   0  0  0  0  0  0
    4.2600   23.6780  -18.5370 C   0  0  0  0  0  0
    2.7520   23.5960  -18.7430 C   0  0  0  0  0  0
    2.1970   24.7140  -19.5950 C   0  0  0  0  0  0
    2.5730   25.8850  -19.3790 O   0  0  0  0  0  0
    1.3700   24.4190  -20.4850 O   0  0  0  0  0  0
    6.9410   23.4400  -16.8360 N   0  0  0  0  0  0
    8.3990   23.3780  -16.7390 C   0  0  2  0  0  0
    8.8820   22.0940  -16.0840 C   0  0  0  0  0  0
    9.8400   21.4720  -16.5520 O   0  0  0  0  0  0
    8.9460   24.5690  -15.9550 C   0  0  0  0  0  0
    8.9520   25.8490  -16.7410 C   0  0  0  0  0  0
    8.2860   26.9740  -16.2790 C   0  0  0  0  0  0
    9.6280   25.9360  -17.9530 C   0  0  0  0  0  0
    8.2910   28.1470  -16.9980 C   0  0  0  0  0  0
    9.6360   27.1070  -18.6780 C   0  0  0  0  0  0
    8.9670   28.2070  -18.1980 C   0  0  0  0  0  0
    8.9630   29.3750  -18.9260 O   0  0  0  0  0  0
    8.2340   21.6930  -14.9950 N   0  0  0  0  0  0
    8.6870   20.5000  -14.2970 C   0  0  2  0  0  0
    8.4310   19.2510  -15.1310 C   0  0  0  0  0  0
    9.2250   18.3120  -15.1180 O   0  0  0  0  0  0
    7.9940   20.3590  -12.9440 C   0  0  0  0  0  0
    8.7370   19.4330  -12.0390 C   0  0  0  0  0  0
    8.5150   18.0960  -11.8640 C   0  0  0  0  0  0
    9.8590   19.7660  -11.2130 C   0  0  0  0  0  0
    9.4350   17.5800  -10.9800 N   0  0  0  0  0  0
   10.2680   18.5870  -10.5650 C   0  0  0  0  0  0
   10.5550   20.9540  -10.9580 C   0  0  0  0  0  0
   11.3410   18.5550   -9.6770 C   0  0  0  0  0  0
   11.6250   20.9200  -10.0730 C   0  0  0  0  0  0
   12.0040   19.7290   -9.4440 C   0  0  0  0  0  0
    7.3210   19.2430  -15.8610 N   0  0  0  0  0  0
    6.9950   18.1050  -16.7130 C   0  0  2  0  0  0
    8.1030   17.8860  -17.7440 C   0  0  0  0  0  0
    8.4540   16.7450  -18.0580 O   0  0  0  0  0  0
    5.6690   18.3430  -17.4150 C   0  0  0  0  0  0
    8.6520   18.9790  -18.2630 N   0  0  0  0  0  0
    9.7600   18.9010  -19.2170 C   0  0  2  0  0  0
   10.9900   18.3070  -18.5520 C   0  0  0  0  0  0
   11.7100   17.5030  -19.1450 O   0  0  0  0  0  0
   10.1260   20.2890  -19.7420 C   0  0  0  0  0  0
    9.0650   20.9670  -20.5770 C   0  0  0  0  0  0
    9.5370   22.3060  -21.1130 C   0  0  0  0  0  0
    9.0410   22.7960  -22.1280 O   0  0  0  0  0  0
   10.5070   22.9060  -20.4300 N   0  0  0  0  0  0
   11.2340   18.7210  -17.3160 N   0  0  0  0  0  0
   12.4020   18.2690  -16.5800 C   0  0  1  0  0  0
   12.5630   19.0990  -15.3060 C   0  0  0  0  0  0
   12.2570   16.7880  -16.2380 C   0  0  0  0  0  0
   13.2090   16.0170  -16.3680 O   0  0  0  0  0  0
   13.8650   18.9290  -14.5230 C   0  0  0  0  0  0
   14.1230   19.7790  -13.3080 C   0  0  0  0  0  0
   13.9970   17.6590  -13.7130 C   0  0  0  0  0  0
   14.2840   18.5000  -12.4280 C   0  0  0  0  0  0
   11.0020   14.1040  -16.6890 C   0  0  0  0  0  0
   11.0590   16.3960  -15.8160 N   0  0  0  0  0  0
   11.6330   13.0510  -16.5850 O   0  0  0  0  0  0
   10.7760   15.0050  -15.4780 C   0  0  1  0  0  0
    9.2910   15.0190  -15.1090 C   0  0  0  0  0  0
    7.2180   13.7000  -14.5300 C   0  0  0  0  0  0
    6.7840   14.6520  -13.4470 C   0  0  0  0  0  0
    8.7500   13.6600  -14.6430 C   0  0  0  0  0  0
   11.6580   14.5550  -14.3140 C   0  0  0  0  0  0
   10.4880   14.5290  -17.8380 N   0  0  0  0  0  0
   10.5970   13.7480  -19.0640 C   0  0  2  0  0  0
   12.0520   13.5700  -19.4790 C   0  0  0  0  0  0
   12.4060   12.5740  -20.1140 O   0  0  0  0  0  0
    9.8230   14.4290  -20.1960 C   0  0  0  0  0  0
    8.4300   14.4280  -19.9350 O   0  0  0  0  0  0
   12.8920   14.5380  -19.1230 N   0  0  0  0  0  0
   14.3040   14.4870  -19.4830 C   0  0  2  0  0  0
   15.0400   13.4780  -18.6100 C   0  0  0  0  0  0
   15.7240   12.5900  -19.1150 O   0  0  0  0  0  0
   14.9310   15.8670  -19.3330 C   0  0  0  0  0  0
   14.8920   13.6160  -17.2970 N   0  0  0  0  0  0
   15.5520   12.7190  -16.3570 C   0  0  2  0  0  0
   14.9300   11.3280  -16.4200 C   0  0  0  0  0  0
   15.6600   10.3750  -16.7680 O   0  0  0  0  0  0
   15.4460   13.2760  -14.9430 C   0  0  0  0  0  0
   13.7220   11.2080  -16.1250 O   0  0  0  0  0  0
    6.0467   32.8424  -20.1484 H   0  0  0  0  0  0
    7.1362   31.5535  -20.7637 H   0  0  0  0  0  0
    7.1838   32.0175  -19.0290 H   0  0  0  0  0  0
    6.9951   29.4688  -19.2318 H   0  0  0  0  0  0
    4.1001   28.7274  -19.6210 H   0  0  0  0  0  0
    6.5379   27.0258  -18.8006 H   0  0  0  0  0  0
    4.9332   26.3812  -19.2864 H   0  0  0  0  0  0
    6.8494   27.9267  -21.0838 H   0  0  0  0  0  0
    7.6629   25.6808  -20.4619 H   0  0  0  0  0  0
    7.1502   25.7525  -22.1820 H   0  0  0  0  0  0
    6.0884   24.9741  -20.9601 H   0  0  0  0  0  0
    4.4513   28.2815  -21.5962 H   0  0  0  0  0  0
    4.2016   26.5028  -21.6259 H   0  0  0  0  0  0
    5.2635   27.2812  -22.8478 H   0  0  0  0  0  0
    3.2904   26.9063  -17.9594 H   0  0  0  0  0  0
    3.4109   28.3098  -15.3228 H   0  0  0  0  0  0
    1.7915   26.5078  -14.5530 H   0  0  0  0  0  0
    2.8077   24.5766  -15.7715 H   0  0  0  0  0  0
    0.9339   28.4634  -15.9113 H   0  0  0  0  0  0
   -0.0107   26.9625  -16.1972 H   0  0  0  0  0  0
    1.2027   27.5040  -17.4060 H   0  0  0  0  0  0
    3.9343   27.0834  -13.2244 H   0  0  0  0  0  0
    6.5041   25.8777  -13.5710 H   0  0  0  0  0  0
    5.8658   26.7054  -11.3754 H   0  0  0  0  0  0
    4.4479   25.6052  -11.3007 H   0  0  0  0  0  0
    8.1798   25.6541  -11.3808 H   0  0  0  0  0  0
    4.6335   23.5014  -10.3191 H   0  0  0  0  0  0
    9.5692   23.8893  -10.3596 H   0  0  0  0  0  0
    6.0195   21.7277   -9.2906 H   0  0  0  0  0  0
    8.4963   21.9119   -9.3200 H   0  0  0  0  0  0
    1.9065   21.1456  -14.3918 H   0  0  0  0  0  0
    1.8042   22.8775  -14.8571 H   0  0  0  0  0  0
    1.6727   22.4023  -13.1298 H   0  0  0  0  0  0
    5.2196   21.3653  -12.7546 H   0  0  0  0  0  0
    3.7586   21.8463  -11.8268 H   0  0  0  0  0  0
    3.2370   24.3659  -13.2273 H   0  0  0  0  0  0
    2.5155   19.9556  -12.7596 H   0  0  0  0  0  0
    3.9352   19.4910  -13.7572 H   0  0  0  0  0  0
    5.2722   19.0337  -11.7655 H   0  0  0  0  0  0
    4.0030   19.7174  -10.6940 H   0  0  0  0  0  0
    3.8169   17.3106  -10.5706 H   0  0  0  0  0  0
    2.4372   17.8903  -11.5641 H   0  0  0  0  0  0
    3.4394   15.9200  -12.6245 H   0  0  0  0  0  0
    3.7643   17.3690  -13.6352 H   0  0  0  0  0  0
    6.0391   17.5493  -12.6869 H   0  0  0  0  0  0
    5.7190   16.1494  -11.6079 H   0  0  0  0  0  0
    5.5288   15.8222  -14.6859 H   0  0  0  0  0  0
    3.7604   23.8433  -15.9972 H   0  0  0  0  0  0
    4.3643   21.6283  -17.8339 H   0  0  0  0  0  0
    4.5000   24.6781  -18.1469 H   0  0  0  0  0  0
    4.7485   23.5380  -19.5126 H   0  0  0  0  0  0
    2.5010   22.6477  -19.2407 H   0  0  0  0  0  0
    2.2456   23.6435  -17.7677 H   0  0  0  0  0  0
    0.9452   25.2071  -21.1241 H   0  0  0  0  0  0
    6.3869   24.2236  -16.2985 H   0  0  0  0  0  0
    8.7332   23.4022  -17.7867 H   0  0  0  0  0  0
    8.3279   24.7340  -15.0601 H   0  0  0  0  0  0
    9.9830   24.3631  -15.6515 H   0  0  0  0  0  0
    7.7499   26.9283  -15.3310 H   0  0  0  0  0  0
   10.1595   25.0644  -18.3350 H   0  0  0  0  0  0
    7.7638   29.0234  -16.6212 H   0  0  0  0  0  0
   10.1698   27.1608  -19.6268 H   0  0  0  0  0  0
    8.4288   30.2582  -18.5458 H   0  0  0  0  0  0
    7.3641   22.2524  -14.6204 H   0  0  0  0  0  0
    9.7677   20.6519  -14.1590 H   0  0  0  0  0  0
    7.9336   21.3442  -12.4585 H   0  0  0  0  0  0
    6.9795   19.9601  -13.0914 H   0  0  0  0  0  0
    7.7264   17.5233  -12.3521 H   0  0  0  0  0  0
   10.2634   21.8853  -11.4435 H   0  0  0  0  0  0
   11.6412   17.6292   -9.1861 H   0  0  0  0  0  0
   12.1783   21.8358   -9.8652 H   0  0  0  0  0  0
   12.8466   19.7366   -8.7526 H   0  0  0  0  0  0
    6.6441   20.1090  -15.8172 H   0  0  0  0  0  0
    6.9135   17.2322  -16.0484 H   0  0  0  0  0  0
    4.8798   18.4992  -16.6648 H   0  0  0  0  0  0
    5.4192   17.4681  -18.0333 H   0  0  0  0  0  0
    5.7478   19.2340  -18.0552 H   0  0  0  0  0  0
    8.2550   19.9591  -17.9601 H   0  0  0  0  0  0
    9.3977   18.2536  -20.0292 H   0  0  0  0  0  0
   10.3302   20.9596  -18.8943 H   0  0  0  0  0  0
   11.0218   20.2167  -20.3763 H   0  0  0  0  0  0
    8.8060   20.3255  -21.4322 H   0  0  0  0  0  0
    8.1688   21.1384  -19.9626 H   0  0  0  0  0  0
   10.9201   22.4304  -19.5283 H   0  0  0  0  0  0
   10.8965   23.8781  -20.7666 H   0  0  0  0  0  0
   10.5274   19.4230  -16.8491 H   0  0  0  0  0  0
   13.2680   18.4186  -17.2415 H   0  0  0  0  0  0
   12.5074   20.1688  -15.5559 H   0  0  0  0  0  0
   11.7593   18.8454  -14.5991 H   0  0  0  0  0  0
   14.5077   19.1052  -15.3982 H   0  0  0  0  0  0
   15.0134   20.4019  -13.4787 H   0  0  0  0  0  0
   13.2531   20.4260  -13.1217 H   0  0  0  0  0  0
   13.0545   17.0938  -13.7611 H   0  0  0  0  0  0
   14.8134   17.0460  -14.1226 H   0  0  0  0  0  0
   15.2936   18.4798  -11.9918 H   0  0  0  0  0  0
   13.5363   18.5134  -11.6213 H   0  0  0  0  0  0
   10.2689   17.1559  -15.7246 H   0  0  0  0  0  0
    9.1236   15.7331  -14.2893 H   0  0  0  0  0  0
    8.6983   15.3210  -15.9851 H   0  0  0  0  0  0
    6.8541   12.6885  -14.2965 H   0  0  0  0  0  0
    6.8007   14.0264  -15.4940 H   0  0  0  0  0  0
    7.1944   14.4963  -12.4384 H   0  0  0  0  0  0
    9.0344   12.8838  -15.3687 H   0  0  0  0  0  0
    9.1744   13.4145  -13.6583 H   0  0  0  0  0  0
   12.7120   14.5619  -14.6286 H   0  0  0  0  0  0
   11.3727   13.5371  -14.0100 H   0  0  0  0  0  0
   11.5241   15.2421  -13.4655 H   0  0  0  0  0  0
    9.9690   15.4988  -17.8480 H   0  0  0  0  0  0
   10.1606   12.7684  -18.8191 H   0  0  0  0  0  0
   10.1611   15.4709  -20.2963 H   0  0  0  0  0  0
   10.0044   13.8923  -21.1389 H   0  0  0  0  0  0
    7.7349   14.8821  -20.6566 H   0  0  0  0  0  0
   12.5020   15.3891  -18.5455 H   0  0  0  0  0  0
   14.3413   14.1662  -20.5345 H   0  0  0  0  0  0
   14.3915   16.5857  -19.9674 H   0  0  0  0  0  0
   15.9861   15.8258  -19.6412 H   0  0  0  0  0  0
   14.8681   16.1860  -18.2822 H   0  0  0  0  0  0
   14.2536   14.4305  -16.9242 H   0  0  0  0  0  0
   16.6057   12.6712  -16.6690 H   0  0  0  0  0  0
   15.2461    9.3574  -16.8249 H   0  0  0  0  0  0
   15.8973   14.2786  -14.9091 H   0  0  0  0  0  0
   15.9773   12.6110  -14.2462 H   0  0  0  0  0  0
   14.3869   13.3406  -14.6528 H   0  0  0  0  0  0
  1  2  2  0  0  0
  1  3  1  0  0  0
  1  4  1  0  0  0
  3126  1  0  0  0
  3127  1  0  0  0
  3128  1  0  0  0
  4  5  1  0  0  0
  4129  1  0  0  0
  5  6  1  0  0  0
  5  8  1  0  0  0
  5130  1  0  0  0
  6  7  2  0  0  0
  6 12  1  0  0  0
  8  9  1  0  0  0
  8131  1  0  0  0
  8132  1  0  0  0
  9 10  1  0  0  0
  9 11  1  0  0  0
  9133  1  0  0  0
 10134  1  0  0  0
 10135  1  0  0  0
 10136  1  0  0  0
 11137  1  0  0  0
 11138  1  0  0  0
 11139  1  0  0  0
 12 13  1  0  0  0
 12140  1  0  0  0
 13 14  1  0  0  0
 13 16  1  0  0  0
 13141  1  0  0  0
 14 15  2  0  0  0
 14 19  1  0  0  0
 16 17  1  0  0  0
 16 18  1  0  0  0
 16142  1  0  0  0
 17143  1  0  0  0
 18144  1  0  0  0
 18145  1  0  0  0
 18146  1  0  0  0
 19 20  1  0  0  0
 19147  1  0  0  0
 20 21  1  0  0  0
 20 23  1  0  0  0
 20148  1  0  0  0
 21 22  2  0  0  0
 21 35  1  0  0  0
 23 24  1  0  0  0
 23149  1  0  0  0
 23150  1  0  0  0
 24 25  2  0  0  0
 24 26  1  0  0  0
 25 27  1  0  0  0
 25151  1  0  0  0
 26 28  2  0  0  0
 26152  1  0  0  0
 27 29  2  0  0  0
 27153  1  0  0  0
 28 29  1  0  0  0
 28154  1  0  0  0
 29155  1  0  0  0
 30 31  2  0  0  0
 31 32  1  0  0  0
 31 42  1  0  0  0
 32 33  1  0  0  0
 32 34  1  0  0  0
 32 35  1  0  0  0
 33156  1  0  0  0
 33157  1  0  0  0
 33158  1  0  0  0
 34 36  1  0  0  0
 34159  1  0  0  0
 34160  1  0  0  0
 35161  1  0  0  0
 36 37  1  0  0  0
 36162  1  0  0  0
 36163  1  0  0  0
 37 38  1  0  0  0
 37164  1  0  0  0
 37165  1  0  0  0
 38 39  1  0  0  0
 38166  1  0  0  0
 38167  1  0  0  0
 39 40  1  0  0  0
 39168  1  0  0  0
 39169  1  0  0  0
 40 41  1  0  0  0
 40170  1  0  0  0
 40171  1  0  0  0
 41106  2  0  0  0
 41172  1  0  0  0
 42 43  1  0  0  0
 42173  1  0  0  0
 43 44  1  0  0  0
 43 46  1  0  0  0
 43174  1  0  0  0
 44 45  2  0  0  0
 44 51  1  0  0  0
 46 47  1  0  0  0
 46175  1  0  0  0
 46176  1  0  0  0
 47 48  1  0  0  0
 47177  1  0  0  0
 47178  1  0  0  0
 48 49  2  0  0  0
 48 50  1  0  0  0
 50179  1  0  0  0
 51 52  1  0  0  0
 51180  1  0  0  0
 52 53  1  0  0  0
 52 55  1  0  0  0
 52181  1  0  0  0
 53 54  2  0  0  0
 53 63  1  0  0  0
 55 56  1  0  0  0
 55182  1  0  0  0
 55183  1  0  0  0
 56 57  2  0  0  0
 56 58  1  0  0  0
 57 59  1  0  0  0
 57184  1  0  0  0
 58 60  2  0  0  0
 58185  1  0  0  0
 59 61  2  0  0  0
 59186  1  0  0  0
 60 61  1  0  0  0
 60187  1  0  0  0
 61 62  1  0  0  0
 62188  1  0  0  0
 63 64  1  0  0  0
 63189  1  0  0  0
 64 65  1  0  0  0
 64 67  1  0  0  0
 64190  1  0  0  0
 65 66  2  0  0  0
 65 77  1  0  0  0
 67 68  1  0  0  0
 67191  1  0  0  0
 67192  1  0  0  0
 68 69  2  0  0  0
 68 70  1  0  0  0
 69 71  1  0  0  0
 69193  1  0  0  0
 70 72  2  0  0  0
 70 73  1  0  0  0
 71 72  1  0  0  0
 72 74  1  0  0  0
 73 75  2  0  0  0
 73194  1  0  0  0
 74 76  2  0  0  0
 74195  1  0  0  0
 75 76  1  0  0  0
 75196  1  0  0  0
 76197  1  0  0  0
 77 78  1  0  0  0
 77198  1  0  0  0
 78 79  1  0  0  0
 78 81  1  0  0  0
 78199  1  0  0  0
 79 80  2  0  0  0
 79 82  1  0  0  0
 81200  1  0  0  0
 81201  1  0  0  0
 81202  1  0  0  0
 82 83  1  0  0  0
 82203  1  0  0  0
 83 84  1  0  0  0
 83 86  1  0  0  0
 83204  1  0  0  0
 84 85  2  0  0  0
 84 91  1  0  0  0
 86 87  1  0  0  0
 86205  1  0  0  0
 86206  1  0  0  0
 87 88  1  0  0  0
 87207  1  0  0  0
 87208  1  0  0  0
 88 89  2  0  0  0
 88 90  1  0  0  0
 90209  1  0  0  0
 90210  1  0  0  0
 91 92  1  0  0  0
 91211  1  0  0  0
 92 93  1  0  0  0
 92 94  1  0  0  0
 92212  1  0  0  0
 93 96  1  0  0  0
 93213  1  0  0  0
 93214  1  0  0  0
 94 95  2  0  0  0
 94101  1  0  0  0
 96 97  1  0  0  0
 96 98  1  0  0  0
 96215  1  0  0  0
 97 99  1  0  0  0
 97216  1  0  0  0
 97217  1  0  0  0
 98 99  1  0  0  0
 98218  1  0  0  0
 98219  1  0  0  0
 99220  1  0  0  0
 99221  1  0  0  0
100102  2  0  0  0
100103  1  0  0  0
100109  1  0  0  0
101103  1  0  0  0
101222  1  0  0  0
103104  1  0  0  0
103108  1  0  0  0
104107  1  0  0  0
104223  1  0  0  0
104224  1  0  0  0
105106  1  0  0  0
105107  1  0  0  0
105225  1  0  0  0
105226  1  0  0  0
106227  1  0  0  0
107228  1  0  0  0
107229  1  0  0  0
108230  1  0  0  0
108231  1  0  0  0
108232  1  0  0  0
109110  1  0  0  0
109233  1  0  0  0
110111  1  0  0  0
110113  1  0  0  0
110234  1  0  0  0
111112  2  0  0  0
111115  1  0  0  0
113114  1  0  0  0
113235  1  0  0  0
113236  1  0  0  0
114237  1  0  0  0
115116  1  0  0  0
115238  1  0  0  0
116117  1  0  0  0
116119  1  0  0  0
116239  1  0  0  0
117118  2  0  0  0
117120  1  0  0  0
119240  1  0  0  0
119241  1  0  0  0
119242  1  0  0  0
120121  1  0  0  0
120243  1  0  0  0
121122  1  0  0  0
121124  1  0  0  0
121244  1  0  0  0
122123  1  0  0  0
122125  2  0  0  0
123245  1  0  0  0
124246  1  0  0  0
124247  1  0  0  0
124248  1  0  0  0
M  END
> <s_m_source_file>
../4n5t_ligand.sdf

> <i_m_source_file_index>
1

> <s_epik_input>
Tz1DKFtDSDNdKVtOSF1bQ0BASF0oW0NIMl1bQ0hdKFtDSDNdKVtDSDNdKUMoPU8pW05IXVtDQEBIXShbQ0BIXShbT0hdKVtDSDNdKUMoPU8pW05IXVtDQEBIXShbQ0gyXWMxW2NIXVtjSF1bY0hdW2NIXVtjSF0xKUMoPU8pW05IXVtDQEBdMihbQ0gzXSlDKD1PKVtOSF1bQ0BASF0oW0NIMl1bQ0gyXUMoPU8pW09IXSlDKD1PKVtOSF1bQ0BASF0oW0NIMl1jM1tjSF1bY0hdYyhbT0hdKVtjSF1bY0hdMylDKD1PKVtOSF1bQ0BASF0oW0NIMl1jNFtjSF1bbkhdYyhjNDUpW2NIXVtjSF1bY0hdW2NIXTUpQyg9TylbTkhdW0NAQEhdKFtDSDNdKUMoPU8pW05IXVtDQEBIXShbQ0gyXVtDSDJdQyg9TylbTkgyXSlDKD1PKVtOSF1bQ0BASF0oW0NIMl1bQ0hdNltDSDJdW0NIMl1bQ0gyXTYpQyg9TylbTkhdW0NAXShbQ0gzXSkoQyg9TylbTkhdW0NAQEhdKFtDSDJdW09IXSlDKD1PKVtOSF1bQ0BASF0oW0NIM10pQyg9TylbTkhdW0NAQEhdKFtDSDNdKUMoPU8pW09IXSlbQ0gyXVtDSDJdW0NIMl1cW0NIXT1bQ0hdXFtDSDJdW0NIMl1bQ0gyXVtDSDJdW0NIMl1bQ0gyXTI=

> <s_epik_cmdline>
J2VwaWtfYXBwJywgJy1pbWFlJywgJ2xpZ2FuZF9wcm8ubWFlJywgJy1vbWFlJywgJ2xpZ2FuZF9wcmVwLm1hZScsICctbXMnLCAnMScsICctcGgnLCAnNycsICctcGh0JywgJzAuNScsICctbnQn

> <s_epik_pKa_notes>
Molecule size exceeds maximum supported for generating protonation states

$$$$
