4n6y_ligand
                    3D
 Schrodinger Suite 2020-3.
 44 46  0  0  1  0            999 V2000
   22.6580   34.5430    2.3720 O   0  0  0  0  0  0
   22.6240   34.7090    1.1500 C   0  0  0  0  0  0
   23.0080   36.0070    0.5480 C   0  0  0  0  0  0
   23.1310   36.1350   -0.8210 N   0  0  0  0  0  0
   23.2250   37.1340    1.2710 C   0  0  0  0  0  0
   23.5820   38.4520    0.2310 S   0  0  0  0  0  0
   23.4310   37.3740   -1.1180 C   0  0  0  0  0  0
   23.6110   37.7410   -2.4380 N   0  0  0  0  0  0
   23.8250   39.0090   -2.9220 C   0  0  0  0  0  0
   23.8630   40.0020   -2.2040 O   0  0  0  0  0  0
   24.0120   39.0980   -4.4050 C   0  0  0  0  0  0
   22.2910   33.7630    0.2440 N   0  0  0  0  0  0
   21.5340   32.5720    0.4020 C   0  0  0  0  0  0
   21.2700   31.7320   -0.7020 C   0  0  0  0  0  0
   20.8120   30.4380   -0.4760 C   0  0  0  0  0  0
   20.5460   30.0020    0.8090 C   0  0  0  0  0  0
   20.7330   30.8410    1.8780 C   0  0  0  0  0  0
   21.2120   32.1240    1.6880 C   0  0  0  0  0  0
   21.3900   32.1850   -2.0500 N   0  0  0  0  0  0
   20.9330   33.5160   -2.4660 C   0  0  0  0  0  0
   20.6560   33.5960   -3.9460 C   0  0  0  0  0  0
   21.8570   33.1440   -4.7370 C   0  0  0  0  0  0
   22.2760   31.7490   -4.3200 C   0  0  0  0  0  0
   22.5180   31.6700   -2.8320 C   0  0  0  0  0  0
   23.1792   37.1941    2.3584 H   0  0  0  0  0  0
   23.5904   36.9769   -3.2290 H   0  0  0  0  0  0
   23.9394   38.0923   -4.8447 H   0  0  0  0  0  0
   25.0022   39.5237   -4.6248 H   0  0  0  0  0  0
   23.2318   39.7433   -4.8349 H   0  0  0  0  0  0
   22.6217   33.8612   -0.8005 H   0  0  0  0  0  0
   20.6617   29.7627   -1.3183 H   0  0  0  0  0  0
   20.1859   28.9864    0.9733 H   0  0  0  0  0  0
   20.5022   30.4935    2.8850 H   0  0  0  0  0  0
   21.3392   32.7886    2.5426 H   0  0  0  0  0  0
   20.0037   33.7675   -1.9339 H   0  0  0  0  0  0
   21.7061   34.2608   -2.2258 H   0  0  0  0  0  0
   19.8020   32.9488   -4.1947 H   0  0  0  0  0  0
   20.4204   34.6351   -4.2193 H   0  0  0  0  0  0
   21.6085   33.1360   -5.8085 H   0  0  0  0  0  0
   22.6941   33.8353   -4.5599 H   0  0  0  0  0  0
   21.4830   31.0338   -4.5837 H   0  0  0  0  0  0
   23.2054   31.4743   -4.8404 H   0  0  0  0  0  0
   23.4201   32.2570   -2.6047 H   0  0  0  0  0  0
   22.6922   30.6151   -2.5735 H   0  0  0  0  0  0
  1  2  2  0  0  0
  2  3  1  0  0  0
  2 12  1  0  0  0
  3  4  1  0  0  0
  3  5  2  0  0  0
  4  7  2  0  0  0
  5  6  1  0  0  0
  5 25  1  0  0  0
  6  7  1  0  0  0
  7  8  1  0  0  0
  8  9  1  0  0  0
  8 26  1  0  0  0
  9 10  2  0  0  0
  9 11  1  0  0  0
 11 27  1  0  0  0
 11 28  1  0  0  0
 11 29  1  0  0  0
 12 13  1  0  0  0
 12 30  1  0  0  0
 13 14  2  0  0  0
 13 18  1  0  0  0
 14 15  1  0  0  0
 14 19  1  0  0  0
 15 16  2  0  0  0
 15 31  1  0  0  0
 16 17  1  0  0  0
 16 32  1  0  0  0
 17 18  2  0  0  0
 17 33  1  0  0  0
 18 34  1  0  0  0
 19 20  1  0  0  0
 19 24  1  0  0  0
 20 21  1  0  0  0
 20 35  1  0  0  0
 20 36  1  0  0  0
 21 22  1  0  0  0
 21 37  1  0  0  0
 21 38  1  0  0  0
 22 23  1  0  0  0
 22 39  1  0  0  0
 22 40  1  0  0  0
 23 24  1  0  0  0
 23 41  1  0  0  0
 23 42  1  0  0  0
 24 43  1  0  0  0
 24 44  1  0  0  0
M  END
> <s_m_source_file>
../4n6y_ligand.sdf

> <i_m_source_file_index>
1

> <s_epik_input>
Tz1DKFtDSDNdKVtOSF1jKHNbY0hdMSluYzFDKD1PKVtOSF1jMmMoW2NIXVtjSF1bY0hdW2NIXTIpTjNbQ0gyXVtDSDJdW0NIMl1bQ0gyXVtDSDJdMw==

> <s_epik_cmdline>
J2VwaWtfYXBwJywgJy1pbWFlJywgJ2xpZ2FuZF9wcm8ubWFlJywgJy1vbWFlJywgJ2xpZ2FuZF9wcmVwLm1hZScsICctbXMnLCAnMScsICctcGgnLCAnNycsICctcGh0JywgJzAuNScsICctbnQn

> <r_lp_tautomer_probability>
1

> <r_epik_Ionization_Penalty>
  0.0102

> <r_epik_Ionization_Penalty_Charging>
  0.0000

> <r_epik_Ionization_Penalty_Neutral>
  0.0102

> <r_epik_State_Penalty>
 -0.0000

> <r_epik_Charging_Adjusted_Penalty>
0

> <i_epik_Tot_Q>
0

> <i_epik_Tot_abs_Q>
0

$$$$
