4n6z_ligand
                    3D
 Schrodinger Suite 2020-3.
 44 46  0  0  1  0            999 V2000
  -18.6500   36.5270    1.6050 O   0  0  0  0  0  0
  -18.9010   36.8130    0.4370 C   0  0  0  0  0  0
  -19.8770   37.9010    0.0910 C   0  0  0  0  0  0
  -20.5690   38.6950    1.0570 C   0  0  0  0  0  0
  -20.3570   38.5810    2.3760 N   0  0  0  0  0  0
  -21.4520   39.6370    0.6490 N   0  0  0  0  0  0
  -21.6260   39.8100   -0.6680 C   0  0  0  0  0  0
  -20.9390   39.0590   -1.5960 C   0  0  0  0  0  0
  -20.0760   38.1000   -1.2290 N   0  0  0  0  0  0
  -18.3300   36.2290   -0.6450 N   0  0  0  0  0  0
  -17.4020   35.1610   -0.7190 C   0  0  0  0  0  0
  -16.9560   34.4490    0.3940 C   0  0  0  0  0  0
  -16.0220   33.4960    0.3470 N   0  3  0  0  0  0
  -15.4890   33.2230   -0.8430 C   0  0  0  0  0  0
  -15.8470   33.8580   -2.0130 C   0  0  0  0  0  0
  -16.8260   34.8480   -1.9580 C   0  0  0  0  0  0
  -17.2400   35.5260   -3.1270 N   0  0  0  0  0  0
  -18.5150   35.0980   -3.7150 C   0  0  0  0  0  0
  -19.0580   36.1470   -4.6550 C   0  0  0  0  0  0
  -18.0070   36.5470   -5.6880 C   0  0  0  0  0  0
  -16.2160   35.9080   -4.1010 C   0  0  0  0  0  0
  -16.7400   37.0180   -4.9930 C   0  0  1  0  0  0
  -15.6770   37.3540   -5.9470 N   0  3  0  0  0  0
  -19.6487   37.8302    2.7564 H   0  0  0  0  0  0
  -20.8914   39.2382    3.0778 H   0  0  0  0  0  0
  -22.3306   40.5659   -1.0147 H   0  0  0  0  0  0
  -21.1010   39.2491   -2.6570 H   0  0  0  0  0  0
  -18.5762   36.5851   -1.6562 H   0  0  0  0  0  0
  -17.3972   34.6851    1.3623 H   0  0  0  0  0  0
  -14.7225   32.4498   -0.8947 H   0  0  0  0  0  0
  -15.3753   33.5919   -2.9589 H   0  0  0  0  0  0
  -18.3644   34.1649   -4.2777 H   0  0  0  0  0  0
  -19.2497   34.9286   -2.9140 H   0  0  0  0  0  0
  -19.9378   35.7479   -5.1810 H   0  0  0  0  0  0
  -19.3478   37.0393   -4.0807 H   0  0  0  0  0  0
  -17.7686   35.6808   -6.3228 H   0  0  0  0  0  0
  -18.3991   37.3628   -6.3131 H   0  0  0  0  0  0
  -15.3194   36.2615   -3.5708 H   0  0  0  0  0  0
  -15.9561   35.0370   -4.7205 H   0  0  0  0  0  0
  -16.9760   37.9360   -4.4348 H   0  0  0  0  0  0
  -16.0227   38.1586   -6.6127 H   0  0  0  0  0  0
  -15.4268   36.4654   -6.5451 H   0  0  0  0  0  0
  -14.7847   37.6899   -5.3984 H   0  0  0  0  0  0
  -15.7230   32.9731    1.2674 H   0  0  0  0  0  0
  1  2  2  0  0  0
  2  3  1  0  0  0
  2 10  1  0  0  0
  3  4  2  0  0  0
  3  9  1  0  0  0
  4  5  1  0  0  0
  4  6  1  0  0  0
  5 24  1  0  0  0
  5 25  1  0  0  0
  6  7  2  0  0  0
  7  8  1  0  0  0
  7 26  1  0  0  0
  8  9  2  0  0  0
  8 27  1  0  0  0
 10 11  1  0  0  0
 10 28  1  0  0  0
 11 12  2  0  0  0
 11 16  1  0  0  0
 12 13  1  0  0  0
 12 29  1  0  0  0
 13 14  2  0  0  0
 13 44  1  0  0  0
 14 15  1  0  0  0
 14 30  1  0  0  0
 15 16  2  0  0  0
 15 31  1  0  0  0
 16 17  1  0  0  0
 17 18  1  0  0  0
 17 21  1  0  0  0
 18 19  1  0  0  0
 18 32  1  0  0  0
 18 33  1  0  0  0
 19 20  1  0  0  0
 19 34  1  0  0  0
 19 35  1  0  0  0
 20 22  1  0  0  0
 20 36  1  0  0  0
 20 37  1  0  0  0
 21 22  1  0  0  0
 21 38  1  0  0  0
 21 39  1  0  0  0
 22 23  1  0  0  0
 22 40  1  0  0  0
 23 41  1  0  0  0
 23 42  1  0  0  0
 23 43  1  0  0  0
M  CHG  2  13   1  23   1
M  END
> <s_m_source_file>
../4n6z_ligand.sdf

> <i_m_source_file_index>
1

> <s_epik_input>
bjFbY0hdW2NIXW5jKFtOSDJdKWMxQyg9TylbTkhdYzJbY0hdbltjSF1bY0hdYzJOM1tDSDJdW0NIMl1bQ0gyXVtDQEBIXShbQ0gyXTMpW05IMytd

> <s_epik_cmdline>
J2VwaWtfYXBwJywgJy1pbWFlJywgJ2xpZ2FuZF9wcm8ubWFlJywgJy1vbWFlJywgJ2xpZ2FuZF9wcmVwLm1hZScsICctbXMnLCAnMScsICctcGgnLCAnNycsICctcGh0JywgJzAuNScsICctbnQn

> <r_lp_tautomer_probability>
0.999999901216808

> <r_epik_Ionization_Penalty>
  0.0682

> <r_epik_Ionization_Penalty_Charging>
  0.0679

> <r_epik_Ionization_Penalty_Neutral>
  0.0004

> <r_epik_State_Penalty>
  0.0580

> <r_epik_Charging_Adjusted_Penalty>
0.125807048871546

> <i_epik_Tot_Q>
2

> <i_epik_Tot_abs_Q>
2

$$$$
