4n70_ligand
                    3D
 Schrodinger Suite 2020-3.
 57 60  0  0  1  0            999 V2000
  -18.9280   37.0040   -4.8710 C   0  0  1  0  0  0
  -18.3960   35.7790   -4.1200 C   0  0  0  0  0  0
  -16.9570   35.9070   -3.7820 N   0  0  0  0  0  0
  -16.0240   36.2020   -4.8740 C   0  0  0  0  0  0
  -16.4900   37.4920   -5.5700 C   0  0  2  0  0  0
  -17.9850   37.3370   -6.0680 C   0  0  2  0  0  0
  -16.5040   35.1370   -2.7190 C   0  0  0  0  0  0
  -15.5390   34.1490   -2.9500 C   0  0  0  0  0  0
  -15.0920   33.3670   -1.8910 C   0  0  0  0  0  0
  -15.5810   33.4920   -0.6480 N   0  3  0  0  0  0
  -16.5070   34.4520   -0.4270 C   0  0  0  0  0  0
  -17.0230   35.2730   -1.4350 C   0  0  0  0  0  0
  -17.9840   36.2680   -1.2130 N   0  0  0  0  0  0
  -20.3760   36.7320   -5.2990 C   0  0  0  0  0  0
  -18.3790   36.7390    0.0190 C   0  0  0  0  0  0
  -19.3030   37.9030   -0.0040 C   0  0  0  0  0  0
  -18.0220   36.3280    1.1060 O   0  0  0  0  0  0
  -19.7720   38.4960    1.2040 C   0  0  0  0  0  0
  -20.5960   39.6200    1.0390 C   0  0  0  0  0  0
  -20.9000   40.0940   -0.2680 C   0  0  0  0  0  0
  -20.3980   39.4380   -1.3920 C   0  0  0  0  0  0
  -19.5950   38.3340   -1.2670 N   0  0  0  0  0  0
  -20.7370   39.8740   -2.7570 C   0  0  0  0  0  0
  -21.7040   41.1730   -0.4340 F   0  0  0  0  0  0
  -15.6420   37.8590   -6.7170 N   0  3  0  0  0  0
  -22.1080   40.0160   -3.1920 C   0  0  0  0  0  0
  -22.4820   40.4490   -4.5010 C   0  0  0  0  0  0
  -21.4930   40.8040   -5.4680 C   0  0  0  0  0  0
  -20.2390   40.5610   -4.9410 C   0  0  0  0  0  0
  -19.7390   40.2170   -3.7000 C   0  0  0  0  0  0
  -18.4530   40.0890   -3.4400 F   0  0  0  0  0  0
  -23.0650   39.6880   -2.2890 F   0  0  0  0  0  0
  -18.3500   38.5910   -6.6960 O   0  0  0  0  0  0
  -18.9484   37.8835   -4.2106 H   0  0  0  0  0  0
  -18.9563   35.6522   -3.1819 H   0  0  0  0  0  0
  -18.5206   34.8828   -4.7455 H   0  0  0  0  0  0
  -15.0120   36.3379   -4.4649 H   0  0  0  0  0  0
  -16.0211   35.3666   -5.5896 H   0  0  0  0  0  0
  -16.3525   38.3112   -4.8489 H   0  0  0  0  0  0
  -18.1197   36.5618   -6.8367 H   0  0  0  0  0  0
  -15.1411   33.9941   -3.9529 H   0  0  0  0  0  0
  -14.3156   32.6250   -2.0775 H   0  0  0  0  0  0
  -16.8707   34.5937    0.5907 H   0  0  0  0  0  0
  -18.4924   36.7416   -2.0657 H   0  0  0  0  0  0
  -20.9843   36.5050   -4.4111 H   0  0  0  0  0  0
  -20.3997   35.8753   -5.9886 H   0  0  0  0  0  0
  -20.7821   37.6207   -5.8042 H   0  0  0  0  0  0
  -19.5093   38.1043    2.1867 H   0  0  0  0  0  0
  -21.0032   40.1300    1.9120 H   0  0  0  0  0  0
  -14.6000   37.9694   -6.3821 H   0  0  0  0  0  0
  -15.9931   38.8105   -7.1429 H   0  0  0  0  0  0
  -15.6996   37.0712   -7.4825 H   0  0  0  0  0  0
  -23.5377   40.5093   -4.7655 H   0  0  0  0  0  0
  -21.6949   41.2026   -6.4622 H   0  0  0  0  0  0
  -19.4515   40.6666   -5.6872 H   0  0  0  0  0  0
  -19.3557   38.7203   -7.1225 H   0  0  0  0  0  0
  -15.2270   32.8251    0.1519 H   0  0  0  0  0  0
  1  2  1  0  0  0
  1  6  1  0  0  0
  1 14  1  0  0  0
  1 34  1  0  0  0
  2  3  1  0  0  0
  2 35  1  0  0  0
  2 36  1  0  0  0
  3  4  1  0  0  0
  3  7  1  0  0  0
  4  5  1  0  0  0
  4 37  1  0  0  0
  4 38  1  0  0  0
  5  6  1  0  0  0
  5 25  1  0  0  0
  5 39  1  0  0  0
  6 33  1  0  0  0
  6 40  1  0  0  0
  7  8  2  0  0  0
  7 12  1  0  0  0
  8  9  1  0  0  0
  8 41  1  0  0  0
  9 10  2  0  0  0
  9 42  1  0  0  0
 10 11  1  0  0  0
 10 57  1  0  0  0
 11 12  2  0  0  0
 11 43  1  0  0  0
 12 13  1  0  0  0
 13 15  1  0  0  0
 13 44  1  0  0  0
 14 45  1  0  0  0
 14 46  1  0  0  0
 14 47  1  0  0  0
 15 16  1  0  0  0
 15 17  2  0  0  0
 16 18  2  0  0  0
 16 22  1  0  0  0
 18 19  1  0  0  0
 18 48  1  0  0  0
 19 20  2  0  0  0
 19 49  1  0  0  0
 20 21  1  0  0  0
 20 24  1  0  0  0
 21 22  2  0  0  0
 21 23  1  0  0  0
 23 26  2  0  0  0
 23 30  1  0  0  0
 25 50  1  0  0  0
 25 51  1  0  0  0
 25 52  1  0  0  0
 26 27  1  0  0  0
 26 32  1  0  0  0
 27 28  2  0  0  0
 27 53  1  0  0  0
 28 29  1  0  0  0
 28 54  1  0  0  0
 29 30  2  0  0  0
 29 55  1  0  0  0
 30 31  1  0  0  0
 33 56  1  0  0  0
M  CHG  2  10   1  25   1
M  END
> <s_m_source_file>
../4n70_ligand.sdf

> <i_m_source_file_index>
1

> <s_epik_input>
W09IXVtDQEhdMVtDQEhdKFtOSDMrXSlbQ0gyXU4oW0NIMl1bQ0BASF0xW0NIM10pYzJbY0hdW2NIXW5bY0hdYzJbTkhdQyg9TyljM1tjSF1bY0hdYyhGKWMobjMpLWM0YyhGKVtjSF1bY0hdW2NIXWM0Rg==

> <s_epik_cmdline>
J2VwaWtfYXBwJywgJy1pbWFlJywgJ2xpZ2FuZF9wcm8ubWFlJywgJy1vbWFlJywgJ2xpZ2FuZF9wcmVwLm1hZScsICctbXMnLCAnMScsICctcGgnLCAnNycsICctcGh0JywgJzAuNScsICctbnQn

> <r_lp_tautomer_probability>
1

> <r_epik_Ionization_Penalty>
  0.0781

> <r_epik_Ionization_Penalty_Charging>
  0.0777

> <r_epik_Ionization_Penalty_Neutral>
  0.0005

> <r_epik_State_Penalty>
 -0.0000

> <r_epik_Charging_Adjusted_Penalty>
0.0776505366289555

> <i_epik_Tot_Q>
2

> <i_epik_Tot_abs_Q>
2

$$$$
