4n7g_ligand
                    3D
 Schrodinger Suite 2020-3.
161160  0  0  1  0            999 V2000
   66.9870   -8.8550   20.2290 N   0  3  0  0  0  0
   67.0540   -7.5680   21.0210 C   0  0  2  0  0  0
   65.6890   -7.1600   21.6070 C   0  0  0  0  0  0
   65.5130   -7.2340   22.8420 O   0  0  0  0  0  0
   67.6100   -6.4080   20.2110 C   0  0  0  0  0  0
   67.7050   -5.1270   21.0440 C   0  0  0  0  0  0
   69.1010   -4.5130   20.9810 C   0  0  0  0  0  0
   69.8100   -4.4440   21.9920 O   0  0  0  0  0  0
   69.5130   -4.0880   19.7820 N   0  0  0  0  0  0
   64.7920   -6.6910   20.7110 N   0  0  0  0  0  0
   63.3300   -6.7840   20.8370 C   0  0  0  0  0  0
   63.0320   -8.2790   21.1090 C   0  0  0  0  0  0
   62.2450   -8.5810   21.9960 O   0  0  0  0  0  0
   63.6600   -9.1900   20.3430 N   0  0  0  0  0  0
   63.4170  -10.6240   20.4430 C   0  0  2  0  0  0
   63.9530  -11.1790   21.7850 C   0  0  0  0  0  0
   63.2180  -11.8970   22.4350 O   0  0  0  0  0  0
   63.9460  -11.4430   19.2540 C   0  0  0  0  0  0
   63.8480  -12.9720   19.3500 C   0  0  0  0  0  0
   62.3670  -13.3230   19.4460 C   0  0  0  0  0  0
   64.4560  -13.5710   18.0660 C   0  0  0  0  0  0
   65.1330  -10.7710   22.2140 N   0  0  0  0  0  0
   65.6700  -11.2450   23.4740 C   0  0  2  0  0  0
   64.7530  -10.8800   24.6200 C   0  0  0  0  0  0
   64.4860  -11.6850   25.4710 O   0  0  0  0  0  0
   67.0710  -10.7240   23.7750 C   0  0  0  0  0  0
   68.1770  -11.5020   23.0940 C   0  0  0  0  0  0
   69.5250  -10.8260   23.3310 C   0  0  0  0  0  0
   68.2070  -12.9540   23.5340 C   0  0  0  0  0  0
   64.2230   -9.6800   24.5840 N   0  0  0  0  0  0
   63.4060   -9.2090   25.6400 C   0  0  2  0  0  0
   62.0530   -9.9340   25.5650 C   0  0  0  0  0  0
   61.4530  -10.2840   26.5990 O   0  0  0  0  0  0
   63.2470   -7.6680   25.4840 C   0  0  0  0  0  0
   62.6360   -7.0040   26.7250 C   0  0  0  0  0  0
   62.7080   -7.5400   27.8550 O   0  0  0  0  0  0
   62.0810   -5.9070   26.5750 O   0  0  0  0  0  0
   61.5630  -10.1580   24.3450 N   0  0  0  0  0  0
   60.2920  -10.7550   24.1690 C   0  0  2  0  0  0
   60.3420  -12.2390   24.6570 C   0  0  0  0  0  0
   59.3000  -12.8020   24.9900 O   0  0  0  0  0  0
   59.8530  -10.7540   22.6800 C   0  0  0  0  0  0
   61.5230  -12.8570   24.6640 N   0  0  0  0  0  0
   61.6290  -14.2680   25.0050 C   0  0  2  0  0  0
   61.5080  -14.5200   26.5150 C   0  0  0  0  0  0
   61.4720  -15.6840   26.9320 O   0  0  0  0  0  0
   62.9920  -14.8290   24.5300 C   0  0  0  0  0  0
   62.8740  -15.1120   23.0000 C   0  0  0  0  0  0
   64.2330  -15.3510   22.4340 C   0  0  0  0  0  0
   62.0020  -16.3560   22.8780 C   0  0  0  0  0  0
   61.4070  -13.4690   27.3270 N   0  0  0  0  0  0
   61.0240  -13.6680   28.7900 C   0  0  2  0  0  0
   61.9890  -14.7020   29.4500 C   0  0  0  0  0  0
   61.6030  -15.6930   30.0540 O   0  0  0  0  0  0
   59.5520  -14.0830   28.8530 C   0  0  0  0  0  0
   58.9840  -14.0700   30.3160 C   0  0  0  0  0  0
   59.6900  -13.5330   31.2150 O   0  0  0  0  0  0
   57.8400  -14.5740   30.5090 O   0  0  0  0  0  0
   63.2800  -14.4640   29.2440 N   0  0  0  0  0  0
   64.2690  -15.4220   29.6140 C   0  0  2  0  0  0
   64.2720  -15.6560   31.1380 C   0  0  0  0  0  0
   64.2690  -14.6810   31.9010 O   0  0  0  0  0  0
   65.6410  -14.8950   29.1710 C   0  0  0  0  0  0
   65.7350  -14.7500   27.6290 C   0  0  0  0  0  0
   67.0700  -14.0740   27.3180 C   0  0  0  0  0  0
   65.5970  -16.1720   27.0160 C   0  0  0  0  0  0
   64.3130  -16.9210   31.5770 N   0  0  0  0  0  0
   64.4490  -17.2310   33.0520 C   0  0  2  0  0  0
   65.8700  -16.8550   33.5330 C   0  0  0  0  0  0
   66.7480  -16.4960   32.7320 O   0  0  0  0  0  0
   64.1400  -18.6880   33.3280 C   0  0  0  0  0  0
   66.1570  -16.8410   34.8090 N   0  0  0  0  0  0
   67.4880  -16.2430   35.2100 C   0  0  2  0  0  0
   68.7400  -17.0100   34.7620 C   0  0  0  0  0  0
   68.7120  -18.2290   34.7710 O   0  0  0  0  0  0
   67.5570  -15.9910   36.7210 C   0  0  0  0  0  0
   66.8500  -14.8040   37.0160 O   0  0  0  0  0  0
   69.7747  -16.3930   34.3928 O   0  0  0  0  0  0
   66.5787   -9.6553   20.8637 H   0  0  0  0  0  0
   67.9973   -9.1323   19.8938 H   0  0  0  0  0  0
   66.3362   -8.7133   19.3536 H   0  0  0  0  0  0
   67.7570   -7.7935   21.8364 H   0  0  0  0  0  0
   68.6182   -6.6618   19.8515 H   0  0  0  0  0  0
   66.9525   -6.2128   19.3510 H   0  0  0  0  0  0
   66.9848   -4.3878   20.6632 H   0  0  0  0  0  0
   67.4750   -5.3553   22.0952 H   0  0  0  0  0  0
   68.8466   -4.1698   18.9106 H   0  0  0  0  0  0
   70.5183   -3.6565   19.6670 H   0  0  0  0  0  0
   65.2384   -6.2071   19.8298 H   0  0  0  0  0  0
   62.9926   -6.1493   21.6697 H   0  0  0  0  0  0
   62.8591   -6.4441   19.9028 H   0  0  0  0  0  0
   64.3879   -8.8050   19.6136 H   0  0  0  0  0  0
   62.3191  -10.6744   20.3985 H   0  0  0  0  0  0
   63.3891  -11.1715   18.3451 H   0  0  0  0  0  0
   65.0147  -11.2279   19.1071 H   0  0  0  0  0  0
   64.3783  -13.3682   20.2286 H   0  0  0  0  0  0
   61.9464  -12.8899   20.3655 H   0  0  0  0  0  0
   62.2501  -14.4165   19.4689 H   0  0  0  0  0  0
   61.8363  -12.9157   18.5728 H   0  0  0  0  0  0
   65.5232  -13.3105   18.0095 H   0  0  0  0  0  0
   63.9324  -13.1645   17.1882 H   0  0  0  0  0  0
   64.3462  -14.6654   18.0843 H   0  0  0  0  0  0
   65.7102  -10.0623   21.6020 H   0  0  0  0  0  0
   65.7124  -12.3339   23.3243 H   0  0  0  0  0  0
   67.1540   -9.6800   23.4387 H   0  0  0  0  0  0
   67.2568  -10.7762   24.8579 H   0  0  0  0  0  0
   67.9610  -11.5036   22.0154 H   0  0  0  0  0  0
   69.4720   -9.7774   23.0031 H   0  0  0  0  0  0
   70.3039  -11.3504   22.7581 H   0  0  0  0  0  0
   69.7704  -10.8631   24.4026 H   0  0  0  0  0  0
   67.2242  -13.4129   23.3511 H   0  0  0  0  0  0
   68.4425  -13.0071   24.6072 H   0  0  0  0  0  0
   68.9761  -13.4944   22.9626 H   0  0  0  0  0  0
   64.4228   -9.0368   23.7143 H   0  0  0  0  0  0
   63.9147   -9.4615   26.5820 H   0  0  0  0  0  0
   64.2336   -7.2132   25.3113 H   0  0  0  0  0  0
   62.5890   -7.4519   24.6294 H   0  0  0  0  0  0
   62.2616   -7.0430   28.7289 H   0  0  0  0  0  0
   62.1622   -9.8714   23.4682 H   0  0  0  0  0  0
   59.6443  -10.1043   24.7749 H   0  0  0  0  0  0
   59.8098   -9.7186   22.3112 H   0  0  0  0  0  0
   58.8592  -11.2170   22.5904 H   0  0  0  0  0  0
   60.5790  -11.3258   22.0833 H   0  0  0  0  0  0
   62.4260  -12.2840   24.4068 H   0  0  0  0  0  0
   60.7727  -14.7187   24.4819 H   0  0  0  0  0  0
   63.7813  -14.0880   24.7244 H   0  0  0  0  0  0
   63.2173  -15.7566   25.0766 H   0  0  0  0  0  0
   62.4544  -14.2797   22.4160 H   0  0  0  0  0  0
   64.8383  -14.4382   22.5358 H   0  0  0  0  0  0
   64.1456  -15.6163   21.3700 H   0  0  0  0  0  0
   64.7174  -16.1748   22.9787 H   0  0  0  0  0  0
   61.0083  -16.1503   23.3026 H   0  0  0  0  0  0
   62.4701  -17.1870   23.4260 H   0  0  0  0  0  0
   61.8983  -16.6285   21.8173 H   0  0  0  0  0  0
   61.6000  -12.4569   26.9418 H   0  0  0  0  0  0
   61.1176  -12.7249   29.3483 H   0  0  0  0  0  0
   58.9490  -13.3880   28.2502 H   0  0  0  0  0  0
   59.4413  -15.1031   28.4566 H   0  0  0  0  0  0
   57.4069  -14.5842   31.5201 H   0  0  0  0  0  0
   63.5817  -13.5127   28.7813 H   0  0  0  0  0  0
   63.9840  -16.3457   29.0890 H   0  0  0  0  0  0
   65.8170  -13.9069   29.6212 H   0  0  0  0  0  0
   66.4254  -15.5926   29.4997 H   0  0  0  0  0  0
   64.9506  -14.1163   27.1895 H   0  0  0  0  0  0
   67.0932  -13.0772   27.7826 H   0  0  0  0  0  0
   67.1852  -13.9736   26.2287 H   0  0  0  0  0  0
   67.8924  -14.6847   27.7189 H   0  0  0  0  0  0
   64.6156  -16.5920   27.2814 H   0  0  0  0  0  0
   66.3925  -16.8206   27.4116 H   0  0  0  0  0  0
   65.6853  -16.1095   25.9213 H   0  0  0  0  0  0
   64.2461  -17.7408   30.8466 H   0  0  0  0  0  0
   63.7014  -16.6405   33.6019 H   0  0  0  0  0  0
   63.1247  -18.9208   32.9744 H   0  0  0  0  0  0
   64.2042  -18.8779   34.4096 H   0  0  0  0  0  0
   64.8667  -19.3232   32.8004 H   0  0  0  0  0  0
   65.4791  -17.2396   35.5781 H   0  0  0  0  0  0
   67.4965  -15.2976   34.6477 H   0  0  0  0  0  0
   67.1028  -16.8385   37.2552 H   0  0  0  0  0  0
   68.6081  -15.8853   37.0275 H   0  0  0  0  0  0
   66.7818  -14.4482   38.0546 H   0  0  0  0  0  0
   70.6654  -16.9543   34.0741 H   0  0  0  0  0  0
  1  2  1  0  0  0
  1 79  1  0  0  0
  1 80  1  0  0  0
  1 81  1  0  0  0
  2  3  1  0  0  0
  2  5  1  0  0  0
  2 82  1  0  0  0
  3  4  2  0  0  0
  3 10  1  0  0  0
  5  6  1  0  0  0
  5 83  1  0  0  0
  5 84  1  0  0  0
  6  7  1  0  0  0
  6 85  1  0  0  0
  6 86  1  0  0  0
  7  8  2  0  0  0
  7  9  1  0  0  0
  9 87  1  0  0  0
  9 88  1  0  0  0
 10 11  1  0  0  0
 10 89  1  0  0  0
 11 12  1  0  0  0
 11 90  1  0  0  0
 11 91  1  0  0  0
 12 13  2  0  0  0
 12 14  1  0  0  0
 14 15  1  0  0  0
 14 92  1  0  0  0
 15 16  1  0  0  0
 15 18  1  0  0  0
 15 93  1  0  0  0
 16 17  2  0  0  0
 16 22  1  0  0  0
 18 19  1  0  0  0
 18 94  1  0  0  0
 18 95  1  0  0  0
 19 20  1  0  0  0
 19 21  1  0  0  0
 19 96  1  0  0  0
 20 97  1  0  0  0
 20 98  1  0  0  0
 20 99  1  0  0  0
 21100  1  0  0  0
 21101  1  0  0  0
 21102  1  0  0  0
 22 23  1  0  0  0
 22103  1  0  0  0
 23 24  1  0  0  0
 23 26  1  0  0  0
 23104  1  0  0  0
 24 25  2  0  0  0
 24 30  1  0  0  0
 26 27  1  0  0  0
 26105  1  0  0  0
 26106  1  0  0  0
 27 28  1  0  0  0
 27 29  1  0  0  0
 27107  1  0  0  0
 28108  1  0  0  0
 28109  1  0  0  0
 28110  1  0  0  0
 29111  1  0  0  0
 29112  1  0  0  0
 29113  1  0  0  0
 30 31  1  0  0  0
 30114  1  0  0  0
 31 32  1  0  0  0
 31 34  1  0  0  0
 31115  1  0  0  0
 32 33  2  0  0  0
 32 38  1  0  0  0
 34 35  1  0  0  0
 34116  1  0  0  0
 34117  1  0  0  0
 35 36  1  0  0  0
 35 37  2  0  0  0
 36118  1  0  0  0
 38 39  1  0  0  0
 38119  1  0  0  0
 39 40  1  0  0  0
 39 42  1  0  0  0
 39120  1  0  0  0
 40 41  2  0  0  0
 40 43  1  0  0  0
 42121  1  0  0  0
 42122  1  0  0  0
 42123  1  0  0  0
 43 44  1  0  0  0
 43124  1  0  0  0
 44 45  1  0  0  0
 44 47  1  0  0  0
 44125  1  0  0  0
 45 46  2  0  0  0
 45 51  1  0  0  0
 47 48  1  0  0  0
 47126  1  0  0  0
 47127  1  0  0  0
 48 49  1  0  0  0
 48 50  1  0  0  0
 48128  1  0  0  0
 49129  1  0  0  0
 49130  1  0  0  0
 49131  1  0  0  0
 50132  1  0  0  0
 50133  1  0  0  0
 50134  1  0  0  0
 51 52  1  0  0  0
 51135  1  0  0  0
 52 53  1  0  0  0
 52 55  1  0  0  0
 52136  1  0  0  0
 53 54  2  0  0  0
 53 59  1  0  0  0
 55 56  1  0  0  0
 55137  1  0  0  0
 55138  1  0  0  0
 56 57  2  0  0  0
 56 58  1  0  0  0
 58139  1  0  0  0
 59 60  1  0  0  0
 59140  1  0  0  0
 60 61  1  0  0  0
 60 63  1  0  0  0
 60141  1  0  0  0
 61 62  2  0  0  0
 61 67  1  0  0  0
 63 64  1  0  0  0
 63142  1  0  0  0
 63143  1  0  0  0
 64 65  1  0  0  0
 64 66  1  0  0  0
 64144  1  0  0  0
 65145  1  0  0  0
 65146  1  0  0  0
 65147  1  0  0  0
 66148  1  0  0  0
 66149  1  0  0  0
 66150  1  0  0  0
 67 68  1  0  0  0
 67151  1  0  0  0
 68 69  1  0  0  0
 68 71  1  0  0  0
 68152  1  0  0  0
 69 70  2  0  0  0
 69 72  1  0  0  0
 71153  1  0  0  0
 71154  1  0  0  0
 71155  1  0  0  0
 72 73  1  0  0  0
 72156  1  0  0  0
 73 74  1  0  0  0
 73 76  1  0  0  0
 73157  1  0  0  0
 74 75  2  0  0  0
 74 78  1  0  0  0
 76 77  1  0  0  0
 76158  1  0  0  0
 76159  1  0  0  0
 77160  1  0  0  0
 78161  1  0  0  0
M  CHG  1   1   1
M  END
> <s_m_source_file>
../4n7g_ligand.sdf

> <i_m_source_file_index>
1

> <s_epik_input>
Tz1DKFtOSDJdKVtDSDJdW0NIMl1bQ0BIXShbTkgzK10pQyg9TylbTkhdW0NIMl1DKD1PKVtOSF1bQ0BASF0oW0NIMl1bQ0hdKFtDSDNdKVtDSDNdKUMoPU8pW05IXVtDQEBIXShbQ0gyXVtDSF0oW0NIM10pW0NIM10pQyg9TylbTkhdW0NAQEhdKFtDSDJdQyg9TylbT0hdKUMoPU8pW05IXVtDQEBIXShbQ0gzXSlDKD1PKVtOSF1bQ0BASF0oW0NIMl1bQ0hdKFtDSDNdKVtDSDNdKUMoPU8pW05IXVtDQEBIXShbQ0gyXUMoPU8pW09IXSlDKD1PKVtOSF1bQ0BASF0oW0NIMl1bQ0hdKFtDSDNdKVtDSDNdKUMoPU8pW05IXVtDQEBIXShbQ0gzXSlDKD1PKVtOSF1bQ0BIXShDKD1PKVtPSF0pW0NIMl1bT0hd

> <s_epik_cmdline>
J2VwaWtfYXBwJywgJy1pbWFlJywgJ2xpZ2FuZF9wcm8ubWFlJywgJy1vbWFlJywgJ2xpZ2FuZF9wcmVwLm1hZScsICctbXMnLCAnMScsICctcGgnLCAnNycsICctcGh0JywgJzAuNScsICctbnQn

> <s_epik_pKa_notes>
Molecule size exceeds maximum supported for generating protonation states

$$$$
