4n7h_ligand
                    3D
 Schrodinger Suite 2020-3.
129131  0  0  1  0            999 V2000
   15.4350   24.7250   -1.6610 N   0  3  0  0  0  0
   16.0530   23.4270   -1.4310 C   0  0  2  0  0  0
   15.0490   22.2680   -1.3120 C   0  0  0  0  0  0
   15.4290   21.1940   -0.8650 O   0  0  0  0  0  0
   16.9320   23.4570   -0.1700 C   0  0  0  0  0  0
   16.1940   23.5410    1.1710 C   0  0  0  0  0  0
   17.1600   23.4670    2.3780 C   0  0  0  0  0  0
   17.4450   22.3430    2.8770 O   0  5  0  0  0  0
   17.6310   24.5360    2.8420 O   0  0  0  0  0  0
   13.7960   22.4780   -1.7180 N   0  0  0  0  0  0
   12.8410   21.3820   -1.8260 C   0  0  2  0  0  0
   13.2610   20.4400   -2.9500 C   0  0  0  0  0  0
   13.9520   20.8620   -3.8880 O   0  0  0  0  0  0
   11.4520   21.9050   -2.0990 C   0  0  0  0  0  0
   12.7970   19.1890   -2.8930 N   0  0  0  0  0  0
   13.1180   18.2470   -3.9640 C   0  0  2  0  0  0
   12.3760   18.5590   -5.2420 C   0  0  0  0  0  0
   11.3440   19.2420   -5.2250 O   0  0  0  0  0  0
   12.6430   16.9080   -3.4130 C   0  0  0  0  0  0
   11.5790   17.2430   -2.5040 C   0  0  0  0  0  0
   11.9280   18.5720   -1.8800 C   0  0  0  0  0  0
   12.8770   18.0240   -6.3520 N   0  0  0  0  0  0
   12.1270   18.1400   -7.5950 C   0  0  2  0  0  0
   10.7540   17.5260   -7.3960 C   0  0  0  0  0  0
   10.6130   16.5420   -6.6820 O   0  0  0  0  0  0
   12.9700   17.3430   -8.5930 C   0  0  0  0  0  0
   14.3170   17.3010   -8.0140 C   0  0  0  0  0  0
   14.1300   17.2750   -6.5250 C   0  0  0  0  0  0
    9.7340   18.1220   -7.9980 N   0  0  0  0  0  0
    8.4040   17.5970   -7.8460 C   0  0  2  0  0  0
    8.1870   16.4660   -8.8020 C   0  0  0  0  0  0
    8.9850   16.2350   -9.7210 O   0  0  0  0  0  0
    7.3770   18.6800   -8.0630 C   0  0  0  0  0  0
    7.4360   19.1080   -9.3860 O   0  0  0  0  0  0
    7.0990   15.7470   -8.5930 N   0  0  0  0  0  0
    6.8510   14.5480   -9.3810 C   0  0  2  0  0  0
    6.7450   14.8810  -10.8600 C   0  0  0  0  0  0
    7.1310   14.0860  -11.7060 O   0  0  0  0  0  0
    5.5920   13.8710   -8.9190 C   0  0  0  0  0  0
    5.3880   12.5330   -9.5640 C   0  0  0  0  0  0
    6.0600   11.4170   -9.0850 C   0  0  0  0  0  0
    4.5520   12.3890  -10.6490 C   0  0  0  0  0  0
    5.8830   10.2070   -9.6470 C   0  0  0  0  0  0
    4.3660   11.1770  -11.2180 C   0  0  0  0  0  0
    5.0530   10.0890  -10.7170 C   0  0  0  0  0  0
    4.8990    8.8480  -11.2730 O   0  0  0  0  0  0
    6.2390   16.0630  -11.1770 N   0  0  0  0  0  0
    6.1360   16.4760  -12.5900 C   0  0  2  0  0  0
    7.4920   16.5880  -13.3000 C   0  0  0  0  0  0
    7.5510   16.6500  -14.5480 O   0  0  0  0  0  0
    5.4160   17.7870  -12.6910 C   0  0  0  0  0  0
    8.5780   16.6140  -12.5340 N   0  0  0  0  0  0
    9.9200   16.7660  -13.0990 C   0  0  2  0  0  0
   10.5850   15.4250  -13.3390 C   0  0  0  0  0  0
   11.7300   15.3690  -13.8050 O   0  0  0  0  0  0
   10.8060   17.6140  -12.1840 C   0  0  0  0  0  0
   10.3440   19.0490  -12.0180 C   0  0  0  0  0  0
   11.2920   19.8750  -11.1550 C   0  0  0  0  0  0
   12.3830   20.2530  -11.6440 O   0  0  0  0  0  0
   10.9490   20.1500   -9.9730 O   0  5  0  0  0  0
    9.8520   14.3590  -13.0420 N   0  0  0  0  0  0
   10.3220   12.9950  -13.2280 C   0  0  2  0  0  0
    9.8070   12.4660  -14.5550 C   0  0  0  0  0  0
   10.6030   12.2080  -15.4450 O   0  0  0  0  0  0
    9.8500   12.0710  -12.0770 C   0  0  0  0  0  0
   10.3800   10.6730  -12.2520 C   0  0  0  0  0  0
   10.2830   12.6280  -10.7200 C   0  0  0  0  0  0
    8.5719   12.2950  -14.7361 O   0  5  0  0  0  0
   14.8122   24.6793   -2.5666 H   0  0  0  0  0  0
   16.2184   25.4859   -1.7927 H   0  0  0  0  0  0
   14.8075   24.9905   -0.7974 H   0  0  0  0  0  0
   16.6454   23.2922   -2.3480 H   0  0  0  0  0  0
   17.5388   22.5407   -0.1242 H   0  0  0  0  0  0
   17.5947   24.3342   -0.2058 H   0  0  0  0  0  0
   15.6475   24.4939    1.2297 H   0  0  0  0  0  0
   15.4834   22.7052    1.2514 H   0  0  0  0  0  0
   13.4884   23.5027   -1.9737 H   0  0  0  0  0  0
   12.8516   20.8705   -0.8522 H   0  0  0  0  0  0
   11.1500   22.5841   -1.2881 H   0  0  0  0  0  0
   10.7470   21.0623   -2.1533 H   0  0  0  0  0  0
   11.4466   22.4497   -3.0546 H   0  0  0  0  0  0
   14.1899   18.3062   -4.2038 H   0  0  0  0  0  0
   12.2890   16.2758   -4.2406 H   0  0  0  0  0  0
   13.4763   16.4066   -2.8991 H   0  0  0  0  0  0
   10.6314   17.3124   -3.0583 H   0  0  0  0  0  0
   11.4963   16.4630   -1.7328 H   0  0  0  0  0  0
   12.4833   18.4652   -0.9365 H   0  0  0  0  0  0
   11.0461   19.2088   -1.7164 H   0  0  0  0  0  0
   11.9763   19.1863   -7.8992 H   0  0  0  0  0  0
   12.5475   16.3337   -8.7060 H   0  0  0  0  0  0
   12.9651   17.8537   -9.5672 H   0  0  0  0  0  0
   14.8384   16.3978   -8.3638 H   0  0  0  0  0  0
   14.8788   18.1933   -8.3274 H   0  0  0  0  0  0
   14.9399   17.7851   -5.9829 H   0  0  0  0  0  0
   14.0067   16.2570   -6.1268 H   0  0  0  0  0  0
    9.9048   19.0176   -8.6134 H   0  0  0  0  0  0
    8.3369   17.2251   -6.8129 H   0  0  0  0  0  0
    6.3741   18.2826   -7.8479 H   0  0  0  0  0  0
    7.5882   19.5254   -7.3917 H   0  0  0  0  0  0
    6.7584   19.8995   -9.7388 H   0  0  0  0  0  0
    6.3792   16.0564   -7.8209 H   0  0  0  0  0  0
    7.7131   13.8881   -9.2043 H   0  0  0  0  0  0
    5.6360   13.7184   -7.8305 H   0  0  0  0  0  0
    4.7249   14.5012   -9.1661 H   0  0  0  0  0  0
    6.7415   11.5222   -8.2408 H   0  0  0  0  0  0
    4.0358   13.2601  -11.0525 H   0  0  0  0  0  0
    6.3986    9.3329   -9.2493 H   0  0  0  0  0  0
    3.6837   11.0603  -12.0600 H   0  0  0  0  0  0
    5.4523    7.9897  -10.8642 H   0  0  0  0  0  0
    5.8944   16.7384  -10.3801 H   0  0  0  0  0  0
    5.5507   15.6760  -13.0668 H   0  0  0  0  0  0
    4.4432   17.7111  -12.1832 H   0  0  0  0  0  0
    5.2581   18.0379  -13.7503 H   0  0  0  0  0  0
    6.0184   18.5739  -12.2136 H   0  0  0  0  0  0
    8.4470   16.5173  -11.4461 H   0  0  0  0  0  0
    9.7573   17.2680  -14.0641 H   0  0  0  0  0  0
   10.8298   17.1666  -11.1794 H   0  0  0  0  0  0
   11.8264   17.6510  -12.5932 H   0  0  0  0  0  0
   10.2805   19.5303  -13.0051 H   0  0  0  0  0  0
    9.3538   19.0624  -11.5392 H   0  0  0  0  0  0
    8.8457   14.5437  -12.6379 H   0  0  0  0  0  0
   11.4199   13.0621  -13.2355 H   0  0  0  0  0  0
    8.7521   12.0075  -12.1007 H   0  0  0  0  0  0
   10.0639   10.2808  -13.2299 H   0  0  0  0  0  0
    9.9847   10.0283  -11.4532 H   0  0  0  0  0  0
   11.4787   10.6883  -12.2008 H   0  0  0  0  0  0
    9.8915   13.6491  -10.6010 H   0  0  0  0  0  0
   11.3815   12.6478  -10.6654 H   0  0  0  0  0  0
    9.8874   11.9878   -9.9177 H   0  0  0  0  0  0
  1  2  1  0  0  0
  1 69  1  0  0  0
  1 70  1  0  0  0
  1 71  1  0  0  0
  2  3  1  0  0  0
  2  5  1  0  0  0
  2 72  1  0  0  0
  3  4  2  0  0  0
  3 10  1  0  0  0
  5  6  1  0  0  0
  5 73  1  0  0  0
  5 74  1  0  0  0
  6  7  1  0  0  0
  6 75  1  0  0  0
  6 76  1  0  0  0
  7  8  1  0  0  0
  7  9  2  0  0  0
 10 11  1  0  0  0
 10 77  1  0  0  0
 11 12  1  0  0  0
 11 14  1  0  0  0
 11 78  1  0  0  0
 12 13  2  0  0  0
 12 15  1  0  0  0
 14 79  1  0  0  0
 14 80  1  0  0  0
 14 81  1  0  0  0
 15 16  1  0  0  0
 15 21  1  0  0  0
 16 17  1  0  0  0
 16 19  1  0  0  0
 16 82  1  0  0  0
 17 18  2  0  0  0
 17 22  1  0  0  0
 19 20  1  0  0  0
 19 83  1  0  0  0
 19 84  1  0  0  0
 20 21  1  0  0  0
 20 85  1  0  0  0
 20 86  1  0  0  0
 21 87  1  0  0  0
 21 88  1  0  0  0
 22 23  1  0  0  0
 22 28  1  0  0  0
 23 24  1  0  0  0
 23 26  1  0  0  0
 23 89  1  0  0  0
 24 25  2  0  0  0
 24 29  1  0  0  0
 26 27  1  0  0  0
 26 90  1  0  0  0
 26 91  1  0  0  0
 27 28  1  0  0  0
 27 92  1  0  0  0
 27 93  1  0  0  0
 28 94  1  0  0  0
 28 95  1  0  0  0
 29 30  1  0  0  0
 29 96  1  0  0  0
 30 31  1  0  0  0
 30 33  1  0  0  0
 30 97  1  0  0  0
 31 32  2  0  0  0
 31 35  1  0  0  0
 33 34  1  0  0  0
 33 98  1  0  0  0
 33 99  1  0  0  0
 34100  1  0  0  0
 35 36  1  0  0  0
 35101  1  0  0  0
 36 37  1  0  0  0
 36 39  1  0  0  0
 36102  1  0  0  0
 37 38  2  0  0  0
 37 47  1  0  0  0
 39 40  1  0  0  0
 39103  1  0  0  0
 39104  1  0  0  0
 40 41  2  0  0  0
 40 42  1  0  0  0
 41 43  1  0  0  0
 41105  1  0  0  0
 42 44  2  0  0  0
 42106  1  0  0  0
 43 45  2  0  0  0
 43107  1  0  0  0
 44 45  1  0  0  0
 44108  1  0  0  0
 45 46  1  0  0  0
 46109  1  0  0  0
 47 48  1  0  0  0
 47110  1  0  0  0
 48 49  1  0  0  0
 48 51  1  0  0  0
 48111  1  0  0  0
 49 50  2  0  0  0
 49 52  1  0  0  0
 51112  1  0  0  0
 51113  1  0  0  0
 51114  1  0  0  0
 52 53  1  0  0  0
 52115  1  0  0  0
 53 54  1  0  0  0
 53 56  1  0  0  0
 53116  1  0  0  0
 54 55  2  0  0  0
 54 61  1  0  0  0
 56 57  1  0  0  0
 56117  1  0  0  0
 56118  1  0  0  0
 57 58  1  0  0  0
 57119  1  0  0  0
 57120  1  0  0  0
 58 59  2  0  0  0
 58 60  1  0  0  0
 61 62  1  0  0  0
 61121  1  0  0  0
 62 63  1  0  0  0
 62 65  1  0  0  0
 62122  1  0  0  0
 63 64  2  0  0  0
 63 68  1  0  0  0
 65 66  1  0  0  0
 65 67  1  0  0  0
 65123  1  0  0  0
 66124  1  0  0  0
 66125  1  0  0  0
 66126  1  0  0  0
 67127  1  0  0  0
 67128  1  0  0  0
 67129  1  0  0  0
M  CHG  4   1   1   8  -1  60  -1  68  -1
M  END
> <s_m_source_file>
../4n7h_ligand.sdf

> <i_m_source_file_index>
1

> <s_epik_input>
W09IXUMoPU8pW0NIMl1bQ0gyXVtDQEhdKFtOSDMrXSlDKD1PKVtOSF1bQ0BASF0oW0NIM10pQyg9TylOMVtDQEBIXShbQ0gyXVtDSDJdW0NIMl0xKUMoPU8pTjJbQ0BASF0oW0NIMl1bQ0gyXVtDSDJdMilDKD1PKVtOSF1bQ0BASF0oW0NIMl1bT0hdKUMoPU8pW05IXVtDQEBIXShbQ0gyXWMzW2NIXVtjSF1jKFtPSF0pW2NIXVtjSF0zKUMoPU8pW05IXVtDQEBIXShbQ0gzXSlDKD1PKVtOSF1bQ0BASF0oW0NIMl1bQ0gyXUMoPU8pW09IXSlDKD1PKVtOSF1bQ0BIXShDKD1PKVtPSF0pW0NIXShbQ0gzXSlbQ0gzXQ==

> <s_epik_cmdline>
J2VwaWtfYXBwJywgJy1pbWFlJywgJ2xpZ2FuZF9wcm8ubWFlJywgJy1vbWFlJywgJ2xpZ2FuZF9wcmVwLm1hZScsICctbXMnLCAnMScsICctcGgnLCAnNycsICctcGh0JywgJzAuNScsICctbnQn

> <r_lp_tautomer_probability>
0.999999999997365

> <r_epik_Ionization_Penalty>
  0.0799

> <r_epik_Ionization_Penalty_Charging>
  0.0791

> <r_epik_Ionization_Penalty_Neutral>
  0.0009

> <r_epik_State_Penalty>
  0.0670

> <r_epik_Charging_Adjusted_Penalty>
0.146066319320577

> <i_epik_Tot_Q>
-2

> <i_epik_Tot_abs_Q>
4

$$$$
