4n7j_ligand
                    3D
 Schrodinger Suite 2020-3.
 27 28  0  0  1  0            999 V2000
  -23.4900  -28.2720    3.8900 O   0  0  0  0  0  0
  -24.5950  -28.4890    4.3840 C   0  0  0  0  0  0
  -25.8700  -28.4530    3.6250 C   0  0  0  0  0  0
  -25.8950  -28.1850    2.2520 C   0  0  0  0  0  0
  -27.1010  -28.1680    1.5570 C   0  0  0  0  0  0
  -24.7070  -28.7810    5.7200 N   0  3  0  0  0  0
  -25.8550  -29.0280    6.4020 C   0  0  0  0  0  0
  -27.0480  -28.9700    5.7260 C   0  0  0  0  0  0
  -27.0880  -28.6930    4.3030 C   0  0  0  0  0  0
  -28.2840  -28.6670    3.5760 C   0  0  0  0  0  0
  -28.2880  -28.4130    2.2170 C   0  0  0  0  0  0
  -25.7370  -29.3350    7.8010 N   0  0  0  0  0  0
  -24.4350  -29.5790    8.4000 C   0  0  0  0  0  0
  -26.8820  -29.3940    8.7270 C   0  0  0  0  0  0
  -24.9629  -27.9880    1.7224 H   0  0  0  0  0  0
  -27.1079  -27.9603    0.4870 H   0  0  0  0  0  0
  -27.5659  -29.9365    5.8127 H   0  0  0  0  0  0
  -27.6763  -28.1773    6.1583 H   0  0  0  0  0  0
  -29.2277  -28.8500    4.0899 H   0  0  0  0  0  0
  -29.2289  -28.4062    1.6667 H   0  0  0  0  0  0
  -23.6567  -29.5116    7.6256 H   0  0  0  0  0  0
  -24.4201  -30.5833    8.8484 H   0  0  0  0  0  0
  -24.2431  -28.8267    9.1792 H   0  0  0  0  0  0
  -27.8118  -29.1961    8.1735 H   0  0  0  0  0  0
  -26.7559  -28.6366    9.5147 H   0  0  0  0  0  0
  -26.9329  -30.3933    9.1839 H   0  0  0  0  0  0
  -23.7401  -28.8047    6.2439 H   0  0  0  0  0  0
  1  2  2  0  0  0
  2  3  1  0  0  0
  2  6  1  0  0  0
  3  4  2  0  0  0
  3  9  1  0  0  0
  4  5  1  0  0  0
  4 15  1  0  0  0
  5 11  2  0  0  0
  5 16  1  0  0  0
  6  7  2  0  0  0
  6 27  1  0  0  0
  7  8  1  0  0  0
  7 12  1  0  0  0
  8  9  1  0  0  0
  8 17  1  0  0  0
  8 18  1  0  0  0
  9 10  2  0  0  0
 10 11  1  0  0  0
 10 19  1  0  0  0
 11 20  1  0  0  0
 12 13  1  0  0  0
 12 14  1  0  0  0
 13 21  1  0  0  0
 13 22  1  0  0  0
 13 23  1  0  0  0
 14 24  1  0  0  0
 14 25  1  0  0  0
 14 26  1  0  0  0
M  CHG  1   6   1
M  END
> <s_m_source_file>
../4n7j_ligand.sdf

> <i_m_source_file_index>
1

> <s_epik_input>
Tz1DMU49QyhOKFtDSDNdKVtDSDNdKVtDSDJdYyhjMTIpW2NIXVtjSF1bY0hdW2NIXTI=

> <s_epik_cmdline>
J2VwaWtfYXBwJywgJy1pbWFlJywgJ2xpZ2FuZF9wcm8ubWFlJywgJy1vbWFlJywgJ2xpZ2FuZF9wcmVwLm1hZScsICctbXMnLCAnMScsICctcGgnLCAnNycsICctcGh0JywgJzAuNScsICctbnQn

> <r_lp_tautomer_probability>
1

> <r_epik_Ionization_Penalty>
  0.0039

> <r_epik_Ionization_Penalty_Charging>
  0.0039

> <r_epik_Ionization_Penalty_Neutral>
  0.0000

> <r_epik_State_Penalty>
 -0.0000

> <r_epik_Charging_Adjusted_Penalty>
0.00389448292656944

> <i_epik_Tot_Q>
1

> <i_epik_Tot_abs_Q>
1

> <s_epik_Chemistry_Notes>
This compound has an imine and may undergo hydrolysis.

$$$$
