4n7u_ligand
                    3D
 Schrodinger Suite 2020-3.
 28 27  0  0  1  0            999 V2000
   21.8930    1.9230  145.2130 O   0  5  0  0  0  0
   21.0250    0.5720  145.0120 P   0  0  0  0  0  0
   21.2170    0.1880  143.4530 O   0  5  0  0  0  0
   19.5990    0.7820  145.3620 O   0  0  0  0  0  0
   21.7750   -0.6010  145.8190 O   0  0  0  0  0  0
   21.4760   -0.9740  147.3720 P   0  0  2  0  0  0
   22.0110   -2.4830  147.6070 O   0  5  0  0  0  0
   20.0520   -0.8360  147.7750 O   0  0  0  0  0  0
   22.4830    0.0120  148.3160 C   0  0  0  0  0  0
   23.8940   -0.5490  148.2850 C   0  0  0  0  0  0
   24.6310    0.3370  149.2600 C   0  0  0  0  0  0
   24.7480   -0.3910  150.5930 C   0  0  1  0  0  0
   24.2450   -1.8270  150.7100 C   0  0  0  0  0  0
   25.4380    0.2500  151.7720 C   0  0  0  0  0  0
   24.7260    1.4530  152.0450 O   0  0  0  0  0  0
   22.4811    1.0341  147.9093 H   0  0  0  0  0  0
   22.1131    0.0289  149.3518 H   0  0  0  0  0  0
   23.8766   -1.6028  148.6001 H   0  0  0  0  0  0
   24.2942   -0.4785  147.2628 H   0  0  0  0  0  0
   25.6342    0.5593  148.8673 H   0  0  0  0  0  0
   24.0740    1.2758  149.3956 H   0  0  0  0  0  0
   24.0056    0.3196  150.9854 H   0  0  0  0  0  0
   23.7724   -2.1282  149.7635 H   0  0  0  0  0  0
   23.5087   -1.8923  151.5246 H   0  0  0  0  0  0
   25.0914   -2.4955  150.9263 H   0  0  0  0  0  0
   25.4036   -0.4336  152.6331 H   0  0  0  0  0  0
   26.4860    0.4612  151.5132 H   0  0  0  0  0  0
   25.0437    2.1044  152.8725 H   0  0  0  0  0  0
  1  2  1  0  0  0
  2  3  1  0  0  0
  2  4  2  0  0  0
  2  5  1  0  0  0
  5  6  1  0  0  0
  6  7  1  0  0  0
  6  8  2  0  0  0
  6  9  1  0  0  0
  9 10  1  0  0  0
  9 16  1  0  0  0
  9 17  1  0  0  0
 10 11  1  0  0  0
 10 18  1  0  0  0
 10 19  1  0  0  0
 11 12  1  0  0  0
 11 20  1  0  0  0
 11 21  1  0  0  0
 12 13  1  0  0  0
 12 14  1  0  0  0
 12 22  1  0  0  0
 13 23  1  0  0  0
 13 24  1  0  0  0
 13 25  1  0  0  0
 14 15  1  0  0  0
 14 26  1  0  0  0
 14 27  1  0  0  0
 15 28  1  0  0  0
M  CHG  3   1  -1   3  -1   7  -1
M  END
> <s_m_source_file>
../4n7u_ligand.sdf

> <i_m_source_file_index>
1

> <s_epik_input>
W09IXVAoPU8pKFtPSF0pT1tQQEBdKD1PKShbT0hdKVtDSDJdW0NIMl1bQ0gyXVtDQEBIXShbQ0gzXSlbQ0gyXVtPSF0=

> <s_epik_cmdline>
J2VwaWtfYXBwJywgJy1pbWFlJywgJ2xpZ2FuZF9wcm8ubWFlJywgJy1vbWFlJywgJ2xpZ2FuZF9wcmVwLm1hZScsICctbXMnLCAnMScsICctcGgnLCAnNycsICctcGh0JywgJzAuNScsICctbnQn

> <r_epik_Ionization_Penalty>
  0.1472

> <r_epik_Ionization_Penalty_Charging>
  0.1472

> <r_epik_Ionization_Penalty_Neutral>
  0.0000

> <r_epik_State_Penalty>
  0.1365

> <r_epik_Charging_Adjusted_Penalty>
0.28365937303819

> <i_epik_Tot_Q>
-3

> <i_epik_Tot_abs_Q>
3

$$$$
