4n7y_ligand
                    3D
 Schrodinger Suite 2020-3.
176175  0  0  1  0            999 V2000
   16.7380   10.7970   18.7280 N   0  3  0  0  0  0
   16.3620   10.8550   17.3250 C   0  0  2  0  0  0
   15.4370   12.0180   17.0230 C   0  0  0  0  0  0
   14.7530   12.5100   17.8980 O   0  0  0  0  0  0
   15.6890    9.5590   16.9280 C   0  0  0  0  0  0
   16.6590    8.4310   16.6700 C   0  0  0  0  0  0
   17.5310    8.6620   15.4570 C   0  0  0  0  0  0
   17.2280    9.4630   14.5850 O   0  0  0  0  0  0
   18.6290    7.9460   15.4080 N   0  0  0  0  0  0
   15.4370   12.4480   15.7060 N   0  0  0  0  0  0
   14.6780   13.5590   15.1180 C   0  0  0  0  0  0
   13.2880   13.0330   15.0280 C   0  0  0  0  0  0
   13.0310   11.8660   14.8780 O   0  0  0  0  0  0
   10.0300   12.3730   13.7570 O   0  0  0  0  0  0
   10.7980   13.2710   13.4160 C   0  0  0  0  0  0
   11.1300   14.4250   14.3620 C   0  0  2  0  0  0
   11.1280   15.7350   13.5730 C   0  0  0  0  0  0
   12.4490   14.1880   14.9650 N   0  0  0  0  0  0
   10.0540   14.5000   15.4470 C   0  0  0  0  0  0
   10.3090   13.4140   16.4940 C   0  0  0  0  0  0
   10.2950   14.0380   17.8910 C   0  0  0  0  0  0
    9.7370   13.0290   18.8960 C   0  0  0  0  0  0
   11.4920   13.4750   12.1150 N   0  0  0  0  0  0
   11.3510   12.7920   10.8210 C   0  0  2  0  0  0
   11.4590   11.2990   11.0710 C   0  0  0  0  0  0
   10.5980   10.5350   10.6030 O   0  0  0  0  0  0
   12.3880   13.2990    9.7940 C   0  0  0  0  0  0
   12.0380   14.6750    9.1540 C   0  0  0  0  0  0
   12.7000   14.8700    7.7740 C   0  0  0  0  0  0
   10.5350   14.8900    9.0090 C   0  0  0  0  0  0
   12.4710   10.9050   11.8600 N   0  0  0  0  0  0
   12.8680    9.4970   11.9960 C   0  0  2  0  0  0
   12.0580    8.7760   13.0420 C   0  0  0  0  0  0
   11.4780    7.7190   12.7620 O   0  0  0  0  0  0
   14.3820    9.3500   12.2540 C   0  0  0  0  0  0
   15.2140    9.7580   11.0460 C   0  0  0  0  0  0
   14.9520    9.2580    9.9360 O   0  0  0  0  0  0
   16.1070   10.6110   11.2000 O   0  0  0  0  0  0
    9.6780    8.2740   15.3480 C   0  0  0  0  0  0
   11.8480    8.8810   14.6720 N   0  0  0  0  0  0
    9.2440    7.1070   15.2520 O   0  0  0  0  0  0
   11.1530    8.5020   15.9350 C   0  0  1  0  0  0
   11.3660    9.7560   16.9670 C   0  0  0  0  0  0
   10.9400   10.5980   19.3440 C   0  0  0  0  0  0
   11.2510   11.9270   18.5920 C   0  0  0  0  0  0
   10.5890    9.4620   18.2860 C   0  0  0  0  0  0
   12.1030    7.2460   16.1130 C   0  0  0  0  0  0
    9.3380    9.3330   14.4790 N   0  0  0  0  0  0
    7.9180    9.3490   14.1650 C   0  0  2  0  0  0
    7.6200    8.9280   12.7070 C   0  0  0  0  0  0
    6.4570    8.9370   12.2830 O   0  0  0  0  0  0
    7.1570   10.6160   14.6150 C   0  0  0  0  0  0
    6.7820   10.7630   16.1330 C   0  0  0  0  0  0
    6.4660   12.2230   16.4940 C   0  0  0  0  0  0
    5.6160    9.8370   16.5420 C   0  0  0  0  0  0
    8.6560    8.5400   11.9390 N   0  0  0  0  0  0
    8.3970    8.0090   10.5780 C   0  0  2  0  0  0
    7.3940    8.9300    9.7910 C   0  0  0  0  0  0
    6.3680    8.4930    9.2180 O   0  0  0  0  0  0
    7.8850    6.5670   10.6830 C   0  0  0  0  0  0
    8.0000    5.7770    9.3390 C   0  0  0  0  0  0
    8.4870    6.3460    8.3250 O   0  0  0  0  0  0
    7.6230    4.5730    9.3190 O   0  0  0  0  0  0
    7.7170   10.2130    9.7800 N   0  0  0  0  0  0
    6.8060   11.2590    9.2900 C   0  0  2  0  0  0
    6.6190   11.1580    7.7820 C   0  0  0  0  0  0
    7.6150   11.0310    7.0680 O   0  0  0  0  0  0
    7.3470   12.6490    9.6830 C   0  0  0  0  0  0
    7.2080   12.8910   11.1840 C   0  0  0  0  0  0
    7.6910   14.3010   11.5220 C   0  0  0  0  0  0
    5.7770   12.6040   11.6930 C   0  0  0  0  0  0
    5.3740   11.2150    7.2780 N   0  0  0  0  0  0
    5.2030   11.1150    5.7960 C   0  0  2  0  0  0
    5.4600   12.4680    5.1160 C   0  0  0  0  0  0
    5.7880   13.4550    5.7940 O   0  0  0  0  0  0
    3.8400   10.5640    5.4010 C   0  0  0  0  0  0
    5.3050   12.4810    3.7860 N   0  0  0  0  0  0
    5.4420   13.6690    2.9060 C   0  0  2  0  0  0
    6.9040   14.0090    2.6400 C   0  0  0  0  0  0
    7.5210   13.4000    1.7710 O   0  0  0  0  0  0
    4.6490   14.8980    3.4060 C   0  0  0  0  0  0
    5.2770   16.1030    2.9770 O   0  0  0  0  0  0
    7.4762   14.9106    3.3088 O   0  0  0  0  0  0
   17.2271   11.7393   19.0158 H   0  0  0  0  0  0
   17.4333    9.9596   18.8869 H   0  0  0  0  0  0
   15.8381   10.6482   19.3429 H   0  0  0  0  0  0
   17.3065   11.0026   16.7809 H   0  0  0  0  0  0
   15.0137    9.2348   17.7335 H   0  0  0  0  0  0
   15.1109    9.7137   16.0050 H   0  0  0  0  0  0
   17.3229    8.3124   17.5390 H   0  0  0  0  0  0
   16.1006    7.4977   16.5051 H   0  0  0  0  0  0
   18.8600    7.2372   16.2169 H   0  0  0  0  0  0
   19.3188    8.0544   14.5580 H   0  0  0  0  0  0
   16.1058   11.8441   15.0751 H   0  0  0  0  0  0
   14.7478   14.4388   15.7746 H   0  0  0  0  0  0
   15.0941   13.8050   14.1299 H   0  0  0  0  0  0
   11.8987   15.6922   12.7893 H   0  0  0  0  0  0
   11.3425   16.5728   14.2528 H   0  0  0  0  0  0
   10.1414   15.8823   13.1094 H   0  0  0  0  0  0
   12.9673   15.0028   15.4918 H   0  0  0  0  0  0
   10.0871   15.4885   15.9284 H   0  0  0  0  0  0
    9.0640   14.3463   14.9929 H   0  0  0  0  0  0
    9.5223   12.6481   16.4269 H   0  0  0  0  0  0
   11.2892   12.9500   16.3098 H   0  0  0  0  0  0
   11.3200   14.3138   18.1797 H   0  0  0  0  0  0
    9.6614   14.9372   17.8846 H   0  0  0  0  0  0
    9.7273   13.4785   19.8999 H   0  0  0  0  0  0
   10.3705   12.1298   18.9029 H   0  0  0  0  0  0
    8.7119   12.7531   18.6079 H   0  0  0  0  0  0
   12.2171   14.2944   12.2283 H   0  0  0  0  0  0
   10.3539   13.0269   10.4202 H   0  0  0  0  0  0
   13.3655   13.4126   10.2855 H   0  0  0  0  0  0
   12.4735   12.5743    8.9709 H   0  0  0  0  0  0
   12.4240   15.4345    9.8498 H   0  0  0  0  0  0
   13.7857   14.7178    7.8634 H   0  0  0  0  0  0
   12.5012   15.8898    7.4128 H   0  0  0  0  0  0
   12.2850   14.1414    7.0620 H   0  0  0  0  0  0
   10.0492   14.7540    9.9865 H   0  0  0  0  0  0
   10.1278   14.1613    8.2926 H   0  0  0  0  0  0
   10.3441   15.9097    8.6434 H   0  0  0  0  0  0
   13.0104   11.6849   12.4176 H   0  0  0  0  0  0
   12.6127    9.0480   11.0248 H   0  0  0  0  0  0
   14.6734    9.9888   13.1008 H   0  0  0  0  0  0
   14.6137    8.3008   12.4895 H   0  0  0  0  0  0
   15.5425    9.5410    9.0521 H   0  0  0  0  0  0
   12.6777    9.6028   14.6961 H   0  0  0  0  0  0
   12.4378    9.8734   17.1851 H   0  0  0  0  0  0
   10.9822   10.6786   16.5071 H   0  0  0  0  0  0
   11.8194   10.2944   19.9310 H   0  0  0  0  0  0
   10.0839   10.7497   20.0179 H   0  0  0  0  0  0
   11.4938   12.7132   19.3220 H   0  0  0  0  0  0
   10.3716   12.2306   18.0050 H   0  0  0  0  0  0
   12.1071   11.7753   17.9181 H   0  0  0  0  0  0
    9.5081    9.4603   18.0822 H   0  0  0  0  0  0
   10.8898    8.4790   18.6775 H   0  0  0  0  0  0
   11.8508    6.4857   15.3591 H   0  0  0  0  0  0
   11.9674    6.8235   17.1195 H   0  0  0  0  0  0
   13.1502    7.5571   15.9839 H   0  0  0  0  0  0
   10.0051   10.0942   14.0482 H   0  0  0  0  0  0
    7.5698    8.5485   14.8343 H   0  0  0  0  0  0
    7.7606   11.5068   14.3865 H   0  0  0  0  0  0
    6.1973   10.6765   14.0808 H   0  0  0  0  0  0
    7.6574   10.4569   16.7245 H   0  0  0  0  0  0
    7.3076   12.8650   16.1949 H   0  0  0  0  0  0
    6.3088   12.3065   17.5795 H   0  0  0  0  0  0
    5.5554   12.5424   15.9660 H   0  0  0  0  0  0
    5.8617    8.7985   16.2754 H   0  0  0  0  0  0
    4.7012   10.1444   16.0142 H   0  0  0  0  0  0
    5.4545    9.9085   17.6277 H   0  0  0  0  0  0
    9.6877    8.6142   12.3133 H   0  0  0  0  0  0
    9.3646    8.0013   10.0549 H   0  0  0  0  0  0
    8.4703    6.0243   11.4400 H   0  0  0  0  0  0
    6.8247    6.5748   10.9756 H   0  0  0  0  0  0
    7.6914    3.9906    8.3883 H   0  0  0  0  0  0
    8.7137   10.4846   10.1579 H   0  0  0  0  0  0
    5.8341   11.0723    9.7702 H   0  0  0  0  0  0
    8.4112   12.7179    9.4134 H   0  0  0  0  0  0
    6.7823   13.4269    9.1483 H   0  0  0  0  0  0
    7.8608   12.1801   11.7117 H   0  0  0  0  0  0
    8.7108   14.4419   11.1346 H   0  0  0  0  0  0
    7.6915   14.4366   12.6136 H   0  0  0  0  0  0
    7.0183   15.0393   11.0611 H   0  0  0  0  0  0
    5.4894   11.5781   11.4194 H   0  0  0  0  0  0
    5.0751   13.3162   11.2346 H   0  0  0  0  0  0
    5.7482   12.7135   12.7872 H   0  0  0  0  0  0
    4.4933   11.3320    7.9266 H   0  0  0  0  0  0
    5.9585   10.3862    5.4672 H   0  0  0  0  0  0
    3.6774    9.5965    5.8986 H   0  0  0  0  0  0
    3.8022   10.4263    4.3103 H   0  0  0  0  0  0
    3.0555   11.2710    5.7087 H   0  0  0  0  0  0
    5.0547   11.5015    3.3526 H   0  0  0  0  0  0
    4.9890   13.3446    1.9575 H   0  0  0  0  0  0
    3.6264   14.8637    3.0020 H   0  0  0  0  0  0
    4.6095   14.8865    4.5052 H   0  0  0  0  0  0
    4.8416   17.0764    3.2470 H   0  0  0  0  0  0
    8.5313   15.1537    3.1146 H   0  0  0  0  0  0
  1  2  1  0  0  0
  1 84  1  0  0  0
  1 85  1  0  0  0
  1 86  1  0  0  0
  2  3  1  0  0  0
  2  5  1  0  0  0
  2 87  1  0  0  0
  3  4  2  0  0  0
  3 10  1  0  0  0
  5  6  1  0  0  0
  5 88  1  0  0  0
  5 89  1  0  0  0
  6  7  1  0  0  0
  6 90  1  0  0  0
  6 91  1  0  0  0
  7  8  2  0  0  0
  7  9  1  0  0  0
  9 92  1  0  0  0
  9 93  1  0  0  0
 10 11  1  0  0  0
 10 94  1  0  0  0
 11 12  1  0  0  0
 11 95  1  0  0  0
 11 96  1  0  0  0
 12 13  2  0  0  0
 12 18  1  0  0  0
 14 15  2  0  0  0
 15 16  1  0  0  0
 15 23  1  0  0  0
 16 17  1  0  0  0
 16 18  1  0  0  0
 16 19  1  0  0  0
 17 97  1  0  0  0
 17 98  1  0  0  0
 17 99  1  0  0  0
 18100  1  0  0  0
 19 20  1  0  0  0
 19101  1  0  0  0
 19102  1  0  0  0
 20 21  1  0  0  0
 20103  1  0  0  0
 20104  1  0  0  0
 21 22  1  0  0  0
 21105  1  0  0  0
 21106  1  0  0  0
 22107  1  0  0  0
 22108  1  0  0  0
 22109  1  0  0  0
 23 24  1  0  0  0
 23110  1  0  0  0
 24 25  1  0  0  0
 24 27  1  0  0  0
 24111  1  0  0  0
 25 26  2  0  0  0
 25 31  1  0  0  0
 27 28  1  0  0  0
 27112  1  0  0  0
 27113  1  0  0  0
 28 29  1  0  0  0
 28 30  1  0  0  0
 28114  1  0  0  0
 29115  1  0  0  0
 29116  1  0  0  0
 29117  1  0  0  0
 30118  1  0  0  0
 30119  1  0  0  0
 30120  1  0  0  0
 31 32  1  0  0  0
 31121  1  0  0  0
 32 33  1  0  0  0
 32 35  1  0  0  0
 32122  1  0  0  0
 33 34  2  0  0  0
 33 40  1  0  0  0
 35 36  1  0  0  0
 35123  1  0  0  0
 35124  1  0  0  0
 36 37  1  0  0  0
 36 38  2  0  0  0
 37125  1  0  0  0
 39 41  2  0  0  0
 39 42  1  0  0  0
 39 48  1  0  0  0
 40 42  1  0  0  0
 40126  1  0  0  0
 42 43  1  0  0  0
 42 47  1  0  0  0
 43 46  1  0  0  0
 43127  1  0  0  0
 43128  1  0  0  0
 44 45  1  0  0  0
 44 46  1  0  0  0
 44129  1  0  0  0
 44130  1  0  0  0
 45131  1  0  0  0
 45132  1  0  0  0
 45133  1  0  0  0
 46134  1  0  0  0
 46135  1  0  0  0
 47136  1  0  0  0
 47137  1  0  0  0
 47138  1  0  0  0
 48 49  1  0  0  0
 48139  1  0  0  0
 49 50  1  0  0  0
 49 52  1  0  0  0
 49140  1  0  0  0
 50 51  2  0  0  0
 50 56  1  0  0  0
 52 53  1  0  0  0
 52141  1  0  0  0
 52142  1  0  0  0
 53 54  1  0  0  0
 53 55  1  0  0  0
 53143  1  0  0  0
 54144  1  0  0  0
 54145  1  0  0  0
 54146  1  0  0  0
 55147  1  0  0  0
 55148  1  0  0  0
 55149  1  0  0  0
 56 57  1  0  0  0
 56150  1  0  0  0
 57 58  1  0  0  0
 57 60  1  0  0  0
 57151  1  0  0  0
 58 59  2  0  0  0
 58 64  1  0  0  0
 60 61  1  0  0  0
 60152  1  0  0  0
 60153  1  0  0  0
 61 62  2  0  0  0
 61 63  1  0  0  0
 63154  1  0  0  0
 64 65  1  0  0  0
 64155  1  0  0  0
 65 66  1  0  0  0
 65 68  1  0  0  0
 65156  1  0  0  0
 66 67  2  0  0  0
 66 72  1  0  0  0
 68 69  1  0  0  0
 68157  1  0  0  0
 68158  1  0  0  0
 69 70  1  0  0  0
 69 71  1  0  0  0
 69159  1  0  0  0
 70160  1  0  0  0
 70161  1  0  0  0
 70162  1  0  0  0
 71163  1  0  0  0
 71164  1  0  0  0
 71165  1  0  0  0
 72 73  1  0  0  0
 72166  1  0  0  0
 73 74  1  0  0  0
 73 76  1  0  0  0
 73167  1  0  0  0
 74 75  2  0  0  0
 74 77  1  0  0  0
 76168  1  0  0  0
 76169  1  0  0  0
 76170  1  0  0  0
 77 78  1  0  0  0
 77171  1  0  0  0
 78 79  1  0  0  0
 78 81  1  0  0  0
 78172  1  0  0  0
 79 80  2  0  0  0
 79 83  1  0  0  0
 81 82  1  0  0  0
 81173  1  0  0  0
 81174  1  0  0  0
 82175  1  0  0  0
 83176  1  0  0  0
M  CHG  1   1   1
M  END
> <s_m_source_file>
../4n7y_ligand.sdf

> <i_m_source_file_index>
1

> <s_epik_input>
Tz1DKFtOSDJdKVtDSDJdW0NIMl1bQ0BIXShbTkgzK10pQyg9TylbTkhdW0NIMl1DKD1PKVtOSF1bQ0BdKFtDSDNdKShbQ0gyXVtDSDJdW0NIMl1bQ0gzXSlDKD1PKVtOSF1bQ0BASF0oW0NIMl1bQ0hdKFtDSDNdKVtDSDNdKUMoPU8pW05IXVtDQEBIXShbQ0gyXUMoPU8pW09IXSlDKD1PKVtOSF1bQ0BAXShbQ0gzXSkoW0NIMl1bQ0gyXVtDSDJdW0NIM10pQyg9TylbTkhdW0NAQEhdKFtDSDJdW0NIXShbQ0gzXSlbQ0gzXSlDKD1PKVtOSF1bQ0BASF0oW0NIMl1DKD1PKVtPSF0pQyg9TylbTkhdW0NAQEhdKFtDSDJdW0NIXShbQ0gzXSlbQ0gzXSlDKD1PKVtOSF1bQ0BASF0oW0NIM10pQyg9TylbTkhdW0NASF0oQyg9TylbT0hdKVtDSDJdW09IXQ==

> <s_epik_cmdline>
J2VwaWtfYXBwJywgJy1pbWFlJywgJ2xpZ2FuZF9wcm8ubWFlJywgJy1vbWFlJywgJ2xpZ2FuZF9wcmVwLm1hZScsICctbXMnLCAnMScsICctcGgnLCAnNycsICctcGh0JywgJzAuNScsICctbnQn

> <s_epik_pKa_notes>
Molecule size exceeds maximum supported for generating protonation states

$$$$
