4n84_ligand
                    3D
 Schrodinger Suite 2020-3.
177176  0  0  1  0            999 V2000
   30.2030  -12.4910   12.1580 N   0  3  0  0  0  0
   31.2370  -13.1750   13.0220 C   0  0  0  0  0  0
   31.6530  -12.2500   14.1640 C   0  0  2  0  0  0
   32.3640  -11.2140   14.0000 O   0  0  0  0  0  0
   34.0820   -9.6680   15.3150 O   0  0  0  0  0  0
   34.4250  -10.8620   15.4860 C   0  0  1  0  0  0
   33.3520  -11.8310   16.0260 C   0  0  1  0  0  0
   32.1560  -10.9660   16.5030 C   0  0  0  0  0  0
   32.9150  -12.7580   14.9940 N   0  3  0  0  0  0
   34.0210  -12.6620   17.1240 C   0  0  0  0  0  0
   34.7540  -11.7490   18.1150 C   0  0  0  0  0  0
   36.1000  -12.3020   18.6110 C   0  0  0  0  0  0
   37.1960  -12.0740   17.5670 C   0  0  0  0  0  0
   37.8070  -10.6750   17.6730 C   0  0  0  0  0  0
   38.0050  -10.2350   19.1370 C   0  0  0  0  0  0
   34.7550  -11.5730   14.1550 N   0  3  0  0  0  0
   35.9690  -11.4410   13.2930 C   0  0  2  0  0  0
   35.7440  -10.4400   12.1470 C   0  0  0  0  0  0
   36.7130   -9.9270   11.5630 O   0  0  0  0  0  0
   36.3800  -12.7980   12.7120 C   0  0  0  0  0  0
   37.0880  -13.8660   13.5800 C   0  0  0  0  0  0
   37.5820  -15.0130   12.7050 C   0  0  0  0  0  0
   38.2510  -13.3430   14.3820 C   0  0  0  0  0  0
   34.4810  -10.1710   11.8350 N   0  0  0  0  0  0
   34.1370   -9.2390   10.7670 C   0  0  2  0  0  0
   34.6110   -7.8260   11.0950 C   0  0  0  0  0  0
   35.4270   -7.2530   10.3740 O   0  0  0  0  0  0
   32.6280   -9.2420   10.5180 C   0  0  0  0  0  0
   32.1880   -8.1270    9.5900 C   0  0  0  0  0  0
   32.7860   -7.9860    8.5020 O   0  0  0  0  0  0
   31.2440   -7.3910    9.9480 O   0  0  0  0  0  0
   37.4300   -4.8260   11.9080 O   0  0  0  0  0  0
   36.9330   -5.8880   12.3520 C   0  0  0  0  0  0
   35.4370   -6.0070   12.6800 C   0  0  1  0  0  0
   34.6270   -5.0390   11.8000 C   0  0  0  0  0  0
   35.0680   -7.4260   12.4400 N   0  0  0  0  0  0
   35.1570   -5.7140   14.1780 C   0  0  0  0  0  0
   36.2530   -6.4200   14.9490 C   0  0  0  0  0  0
   35.9110   -6.6260   16.4110 C   0  0  0  0  0  0
   37.2980   -7.0080   16.9890 C   0  0  0  0  0  0
   37.1790   -8.0220   18.0600 C   0  0  0  0  0  0
   38.5160   -8.7170   18.1800 C   0  0  0  0  0  0
   37.6310   -7.3150   12.0860 N   0  0  0  0  0  0
   39.1040   -7.3260   11.9890 C   0  0  2  0  0  0
   39.4650   -7.0060   10.5650 C   0  0  0  0  0  0
   40.6240   -6.8310   10.2260 O   0  0  0  0  0  0
   39.6130   -8.6850   12.3960 C   0  0  0  0  0  0
   39.9850   -8.6580   13.8740 C   0  0  0  0  0  0
   40.3430  -10.0390   14.2930 C   0  0  0  0  0  0
   41.1410   -7.7190   14.1610 C   0  0  0  0  0  0
   38.4450   -6.9250    9.7180 N   0  0  0  0  0  0
   38.6520   -6.6980    8.2740 C   0  0  2  0  0  0
   39.7540   -7.5910    7.6950 C   0  0  0  0  0  0
   40.7610   -7.1180    7.1430 O   0  0  0  0  0  0
   38.9740   -5.2150    7.9850 C   0  0  0  0  0  0
   38.5850   -4.7880    6.5360 C   0  0  0  0  0  0
   38.0590   -5.6720    5.7840 O   0  0  0  0  0  0
   38.7680   -3.5630    6.1780 O   0  0  0  0  0  0
   39.5780   -8.8880    7.8430 N   0  0  0  0  0  0
   40.6790   -9.8490    7.5310 C   0  0  2  0  0  0
   40.9580   -9.8840    6.0340 C   0  0  0  0  0  0
   40.0270   -9.8180    5.2690 O   0  0  0  0  0  0
   40.2690  -11.2370    8.0010 C   0  0  0  0  0  0
   40.1740  -11.3810    9.5450 C   0  0  0  0  0  0
   39.6530  -12.7710    9.9880 C   0  0  0  0  0  0
   41.4720  -11.0390   10.2280 C   0  0  0  0  0  0
   42.2110   -9.9060    5.6000 N   0  0  0  0  0  0
   42.4520  -10.1210    4.1460 C   0  0  2  0  0  0
   42.1850  -11.6060    3.6420 C   0  0  0  0  0  0
   41.6540  -12.4490    4.3930 O   0  0  0  0  0  0
   43.8410   -9.6010    3.7700 C   0  0  0  0  0  0
   42.5520  -11.9420    2.4000 N   0  0  0  0  0  0
   42.0770  -13.2190    1.7310 C   0  0  2  0  0  0
   40.5510  -13.3480    1.7480 C   0  0  0  0  0  0
   39.8750  -12.9720    0.7890 O   0  0  0  0  0  0
   42.6470  -14.5090    2.3500 C   0  0  0  0  0  0
   43.8910  -14.2730    2.9490 O   0  0  0  0  0  0
   39.9798  -13.8448    2.7552 O   0  0  0  0  0  0
   29.9081  -13.1624   11.3381 H   0  0  0  0  0  0
   30.6280  -11.5665   11.7400 H   0  0  0  0  0  0
   29.3203  -12.2462   12.7670 H   0  0  0  0  0  0
   30.8120  -14.0995   13.4400 H   0  0  0  0  0  0
   32.1198  -13.4198   12.4131 H   0  0  0  0  0  0
   30.6310  -11.9894   14.4764 H   0  0  0  0  0  0
   31.9756  -10.3674   13.4148 H   0  0  0  0  0  0
   33.8184   -9.0422   16.1803 H   0  0  0  0  0  0
   35.2058  -10.5126   16.1776 H   0  0  0  0  0  0
   31.7432  -10.4085   15.6493 H   0  0  0  0  0  0
   32.4991  -10.2581   17.2719 H   0  0  0  0  0  0
   31.3776  -11.6180   16.9260 H   0  0  0  0  0  0
   32.6684  -13.7074   15.4918 H   0  0  0  0  0  0
   33.7647  -12.9112   14.3124 H   0  0  0  0  0  0
   33.2559  -13.2373   17.6659 H   0  0  0  0  0  0
   34.7465  -13.3532   16.6701 H   0  0  0  0  0  0
   34.9615  -10.7804   17.6367 H   0  0  0  0  0  0
   34.1246  -11.5918   19.0033 H   0  0  0  0  0  0
   36.3850  -11.7918   19.5430 H   0  0  0  0  0  0
   36.0062  -13.3819   18.7981 H   0  0  0  0  0  0
   37.9993  -12.8114   17.7117 H   0  0  0  0  0  0
   36.7713  -12.1877   16.5587 H   0  0  0  0  0  0
   38.7892  -10.6654   17.1777 H   0  0  0  0  0  0
   37.1429   -9.9468   17.1844 H   0  0  0  0  0  0
   38.4450   -9.2271   19.1606 H   0  0  0  0  0  0
   38.6788  -10.9412   19.6442 H   0  0  0  0  0  0
   37.0325  -10.2227   19.6509 H   0  0  0  0  0  0
   34.7759  -12.6610   14.3159 H   0  0  0  0  0  0
   33.9861  -11.3275   13.4077 H   0  0  0  0  0  0
   36.7601  -11.0655   13.9587 H   0  0  0  0  0  0
   35.4873  -13.3247   12.3437 H   0  0  0  0  0  0
   37.0834  -12.6431   11.8806 H   0  0  0  0  0  0
   36.3467  -14.2128   14.3150 H   0  0  0  0  0  0
   36.7446  -15.4081   12.1111 H   0  0  0  0  0  0
   37.9883  -15.8119   13.3427 H   0  0  0  0  0  0
   38.3694  -14.6464   12.0300 H   0  0  0  0  0  0
   37.9127  -12.5135   15.0203 H   0  0  0  0  0  0
   39.0353  -12.9841   13.6993 H   0  0  0  0  0  0
   38.6542  -14.1496   15.0120 H   0  0  0  0  0  0
   33.6850  -10.6717   12.4056 H   0  0  0  0  0  0
   34.6716   -9.6088    9.8796 H   0  0  0  0  0  0
   32.3338  -10.1980   10.0604 H   0  0  0  0  0  0
   32.0984   -9.1146   11.4737 H   0  0  0  0  0  0
   32.4871   -7.1850    7.8099 H   0  0  0  0  0  0
   34.8291   -5.2510   10.7397 H   0  0  0  0  0  0
   34.9191   -4.0035   12.0291 H   0  0  0  0  0  0
   33.5538   -5.1705   12.0021 H   0  0  0  0  0  0
   35.1378   -8.1583   13.2578 H   0  0  0  0  0  0
   35.1841   -4.6279   14.3505 H   0  0  0  0  0  0
   34.1645   -6.1036   14.4486 H   0  0  0  0  0  0
   36.4336   -7.4104   14.5056 H   0  0  0  0  0  0
   37.1762   -5.8238   14.9029 H   0  0  0  0  0  0
   35.5040   -5.6927   16.8274 H   0  0  0  0  0  0
   35.1617   -7.4260   16.5031 H   0  0  0  0  0  0
   37.9282   -7.4208   16.1875 H   0  0  0  0  0  0
   37.7793   -6.1127   17.4094 H   0  0  0  0  0  0
   36.9175   -7.5265   19.0066 H   0  0  0  0  0  0
   36.3931   -8.7446   17.7951 H   0  0  0  0  0  0
   38.4629   -9.4802   18.9704 H   0  0  0  0  0  0
   39.2912   -7.9792   18.4343 H   0  0  0  0  0  0
   38.7668   -9.1973   17.2227 H   0  0  0  0  0  0
   37.0656   -8.2523   11.9775 H   0  0  0  0  0  0
   39.5446   -6.5749   12.6612 H   0  0  0  0  0  0
   38.8279   -9.4365   12.2263 H   0  0  0  0  0  0
   40.4995   -8.9392   11.7965 H   0  0  0  0  0  0
   39.1223   -8.3037   14.4572 H   0  0  0  0  0  0
   39.5016  -10.7157   14.0828 H   0  0  0  0  0  0
   40.5619  -10.0500   15.3709 H   0  0  0  0  0  0
   41.2303  -10.3730   13.7352 H   0  0  0  0  0  0
   40.8711   -6.6992   13.8493 H   0  0  0  0  0  0
   42.0294   -8.0499   13.6031 H   0  0  0  0  0  0
   41.3609   -7.7269   15.2388 H   0  0  0  0  0  0
   37.4256   -7.0317   10.1174 H   0  0  0  0  0  0
   37.6920   -6.9843    7.8196 H   0  0  0  0  0  0
   38.4177   -4.5756    8.6863 H   0  0  0  0  0  0
   40.0533   -5.0431    8.1094 H   0  0  0  0  0  0
   38.5003   -3.2415    5.1607 H   0  0  0  0  0  0
   38.6071   -9.2613    8.2007 H   0  0  0  0  0  0
   41.5840   -9.5096    8.0562 H   0  0  0  0  0  0
   39.2789  -11.4853    7.5911 H   0  0  0  0  0  0
   41.0061  -11.9750    7.6517 H   0  0  0  0  0  0
   39.4494  -10.6298    9.8923 H   0  0  0  0  0  0
   38.7064  -12.9892    9.4720 H   0  0  0  0  0  0
   39.4864  -12.7706   11.0753 H   0  0  0  0  0  0
   40.3964  -13.5401    9.7312 H   0  0  0  0  0  0
   41.8132  -10.0487    9.8921 H   0  0  0  0  0  0
   42.2304  -11.7940    9.9733 H   0  0  0  0  0  0
   41.3204  -11.0245   11.3174 H   0  0  0  0  0  0
   43.0615   -9.7704    6.2843 H   0  0  0  0  0  0
   41.7017   -9.4822    3.6571 H   0  0  0  0  0  0
   43.9621   -8.5742    4.1456 H   0  0  0  0  0  0
   43.9506   -9.6064    2.6755 H   0  0  0  0  0  0
   44.6087  -10.2485    4.2187 H   0  0  0  0  0  0
   43.2219  -11.2554    1.8616 H   0  0  0  0  0  0
   42.4555  -13.1073    0.7042 H   0  0  0  0  0  0
   41.9532  -14.8858    3.1159 H   0  0  0  0  0  0
   42.7730  -15.2683    1.5641 H   0  0  0  0  0  0
   44.4314  -15.0972    3.4376 H   0  0  0  0  0  0
   38.8842  -13.9406    2.7746 H   0  0  0  0  0  0
  1  2  1  0  0  0
  1 79  1  0  0  0
  1 80  1  0  0  0
  1 81  1  0  0  0
  2  3  1  0  0  0
  2 82  1  0  0  0
  2 83  1  0  0  0
  3  4  1  0  0  0
  3  9  1  0  0  0
  3 84  1  0  0  0
  4 85  1  0  0  0
  5  6  1  0  0  0
  5 86  1  0  0  0
  6  7  1  0  0  0
  6 16  1  0  0  0
  6 87  1  0  0  0
  7  8  1  0  0  0
  7  9  1  0  0  0
  7 10  1  0  0  0
  8 88  1  0  0  0
  8 89  1  0  0  0
  8 90  1  0  0  0
  9 91  1  0  0  0
  9 92  1  0  0  0
 10 11  1  0  0  0
 10 93  1  0  0  0
 10 94  1  0  0  0
 11 12  1  0  0  0
 11 95  1  0  0  0
 11 96  1  0  0  0
 12 13  1  0  0  0
 12 97  1  0  0  0
 12 98  1  0  0  0
 13 14  1  0  0  0
 13 99  1  0  0  0
 13100  1  0  0  0
 14 15  1  0  0  0
 14101  1  0  0  0
 14102  1  0  0  0
 15103  1  0  0  0
 15104  1  0  0  0
 15105  1  0  0  0
 16 17  1  0  0  0
 16106  1  0  0  0
 16107  1  0  0  0
 17 18  1  0  0  0
 17 20  1  0  0  0
 17108  1  0  0  0
 18 19  2  0  0  0
 18 24  1  0  0  0
 20 21  1  0  0  0
 20109  1  0  0  0
 20110  1  0  0  0
 21 22  1  0  0  0
 21 23  1  0  0  0
 21111  1  0  0  0
 22112  1  0  0  0
 22113  1  0  0  0
 22114  1  0  0  0
 23115  1  0  0  0
 23116  1  0  0  0
 23117  1  0  0  0
 24 25  1  0  0  0
 24118  1  0  0  0
 25 26  1  0  0  0
 25 28  1  0  0  0
 25119  1  0  0  0
 26 27  2  0  0  0
 26 36  1  0  0  0
 28 29  1  0  0  0
 28120  1  0  0  0
 28121  1  0  0  0
 29 30  1  0  0  0
 29 31  2  0  0  0
 30122  1  0  0  0
 32 33  2  0  0  0
 33 34  1  0  0  0
 33 43  1  0  0  0
 34 35  1  0  0  0
 34 36  1  0  0  0
 34 37  1  0  0  0
 35123  1  0  0  0
 35124  1  0  0  0
 35125  1  0  0  0
 36126  1  0  0  0
 37 38  1  0  0  0
 37127  1  0  0  0
 37128  1  0  0  0
 38 39  1  0  0  0
 38129  1  0  0  0
 38130  1  0  0  0
 39 40  1  0  0  0
 39131  1  0  0  0
 39132  1  0  0  0
 40 41  1  0  0  0
 40133  1  0  0  0
 40134  1  0  0  0
 41 42  1  0  0  0
 41135  1  0  0  0
 41136  1  0  0  0
 42137  1  0  0  0
 42138  1  0  0  0
 42139  1  0  0  0
 43 44  1  0  0  0
 43140  1  0  0  0
 44 45  1  0  0  0
 44 47  1  0  0  0
 44141  1  0  0  0
 45 46  2  0  0  0
 45 51  1  0  0  0
 47 48  1  0  0  0
 47142  1  0  0  0
 47143  1  0  0  0
 48 49  1  0  0  0
 48 50  1  0  0  0
 48144  1  0  0  0
 49145  1  0  0  0
 49146  1  0  0  0
 49147  1  0  0  0
 50148  1  0  0  0
 50149  1  0  0  0
 50150  1  0  0  0
 51 52  1  0  0  0
 51151  1  0  0  0
 52 53  1  0  0  0
 52 55  1  0  0  0
 52152  1  0  0  0
 53 54  2  0  0  0
 53 59  1  0  0  0
 55 56  1  0  0  0
 55153  1  0  0  0
 55154  1  0  0  0
 56 57  2  0  0  0
 56 58  1  0  0  0
 58155  1  0  0  0
 59 60  1  0  0  0
 59156  1  0  0  0
 60 61  1  0  0  0
 60 63  1  0  0  0
 60157  1  0  0  0
 61 62  2  0  0  0
 61 67  1  0  0  0
 63 64  1  0  0  0
 63158  1  0  0  0
 63159  1  0  0  0
 64 65  1  0  0  0
 64 66  1  0  0  0
 64160  1  0  0  0
 65161  1  0  0  0
 65162  1  0  0  0
 65163  1  0  0  0
 66164  1  0  0  0
 66165  1  0  0  0
 66166  1  0  0  0
 67 68  1  0  0  0
 67167  1  0  0  0
 68 69  1  0  0  0
 68 71  1  0  0  0
 68168  1  0  0  0
 69 70  2  0  0  0
 69 72  1  0  0  0
 71169  1  0  0  0
 71170  1  0  0  0
 71171  1  0  0  0
 72 73  1  0  0  0
 72172  1  0  0  0
 73 74  1  0  0  0
 73 76  1  0  0  0
 73173  1  0  0  0
 74 75  2  0  0  0
 74 78  1  0  0  0
 76 77  1  0  0  0
 76174  1  0  0  0
 76175  1  0  0  0
 77176  1  0  0  0
 78177  1  0  0  0
M  CHG  3   1   1   9   1  16   1
M  END
> <s_m_source_file>
../4n84_ligand.sdf

> <i_m_source_file_index>
1

> <s_epik_input>
W0NIM11bQ0gyXVtDSDJdW0NIMl1bQ0gyXVtDSDJdW0NAXShbQ0gzXSkoW05IMitdW0NAQEhdKFtPSF0pW0NIMl1bTkgzK10pW0NASF0oW09IXSlbTkgyK11bQ0BASF0oW0NIMl1bQ0hdKFtDSDNdKVtDSDNdKUMoPU8pW05IXVtDQEBIXShbQ0gyXUMoPU8pW09IXSlDKD1PKVtOSF1bQ0BAXShbQ0gzXSkoW0NIMl1bQ0gyXVtDSDJdW0NIMl1bQ0gyXVtDSDNdKUMoPU8pW05IXVtDQEBIXShbQ0gyXVtDSF0oW0NIM10pW0NIM10pQyg9TylbTkhdW0NAQEhdKFtDSDJdQyg9TylbT0hdKUMoPU8pW05IXVtDQEBIXShbQ0gyXVtDSF0oW0NIM10pW0NIM10pQyg9TylbTkhdW0NAQEhdKFtDSDNdKUMoPU8pW05IXVtDQEhdKEMoPU8pW09IXSlbQ0gyXVtPSF0=

> <s_epik_cmdline>
J2VwaWtfYXBwJywgJy1pbWFlJywgJ2xpZ2FuZF9wcm8ubWFlJywgJy1vbWFlJywgJ2xpZ2FuZF9wcmVwLm1hZScsICctbXMnLCAnMScsICctcGgnLCAnNycsICctcGh0JywgJzAuNScsICctbnQn

> <s_epik_pKa_notes>
Molecule size exceeds maximum supported for generating protonation states

> <s_epik_Chemistry_Notes>
This compound contains an acetal/aminal-like group ( X-CH(R)-Y where X, Y are N, S, or O) that may be acid/base labile, releasing an aldehyde.

$$$$
