4n8d_ligand
                    3D
 Schrodinger Suite 2020-3.
 52 54  0  0  1  0            999 V2000
   17.9940   33.9110   54.6070 C   0  0  1  0  0  0
   18.2790   35.4180   54.8790 C   0  0  0  0  0  0
   17.1200   33.2450   55.7300 C   0  0  0  0  0  0
   19.2280   37.5620   54.0980 C   0  0  0  0  0  0
   18.4430   37.3480   56.3660 C   0  0  0  0  0  0
   16.2400   31.4030   54.1060 C   0  0  1  0  0  0
   19.0030   38.1390   55.3550 C   0  0  0  0  0  0
   15.6190   29.4110   52.8410 C   0  0  0  0  0  0
   15.5180   27.9080   52.9550 C   0  0  0  0  0  0
   16.3170   27.0460   52.2970 C   0  0  0  0  0  0
   16.1960   25.5370   52.4070 C   0  0  0  0  0  0
   16.2780   24.7730   51.2200 C   0  0  0  0  0  0
   15.9770   24.8670   53.6390 C   0  0  0  0  0  0
   16.1610   23.3650   51.2650 C   0  0  0  0  0  0
   15.8600   23.4590   53.6850 C   0  0  0  0  0  0
   15.9640   22.7080   52.4970 C   0  0  0  0  0  0
   17.1710   33.7180   53.2820 C   0  0  0  0  0  0
   19.4150   33.2560   54.5200 C   0  0  0  0  0  0
   18.8650   36.2150   53.8770 C   0  0  0  0  0  0
   18.0780   36.0250   56.1590 C   0  0  0  0  0  0
   16.8910   31.7170   55.4930 C   0  0  0  0  0  0
   16.8740   32.2210   52.9270 C   0  0  0  0  0  0
   20.1570   33.4130   55.7810 N   0  3  0  0  0  0
   16.3840   29.9550   53.9570 O   0  0  0  0  0  0
   17.6205   33.3629   56.7024 H   0  0  0  0  0  0
   16.1339   33.7312   55.7639 H   0  0  0  0  0  0
   19.6794   38.1479   53.2973 H   0  0  0  0  0  0
   18.2881   37.7874   57.3514 H   0  0  0  0  0  0
   15.1668   31.6403   54.0617 H   0  0  0  0  0  0
   19.2586   39.1820   55.5421 H   0  0  0  0  0  0
   16.1227   29.6742   51.8992 H   0  0  0  0  0  0
   14.6097   29.8482   52.8516 H   0  0  0  0  0  0
   14.7328   27.5281   53.6251 H   0  0  0  0  0  0
   17.1100   27.4260   51.6361 H   0  0  0  0  0  0
   16.4325   25.2731   50.2639 H   0  0  0  0  0  0
   15.8982   25.4447   54.5600 H   0  0  0  0  0  0
   16.2233   22.7851   50.3441 H   0  0  0  0  0  0
   15.6898   22.9556   54.6367 H   0  0  0  0  0  0
   15.8923   21.6209   52.5305 H   0  0  0  0  0  0
   16.2006   34.2276   53.3756 H   0  0  0  0  0  0
   17.7302   34.1466   52.4373 H   0  0  0  0  0  0
   19.3112   32.1817   54.3077 H   0  0  0  0  0  0
   19.9908   33.7349   53.7144 H   0  0  0  0  0  0
   19.0450   35.7767   52.8954 H   0  0  0  0  0  0
   17.6379   35.4479   56.9722 H   0  0  0  0  0  0
   17.8560   31.1907   55.5353 H   0  0  0  0  0  0
   16.2231   31.3211   56.2722 H   0  0  0  0  0  0
   17.8285   31.7602   52.6328 H   0  0  0  0  0  0
   16.1863   32.2199   52.0685 H   0  0  0  0  0  0
   21.1469   32.9431   55.6849 H   0  0  0  0  0  0
   19.5995   32.9300   56.5970 H   0  0  0  0  0  0
   20.2792   34.4833   56.0037 H   0  0  0  0  0  0
  1  2  1  0  0  0
  1  3  1  0  0  0
  1 17  1  0  0  0
  1 18  1  0  0  0
  2 19  2  0  0  0
  2 20  1  0  0  0
  3 21  1  0  0  0
  3 25  1  0  0  0
  3 26  1  0  0  0
  4  7  2  0  0  0
  4 19  1  0  0  0
  4 27  1  0  0  0
  5  7  1  0  0  0
  5 20  2  0  0  0
  5 28  1  0  0  0
  6 21  1  0  0  0
  6 22  1  0  0  0
  6 24  1  0  0  0
  6 29  1  0  0  0
  7 30  1  0  0  0
  8  9  1  0  0  0
  8 24  1  0  0  0
  8 31  1  0  0  0
  8 32  1  0  0  0
  9 10  2  0  0  0
  9 33  1  0  0  0
 10 11  1  0  0  0
 10 34  1  0  0  0
 11 12  2  0  0  0
 11 13  1  0  0  0
 12 14  1  0  0  0
 12 35  1  0  0  0
 13 15  2  0  0  0
 13 36  1  0  0  0
 14 16  2  0  0  0
 14 37  1  0  0  0
 15 16  1  0  0  0
 15 38  1  0  0  0
 16 39  1  0  0  0
 17 22  1  0  0  0
 17 40  1  0  0  0
 17 41  1  0  0  0
 18 23  1  0  0  0
 18 42  1  0  0  0
 18 43  1  0  0  0
 19 44  1  0  0  0
 20 45  1  0  0  0
 21 46  1  0  0  0
 21 47  1  0  0  0
 22 48  1  0  0  0
 22 49  1  0  0  0
 23 50  1  0  0  0
 23 51  1  0  0  0
 23 52  1  0  0  0
M  CHG  1  23   1
M  END
> <s_m_source_file>
../4n8d_ligand.sdf

> <i_m_source_file_index>
1

> <s_epik_input>
W2NIXTFbY0hdW2NIXVtjSF1bY0hdYzFbQ0BAXTIoW0NIMl1bTkgzK10pW0NIMl1bQ0gyXVtDQEBIXShbQ0gyXVtDSDJdMilPW0NIMl0vW0NIXT1bQ0hdL2MzW2NIXVtjSF1bY0hdW2NIXVtjSF0z

> <s_epik_cmdline>
J2VwaWtfYXBwJywgJy1pbWFlJywgJ2xpZ2FuZF9wcm8ubWFlJywgJy1vbWFlJywgJ2xpZ2FuZF9wcmVwLm1hZScsICctbXMnLCAnMScsICctcGgnLCAnNycsICctcGh0JywgJzAuNScsICctbnQn

> <r_lp_tautomer_probability>
1

> <r_epik_Ionization_Penalty>
  0.0010

> <r_epik_Ionization_Penalty_Charging>
  0.0010

> <r_epik_Ionization_Penalty_Neutral>
  0.0000

> <r_epik_State_Penalty>
 -0.0000

> <r_epik_Charging_Adjusted_Penalty>
0.000989784903722129

> <i_epik_Tot_Q>
1

> <i_epik_Tot_abs_Q>
1

$$$$
