4n8e_ligand
                    3D
 Schrodinger Suite 2020-3.
 48 50  0  0  1  0            999 V2000
   15.4040   29.0900   53.1470 C   0  0  0  0  0  0
   17.9860   33.7120   54.7870 C   0  0  1  0  0  0
   17.1120   31.3230   55.4230 C   0  0  0  0  0  0
   18.9140   37.4920   54.7140 C   0  0  0  0  0  0
   17.8490   28.8360   53.5930 C   0  0  0  0  0  0
   19.4740   33.2100   54.7250 C   0  0  0  0  0  0
   15.2660   27.6350   52.7430 C   0  0  0  0  0  0
   17.8050   35.6920   56.5050 C   0  0  0  0  0  0
   18.0190   37.0220   56.9040 C   0  0  0  0  0  0
   18.5870   37.9380   56.0040 C   0  0  0  0  0  0
   17.7140   27.3020   53.3820 C   0  0  0  0  0  0
   16.6200   27.0140   52.3130 C   0  0  0  0  0  0
   16.6020   29.6410   53.5410 N   0  0  0  0  0  0
   18.1350   35.2220   55.2090 C   0  0  0  0  0  0
   16.6050   31.0750   53.9500 C   0  0  2  0  0  0
   14.3490   29.7190   53.1130 O   0  0  0  0  0  0
   18.7300   36.1620   54.3510 C   0  0  0  0  0  0
   17.2250   33.5460   53.4060 C   0  0  0  0  0  0
   17.2230   32.8230   55.8530 C   0  0  0  0  0  0
   17.1030   32.0950   52.8560 C   0  0  0  0  0  0
   19.6520   38.5270   53.5200 Cl  0  0  0  0  0  0
   20.2980   33.5610   55.8950 N   0  3  0  0  0  0
   16.4207   30.8467   56.1338 H   0  0  0  0  0  0
   18.1164   30.8907   55.5428 H   0  0  0  0  0  0
   18.2844   29.0329   54.5838 H   0  0  0  0  0  0
   18.5028   29.2570   52.8150 H   0  0  0  0  0  0
   19.4879   32.1128   54.6472 H   0  0  0  0  0  0
   19.9718   33.6462   53.8464 H   0  0  0  0  0  0
   14.8787   27.0537   53.5928 H   0  0  0  0  0  0
   14.5693   27.5542   51.8956 H   0  0  0  0  0  0
   17.3683   34.9945   57.2197 H   0  0  0  0  0  0
   17.7449   37.3419   57.9093 H   0  0  0  0  0  0
   18.7696   38.9710   56.3002 H   0  0  0  0  0  0
   18.6758   26.8930   53.0389 H   0  0  0  0  0  0
   17.4305   26.8248   54.3317 H   0  0  0  0  0  0
   16.5055   25.9256   52.2024 H   0  0  0  0  0  0
   16.9345   27.4491   51.3529 H   0  0  0  0  0  0
   15.5203   31.2547   53.9825 H   0  0  0  0  0  0
   19.0597   35.8369   53.3642 H   0  0  0  0  0  0
   16.1950   33.9185   53.5079 H   0  0  0  0  0  0
   17.7477   34.1215   52.6278 H   0  0  0  0  0  0
   17.7603   32.8587   56.8122 H   0  0  0  0  0  0
   16.2024   33.2098   55.9899 H   0  0  0  0  0  0
   18.0938   31.7866   52.4912 H   0  0  0  0  0  0
   16.3916   32.1094   52.0172 H   0  0  0  0  0  0
   21.3161   33.1679   55.7576 H   0  0  0  0  0  0
   19.8545   33.1219   56.8008 H   0  0  0  0  0  0
   20.3385   34.6552   56.0000 H   0  0  0  0  0  0
  1  7  1  0  0  0
  1 13  1  0  0  0
  1 16  2  0  0  0
  2  6  1  0  0  0
  2 14  1  0  0  0
  2 18  1  0  0  0
  2 19  1  0  0  0
  3 15  1  0  0  0
  3 19  1  0  0  0
  3 23  1  0  0  0
  3 24  1  0  0  0
  4 10  2  0  0  0
  4 17  1  0  0  0
  4 21  1  0  0  0
  5 11  1  0  0  0
  5 13  1  0  0  0
  5 25  1  0  0  0
  5 26  1  0  0  0
  6 22  1  0  0  0
  6 27  1  0  0  0
  6 28  1  0  0  0
  7 12  1  0  0  0
  7 29  1  0  0  0
  7 30  1  0  0  0
  8  9  2  0  0  0
  8 14  1  0  0  0
  8 31  1  0  0  0
  9 10  1  0  0  0
  9 32  1  0  0  0
 10 33  1  0  0  0
 11 12  1  0  0  0
 11 34  1  0  0  0
 11 35  1  0  0  0
 12 36  1  0  0  0
 12 37  1  0  0  0
 13 15  1  0  0  0
 14 17  2  0  0  0
 15 20  1  0  0  0
 15 38  1  0  0  0
 17 39  1  0  0  0
 18 20  1  0  0  0
 18 40  1  0  0  0
 18 41  1  0  0  0
 19 42  1  0  0  0
 19 43  1  0  0  0
 20 44  1  0  0  0
 20 45  1  0  0  0
 22 46  1  0  0  0
 22 47  1  0  0  0
 22 48  1  0  0  0
M  CHG  1  22   1
M  END
> <s_m_source_file>
../4n8e_ligand.sdf

> <i_m_source_file_index>
1

> <s_epik_input>
Tz1DMVtDSDJdW0NIMl1bQ0gyXVtDSDJdTjFbQ0BASF0oW0NIMl1bQ0gyXTIpW0NIMl1bQ0gyXVtDQEBdMihbQ0gyXVtOSDMrXSljKFtjSF0zKVtjSF1bY0hdW2NIXWMzQ2w=

> <s_epik_cmdline>
J2VwaWtfYXBwJywgJy1pbWFlJywgJ2xpZ2FuZF9wcm8ubWFlJywgJy1vbWFlJywgJ2xpZ2FuZF9wcmVwLm1hZScsICctbXMnLCAnMScsICctcGgnLCAnNycsICctcGh0JywgJzAuNScsICctbnQn

> <r_lp_tautomer_probability>
1

> <r_epik_Ionization_Penalty>
  0.0011

> <r_epik_Ionization_Penalty_Charging>
  0.0011

> <r_epik_Ionization_Penalty_Neutral>
  0.0000

> <r_epik_State_Penalty>
 -0.0000

> <r_epik_Charging_Adjusted_Penalty>
0.0010640179786993

> <i_epik_Tot_Q>
1

> <i_epik_Tot_abs_Q>
1

$$$$
