4n8r_ligand
                    3D
 Schrodinger Suite 2020-3.
 52 55  0  0  1  0            999 V2000
   47.0390   -6.8110  113.2700 C   0  0  0  0  0  0
   48.5300   -6.9920  113.1040 C   0  0  0  0  0  0
   49.3990   -6.2380  112.1840 C   0  0  0  0  0  0
   50.8380   -6.7530  112.3570 C   0  0  0  0  0  0
   50.8220   -7.7920  113.3530 C   0  0  0  0  0  0
   49.3600   -7.9600  113.8410 C   0  0  0  0  0  0
   48.8320   -8.8070  114.7590 C   0  0  0  0  0  0
   49.5330   -9.9910  115.3840 C   0  0  0  0  0  0
   49.4360  -10.1610  116.7550 C   0  0  0  0  0  0
   50.0570  -11.2310  117.3650 C   0  0  0  0  0  0
   50.7710  -12.1420  116.6060 C   0  0  0  0  0  0
   50.8520  -11.9860  115.2310 C   0  0  0  0  0  0
   50.2270  -10.9150  114.6130 C   0  0  0  0  0  0
   51.4330  -13.3190  117.2970 C   0  0  0  0  0  0
   52.9420  -13.2630  117.2860 C   0  0  0  0  0  0
   50.9270  -14.6370  116.7600 C   0  0  0  0  0  0
   52.0270   -8.4240  113.6860 C   0  0  0  0  0  0
   53.2300   -8.0480  113.0570 C   0  0  0  0  0  0
   53.2270   -7.0190  112.0720 C   0  0  0  0  0  0
   52.0260   -6.3790  111.7290 C   0  0  0  0  0  0
   48.9620   -5.1330  111.2550 C   0  0  0  0  0  0
   49.4590   -3.7950  111.7750 C   0  0  0  0  0  0
   49.0620   -3.5720  113.2200 C   0  0  0  0  0  0
   49.8440   -3.7360  114.2990 N   0  0  0  0  0  0
   49.1120   -3.4480  115.3870 N   0  3  0  0  0  0
   47.8870   -3.1060  115.0070 N   0  0  0  0  0  0
   47.8460   -3.1810  113.6620 N   0  3  0  0  0  0
   46.6881   -6.0189  112.5922 H   0  0  0  0  0  0
   46.8175   -6.5286  114.3098 H   0  0  0  0  0  0
   46.5261   -7.7538  113.0288 H   0  0  0  0  0  0
   47.8011   -8.6606  115.1136 H   0  0  0  0  0  0
   48.8681   -9.4482  117.3529 H   0  0  0  0  0  0
   49.9854  -11.3592  118.4451 H   0  0  0  0  0  0
   51.4091  -12.7081  114.6342 H   0  0  0  0  0  0
   50.2794  -10.7984  113.5305 H   0  0  0  0  0  0
   51.1417  -13.2464  118.3553 H   0  0  0  0  0  0
   53.2758  -12.2926  117.6822 H   0  0  0  0  0  0
   53.3058  -13.3828  116.2548 H   0  0  0  0  0  0
   53.3435  -14.0728  117.9129 H   0  0  0  0  0  0
   49.8272  -14.6440  116.7821 H   0  0  0  0  0  0
   51.3115  -15.4584  117.3825 H   0  0  0  0  0  0
   51.2738  -14.7684  115.7244 H   0  0  0  0  0  0
   52.0338   -9.2131  114.4379 H   0  0  0  0  0  0
   54.1630   -8.5443  113.3240 H   0  0  0  0  0  0
   54.1577   -6.7286  111.5846 H   0  0  0  0  0  0
   52.0216   -5.5924  110.9745 H   0  0  0  0  0  0
   49.3787   -5.3105  110.2526 H   0  0  0  0  0  0
   47.8636   -5.1151  111.1976 H   0  0  0  0  0  0
   50.5565   -3.7606  111.7086 H   0  0  0  0  0  0
   49.0294   -2.9836  111.1691 H   0  0  0  0  0  0
   49.5219   -3.5126  116.2969 H   0  0  0  0  0  0
   46.9166   -2.9388  113.1257 H   0  0  0  0  0  0
  1  2  1  0  0  0
  1 28  1  0  0  0
  1 29  1  0  0  0
  1 30  1  0  0  0
  2  3  2  0  0  0
  2  6  1  0  0  0
  3  4  1  0  0  0
  3 21  1  0  0  0
  4  5  2  0  0  0
  4 20  1  0  0  0
  5  6  1  0  0  0
  5 17  1  0  0  0
  6  7  2  0  0  0
  7  8  1  0  0  0
  7 31  1  0  0  0
  8  9  2  0  0  0
  8 13  1  0  0  0
  9 10  1  0  0  0
  9 32  1  0  0  0
 10 11  2  0  0  0
 10 33  1  0  0  0
 11 12  1  0  0  0
 11 14  1  0  0  0
 12 13  2  0  0  0
 12 34  1  0  0  0
 13 35  1  0  0  0
 14 15  1  0  0  0
 14 16  1  0  0  0
 14 36  1  0  0  0
 15 37  1  0  0  0
 15 38  1  0  0  0
 15 39  1  0  0  0
 16 40  1  0  0  0
 16 41  1  0  0  0
 16 42  1  0  0  0
 17 18  2  0  0  0
 17 43  1  0  0  0
 18 19  1  0  0  0
 18 44  1  0  0  0
 19 20  2  0  0  0
 19 45  1  0  0  0
 20 46  1  0  0  0
 21 22  1  0  0  0
 21 47  1  0  0  0
 21 48  1  0  0  0
 22 23  1  0  0  0
 22 49  1  0  0  0
 22 50  1  0  0  0
 23 24  2  0  0  0
 23 27  1  0  0  0
 24 25  1  0  0  0
 25 26  1  0  0  0
 25 51  1  0  0  0
 26 27  2  0  0  0
 27 52  1  0  0  0
M  CHG  2  25   1  27   1
M  END
> <s_m_source_file>
../4n8r_ligand.sdf

> <i_m_source_file_index>
1

> <s_epik_input>
bjFuW25IXW5jMVtDSDJdW0NIMl1DMj1DKFtDSDNdKS9DKGMoYzIzKVtjSF1bY0hdW2NIXVtjSF0zKT1bQ0hdL2M0W2NIXVtjSF1jKFtjSF1bY0hdNClbQ0hdKFtDSDNdKVtDSDNd

> <s_epik_cmdline>
J2VwaWtfYXBwJywgJy1pbWFlJywgJ2xpZ2FuZF9wcm8ubWFlJywgJy1vbWFlJywgJ2xpZ2FuZF9wcmVwLm1hZScsICctbXMnLCAnMScsICctcGgnLCAnNycsICctcGh0JywgJzAuNScsICctbnQn

> <r_epik_Ionization_Penalty>
 12.7457

> <r_epik_Ionization_Penalty_Charging>
 12.7455

> <r_epik_Ionization_Penalty_Neutral>
  0.0003

> <r_epik_State_Penalty>
  0.0112

> <r_epik_Charging_Adjusted_Penalty>
12.7566949736879

> <i_epik_Tot_Q>
2

> <i_epik_Tot_abs_Q>
2

> <s_epik_Chemistry_Notes>
This compound has an imine and may undergo hydrolysis.

$$$$
