4n9a_ligand
                    3D
 Schrodinger Suite 2020-3.
 27 29  0  0  1  0            999 V2000
   10.8890   -6.4000  -11.2550 C   0  0  0  0  0  0
   10.6510   -5.6300  -10.0160 C   0  0  0  0  0  0
   11.3560   -5.8950   -8.7180 C   0  0  0  0  0  0
   11.9480   -7.3050   -8.7600 C   0  0  0  0  0  0
   12.6940   -7.6310  -10.0630 C   0  0  0  0  0  0
   11.1010   -8.7880  -11.5980 C   0  0  0  0  0  0
    9.9040   -8.8730  -11.3880 O   0  0  0  0  0  0
   11.7360   -9.8550  -12.0620 O   0  5  0  0  0  0
   11.8560   -7.5170  -11.3430 C   0  0  1  0  0  0
    9.6310   -4.6410  -10.3970 C   0  0  0  0  0  0
    8.9750   -3.6330   -9.7100 C   0  0  0  0  0  0
   10.1050   -5.9290  -12.2550 N   0  0  0  0  0  0
    9.3450   -4.9040  -11.8280 C   0  0  0  0  0  0
    8.4050   -4.1000  -12.4660 C   0  0  0  0  0  0
    7.7580   -3.0980  -11.7490 C   0  0  0  0  0  0
    8.0310   -2.8710  -10.4020 C   0  0  0  0  0  0
    7.1290   -1.5480   -9.6130 Cl  0  0  0  0  0  0
   12.1595   -5.1565   -8.5797 H   0  0  0  0  0  0
   10.6384   -5.8158   -7.8881 H   0  0  0  0  0  0
   12.6664   -7.4257   -7.9358 H   0  0  0  0  0  0
   11.1409   -8.0449   -8.6542 H   0  0  0  0  0  0
   13.5423   -6.9410  -10.1823 H   0  0  0  0  0  0
   13.0656   -8.6656  -10.0238 H   0  0  0  0  0  0
   12.5283   -7.3132  -12.1895 H   0  0  0  0  0  0
    9.2034   -3.4515   -8.6494 H   0  0  0  0  0  0
    8.1770   -4.2542  -13.5207 H   0  0  0  0  0  0
    7.0151   -2.4777  -12.2718 H   0  0  0  0  0  0
  1  2  2  0  0  0
  1  9  1  0  0  0
  1 12  1  0  0  0
  2  3  1  0  0  0
  2 10  1  0  0  0
  3  4  1  0  0  0
  3 18  1  0  0  0
  3 19  1  0  0  0
  4  5  1  0  0  0
  4 20  1  0  0  0
  4 21  1  0  0  0
  5  9  1  0  0  0
  5 22  1  0  0  0
  5 23  1  0  0  0
  6  7  2  0  0  0
  6  8  1  0  0  0
  6  9  1  0  0  0
  9 24  1  0  0  0
 10 11  2  0  0  0
 10 13  1  0  0  0
 11 16  1  0  0  0
 11 25  1  0  0  0
 12 13  2  0  0  0
 13 14  1  0  0  0
 14 15  1  0  0  0
 14 26  1  0  0  0
 15 16  2  0  0  0
 15 27  1  0  0  0
 16 17  1  0  0  0
M  CHG  1   8  -1
M  END
> <s_m_source_file>
../4n9a_ligand.sdf

> <i_m_source_file_index>
1

> <s_epik_input>
W0NIXTFDKENsKT1bQ0hdW0NIMl1DKD1OMilDPTFDKD1DMjMpW0NIMl1bQ0gyXVtDSDJdW0NASF0zQyg9TylbT0hd

> <s_epik_cmdline>
J2VwaWtfYXBwJywgJy1pbWFlJywgJ2xpZ2FuZF9wcm8ubWFlJywgJy1vbWFlJywgJ2xpZ2FuZF9wcmVwLm1hZScsICctbXMnLCAnMScsICctcGgnLCAnNycsICctcGh0JywgJzAuNScsICctbnQn

> <r_lp_tautomer_probability>
1

> <r_epik_Ionization_Penalty>
  0.0000

> <r_epik_Ionization_Penalty_Charging>
  0.0000

> <r_epik_Ionization_Penalty_Neutral>
  0.0000

> <r_epik_State_Penalty>
 -0.0000

> <r_epik_Charging_Adjusted_Penalty>
1.05657575876698e-05

> <i_epik_Tot_Q>
-1

> <i_epik_Tot_abs_Q>
1

> <s_epik_Chemistry_Notes>
This compound has an imine and may undergo hydrolysis.

$$$$
