4n9b_ligand
                    3D
 Schrodinger Suite 2020-3.
 25 26  0  0  1  0            999 V2000
   16.9700  -15.7290   -2.0610 C   0  0  0  0  0  0
   15.5340  -15.4500   -2.0400 N   0  0  0  0  0  0
   14.6860  -15.6970   -0.9890 C   0  0  0  0  0  0
   13.4370  -15.2700   -1.4200 C   0  0  0  0  0  0
   13.6310  -14.7880   -2.7210 C   0  0  0  0  0  0
   14.8970  -14.9240   -3.0220 N   0  0  0  0  0  0
   15.0330  -16.3040    0.3220 C   0  0  0  0  0  0
   15.9270  -17.1270    0.4080 O   0  0  0  0  0  0
   14.3380  -15.9280    1.4210 N   0  0  0  0  0  0
   14.4890  -16.3510    2.7600 C   0  0  0  0  0  0
   13.6150  -15.7980    3.6840 C   0  0  0  0  0  0
   13.6920  -16.1570    5.0120 C   0  0  0  0  0  0
   14.6500  -17.0690    5.3900 C   0  0  0  0  0  0
   15.4750  -17.5960    4.5150 N   0  0  0  0  0  0
   15.4210  -17.2690    3.2390 C   0  0  0  0  0  0
   17.2703  -16.1780   -1.1027 H   0  0  0  0  0  0
   17.5235  -14.7911   -2.2160 H   0  0  0  0  0  0
   17.1958  -16.4277   -2.8800 H   0  0  0  0  0  0
   12.5010  -15.3030   -0.8624 H   0  0  0  0  0  0
   12.8606  -14.3717   -3.3701 H   0  0  0  0  0  0
   13.5257  -15.1916    1.3327 H   0  0  0  0  0  0
   12.8649  -15.0772    3.3586 H   0  0  0  0  0  0
   13.0097  -15.7283    5.7460 H   0  0  0  0  0  0
   14.7258  -17.3602    6.4377 H   0  0  0  0  0  0
   16.1223  -17.7279    2.5421 H   0  0  0  0  0  0
  1  2  1  0  0  0
  1 16  1  0  0  0
  1 17  1  0  0  0
  1 18  1  0  0  0
  2  3  1  0  0  0
  2  6  1  0  0  0
  3  4  2  0  0  0
  3  7  1  0  0  0
  4  5  1  0  0  0
  4 19  1  0  0  0
  5  6  2  0  0  0
  5 20  1  0  0  0
  7  8  2  0  0  0
  7  9  1  0  0  0
  9 10  1  0  0  0
  9 21  1  0  0  0
 10 11  2  0  0  0
 10 15  1  0  0  0
 11 12  1  0  0  0
 11 22  1  0  0  0
 12 13  2  0  0  0
 12 23  1  0  0  0
 13 14  1  0  0  0
 13 24  1  0  0  0
 14 15  2  0  0  0
 15 25  1  0  0  0
M  END
> <s_m_source_file>
../4n9b_ligand.sdf

> <i_m_source_file_index>
1

> <s_epik_input>
bjFbY0hdW2NIXWMobjFbQ0gzXSlDKD1PKVtOSF1jMltjSF1bY0hdW2NIXW5bY0hdMg==

> <s_epik_cmdline>
J2VwaWtfYXBwJywgJy1pbWFlJywgJ2xpZ2FuZF9wcm8ubWFlJywgJy1vbWFlJywgJ2xpZ2FuZF9wcmVwLm1hZScsICctbXMnLCAnMScsICctcGgnLCAnNycsICctcGh0JywgJzAuNScsICctbnQn

> <r_lp_tautomer_probability>
1

> <r_epik_Ionization_Penalty>
  0.0007

> <r_epik_Ionization_Penalty_Charging>
  0.0000

> <r_epik_Ionization_Penalty_Neutral>
  0.0007

> <r_epik_State_Penalty>
 -0.0000

> <r_epik_Charging_Adjusted_Penalty>
0

> <i_epik_Tot_Q>
0

> <i_epik_Tot_abs_Q>
0

$$$$
