4n9e_ligand
                    3D
 Schrodinger Suite 2020-3.
 58 62  0  0  1  0            999 V2000
    9.3010    4.0900   -5.8250 C   0  0  0  0  0  0
   10.0700    3.1910   -6.5390 C   0  0  0  0  0  0
   11.4500    3.3180   -6.5430 C   0  0  0  0  0  0
   12.0530    4.3460   -5.8080 C   0  0  0  0  0  0
   11.2510    5.2510   -5.0890 C   0  0  0  0  0  0
    9.8760    5.1250   -5.0940 C   0  0  0  0  0  0
   13.5350    4.4960   -5.7990 C   0  0  0  0  0  0
   14.1080    4.8900   -6.8030 O   0  0  0  0  0  0
   14.2650    4.1970   -4.6960 N   0  0  0  0  0  0
   15.7290    4.3610   -4.7150 C   0  0  0  0  0  0
   16.0770    5.3490   -3.5900 C   0  0  0  0  0  0
   15.6470    4.7350   -2.2470 C   0  0  0  0  0  0
   14.1310    4.4530   -2.2070 C   0  0  0  0  0  0
   13.6350    3.6980   -3.4520 C   0  0  0  0  0  0
   16.1200    5.6320   -1.0820 C   0  0  0  0  0  0
   15.3450    6.8570   -0.8070 N   0  0  0  0  0  0
   14.3870    7.4690   -1.5650 C   0  0  0  0  0  0
   13.9330    8.5270   -0.9580 N   0  0  0  0  0  0
   14.5610    8.6670    0.2440 C   0  0  0  0  0  0
   15.4670    7.6050    0.3520 C   0  0  0  0  0  0
   16.2610    7.4850    1.4840 C   0  0  0  0  0  0
   16.1540    8.3950    2.4990 C   0  0  0  0  0  0
   15.2810    9.4850    2.3840 C   0  0  0  0  0  0
   14.4490    9.6000    1.2740 C   0  0  0  0  0  0
   15.0810   10.4000    3.5190 C   0  0  0  0  0  0
   14.5470   11.4870    3.4100 O   0  0  0  0  0  0
   15.4070    9.8340    4.7060 N   0  0  0  0  0  0
   15.1960   10.2940    6.0060 C   0  0  0  0  0  0
   15.9540    9.7970    7.0720 C   0  0  0  0  0  0
   15.6100   10.2340    8.3420 C   0  0  0  0  0  0
   14.5290   11.0810    8.5230 C   0  0  0  0  0  0
   13.8050   11.4980    7.4990 N   0  0  0  0  0  0
   14.0930   11.1150    6.2730 C   0  0  0  0  0  0
    8.2160    3.9857   -5.8346 H   0  0  0  0  0  0
    9.5931    2.3851   -7.0969 H   0  0  0  0  0  0
   12.0627    2.6214   -7.1152 H   0  0  0  0  0  0
   11.7184    6.0574   -4.5239 H   0  0  0  0  0  0
    9.2525    5.8233   -4.5357 H   0  0  0  0  0  0
   16.2094    3.3865   -4.5427 H   0  0  0  0  0  0
   16.0411    4.7558   -5.6931 H   0  0  0  0  0  0
   17.1613    5.5341   -3.5870 H   0  0  0  0  0  0
   15.5438    6.2966   -3.7563 H   0  0  0  0  0  0
   16.1355    3.7556   -2.1370 H   0  0  0  0  0  0
   13.8953    3.8397   -1.3248 H   0  0  0  0  0  0
   13.5824    5.4047   -2.1492 H   0  0  0  0  0  0
   12.5443    3.8250   -3.5169 H   0  0  0  0  0  0
   13.8729    2.6319   -3.3226 H   0  0  0  0  0  0
   16.0975    5.0573   -0.1443 H   0  0  0  0  0  0
   17.1467    5.9754   -1.2771 H   0  0  0  0  0  0
   14.0502    7.1201   -2.5412 H   0  0  0  0  0  0
   16.9721    6.6628    1.5642 H   0  0  0  0  0  0
   16.7511    8.2718    3.4025 H   0  0  0  0  0  0
   13.7202   10.4081    1.2109 H   0  0  0  0  0  0
   15.9194    8.8609    4.7290 H   0  0  0  0  0  0
   16.7760    9.0993    6.9115 H   0  0  0  0  0  0
   16.1937    9.9091    9.2033 H   0  0  0  0  0  0
   14.2705   11.4100    9.5295 H   0  0  0  0  0  0
   13.4601   11.4435    5.4486 H   0  0  0  0  0  0
  1  2  2  0  0  0
  1  6  1  0  0  0
  1 34  1  0  0  0
  2  3  1  0  0  0
  2 35  1  0  0  0
  3  4  2  0  0  0
  3 36  1  0  0  0
  4  5  1  0  0  0
  4  7  1  0  0  0
  5  6  2  0  0  0
  5 37  1  0  0  0
  6 38  1  0  0  0
  7  8  2  0  0  0
  7  9  1  0  0  0
  9 10  1  0  0  0
  9 14  1  0  0  0
 10 11  1  0  0  0
 10 39  1  0  0  0
 10 40  1  0  0  0
 11 12  1  0  0  0
 11 41  1  0  0  0
 11 42  1  0  0  0
 12 13  1  0  0  0
 12 15  1  0  0  0
 12 43  1  0  0  0
 13 14  1  0  0  0
 13 44  1  0  0  0
 13 45  1  0  0  0
 14 46  1  0  0  0
 14 47  1  0  0  0
 15 16  1  0  0  0
 15 48  1  0  0  0
 15 49  1  0  0  0
 16 17  1  0  0  0
 16 20  1  0  0  0
 17 18  2  0  0  0
 17 50  1  0  0  0
 18 19  1  0  0  0
 19 20  2  0  0  0
 19 24  1  0  0  0
 20 21  1  0  0  0
 21 22  2  0  0  0
 21 51  1  0  0  0
 22 23  1  0  0  0
 22 52  1  0  0  0
 23 24  2  0  0  0
 23 25  1  0  0  0
 24 53  1  0  0  0
 25 26  2  0  0  0
 25 27  1  0  0  0
 27 28  1  0  0  0
 27 54  1  0  0  0
 28 29  2  0  0  0
 28 33  1  0  0  0
 29 30  1  0  0  0
 29 55  1  0  0  0
 30 31  2  0  0  0
 30 56  1  0  0  0
 31 32  1  0  0  0
 31 57  1  0  0  0
 32 33  2  0  0  0
 33 58  1  0  0  0
M  END
> <s_m_source_file>
../4n9e_ligand.sdf

> <i_m_source_file_index>
1

> <s_epik_input>
W2NIXTFbY0hdW2NIXVtjSF1bY0hdYzFDKD1PKU4yW0NIMl1bQ0gyXVtDSF0oW0NIMl1bQ0gyXTIpW0NIMl1uKFtjSF1uMyljKGMzNClbY0hdW2NIXWMoW2NIXTQpQyg9TylbTkhdYzVbY0hdW2NIXVtjSF1uW2NIXTU=

> <s_epik_cmdline>
J2VwaWtfYXBwJywgJy1pbWFlJywgJ2xpZ2FuZF9wcm8ubWFlJywgJy1vbWFlJywgJ2xpZ2FuZF9wcmVwLm1hZScsICctbXMnLCAnMScsICctcGgnLCAnNycsICctcGh0JywgJzAuNScsICctbnQn

> <r_epik_Ionization_Penalty>
  0.0227

> <r_epik_Ionization_Penalty_Charging>
  0.0000

> <r_epik_Ionization_Penalty_Neutral>
  0.0227

> <r_epik_State_Penalty>
  0.0177

> <r_epik_Charging_Adjusted_Penalty>
0.0177293630310609

> <i_epik_Tot_Q>
0

> <i_epik_Tot_abs_Q>
0

$$$$
