4na4_ligand
                    3D
 Schrodinger Suite 2020-3.
 58 61  0  0  1  0            999 V2000
   53.9550   31.8320   24.0770 N   0  0  0  0  0  0
   52.7190   32.1630   23.6700 C   0  0  0  0  0  0
   52.3280   33.4450   23.6450 N   0  0  0  0  0  0
   53.1710   34.4320   24.0430 C   0  0  0  0  0  0
   54.4380   34.1150   24.4740 C   0  0  0  0  0  0
   54.8250   32.7800   24.4880 C   0  0  0  0  0  0
   56.0570   32.4050   24.9020 N   0  0  0  0  0  0
   55.0420   35.2690   24.7960 N   0  0  0  0  0  0
   54.1590   36.2710   24.5620 C   0  0  0  0  0  0
   53.0200   35.7550   24.1120 N   0  0  0  0  0  0
   51.7720   36.4790   23.7250 C   0  0  1  0  0  0
   51.4610   37.6800   24.6030 C   0  0  2  0  0  0
   50.0560   37.6470   24.8570 O   0  0  0  0  0  0
   51.8080   38.8970   23.7700 C   0  0  2  0  0  0
   50.9870   40.0310   24.0530 O   0  0  0  0  0  0
   51.8600   36.9970   22.3870 O   0  0  0  0  0  0
   51.5360   38.3910   22.3640 C   0  0  2  0  0  0
   52.3060   39.1110   21.2750 C   0  0  0  0  0  0
   53.6580   39.3030   21.6610 O   0  0  0  0  0  0
   54.5080   40.4680   20.9680 P   0  0  2  0  0  0
   55.9180   40.0630   21.2710 O   0  0  0  0  0  0
   53.9680   41.8250   21.3420 O   0  5  0  0  0  0
   54.1490   40.1900   19.4150 O   0  0  0  0  0  0
   53.8400   41.3110   18.3000 P   0  0  2  0  0  0
   52.6540   42.1740   18.6690 O   0  5  0  0  0  0
   53.8470   40.5950   16.9860 O   0  0  0  0  0  0
   55.1210   42.2660   18.3690 O   0  0  0  0  0  0
   56.0360   42.3070   17.2840 C   0  0  0  0  0  0
   57.6710   42.7300   19.0390 N   0  3  0  0  0  0
   58.9950   42.1730   19.1120 C   0  0  0  0  0  0
   60.7530   42.3470   17.4230 O   0  0  0  0  0  0
   59.3840   42.0060   17.6470 C   0  0  2  0  0  0
   59.0690   44.1190   16.4770 O   0  0  0  0  0  0
   58.4460   42.8810   16.8320 C   0  0  2  0  0  0
   57.2390   43.1230   17.7170 C   0  0  1  0  0  0
   52.0267   31.3815   23.3568 H   0  0  0  0  0  0
   56.3368   31.3412   24.9027 H   0  0  0  0  0  0
   56.7790   33.1639   25.2379 H   0  0  0  0  0  0
   54.3528   37.3322   24.7183 H   0  0  0  0  0  0
   50.9837   35.7138   23.7811 H   0  0  0  0  0  0
   51.9628   37.6914   25.5818 H   0  0  0  0  0  0
   49.6235   36.8281   25.4505 H   0  0  0  0  0  0
   52.8089   39.3064   23.9716 H   0  0  0  0  0  0
   51.0539   40.5278   25.0321 H   0  0  0  0  0  0
   50.4761   38.5214   22.1002 H   0  0  0  0  0  0
   52.2810   38.5134   20.3519 H   0  0  0  0  0  0
   51.8463   40.0928   21.0887 H   0  0  0  0  0  0
   56.3442   41.2832   17.0254 H   0  0  0  0  0  0
   55.5524   42.7751   16.4139 H   0  0  0  0  0  0
   56.9414   41.9896   19.3988 H   0  0  0  0  0  0
   57.6176   43.6321   19.6661 H   0  0  0  0  0  0
   59.6570   42.8700   19.6466 H   0  0  0  0  0  0
   58.9604   41.2144   19.6504 H   0  0  0  0  0  0
   61.5494   41.7974   17.9461 H   0  0  0  0  0  0
   59.3521   40.9552   17.3233 H   0  0  0  0  0  0
   59.9625   44.1210   15.8354 H   0  0  0  0  0  0
   58.1893   42.4422   15.8565 H   0  0  0  0  0  0
   56.9225   44.1765   17.7141 H   0  0  0  0  0  0
  1  2  1  0  0  0
  1  6  2  0  0  0
  2  3  2  0  0  0
  2 36  1  0  0  0
  3  4  1  0  0  0
  4  5  2  0  0  0
  4 10  1  0  0  0
  5  6  1  0  0  0
  5  8  1  0  0  0
  6  7  1  0  0  0
  7 37  1  0  0  0
  7 38  1  0  0  0
  8  9  2  0  0  0
  9 10  1  0  0  0
  9 39  1  0  0  0
 10 11  1  0  0  0
 11 12  1  0  0  0
 11 16  1  0  0  0
 11 40  1  0  0  0
 12 13  1  0  0  0
 12 14  1  0  0  0
 12 41  1  0  0  0
 13 42  1  0  0  0
 14 15  1  0  0  0
 14 17  1  0  0  0
 14 43  1  0  0  0
 15 44  1  0  0  0
 16 17  1  0  0  0
 17 18  1  0  0  0
 17 45  1  0  0  0
 18 19  1  0  0  0
 18 46  1  0  0  0
 18 47  1  0  0  0
 19 20  1  0  0  0
 20 21  2  0  0  0
 20 22  1  0  0  0
 20 23  1  0  0  0
 23 24  1  0  0  0
 24 25  1  0  0  0
 24 26  2  0  0  0
 24 27  1  0  0  0
 27 28  1  0  0  0
 28 35  1  0  0  0
 28 48  1  0  0  0
 28 49  1  0  0  0
 29 30  1  0  0  0
 29 35  1  0  0  0
 29 50  1  0  0  0
 29 51  1  0  0  0
 30 32  1  0  0  0
 30 52  1  0  0  0
 30 53  1  0  0  0
 31 32  1  0  0  0
 31 54  1  0  0  0
 32 34  1  0  0  0
 32 55  1  0  0  0
 33 34  1  0  0  0
 33 56  1  0  0  0
 34 35  1  0  0  0
 34 57  1  0  0  0
 35 58  1  0  0  0
M  CHG  3  22  -1  25  -1  29   1
M  END
> <s_m_source_file>
../4na4_ligand.sdf

> <i_m_source_file_index>
1

> <s_epik_input>
bjFbY0hdbmMoW05IMl0pYyhjMTIpbltjSF1uMltDQEhdM1tDQEhdKFtPSF0pW0NASF0oW09IXSlbQ0BIXShPMylbQ0gyXU9bUEBdKD1PKShbT0hdKU9bUEBAXSg9TykoW09IXSlPW0NIMl1bQ0BIXShbQ0BIXTRbT0hdKVtOSDIrXVtDSDJdW0NAQEhdNFtPSF0=

> <s_epik_cmdline>
J2VwaWtfYXBwJywgJy1pbWFlJywgJ2xpZ2FuZF9wcm8ubWFlJywgJy1vbWFlJywgJ2xpZ2FuZF9wcmVwLm1hZScsICctbXMnLCAnMScsICctcGgnLCAnNycsICctcGh0JywgJzAuNScsICctbnQn

> <r_lp_tautomer_probability>
0.999997216410988

> <r_epik_Ionization_Penalty>
  0.0158

> <r_epik_Ionization_Penalty_Charging>
  0.0152

> <r_epik_Ionization_Penalty_Neutral>
  0.0006

> <r_epik_State_Penalty>
  0.0116

> <r_epik_Charging_Adjusted_Penalty>
0.0267967268555876

> <i_epik_Tot_Q>
-1

> <i_epik_Tot_abs_Q>
3

> <s_epik_Chemistry_Notes>
This compound contains an acetal/aminal-like group ( X-CH(R)-Y where X, Y are N, S, or O) that may be acid/base labile, releasing an aldehyde.

$$$$
