4na8_ligand
                    3D
 Schrodinger Suite 2020-3.
 66 70  0  0  1  0            999 V2000
   40.1380  -21.1010   27.5760 C   0  0  0  0  0  0
   43.9890  -22.4250   30.7890 C   0  0  0  0  0  0
   41.9610  -22.2410   28.8470 C   0  0  0  0  0  0
   40.8820  -22.2540   27.8220 C   0  0  0  0  0  0
   37.5860  -15.5720   26.8770 C   0  0  0  0  0  0
   36.8620  -15.0780   27.9660 C   0  0  0  0  0  0
   41.7000  -21.9220   30.1890 C   0  0  0  0  0  0
   39.6040  -16.6320   24.8730 C   0  0  0  0  0  0
   39.0410  -21.1040   26.7270 C   0  0  0  0  0  0
   37.9280  -16.9240   26.7900 C   0  0  0  0  0  0
   37.5610  -17.7920   27.8350 C   0  0  0  0  0  0
   38.6940  -22.2870   26.0960 C   0  0  0  0  0  0
   36.8110  -17.3010   28.9060 C   0  0  0  0  0  0
   40.3510  -21.4930   30.6400 C   0  0  0  0  0  0
   41.7470  -15.1840   23.7820 C   0  0  0  0  0  0
   41.6740  -15.4020   25.1440 C   0  0  0  0  0  0
   40.7610  -15.6840   22.9600 C   0  0  0  0  0  0
   39.4190  -23.4500   26.3310 C   0  0  0  0  0  0
   40.5090  -23.4330   27.1830 C   0  0  0  0  0  0
   43.2590  -22.6090   28.4920 C   0  0  0  0  0  0
   44.2570  -22.6950   29.4490 C   0  0  0  0  0  0
   36.4670  -15.9630   28.9670 C   0  0  0  0  0  0
   40.6160  -16.1230   25.6880 C   0  0  0  0  0  0
   39.6910  -16.3970   23.4970 C   0  0  0  0  0  0
   42.7070  -22.0140   31.1500 C   0  0  0  0  0  0
   36.3960  -13.6070   28.0070 C   0  0  0  0  0  0
   45.1090  -22.5510   31.8010 C   0  0  0  0  0  0
   39.1600  -18.8820   25.7150 C   0  0  0  0  0  0
   38.2440  -19.8320   26.5080 C   0  0  2  0  0  0
   38.4860  -17.5050   25.4790 C   0  0  2  0  0  0
   37.3460  -17.7280   24.4600 C   0  0  0  0  0  0
   36.9570  -12.6720   27.2710 N   0  3  0  0  0  0
   37.9000  -19.1550   27.8000 N   0  0  0  0  0  0
   35.4350  -13.2070   28.9260 N   0  0  0  0  0  0
   44.8180  -22.3820   33.1020 N   0  0  0  0  0  0
   46.2710  -22.7370   31.4040 O   0  0  0  0  0  0
   39.3660  -22.2310   30.5570 O   0  0  0  0  0  0
   40.3090  -20.2640   31.0180 O   0  5  0  0  0  0
   40.4266  -20.1705   28.0648 H   0  0  0  0  0  0
   37.8890  -14.8907   26.0819 H   0  0  0  0  0  0
   37.8468  -22.3065   25.4105 H   0  0  0  0  0  0
   36.4944  -17.9776   29.6998 H   0  0  0  0  0  0
   42.5791  -14.6202   23.3604 H   0  0  0  0  0  0
   42.4513  -15.0061   25.7975 H   0  0  0  0  0  0
   40.8182  -15.5210   21.8838 H   0  0  0  0  0  0
   39.1273  -24.3793   25.8418 H   0  0  0  0  0  0
   41.0780  -24.3467   27.3546 H   0  0  0  0  0  0
   43.4905  -22.8313   27.4503 H   0  0  0  0  0  0
   45.2661  -22.9779   29.1492 H   0  0  0  0  0  0
   35.8795  -15.5961   29.8087 H   0  0  0  0  0  0
   40.5770  -16.2925   26.7640 H   0  0  0  0  0  0
   38.9117  -16.7765   22.8361 H   0  0  0  0  0  0
   42.4902  -21.7632   32.1884 H   0  0  0  0  0  0
   40.0933  -18.7207   26.2744 H   0  0  0  0  0  0
   39.3915  -19.3278   24.7364 H   0  0  0  0  0  0
   37.2946  -20.0782   26.0100 H   0  0  0  0  0  0
   36.8385  -16.7722   24.2626 H   0  0  0  0  0  0
   36.6235  -18.4490   24.8701 H   0  0  0  0  0  0
   37.7645  -18.1215   23.5219 H   0  0  0  0  0  0
   37.7235  -12.9417   26.5296 H   0  0  0  0  0  0
   37.9105  -19.7261   28.7400 H   0  0  0  0  0  0
   34.9388  -13.9538   29.5632 H   0  0  0  0  0  0
   35.1699  -12.1433   29.0168 H   0  0  0  0  0  0
   43.7764  -22.2195   33.4160 H   0  0  0  0  0  0
   45.6214  -22.4061   33.8529 H   0  0  0  0  0  0
   36.6596  -11.6205   27.3970 H   0  0  0  0  0  0
  1  4  2  0  0  0
  1  9  1  0  0  0
  1 39  1  0  0  0
  2 21  2  0  0  0
  2 25  1  0  0  0
  2 27  1  0  0  0
  3  4  1  0  0  0
  3  7  1  0  0  0
  3 20  2  0  0  0
  4 19  1  0  0  0
  5  6  2  0  0  0
  5 10  1  0  0  0
  5 40  1  0  0  0
  6 22  1  0  0  0
  6 26  1  0  0  0
  7 14  1  0  0  0
  7 25  2  0  0  0
  8 23  2  0  0  0
  8 24  1  0  0  0
  8 30  1  0  0  0
  9 12  2  0  0  0
  9 29  1  0  0  0
 10 11  2  0  0  0
 10 30  1  0  0  0
 11 13  1  0  0  0
 11 33  1  0  0  0
 12 18  1  0  0  0
 12 41  1  0  0  0
 13 22  2  0  0  0
 13 42  1  0  0  0
 14 37  2  0  0  0
 14 38  1  0  0  0
 15 16  2  0  0  0
 15 17  1  0  0  0
 15 43  1  0  0  0
 16 23  1  0  0  0
 16 44  1  0  0  0
 17 24  2  0  0  0
 17 45  1  0  0  0
 18 19  2  0  0  0
 18 46  1  0  0  0
 19 47  1  0  0  0
 20 21  1  0  0  0
 20 48  1  0  0  0
 21 49  1  0  0  0
 22 50  1  0  0  0
 23 51  1  0  0  0
 24 52  1  0  0  0
 25 53  1  0  0  0
 26 32  2  0  0  0
 26 34  1  0  0  0
 27 35  1  0  0  0
 27 36  2  0  0  0
 28 29  1  0  0  0
 28 30  1  0  0  0
 28 54  1  0  0  0
 28 55  1  0  0  0
 29 33  1  0  0  0
 29 56  1  0  0  0
 30 31  1  0  0  0
 31 57  1  0  0  0
 31 58  1  0  0  0
 31 59  1  0  0  0
 32 60  1  0  0  0
 32 66  1  0  0  0
 33 61  1  0  0  0
 34 62  1  0  0  0
 34 63  1  0  0  0
 35 64  1  0  0  0
 35 65  1  0  0  0
M  CHG  2  32   1  38  -1
M  END
> <s_m_source_file>
../4na8_ligand.sdf

> <i_m_source_file_index>
1

> <s_epik_input>
W05IMl1DKD1PKWMxW2NIXVtjSF1jKGMoW2NIXTEpQyg9TylbT0hdKS1jMltjSF1jKFtjSF1bY0hdW2NIXTIpW0NAQEhdKFtOSF1jKGMzNClbY0hdW2NIXWMoW2NIXTMpL0MoPU4vW0hdKVtOSDJdKVtDSDJdW0NAXTQoW0NIM10pYzVbY0hdW2NIXVtjSF1bY0hdW2NIXTU=

> <s_epik_cmdline>
J2VwaWtfYXBwJywgJy1pbWFlJywgJ2xpZ2FuZF9wcm8ubWFlJywgJy1vbWFlJywgJ2xpZ2FuZF9wcmVwLm1hZScsICctbXMnLCAnMScsICctcGgnLCAnNycsICctcGh0JywgJzAuNScsICctbnQn

> <r_lp_tautomer_probability>
1

> <r_epik_Ionization_Penalty>
  0.0013

> <r_epik_Ionization_Penalty_Charging>
  0.0006

> <r_epik_Ionization_Penalty_Neutral>
  0.0007

> <r_epik_State_Penalty>
 -0.0000

> <r_epik_Charging_Adjusted_Penalty>
0.000553072707504719

> <i_epik_Tot_Q>
0

> <i_epik_Tot_abs_Q>
2

> <s_epik_Chemistry_Notes>
This compound has an imine and may undergo hydrolysis.

$$$$
