4nah_ligand
                    3D
 Schrodinger Suite 2020-3.
 59 62  0  0  1  0            999 V2000
   -0.4300  -29.1980  -29.3290 C   0  0  0  0  0  0
    1.0500  -29.6020  -29.2810 C   0  0  0  0  0  0
    1.9720  -28.5710  -28.6740 C   0  0  0  0  0  0
    3.6220  -26.7560  -27.5680 N   0  0  0  0  0  0
    3.2290  -26.6410  -28.8030 C   0  0  0  0  0  0
    3.6700  -25.4480  -29.5780 C   0  0  1  0  0  0
    2.6330  -24.3740  -29.2180 C   0  0  0  0  0  0
    2.9460  -23.0390  -29.8930 C   0  0  0  0  0  0
    4.3690  -22.5960  -29.5640 C   0  0  0  0  0  0
    5.3690  -23.6900  -29.9410 C   0  0  0  0  0  0
    5.0640  -24.9590  -29.1620 C   0  0  2  0  0  0
    8.1060  -27.2110  -28.7410 C   0  0  0  0  0  0
    7.7090  -28.6490  -28.6800 C   0  0  0  0  0  0
    8.4630  -29.5470  -29.4080 C   0  0  0  0  0  0
    7.1020  -31.2680  -28.5920 C   0  0  0  0  0  0
    4.1380  -26.3000  -24.6040 C   0  0  0  0  0  0
    5.1750  -24.6340  -23.4830 C   0  0  3  0  0  0
    4.1140  -24.1300  -24.2680 C   0  0  0  0  0  0
    2.3960  -28.7460  -27.3740 C   0  0  0  0  0  0
    3.2400  -27.7850  -26.8200 C   0  0  0  0  0  0
    2.4110  -27.5140  -29.3510 N   0  0  0  0  0  0
    6.1390  -25.9940  -29.4820 C   0  0  0  0  0  0
    6.1930  -26.5870  -30.5390 O   0  0  0  0  0  0
    7.0340  -26.2640  -28.5200 N   0  0  0  0  0  0
    8.1630  -30.8890  -29.3830 C   0  0  0  0  0  0
    6.3440  -30.3880  -27.8440 C   0  0  0  0  0  0
    6.6590  -29.0580  -27.8820 C   0  0  0  0  0  0
    5.0090  -30.9880  -26.8590 Cl  0  0  0  0  0  0
    6.7040  -32.9240  -28.4980 Cl  0  0  0  0  0  0
    3.7760  -27.9540  -25.1340 S   0  0  0  0  0  0
    5.1440  -26.0260  -23.7200 N   0  3  0  0  0  0
    3.5230  -25.1610  -24.9290 N   0  0  0  0  0  0
    6.1170  -23.9200  -22.6180 C   0  0  0  0  0  0
    6.0810  -22.6930  -22.4960 O   0  0  0  0  0  0
    7.1090  -24.5550  -21.9170 O   0  5  0  0  0  0
   -1.0168  -30.0090  -29.7850 H   0  0  0  0  0  0
   -0.5410  -28.2829  -29.9292 H   0  0  0  0  0  0
   -0.7928  -29.0126  -28.3072 H   0  0  0  0  0  0
    1.1610  -30.5171  -28.6808 H   0  0  0  0  0  0
    1.4128  -29.7874  -30.3028 H   0  0  0  0  0  0
    3.7279  -25.7029  -30.6465 H   0  0  0  0  0  0
    1.6358  -24.7027  -29.5458 H   0  0  0  0  0  0
    2.6284  -24.2191  -28.1290 H   0  0  0  0  0  0
    2.8481  -23.1475  -30.9832 H   0  0  0  0  0  0
    2.2414  -22.2735  -29.5360 H   0  0  0  0  0  0
    4.6082  -21.6824  -30.1280 H   0  0  0  0  0  0
    4.4499  -22.3931  -28.4859 H   0  0  0  0  0  0
    5.2952  -23.8987  -31.0185 H   0  0  0  0  0  0
    6.3885  -23.3532  -29.7018 H   0  0  0  0  0  0
    5.0740  -24.7764  -28.0773 H   0  0  0  0  0  0
    8.8660  -27.0075  -27.9722 H   0  0  0  0  0  0
    8.5207  -26.9869  -29.7349 H   0  0  0  0  0  0
    9.3014  -29.1904  -30.0064 H   0  0  0  0  0  0
    3.7390  -23.1045  -24.4009 H   0  0  0  0  0  0
    2.0795  -29.6132  -26.7945 H   0  0  0  0  0  0
    6.9434  -25.7522  -27.5505 H   0  0  0  0  0  0
    8.7359  -31.6151  -29.9598 H   0  0  0  0  0  0
    6.0928  -28.3354  -27.2944 H   0  0  0  0  0  0
    5.7653  -26.8425  -23.3235 H   0  0  0  0  0  0
  1  2  1  0  0  0
  1 36  1  0  0  0
  1 37  1  0  0  0
  1 38  1  0  0  0
  2  3  1  0  0  0
  2 39  1  0  0  0
  2 40  1  0  0  0
  3 19  2  0  0  0
  3 21  1  0  0  0
  4  5  1  0  0  0
  4 20  2  0  0  0
  5  6  1  0  0  0
  5 21  2  0  0  0
  6  7  1  0  0  0
  6 11  1  0  0  0
  6 41  1  0  0  0
  7  8  1  0  0  0
  7 42  1  0  0  0
  7 43  1  0  0  0
  8  9  1  0  0  0
  8 44  1  0  0  0
  8 45  1  0  0  0
  9 10  1  0  0  0
  9 46  1  0  0  0
  9 47  1  0  0  0
 10 11  1  0  0  0
 10 48  1  0  0  0
 10 49  1  0  0  0
 11 22  1  0  0  0
 11 50  1  0  0  0
 12 13  1  0  0  0
 12 24  1  0  0  0
 12 51  1  0  0  0
 12 52  1  0  0  0
 13 14  2  0  0  0
 13 27  1  0  0  0
 14 25  1  0  0  0
 14 53  1  0  0  0
 15 25  2  0  0  0
 15 26  1  0  0  0
 15 29  1  0  0  0
 16 30  1  0  0  0
 16 31  2  0  0  0
 16 32  1  0  0  0
 17 18  1  0  0  0
 17 31  1  0  0  0
 17 33  1  0  0  0
 18 32  2  0  0  0
 18 54  1  0  0  0
 19 20  1  0  0  0
 19 55  1  0  0  0
 20 30  1  0  0  0
 22 23  2  0  0  0
 22 24  1  0  0  0
 24 56  1  0  0  0
 25 57  1  0  0  0
 26 27  2  0  0  0
 26 28  1  0  0  0
 27 58  1  0  0  0
 31 59  1  0  0  0
 33 34  2  0  0  0
 33 35  1  0  0  0
M  CHG  2  31   1  35  -1
M  END
> <s_m_source_file>
../4nah_ligand.sdf

> <i_m_source_file_index>
1

> <s_epik_input>
TjE9W0NIXVtDSF0oQyg9TylbT0hdKU49QzFTYyhbY0hdYzJbQ0gyXVtDSDNdKW5jKG4yKVtDQEhdM1tDSDJdW0NIMl1bQ0gyXVtDSDJdW0NAQEhdM0MoPU8pW05IXVtDSDJdYzRbY0hdW2NIXWMoQ2wpYyhDbClbY0hdNA==

> <s_epik_cmdline>
J2VwaWtfYXBwJywgJy1pbWFlJywgJ2xpZ2FuZF9wcm8ubWFlJywgJy1vbWFlJywgJ2xpZ2FuZF9wcmVwLm1hZScsICctbXMnLCAnMScsICctcGgnLCAnNycsICctcGh0JywgJzAuNScsICctbnQn

> <r_epik_Ionization_Penalty>
  0.0002

> <r_epik_Ionization_Penalty_Charging>
  0.0002

> <r_epik_Ionization_Penalty_Neutral>
  0.0000

> <r_epik_State_Penalty>
  0.2405

> <r_epik_Charging_Adjusted_Penalty>
0.240699950681655

> <i_epik_Tot_Q>
0

> <i_epik_Tot_abs_Q>
2

> <s_epik_Chemistry_Notes>
This compound has an imine and may undergo hydrolysis.

$$$$
