4nan_ligand
                    3D
 Schrodinger Suite 2020-3.
 19 20  0  0  1  0            999 V2000
    4.5370   24.8310  -21.3160 C   0  0  0  0  0  0
    4.1680   25.9470  -21.9810 C   0  0  0  0  0  0
    3.8880   27.0750  -21.2890 C   0  0  0  0  0  0
    5.0470   23.5600  -19.2890 C   0  0  0  0  0  0
    6.3830   21.8480  -18.9240 C   0  0  0  0  0  0
    7.9580   20.6140  -19.1300 Br  0  0  0  0  0  0
    5.3380   21.7070  -18.0590 C   0  0  3  0  0  0
    5.1380   20.1850  -16.7870 Br  0  0  0  0  0  0
    4.4960   22.7750  -18.2910 C   0  0  0  0  0  0
    2.7560   23.1990  -17.4180 Br  0  0  0  0  0  0
    6.2260   22.9750  -19.6520 N   0  0  0  0  0  0
    4.5900   24.8140  -19.9320 C   0  0  0  0  0  0
    4.3010   25.9650  -19.2180 C   0  0  0  0  0  0
    4.7780   23.7770  -22.1190 O   0  5  0  0  0  0
    4.0680   25.7530  -23.8550 Br  0  0  0  0  0  0
    3.9480   27.0800  -19.9110 C   0  0  0  0  0  0
    3.6135   27.9847  -21.8231 H   0  0  0  0  0  0
    4.3551   25.9766  -18.1294 H   0  0  0  0  0  0
    3.7081   27.9942  -19.3680 H   0  0  0  0  0  0
  1  2  2  0  0  0
  1 12  1  0  0  0
  1 14  1  0  0  0
  2  3  1  0  0  0
  2 15  1  0  0  0
  3 16  2  0  0  0
  3 17  1  0  0  0
  4  9  2  0  0  0
  4 11  1  0  0  0
  4 12  1  0  0  0
  5  6  1  0  0  0
  5  7  1  0  0  0
  5 11  2  0  0  0
  7  8  1  0  0  0
  7  9  1  0  0  0
  9 10  1  0  0  0
 12 13  2  0  0  0
 13 16  1  0  0  0
 13 18  1  0  0  0
 16 19  1  0  0  0
M  CHG  1  14  -1
M  END
> <s_m_source_file>
../4nan_ligand.sdf

> <i_m_source_file_index>
1

> <s_epik_input>
W09IXWMxYyhCcilbY0hdW2NIXVtjSF1jMUMyPUMoQnIpW0NIXShCcilDKEJyKT1OMg==

> <s_epik_cmdline>
J2VwaWtfYXBwJywgJy1pbWFlJywgJ2xpZ2FuZF9wcm8ubWFlJywgJy1vbWFlJywgJ2xpZ2FuZF9wcmVwLm1hZScsICctbXMnLCAnMScsICctcGgnLCAnNycsICctcGh0JywgJzAuNScsICctbnQn

> <r_epik_Ionization_Penalty>
  0.0982

> <r_epik_Ionization_Penalty_Charging>
  0.0982

> <r_epik_Ionization_Penalty_Neutral>
  0.0000

> <r_epik_State_Penalty>
  0.0883

> <r_epik_Charging_Adjusted_Penalty>
0.186537019506864

> <i_epik_Tot_Q>
-1

> <i_epik_Tot_abs_Q>
1

> <s_epik_Chemistry_Notes>
This compound has an imine and may undergo hydrolysis.

$$$$
