4nat_ligand
                    3D
 Schrodinger Suite 2020-3.
 51 53  0  0  1  0            999 V2000
   26.6110   44.3150  -32.5050 C   0  0  0  0  0  0
   24.5480   43.5960  -31.5580 C   0  0  0  0  0  0
   21.3200   40.7940  -29.8370 C   0  0  0  0  0  0
   22.7360   43.0050  -32.8100 C   0  0  0  0  0  0
   21.9840   42.7000  -34.0300 C   0  0  1  0  0  0
   22.5710   41.5370  -34.8870 C   0  0  0  0  0  0
   22.2080   41.8240  -36.3470 C   0  0  0  0  0  0
   20.6930   41.5830  -36.4690 C   0  0  0  0  0  0
   19.9460   42.6820  -35.7180 C   0  0  0  0  0  0
   19.8380   44.1750  -33.6080 C   0  0  0  0  0  0
   18.2550   44.9410  -32.0320 C   0  0  0  0  0  0
   19.8390   44.6540  -30.1100 C   0  0  0  0  0  0
   18.8230   46.8140  -30.6040 C   0  0  0  0  0  0
   25.7840   44.1610  -31.3630 O   0  0  0  0  0  0
   23.8630   43.1410  -30.3920 C   0  0  0  0  0  0
   22.5960   42.5660  -30.5270 C   0  0  0  0  0  0
   21.8640   42.0890  -29.4720 O   0  0  0  0  0  0
   22.0790   42.5250  -31.7550 N   0  0  0  0  0  0
   23.9780   43.5300  -32.7580 N   0  0  0  0  0  0
   20.6040   43.1620  -34.4450 C   0  0  3  0  0  0
   20.1360   45.3000  -33.8590 O   0  0  0  0  0  0
   18.9130   43.8190  -32.6850 N   0  0  0  0  0  0
   19.0210   45.4690  -30.8860 C   0  0  0  0  0  0
   20.5090   45.2290  -29.0270 C   0  0  0  0  0  0
   20.2970   46.5920  -28.7520 C   0  0  0  0  0  0
   21.0260   47.3020  -27.3720 Cl  0  0  0  0  0  0
   19.4660   47.3730  -29.5240 C   0  0  0  0  0  0
   19.2620   49.0620  -29.2170 Cl  0  0  0  0  0  0
   27.5642   44.7766  -32.2078 H   0  0  0  0  0  0
   26.1053   44.9586  -33.2398 H   0  0  0  0  0  0
   26.8048   43.3292  -32.9529 H   0  0  0  0  0  0
   20.7282   40.3957  -28.9996 H   0  0  0  0  0  0
   22.1436   40.1017  -30.0660 H   0  0  0  0  0  0
   20.6759   40.9031  -30.7220 H   0  0  0  0  0  0
   22.0963   43.7849  -33.8875 H   0  0  0  0  0  0
   23.6630   41.5022  -34.7590 H   0  0  0  0  0  0
   22.1329   40.5827  -34.5593 H   0  0  0  0  0  0
   22.4635   42.8659  -36.5903 H   0  0  0  0  0  0
   22.7706   41.1453  -37.0050 H   0  0  0  0  0  0
   20.4034   41.5995  -37.5301 H   0  0  0  0  0  0
   20.4414   40.6039  -36.0354 H   0  0  0  0  0  0
   19.8435   43.5646  -36.3664 H   0  0  0  0  0  0
   18.9477   42.3182  -35.4334 H   0  0  0  0  0  0
   18.1251   45.7606  -32.7540 H   0  0  0  0  0  0
   17.2708   44.6220  -31.6584 H   0  0  0  0  0  0
   19.9542   43.5949  -30.3407 H   0  0  0  0  0  0
   18.1669   47.4188  -31.2299 H   0  0  0  0  0  0
   24.3219   43.2405  -29.4083 H   0  0  0  0  0  0
   21.1660   42.2552  -34.1768 H   0  0  0  0  0  0
   18.6423   42.7882  -32.4125 H   0  0  0  0  0  0
   21.1813   44.6342  -28.4087 H   0  0  0  0  0  0
  1 14  1  0  0  0
  1 29  1  0  0  0
  1 30  1  0  0  0
  1 31  1  0  0  0
  2 14  1  0  0  0
  2 15  2  0  0  0
  2 19  1  0  0  0
  3 17  1  0  0  0
  3 32  1  0  0  0
  3 33  1  0  0  0
  3 34  1  0  0  0
  4  5  1  0  0  0
  4 18  1  0  0  0
  4 19  2  0  0  0
  5  6  1  0  0  0
  5 20  1  0  0  0
  5 35  1  0  0  0
  6  7  1  0  0  0
  6 36  1  0  0  0
  6 37  1  0  0  0
  7  8  1  0  0  0
  7 38  1  0  0  0
  7 39  1  0  0  0
  8  9  1  0  0  0
  8 40  1  0  0  0
  8 41  1  0  0  0
  9 20  1  0  0  0
  9 42  1  0  0  0
  9 43  1  0  0  0
 10 20  1  0  0  0
 10 21  2  0  0  0
 10 22  1  0  0  0
 11 22  1  0  0  0
 11 23  1  0  0  0
 11 44  1  0  0  0
 11 45  1  0  0  0
 12 23  2  0  0  0
 12 24  1  0  0  0
 12 46  1  0  0  0
 13 23  1  0  0  0
 13 27  2  0  0  0
 13 47  1  0  0  0
 15 16  1  0  0  0
 15 48  1  0  0  0
 16 17  1  0  0  0
 16 18  2  0  0  0
 20 49  1  0  0  0
 22 50  1  0  0  0
 24 25  2  0  0  0
 24 51  1  0  0  0
 25 26  1  0  0  0
 25 27  1  0  0  0
 27 28  1  0  0  0
M  END
> <s_m_source_file>
../4nat_ligand.sdf

> <i_m_source_file_index>
1

> <s_epik_input>
W0NIM11PYzFbY0hdYyhPW0NIM10pbmMobjEpW0NASF0yW0NIMl1bQ0gyXVtDSDJdW0NIMl1bQ0hdMkMoPU8pW05IXVtDSDJdYzNbY0hdW2NIXWMoQ2wpYyhDbClbY0hdMw==

> <s_epik_cmdline>
J2VwaWtfYXBwJywgJy1pbWFlJywgJ2xpZ2FuZF9wcm8ubWFlJywgJy1vbWFlJywgJ2xpZ2FuZF9wcmVwLm1hZScsICctbXMnLCAnMScsICctcGgnLCAnNycsICctcGh0JywgJzAuNScsICctbnQn

> <r_lp_tautomer_probability>
1

> <r_epik_Ionization_Penalty>
  0.0000

> <r_epik_Ionization_Penalty_Charging>
  0.0000

> <r_epik_Ionization_Penalty_Neutral>
  0.0000

> <r_epik_State_Penalty>
 -0.0000

> <r_epik_Charging_Adjusted_Penalty>
0

> <i_epik_Tot_Q>
0

> <i_epik_Tot_abs_Q>
0

$$$$
