4nau_ligand
                    3D
 Schrodinger Suite 2020-3.
 62 65  0  0  1  0            999 V2000
  -11.4890  -44.0250   31.9080 C   0  0  0  0  0  0
  -12.5700  -44.0770   30.7950 C   0  0  0  0  0  0
  -13.8800  -43.3960   31.1410 C   0  0  0  0  0  0
  -16.1810  -42.2380   31.9080 N   0  0  0  0  0  0
  -15.4170  -42.8690   32.7980 C   0  0  0  0  0  0
  -15.8260  -42.9490   34.2820 C   0  0  1  0  0  0
  -15.3260  -41.7050   35.0550 C   0  0  0  0  0  0
  -15.8240  -41.6760   36.5130 C   0  0  0  0  0  0
  -17.3450  -41.9010   36.6750 C   0  0  0  0  0  0
  -17.7540  -43.2020   35.9720 C   0  0  0  0  0  0
  -17.3620  -43.0310   34.4910 C   0  0  2  0  0  0
  -19.8090  -44.6590   32.1440 C   0  0  0  0  0  0
  -19.0380  -45.2600   30.9940 C   0  0  0  0  0  0
  -18.0510  -44.6080   30.2270 C   0  0  0  0  0  0
  -17.8380  -46.6320   28.9370 C   0  0  0  0  0  0
  -17.3130  -39.6690   28.0960 C   0  0  0  0  0  0
  -18.7280  -39.9130   28.2340 C   0  0  0  0  0  0
  -19.1060  -40.9350   29.1530 C   0  0  0  0  0  0
  -14.6540  -42.7470   30.1530 C   0  0  0  0  0  0
  -15.8670  -42.1500   30.5860 C   0  0  0  0  0  0
  -14.2760  -43.4260   32.4150 N   0  0  0  0  0  0
  -18.0280  -44.1220   33.7010 C   0  0  0  0  0  0
  -17.6480  -45.2840   33.7650 O   0  0  0  0  0  0
  -19.0550  -43.7080   32.9380 N   0  0  0  0  0  0
  -17.4230  -45.2980   29.1720 C   0  0  0  0  0  0
  -18.7900  -47.2440   29.7130 C   0  0  0  0  0  0
  -19.4040  -46.5700   30.7410 C   0  0  0  0  0  0
  -19.1400  -48.9070   29.3240 Cl  0  0  0  0  0  0
  -17.2870  -47.7400   27.7140 Cl  0  0  0  0  0  0
  -16.8450  -41.3920   29.7110 C   0  0  0  0  0  0
  -16.4190  -40.4200   28.8390 N   0  0  0  0  0  0
  -16.8790  -38.7910   27.3220 O   0  0  0  0  0  0
  -18.1570  -41.6140   29.8490 N   0  0  0  0  0  0
  -20.4240  -41.2300   29.3580 O   0  5  0  0  0  0
  -19.7510  -39.1420   27.4460 C   0  0  0  0  0  0
  -19.8970  -37.9250   27.6570 O   0  0  0  0  0  0
  -20.5390  -39.7440   26.4810 N   0  0  0  0  0  0
  -10.5820  -44.5429   31.5627 H   0  0  0  0  0  0
  -11.8711  -44.5190   32.8136 H   0  0  0  0  0  0
  -11.2480  -42.9763   32.1363 H   0  0  0  0  0  0
  -12.1879  -43.5830   29.8894 H   0  0  0  0  0  0
  -12.8110  -45.1257   30.5666 H   0  0  0  0  0  0
  -15.3597  -43.8727   34.6553 H   0  0  0  0  0  0
  -14.2262  -41.7021   35.0729 H   0  0  0  0  0  0
  -15.6870  -40.7936   34.5559 H   0  0  0  0  0  0
  -15.3204  -42.4669   37.0882 H   0  0  0  0  0  0
  -15.5961  -40.6966   36.9589 H   0  0  0  0  0  0
  -17.5934  -41.9711   37.7443 H   0  0  0  0  0  0
  -17.8903  -41.0575   36.2264 H   0  0  0  0  0  0
  -17.2198  -44.0487   36.4278 H   0  0  0  0  0  0
  -18.8384  -43.3518   36.0799 H   0  0  0  0  0  0
  -17.7482  -42.0775   34.1015 H   0  0  0  0  0  0
  -20.6899  -44.1264   31.7563 H   0  0  0  0  0  0
  -20.1346  -45.4591   32.8251 H   0  0  0  0  0  0
  -17.7758  -43.5769   30.4490 H   0  0  0  0  0  0
  -14.3359  -42.7068   29.1112 H   0  0  0  0  0  0
  -19.3220  -42.6411   32.9183 H   0  0  0  0  0  0
  -16.6516  -44.8264   28.5631 H   0  0  0  0  0  0
  -20.1666  -47.0592   31.3470 H   0  0  0  0  0  0
  -15.3376  -40.2451   28.7390 H   0  0  0  0  0  0
  -20.4304  -40.8189   26.2743 H   0  0  0  0  0  0
  -21.2740  -39.1477   25.9206 H   0  0  0  0  0  0
  1  2  1  0  0  0
  1 38  1  0  0  0
  1 39  1  0  0  0
  1 40  1  0  0  0
  2  3  1  0  0  0
  2 41  1  0  0  0
  2 42  1  0  0  0
  3 19  2  0  0  0
  3 21  1  0  0  0
  4  5  1  0  0  0
  4 20  2  0  0  0
  5  6  1  0  0  0
  5 21  2  0  0  0
  6  7  1  0  0  0
  6 11  1  0  0  0
  6 43  1  0  0  0
  7  8  1  0  0  0
  7 44  1  0  0  0
  7 45  1  0  0  0
  8  9  1  0  0  0
  8 46  1  0  0  0
  8 47  1  0  0  0
  9 10  1  0  0  0
  9 48  1  0  0  0
  9 49  1  0  0  0
 10 11  1  0  0  0
 10 50  1  0  0  0
 10 51  1  0  0  0
 11 22  1  0  0  0
 11 52  1  0  0  0
 12 13  1  0  0  0
 12 24  1  0  0  0
 12 53  1  0  0  0
 12 54  1  0  0  0
 13 14  2  0  0  0
 13 27  1  0  0  0
 14 25  1  0  0  0
 14 55  1  0  0  0
 15 25  2  0  0  0
 15 26  1  0  0  0
 15 29  1  0  0  0
 16 17  1  0  0  0
 16 31  1  0  0  0
 16 32  2  0  0  0
 17 18  2  0  0  0
 17 35  1  0  0  0
 18 33  1  0  0  0
 18 34  1  0  0  0
 19 20  1  0  0  0
 19 56  1  0  0  0
 20 30  1  0  0  0
 22 23  2  0  0  0
 22 24  1  0  0  0
 24 57  1  0  0  0
 25 58  1  0  0  0
 26 27  2  0  0  0
 26 28  1  0  0  0
 27 59  1  0  0  0
 30 31  1  0  0  0
 30 33  2  0  0  0
 31 60  1  0  0  0
 35 36  2  0  0  0
 35 37  1  0  0  0
 37 61  1  0  0  0
 37 62  1  0  0  0
M  CHG  1  34  -1
M  END
> <s_m_source_file>
../4nau_ligand.sdf

> <i_m_source_file_index>
1

> <s_epik_input>
Tz1jMWMoQyg9TylbTkgyXSljKFtPSF0pbmMoW25IXTEpLWMoW2NIXWMyW0NIMl1bQ0gzXSluYyhuMilbQ0BIXTNbQ0gyXVtDSDJdW0NIMl1bQ0gyXVtDQEBIXTNDKD1PKVtOSF1bQ0gyXWM0W2NIXVtjSF1jKENsKWMoQ2wpW2NIXTQ=

> <s_epik_cmdline>
J2VwaWtfYXBwJywgJy1pbWFlJywgJ2xpZ2FuZF9wcm8ubWFlJywgJy1vbWFlJywgJ2xpZ2FuZF9wcmVwLm1hZScsICctbXMnLCAnMScsICctcGgnLCAnNycsICctcGh0JywgJzAuNScsICctbnQn

> <r_lp_tautomer_probability>
1

> <r_epik_Ionization_Penalty>
  0.0770

> <r_epik_Ionization_Penalty_Charging>
  0.0687

> <r_epik_Ionization_Penalty_Neutral>
  0.0082

> <r_epik_State_Penalty>
  0.0602

> <r_epik_Charging_Adjusted_Penalty>
0.128926903250085

> <i_epik_Tot_Q>
-1

> <i_epik_Tot_abs_Q>
1

$$$$
