4nb3_ligand
                    3D
 Schrodinger Suite 2020-3.
268275  0  0  1  0            999 V2000
   29.6260  -17.8810   26.3830 C   0  0  0  0  0  0
   30.7100  -18.6010   26.8740 C   0  0  0  0  0  0
   30.8560  -18.7990   28.2420 C   0  0  0  0  0  0
   29.9130  -18.2810   29.1310 C   0  0  0  0  0  0
   27.3460  -16.3510   25.2360 C   0  0  0  0  0  0
   27.4830  -15.0410   24.7680 C   0  0  0  0  0  0
   27.3610  -14.7230   23.3940 C   0  0  0  0  0  0
   27.0850  -15.7790   22.5250 C   0  0  0  0  0  0
   26.9770  -17.0940   22.9810 C   0  0  0  0  0  0
   27.0760  -17.4010   24.3310 C   0  0  0  0  0  0
   26.9280  -18.8560   24.6990 C   0  0  0  0  0  0
   24.4670  -14.7850   28.2540 C   0  0  0  0  0  0
   25.3870  -15.2900   27.3150 C   0  0  0  0  0  0
   26.5160  -16.0230   27.7300 C   0  0  0  0  0  0
   26.6860  -16.2380   29.0840 C   0  0  0  0  0  0
   25.7680  -15.7410   30.0330 C   0  0  0  0  0  0
   24.6600  -15.0200   29.6190 C   0  0  0  0  0  0
   27.5000  -16.5800   26.7680 C   0  0  0  0  0  0
   28.6640  -17.3450   27.2620 C   0  0  0  0  0  0
   28.8180  -17.5490   28.6230 C   0  0  0  0  0  0
   27.8300  -17.0010   29.5520 O   0  0  0  0  0  0
   26.3090  -19.1980   25.7360 O   0  0  0  0  0  0
   27.4160  -19.7270   23.9170 O   0  0  0  0  0  0
   27.0080  -15.6280   21.1160 N   0  0  0  0  0  0
   25.8780  -16.0250   20.3300 C   0  0  0  0  0  0
   24.7700  -16.4690   21.0960 N   0  0  0  0  0  0
   23.5620  -16.8580   20.3750 C   0  0  0  0  0  0
   23.1500  -18.2750   20.7410 C   0  0  0  0  0  0
   21.9010  -18.6610   19.9670 C   0  0  0  0  0  0
   22.0320  -20.0230   19.3390 C   0  0  0  0  0  0
   31.8150  -19.4390   28.6660 O   0  0  0  0  0  0
   23.7650  -14.5240   30.5430 O   0  0  0  0  0  0
   20.6740  -20.6110   18.9180 C   0  0  0  0  0  0
   25.8950  -15.8930   18.6750 S   0  0  0  0  0  0
   20.8890  -21.9490   18.3320 C   0  0  0  0  0  0
   21.2600  -22.9470   18.9130 O   0  0  0  0  0  0
   20.3810  -22.0770   17.0220 N   0  0  0  0  0  0
   20.5990  -23.3370   16.3000 C   0  0  2  0  0  0
   21.8650  -23.3320   15.4410 C   0  0  0  0  0  0
   21.8640  -23.8270   14.2990 O   0  0  0  0  0  0
   19.3690  -23.6370   15.4040 C   0  0  0  0  0  0
   19.1420  -22.6070   14.3090 C   0  0  0  0  0  0
   19.7300  -21.4870   14.3630 O   0  0  0  0  0  0
   18.3290  -22.8960   13.3970 O   0  0  0  0  0  0
   22.9390  -22.7170   15.9520 N   0  0  0  0  0  0
   24.1750  -22.5380   15.2100 C   0  0  2  0  0  0
   25.2660  -22.3540   16.2500 C   0  0  0  0  0  0
   24.9740  -22.0850   17.4350 O   0  0  0  0  0  0
   24.1130  -21.3110   14.2540 C   0  0  0  0  0  0
   23.8200  -20.0090   14.9820 C   0  0  0  0  0  0
   24.8480  -19.2600   15.5700 C   0  0  0  0  0  0
   22.4930  -19.5800   15.1390 C   0  0  0  0  0  0
   24.5750  -18.1440   16.2500 C   0  0  0  0  0  0
   22.2020  -18.4300   15.8270 C   0  0  0  0  0  0
   23.2540  -17.7010   16.3830 C   0  0  0  0  0  0
   26.5230  -22.4940   15.8100 N   0  0  0  0  0  0
   27.7060  -22.2700   16.6650 C   0  0  2  0  0  0
   28.5040  -21.0390   16.2660 C   0  0  0  0  0  0
   28.2930  -20.4880   15.1840 O   0  0  0  0  0  0
   28.6790  -23.4260   16.5880 C   0  0  2  0  0  0
   29.2020  -23.4710   15.2600 O   0  0  0  0  0  0
   27.9980  -24.7440   16.9460 C   0  0  0  0  0  0
   29.4590  -20.6410   17.0940 N   0  0  0  0  0  0
   30.3370  -19.5310   16.7420 C   0  0  2  0  0  0
   31.1500  -19.8720   15.4980 C   0  0  0  0  0  0
   31.3670  -19.0190   14.6520 O   0  0  0  0  0  0
   31.2320  -19.1550   17.9340 C   0  0  0  0  0  0
   31.5620  -21.1290   15.3650 N   0  0  0  0  0  0
   32.3380  -21.5330   14.1920 C   0  0  2  0  0  0
   31.4680  -21.4980   12.9250 C   0  0  0  0  0  0
   31.9740  -21.1810   11.8410 O   0  0  0  0  0  0
   32.9590  -22.8990   14.3930 C   0  0  0  0  0  0
   34.1480  -22.8710   15.3380 C   0  0  0  0  0  0
   34.7340  -21.7800   15.5790 O   0  0  0  0  0  0
   34.5840  -23.9620   15.7390 O   0  0  0  0  0  0
   30.1430  -21.7560   13.0450 N   0  0  0  0  0  0
   29.2240  -21.5760   11.9240 C   0  0  2  0  0  0
   29.2910  -20.0960   11.4620 C   0  0  0  0  0  0
   29.3290  -19.8240   10.2550 O   0  0  0  0  0  0
   27.7770  -21.9250   12.3110 C   0  0  0  0  0  0
   27.5500  -23.4060   12.4960 C   0  0  0  0  0  0
   28.2160  -24.2260   11.8170 O   0  0  0  0  0  0
   26.6160  -23.7460   13.2700 O   0  0  0  0  0  0
   29.1990  -19.1570   12.4030 N   0  0  0  0  0  0
   29.2370  -17.7310   12.0440 C   0  0  2  0  0  0
   30.5330  -17.4080   11.3310 C   0  0  0  0  0  0
   30.5240  -16.6550   10.3460 O   0  0  0  0  0  0
   29.0880  -16.8440   13.3040 C   0  0  0  0  0  0
   27.7410  -16.9970   14.0390 C   0  0  0  0  0  0
   27.7430  -15.9550   15.1830 C   0  0  0  0  0  0
   26.5370  -16.7780   13.1280 C   0  0  0  0  0  0
   31.6380  -17.9220   11.8330 N   0  0  0  0  0  0
   32.9180  -17.6870   11.1410 C   0  0  2  0  0  0
   32.8840  -18.2180    9.7030 C   0  0  0  0  0  0
   33.4140  -17.5460    8.7700 O   0  0  0  0  0  0
   34.0770  -18.3450   11.9020 C   0  0  0  0  0  0
   34.3820  -17.7030   13.2590 C   0  0  0  0  0  0
   35.1600  -16.3840   13.2120 C   0  0  0  0  0  0
   35.5510  -15.8910   12.1000 O   0  0  0  0  0  0
   35.4120  -15.8720   14.3200 O   0  0  0  0  0  0
   32.3030  -19.4060    9.4920 N   0  0  0  0  0  0
   32.1950  -19.9590    8.1490 C   0  0  2  0  0  0
   31.3090  -19.0990    7.2290 C   0  0  0  0  0  0
   31.6770  -18.7330    6.1060 O   0  0  0  0  0  0
   31.6320  -21.3760    8.2450 C   0  0  0  0  0  0
   31.5050  -22.0330    6.8850 C   0  0  0  0  0  0
   30.8110  -23.3870    6.9330 C   0  0  0  0  0  0
   30.9590  -24.1100    7.9350 O   0  0  0  0  0  0
   30.1060  -23.7220    5.9430 O   0  0  0  0  0  0
   30.1300  -18.7140    7.7460 N   0  0  0  0  0  0
   29.1860  -17.9840    6.9240 C   0  0  2  0  0  0
   29.6900  -16.5760    6.5900 C   0  0  0  0  0  0
   29.2710  -16.0590    5.5500 O   0  0  0  0  0  0
   27.7880  -17.9410    7.6220 C   0  0  0  0  0  0
   27.2200  -19.3340    7.8330 C   0  0  0  0  0  0
   27.5120  -20.4470    7.0800 C   0  0  0  0  0  0
   26.3620  -19.7570    8.8750 C   0  0  0  0  0  0
   26.8540  -21.5380    7.5890 N   0  0  0  0  0  0
   26.1180  -21.1420    8.6730 C   0  0  0  0  0  0
   25.7230  -19.1010    9.9420 C   0  0  0  0  0  0
   25.2910  -21.9050    9.5460 C   0  0  0  0  0  0
   24.9030  -19.8110   10.7590 C   0  0  0  0  0  0
   24.6820  -21.2040   10.5660 C   0  0  0  0  0  0
   30.5290  -15.9830    7.4600 N   0  0  0  0  0  0
   33.1920  -13.7470    6.8340 O   0  0  0  0  0  0
   25.2220  -11.9560    8.9350 Cl  0  0  0  0  0  0
   27.9190  -11.6250    8.3480 C   0  0  0  0  0  0
   27.1670  -13.7830    9.2720 C   0  0  0  0  0  0
   25.9780  -14.8610    9.8720 Cl  0  0  0  0  0  0
   29.1900  -12.0600    8.2760 C   0  0  0  0  0  0
   28.5410  -14.2390    9.1940 C   0  0  0  0  0  0
   30.9090  -13.8880    8.5500 C   0  0  0  0  0  0
   32.4650  -14.7500    6.7960 C   0  0  0  0  0  0
   26.8570  -12.4980    8.8650 C   0  0  0  0  0  0
   29.5100  -13.4070    8.7130 C   0  0  0  0  0  0
   31.0970  -14.7520    7.2940 C   0  0  1  0  0  0
   32.9870  -15.8820    6.3220 N   0  0  0  0  0  0
   34.4200  -15.9660    5.9050 C   0  0  2  0  0  0
   34.8260  -14.9500    4.8490 C   0  0  0  0  0  0
   34.1090  -14.7430    3.8620 O   0  0  0  0  0  0
   34.6890  -17.3170    5.3830 C   0  0  0  0  0  0
   35.9880  -14.3410    5.0380 N   0  0  0  0  0  0
   36.5490  -13.3940    4.0470 C   0  0  2  0  0  0
   37.2490  -14.1090    2.9170 C   0  0  0  0  0  0
   37.7720  -15.2020    3.1080 O   0  0  0  0  0  0
   37.5410  -12.4200    4.6930 C   0  0  0  0  0  0
   36.9840  -11.4450    5.7150 C   0  0  0  0  0  0
   38.1010  -10.4720    6.0190 C   0  0  0  0  0  0
   35.7660  -10.7150    5.1920 C   0  0  0  0  0  0
   37.3160  -13.4560    1.7690 N   0  0  0  0  0  0
   29.5197  -17.7301   25.3087 H   0  0  0  0  0  0
   31.4473  -19.0112   26.1839 H   0  0  0  0  0  0
   30.0206  -18.4396   30.2040 H   0  0  0  0  0  0
   27.6894  -14.2424   25.4806 H   0  0  0  0  0  0
   27.4772  -13.7014   23.0321 H   0  0  0  0  0  0
   26.8115  -17.8963   22.2620 H   0  0  0  0  0  0
   23.6041  -14.2107   27.9167 H   0  0  0  0  0  0
   25.2232  -15.1112   26.2523 H   0  0  0  0  0  0
   25.9310  -15.9249   31.0949 H   0  0  0  0  0  0
   27.3239  -20.7962   24.1585 H   0  0  0  0  0  0
   27.8489  -15.1832   20.5637 H   0  0  0  0  0  0
   24.7975  -16.5262   22.1942 H   0  0  0  0  0  0
   22.7428  -16.1714   20.6349 H   0  0  0  0  0  0
   23.7501  -16.8111   19.2922 H   0  0  0  0  0  0
   23.9644  -18.9702   20.4893 H   0  0  0  0  0  0
   22.9419  -18.3293   21.8198 H   0  0  0  0  0  0
   21.0375  -18.6762   20.6483 H   0  0  0  0  0  0
   21.7239  -17.9271   19.1670 H   0  0  0  0  0  0
   22.6638  -19.9536   18.4412 H   0  0  0  0  0  0
   22.4924  -20.7159   20.0587 H   0  0  0  0  0  0
   22.8874  -13.9524   30.2068 H   0  0  0  0  0  0
   20.0209  -20.6931   19.7993 H   0  0  0  0  0  0
   20.2039  -19.9517   18.1735 H   0  0  0  0  0  0
   19.8306  -21.2553   16.5405 H   0  0  0  0  0  0
   20.7395  -24.0818   17.0972 H   0  0  0  0  0  0
   19.5024  -24.6120   14.9126 H   0  0  0  0  0  0
   18.4606  -23.6601   16.0240 H   0  0  0  0  0  0
   19.5664  -20.7412   13.5712 H   0  0  0  0  0  0
   22.8561  -22.3394   16.9818 H   0  0  0  0  0  0
   24.3270  -23.4429   14.6033 H   0  0  0  0  0  0
   25.0788  -21.1976   13.7398 H   0  0  0  0  0  0
   23.3175  -21.4656   13.5101 H   0  0  0  0  0  0
   25.8815  -19.5920   15.4712 H   0  0  0  0  0  0
   21.6830  -20.1687   14.7084 H   0  0  0  0  0  0
   25.3857  -17.5744   16.7043 H   0  0  0  0  0  0
   21.1714  -18.0927   15.9372 H   0  0  0  0  0  0
   23.0452  -16.7789   16.9254 H   0  0  0  0  0  0
   26.6524  -22.7904   14.7586 H   0  0  0  0  0  0
   27.2638  -22.1579   17.6660 H   0  0  0  0  0  0
   29.5336  -23.2696   17.2627 H   0  0  0  0  0  0
   29.7258  -22.5971   14.8453 H   0  0  0  0  0  0
   27.6036  -24.6863   17.9712 H   0  0  0  0  0  0
   28.7283  -25.5639   16.8797 H   0  0  0  0  0  0
   27.1713  -24.9318   16.2451 H   0  0  0  0  0  0
   29.5854  -21.1584   18.0565 H   0  0  0  0  0  0
   29.6806  -18.6808   16.5047 H   0  0  0  0  0  0
   30.6028  -18.9181   18.8046 H   0  0  0  0  0  0
   31.8415  -18.2774   17.6724 H   0  0  0  0  0  0
   31.8922  -20.0004   18.1779 H   0  0  0  0  0  0
   31.3165  -21.8670   16.1429 H   0  0  0  0  0  0
   33.1514  -20.7974   14.1071 H   0  0  0  0  0  0
   32.2094  -23.5839   14.8160 H   0  0  0  0  0  0
   33.3076  -23.2893   13.4255 H   0  0  0  0  0  0
   35.5952  -21.7576   16.2630 H   0  0  0  0  0  0
   29.7642  -22.1088   14.0156 H   0  0  0  0  0  0
   29.5650  -22.2795   11.1502 H   0  0  0  0  0  0
   27.5213  -21.4293   13.2591 H   0  0  0  0  0  0
   27.0930  -21.5808   11.5213 H   0  0  0  0  0  0
   26.4051  -24.8117   13.4426 H   0  0  0  0  0  0
   29.0938  -19.4564   13.4562 H   0  0  0  0  0  0
   28.3947  -17.5669   11.3559 H   0  0  0  0  0  0
   29.8771  -17.0984   14.0269 H   0  0  0  0  0  0
   29.1785  -15.7852   13.0199 H   0  0  0  0  0  0
   27.6352  -18.0288   14.4053 H   0  0  0  0  0  0
   28.6153  -16.1242   15.8315 H   0  0  0  0  0  0
   26.8211  -16.0578   15.7742 H   0  0  0  0  0  0
   27.7941  -14.9423   14.7565 H   0  0  0  0  0  0
   26.5479  -17.5245   12.3202 H   0  0  0  0  0  0
   26.5840  -15.7681   12.6946 H   0  0  0  0  0  0
   25.6111  -16.8835   13.7124 H   0  0  0  0  0  0
   31.6135  -18.5198   12.7561 H   0  0  0  0  0  0
   33.0370  -16.5935   11.1295 H   0  0  0  0  0  0
   33.8381  -19.4019   12.0915 H   0  0  0  0  0  0
   34.9953  -18.2789   11.3001 H   0  0  0  0  0  0
   33.4390  -17.4854   13.7819 H   0  0  0  0  0  0
   34.9858  -18.3949   13.8645 H   0  0  0  0  0  0
   36.1086  -14.9429   12.0844 H   0  0  0  0  0  0
   31.9042  -19.9656   10.3509 H   0  0  0  0  0  0
   33.2208  -19.9559    7.7520 H   0  0  0  0  0  0
   32.2994  -21.9946    8.8630 H   0  0  0  0  0  0
   30.6329  -21.3433    8.7040 H   0  0  0  0  0  0
   30.9192  -21.3839    6.2175 H   0  0  0  0  0  0
   32.5067  -22.1891    6.4582 H   0  0  0  0  0  0
   29.5884  -24.6926    5.9396 H   0  0  0  0  0  0
   29.8807  -18.9518    8.7907 H   0  0  0  0  0  0
   29.1464  -18.5550    5.9847 H   0  0  0  0  0  0
   27.8833  -17.4545    8.6039 H   0  0  0  0  0  0
   27.0837  -17.3718    6.9975 H   0  0  0  0  0  0
   28.1678  -20.4604    6.2094 H   0  0  0  0  0  0
   25.8838  -18.0363   10.1112 H   0  0  0  0  0  0
   25.1480  -22.9777    9.4160 H   0  0  0  0  0  0
   24.4019  -19.3021   11.5824 H   0  0  0  0  0  0
   24.0118  -21.7322   11.2442 H   0  0  0  0  0  0
   30.7472  -16.5722    8.3629 H   0  0  0  0  0  0
   27.6749  -10.6148    8.0194 H   0  0  0  0  0  0
   29.9734  -11.4063    7.8926 H   0  0  0  0  0  0
   28.8001  -15.2465    9.5196 H   0  0  0  0  0  0
   31.5864  -13.0250    8.4694 H   0  0  0  0  0  0
   31.1917  -14.4959    9.4221 H   0  0  0  0  0  0
   30.5201  -14.4079    6.4229 H   0  0  0  0  0  0
   32.3379  -16.7664    6.2411 H   0  0  0  0  0  0
   35.0117  -15.7701    6.8113 H   0  0  0  0  0  0
   34.4004  -18.0652    6.1360 H   0  0  0  0  0  0
   35.7614  -17.4168    5.1592 H   0  0  0  0  0  0
   34.1061  -17.4778    4.4641 H   0  0  0  0  0  0
   36.5391  -14.5575    5.9651 H   0  0  0  0  0  0
   35.6714  -12.8601    3.6536 H   0  0  0  0  0  0
   38.3212  -12.9878    5.2210 H   0  0  0  0  0  0
   38.0046  -11.7978    3.9132 H   0  0  0  0  0  0
   36.6517  -11.9756    6.6195 H   0  0  0  0  0  0
   38.9746  -11.0232    6.3971 H   0  0  0  0  0  0
   37.7638   -9.7528    6.7799 H   0  0  0  0  0  0
   38.3771   -9.9323    5.1011 H   0  0  0  0  0  0
   34.9675  -11.4406    4.9779 H   0  0  0  0  0  0
   36.0292  -10.1766    4.2696 H   0  0  0  0  0  0
   35.4160   -9.9971    5.9484 H   0  0  0  0  0  0
   36.8241  -12.4778    1.6631 H   0  0  0  0  0  0
   37.8637  -13.8910    0.9200 H   0  0  0  0  0  0
  1  2  2  0  0  0
  1 19  1  0  0  0
  1151  1  0  0  0
  2  3  1  0  0  0
  2152  1  0  0  0
  3  4  1  0  0  0
  3 31  2  0  0  0
  4 20  2  0  0  0
  4153  1  0  0  0
  5  6  2  0  0  0
  5 10  1  0  0  0
  5 18  1  0  0  0
  6  7  1  0  0  0
  6154  1  0  0  0
  7  8  2  0  0  0
  7155  1  0  0  0
  8  9  1  0  0  0
  8 24  1  0  0  0
  9 10  2  0  0  0
  9156  1  0  0  0
 10 11  1  0  0  0
 11 22  2  0  0  0
 11 23  1  0  0  0
 12 13  2  0  0  0
 12 17  1  0  0  0
 12157  1  0  0  0
 13 14  1  0  0  0
 13158  1  0  0  0
 14 15  2  0  0  0
 14 18  1  0  0  0
 15 16  1  0  0  0
 15 21  1  0  0  0
 16 17  2  0  0  0
 16159  1  0  0  0
 17 32  1  0  0  0
 18 19  2  0  0  0
 19 20  1  0  0  0
 20 21  1  0  0  0
 23160  1  0  0  0
 24 25  1  0  0  0
 24161  1  0  0  0
 25 26  1  0  0  0
 25 34  2  0  0  0
 26 27  1  0  0  0
 26162  1  0  0  0
 27 28  1  0  0  0
 27163  1  0  0  0
 27164  1  0  0  0
 28 29  1  0  0  0
 28165  1  0  0  0
 28166  1  0  0  0
 29 30  1  0  0  0
 29167  1  0  0  0
 29168  1  0  0  0
 30 33  1  0  0  0
 30169  1  0  0  0
 30170  1  0  0  0
 32171  1  0  0  0
 33 35  1  0  0  0
 33172  1  0  0  0
 33173  1  0  0  0
 35 36  2  0  0  0
 35 37  1  0  0  0
 37 38  1  0  0  0
 37174  1  0  0  0
 38 39  1  0  0  0
 38 41  1  0  0  0
 38175  1  0  0  0
 39 40  2  0  0  0
 39 45  1  0  0  0
 41 42  1  0  0  0
 41176  1  0  0  0
 41177  1  0  0  0
 42 43  1  0  0  0
 42 44  2  0  0  0
 43178  1  0  0  0
 45 46  1  0  0  0
 45179  1  0  0  0
 46 47  1  0  0  0
 46 49  1  0  0  0
 46180  1  0  0  0
 47 48  2  0  0  0
 47 56  1  0  0  0
 49 50  1  0  0  0
 49181  1  0  0  0
 49182  1  0  0  0
 50 51  2  0  0  0
 50 52  1  0  0  0
 51 53  1  0  0  0
 51183  1  0  0  0
 52 54  2  0  0  0
 52184  1  0  0  0
 53 55  2  0  0  0
 53185  1  0  0  0
 54 55  1  0  0  0
 54186  1  0  0  0
 55187  1  0  0  0
 56 57  1  0  0  0
 56188  1  0  0  0
 57 58  1  0  0  0
 57 60  1  0  0  0
 57189  1  0  0  0
 58 59  2  0  0  0
 58 63  1  0  0  0
 60 61  1  0  0  0
 60 62  1  0  0  0
 60190  1  0  0  0
 61191  1  0  0  0
 62192  1  0  0  0
 62193  1  0  0  0
 62194  1  0  0  0
 63 64  1  0  0  0
 63195  1  0  0  0
 64 65  1  0  0  0
 64 67  1  0  0  0
 64196  1  0  0  0
 65 66  2  0  0  0
 65 68  1  0  0  0
 67197  1  0  0  0
 67198  1  0  0  0
 67199  1  0  0  0
 68 69  1  0  0  0
 68200  1  0  0  0
 69 70  1  0  0  0
 69 72  1  0  0  0
 69201  1  0  0  0
 70 71  2  0  0  0
 70 76  1  0  0  0
 72 73  1  0  0  0
 72202  1  0  0  0
 72203  1  0  0  0
 73 74  1  0  0  0
 73 75  2  0  0  0
 74204  1  0  0  0
 76 77  1  0  0  0
 76205  1  0  0  0
 77 78  1  0  0  0
 77 80  1  0  0  0
 77206  1  0  0  0
 78 79  2  0  0  0
 78 84  1  0  0  0
 80 81  1  0  0  0
 80207  1  0  0  0
 80208  1  0  0  0
 81 82  2  0  0  0
 81 83  1  0  0  0
 83209  1  0  0  0
 84 85  1  0  0  0
 84210  1  0  0  0
 85 86  1  0  0  0
 85 88  1  0  0  0
 85211  1  0  0  0
 86 87  2  0  0  0
 86 92  1  0  0  0
 88 89  1  0  0  0
 88212  1  0  0  0
 88213  1  0  0  0
 89 90  1  0  0  0
 89 91  1  0  0  0
 89214  1  0  0  0
 90215  1  0  0  0
 90216  1  0  0  0
 90217  1  0  0  0
 91218  1  0  0  0
 91219  1  0  0  0
 91220  1  0  0  0
 92 93  1  0  0  0
 92221  1  0  0  0
 93 94  1  0  0  0
 93 96  1  0  0  0
 93222  1  0  0  0
 94 95  2  0  0  0
 94101  1  0  0  0
 96 97  1  0  0  0
 96223  1  0  0  0
 96224  1  0  0  0
 97 98  1  0  0  0
 97225  1  0  0  0
 97226  1  0  0  0
 98 99  1  0  0  0
 98100  2  0  0  0
 99227  1  0  0  0
101102  1  0  0  0
101228  1  0  0  0
102103  1  0  0  0
102105  1  0  0  0
102229  1  0  0  0
103104  2  0  0  0
103110  1  0  0  0
105106  1  0  0  0
105230  1  0  0  0
105231  1  0  0  0
106107  1  0  0  0
106232  1  0  0  0
106233  1  0  0  0
107108  2  0  0  0
107109  1  0  0  0
109234  1  0  0  0
110111  1  0  0  0
110235  1  0  0  0
111112  1  0  0  0
111114  1  0  0  0
111236  1  0  0  0
112113  2  0  0  0
112124  1  0  0  0
114115  1  0  0  0
114237  1  0  0  0
114238  1  0  0  0
115116  2  0  0  0
115117  1  0  0  0
116118  1  0  0  0
116239  1  0  0  0
117119  2  0  0  0
117120  1  0  0  0
118119  1  0  0  0
119121  1  0  0  0
120122  2  0  0  0
120240  1  0  0  0
121123  2  0  0  0
121241  1  0  0  0
122123  1  0  0  0
122242  1  0  0  0
123243  1  0  0  0
124136  1  0  0  0
124244  1  0  0  0
125133  2  0  0  0
126134  1  0  0  0
127130  2  0  0  0
127134  1  0  0  0
127245  1  0  0  0
128129  1  0  0  0
128131  1  0  0  0
128134  2  0  0  0
130135  1  0  0  0
130246  1  0  0  0
131135  2  0  0  0
131247  1  0  0  0
132135  1  0  0  0
132136  1  0  0  0
132248  1  0  0  0
132249  1  0  0  0
133136  1  0  0  0
133137  1  0  0  0
136250  1  0  0  0
137138  1  0  0  0
137251  1  0  0  0
138139  1  0  0  0
138141  1  0  0  0
138252  1  0  0  0
139140  2  0  0  0
139142  1  0  0  0
141253  1  0  0  0
141254  1  0  0  0
141255  1  0  0  0
142143  1  0  0  0
142256  1  0  0  0
143144  1  0  0  0
143146  1  0  0  0
143257  1  0  0  0
144145  2  0  0  0
144150  1  0  0  0
146147  1  0  0  0
146258  1  0  0  0
146259  1  0  0  0
147148  1  0  0  0
147149  1  0  0  0
147260  1  0  0  0
148261  1  0  0  0
148262  1  0  0  0
148263  1  0  0  0
149264  1  0  0  0
149265  1  0  0  0
149266  1  0  0  0
150267  1  0  0  0
150268  1  0  0  0
M  END
> <s_m_source_file>
../4nb3_ligand.sdf

> <i_m_source_file_index>
1

> <s_epik_input>
W2NIXTFbY0hdYyhbT0hdKVtjSF1jKGMxMilvYzNjKFtjSF1bY0hdYyg9TylbY0hdMyljMi1jNFtjSF1bY0hdYyhbY0hdYzRDKD1PKVtPSF0pW05IXUMoPVMpW05IXVtDSDJdW0NIMl1bQ0gyXVtDSDJdW0NIMl1DKD1PKVtOSF1bQ0BASF0oW0NIMl1DKD1PKVtPSF0pQyg9TylbTkhdW0NAQEhdKFtDSDJdYzVbY0hdW2NIXVtjSF1bY0hdW2NIXTUpQyg9TylbTkhdW0NAQEhdKFtDQEhdKFtPSF0pW0NIM10pQyg9TylbTkhdW0NAQEhdKFtDSDNdKUMoPU8pW05IXVtDQEBIXShbQ0gyXUMoPU8pW09IXSlDKD1PKVtOSF1bQ0BASF0oW0NIMl1DKD1PKVtPSF0pQyg9TylbTkhdW0NAQEhdKFtDSDJdW0NIXShbQ0gzXSlbQ0gzXSlDKD1PKVtOSF1bQ0BASF0oW0NIMl1bQ0gyXUMoPU8pW09IXSlDKD1PKVtOSF1bQ0BASF0oW0NIMl1bQ0gyXUMoPU8pW09IXSlDKD1PKVtOSF1bQ0BASF0oW0NIMl1jNltjSF1bbkhdYyhjNjcpW2NIXVtjSF1bY0hdW2NIXTcpQyg9TylbTkhdW0NAQEhdKFtDSDJdYyhbY0hdYzhDbClbY0hdW2NIXWM4Q2wpQyg9TylbTkhdW0NAQEhdKFtDSDNdKUMoPU8pW05IXVtDQEhdKEMoPU8pW05IMl0pW0NIMl1bQ0hdKFtDSDNdKVtDSDNd

> <s_epik_cmdline>
J2VwaWtfYXBwJywgJy1pbWFlJywgJ2xpZ2FuZF9wcm8ubWFlJywgJy1vbWFlJywgJ2xpZ2FuZF9wcmVwLm1hZScsICctbXMnLCAnMScsICctcGgnLCAnNycsICctcGh0JywgJzAuNScsICctbnQn

> <s_epik_pKa_notes>
Molecule size exceeds maximum supported for generating protonation states

$$$$
