4ncg_ligand
                    3D
 Schrodinger Suite 2020-3.
 40 42  0  0  1  0            999 V2000
   10.9060   12.1810   15.2640 C   0  0  0  0  0  0
   10.2180   11.7640   16.3350 C   0  0  0  0  0  0
   10.2410   12.5560   14.0550 C   0  0  0  0  0  0
    8.9110   12.4570   13.9840 C   0  0  0  0  0  0
    9.7250   10.9220   22.0720 C   0  0  0  0  0  0
   10.1050   13.1030   21.1230 C   0  0  0  0  0  0
   10.0430   11.7350   20.9620 C   0  0  0  0  0  0
   10.2970   11.1600   19.7380 C   0  0  0  0  0  0
   10.6170   11.9720   18.6700 C   0  0  0  0  0  0
   10.7010   13.3400   18.8050 C   0  0  0  0  0  0
   12.4010   12.2540   15.3260 C   0  0  0  0  0  0
    8.7140   11.6690   16.2650 C   0  0  0  0  0  0
    5.9390    9.3180   16.4390 C   0  0  0  0  0  0
    6.5170   10.5630   14.2750 C   0  0  0  0  0  0
    6.7150   11.9450   14.8630 C   0  0  0  0  0  0
    6.1430    8.3980   14.1450 C   0  0  0  0  0  0
   10.4220   13.8890   20.0330 C   0  0  0  0  0  0
   12.9040   11.0340   15.5480 F   0  0  0  0  0  0
    9.5070   10.2550   22.9940 N   0  0  0  0  0  0
   10.9230   11.3880   17.4630 O   0  0  0  0  0  0
   10.5010   15.5860   20.1730 Cl  0  0  0  0  0  0
    8.1570   12.0180   15.0420 N   0  0  0  0  0  0
   12.8190   12.9880   16.3920 F   0  0  0  0  0  0
   13.0820   12.6300   14.2090 F   0  0  0  0  0  0
    8.0450   11.3140   17.2350 O   0  0  0  0  0  0
    6.6510   10.2920   13.0150 N   0  0  0  0  0  0
    6.4100    8.9580   12.9200 N   0  0  0  0  0  0
    6.2000    9.4470   15.0150 N   0  0  0  0  0  0
    5.9100    7.2200   14.3870 O   0  0  0  0  0  0
   10.8131   12.9186   13.2010 H   0  0  0  0  0  0
    8.4094   12.7336   13.0566 H   0  0  0  0  0  0
    9.9071   13.5563   22.0943 H   0  0  0  0  0  0
   10.2460   10.0783   19.6142 H   0  0  0  0  0  0
   10.9812   13.9698   17.9607 H   0  0  0  0  0  0
    6.0474   10.3003   16.9221 H   0  0  0  0  0  0
    6.6566    8.6110   16.8807 H   0  0  0  0  0  0
    4.9155    8.9451   16.5919 H   0  0  0  0  0  0
    6.3367   12.7007   14.1589 H   0  0  0  0  0  0
    6.1657   12.0215   15.8130 H   0  0  0  0  0  0
    6.4092    8.3306   12.0165 H   0  0  0  0  0  0
  1  2  2  0  0  0
  1  3  1  0  0  0
  1 11  1  0  0  0
  2 12  1  0  0  0
  2 20  1  0  0  0
  3  4  2  0  0  0
  3 30  1  0  0  0
  4 22  1  0  0  0
  4 31  1  0  0  0
  5  7  1  0  0  0
  5 19  3  0  0  0
  6  7  2  0  0  0
  6 17  1  0  0  0
  6 32  1  0  0  0
  7  8  1  0  0  0
  8  9  2  0  0  0
  8 33  1  0  0  0
  9 10  1  0  0  0
  9 20  1  0  0  0
 10 17  2  0  0  0
 10 34  1  0  0  0
 11 18  1  0  0  0
 11 23  1  0  0  0
 11 24  1  0  0  0
 12 22  1  0  0  0
 12 25  2  0  0  0
 13 28  1  0  0  0
 13 35  1  0  0  0
 13 36  1  0  0  0
 13 37  1  0  0  0
 14 15  1  0  0  0
 14 26  2  0  0  0
 14 28  1  0  0  0
 15 22  1  0  0  0
 15 38  1  0  0  0
 15 39  1  0  0  0
 16 27  1  0  0  0
 16 28  1  0  0  0
 16 29  2  0  0  0
 17 21  1  0  0  0
 26 27  1  0  0  0
 27 40  1  0  0  0
M  END
> <s_m_source_file>
../4ncg_ligand.sdf

> <i_m_source_file_index>
1

> <s_epik_input>
TiNDYzFbY0hdYyhDbClbY0hdYyhbY0hdMSlPYyhjMkMoRikoRilGKWMoPU8pbihbY0hdW2NIXTIpW0NIMl1jM25bbkhdYyg9TyluM1tDSDNd

> <s_epik_cmdline>
J2VwaWtfYXBwJywgJy1pbWFlJywgJ2xpZ2FuZF9wcm8ubWFlJywgJy1vbWFlJywgJ2xpZ2FuZF9wcmVwLm1hZScsICctbXMnLCAnMScsICctcGgnLCAnNycsICctcGh0JywgJzAuNScsICctbnQn

> <r_lp_tautomer_probability>
1

> <r_epik_Ionization_Penalty>
  0.0000

> <r_epik_Ionization_Penalty_Charging>
  0.0000

> <r_epik_Ionization_Penalty_Neutral>
  0.0000

> <r_epik_State_Penalty>
 -0.0000

> <r_epik_Charging_Adjusted_Penalty>
2.15660320117124e-06

> <i_epik_Tot_Q>
0

> <i_epik_Tot_abs_Q>
0

$$$$
