4ncm_ligand
                    3D
 Schrodinger Suite 2020-3.
 41 43  0  0  1  0            999 V2000
  -45.0600   -5.5460    2.5870 Cl  0  0  0  0  0  0
  -49.4820   -4.4860    7.5170 C   0  0  0  0  0  0
  -49.4520   -4.5950    5.9910 C   0  0  1  0  0  0
  -48.7970   -5.9050    5.6000 C   0  0  0  0  0  0
  -49.5250   -6.8750    5.3920 O   0  0  0  0  0  0
  -47.4350   -6.0180    5.4950 N   0  0  0  0  0  0
  -46.8290   -7.3060    5.1230 C   0  0  0  0  0  0
  -46.5200   -4.8800    5.7260 C   0  0  0  0  0  0
  -50.8410   -4.5850    5.5520 N   0  0  0  0  0  0
  -51.1880   -4.2860    4.2520 C   0  0  0  0  0  0
  -52.5410   -4.0610    3.9850 C   0  0  0  0  0  0
  -52.9250   -3.6920    2.7090 C   0  0  0  0  0  0
  -51.9850   -3.6000    1.7620 N   0  0  0  0  0  0
  -50.7090   -3.8560    2.0330 C   0  0  0  0  0  0
  -50.2960   -4.1770    3.2600 N   0  0  0  0  0  0
  -49.7360   -3.6470    0.9710 C   0  0  0  0  0  0
  -49.9900   -3.0310   -0.2110 C   0  0  0  0  0  0
  -48.8410   -3.0030   -0.9600 N   0  3  0  0  0  0
  -47.8010   -3.5770   -0.2740 C   0  0  0  0  0  0
  -48.3160   -4.0080    0.9710 C   0  0  0  0  0  0
  -47.4790   -4.6580    1.8640 C   0  0  0  0  0  0
  -46.1670   -4.8410    1.4720 C   0  0  0  0  0  0
  -45.7080   -4.3400    0.2610 C   0  0  0  0  0  0
  -46.5310   -3.7660   -0.5940 N   0  0  0  0  0  0
  -53.4260   -4.1830    4.9890 F   0  0  0  0  0  0
  -48.4527   -4.4890    7.9051 H   0  0  0  0  0  0
  -50.0339   -5.3409    7.9349 H   0  0  0  0  0  0
  -49.9809   -3.5498    7.8080 H   0  0  0  0  0  0
  -48.9191   -3.7642    5.5055 H   0  0  0  0  0  0
  -47.6206   -8.0569    4.9832 H   0  0  0  0  0  0
  -46.1482   -7.6352    5.9218 H   0  0  0  0  0  0
  -46.2651   -7.1888    4.1858 H   0  0  0  0  0  0
  -47.1049   -3.9880    5.9948 H   0  0  0  0  0  0
  -45.9456   -4.6795    4.8095 H   0  0  0  0  0  0
  -45.8287   -5.1259    6.5456 H   0  0  0  0  0  0
  -51.6449   -4.8201    6.2651 H   0  0  0  0  0  0
  -53.9696   -3.4810    2.4802 H   0  0  0  0  0  0
  -50.9995   -2.6517   -0.4278 H   0  0  0  0  0  0
  -47.8393   -5.0087    2.8311 H   0  0  0  0  0  0
  -44.6498   -4.4227    0.0133 H   0  0  0  0  0  0
  -48.8510   -2.5583   -1.9661 H   0  0  0  0  0  0
  1 22  1  0  0  0
  2  3  1  0  0  0
  2 26  1  0  0  0
  2 27  1  0  0  0
  2 28  1  0  0  0
  3  4  1  0  0  0
  3  9  1  0  0  0
  3 29  1  0  0  0
  4  5  2  0  0  0
  4  6  1  0  0  0
  6  7  1  0  0  0
  6  8  1  0  0  0
  7 30  1  0  0  0
  7 31  1  0  0  0
  7 32  1  0  0  0
  8 33  1  0  0  0
  8 34  1  0  0  0
  8 35  1  0  0  0
  9 10  1  0  0  0
  9 36  1  0  0  0
 10 11  2  0  0  0
 10 15  1  0  0  0
 11 12  1  0  0  0
 11 25  1  0  0  0
 12 13  2  0  0  0
 12 37  1  0  0  0
 13 14  1  0  0  0
 14 15  2  0  0  0
 14 16  1  0  0  0
 16 17  2  0  0  0
 16 20  1  0  0  0
 17 18  1  0  0  0
 17 38  1  0  0  0
 18 19  1  0  0  0
 18 41  1  0  0  0
 19 20  2  0  0  0
 19 24  1  0  0  0
 20 21  1  0  0  0
 21 22  2  0  0  0
 21 39  1  0  0  0
 22 23  1  0  0  0
 23 24  2  0  0  0
 23 40  1  0  0  0
M  CHG  1  18   1
M  END
> <s_m_source_file>
../4ncm_ligand.sdf

> <i_m_source_file_index>
1

> <s_epik_input>
bjFbY0hdYyhDbClbY0hdYyhjMTIpYyhbY0hdW25IXTIpLWMobjMpbltjSF1jKEYpYzNbTkhdW0NAQEhdKFtDSDNdKUMoPU8pTihbQ0gzXSlbQ0gzXQ==

> <s_epik_cmdline>
J2VwaWtfYXBwJywgJy1pbWFlJywgJ2xpZ2FuZF9wcm8ubWFlJywgJy1vbWFlJywgJ2xpZ2FuZF9wcmVwLm1hZScsICctbXMnLCAnMScsICctcGgnLCAnNycsICctcGh0JywgJzAuNScsICctbnQn

> <r_epik_Ionization_Penalty>
  0.0634

> <r_epik_Ionization_Penalty_Charging>
  0.0000

> <r_epik_Ionization_Penalty_Neutral>
  0.0634

> <r_epik_State_Penalty>
  0.0549

> <r_epik_Charging_Adjusted_Penalty>
0.0548502010963651

> <i_epik_Tot_Q>
1

> <i_epik_Tot_abs_Q>
1

$$$$
