4ncn_ligand
                    3D
 Schrodinger Suite 2020-3.
 45 47  0  0  1  0            999 V2000
  -11.2370   12.5140   12.7100 P   0  0  0  0  0  0
   -9.7950   12.1610   12.5480 O   0  0  0  0  0  0
  -11.7100   12.2350   14.1170 O   0  5  0  0  0  0
  -12.0620   11.9650   11.5750 O   0  0  0  0  0  0
  -11.4070   14.1120   12.3560 O   0  0  0  0  0  0
  -10.4160   15.3100   12.8060 P   0  0  1  0  0  0
  -10.5870   15.7180   14.2490 O   0  0  0  0  0  0
   -8.9610   15.0340   12.4430 O   0  5  0  0  0  0
  -10.9370   16.5680   11.9870 O   0  0  0  0  0  0
  -10.6210   16.8840   10.4190 P   0  0  1  0  0  0
   -9.2570   17.4580   10.2530 O   0  0  0  0  0  0
  -10.9010   15.6350    9.5870 O   0  5  0  0  0  0
  -11.6560   18.0640   10.1200 O   0  0  0  0  0  0
  -13.0700   17.7930   10.0150 C   0  0  0  0  0  0
  -13.7150   18.9060    9.1790 C   0  0  1  0  0  0
  -13.6160   20.0750   10.0040 O   0  0  0  0  0  0
  -12.9830   19.2370    7.8820 C   0  0  1  0  0  0
  -13.9480   19.5770    6.9260 O   0  0  0  0  0  0
  -12.2410   20.4920    8.2240 C   0  0  1  0  0  0
  -11.8790   21.2910    7.1010 O   0  0  0  0  0  0
  -13.1550   21.1640    9.2550 C   0  0  2  0  0  0
  -12.3010   21.9610   10.1760 N   0  0  0  0  0  0
  -11.2230   21.5220   10.9470 C   0  0  0  0  0  0
  -10.7370   22.6290   11.6120 N   0  0  0  0  0  0
  -11.5150   23.6910   11.2990 C   0  0  0  0  0  0
  -11.5160   25.0300   11.6790 C   0  0  0  0  0  0
  -10.6460   25.4600   12.4430 O   0  0  0  0  0  0
  -12.4280   25.9030   11.1250 N   0  3  0  0  0  0
  -13.4080   25.4540   10.2530 C   0  0  0  0  0  0
  -14.3630   26.2610    9.7190 N   0  0  0  0  0  0
  -13.4290   24.1460    9.9290 N   0  0  0  0  0  0
  -12.4900   23.2850   10.4160 C   0  0  0  0  0  0
  -12.1926   10.8783   11.4655 H   0  0  0  0  0  0
  -13.2214   16.8192    9.5263 H   0  0  0  0  0  0
  -13.5149   17.7716   11.0208 H   0  0  0  0  0  0
  -14.7500   18.6346    8.9238 H   0  0  0  0  0  0
  -12.3741   18.4310    7.4465 H   0  0  0  0  0  0
  -14.6190   18.8042    6.5229 H   0  0  0  0  0  0
  -11.2109   20.3201    8.5695 H   0  0  0  0  0  0
  -11.2254   20.8769    6.3191 H   0  0  0  0  0  0
  -13.9788   21.7716    8.8522 H   0  0  0  0  0  0
  -10.8400   20.5035   11.0111 H   0  0  0  0  0  0
  -14.3755   27.3337    9.9622 H   0  0  0  0  0  0
  -15.1232   25.8412    9.0438 H   0  0  0  0  0  0
  -12.3850   26.9738   11.3729 H   0  0  0  0  0  0
  1  2  2  0  0  0
  1  3  1  0  0  0
  1  4  1  0  0  0
  1  5  1  0  0  0
  4 33  1  0  0  0
  5  6  1  0  0  0
  6  7  2  0  0  0
  6  8  1  0  0  0
  6  9  1  0  0  0
  9 10  1  0  0  0
 10 11  2  0  0  0
 10 12  1  0  0  0
 10 13  1  0  0  0
 13 14  1  0  0  0
 14 15  1  0  0  0
 14 34  1  0  0  0
 14 35  1  0  0  0
 15 16  1  0  0  0
 15 17  1  0  0  0
 15 36  1  0  0  0
 16 21  1  0  0  0
 17 18  1  0  0  0
 17 19  1  0  0  0
 17 37  1  0  0  0
 18 38  1  0  0  0
 19 20  1  0  0  0
 19 21  1  0  0  0
 19 39  1  0  0  0
 20 40  1  0  0  0
 21 22  1  0  0  0
 21 41  1  0  0  0
 22 23  1  0  0  0
 22 32  1  0  0  0
 23 24  2  0  0  0
 23 42  1  0  0  0
 24 25  1  0  0  0
 25 26  1  0  0  0
 25 32  2  0  0  0
 26 27  2  0  0  0
 26 28  1  0  0  0
 28 29  1  0  0  0
 28 45  1  0  0  0
 29 30  1  0  0  0
 29 31  2  0  0  0
 30 43  1  0  0  0
 30 44  1  0  0  0
 31 32  1  0  0  0
M  CHG  4   3  -1   8  -1  12  -1  28   1
M  END
> <s_m_source_file>
../4ncn_ligand.sdf

> <i_m_source_file_index>
1

> <s_epik_input>
Tz1QKFtPSF0pKFtPSF0pT1tQQEBdKD1PKShbT0hdKU9bUEBAXSg9TykoW09IXSlPW0NIMl1bQ0BIXTFPW0NASF0oW0NASF0oW09IXSlbQ0BASF0xW09IXSluKFtjSF1uMiljKGMyMylbbkhdYyg9TlxbSF0pXFtuSF1jMz1P

> <s_epik_cmdline>
J2VwaWtfYXBwJywgJy1pbWFlJywgJ2xpZ2FuZF9wcm8ubWFlJywgJy1vbWFlJywgJ2xpZ2FuZF9wcmVwLm1hZScsICctbXMnLCAnMScsICctcGgnLCAnNycsICctcGh0JywgJzAuNScsICctbnQn

> <r_lp_tautomer_probability>
4.999975000125e-06

> <r_epik_Ionization_Penalty>
  3.6149

> <r_epik_Ionization_Penalty_Charging>
  2.3889

> <r_epik_Ionization_Penalty_Neutral>
  1.2259

> <r_epik_State_Penalty>
  0.0136

> <r_epik_Charging_Adjusted_Penalty>
2.40246252490279

> <i_epik_Tot_Q>
-2

> <i_epik_Tot_abs_Q>
4

> <s_epik_Chemistry_Notes>
This compound has an imine and may undergo hydrolysis. This compound contains an acetal/aminal-like group ( X-CH(R)-Y where X, Y are N, S, or O) that may be acid/base labile, releasing an aldehyde.

$$$$
