4nct_ligand
                    3D
 Schrodinger Suite 2020-3.
 73 81  0  0  1  0            999 V2000
   36.4290   30.2370   -9.2630 O   0  0  0  0  0  0
   36.6920   29.3740  -10.1030 C   0  0  0  0  0  0
   35.7610   28.5260  -10.4940 N   0  0  0  0  0  0
   36.4000   27.6760  -11.4900 C   0  0  0  0  0  0
   37.7070   28.1560  -11.6210 C   0  0  0  0  0  0
   37.8740   29.1950  -10.7630 C   0  0  0  0  0  0
   39.0910   29.8120  -10.7310 C   0  0  0  0  0  0
   39.6120   30.8430  -10.0320 C   0  0  0  0  0  0
   39.1070   31.6560   -9.0950 C   0  0  0  0  0  0
   39.8740   32.6760   -8.5150 C   0  0  0  0  0  0
   41.1840   32.8500   -8.9170 C   0  0  0  0  0  0
   41.6750   31.9950   -9.8930 C   0  0  0  0  0  0
   40.8930   31.0270  -10.4210 C   0  0  0  0  0  0
   45.3480   27.6830  -11.5600 N   0  0  0  0  0  0
   40.0780   29.3710  -11.5490 C   0  0  0  0  0  0
   39.8890   28.3320  -12.3910 C   0  0  0  0  0  0
   38.7020   27.7290  -12.4300 C   0  0  0  0  0  0
   38.7890   26.7350  -13.3350 C   0  0  0  0  0  0
   37.8880   25.8320  -13.7430 C   0  0  0  0  0  0
   38.1980   24.8650  -14.6910 C   0  0  0  0  0  0
   39.4730   24.8670  -15.2240 C   0  0  0  0  0  0
   40.3690   25.8350  -14.7940 C   0  0  0  0  0  0
   40.0230   26.7350  -13.8610 C   0  0  0  0  0  0
   41.1720   30.1060  -11.3370 N   0  0  0  0  0  0
   42.1350   28.1180  -13.5270 C   0  0  2  0  0  0
   43.0610   27.3600  -12.5440 C   0  0  2  0  0  0
   42.3400   27.0370  -11.3230 O   0  0  0  0  0  0
   41.7970   25.7220  -11.2440 C   0  0  0  0  0  0
   42.6460   27.8870  -14.9510 C   0  0  0  0  0  0
   42.2200   29.5330  -13.3420 O   0  0  0  0  0  0
   42.4840   30.0590  -12.0320 C   0  0  2  0  0  0
   43.6500   29.3910  -11.3320 C   0  0  0  0  0  0
   45.1340   26.7880  -10.4000 C   0  0  0  0  0  0
   46.6020   28.0160  -11.9770 C   0  0  0  0  0  0
   46.8050   28.7900  -12.9190 O   0  0  0  0  0  0
   47.7050   27.5630  -11.2600 C   0  0  0  0  0  0
   48.5940   26.6440  -11.8050 C   0  0  0  0  0  0
   49.7080   26.2510  -11.0640 C   0  0  0  0  0  0
   49.9380   26.7790   -9.7910 C   0  0  0  0  0  0
   49.0560   27.7130   -9.2490 C   0  0  0  0  0  0
   47.9490   28.1140   -9.9930 C   0  0  0  0  0  0
   40.7020   27.7330  -13.2850 N   0  0  0  0  0  0
   44.1950   28.2950  -12.2370 C   0  0  1  0  0  0
   34.7053   28.3657  -10.2299 H   0  0  0  0  0  0
   36.3918   26.6328  -11.1413 H   0  0  0  0  0  0
   35.8515   27.7491  -12.4407 H   0  0  0  0  0  0
   38.0737   31.5211   -8.7754 H   0  0  0  0  0  0
   39.4409   33.3254   -7.7542 H   0  0  0  0  0  0
   41.8091   33.6305   -8.4833 H   0  0  0  0  0  0
   42.7031   32.1050  -10.2380 H   0  0  0  0  0  0
   36.8839   25.8565  -13.3196 H   0  0  0  0  0  0
   37.4588   24.1279  -15.0046 H   0  0  0  0  0  0
   39.7681   24.1247  -15.9656 H   0  0  0  0  0  0
   41.3712   25.8649  -15.2215 H   0  0  0  0  0  0
   43.4225   26.3947  -12.9280 H   0  0  0  0  0  0
   41.2785   25.5966  -10.2820 H   0  0  0  0  0  0
   42.6095   24.9846  -11.3214 H   0  0  0  0  0  0
   41.0839   25.5697  -12.0676 H   0  0  0  0  0  0
   43.6983   28.2002  -15.0182 H   0  0  0  0  0  0
   42.0423   28.4759  -15.6572 H   0  0  0  0  0  0
   42.5646   26.8189  -15.2010 H   0  0  0  0  0  0
   42.8534   31.0923  -12.1086 H   0  0  0  0  0  0
   44.4337   30.1366  -11.1324 H   0  0  0  0  0  0
   43.3069   28.9563  -10.3816 H   0  0  0  0  0  0
   46.1056   26.4292  -10.0296 H   0  0  0  0  0  0
   44.5192   25.9294  -10.7079 H   0  0  0  0  0  0
   44.6182   27.3405   -9.6008 H   0  0  0  0  0  0
   48.4223   26.2350  -12.8007 H   0  0  0  0  0  0
   50.4058   25.5252  -11.4817 H   0  0  0  0  0  0
   50.8097   26.4597   -9.2198 H   0  0  0  0  0  0
   49.2308   28.1244   -8.2549 H   0  0  0  0  0  0
   47.2670   28.8616   -9.5879 H   0  0  0  0  0  0
   44.5937   28.6369  -13.2035 H   0  0  0  0  0  0
  1  2  2  0  0  0
  2  3  1  0  0  0
  2  6  1  0  0  0
  3  4  1  0  0  0
  3 44  1  0  0  0
  4  5  1  0  0  0
  4 45  1  0  0  0
  4 46  1  0  0  0
  5  6  2  0  0  0
  5 17  1  0  0  0
  6  7  1  0  0  0
  7  8  1  0  0  0
  7 15  2  0  0  0
  8  9  2  0  0  0
  8 13  1  0  0  0
  9 10  1  0  0  0
  9 47  1  0  0  0
 10 11  2  0  0  0
 10 48  1  0  0  0
 11 12  1  0  0  0
 11 49  1  0  0  0
 12 13  2  0  0  0
 12 50  1  0  0  0
 13 24  1  0  0  0
 14 33  1  0  0  0
 14 34  1  0  0  0
 14 43  1  0  0  0
 15 16  1  0  0  0
 15 24  1  0  0  0
 16 17  2  0  0  0
 16 42  1  0  0  0
 17 18  1  0  0  0
 18 19  2  0  0  0
 18 23  1  0  0  0
 19 20  1  0  0  0
 19 51  1  0  0  0
 20 21  2  0  0  0
 20 52  1  0  0  0
 21 22  1  0  0  0
 21 53  1  0  0  0
 22 23  2  0  0  0
 22 54  1  0  0  0
 23 42  1  0  0  0
 24 31  1  0  0  0
 25 26  1  0  0  0
 25 29  1  0  0  0
 25 30  1  0  0  0
 25 42  1  0  0  0
 26 27  1  0  0  0
 26 43  1  0  0  0
 26 55  1  0  0  0
 27 28  1  0  0  0
 28 56  1  0  0  0
 28 57  1  0  0  0
 28 58  1  0  0  0
 29 59  1  0  0  0
 29 60  1  0  0  0
 29 61  1  0  0  0
 30 31  1  0  0  0
 31 32  1  0  0  0
 31 62  1  0  0  0
 32 43  1  0  0  0
 32 63  1  0  0  0
 32 64  1  0  0  0
 33 65  1  0  0  0
 33 66  1  0  0  0
 33 67  1  0  0  0
 34 35  2  0  0  0
 34 36  1  0  0  0
 36 37  2  0  0  0
 36 41  1  0  0  0
 37 38  1  0  0  0
 37 68  1  0  0  0
 38 39  2  0  0  0
 38 69  1  0  0  0
 39 40  1  0  0  0
 39 70  1  0  0  0
 40 41  2  0  0  0
 40 71  1  0  0  0
 41 72  1  0  0  0
 43 73  1  0  0  0
M  END
> <s_m_source_file>
../4nct_ligand.sdf

> <i_m_source_file_index>
1

> <s_epik_input>
W2NIXTFbY0hdW2NIXVtjSF1jMmMxYzNjKFtDSDJdW05IXUM0PU8pYzRjKGM1YzNuMltDQF02N1tDSDNdKWM4YyhbY0hdW2NIXVtjSF1bY0hdOCluNVtDQEhdKE83KVtDSDJdW0NASF0oW0NASF02T1tDSDNdKU4oW0NIM10pQyg9TyljOVtjSF1bY0hdW2NIXVtjSF1bY0hdOQ==

> <s_epik_cmdline>
J2VwaWtfYXBwJywgJy1pbWFlJywgJ2xpZ2FuZF9wcm8ubWFlJywgJy1vbWFlJywgJ2xpZ2FuZF9wcmVwLm1hZScsICctbXMnLCAnMScsICctcGgnLCAnNycsICctcGh0JywgJzAuNScsICctbnQn

> <r_lp_tautomer_probability>
1

> <r_epik_Ionization_Penalty>
  0.0000

> <r_epik_Ionization_Penalty_Charging>
  0.0000

> <r_epik_Ionization_Penalty_Neutral>
  0.0000

> <r_epik_State_Penalty>
 -0.0000

> <r_epik_Charging_Adjusted_Penalty>
0

> <i_epik_Tot_Q>
0

> <i_epik_Tot_abs_Q>
0

> <s_epik_Chemistry_Notes>
This compound contains an acetal/aminal-like group ( X-CH(R)-Y where X, Y are N, S, or O) that may be acid/base labile, releasing an aldehyde.

$$$$
