4ng9_ligand
                    3D
 Schrodinger Suite 2020-3.
 74 77  0  0  1  0            999 V2000
    5.1270   36.2720   24.8080 C   0  0  0  0  0  0
    5.7750   37.1000   25.7570 C   0  0  0  0  0  0
    7.1530   38.2490   24.1430 C   0  0  0  0  0  0
    3.7870   35.9300   25.0210 C   0  0  0  0  0  0
    3.0630   36.4330   26.1760 C   0  0  0  0  0  0
    3.7490   37.2520   27.1230 C   0  0  0  0  0  0
    5.1000   37.5730   26.9150 C   0  0  0  0  0  0
    9.6220   33.6090   27.2470 C   0  0  0  0  0  0
    2.8490   38.6080   21.0260 C   0  0  0  0  0  0
    0.7740   36.5460   27.2120 C   0  0  0  0  0  0
    2.7950   38.8070   22.4270 C   0  0  0  0  0  0
    6.5840   39.5000   24.1610 N   0  0  0  0  0  0
    9.6950   33.5190   31.0160 N   0  3  0  0  0  0
    9.0770   34.7000   31.2740 C   0  0  0  0  0  0
    8.5530   35.5480   30.3010 C   0  0  0  0  0  0
    8.7080   35.1790   28.9300 C   0  0  0  0  0  0
    9.3890   33.9460   28.6050 C   0  0  0  0  0  0
    9.8290   33.1210   29.7130 C   0  0  0  0  0  0
    8.2210   36.0290   27.8800 C   0  0  0  0  0  0
    8.4460   35.6370   26.5430 C   0  0  0  0  0  0
    9.1770   34.4130   26.2510 C   0  0  0  0  0  0
   10.3420   31.8370   29.5270 N   0  0  0  0  0  0
    8.0320   36.3440   25.4060 N   0  0  0  0  0  0
    7.1950   37.5330   25.4940 C   0  0  2  0  0  0
    7.6240   37.7380   23.1190 O   0  0  0  0  0  0
    1.7090   36.0400   26.2310 O   0  0  0  0  0  0
    3.1100   35.0230   24.2330 O   0  0  0  0  0  0
    3.5860   34.7810   22.9200 C   0  0  0  0  0  0
    2.8830   33.6710   22.4360 C   0  0  0  0  0  0
   -0.5940   36.4200   26.6050 C   0  0  0  0  0  0
    0.9200   35.7800   28.5000 C   0  0  0  0  0  0
    6.3650   40.2760   22.9610 C   0  0  0  0  0  0
    5.1470   39.6200   22.2970 C   0  0  0  0  0  0
    3.9790   39.3070   23.0470 C   0  0  0  0  0  0
    4.0020   38.8870   20.2820 C   0  0  0  0  0  0
    5.1510   39.3900   20.9180 C   0  0  0  0  0  0
    1.3440   38.5330   23.2980 S   0  0  0  0  0  0
    1.5810   38.7720   24.6900 O   0  0  0  0  0  0
    0.3170   39.2620   22.6290 O   0  0  0  0  0  0
    0.9500   36.9650   23.0940 N   0  0  0  0  0  0
    5.6611   35.9087   23.9300 H   0  0  0  0  0  0
    3.2265   37.6263   28.0033 H   0  0  0  0  0  0
    5.6320   38.1859   27.6427 H   0  0  0  0  0  0
   10.1637   32.6953   27.0024 H   0  0  0  0  0  0
    1.9670   38.2264   20.5116 H   0  0  0  0  0  0
    0.9905   37.6005   27.4383 H   0  0  0  0  0  0
    6.2913   39.9069   25.1402 H   0  0  0  0  0  0
    8.9843   35.0062   32.3160 H   0  0  0  0  0  0
    8.0387   36.4681   30.5784 H   0  0  0  0  0  0
    7.6911   36.9534   28.1097 H   0  0  0  0  0  0
    9.3698   34.1383   25.2139 H   0  0  0  0  0  0
   10.6651   31.2428   30.3945 H   0  0  0  0  0  0
   10.4233   31.4188   28.5129 H   0  0  0  0  0  0
    8.3599   35.9737   24.4235 H   0  0  0  0  0  0
    7.6218   38.1517   26.2971 H   0  0  0  0  0  0
    3.3999   35.6659   22.2936 H   0  0  0  0  0  0
    4.6662   34.5761   22.9535 H   0  0  0  0  0  0
    3.2184   33.4418   21.4138 H   0  0  0  0  0  0
    1.8060   33.8945   22.4270 H   0  0  0  0  0  0
    3.0723   32.8047   23.0870 H   0  0  0  0  0  0
   -0.6355   36.9996   25.6710 H   0  0  0  0  0  0
   -1.3449   36.8063   27.3099 H   0  0  0  0  0  0
   -0.8035   35.3618   26.3895 H   0  0  0  0  0  0
    1.9393   35.9124   28.8918 H   0  0  0  0  0  0
    0.7344   34.7118   28.3144 H   0  0  0  0  0  0
    0.1930   36.1562   29.2348 H   0  0  0  0  0  0
    6.1697   41.3239   23.2326 H   0  0  0  0  0  0
    7.2588   40.2233   22.3220 H   0  0  0  0  0  0
    3.9890   39.4535   24.1271 H   0  0  0  0  0  0
    4.0090   38.7137   19.2059 H   0  0  0  0  0  0
    6.0470   39.6011   20.3343 H   0  0  0  0  0  0
    0.0201   36.7466   23.6396 H   0  0  0  0  0  0
    1.7603   36.3299   23.4815 H   0  0  0  0  0  0
   10.0754   32.9046   31.8453 H   0  0  0  0  0  0
  1  2  2  0  0  0
  1  4  1  0  0  0
  1 41  1  0  0  0
  2  7  1  0  0  0
  2 24  1  0  0  0
  3 12  1  0  0  0
  3 24  1  0  0  0
  3 25  2  0  0  0
  4  5  2  0  0  0
  4 27  1  0  0  0
  5  6  1  0  0  0
  5 26  1  0  0  0
  6  7  2  0  0  0
  6 42  1  0  0  0
  7 43  1  0  0  0
  8 17  2  0  0  0
  8 21  1  0  0  0
  8 44  1  0  0  0
  9 11  2  0  0  0
  9 35  1  0  0  0
  9 45  1  0  0  0
 10 26  1  0  0  0
 10 30  1  0  0  0
 10 31  1  0  0  0
 10 46  1  0  0  0
 11 34  1  0  0  0
 11 37  1  0  0  0
 12 32  1  0  0  0
 12 47  1  0  0  0
 13 14  1  0  0  0
 13 18  2  0  0  0
 13 74  1  0  0  0
 14 15  2  0  0  0
 14 48  1  0  0  0
 15 16  1  0  0  0
 15 49  1  0  0  0
 16 17  1  0  0  0
 16 19  2  0  0  0
 17 18  1  0  0  0
 18 22  1  0  0  0
 19 20  1  0  0  0
 19 50  1  0  0  0
 20 21  2  0  0  0
 20 23  1  0  0  0
 21 51  1  0  0  0
 22 52  1  0  0  0
 22 53  1  0  0  0
 23 24  1  0  0  0
 23 54  1  0  0  0
 24 55  1  0  0  0
 27 28  1  0  0  0
 28 29  1  0  0  0
 28 56  1  0  0  0
 28 57  1  0  0  0
 29 58  1  0  0  0
 29 59  1  0  0  0
 29 60  1  0  0  0
 30 61  1  0  0  0
 30 62  1  0  0  0
 30 63  1  0  0  0
 31 64  1  0  0  0
 31 65  1  0  0  0
 31 66  1  0  0  0
 32 33  1  0  0  0
 32 67  1  0  0  0
 32 68  1  0  0  0
 33 34  2  0  0  0
 33 36  1  0  0  0
 34 69  1  0  0  0
 35 36  2  0  0  0
 35 70  1  0  0  0
 36 71  1  0  0  0
 37 38  2  0  0  0
 37 39  2  0  0  0
 37 40  1  0  0  0
 40 72  1  0  0  0
 40 73  1  0  0  0
M  CHG  1  13   1
M  END
> <s_m_source_file>
../4ng9_ligand.sdf

> <i_m_source_file_index>
1

> <s_epik_input>
W2NIXTFbY0hdbmMoW05IMl0pYyhjMTIpW2NIXVtjSF1jKFtjSF0yKVtOSF1bQ0BIXShjM1tjSF1jKE9bQ0gyXVtDSDNdKWMoW2NIXVtjSF0zKU9bQ0hdKFtDSDNdKVtDSDNdKUMoPU8pW05IXVtDSDJdYyhbY0hdNClbY0hdW2NIXVtjSF1jNFMoPU8pKD1PKVtOSDJd

> <s_epik_cmdline>
J2VwaWtfYXBwJywgJy1pbWFlJywgJ2xpZ2FuZF9wcm8ubWFlJywgJy1vbWFlJywgJ2xpZ2FuZF9wcmVwLm1hZScsICctbXMnLCAnMScsICctcGgnLCAnNycsICctcGh0JywgJzAuNScsICctbnQn

> <r_lp_tautomer_probability>
1

> <r_epik_Ionization_Penalty>
  0.0050

> <r_epik_Ionization_Penalty_Charging>
  0.0045

> <r_epik_Ionization_Penalty_Neutral>
  0.0005

> <r_epik_State_Penalty>
 -0.0000

> <r_epik_Charging_Adjusted_Penalty>
0.0044967104769149

> <i_epik_Tot_Q>
1

> <i_epik_Tot_abs_Q>
1

$$$$
