4nga_ligand
                    3D
 Schrodinger Suite 2020-3.
 81 84  0  0  1  0            999 V2000
    5.8160   36.8360   25.9100 C   0  0  0  0  0  0
    3.7450   35.8240   25.2270 C   0  0  0  0  0  0
    5.1090   36.0750   25.0040 C   0  0  0  0  0  0
    3.0910   36.3570   26.3990 C   0  0  0  0  0  0
    3.8520   37.1380   27.3300 C   0  0  0  0  0  0
    5.1990   37.3620   27.0800 C   0  0  0  0  0  0
    0.9680   36.3570   27.7110 C   0  0  0  0  0  0
    7.2710   37.1470   25.6230 C   0  0  1  0  0  0
    4.8910   39.4530   20.0730 C   0  0  0  0  0  0
    3.7290   34.3110   23.3400 C   0  0  0  0  0  0
    3.7840   38.7770   20.6020 C   0  0  0  0  0  0
    9.0050   34.6030   31.4180 C   0  0  0  0  0  0
    9.6060   33.3790   31.2530 N   0  3  0  0  0  0
    9.7730   32.8930   29.9560 C   0  0  0  0  0  0
    9.3400   33.6240   28.7910 C   0  0  0  0  0  0
    8.7080   34.9020   29.0340 C   0  0  0  0  0  0
    8.5470   35.3820   30.3670 C   0  0  0  0  0  0
    9.5580   33.1740   27.4440 C   0  0  0  0  0  0
    9.1750   33.9680   26.3940 C   0  0  0  0  0  0
    8.5050   35.2450   26.6440 C   0  0  0  0  0  0
    8.2790   35.6910   27.9500 C   0  0  0  0  0  0
    8.1060   35.9540   25.5190 N   0  0  0  0  0  0
    7.4110   37.9610   24.3600 C   0  0  0  0  0  0
    7.8460   37.4940   23.2880 O   0  0  0  0  0  0
    6.9850   39.2880   24.5120 N   0  0  0  0  0  0
    3.0000   35.0520   24.3320 O   0  0  0  0  0  0
    1.7370   36.0310   26.5250 O   0  0  0  0  0  0
   -0.4540   36.3050   27.2790 C   0  0  0  0  0  0
    1.2540   35.4160   28.8580 C   0  0  0  0  0  0
    2.7880   33.4230   22.6840 C   0  0  0  0  0  0
    6.8980   40.1700   23.3470 C   0  0  0  0  0  0
    5.8400   39.7060   22.3180 C   0  0  0  0  0  0
    4.7130   39.0290   22.8380 C   0  0  0  0  0  0
    3.6950   38.5670   22.0040 C   0  0  0  0  0  0
    5.9580   39.9450   20.8850 C   0  0  0  0  0  0
    7.1950   40.7830   20.0890 S   0  0  0  0  0  0
    6.6440   41.3900   18.9310 O   0  0  0  0  0  0
    7.8910   41.6500   20.9650 O   0  0  0  0  0  0
    8.3260   39.5390   19.4700 C   0  0  0  0  0  0
    8.7250   38.4200   20.4080 C   0  0  0  0  0  0
    9.6150   40.1860   19.0320 C   0  0  0  0  0  0
   10.4060   31.6660   29.8300 N   0  0  0  0  0  0
    5.6045   35.6710   24.1212 H   0  0  0  0  0  0
    3.3795   37.5501   28.2216 H   0  0  0  0  0  0
    5.7895   37.9459   27.7860 H   0  0  0  0  0  0
    1.2468   37.3591   28.0688 H   0  0  0  0  0  0
    7.6568   37.7016   26.4911 H   0  0  0  0  0  0
    4.9402   39.6103   18.9955 H   0  0  0  0  0  0
    4.1716   35.0082   22.6134 H   0  0  0  0  0  0
    4.5281   33.7334   23.8276 H   0  0  0  0  0  0
    2.9959   38.4145   19.9420 H   0  0  0  0  0  0
    8.8813   34.9830   32.4321 H   0  0  0  0  0  0
    8.0721   36.3447   30.5562 H   0  0  0  0  0  0
   10.0252   32.2069   27.2580 H   0  0  0  0  0  0
    9.3699   33.6475   25.3706 H   0  0  0  0  0  0
    7.7751   36.6412   28.1270 H   0  0  0  0  0  0
    8.4343   35.5968   24.5318 H   0  0  0  0  0  0
    6.7158   39.6660   25.5093 H   0  0  0  0  0  0
   -0.6097   37.0053   26.4451 H   0  0  0  0  0  0
   -1.1035   36.5870   28.1208 H   0  0  0  0  0  0
   -0.7006   35.2842   26.9515 H   0  0  0  0  0  0
    2.3148   35.4920   29.1388 H   0  0  0  0  0  0
    1.0291   34.3841   28.5505 H   0  0  0  0  0  0
    0.6263   35.6869   29.7197 H   0  0  0  0  0  0
    3.3121   32.8369   21.9148 H   0  0  0  0  0  0
    1.9909   34.0168   22.2128 H   0  0  0  0  0  0
    2.3474   32.7420   23.4271 H   0  0  0  0  0  0
    6.6247   41.1840   23.6744 H   0  0  0  0  0  0
    7.8717   40.1997   22.8360 H   0  0  0  0  0  0
    4.6381   38.8647   23.9129 H   0  0  0  0  0  0
    2.8350   38.0471   22.4262 H   0  0  0  0  0  0
    7.9090   38.9610   18.6322 H   0  0  0  0  0  0
    7.8227   37.9030   20.7667 H   0  0  0  0  0  0
    9.2733   38.8380   21.2651 H   0  0  0  0  0  0
    9.3689   37.7058   19.8738 H   0  0  0  0  0  0
    9.3938   41.0143   18.3428 H   0  0  0  0  0  0
   10.2437   39.4418   18.5211 H   0  0  0  0  0  0
   10.1481   40.5740   19.9124 H   0  0  0  0  0  0
   10.7307   31.1199   30.7279 H   0  0  0  0  0  0
   10.5835   31.2386   28.8321 H   0  0  0  0  0  0
    9.9418   32.8083   32.1314 H   0  0  0  0  0  0
  1  3  2  0  0  0
  1  6  1  0  0  0
  1  8  1  0  0  0
  2  3  1  0  0  0
  2  4  2  0  0  0
  2 26  1  0  0  0
  3 43  1  0  0  0
  4  5  1  0  0  0
  4 27  1  0  0  0
  5  6  2  0  0  0
  5 44  1  0  0  0
  6 45  1  0  0  0
  7 27  1  0  0  0
  7 28  1  0  0  0
  7 29  1  0  0  0
  7 46  1  0  0  0
  8 22  1  0  0  0
  8 23  1  0  0  0
  8 47  1  0  0  0
  9 11  2  0  0  0
  9 35  1  0  0  0
  9 48  1  0  0  0
 10 26  1  0  0  0
 10 30  1  0  0  0
 10 49  1  0  0  0
 10 50  1  0  0  0
 11 34  1  0  0  0
 11 51  1  0  0  0
 12 13  2  0  0  0
 12 17  1  0  0  0
 12 52  1  0  0  0
 13 14  1  0  0  0
 13 81  1  0  0  0
 14 15  2  0  0  0
 14 42  1  0  0  0
 15 16  1  0  0  0
 15 18  1  0  0  0
 16 17  2  0  0  0
 16 21  1  0  0  0
 17 53  1  0  0  0
 18 19  2  0  0  0
 18 54  1  0  0  0
 19 20  1  0  0  0
 19 55  1  0  0  0
 20 21  2  0  0  0
 20 22  1  0  0  0
 21 56  1  0  0  0
 22 57  1  0  0  0
 23 24  2  0  0  0
 23 25  1  0  0  0
 25 31  1  0  0  0
 25 58  1  0  0  0
 28 59  1  0  0  0
 28 60  1  0  0  0
 28 61  1  0  0  0
 29 62  1  0  0  0
 29 63  1  0  0  0
 29 64  1  0  0  0
 30 65  1  0  0  0
 30 66  1  0  0  0
 30 67  1  0  0  0
 31 32  1  0  0  0
 31 68  1  0  0  0
 31 69  1  0  0  0
 32 33  1  0  0  0
 32 35  2  0  0  0
 33 34  2  0  0  0
 33 70  1  0  0  0
 34 71  1  0  0  0
 35 36  1  0  0  0
 36 37  2  0  0  0
 36 38  2  0  0  0
 36 39  1  0  0  0
 39 40  1  0  0  0
 39 41  1  0  0  0
 39 72  1  0  0  0
 40 73  1  0  0  0
 40 74  1  0  0  0
 40 75  1  0  0  0
 41 76  1  0  0  0
 41 77  1  0  0  0
 41 78  1  0  0  0
 42 79  1  0  0  0
 42 80  1  0  0  0
M  CHG  1  13   1
M  END
> <s_m_source_file>
../4nga_ligand.sdf

> <i_m_source_file_index>
1

> <s_epik_input>
W05IMl1jMW5bY0hdW2NIXWMoYzEyKVtjSF1jKFtjSF1bY0hdMilbTkhdW0NASF0oYzNbY0hdYyhPW0NIMl1bQ0gzXSljKFtjSF1bY0hdMylPW0NIXShbQ0gzXSlbQ0gzXSlDKD1PKVtOSF1bQ0gyXWM0W2NIXVtjSF1bY0hdW2NIXWM0Uyg9TykoPU8pW0NIXShbQ0gzXSlbQ0gzXQ==

> <s_epik_cmdline>
J2VwaWtfYXBwJywgJy1pbWFlJywgJ2xpZ2FuZF9wcm8ubWFlJywgJy1vbWFlJywgJ2xpZ2FuZF9wcmVwLm1hZScsICctbXMnLCAnMScsICctcGgnLCAnNycsICctcGh0JywgJzAuNScsICctbnQn

> <r_lp_tautomer_probability>
1

> <r_epik_Ionization_Penalty>
  0.0045

> <r_epik_Ionization_Penalty_Charging>
  0.0045

> <r_epik_Ionization_Penalty_Neutral>
  0.0000

> <r_epik_State_Penalty>
 -0.0000

> <r_epik_Charging_Adjusted_Penalty>
0.0044967104769149

> <i_epik_Tot_Q>
1

> <i_epik_Tot_abs_Q>
1

$$$$
