4ngh_ligand
                    3D
 Schrodinger Suite 2020-3.
328333  0  0  1  0            999 V2000
  -81.2900   77.9960  -20.9850 C   0  0  0  0  0  0
  -80.9770   76.7060  -21.3860 O   0  0  0  0  0  0
  -82.1700   78.7170  -21.9510 C   0  0  0  0  0  0
  -81.4790   78.3300  -19.7310 N   0  0  0  0  0  0
  -80.7980   77.6180  -18.6660 C   0  0  2  0  0  0
  -81.7610   76.5950  -18.0450 C   0  0  0  0  0  0
  -82.7960   76.9720  -17.4860 O   0  0  0  0  0  0
  -80.2770   78.6130  -17.6130 C   0  0  0  0  0  0
  -79.4850   77.9450  -16.5110 C   0  0  0  0  0  0
  -79.2200   76.7430  -16.5550 O   0  0  0  0  0  0
  -79.1120   78.7240  -15.5020 N   0  0  0  0  0  0
  -81.4160   75.3130  -18.1600 N   0  0  0  0  0  0
  -82.2190   74.2120  -17.6200 C   0  0  2  0  0  0
  -82.5330   74.4190  -16.1370 C   0  0  0  0  0  0
  -83.6010   74.0440  -15.6460 O   0  0  0  0  0  0
  -81.4450   72.9020  -17.8200 C   0  0  0  0  0  0
  -82.0750   71.6190  -17.3340 C   0  0  0  0  0  0
  -82.9230   70.8130  -18.0270 C   0  0  0  0  0  0
  -81.8490   70.9690  -16.0750 C   0  0  0  0  0  0
  -83.2630   69.7160  -17.2780 N   0  0  0  0  0  0
  -82.6120   69.7820  -16.0780 C   0  0  0  0  0  0
  -81.0780   71.2750  -14.9500 C   0  0  0  0  0  0
  -82.6280   68.8990  -15.0000 C   0  0  0  0  0  0
  -81.0890   70.3970  -13.8820 C   0  0  0  0  0  0
  -81.8640   69.2210  -13.9120 C   0  0  0  0  0  0
  -81.6020   75.0440  -15.4310 N   0  0  0  0  0  0
  -81.7440   75.2240  -14.0000 C   0  0  2  0  0  0
  -82.8110   76.2540  -13.6530 C   0  0  0  0  0  0
  -83.1100   76.5000  -12.4840 O   0  0  0  0  0  0
  -80.3920   75.5880  -13.3910 C   0  0  0  0  0  0
  -79.3910   74.4740  -13.4280 C   0  0  0  0  0  0
  -79.2850   73.5700  -12.3700 C   0  0  0  0  0  0
  -78.5460   74.3190  -14.5180 C   0  0  0  0  0  0
  -78.3420   72.5200  -12.4020 C   0  0  0  0  0  0
  -77.5980   73.2640  -14.5590 C   0  0  0  0  0  0
  -77.5050   72.3700  -13.5070 C   0  0  0  0  0  0
  -83.3990   76.8550  -14.6720 N   0  0  0  0  0  0
  -84.4140   77.8640  -14.4400 C   0  0  2  0  0  0
  -85.8250   77.3560  -14.6820 C   0  0  0  0  0  0
  -86.7990   78.0580  -14.4140 O   0  0  0  0  0  0
  -84.1330   79.1060  -15.2860 C   0  0  0  0  0  0
  -82.9860   79.9320  -14.7330 C   0  0  0  0  0  0
  -82.7550   79.9430  -13.5220 O   0  0  0  0  0  0
  -82.2550   80.6200  -15.6130 N   0  0  0  0  0  0
  -85.9270   76.1250  -15.1650 N   0  0  0  0  0  0
  -87.1980   75.5700  -15.6030 C   0  0  2  0  0  0
  -88.2100   75.3740  -14.4600 C   0  0  0  0  0  0
  -89.4000   75.6640  -14.6220 O   0  0  0  0  0  0
  -86.9770   74.2600  -16.3600 C   0  0  2  0  0  0
  -86.2160   74.5260  -17.6540 C   0  0  0  0  0  0
  -88.2870   73.5840  -16.6750 C   0  0  0  0  0  0
  -86.0240   73.2840  -18.4810 C   0  0  0  0  0  0
  -87.7370   74.9220  -13.3010 N   0  0  0  0  0  0
  -88.6550   74.5890  -12.2250 C   0  0  2  0  0  0
  -89.2340   75.8410  -11.6140 C   0  0  0  0  0  0
  -90.3180   75.8170  -11.0180 O   0  0  0  0  0  0
  -88.0070   73.6940  -11.1520 C   0  0  2  0  0  0
  -86.8280   74.3240  -10.6670 O   0  0  0  0  0  0
  -87.6350   72.3740  -11.7590 C   0  0  0  0  0  0
  -88.5120   76.9430  -11.7660 N   0  0  0  0  0  0
  -89.0330   78.2320  -11.3570 C   0  0  2  0  0  0
  -90.2450   78.6270  -12.1990 C   0  0  0  0  0  0
  -91.2620   79.0500  -11.6560 O   0  0  0  0  0  0
  -87.9530   79.2960  -11.4300 C   0  0  0  0  0  0
  -88.4260   80.6120  -10.8810 C   0  0  0  0  0  0
  -88.6190   80.7540   -9.6740 O   0  0  0  0  0  0
  -88.6520   81.5780  -11.7630 N   0  0  0  0  0  0
  -90.1340   78.4750  -13.5220 N   0  0  0  0  0  0
  -91.2390   78.7430  -14.4370 C   0  0  1  0  0  0
  -91.5600   80.2310  -14.3750 C   0  0  0  0  0  0
  -92.7320   80.8260  -15.1840 C   0  0  0  0  0  0
  -90.7350   78.4170  -15.8110 C   0  0  0  0  0  0
  -92.4190   77.8860  -13.9850 C   0  0  0  0  0  0
  -93.5590   78.3290  -13.8080 O   0  0  0  0  0  0
  -92.1550   76.4780  -13.7390 N   0  0  0  0  0  0
  -93.1790   75.5740  -13.2970 C   0  0  2  0  0  0
  -93.7950   75.9920  -11.9520 C   0  0  0  0  0  0
  -95.0010   75.9140  -11.7700 O   0  0  0  0  0  0
  -92.6120   74.1490  -13.1620 C   0  0  0  0  0  0
  -92.2770   73.4790  -14.5020 C   0  0  0  0  0  0
  -91.6090   72.1840  -14.3130 C   0  0  0  0  0  0
  -93.4840   73.3860  -15.4060 C   0  0  0  0  0  0
  -92.9220   76.4740  -10.8730 N   0  0  0  0  0  0
  -93.5520   76.8410   -9.5950 C   0  0  2  0  0  0
  -94.4700   78.0540   -9.7180 C   0  0  0  0  0  0
  -95.5520   78.1070   -9.0240 O   0  0  0  0  0  0
  -92.4650   77.1080   -8.5760 C   0  0  0  0  0  0
  -92.8480   77.7320   -7.2180 C   0  0  0  0  0  0
  -93.3600   77.1080   -6.0800 C   0  0  0  0  0  0
  -92.7250   79.0930   -6.9220 C   0  0  0  0  0  0
  -93.5380   78.0420   -5.1290 N   0  0  0  0  0  0
  -93.1650   79.2510   -5.6150 C   0  0  0  0  0  0
  -92.2740   80.1880   -7.6700 C   0  0  0  0  0  0
  -93.1520   80.5340   -5.0550 C   0  0  0  0  0  0
  -92.2570   81.4620   -7.1090 C   0  0  0  0  0  0
  -92.6990   81.6250   -5.7980 C   0  0  0  0  0  0
  -96.0320   79.9090  -11.5770 C   0  0  0  0  0  0
  -94.0300   79.1350  -10.6470 N   0  0  0  0  0  0
  -97.0630   80.3660  -11.1690 O   0  0  0  0  0  0
  -94.7020   80.3710  -10.9070 C   0  0  1  0  0  0
  -93.7880   81.1910  -11.7940 C   0  0  0  0  0  0
  -94.4430   82.3180  -13.9750 C   0  0  0  0  0  0
  -93.1100   82.1620  -14.7160 C   0  0  0  0  0  0
  -94.2820   82.4830  -12.4490 C   0  0  0  0  0  0
  -95.0960   81.1500   -9.6930 C   0  0  0  0  0  0
  -96.0880   78.9280  -12.6570 N   0  0  0  0  0  0
  -97.4420   78.5720  -13.1790 C   0  0  2  0  0  0
  -98.3400   77.8340  -12.1360 C   0  0  0  0  0  0
  -99.4680   78.1780  -11.9820 O   0  0  0  0  0  0
  -97.2050   77.7530  -14.5000 C   0  0  2  0  0  0
  -96.5850   78.5180  -15.5510 C   0  0  0  0  0  0
  -98.5060   77.1900  -14.9810 C   0  0  0  0  0  0
  -95.7370   77.7460  -16.4570 C   0  0  0  0  0  0
  -97.8010   76.7320  -11.3990 N   0  0  0  0  0  0
  -98.6060   75.9960  -10.4410 C   0  0  2  0  0  0
  -99.1050   76.9790   -9.4100 C   0  0  0  0  0  0
 -100.2060   76.8110   -8.9310 O   0  0  0  0  0  0
  -97.6840   74.8710  -10.0340 C   0  0  0  0  0  0
  -98.1740   73.7430   -9.0880 C   0  0  0  0  0  0
  -98.1240   72.2990   -9.4200 N   0  0  0  0  0  0
  -97.7530   71.3690   -8.3500 C   0  0  0  0  0  0
  -97.6830   69.8600   -8.5250 C   0  0  0  0  0  0
  -97.8810   69.1220   -7.2380 N   0  0  0  0  0  0
  -98.4410   67.7880   -7.0090 C   0  0  0  0  0  0
  -98.5060   67.4010   -5.8220 O   0  0  0  0  0  0
  -98.9110   66.8270   -8.0630 C   0  0  2  0  0  0
  -97.7730   66.0070   -8.6250 C   0  0  0  0  0  0
  -99.6340   67.4470   -9.1660 N   0  3  0  0  0  0
  -97.4960   71.8260   -7.2430 O   0  0  0  0  0  0
  -96.0630   65.2140   -6.7520 P   0  0  0  0  0  0
  -97.2420   64.9800   -7.8480 O   0  0  0  0  0  0
  -94.8130   64.4750   -7.2110 O   0  0  0  0  0  0
  -95.7220   66.7050   -6.6040 O   0  0  0  0  0  0
  -96.4980   64.6590   -5.3860 O   0  0  0  0  0  0
  -98.3470   78.1950   -8.9490 N   0  0  0  0  0  0
  -98.9170   79.0890   -7.9490 C   0  0  2  0  0  0
 -100.0350   79.9530   -8.5520 C   0  0  0  0  0  0
 -100.9910   80.3380   -7.8330 O   0  0  0  0  0  0
  -97.9150   80.0500   -7.3210 C   0  0  0  0  0  0
  -97.8240   80.1890   -5.8250 C   0  0  0  0  0  0
  -97.1430   79.0830   -4.9410 C   0  0  0  0  0  0
  -97.4920   79.0830   -3.4120 C   0  0  0  0  0  0
  -97.9650   77.8460   -2.7910 N   0  3  0  0  0  0
 -100.0770   80.3750   -9.9680 N   0  0  0  0  0  0
 -101.1450   81.1990  -10.5160 C   0  0  2  0  0  0
 -102.2720   80.2030  -10.8470 C   0  0  0  0  0  0
 -103.3730   80.6320  -11.2110 O   0  0  0  0  0  0
 -100.8200   82.0020  -11.7470 C   0  0  0  0  0  0
  -99.3790   82.5210  -11.9750 C   0  0  0  0  0  0
  -99.1970   84.0380  -12.1810 C   0  0  0  0  0  0
  -98.5700   84.8350  -11.0770 C   0  0  0  0  0  0
  -97.1090   85.0210  -11.1400 N   0  3  0  0  0  0
 -101.9650   78.7130  -10.6920 N   0  0  0  0  0  0
 -102.9130   77.6020  -10.9730 C   0  0  2  0  0  0
 -102.9100   77.2080  -12.4670 C   0  0  0  0  0  0
 -103.3490   77.9910  -13.3340 O   0  0  0  0  0  0
 -104.3680   77.8330  -10.4250 C   0  0  0  0  0  0
 -104.5780   78.3840   -9.0390 C   0  0  0  0  0  0
 -105.7910   79.2800   -8.8000 C   0  0  0  0  0  0
 -107.0180   78.6850   -8.1450 C   0  0  0  0  0  0
 -108.1850   79.5320   -7.9330 N   0  3  0  0  0  0
 -102.4490   76.1180  -12.8490 O   0  0  0  0  0  0
  -81.9466   78.3786  -22.9735 H   0  0  0  0  0  0
  -81.9885   79.7993  -21.8751 H   0  0  0  0  0  0
  -83.2235   78.5045  -21.7163 H   0  0  0  0  0  0
  -82.1613   79.1585  -19.4901 H   0  0  0  0  0  0
  -79.9455   77.0988  -19.1283 H   0  0  0  0  0  0
  -79.6195   79.3495  -18.0981 H   0  0  0  0  0  0
  -81.1273   79.1318  -17.1464 H   0  0  0  0  0  0
  -79.3721   79.7928  -15.5070 H   0  0  0  0  0  0
  -78.5429   78.3004  -14.6613 H   0  0  0  0  0  0
  -80.4769   75.0996  -18.6915 H   0  0  0  0  0  0
  -83.1671   74.2135  -18.1778 H   0  0  0  0  0  0
  -81.2671   72.7415  -18.8936 H   0  0  0  0  0  0
  -80.4810   72.9616  -17.2935 H   0  0  0  0  0  0
  -83.2823   71.0113  -19.0368 H   0  0  0  0  0  0
  -80.4809   72.1862  -14.9154 H   0  0  0  0  0  0
  -83.2257   67.9878  -15.0229 H   0  0  0  0  0  0
  -80.4871   70.6188  -13.0008 H   0  0  0  0  0  0
  -81.8547   68.5537  -13.0502 H   0  0  0  0  0  0
  -80.7106   75.4289  -15.9480 H   0  0  0  0  0  0
  -82.0864   74.2505  -13.6191 H   0  0  0  0  0  0
  -79.9576   76.4349  -13.9424 H   0  0  0  0  0  0
  -80.5286   75.8685  -12.3362 H   0  0  0  0  0  0
  -79.9405   73.6764  -11.5056 H   0  0  0  0  0  0
  -78.6114   75.0165  -15.3531 H   0  0  0  0  0  0
  -78.2683   71.8272  -11.5637 H   0  0  0  0  0  0
  -76.9408   73.1575  -15.4221 H   0  0  0  0  0  0
  -76.7827   71.5544  -13.5419 H   0  0  0  0  0  0
  -83.1152   76.5866  -15.7003 H   0  0  0  0  0  0
  -84.3205   78.0875  -13.3670 H   0  0  0  0  0  0
  -83.8704   78.8006  -16.3096 H   0  0  0  0  0  0
  -85.0297   79.7426  -15.3119 H   0  0  0  0  0  0
  -82.5009   80.5781  -16.6843 H   0  0  0  0  0  0
  -81.4068   81.2288  -15.2668 H   0  0  0  0  0  0
  -85.0111   75.5192  -15.2290 H   0  0  0  0  0  0
  -87.5901   76.3468  -16.2760 H   0  0  0  0  0  0
  -86.3965   73.5815  -15.7177 H   0  0  0  0  0  0
  -86.7720   75.2537  -18.2634 H   0  0  0  0  0  0
  -85.2207   74.9303  -17.4176 H   0  0  0  0  0  0
  -88.8349   73.3927  -15.7405 H   0  0  0  0  0  0
  -88.0935   72.6306  -17.1883 H   0  0  0  0  0  0
  -88.8885   74.2354  -17.3260 H   0  0  0  0  0  0
  -85.4714   73.5360  -19.3981 H   0  0  0  0  0  0
  -87.0058   72.8657  -18.7477 H   0  0  0  0  0  0
  -85.4544   72.5423  -17.9018 H   0  0  0  0  0  0
  -86.6533   74.8003  -13.1568 H   0  0  0  0  0  0
  -89.4598   74.0264  -12.7208 H   0  0  0  0  0  0
  -88.6640   73.5448  -10.2825 H   0  0  0  0  0  0
  -86.8905   75.3097  -10.1827 H   0  0  0  0  0  0
  -88.5400   71.8767  -12.1381 H   0  0  0  0  0  0
  -87.1608   71.7399  -10.9954 H   0  0  0  0  0  0
  -86.9314   72.5372  -12.5886 H   0  0  0  0  0  0
  -87.5073   76.8710  -12.2081 H   0  0  0  0  0  0
  -89.3408   78.0975  -10.3095 H   0  0  0  0  0  0
  -87.0794   78.9725  -10.8450 H   0  0  0  0  0  0
  -87.6568   79.4465  -12.4786 H   0  0  0  0  0  0
  -88.4636   81.4016  -12.8323 H   0  0  0  0  0  0
  -89.0276   82.5549  -11.4246 H   0  0  0  0  0  0
  -89.1648   78.1342  -13.9150 H   0  0  0  0  0  0
  -91.7964   80.5122  -13.3382 H   0  0  0  0  0  0
  -90.6906   80.8085  -14.7223 H   0  0  0  0  0  0
  -92.4439   80.9051  -16.2427 H   0  0  0  0  0  0
  -93.6112   80.1715  -15.0912 H   0  0  0  0  0  0
  -89.8897   79.0763  -16.0574 H   0  0  0  0  0  0
  -91.5424   78.5669  -16.5428 H   0  0  0  0  0  0
  -90.4032   77.3687  -15.8407 H   0  0  0  0  0  0
  -91.1308   76.1115  -13.9024 H   0  0  0  0  0  0
  -93.9301   75.6534  -14.0967 H   0  0  0  0  0  0
  -91.6833   74.1782  -12.5733 H   0  0  0  0  0  0
  -93.3479   73.5081  -12.6544 H   0  0  0  0  0  0
  -91.5331   74.0902  -15.0340 H   0  0  0  0  0  0
  -90.7415   72.3124  -13.6490 H   0  0  0  0  0  0
  -91.2716   71.7999  -15.2870 H   0  0  0  0  0  0
  -92.3138   71.4703  -13.8615 H   0  0  0  0  0  0
  -93.9414   74.3809  -15.5104 H   0  0  0  0  0  0
  -94.2158   72.6899  -14.9701 H   0  0  0  0  0  0
  -93.1735   73.0195  -16.3956 H   0  0  0  0  0  0
  -91.8326   76.5650  -10.9953 H   0  0  0  0  0  0
  -94.1699   75.9802   -9.2996 H   0  0  0  0  0  0
  -91.9678   76.1624   -8.3140 H   0  0  0  0  0  0
  -91.7273   77.8047   -9.0008 H   0  0  0  0  0  0
  -93.5784   76.0449   -5.9790 H   0  0  0  0  0  0
  -91.9349   80.0420   -8.6956 H   0  0  0  0  0  0
  -93.4980   80.6818   -4.0320 H   0  0  0  0  0  0
  -91.9040   82.3171   -7.6855 H   0  0  0  0  0  0
  -92.6909   82.6172   -5.3468 H   0  0  0  0  0  0
  -93.0840   78.9050  -11.1590 H   0  0  0  0  0  0
  -92.9101   81.5152  -11.2159 H   0  0  0  0  0  0
  -93.4596   80.5794  -12.6473 H   0  0  0  0  0  0
  -94.9685   83.2089  -14.3494 H   0  0  0  0  0  0
  -95.0644   81.4267  -14.1465 H   0  0  0  0  0  0
  -92.3491   82.5334  -14.0138 H   0  0  0  0  0  0
  -93.1806   82.8452  -15.5752 H   0  0  0  0  0  0
  -95.2581   82.7596  -12.0239 H   0  0  0  0  0  0
  -93.5582   83.2896  -12.2606 H   0  0  0  0  0  0
  -95.7584   80.5377   -9.0635 H   0  0  0  0  0  0
  -95.6243   82.0647   -9.9998 H   0  0  0  0  0  0
  -94.1952   81.4206   -9.1227 H   0  0  0  0  0  0
  -95.1916   78.4564  -13.0861 H   0  0  0  0  0  0
  -97.9834   79.5103  -13.3696 H   0  0  0  0  0  0
  -96.4781   76.9445  -14.3329 H   0  0  0  0  0  0
  -97.3631   78.9878  -16.1705 H   0  0  0  0  0  0
  -95.9472   79.2980  -15.1095 H   0  0  0  0  0  0
  -98.9740   76.6072  -14.1740 H   0  0  0  0  0  0
  -98.3249   76.5369  -15.8474 H   0  0  0  0  0  0
  -99.1750   78.0122  -15.2750 H   0  0  0  0  0  0
  -95.3117   78.4145  -17.2200 H   0  0  0  0  0  0
  -96.3385   76.9662  -16.9469 H   0  0  0  0  0  0
  -94.9226   77.2763  -15.8859 H   0  0  0  0  0  0
  -96.7528   76.4463  -11.5711 H   0  0  0  0  0  0
  -99.5401   75.5442  -10.8061 H   0  0  0  0  0  0
  -97.3504   74.3278  -10.9305 H   0  0  0  0  0  0
  -96.8100   75.2847   -9.5096 H   0  0  0  0  0  0
  -97.6010   73.7767   -8.1497 H   0  0  0  0  0  0
  -99.2428   73.8855   -8.8702 H   0  0  0  0  0  0
  -98.3608   71.9605  -10.4395 H   0  0  0  0  0  0
  -98.4671   69.5353   -9.2248 H   0  0  0  0  0  0
  -96.6967   69.5826   -8.9252 H   0  0  0  0  0  0
  -97.5861   69.5876   -6.2860 H   0  0  0  0  0  0
  -99.6499   66.1916   -7.5528 H   0  0  0  0  0  0
  -98.0992   65.5148   -9.5531 H   0  0  0  0  0  0
  -96.9181   66.6650   -8.8399 H   0  0  0  0  0  0
 -100.4656   68.0471   -8.7680 H   0  0  0  0  0  0
 -100.0310   66.6649   -9.8298 H   0  0  0  0  0  0
  -98.9511   68.0970   -9.7327 H   0  0  0  0  0  0
  -95.3879   67.2823   -7.4787 H   0  0  0  0  0  0
  -96.7839   63.6014   -5.2878 H   0  0  0  0  0  0
  -97.3545   78.4062   -9.3737 H   0  0  0  0  0  0
  -99.2681   78.3691   -7.1950 H   0  0  0  0  0  0
  -96.8957   79.7630   -7.6186 H   0  0  0  0  0  0
  -98.1231   81.0737   -7.6657 H   0  0  0  0  0  0
  -97.2554   81.0969   -5.5750 H   0  0  0  0  0  0
  -98.8365   80.2622   -5.4013 H   0  0  0  0  0  0
  -97.4318   78.0883   -5.3113 H   0  0  0  0  0  0
  -96.0497   79.1914   -4.9959 H   0  0  0  0  0  0
  -96.5987   79.3579   -2.8320 H   0  0  0  0  0  0
  -98.2931   79.8116   -3.2187 H   0  0  0  0  0  0
  -98.1612   78.0235   -1.7233 H   0  0  0  0  0  0
  -97.1975   77.0653   -2.8980 H   0  0  0  0  0  0
  -98.8920   77.5190   -3.2848 H   0  0  0  0  0  0
  -99.2540   80.0390  -10.6159 H   0  0  0  0  0  0
 -101.3453   81.9649   -9.7523 H   0  0  0  0  0  0
 -101.0306   81.4003  -12.6434 H   0  0  0  0  0  0
 -101.4363   82.9130  -11.7638 H   0  0  0  0  0  0
  -98.7560   82.2675  -11.1046 H   0  0  0  0  0  0
  -98.9584   82.0512  -12.8763 H   0  0  0  0  0  0
  -98.5554   84.2147  -13.0569 H   0  0  0  0  0  0
 -100.1788   84.5061  -12.3453 H   0  0  0  0  0  0
  -98.9992   85.8478  -11.0666 H   0  0  0  0  0  0
  -98.7665   84.3436  -10.1127 H   0  0  0  0  0  0
  -96.7780   85.6188  -10.2780 H   0  0  0  0  0  0
  -96.8458   85.5436  -12.0714 H   0  0  0  0  0  0
  -96.6131   84.0394  -11.1176 H   0  0  0  0  0  0
 -100.9463   78.4913  -10.3411 H   0  0  0  0  0  0
 -102.4740   76.7763  -10.3938 H   0  0  0  0  0  0
 -103.3411   77.6981  -14.3943 H   0  0  0  0  0  0
 -104.8955   78.5467  -11.0748 H   0  0  0  0  0  0
 -104.9116   76.8768  -10.4134 H   0  0  0  0  0  0
 -104.6920   77.5529   -8.3274 H   0  0  0  0  0  0
 -103.7100   78.9958   -8.7522 H   0  0  0  0  0  0
 -105.5052   80.1173   -8.1463 H   0  0  0  0  0  0
 -106.1521   79.6726   -9.7620 H   0  0  0  0  0  0
 -107.3904   77.8490   -8.7552 H   0  0  0  0  0  0
 -106.7566   78.3184   -7.1414 H   0  0  0  0  0  0
 -108.9806   78.9458   -7.4500 H   0  0  0  0  0  0
 -108.5445   79.9100   -8.9014 H   0  0  0  0  0  0
 -107.9106   80.3794   -7.2876 H   0  0  0  0  0  0
  1  2  2  0  0  0
  1  3  1  0  0  0
  1  4  1  0  0  0
  3163  1  0  0  0
  3164  1  0  0  0
  3165  1  0  0  0
  4  5  1  0  0  0
  4166  1  0  0  0
  5  6  1  0  0  0
  5  8  1  0  0  0
  5167  1  0  0  0
  6  7  2  0  0  0
  6 12  1  0  0  0
  8  9  1  0  0  0
  8168  1  0  0  0
  8169  1  0  0  0
  9 10  2  0  0  0
  9 11  1  0  0  0
 11170  1  0  0  0
 11171  1  0  0  0
 12 13  1  0  0  0
 12172  1  0  0  0
 13 14  1  0  0  0
 13 16  1  0  0  0
 13173  1  0  0  0
 14 15  2  0  0  0
 14 26  1  0  0  0
 16 17  1  0  0  0
 16174  1  0  0  0
 16175  1  0  0  0
 17 18  2  0  0  0
 17 19  1  0  0  0
 18 20  1  0  0  0
 18176  1  0  0  0
 19 21  2  0  0  0
 19 22  1  0  0  0
 20 21  1  0  0  0
 21 23  1  0  0  0
 22 24  2  0  0  0
 22177  1  0  0  0
 23 25  2  0  0  0
 23178  1  0  0  0
 24 25  1  0  0  0
 24179  1  0  0  0
 25180  1  0  0  0
 26 27  1  0  0  0
 26181  1  0  0  0
 27 28  1  0  0  0
 27 30  1  0  0  0
 27182  1  0  0  0
 28 29  2  0  0  0
 28 37  1  0  0  0
 30 31  1  0  0  0
 30183  1  0  0  0
 30184  1  0  0  0
 31 32  2  0  0  0
 31 33  1  0  0  0
 32 34  1  0  0  0
 32185  1  0  0  0
 33 35  2  0  0  0
 33186  1  0  0  0
 34 36  2  0  0  0
 34187  1  0  0  0
 35 36  1  0  0  0
 35188  1  0  0  0
 36189  1  0  0  0
 37 38  1  0  0  0
 37190  1  0  0  0
 38 39  1  0  0  0
 38 41  1  0  0  0
 38191  1  0  0  0
 39 40  2  0  0  0
 39 45  1  0  0  0
 41 42  1  0  0  0
 41192  1  0  0  0
 41193  1  0  0  0
 42 43  2  0  0  0
 42 44  1  0  0  0
 44194  1  0  0  0
 44195  1  0  0  0
 45 46  1  0  0  0
 45196  1  0  0  0
 46 47  1  0  0  0
 46 49  1  0  0  0
 46197  1  0  0  0
 47 48  2  0  0  0
 47 53  1  0  0  0
 49 50  1  0  0  0
 49 51  1  0  0  0
 49198  1  0  0  0
 50 52  1  0  0  0
 50199  1  0  0  0
 50200  1  0  0  0
 51201  1  0  0  0
 51202  1  0  0  0
 51203  1  0  0  0
 52204  1  0  0  0
 52205  1  0  0  0
 52206  1  0  0  0
 53 54  1  0  0  0
 53207  1  0  0  0
 54 55  1  0  0  0
 54 57  1  0  0  0
 54208  1  0  0  0
 55 56  2  0  0  0
 55 60  1  0  0  0
 57 58  1  0  0  0
 57 59  1  0  0  0
 57209  1  0  0  0
 58210  1  0  0  0
 59211  1  0  0  0
 59212  1  0  0  0
 59213  1  0  0  0
 60 61  1  0  0  0
 60214  1  0  0  0
 61 62  1  0  0  0
 61 64  1  0  0  0
 61215  1  0  0  0
 62 63  2  0  0  0
 62 68  1  0  0  0
 64 65  1  0  0  0
 64216  1  0  0  0
 64217  1  0  0  0
 65 66  2  0  0  0
 65 67  1  0  0  0
 67218  1  0  0  0
 67219  1  0  0  0
 68 69  1  0  0  0
 68220  1  0  0  0
 69 70  1  0  0  0
 69 72  1  0  0  0
 69 73  1  0  0  0
 70 71  1  0  0  0
 70221  1  0  0  0
 70222  1  0  0  0
 71103  1  0  0  0
 71223  1  0  0  0
 71224  1  0  0  0
 72225  1  0  0  0
 72226  1  0  0  0
 72227  1  0  0  0
 73 74  2  0  0  0
 73 75  1  0  0  0
 75 76  1  0  0  0
 75228  1  0  0  0
 76 77  1  0  0  0
 76 79  1  0  0  0
 76229  1  0  0  0
 77 78  2  0  0  0
 77 83  1  0  0  0
 79 80  1  0  0  0
 79230  1  0  0  0
 79231  1  0  0  0
 80 81  1  0  0  0
 80 82  1  0  0  0
 80232  1  0  0  0
 81233  1  0  0  0
 81234  1  0  0  0
 81235  1  0  0  0
 82236  1  0  0  0
 82237  1  0  0  0
 82238  1  0  0  0
 83 84  1  0  0  0
 83239  1  0  0  0
 84 85  1  0  0  0
 84 87  1  0  0  0
 84240  1  0  0  0
 85 86  2  0  0  0
 85 98  1  0  0  0
 87 88  1  0  0  0
 87241  1  0  0  0
 87242  1  0  0  0
 88 89  2  0  0  0
 88 90  1  0  0  0
 89 91  1  0  0  0
 89243  1  0  0  0
 90 92  2  0  0  0
 90 93  1  0  0  0
 91 92  1  0  0  0
 92 94  1  0  0  0
 93 95  2  0  0  0
 93244  1  0  0  0
 94 96  2  0  0  0
 94245  1  0  0  0
 95 96  1  0  0  0
 95246  1  0  0  0
 96247  1  0  0  0
 97 99  2  0  0  0
 97100  1  0  0  0
 97106  1  0  0  0
 98100  1  0  0  0
 98248  1  0  0  0
100101  1  0  0  0
100105  1  0  0  0
101104  1  0  0  0
101249  1  0  0  0
101250  1  0  0  0
102103  1  0  0  0
102104  1  0  0  0
102251  1  0  0  0
102252  1  0  0  0
103253  1  0  0  0
103254  1  0  0  0
104255  1  0  0  0
104256  1  0  0  0
105257  1  0  0  0
105258  1  0  0  0
105259  1  0  0  0
106107  1  0  0  0
106260  1  0  0  0
107108  1  0  0  0
107110  1  0  0  0
107261  1  0  0  0
108109  2  0  0  0
108114  1  0  0  0
110111  1  0  0  0
110112  1  0  0  0
110262  1  0  0  0
111113  1  0  0  0
111263  1  0  0  0
111264  1  0  0  0
112265  1  0  0  0
112266  1  0  0  0
112267  1  0  0  0
113268  1  0  0  0
113269  1  0  0  0
113270  1  0  0  0
114115  1  0  0  0
114271  1  0  0  0
115116  1  0  0  0
115118  1  0  0  0
115272  1  0  0  0
116117  2  0  0  0
116135  1  0  0  0
118119  1  0  0  0
118273  1  0  0  0
118274  1  0  0  0
119120  1  0  0  0
119275  1  0  0  0
119276  1  0  0  0
120121  1  0  0  0
120277  1  0  0  0
121122  1  0  0  0
121129  2  0  0  0
122123  1  0  0  0
122278  1  0  0  0
122279  1  0  0  0
123124  1  0  0  0
123280  1  0  0  0
124125  2  0  0  0
124126  1  0  0  0
126127  1  0  0  0
126128  1  0  0  0
126281  1  0  0  0
127131  1  0  0  0
127282  1  0  0  0
127283  1  0  0  0
128284  1  0  0  0
128285  1  0  0  0
128286  1  0  0  0
130131  1  0  0  0
130132  2  0  0  0
130133  1  0  0  0
130134  1  0  0  0
133287  1  0  0  0
134288  1  0  0  0
135136  1  0  0  0
135289  1  0  0  0
136137  1  0  0  0
136139  1  0  0  0
136290  1  0  0  0
137138  2  0  0  0
137144  1  0  0  0
139140  1  0  0  0
139291  1  0  0  0
139292  1  0  0  0
140141  1  0  0  0
140293  1  0  0  0
140294  1  0  0  0
141142  1  0  0  0
141295  1  0  0  0
141296  1  0  0  0
142143  1  0  0  0
142297  1  0  0  0
142298  1  0  0  0
143299  1  0  0  0
143300  1  0  0  0
143301  1  0  0  0
144145  1  0  0  0
144302  1  0  0  0
145146  1  0  0  0
145148  1  0  0  0
145303  1  0  0  0
146147  2  0  0  0
146153  1  0  0  0
148149  1  0  0  0
148304  1  0  0  0
148305  1  0  0  0
149150  1  0  0  0
149306  1  0  0  0
149307  1  0  0  0
150151  1  0  0  0
150308  1  0  0  0
150309  1  0  0  0
151152  1  0  0  0
151310  1  0  0  0
151311  1  0  0  0
152312  1  0  0  0
152313  1  0  0  0
152314  1  0  0  0
153154  1  0  0  0
153315  1  0  0  0
154155  1  0  0  0
154157  1  0  0  0
154316  1  0  0  0
155156  1  0  0  0
155162  2  0  0  0
156317  1  0  0  0
157158  1  0  0  0
157318  1  0  0  0
157319  1  0  0  0
158159  1  0  0  0
158320  1  0  0  0
158321  1  0  0  0
159160  1  0  0  0
159322  1  0  0  0
159323  1  0  0  0
160161  1  0  0  0
160324  1  0  0  0
160325  1  0  0  0
161326  1  0  0  0
161327  1  0  0  0
161328  1  0  0  0
M  CHG  4 128   1 143   1 152   1 161   1
M  END
> <s_m_source_file>
../4ngh_ligand.sdf

> <i_m_source_file_index>
1

> <s_epik_input>
W2NIXTFbY0hdW2NIXVtjSF1jKGMxMilbbkhdW2NIXWMyW0NIMl1bQ0BIXShbTkhdQyg9TylbQ0BASF0oW05IXUMoPU8pW0NIM10pW0NIMl1DKD1PKVtOSDJdKUMoPU8pW05IXVtDQEBIXShbQ0gyXWMzW2NIXVtjSF1bY0hdW2NIXVtjSF0zKUMoPU8pW05IXVtDQEBIXShbQ0gyXUMoPU8pW05IMl0pQyg9TylbTkhdW0NAQEhdKFtDQEBIXShbQ0gzXSlbQ0gyXVtDSDNdKUMoPU8pW05IXVtDQEBIXShbQ0BIXShbT0hdKVtDSDNdKUMoPU8pW05IXVtDQEBIXShbQ0gyXUMoPU8pW05IMl0pQyg9TylbTkhdW0NAXTQoW0NIM10pW0NIMl1bQ0gyXVtDSDJdW0NIMl1bQ0gyXVtDSDJdW0NAXShbQ0gzXSkoW05IXUMoPU8pW0NAQEhdKFtOSF1DKD1PKVtDQEBIXShbTkhdQzQ9TylbQ0gyXVtDSF0oW0NIM10pW0NIM10pW0NIMl1jNVtjSF1bbkhdYyhjNTYpW2NIXVtjSF1bY0hdW2NIXTYpQyg9TylbTkhdW0NAQEhdKFtDQEBIXShbQ0gzXSlbQ0gyXVtDSDNdKUMoPU8pW05IXVtDQEBIXShbQ0gyXVtDSDJdW05IXUMoPU8pW0NIMl1bTkhdQyg9TylbQ0BASF0oW05IMytdKVtDSDJdT1AoPU8pKFtPSF0pW09IXSlDKD1PKVtOSF1bQ0BASF0oW0NIMl1bQ0gyXVtDSDJdW0NIMl1bTkgzK10pQyg9TylbTkhdW0NAQEhdKFtDSDJdW0NIMl1bQ0gyXVtDSDJdW05IMytdKUMoPU8pW05IXVtDQEhdKEMoPU8pW09IXSlbQ0gyXVtDSDJdW0NIMl1bQ0gyXVtOSDMrXQ==

> <s_epik_cmdline>
J2VwaWtfYXBwJywgJy1pbWFlJywgJ2xpZ2FuZF9wcm8ubWFlJywgJy1vbWFlJywgJ2xpZ2FuZF9wcmVwLm1hZScsICctbXMnLCAnMScsICctcGgnLCAnNycsICctcGh0JywgJzAuNScsICctbnQn

> <s_epik_pKa_notes>
Molecule size exceeds maximum supported for generating protonation states

$$$$
