4ngm_ligand
                    3D
 Schrodinger Suite 2020-3.
 58 58  0  0  1  0            999 V2000
   17.0330   20.5070   39.1530 C   0  0  0  0  0  0
   16.1030   20.7150   38.0140 C   0  0  2  0  0  0
   14.8230   19.9650   38.3750 C   0  0  0  0  0  0
   15.0420   18.4520   38.5260 C   0  0  0  0  0  0
   13.8630   17.7400   39.1800 C   0  0  0  0  0  0
   17.9020   20.5950   36.4750 C   0  0  0  0  0  0
   26.0240   15.2650   39.4020 C   0  0  0  0  0  0
   25.1950   13.5430   37.9830 C   0  0  0  0  0  0
   24.9250   14.4820   36.9680 C   0  0  0  0  0  0
   24.0250   19.7700   40.5360 O   0  0  0  0  0  0
   24.7620   18.8310   40.3170 C   0  0  0  0  0  0
   25.3970   18.1040   41.4710 C   0  0  0  0  0  0
   25.0130   18.5090   39.0560 N   0  0  0  0  0  0
   26.0900   17.6240   38.6300 C   0  0  0  0  0  0
   25.7090   16.2090   38.4020 C   0  0  0  0  0  0
   25.1760   15.8360   37.1880 C   0  0  0  0  0  0
   24.8880   11.6510   37.7540 Br  0  0  0  0  0  0
   25.7420   13.8990   39.2090 C   0  0  0  0  0  0
   24.3670   19.1630   37.9020 C   0  0  0  0  0  0
   22.9090   18.8260   37.7020 C   0  0  0  0  0  0
   22.2630   19.6080   36.5510 C   0  0  0  0  0  0
   20.7650   19.2620   36.5220 C   0  0  0  0  0  0
   19.9740   19.9100   35.3880 C   0  0  1  0  0  0
   20.2430   19.3110   34.0420 C   0  0  0  0  0  0
   19.6740   18.1930   33.6730 O   0  5  0  0  0  0
   20.8850   19.8640   33.1650 O   0  0  0  0  0  0
   18.5890   19.7660   35.6640 N   0  0  0  0  0  0
   18.3550   21.6030   37.0230 O   0  0  0  0  0  0
   16.6810   20.1730   36.8380 N   0  0  0  0  0  0
   17.8680   19.5890   39.1610 O   0  0  0  0  0  0
   16.8480   21.3570   40.1620 O   0  5  0  0  0  0
   12.9890   18.2620   39.9220 O   0  0  0  0  0  0
   13.7650   16.4300   38.9500 O   0  5  0  0  0  0
   15.9413   21.7785   37.7843 H   0  0  0  0  0  0
   14.4325   20.3450   39.3306 H   0  0  0  0  0  0
   14.0728   20.1187   37.5853 H   0  0  0  0  0  0
   15.1940   18.0027   37.5335 H   0  0  0  0  0  0
   15.9292   18.2704   39.1504 H   0  0  0  0  0  0
   26.4891   15.5955   40.3308 H   0  0  0  0  0  0
   24.5203   14.1505   36.0117 H   0  0  0  0  0  0
   25.0444   18.5397   42.4175 H   0  0  0  0  0  0
   26.4909   18.2006   41.4079 H   0  0  0  0  0  0
   25.1199   17.0402   41.4313 H   0  0  0  0  0  0
   26.5086   17.9870   37.6797 H   0  0  0  0  0  0
   26.8786   17.6107   39.3967 H   0  0  0  0  0  0
   24.9565   16.5784   36.4207 H   0  0  0  0  0  0
   25.9429   13.1582   39.9829 H   0  0  0  0  0  0
   24.4212   20.2551   38.0218 H   0  0  0  0  0  0
   24.8848   18.8695   36.9770 H   0  0  0  0  0  0
   22.8082   17.7545   37.4747 H   0  0  0  0  0  0
   22.3493   19.0604   38.6195 H   0  0  0  0  0  0
   22.4002   20.6865   36.7181 H   0  0  0  0  0  0
   22.7373   19.3209   35.6010 H   0  0  0  0  0  0
   20.6420   18.1746   36.4102 H   0  0  0  0  0  0
   20.2948   19.5896   37.4609 H   0  0  0  0  0  0
   20.2240   20.9801   35.3388 H   0  0  0  0  0  0
   18.0195   18.9437   35.2062 H   0  0  0  0  0  0
   16.1298   19.4258   36.2483 H   0  0  0  0  0  0
  1  2  1  0  0  0
  1 30  2  0  0  0
  1 31  1  0  0  0
  2  3  1  0  0  0
  2 29  1  0  0  0
  2 34  1  0  0  0
  3  4  1  0  0  0
  3 35  1  0  0  0
  3 36  1  0  0  0
  4  5  1  0  0  0
  4 37  1  0  0  0
  4 38  1  0  0  0
  5 32  2  0  0  0
  5 33  1  0  0  0
  6 27  1  0  0  0
  6 28  2  0  0  0
  6 29  1  0  0  0
  7 15  2  0  0  0
  7 18  1  0  0  0
  7 39  1  0  0  0
  8  9  1  0  0  0
  8 17  1  0  0  0
  8 18  2  0  0  0
  9 16  2  0  0  0
  9 40  1  0  0  0
 10 11  2  0  0  0
 11 12  1  0  0  0
 11 13  1  0  0  0
 12 41  1  0  0  0
 12 42  1  0  0  0
 12 43  1  0  0  0
 13 14  1  0  0  0
 13 19  1  0  0  0
 14 15  1  0  0  0
 14 44  1  0  0  0
 14 45  1  0  0  0
 15 16  1  0  0  0
 16 46  1  0  0  0
 18 47  1  0  0  0
 19 20  1  0  0  0
 19 48  1  0  0  0
 19 49  1  0  0  0
 20 21  1  0  0  0
 20 50  1  0  0  0
 20 51  1  0  0  0
 21 22  1  0  0  0
 21 52  1  0  0  0
 21 53  1  0  0  0
 22 23  1  0  0  0
 22 54  1  0  0  0
 22 55  1  0  0  0
 23 24  1  0  0  0
 23 27  1  0  0  0
 23 56  1  0  0  0
 24 25  1  0  0  0
 24 26  2  0  0  0
 27 57  1  0  0  0
 29 58  1  0  0  0
M  CHG  3  25  -1  31  -1  33  -1
M  END
> <s_m_source_file>
../4ngm_ligand.sdf

> <i_m_source_file_index>
1

> <s_epik_input>
Tz1DKFtPSF0pW0NIMl1bQ0gyXVtDQEBIXShDKD1PKVtPSF0pW05IXUMoPU8pW05IXVtDQEhdKEMoPU8pW09IXSlbQ0gyXVtDSDJdW0NIMl1bQ0gyXU4oQyg9TylbQ0gzXSlbQ0gyXWMoW2NIXVtjSF0xKVtjSF1bY0hdYzFCcg==

> <s_epik_cmdline>
J2VwaWtfYXBwJywgJy1pbWFlJywgJ2xpZ2FuZF9wcm8ubWFlJywgJy1vbWFlJywgJ2xpZ2FuZF9wcmVwLm1hZScsICctbXMnLCAnMScsICctcGgnLCAnNycsICctcGh0JywgJzAuNScsICctbnQn

> <r_lp_tautomer_probability>
1

> <r_epik_Ionization_Penalty>
  0.0077

> <r_epik_Ionization_Penalty_Charging>
  0.0077

> <r_epik_Ionization_Penalty_Neutral>
  0.0001

> <r_epik_State_Penalty>
 -0.0000

> <r_epik_Charging_Adjusted_Penalty>
0.00765485835356831

> <i_epik_Tot_Q>
-3

> <i_epik_Tot_abs_Q>
3

$$$$
