4ngn_ligand
                    3D
 Schrodinger Suite 2020-3.
 42 41  0  0  1  0            999 V2000
  -25.3400  -16.8820  -40.9830 O   0  0  0  0  0  0
  -25.3720  -16.4730  -42.1370 C   0  0  0  0  0  0
  -24.5750  -16.9320  -43.1010 N   0  0  0  0  0  0
  -23.2330  -17.4600  -42.7830 C   0  0  0  0  0  0
  -23.1460  -18.9350  -42.3480 C   0  0  0  0  0  0
  -22.3500  -19.8630  -43.3050 C   0  0  0  0  0  0
  -20.8820  -19.5320  -43.1800 C   0  0  0  0  0  0
  -19.8960  -20.1320  -44.2020 C   0  0  2  0  0  0
  -18.5820  -19.7750  -43.7250 N   0  0  0  0  0  0
  -17.8630  -20.5210  -42.8720 C   0  0  0  0  0  0
  -18.3100  -21.5880  -42.3970 O   0  0  0  0  0  0
  -16.5900  -20.1540  -42.6210 N   0  0  0  0  0  0
  -16.0100  -20.6590  -41.3710 C   0  0  2  0  0  0
  -16.9970  -20.4520  -40.2400 C   0  0  0  0  0  0
  -17.9050  -19.5810  -40.1950 O   0  0  0  0  0  0
  -16.8880  -21.3100  -39.2220 O   0  5  0  0  0  0
  -14.6800  -19.9680  -40.9720 C   0  0  0  0  0  0
  -14.9460  -18.4370  -40.9140 C   0  0  0  0  0  0
  -13.8530  -17.6530  -40.2660 C   0  0  0  0  0  0
  -13.7130  -16.4240  -40.4570 O   0  0  0  0  0  0
  -13.0150  -18.2090  -39.4460 O   0  5  0  0  0  0
  -20.0910  -19.4650  -45.5480 C   0  0  0  0  0  0
  -19.5640  -18.3700  -45.7830 O   0  0  0  0  0  0
  -20.7270  -20.0950  -46.4670 O   0  5  0  0  0  0
  -26.0857  -15.6860  -42.4220 H   0  0  0  0  0  0
  -24.9265  -16.9147  -44.1432 H   0  0  0  0  0  0
  -22.5861  -17.3747  -43.6686 H   0  0  0  0  0  0
  -22.7983  -16.8817  -41.9544 H   0  0  0  0  0  0
  -22.6515  -18.9996  -41.3676 H   0  0  0  0  0  0
  -24.1595  -19.3564  -42.2759 H   0  0  0  0  0  0
  -22.5237  -20.9128  -43.0263 H   0  0  0  0  0  0
  -22.6858  -19.6979  -44.3394 H   0  0  0  0  0  0
  -20.7429  -18.4442  -43.2652 H   0  0  0  0  0  0
  -20.5110  -19.8736  -42.2024 H   0  0  0  0  0  0
  -19.9854  -21.2235  -44.3048 H   0  0  0  0  0  0
  -18.1101  -18.8399  -44.0611 H   0  0  0  0  0  0
  -15.9904  -19.5166  -43.2875 H   0  0  0  0  0  0
  -15.8302  -21.7232  -41.5834 H   0  0  0  0  0  0
  -14.3549  -20.3386  -39.9887 H   0  0  0  0  0  0
  -13.9090  -20.1955  -41.7228 H   0  0  0  0  0  0
  -15.0630  -18.0462  -41.9356 H   0  0  0  0  0  0
  -15.8652  -18.2460  -40.3408 H   0  0  0  0  0  0
  1  2  2  0  0  0
  2  3  1  0  0  0
  2 25  1  0  0  0
  3  4  1  0  0  0
  3 26  1  0  0  0
  4  5  1  0  0  0
  4 27  1  0  0  0
  4 28  1  0  0  0
  5  6  1  0  0  0
  5 29  1  0  0  0
  5 30  1  0  0  0
  6  7  1  0  0  0
  6 31  1  0  0  0
  6 32  1  0  0  0
  7  8  1  0  0  0
  7 33  1  0  0  0
  7 34  1  0  0  0
  8  9  1  0  0  0
  8 22  1  0  0  0
  8 35  1  0  0  0
  9 10  1  0  0  0
  9 36  1  0  0  0
 10 11  2  0  0  0
 10 12  1  0  0  0
 12 13  1  0  0  0
 12 37  1  0  0  0
 13 14  1  0  0  0
 13 17  1  0  0  0
 13 38  1  0  0  0
 14 15  2  0  0  0
 14 16  1  0  0  0
 17 18  1  0  0  0
 17 39  1  0  0  0
 17 40  1  0  0  0
 18 19  1  0  0  0
 18 41  1  0  0  0
 18 42  1  0  0  0
 19 20  2  0  0  0
 19 21  1  0  0  0
 22 23  2  0  0  0
 22 24  1  0  0  0
M  CHG  3  16  -1  21  -1  24  -1
M  END
> <s_m_source_file>
../4ngn_ligand.sdf

> <i_m_source_file_index>
1

> <s_epik_input>
Tz1bQ0hdW05IXVtDSDJdW0NIMl1bQ0gyXVtDSDJdW0NAQEhdKEMoPU8pW09IXSlbTkhdQyg9TylbTkhdW0NASF0oQyg9TylbT0hdKVtDSDJdW0NIMl1DKD1PKVtPSF0=

> <s_epik_cmdline>
J2VwaWtfYXBwJywgJy1pbWFlJywgJ2xpZ2FuZF9wcm8ubWFlJywgJy1vbWFlJywgJ2xpZ2FuZF9wcmVwLm1hZScsICctbXMnLCAnMScsICctcGgnLCAnNycsICctcGh0JywgJzAuNScsICctbnQn

> <r_lp_tautomer_probability>
1

> <r_epik_Ionization_Penalty>
  0.0077

> <r_epik_Ionization_Penalty_Charging>
  0.0077

> <r_epik_Ionization_Penalty_Neutral>
  0.0001

> <r_epik_State_Penalty>
 -0.0000

> <r_epik_Charging_Adjusted_Penalty>
0.00765992818932472

> <i_epik_Tot_Q>
-3

> <i_epik_Tot_abs_Q>
3

$$$$
