4ngp_ligand
                    3D
 Schrodinger Suite 2020-3.
 77 77  0  0  1  0            999 V2000
  -26.5320   -9.8700  -42.8420 O   0  0  0  0  0  0
  -26.3320  -10.7570  -41.9920 C   0  0  0  0  0  0
  -25.4950  -11.7860  -42.1600 N   0  0  0  0  0  0
  -24.7020  -11.9340  -43.3460 C   0  0  0  0  0  0
  -25.4430  -12.6730  -44.4270 C   0  0  0  0  0  0
  -25.5560  -14.0490  -44.0380 O   0  0  0  0  0  0
  -26.3020  -14.9420  -44.7650 C   0  0  0  0  0  0
  -27.0160  -14.5550  -45.9090 C   0  0  0  0  0  0
  -27.7600  -15.5230  -46.6120 C   0  0  0  0  0  0
  -27.7580  -16.8310  -46.1340 C   0  0  0  0  0  0
  -27.0560  -17.1950  -44.9890 C   0  0  0  0  0  0
  -26.3240  -16.2550  -44.2920 C   0  0  0  0  0  0
  -25.4900  -16.6560  -43.0790 C   0  0  0  0  0  0
  -24.3450  -17.2680  -43.3770 N   0  0  0  0  0  0
  -23.3760  -17.7620  -42.3860 C   0  0  0  0  0  0
  -23.1190  -19.2620  -42.4700 C   0  0  0  0  0  0
  -22.3470  -19.6400  -43.7480 C   0  0  0  0  0  0
  -20.8740  -19.4160  -43.5890 C   0  0  0  0  0  0
  -19.9890  -20.1080  -44.6390 C   0  0  2  0  0  0
  -18.6700  -19.8140  -44.1960 N   0  0  0  0  0  0
  -17.9360  -20.6110  -43.4270 C   0  0  0  0  0  0
  -18.4000  -21.6560  -42.9410 O   0  0  0  0  0  0
  -16.6850  -20.2330  -43.1240 N   0  0  0  0  0  0
  -16.0720  -20.7560  -41.9040 C   0  0  2  0  0  0
  -17.0100  -20.6330  -40.7160 C   0  0  0  0  0  0
  -16.8790  -21.3930  -39.7350 O   0  0  0  0  0  0
  -17.9460  -19.7240  -40.7230 O   0  5  0  0  0  0
  -14.7510  -20.0260  -41.5190 C   0  0  0  0  0  0
  -15.0310  -18.5050  -41.3610 C   0  0  0  0  0  0
  -13.8740  -17.7570  -40.7820 C   0  0  0  0  0  0
  -13.7520  -16.5250  -41.0100 O   0  0  0  0  0  0
  -13.0050  -18.3740  -40.0110 O   0  5  0  0  0  0
  -20.2010  -19.4910  -45.9990 C   0  0  0  0  0  0
  -19.5930  -18.3650  -46.3010 O   0  5  0  0  0  0
  -20.7850  -20.0640  -46.9060 O   0  0  0  0  0  0
  -25.7690  -16.3900  -41.8950 O   0  0  0  0  0  0
  -27.0470  -10.6630  -40.6650 C   0  0  0  0  0  0
  -28.4690  -10.1190  -40.8510 C   0  0  0  0  0  0
  -29.0340   -9.8040  -39.5680 O   0  0  0  0  0  0
  -30.4800   -9.7890  -39.4980 C   0  0  0  0  0  0
  -31.0130   -8.7360  -38.5170 C   0  0  0  0  0  0
  -30.1370   -7.6070  -38.4180 O   0  0  0  0  0  0
  -25.4248  -12.5321  -41.3548 H   0  0  0  0  0  0
  -24.4303  -10.9403  -43.7318 H   0  0  0  0  0  0
  -23.7877  -12.4974  -43.1079 H   0  0  0  0  0  0
  -26.4436  -12.2335  -44.5518 H   0  0  0  0  0  0
  -24.8870  -12.5935  -45.3728 H   0  0  0  0  0  0
  -26.9954  -13.5197  -46.2492 H   0  0  0  0  0  0
  -28.3224  -15.2552  -47.5065 H   0  0  0  0  0  0
  -28.3229  -17.5919  -46.6725 H   0  0  0  0  0  0
  -27.0843  -18.2275  -44.6408 H   0  0  0  0  0  0
  -24.1457  -17.3942  -44.4514 H   0  0  0  0  0  0
  -22.4101  -17.2569  -42.5343 H   0  0  0  0  0  0
  -23.7482  -17.5512  -41.3726 H   0  0  0  0  0  0
  -22.5252  -19.5815  -41.6009 H   0  0  0  0  0  0
  -24.0791  -19.7988  -42.4753 H   0  0  0  0  0  0
  -22.5139  -20.7030  -43.9763 H   0  0  0  0  0  0
  -22.7032  -19.0245  -44.5872 H   0  0  0  0  0  0
  -20.6573  -18.3397  -43.6574 H   0  0  0  0  0  0
  -20.5494  -19.7937  -42.6082 H   0  0  0  0  0  0
  -20.1394  -21.1939  -44.7291 H   0  0  0  0  0  0
  -18.1889  -18.8695  -44.4898 H   0  0  0  0  0  0
  -16.1216  -19.5448  -43.7712 H   0  0  0  0  0  0
  -15.8962  -21.8078  -42.1738 H   0  0  0  0  0  0
  -14.3717  -20.4310  -40.5692 H   0  0  0  0  0  0
  -14.0020  -20.1822  -42.3093 H   0  0  0  0  0  0
  -15.2524  -18.0687  -42.3462 H   0  0  0  0  0  0
  -15.8925  -18.3582  -40.6930 H   0  0  0  0  0  0
  -27.1061  -11.6622  -40.2088 H   0  0  0  0  0  0
  -26.4930   -9.9871  -39.9970 H   0  0  0  0  0  0
  -28.4358   -9.2101  -41.4698 H   0  0  0  0  0  0
  -29.0901  -10.8786  -41.3482 H   0  0  0  0  0  0
  -30.8929   -9.5635  -40.4923 H   0  0  0  0  0  0
  -30.8413  -10.7734  -39.1656 H   0  0  0  0  0  0
  -31.9961   -8.3804  -38.8592 H   0  0  0  0  0  0
  -31.1127   -9.1835  -37.5171 H   0  0  0  0  0  0
  -30.3911   -6.7706  -37.7502 H   0  0  0  0  0  0
  1  2  2  0  0  0
  2  3  1  0  0  0
  2 37  1  0  0  0
  3  4  1  0  0  0
  3 43  1  0  0  0
  4  5  1  0  0  0
  4 44  1  0  0  0
  4 45  1  0  0  0
  5  6  1  0  0  0
  5 46  1  0  0  0
  5 47  1  0  0  0
  6  7  1  0  0  0
  7  8  2  0  0  0
  7 12  1  0  0  0
  8  9  1  0  0  0
  8 48  1  0  0  0
  9 10  2  0  0  0
  9 49  1  0  0  0
 10 11  1  0  0  0
 10 50  1  0  0  0
 11 12  2  0  0  0
 11 51  1  0  0  0
 12 13  1  0  0  0
 13 14  1  0  0  0
 13 36  2  0  0  0
 14 15  1  0  0  0
 14 52  1  0  0  0
 15 16  1  0  0  0
 15 53  1  0  0  0
 15 54  1  0  0  0
 16 17  1  0  0  0
 16 55  1  0  0  0
 16 56  1  0  0  0
 17 18  1  0  0  0
 17 57  1  0  0  0
 17 58  1  0  0  0
 18 19  1  0  0  0
 18 59  1  0  0  0
 18 60  1  0  0  0
 19 20  1  0  0  0
 19 33  1  0  0  0
 19 61  1  0  0  0
 20 21  1  0  0  0
 20 62  1  0  0  0
 21 22  2  0  0  0
 21 23  1  0  0  0
 23 24  1  0  0  0
 23 63  1  0  0  0
 24 25  1  0  0  0
 24 28  1  0  0  0
 24 64  1  0  0  0
 25 26  2  0  0  0
 25 27  1  0  0  0
 28 29  1  0  0  0
 28 65  1  0  0  0
 28 66  1  0  0  0
 29 30  1  0  0  0
 29 67  1  0  0  0
 29 68  1  0  0  0
 30 31  2  0  0  0
 30 32  1  0  0  0
 33 34  1  0  0  0
 33 35  2  0  0  0
 37 38  1  0  0  0
 37 69  1  0  0  0
 37 70  1  0  0  0
 38 39  1  0  0  0
 38 71  1  0  0  0
 38 72  1  0  0  0
 39 40  1  0  0  0
 40 41  1  0  0  0
 40 73  1  0  0  0
 40 74  1  0  0  0
 41 42  1  0  0  0
 41 75  1  0  0  0
 41 76  1  0  0  0
 42 77  1  0  0  0
M  CHG  3  27  -1  32  -1  34  -1
M  END
> <s_m_source_file>
../4ngp_ligand.sdf

> <i_m_source_file_index>
1

> <s_epik_input>
W09IXVtDSDJdW0NIMl1PW0NIMl1bQ0gyXUMoPU8pW05IXVtDSDJdW0NIMl1PYzFbY0hdW2NIXVtjSF1bY0hdYzFDKD1PKVtOSF1bQ0gyXVtDSDJdW0NIMl1bQ0gyXVtDQEBIXShDKD1PKVtPSF0pW05IXUMoPU8pW05IXVtDQEhdKEMoPU8pW09IXSlbQ0gyXVtDSDJdQyg9TylbT0hd

> <s_epik_cmdline>
J2VwaWtfYXBwJywgJy1pbWFlJywgJ2xpZ2FuZF9wcm8ubWFlJywgJy1vbWFlJywgJ2xpZ2FuZF9wcmVwLm1hZScsICctbXMnLCAnMScsICctcGgnLCAnNycsICctcGh0JywgJzAuNScsICctbnQn

> <r_lp_tautomer_probability>
1

> <r_epik_Ionization_Penalty>
  0.0077

> <r_epik_Ionization_Penalty_Charging>
  0.0077

> <r_epik_Ionization_Penalty_Neutral>
  0.0001

> <r_epik_State_Penalty>
 -0.0000

> <r_epik_Charging_Adjusted_Penalty>
0.00765228089539279

> <i_epik_Tot_Q>
-3

> <i_epik_Tot_abs_Q>
3

$$$$
