4ngq_ligand
                    3D
 Schrodinger Suite 2020-3.
 61 61  0  0  1  0            999 V2000
  -23.7000  -15.5120  -50.6330 Br  0  0  0  0  0  0
  -23.7080  -15.4870  -48.7010 C   0  0  0  0  0  0
  -23.9250  -16.6000  -47.8820 C   0  0  0  0  0  0
  -23.8630  -16.5130  -46.4740 C   0  0  0  0  0  0
  -23.4530  -14.3060  -48.0600 C   0  0  0  0  0  0
  -23.3890  -14.1910  -46.6810 C   0  0  0  0  0  0
  -23.5870  -15.2880  -45.8430 C   0  0  0  0  0  0
  -23.5010  -15.0790  -44.3320 C   0  0  0  0  0  0
  -23.8260  -16.3250  -43.6220 N   0  0  0  0  0  0
  -22.6670  -17.2040  -43.3870 C   0  0  0  0  0  0
  -22.9340  -18.5650  -42.6560 C   0  0  0  0  0  0
  -22.1540  -19.6930  -43.3460 C   0  0  0  0  0  0
  -20.6800  -19.5400  -43.1880 C   0  0  0  0  0  0
  -19.7630  -20.1250  -44.2730 C   0  0  2  0  0  0
  -18.4850  -19.7960  -43.6830 N   0  0  0  0  0  0
  -17.8550  -20.6210  -42.8350 C   0  0  0  0  0  0
  -18.3640  -21.6540  -42.3990 O   0  0  0  0  0  0
  -16.6690  -20.2260  -42.4330 N   0  0  0  0  0  0
  -16.0400  -20.6990  -41.2530 C   0  0  2  0  0  0
  -17.0130  -20.4940  -40.1730 C   0  0  0  0  0  0
  -17.8900  -19.5860  -40.1960 O   0  0  0  0  0  0
  -16.8830  -21.3590  -39.1970 O   0  5  0  0  0  0
  -14.7570  -19.9510  -40.9080 C   0  0  0  0  0  0
  -14.9660  -18.4090  -40.9880 C   0  0  0  0  0  0
  -13.8820  -17.6280  -40.2610 C   0  0  0  0  0  0
  -13.7340  -16.4050  -40.4230 O   0  0  0  0  0  0
  -13.0580  -18.2450  -39.4350 O   0  5  0  0  0  0
  -20.0370  -19.4440  -45.5900 C   0  0  0  0  0  0
  -19.5680  -18.2380  -45.7870 O   0  5  0  0  0  0
  -20.7800  -19.9030  -46.4280 O   0  0  0  0  0  0
  -25.1090  -16.5460  -43.2810 C   0  0  0  0  0  0
  -25.9910  -16.1540  -44.0190 O   0  0  0  0  0  0
  -25.5030  -17.2420  -41.9790 C   0  0  0  0  0  0
  -25.8450  -16.3380  -40.9210 C   0  0  0  0  0  0
  -24.1483  -17.5618  -48.3438 H   0  0  0  0  0  0
  -24.0309  -17.4050  -45.8704 H   0  0  0  0  0  0
  -23.2924  -13.4124  -48.6632 H   0  0  0  0  0  0
  -23.1783  -13.2171  -46.2391 H   0  0  0  0  0  0
  -22.4806  -14.7691  -44.0622 H   0  0  0  0  0  0
  -24.2137  -14.2979  -44.0287 H   0  0  0  0  0  0
  -22.2101  -17.4738  -44.3506 H   0  0  0  0  0  0
  -21.9277  -16.6777  -42.7653 H   0  0  0  0  0  0
  -22.6086  -18.4883  -41.6080 H   0  0  0  0  0  0
  -24.0092  -18.7948  -42.6902 H   0  0  0  0  0  0
  -22.4448  -20.6600  -42.9097 H   0  0  0  0  0  0
  -22.3832  -19.6924  -44.4219 H   0  0  0  0  0  0
  -20.4243  -18.4708  -43.1501 H   0  0  0  0  0  0
  -20.3586  -20.0271  -42.2555 H   0  0  0  0  0  0
  -19.8215  -21.1968  -44.5136 H   0  0  0  0  0  0
  -17.9967  -18.8407  -43.9258 H   0  0  0  0  0  0
  -16.1604  -19.4862  -43.0687 H   0  0  0  0  0  0
  -15.8032  -21.7577  -41.4349 H   0  0  0  0  0  0
  -14.4449  -20.2105  -39.8856 H   0  0  0  0  0  0
  -13.9650  -20.2353  -41.6164 H   0  0  0  0  0  0
  -14.9588  -18.0922  -42.0414 H   0  0  0  0  0  0
  -15.9321  -18.1458  -40.5326 H   0  0  0  0  0  0
  -26.3789  -17.8833  -42.1566 H   0  0  0  0  0  0
  -24.6636  -17.8579  -41.6239 H   0  0  0  0  0  0
  -26.1157  -16.9113  -40.0221 H   0  0  0  0  0  0
  -26.6986  -15.7172  -41.2308 H   0  0  0  0  0  0
  -24.9833  -15.6917  -40.6981 H   0  0  0  0  0  0
  1  2  1  0  0  0
  2  3  2  0  0  0
  2  5  1  0  0  0
  3  4  1  0  0  0
  3 35  1  0  0  0
  4  7  2  0  0  0
  4 36  1  0  0  0
  5  6  2  0  0  0
  5 37  1  0  0  0
  6  7  1  0  0  0
  6 38  1  0  0  0
  7  8  1  0  0  0
  8  9  1  0  0  0
  8 39  1  0  0  0
  8 40  1  0  0  0
  9 10  1  0  0  0
  9 31  1  0  0  0
 10 11  1  0  0  0
 10 41  1  0  0  0
 10 42  1  0  0  0
 11 12  1  0  0  0
 11 43  1  0  0  0
 11 44  1  0  0  0
 12 13  1  0  0  0
 12 45  1  0  0  0
 12 46  1  0  0  0
 13 14  1  0  0  0
 13 47  1  0  0  0
 13 48  1  0  0  0
 14 15  1  0  0  0
 14 28  1  0  0  0
 14 49  1  0  0  0
 15 16  1  0  0  0
 15 50  1  0  0  0
 16 17  2  0  0  0
 16 18  1  0  0  0
 18 19  1  0  0  0
 18 51  1  0  0  0
 19 20  1  0  0  0
 19 23  1  0  0  0
 19 52  1  0  0  0
 20 21  2  0  0  0
 20 22  1  0  0  0
 23 24  1  0  0  0
 23 53  1  0  0  0
 23 54  1  0  0  0
 24 25  1  0  0  0
 24 55  1  0  0  0
 24 56  1  0  0  0
 25 26  2  0  0  0
 25 27  1  0  0  0
 28 29  1  0  0  0
 28 30  2  0  0  0
 31 32  2  0  0  0
 31 33  1  0  0  0
 33 34  1  0  0  0
 33 57  1  0  0  0
 33 58  1  0  0  0
 34 59  1  0  0  0
 34 60  1  0  0  0
 34 61  1  0  0  0
M  CHG  3  22  -1  27  -1  29  -1
M  END
> <s_m_source_file>
../4ngq_ligand.sdf

> <i_m_source_file_index>
1

> <s_epik_input>
QnJjMVtjSF1bY0hdYyhbY0hdW2NIXTEpW0NIMl1OKEMoPU8pW0NIMl1bQ0gzXSlbQ0gyXVtDSDJdW0NIMl1bQ0gyXVtDQEBIXShDKD1PKVtPSF0pW05IXUMoPU8pW05IXVtDQEhdKEMoPU8pW09IXSlbQ0gyXVtDSDJdQyg9TylbT0hd

> <s_epik_cmdline>
J2VwaWtfYXBwJywgJy1pbWFlJywgJ2xpZ2FuZF9wcm8ubWFlJywgJy1vbWFlJywgJ2xpZ2FuZF9wcmVwLm1hZScsICctbXMnLCAnMScsICctcGgnLCAnNycsICctcGh0JywgJzAuNScsICctbnQn

> <r_lp_tautomer_probability>
1

> <r_epik_Ionization_Penalty>
  0.0077

> <r_epik_Ionization_Penalty_Charging>
  0.0077

> <r_epik_Ionization_Penalty_Neutral>
  0.0001

> <r_epik_State_Penalty>
 -0.0000

> <r_epik_Charging_Adjusted_Penalty>
0.00765587729548907

> <i_epik_Tot_Q>
-3

> <i_epik_Tot_abs_Q>
3

$$$$
