4ngr_ligand
                    3D
 Schrodinger Suite 2020-3.
 66 66  0  0  1  0            999 V2000
  -16.0550  -20.6490  -41.2720 C   0  0  2  0  0  0
  -14.7570  -19.9100  -40.8440 C   0  0  0  0  0  0
  -15.0050  -18.3930  -40.7670 C   0  0  0  0  0  0
  -13.8530  -17.6330  -40.1130 C   0  0  0  0  0  0
  -17.9140  -20.5640  -42.8330 C   0  0  0  0  0  0
  -19.9420  -20.0400  -44.0880 C   0  0  1  0  0  0
  -17.8970  -19.5490  -40.0670 O   0  0  0  0  0  0
  -13.7020  -16.4050  -40.3200 O   0  0  0  0  0  0
  -24.9890  -19.7740  -37.8850 O   0  0  0  0  0  0
  -25.2910  -19.4990  -39.0320 C   0  0  0  0  0  0
  -25.4690  -20.6440  -39.9910 C   0  0  0  0  0  0
  -25.4940  -18.2160  -39.4680 N   0  0  0  0  0  0
  -25.4030  -17.0370  -38.5790 C   0  0  0  0  0  0
  -25.7030  -15.6510  -39.1730 C   0  0  0  0  0  0
  -25.2710  -15.4200  -40.5480 O   0  0  0  0  0  0
  -25.3170  -14.1560  -41.1550 C   0  0  0  0  0  0
  -25.8260  -13.0500  -40.4670 C   0  0  0  0  0  0
  -25.8730  -11.7880  -41.0920 C   0  0  0  0  0  0
  -26.6550  -10.3740  -40.1150 Br  0  0  0  0  0  0
  -25.4030  -11.5530  -42.3750 C   0  0  0  0  0  0
  -24.9110  -12.6380  -43.0510 C   0  0  0  0  0  0
  -24.8720  -13.9280  -42.4660 C   0  0  0  0  0  0
  -24.2780  -15.0330  -43.2790 C   0  0  0  0  0  0
  -24.0080  -14.7930  -44.4700 O   0  0  0  0  0  0
  -24.0770  -16.2160  -42.6680 N   0  0  0  0  0  0
  -23.4780  -17.3820  -43.3170 C   0  0  0  0  0  0
  -23.1590  -18.5870  -42.4010 C   0  0  0  0  0  0
  -22.3080  -19.5350  -43.2520 C   0  0  0  0  0  0
  -20.8130  -19.3490  -43.0480 C   0  0  0  0  0  0
  -20.1500  -19.4710  -45.4420 C   0  0  0  0  0  0
  -19.6870  -18.2580  -45.6980 O   0  5  0  0  0  0
  -20.7080  -20.0710  -46.3060 O   0  0  0  0  0  0
  -18.6020  -19.8180  -43.6860 N   0  0  0  0  0  0
  -18.3510  -21.6250  -42.3200 O   0  0  0  0  0  0
  -16.7000  -20.1230  -42.4830 N   0  0  0  0  0  0
  -17.0220  -20.4680  -40.1240 C   0  0  0  0  0  0
  -16.8910  -21.3240  -39.1090 O   0  5  0  0  0  0
  -12.9940  -18.2550  -39.3160 O   0  5  0  0  0  0
  -15.8284  -21.6927  -41.5354 H   0  0  0  0  0  0
  -14.4381  -20.2718  -39.8554 H   0  0  0  0  0  0
  -13.9634  -20.1067  -41.5799 H   0  0  0  0  0  0
  -15.1369  -17.9910  -41.7824 H   0  0  0  0  0  0
  -15.9119  -18.1993  -40.1753 H   0  0  0  0  0  0
  -20.1325  -21.1215  -44.1522 H   0  0  0  0  0  0
  -25.2664  -21.5922  -39.4715 H   0  0  0  0  0  0
  -24.7693  -20.5299  -40.8321 H   0  0  0  0  0  0
  -26.5014  -20.6472  -40.3707 H   0  0  0  0  0  0
  -25.7345  -18.0843  -40.5333 H   0  0  0  0  0  0
  -26.1151  -17.1485  -37.7480 H   0  0  0  0  0  0
  -24.3816  -16.9578  -38.1784 H   0  0  0  0  0  0
  -26.7892  -15.4772  -39.1678 H   0  0  0  0  0  0
  -25.2051  -14.8778  -38.5695 H   0  0  0  0  0  0
  -26.1872  -13.1644  -39.4450 H   0  0  0  0  0  0
  -25.4239  -10.5589  -42.8215 H   0  0  0  0  0  0
  -24.5392  -12.5054  -44.0670 H   0  0  0  0  0  0
  -24.3943  -16.2744  -41.6164 H   0  0  0  0  0  0
  -24.1613  -17.7624  -44.0906 H   0  0  0  0  0  0
  -22.5233  -17.0933  -43.7809 H   0  0  0  0  0  0
  -22.6077  -18.2384  -41.5152 H   0  0  0  0  0  0
  -24.0975  -19.0652  -42.0840 H   0  0  0  0  0  0
  -22.5502  -20.5765  -42.9940 H   0  0  0  0  0  0
  -22.5207  -19.3622  -44.3173 H   0  0  0  0  0  0
  -20.5753  -19.7444  -42.0494 H   0  0  0  0  0  0
  -20.6201  -18.2663  -43.0690 H   0  0  0  0  0  0
  -18.0409  -18.9628  -44.0907 H   0  0  0  0  0  0
  -16.1850  -19.3699  -43.0976 H   0  0  0  0  0  0
  1  2  1  0  0  0
  1 35  1  0  0  0
  1 36  1  0  0  0
  1 39  1  0  0  0
  2  3  1  0  0  0
  2 40  1  0  0  0
  2 41  1  0  0  0
  3  4  1  0  0  0
  3 42  1  0  0  0
  3 43  1  0  0  0
  4  8  2  0  0  0
  4 38  1  0  0  0
  5 33  1  0  0  0
  5 34  2  0  0  0
  5 35  1  0  0  0
  6 29  1  0  0  0
  6 30  1  0  0  0
  6 33  1  0  0  0
  6 44  1  0  0  0
  7 36  2  0  0  0
  9 10  2  0  0  0
 10 11  1  0  0  0
 10 12  1  0  0  0
 11 45  1  0  0  0
 11 46  1  0  0  0
 11 47  1  0  0  0
 12 13  1  0  0  0
 12 48  1  0  0  0
 13 14  1  0  0  0
 13 49  1  0  0  0
 13 50  1  0  0  0
 14 15  1  0  0  0
 14 51  1  0  0  0
 14 52  1  0  0  0
 15 16  1  0  0  0
 16 17  2  0  0  0
 16 22  1  0  0  0
 17 18  1  0  0  0
 17 53  1  0  0  0
 18 19  1  0  0  0
 18 20  2  0  0  0
 20 21  1  0  0  0
 20 54  1  0  0  0
 21 22  2  0  0  0
 21 55  1  0  0  0
 22 23  1  0  0  0
 23 24  2  0  0  0
 23 25  1  0  0  0
 25 26  1  0  0  0
 25 56  1  0  0  0
 26 27  1  0  0  0
 26 57  1  0  0  0
 26 58  1  0  0  0
 27 28  1  0  0  0
 27 59  1  0  0  0
 27 60  1  0  0  0
 28 29  1  0  0  0
 28 61  1  0  0  0
 28 62  1  0  0  0
 29 63  1  0  0  0
 29 64  1  0  0  0
 30 31  1  0  0  0
 30 32  2  0  0  0
 33 65  1  0  0  0
 35 66  1  0  0  0
 36 37  1  0  0  0
M  CHG  3  31  -1  37  -1  38  -1
M  END
> <s_m_source_file>
../4ngr_ligand.sdf

> <i_m_source_file_index>
1

> <s_epik_input>
Tz1DKFtPSF0pW0NIMl1bQ0gyXVtDQEBIXShDKD1PKVtPSF0pW05IXUMoPU8pW05IXVtDQEhdKEMoPU8pW09IXSlbQ0gyXVtDSDJdW0NIMl1bQ0gyXVtOSF1DKD1PKWMxW2NIXVtjSF1jKEJyKVtjSF1jMU9bQ0gyXVtDSDJdW05IXUMoPU8pW0NIM10=

> <s_epik_cmdline>
J2VwaWtfYXBwJywgJy1pbWFlJywgJ2xpZ2FuZF9wcm8ubWFlJywgJy1vbWFlJywgJ2xpZ2FuZF9wcmVwLm1hZScsICctbXMnLCAnMScsICctcGgnLCAnNycsICctcGh0JywgJzAuNScsICctbnQn

> <r_lp_tautomer_probability>
1

> <r_epik_Ionization_Penalty>
  0.0077

> <r_epik_Ionization_Penalty_Charging>
  0.0077

> <r_epik_Ionization_Penalty_Neutral>
  0.0001

> <r_epik_State_Penalty>
 -0.0000

> <r_epik_Charging_Adjusted_Penalty>
0.00765116387776929

> <i_epik_Tot_Q>
-3

> <i_epik_Tot_abs_Q>
3

$$$$
