4ngs_ligand
                    3D
 Schrodinger Suite 2020-3.
 68 68  0  0  1  0            999 V2000
  -24.1750  -18.4860  -36.0780 O   0  0  0  0  0  0
  -24.8100  -17.4890  -36.4230 C   0  0  0  0  0  0
  -25.8130  -17.5360  -37.3480 N   0  0  0  0  0  0
  -26.2890  -18.7620  -37.9830 C   0  0  0  0  0  0
  -27.8090  -18.9050  -37.8870 C   0  0  0  0  0  0
  -28.3000  -19.3610  -36.5170 C   0  0  0  0  0  0
  -29.8420  -19.2570  -36.5150 C   0  0  0  0  0  0
  -30.6940  -19.9410  -35.4000 C   0  0  2  0  0  0
  -32.0680  -19.6790  -35.7570 N   0  0  0  0  0  0
  -32.7970  -20.4700  -36.5570 C   0  0  0  0  0  0
  -32.3170  -21.4820  -37.0460 O   0  0  0  0  0  0
  -34.0680  -20.1460  -36.8200 N   0  0  0  0  0  0
  -34.6540  -20.6790  -38.0450 C   0  0  2  0  0  0
  -33.6880  -20.4610  -39.1980 C   0  0  0  0  0  0
  -33.8460  -21.3030  -40.2110 O   0  5  0  0  0  0
  -32.8000  -19.6120  -39.2540 O   0  0  0  0  0  0
  -35.9850  -19.9690  -38.4110 C   0  0  0  0  0  0
  -35.7310  -18.4430  -38.5370 C   0  0  0  0  0  0
  -36.8730  -17.7170  -39.1980 C   0  0  0  0  0  0
  -37.7140  -18.2470  -39.9580 O   0  0  0  0  0  0
  -36.9810  -16.4230  -39.0040 O   0  5  0  0  0  0
  -30.5100  -19.3580  -34.0160 C   0  0  0  0  0  0
  -30.0100  -20.0140  -33.0820 O   0  0  0  0  0  0
  -31.0630  -18.2070  -33.7730 O   0  5  0  0  0  0
  -24.5120  -16.2790  -35.9120 N   0  0  0  0  0  0
  -23.7890  -15.9890  -34.7880 C   0  0  0  0  0  0
  -23.9490  -14.7260  -34.1940 C   0  0  0  0  0  0
  -23.2420  -14.3800  -33.0450 C   0  0  0  0  0  0
  -22.3410  -15.2980  -32.5040 C   0  0  0  0  0  0
  -22.1540  -16.5600  -33.0980 C   0  0  0  0  0  0
  -22.8750  -16.9100  -34.2380 C   0  0  0  0  0  0
  -24.8390  -13.8220  -34.7070 O   0  0  0  0  0  0
  -24.4770  -12.8550  -35.6900 C   0  0  0  0  0  0
  -25.7420  -12.1900  -36.2300 C   0  0  0  0  0  0
  -25.4880  -11.4450  -37.4480 N   0  0  0  0  0  0
  -25.0110  -11.9350  -38.6110 C   0  0  0  0  0  0
  -25.4040  -12.9770  -39.2030 O   0  0  0  0  0  0
  -23.9270  -11.0390  -39.1600 C   0  0  0  0  0  0
  -26.2691  -16.5693  -37.6077 H   0  0  0  0  0  0
  -26.0115  -18.7552  -39.0474 H   0  0  0  0  0  0
  -25.8306  -19.6320  -37.4901 H   0  0  0  0  0  0
  -28.2825  -17.9345  -38.0967 H   0  0  0  0  0  0
  -28.1545  -19.6478  -38.6211 H   0  0  0  0  0  0
  -27.9855  -20.4005  -36.3421 H   0  0  0  0  0  0
  -27.8709  -18.7123  -35.7391 H   0  0  0  0  0  0
  -30.1381  -18.1996  -36.4496 H   0  0  0  0  0  0
  -30.2401  -19.6925  -37.4434 H   0  0  0  0  0  0
  -30.4569  -21.0134  -35.3383 H   0  0  0  0  0  0
  -32.5770  -18.7855  -35.3664 H   0  0  0  0  0  0
  -34.6681  -19.5060  -36.1564 H   0  0  0  0  0  0
  -34.8154  -21.7457  -37.8303 H   0  0  0  0  0  0
  -36.3587  -20.3615  -39.3682 H   0  0  0  0  0  0
  -36.7290  -20.1557  -37.6226 H   0  0  0  0  0  0
  -35.5913  -18.0106  -37.5352 H   0  0  0  0  0  0
  -34.8275  -18.2702  -39.1401 H   0  0  0  0  0  0
  -24.8655  -15.3671  -36.4155 H   0  0  0  0  0  0
  -23.3902  -13.4074  -32.5757 H   0  0  0  0  0  0
  -21.7752  -15.0344  -31.6105 H   0  0  0  0  0  0
  -21.4439  -17.2650  -32.6656 H   0  0  0  0  0  0
  -22.7334  -17.8870  -34.7000 H   0  0  0  0  0  0
  -23.8260  -12.0946  -35.2340 H   0  0  0  0  0  0
  -23.9408  -13.3511  -36.5124 H   0  0  0  0  0  0
  -26.4958  -12.9603  -36.4500 H   0  0  0  0  0  0
  -26.1392  -11.4925  -35.4779 H   0  0  0  0  0  0
  -25.6875  -10.3638  -37.4831 H   0  0  0  0  0  0
  -23.7608  -10.1991  -38.4693 H   0  0  0  0  0  0
  -24.2347  -10.6507  -40.1421 H   0  0  0  0  0  0
  -22.9958  -11.6143  -39.2685 H   0  0  0  0  0  0
  1  2  2  0  0  0
  2  3  1  0  0  0
  2 25  1  0  0  0
  3  4  1  0  0  0
  3 39  1  0  0  0
  4  5  1  0  0  0
  4 40  1  0  0  0
  4 41  1  0  0  0
  5  6  1  0  0  0
  5 42  1  0  0  0
  5 43  1  0  0  0
  6  7  1  0  0  0
  6 44  1  0  0  0
  6 45  1  0  0  0
  7  8  1  0  0  0
  7 46  1  0  0  0
  7 47  1  0  0  0
  8  9  1  0  0  0
  8 22  1  0  0  0
  8 48  1  0  0  0
  9 10  1  0  0  0
  9 49  1  0  0  0
 10 11  2  0  0  0
 10 12  1  0  0  0
 12 13  1  0  0  0
 12 50  1  0  0  0
 13 14  1  0  0  0
 13 17  1  0  0  0
 13 51  1  0  0  0
 14 15  1  0  0  0
 14 16  2  0  0  0
 17 18  1  0  0  0
 17 52  1  0  0  0
 17 53  1  0  0  0
 18 19  1  0  0  0
 18 54  1  0  0  0
 18 55  1  0  0  0
 19 20  2  0  0  0
 19 21  1  0  0  0
 22 23  2  0  0  0
 22 24  1  0  0  0
 25 26  1  0  0  0
 25 56  1  0  0  0
 26 27  2  0  0  0
 26 31  1  0  0  0
 27 28  1  0  0  0
 27 32  1  0  0  0
 28 29  2  0  0  0
 28 57  1  0  0  0
 29 30  1  0  0  0
 29 58  1  0  0  0
 30 31  2  0  0  0
 30 59  1  0  0  0
 31 60  1  0  0  0
 32 33  1  0  0  0
 33 34  1  0  0  0
 33 61  1  0  0  0
 33 62  1  0  0  0
 34 35  1  0  0  0
 34 63  1  0  0  0
 34 64  1  0  0  0
 35 36  1  0  0  0
 35 65  1  0  0  0
 36 37  2  0  0  0
 36 38  1  0  0  0
 38 66  1  0  0  0
 38 67  1  0  0  0
 38 68  1  0  0  0
M  CHG  3  15  -1  21  -1  24  -1
M  END
> <s_m_source_file>
../4ngs_ligand.sdf

> <i_m_source_file_index>
1

> <s_epik_input>
Tz1DKFtDSDNdKVtOSF1bQ0gyXVtDSDJdT2MoW2NIXVtjSF1bY0hdW2NIXTEpYzFbTkhdQyg9TylbTkhdW0NIMl1bQ0gyXVtDSDJdW0NIMl1bQ0BASF0oQyg9TylbT0hdKVtOSF1DKD1PKVtOSF1bQ0BIXShDKD1PKVtPSF0pW0NIMl1bQ0gyXUMoPU8pW09IXQ==

> <s_epik_cmdline>
J2VwaWtfYXBwJywgJy1pbWFlJywgJ2xpZ2FuZF9wcm8ubWFlJywgJy1vbWFlJywgJ2xpZ2FuZF9wcmVwLm1hZScsICctbXMnLCAnMScsICctcGgnLCAnNycsICctcGh0JywgJzAuNScsICctbnQn

> <r_lp_tautomer_probability>
1

> <r_epik_Ionization_Penalty>
  0.0078

> <r_epik_Ionization_Penalty_Charging>
  0.0077

> <r_epik_Ionization_Penalty_Neutral>
  0.0001

> <r_epik_State_Penalty>
 -0.0000

> <r_epik_Charging_Adjusted_Penalty>
0.00766300243192473

> <i_epik_Tot_Q>
-3

> <i_epik_Tot_abs_Q>
3

$$$$
