4ngt_ligand
                    3D
 Schrodinger Suite 2020-3.
 68 68  0  0  1  0            999 V2000
  -24.7050  -13.5270  -43.7720 O   0  0  0  0  0  0
  -25.0480  -12.3470  -43.7320 C   0  0  0  0  0  0
  -25.3560  -11.6110  -44.8260 N   0  0  0  0  0  0
  -25.3970  -12.1270  -46.2030 C   0  0  0  0  0  0
  -26.7910  -12.6310  -46.6080 C   0  0  0  0  0  0
  -26.7290  -13.9510  -47.1690 O   0  0  0  0  0  0
  -27.6560  -14.9580  -46.8990 C   0  0  0  0  0  0
  -27.3480  -15.9730  -45.9820 C   0  0  0  0  0  0
  -26.1450  -15.9830  -45.3400 N   0  0  0  0  0  0
  -25.8520  -16.9800  -44.4880 C   0  0  0  0  0  0
  -26.6710  -17.8610  -44.2690 O   0  0  0  0  0  0
  -24.6650  -17.0060  -43.8630 N   0  0  0  0  0  0
  -24.3400  -18.0410  -42.8780 C   0  0  0  0  0  0
  -22.8490  -18.3370  -42.6970 C   0  0  0  0  0  0
  -22.2680  -19.3700  -43.6850 C   0  0  0  0  0  0
  -20.7400  -19.3820  -43.5320 C   0  0  0  0  0  0
  -19.9290  -20.1150  -44.6000 C   0  0  2  0  0  0
  -18.5180  -20.0080  -44.2380 N   0  0  0  0  0  0
  -17.8830  -20.7100  -43.3070 C   0  0  0  0  0  0
  -18.3870  -21.6090  -42.6540 O   0  0  0  0  0  0
  -16.6580  -20.3230  -43.0150 N   0  0  0  0  0  0
  -16.0330  -20.7740  -41.8030 C   0  0  2  0  0  0
  -17.0180  -20.5740  -40.7020 C   0  0  0  0  0  0
  -17.8520  -19.6640  -40.7780 O   0  0  0  0  0  0
  -16.9140  -21.3390  -39.6160 O   0  5  0  0  0  0
  -14.7420  -20.0050  -41.4450 C   0  0  0  0  0  0
  -14.9490  -18.5050  -41.4330 C   0  0  0  0  0  0
  -13.8720  -17.7220  -40.6910 C   0  0  0  0  0  0
  -13.0510  -18.2220  -39.9000 O   0  0  0  0  0  0
  -13.8250  -16.4030  -40.8840 O   0  5  0  0  0  0
  -20.1360  -19.4870  -45.9440 C   0  0  0  0  0  0
  -19.7040  -18.2530  -46.1070 O   0  5  0  0  0  0
  -20.6370  -20.0670  -46.8950 O   0  0  0  0  0  0
  -28.2770  -17.0040  -45.7310 C   0  0  0  0  0  0
  -29.5180  -17.0390  -46.3700 C   0  0  0  0  0  0
  -28.9090  -15.0030  -47.5540 C   0  0  0  0  0  0
  -29.8400  -16.0330  -47.2860 C   0  0  0  0  0  0
  -31.5350  -16.0830  -48.1460 Br  0  0  0  0  0  0
  -25.1740  -11.6370  -42.4090 C   0  0  0  0  0  0
  -25.5863  -10.5538  -44.6277 H   0  0  0  0  0  0
  -25.1121  -11.3275  -46.9028 H   0  0  0  0  0  0
  -24.6941  -12.9675  -46.3007 H   0  0  0  0  0  0
  -27.4425  -12.6588  -45.7221 H   0  0  0  0  0  0
  -27.2222  -11.9528  -47.3591 H   0  0  0  0  0  0
  -25.4186  -15.1769  -45.5204 H   0  0  0  0  0  0
  -23.9279  -16.2262  -44.1051 H   0  0  0  0  0  0
  -24.7173  -17.7383  -41.8901 H   0  0  0  0  0  0
  -24.8099  -18.9902  -43.1749 H   0  0  0  0  0  0
  -22.2721  -17.4103  -42.8327 H   0  0  0  0  0  0
  -22.6739  -18.7332  -41.6859 H   0  0  0  0  0  0
  -22.6766  -20.3655  -43.4570 H   0  0  0  0  0  0
  -22.5408  -19.0882  -44.7127 H   0  0  0  0  0  0
  -20.3627  -18.3488  -43.5390 H   0  0  0  0  0  0
  -20.4705  -19.8643  -42.5808 H   0  0  0  0  0  0
  -20.2130  -21.1759  -44.6621 H   0  0  0  0  0  0
  -17.8697  -19.2879  -44.7587 H   0  0  0  0  0  0
  -16.1139  -19.6549  -43.6988 H   0  0  0  0  0  0
  -15.7953  -21.8321  -41.9871 H   0  0  0  0  0  0
  -14.3996  -20.3089  -40.4448 H   0  0  0  0  0  0
  -13.9613  -20.2345  -42.1852 H   0  0  0  0  0  0
  -14.9622  -18.1284  -42.4664 H   0  0  0  0  0  0
  -15.9067  -18.2709  -40.9452 H   0  0  0  0  0  0
  -28.0204  -17.7913  -45.0222 H   0  0  0  0  0  0
  -30.2262  -17.8399  -46.1576 H   0  0  0  0  0  0
  -29.1616  -14.2292  -48.2789 H   0  0  0  0  0  0
  -24.9010  -12.3257  -41.5959 H   0  0  0  0  0  0
  -26.2120  -11.3000  -42.2711 H   0  0  0  0  0  0
  -24.5010  -10.7670  -42.3942 H   0  0  0  0  0  0
  1  2  2  0  0  0
  2  3  1  0  0  0
  2 39  1  0  0  0
  3  4  1  0  0  0
  3 40  1  0  0  0
  4  5  1  0  0  0
  4 41  1  0  0  0
  4 42  1  0  0  0
  5  6  1  0  0  0
  5 43  1  0  0  0
  5 44  1  0  0  0
  6  7  1  0  0  0
  7  8  2  0  0  0
  7 36  1  0  0  0
  8  9  1  0  0  0
  8 34  1  0  0  0
  9 10  1  0  0  0
  9 45  1  0  0  0
 10 11  2  0  0  0
 10 12  1  0  0  0
 12 13  1  0  0  0
 12 46  1  0  0  0
 13 14  1  0  0  0
 13 47  1  0  0  0
 13 48  1  0  0  0
 14 15  1  0  0  0
 14 49  1  0  0  0
 14 50  1  0  0  0
 15 16  1  0  0  0
 15 51  1  0  0  0
 15 52  1  0  0  0
 16 17  1  0  0  0
 16 53  1  0  0  0
 16 54  1  0  0  0
 17 18  1  0  0  0
 17 31  1  0  0  0
 17 55  1  0  0  0
 18 19  1  0  0  0
 18 56  1  0  0  0
 19 20  2  0  0  0
 19 21  1  0  0  0
 21 22  1  0  0  0
 21 57  1  0  0  0
 22 23  1  0  0  0
 22 26  1  0  0  0
 22 58  1  0  0  0
 23 24  2  0  0  0
 23 25  1  0  0  0
 26 27  1  0  0  0
 26 59  1  0  0  0
 26 60  1  0  0  0
 27 28  1  0  0  0
 27 61  1  0  0  0
 27 62  1  0  0  0
 28 29  2  0  0  0
 28 30  1  0  0  0
 31 32  1  0  0  0
 31 33  2  0  0  0
 34 35  2  0  0  0
 34 63  1  0  0  0
 35 37  1  0  0  0
 35 64  1  0  0  0
 36 37  2  0  0  0
 36 65  1  0  0  0
 37 38  1  0  0  0
 39 66  1  0  0  0
 39 67  1  0  0  0
 39 68  1  0  0  0
M  CHG  3  25  -1  30  -1  32  -1
M  END
> <s_m_source_file>
../4ngt_ligand.sdf

> <i_m_source_file_index>
1

> <s_epik_input>
Tz1DKFtDSDNdKVtOSF1bQ0gyXVtDSDJdT2MxYyhbY0hdW2NIXWMoQnIpW2NIXTEpW05IXUMoPU8pW05IXVtDSDJdW0NIMl1bQ0gyXVtDSDJdW0NAQEhdKEMoPU8pW09IXSlbTkhdQyg9TylbTkhdW0NASF0oQyg9TylbT0hdKVtDSDJdW0NIMl1DKD1PKVtPSF0=

> <s_epik_cmdline>
J2VwaWtfYXBwJywgJy1pbWFlJywgJ2xpZ2FuZF9wcm8ubWFlJywgJy1vbWFlJywgJ2xpZ2FuZF9wcmVwLm1hZScsICctbXMnLCAnMScsICctcGgnLCAnNycsICctcGh0JywgJzAuNScsICctbnQn

> <r_lp_tautomer_probability>
1

> <r_epik_Ionization_Penalty>
  0.0078

> <r_epik_Ionization_Penalty_Charging>
  0.0077

> <r_epik_Ionization_Penalty_Neutral>
  0.0001

> <r_epik_State_Penalty>
 -0.0000

> <r_epik_Charging_Adjusted_Penalty>
0.00766300243192473

> <i_epik_Tot_Q>
-3

> <i_epik_Tot_abs_Q>
3

$$$$
