4nh7_ligand
                    3D
 Schrodinger Suite 2020-3.
 60 63  0  0  1  0            999 V2000
   17.0510    7.7530   14.3260 C   0  0  1  0  0  0
   18.0480   10.0130   15.0560 C   0  0  0  0  0  0
   18.7670   11.1650   14.6590 C   0  0  0  0  0  0
   20.3350   12.1020   13.0440 N   0  0  0  0  0  0
   18.6360   12.0180   16.9200 C   0  0  0  0  0  0
   18.5220   10.9760   12.3110 O   0  0  0  0  0  0
   17.7590    9.0130   14.1260 N   0  0  0  0  0  0
   17.3120   10.8520   18.6000 N   0  0  0  0  0  0
   17.8980   10.9080   17.3040 C   0  0  0  0  0  0
   17.6210    9.8950   16.3850 C   0  0  0  0  0  0
   17.4000    9.6860   19.3620 N   0  0  0  0  0  0
   16.8200    5.3870   13.4900 C   0  0  0  0  0  0
   15.3190    5.5560   13.3390 C   0  0  2  0  0  0
   14.7710    6.6000   14.3030 C   0  0  0  0  0  0
   15.5390    7.9410   14.2180 C   0  0  0  0  0  0
   16.7020    9.9570   20.4520 C   0  0  0  0  0  0
   16.1740   11.2740   20.4310 C   0  0  0  0  0  0
   16.5750   11.8090   19.2240 C   0  0  0  0  0  0
   15.0300   13.4800   20.9470 C   0  0  0  0  0  0
   13.6630   13.0200   18.8860 C   0  0  0  0  0  0
   19.0590   12.1460   15.6130 C   0  0  0  0  0  0
   17.1040    7.7430   21.1240 F   0  0  0  0  0  0
   14.8660   11.5470   22.3620 O   0  0  0  0  0  0
   17.1100    9.2150   22.6110 F   0  0  0  0  0  0
   15.3050    8.6840   21.7970 F   0  0  0  0  0  0
   14.7020    4.2810   13.5950 O   0  0  0  0  0  0
   19.2110   11.4010   13.2450 C   0  0  0  0  0  0
   17.5420    6.7180   13.3250 C   0  0  0  0  0  0
   16.1690   13.1730   18.7520 C   0  0  0  0  0  0
   14.9090   13.7230   19.4330 C   0  0  0  0  0  0
   15.3330   12.0460   21.3380 C   0  0  0  0  0  0
   14.7920   15.2130   19.1430 C   0  0  0  0  0  0
   16.5520    8.8940   21.4930 C   0  0  0  0  0  0
   17.2956    7.4303   15.3488 H   0  0  0  0  0  0
   20.9196   12.4623   13.9033 H   0  0  0  0  0  0
   20.6732   12.3172   12.0197 H   0  0  0  0  0  0
   18.8816   12.7888   17.6505 H   0  0  0  0  0  0
   18.1453    9.2747   13.1299 H   0  0  0  0  0  0
   17.0707    9.0092   16.7022 H   0  0  0  0  0  0
   17.0452    4.9866   14.4895 H   0  0  0  0  0  0
   17.1894    4.6895   12.7238 H   0  0  0  0  0  0
   15.0671    5.8559   12.3111 H   0  0  0  0  0  0
   13.7148    6.7976   14.0678 H   0  0  0  0  0  0
   14.8532    6.2259   15.3342 H   0  0  0  0  0  0
   15.1901    8.5852   15.0386 H   0  0  0  0  0  0
   15.2959    8.4114   13.2538 H   0  0  0  0  0  0
   15.8436   14.0985   21.3537 H   0  0  0  0  0  0
   14.0836   13.7497   21.4385 H   0  0  0  0  0  0
   13.7324   11.9409   19.0880 H   0  0  0  0  0  0
   13.5949   13.1863   17.8008 H   0  0  0  0  0  0
   12.7669   13.4279   19.3764 H   0  0  0  0  0  0
   19.6304   13.0263   15.3186 H   0  0  0  0  0  0
   14.9786    3.4048   12.9902 H   0  0  0  0  0  0
   17.3645    7.0835   12.3028 H   0  0  0  0  0  0
   18.6188    6.5480   13.4717 H   0  0  0  0  0  0
   16.9819   13.8869   18.9510 H   0  0  0  0  0  0
   15.9650   13.1415   17.6715 H   0  0  0  0  0  0
   13.8896   15.6115   19.6296 H   0  0  0  0  0  0
   14.7228   15.3707   18.0566 H   0  0  0  0  0  0
   15.6791   15.7333   19.5333 H   0  0  0  0  0  0
  1  7  1  0  0  0
  1 15  1  0  0  0
  1 28  1  0  0  0
  1 34  1  0  0  0
  2  3  2  0  0  0
  2  7  1  0  0  0
  2 10  1  0  0  0
  3 21  1  0  0  0
  3 27  1  0  0  0
  4 27  1  0  0  0
  4 35  1  0  0  0
  4 36  1  0  0  0
  5  9  1  0  0  0
  5 21  2  0  0  0
  5 37  1  0  0  0
  6 27  2  0  0  0
  7 38  1  0  0  0
  8  9  1  0  0  0
  8 11  1  0  0  0
  8 18  1  0  0  0
  9 10  2  0  0  0
 10 39  1  0  0  0
 11 16  2  0  0  0
 12 13  1  0  0  0
 12 28  1  0  0  0
 12 40  1  0  0  0
 12 41  1  0  0  0
 13 14  1  0  0  0
 13 26  1  0  0  0
 13 42  1  0  0  0
 14 15  1  0  0  0
 14 43  1  0  0  0
 14 44  1  0  0  0
 15 45  1  0  0  0
 15 46  1  0  0  0
 16 17  1  0  0  0
 16 33  1  0  0  0
 17 18  2  0  0  0
 17 31  1  0  0  0
 18 29  1  0  0  0
 19 30  1  0  0  0
 19 31  1  0  0  0
 19 47  1  0  0  0
 19 48  1  0  0  0
 20 30  1  0  0  0
 20 49  1  0  0  0
 20 50  1  0  0  0
 20 51  1  0  0  0
 21 52  1  0  0  0
 22 33  1  0  0  0
 23 31  2  0  0  0
 24 33  1  0  0  0
 25 33  1  0  0  0
 26 53  1  0  0  0
 28 54  1  0  0  0
 28 55  1  0  0  0
 29 30  1  0  0  0
 29 56  1  0  0  0
 29 57  1  0  0  0
 30 32  1  0  0  0
 32 58  1  0  0  0
 32 59  1  0  0  0
 32 60  1  0  0  0
M  END
> <s_m_source_file>
../4nh7_ligand.sdf

> <i_m_source_file_index>
1

> <s_epik_input>
W0NIMl0xW0NIMl1bQ0BASF0oW09IXSlbQ0gyXVtDSDJdW0NAQEhdMVtOSF1jMmMoQyg9TylbTkgyXSlbY0hdW2NIXWMoW2NIXTIpLW4obmMzQyhGKShGKUYpYyhjMzQpW0NIMl1DKFtDSDNdKShbQ0gzXSlbQ0gyXUM0PU8=

> <s_epik_cmdline>
J2VwaWtfYXBwJywgJy1pbWFlJywgJ2xpZ2FuZF9wcm8ubWFlJywgJy1vbWFlJywgJ2xpZ2FuZF9wcmVwLm1hZScsICctbXMnLCAnMScsICctcGgnLCAnNycsICctcGh0JywgJzAuNScsICctbnQn

> <r_lp_tautomer_probability>
1

> <r_epik_Ionization_Penalty>
  0.0000

> <r_epik_Ionization_Penalty_Charging>
  0.0000

> <r_epik_Ionization_Penalty_Neutral>
  0.0000

> <r_epik_State_Penalty>
 -0.0000

> <r_epik_Charging_Adjusted_Penalty>
0

> <i_epik_Tot_Q>
0

> <i_epik_Tot_abs_Q>
0

$$$$
