4nh8_ligand
                    3D
 Schrodinger Suite 2020-3.
 55 58  0  0  1  0            999 V2000
    7.4470   -9.6830  -23.1330 C   0  0  0  0  0  0
    6.3280  -10.6220  -23.5090 C   0  0  0  0  0  0
    5.0080  -10.3310  -23.4230 C   0  0  0  0  0  0
    4.2540  -11.4000  -23.8810 N   0  0  0  0  0  0
    5.1330  -12.4000  -24.2770 C   0  0  0  0  0  0
    6.4200  -11.9530  -24.0430 C   0  0  0  0  0  0
    7.5400  -12.8590  -24.3470 C   0  0  0  0  0  0
    8.7060  -12.4950  -24.2430 O   0  0  0  0  0  0
    7.2050  -14.2510  -24.8360 C   0  0  0  0  0  0
    5.9300  -14.3570  -25.6890 C   0  0  0  0  0  0
    6.1340  -13.6410  -27.0270 C   0  0  0  0  0  0
    5.5980  -15.8210  -25.9640 C   0  0  0  0  0  0
    4.7770  -13.7120  -24.9110 C   0  0  0  0  0  0
    2.8290  -11.3650  -24.0850 C   0  0  0  0  0  0
    2.2450  -10.2000  -24.5790 C   0  0  0  0  0  0
    0.8640  -10.1470  -24.7980 C   0  0  0  0  0  0
    0.2810   -8.9720  -25.2250 N   0  0  0  0  0  0
    0.9560   -7.7370  -25.6140 C   0  0  1  0  0  0
    1.4950   -7.8480  -27.0460 C   0  0  0  0  0  0
    0.2750   -7.5190  -27.8950 C   0  0  0  0  0  0
   -0.6060   -6.7610  -27.0440 O   0  0  0  0  0  0
   -0.0390   -6.6070  -25.7430 C   0  0  0  0  0  0
    0.0690  -11.3080  -24.5330 C   0  0  0  0  0  0
   -1.4170  -11.3160  -24.8180 C   0  0  0  0  0  0
   -1.7940  -10.6550  -25.8860 N   0  0  0  0  0  0
   -2.2230  -11.9490  -24.1040 O   0  0  0  0  0  0
    0.7170  -12.4430  -24.0570 C   0  0  0  0  0  0
   -0.0210  -13.5650  -23.8740 F   0  0  0  0  0  0
    2.0610  -12.4990  -23.8000 C   0  0  0  0  0  0
    7.0236   -8.7409  -22.7548 H   0  0  0  0  0  0
    8.0662   -9.4773  -24.0186 H   0  0  0  0  0  0
    8.0672  -10.1461  -22.3514 H   0  0  0  0  0  0
    4.5984   -9.3930  -23.0483 H   0  0  0  0  0  0
    8.0297  -14.6295  -25.4578 H   0  0  0  0  0  0
    7.0604  -14.9178  -23.9732 H   0  0  0  0  0  0
    6.9633  -14.1141  -27.5733 H   0  0  0  0  0  0
    6.3719  -12.5827  -26.8440 H   0  0  0  0  0  0
    5.2134  -13.7118  -27.6248 H   0  0  0  0  0  0
    6.4241  -16.2857  -26.5222 H   0  0  0  0  0  0
    4.6741  -15.8821  -26.5578 H   0  0  0  0  0  0
    5.4565  -16.3503  -25.0102 H   0  0  0  0  0  0
    4.4705  -14.4248  -24.1313 H   0  0  0  0  0  0
    3.9481  -13.5642  -25.6189 H   0  0  0  0  0  0
    2.8645   -9.3295  -24.7949 H   0  0  0  0  0  0
   -0.8169   -9.0318  -25.2556 H   0  0  0  0  0  0
    1.7132   -7.5924  -24.8293 H   0  0  0  0  0  0
    2.3150   -7.1282  -27.1859 H   0  0  0  0  0  0
    1.8689   -8.8679  -27.2190 H   0  0  0  0  0  0
    0.5858   -6.9307  -28.7710 H   0  0  0  0  0  0
   -0.2010   -8.4523  -28.2302 H   0  0  0  0  0  0
   -0.8008   -6.6975  -24.9547 H   0  0  0  0  0  0
    0.4836   -5.6446  -25.6391 H   0  0  0  0  0  0
   -1.0506  -10.1106  -26.4868 H   0  0  0  0  0  0
   -2.8536  -10.6450  -26.1811 H   0  0  0  0  0  0
    2.5177  -13.3983  -23.3867 H   0  0  0  0  0  0
  1  2  1  0  0  0
  1 30  1  0  0  0
  1 31  1  0  0  0
  1 32  1  0  0  0
  2  3  2  0  0  0
  2  6  1  0  0  0
  3  4  1  0  0  0
  3 33  1  0  0  0
  4  5  1  0  0  0
  4 14  1  0  0  0
  5  6  2  0  0  0
  5 13  1  0  0  0
  6  7  1  0  0  0
  7  8  2  0  0  0
  7  9  1  0  0  0
  9 10  1  0  0  0
  9 34  1  0  0  0
  9 35  1  0  0  0
 10 11  1  0  0  0
 10 12  1  0  0  0
 10 13  1  0  0  0
 11 36  1  0  0  0
 11 37  1  0  0  0
 11 38  1  0  0  0
 12 39  1  0  0  0
 12 40  1  0  0  0
 12 41  1  0  0  0
 13 42  1  0  0  0
 13 43  1  0  0  0
 14 15  2  0  0  0
 14 29  1  0  0  0
 15 16  1  0  0  0
 15 44  1  0  0  0
 16 17  1  0  0  0
 16 23  2  0  0  0
 17 18  1  0  0  0
 17 45  1  0  0  0
 18 19  1  0  0  0
 18 22  1  0  0  0
 18 46  1  0  0  0
 19 20  1  0  0  0
 19 47  1  0  0  0
 19 48  1  0  0  0
 20 21  1  0  0  0
 20 49  1  0  0  0
 20 50  1  0  0  0
 21 22  1  0  0  0
 22 51  1  0  0  0
 22 52  1  0  0  0
 23 24  1  0  0  0
 23 27  1  0  0  0
 24 25  1  0  0  0
 24 26  2  0  0  0
 25 53  1  0  0  0
 25 54  1  0  0  0
 27 28  1  0  0  0
 27 29  2  0  0  0
 29 55  1  0  0  0
M  END
> <s_m_source_file>
../4nh8_ligand.sdf

> <i_m_source_file_index>
1

> <s_epik_input>
W0NIM11DKFtDSDNdKShbQ0gyXTEpW0NIMl1DKD1PKWMoYzEyKWMoW0NIM10pW2NIXW4yLWMzW2NIXWMoYyhDKD1PKVtOSDJdKWMoRilbY0hdMylbTkhdW0NASF00W0NIMl1bQ0gyXU9bQ0gyXTQ=

> <s_epik_cmdline>
J2VwaWtfYXBwJywgJy1pbWFlJywgJ2xpZ2FuZF9wcm8ubWFlJywgJy1vbWFlJywgJ2xpZ2FuZF9wcmVwLm1hZScsICctbXMnLCAnMScsICctcGgnLCAnNycsICctcGh0JywgJzAuNScsICctbnQn

> <r_lp_tautomer_probability>
1

> <r_epik_Ionization_Penalty>
  0.0000

> <r_epik_Ionization_Penalty_Charging>
  0.0000

> <r_epik_Ionization_Penalty_Neutral>
  0.0000

> <r_epik_State_Penalty>
 -0.0000

> <r_epik_Charging_Adjusted_Penalty>
0

> <i_epik_Tot_Q>
0

> <i_epik_Tot_abs_Q>
0

$$$$
