4nh9_ligand
                    3D
 Schrodinger Suite 2020-3.
 55 58  0  0  1  0            999 V2000
  -18.4650  -37.8630   -9.5180 C   0  0  0  0  0  0
  -18.7250  -36.6660   -8.6360 C   0  0  0  0  0  0
  -18.4300  -35.3890   -8.9660 C   0  0  0  0  0  0
  -18.7690  -34.5440   -7.9370 N   0  0  0  0  0  0
  -19.3250  -35.2580   -6.9310 C   0  0  0  0  0  0
  -19.3080  -36.6120   -7.2890 C   0  0  0  0  0  0
  -19.8560  -37.6540   -6.3750 C   0  0  0  0  0  0
  -19.9310  -38.8170   -6.7030 O   0  0  0  0  0  0
  -20.3570  -37.2340   -4.9770 C   0  0  0  0  0  0
  -20.7850  -35.7490   -4.8480 C   0  0  0  0  0  0
  -22.2200  -35.5170   -5.3230 C   0  0  0  0  0  0
  -20.7220  -35.3160   -3.3860 C   0  0  0  0  0  0
  -19.8670  -34.7760   -5.5870 C   0  0  0  0  0  0
  -18.6650  -33.1380   -7.9460 C   0  0  0  0  0  0
  -19.3240  -32.3980   -8.9460 C   0  0  0  0  0  0
  -19.2980  -30.9850   -8.9530 C   0  0  0  0  0  0
  -19.9150  -30.2070   -9.9520 N   0  0  0  0  0  0
  -20.6580  -30.6730  -11.1310 C   0  0  1  0  0  0
  -22.1800  -30.6200  -10.8580 C   0  0  0  0  0  0
  -22.7090  -30.3750  -12.2920 C   0  0  0  0  0  0
  -21.7830  -29.3970  -12.8200 O   0  0  0  0  0  0
  -20.4680  -29.6920  -12.3030 C   0  0  0  0  0  0
  -18.6010  -30.3220   -7.8890 C   0  0  0  0  0  0
  -18.5470  -28.8480   -7.7840 C   0  0  0  0  0  0
  -17.4350  -28.1910   -7.3900 N   0  0  0  0  0  0
  -19.5520  -28.2200   -8.0320 O   0  0  0  0  0  0
  -17.9840  -31.0860   -6.8690 C   0  0  0  0  0  0
  -17.3310  -30.4810   -5.8620 F   0  0  0  0  0  0
  -17.9940  -32.4620   -6.9110 C   0  0  0  0  0  0
  -18.0161  -37.5298  -10.4653 H   0  0  0  0  0  0
  -19.4140  -38.3799   -9.7237 H   0  0  0  0  0  0
  -17.7755  -38.5516   -9.0077 H   0  0  0  0  0  0
  -17.9874  -35.0750   -9.9113 H   0  0  0  0  0  0
  -21.2355  -37.8379   -4.7056 H   0  0  0  0  0  0
  -19.5587  -37.3952   -4.2377 H   0  0  0  0  0  0
  -22.8957  -36.2101   -4.8005 H   0  0  0  0  0  0
  -22.2804  -35.6934   -6.4071 H   0  0  0  0  0  0
  -22.5160  -34.4807   -5.1030 H   0  0  0  0  0  0
  -21.3631  -35.9739   -2.7808 H   0  0  0  0  0  0
  -21.0733  -34.2775   -3.2957 H   0  0  0  0  0  0
  -19.6842  -35.3845   -3.0277 H   0  0  0  0  0  0
  -19.0281  -34.5700   -4.9059 H   0  0  0  0  0  0
  -20.4524  -33.8567   -5.7361 H   0  0  0  0  0  0
  -19.8655  -32.9258   -9.7311 H   0  0  0  0  0  0
  -19.7902  -29.1292   -9.7711 H   0  0  0  0  0  0
  -20.2619  -31.6818  -11.3193 H   0  0  0  0  0  0
  -22.5074  -31.5744  -10.4200 H   0  0  0  0  0  0
  -22.3985  -29.8008  -10.1571 H   0  0  0  0  0  0
  -22.6920  -31.3196  -12.8554 H   0  0  0  0  0  0
  -23.7405  -29.9960  -12.2426 H   0  0  0  0  0  0
  -19.9778  -28.7768  -11.9393 H   0  0  0  0  0  0
  -19.8415  -30.1611  -13.0760 H   0  0  0  0  0  0
  -16.5165  -28.7518   -7.1622 H   0  0  0  0  0  0
  -17.4476  -27.0950   -7.2969 H   0  0  0  0  0  0
  -17.4787  -33.0312   -6.1373 H   0  0  0  0  0  0
  1  2  1  0  0  0
  1 30  1  0  0  0
  1 31  1  0  0  0
  1 32  1  0  0  0
  2  3  2  0  0  0
  2  6  1  0  0  0
  3  4  1  0  0  0
  3 33  1  0  0  0
  4  5  1  0  0  0
  4 14  1  0  0  0
  5  6  2  0  0  0
  5 13  1  0  0  0
  6  7  1  0  0  0
  7  8  2  0  0  0
  7  9  1  0  0  0
  9 10  1  0  0  0
  9 34  1  0  0  0
  9 35  1  0  0  0
 10 11  1  0  0  0
 10 12  1  0  0  0
 10 13  1  0  0  0
 11 36  1  0  0  0
 11 37  1  0  0  0
 11 38  1  0  0  0
 12 39  1  0  0  0
 12 40  1  0  0  0
 12 41  1  0  0  0
 13 42  1  0  0  0
 13 43  1  0  0  0
 14 15  2  0  0  0
 14 29  1  0  0  0
 15 16  1  0  0  0
 15 44  1  0  0  0
 16 17  1  0  0  0
 16 23  2  0  0  0
 17 18  1  0  0  0
 17 45  1  0  0  0
 18 19  1  0  0  0
 18 22  1  0  0  0
 18 46  1  0  0  0
 19 20  1  0  0  0
 19 47  1  0  0  0
 19 48  1  0  0  0
 20 21  1  0  0  0
 20 49  1  0  0  0
 20 50  1  0  0  0
 21 22  1  0  0  0
 22 51  1  0  0  0
 22 52  1  0  0  0
 23 24  1  0  0  0
 23 27  1  0  0  0
 24 25  1  0  0  0
 24 26  2  0  0  0
 25 53  1  0  0  0
 25 54  1  0  0  0
 27 28  1  0  0  0
 27 29  2  0  0  0
 29 55  1  0  0  0
M  END
> <s_m_source_file>
../4nh9_ligand.sdf

> <i_m_source_file_index>
1

> <s_epik_input>
W0NIM11DKFtDSDNdKShbQ0gyXTEpW0NIMl1DKD1PKWMoYzEyKWMoW0NIM10pW2NIXW4yLWMzW2NIXWMoYyhDKD1PKVtOSDJdKWMoRilbY0hdMylbTkhdW0NASF00W0NIMl1bQ0gyXU9bQ0gyXTQ=

> <s_epik_cmdline>
J2VwaWtfYXBwJywgJy1pbWFlJywgJ2xpZ2FuZF9wcm8ubWFlJywgJy1vbWFlJywgJ2xpZ2FuZF9wcmVwLm1hZScsICctbXMnLCAnMScsICctcGgnLCAnNycsICctcGh0JywgJzAuNScsICctbnQn

> <r_lp_tautomer_probability>
1

> <r_epik_Ionization_Penalty>
  0.0000

> <r_epik_Ionization_Penalty_Charging>
  0.0000

> <r_epik_Ionization_Penalty_Neutral>
  0.0000

> <r_epik_State_Penalty>
 -0.0000

> <r_epik_Charging_Adjusted_Penalty>
0

> <i_epik_Tot_Q>
0

> <i_epik_Tot_abs_Q>
0

$$$$
