4nhc_ligand
                    3D
 Schrodinger Suite 2020-3.
311316  0  0  1  0            999 V2000
   80.8860  -77.4040  -20.6800 C   0  0  0  0  0  0
   80.5050  -76.2400  -20.8040 O   0  0  0  0  0  0
   81.3380  -78.2350  -21.8450 C   0  0  0  0  0  0
   81.2400  -78.1850  -19.6630 N   0  0  0  0  0  0
   80.5470  -77.5700  -18.5360 C   0  0  2  0  0  0
   81.4020  -76.5120  -17.8380 C   0  0  0  0  0  0
   82.3610  -76.8290  -17.1330 O   0  0  0  0  0  0
   80.0860  -78.6370  -17.5420 C   0  0  0  0  0  0
   79.2410  -78.0670  -16.4200 C   0  0  0  0  0  0
   78.7040  -76.9650  -16.5290 O   0  0  0  0  0  0
   79.1190  -78.8190  -15.3330 N   0  0  0  0  0  0
   81.0410  -75.2520  -18.0460 N   0  0  0  0  0  0
   81.7810  -74.1230  -17.4950 C   0  0  2  0  0  0
   82.1020  -74.3010  -16.0120 C   0  0  0  0  0  0
   83.1680  -73.9000  -15.5440 O   0  0  0  0  0  0
   80.9830  -72.8340  -17.7160 C   0  0  0  0  0  0
   81.6830  -71.5870  -17.2840 C   0  0  0  0  0  0
   82.5720  -70.8520  -18.0100 C   0  0  0  0  0  0
   81.5360  -70.9260  -16.0280 C   0  0  0  0  0  0
   82.9970  -69.7700  -17.2780 N   0  0  0  0  0  0
   82.3780  -69.7890  -16.0570 C   0  0  0  0  0  0
   80.7860  -71.1710  -14.8780 C   0  0  0  0  0  0
   82.4820  -68.9130  -14.9810 C   0  0  0  0  0  0
   80.8900  -70.3020  -13.8120 C   0  0  0  0  0  0
   81.7320  -69.1850  -13.8700 C   0  0  0  0  0  0
   81.1820  -74.9180  -15.2800 N   0  0  0  0  0  0
   81.3190  -75.0520  -13.8350 C   0  0  2  0  0  0
   82.4260  -76.0080  -13.4130 C   0  0  0  0  0  0
   82.7990  -76.0590  -12.2400 O   0  0  0  0  0  0
   79.9860  -75.4690  -13.2160 C   0  0  0  0  0  0
   78.9800  -74.3590  -13.1690 C   0  0  0  0  0  0
   78.9150  -73.5080  -12.0780 C   0  0  0  0  0  0
   78.1180  -74.1480  -14.2300 C   0  0  0  0  0  0
   77.9990  -72.4760  -12.0400 C   0  0  0  0  0  0
   77.1960  -73.1160  -14.1980 C   0  0  0  0  0  0
   77.1380  -72.2780  -13.1000 C   0  0  0  0  0  0
   82.9590  -76.7520  -14.3740 N   0  0  0  0  0  0
   84.0040  -77.7250  -14.0870 C   0  0  2  0  0  0
   85.4070  -77.1470  -14.1930 C   0  0  0  0  0  0
   86.2920  -77.5140  -13.4290 O   0  0  0  0  0  0
   83.8760  -78.9340  -15.0130 C   0  0  0  0  0  0
   82.6700  -79.7970  -14.6840 C   0  0  0  0  0  0
   81.8220  -80.0470  -15.5390 O   0  0  0  0  0  0
   82.5920  -80.2610  -13.4410 N   0  0  0  0  0  0
   85.5910  -76.2360  -15.1420 N   0  0  0  0  0  0
   86.9020  -75.6780  -15.4700 C   0  0  2  0  0  0
   87.8450  -75.4740  -14.2840 C   0  0  0  0  0  0
   89.0050  -75.8830  -14.3340 O   0  0  0  0  0  0
   86.7640  -74.3430  -16.2200 C   0  0  2  0  0  0
   85.8930  -74.5210  -17.4640 C   0  0  0  0  0  0
   88.1380  -73.8030  -16.5890 C   0  0  0  0  0  0
   85.7150  -73.2540  -18.2590 C   0  0  0  0  0  0
   87.3550  -74.8440  -13.2220 N   0  0  0  0  0  0
   88.1960  -74.5700  -12.0610 C   0  0  2  0  0  0
   88.8240  -75.8420  -11.5040 C   0  0  0  0  0  0
   89.8080  -75.7850  -10.7660 O   0  0  0  0  0  0
   87.4230  -73.8440  -10.9460 C   0  0  2  0  0  0
   86.0840  -74.3490  -10.8890 O   0  0  0  0  0  0
   87.3770  -72.3480  -11.2150 C   0  0  0  0  0  0
   88.2470  -76.9860  -11.8550 N   0  0  0  0  0  0
   88.8000  -78.2760  -11.4630 C   0  0  2  0  0  0
   89.9850  -78.6360  -12.3500 C   0  0  0  0  0  0
   91.0250  -79.0880  -11.8620 O   0  0  0  0  0  0
   87.7300  -79.3650  -11.5410 C   0  0  0  0  0  0
   88.1190  -80.6150  -10.7820 C   0  0  0  0  0  0
   88.4450  -81.6430  -11.3770 O   0  0  0  0  0  0
   88.1050  -80.5290   -9.4550 N   0  0  0  0  0  0
   89.8120  -78.4330  -13.6540 N   0  0  0  0  0  0
   90.8670  -78.6110  -14.5930 C   0  0  1  0  0  0
   91.0340  -80.0550  -14.9680 C   0  0  0  0  0  0
   92.3430  -80.8250  -14.8210 C   0  0  0  0  0  0
   90.4840  -77.8850  -15.8240 C   0  0  0  0  0  0
   92.0850  -77.8790  -14.0140 C   0  0  0  0  0  0
   93.1570  -78.4290  -13.7920 O   0  0  0  0  0  0
   91.9050  -76.4480  -13.7270 N   0  0  0  0  0  0
   92.9870  -75.6090  -13.1700 C   0  0  2  0  0  0
   93.5210  -76.0950  -11.8120 C   0  0  0  0  0  0
   94.7080  -76.3480  -11.7100 O   0  0  0  0  0  0
   92.4740  -74.1970  -13.0770 C   0  0  0  0  0  0
   91.7350  -73.6240  -14.2750 C   0  0  0  0  0  0
   91.3030  -72.1530  -14.0830 C   0  0  0  0  0  0
   92.4120  -73.8890  -15.5920 C   0  0  0  0  0  0
   92.6310  -76.2290  -10.6680 N   0  0  0  0  0  0
   93.1640  -76.6770   -9.3770 C   0  0  2  0  0  0
   93.9790  -77.9360   -9.5930 C   0  0  0  0  0  0
   95.0510  -78.0380   -9.0530 O   0  0  0  0  0  0
   92.1060  -76.8750   -8.2790 C   0  0  0  0  0  0
   92.5660  -77.4170   -6.9250 C   0  0  0  0  0  0
   93.1300  -76.6970   -5.8760 C   0  0  0  0  0  0
   92.5020  -78.7500   -6.5090 C   0  0  0  0  0  0
   93.3910  -77.5500   -4.8760 N   0  0  0  0  0  0
   93.0250  -78.7930   -5.2240 C   0  0  0  0  0  0
   92.0420  -79.9100   -7.1200 C   0  0  0  0  0  0
   93.0900  -80.0020   -4.5450 C   0  0  0  0  0  0
   92.1080  -81.1210   -6.4400 C   0  0  0  0  0  0
   92.6320  -81.1640   -5.1520 C   0  0  0  0  0  0
   95.6740  -79.9440  -11.2240 C   0  0  0  0  0  0
   93.4600  -79.0260  -10.4640 N   0  0  0  0  0  0
   96.6540  -80.5340  -10.7940 O   0  0  0  0  0  0
   94.2650  -80.2660  -10.6820 C   0  0  1  0  0  0
   93.4530  -81.0670  -11.7040 C   0  0  0  0  0  0
   93.4790  -82.8730  -13.6560 C   0  0  0  0  0  0
   92.2290  -82.2170  -14.2520 C   0  0  0  0  0  0
   94.2310  -82.1200  -12.5480 C   0  0  0  0  0  0
   94.3040  -81.0070   -9.3620 C   0  0  0  0  0  0
   95.8100  -78.9080  -12.2870 N   0  0  0  0  0  0
   97.1280  -78.5700  -12.8320 C   0  0  2  0  0  0
   97.9650  -77.9610  -11.7090 C   0  0  0  0  0  0
   98.9910  -78.5100  -11.3420 O   0  0  0  0  0  0
   96.8750  -77.6970  -14.1000 C   0  0  2  0  0  0
   96.3490  -78.4570  -15.3340 C   0  0  0  0  0  0
   98.1230  -76.9430  -14.5090 C   0  0  0  0  0  0
   95.0640  -77.9270  -15.9920 C   0  0  0  0  0  0
   97.5370  -76.7160  -11.0820 N   0  0  0  0  0  0
   98.3130  -76.1060  -10.0040 C   0  0  2  0  0  0
   98.8410  -77.0960   -8.9750 C   0  0  0  0  0  0
   99.9720  -76.9560   -8.5460 O   0  0  0  0  0  0
   97.4520  -75.0770   -9.2680 C   0  0  0  0  0  0
   97.8360  -73.5910   -9.3750 C   0  0  0  0  0  0
   97.3590  -72.6680   -8.2480 C   0  0  0  0  0  0
   98.1160  -71.3630   -8.0070 C   0  0  0  0  0  0
   97.3530  -70.1420   -7.9400 N   0  3  0  0  0  0
   98.0440  -78.1040   -8.6360 N   0  0  0  0  0  0
   98.4880  -79.1650   -7.7400 C   0  0  2  0  0  0
   99.5120  -80.0690   -8.4270 C   0  0  0  0  0  0
  100.6390  -80.2140   -7.9540 O   0  0  0  0  0  0
   97.2960  -79.9930   -7.2570 C   0  0  0  0  0  0
   97.6670  -81.3740   -6.7420 C   0  0  0  0  0  0
   97.1050  -82.4670   -7.6370 C   0  0  0  0  0  0
   97.5830  -83.8410   -7.1970 C   0  0  0  0  0  0
   97.7680  -84.7610   -8.3530 N   0  3  0  0  0  0
   99.1200  -80.6100   -9.5760 N   0  0  0  0  0  0
  100.0150  -81.4030  -10.4050 C   0  0  2  0  0  0
  101.4160  -80.8000  -10.4640 C   0  0  0  0  0  0
  102.3970  -81.4830  -10.1710 O   0  0  0  0  0  0
   99.4460  -81.5470  -11.8190 C   0  0  0  0  0  0
   98.8790  -82.9250  -12.1220 C   0  0  0  0  0  0
   99.4950  -83.9850  -11.2240 C   0  0  0  0  0  0
  100.4600  -84.8700  -11.9960 C   0  0  0  0  0  0
   99.8090  -86.1220  -12.4690 N   0  3  0  0  0  0
  101.5180  -79.5270  -10.8440 N   0  0  0  0  0  0
  102.8490  -78.9000  -10.9490 C   0  0  2  0  0  0
  102.7630  -77.4230  -11.2740 C   0  0  0  0  0  0
  102.3380  -77.0390  -12.4030 O   0  0  0  0  0  0
  103.7550  -79.5290  -12.0010 C   0  0  0  0  0  0
  105.0900  -80.1120  -11.5650 C   0  0  0  0  0  0
  105.1770  -81.6270  -11.3780 C   0  0  0  0  0  0
  105.9150  -82.4330  -12.4200 C   0  0  0  0  0  0
  105.2820  -83.6560  -12.8990 N   0  3  0  0  0  0
  103.1180  -76.5720  -10.4150 O   0  0  0  0  0  0
   81.1075  -77.7080  -22.7826 H   0  0  0  0  0  0
   80.8149  -79.2026  -21.8301 H   0  0  0  0  0  0
   82.4228  -78.4035  -21.7762 H   0  0  0  0  0  0
   81.8614  -79.0789  -19.5052 H   0  0  0  0  0  0
   79.6773  -77.0707  -18.9881 H   0  0  0  0  0  0
   79.4824  -79.3915  -18.0677 H   0  0  0  0  0  0
   80.9643  -79.1204  -17.0894 H   0  0  0  0  0  0
   79.6183  -79.7978  -15.2825 H   0  0  0  0  0  0
   78.5186  -78.4633  -14.4827 H   0  0  0  0  0  0
   80.1460  -75.0757  -18.6607 H   0  0  0  0  0  0
   82.7307  -74.1090  -18.0498 H   0  0  0  0  0  0
   80.7603  -72.7197  -18.7871 H   0  0  0  0  0  0
   80.0416  -72.8838  -17.1491 H   0  0  0  0  0  0
   82.8980  -71.0881  -19.0230 H   0  0  0  0  0  0
   80.1268  -72.0373  -14.8224 H   0  0  0  0  0  0
   83.1367  -68.0425  -15.0219 H   0  0  0  0  0  0
   80.3072  -70.4879  -12.9098 H   0  0  0  0  0  0
   81.7912  -68.5172  -13.0106 H   0  0  0  0  0  0
   80.3001  -75.3333  -15.7897 H   0  0  0  0  0  0
   81.6142  -74.0445  -13.5065 H   0  0  0  0  0  0
   79.5480  -76.2877  -13.8058 H   0  0  0  0  0  0
   80.1518  -75.8092  -12.1831 H   0  0  0  0  0  0
   79.5954  -73.6550  -11.2393 H   0  0  0  0  0  0
   78.1653  -74.8016  -15.1010 H   0  0  0  0  0  0
   77.9558  -71.8174  -11.1725 H   0  0  0  0  0  0
   76.5169  -72.9644  -15.0370 H   0  0  0  0  0  0
   76.4144  -71.4634  -13.0717 H   0  0  0  0  0  0
   82.5962  -76.6223  -15.4043 H   0  0  0  0  0  0
   83.8209  -77.9972  -13.0371 H   0  0  0  0  0  0
   83.7715  -78.5901  -16.0526 H   0  0  0  0  0  0
   84.7749  -79.5616  -14.9230 H   0  0  0  0  0  0
   83.3751  -80.0105  -12.7103 H   0  0  0  0  0  0
   81.7443  -80.8955  -13.1430 H   0  0  0  0  0  0
   84.6983  -75.9030  -15.6918 H   0  0  0  0  0  0
   87.3166  -76.4818  -16.0960 H   0  0  0  0  0  0
   86.2777  -73.6048  -15.5653 H   0  0  0  0  0  0
   86.3529  -75.2659  -18.1301 H   0  0  0  0  0  0
   84.8921  -74.8653  -17.1646 H   0  0  0  0  0  0
   88.7424  -73.6848  -15.6776 H   0  0  0  0  0  0
   88.0275  -72.8273  -17.0847 H   0  0  0  0  0  0
   88.6373  -74.5066  -17.2714 H   0  0  0  0  0  0
   85.0807  -73.4566  -19.1346 H   0  0  0  0  0  0
   86.6976  -72.8904  -18.5942 H   0  0  0  0  0  0
   85.2367  -72.4898  -17.6287 H   0  0  0  0  0  0
   86.3014  -74.5279  -13.2248 H   0  0  0  0  0  0
   88.9817  -73.9166  -12.4682 H   0  0  0  0  0  0
   87.8763  -74.0403   -9.9631 H   0  0  0  0  0  0
   85.9070  -75.4184  -10.7019 H   0  0  0  0  0  0
   88.4022  -71.9519  -11.2603 H   0  0  0  0  0  0
   86.8257  -71.8468  -10.4058 H   0  0  0  0  0  0
   86.8698  -72.1632  -12.1734 H   0  0  0  0  0  0
   87.3278  -76.9419  -12.4576 H   0  0  0  0  0  0
   89.1358  -78.1541  -10.4226 H   0  0  0  0  0  0
   86.7902  -78.9870  -11.1120 H   0  0  0  0  0  0
   87.5669  -79.6442  -12.5924 H   0  0  0  0  0  0
   87.8063  -79.5890   -8.9679 H   0  0  0  0  0  0
   88.3921  -81.3978   -8.8445 H   0  0  0  0  0  0
   88.8160  -78.1182  -13.9989 H   0  0  0  0  0  0
   90.3414  -80.6703  -14.3750 H   0  0  0  0  0  0
   90.8144  -80.1837  -16.0381 H   0  0  0  0  0  0
   92.8161  -80.9356  -15.8079 H   0  0  0  0  0  0
   93.0189  -80.2746  -14.1500 H   0  0  0  0  0  0
   89.6101  -78.3728  -16.2805 H   0  0  0  0  0  0
   91.3240  -77.8986  -16.5341 H   0  0  0  0  0  0
   90.2331  -76.8439  -15.5726 H   0  0  0  0  0  0
   90.9212  -76.0054  -13.9421 H   0  0  0  0  0  0
   93.8265  -75.6778  -13.8774 H   0  0  0  0  0  0
   91.7640  -74.1192  -12.2404 H   0  0  0  0  0  0
   93.3170  -73.5110  -12.9075 H   0  0  0  0  0  0
   90.8117  -74.2180  -14.3435 H   0  0  0  0  0  0
   90.8181  -72.0383  -13.1023 H   0  0  0  0  0  0
   90.5955  -71.8720  -14.8770 H   0  0  0  0  0  0
   92.1879  -71.5015  -14.1330 H   0  0  0  0  0  0
   92.6886  -74.9518  -15.6547 H   0  0  0  0  0  0
   93.3174  -73.2692  -15.6701 H   0  0  0  0  0  0
   91.7250  -73.6398  -16.4141 H   0  0  0  0  0  0
   91.5610  -75.9952  -10.7700 H   0  0  0  0  0  0
   93.8024  -75.8469   -9.0405 H   0  0  0  0  0  0
   91.6280  -75.9106   -8.0522 H   0  0  0  0  0  0
   91.3448  -77.5885   -8.6276 H   0  0  0  0  0  0
   93.3256  -75.6247   -5.8690 H   0  0  0  0  0  0
   91.6309  -79.8708   -8.1287 H   0  0  0  0  0  0
   93.5003  -80.0392   -3.5359 H   0  0  0  0  0  0
   91.7500  -82.0345   -6.9149 H   0  0  0  0  0  0
   92.6832  -82.1127   -4.6177 H   0  0  0  0  0  0
   92.4786  -78.9152  -10.9482 H   0  0  0  0  0  0
   92.6612  -81.6272  -11.1852 H   0  0  0  0  0  0
   92.9985  -80.3787  -12.4318 H   0  0  0  0  0  0
   93.2076  -83.8410  -13.2096 H   0  0  0  0  0  0
   94.2239  -83.0312  -14.4497 H   0  0  0  0  0  0
   91.4954  -82.2191  -13.4324 H   0  0  0  0  0  0
   91.8998  -82.9097  -15.0406 H   0  0  0  0  0  0
   95.0708  -81.6297  -13.0623 H   0  0  0  0  0  0
   94.6170  -82.9085  -11.8852 H   0  0  0  0  0  0
   94.8884  -80.4266   -8.6329 H   0  0  0  0  0  0
   94.7731  -81.9912   -9.5078 H   0  0  0  0  0  0
   93.2788  -81.1414   -8.9866 H   0  0  0  0  0  0
   94.9118  -78.3958  -12.6623 H   0  0  0  0  0  0
   97.6979  -79.4582  -13.1425 H   0  0  0  0  0  0
   96.0894  -76.9888  -13.7979 H   0  0  0  0  0  0
   97.1118  -78.4422  -16.1264 H   0  0  0  0  0  0
   96.1285  -79.4984  -15.0568 H   0  0  0  0  0  0
   98.5183  -76.3913  -13.6433 H   0  0  0  0  0  0
   97.8763  -76.2348  -15.3137 H   0  0  0  0  0  0
   98.8809  -77.6553  -14.8670 H   0  0  0  0  0  0
   94.8057  -78.5596  -16.8541 H   0  0  0  0  0  0
   95.2253  -76.8931  -16.3311 H   0  0  0  0  0  0
   94.2419  -77.9493  -15.2615 H   0  0  0  0  0  0
   96.6122  -76.2355  -11.4340 H   0  0  0  0  0  0
   99.1696  -75.6649  -10.5347 H   0  0  0  0  0  0
   96.4188  -75.1287   -9.6420 H   0  0  0  0  0  0
   97.4628  -75.2939   -8.1897 H   0  0  0  0  0  0
   98.9317  -73.4958   -9.3923 H   0  0  0  0  0  0
   97.4167  -73.1697  -10.3006 H   0  0  0  0  0  0
   96.3209  -72.3596   -8.4412 H   0  0  0  0  0  0
   97.4097  -73.2040   -7.2888 H   0  0  0  0  0  0
   98.6492  -71.4204   -7.0466 H   0  0  0  0  0  0
   98.8402  -71.2038   -8.8195 H   0  0  0  0  0  0
   98.0318  -69.2947   -7.7633 H   0  0  0  0  0  0
   96.6270  -70.2081   -7.1163 H   0  0  0  0  0  0
   96.8179  -69.9915   -8.8892 H   0  0  0  0  0  0
   97.0253  -78.1245   -9.0504 H   0  0  0  0  0  0
   98.9599  -78.6476   -6.8917 H   0  0  0  0  0  0
   96.7925  -79.4652   -6.4336 H   0  0  0  0  0  0
   96.5888  -80.1366   -8.0872 H   0  0  0  0  0  0
   98.7622  -81.4731   -6.7145 H   0  0  0  0  0  0
   97.2611  -81.5086   -5.7285 H   0  0  0  0  0  0
   96.0060  -82.4481   -7.5929 H   0  0  0  0  0  0
   97.4333  -82.2975   -8.6731 H   0  0  0  0  0  0
   98.5470  -83.7444   -6.6760 H   0  0  0  0  0  0
   96.8419  -84.2867   -6.5172 H   0  0  0  0  0  0
   98.1133  -85.7405   -7.9905 H   0  0  0  0  0  0
   98.5162  -84.3399   -9.0406 H   0  0  0  0  0  0
   96.8111  -84.8823   -8.8819 H   0  0  0  0  0  0
   98.0806  -80.4415   -9.8941 H   0  0  0  0  0  0
  100.0642  -82.3802   -9.9024 H   0  0  0  0  0  0
   98.6305  -80.8227  -11.9616 H   0  0  0  0  0  0
  100.2403  -81.3545  -12.5552 H   0  0  0  0  0  0
   97.7911  -82.9177  -11.9594 H   0  0  0  0  0  0
   99.0915  -83.1868  -13.1690 H   0  0  0  0  0  0
  100.0454  -83.4976  -10.4058 H   0  0  0  0  0  0
   98.6991  -84.6179  -10.8045 H   0  0  0  0  0  0
  100.8353  -84.3243  -12.8743 H   0  0  0  0  0  0
  101.3044  -85.1452  -11.3470 H   0  0  0  0  0  0
  100.5411  -86.7301  -13.0206 H   0  0  0  0  0  0
   98.9679  -85.8701  -13.1316 H   0  0  0  0  0  0
   99.4369  -86.6911  -11.6043 H   0  0  0  0  0  0
  100.6153  -78.9440  -11.0789 H   0  0  0  0  0  0
  103.2538  -79.0751   -9.9413 H   0  0  0  0  0  0
  102.2783  -75.9647  -12.6319 H   0  0  0  0  0  0
  103.2303  -80.3671  -12.4830 H   0  0  0  0  0  0
  104.0155  -78.7752  -12.7586 H   0  0  0  0  0  0
  105.8583  -79.8690  -12.3138 H   0  0  0  0  0  0
  105.3770  -79.6843  -10.5931 H   0  0  0  0  0  0
  105.6894  -81.8507  -10.4307 H   0  0  0  0  0  0
  104.1629  -82.0526  -11.3557 H   0  0  0  0  0  0
  106.0715  -81.8164  -13.3174 H   0  0  0  0  0  0
  106.8889  -82.7486  -12.0175 H   0  0  0  0  0  0
  105.9292  -84.1343  -13.6489 H   0  0  0  0  0  0
  104.3110  -83.4121  -13.3547 H   0  0  0  0  0  0
  105.1283  -84.3442  -12.0548 H   0  0  0  0  0  0
  1  2  2  0  0  0
  1  3  1  0  0  0
  1  4  1  0  0  0
  3151  1  0  0  0
  3152  1  0  0  0
  3153  1  0  0  0
  4  5  1  0  0  0
  4154  1  0  0  0
  5  6  1  0  0  0
  5  8  1  0  0  0
  5155  1  0  0  0
  6  7  2  0  0  0
  6 12  1  0  0  0
  8  9  1  0  0  0
  8156  1  0  0  0
  8157  1  0  0  0
  9 10  2  0  0  0
  9 11  1  0  0  0
 11158  1  0  0  0
 11159  1  0  0  0
 12 13  1  0  0  0
 12160  1  0  0  0
 13 14  1  0  0  0
 13 16  1  0  0  0
 13161  1  0  0  0
 14 15  2  0  0  0
 14 26  1  0  0  0
 16 17  1  0  0  0
 16162  1  0  0  0
 16163  1  0  0  0
 17 18  2  0  0  0
 17 19  1  0  0  0
 18 20  1  0  0  0
 18164  1  0  0  0
 19 21  2  0  0  0
 19 22  1  0  0  0
 20 21  1  0  0  0
 21 23  1  0  0  0
 22 24  2  0  0  0
 22165  1  0  0  0
 23 25  2  0  0  0
 23166  1  0  0  0
 24 25  1  0  0  0
 24167  1  0  0  0
 25168  1  0  0  0
 26 27  1  0  0  0
 26169  1  0  0  0
 27 28  1  0  0  0
 27 30  1  0  0  0
 27170  1  0  0  0
 28 29  2  0  0  0
 28 37  1  0  0  0
 30 31  1  0  0  0
 30171  1  0  0  0
 30172  1  0  0  0
 31 32  2  0  0  0
 31 33  1  0  0  0
 32 34  1  0  0  0
 32173  1  0  0  0
 33 35  2  0  0  0
 33174  1  0  0  0
 34 36  2  0  0  0
 34175  1  0  0  0
 35 36  1  0  0  0
 35176  1  0  0  0
 36177  1  0  0  0
 37 38  1  0  0  0
 37178  1  0  0  0
 38 39  1  0  0  0
 38 41  1  0  0  0
 38179  1  0  0  0
 39 40  2  0  0  0
 39 45  1  0  0  0
 41 42  1  0  0  0
 41180  1  0  0  0
 41181  1  0  0  0
 42 43  2  0  0  0
 42 44  1  0  0  0
 44182  1  0  0  0
 44183  1  0  0  0
 45 46  1  0  0  0
 45184  1  0  0  0
 46 47  1  0  0  0
 46 49  1  0  0  0
 46185  1  0  0  0
 47 48  2  0  0  0
 47 53  1  0  0  0
 49 50  1  0  0  0
 49 51  1  0  0  0
 49186  1  0  0  0
 50 52  1  0  0  0
 50187  1  0  0  0
 50188  1  0  0  0
 51189  1  0  0  0
 51190  1  0  0  0
 51191  1  0  0  0
 52192  1  0  0  0
 52193  1  0  0  0
 52194  1  0  0  0
 53 54  1  0  0  0
 53195  1  0  0  0
 54 55  1  0  0  0
 54 57  1  0  0  0
 54196  1  0  0  0
 55 56  2  0  0  0
 55 60  1  0  0  0
 57 58  1  0  0  0
 57 59  1  0  0  0
 57197  1  0  0  0
 58198  1  0  0  0
 59199  1  0  0  0
 59200  1  0  0  0
 59201  1  0  0  0
 60 61  1  0  0  0
 60202  1  0  0  0
 61 62  1  0  0  0
 61 64  1  0  0  0
 61203  1  0  0  0
 62 63  2  0  0  0
 62 68  1  0  0  0
 64 65  1  0  0  0
 64204  1  0  0  0
 64205  1  0  0  0
 65 66  2  0  0  0
 65 67  1  0  0  0
 67206  1  0  0  0
 67207  1  0  0  0
 68 69  1  0  0  0
 68208  1  0  0  0
 69 70  1  0  0  0
 69 72  1  0  0  0
 69 73  1  0  0  0
 70 71  1  0  0  0
 70209  1  0  0  0
 70210  1  0  0  0
 71103  1  0  0  0
 71211  1  0  0  0
 71212  1  0  0  0
 72213  1  0  0  0
 72214  1  0  0  0
 72215  1  0  0  0
 73 74  2  0  0  0
 73 75  1  0  0  0
 75 76  1  0  0  0
 75216  1  0  0  0
 76 77  1  0  0  0
 76 79  1  0  0  0
 76217  1  0  0  0
 77 78  2  0  0  0
 77 83  1  0  0  0
 79 80  1  0  0  0
 79218  1  0  0  0
 79219  1  0  0  0
 80 81  1  0  0  0
 80 82  1  0  0  0
 80220  1  0  0  0
 81221  1  0  0  0
 81222  1  0  0  0
 81223  1  0  0  0
 82224  1  0  0  0
 82225  1  0  0  0
 82226  1  0  0  0
 83 84  1  0  0  0
 83227  1  0  0  0
 84 85  1  0  0  0
 84 87  1  0  0  0
 84228  1  0  0  0
 85 86  2  0  0  0
 85 98  1  0  0  0
 87 88  1  0  0  0
 87229  1  0  0  0
 87230  1  0  0  0
 88 89  2  0  0  0
 88 90  1  0  0  0
 89 91  1  0  0  0
 89231  1  0  0  0
 90 92  2  0  0  0
 90 93  1  0  0  0
 91 92  1  0  0  0
 92 94  1  0  0  0
 93 95  2  0  0  0
 93232  1  0  0  0
 94 96  2  0  0  0
 94233  1  0  0  0
 95 96  1  0  0  0
 95234  1  0  0  0
 96235  1  0  0  0
 97 99  2  0  0  0
 97100  1  0  0  0
 97106  1  0  0  0
 98100  1  0  0  0
 98236  1  0  0  0
100101  1  0  0  0
100105  1  0  0  0
101104  1  0  0  0
101237  1  0  0  0
101238  1  0  0  0
102103  1  0  0  0
102104  1  0  0  0
102239  1  0  0  0
102240  1  0  0  0
103241  1  0  0  0
103242  1  0  0  0
104243  1  0  0  0
104244  1  0  0  0
105245  1  0  0  0
105246  1  0  0  0
105247  1  0  0  0
106107  1  0  0  0
106248  1  0  0  0
107108  1  0  0  0
107110  1  0  0  0
107249  1  0  0  0
108109  2  0  0  0
108114  1  0  0  0
110111  1  0  0  0
110112  1  0  0  0
110250  1  0  0  0
111113  1  0  0  0
111251  1  0  0  0
111252  1  0  0  0
112253  1  0  0  0
112254  1  0  0  0
112255  1  0  0  0
113256  1  0  0  0
113257  1  0  0  0
113258  1  0  0  0
114115  1  0  0  0
114259  1  0  0  0
115116  1  0  0  0
115118  1  0  0  0
115260  1  0  0  0
116117  2  0  0  0
116123  1  0  0  0
118119  1  0  0  0
118261  1  0  0  0
118262  1  0  0  0
119120  1  0  0  0
119263  1  0  0  0
119264  1  0  0  0
120121  1  0  0  0
120265  1  0  0  0
120266  1  0  0  0
121122  1  0  0  0
121267  1  0  0  0
121268  1  0  0  0
122269  1  0  0  0
122270  1  0  0  0
122271  1  0  0  0
123124  1  0  0  0
123272  1  0  0  0
124125  1  0  0  0
124127  1  0  0  0
124273  1  0  0  0
125126  2  0  0  0
125132  1  0  0  0
127128  1  0  0  0
127274  1  0  0  0
127275  1  0  0  0
128129  1  0  0  0
128276  1  0  0  0
128277  1  0  0  0
129130  1  0  0  0
129278  1  0  0  0
129279  1  0  0  0
130131  1  0  0  0
130280  1  0  0  0
130281  1  0  0  0
131282  1  0  0  0
131283  1  0  0  0
131284  1  0  0  0
132133  1  0  0  0
132285  1  0  0  0
133134  1  0  0  0
133136  1  0  0  0
133286  1  0  0  0
134135  2  0  0  0
134141  1  0  0  0
136137  1  0  0  0
136287  1  0  0  0
136288  1  0  0  0
137138  1  0  0  0
137289  1  0  0  0
137290  1  0  0  0
138139  1  0  0  0
138291  1  0  0  0
138292  1  0  0  0
139140  1  0  0  0
139293  1  0  0  0
139294  1  0  0  0
140295  1  0  0  0
140296  1  0  0  0
140297  1  0  0  0
141142  1  0  0  0
141298  1  0  0  0
142143  1  0  0  0
142145  1  0  0  0
142299  1  0  0  0
143144  1  0  0  0
143150  2  0  0  0
144300  1  0  0  0
145146  1  0  0  0
145301  1  0  0  0
145302  1  0  0  0
146147  1  0  0  0
146303  1  0  0  0
146304  1  0  0  0
147148  1  0  0  0
147305  1  0  0  0
147306  1  0  0  0
148149  1  0  0  0
148307  1  0  0  0
148308  1  0  0  0
149309  1  0  0  0
149310  1  0  0  0
149311  1  0  0  0
M  CHG  4 122   1 131   1 140   1 149   1
M  END
> <s_m_source_file>
../4nhc_ligand.sdf

> <i_m_source_file_index>
1

> <s_epik_input>
W2NIXTFbY0hdW2NIXVtjSF1jKGMxMilbbkhdW2NIXWMyW0NIMl1bQ0BIXShbTkhdQyg9TylbQ0BASF0oW05IXUMoPU8pW0NIM10pW0NIMl1DKD1PKVtOSDJdKUMoPU8pW05IXVtDQEBIXShbQ0gyXWMzW2NIXVtjSF1bY0hdW2NIXVtjSF0zKUMoPU8pW05IXVtDQEBIXShbQ0gyXUMoPU8pW05IMl0pQyg9TylbTkhdW0NAQEhdKFtDQEBIXShbQ0gzXSlbQ0gyXVtDSDNdKUMoPU8pW05IXVtDQEBIXShbQ0BIXShbT0hdKVtDSDNdKUMoPU8pW05IXVtDQEBIXShbQ0gyXUMoPU8pW05IMl0pQyg9TylbTkhdW0NAXTQoW0NIM10pW0NIMl1bQ0gyXVtDSDJdW0NIMl1bQ0gyXVtDSDJdW0NAXShbQ0gzXSkoW05IXUMoPU8pW0NAQEhdKFtOSF1DKD1PKVtDQEBIXShbTkhdQzQ9TylbQ0gyXVtDSF0oW0NIM10pW0NIM10pW0NIMl1jNVtjSF1bbkhdYyhjNTYpW2NIXVtjSF1bY0hdW2NIXTYpQyg9TylbTkhdW0NAQEhdKFtDQEBIXShbQ0gzXSlbQ0gyXVtDSDNdKUMoPU8pW05IXVtDQEBIXShbQ0gyXVtDSDJdW0NIMl1bQ0gyXVtOSDMrXSlDKD1PKVtOSF1bQ0BASF0oW0NIMl1bQ0gyXVtDSDJdW0NIMl1bTkgzK10pQyg9TylbTkhdW0NAQEhdKFtDSDJdW0NIMl1bQ0gyXVtDSDJdW05IMytdKUMoPU8pW05IXVtDQEhdKEMoPU8pW09IXSlbQ0gyXVtDSDJdW0NIMl1bQ0gyXVtOSDMrXQ==

> <s_epik_cmdline>
J2VwaWtfYXBwJywgJy1pbWFlJywgJ2xpZ2FuZF9wcm8ubWFlJywgJy1vbWFlJywgJ2xpZ2FuZF9wcmVwLm1hZScsICctbXMnLCAnMScsICctcGgnLCAnNycsICctcGh0JywgJzAuNScsICctbnQn

> <s_epik_pKa_notes>
Molecule size exceeds maximum supported for generating protonation states

$$$$
