4nhx_ligand
                    3D
 Schrodinger Suite 2020-3.
 13 12  0  0  1  0            999 V2000
  -16.0880    1.1000   65.0120 C   0  0  0  0  0  0
  -17.1890    1.5200   64.0780 C   0  0  0  0  0  0
  -19.3930    2.5260   63.7250 C   0  0  0  0  0  0
  -20.3790    3.4140   64.4610 C   0  0  0  0  0  0
  -16.0810    1.5020   66.2090 O   0  5  0  0  0  0
  -15.1790    0.3400   64.5830 O   0  0  0  0  0  0
  -17.0820    1.3080   62.8810 O   0  0  0  0  0  0
  -21.4350    3.8210   63.8900 O   0  5  0  0  0  0
  -18.3520    2.1360   64.6090 N   0  0  0  0  0  0
  -20.1550    3.7460   65.6530 O   0  0  0  0  0  0
  -19.9125    1.6302   63.3540 H   0  0  0  0  0  0
  -18.9641    3.0790   62.8763 H   0  0  0  0  0  0
  -18.4534    2.3126   65.6900 H   0  0  0  0  0  0
  1  2  1  0  0  0
  1  5  1  0  0  0
  1  6  2  0  0  0
  2  7  2  0  0  0
  2  9  1  0  0  0
  3  4  1  0  0  0
  3  9  1  0  0  0
  3 11  1  0  0  0
  3 12  1  0  0  0
  4  8  1  0  0  0
  4 10  2  0  0  0
  9 13  1  0  0  0
M  CHG  2   5  -1   8  -1
M  END
> <s_m_source_file>
../4nhx_ligand.sdf

> <i_m_source_file_index>
1

> <s_epik_input>
W09IXUMoPU8pQyg9TylbTkhdW0NIMl1DKD1PKVtPSF0=

> <s_epik_cmdline>
J2VwaWtfYXBwJywgJy1pbWFlJywgJ2xpZ2FuZF9wcm8ubWFlJywgJy1vbWFlJywgJ2xpZ2FuZF9wcmVwLm1hZScsICctbXMnLCAnMScsICctcGgnLCAnNycsICctcGh0JywgJzAuNScsICctbnQn

> <r_lp_tautomer_probability>
1

> <r_epik_Ionization_Penalty>
  0.0005

> <r_epik_Ionization_Penalty_Charging>
  0.0005

> <r_epik_Ionization_Penalty_Neutral>
  0.0000

> <r_epik_State_Penalty>
 -0.0000

> <r_epik_Charging_Adjusted_Penalty>
0.000542553720295976

> <i_epik_Tot_Q>
-2

> <i_epik_Tot_abs_Q>
2

$$$$
