4nhy_ligand
                    3D
 Schrodinger Suite 2020-3.
 15 15  0  0  1  0            999 V2000
  -12.1720   42.2890  -64.5420 O   0  0  0  0  0  0
  -12.4570   43.3540  -63.9100 C   0  0  0  0  0  0
  -13.6460   43.7960  -63.8280 O   0  5  0  0  0  0
  -11.3480   44.1450  -63.2550 C   0  0  0  0  0  0
  -11.6120   45.4130  -62.8330 C   0  0  0  0  0  0
  -10.6220   46.1740  -62.2280 C   0  0  0  0  0  0
  -10.1000   43.6230  -63.0830 C   0  0  0  0  0  0
   -9.1130   44.3880  -62.4780 C   0  0  0  0  0  0
   -9.3790   45.6530  -62.0570 N   0  0  0  0  0  0
   -7.7180   43.8430  -62.2870 C   0  0  0  0  0  0
   -6.8450   44.5720  -61.7290 O   0  5  0  0  0  0
   -7.4340   42.6830  -62.7020 O   0  0  0  0  0  0
  -12.6083   45.8329  -62.9716 H   0  0  0  0  0  0
  -10.8410   47.1871  -61.8908 H   0  0  0  0  0  0
   -9.8789   42.6099  -63.4191 H   0  0  0  0  0  0
  1  2  2  0  0  0
  2  3  1  0  0  0
  2  4  1  0  0  0
  4  5  2  0  0  0
  4  7  1  0  0  0
  5  6  1  0  0  0
  5 13  1  0  0  0
  6  9  2  0  0  0
  6 14  1  0  0  0
  7  8  2  0  0  0
  7 15  1  0  0  0
  8  9  1  0  0  0
  8 10  1  0  0  0
 10 11  1  0  0  0
 10 12  2  0  0  0
M  CHG  2   3  -1  11  -1
M  END
> <s_m_source_file>
../4nhy_ligand.sdf

> <i_m_source_file_index>
1

> <s_epik_input>
Tz1DKFtPSF0pYzFbY0hdW2NIXW5jKFtjSF0xKUMoPU8pW09IXQ==

> <s_epik_cmdline>
J2VwaWtfYXBwJywgJy1pbWFlJywgJ2xpZ2FuZF9wcm8ubWFlJywgJy1vbWFlJywgJ2xpZ2FuZF9wcmVwLm1hZScsICctbXMnLCAnMScsICctcGgnLCAnNycsICctcGh0JywgJzAuNScsICctbnQn

> <r_epik_Ionization_Penalty>
  0.0125

> <r_epik_Ionization_Penalty_Charging>
  0.0014

> <r_epik_Ionization_Penalty_Neutral>
  0.0111

> <r_epik_State_Penalty>
  0.0086

> <r_epik_Charging_Adjusted_Penalty>
0.00994701251583157

> <i_epik_Tot_Q>
-2

> <i_epik_Tot_abs_Q>
2

$$$$
