4nie_ligand
                    3D
 Schrodinger Suite 2020-3.
 66 68  0  0  1  0            999 V2000
   20.9890   -8.1840   -6.4500 C   0  0  0  0  0  0
   21.4630   -8.0560   -5.0220 C   0  0  0  0  0  0
   22.4980   -6.8750   -4.6780 C   0  0  0  0  0  0
   21.9900   -5.5130   -4.6290 N   0  3  1  0  0  0
   21.4160   -5.1740   -3.3090 C   0  0  0  0  0  0
   20.3560   -4.1320   -3.2530 C   0  0  0  0  0  0
   20.3380   -3.2150   -2.1710 C   0  0  0  0  0  0
   19.3350   -2.2140   -2.0960 C   0  0  0  0  0  0
   18.3730   -2.1240   -3.0660 C   0  0  0  0  0  0
   18.3820   -3.0390   -4.1530 C   0  0  0  0  0  0
   19.3880   -4.0420   -4.2350 C   0  0  0  0  0  0
   22.9540   -4.4950   -5.1530 C   0  0  0  0  0  0
   23.2610   -4.5620   -6.6560 C   0  0  0  0  0  0
   22.2880   -4.2650   -7.6030 C   0  0  0  0  0  0
   22.5810   -4.3440   -8.9750 C   0  0  0  0  0  0
   23.8600   -4.7330   -9.4070 C   0  0  0  0  0  0
   24.2720   -4.8510  -10.7650 N   0  0  0  0  0  0
   23.4110   -4.8870  -11.9140 C   0  0  0  0  0  0
   22.2160   -4.8380  -11.8330 O   0  0  0  0  0  0
   24.0380   -5.0650  -13.2770 C   0  0  0  0  0  0
   23.7770   -6.4890  -13.7590 C   0  0  0  0  0  0
   24.4050   -7.5510  -13.0690 C   0  0  0  0  0  0
   24.1660   -8.8940  -13.4560 C   0  0  0  0  0  0
   23.2920   -9.1730  -14.5350 C   0  0  0  0  0  0
   22.6410   -8.1110  -15.2110 C   0  0  0  0  0  0
   22.8690   -6.7650  -14.8280 C   0  0  0  0  0  0
   22.9820  -10.8400  -15.0040 S   0  0  0  0  0  0
   22.9390  -10.9650  -16.4350 O   0  0  0  0  0  0
   24.0300  -11.7580  -14.5970 O   0  0  0  0  0  0
   21.3770  -11.3070  -14.2570 C   0  0  0  0  0  0
   21.1740  -10.9830  -12.7430 C   0  0  0  0  0  0
   24.8340   -5.0400   -8.4310 C   0  0  0  0  0  0
   24.5470   -4.9640   -7.0790 C   0  0  0  0  0  0
   20.2907   -9.0302   -6.5301 H   0  0  0  0  0  0
   21.8526   -8.3576   -7.1088 H   0  0  0  0  0  0
   20.4784   -7.2574   -6.7513 H   0  0  0  0  0  0
   20.5994   -7.8824   -4.3632 H   0  0  0  0  0  0
   21.9736   -8.9826   -4.7207 H   0  0  0  0  0  0
   22.9384   -7.0510   -3.6855 H   0  0  0  0  0  0
   23.2960   -6.8547   -5.4349 H   0  0  0  0  0  0
   21.1443   -5.5083   -5.3325 H   0  0  0  0  0  0
   20.9573   -6.0710   -2.8673 H   0  0  0  0  0  0
   22.2129   -4.8056   -2.6463 H   0  0  0  0  0  0
   21.0987   -3.2796   -1.3930 H   0  0  0  0  0  0
   19.3304   -1.5128   -1.2615 H   0  0  0  0  0  0
   17.6039   -1.3541   -3.0047 H   0  0  0  0  0  0
   17.6164   -2.9724   -4.9260 H   0  0  0  0  0  0
   19.3950   -4.7395   -5.0726 H   0  0  0  0  0  0
   22.5572   -3.4856   -4.9693 H   0  0  0  0  0  0
   23.9209   -4.6078   -4.6407 H   0  0  0  0  0  0
   21.2903   -3.9686   -7.2790 H   0  0  0  0  0  0
   21.8116   -4.1021   -9.7083 H   0  0  0  0  0  0
   25.3416   -4.9249  -11.0108 H   0  0  0  0  0  0
   23.5936   -4.3466  -13.9816 H   0  0  0  0  0  0
   25.1216   -4.8885  -13.2080 H   0  0  0  0  0  0
   25.0753   -7.3367  -12.2366 H   0  0  0  0  0  0
   24.6542   -9.7105  -12.9239 H   0  0  0  0  0  0
   21.9591   -8.3309  -16.0325 H   0  0  0  0  0  0
   22.3583   -5.9509  -15.3423 H   0  0  0  0  0  0
   20.5629  -10.7848  -14.7810 H   0  0  0  0  0  0
   21.2331  -12.3938  -14.3468 H   0  0  0  0  0  0
   20.1736  -11.3147  -12.4280 H   0  0  0  0  0  0
   21.2676   -9.8985  -12.5844 H   0  0  0  0  0  0
   21.9378  -11.5075  -12.1502 H   0  0  0  0  0  0
   25.8316   -5.3428   -8.7489 H   0  0  0  0  0  0
   25.3113   -5.2137   -6.3431 H   0  0  0  0  0  0
  1  2  1  0  0  0
  1 34  1  0  0  0
  1 35  1  0  0  0
  1 36  1  0  0  0
  2  3  1  0  0  0
  2 37  1  0  0  0
  2 38  1  0  0  0
  3  4  1  0  0  0
  3 39  1  0  0  0
  3 40  1  0  0  0
  4  5  1  0  0  0
  4 12  1  0  0  0
  4 41  1  0  0  0
  5  6  1  0  0  0
  5 42  1  0  0  0
  5 43  1  0  0  0
  6  7  2  0  0  0
  6 11  1  0  0  0
  7  8  1  0  0  0
  7 44  1  0  0  0
  8  9  2  0  0  0
  8 45  1  0  0  0
  9 10  1  0  0  0
  9 46  1  0  0  0
 10 11  2  0  0  0
 10 47  1  0  0  0
 11 48  1  0  0  0
 12 13  1  0  0  0
 12 49  1  0  0  0
 12 50  1  0  0  0
 13 14  2  0  0  0
 13 33  1  0  0  0
 14 15  1  0  0  0
 14 51  1  0  0  0
 15 16  2  0  0  0
 15 52  1  0  0  0
 16 17  1  0  0  0
 16 32  1  0  0  0
 17 18  1  0  0  0
 17 53  1  0  0  0
 18 19  2  0  0  0
 18 20  1  0  0  0
 20 21  1  0  0  0
 20 54  1  0  0  0
 20 55  1  0  0  0
 21 22  2  0  0  0
 21 26  1  0  0  0
 22 23  1  0  0  0
 22 56  1  0  0  0
 23 24  2  0  0  0
 23 57  1  0  0  0
 24 25  1  0  0  0
 24 27  1  0  0  0
 25 26  2  0  0  0
 25 58  1  0  0  0
 26 59  1  0  0  0
 27 28  2  0  0  0
 27 29  2  0  0  0
 27 30  1  0  0  0
 30 31  1  0  0  0
 30 60  1  0  0  0
 30 61  1  0  0  0
 31 62  1  0  0  0
 31 63  1  0  0  0
 31 64  1  0  0  0
 32 33  2  0  0  0
 32 65  1  0  0  0
 33 66  1  0  0  0
M  CHG  1   4   1
M  END
> <s_m_source_file>
../4nie_ligand.sdf

> <i_m_source_file_index>
1

> <s_epik_input>
W2NIXTFbY0hdW2NIXVtjSF1bY0hdYzFbQ0gyXVtOQEgrXShbQ0gyXVtDSDJdW0NIM10pW0NIMl1jMltjSF1bY0hdYyhbY0hdW2NIXTIpW05IXUMoPU8pW0NIMl1jM1tjSF1bY0hdYyhbY0hdW2NIXTMpUyg9TykoPU8pW0NIMl1bQ0gzXQ==

> <s_epik_cmdline>
J2VwaWtfYXBwJywgJy1pbWFlJywgJ2xpZ2FuZF9wcm8ubWFlJywgJy1vbWFlJywgJ2xpZ2FuZF9wcmVwLm1hZScsICctbXMnLCAnMScsICctcGgnLCAnNycsICctcGh0JywgJzAuNScsICctbnQn

> <r_epik_Ionization_Penalty>
  0.0848

> <r_epik_Ionization_Penalty_Charging>
  0.0848

> <r_epik_Ionization_Penalty_Neutral>
  0.0000

> <r_epik_State_Penalty>
  0.0754

> <r_epik_Charging_Adjusted_Penalty>
0.16015056889217

> <i_epik_Tot_Q>
1

> <i_epik_Tot_abs_Q>
1

$$$$
