4nj3_ligand
                    3D
 Schrodinger Suite 2020-3.
 56 59  0  0  1  0            999 V2000
   -3.8170   32.4050   12.3680 N   0  0  0  0  0  0
   -4.5550   31.2920   12.4300 C   0  0  0  0  0  0
   -5.7630   31.2880   13.1290 C   0  0  0  0  0  0
   -6.2020   32.4490   13.7750 C   0  0  0  0  0  0
   -5.4080   33.6150   13.6870 C   0  0  0  0  0  0
   -4.2050   33.5480   12.9520 C   0  0  0  0  0  0
   -5.7640   34.8420   14.2700 C   0  0  0  0  0  0
   -4.9420   35.9900   14.1380 C   0  0  0  0  0  0
   -3.7370   35.8790   13.4200 C   0  0  0  0  0  0
   -3.3830   34.6770   12.8340 C   0  0  0  0  0  0
   -4.0220   30.0540   11.7790 C   0  0  0  0  0  0
   -7.5260   32.3920   14.5090 C   0  0  0  0  0  0
   -5.3150   37.2960   14.7440 C   0  0  0  0  0  0
   -4.8140   29.1960   11.4040 O   0  0  0  0  0  0
   -2.6870   29.9530   11.6380 N   0  0  0  0  0  0
   -2.0560   28.8000   11.0320 C   0  0  1  0  0  0
   -2.1320   28.9050    9.4720 C   0  0  0  0  0  0
   -1.2490   30.0780    8.9610 C   0  0  0  0  0  0
   -0.6160   28.7390   11.4830 C   0  0  0  0  0  0
   -0.1650   29.5720   12.2610 O   0  0  0  0  0  0
    0.0940   27.7150   10.9900 O   0  0  0  0  0  0
    1.4690   27.6560   11.4390 C   0  0  0  0  0  0
   -8.5390   31.9560   13.9000 O   0  0  0  0  0  0
   -7.6050   32.8010   15.6990 O   0  5  0  0  0  0
   -5.9130   37.3470   16.0130 C   0  0  0  0  0  0
   -6.2530   38.5830   16.5920 C   0  0  0  0  0  0
   -5.9900   39.7810   15.9070 C   0  0  0  0  0  0
   -5.3900   39.7360   14.6530 C   0  0  0  0  0  0
   -5.0530   38.5010   14.0740 C   0  0  0  0  0  0
   -1.7300   31.4050    9.0220 C   0  0  0  0  0  0
   -0.9190   32.4740    8.5800 C   0  0  0  0  0  0
    0.3300   32.2190    7.9860 C   0  0  0  0  0  0
    0.7630   30.8880    7.8280 C   0  0  0  0  0  0
    0.0140   29.8290    8.3710 C   0  0  0  0  0  0
   -6.9790   38.6250   18.1800 Cl  0  0  0  0  0  0
    1.1370   33.2990    7.5910 O   0  0  0  0  0  0
   -6.3647   30.3801   13.1717 H   0  0  0  0  0  0
   -6.6925   34.9135   14.8364 H   0  0  0  0  0  0
   -3.0799   36.7435   13.3252 H   0  0  0  0  0  0
   -2.4514   34.6069   12.2724 H   0  0  0  0  0  0
   -2.0715   30.7883   12.0033 H   0  0  0  0  0  0
   -2.5968   27.9169   11.4031 H   0  0  0  0  0  0
   -1.7737   27.9667    9.0235 H   0  0  0  0  0  0
   -3.1737   29.0830    9.1668 H   0  0  0  0  0  0
    1.9666   26.7873   10.9832 H   0  0  0  0  0  0
    1.4931   27.5594   12.5345 H   0  0  0  0  0  0
    1.9920   28.5765   11.1404 H   0  0  0  0  0  0
   -6.1153   36.4223   16.5535 H   0  0  0  0  0  0
   -6.2542   40.7389   16.3550 H   0  0  0  0  0  0
   -5.1805   40.6620   14.1176 H   0  0  0  0  0  0
   -4.5818   38.4785   13.0914 H   0  0  0  0  0  0
   -2.7286   31.6044    9.4108 H   0  0  0  0  0  0
   -1.2630   33.5013    8.6999 H   0  0  0  0  0  0
    1.6829   30.6779    7.2823 H   0  0  0  0  0  0
    0.4070   28.8129    8.3376 H   0  0  0  0  0  0
    0.7789   34.3306    7.7236 H   0  0  0  0  0  0
  1  2  2  0  0  0
  1  6  1  0  0  0
  2  3  1  0  0  0
  2 11  1  0  0  0
  3  4  2  0  0  0
  3 37  1  0  0  0
  4  5  1  0  0  0
  4 12  1  0  0  0
  5  6  2  0  0  0
  5  7  1  0  0  0
  6 10  1  0  0  0
  7  8  2  0  0  0
  7 38  1  0  0  0
  8  9  1  0  0  0
  8 13  1  0  0  0
  9 10  2  0  0  0
  9 39  1  0  0  0
 10 40  1  0  0  0
 11 14  2  0  0  0
 11 15  1  0  0  0
 12 23  2  0  0  0
 12 24  1  0  0  0
 13 25  2  0  0  0
 13 29  1  0  0  0
 15 16  1  0  0  0
 15 41  1  0  0  0
 16 17  1  0  0  0
 16 19  1  0  0  0
 16 42  1  0  0  0
 17 18  1  0  0  0
 17 43  1  0  0  0
 17 44  1  0  0  0
 18 30  2  0  0  0
 18 34  1  0  0  0
 19 20  2  0  0  0
 19 21  1  0  0  0
 21 22  1  0  0  0
 22 45  1  0  0  0
 22 46  1  0  0  0
 22 47  1  0  0  0
 25 26  1  0  0  0
 25 48  1  0  0  0
 26 27  2  0  0  0
 26 35  1  0  0  0
 27 28  1  0  0  0
 27 49  1  0  0  0
 28 29  2  0  0  0
 28 50  1  0  0  0
 29 51  1  0  0  0
 30 31  1  0  0  0
 30 52  1  0  0  0
 31 32  2  0  0  0
 31 53  1  0  0  0
 32 33  1  0  0  0
 32 36  1  0  0  0
 33 34  2  0  0  0
 33 54  1  0  0  0
 34 55  1  0  0  0
 36 56  1  0  0  0
M  CHG  1  24  -1
M  END
> <s_m_source_file>
../4nj3_ligand.sdf

> <i_m_source_file_index>
1

> <s_epik_input>
W2NIXTFbY0hdW2NIXWMoQ2wpW2NIXWMxLWMoW2NIXTIpW2NIXVtjSF1jKGMyMyluYyhbY0hdYzNDKD1PKVtPSF0pQyg9TylbTkhdW0NASF0oQyg9TylPW0NIM10pW0NIMl1jNFtjSF1bY0hdYyhbT0hdKVtjSF1bY0hdNA==

> <s_epik_cmdline>
J2VwaWtfYXBwJywgJy1pbWFlJywgJ2xpZ2FuZF9wcm8ubWFlJywgJy1vbWFlJywgJ2xpZ2FuZF9wcmVwLm1hZScsICctbXMnLCAnMScsICctcGgnLCAnNycsICctcGh0JywgJzAuNScsICctbnQn

> <r_lp_tautomer_probability>
1

> <r_epik_Ionization_Penalty>
  0.0008

> <r_epik_Ionization_Penalty_Charging>
  0.0001

> <r_epik_Ionization_Penalty_Neutral>
  0.0007

> <r_epik_State_Penalty>
 -0.0000

> <r_epik_Charging_Adjusted_Penalty>
0.00013667442062516

> <i_epik_Tot_Q>
-1

> <i_epik_Tot_abs_Q>
1

> <s_epik_Chemistry_Notes>
This compound has an ester and may undergo hydrolysis at high or low pH.

$$$$
