4nj9_ligand
                    3D
 Schrodinger Suite 2020-3.
 39 42  0  0  1  0            999 V2000
    5.7690   22.6200   55.5280 O   0  0  0  0  0  0
    5.9200   21.4590   54.6250 S   0  0  0  0  0  0
    7.3070   20.9700   54.4270 O   0  0  0  0  0  0
    5.4890   22.0230   53.3170 O   0  5  0  0  0  0
    4.9450   20.2600   55.1620 C   0  0  0  0  0  0
    3.7580   19.9710   54.4200 C   0  0  0  0  0  0
    2.7930   18.9630   54.7640 C   0  0  0  0  0  0
    1.4240   18.7140   53.8050 S   0  0  0  0  0  0
    1.4520   19.7360   52.7780 O   0  0  0  0  0  0
    1.4400   17.3520   53.3340 O   0  0  0  0  0  0
    0.2330   18.9160   54.6390 O   0  5  0  0  0  0
    3.0430   18.2180   55.9290 C   0  0  0  0  0  0
    2.1780   17.1880   56.3470 C   0  0  0  0  0  0
    2.4070   16.4330   57.4950 C   0  0  0  0  0  0
    5.1600   19.4860   56.3520 C   0  0  0  0  0  0
    4.2310   18.4570   56.7190 C   0  0  0  0  0  0
    4.4500   17.6600   57.8880 C   0  0  0  0  0  0
    3.5580   16.6580   58.2940 C   0  0  0  0  0  0
    6.3230   19.6630   57.1480 C   0  0  0  0  0  0
    6.5130   18.8950   58.2790 C   0  0  0  0  0  0
    5.5910   17.9110   58.6590 C   0  0  0  0  0  0
    5.8600   17.1700   59.8010 C   0  0  0  0  0  0
    7.0310   17.4960   60.4850 O   0  0  0  0  0  0
    7.7110   16.5320   61.3020 C   0  0  0  0  0  0
    4.9710   16.1580   60.2160 C   0  0  0  0  0  0
    3.7790   15.9100   59.4950 C   0  0  0  0  0  0
    2.7780   14.7170   60.0430 S   0  0  0  0  0  0
    1.3810   15.0640   60.2860 O   0  0  0  0  0  0
    2.8040   13.6090   59.0190 O   0  5  0  0  0  0
    3.3700   14.0950   61.2370 O   0  0  0  0  0  0
    3.5700   20.5612   53.5231 H   0  0  0  0  0  0
    1.2933   16.9729   55.7477 H   0  0  0  0  0  0
    1.6939   15.6605   57.7829 H   0  0  0  0  0  0
    7.0674   20.4073   56.8649 H   0  0  0  0  0  0
    7.4006   19.0578   58.8904 H   0  0  0  0  0  0
    8.6049   16.9937   61.7467 H   0  0  0  0  0  0
    8.0110   15.6734   60.6832 H   0  0  0  0  0  0
    7.0383   16.1900   62.1023 H   0  0  0  0  0  0
    5.2034   15.5622   61.0987 H   0  0  0  0  0  0
  1  2  2  0  0  0
  2  3  2  0  0  0
  2  4  1  0  0  0
  2  5  1  0  0  0
  5  6  2  0  0  0
  5 15  1  0  0  0
  6  7  1  0  0  0
  6 31  1  0  0  0
  7  8  1  0  0  0
  7 12  2  0  0  0
  8  9  2  0  0  0
  8 10  2  0  0  0
  8 11  1  0  0  0
 12 13  1  0  0  0
 12 16  1  0  0  0
 13 14  2  0  0  0
 13 32  1  0  0  0
 14 18  1  0  0  0
 14 33  1  0  0  0
 15 16  2  0  0  0
 15 19  1  0  0  0
 16 17  1  0  0  0
 17 18  2  0  0  0
 17 21  1  0  0  0
 18 26  1  0  0  0
 19 20  2  0  0  0
 19 34  1  0  0  0
 20 21  1  0  0  0
 20 35  1  0  0  0
 21 22  2  0  0  0
 22 23  1  0  0  0
 22 25  1  0  0  0
 23 24  1  0  0  0
 24 36  1  0  0  0
 24 37  1  0  0  0
 24 38  1  0  0  0
 25 26  2  0  0  0
 25 39  1  0  0  0
 26 27  1  0  0  0
 27 28  2  0  0  0
 27 29  1  0  0  0
 27 30  2  0  0  0
M  CHG  3   4  -1  11  -1  29  -1
M  END
> <s_m_source_file>
../4nj9_ligand.sdf

> <i_m_source_file_index>
1

> <s_epik_input>
Tz1TKD1PKShbT0hdKWMxW2NIXWMoUyg9TykoPU8pW09IXSljKGMyYzEzKVtjSF1bY0hdYzRjMmMoW2NIXVtjSF0zKWMoUyg9TykoPU8pW09IXSlbY0hdYzRPW0NIM10=

> <s_epik_cmdline>
J2VwaWtfYXBwJywgJy1pbWFlJywgJ2xpZ2FuZF9wcm8ubWFlJywgJy1vbWFlJywgJ2xpZ2FuZF9wcmVwLm1hZScsICctbXMnLCAnMScsICctcGgnLCAnNycsICctcGh0JywgJzAuNScsICctbnQn

> <r_lp_tautomer_probability>
1

> <r_epik_Ionization_Penalty>
  0.0000

> <r_epik_Ionization_Penalty_Charging>
  0.0000

> <r_epik_Ionization_Penalty_Neutral>
  0.0000

> <r_epik_State_Penalty>
 -0.0000

> <r_epik_Charging_Adjusted_Penalty>
6.94075679345778e-06

> <i_epik_Tot_Q>
-3

> <i_epik_Tot_abs_Q>
3

$$$$
