4njd_ligand
                    3D
 Schrodinger Suite 2020-3.
 47 51  0  0  1  0            999 V2000
  -20.9560   -3.0750   15.0930 C   0  0  0  0  0  0
  -21.9390   -3.3670   15.9770 C   0  0  0  0  0  0
  -22.4120   -4.5300   16.4260 C   0  0  0  0  0  0
  -23.4140   -4.2960   17.2820 N   0  0  0  0  0  0
  -23.5340   -2.9370   17.3850 N   0  0  0  0  0  0
  -22.6400   -2.3860   16.6020 C   0  0  0  0  0  0
  -22.3990   -1.1060   16.3660 C   0  0  0  0  0  0
  -21.4130   -0.7230   15.4700 C   0  0  0  0  0  0
  -20.6720   -1.7020   14.7990 C   0  0  0  0  0  0
  -19.7480   -1.2300   13.9060 N   0  5  0  0  0  0
  -19.0310   -1.9920   13.0680 C   0  0  0  0  0  0
  -19.1600   -3.3050   12.9670 N   0  0  0  0  0  0
  -18.1100   -1.3900   12.3080 N   0  0  0  0  0  0
  -17.3430   -2.0610   11.4510 C   0  0  0  0  0  0
  -16.4190   -1.3800   10.7120 O   0  0  0  0  0  0
  -16.8420   -0.0080   10.5040 C   0  0  0  0  0  0
  -17.4680   -3.4010   11.3580 N   0  0  0  0  0  0
  -18.3550   -4.0240   12.1400 C   0  0  0  0  0  0
  -18.5530   -5.3510   12.0820 N   0  0  0  0  0  0
  -19.9860   -5.7010   11.8650 C   0  0  0  0  0  0
  -20.1550   -7.0920   12.1470 C   0  0  0  0  0  0
  -21.3010   -7.4120   13.0510 C   0  0  0  0  0  0
  -21.3330   -8.6540   13.5180 C   0  0  0  0  0  0
  -20.4690   -9.6670   13.3210 C   0  0  0  0  0  0
  -20.6950  -10.8990   13.9550 C   0  0  0  0  0  0
  -21.8410  -10.9730   14.7800 C   0  0  0  0  0  0
  -22.6820   -9.8530   14.9300 C   0  0  0  0  0  0
  -22.4150   -8.7070   14.2990 C   0  0  0  0  0  0
  -23.0350   -7.4880   14.2620 N   0  0  0  0  0  0
  -22.3280   -6.6830   13.4650 C   0  0  0  0  0  0
  -20.3893   -3.8863   14.6128 H   0  0  0  0  0  0
  -22.1101   -5.5638   16.2020 H   0  0  0  0  0  0
  -22.9828   -0.3440   16.8824 H   0  0  0  0  0  0
  -21.2114    0.3424   15.2850 H   0  0  0  0  0  0
  -16.0852    0.5226    9.9076 H   0  0  0  0  0  0
  -16.9581    0.4914   11.4772 H   0  0  0  0  0  0
  -17.8034    0.0023    9.9696 H   0  0  0  0  0  0
  -17.8002   -6.1477   12.1745 H   0  0  0  0  0  0
  -20.6160   -5.1002   12.5374 H   0  0  0  0  0  0
  -20.2606   -5.4914   10.8206 H   0  0  0  0  0  0
  -20.3292   -7.6379   11.2081 H   0  0  0  0  0  0
  -19.2483   -7.4802   12.6341 H   0  0  0  0  0  0
  -19.5920   -9.5361   12.6700 H   0  0  0  0  0  0
  -19.9989  -11.7356   13.7952 H   0  0  0  0  0  0
  -22.0747  -11.9008   15.3022 H   0  0  0  0  0  0
  -23.5682   -9.9311   15.5769 H   0  0  0  0  0  0
  -22.6635   -5.6503   13.2890 H   0  0  0  0  0  0
  1  2  2  0  0  0
  1  9  1  0  0  0
  1 31  1  0  0  0
  2  3  1  0  0  0
  2  6  1  0  0  0
  3  4  2  0  0  0
  3 32  1  0  0  0
  4  5  1  0  0  0
  5  6  2  0  0  0
  6  7  1  0  0  0
  7  8  1  0  0  0
  7 33  1  0  0  0
  8  9  2  0  0  0
  8 34  1  0  0  0
  9 10  1  0  0  0
 10 11  1  0  0  0
 11 12  2  0  0  0
 11 13  1  0  0  0
 12 18  1  0  0  0
 13 14  2  0  0  0
 14 15  1  0  0  0
 14 17  1  0  0  0
 15 16  1  0  0  0
 16 35  1  0  0  0
 16 36  1  0  0  0
 16 37  1  0  0  0
 17 18  2  0  0  0
 18 19  1  0  0  0
 19 20  1  0  0  0
 19 38  1  0  0  0
 20 21  1  0  0  0
 20 39  1  0  0  0
 20 40  1  0  0  0
 21 22  1  0  0  0
 21 41  1  0  0  0
 21 42  1  0  0  0
 22 23  2  0  0  0
 22 30  1  0  0  0
 23 24  1  0  0  0
 23 28  1  0  0  0
 24 25  2  0  0  0
 24 43  1  0  0  0
 25 26  1  0  0  0
 25 44  1  0  0  0
 26 27  1  0  0  0
 26 45  1  0  0  0
 27 28  2  0  0  0
 27 46  1  0  0  0
 28 29  1  0  0  0
 29 30  2  0  0  0
 30 47  1  0  0  0
M  CHG  1  10  -1
M  END
> <s_m_source_file>
../4njd_ligand.sdf

> <i_m_source_file_index>
1

> <s_epik_input>
W0NIXTE9Tk49QyhDMTIpW0NIMl1bQ0hdPUMoW0NIXT0yKVtOSF1jM25jKG5jKG4zKU9bQ0gzXSlbTkhdW0NIMl1bQ0gyXUM9NFtDSF09TkMoQzQ1KT1bQ0hdW0NIMl1bQ0hdPVtDSF01

> <s_epik_cmdline>
J2VwaWtfYXBwJywgJy1pbWFlJywgJ2xpZ2FuZF9wcm8ubWFlJywgJy1vbWFlJywgJ2xpZ2FuZF9wcmVwLm1hZScsICctbXMnLCAnMScsICctcGgnLCAnNycsICctcGh0JywgJzAuNScsICctbnQn

> <r_lp_tautomer_probability>
1

> <r_epik_Ionization_Penalty>
  0.0001

> <r_epik_Ionization_Penalty_Charging>
  0.0000

> <r_epik_Ionization_Penalty_Neutral>
  0.0001

> <r_epik_State_Penalty>
 -0.0000

> <r_epik_Charging_Adjusted_Penalty>
0

> <i_epik_Tot_Q>
-1

> <i_epik_Tot_abs_Q>
1

> <s_epik_Chemistry_Notes>
This compound has an imine and may undergo hydrolysis.

$$$$
