4nk3_ligand
                    3D
 Schrodinger Suite 2020-3.
 45 46  0  0  1  0            999 V2000
    3.6100   13.7740   19.4520 C   0  0  0  0  0  0
    9.4460   17.8560   17.3980 C   0  0  0  0  0  0
   10.7600   15.9270   17.9200 C   0  0  0  0  0  0
    5.1220   11.9790   20.2100 C   0  0  0  0  0  0
    5.4990   10.6470   18.1850 C   0  0  0  0  0  0
    5.6120   13.0290   17.9860 C   0  0  1  0  0  0
    4.3030   13.8170   18.0930 C   0  0  0  0  0  0
    8.2670   16.9680   17.0360 C   0  0  0  0  0  0
    9.6450   14.9860   17.4940 C   0  0  0  0  0  0
    8.3300   15.6690   17.8110 C   0  0  0  0  0  0
    6.8260   13.8220   18.4310 C   0  0  0  0  0  0
    3.6830   12.4320   20.1650 C   0  0  2  0  0  0
   10.6990   17.1550   17.1340 N   0  3  0  0  0  0
    7.1800   14.8200   17.5510 N   0  0  0  0  0  0
    3.0160   11.3530   19.4430 N   0  0  1  0  0  0
    5.5930   11.8450   18.8360 N   0  0  0  0  0  0
    1.7490    9.4650   17.9160 O   0  5  0  0  0  0
    5.5160   10.5150   16.9610 O   0  0  0  0  0  0
    7.4500   13.5770   19.4560 O   0  0  0  0  0  0
   -0.4440   10.7030   18.2140 O   0  0  0  0  0  0
    1.4990   11.7010   16.9440 O   0  0  0  0  0  0
    1.5850   11.5660   19.4220 O   0  0  0  0  0  0
    0.9850   10.8950   18.0400 S   0  0  0  0  0  0
    4.0715   14.5140   20.1225 H   0  0  0  0  0  0
    2.5425   14.0081   19.3268 H   0  0  0  0  0  0
    9.4116   18.7751   16.7946 H   0  0  0  0  0  0
    9.3950   18.1161   18.4656 H   0  0  0  0  0  0
   10.6456   16.1720   18.9863 H   0  0  0  0  0  0
   11.7329   15.4399   17.7580 H   0  0  0  0  0  0
    5.7247   12.7255   20.7480 H   0  0  0  0  0  0
    5.1859   11.0120   20.7304 H   0  0  0  0  0  0
    5.4028    9.7628   18.8323 H   0  0  0  0  0  0
    5.6978   12.7302   16.9308 H   0  0  0  0  0  0
    3.6320   13.4030   17.3260 H   0  0  0  0  0  0
    4.5503   14.8586   17.8403 H   0  0  0  0  0  0
    7.3284   17.4869   17.2807 H   0  0  0  0  0  0
    8.2928   16.7452   15.9591 H   0  0  0  0  0  0
    9.7254   14.7869   16.4152 H   0  0  0  0  0  0
    9.7314   14.0401   18.0489 H   0  0  0  0  0  0
    8.2484   15.8553   18.8920 H   0  0  0  0  0  0
    3.1924   12.5653   21.1405 H   0  0  0  0  0  0
   10.7602   16.9034   16.0649 H   0  0  0  0  0  0
   11.5457   17.8018   17.4075 H   0  0  0  0  0  0
    6.5797   14.9704   16.6416 H   0  0  0  0  0  0
    3.3621   11.3327   18.4837 H   0  0  0  0  0  0
  1  7  1  0  0  0
  1 12  1  0  0  0
  1 24  1  0  0  0
  1 25  1  0  0  0
  2  8  1  0  0  0
  2 13  1  0  0  0
  2 26  1  0  0  0
  2 27  1  0  0  0
  3  9  1  0  0  0
  3 13  1  0  0  0
  3 28  1  0  0  0
  3 29  1  0  0  0
  4 12  1  0  0  0
  4 16  1  0  0  0
  4 30  1  0  0  0
  4 31  1  0  0  0
  5 16  1  0  0  0
  5 18  2  0  0  0
  5 32  1  0  0  0
  6  7  1  0  0  0
  6 11  1  0  0  0
  6 16  1  0  0  0
  6 33  1  0  0  0
  7 34  1  0  0  0
  7 35  1  0  0  0
  8 10  1  0  0  0
  8 36  1  0  0  0
  8 37  1  0  0  0
  9 10  1  0  0  0
  9 38  1  0  0  0
  9 39  1  0  0  0
 10 14  1  0  0  0
 10 40  1  0  0  0
 11 14  1  0  0  0
 11 19  2  0  0  0
 12 15  1  0  0  0
 12 41  1  0  0  0
 13 42  1  0  0  0
 13 43  1  0  0  0
 14 44  1  0  0  0
 15 22  1  0  0  0
 15 45  1  0  0  0
 17 23  1  0  0  0
 20 23  2  0  0  0
 21 23  2  0  0  0
 22 23  1  0  0  0
M  CHG  2  13   1  17  -1
M  END
> <s_m_source_file>
../4nk3_ligand.sdf

> <i_m_source_file_index>
1

> <s_epik_input>
W09IXVMoPU8pKD1PKU9bTkgyK11bQ0BASF0oW0NIMl1OMVtDSF09TylbQ0gyXVtDSDJdW0NASF0xQyg9TylbTkhdW0NIXTJbQ0gyXVtDSDJdW05IMitdW0NIMl1bQ0gyXTI=

> <s_epik_cmdline>
J2VwaWtfYXBwJywgJy1pbWFlJywgJ2xpZ2FuZF9wcm8ubWFlJywgJy1vbWFlJywgJ2xpZ2FuZF9wcmVwLm1hZScsICctbXMnLCAnMScsICctcGgnLCAnNycsICctcGh0JywgJzAuNScsICctbnQn

> <r_lp_tautomer_probability>
1

> <r_epik_Ionization_Penalty>
  0.0002

> <r_epik_Ionization_Penalty_Charging>
  0.0002

> <r_epik_Ionization_Penalty_Neutral>
  0.0001

> <r_epik_State_Penalty>
 -0.0000

> <r_epik_Charging_Adjusted_Penalty>
0.00019377488851886

> <i_epik_Tot_Q>
0

> <i_epik_Tot_abs_Q>
2

> <s_epik_Chemistry_Notes>
This compound has a N-S or N-O group and may undergo hydrolysis at high or low pH.

$$$$
