4nk9_ligand
                    3D
 Schrodinger Suite 2020-3.
 57 60  0  0  1  0            999 V2000
   89.8260    1.8940   19.4540 C   0  0  0  0  0  0
   89.5550    1.7530   18.0520 O   0  0  0  0  0  0
   90.0300    2.7040   17.1660 C   0  0  0  0  0  0
   89.3170    2.8220   15.9480 C   0  0  0  0  0  0
   91.1940    3.4760   17.4120 C   0  0  0  0  0  0
   91.6050    4.3940   16.4320 C   0  0  0  0  0  0
   92.7300    5.1980   16.5620 O   0  0  0  0  0  0
   93.2440    5.5050   17.8640 C   0  0  0  0  0  0
   90.9050    4.5350   15.2260 C   0  0  0  0  0  0
   89.7530    3.7560   14.9900 C   0  0  0  0  0  0
   89.0400    3.8830   13.6600 C   0  0  0  0  0  0
   90.0440    3.4410   12.5420 C   0  0  0  0  0  0
   89.4080    2.7440   11.4090 C   0  0  0  0  0  0
   88.6580    3.2890   10.3490 C   0  0  0  0  0  0
   89.5020    1.4050   11.2670 N   0  0  0  0  0  0
   88.7830    1.1330   10.1580 N   0  3  0  0  0  0
   88.2770    2.2220    9.5720 C   0  0  3  0  0  0
   87.4720    2.2050    8.4340 N   0  0  0  0  0  0
   86.4700    3.0900    8.0410 C   0  0  0  0  0  0
   85.4660    2.7470    7.1330 C   0  0  0  0  0  0
   84.5260    3.7330    6.8490 C   0  0  0  0  0  0
   84.5310    4.9870    7.4180 N   0  0  0  0  0  0
   86.4910    4.3490    8.6470 N   0  0  0  0  0  0
   85.5160    5.2210    8.2960 C   0  0  0  0  0  0
   85.5380    6.4350    8.8830 N   0  0  0  0  0  0
   86.4790    6.8590    9.9200 C   0  0  0  0  0  0
   86.1600    6.3060   11.2630 C   0  0  0  0  0  0
   85.4680    5.2310   11.6620 C   0  0  0  0  0  0
   86.6450    6.9730   12.3600 O   0  0  0  0  0  0
   86.2140    6.2550   13.4960 N   0  0  0  0  0  0
   85.5290    5.2460   13.0590 C   0  0  0  0  0  0
   84.9090    4.2830   14.0240 C   0  0  0  0  0  0
   89.3750    1.0530   20.0010 H   0  0  0  0  0  0
   89.3972    2.8397   19.8170 H   0  0  0  0  0  0
   90.9136    1.8975   19.6187 H   0  0  0  0  0  0
   88.4437    2.1988   15.7556 H   0  0  0  0  0  0
   91.7557    3.3597   18.3388 H   0  0  0  0  0  0
   94.1307    6.1485   17.7658 H   0  0  0  0  0  0
   93.5224    4.5729   18.3774 H   0  0  0  0  0  0
   92.4734    6.0293   18.4482 H   0  0  0  0  0  0
   91.2495    5.2440   14.4732 H   0  0  0  0  0  0
   88.1518    3.2341   13.6567 H   0  0  0  0  0  0
   88.7314    4.9278   13.5077 H   0  0  0  0  0  0
   90.5526    4.3272   12.1347 H   0  0  0  0  0  0
   90.7896    2.7544   12.9693 H   0  0  0  0  0  0
   88.4958    4.3755   10.2917 H   0  0  0  0  0  0
   85.4211    1.7604    6.6717 H   0  0  0  0  0  0
   83.7383    3.4986    6.1330 H   0  0  0  0  0  0
   84.7673    7.1317    8.5215 H   0  0  0  0  0  0
   87.4924    6.5233    9.6550 H   0  0  0  0  0  0
   86.4656    7.9559   10.0010 H   0  0  0  0  0  0
   84.9638    4.4990   11.0311 H   0  0  0  0  0  0
   84.3724    3.5005   13.4674 H   0  0  0  0  0  0
   84.2030    4.8196   14.6749 H   0  0  0  0  0  0
   85.6962    3.8217   14.6384 H   0  0  0  0  0  0
   88.6630    0.0925    9.8218 H   0  0  0  0  0  0
   87.2776    4.5958    9.3752 H   0  0  0  0  0  0
  1  2  1  0  0  0
  1 33  1  0  0  0
  1 34  1  0  0  0
  1 35  1  0  0  0
  2  3  1  0  0  0
  3  4  2  0  0  0
  3  5  1  0  0  0
  4 10  1  0  0  0
  4 36  1  0  0  0
  5  6  2  0  0  0
  5 37  1  0  0  0
  6  7  1  0  0  0
  6  9  1  0  0  0
  7  8  1  0  0  0
  8 38  1  0  0  0
  8 39  1  0  0  0
  8 40  1  0  0  0
  9 10  2  0  0  0
  9 41  1  0  0  0
 10 11  1  0  0  0
 11 12  1  0  0  0
 11 42  1  0  0  0
 11 43  1  0  0  0
 12 13  1  0  0  0
 12 44  1  0  0  0
 12 45  1  0  0  0
 13 14  2  0  0  0
 13 15  1  0  0  0
 14 17  1  0  0  0
 14 46  1  0  0  0
 15 16  2  0  0  0
 16 17  1  0  0  0
 16 56  1  0  0  0
 17 18  1  0  0  0
 18 19  2  0  0  0
 19 20  1  0  0  0
 19 23  1  0  0  0
 20 21  2  0  0  0
 20 47  1  0  0  0
 21 22  1  0  0  0
 21 48  1  0  0  0
 22 24  2  0  0  0
 23 24  1  0  0  0
 23 57  1  0  0  0
 24 25  1  0  0  0
 25 26  1  0  0  0
 25 49  1  0  0  0
 26 27  1  0  0  0
 26 50  1  0  0  0
 26 51  1  0  0  0
 27 28  2  0  0  0
 27 29  1  0  0  0
 28 31  1  0  0  0
 28 52  1  0  0  0
 29 30  1  0  0  0
 30 31  2  0  0  0
 31 32  1  0  0  0
 32 53  1  0  0  0
 32 54  1  0  0  0
 32 55  1  0  0  0
M  CHG  1  16   1
M  END
> <s_m_source_file>
../4nk9_ligand.sdf

> <i_m_source_file_index>
1

> <s_epik_input>
W0NIM11PYzFbY0hdYyhbY0hdYyhbY0hdMSlPW0NIM10pW0NIMl1bQ0gyXUMyPVtDSF1bQ0hdKE49TjIpW05IXWMzW2NIXVtjSF1uYyhuMylbTkhdW0NIMl1jNFtjSF1jKG5vNClbQ0gzXQ==

> <s_epik_cmdline>
J2VwaWtfYXBwJywgJy1pbWFlJywgJ2xpZ2FuZF9wcm8ubWFlJywgJy1vbWFlJywgJ2xpZ2FuZF9wcmVwLm1hZScsICctbXMnLCAnMScsICctcGgnLCAnNycsICctcGh0JywgJzAuNScsICctbnQn

> <r_lp_tautomer_probability>
1

> <r_epik_Ionization_Penalty>
  0.0004

> <r_epik_Ionization_Penalty_Charging>
  0.0004

> <r_epik_Ionization_Penalty_Neutral>
  0.0000

> <r_epik_State_Penalty>
 -0.0000

> <r_epik_Charging_Adjusted_Penalty>
0.000435155766500066

> <i_epik_Tot_Q>
1

> <i_epik_Tot_abs_Q>
1

$$$$
