4nka_ligand
                    3D
 Schrodinger Suite 2020-3.
 56 59  0  0  1  0            999 V2000
   84.1590    2.8180   12.9570 C   0  0  0  0  0  0
   84.0040    3.0750   11.5870 C   0  0  0  0  0  0
   85.0290    3.8610   11.2490 C   0  0  0  0  0  0
   88.4160   -1.0030    9.9730 N   0  0  0  0  0  0
   85.1230    0.4980    6.7970 C   0  0  0  0  0  0
   85.8800    0.8020    7.9580 C   0  0  0  0  0  0
   87.6310    0.0180    9.6380 C   0  0  0  0  0  0
   87.7500    1.1070   10.5460 C   0  0  0  0  0  0
   88.6940    0.7010   11.4540 C   0  0  0  0  0  0
   89.1460    1.3780   12.6820 C   0  0  0  0  0  0
   88.1420    1.2280   13.8670 C   0  0  0  0  0  0
   88.6270    1.9420   15.0840 C   0  0  0  0  0  0
   89.3910    1.2550   16.0450 C   0  0  0  0  0  0
   89.8650    1.8960   17.1860 C   0  0  0  0  0  0
   88.3400    3.2980   15.2510 C   0  0  0  0  0  0
   87.2870    5.8600   16.3880 C   0  0  0  0  0  0
   91.4240    4.3810   18.3670 C   0  0  0  0  0  0
   90.0400    4.0020   18.4150 O   0  0  0  0  0  0
   89.5680    3.2520   17.3690 C   0  0  0  0  0  0
   88.8010    3.9620   16.3860 C   0  0  0  0  0  0
   88.5880    5.3160   16.6520 O   0  0  0  0  0  0
   89.0520   -0.5580   11.1240 N   0  0  0  0  0  0
   86.8000   -0.1220    8.4930 N   0  0  0  0  0  0
   84.2160    1.4680    6.3790 C   0  0  0  0  0  0
   84.0620    2.6590    7.0390 N   0  0  0  0  0  0
   85.7490    1.9860    8.6130 N   0  0  0  0  0  0
   84.8130    2.8550    8.1400 C   0  0  0  0  0  0
   84.6270    4.0230    8.8030 N   0  0  0  0  0  0
   85.4270    4.4710    9.9600 C   0  0  0  0  0  0
   85.8040    4.0930   12.3530 O   0  0  0  0  0  0
   85.2130    3.4020   13.4370 N   0  0  0  0  0  0
   83.2790    1.9980   13.8520 C   0  0  0  0  0  0
   83.2116    2.7092   10.9340 H   0  0  0  0  0  0
   85.2449   -0.4436    6.2616 H   0  0  0  0  0  0
   87.2105    2.0539   10.5246 H   0  0  0  0  0  0
   90.1075    0.9511   13.0033 H   0  0  0  0  0  0
   89.2700    2.4529   12.4837 H   0  0  0  0  0  0
   87.1685    1.6510   13.5785 H   0  0  0  0  0  0
   88.0206    0.1626   14.1122 H   0  0  0  0  0  0
   89.6163    0.1994   15.8930 H   0  0  0  0  0  0
   90.4562    1.3526   17.9231 H   0  0  0  0  0  0
   87.7598    3.8332   14.4993 H   0  0  0  0  0  0
   87.2773    6.9292   16.6464 H   0  0  0  0  0  0
   86.5379    5.3295   16.9941 H   0  0  0  0  0  0
   87.0484    5.7384   15.3211 H   0  0  0  0  0  0
   91.6726    4.9752   19.2587 H   0  0  0  0  0  0
   91.6088    4.9807   17.4636 H   0  0  0  0  0  0
   92.0509    3.4775   18.3419 H   0  0  0  0  0  0
   86.9423   -1.0995    8.0090 H   0  0  0  0  0  0
   83.6072    1.2733    5.4961 H   0  0  0  0  0  0
   83.8114    4.6544    8.4207 H   0  0  0  0  0  0
   85.3183    5.5638   10.0225 H   0  0  0  0  0  0
   86.4755    4.2187    9.7431 H   0  0  0  0  0  0
   82.4428    1.5870   13.2674 H   0  0  0  0  0  0
   82.8849    2.6322   14.6598 H   0  0  0  0  0  0
   83.8637    1.1733   14.2855 H   0  0  0  0  0  0
  1  2  1  0  0  0
  1 31  2  0  0  0
  1 32  1  0  0  0
  2  3  2  0  0  0
  2 33  1  0  0  0
  3 29  1  0  0  0
  3 30  1  0  0  0
  4  7  2  0  0  0
  4 22  1  0  0  0
  5  6  2  0  0  0
  5 24  1  0  0  0
  5 34  1  0  0  0
  6 23  1  0  0  0
  6 26  1  0  0  0
  7  8  1  0  0  0
  7 23  1  0  0  0
  8  9  1  0  0  0
  8 35  1  0  0  0
  9 10  1  0  0  0
  9 22  2  0  0  0
 10 11  1  0  0  0
 10 36  1  0  0  0
 10 37  1  0  0  0
 11 12  1  0  0  0
 11 38  1  0  0  0
 11 39  1  0  0  0
 12 13  2  0  0  0
 12 15  1  0  0  0
 13 14  1  0  0  0
 13 40  1  0  0  0
 14 19  2  0  0  0
 14 41  1  0  0  0
 15 20  2  0  0  0
 15 42  1  0  0  0
 16 21  1  0  0  0
 16 43  1  0  0  0
 16 44  1  0  0  0
 16 45  1  0  0  0
 17 18  1  0  0  0
 17 46  1  0  0  0
 17 47  1  0  0  0
 17 48  1  0  0  0
 18 19  1  0  0  0
 19 20  1  0  0  0
 20 21  1  0  0  0
 23 49  1  0  0  0
 24 25  2  0  0  0
 24 50  1  0  0  0
 25 27  1  0  0  0
 26 27  2  0  0  0
 27 28  1  0  0  0
 28 29  1  0  0  0
 28 51  1  0  0  0
 29 52  1  0  0  0
 29 53  1  0  0  0
 30 31  1  0  0  0
 32 54  1  0  0  0
 32 55  1  0  0  0
 32 56  1  0  0  0
M  END
> <s_m_source_file>
../4nka_ligand.sdf

> <i_m_source_file_index>
1

> <s_epik_input>
W0NIM11jMVtjSF1jKG9uMSlbQ0gyXVtOSF1jKG4yKW5bY0hdW2NIXWMyW05IXUMzPU5OPUMoW0NIMl0zKVtDSDJdW0NIMl1jNFtjSF1bY0hdYyhPW0NIM10pYyhbY0hdNClPW0NIM10=

> <s_epik_cmdline>
J2VwaWtfYXBwJywgJy1pbWFlJywgJ2xpZ2FuZF9wcm8ubWFlJywgJy1vbWFlJywgJ2xpZ2FuZF9wcmVwLm1hZScsICctbXMnLCAnMScsICctcGgnLCAnNycsICctcGh0JywgJzAuNScsICctbnQn

> <r_lp_tautomer_probability>
1

> <r_epik_Ionization_Penalty>
  0.0015

> <r_epik_Ionization_Penalty_Charging>
  0.0000

> <r_epik_Ionization_Penalty_Neutral>
  0.0015

> <r_epik_State_Penalty>
 -0.0000

> <r_epik_Charging_Adjusted_Penalty>
0

> <i_epik_Tot_Q>
0

> <i_epik_Tot_abs_Q>
0

> <s_epik_Chemistry_Notes>
This compound has an imine and may undergo hydrolysis.

$$$$
