4nks_ligand
                    3D
 Schrodinger Suite 2020-3.
 48 51  0  0  1  0            999 V2000
   83.3670    2.1930   14.2340 C   0  0  0  0  0  0
   84.3150    3.0600   13.4110 C   0  0  0  0  0  0
   84.2450    3.4160   12.0260 C   0  0  0  0  0  0
   85.3620    4.1810   11.7910 C   0  0  0  0  0  0
   85.7890    4.8430   10.5190 C   0  0  0  0  0  0
   84.7710    4.5020    9.5200 N   0  0  0  0  0  0
   84.8850    3.3780    8.7350 C   0  0  0  0  0  0
   84.1100    3.2850    7.6490 N   0  0  0  0  0  0
   84.1710    2.2090    6.8420 C   0  0  0  0  0  0
   85.0480    1.1780    7.1490 C   0  0  0  0  0  0
   85.8360    1.3090    8.3060 C   0  0  0  0  0  0
   86.7430    0.3120    8.5820 N   0  0  0  0  0  0
   87.4930    0.2420    9.7390 C   0  0  0  0  0  0
   87.6100    1.1480   10.7860 C   0  0  0  0  0  0
   88.4460    0.5880   11.7190 C   0  0  3  0  0  0
   88.8710    1.1000   13.0740 C   0  0  0  0  0  0
   89.6680    2.3710   12.9370 C   0  0  0  0  0  0
   90.3810    2.7220   14.2170 C   0  0  0  0  0  0
   91.7360    3.0690   14.1620 C   0  0  0  0  0  0
   92.4130    3.4240   15.3380 C   0  0  0  0  0  0
   91.7100    3.4390   16.5540 C   0  0  0  0  0  0
   90.3580    3.1090   16.5930 C   0  0  0  0  0  0
   89.6940    2.7510   15.4220 C   0  0  0  0  0  0
   88.8180   -0.6010   11.2410 N   0  0  0  0  0  0
   88.2030   -0.7990    9.9840 N   0  0  0  0  0  0
   85.7460    2.4040    9.0660 N   0  0  0  0  0  0
   86.0050    4.2550   12.9690 O   0  0  0  0  0  0
   85.4050    3.6170   13.8440 N   0  0  0  0  0  0
   82.5306    1.8615   13.6011 H   0  0  0  0  0  0
   82.9771    2.7775   15.0804 H   0  0  0  0  0  0
   83.9098    1.3149   14.6139 H   0  0  0  0  0  0
   83.4707    3.1392   11.3105 H   0  0  0  0  0  0
   85.8446    5.9308   10.6725 H   0  0  0  0  0  0
   86.7779    4.4636   10.2222 H   0  0  0  0  0  0
   83.8929    5.1508    9.3860 H   0  0  0  0  0  0
   83.5381    2.1482    5.9566 H   0  0  0  0  0  0
   85.1234    0.2954    6.5138 H   0  0  0  0  0  0
   86.9072   -0.4984    7.8565 H   0  0  0  0  0  0
   87.0734    2.1074   10.7457 H   0  0  0  0  0  0
   87.9794    1.3037   13.6852 H   0  0  0  0  0  0
   89.4928    0.3426   13.5737 H   0  0  0  0  0  0
   90.4204    2.2483   12.1440 H   0  0  0  0  0  0
   88.9937    3.2005   12.6775 H   0  0  0  0  0  0
   92.2634    3.0633   13.2081 H   0  0  0  0  0  0
   93.4709    3.6849   15.3087 H   0  0  0  0  0  0
   92.2270    3.7111   17.4742 H   0  0  0  0  0  0
   89.8189    3.1308   17.5401 H   0  0  0  0  0  0
   88.6352    2.4938   15.4524 H   0  0  0  0  0  0
  1  2  1  0  0  0
  1 29  1  0  0  0
  1 30  1  0  0  0
  1 31  1  0  0  0
  2  3  1  0  0  0
  2 28  2  0  0  0
  3  4  2  0  0  0
  3 32  1  0  0  0
  4  5  1  0  0  0
  4 27  1  0  0  0
  5  6  1  0  0  0
  5 33  1  0  0  0
  5 34  1  0  0  0
  6  7  1  0  0  0
  6 35  1  0  0  0
  7  8  2  0  0  0
  7 26  1  0  0  0
  8  9  1  0  0  0
  9 10  2  0  0  0
  9 36  1  0  0  0
 10 11  1  0  0  0
 10 37  1  0  0  0
 11 12  1  0  0  0
 11 26  2  0  0  0
 12 13  1  0  0  0
 12 38  1  0  0  0
 13 14  2  0  0  0
 13 25  1  0  0  0
 14 15  1  0  0  0
 14 39  1  0  0  0
 15 16  1  0  0  0
 15 24  1  0  0  0
 16 17  1  0  0  0
 16 40  1  0  0  0
 16 41  1  0  0  0
 17 18  1  0  0  0
 17 42  1  0  0  0
 17 43  1  0  0  0
 18 19  2  0  0  0
 18 23  1  0  0  0
 19 20  1  0  0  0
 19 44  1  0  0  0
 20 21  2  0  0  0
 20 45  1  0  0  0
 21 22  1  0  0  0
 21 46  1  0  0  0
 22 23  2  0  0  0
 22 47  1  0  0  0
 23 48  1  0  0  0
 24 25  2  0  0  0
 27 28  1  0  0  0
M  END
> <s_m_source_file>
../4nks_ligand.sdf

> <i_m_source_file_index>
1

> <s_epik_input>
W0NIM11jMVtjSF1jKG9uMSlbQ0gyXVtOSF1jMm5bY0hdW2NIXWMobjIpW05IXUMzPVtDSF1bQ0hdKE49TjMpW0NIMl1bQ0gyXWM0W2NIXVtjSF1bY0hdW2NIXVtjSF00

> <s_epik_cmdline>
J2VwaWtfYXBwJywgJy1pbWFlJywgJ2xpZ2FuZF9wcm8ubWFlJywgJy1vbWFlJywgJ2xpZ2FuZF9wcmVwLm1hZScsICctbXMnLCAnMScsICctcGgnLCAnNycsICctcGh0JywgJzAuNScsICctbnQn

> <r_lp_tautomer_probability>
1

> <r_epik_Ionization_Penalty>
  0.0296

> <r_epik_Ionization_Penalty_Charging>
  0.0000

> <r_epik_Ionization_Penalty_Neutral>
  0.0296

> <r_epik_State_Penalty>
 -0.0000

> <r_epik_Charging_Adjusted_Penalty>
0

> <i_epik_Tot_Q>
0

> <i_epik_Tot_abs_Q>
0

$$$$
