4nld_ligand
                    3D
 Schrodinger Suite 2020-3.
 92 99  0  0  1  0            999 V2000
   36.4220    8.8390   43.8760 C   0  0  0  0  0  0
   35.5490    9.7300   44.4980 C   0  0  0  0  0  0
   35.5870    9.9280   45.8670 C   0  0  0  0  0  0
   37.3120    8.1000   44.6570 C   0  0  0  0  0  0
   37.3350    8.2950   46.0350 C   0  0  0  0  0  0
   36.4710    9.2040   46.6640 C   0  0  0  0  0  0
   36.7410    9.1380   48.0870 C   0  0  0  0  0  0
   37.7690    8.2190   48.2780 C   0  0  0  0  0  0
   38.1360    7.6990   46.9950 N   0  0  0  0  0  0
   39.1490    6.6920   46.7550 C   0  0  0  0  0  0
   36.0180    9.8640   49.1660 C   0  0  0  0  0  0
   34.5160    9.5800   49.1150 C   0  0  0  0  0  0
   33.7720   10.3630   50.1890 C   0  0  0  0  0  0
   34.0170   11.8560   50.0570 C   0  0  0  0  0  0
   35.4920   12.1470   50.1330 C   0  0  0  0  0  0
   36.2600   11.3780   49.0600 C   0  0  0  0  0  0
   38.5800    6.3220   49.7000 C   0  0  0  0  0  0
   38.4010    7.7010   49.5090 C   0  0  0  0  0  0
   38.8250    8.5970   50.4930 C   0  0  0  0  0  0
   39.4210    8.1390   51.6550 C   0  0  0  0  0  0
   39.5980    6.7710   51.8460 C   0  0  0  0  0  0
   39.1640    5.8650   50.8820 C   0  0  0  0  0  0
   40.2540    6.4200   52.9980 O   0  0  0  0  0  0
   40.4670    5.0310   53.2650 C   0  0  0  0  0  0
   38.5500    5.3930   47.2170 C   0  0  2  0  0  0
   38.2540    5.2520   48.7180 C   0  0  1  0  0  0
   39.3920    4.5070   48.0950 C   0  0  0  0  0  0
   37.5890    4.7300   46.1940 C   0  0  0  0  0  0
   36.2360    4.7970   46.3150 N   0  0  0  0  0  0
   38.1050    4.2350   45.2050 O   0  0  0  0  0  0
   35.2160    4.1540   45.4620 C   0  0  1  0  0  0
   34.3380    3.2370   46.2940 C   0  0  0  0  0  0
   33.6460    3.9190   47.3900 N   0  3  2  0  0  0
   34.5620    4.7710   48.1480 C   0  0  0  0  0  0
   35.3560    5.6230   47.1810 C   0  0  2  0  0  0
   34.4580    5.3720   44.9380 C   0  0  0  0  0  0
   34.4150    6.2980   46.1590 C   0  0  0  0  0  0
   32.9900    2.9540   48.2750 C   0  0  0  0  0  0
   36.3270    8.6850   42.3880 C   0  0  0  0  0  0
   35.4100    9.1970   41.7440 O   0  5  0  0  0  0
   37.2840    7.8890   41.7700 N   0  0  0  0  0  0
   37.4410    7.4890   40.1290 S   0  0  0  0  0  0
   36.1890    6.4310   39.8810 N   0  0  0  0  0  0
   38.6780    6.7950   39.9800 O   0  0  0  0  0  0
   37.2320    8.6980   39.4040 O   0  0  0  0  0  0
   35.0770    6.8470   39.0190 C   0  0  0  0  0  0
   35.8230    5.4930   40.9510 C   0  0  0  0  0  0
   34.8249   10.2795   43.8965 H   0  0  0  0  0  0
   34.9192   10.6571   46.3260 H   0  0  0  0  0  0
   37.9826    7.3772   44.1923 H   0  0  0  0  0  0
   39.3893    6.6621   45.6820 H   0  0  0  0  0  0
   40.0553    6.9400   47.3269 H   0  0  0  0  0  0
   36.4286    9.4787   50.1110 H   0  0  0  0  0  0
   34.1210    9.8714   48.1306 H   0  0  0  0  0  0
   34.3401    8.5064   49.2775 H   0  0  0  0  0  0
   32.6918   10.1772   50.0961 H   0  0  0  0  0  0
   34.1155   10.0397   51.1827 H   0  0  0  0  0  0
   33.6292   12.2070   49.0893 H   0  0  0  0  0  0
   33.5022   12.3856   50.8722 H   0  0  0  0  0  0
   35.6615   13.2235   49.9836 H   0  0  0  0  0  0
   35.8741   11.8493   51.1206 H   0  0  0  0  0  0
   37.3328   11.5874   49.1838 H   0  0  0  0  0  0
   35.9284   11.7342   48.0735 H   0  0  0  0  0  0
   38.6851    9.6677   50.3442 H   0  0  0  0  0  0
   39.7502    8.8455   52.4169 H   0  0  0  0  0  0
   39.2809    4.7946   51.0513 H   0  0  0  0  0  0
   41.0022    4.9190   54.2195 H   0  0  0  0  0  0
   41.0659    4.5895   52.4548 H   0  0  0  0  0  0
   39.4967    4.5164   53.3261 H   0  0  0  0  0  0
   37.3532    5.0135   49.3025 H   0  0  0  0  0  0
   39.3416    3.4716   47.7269 H   0  0  0  0  0  0
   40.4357    4.8537   48.0725 H   0  0  0  0  0  0
   35.6347    3.5123   44.6728 H   0  0  0  0  0  0
   33.5679    2.7847   45.6518 H   0  0  0  0  0  0
   34.9556    2.4436   46.7402 H   0  0  0  0  0  0
   32.8735    4.5641   46.9461 H   0  0  0  0  0  0
   33.9852    5.4180   48.8253 H   0  0  0  0  0  0
   35.2461    4.1417   48.7362 H   0  0  0  0  0  0
   35.9409    6.3092   47.8111 H   0  0  0  0  0  0
   35.0083    5.8105   44.0925 H   0  0  0  0  0  0
   33.4562    5.0645   44.6035 H   0  0  0  0  0  0
   33.4036    6.3721   46.5851 H   0  0  0  0  0  0
   34.7893    7.3057   45.9258 H   0  0  0  0  0  0
   32.3064    2.3235   47.6875 H   0  0  0  0  0  0
   32.4203    3.4925   49.0466 H   0  0  0  0  0  0
   33.7507    2.3212   48.7555 H   0  0  0  0  0  0
   35.4477    7.5444   38.2534 H   0  0  0  0  0  0
   34.3080    7.3453   39.6275 H   0  0  0  0  0  0
   34.6417    5.9631   38.5299 H   0  0  0  0  0  0
   36.7174    5.2414   41.5398 H   0  0  0  0  0  0
   35.4057    4.5766   40.5083 H   0  0  0  0  0  0
   35.0719    5.9588   41.6059 H   0  0  0  0  0  0
  1  2  2  0  0  0
  1  4  1  0  0  0
  1 39  1  0  0  0
  2  3  1  0  0  0
  2 48  1  0  0  0
  3  6  2  0  0  0
  3 49  1  0  0  0
  4  5  2  0  0  0
  4 50  1  0  0  0
  5  6  1  0  0  0
  5  9  1  0  0  0
  6  7  1  0  0  0
  7  8  2  0  0  0
  7 11  1  0  0  0
  8  9  1  0  0  0
  8 18  1  0  0  0
  9 10  1  0  0  0
 10 25  1  0  0  0
 10 51  1  0  0  0
 10 52  1  0  0  0
 11 12  1  0  0  0
 11 16  1  0  0  0
 11 53  1  0  0  0
 12 13  1  0  0  0
 12 54  1  0  0  0
 12 55  1  0  0  0
 13 14  1  0  0  0
 13 56  1  0  0  0
 13 57  1  0  0  0
 14 15  1  0  0  0
 14 58  1  0  0  0
 14 59  1  0  0  0
 15 16  1  0  0  0
 15 60  1  0  0  0
 15 61  1  0  0  0
 16 62  1  0  0  0
 16 63  1  0  0  0
 17 18  2  0  0  0
 17 22  1  0  0  0
 17 26  1  0  0  0
 18 19  1  0  0  0
 19 20  2  0  0  0
 19 64  1  0  0  0
 20 21  1  0  0  0
 20 65  1  0  0  0
 21 22  2  0  0  0
 21 23  1  0  0  0
 22 66  1  0  0  0
 23 24  1  0  0  0
 24 67  1  0  0  0
 24 68  1  0  0  0
 24 69  1  0  0  0
 25 26  1  0  0  0
 25 27  1  0  0  0
 25 28  1  0  0  0
 26 27  1  0  0  0
 26 70  1  0  0  0
 27 71  1  0  0  0
 27 72  1  0  0  0
 28 29  1  0  0  0
 28 30  2  0  0  0
 29 31  1  0  0  0
 29 35  1  0  0  0
 31 32  1  0  0  0
 31 36  1  0  0  0
 31 73  1  0  0  0
 32 33  1  0  0  0
 32 74  1  0  0  0
 32 75  1  0  0  0
 33 34  1  0  0  0
 33 38  1  0  0  0
 33 76  1  0  0  0
 34 35  1  0  0  0
 34 77  1  0  0  0
 34 78  1  0  0  0
 35 37  1  0  0  0
 35 79  1  0  0  0
 36 37  1  0  0  0
 36 80  1  0  0  0
 36 81  1  0  0  0
 37 82  1  0  0  0
 37 83  1  0  0  0
 38 84  1  0  0  0
 38 85  1  0  0  0
 38 86  1  0  0  0
 39 40  1  0  0  0
 39 41  2  0  0  0
 41 42  1  0  0  0
 42 43  1  0  0  0
 42 44  2  0  0  0
 42 45  2  0  0  0
 43 46  1  0  0  0
 43 47  1  0  0  0
 46 87  1  0  0  0
 46 88  1  0  0  0
 46 89  1  0  0  0
 47 90  1  0  0  0
 47 91  1  0  0  0
 47 92  1  0  0  0
M  CHG  2  33   1  40  -1
M  END
> <s_m_source_file>
../4nld_ligand.sdf

> <i_m_source_file_index>
1

> <s_epik_input>
W0NIM11OKFtDSDNdKVMoPU8pKD1PKVtOSF1DKD1PKWMoW2NIXTEpW2NIXVtjSF1jKGMyW0NIXTNbQ0gyXVtDSDJdW0NIMl1bQ0gyXVtDSDJdMyljMW4oW0NIMl00KWMyYyhbY0hdW2NIXWMoW2NIXTUpT1tDSDNdKWM1W0NASF0oW0NIMl02KVtDQEBdNDZDKD1PKU4oW0NAQEhdNzgpW0NAQEhdKFtDSDJdW0NIMl04KVtDSDJdW05AQEgrXShbQ0gyXTcpW0NIM10=

> <s_epik_cmdline>
J2VwaWtfYXBwJywgJy1pbWFlJywgJ2xpZ2FuZF9wcm8ubWFlJywgJy1vbWFlJywgJ2xpZ2FuZF9wcmVwLm1hZScsICctbXMnLCAnMScsICctcGgnLCAnNycsICctcGh0JywgJzAuNScsICctbnQn

> <r_lp_tautomer_probability>
1

> <r_epik_Ionization_Penalty>
  0.1105

> <r_epik_Ionization_Penalty_Charging>
  0.1105

> <r_epik_Ionization_Penalty_Neutral>
  0.0000

> <r_epik_State_Penalty>
 -0.0000

> <r_epik_Charging_Adjusted_Penalty>
0.110478261435228

> <i_epik_Tot_Q>
0

> <i_epik_Tot_abs_Q>
2

$$$$
