4nmo_ligand
                    3D
 Schrodinger Suite 2020-3.
135137  0  0  1  0            999 V2000
   22.2400   26.5080   16.1560 N   0  3  0  0  0  0
   21.8880   27.8990   15.8910 C   0  0  2  0  0  0
   20.3920   28.1330   16.0850 C   0  0  0  0  0  0
   19.9810   29.1780   16.5960 O   0  0  0  0  0  0
   22.3170   28.2920   14.4790 C   0  0  0  0  0  0
   22.3970   29.7860   14.2400 C   0  0  0  0  0  0
   23.1120   30.0730   12.9360 C   0  0  0  0  0  0
   23.1270   31.4950   12.6180 N   0  0  0  0  0  0
   22.1580   32.1190   11.9610 C   0  0  0  0  0  0
   21.0920   31.4440   11.5550 N   0  3  0  0  0  0
   22.2530   33.4170   11.7090 N   0  0  0  0  0  0
   19.5830   27.1570   15.6730 N   0  0  0  0  0  0
   18.1510   27.1710   15.9590 C   0  0  2  0  0  0
   17.8780   26.3690   17.2230 C   0  0  0  0  0  0
   18.5970   25.4220   17.5320 O   0  0  0  0  0  0
   17.3440   26.5490   14.8230 C   0  0  0  0  0  0
   17.6170   27.1020   13.4600 C   0  0  0  0  0  0
   18.1400   28.3260   13.1480 C   0  0  0  0  0  0
   17.3820   26.4320   12.2200 C   0  0  0  0  0  0
   18.2440   28.4540   11.7790 N   0  3  0  0  0  0
   17.7880   27.3020   11.1880 C   0  0  0  0  0  0
   16.8770   25.1730   11.8810 C   0  0  0  0  0  0
   17.6930   26.9550    9.8380 C   0  0  0  0  0  0
   16.7850   24.8290   10.5400 C   0  0  0  0  0  0
   17.1920   25.7160    9.5360 C   0  0  0  0  0  0
   16.8550   26.7140   17.9120 N   0  0  0  0  0  0
   16.4530   25.9820   19.0960 C   0  0  2  0  0  0
   15.6810   24.7060   18.7000 C   0  0  0  0  0  0
   15.1170   24.6560   17.6620 O   0  0  0  0  0  0
   15.5310   26.9670   19.7830 C   0  0  0  0  0  0
   14.9150   27.7230   18.6880 C   0  0  0  0  0  0
   16.0640   27.9420   17.7460 C   0  0  0  0  0  0
   15.6860   23.7350   19.6010 N   0  0  0  0  0  0
   14.8880   22.5380   19.4130 C   0  0  2  0  0  0
   14.0640   22.3360   20.6670 C   0  0  0  0  0  0
   14.5660   22.5060   21.7780 O   0  0  0  0  0  0
   15.7850   21.3200   19.2010 C   0  0  2  0  0  0
   16.5220   21.5010   17.9910 O   0  0  0  0  0  0
   14.9590   20.0420   19.0870 C   0  0  0  0  0  0
   12.7950   21.9780   20.4970 N   0  0  0  0  0  0
   11.9360   21.6700   21.6300 C   0  0  2  0  0  0
   11.3080   20.3060   21.4060 C   0  0  0  0  0  0
   10.8520   19.9940   20.3030 O   0  0  0  0  0  0
   10.8250   22.7090   21.7800 C   0  0  0  0  0  0
   11.3500   24.0030   22.0430 O   0  0  0  0  0  0
   14.2300   19.3370   27.5270 O   0  0  0  0  0  0
   14.6460   18.4100   26.8310 C   0  0  0  0  0  0
   16.1570   18.2430   26.6210 C   0  0  0  0  0  0
   13.4170   17.5340   25.9460 N   0  0  0  0  0  0
   14.2970   16.6880   25.0930 C   0  0  0  0  0  0
   13.5380   16.0780   23.9250 C   0  0  0  0  0  0
   12.8730   17.1500   23.0780 C   0  0  0  0  0  0
   11.3750   17.2040   23.3320 C   0  0  0  0  0  0
   10.6280   18.2060   22.4510 C   0  0  2  0  0  0
   11.2970   19.4990   22.4630 N   0  0  0  0  0  0
    9.2100   18.4050   22.9630 C   0  0  0  0  0  0
    9.0030   18.9420   24.0520 O   0  0  0  0  0  0
    8.2330   17.9830   22.1700 N   0  0  0  0  0  0
    6.8340   18.2570   22.4740 C   0  0  2  0  0  0
    5.9570   17.0440   22.2400 C   0  0  0  0  0  0
    6.4170   16.0130   21.7250 O   0  5  0  0  0  0
    6.2810   19.4350   21.6350 C   0  0  2  0  0  0
    6.3460   19.1320   20.1400 C   0  0  0  0  0  0
    7.0360   20.7250   21.9510 C   0  0  0  0  0  0
    5.7240   20.2380   19.2870 C   0  0  0  0  0  0
    4.7720   17.1130   22.5590 O   0  0  0  0  0  0
   21.9259   26.2381   17.1751 H   0  0  0  0  0  0
   23.3286   26.3810   16.0621 H   0  0  0  0  0  0
   21.7309   25.8564   15.4306 H   0  0  0  0  0  0
   22.4437   28.4928   16.6317 H   0  0  0  0  0  0
   23.3159   27.8808   14.2715 H   0  0  0  0  0  0
   21.5966   27.8897   13.7516 H   0  0  0  0  0  0
   21.3809   30.2045   14.1917 H   0  0  0  0  0  0
   22.9500   30.2601   15.0643 H   0  0  0  0  0  0
   24.1540   29.7274   13.0054 H   0  0  0  0  0  0
   22.6044   29.5447   12.1155 H   0  0  0  0  0  0
   23.9788   32.1187   12.9268 H   0  0  0  0  0  0
   21.0110   30.3669   11.7630 H   0  0  0  0  0  0
   23.1367   33.9793   12.0450 H   0  0  0  0  0  0
   21.4481   33.9318   11.1639 H   0  0  0  0  0  0
   20.0219   26.3250   15.1028 H   0  0  0  0  0  0
   17.8909   28.2334   16.0757 H   0  0  0  0  0  0
   17.5578   25.4713   14.7687 H   0  0  0  0  0  0
   16.2707   26.7009   15.0097 H   0  0  0  0  0  0
   18.4052   29.0313   13.9494 H   0  0  0  0  0  0
   16.5614   24.4746   12.6560 H   0  0  0  0  0  0
   18.0059   27.6445    9.0539 H   0  0  0  0  0  0
   16.3892   23.8518   10.2634 H   0  0  0  0  0  0
   17.1085   25.4144    8.4919 H   0  0  0  0  0  0
   17.3242   25.6846   19.6982 H   0  0  0  0  0  0
   14.7824   26.4182   20.3732 H   0  0  0  0  0  0
   16.1186   27.6163   20.4487 H   0  0  0  0  0  0
   14.1068   27.1264   18.2397 H   0  0  0  0  0  0
   14.5020   28.6644   19.0793 H   0  0  0  0  0  0
   16.6778   28.8132   18.0186 H   0  0  0  0  0  0
   15.7436   28.0329   16.6976 H   0  0  0  0  0  0
   16.3071   23.8460   20.5020 H   0  0  0  0  0  0
   14.2591   22.6990   18.5250 H   0  0  0  0  0  0
   16.5124   21.2307   20.0213 H   0  0  0  0  0  0
   17.1832   22.3724   17.8749 H   0  0  0  0  0  0
   14.3863   19.8917   20.0140 H   0  0  0  0  0  0
   15.6298   19.1849   18.9273 H   0  0  0  0  0  0
   14.2655   20.1282   18.2375 H   0  0  0  0  0  0
   12.3978   21.9170   19.4730 H   0  0  0  0  0  0
   12.5840   21.6825   22.5188 H   0  0  0  0  0  0
   10.2382   22.7550   20.8508 H   0  0  0  0  0  0
   10.1677   22.4250   22.6151 H   0  0  0  0  0  0
   10.6688   24.8564   22.1754 H   0  0  0  0  0  0
   16.6985   18.9119   27.3061 H   0  0  0  0  0  0
   16.4130   18.4971   25.5818 H   0  0  0  0  0  0
   16.4424   17.2004   26.8245 H   0  0  0  0  0  0
   12.3235   17.4505   25.8609 H   0  0  0  0  0  0
   15.1157   17.3016   24.6890 H   0  0  0  0  0  0
   14.7158   15.8694   25.6968 H   0  0  0  0  0  0
   14.2356   15.5129   23.2894 H   0  0  0  0  0  0
   12.7596   15.4011   24.3069 H   0  0  0  0  0  0
   13.3052   18.1314   23.3231 H   0  0  0  0  0  0
   13.0397   16.9316   22.0129 H   0  0  0  0  0  0
   10.9348   16.2141   23.1411 H   0  0  0  0  0  0
   11.1905   17.4919   24.3775 H   0  0  0  0  0  0
   10.6295   17.8438   21.4124 H   0  0  0  0  0  0
   11.8185   19.8401   23.3695 H   0  0  0  0  0  0
    8.4984   17.4148   21.2663 H   0  0  0  0  0  0
    6.8582   18.4978   23.5470 H   0  0  0  0  0  0
    5.2229   19.5822   21.8970 H   0  0  0  0  0  0
    7.3966   19.0206   19.8338 H   0  0  0  0  0  0
    5.8023   18.1989   19.9310 H   0  0  0  0  0  0
    6.9792   20.9280   23.0306 H   0  0  0  0  0  0
    6.5831   21.5601   21.3965 H   0  0  0  0  0  0
    8.0893   20.6156   21.6534 H   0  0  0  0  0  0
    5.7989   19.9668   18.2236 H   0  0  0  0  0  0
    6.2600   21.1823   19.4633 H   0  0  0  0  0  0
    4.6656   20.3606   19.5605 H   0  0  0  0  0  0
   18.6447   29.3806   11.3421 H   0  0  0  0  0  0
   20.2883   31.9609   11.0101 H   0  0  0  0  0  0
  1  2  1  0  0  0
  1 67  1  0  0  0
  1 68  1  0  0  0
  1 69  1  0  0  0
  2  3  1  0  0  0
  2  5  1  0  0  0
  2 70  1  0  0  0
  3  4  2  0  0  0
  3 12  1  0  0  0
  5  6  1  0  0  0
  5 71  1  0  0  0
  5 72  1  0  0  0
  6  7  1  0  0  0
  6 73  1  0  0  0
  6 74  1  0  0  0
  7  8  1  0  0  0
  7 75  1  0  0  0
  7 76  1  0  0  0
  8  9  1  0  0  0
  8 77  1  0  0  0
  9 10  2  0  0  0
  9 11  1  0  0  0
 10 78  1  0  0  0
 10135  1  0  0  0
 11 79  1  0  0  0
 11 80  1  0  0  0
 12 13  1  0  0  0
 12 81  1  0  0  0
 13 14  1  0  0  0
 13 16  1  0  0  0
 13 82  1  0  0  0
 14 15  2  0  0  0
 14 26  1  0  0  0
 16 17  1  0  0  0
 16 83  1  0  0  0
 16 84  1  0  0  0
 17 18  2  0  0  0
 17 19  1  0  0  0
 18 20  1  0  0  0
 18 85  1  0  0  0
 19 21  2  0  0  0
 19 22  1  0  0  0
 20 21  1  0  0  0
 20134  1  0  0  0
 21 23  1  0  0  0
 22 24  2  0  0  0
 22 86  1  0  0  0
 23 25  2  0  0  0
 23 87  1  0  0  0
 24 25  1  0  0  0
 24 88  1  0  0  0
 25 89  1  0  0  0
 26 27  1  0  0  0
 26 32  1  0  0  0
 27 28  1  0  0  0
 27 30  1  0  0  0
 27 90  1  0  0  0
 28 29  2  0  0  0
 28 33  1  0  0  0
 30 31  1  0  0  0
 30 91  1  0  0  0
 30 92  1  0  0  0
 31 32  1  0  0  0
 31 93  1  0  0  0
 31 94  1  0  0  0
 32 95  1  0  0  0
 32 96  1  0  0  0
 33 34  1  0  0  0
 33 97  1  0  0  0
 34 35  1  0  0  0
 34 37  1  0  0  0
 34 98  1  0  0  0
 35 36  2  0  0  0
 35 40  1  0  0  0
 37 38  1  0  0  0
 37 39  1  0  0  0
 37 99  1  0  0  0
 38100  1  0  0  0
 39101  1  0  0  0
 39102  1  0  0  0
 39103  1  0  0  0
 40 41  1  0  0  0
 40104  1  0  0  0
 41 42  1  0  0  0
 41 44  1  0  0  0
 41105  1  0  0  0
 42 43  2  0  0  0
 42 55  1  0  0  0
 44 45  1  0  0  0
 44106  1  0  0  0
 44107  1  0  0  0
 45108  1  0  0  0
 46 47  2  0  0  0
 47 48  1  0  0  0
 47 49  1  0  0  0
 48109  1  0  0  0
 48110  1  0  0  0
 48111  1  0  0  0
 49 50  1  0  0  0
 49112  1  0  0  0
 50 51  1  0  0  0
 50113  1  0  0  0
 50114  1  0  0  0
 51 52  1  0  0  0
 51115  1  0  0  0
 51116  1  0  0  0
 52 53  1  0  0  0
 52117  1  0  0  0
 52118  1  0  0  0
 53 54  1  0  0  0
 53119  1  0  0  0
 53120  1  0  0  0
 54 55  1  0  0  0
 54 56  1  0  0  0
 54121  1  0  0  0
 55122  1  0  0  0
 56 57  2  0  0  0
 56 58  1  0  0  0
 58 59  1  0  0  0
 58123  1  0  0  0
 59 60  1  0  0  0
 59 62  1  0  0  0
 59124  1  0  0  0
 60 61  1  0  0  0
 60 66  2  0  0  0
 62 63  1  0  0  0
 62 64  1  0  0  0
 62125  1  0  0  0
 63 65  1  0  0  0
 63126  1  0  0  0
 63127  1  0  0  0
 64128  1  0  0  0
 64129  1  0  0  0
 64130  1  0  0  0
 65131  1  0  0  0
 65132  1  0  0  0
 65133  1  0  0  0
M  CHG  4   1   1  10   1  20   1  61  -1
M  END
> <s_m_source_file>
../4nmo_ligand.sdf

> <i_m_source_file_index>
1

> <s_epik_input>
W0hdL049QyhbTkgyXSlcW05IXVtDSDJdW0NIMl1bQ0gyXVtDQEhdKFtOSDMrXSlDKD1PKVtOSF1bQ0BASF0oW0NIMl1jMVtjSF1bbkhdYyhjMTIpW2NIXVtjSF1bY0hdW2NIXTIpQyg9TylOM1tDQEBIXShbQ0gyXVtDSDJdW0NIMl0zKUMoPU8pW05IXVtDQEBIXShbQ0BIXShbT0hdKVtDSDNdKUMoPU8pW05IXVtDQEBIXShbQ0gyXVtPSF0pQyg9TylbTkhdW0NASF0oQyg9TylbTkhdW0NASF0oQyg9TylbT0hdKVtDQEBIXShbQ0gzXSlbQ0gyXVtDSDNdKVtDSDJdW0NIMl1bQ0gyXVtDSDJdW05IXUMoPU8pW0NIM10=

> <s_epik_cmdline>
J2VwaWtfYXBwJywgJy1pbWFlJywgJ2xpZ2FuZF9wcm8ubWFlJywgJy1vbWFlJywgJ2xpZ2FuZF9wcmVwLm1hZScsICctbXMnLCAnMScsICctcGgnLCAnNycsICctcGh0JywgJzAuNScsICctbnQn

> <r_epik_Ionization_Penalty>
  0.1413

> <r_epik_Ionization_Penalty_Charging>
  0.1413

> <r_epik_Ionization_Penalty_Neutral>
  0.0000

> <r_epik_State_Penalty>
  0.1304

> <r_epik_Charging_Adjusted_Penalty>
0.271780139122869

> <i_epik_Tot_Q>
2

> <i_epik_Tot_abs_Q>
4

> <s_epik_Chemistry_Notes>
This compound has an imine and may undergo hydrolysis.

$$$$
