4nmp_ligand
                    3D
 Schrodinger Suite 2020-3.
116118  0  0  1  0            999 V2000
   19.8690   26.8110   15.4170 N   0  3  0  0  0  0
   18.4410   26.9400   15.6810 C   0  0  2  0  0  0
   18.0430   26.2510   16.9780 C   0  0  0  0  0  0
   18.7070   25.3130   17.4210 O   0  0  0  0  0  0
   17.6230   26.3360   14.5440 C   0  0  0  0  0  0
   17.8580   26.9620   13.2160 C   0  0  0  0  0  0
   18.3410   28.2150   12.9660 C   0  0  0  0  0  0
   17.6260   26.3570   11.9410 C   0  0  0  0  0  0
   18.4220   28.4260   11.6090 N   0  3  0  0  0  0
   17.9890   27.3000   10.9580 C   0  0  0  0  0  0
   17.1460   25.1070   11.5340 C   0  0  0  0  0  0
   17.8850   27.0330    9.5940 C   0  0  0  0  0  0
   17.0440   24.8420   10.1810 C   0  0  0  0  0  0
   17.4120   25.8010    9.2260 C   0  0  0  0  0  0
   16.9460   26.7160   17.5860 N   0  0  0  0  0  0
   16.3910   26.0940   18.7870 C   0  0  2  0  0  0
   15.6980   24.7780   18.4480 C   0  0  0  0  0  0
   15.1780   24.6160   17.3450 O   0  0  0  0  0  0
   15.3710   27.1250   19.2710 C   0  0  0  0  0  0
   14.9510   27.8370   18.0410 C   0  0  0  0  0  0
   16.1820   27.9090   17.1800 C   0  0  0  0  0  0
   18.1580   16.6620   16.1190 O   0  0  0  0  0  0
   17.4910   17.4000   16.8440 C   0  0  0  0  0  0
   17.0670   18.7830   16.3240 C   0  0  0  0  0  0
   17.3520   17.0730   18.2630 N   0  0  0  0  0  0
   16.2450   17.6750   19.0590 C   0  0  0  0  0  0
   16.6110   19.0570   19.5630 C   0  0  0  0  0  0
   15.4960   20.0570   19.2930 C   0  0  0  0  0  0
   16.0630   21.4590   19.2360 C   0  0  0  0  0  0
   15.0300   22.5810   19.2620 C   0  0  2  0  0  0
   15.7120   23.8540   19.3970 N   0  0  0  0  0  0
   14.1370   22.4440   20.4780 C   0  0  0  0  0  0
   14.5800   22.6940   21.6000 O   0  0  0  0  0  0
   12.8760   22.0740   20.2660 N   0  0  0  0  0  0
   11.9710   21.8100   21.3730 C   0  0  2  0  0  0
   11.3600   20.4260   21.2050 C   0  0  0  0  0  0
   10.9070   20.0660   20.1140 O   0  0  0  0  0  0
   10.8550   22.8540   21.4470 C   0  0  0  0  0  0
   11.3510   24.1440   21.7680 O   0  0  0  0  0  0
   11.3510   19.6650   22.2980 N   0  0  0  0  0  0
   10.7170   18.3610   22.3480 C   0  0  2  0  0  0
    9.2900   18.5830   22.8130 C   0  0  0  0  0  0
    9.0630   19.1750   23.8770 O   0  0  0  0  0  0
   11.4360   17.4690   23.3720 C   0  0  2  0  0  0
   12.9210   17.3200   23.0200 C   0  0  0  0  0  0
   10.7520   16.1200   23.4620 C   0  0  0  0  0  0
   13.7680   16.7800   24.1730 C   0  0  0  0  0  0
    8.3250   18.1150   22.0210 N   0  0  0  0  0  0
    6.9140   18.4020   22.2800 C   0  0  2  0  0  0
    6.0030   17.2070   22.0280 C   0  0  0  0  0  0
    6.4410   16.1640   21.5060 O   0  5  0  0  0  0
    6.3950   19.6040   21.4410 C   0  0  2  0  0  0
    6.4390   19.2840   19.9450 C   0  0  0  0  0  0
    7.1810   20.8800   21.7520 C   0  0  0  0  0  0
    5.8320   20.3840   19.0650 C   0  0  0  0  0  0
    4.8170   17.2990   22.3510 O   0  0  0  0  0  0
   20.4370   27.2528   16.2490 H   0  0  0  0  0  0
   20.1181   27.3363   14.4832 H   0  0  0  0  0  0
   20.1292   25.7467   15.3197 H   0  0  0  0  0  0
   18.2792   28.0251   15.7604 H   0  0  0  0  0  0
   17.8685   25.2685   14.4426 H   0  0  0  0  0  0
   16.5510   26.4464   14.7647 H   0  0  0  0  0  0
   18.5984   28.8821   13.8019 H   0  0  0  0  0  0
   16.8580   24.3564   12.2700 H   0  0  0  0  0  0
   18.1691   27.7759    8.8487 H   0  0  0  0  0  0
   16.6716   23.8722    9.8511 H   0  0  0  0  0  0
   17.3196   25.5606    8.1669 H   0  0  0  0  0  0
   17.1856   25.8627   19.5116 H   0  0  0  0  0  0
   14.5285   26.6084   19.7540 H   0  0  0  0  0  0
   15.8490   27.8022   19.9941 H   0  0  0  0  0  0
   14.1469   27.2720   17.5468 H   0  0  0  0  0  0
   14.5854   28.8404   18.3048 H   0  0  0  0  0  0
   16.7802   28.8113   17.3748 H   0  0  0  0  0  0
   15.9496   27.8478   16.1066 H   0  0  0  0  0  0
   17.2464   18.8380   15.2401 H   0  0  0  0  0  0
   17.6540   19.5618   16.8328 H   0  0  0  0  0  0
   15.9972   18.9388   16.5270 H   0  0  0  0  0  0
   18.0628   16.3841   18.7427 H   0  0  0  0  0  0
   15.3461   17.7603   18.4308 H   0  0  0  0  0  0
   16.0267   17.0347   19.9264 H   0  0  0  0  0  0
   16.7896   19.0163   20.6476 H   0  0  0  0  0  0
   17.5226   19.4034   19.0541 H   0  0  0  0  0  0
   15.0163   19.8206   18.3317 H   0  0  0  0  0  0
   14.7495   20.0004   20.0990 H   0  0  0  0  0  0
   16.7237   21.6227   20.1001 H   0  0  0  0  0  0
   16.6373   21.5848   18.3063 H   0  0  0  0  0  0
   14.4501   22.5711   18.3273 H   0  0  0  0  0  0
   16.2704   24.0840   20.3164 H   0  0  0  0  0  0
   12.5226   21.9691   19.2296 H   0  0  0  0  0  0
   12.5914   21.8674   22.2795 H   0  0  0  0  0  0
   10.3453   22.9154   20.4742 H   0  0  0  0  0  0
   10.1312   22.5627   22.2224 H   0  0  0  0  0  0
   10.6580   24.9938   21.8546 H   0  0  0  0  0  0
   11.8541   20.0665   23.1900 H   0  0  0  0  0  0
   10.7687   17.9180   21.3425 H   0  0  0  0  0  0
   11.3727   17.9371   24.3654 H   0  0  0  0  0  0
   13.0296   16.6229   22.1761 H   0  0  0  0  0  0
   13.3318   18.3013   22.7402 H   0  0  0  0  0  0
    9.6912   16.2630   23.7153 H   0  0  0  0  0  0
   11.2368   15.5144   24.2419 H   0  0  0  0  0  0
   10.8315   15.6033   22.4942 H   0  0  0  0  0  0
   14.8168   16.6994   23.8511 H   0  0  0  0  0  0
   13.3972   15.7869   24.4666 H   0  0  0  0  0  0
   13.6993   17.4653   25.0307 H   0  0  0  0  0  0
    8.6112   17.4995   21.1554 H   0  0  0  0  0  0
    6.9292   18.6254   23.3570 H   0  0  0  0  0  0
    5.3457   19.7953   21.7101 H   0  0  0  0  0  0
    7.4841   19.1496   19.6294 H   0  0  0  0  0  0
    5.8756   18.3593   19.7511 H   0  0  0  0  0  0
    7.1330   21.0862   22.8314 H   0  0  0  0  0  0
    6.7444   21.7239   21.1977 H   0  0  0  0  0  0
    8.2304   20.7469   21.4504 H   0  0  0  0  0  0
    5.8983   20.0863   18.0081 H   0  0  0  0  0  0
    6.3855   21.3224   19.2171 H   0  0  0  0  0  0
    4.7770   20.5321   19.3388 H   0  0  0  0  0  0
   18.7916   29.3874   11.2230 H   0  0  0  0  0  0
  1  2  1  0  0  0
  1 57  1  0  0  0
  1 58  1  0  0  0
  1 59  1  0  0  0
  2  3  1  0  0  0
  2  5  1  0  0  0
  2 60  1  0  0  0
  3  4  2  0  0  0
  3 15  1  0  0  0
  5  6  1  0  0  0
  5 61  1  0  0  0
  5 62  1  0  0  0
  6  7  2  0  0  0
  6  8  1  0  0  0
  7  9  1  0  0  0
  7 63  1  0  0  0
  8 10  2  0  0  0
  8 11  1  0  0  0
  9 10  1  0  0  0
  9116  1  0  0  0
 10 12  1  0  0  0
 11 13  2  0  0  0
 11 64  1  0  0  0
 12 14  2  0  0  0
 12 65  1  0  0  0
 13 14  1  0  0  0
 13 66  1  0  0  0
 14 67  1  0  0  0
 15 16  1  0  0  0
 15 21  1  0  0  0
 16 17  1  0  0  0
 16 19  1  0  0  0
 16 68  1  0  0  0
 17 18  2  0  0  0
 17 31  1  0  0  0
 19 20  1  0  0  0
 19 69  1  0  0  0
 19 70  1  0  0  0
 20 21  1  0  0  0
 20 71  1  0  0  0
 20 72  1  0  0  0
 21 73  1  0  0  0
 21 74  1  0  0  0
 22 23  2  0  0  0
 23 24  1  0  0  0
 23 25  1  0  0  0
 24 75  1  0  0  0
 24 76  1  0  0  0
 24 77  1  0  0  0
 25 26  1  0  0  0
 25 78  1  0  0  0
 26 27  1  0  0  0
 26 79  1  0  0  0
 26 80  1  0  0  0
 27 28  1  0  0  0
 27 81  1  0  0  0
 27 82  1  0  0  0
 28 29  1  0  0  0
 28 83  1  0  0  0
 28 84  1  0  0  0
 29 30  1  0  0  0
 29 85  1  0  0  0
 29 86  1  0  0  0
 30 31  1  0  0  0
 30 32  1  0  0  0
 30 87  1  0  0  0
 31 88  1  0  0  0
 32 33  2  0  0  0
 32 34  1  0  0  0
 34 35  1  0  0  0
 34 89  1  0  0  0
 35 36  1  0  0  0
 35 38  1  0  0  0
 35 90  1  0  0  0
 36 37  2  0  0  0
 36 40  1  0  0  0
 38 39  1  0  0  0
 38 91  1  0  0  0
 38 92  1  0  0  0
 39 93  1  0  0  0
 40 41  1  0  0  0
 40 94  1  0  0  0
 41 42  1  0  0  0
 41 44  1  0  0  0
 41 95  1  0  0  0
 42 43  2  0  0  0
 42 48  1  0  0  0
 44 45  1  0  0  0
 44 46  1  0  0  0
 44 96  1  0  0  0
 45 47  1  0  0  0
 45 97  1  0  0  0
 45 98  1  0  0  0
 46 99  1  0  0  0
 46100  1  0  0  0
 46101  1  0  0  0
 47102  1  0  0  0
 47103  1  0  0  0
 47104  1  0  0  0
 48 49  1  0  0  0
 48105  1  0  0  0
 49 50  1  0  0  0
 49 52  1  0  0  0
 49106  1  0  0  0
 50 51  1  0  0  0
 50 56  2  0  0  0
 52 53  1  0  0  0
 52 54  1  0  0  0
 52107  1  0  0  0
 53 55  1  0  0  0
 53108  1  0  0  0
 53109  1  0  0  0
 54110  1  0  0  0
 54111  1  0  0  0
 54112  1  0  0  0
 55113  1  0  0  0
 55114  1  0  0  0
 55115  1  0  0  0
M  CHG  3   1   1   9   1  51  -1
M  END
> <s_m_source_file>
../4nmp_ligand.sdf

> <i_m_source_file_index>
1

> <s_epik_input>
W2NIXTFbY0hdW2NIXVtjSF1jKGMxMilbbkhdW2NIXWMyW0NIMl1bQ0BIXShbTkgzK10pQyg9TylOM1tDQEBIXShbQ0gyXVtDSDJdW0NIMl0zKUMoPU8pW05IXVtDQEBIXShbQ0gyXVtDSDJdW0NIMl1bQ0gyXVtOSF1DKD1PKVtDSDNdKUMoPU8pW05IXVtDQEBIXShbQ0gyXVtPSF0pQyg9TylbTkhdW0NAQEhdKFtDQEBIXShbQ0gzXSlbQ0gyXVtDSDNdKUMoPU8pW05IXVtDQEhdKEMoPU8pW09IXSlbQ0BASF0oW0NIM10pW0NIMl1bQ0gzXQ==

> <s_epik_cmdline>
J2VwaWtfYXBwJywgJy1pbWFlJywgJ2xpZ2FuZF9wcm8ubWFlJywgJy1vbWFlJywgJ2xpZ2FuZF9wcmVwLm1hZScsICctbXMnLCAnMScsICctcGgnLCAnNycsICctcGh0JywgJzAuNScsICctbnQn

> <r_epik_Ionization_Penalty>
  0.1830

> <r_epik_Ionization_Penalty_Charging>
  0.1830

> <r_epik_Ionization_Penalty_Neutral>
  0.0000

> <r_epik_State_Penalty>
  0.1723

> <r_epik_Charging_Adjusted_Penalty>
0.355311013988725

> <i_epik_Tot_Q>
1

> <i_epik_Tot_abs_Q>
3

$$$$
