4nmq_ligand
                    3D
 Schrodinger Suite 2020-3.
174175  0  0  1  0            999 V2000
   43.5610   29.1050   33.1970 N   0  3  0  0  0  0
   42.9100   28.2290   34.1520 C   0  0  2  0  0  0
   43.0160   26.8020   33.6910 C   0  0  0  0  0  0
   43.3240   26.5640   32.5860 O   0  0  0  0  0  0
   41.4720   28.5860   34.2580 C   0  0  0  0  0  0
   42.6990   25.8540   34.5550 N   0  0  0  0  0  0
   42.7260   24.4320   34.1860 C   0  0  2  0  0  0
   41.8290   23.9040   33.0490 C   0  0  0  0  0  0
   42.2760   23.3410   32.0720 O   0  0  0  0  0  0
   42.6380   23.5890   35.4630 C   0  0  0  0  0  0
   41.8800   22.3190   35.2860 C   0  0  0  0  0  0
   40.8320   22.2980   34.6700 O   0  0  0  0  0  0
   42.3850   21.2740   35.8560 N   0  0  0  0  0  0
   40.5430   24.0490   33.1130 N   0  0  0  0  0  0
   39.9150   23.5650   31.9040 C   0  0  2  0  0  0
   39.8350   22.0430   31.7210 C   0  0  0  0  0  0
   39.5410   21.5850   30.6430 O   0  0  0  0  0  0
   40.6080   24.2250   30.6800 C   0  0  0  0  0  0
   41.4430   23.3460   29.8890 O   0  0  0  0  0  0
   40.0580   21.2680   32.7690 N   0  0  0  0  0  0
   39.6730   19.8760   32.7930 C   0  0  2  0  0  0
   38.1590   19.7570   32.6750 C   0  0  0  0  0  0
   37.7160   18.8250   32.0700 O   0  0  0  0  0  0
   40.0720   19.2400   34.1110 C   0  0  0  0  0  0
   41.3080   18.4090   34.1450 C   0  0  0  0  0  0
   40.8920   17.1240   34.8210 C   0  0  0  0  0  0
   41.1860   17.0920   36.2340 N   0  0  0  0  0  0
   40.2890   17.3370   37.1760 C   0  0  0  0  0  0
   39.0890   17.5850   36.8130 N   0  0  0  0  0  0
   40.5800   17.2800   38.4610 N   0  0  0  0  0  0
   37.3940   20.6430   33.3330 N   0  0  0  0  0  0
   35.9400   20.6010   33.2210 C   0  0  2  0  0  0
   35.4950   21.2610   31.9340 C   0  0  0  0  0  0
   36.0310   22.2920   31.5240 O   0  0  0  0  0  0
   35.2530   21.3350   34.3650 C   0  0  0  0  0  0
   35.4880   20.7980   35.7280 C   0  0  0  0  0  0
   36.1090   19.6300   36.0710 C   0  0  0  0  0  0
   35.1020   21.4260   36.9490 C   0  0  0  0  0  0
   36.1310   19.4970   37.4370 N   0  0  0  0  0  0
   35.5210   20.5890   38.0010 C   0  0  0  0  0  0
   34.4430   22.6220   37.2570 C   0  0  0  0  0  0
   35.2990   20.9100   39.3410 C   0  0  0  0  0  0
   34.2260   22.9390   38.5830 C   0  0  0  0  0  0
   34.6540   22.0860   39.6100 C   0  0  0  0  0  0
   33.4350   21.3300   23.8470 O   0  0  0  0  0  0
   32.4650   20.9740   24.5380 C   0  0  0  0  0  0
   31.0960   21.6040   24.3450 C   0  0  0  0  0  0
   32.5420   19.8490   25.4440 N   0  0  0  0  0  0
   31.3460   19.4470   26.2360 C   0  0  0  0  0  0
   31.7820   19.1950   27.6530 C   0  0  0  0  0  0
   32.4470   20.4370   28.2020 C   0  0  0  0  0  0
   32.8590   20.2070   29.6070 C   0  0  0  0  0  0
   33.8830   21.2070   30.1210 C   0  0  2  0  0  0
   34.4890   20.6640   31.3160 N   0  0  0  0  0  0
   33.1930   22.5460   30.4110 C   0  0  0  0  0  0
   32.6340   22.7350   31.4910 O   0  0  0  0  0  0
   33.2720   23.4570   29.4580 N   0  0  0  0  0  0
   32.5570   24.7620   29.5040 C   0  0  2  0  0  0
   31.8060   25.0230   28.2280 C   0  0  0  0  0  0
   32.3100   24.8350   27.2090 O   0  0  0  0  0  0
   33.5490   25.9090   29.7580 C   0  0  2  0  0  0
   34.1980   25.6690   30.9780 O   0  0  0  0  0  0
   32.8490   27.2330   29.8310 C   0  0  0  0  0  0
   30.5500   25.4590   28.3800 N   0  0  0  0  0  0
   29.7160   25.8150   27.2760 C   0  0  2  0  0  0
   29.1010   27.2150   27.4660 C   0  0  0  0  0  0
   28.7040   27.5690   28.5170 O   0  0  0  0  0  0
   28.5490   24.8240   27.0740 C   0  0  0  0  0  0
   29.0160   23.5140   26.8100 O   0  0  0  0  0  0
   29.0920   27.9550   26.3790 N   0  0  0  0  0  0
   28.4280   29.2610   26.3040 C   0  0  2  0  0  0
   27.0130   29.0250   25.7860 C   0  0  0  0  0  0
   26.8290   28.4360   24.7530 O   0  0  0  0  0  0
   29.1790   30.1820   25.2770 C   0  0  2  0  0  0
   30.6310   30.3780   25.6390 C   0  0  0  0  0  0
   28.5430   31.5120   25.2200 C   0  0  0  0  0  0
   31.5000   30.6780   24.4130 C   0  0  0  0  0  0
   26.0220   29.4630   26.5460 N   0  0  0  0  0  0
   24.6280   29.1700   26.2450 C   0  0  2  0  0  0
   23.7290   30.3750   26.4640 C   0  0  0  0  0  0
   24.1570   31.3940   27.0110 O   0  0  0  0  0  0
   24.0990   28.0130   27.0920 C   0  0  2  0  0  0
   24.1490   28.3530   28.5820 C   0  0  0  0  0  0
   24.8890   26.7400   26.8090 C   0  0  0  0  0  0
   23.4890   27.2930   29.4680 C   0  0  0  0  0  0
   22.5293   30.3326   26.0814 O   0  0  0  0  0  0
   44.6254   28.8380   33.1209 H   0  0  0  0  0  0
   43.4677   30.1481   33.5335 H   0  0  0  0  0  0
   43.0836   28.9932   32.2123 H   0  0  0  0  0  0
   43.4130   28.3723   35.1197 H   0  0  0  0  0  0
   41.3770   29.6289   34.5948 H   0  0  0  0  0  0
   40.9815   27.9203   34.9834 H   0  0  0  0  0  0
   40.9928   28.4732   33.2743 H   0  0  0  0  0  0
   42.4094   26.1526   35.5733 H   0  0  0  0  0  0
   43.7077   24.3825   33.6922 H   0  0  0  0  0  0
   43.6517   23.3234   35.7976 H   0  0  0  0  0  0
   42.1319   24.1673   36.2500 H   0  0  0  0  0  0
   43.3375   21.3509   36.4009 H   0  0  0  0  0  0
   41.8621   20.3081   35.7960 H   0  0  0  0  0  0
   39.9274   24.4671   33.9231 H   0  0  0  0  0  0
   38.8748   23.8818   32.0700 H   0  0  0  0  0  0
   39.8436   24.6247   29.9974 H   0  0  0  0  0  0
   41.2571   25.0439   31.0236 H   0  0  0  0  0  0
   41.9693   23.7356   29.0051 H   0  0  0  0  0  0
   40.5544   21.7165   33.6422 H   0  0  0  0  0  0
   40.2000   19.4161   31.9440 H   0  0  0  0  0  0
   40.2375   20.0263   34.8623 H   0  0  0  0  0  0
   39.2695   18.5697   34.4525 H   0  0  0  0  0  0
   41.6601   18.2333   33.1178 H   0  0  0  0  0  0
   42.0880   18.9351   34.7150 H   0  0  0  0  0  0
   39.8066   16.9852   34.7085 H   0  0  0  0  0  0
   41.4199   16.2779   34.3568 H   0  0  0  0  0  0
   42.2030   16.8539   36.5789 H   0  0  0  0  0  0
   38.8370   17.6345   35.7434 H   0  0  0  0  0  0
   41.6101   17.0671   38.7827 H   0  0  0  0  0  0
   39.7926   17.4453   39.2111 H   0  0  0  0  0  0
   37.8754   21.4064   33.9618 H   0  0  0  0  0  0
   35.6994   19.5279   33.2442 H   0  0  0  0  0  0
   35.5964   22.3798   34.3890 H   0  0  0  0  0  0
   34.1636   21.3104   34.2147 H   0  0  0  0  0  0
   36.5249   18.9111   35.3651 H   0  0  0  0  0  0
   34.1073   23.2907   36.4644 H   0  0  0  0  0  0
   35.6272   20.2486   40.1429 H   0  0  0  0  0  0
   33.7137   23.8674   38.8355 H   0  0  0  0  0  0
   34.4685   22.3664   40.6469 H   0  0  0  0  0  0
   31.1747   22.4425   23.6374 H   0  0  0  0  0  0
   30.7229   21.9736   25.3115 H   0  0  0  0  0  0
   30.3992   20.8520   23.9463 H   0  0  0  0  0  0
   33.4838   19.2903   25.5481 H   0  0  0  0  0  0
   30.5997   20.2546   26.2086 H   0  0  0  0  0  0
   30.9121   18.5321   25.8062 H   0  0  0  0  0  0
   30.9045   18.9458   28.2678 H   0  0  0  0  0  0
   32.4943   18.3570   27.6740 H   0  0  0  0  0  0
   33.3344   20.6755   27.5973 H   0  0  0  0  0  0
   31.7401   21.2789   28.1636 H   0  0  0  0  0  0
   31.9789   20.2762   30.2632 H   0  0  0  0  0  0
   33.3069   19.2065   29.6987 H   0  0  0  0  0  0
   34.7025   21.3579   29.4029 H   0  0  0  0  0  0
   34.1150   19.7217   31.7429 H   0  0  0  0  0  0
   33.9087   23.2088   28.5960 H   0  0  0  0  0  0
   31.8252   24.6832   30.3215 H   0  0  0  0  0  0
   34.3276   25.9560   28.9824 H   0  0  0  0  0  0
   34.7714   24.7415   31.1228 H   0  0  0  0  0  0
   32.3367   27.4299   28.8777 H   0  0  0  0  0  0
   33.5857   28.0272   30.0223 H   0  0  0  0  0  0
   32.1111   27.2131   30.6466 H   0  0  0  0  0  0
   30.1657   25.5383   29.4076 H   0  0  0  0  0  0
   30.4366   25.7747   26.4459 H   0  0  0  0  0  0
   27.9310   24.7950   27.9835 H   0  0  0  0  0  0
   27.9336   25.1508   26.2228 H   0  0  0  0  0  0
   28.2981   22.6972   26.6439 H   0  0  0  0  0  0
   29.6144   27.5522   25.4987 H   0  0  0  0  0  0
   28.4280   29.6891   27.3173 H   0  0  0  0  0  0
   29.1302   29.7275   24.2765 H   0  0  0  0  0  0
   30.7239   31.2226   26.3376 H   0  0  0  0  0  0
   31.0168   29.4644   26.1149 H   0  0  0  0  0  0
   27.4808   31.3995   24.9574 H   0  0  0  0  0  0
   29.0458   32.1265   24.4588 H   0  0  0  0  0  0
   28.6283   32.0015   26.2014 H   0  0  0  0  0  0
   32.5452   30.8121   24.7284 H   0  0  0  0  0  0
   31.1428   31.5977   23.9266 H   0  0  0  0  0  0
   31.4357   29.8395   23.7040 H   0  0  0  0  0  0
   26.2789   30.0663   27.4292 H   0  0  0  0  0  0
   24.6545   28.9038   25.1780 H   0  0  0  0  0  0
   23.0482   27.8411   26.8157 H   0  0  0  0  0  0
   25.1974   28.4458   28.9019 H   0  0  0  0  0  0
   23.6261   29.3045   28.7587 H   0  0  0  0  0  0
   24.8423   26.5108   25.7342 H   0  0  0  0  0  0
   24.4570   25.9056   27.3810 H   0  0  0  0  0  0
   25.9377   26.8852   27.1077 H   0  0  0  0  0  0
   23.5606   27.5998   30.5219 H   0  0  0  0  0  0
   24.0018   26.3295   29.3309 H   0  0  0  0  0  0
   22.4305   27.1882   29.1877 H   0  0  0  0  0  0
   21.8717   31.2007   26.2361 H   0  0  0  0  0  0
  1  2  1  0  0  0
  1 87  1  0  0  0
  1 88  1  0  0  0
  1 89  1  0  0  0
  2  3  1  0  0  0
  2  5  1  0  0  0
  2 90  1  0  0  0
  3  4  2  0  0  0
  3  6  1  0  0  0
  5 91  1  0  0  0
  5 92  1  0  0  0
  5 93  1  0  0  0
  6  7  1  0  0  0
  6 94  1  0  0  0
  7  8  1  0  0  0
  7 10  1  0  0  0
  7 95  1  0  0  0
  8  9  2  0  0  0
  8 14  1  0  0  0
 10 11  1  0  0  0
 10 96  1  0  0  0
 10 97  1  0  0  0
 11 12  2  0  0  0
 11 13  1  0  0  0
 13 98  1  0  0  0
 13 99  1  0  0  0
 14 15  1  0  0  0
 14100  1  0  0  0
 15 16  1  0  0  0
 15 18  1  0  0  0
 15101  1  0  0  0
 16 17  2  0  0  0
 16 20  1  0  0  0
 18 19  1  0  0  0
 18102  1  0  0  0
 18103  1  0  0  0
 19104  1  0  0  0
 20 21  1  0  0  0
 20105  1  0  0  0
 21 22  1  0  0  0
 21 24  1  0  0  0
 21106  1  0  0  0
 22 23  2  0  0  0
 22 31  1  0  0  0
 24 25  1  0  0  0
 24107  1  0  0  0
 24108  1  0  0  0
 25 26  1  0  0  0
 25109  1  0  0  0
 25110  1  0  0  0
 26 27  1  0  0  0
 26111  1  0  0  0
 26112  1  0  0  0
 27 28  1  0  0  0
 27113  1  0  0  0
 28 29  2  0  0  0
 28 30  1  0  0  0
 29114  1  0  0  0
 30115  1  0  0  0
 30116  1  0  0  0
 31 32  1  0  0  0
 31117  1  0  0  0
 32 33  1  0  0  0
 32 35  1  0  0  0
 32118  1  0  0  0
 33 34  2  0  0  0
 33 54  1  0  0  0
 35 36  1  0  0  0
 35119  1  0  0  0
 35120  1  0  0  0
 36 37  2  0  0  0
 36 38  1  0  0  0
 37 39  1  0  0  0
 37121  1  0  0  0
 38 40  2  0  0  0
 38 41  1  0  0  0
 39 40  1  0  0  0
 40 42  1  0  0  0
 41 43  2  0  0  0
 41122  1  0  0  0
 42 44  2  0  0  0
 42123  1  0  0  0
 43 44  1  0  0  0
 43124  1  0  0  0
 44125  1  0  0  0
 45 46  2  0  0  0
 46 47  1  0  0  0
 46 48  1  0  0  0
 47126  1  0  0  0
 47127  1  0  0  0
 47128  1  0  0  0
 48 49  1  0  0  0
 48129  1  0  0  0
 49 50  1  0  0  0
 49130  1  0  0  0
 49131  1  0  0  0
 50 51  1  0  0  0
 50132  1  0  0  0
 50133  1  0  0  0
 51 52  1  0  0  0
 51134  1  0  0  0
 51135  1  0  0  0
 52 53  1  0  0  0
 52136  1  0  0  0
 52137  1  0  0  0
 53 54  1  0  0  0
 53 55  1  0  0  0
 53138  1  0  0  0
 54139  1  0  0  0
 55 56  2  0  0  0
 55 57  1  0  0  0
 57 58  1  0  0  0
 57140  1  0  0  0
 58 59  1  0  0  0
 58 61  1  0  0  0
 58141  1  0  0  0
 59 60  2  0  0  0
 59 64  1  0  0  0
 61 62  1  0  0  0
 61 63  1  0  0  0
 61142  1  0  0  0
 62143  1  0  0  0
 63144  1  0  0  0
 63145  1  0  0  0
 63146  1  0  0  0
 64 65  1  0  0  0
 64147  1  0  0  0
 65 66  1  0  0  0
 65 68  1  0  0  0
 65148  1  0  0  0
 66 67  2  0  0  0
 66 70  1  0  0  0
 68 69  1  0  0  0
 68149  1  0  0  0
 68150  1  0  0  0
 69151  1  0  0  0
 70 71  1  0  0  0
 70152  1  0  0  0
 71 72  1  0  0  0
 71 74  1  0  0  0
 71153  1  0  0  0
 72 73  2  0  0  0
 72 78  1  0  0  0
 74 75  1  0  0  0
 74 76  1  0  0  0
 74154  1  0  0  0
 75 77  1  0  0  0
 75155  1  0  0  0
 75156  1  0  0  0
 76157  1  0  0  0
 76158  1  0  0  0
 76159  1  0  0  0
 77160  1  0  0  0
 77161  1  0  0  0
 77162  1  0  0  0
 78 79  1  0  0  0
 78163  1  0  0  0
 79 80  1  0  0  0
 79 82  1  0  0  0
 79164  1  0  0  0
 80 81  2  0  0  0
 80 86  1  0  0  0
 82 83  1  0  0  0
 82 84  1  0  0  0
 82165  1  0  0  0
 83 85  1  0  0  0
 83166  1  0  0  0
 83167  1  0  0  0
 84168  1  0  0  0
 84169  1  0  0  0
 84170  1  0  0  0
 85171  1  0  0  0
 85172  1  0  0  0
 85173  1  0  0  0
 86174  1  0  0  0
M  CHG  1   1   1
M  END
> <s_m_source_file>
../4nmq_ligand.sdf

> <i_m_source_file_index>
1

> <s_epik_input>
W05IMytdW0NAQEhdKFtDSDNdKUMoPU8pW05IXVtDQEBIXShbQ0gyXUMoPU8pW05IMl0pQyg9TylbTkhdW0NAQEhdKFtDSDJdW09IXSlDKD1PKVtOSF1bQ0BASF0oW0NIMl1bQ0gyXVtDSDJdW05IXS9DKD1OXFtIXSlbTkgyXSlDKD1PKVtOSF1bQ0BASF0oW0NIMl1jMVtjSF1bbkhdYyhjMTIpW2NIXVtjSF1bY0hdW2NIXTIpQyg9TylbTkhdW0NAQEhdKFtDSDJdW0NIMl1bQ0gyXVtDSDJdW05IXUMoPU8pW0NIM10pQyg9TylbTkhdW0NAQEhdKFtDQEhdKFtPSF0pW0NIM10pQyg9TylbTkhdW0NAQEhdKFtDSDJdW09IXSlDKD1PKVtOSF1bQ0BASF0oW0NAQEhdKFtDSDNdKVtDSDJdW0NIM10pQyg9TylbTkhdW0NASF0oQyg9TylbT0hdKVtDQEBIXShbQ0gzXSlbQ0gyXVtDSDNd

> <s_epik_cmdline>
J2VwaWtfYXBwJywgJy1pbWFlJywgJ2xpZ2FuZF9wcm8ubWFlJywgJy1vbWFlJywgJ2xpZ2FuZF9wcmVwLm1hZScsICctbXMnLCAnMScsICctcGgnLCAnNycsICctcGh0JywgJzAuNScsICctbnQn

> <s_epik_pKa_notes>
Molecule size exceeds maximum supported for generating protonation states

> <s_epik_Chemistry_Notes>
This compound has an imine and may undergo hydrolysis.

$$$$
