4nmr_ligand
                    3D
 Schrodinger Suite 2020-3.
165165  0  0  1  0            999 V2000
   32.3710   31.2690   23.1440 N   0  3  0  0  0  0
   32.5630   29.8950   22.6760 C   0  0  2  0  0  0
   31.3610   29.4120   21.8620 C   0  0  0  0  0  0
   30.2190   29.7800   22.1500 O   0  0  0  0  0  0
   32.8100   28.9740   23.8520 C   0  0  0  0  0  0
   31.6100   28.5970   20.8390 N   0  0  0  0  0  0
   30.5050   28.0240   20.0780 C   0  0  2  0  0  0
   29.6890   27.0710   20.9470 C   0  0  0  0  0  0
   30.2210   26.4550   21.8710 O   0  0  0  0  0  0
   30.9950   27.3320   18.7950 C   0  0  0  0  0  0
   31.9420   26.1900   19.0700 C   0  0  0  0  0  0
   33.0240   26.3900   19.6230 O   0  0  0  0  0  0
   31.5520   24.9790   18.6610 N   0  0  0  0  0  0
   28.3960   26.9630   20.6590 N   0  0  0  0  0  0
   27.5130   26.1260   21.4640 C   0  0  2  0  0  0
   26.6970   25.1270   20.6440 C   0  0  0  0  0  0
   26.3890   25.3630   19.4750 O   0  0  0  0  0  0
   26.5810   27.0050   22.3020 C   0  0  0  0  0  0
   26.0850   28.0950   21.5440 O   0  0  0  0  0  0
   26.3530   24.0070   21.2700 N   0  0  0  0  0  0
   25.4390   23.0520   20.6610 C   0  0  2  0  0  0
   24.0720   23.6890   20.4600 C   0  0  0  0  0  0
   23.6630   24.5470   21.2490 O   0  0  0  0  0  0
   25.3150   21.8020   21.5290 C   0  0  0  0  0  0
   26.3030   20.7300   21.1420 C   0  0  0  0  0  0
   26.5660   20.8200   19.6500 C   0  0  0  0  0  0
   26.8490   19.5190   19.0610 N   0  0  0  0  0  0
   27.0290   19.3130   17.7610 C   0  0  0  0  0  0
   26.9570   20.3290   16.9080 N   0  0  0  0  0  0
   27.2830   18.0910   17.3130 N   0  0  0  0  0  0
   17.6430   23.0560   13.5560 O   0  0  0  0  0  0
   18.7590   23.5320   13.3400 C   0  0  0  0  0  0
   19.6230   22.9480   12.2140 C   0  0  0  0  0  0
   19.1140   24.8320   13.9070 N   0  0  0  0  0  0
   19.7200   24.9450   15.2610 C   0  0  0  0  0  0
   20.8770   23.9790   15.4330 C   0  0  0  0  0  0
   21.6960   24.3370   16.6570 C   0  0  0  0  0  0
   21.5130   23.3250   17.7770 C   0  0  0  0  0  0
   22.0440   23.8160   19.1260 C   0  0  2  0  0  0
   23.3720   23.2780   19.4040 N   0  0  0  0  0  0
   21.0650   23.4550   20.2310 C   0  0  0  0  0  0
   20.9710   22.2910   20.6280 O   0  0  0  0  0  0
   20.3410   24.4610   20.7420 N   0  0  0  0  0  0
   19.3140   24.2100   21.7550 C   0  0  2  0  0  0
   18.3420   23.1300   21.2870 C   0  0  0  0  0  0
   17.8450   23.1830   20.1600 O   0  0  0  0  0  0
   18.5990   25.5580   21.8650 C   0  0  0  0  0  0
   19.6570   26.5540   21.5270 C   0  0  0  0  0  0
   20.5100   25.9000   20.4690 C   0  0  0  0  0  0
   18.0920   22.1520   22.1510 N   0  0  0  0  0  0
   17.1830   21.0560   21.8460 C   0  0  2  0  0  0
   16.1580   20.9630   22.9640 C   0  0  0  0  0  0
   16.5150   21.0180   24.1400 O   0  0  0  0  0  0
   17.9310   19.7090   21.7660 C   0  0  2  0  0  0
   18.9550   19.7780   20.7650 O   0  0  0  0  0  0
   16.9720   18.5880   21.4260 C   0  0  0  0  0  0
   14.8880   20.8430   22.5960 N   0  0  0  0  0  0
   13.8220   20.6700   23.5730 C   0  0  2  0  0  0
   13.0730   19.3700   23.3370 C   0  0  0  0  0  0
   12.8810   18.9550   22.1920 O   0  0  0  0  0  0
   12.8160   21.8190   23.4810 C   0  0  0  0  0  0
   13.4280   23.0650   23.7350 O   0  0  0  0  0  0
   12.6330   18.7400   24.4220 N   0  0  0  0  0  0
   11.7540   17.5810   24.3160 C   0  0  2  0  0  0
   10.3040   18.0240   24.4850 C   0  0  0  0  0  0
    9.9960   18.8890   25.3090 O   0  0  0  0  0  0
   12.0840   16.4960   25.3480 C   0  0  2  0  0  0
   11.9870   17.0620   26.7680 C   0  0  0  0  0  0
   13.4660   15.8970   25.0760 C   0  0  0  0  0  0
   12.1540   16.0110   27.8570 C   0  0  0  0  0  0
    9.4170   17.4330   23.6930 N   0  0  0  0  0  0
    7.9940   17.7600   23.7430 C   0  0  2  0  0  0
    7.1550   16.4930   23.6240 C   0  0  0  0  0  0
    7.6830   15.4220   23.3060 O   0  0  0  0  0  0
    7.5840   18.7750   22.6440 C   0  0  2  0  0  0
    7.9100   18.2390   21.2480 C   0  0  0  0  0  0
    8.2680   20.1110   22.8780 C   0  0  0  0  0  0
    7.5910   19.2000   20.1230 C   0  0  0  0  0  0
    5.9430   16.5200   23.8490 O   0  0  0  0  0  0
   32.1925   31.9284   22.2818 H   0  0  0  0  0  0
   33.2713   31.6027   23.6807 H   0  0  0  0  0  0
   31.5049   31.3081   23.8210 H   0  0  0  0  0  0
   33.4540   29.9183   22.0313 H   0  0  0  0  0  0
   33.6763   29.3357   24.4253 H   0  0  0  0  0  0
   33.0119   27.9569   23.4850 H   0  0  0  0  0  0
   31.9213   28.9604   24.5000 H   0  0  0  0  0  0
   32.6483   28.3556   20.5675 H   0  0  0  0  0  0
   29.8794   28.8848   19.7994 H   0  0  0  0  0  0
   30.1329   26.9276   18.2444 H   0  0  0  0  0  0
   31.5237   28.0615   18.1639 H   0  0  0  0  0  0
   30.5751   24.8520   18.1716 H   0  0  0  0  0  0
   32.2079   24.1092   18.8138 H   0  0  0  0  0  0
   27.9943   27.5173   19.7980 H   0  0  0  0  0  0
   28.2066   25.5510   22.0951 H   0  0  0  0  0  0
   25.7284   26.4050   22.6529 H   0  0  0  0  0  0
   27.1313   27.4016   23.1679 H   0  0  0  0  0  0
   25.3998   28.8203   22.0070 H   0  0  0  0  0  0
   26.7728   23.8077   22.2670 H   0  0  0  0  0  0
   25.8793   22.7910   19.6873 H   0  0  0  0  0  0
   25.4971   22.0666   22.5810 H   0  0  0  0  0  0
   24.3031   21.3831   21.4262 H   0  0  0  0  0  0
   27.2420   20.8799   21.6950 H   0  0  0  0  0  0
   25.8867   19.7418   21.3874 H   0  0  0  0  0  0
   25.6817   21.2375   19.1464 H   0  0  0  0  0  0
   27.4330   21.4723   19.4692 H   0  0  0  0  0  0
   26.9254   18.6293   19.7034 H   0  0  0  0  0  0
   26.7464   21.3435   17.2775 H   0  0  0  0  0  0
   27.1080   20.1557   15.8323 H   0  0  0  0  0  0
   27.3431   17.2484   18.0175 H   0  0  0  0  0  0
   19.2164   21.9728   11.9081 H   0  0  0  0  0  0
   20.6547   22.8188   12.5729 H   0  0  0  0  0  0
   19.6171   23.6338   11.3540 H   0  0  0  0  0  0
   18.9248   25.7375   13.3118 H   0  0  0  0  0  0
   20.0949   25.9683   15.4107 H   0  0  0  0  0  0
   18.9599   24.7179   16.0230 H   0  0  0  0  0  0
   20.4870   22.9574   15.5524 H   0  0  0  0  0  0
   21.5259   24.0224   14.5458 H   0  0  0  0  0  0
   22.7625   24.3654   16.3891 H   0  0  0  0  0  0
   21.3853   25.3240   17.0302 H   0  0  0  0  0  0
   20.4423   23.1054   17.9014 H   0  0  0  0  0  0
   22.0504   22.3987   17.5257 H   0  0  0  0  0  0
   22.1868   24.9064   19.0993 H   0  0  0  0  0  0
   23.8095   22.5210   18.7365 H   0  0  0  0  0  0
   19.7656   23.8549   22.6931 H   0  0  0  0  0  0
   17.7596   25.5868   21.1547 H   0  0  0  0  0  0
   18.2178   25.6884   22.8886 H   0  0  0  0  0  0
   19.1871   27.4742   21.1496 H   0  0  0  0  0  0
   20.2443   26.7851   22.4279 H   0  0  0  0  0  0
   21.5729   26.1681   20.5600 H   0  0  0  0  0  0
   20.1615   26.1233   19.4498 H   0  0  0  0  0  0
   18.5999   22.1902   23.1260 H   0  0  0  0  0  0
   16.7267   21.3044   20.8764 H   0  0  0  0  0  0
   18.4441   19.4874   22.7134 H   0  0  0  0  0  0
   19.7485   20.5360   20.8413 H   0  0  0  0  0  0
   16.1853   18.5332   22.1929 H   0  0  0  0  0  0
   17.5194   17.6344   21.3935 H   0  0  0  0  0  0
   16.5145   18.7819   20.4446 H   0  0  0  0  0  0
   14.6501   20.8770   21.5226 H   0  0  0  0  0  0
   14.3355   20.6536   24.5456 H   0  0  0  0  0  0
   12.3804   21.8449   22.4713 H   0  0  0  0  0  0
   12.0168   21.6668   24.2213 H   0  0  0  0  0  0
   12.8301   23.9878   23.7047 H   0  0  0  0  0  0
   12.9427   19.1067   25.4117 H   0  0  0  0  0  0
   11.9399   17.1822   23.3078 H   0  0  0  0  0  0
   11.3471   15.6842   25.2585 H   0  0  0  0  0  0
   12.7738   17.8162   26.9166 H   0  0  0  0  0  0
   11.0008   17.5280   26.9104 H   0  0  0  0  0  0
   13.4987   15.5015   24.0501 H   0  0  0  0  0  0
   13.6594   15.0823   25.7894 H   0  0  0  0  0  0
   14.2331   16.6767   25.1931 H   0  0  0  0  0  0
   12.0727   16.4897   28.8441 H   0  0  0  0  0  0
   13.1415   15.5362   27.7599 H   0  0  0  0  0  0
   11.3684   15.2480   27.7537 H   0  0  0  0  0  0
    9.7828   16.6762   22.9835 H   0  0  0  0  0  0
    7.8577   18.2134   24.7359 H   0  0  0  0  0  0
    7.0720   14.5112   23.2218 H   0  0  0  0  0  0
    6.4974   18.9395   22.6922 H   0  0  0  0  0  0
    8.9846   18.0130   21.1837 H   0  0  0  0  0  0
    7.3309   17.3223   21.0627 H   0  0  0  0  0  0
    8.0211   20.4779   23.8852 H   0  0  0  0  0  0
    7.9209   20.8369   22.1280 H   0  0  0  0  0  0
    9.3573   19.9855   22.7903 H   0  0  0  0  0  0
    7.8545   18.7378   19.1602 H   0  0  0  0  0  0
    8.1703   20.1256   20.2561 H   0  0  0  0  0  0
    6.5165   19.4349   20.1351 H   0  0  0  0  0  0
  1  2  1  0  0  0
  1 80  1  0  0  0
  1 81  1  0  0  0
  1 82  1  0  0  0
  2  3  1  0  0  0
  2  5  1  0  0  0
  2 83  1  0  0  0
  3  4  2  0  0  0
  3  6  1  0  0  0
  5 84  1  0  0  0
  5 85  1  0  0  0
  5 86  1  0  0  0
  6  7  1  0  0  0
  6 87  1  0  0  0
  7  8  1  0  0  0
  7 10  1  0  0  0
  7 88  1  0  0  0
  8  9  2  0  0  0
  8 14  1  0  0  0
 10 11  1  0  0  0
 10 89  1  0  0  0
 10 90  1  0  0  0
 11 12  2  0  0  0
 11 13  1  0  0  0
 13 91  1  0  0  0
 13 92  1  0  0  0
 14 15  1  0  0  0
 14 93  1  0  0  0
 15 16  1  0  0  0
 15 18  1  0  0  0
 15 94  1  0  0  0
 16 17  2  0  0  0
 16 20  1  0  0  0
 18 19  1  0  0  0
 18 95  1  0  0  0
 18 96  1  0  0  0
 19 97  1  0  0  0
 20 21  1  0  0  0
 20 98  1  0  0  0
 21 22  1  0  0  0
 21 24  1  0  0  0
 21 99  1  0  0  0
 22 23  2  0  0  0
 22 40  1  0  0  0
 24 25  1  0  0  0
 24100  1  0  0  0
 24101  1  0  0  0
 25 26  1  0  0  0
 25102  1  0  0  0
 25103  1  0  0  0
 26 27  1  0  0  0
 26104  1  0  0  0
 26105  1  0  0  0
 27 28  1  0  0  0
 27106  1  0  0  0
 28 29  1  0  0  0
 28 30  2  0  0  0
 29107  1  0  0  0
 29108  1  0  0  0
 30109  1  0  0  0
 31 32  2  0  0  0
 32 33  1  0  0  0
 32 34  1  0  0  0
 33110  1  0  0  0
 33111  1  0  0  0
 33112  1  0  0  0
 34 35  1  0  0  0
 34113  1  0  0  0
 35 36  1  0  0  0
 35114  1  0  0  0
 35115  1  0  0  0
 36 37  1  0  0  0
 36116  1  0  0  0
 36117  1  0  0  0
 37 38  1  0  0  0
 37118  1  0  0  0
 37119  1  0  0  0
 38 39  1  0  0  0
 38120  1  0  0  0
 38121  1  0  0  0
 39 40  1  0  0  0
 39 41  1  0  0  0
 39122  1  0  0  0
 40123  1  0  0  0
 41 42  2  0  0  0
 41 43  1  0  0  0
 43 44  1  0  0  0
 43 49  1  0  0  0
 44 45  1  0  0  0
 44 47  1  0  0  0
 44124  1  0  0  0
 45 46  2  0  0  0
 45 50  1  0  0  0
 47 48  1  0  0  0
 47125  1  0  0  0
 47126  1  0  0  0
 48 49  1  0  0  0
 48127  1  0  0  0
 48128  1  0  0  0
 49129  1  0  0  0
 49130  1  0  0  0
 50 51  1  0  0  0
 50131  1  0  0  0
 51 52  1  0  0  0
 51 54  1  0  0  0
 51132  1  0  0  0
 52 53  2  0  0  0
 52 57  1  0  0  0
 54 55  1  0  0  0
 54 56  1  0  0  0
 54133  1  0  0  0
 55134  1  0  0  0
 56135  1  0  0  0
 56136  1  0  0  0
 56137  1  0  0  0
 57 58  1  0  0  0
 57138  1  0  0  0
 58 59  1  0  0  0
 58 61  1  0  0  0
 58139  1  0  0  0
 59 60  2  0  0  0
 59 63  1  0  0  0
 61 62  1  0  0  0
 61140  1  0  0  0
 61141  1  0  0  0
 62142  1  0  0  0
 63 64  1  0  0  0
 63143  1  0  0  0
 64 65  1  0  0  0
 64 67  1  0  0  0
 64144  1  0  0  0
 65 66  2  0  0  0
 65 71  1  0  0  0
 67 68  1  0  0  0
 67 69  1  0  0  0
 67145  1  0  0  0
 68 70  1  0  0  0
 68146  1  0  0  0
 68147  1  0  0  0
 69148  1  0  0  0
 69149  1  0  0  0
 69150  1  0  0  0
 70151  1  0  0  0
 70152  1  0  0  0
 70153  1  0  0  0
 71 72  1  0  0  0
 71154  1  0  0  0
 72 73  1  0  0  0
 72 75  1  0  0  0
 72155  1  0  0  0
 73 74  1  0  0  0
 73 79  2  0  0  0
 74156  1  0  0  0
 75 76  1  0  0  0
 75 77  1  0  0  0
 75157  1  0  0  0
 76 78  1  0  0  0
 76158  1  0  0  0
 76159  1  0  0  0
 77160  1  0  0  0
 77161  1  0  0  0
 77162  1  0  0  0
 78163  1  0  0  0
 78164  1  0  0  0
 78165  1  0  0  0
M  CHG  1   1   1
M  END
> <s_m_source_file>
../4nmr_ligand.sdf

> <i_m_source_file_index>
1

> <s_epik_input>
W05IMytdW0NAQEhdKFtDSDNdKUMoPU8pW05IXVtDQEBIXShbQ0gyXUMoPU8pW05IMl0pQyg9TylbTkhdW0NAQEhdKFtDSDJdW09IXSlDKD1PKVtOSF1bQ0BASF0oW0NIMl1bQ0gyXVtDSDJdW05IXS9DKFtOSDJdKT1OXFtIXSlDKD1PKVtOSF1bQ0BASF0oW0NIMl1bQ0gyXVtDSDJdW0NIMl1bTkhdQyg9TylbQ0gzXSlDKD1PKU4xW0NAQEhdKFtDSDJdW0NIMl1bQ0gyXTEpQyg9TylbTkhdW0NAQEhdKFtDQEhdKFtPSF0pW0NIM10pQyg9TylbTkhdW0NAQEhdKFtDSDJdW09IXSlDKD1PKVtOSF1bQ0BASF0oW0NAQEhdKFtDSDNdKVtDSDJdW0NIM10pQyg9TylbTkhdW0NASF0oQyg9TylbT0hdKVtDQEBIXShbQ0gzXSlbQ0gyXVtDSDNd

> <s_epik_cmdline>
J2VwaWtfYXBwJywgJy1pbWFlJywgJ2xpZ2FuZF9wcm8ubWFlJywgJy1vbWFlJywgJ2xpZ2FuZF9wcmVwLm1hZScsICctbXMnLCAnMScsICctcGgnLCAnNycsICctcGh0JywgJzAuNScsICctbnQn

> <s_epik_pKa_notes>
Molecule size exceeds maximum supported for generating protonation states

> <s_epik_Chemistry_Notes>
This compound has an imine and may undergo hydrolysis.

$$$$
