4nms_ligand
                    3D
 Schrodinger Suite 2020-3.
118121  0  0  1  0            999 V2000
   19.6480   26.5820   15.3230 N   0  3  0  0  0  0
   18.3180   26.9110   15.8200 C   0  0  2  0  0  0
   17.9760   26.0870   17.0580 C   0  0  0  0  0  0
   18.4620   24.9670   17.2170 O   0  0  0  0  0  0
   17.2570   26.6320   14.7580 C   0  0  0  0  0  0
   17.6010   27.0770   13.3680 C   0  0  0  0  0  0
   18.1970   28.2520   12.9940 C   0  0  0  0  0  0
   17.3570   26.3470   12.1620 C   0  0  0  0  0  0
   18.3380   28.2920   11.6240 N   0  3  0  0  0  0
   17.8350   27.1330   11.0920 C   0  0  0  0  0  0
   16.7870   25.1020   11.8830 C   0  0  0  0  0  0
   17.7550   26.7120    9.7640 C   0  0  0  0  0  0
   16.7110   24.6850   10.5640 C   0  0  0  0  0  0
   17.1940   25.4890    9.5220 C   0  0  0  0  0  0
   17.1040   26.6280   17.9220 N   0  0  0  0  0  0
   16.6460   25.8990   19.1070 C   0  0  2  0  0  0
   15.7820   24.6950   18.7360 C   0  0  0  0  0  0
   15.1450   24.6660   17.6740 O   0  0  0  0  0  0
   15.7920   26.9360   19.8420 C   0  0  0  0  0  0
   15.2750   27.8110   18.7530 C   0  0  0  0  0  0
   16.4250   27.9270   17.7850 C   0  0  0  0  0  0
   15.7560   23.7150   19.6280 N   0  0  0  0  0  0
   14.9470   22.5180   19.4270 C   0  0  2  0  0  0
   14.1470   22.2650   20.6830 C   0  0  0  0  0  0
   14.6730   22.3880   21.7860 O   0  0  0  0  0  0
   15.8230   21.2930   19.1470 C   0  0  2  0  0  0
   16.5980   21.5270   17.9630 O   0  0  0  0  0  0
   14.9560   20.0520   18.9370 C   0  0  0  0  0  0
   12.8670   21.9380   20.5240 N   0  0  0  0  0  0
   12.0270   21.6040   21.6670 C   0  0  2  0  0  0
   11.3870   20.2460   21.4170 C   0  0  0  0  0  0
   10.9490   19.9610   20.2980 O   0  0  0  0  0  0
   10.9240   22.6570   21.8650 C   0  0  0  0  0  0
   11.4810   23.9350   22.1480 O   0  0  0  0  0  0
   11.3350   19.4050   22.4470 N   0  0  0  0  0  0
   10.5560   18.1710   22.3690 C   0  0  2  0  0  0
    9.1630   18.4860   22.8550 C   0  0  0  0  0  0
    9.0020   19.1450   23.8920 O   0  0  0  0  0  0
   11.1510   17.0690   23.2540 C   0  0  0  0  0  0
   12.5620   16.6760   22.8840 C   0  0  0  0  0  0
   12.8680   15.2900   23.3980 C   0  0  0  0  0  0
   12.9070   15.2530   24.9220 C   0  0  0  0  0  0
   14.0800   16.0180   25.4340 N   0  0  0  0  0  0
   12.7810   17.8500   26.1630 O   0  0  0  0  0  0
   13.9170   17.3200   26.0740 C   0  0  0  0  0  0
   15.1120   18.1080   26.4600 C   0  0  0  0  0  0
   16.3650   17.7070   26.0290 C   0  0  0  0  0  0
   17.4820   18.4440   26.3850 C   0  0  0  0  0  0
   17.3430   19.5760   27.1740 C   0  0  0  0  0  0
   18.4170   20.2790   27.5130 F   0  0  0  0  0  0
   16.0880   19.9740   27.6060 C   0  0  0  0  0  0
   14.9680   19.2380   27.2510 C   0  0  0  0  0  0
    8.1660   18.0250   22.1030 N   0  0  0  0  0  0
    6.7720   18.2920   22.4280 C   0  0  2  0  0  0
    5.9180   17.0510   22.2140 C   0  0  0  0  0  0
    6.3660   16.0060   21.7100 O   0  5  0  0  0  0
    6.1900   19.4390   21.5650 C   0  0  2  0  0  0
    6.3150   19.0870   20.0770 C   0  0  0  0  0  0
    6.9030   20.7550   21.8720 C   0  0  0  0  0  0
    5.7160   20.1320   19.1400 C   0  0  0  0  0  0
    4.7430   17.0730   22.5670 O   0  0  0  0  0  0
   20.3935   26.7911   16.1044 H   0  0  0  0  0  0
   19.8681   27.1910   14.4338 H   0  0  0  0  0  0
   19.6861   25.5156   15.0558 H   0  0  0  0  0  0
   18.3727   27.9830   16.0603 H   0  0  0  0  0  0
   17.0723   25.5492   14.6999 H   0  0  0  0  0  0
   16.3241   27.1491   15.0269 H   0  0  0  0  0  0
   18.4830   28.9909   13.7571 H   0  0  0  0  0  0
   16.4094   24.4711   12.6877 H   0  0  0  0  0  0
   18.1259   27.3349    8.9501 H   0  0  0  0  0  0
   16.2685   23.7161   10.3327 H   0  0  0  0  0  0
   17.1205   25.1307    8.4952 H   0  0  0  0  0  0
   17.5093   25.5139   19.6695 H   0  0  0  0  0  0
   14.9823   26.4261   20.3846 H   0  0  0  0  0  0
   16.4203   27.4889   20.5559 H   0  0  0  0  0  0
   14.3951   27.3398   18.2906 H   0  0  0  0  0  0
   14.9904   28.7877   19.1713 H   0  0  0  0  0  0
   17.1223   28.7351   18.0512 H   0  0  0  0  0  0
   16.0912   28.0584   16.7451 H   0  0  0  0  0  0
   16.3649   23.8209   20.5380 H   0  0  0  0  0  0
   14.2976   22.7242   18.5634 H   0  0  0  0  0  0
   16.5368   21.1323   19.9684 H   0  0  0  0  0  0
   17.2895   22.3813   17.9182 H   0  0  0  0  0  0
   14.3579   19.8653   19.8411 H   0  0  0  0  0  0
   15.6011   19.1834   18.7382 H   0  0  0  0  0  0
   14.2851   20.2141   18.0805 H   0  0  0  0  0  0
   12.4452   21.9225   19.5082 H   0  0  0  0  0  0
   12.6900   21.5827   22.5445 H   0  0  0  0  0  0
   10.3197   22.7316   20.9489 H   0  0  0  0  0  0
   10.2801   22.3599   22.7059 H   0  0  0  0  0  0
   10.8200   24.7981   22.3158 H   0  0  0  0  0  0
   11.8884   19.6489   23.3658 H   0  0  0  0  0  0
   10.5698   17.8468   21.3180 H   0  0  0  0  0  0
   11.1735   17.4105   24.2994 H   0  0  0  0  0  0
   10.5319   16.1630   23.1775 H   0  0  0  0  0  0
   12.6704   16.6865   21.7894 H   0  0  0  0  0  0
   13.2703   17.3901   23.3295 H   0  0  0  0  0  0
   12.0914   14.5914   23.0533 H   0  0  0  0  0  0
   13.8478   14.9658   23.0175 H   0  0  0  0  0  0
   11.9860   15.7009   25.3233 H   0  0  0  0  0  0
   12.9855   14.2097   25.2616 H   0  0  0  0  0  0
   15.0938   15.6031   25.3331 H   0  0  0  0  0  0
   16.4719   16.8148   25.4120 H   0  0  0  0  0  0
   18.4703   18.1344   26.0451 H   0  0  0  0  0  0
   15.9814   20.8652   28.2245 H   0  0  0  0  0  0
   13.9795   19.5459   27.5918 H   0  0  0  0  0  0
    8.4190   17.4274   21.2148 H   0  0  0  0  0  0
    6.8039   18.5662   23.4928 H   0  0  0  0  0  0
    5.1250   19.5763   21.8035 H   0  0  0  0  0  0
    7.3778   18.9847   19.8125 H   0  0  0  0  0  0
    5.7951   18.1379   19.8798 H   0  0  0  0  0  0
    6.8003   20.9866   22.9424 H   0  0  0  0  0  0
    6.4529   21.5633   21.2770 H   0  0  0  0  0  0
    7.9692   20.6624   21.6175 H   0  0  0  0  0  0
    5.8457   19.8067   18.0972 H   0  0  0  0  0  0
    6.2267   21.0947   19.2900 H   0  0  0  0  0  0
    4.6439   20.2478   19.3574 H   0  0  0  0  0  0
   18.7971   29.1687   11.1437 H   0  0  0  0  0  0
  1  2  1  0  0  0
  1 62  1  0  0  0
  1 63  1  0  0  0
  1 64  1  0  0  0
  2  3  1  0  0  0
  2  5  1  0  0  0
  2 65  1  0  0  0
  3  4  2  0  0  0
  3 15  1  0  0  0
  5  6  1  0  0  0
  5 66  1  0  0  0
  5 67  1  0  0  0
  6  7  2  0  0  0
  6  8  1  0  0  0
  7  9  1  0  0  0
  7 68  1  0  0  0
  8 10  2  0  0  0
  8 11  1  0  0  0
  9 10  1  0  0  0
  9118  1  0  0  0
 10 12  1  0  0  0
 11 13  2  0  0  0
 11 69  1  0  0  0
 12 14  2  0  0  0
 12 70  1  0  0  0
 13 14  1  0  0  0
 13 71  1  0  0  0
 14 72  1  0  0  0
 15 16  1  0  0  0
 15 21  1  0  0  0
 16 17  1  0  0  0
 16 19  1  0  0  0
 16 73  1  0  0  0
 17 18  2  0  0  0
 17 22  1  0  0  0
 19 20  1  0  0  0
 19 74  1  0  0  0
 19 75  1  0  0  0
 20 21  1  0  0  0
 20 76  1  0  0  0
 20 77  1  0  0  0
 21 78  1  0  0  0
 21 79  1  0  0  0
 22 23  1  0  0  0
 22 80  1  0  0  0
 23 24  1  0  0  0
 23 26  1  0  0  0
 23 81  1  0  0  0
 24 25  2  0  0  0
 24 29  1  0  0  0
 26 27  1  0  0  0
 26 28  1  0  0  0
 26 82  1  0  0  0
 27 83  1  0  0  0
 28 84  1  0  0  0
 28 85  1  0  0  0
 28 86  1  0  0  0
 29 30  1  0  0  0
 29 87  1  0  0  0
 30 31  1  0  0  0
 30 33  1  0  0  0
 30 88  1  0  0  0
 31 32  2  0  0  0
 31 35  1  0  0  0
 33 34  1  0  0  0
 33 89  1  0  0  0
 33 90  1  0  0  0
 34 91  1  0  0  0
 35 36  1  0  0  0
 35 92  1  0  0  0
 36 37  1  0  0  0
 36 39  1  0  0  0
 36 93  1  0  0  0
 37 38  2  0  0  0
 37 53  1  0  0  0
 39 40  1  0  0  0
 39 94  1  0  0  0
 39 95  1  0  0  0
 40 41  1  0  0  0
 40 96  1  0  0  0
 40 97  1  0  0  0
 41 42  1  0  0  0
 41 98  1  0  0  0
 41 99  1  0  0  0
 42 43  1  0  0  0
 42100  1  0  0  0
 42101  1  0  0  0
 43 45  1  0  0  0
 43102  1  0  0  0
 44 45  2  0  0  0
 45 46  1  0  0  0
 46 47  2  0  0  0
 46 52  1  0  0  0
 47 48  1  0  0  0
 47103  1  0  0  0
 48 49  2  0  0  0
 48104  1  0  0  0
 49 50  1  0  0  0
 49 51  1  0  0  0
 51 52  2  0  0  0
 51105  1  0  0  0
 52106  1  0  0  0
 53 54  1  0  0  0
 53107  1  0  0  0
 54 55  1  0  0  0
 54 57  1  0  0  0
 54108  1  0  0  0
 55 56  1  0  0  0
 55 61  2  0  0  0
 57 58  1  0  0  0
 57 59  1  0  0  0
 57109  1  0  0  0
 58 60  1  0  0  0
 58110  1  0  0  0
 58111  1  0  0  0
 59112  1  0  0  0
 59113  1  0  0  0
 59114  1  0  0  0
 60115  1  0  0  0
 60116  1  0  0  0
 60117  1  0  0  0
M  CHG  3   1   1   9   1  56  -1
M  END
> <s_m_source_file>
../4nms_ligand.sdf

> <i_m_source_file_index>
1

> <s_epik_input>
W2NIXTFbY0hdW2NIXVtjSF1jKGMxMilbbkhdW2NIXWMyW0NIMl1bQ0BIXShbTkgzK10pQyg9TylOM1tDQEBIXShbQ0gyXVtDSDJdW0NIMl0zKUMoPU8pW05IXVtDQEBIXShbQ0BIXShbT0hdKVtDSDNdKUMoPU8pW05IXVtDQEBIXShbQ0gyXVtPSF0pQyg9TylbTkhdW0NASF0oQyg9TylbTkhdW0NASF0oQyg9TylbT0hdKVtDQEBIXShbQ0gzXSlbQ0gyXVtDSDNdKVtDSDJdW0NIMl1bQ0gyXVtDSDJdW05IXUMoPU8pYzRbY0hdW2NIXWMoRilbY0hdW2NIXTQ=

> <s_epik_cmdline>
J2VwaWtfYXBwJywgJy1pbWFlJywgJ2xpZ2FuZF9wcm8ubWFlJywgJy1vbWFlJywgJ2xpZ2FuZF9wcmVwLm1hZScsICctbXMnLCAnMScsICctcGgnLCAnNycsICctcGh0JywgJzAuNScsICctbnQn

> <r_epik_Ionization_Penalty>
  0.1830

> <r_epik_Ionization_Penalty_Charging>
  0.1830

> <r_epik_Ionization_Penalty_Neutral>
  0.0000

> <r_epik_State_Penalty>
  0.1723

> <r_epik_Charging_Adjusted_Penalty>
0.35530830966125

> <i_epik_Tot_Q>
1

> <i_epik_Tot_abs_Q>
3

$$$$
