4nmt_ligand
                    3D
 Schrodinger Suite 2020-3.
135137  0  0  1  0            999 V2000
   22.3880   29.7730   15.9310 N   0  3  0  0  0  0
   21.6460   28.6750   15.3240 C   0  0  2  0  0  0
   20.2070   28.6390   15.8360 C   0  0  0  0  0  0
   19.7910   29.5160   16.5980 O   0  0  0  0  0  0
   22.3460   27.3380   15.5880 C   0  0  0  0  0  0
   21.8880   26.6120   16.8440 C   0  0  0  0  0  0
   21.8200   25.1110   16.5850 C   0  0  0  0  0  0
   22.0010   24.8010   15.1660 N   0  0  0  0  0  0
   21.0260   24.8160   14.2590 C   0  0  0  0  0  0
   21.2910   24.5240   12.9940 N   0  3  0  0  0  0
   19.7880   25.1280   14.6140 N   0  0  0  0  0  0
   19.4500   27.6280   15.4150 N   0  0  0  0  0  0
   18.0450   27.5160   15.8000 C   0  0  2  0  0  0
   17.8370   26.6430   17.0310 C   0  0  0  0  0  0
   18.4990   25.6220   17.2020 O   0  0  0  0  0  0
   17.2000   26.9290   14.6690 C   0  0  0  0  0  0
   17.4980   27.4330   13.2950 C   0  0  0  0  0  0
   18.0200   28.6480   12.9490 C   0  0  0  0  0  0
   17.2920   26.7200   12.0780 C   0  0  0  0  0  0
   18.1460   28.7310   11.5820 N   0  3  0  0  0  0
   17.7080   27.5560   11.0230 C   0  0  0  0  0  0
   16.7930   25.4500   11.7740 C   0  0  0  0  0  0
   17.6390   27.1680    9.6880 C   0  0  0  0  0  0
   16.7250   25.0620   10.4460 C   0  0  0  0  0  0
   17.1460   25.9190    9.4210 C   0  0  0  0  0  0
   16.8810   27.0280   17.8760 N   0  0  0  0  0  0
   16.5330   26.2050   19.0340 C   0  0  2  0  0  0
   15.7230   24.9730   18.6320 C   0  0  0  0  0  0
   15.1000   24.9350   17.5650 O   0  0  0  0  0  0
   15.6480   27.1390   19.8540 C   0  0  0  0  0  0
   14.9780   27.9880   18.8290 C   0  0  0  0  0  0
   16.0270   28.2240   17.7700 C   0  0  0  0  0  0
   15.7420   23.9720   19.5010 N   0  0  0  0  0  0
   14.9220   22.7900   19.3260 C   0  0  2  0  0  0
   14.0870   22.5950   20.5780 C   0  0  0  0  0  0
   14.6000   22.7330   21.6880 O   0  0  0  0  0  0
   15.7920   21.5500   19.0940 C   0  0  2  0  0  0
   16.5150   21.7230   17.8740 O   0  0  0  0  0  0
   14.9250   20.3030   18.9920 C   0  0  0  0  0  0
   12.8040   22.2820   20.4010 N   0  0  0  0  0  0
   11.9420   21.9490   21.5250 C   0  0  2  0  0  0
   11.3520   20.5650   21.2990 C   0  0  0  0  0  0
   10.9560   20.2150   20.1810 O   0  0  0  0  0  0
   10.8130   22.9690   21.6740 C   0  0  0  0  0  0
   11.3480   24.2500   21.9720 O   0  0  0  0  0  0
   11.3160   19.7650   22.3580 N   0  0  0  0  0  0
   10.6110   18.4900   22.3220 C   0  0  2  0  0  0
    9.2140   18.7220   22.8440 C   0  0  0  0  0  0
    9.0340   19.3230   23.9030 O   0  0  0  0  0  0
   11.3360   17.4530   23.1920 C   0  0  0  0  0  0
   12.8110   17.3020   22.8390 C   0  0  0  0  0  0
   13.3860   15.9630   23.3000 C   0  0  0  0  0  0
   13.3510   15.8080   24.8120 C   0  0  0  0  0  0
   14.2740   16.7700   25.4450 N   0  0  0  0  0  0
   13.8860   17.9850   26.1280 C   0  0  0  0  0  0
   12.6710   18.2850   26.1890 O   0  0  0  0  0  0
   14.8960   18.7360   26.9210 C   0  0  0  0  0  0
   16.1220   18.4470   26.4900 F   0  0  0  0  0  0
   14.6480   20.0340   26.8100 F   0  0  0  0  0  0
   14.8000   18.3710   28.1870 F   0  0  0  0  0  0
    8.2290   18.2420   22.0950 N   0  0  0  0  0  0
    6.8260   18.5050   22.3850 C   0  0  2  0  0  0
    5.9720   17.2650   22.1710 C   0  0  0  0  0  0
    6.4360   16.2470   21.6570 O   0  5  0  0  0  0
    6.2690   19.6610   21.5140 C   0  0  2  0  0  0
    6.3570   19.3160   20.0290 C   0  0  0  0  0  0
    7.0130   20.9680   21.8050 C   0  0  0  0  0  0
    5.7140   20.3790   19.1460 C   0  0  0  0  0  0
    4.7930   17.3070   22.4960 O   0  0  0  0  0  0
   21.8690   30.7217   15.7297 H   0  0  0  0  0  0
   23.4009   29.8114   15.5038 H   0  0  0  0  0  0
   22.4540   29.6145   17.0175 H   0  0  0  0  0  0
   21.6437   28.8895   14.2451 H   0  0  0  0  0  0
   22.1636   26.6558   14.7446 H   0  0  0  0  0  0
   23.4277   27.5056   15.6967 H   0  0  0  0  0  0
   22.5999   26.8060   17.6598 H   0  0  0  0  0  0
   20.8906   26.9742   17.1338 H   0  0  0  0  0  0
   22.6126   24.6043   17.1552 H   0  0  0  0  0  0
   20.8386   24.7283   16.9018 H   0  0  0  0  0  0
   22.9971   24.5325   14.7844 H   0  0  0  0  0  0
   22.3165   24.2642   12.6927 H   0  0  0  0  0  0
   19.5613   25.3714   15.6625 H   0  0  0  0  0  0
   18.9870   25.1436   13.8602 H   0  0  0  0  0  0
   19.9041   26.8669   14.7635 H   0  0  0  0  0  0
   17.7727   28.5587   16.0205 H   0  0  0  0  0  0
   17.3446   25.8392   14.6310 H   0  0  0  0  0  0
   16.1383   27.1519   14.8508 H   0  0  0  0  0  0
   18.2689   29.3821   13.7295 H   0  0  0  0  0  0
   16.4638   24.7781   12.5666 H   0  0  0  0  0  0
   17.9645   27.8320    8.8872 H   0  0  0  0  0  0
   16.3379   24.0745   10.1947 H   0  0  0  0  0  0
   17.0795   25.5834    8.3861 H   0  0  0  0  0  0
   17.4453   25.8494   19.5352 H   0  0  0  0  0  0
   14.9283   26.5448   20.4362 H   0  0  0  0  0  0
   16.2740   27.7303   20.5385 H   0  0  0  0  0  0
   14.1056   27.4542   18.4241 H   0  0  0  0  0  0
   14.6491   28.9303   19.2914 H   0  0  0  0  0  0
   16.6296   29.1233   17.9652 H   0  0  0  0  0  0
   15.6002   28.2813   16.7578 H   0  0  0  0  0  0
   16.4049   24.0571   20.3747 H   0  0  0  0  0  0
   14.2912   22.9767   18.4444 H   0  0  0  0  0  0
   16.5366   21.4281   19.8944 H   0  0  0  0  0  0
   17.1995   22.5760   17.7566 H   0  0  0  0  0  0
   14.3668   20.1668   19.9300 H   0  0  0  0  0  0
   15.5642   19.4255   18.8150 H   0  0  0  0  0  0
   14.2175   20.4156   18.1573 H   0  0  0  0  0  0
   12.3997   22.2789   19.3780 H   0  0  0  0  0  0
   12.5808   21.9721   22.4202 H   0  0  0  0  0  0
   10.2436   23.0255   20.7345 H   0  0  0  0  0  0
   10.1439   22.6588   22.4901 H   0  0  0  0  0  0
   10.6744   25.1081   22.1130 H   0  0  0  0  0  0
   11.8328   20.0820   23.2759 H   0  0  0  0  0  0
   10.5869   18.1462   21.2774 H   0  0  0  0  0  0
   11.2755   17.7540   24.2483 H   0  0  0  0  0  0
   10.8604   16.4695   23.0632 H   0  0  0  0  0  0
   12.9355   17.3677   21.7480 H   0  0  0  0  0  0
   13.3878   18.1040   23.3228 H   0  0  0  0  0  0
   12.8008   15.1418   22.8604 H   0  0  0  0  0  0
   14.4335   15.8821   22.9741 H   0  0  0  0  0  0
   12.3302   15.9957   25.1763 H   0  0  0  0  0  0
   13.6549   14.7861   25.0830 H   0  0  0  0  0  0
   15.3588   16.5892   25.4204 H   0  0  0  0  0  0
    8.5050   17.6247   21.2274 H   0  0  0  0  0  0
    6.8322   18.7742   23.4515 H   0  0  0  0  0  0
    5.2074   19.8093   21.7609 H   0  0  0  0  0  0
    7.4133   19.2246   19.7358 H   0  0  0  0  0  0
    5.8410   18.3625   19.8429 H   0  0  0  0  0  0
    6.9394   21.2008   22.8776 H   0  0  0  0  0  0
    6.5627   21.7841   21.2209 H   0  0  0  0  0  0
    8.0712   20.8576   21.5255 H   0  0  0  0  0  0
    5.8045   20.0827   18.0905 H   0  0  0  0  0  0
    6.2229   21.3417   19.3016 H   0  0  0  0  0  0
    4.6506   20.4797   19.4087 H   0  0  0  0  0  0
   18.5475   29.6456   11.1212 H   0  0  0  0  0  0
   20.4855   24.5414   12.2451 H   0  0  0  0  0  0
  1  2  1  0  0  0
  1 70  1  0  0  0
  1 71  1  0  0  0
  1 72  1  0  0  0
  2  3  1  0  0  0
  2  5  1  0  0  0
  2 73  1  0  0  0
  3  4  2  0  0  0
  3 12  1  0  0  0
  5  6  1  0  0  0
  5 74  1  0  0  0
  5 75  1  0  0  0
  6  7  1  0  0  0
  6 76  1  0  0  0
  6 77  1  0  0  0
  7  8  1  0  0  0
  7 78  1  0  0  0
  7 79  1  0  0  0
  8  9  1  0  0  0
  8 80  1  0  0  0
  9 10  2  0  0  0
  9 11  1  0  0  0
 10 81  1  0  0  0
 10135  1  0  0  0
 11 82  1  0  0  0
 11 83  1  0  0  0
 12 13  1  0  0  0
 12 84  1  0  0  0
 13 14  1  0  0  0
 13 16  1  0  0  0
 13 85  1  0  0  0
 14 15  2  0  0  0
 14 26  1  0  0  0
 16 17  1  0  0  0
 16 86  1  0  0  0
 16 87  1  0  0  0
 17 18  2  0  0  0
 17 19  1  0  0  0
 18 20  1  0  0  0
 18 88  1  0  0  0
 19 21  2  0  0  0
 19 22  1  0  0  0
 20 21  1  0  0  0
 20134  1  0  0  0
 21 23  1  0  0  0
 22 24  2  0  0  0
 22 89  1  0  0  0
 23 25  2  0  0  0
 23 90  1  0  0  0
 24 25  1  0  0  0
 24 91  1  0  0  0
 25 92  1  0  0  0
 26 27  1  0  0  0
 26 32  1  0  0  0
 27 28  1  0  0  0
 27 30  1  0  0  0
 27 93  1  0  0  0
 28 29  2  0  0  0
 28 33  1  0  0  0
 30 31  1  0  0  0
 30 94  1  0  0  0
 30 95  1  0  0  0
 31 32  1  0  0  0
 31 96  1  0  0  0
 31 97  1  0  0  0
 32 98  1  0  0  0
 32 99  1  0  0  0
 33 34  1  0  0  0
 33100  1  0  0  0
 34 35  1  0  0  0
 34 37  1  0  0  0
 34101  1  0  0  0
 35 36  2  0  0  0
 35 40  1  0  0  0
 37 38  1  0  0  0
 37 39  1  0  0  0
 37102  1  0  0  0
 38103  1  0  0  0
 39104  1  0  0  0
 39105  1  0  0  0
 39106  1  0  0  0
 40 41  1  0  0  0
 40107  1  0  0  0
 41 42  1  0  0  0
 41 44  1  0  0  0
 41108  1  0  0  0
 42 43  2  0  0  0
 42 46  1  0  0  0
 44 45  1  0  0  0
 44109  1  0  0  0
 44110  1  0  0  0
 45111  1  0  0  0
 46 47  1  0  0  0
 46112  1  0  0  0
 47 48  1  0  0  0
 47 50  1  0  0  0
 47113  1  0  0  0
 48 49  2  0  0  0
 48 61  1  0  0  0
 50 51  1  0  0  0
 50114  1  0  0  0
 50115  1  0  0  0
 51 52  1  0  0  0
 51116  1  0  0  0
 51117  1  0  0  0
 52 53  1  0  0  0
 52118  1  0  0  0
 52119  1  0  0  0
 53 54  1  0  0  0
 53120  1  0  0  0
 53121  1  0  0  0
 54 55  1  0  0  0
 54122  1  0  0  0
 55 56  2  0  0  0
 55 57  1  0  0  0
 57 58  1  0  0  0
 57 59  1  0  0  0
 57 60  1  0  0  0
 61 62  1  0  0  0
 61123  1  0  0  0
 62 63  1  0  0  0
 62 65  1  0  0  0
 62124  1  0  0  0
 63 64  1  0  0  0
 63 69  2  0  0  0
 65 66  1  0  0  0
 65 67  1  0  0  0
 65125  1  0  0  0
 66 68  1  0  0  0
 66126  1  0  0  0
 66127  1  0  0  0
 67128  1  0  0  0
 67129  1  0  0  0
 67130  1  0  0  0
 68131  1  0  0  0
 68132  1  0  0  0
 68133  1  0  0  0
M  CHG  4   1   1  10   1  20   1  64  -1
M  END
> <s_m_source_file>
../4nmt_ligand.sdf

> <i_m_source_file_index>
1

> <s_epik_input>
W0hdL049QyhbTkgyXSlcW05IXVtDSDJdW0NIMl1bQ0gyXVtDQEhdKFtOSDMrXSlDKD1PKVtOSF1bQ0BASF0oW0NIMl1jMVtjSF1bbkhdYyhjMTIpW2NIXVtjSF1bY0hdW2NIXTIpQyg9TylOM1tDQEBIXShbQ0gyXVtDSDJdW0NIMl0zKUMoPU8pW05IXVtDQEBIXShbQ0BIXShbT0hdKVtDSDNdKUMoPU8pW05IXVtDQEBIXShbQ0gyXVtPSF0pQyg9TylbTkhdW0NASF0oQyg9TylbTkhdW0NASF0oQyg9TylbT0hdKVtDQEBIXShbQ0gzXSlbQ0gyXVtDSDNdKVtDSDJdW0NIMl1bQ0gyXVtDSDJdW05IXUMoPU8pQyhGKShGKUY=

> <s_epik_cmdline>
J2VwaWtfYXBwJywgJy1pbWFlJywgJ2xpZ2FuZF9wcm8ubWFlJywgJy1vbWFlJywgJ2xpZ2FuZF9wcmVwLm1hZScsICctbXMnLCAnMScsICctcGgnLCAnNycsICctcGh0JywgJzAuNScsICctbnQn

> <r_epik_Ionization_Penalty>
  0.1414

> <r_epik_Ionization_Penalty_Charging>
  0.1413

> <r_epik_Ionization_Penalty_Neutral>
  0.0001

> <r_epik_State_Penalty>
  0.1304

> <r_epik_Charging_Adjusted_Penalty>
0.271780139122869

> <i_epik_Tot_Q>
2

> <i_epik_Tot_abs_Q>
4

> <s_epik_Chemistry_Notes>
This compound has an imine and may undergo hydrolysis.

$$$$
