4nmv_ligand
                    3D
 Schrodinger Suite 2020-3.
118121  0  0  1  0            999 V2000
   19.5550   27.1080   15.3790 N   0  3  0  0  0  0
   18.1670   27.2610   15.8030 C   0  0  2  0  0  0
   17.9230   26.4420   17.0630 C   0  0  0  0  0  0
   18.5970   25.4440   17.3130 O   0  0  0  0  0  0
   17.1940   26.7970   14.7190 C   0  0  0  0  0  0
   17.5300   27.2650   13.3320 C   0  0  0  0  0  0
   18.1070   28.4560   12.9710 C   0  0  0  0  0  0
   17.3050   26.5420   12.1200 C   0  0  0  0  0  0
   18.2500   28.5100   11.6010 N   0  3  0  0  0  0
   17.7700   27.3470   11.0580 C   0  0  0  0  0  0
   16.7620   25.2890   11.8280 C   0  0  0  0  0  0
   17.7000   26.9310    9.7250 C   0  0  0  0  0  0
   16.6990   24.8810   10.5090 C   0  0  0  0  0  0
   17.1630   25.6990    9.4740 C   0  0  0  0  0  0
   16.9530   26.8680   17.8710 N   0  0  0  0  0  0
   16.5550   26.0760   19.0350 C   0  0  2  0  0  0
   15.7600   24.8430   18.6230 C   0  0  0  0  0  0
   15.1600   24.8150   17.5450 O   0  0  0  0  0  0
   15.6280   27.0290   19.7920 C   0  0  0  0  0  0
   15.0270   27.8760   18.7140 C   0  0  0  0  0  0
   16.1710   28.1110   17.7600 C   0  0  0  0  0  0
   15.7500   23.8470   19.4980 N   0  0  0  0  0  0
   14.9380   22.6520   19.3160 C   0  0  2  0  0  0
   14.1200   22.4360   20.5740 C   0  0  0  0  0  0
   14.6390   22.5940   21.6830 O   0  0  0  0  0  0
   15.8160   21.4270   19.0720 C   0  0  2  0  0  0
   16.5600   21.6380   17.8700 O   0  0  0  0  0  0
   14.9630   20.1670   18.9220 C   0  0  0  0  0  0
   12.8410   22.0940   20.4110 N   0  0  0  0  0  0
   11.9880   21.7670   21.5450 C   0  0  2  0  0  0
   11.3670   20.4140   21.3110 C   0  0  0  0  0  0
   10.9410   20.1160   20.1940 O   0  0  0  0  0  0
   10.8610   22.7870   21.7130 C   0  0  0  0  0  0
   11.3820   24.0740   22.0160 O   0  0  0  0  0  0
   11.3350   19.5940   22.3570 N   0  0  0  0  0  0
   10.5900   18.3430   22.3470 C   0  0  2  0  0  0
    9.2000   18.6490   22.8210 C   0  0  0  0  0  0
    9.0150   19.3190   23.8500 O   0  0  0  0  0  0
   11.2390   17.3240   23.2890 C   0  0  0  0  0  0
   12.6390   16.9420   22.8720 C   0  0  0  0  0  0
   13.0020   15.5680   23.3900 C   0  0  0  0  0  0
   13.1020   15.5810   24.8930 C   0  0  0  0  0  0
   14.2390   16.4140   25.3340 N   0  0  0  0  0  0
   14.1510   17.6930   26.0210 C   0  0  0  0  0  0
   13.0310   18.2560   26.0810 O   0  0  0  0  0  0
   15.3960   18.4460   26.3340 C   0  0  0  0  0  0
   15.3260   19.7320   26.8510 C   0  0  0  0  0  0
   16.4930   20.4260   27.1380 C   0  0  0  0  0  0
   17.7230   19.8300   26.9120 C   0  0  0  0  0  0
   19.3540   20.7940   27.3150 Br  0  0  0  0  0  0
   17.7930   18.5460   26.3940 C   0  0  0  0  0  0
   16.6280   17.8550   26.1060 C   0  0  0  0  0  0
    8.2160   18.1570   22.0760 N   0  0  0  0  0  0
    6.8140   18.4290   22.3600 C   0  0  2  0  0  0
    5.9600   17.1940   22.1550 C   0  0  0  0  0  0
    6.4280   16.1610   21.6570 O   0  5  0  0  0  0
    6.2380   19.5650   21.4850 C   0  0  2  0  0  0
    6.3220   19.2280   19.9970 C   0  0  0  0  0  0
    6.9510   20.8790   21.7620 C   0  0  0  0  0  0
    5.7000   20.3170   19.1100 C   0  0  0  0  0  0
    4.7810   17.2310   22.4870 O   0  0  0  0  0  0
   20.2237   27.4510   16.1823 H   0  0  0  0  0  0
   19.7304   27.7087   14.4744 H   0  0  0  0  0  0
   19.7571   26.0490   15.1608 H   0  0  0  0  0  0
   18.0388   28.3376   15.9889 H   0  0  0  0  0  0
   17.1767   25.6976   14.6881 H   0  0  0  0  0  0
   16.1856   27.1733   14.9459 H   0  0  0  0  0  0
   18.3778   29.1921   13.7423 H   0  0  0  0  0  0
   16.3944   24.6442   12.6262 H   0  0  0  0  0  0
   18.0604   27.5657    8.9155 H   0  0  0  0  0  0
   16.2798   23.9034   10.2710 H   0  0  0  0  0  0
   17.0951   25.3467    8.4447 H   0  0  0  0  0  0
   17.4437   25.7323   19.5847 H   0  0  0  0  0  0
   14.8688   26.4474   20.3355 H   0  0  0  0  0  0
   16.2167   27.6223   20.5071 H   0  0  0  0  0  0
   14.1961   27.3322   18.2409 H   0  0  0  0  0  0
   14.6506   28.8128   19.1507 H   0  0  0  0  0  0
   16.7979   28.9660   18.0531 H   0  0  0  0  0  0
   15.8355   28.2416   16.7206 H   0  0  0  0  0  0
   16.3874   23.9484   20.3888 H   0  0  0  0  0  0
   14.2987   22.8323   18.4392 H   0  0  0  0  0  0
   16.5426   21.2974   19.8877 H   0  0  0  0  0  0
   17.2361   22.5016   17.7861 H   0  0  0  0  0  0
   14.3886   20.0010   19.8453 H   0  0  0  0  0  0
   15.6164   19.3019   18.7361 H   0  0  0  0  0  0
   14.2703   20.2917   18.0766 H   0  0  0  0  0  0
   12.4341   22.0624   19.3895 H   0  0  0  0  0  0
   12.6456   21.7714   22.4268 H   0  0  0  0  0  0
   10.2822   22.8509   20.7798 H   0  0  0  0  0  0
   10.2000   22.4713   22.5336 H   0  0  0  0  0  0
   10.6984   24.9224   22.1676 H   0  0  0  0  0  0
   11.8994   19.8909   23.2533 H   0  0  0  0  0  0
   10.5871   17.9547   21.3178 H   0  0  0  0  0  0
   11.2964   17.7467   24.3029 H   0  0  0  0  0  0
   10.6342   16.4054   23.3084 H   0  0  0  0  0  0
   12.7053   16.9342   21.7740 H   0  0  0  0  0  0
   13.3545   17.6725   23.2774 H   0  0  0  0  0  0
   12.2280   14.8465   23.0894 H   0  0  0  0  0  0
   13.9714   15.2620   22.9698 H   0  0  0  0  0  0
   12.1746   15.9918   25.3186 H   0  0  0  0  0  0
   13.2505   14.5545   25.2595 H   0  0  0  0  0  0
   15.2704   16.0794   25.1488 H   0  0  0  0  0  0
   14.3563   20.1960   27.0313 H   0  0  0  0  0  0
   16.4419   21.4377   27.5403 H   0  0  0  0  0  0
   18.7625   18.0816   26.2139 H   0  0  0  0  0  0
   16.6804   16.8450   25.6995 H   0  0  0  0  0  0
    8.4909   17.5243   21.2192 H   0  0  0  0  0  0
    6.8358   18.7176   23.4212 H   0  0  0  0  0  0
    5.1762   19.6880   21.7448 H   0  0  0  0  0  0
    7.3767   19.1159   19.7054 H   0  0  0  0  0  0
    5.7861   18.2871   19.8033 H   0  0  0  0  0  0
    6.8851   21.1128   22.8348 H   0  0  0  0  0  0
    6.4758   21.6835   21.1815 H   0  0  0  0  0  0
    8.0079   20.7913   21.4701 H   0  0  0  0  0  0
    5.7878   20.0237   18.0535 H   0  0  0  0  0  0
    6.2288   21.2679   19.2717 H   0  0  0  0  0  0
    4.6381   20.4391   19.3697 H   0  0  0  0  0  0
   18.6937   29.3990   11.1289 H   0  0  0  0  0  0
  1  2  1  0  0  0
  1 62  1  0  0  0
  1 63  1  0  0  0
  1 64  1  0  0  0
  2  3  1  0  0  0
  2  5  1  0  0  0
  2 65  1  0  0  0
  3  4  2  0  0  0
  3 15  1  0  0  0
  5  6  1  0  0  0
  5 66  1  0  0  0
  5 67  1  0  0  0
  6  7  2  0  0  0
  6  8  1  0  0  0
  7  9  1  0  0  0
  7 68  1  0  0  0
  8 10  2  0  0  0
  8 11  1  0  0  0
  9 10  1  0  0  0
  9118  1  0  0  0
 10 12  1  0  0  0
 11 13  2  0  0  0
 11 69  1  0  0  0
 12 14  2  0  0  0
 12 70  1  0  0  0
 13 14  1  0  0  0
 13 71  1  0  0  0
 14 72  1  0  0  0
 15 16  1  0  0  0
 15 21  1  0  0  0
 16 17  1  0  0  0
 16 19  1  0  0  0
 16 73  1  0  0  0
 17 18  2  0  0  0
 17 22  1  0  0  0
 19 20  1  0  0  0
 19 74  1  0  0  0
 19 75  1  0  0  0
 20 21  1  0  0  0
 20 76  1  0  0  0
 20 77  1  0  0  0
 21 78  1  0  0  0
 21 79  1  0  0  0
 22 23  1  0  0  0
 22 80  1  0  0  0
 23 24  1  0  0  0
 23 26  1  0  0  0
 23 81  1  0  0  0
 24 25  2  0  0  0
 24 29  1  0  0  0
 26 27  1  0  0  0
 26 28  1  0  0  0
 26 82  1  0  0  0
 27 83  1  0  0  0
 28 84  1  0  0  0
 28 85  1  0  0  0
 28 86  1  0  0  0
 29 30  1  0  0  0
 29 87  1  0  0  0
 30 31  1  0  0  0
 30 33  1  0  0  0
 30 88  1  0  0  0
 31 32  2  0  0  0
 31 35  1  0  0  0
 33 34  1  0  0  0
 33 89  1  0  0  0
 33 90  1  0  0  0
 34 91  1  0  0  0
 35 36  1  0  0  0
 35 92  1  0  0  0
 36 37  1  0  0  0
 36 39  1  0  0  0
 36 93  1  0  0  0
 37 38  2  0  0  0
 37 53  1  0  0  0
 39 40  1  0  0  0
 39 94  1  0  0  0
 39 95  1  0  0  0
 40 41  1  0  0  0
 40 96  1  0  0  0
 40 97  1  0  0  0
 41 42  1  0  0  0
 41 98  1  0  0  0
 41 99  1  0  0  0
 42 43  1  0  0  0
 42100  1  0  0  0
 42101  1  0  0  0
 43 44  1  0  0  0
 43102  1  0  0  0
 44 45  2  0  0  0
 44 46  1  0  0  0
 46 47  2  0  0  0
 46 52  1  0  0  0
 47 48  1  0  0  0
 47103  1  0  0  0
 48 49  2  0  0  0
 48104  1  0  0  0
 49 50  1  0  0  0
 49 51  1  0  0  0
 51 52  2  0  0  0
 51105  1  0  0  0
 52106  1  0  0  0
 53 54  1  0  0  0
 53107  1  0  0  0
 54 55  1  0  0  0
 54 57  1  0  0  0
 54108  1  0  0  0
 55 56  1  0  0  0
 55 61  2  0  0  0
 57 58  1  0  0  0
 57 59  1  0  0  0
 57109  1  0  0  0
 58 60  1  0  0  0
 58110  1  0  0  0
 58111  1  0  0  0
 59112  1  0  0  0
 59113  1  0  0  0
 59114  1  0  0  0
 60115  1  0  0  0
 60116  1  0  0  0
 60117  1  0  0  0
M  CHG  3   1   1   9   1  56  -1
M  END
> <s_m_source_file>
../4nmv_ligand.sdf

> <i_m_source_file_index>
1

> <s_epik_input>
W2NIXTFbY0hdW2NIXVtjSF1jKGMxMilbbkhdW2NIXWMyW0NIMl1bQ0BIXShbTkgzK10pQyg9TylOM1tDQEBIXShbQ0gyXVtDSDJdW0NIMl0zKUMoPU8pW05IXVtDQEBIXShbQ0BIXShbT0hdKVtDSDNdKUMoPU8pW05IXVtDQEBIXShbQ0gyXVtPSF0pQyg9TylbTkhdW0NASF0oQyg9TylbTkhdW0NASF0oQyg9TylbT0hdKVtDQEBIXShbQ0gzXSlbQ0gyXVtDSDNdKVtDSDJdW0NIMl1bQ0gyXVtDSDJdW05IXUMoPU8pYzRbY0hdW2NIXWMoQnIpW2NIXVtjSF00

> <s_epik_cmdline>
J2VwaWtfYXBwJywgJy1pbWFlJywgJ2xpZ2FuZF9wcm8ubWFlJywgJy1vbWFlJywgJ2xpZ2FuZF9wcmVwLm1hZScsICctbXMnLCAnMScsICctcGgnLCAnNycsICctcGh0JywgJzAuNScsICctbnQn

> <r_epik_Ionization_Penalty>
  0.1830

> <r_epik_Ionization_Penalty_Charging>
  0.1830

> <r_epik_Ionization_Penalty_Neutral>
  0.0000

> <r_epik_State_Penalty>
  0.1723

> <r_epik_Charging_Adjusted_Penalty>
0.35530830966125

> <i_epik_Tot_Q>
1

> <i_epik_Tot_abs_Q>
3

$$$$
