4nnn_ligand
                    3D
 Schrodinger Suite 2020-3.
 77 77  0  0  1  0            999 V2000
   58.8420 -134.6280   34.9210 C   0  0  0  0  0  0
   58.7360 -135.8420   35.1050 O   0  0  0  0  0  0
   57.8130 -133.9160   34.3600 O   0  0  0  0  0  0
   56.7520 -134.6630   33.7800 C   0  0  0  0  0  0
   55.6330 -134.4450   34.6010 C   0  0  0  0  0  0
   54.7010 -133.4510   34.2890 C   0  0  0  0  0  0
   53.5900 -133.2410   35.1030 C   0  0  0  0  0  0
   53.3990 -134.0250   36.2370 C   0  0  0  0  0  0
   54.3220 -135.0180   36.5540 C   0  0  0  0  0  0
   55.4330 -135.2280   35.7390 C   0  0  0  0  0  0
   59.9790 -133.9940   35.2790 N   0  0  0  0  0  0
   61.1080 -134.6970   35.9240 C   0  0  2  0  0  0
   60.7360 -134.9020   37.3970 C   0  0  0  0  0  0
   60.2690 -133.9730   38.0530 O   0  0  0  0  0  0
   62.4090 -133.9210   35.8590 C   0  0  0  0  0  0
   62.7140 -133.5480   34.3900 C   0  0  0  0  0  0
   64.0650 -132.8690   34.3300 C   0  0  0  0  0  0
   62.7750 -134.7460   33.4590 C   0  0  0  0  0  0
   60.9540 -136.1380   37.8760 N   0  0  0  0  0  0
   60.6260 -136.5230   39.2610 C   0  0  2  0  0  0
   61.8870 -136.5110   40.1380 C   0  0  0  0  0  0
   62.8960 -137.1140   39.7770 O   0  0  0  0  0  0
   60.0380 -137.9520   39.2260 C   0  0  0  0  0  0
   58.7040 -138.0980   39.9850 C   0  0  0  0  0  0
   57.6840 -137.0300   39.5600 C   0  0  0  0  0  0
   58.9480 -138.0360   41.4980 C   0  0  0  0  0  0
   61.7900 -135.8270   41.2970 N   0  0  0  0  0  0
   62.9000 -135.7770   42.2660 C   0  0  2  0  0  0
   62.6940 -136.9440   43.2510 C   0  0  0  0  0  0
   62.9330 -134.4360   43.0300 C   0  0  0  0  0  0
   63.1240 -133.2260   42.1070 C   0  0  0  0  0  0
   63.1670 -131.9560   42.9630 C   0  0  0  0  0  0
   64.4220 -133.3340   41.3000 C   0  0  0  0  0  0
   61.5410 -136.6840   44.0670 O   0  0  0  0  0  0
   56.5696 -134.3061   32.7556 H   0  0  0  0  0  0
   57.0250 -135.7283   33.7540 H   0  0  0  0  0  0
   54.8447 -132.8350   33.4013 H   0  0  0  0  0  0
   52.8700 -132.4623   34.8516 H   0  0  0  0  0  0
   52.5300 -133.8622   36.8746 H   0  0  0  0  0  0
   54.1753 -135.6329   37.4420 H   0  0  0  0  0  0
   56.1503 -136.0088   35.9920 H   0  0  0  0  0  0
   60.0474 -132.9153   35.0745 H   0  0  0  0  0  0
   61.2548 -135.6323   35.3639 H   0  0  0  0  0  0
   62.3190 -133.0035   36.4591 H   0  0  0  0  0  0
   63.2259 -134.5408   36.2570 H   0  0  0  0  0  0
   61.9021 -132.8938   34.0394 H   0  0  0  0  0  0
   64.0641 -131.9915   34.9933 H   0  0  0  0  0  0
   64.2685 -132.5481   33.2977 H   0  0  0  0  0  0
   64.8444 -133.5738   34.6553 H   0  0  0  0  0  0
   61.8082 -135.2706   33.4727 H   0  0  0  0  0  0
   63.5684 -135.4305   33.7938 H   0  0  0  0  0  0
   62.9926 -134.4048   32.4362 H   0  0  0  0  0  0
   61.3955 -136.8758   37.1899 H   0  0  0  0  0  0
   59.9095 -135.7843   39.6497 H   0  0  0  0  0  0
   59.8525 -138.2467   38.1826 H   0  0  0  0  0  0
   60.7512 -138.6533   39.6838 H   0  0  0  0  0  0
   58.2751 -139.0788   39.7321 H   0  0  0  0  0  0
   57.5219 -137.0895   38.4736 H   0  0  0  0  0  0
   58.0681 -136.0324   39.8193 H   0  0  0  0  0  0
   56.7319 -137.2037   40.0828 H   0  0  0  0  0  0
   59.6795 -138.8064   41.7833 H   0  0  0  0  0  0
   58.0016 -138.2142   42.0296 H   0  0  0  0  0  0
   59.3378 -137.0429   41.7661 H   0  0  0  0  0  0
   60.8498 -135.2972   41.5099 H   0  0  0  0  0  0
   63.8367 -135.8675   41.6965 H   0  0  0  0  0  0
   62.5419 -137.8766   42.6879 H   0  0  0  0  0  0
   63.5821 -137.0437   43.8923 H   0  0  0  0  0  0
   61.9846 -134.2983   43.5700 H   0  0  0  0  0  0
   63.7661 -134.4436   43.7482 H   0  0  0  0  0  0
   62.2843 -133.1910   41.3973 H   0  0  0  0  0  0
   62.2368 -131.8741   43.5444 H   0  0  0  0  0  0
   63.2698 -131.0769   42.3098 H   0  0  0  0  0  0
   64.0253 -132.0053   43.6493 H   0  0  0  0  0  0
   64.3958 -134.2447   40.6836 H   0  0  0  0  0  0
   65.2788 -133.3816   41.9883 H   0  0  0  0  0  0
   64.5232 -132.4532   40.6488 H   0  0  0  0  0  0
   61.2348 -137.4106   44.8340 H   0  0  0  0  0  0
  1  2  2  0  0  0
  1  3  1  0  0  0
  1 11  1  0  0  0
  3  4  1  0  0  0
  4  5  1  0  0  0
  4 35  1  0  0  0
  4 36  1  0  0  0
  5  6  2  0  0  0
  5 10  1  0  0  0
  6  7  1  0  0  0
  6 37  1  0  0  0
  7  8  2  0  0  0
  7 38  1  0  0  0
  8  9  1  0  0  0
  8 39  1  0  0  0
  9 10  2  0  0  0
  9 40  1  0  0  0
 10 41  1  0  0  0
 11 12  1  0  0  0
 11 42  1  0  0  0
 12 13  1  0  0  0
 12 15  1  0  0  0
 12 43  1  0  0  0
 13 14  2  0  0  0
 13 19  1  0  0  0
 15 16  1  0  0  0
 15 44  1  0  0  0
 15 45  1  0  0  0
 16 17  1  0  0  0
 16 18  1  0  0  0
 16 46  1  0  0  0
 17 47  1  0  0  0
 17 48  1  0  0  0
 17 49  1  0  0  0
 18 50  1  0  0  0
 18 51  1  0  0  0
 18 52  1  0  0  0
 19 20  1  0  0  0
 19 53  1  0  0  0
 20 21  1  0  0  0
 20 23  1  0  0  0
 20 54  1  0  0  0
 21 22  2  0  0  0
 21 27  1  0  0  0
 23 24  1  0  0  0
 23 55  1  0  0  0
 23 56  1  0  0  0
 24 25  1  0  0  0
 24 26  1  0  0  0
 24 57  1  0  0  0
 25 58  1  0  0  0
 25 59  1  0  0  0
 25 60  1  0  0  0
 26 61  1  0  0  0
 26 62  1  0  0  0
 26 63  1  0  0  0
 27 28  1  0  0  0
 27 64  1  0  0  0
 28 29  1  0  0  0
 28 30  1  0  0  0
 28 65  1  0  0  0
 29 34  1  0  0  0
 29 66  1  0  0  0
 29 67  1  0  0  0
 30 31  1  0  0  0
 30 68  1  0  0  0
 30 69  1  0  0  0
 31 32  1  0  0  0
 31 33  1  0  0  0
 31 70  1  0  0  0
 32 71  1  0  0  0
 32 72  1  0  0  0
 32 73  1  0  0  0
 33 74  1  0  0  0
 33 75  1  0  0  0
 33 76  1  0  0  0
 34 77  1  0  0  0
M  END
> <s_m_source_file>
../4nnn_ligand.sdf

> <i_m_source_file_index>
1

> <s_epik_input>
W2NIXTFbY0hdW2NIXVtjSF1bY0hdYzFbQ0gyXU9DKD1PKVtOSF1bQ0BASF0oW0NIMl1bQ0hdKFtDSDNdKVtDSDNdKUMoPU8pW05IXVtDQEBIXShbQ0gyXVtDSF0oW0NIM10pW0NIM10pQyg9TylbTkhdW0NASF0oW0NIMl1bT0hdKVtDSDJdW0NIXShbQ0gzXSlbQ0gzXQ==

> <s_epik_cmdline>
J2VwaWtfYXBwJywgJy1pbWFlJywgJ2xpZ2FuZF9wcm8ubWFlJywgJy1vbWFlJywgJ2xpZ2FuZF9wcmVwLm1hZScsICctbXMnLCAnMScsICctcGgnLCAnNycsICctcGh0JywgJzAuNScsICctbnQn

> <r_lp_tautomer_probability>
1

> <r_epik_Ionization_Penalty>
  0.0000

> <r_epik_Ionization_Penalty_Charging>
  0.0000

> <r_epik_Ionization_Penalty_Neutral>
  0.0000

> <r_epik_State_Penalty>
 -0.0000

> <r_epik_Charging_Adjusted_Penalty>
0

> <i_epik_Tot_Q>
0

> <i_epik_Tot_abs_Q>
0

> <s_epik_Chemistry_Notes>
This compound has an ester and may undergo hydrolysis at high or low pH.

$$$$
