4nnw_ligand
                    3D
 Schrodinger Suite 2020-3.
 80 80  0  0  1  0            999 V2000
   58.9940 -135.5500   35.2480 C   0  0  0  0  0  0
   58.9060 -136.7710   35.3980 O   0  0  0  0  0  0
   57.9450 -134.8150   34.7500 O   0  0  0  0  0  0
   56.9690 -135.5200   33.9920 C   0  0  0  0  0  0
   55.7050 -135.1170   34.4730 C   0  0  0  0  0  0
   55.4290 -135.1310   35.8440 C   0  0  0  0  0  0
   54.1750 -134.7410   36.3170 C   0  0  0  0  0  0
   53.1830 -134.3380   35.4270 C   0  0  0  0  0  0
   53.4470 -134.3270   34.0600 C   0  0  0  0  0  0
   54.6990 -134.7170   33.5870 C   0  0  0  0  0  0
   60.1280 -134.9130   35.5960 N   0  0  0  0  0  0
   61.2850 -135.6220   36.1730 C   0  0  2  0  0  0
   60.9830 -135.9140   37.6480 C   0  0  0  0  0  0
   60.3690 -135.0880   38.3240 O   0  0  0  0  0  0
   62.5330 -134.7410   36.0930 C   0  0  0  0  0  0
   62.9730 -134.5450   34.6370 C   0  0  0  0  0  0
   63.8930 -135.6900   34.2160 C   0  0  0  0  0  0
   63.7220 -133.2160   34.5030 C   0  0  0  0  0  0
   61.4200 -137.0960   38.1200 N   0  0  0  0  0  0
   61.1940 -137.5030   39.5210 C   0  0  2  0  0  0
   62.4760 -137.2640   40.3300 C   0  0  0  0  0  0
   63.5870 -137.3710   39.8150 O   0  0  0  0  0  0
   60.7570 -138.9710   39.5810 C   0  0  0  0  0  0
   59.5910 -139.1460   40.5690 C   0  0  0  0  0  0
   59.3290 -140.6470   40.7440 C   0  0  0  0  0  0
   58.3210 -138.4430   40.0530 C   0  0  0  0  0  0
   64.3180 -134.1400   42.3080 C   0  0  0  0  0  0
   63.7650 -138.7400   43.6890 C   0  0  0  0  0  0
   63.2360 -137.2920   43.8530 C   0  0  2  0  0  0
   61.8510 -137.2850   44.2790 O   0  0  0  0  0  0
   63.3370 -136.5260   42.5190 C   0  0  2  0  0  0
   63.1170 -135.0060   42.7020 C   0  0  0  0  0  0
   63.9170 -132.6610   42.4510 C   0  0  0  0  0  0
   64.7640 -134.4280   40.8640 C   0  0  0  0  0  0
   62.2610 -136.9220   41.6070 N   0  0  0  0  0  0
   57.0789 -135.2672   32.9271 H   0  0  0  0  0  0
   57.1104 -136.6023   34.1284 H   0  0  0  0  0  0
   56.1983 -135.4486   36.5479 H   0  0  0  0  0  0
   53.9715 -134.7520   37.3878 H   0  0  0  0  0  0
   52.2048 -134.0327   35.7985 H   0  0  0  0  0  0
   52.6738 -134.0131   33.3588 H   0  0  0  0  0  0
   54.8963 -134.7102   32.5150 H   0  0  0  0  0  0
   60.1730 -133.8256   35.4364 H   0  0  0  0  0  0
   61.4349 -136.5439   35.5920 H   0  0  0  0  0  0
   62.3153 -133.7561   36.5319 H   0  0  0  0  0  0
   63.3541 -135.2169   36.6492 H   0  0  0  0  0  0
   62.0859 -134.5363   33.9866 H   0  0  0  0  0  0
   63.3565 -136.6455   34.3117 H   0  0  0  0  0  0
   64.7825 -135.7025   34.8631 H   0  0  0  0  0  0
   64.2023 -135.5462   33.1702 H   0  0  0  0  0  0
   63.0610 -132.3905   34.8057 H   0  0  0  0  0  0
   64.0314 -133.0733   33.4571 H   0  0  0  0  0  0
   64.6115 -133.2296   35.1499 H   0  0  0  0  0  0
   61.9578 -137.7656   37.4327 H   0  0  0  0  0  0
   60.3821 -136.8799   39.9243 H   0  0  0  0  0  0
   60.4313 -139.2977   38.5824 H   0  0  0  0  0  0
   61.6023 -139.5920   39.9123 H   0  0  0  0  0  0
   59.8571 -138.6930   41.5354 H   0  0  0  0  0  0
   60.2418 -141.1380   41.1124 H   0  0  0  0  0  0
   59.0424 -141.0844   39.7763 H   0  0  0  0  0  0
   58.5149 -140.7950   41.4688 H   0  0  0  0  0  0
   58.5206 -137.3681   39.9314 H   0  0  0  0  0  0
   57.5041 -138.5848   40.7759 H   0  0  0  0  0  0
   58.0316 -138.8742   39.0833 H   0  0  0  0  0  0
   65.1630 -134.3776   42.9710 H   0  0  0  0  0  0
   63.6853 -139.2704   44.6493 H   0  0  0  0  0  0
   64.8179 -138.7120   43.3719 H   0  0  0  0  0  0
   63.1671 -139.2649   42.9294 H   0  0  0  0  0  0
   63.7992 -136.7885   44.6526 H   0  0  0  0  0  0
   61.5613 -137.7825   45.2163 H   0  0  0  0  0  0
   64.3196 -136.7778   42.0935 H   0  0  0  0  0  0
   62.8792 -134.8421   43.7634 H   0  0  0  0  0  0
   62.2487 -134.7313   42.0851 H   0  0  0  0  0  0
   63.6000 -132.4655   43.4860 H   0  0  0  0  0  0
   63.0866 -132.4383   41.7649 H   0  0  0  0  0  0
   64.7779 -132.0222   42.2043 H   0  0  0  0  0  0
   65.0483 -135.4867   40.7723 H   0  0  0  0  0  0
   65.6270 -133.7936   40.6134 H   0  0  0  0  0  0
   63.9356 -134.2097   40.1740 H   0  0  0  0  0  0
   61.2203 -136.9478   41.9625 H   0  0  0  0  0  0
  1  2  2  0  0  0
  1  3  1  0  0  0
  1 11  1  0  0  0
  3  4  1  0  0  0
  4  5  1  0  0  0
  4 36  1  0  0  0
  4 37  1  0  0  0
  5  6  2  0  0  0
  5 10  1  0  0  0
  6  7  1  0  0  0
  6 38  1  0  0  0
  7  8  2  0  0  0
  7 39  1  0  0  0
  8  9  1  0  0  0
  8 40  1  0  0  0
  9 10  2  0  0  0
  9 41  1  0  0  0
 10 42  1  0  0  0
 11 12  1  0  0  0
 11 43  1  0  0  0
 12 13  1  0  0  0
 12 15  1  0  0  0
 12 44  1  0  0  0
 13 14  2  0  0  0
 13 19  1  0  0  0
 15 16  1  0  0  0
 15 45  1  0  0  0
 15 46  1  0  0  0
 16 17  1  0  0  0
 16 18  1  0  0  0
 16 47  1  0  0  0
 17 48  1  0  0  0
 17 49  1  0  0  0
 17 50  1  0  0  0
 18 51  1  0  0  0
 18 52  1  0  0  0
 18 53  1  0  0  0
 19 20  1  0  0  0
 19 54  1  0  0  0
 20 21  1  0  0  0
 20 23  1  0  0  0
 20 55  1  0  0  0
 21 22  2  0  0  0
 21 35  1  0  0  0
 23 24  1  0  0  0
 23 56  1  0  0  0
 23 57  1  0  0  0
 24 25  1  0  0  0
 24 26  1  0  0  0
 24 58  1  0  0  0
 25 59  1  0  0  0
 25 60  1  0  0  0
 25 61  1  0  0  0
 26 62  1  0  0  0
 26 63  1  0  0  0
 26 64  1  0  0  0
 27 32  1  0  0  0
 27 33  1  0  0  0
 27 34  1  0  0  0
 27 65  1  0  0  0
 28 29  1  0  0  0
 28 66  1  0  0  0
 28 67  1  0  0  0
 28 68  1  0  0  0
 29 30  1  0  0  0
 29 31  1  0  0  0
 29 69  1  0  0  0
 30 70  1  0  0  0
 31 32  1  0  0  0
 31 35  1  0  0  0
 31 71  1  0  0  0
 32 72  1  0  0  0
 32 73  1  0  0  0
 33 74  1  0  0  0
 33 75  1  0  0  0
 33 76  1  0  0  0
 34 77  1  0  0  0
 34 78  1  0  0  0
 34 79  1  0  0  0
 35 80  1  0  0  0
M  END
> <s_m_source_file>
../4nnw_ligand.sdf

> <i_m_source_file_index>
1

> <s_epik_input>
W2NIXTFbY0hdW2NIXVtjSF1bY0hdYzFbQ0gyXU9DKD1PKVtOSF1bQ0BASF0oW0NIMl1bQ0hdKFtDSDNdKVtDSDNdKUMoPU8pW05IXVtDQEBIXShbQ0gyXVtDSF0oW0NIM10pW0NIM10pQyg9TylbTkhdW0NASF0oW0NASF0oW0NIM10pW09IXSlbQ0gyXVtDSF0oW0NIM10pW0NIM10=

> <s_epik_cmdline>
J2VwaWtfYXBwJywgJy1pbWFlJywgJ2xpZ2FuZF9wcm8ubWFlJywgJy1vbWFlJywgJ2xpZ2FuZF9wcmVwLm1hZScsICctbXMnLCAnMScsICctcGgnLCAnNycsICctcGh0JywgJzAuNScsICctbnQn

> <r_lp_tautomer_probability>
1

> <r_epik_Ionization_Penalty>
  0.0000

> <r_epik_Ionization_Penalty_Charging>
  0.0000

> <r_epik_Ionization_Penalty_Neutral>
  0.0000

> <r_epik_State_Penalty>
 -0.0000

> <r_epik_Charging_Adjusted_Penalty>
0

> <i_epik_Tot_Q>
0

> <i_epik_Tot_abs_Q>
0

> <s_epik_Chemistry_Notes>
This compound has an ester and may undergo hydrolysis at high or low pH.

$$$$
