4no1_ligand
                    3D
 Schrodinger Suite 2020-3.
 80 80  0  0  1  0            999 V2000
   13.0350 -136.5920   24.7530 C   0  0  0  0  0  0
   13.6460 -135.9620   25.8370 C   0  0  0  0  0  0
   13.6230 -136.5580   27.0980 C   0  0  0  0  0  0
   12.9870 -137.7860   27.2730 C   0  0  0  0  0  0
   12.3760 -138.4150   26.1890 C   0  0  0  0  0  0
   12.3930 -137.8230   24.9220 C   0  0  0  0  0  0
   11.7670 -138.4820   23.8490 C   0  0  0  0  0  0
   11.5430 -137.5340   22.8200 O   0  0  0  0  0  0
   10.9920 -138.1050   21.7030 C   0  0  0  0  0  0
   11.0280 -139.3270   21.5490 O   0  0  0  0  0  0
   10.4170 -137.3240   20.7650 N   0  0  0  0  0  0
    9.8160 -137.8860   19.5360 C   0  0  0  0  0  0
   10.8380 -137.8940   18.3970 C   0  0  0  0  0  0
   11.5360 -136.9020   18.1890 O   0  0  0  0  0  0
    8.6510 -137.0100   19.0380 C   0  0  0  0  0  0
    7.2990 -137.2900   19.7180 C   0  0  0  0  0  0
    6.2040 -136.5260   18.9510 C   0  0  0  0  0  0
    6.9530 -138.7880   19.7350 C   0  0  0  0  0  0
   10.8490 -139.0090   17.6380 N   0  0  0  0  0  0
   11.7150 -139.1370   16.4550 C   0  0  0  0  0  0
   10.8200 -139.0460   15.2230 C   0  0  0  0  0  0
    9.8220 -139.7620   15.1380 O   0  0  0  0  0  0
   12.3840 -140.5290   16.3640 C   0  0  0  0  0  0
   13.8340 -140.6770   16.8920 C   0  0  0  0  0  0
   14.6530 -139.3700   16.9140 C   0  0  0  0  0  0
   13.8170 -141.3020   18.2990 C   0  0  0  0  0  0
   10.5140 -138.1320   12.9650 C   0  0  0  0  0  0
   10.3910 -136.6740   12.4720 C   0  0  0  0  0  0
    9.6540 -135.7580   13.4610 C   0  0  0  0  0  0
    9.5120 -134.3620   12.8330 C   0  0  0  0  0  0
    8.2530 -136.2920   13.7940 C   0  0  0  0  0  0
   11.2360 -138.2210   14.2480 N   0  0  0  0  0  0
   11.2990 -138.9620   11.9300 B   0  0  0  0  0  0
   11.4110 -140.3400   12.3310 O   0  0  0  0  0  0
   12.5550 -138.3060   11.6930 O   0  0  0  0  0  0
   13.0578 -136.1253   23.7749 H   0  0  0  0  0  0
   14.1399 -135.0069   25.6993 H   0  0  0  0  0  0
   14.0985 -136.0675   27.9396 H   0  0  0  0  0  0
   12.9675 -138.2518   28.2516 H   0  0  0  0  0  0
   11.8838 -139.3706   26.3294 H   0  0  0  0  0  0
   12.4185 -139.2899   23.4845 H   0  0  0  0  0  0
   10.8105 -138.9069   24.1874 H   0  0  0  0  0  0
   10.4039 -136.2375   20.9364 H   0  0  0  0  0  0
    9.4922 -138.8969   19.8244 H   0  0  0  0  0  0
    8.8849 -135.9507   19.2201 H   0  0  0  0  0  0
    8.5043 -137.1731   17.9601 H   0  0  0  0  0  0
    7.3641 -136.9577   20.7646 H   0  0  0  0  0  0
    6.4472 -135.4533   18.9361 H   0  0  0  0  0  0
    5.2349 -136.6754   19.4496 H   0  0  0  0  0  0
    6.1476 -136.9035   17.9194 H   0  0  0  0  0  0
    7.7327 -139.3382   20.2821 H   0  0  0  0  0  0
    6.8957 -139.1628   18.7024 H   0  0  0  0  0  0
    5.9830 -138.9346   20.2327 H   0  0  0  0  0  0
   10.1851 -139.8375   17.9258 H   0  0  0  0  0  0
   12.4617 -138.3349   16.5507 H   0  0  0  0  0  0
   11.7948 -141.2573   16.9405 H   0  0  0  0  0  0
   12.4300 -140.8456   15.3116 H   0  0  0  0  0  0
   14.3483 -141.3358   16.1768 H   0  0  0  0  0  0
   14.6629 -138.9265   15.9074 H   0  0  0  0  0  0
   15.6841 -139.5887   17.2285 H   0  0  0  0  0  0
   14.1960 -138.6628   17.6218 H   0  0  0  0  0  0
   13.2323 -142.2335   18.2794 H   0  0  0  0  0  0
   13.3592 -140.5965   19.0081 H   0  0  0  0  0  0
   14.8474 -141.5225   18.6147 H   0  0  0  0  0  0
   11.0582 -138.7179   12.2096 H   0  0  0  0  0  0
    9.5047 -138.5494   13.0956 H   0  0  0  0  0  0
   11.3955 -136.2535   12.3167 H   0  0  0  0  0  0
    9.8342 -136.6534   11.5235 H   0  0  0  0  0  0
   10.2385 -135.7188   14.3921 H   0  0  0  0  0  0
   10.5091 -133.9666   12.5890 H   0  0  0  0  0  0
    9.0147 -133.6880   13.5461 H   0  0  0  0  0  0
    8.9107 -134.4325   11.9146 H   0  0  0  0  0  0
    8.3392 -137.2917   14.2447 H   0  0  0  0  0  0
    7.6562 -136.3556   12.8722 H   0  0  0  0  0  0
    7.7602 -135.6111   14.5036 H   0  0  0  0  0  0
   12.1314 -137.6054   14.4191 H   0  0  0  0  0  0
   11.8558 -140.8315   11.6505 H   0  0  0  0  0  0
   11.8558 -140.8315   11.6505 H   0  0  0  0  0  0
   13.0217 -138.7587   11.0003 H   0  0  0  0  0  0
   13.0217 -138.7587   11.0003 H   0  0  0  0  0  0
  1  2  2  0  0  0
  1  6  1  0  0  0
  1 36  1  0  0  0
  2  3  1  0  0  0
  2 37  1  0  0  0
  3  4  2  0  0  0
  3 38  1  0  0  0
  4  5  1  0  0  0
  4 39  1  0  0  0
  5  6  2  0  0  0
  5 40  1  0  0  0
  6  7  1  0  0  0
  7  8  1  0  0  0
  7 41  1  0  0  0
  7 42  1  0  0  0
  8  9  1  0  0  0
  9 10  2  0  0  0
  9 11  1  0  0  0
 11 12  1  0  0  0
 11 43  1  0  0  0
 12 13  1  0  0  0
 12 15  1  0  0  0
 12 44  1  0  0  0
 13 14  2  0  0  0
 13 19  1  0  0  0
 15 16  1  0  0  0
 15 45  1  0  0  0
 15 46  1  0  0  0
 16 17  1  0  0  0
 16 18  1  0  0  0
 16 47  1  0  0  0
 17 48  1  0  0  0
 17 49  1  0  0  0
 17 50  1  0  0  0
 18 51  1  0  0  0
 18 52  1  0  0  0
 18 53  1  0  0  0
 19 20  1  0  0  0
 19 54  1  0  0  0
 20 21  1  0  0  0
 20 23  1  0  0  0
 20 55  1  0  0  0
 21 22  2  0  0  0
 21 32  1  0  0  0
 23 24  1  0  0  0
 23 56  1  0  0  0
 23 57  1  0  0  0
 24 25  1  0  0  0
 24 26  1  0  0  0
 24 58  1  0  0  0
 25 59  1  0  0  0
 25 60  1  0  0  0
 25 61  1  0  0  0
 26 62  1  0  0  0
 26 63  1  0  0  0
 26 64  1  0  0  0
 27 28  1  0  0  0
 27 32  1  0  0  0
 27 33  1  0  0  0
 27 65  1  0  0  0
 27 66  1  0  0  0
 28 29  1  0  0  0
 28 67  1  0  0  0
 28 68  1  0  0  0
 29 30  1  0  0  0
 29 31  1  0  0  0
 29 69  1  0  0  0
 30 70  1  0  0  0
 30 71  1  0  0  0
 30 72  1  0  0  0
 31 73  1  0  0  0
 31 74  1  0  0  0
 31 75  1  0  0  0
 32 76  1  0  0  0
 33 34  1  0  0  0
 33 35  1  0  0  0
 34 77  1  0  0  0
 34 78  1  0  0  0
 35 79  1  0  0  0
 35 80  1  0  0  0
M  END
> <MOLECULAR_FORMULA>
C25H45N3O6B

> <MOLECULAR_WEIGHT>
494.1

> <NUM_HB_ATOMS>
9

> <NUM_ROTOR>
15

> <XLOGP2>
4.48

> <s_m_source_file>
../4no1_ligand.sdf

> <i_m_source_file_index>
1

> <s_epik_input>
W2NIXTFbY0hdW2NIXVtjSF1bY0hdYzFbQ0gyXU9DKD1PKVtOSF1bQ0hdKFtDSDJdW0NIXShbQ0gzXSlbQ0gzXSlDKD1PKVtOSF1bQ0hdKFtDSDJdW0NIXShbQ0gzXSlbQ0gzXSlDKD1PKVtOSF1bQ0gyXShCKFtPSDJdKVtPSDJdKVtDSDJdW0NIXShbQ0gzXSlbQ0gzXQ==

> <s_epik_cmdline>
J2VwaWtfYXBwJywgJy1pbWFlJywgJ2xpZ2FuZF9wcm8ubWFlJywgJy1vbWFlJywgJ2xpZ2FuZF9wcmVwLm1hZScsICctbXMnLCAnMScsICctcGgnLCAnNycsICctcGh0JywgJzAuNScsICctbnQn

> <r_lp_tautomer_probability>
1

> <r_epik_Ionization_Penalty>
  0.0000

> <r_epik_Ionization_Penalty_Charging>
  0.0000

> <r_epik_Ionization_Penalty_Neutral>
  0.0000

> <r_epik_State_Penalty>
 -0.0000

> <r_epik_Charging_Adjusted_Penalty>
0

> <i_epik_Tot_Q>
0

> <i_epik_Tot_abs_Q>
0

> <s_epik_Chemistry_Notes>
This compound has an ester and may undergo hydrolysis at high or low pH.

$$$$
