4no6_ligand
                    3D
 Schrodinger Suite 2020-3.
 85 85  0  0  1  0            999 V2000
   11.0090 -137.2580   21.7010 C   0  0  0  0  0  0
   11.4400 -138.3220   21.2530 O   0  0  0  0  0  0
   11.3630 -136.8600   22.9580 O   0  0  0  0  0  0
   12.7600 -136.6880   23.1160 C   0  0  0  0  0  0
   12.9420 -136.3160   24.4640 C   0  0  0  0  0  0
   12.5550 -137.1780   25.4960 C   0  0  0  0  0  0
   12.7320 -136.8160   26.8320 C   0  0  0  0  0  0
   13.3010 -135.5830   27.1480 C   0  0  0  0  0  0
   13.6920 -134.7180   26.1260 C   0  0  0  0  0  0
   13.5150 -135.0810   24.7900 C   0  0  0  0  0  0
   10.1750 -136.4900   20.9680 N   0  0  0  0  0  0
    9.7150 -136.8890   19.6220 C   0  0  2  0  0  0
   10.7930 -136.6880   18.5610 C   0  0  0  0  0  0
   11.5300 -135.7020   18.5720 O   0  0  0  0  0  0
    8.4930 -136.0710   19.1910 C   0  0  0  0  0  0
    7.2510 -136.4230   20.0190 C   0  0  0  0  0  0
    6.0410 -135.7200   19.3990 C   0  0  0  0  0  0
    6.9800 -137.9280   20.0550 C   0  0  0  0  0  0
   10.7940 -137.6550   17.6290 N   0  0  0  0  0  0
   11.7270 -137.6930   16.5050 C   0  0  2  0  0  0
   10.9230 -137.7320   15.2050 C   0  0  0  0  0  0
   10.0250 -138.5550   15.0510 O   0  0  0  0  0  0
   12.5310 -138.9960   16.6320 C   0  0  0  0  0  0
   14.0320 -138.7860   16.8770 C   0  0  0  0  0  0
   14.3180 -137.6780   17.9010 C   0  0  0  0  0  0
   14.6010 -140.1050   17.4110 C   0  0  0  0  0  0
   12.8910 -137.4510   12.0250 C   0  0  0  0  0  0
   10.0610 -134.3110   13.3790 C   0  0  0  0  0  0
   11.3710 -137.7440   12.0040 C   0  0  0  0  0  0
   13.9190 -138.9670   12.1490 S   0  0  0  0  0  0
   13.9960 -139.6870   10.8010 O   0  0  0  0  0  0
   13.3180 -139.8980   13.1960 O   0  0  0  0  0  0
   15.5660 -138.5160   12.6530 C   0  0  0  0  0  0
   10.6190 -136.7850   12.9570 C   0  0  2  0  0  0
   10.6080 -135.3520   12.3810 C   0  0  0  0  0  0
   10.1290 -132.9190   12.7340 C   0  0  0  0  0  0
    8.6110 -134.6180   13.7760 C   0  0  0  0  0  0
   11.2730 -136.8310   14.2800 N   0  0  0  0  0  0
   13.2740 -137.6330   22.8865 H   0  0  0  0  0  0
   13.1126 -135.9030   22.4308 H   0  0  0  0  0  0
   12.1102 -138.1432   25.2536 H   0  0  0  0  0  0
   12.4260 -137.4959   27.6271 H   0  0  0  0  0  0
   13.4398 -135.2959   28.1903 H   0  0  0  0  0  0
   14.1378 -133.7542   26.3718 H   0  0  0  0  0  0
   13.8242 -134.4000   23.9971 H   0  0  0  0  0  0
    9.8376 -135.5386   21.4049 H   0  0  0  0  0  0
    9.4769 -137.9573   19.7320 H   0  0  0  0  0  0
    8.7038 -134.9995   19.3232 H   0  0  0  0  0  0
    8.2711 -136.2731   18.1327 H   0  0  0  0  0  0
    7.4261 -136.0932   21.0537 H   0  0  0  0  0  0
    6.2234 -134.6357   19.3673 H   0  0  0  0  0  0
    5.1472 -135.9238   20.0070 H   0  0  0  0  0  0
    5.8828 -136.0953   18.3772 H   0  0  0  0  0  0
    7.8432 -138.4455   20.4990 H   0  0  0  0  0  0
    6.8187 -138.2961   19.0310 H   0  0  0  0  0  0
    6.0832 -138.1247   20.6609 H   0  0  0  0  0  0
   10.0400 -138.4475   17.7449 H   0  0  0  0  0  0
   12.3668 -136.7988   16.5386 H   0  0  0  0  0  0
   12.1446 -139.5843   17.4773 H   0  0  0  0  0  0
   12.4333 -139.5791   15.7044 H   0  0  0  0  0  0
   14.4987 -138.4819   15.9285 H   0  0  0  0  0  0
   13.9148 -136.7238   17.5310 H   0  0  0  0  0  0
   15.4043 -137.5851   18.0469 H   0  0  0  0  0  0
   13.8397 -137.9314   18.8586 H   0  0  0  0  0  0
   14.4035 -140.9093   16.6871 H   0  0  0  0  0  0
   14.1217 -140.3493   18.3704 H   0  0  0  0  0  0
   15.6863 -140.0030   17.5587 H   0  0  0  0  0  0
   13.1770 -136.9309   11.0989 H   0  0  0  0  0  0
   13.1301 -136.8161   12.8909 H   0  0  0  0  0  0
   10.6731 -134.3433   14.2924 H   0  0  0  0  0  0
   10.9853 -137.6070   10.9830 H   0  0  0  0  0  0
   11.1928 -138.7802   12.3273 H   0  0  0  0  0  0
   16.0078 -137.8437   11.9028 H   0  0  0  0  0  0
   16.1832 -139.4221   12.7421 H   0  0  0  0  0  0
   15.5244 -138.0035   13.6254 H   0  0  0  0  0  0
    9.5777 -137.1045   13.1108 H   0  0  0  0  0  0
    9.9812 -135.3580   11.4771 H   0  0  0  0  0  0
   11.6414 -135.0913   12.1088 H   0  0  0  0  0  0
   11.1680 -132.6974   12.4488 H   0  0  0  0  0  0
    9.7771 -132.1643   13.4527 H   0  0  0  0  0  0
    9.4906 -132.8983   11.8385 H   0  0  0  0  0  0
    8.5606 -135.6149   14.2382 H   0  0  0  0  0  0
    7.9732 -134.5966   12.8801 H   0  0  0  0  0  0
    8.2597 -133.8626   14.4943 H   0  0  0  0  0  0
   12.0693 -136.1129   14.5251 H   0  0  0  0  0  0
  1  2  2  0  0  0
  1  3  1  0  0  0
  1 11  1  0  0  0
  3  4  1  0  0  0
  4  5  1  0  0  0
  4 39  1  0  0  0
  4 40  1  0  0  0
  5  6  2  0  0  0
  5 10  1  0  0  0
  6  7  1  0  0  0
  6 41  1  0  0  0
  7  8  2  0  0  0
  7 42  1  0  0  0
  8  9  1  0  0  0
  8 43  1  0  0  0
  9 10  2  0  0  0
  9 44  1  0  0  0
 10 45  1  0  0  0
 11 12  1  0  0  0
 11 46  1  0  0  0
 12 13  1  0  0  0
 12 15  1  0  0  0
 12 47  1  0  0  0
 13 14  2  0  0  0
 13 19  1  0  0  0
 15 16  1  0  0  0
 15 48  1  0  0  0
 15 49  1  0  0  0
 16 17  1  0  0  0
 16 18  1  0  0  0
 16 50  1  0  0  0
 17 51  1  0  0  0
 17 52  1  0  0  0
 17 53  1  0  0  0
 18 54  1  0  0  0
 18 55  1  0  0  0
 18 56  1  0  0  0
 19 20  1  0  0  0
 19 57  1  0  0  0
 20 21  1  0  0  0
 20 23  1  0  0  0
 20 58  1  0  0  0
 21 22  2  0  0  0
 21 38  1  0  0  0
 23 24  1  0  0  0
 23 59  1  0  0  0
 23 60  1  0  0  0
 24 25  1  0  0  0
 24 26  1  0  0  0
 24 61  1  0  0  0
 25 62  1  0  0  0
 25 63  1  0  0  0
 25 64  1  0  0  0
 26 65  1  0  0  0
 26 66  1  0  0  0
 26 67  1  0  0  0
 27 29  1  0  0  0
 27 30  1  0  0  0
 27 68  1  0  0  0
 27 69  1  0  0  0
 28 35  1  0  0  0
 28 36  1  0  0  0
 28 37  1  0  0  0
 28 70  1  0  0  0
 29 34  1  0  0  0
 29 71  1  0  0  0
 29 72  1  0  0  0
 30 31  2  0  0  0
 30 32  2  0  0  0
 30 33  1  0  0  0
 33 73  1  0  0  0
 33 74  1  0  0  0
 33 75  1  0  0  0
 34 35  1  0  0  0
 34 38  1  0  0  0
 34 76  1  0  0  0
 35 77  1  0  0  0
 35 78  1  0  0  0
 36 79  1  0  0  0
 36 80  1  0  0  0
 36 81  1  0  0  0
 37 82  1  0  0  0
 37 83  1  0  0  0
 37 84  1  0  0  0
 38 85  1  0  0  0
M  END
> <s_m_source_file>
../4no6_ligand.sdf

> <i_m_source_file_index>
1

> <s_epik_input>
W2NIXTFbY0hdW2NIXVtjSF1bY0hdYzFbQ0gyXU9DKD1PKVtOSF1bQ0BASF0oW0NIMl1bQ0hdKFtDSDNdKVtDSDNdKUMoPU8pW05IXVtDQEBIXShbQ0gyXVtDSF0oW0NIM10pW0NIM10pQyg9TylbTkhdW0NAQEhdKFtDSDJdW0NIXShbQ0gzXSlbQ0gzXSlbQ0gyXVtDSDJdUyg9TykoPU8pW0NIM10=

> <s_epik_cmdline>
J2VwaWtfYXBwJywgJy1pbWFlJywgJ2xpZ2FuZF9wcm8ubWFlJywgJy1vbWFlJywgJ2xpZ2FuZF9wcmVwLm1hZScsICctbXMnLCAnMScsICctcGgnLCAnNycsICctcGh0JywgJzAuNScsICctbnQn

> <r_lp_tautomer_probability>
1

> <r_epik_Ionization_Penalty>
  0.0000

> <r_epik_Ionization_Penalty_Charging>
  0.0000

> <r_epik_Ionization_Penalty_Neutral>
  0.0000

> <r_epik_State_Penalty>
 -0.0000

> <r_epik_Charging_Adjusted_Penalty>
0

> <i_epik_Tot_Q>
0

> <i_epik_Tot_abs_Q>
0

> <s_epik_Chemistry_Notes>
This compound has an ester and may undergo hydrolysis at high or low pH.

$$$$
