4no8_ligand
                    3D
 Schrodinger Suite 2020-3.
 91 92  0  0  1  0            999 V2000
   10.8910 -137.1200   22.0140 C   0  0  0  0  0  0
   11.3710 -138.2320   21.7840 O   0  0  0  0  0  0
   11.1680 -136.4750   23.1870 O   0  0  0  0  0  0
   12.5540 -136.4170   23.5760 C   0  0  0  0  0  0
   12.6450 -136.5540   24.9660 C   0  0  0  0  0  0
   12.2960 -137.7640   25.5710 C   0  0  0  0  0  0
   12.3810 -137.9150   26.9550 C   0  0  0  0  0  0
   12.8170 -136.8500   27.7420 C   0  0  0  0  0  0
   13.1660 -135.6400   27.1440 C   0  0  0  0  0  0
   13.0810 -135.4900   25.7590 C   0  0  0  0  0  0
   10.0610 -136.5410   21.1260 N   0  0  0  0  0  0
    9.6910 -137.1970   19.8590 C   0  0  2  0  0  0
   10.7810 -137.0120   18.8060 C   0  0  0  0  0  0
   11.4620 -135.9890   18.7650 O   0  0  0  0  0  0
    8.3990 -136.5930   19.2920 C   0  0  0  0  0  0
    7.2140 -136.7710   20.2480 C   0  0  0  0  0  0
    5.9530 -136.2280   19.5700 C   0  0  0  0  0  0
    7.0040 -138.2470   20.6050 C   0  0  0  0  0  0
   10.8830 -138.0380   17.9480 N   0  0  0  0  0  0
   11.8360 -138.0630   16.8330 C   0  0  2  0  0  0
   11.0040 -138.0860   15.5540 C   0  0  0  0  0  0
    9.9980 -138.7890   15.4890 O   0  0  0  0  0  0
   12.6890 -139.3370   16.9290 C   0  0  0  0  0  0
   14.1590 -138.9900   17.1940 C   0  0  0  0  0  0
   14.3390 -138.4760   18.6330 C   0  0  0  0  0  0
   15.0120 -140.2470   16.9780 C   0  0  0  0  0  0
   11.2290 -138.3660   12.3290 C   0  0  1  0  0  0
   10.7600 -139.6230   12.8230 O   0  0  0  0  0  0
   10.6980 -137.2590   13.2720 C   0  0  2  0  0  0
   10.8030 -135.8980   12.6100 C   0  0  0  0  0  0
   10.2640 -134.7970   13.5630 C   0  0  0  0  0  0
   10.1540 -133.5060   12.7880 C   0  0  0  0  0  0
    8.8810 -135.0940   14.1100 C   0  0  0  0  0  0
   11.4300 -137.3020   14.5510 N   0  0  0  0  0  0
   12.7780 -138.4090   12.2930 C   0  0  0  0  0  0
   13.4380 -137.3740   12.2050 O   0  0  0  0  0  0
   14.6310 -139.8460   12.3090 C   0  0  0  0  0  0
   15.4780 -139.2060   11.3940 C   0  0  0  0  0  0
   16.8490 -139.4570   11.4160 C   0  0  0  0  0  0
   17.3810 -140.3560   12.3400 C   0  0  0  0  0  0
   16.5400 -141.0020   13.2460 C   0  0  0  0  0  0
   15.1710 -140.7500   13.2240 C   0  0  0  0  0  0
   13.3050 -139.6550   12.3340 N   0  0  0  0  0  0
   13.1066 -137.2325   23.0866 H   0  0  0  0  0  0
   12.9804 -135.4501   23.2705 H   0  0  0  0  0  0
   11.9545 -138.5969   24.9564 H   0  0  0  0  0  0
   12.1075 -138.8623   27.4196 H   0  0  0  0  0  0
   12.8850 -136.9633   28.8240 H   0  0  0  0  0  0
   13.5065 -134.8080   27.7604 H   0  0  0  0  0  0
   13.3550 -134.5421   25.2959 H   0  0  0  0  0  0
    9.6559 -135.5478   21.3699 H   0  0  0  0  0  0
    9.5675 -138.2588   20.1184 H   0  0  0  0  0  0
    8.5425 -135.5161   19.1197 H   0  0  0  0  0  0
    8.1501 -137.0865   18.3409 H   0  0  0  0  0  0
    7.4222 -136.2213   21.1778 H   0  0  0  0  0  0
    6.1020 -135.1688   19.3131 H   0  0  0  0  0  0
    5.0983 -136.3222   20.2561 H   0  0  0  0  0  0
    5.7529 -136.8029   18.6538 H   0  0  0  0  0  0
    7.9091 -138.6387   21.0922 H   0  0  0  0  0  0
    6.8034 -138.8210   19.6883 H   0  0  0  0  0  0
    6.1489 -138.3403   21.2906 H   0  0  0  0  0  0
   10.2063 -138.8895   18.1123 H   0  0  0  0  0  0
   12.4855 -137.1765   16.8804 H   0  0  0  0  0  0
   12.3190 -139.9648   17.7530 H   0  0  0  0  0  0
   12.6216 -139.8955   15.9838 H   0  0  0  0  0  0
   14.4762 -138.1989   16.4987 H   0  0  0  0  0  0
   13.7248 -137.5754   18.7801 H   0  0  0  0  0  0
   15.3973 -138.2302   18.8049 H   0  0  0  0  0  0
   14.0235 -139.2549   19.3427 H   0  0  0  0  0  0
   14.8781 -140.6083   15.9477 H   0  0  0  0  0  0
   14.6978 -141.0292   17.6847 H   0  0  0  0  0  0
   16.0716 -140.0045   17.1468 H   0  0  0  0  0  0
   10.8309 -138.2261   11.3131 H   0  0  0  0  0  0
    9.6802 -139.8042   12.9284 H   0  0  0  0  0  0
    9.6398 -137.4222   13.5242 H   0  0  0  0  0  0
   11.8560 -135.6859   12.3729 H   0  0  0  0  0  0
   10.2106 -135.8944   11.6832 H   0  0  0  0  0  0
   10.9535 -134.7197   14.4166 H   0  0  0  0  0  0
   11.1369 -133.2454   12.3684 H   0  0  0  0  0  0
    9.8174 -132.7026   13.4598 H   0  0  0  0  0  0
    9.4276 -133.6294   11.9712 H   0  0  0  0  0  0
    8.9080 -136.0307   14.6861 H   0  0  0  0  0  0
    8.1711 -135.1968   13.2760 H   0  0  0  0  0  0
    8.5609 -134.2700   14.7646 H   0  0  0  0  0  0
   12.3327 -136.6887   14.6890 H   0  0  0  0  0  0
   15.0639 -138.5107   10.6638 H   0  0  0  0  0  0
   17.5064 -138.9498   10.7098 H   0  0  0  0  0  0
   18.4529 -140.5536   12.3541 H   0  0  0  0  0  0
   16.9541 -141.7033   13.9704 H   0  0  0  0  0  0
   14.5156 -141.2633   13.9276 H   0  0  0  0  0  0
   12.6420 -140.5310   12.3888 H   0  0  0  0  0  0
  1  2  2  0  0  0
  1  3  1  0  0  0
  1 11  1  0  0  0
  3  4  1  0  0  0
  4  5  1  0  0  0
  4 44  1  0  0  0
  4 45  1  0  0  0
  5  6  2  0  0  0
  5 10  1  0  0  0
  6  7  1  0  0  0
  6 46  1  0  0  0
  7  8  2  0  0  0
  7 47  1  0  0  0
  8  9  1  0  0  0
  8 48  1  0  0  0
  9 10  2  0  0  0
  9 49  1  0  0  0
 10 50  1  0  0  0
 11 12  1  0  0  0
 11 51  1  0  0  0
 12 13  1  0  0  0
 12 15  1  0  0  0
 12 52  1  0  0  0
 13 14  2  0  0  0
 13 19  1  0  0  0
 15 16  1  0  0  0
 15 53  1  0  0  0
 15 54  1  0  0  0
 16 17  1  0  0  0
 16 18  1  0  0  0
 16 55  1  0  0  0
 17 56  1  0  0  0
 17 57  1  0  0  0
 17 58  1  0  0  0
 18 59  1  0  0  0
 18 60  1  0  0  0
 18 61  1  0  0  0
 19 20  1  0  0  0
 19 62  1  0  0  0
 20 21  1  0  0  0
 20 23  1  0  0  0
 20 63  1  0  0  0
 21 22  2  0  0  0
 21 34  1  0  0  0
 23 24  1  0  0  0
 23 64  1  0  0  0
 23 65  1  0  0  0
 24 25  1  0  0  0
 24 26  1  0  0  0
 24 66  1  0  0  0
 25 67  1  0  0  0
 25 68  1  0  0  0
 25 69  1  0  0  0
 26 70  1  0  0  0
 26 71  1  0  0  0
 26 72  1  0  0  0
 27 28  1  0  0  0
 27 29  1  0  0  0
 27 35  1  0  0  0
 27 73  1  0  0  0
 28 74  1  0  0  0
 29 30  1  0  0  0
 29 34  1  0  0  0
 29 75  1  0  0  0
 30 31  1  0  0  0
 30 76  1  0  0  0
 30 77  1  0  0  0
 31 32  1  0  0  0
 31 33  1  0  0  0
 31 78  1  0  0  0
 32 79  1  0  0  0
 32 80  1  0  0  0
 32 81  1  0  0  0
 33 82  1  0  0  0
 33 83  1  0  0  0
 33 84  1  0  0  0
 34 85  1  0  0  0
 35 36  2  0  0  0
 35 43  1  0  0  0
 37 38  2  0  0  0
 37 42  1  0  0  0
 37 43  1  0  0  0
 38 39  1  0  0  0
 38 86  1  0  0  0
 39 40  2  0  0  0
 39 87  1  0  0  0
 40 41  1  0  0  0
 40 88  1  0  0  0
 41 42  2  0  0  0
 41 89  1  0  0  0
 42 90  1  0  0  0
 43 91  1  0  0  0
M  END
> <s_m_source_file>
../4no8_ligand.sdf

> <i_m_source_file_index>
1

> <s_epik_input>
W2NIXTFbY0hdW2NIXVtjSF1bY0hdYzFbQ0gyXU9DKD1PKVtOSF1bQ0BASF0oW0NIMl1bQ0hdKFtDSDNdKVtDSDNdKUMoPU8pW05IXVtDQEBIXShbQ0gyXVtDSF0oW0NIM10pW0NIM10pQyg9TylbTkhdW0NAQEhdKFtDSDJdW0NIXShbQ0gzXSlbQ0gzXSlbQ0BIXShbT0hdKUMoPU8pW05IXWMyW2NIXVtjSF1bY0hdW2NIXVtjSF0y

> <s_epik_cmdline>
J2VwaWtfYXBwJywgJy1pbWFlJywgJ2xpZ2FuZF9wcm8ubWFlJywgJy1vbWFlJywgJ2xpZ2FuZF9wcmVwLm1hZScsICctbXMnLCAnMScsICctcGgnLCAnNycsICctcGh0JywgJzAuNScsICctbnQn

> <r_lp_tautomer_probability>
1

> <r_epik_Ionization_Penalty>
  0.0000

> <r_epik_Ionization_Penalty_Charging>
  0.0000

> <r_epik_Ionization_Penalty_Neutral>
  0.0000

> <r_epik_State_Penalty>
 -0.0000

> <r_epik_Charging_Adjusted_Penalty>
0

> <i_epik_Tot_Q>
0

> <i_epik_Tot_abs_Q>
0

> <s_epik_Chemistry_Notes>
This compound has an ester and may undergo hydrolysis at high or low pH.

$$$$
