4no9_ligand
                    3D
 Schrodinger Suite 2020-3.
 87 87  0  0  1  0            999 V2000
   58.8890 -135.3130   34.3600 C   0  0  0  0  0  0
   58.7430 -136.5100   34.6140 O   0  0  0  0  0  0
   57.9330 -134.6240   33.6620 O   0  0  0  0  0  0
   56.7830 -135.3700   33.2100 C   0  0  0  0  0  0
   55.7010 -135.1490   34.0680 C   0  0  0  0  0  0
   54.7510 -134.1720   33.7660 C   0  0  0  0  0  0
   53.6700 -133.9500   34.6170 C   0  0  0  0  0  0
   53.5330 -134.7080   35.7790 C   0  0  0  0  0  0
   54.4780 -135.6860   36.0850 C   0  0  0  0  0  0
   55.5590 -135.9070   35.2320 C   0  0  0  0  0  0
   59.9990 -134.6680   34.7720 N   0  0  0  0  0  0
   61.0620 -135.3510   35.5350 C   0  0  2  0  0  0
   60.5990 -135.5740   36.9790 C   0  0  0  0  0  0
   59.9240 -134.7240   37.5590 O   0  0  0  0  0  0
   62.3430 -134.5060   35.5800 C   0  0  0  0  0  0
   62.9630 -134.3060   34.1900 C   0  0  0  0  0  0
   64.2110 -133.4280   34.3350 C   0  0  0  0  0  0
   63.3590 -135.6480   33.5650 C   0  0  0  0  0  0
   60.9960 -136.7390   37.5240 N   0  0  0  0  0  0
   60.6570 -137.1190   38.9100 C   0  0  2  0  0  0
   61.9090 -136.9600   39.7800 C   0  0  0  0  0  0
   63.0000 -136.7060   39.2710 O   0  0  0  0  0  0
   60.1060 -138.5490   38.9430 C   0  0  0  0  0  0
   58.5720 -138.5160   39.0170 C   0  0  0  0  0  0
   57.9800 -137.7820   37.8070 C   0  0  0  0  0  0
   58.0510 -139.9540   39.0320 C   0  0  0  0  0  0
   61.6970 -137.0850   41.1030 N   0  0  0  0  0  0
   62.7630 -136.8260   42.0790 C   0  0  1  0  0  0
   62.5030 -135.3500   42.4730 C   0  0  0  0  0  0
   63.7620 -134.4800   42.4240 C   0  0  0  0  0  0
   63.4140 -133.0670   42.9250 C   0  0  0  0  0  0
   64.3310 -134.3930   40.9980 C   0  0  0  0  0  0
   62.7240 -137.7650   43.3160 C   0  0  2  0  0  0
   63.5220 -139.0770   43.0550 C   0  0  2  0  0  0
   64.7060 -138.5880   42.4840 C   0  0  0  0  0  0
   62.8970 -139.9640   41.9610 C   0  0  0  0  0  0
   61.5250 -140.2500   42.2520 O   0  0  0  0  0  0
   61.3510 -138.0530   43.6630 O   0  0  0  0  0  0
   56.5114 -135.0455   32.1946 H   0  0  0  0  0  0
   57.0231 -136.4434   33.1999 H   0  0  0  0  0  0
   54.8554 -133.5783   32.8579 H   0  0  0  0  0  0
   52.9326 -133.1848   34.3744 H   0  0  0  0  0  0
   52.6888 -134.5363   36.4468 H   0  0  0  0  0  0
   54.3718 -136.2794   36.9931 H   0  0  0  0  0  0
   56.2950 -136.6735   35.4746 H   0  0  0  0  0  0
   60.0992 -133.6011   34.5235 H   0  0  0  0  0  0
   61.2401 -136.2996   35.0073 H   0  0  0  0  0  0
   62.1131 -133.5135   35.9947 H   0  0  0  0  0  0
   63.0893 -135.0051   36.2156 H   0  0  0  0  0  0
   62.2231 -133.8262   33.5325 H   0  0  0  0  0  0
   63.9306 -132.4635   34.7835 H   0  0  0  0  0  0
   64.6555 -133.2560   33.3436 H   0  0  0  0  0  0
   64.9424 -133.9344   34.9820 H   0  0  0  0  0  0
   62.4657 -136.2811   33.4593 H   0  0  0  0  0  0
   64.0912 -136.1523   34.2127 H   0  0  0  0  0  0
   63.8043 -135.4739   32.5744 H   0  0  0  0  0  0
   61.5934 -137.4181   36.8980 H   0  0  0  0  0  0
   59.8692 -136.4441   39.2759 H   0  0  0  0  0  0
   60.4141 -139.0818   38.0313 H   0  0  0  0  0  0
   60.5008 -139.0738   39.8254 H   0  0  0  0  0  0
   58.2687 -137.9850   39.9313 H   0  0  0  0  0  0
   58.3503 -136.7463   37.7892 H   0  0  0  0  0  0
   56.8825 -137.7778   37.8816 H   0  0  0  0  0  0
   58.2827 -138.2955   36.8825 H   0  0  0  0  0  0
   58.4713 -140.4873   39.8974 H   0  0  0  0  0  0
   58.3536 -140.4633   38.1051 H   0  0  0  0  0  0
   56.9534 -139.9456   39.1042 H   0  0  0  0  0  0
   60.6976 -137.3888   41.4478 H   0  0  0  0  0  0
   63.7384 -137.0247   41.6109 H   0  0  0  0  0  0
   61.7689 -134.9099   41.7821 H   0  0  0  0  0  0
   62.1109 -135.3082   43.4999 H   0  0  0  0  0  0
   64.5246 -134.9429   43.0676 H   0  0  0  0  0  0
   63.0070 -133.1295   43.9450 H   0  0  0  0  0  0
   62.6645 -132.6158   42.2582 H   0  0  0  0  0  0
   64.3218 -132.4458   42.9298 H   0  0  0  0  0  0
   64.5796 -135.4030   40.6402 H   0  0  0  0  0  0
   65.2388 -133.7719   41.0027 H   0  0  0  0  0  0
   63.5815 -133.9419   40.3311 H   0  0  0  0  0  0
   63.1359 -137.2570   44.2005 H   0  0  0  0  0  0
   63.6774 -139.6711   43.9676 H   0  0  0  0  0  0
   65.2205 -137.9379   43.2070 H   0  0  0  0  0  0
   64.4655 -138.0113   41.5787 H   0  0  0  0  0  0
   65.3606 -139.4313   42.2186 H   0  0  0  0  0  0
   62.9507 -139.4446   40.9928 H   0  0  0  0  0  0
   63.4491 -140.9134   41.8989 H   0  0  0  0  0  0
   60.9355 -140.8742   41.5644 H   0  0  0  0  0  0
   60.6538 -137.2298   43.8781 H   0  0  0  0  0  0
  1  2  2  0  0  0
  1  3  1  0  0  0
  1 11  1  0  0  0
  3  4  1  0  0  0
  4  5  1  0  0  0
  4 39  1  0  0  0
  4 40  1  0  0  0
  5  6  2  0  0  0
  5 10  1  0  0  0
  6  7  1  0  0  0
  6 41  1  0  0  0
  7  8  2  0  0  0
  7 42  1  0  0  0
  8  9  1  0  0  0
  8 43  1  0  0  0
  9 10  2  0  0  0
  9 44  1  0  0  0
 10 45  1  0  0  0
 11 12  1  0  0  0
 11 46  1  0  0  0
 12 13  1  0  0  0
 12 15  1  0  0  0
 12 47  1  0  0  0
 13 14  2  0  0  0
 13 19  1  0  0  0
 15 16  1  0  0  0
 15 48  1  0  0  0
 15 49  1  0  0  0
 16 17  1  0  0  0
 16 18  1  0  0  0
 16 50  1  0  0  0
 17 51  1  0  0  0
 17 52  1  0  0  0
 17 53  1  0  0  0
 18 54  1  0  0  0
 18 55  1  0  0  0
 18 56  1  0  0  0
 19 20  1  0  0  0
 19 57  1  0  0  0
 20 21  1  0  0  0
 20 23  1  0  0  0
 20 58  1  0  0  0
 21 22  2  0  0  0
 21 27  1  0  0  0
 23 24  1  0  0  0
 23 59  1  0  0  0
 23 60  1  0  0  0
 24 25  1  0  0  0
 24 26  1  0  0  0
 24 61  1  0  0  0
 25 62  1  0  0  0
 25 63  1  0  0  0
 25 64  1  0  0  0
 26 65  1  0  0  0
 26 66  1  0  0  0
 26 67  1  0  0  0
 27 28  1  0  0  0
 27 68  1  0  0  0
 28 29  1  0  0  0
 28 33  1  0  0  0
 28 69  1  0  0  0
 29 30  1  0  0  0
 29 70  1  0  0  0
 29 71  1  0  0  0
 30 31  1  0  0  0
 30 32  1  0  0  0
 30 72  1  0  0  0
 31 73  1  0  0  0
 31 74  1  0  0  0
 31 75  1  0  0  0
 32 76  1  0  0  0
 32 77  1  0  0  0
 32 78  1  0  0  0
 33 34  1  0  0  0
 33 38  1  0  0  0
 33 79  1  0  0  0
 34 35  1  0  0  0
 34 36  1  0  0  0
 34 80  1  0  0  0
 35 81  1  0  0  0
 35 82  1  0  0  0
 35 83  1  0  0  0
 36 37  1  0  0  0
 36 84  1  0  0  0
 36 85  1  0  0  0
 37 86  1  0  0  0
 38 87  1  0  0  0
M  END
> <s_m_source_file>
../4no9_ligand.sdf

> <i_m_source_file_index>
1

> <s_epik_input>
W2NIXTFbY0hdW2NIXVtjSF1bY0hdYzFbQ0gyXU9DKD1PKVtOSF1bQ0BASF0oW0NIMl1bQ0hdKFtDSDNdKVtDSDNdKUMoPU8pW05IXVtDQEBIXShbQ0gyXVtDSF0oW0NIM10pW0NIM10pQyg9TylbTkhdW0NAQEhdKFtDSDJdW0NIXShbQ0gzXSlbQ0gzXSlbQ0BASF0oW09IXSlbQ0BIXShbQ0gzXSlbQ0gyXVtPSF0=

> <s_epik_cmdline>
J2VwaWtfYXBwJywgJy1pbWFlJywgJ2xpZ2FuZF9wcm8ubWFlJywgJy1vbWFlJywgJ2xpZ2FuZF9wcmVwLm1hZScsICctbXMnLCAnMScsICctcGgnLCAnNycsICctcGh0JywgJzAuNScsICctbnQn

> <r_lp_tautomer_probability>
1

> <r_epik_Ionization_Penalty>
  0.0000

> <r_epik_Ionization_Penalty_Charging>
  0.0000

> <r_epik_Ionization_Penalty_Neutral>
  0.0000

> <r_epik_State_Penalty>
 -0.0000

> <r_epik_Charging_Adjusted_Penalty>
0

> <i_epik_Tot_Q>
0

> <i_epik_Tot_abs_Q>
0

> <s_epik_Chemistry_Notes>
This compound has an ester and may undergo hydrolysis at high or low pH.

$$$$
