4np2_ligand
                    3D
 Schrodinger Suite 2020-3.
 33 35  0  0  1  0            999 V2000
   12.3730   -5.8190    1.4220 C   0  0  0  0  0  0
   12.8320   -4.5920    0.5830 C   0  0  0  0  0  0
   11.8450   -4.2460   -0.3980 C   0  0  0  0  0  0
   12.2150   -3.3350   -1.4080 C   0  0  0  0  0  0
   11.2930   -2.9410   -2.3880 C   0  0  0  0  0  0
    9.9990   -3.4580   -2.3780 C   0  0  0  0  0  0
    9.6130   -4.3740   -1.3840 C   0  0  0  0  0  0
   10.5200   -4.7670   -0.3810 C   0  0  0  0  0  0
   10.0730   -5.7040    0.6070 C   0  0  0  0  0  0
   10.9430   -5.6920    1.8130 N   0  0  0  0  0  0
   10.5690   -6.7690    2.7600 C   0  0  0  0  0  0
   11.3850   -6.6720    4.0700 C   0  0  0  0  0  0
   11.3500   -5.6580    4.9290 N   0  0  0  0  0  0
   12.2090   -5.9440    5.9220 C   0  0  0  0  0  0
   12.7720   -7.1410    5.6760 N   0  0  0  0  0  0
   12.2590   -7.5730    4.5260 C   0  0  0  0  0  0
   12.6230   -8.8970    3.8520 C   0  0  0  0  0  0
   12.4963   -6.7364    0.8277 H   0  0  0  0  0  0
   12.9835   -5.8884    2.3344 H   0  0  0  0  0  0
   12.9869   -3.7300    1.2486 H   0  0  0  0  0  0
   13.7740   -4.8316    0.0681 H   0  0  0  0  0  0
   13.2279   -2.9329   -1.4273 H   0  0  0  0  0  0
   11.5888   -2.2293   -3.1588 H   0  0  0  0  0  0
    9.2848   -3.1516   -3.1423 H   0  0  0  0  0  0
    8.6029   -4.7836   -1.3896 H   0  0  0  0  0  0
    9.0490   -5.4490    0.9174 H   0  0  0  0  0  0
   10.0855   -6.7186    0.1823 H   0  0  0  0  0  0
    9.8253   -7.5695    2.6333 H   0  0  0  0  0  0
   12.4156   -5.3106    6.7847 H   0  0  0  0  0  0
   12.0528   -9.0014    2.9171 H   0  0  0  0  0  0
   12.3780   -9.7311    4.5260 H   0  0  0  0  0  0
   13.6999   -8.9106    3.6282 H   0  0  0  0  0  0
   10.6897   -4.7990    4.7392 H   0  0  0  0  0  0
  1  2  1  0  0  0
  1 10  1  0  0  0
  1 18  1  0  0  0
  1 19  1  0  0  0
  2  3  1  0  0  0
  2 20  1  0  0  0
  2 21  1  0  0  0
  3  4  2  0  0  0
  3  8  1  0  0  0
  4  5  1  0  0  0
  4 22  1  0  0  0
  5  6  2  0  0  0
  5 23  1  0  0  0
  6  7  1  0  0  0
  6 24  1  0  0  0
  7  8  2  0  0  0
  7 25  1  0  0  0
  8  9  1  0  0  0
  9 10  1  0  0  0
  9 26  1  0  0  0
  9 27  1  0  0  0
 10 11  1  0  0  0
 11 12  2  0  0  0
 11 28  1  0  0  0
 12 13  1  0  0  0
 12 16  1  0  0  0
 13 14  1  0  0  0
 13 33  1  0  0  0
 14 15  1  0  0  0
 14 29  1  0  0  0
 15 16  2  0  0  0
 16 17  1  0  0  0
 17 30  1  0  0  0
 17 31  1  0  0  0
 17 32  1  0  0  0
M  END
> <s_m_source_file>
../4np2_ligand.sdf

> <i_m_source_file_index>
1

> <s_epik_input>
W2NIXTFbY0hdW2NIXVtjSF1jKGMxMilbQ0gyXVtOQEgrXShbQ0gyXVtDSDJdMilbQ0gyXUMzPU5bQ0gyXU49QzNbQ0gzXQ==

> <s_epik_cmdline>
J2VwaWtfYXBwJywgJy1pbWFlJywgJ2xpZ2FuZF9wcm8ubWFlJywgJy1vbWFlJywgJ2xpZ2FuZF9wcmVwLm1hZScsICctbXMnLCAnMScsICctcGgnLCAnNycsICctcGh0JywgJzAuNScsICctbnQn

> <r_lp_tautomer_probability>
1

> <r_epik_Ionization_Penalty>
  0.0001

> <r_epik_Ionization_Penalty_Charging>
  0.0001

> <r_epik_Ionization_Penalty_Neutral>
  0.0000

> <r_epik_State_Penalty>
 -0.0000

> <r_epik_Charging_Adjusted_Penalty>
5.5703572192818e-05

> <i_epik_Tot_Q>
0

> <i_epik_Tot_abs_Q>
0

> <s_epik_Chemistry_Notes>
This compound has an imine and may undergo hydrolysis.

$$$$
