4np9_ligand
                    3D
 Schrodinger Suite 2020-3.
 33 33  0  0  1  0            999 V2000
   14.4520    1.6120   38.9690 C   0  0  2  0  0  0
   13.4470    1.0010   37.9960 C   0  0  1  0  0  0
   12.1280    0.6360   38.6610 C   0  0  1  0  0  0
   11.5700    1.7320   39.5800 C   0  0  2  0  0  0
   12.6610    2.2760   40.4720 C   0  0  1  0  0  0
   13.8180    2.8010   39.6740 C   0  0  1  0  0  0
   15.6650    2.0110   38.3270 O   0  0  0  0  0  0
   13.1870    1.9350   36.9330 O   0  0  0  0  0  0
   11.1620    0.3520   37.6660 O   0  0  0  0  0  0
   10.5530    1.2170   40.4180 O   0  0  0  0  0  0
   12.1610    3.3150   41.3260 O   0  0  0  0  0  0
   14.7220    3.4380   40.5710 O   0  0  0  0  0  0
   17.0270    1.7850   39.1470 P   0  0  0  0  0  0
   17.3950    0.3270   39.1440 O   0  0  0  0  0  0
   16.8120    2.2370   40.5870 O   0  5  0  0  0  0
   18.1460    2.5990   38.5290 O   0  5  0  0  0  0
    9.2440    2.1200   40.7850 P   0  0  0  0  0  0
    8.5720    2.5790   39.5110 O   0  5  0  0  0  0
    9.6010    3.3340   41.6090 O   0  0  0  0  0  0
    8.2730    1.2810   41.5850 O   0  5  0  0  0  0
   12.7230    3.3790   42.8100 P   0  0  0  0  0  0
   13.7350    4.5040   42.8920 O   0  5  0  0  0  0
   13.3970    2.0870   43.1900 O   0  0  0  0  0  0
   11.5850    3.6450   43.7750 O   0  5  0  0  0  0
   14.7864    0.8452   39.6833 H   0  0  0  0  0  0
   13.8877    0.0950   37.5545 H   0  0  0  0  0  0
   12.2884   -0.2849   39.2408 H   0  0  0  0  0  0
   11.1008    2.5241   38.9779 H   0  0  0  0  0  0
   13.0048    1.4679   41.1343 H   0  0  0  0  0  0
   13.5408    3.5847   38.9536 H   0  0  0  0  0  0
   14.0184    2.3231   36.3262 H   0  0  0  0  0  0
   11.3681   -0.4115   36.9014 H   0  0  0  0  0  0
   15.6462    3.8953   40.1879 H   0  0  0  0  0  0
  1  2  1  0  0  0
  1  6  1  0  0  0
  1  7  1  0  0  0
  1 25  1  0  0  0
  2  3  1  0  0  0
  2  8  1  0  0  0
  2 26  1  0  0  0
  3  4  1  0  0  0
  3  9  1  0  0  0
  3 27  1  0  0  0
  4  5  1  0  0  0
  4 10  1  0  0  0
  4 28  1  0  0  0
  5  6  1  0  0  0
  5 11  1  0  0  0
  5 29  1  0  0  0
  6 12  1  0  0  0
  6 30  1  0  0  0
  7 13  1  0  0  0
  8 31  1  0  0  0
  9 32  1  0  0  0
 10 17  1  0  0  0
 11 21  1  0  0  0
 12 33  1  0  0  0
 13 14  2  0  0  0
 13 15  1  0  0  0
 13 16  1  0  0  0
 17 18  1  0  0  0
 17 19  2  0  0  0
 17 20  1  0  0  0
 21 22  1  0  0  0
 21 23  2  0  0  0
 21 24  1  0  0  0
M  CHG  6  15  -1  16  -1  18  -1  20  -1  22  -1  24  -1
M  END
> <s_m_source_file>
../4np9_ligand.sdf

> <i_m_source_file_index>
1

> <s_epik_input>
Tz1QKFtPSF0pKFtPSF0pT1tDQEBIXTFbQ0BIXShbT0hdKVtDQEhdKFtPSF0pW0NAQEhdKE9QKD1PKShbT0hdKVtPSF0pW0NAQEhdKFtDQEhdMVtPSF0pT1AoPU8pKFtPSF0pW09IXQ==

> <s_epik_cmdline>
J2VwaWtfYXBwJywgJy1pbWFlJywgJ2xpZ2FuZF9wcm8ubWFlJywgJy1vbWFlJywgJ2xpZ2FuZF9wcmVwLm1hZScsICctbXMnLCAnMScsICctcGgnLCAnNycsICctcGh0JywgJzAuNScsICctbnQn

> <r_epik_Ionization_Penalty>
  0.3495

> <r_epik_Ionization_Penalty_Charging>
  0.3495

> <r_epik_Ionization_Penalty_Neutral>
  0.0000

> <r_epik_State_Penalty>
  0.1949

> <r_epik_Charging_Adjusted_Penalty>
0.544395994108791

> <i_epik_Tot_Q>
-6

> <i_epik_Tot_abs_Q>
6

$$$$
