4nrb_ligand
                    3D
 Schrodinger Suite 2020-3.
 34 35  0  0  1  0            999 V2000
   25.1110   11.3590    0.3980 C   0  0  0  0  0  0
   26.2190   10.3390    0.4200 N   0  0  0  0  0  0
   25.8590    8.9020    0.8110 C   0  0  0  0  0  0
   26.9650    7.8870    0.8310 C   0  0  0  0  0  0
   26.5710    6.5400    1.2560 C   0  0  0  0  0  0
   27.5480    5.5010    1.4040 C   0  0  0  0  0  0
   28.9260    5.7900    1.0130 C   0  0  0  0  0  0
   29.3580    7.0530    0.5520 C   0  0  0  0  0  0
   28.4130    8.1320    0.4610 C   0  0  0  0  0  0
   28.7950    9.3760    0.0180 O   0  0  0  0  0  0
   30.0170    9.8770   -0.2090 C   0  0  0  0  0  0
   29.9150   11.1030   -1.0370 C   0  0  0  0  0  0
   31.2920   11.7180   -1.2790 C   0  0  0  0  0  0
   31.8770   12.0040   -0.0060 O   0  0  0  0  0  0
   32.0340   10.7950    0.9620 C   0  0  0  0  0  0
   30.7210   10.0870    1.1070 C   0  0  0  0  0  0
   24.5650    8.6000    1.1280 O   0  0  0  0  0  0
   25.5186   12.3367    0.1015 H   0  0  0  0  0  0
   24.6642   11.4366    1.4002 H   0  0  0  0  0  0
   24.3411   11.0485   -0.3237 H   0  0  0  0  0  0
   27.2457   10.6366    0.1606 H   0  0  0  0  0  0
   25.5223    6.3259    1.4620 H   0  0  0  0  0  0
   27.2706    4.5230    1.7972 H   0  0  0  0  0  0
   29.6602    4.9873    1.0808 H   0  0  0  0  0  0
   30.3988    7.2081    0.2678 H   0  0  0  0  0  0
   30.5296    9.1039   -0.8002 H   0  0  0  0  0  0
   29.4654   10.8525   -2.0092 H   0  0  0  0  0  0
   29.2848   11.8424   -0.5212 H   0  0  0  0  0  0
   31.9194   11.0053   -1.8343 H   0  0  0  0  0  0
   31.1827   12.6433   -1.8638 H   0  0  0  0  0  0
   32.7813   10.0963    0.5578 H   0  0  0  0  0  0
   32.3640   11.1549    1.9477 H   0  0  0  0  0  0
   30.0860   10.6930    1.7699 H   0  0  0  0  0  0
   30.9171    9.1123    1.5776 H   0  0  0  0  0  0
  1  2  1  0  0  0
  1 18  1  0  0  0
  1 19  1  0  0  0
  1 20  1  0  0  0
  2  3  1  0  0  0
  2 21  1  0  0  0
  3  4  1  0  0  0
  3 17  2  0  0  0
  4  5  2  0  0  0
  4  9  1  0  0  0
  5  6  1  0  0  0
  5 22  1  0  0  0
  6  7  2  0  0  0
  6 23  1  0  0  0
  7  8  1  0  0  0
  7 24  1  0  0  0
  8  9  2  0  0  0
  8 25  1  0  0  0
  9 10  1  0  0  0
 10 11  1  0  0  0
 11 12  1  0  0  0
 11 16  1  0  0  0
 11 26  1  0  0  0
 12 13  1  0  0  0
 12 27  1  0  0  0
 12 28  1  0  0  0
 13 14  1  0  0  0
 13 29  1  0  0  0
 13 30  1  0  0  0
 14 15  1  0  0  0
 15 16  1  0  0  0
 15 31  1  0  0  0
 15 32  1  0  0  0
 16 33  1  0  0  0
 16 34  1  0  0  0
M  END
> <s_m_source_file>
../4nrb_ligand.sdf

> <i_m_source_file_index>
1

> <s_epik_input>
W0NIM11bTkhdQyg9TyljMVtjSF1bY0hdW2NIXVtjSF1jMU9bQ0hdMltDSDJdW0NIMl1PW0NIMl1bQ0gyXTI=

> <s_epik_cmdline>
J2VwaWtfYXBwJywgJy1pbWFlJywgJ2xpZ2FuZF9wcm8ubWFlJywgJy1vbWFlJywgJ2xpZ2FuZF9wcmVwLm1hZScsICctbXMnLCAnMScsICctcGgnLCAnNycsICctcGh0JywgJzAuNScsICctbnQn

> <r_lp_tautomer_probability>
1

> <r_epik_Ionization_Penalty>
  0.0000

> <r_epik_Ionization_Penalty_Charging>
  0.0000

> <r_epik_Ionization_Penalty_Neutral>
  0.0000

> <r_epik_State_Penalty>
 -0.0000

> <r_epik_Charging_Adjusted_Penalty>
0

> <i_epik_Tot_Q>
0

> <i_epik_Tot_abs_Q>
0

$$$$
