4nrk_ligand
                    3D
 Schrodinger Suite 2020-3.
 38 38  0  0  1  0            999 V2000
    3.7870  -86.5090  -16.5290 C   0  0  0  0  0  0
    3.8890  -88.0160  -16.6710 C   0  0  1  0  0  0
    2.9350  -88.5890  -17.6990 C   0  0  0  0  0  0
    3.2940  -88.0910  -19.0810 C   0  0  1  0  0  0
    4.7170  -88.4880  -19.3960 C   0  0  2  0  0  0
    5.5940  -87.9900  -18.2740 C   0  0  2  0  0  0
    7.0290  -88.4080  -18.4980 C   0  0  1  0  0  0
    7.8800  -87.8170  -17.3980 C   0  0  1  0  0  0
    9.3440  -87.9360  -17.7550 C   0  0  0  0  0  0
    5.6200  -88.6450  -21.6930 C   0  0  0  0  0  0
    5.7390  -90.1500  -21.5740 C   0  0  0  0  0  0
    5.1180  -87.8750  -20.6110 N   0  0  0  0  0  0
    2.6530  -85.9650  -16.5920 O   0  0  0  0  0  0
    4.8070  -85.7920  -16.3280 O   0  5  0  0  0  0
    2.4180  -88.6480  -20.0330 O   0  0  0  0  0  0
    5.1540  -88.5190  -17.0430 O   0  0  0  0  0  0
    7.1140  -89.8110  -18.4580 O   0  0  0  0  0  0
    7.5470  -86.4600  -17.2310 O   0  0  0  0  0  0
   10.1240  -87.7080  -16.6010 O   0  0  0  0  0  0
    5.9560  -88.0900  -22.7200 O   0  0  0  0  0  0
    3.7182  -88.3682  -15.6430 H   0  0  0  0  0  0
    2.9973  -89.6871  -17.6850 H   0  0  0  0  0  0
    1.9076  -88.2770  -17.4599 H   0  0  0  0  0  0
    3.1532  -87.0035  -19.1671 H   0  0  0  0  0  0
    4.8212  -89.5714  -19.5555 H   0  0  0  0  0  0
    5.5048  -86.8971  -18.1870 H   0  0  0  0  0  0
    7.3937  -88.1200  -19.4950 H   0  0  0  0  0  0
    7.6705  -88.3011  -16.4327 H   0  0  0  0  0  0
    9.5459  -88.9453  -18.1431 H   0  0  0  0  0  0
    9.5958  -87.1904  -18.5236 H   0  0  0  0  0  0
    5.3900  -90.4680  -20.5805 H   0  0  0  0  0  0
    6.7902  -90.4462  -21.7055 H   0  0  0  0  0  0
    5.1233  -90.6289  -22.3496 H   0  0  0  0  0  0
    5.0428  -86.7838  -20.7275 H   0  0  0  0  0  0
    1.3362  -88.4625  -19.9599 H   0  0  0  0  0  0
    6.5573  -90.4168  -19.1881 H   0  0  0  0  0  0
    6.5180  -86.1747  -16.9671 H   0  0  0  0  0  0
   11.2215  -87.7523  -16.6613 H   0  0  0  0  0  0
  1  2  1  0  0  0
  1 13  2  0  0  0
  1 14  1  0  0  0
  2  3  1  0  0  0
  2 16  1  0  0  0
  2 21  1  0  0  0
  3  4  1  0  0  0
  3 22  1  0  0  0
  3 23  1  0  0  0
  4  5  1  0  0  0
  4 15  1  0  0  0
  4 24  1  0  0  0
  5  6  1  0  0  0
  5 12  1  0  0  0
  5 25  1  0  0  0
  6  7  1  0  0  0
  6 16  1  0  0  0
  6 26  1  0  0  0
  7  8  1  0  0  0
  7 17  1  0  0  0
  7 27  1  0  0  0
  8  9  1  0  0  0
  8 18  1  0  0  0
  8 28  1  0  0  0
  9 19  1  0  0  0
  9 29  1  0  0  0
  9 30  1  0  0  0
 10 11  1  0  0  0
 10 12  1  0  0  0
 10 20  2  0  0  0
 11 31  1  0  0  0
 11 32  1  0  0  0
 11 33  1  0  0  0
 12 34  1  0  0  0
 15 35  1  0  0  0
 17 36  1  0  0  0
 18 37  1  0  0  0
 19 38  1  0  0  0
M  CHG  1  14  -1
M  END
> <s_m_source_file>
../4nrk_ligand.sdf

> <i_m_source_file_index>
1

> <s_epik_input>
Tz1DKFtPSF0pW0NASF0xW0NIMl1bQ0BIXShbT0hdKVtDQEBIXShbTkhdQyg9TylbQ0gzXSlbQ0BASF0oTzEpW0NASF0oW09IXSlbQ0BIXShbT0hdKVtDSDJdW09IXQ==

> <s_epik_cmdline>
J2VwaWtfYXBwJywgJy1pbWFlJywgJ2xpZ2FuZF9wcm8ubWFlJywgJy1vbWFlJywgJ2xpZ2FuZF9wcmVwLm1hZScsICctbXMnLCAnMScsICctcGgnLCAnNycsICctcGh0JywgJzAuNScsICctbnQn

> <r_lp_tautomer_probability>
1

> <r_epik_Ionization_Penalty>
  0.0001

> <r_epik_Ionization_Penalty_Charging>
  0.0001

> <r_epik_Ionization_Penalty_Neutral>
  0.0000

> <r_epik_State_Penalty>
 -0.0000

> <r_epik_Charging_Adjusted_Penalty>
0.000104746784792729

> <i_epik_Tot_Q>
-1

> <i_epik_Tot_abs_Q>
1

$$$$
