4nrl_ligand
                    3D
 Schrodinger Suite 2020-3.
 38 38  0  0  1  0            999 V2000
   38.0060   22.3860  -16.4740 C   0  0  0  0  0  0
   37.8770   23.8970  -16.4750 C   0  0  1  0  0  0
   38.8260   24.5560  -17.4540 C   0  0  0  0  0  0
   38.5370   24.0560  -18.8540 C   0  0  1  0  0  0
   37.1200   24.4240  -19.2280 C   0  0  2  0  0  0
   36.2160   23.9140  -18.1270 C   0  0  2  0  0  0
   34.7820   24.3260  -18.3700 C   0  0  1  0  0  0
   33.9230   23.7140  -17.2890 C   0  0  1  0  0  0
   32.4900   23.6320  -17.7610 C   0  0  0  0  0  0
   36.1140   24.5040  -21.4870 C   0  0  0  0  0  0
   35.7650   23.8150  -22.7880 C   0  0  0  0  0  0
   36.7860   23.7940  -20.4580 N   0  0  0  0  0  0
   39.1500   21.8740  -16.6050 O   0  0  0  0  0  0
   37.0070   21.6350  -16.3050 O   0  5  0  0  0  0
   39.4450   24.6150  -19.7740 O   0  0  0  0  0  0
   36.6230   24.4070  -16.8670 O   0  0  0  0  0  0
   34.6760   25.7300  -18.3280 O   0  0  0  0  0  0
   34.3920   22.4190  -16.9980 O   0  0  0  0  0  0
   31.6380   23.5330  -16.6420 O   0  0  0  0  0  0
   35.8110   25.6680  -21.3210 O   0  0  0  0  0  0
   38.0131   24.1614  -15.4159 H   0  0  0  0  0  0
   38.6893   25.6469  -17.4194 H   0  0  0  0  0  0
   39.8628   24.3077  -17.1833 H   0  0  0  0  0  0
   38.7042   22.9718  -18.9345 H   0  0  0  0  0  0
   36.9920   25.5024  -19.4032 H   0  0  0  0  0  0
   36.3111   22.8200  -18.0621 H   0  0  0  0  0  0
   34.4366   24.0461  -19.3761 H   0  0  0  0  0  0
   34.0011   24.2828  -16.3507 H   0  0  0  0  0  0
   32.2409   24.5363  -18.3356 H   0  0  0  0  0  0
   32.3646   22.7454  -18.4000 H   0  0  0  0  0  0
   36.1154   22.7728  -22.7565 H   0  0  0  0  0  0
   36.2515   24.3403  -23.6231 H   0  0  0  0  0  0
   34.6744   23.8310  -22.9303 H   0  0  0  0  0  0
   37.0485   22.7389  -20.6246 H   0  0  0  0  0  0
   40.5252   24.4464  -19.6523 H   0  0  0  0  0  0
   35.2366   26.3456  -19.0468 H   0  0  0  0  0  0
   35.4214   22.2748  -16.6380 H   0  0  0  0  0  0
   30.5495   23.4629  -16.7840 H   0  0  0  0  0  0
  1  2  1  0  0  0
  1 13  2  0  0  0
  1 14  1  0  0  0
  2  3  1  0  0  0
  2 16  1  0  0  0
  2 21  1  0  0  0
  3  4  1  0  0  0
  3 22  1  0  0  0
  3 23  1  0  0  0
  4  5  1  0  0  0
  4 15  1  0  0  0
  4 24  1  0  0  0
  5  6  1  0  0  0
  5 12  1  0  0  0
  5 25  1  0  0  0
  6  7  1  0  0  0
  6 16  1  0  0  0
  6 26  1  0  0  0
  7  8  1  0  0  0
  7 17  1  0  0  0
  7 27  1  0  0  0
  8  9  1  0  0  0
  8 18  1  0  0  0
  8 28  1  0  0  0
  9 19  1  0  0  0
  9 29  1  0  0  0
  9 30  1  0  0  0
 10 11  1  0  0  0
 10 12  1  0  0  0
 10 20  2  0  0  0
 11 31  1  0  0  0
 11 32  1  0  0  0
 11 33  1  0  0  0
 12 34  1  0  0  0
 15 35  1  0  0  0
 17 36  1  0  0  0
 18 37  1  0  0  0
 19 38  1  0  0  0
M  CHG  1  14  -1
M  END
> <s_m_source_file>
../4nrl_ligand.sdf

> <i_m_source_file_index>
1

> <s_epik_input>
Tz1DKFtPSF0pW0NASF0xW0NIMl1bQ0BIXShbT0hdKVtDQEBIXShbTkhdQyg9TylbQ0gzXSlbQ0BASF0oTzEpW0NASF0oW09IXSlbQ0BIXShbT0hdKVtDSDJdW09IXQ==

> <s_epik_cmdline>
J2VwaWtfYXBwJywgJy1pbWFlJywgJ2xpZ2FuZF9wcm8ubWFlJywgJy1vbWFlJywgJ2xpZ2FuZF9wcmVwLm1hZScsICctbXMnLCAnMScsICctcGgnLCAnNycsICctcGh0JywgJzAuNScsICctbnQn

> <r_lp_tautomer_probability>
1

> <r_epik_Ionization_Penalty>
  0.0001

> <r_epik_Ionization_Penalty_Charging>
  0.0001

> <r_epik_Ionization_Penalty_Neutral>
  0.0000

> <r_epik_State_Penalty>
 -0.0000

> <r_epik_Charging_Adjusted_Penalty>
0.000104746784792729

> <i_epik_Tot_Q>
-1

> <i_epik_Tot_abs_Q>
1

$$$$
