4nrm_ligand
                    3D
 Schrodinger Suite 2020-3.
 18 17  0  0  1  0            999 V2000
   10.0980   23.9640   17.0020 C   0  0  0  0  0  0
   10.9010   22.7940   16.4910 C   0  0  0  0  0  0
   10.8070   21.7340   17.5740 C   0  0  0  0  0  0
    9.4700   21.0960   17.8410 C   0  0  0  0  0  0
   12.0490   21.2730   18.3350 C   0  0  0  0  0  0
   13.1300   20.5580   17.5480 C   0  0  0  0  0  0
    8.8790   23.9840   16.7420 O   0  0  0  0  0  0
   10.6670   24.8520   17.6770 O   0  5  0  0  0  0
    8.8850   21.5600   18.8390 O   0  0  0  0  0  0
    8.9820   20.2070   17.1040 O   0  5  0  0  0  0
   13.3220   20.8380   16.3430 O   0  5  0  0  0  0
   13.8120   19.7060   18.1580 O   0  0  0  0  0  0
   11.0450   20.7860   16.5200 O   0  0  0  0  0  0
   10.4699   22.4394   15.5432 H   0  0  0  0  0  0
   11.9421   23.1081   16.3254 H   0  0  0  0  0  0
   12.5471   22.1440   18.7859 H   0  0  0  0  0  0
   11.7536   20.5690   19.1269 H   0  0  0  0  0  0
   10.3563   20.7307   15.6641 H   0  0  0  0  0  0
  1  2  1  0  0  0
  1  7  2  0  0  0
  1  8  1  0  0  0
  2  3  1  0  0  0
  2 14  1  0  0  0
  2 15  1  0  0  0
  3  4  1  0  0  0
  3  5  1  0  0  0
  3 13  1  0  0  0
  4  9  2  0  0  0
  4 10  1  0  0  0
  5  6  1  0  0  0
  5 16  1  0  0  0
  5 17  1  0  0  0
  6 11  1  0  0  0
  6 12  2  0  0  0
 13 18  1  0  0  0
M  CHG  3   8  -1  10  -1  11  -1
M  END
> <s_m_source_file>
../4nrm_ligand.sdf

> <i_m_source_file_index>
1

> <s_epik_input>
Tz1DKFtPSF0pW0NIMl1DKFtPSF0pKEMoPU8pW09IXSlbQ0gyXUMoPU8pW09IXQ==

> <s_epik_cmdline>
J2VwaWtfYXBwJywgJy1pbWFlJywgJ2xpZ2FuZF9wcm8ubWFlJywgJy1vbWFlJywgJ2xpZ2FuZF9wcmVwLm1hZScsICctbXMnLCAnMScsICctcGgnLCAnNycsICctcGh0JywgJzAuNScsICctbnQn

> <r_lp_tautomer_probability>
1

> <r_epik_Ionization_Penalty>
  0.0046

> <r_epik_Ionization_Penalty_Charging>
  0.0046

> <r_epik_Ionization_Penalty_Neutral>
  0.0000

> <r_epik_State_Penalty>
 -0.0000

> <r_epik_Charging_Adjusted_Penalty>
0.0045906918398983

> <i_epik_Tot_Q>
-3

> <i_epik_Tot_abs_Q>
3

$$$$
