4nro_ligand
                    3D
 Schrodinger Suite 2020-3.
 14 13  0  0  1  0            999 V2000
   12.5160   20.4920   16.7890 C   0  0  0  0  0  0
   11.4460   20.0720   17.2940 O   0  5  0  0  0  0
   13.6200   20.1100   17.2310 O   0  0  0  0  0  0
   12.4810   21.4550   15.6840 C   0  0  0  0  0  0
   11.7080   21.2790   14.7560 O   0  0  0  0  0  0
   13.4110   22.6570   15.7090 C   0  0  0  0  0  0
   13.0500   23.7340   14.6870 C   0  0  0  0  0  0
   14.2970   24.4780   14.2520 C   0  0  0  0  0  0
   14.2150   25.6990   13.9810 O   0  5  0  0  0  0
   15.3810   23.8570   14.1620 O   0  0  0  0  0  0
   13.3782   23.1253   16.7038 H   0  0  0  0  0  0
   14.4385   22.3302   15.4913 H   0  0  0  0  0  0
   12.5849   23.2641   13.8079 H   0  0  0  0  0  0
   12.3438   24.4462   15.1387 H   0  0  0  0  0  0
  1  2  1  0  0  0
  1  3  2  0  0  0
  1  4  1  0  0  0
  4  5  2  0  0  0
  4  6  1  0  0  0
  6  7  1  0  0  0
  6 11  1  0  0  0
  6 12  1  0  0  0
  7  8  1  0  0  0
  7 13  1  0  0  0
  7 14  1  0  0  0
  8  9  1  0  0  0
  8 10  2  0  0  0
M  CHG  2   2  -1   9  -1
M  END
> <s_m_source_file>
../4nro_ligand.sdf

> <i_m_source_file_index>
1

> <s_epik_input>
W09IXUMoPU8pQyg9TylbQ0gyXVtDSDJdQyg9TylbT0hd

> <s_epik_cmdline>
J2VwaWtfYXBwJywgJy1pbWFlJywgJ2xpZ2FuZF9wcm8ubWFlJywgJy1vbWFlJywgJ2xpZ2FuZF9wcmVwLm1hZScsICctbXMnLCAnMScsICctcGgnLCAnNycsICctcGh0JywgJzAuNScsICctbnQn

> <r_lp_tautomer_probability>
1

> <r_epik_Ionization_Penalty>
  0.0013

> <r_epik_Ionization_Penalty_Charging>
  0.0013

> <r_epik_Ionization_Penalty_Neutral>
  0.0000

> <r_epik_State_Penalty>
 -0.0000

> <r_epik_Charging_Adjusted_Penalty>
0.00129329390835398

> <i_epik_Tot_Q>
-2

> <i_epik_Tot_abs_Q>
2

$$$$
