4nru_ligand
                    3D
 Schrodinger Suite 2020-3.
 57 60  0  0  1  0            999 V2000
   35.1820   -8.4630   48.1710 O   0  5  0  0  0  0
   36.0860   -9.1840   47.1540 S   0  0  0  0  0  0
   37.4000   -8.4060   47.0550 O   0  0  0  0  0  0
   35.3050   -9.2820   45.8470 O   0  0  0  0  0  0
   36.4520  -10.7950   47.6550 C   0  0  0  0  0  0
   37.1780  -11.7120   46.8580 C   0  0  0  0  0  0
   35.9720  -11.1550   48.9140 C   0  0  0  0  0  0
   36.1920  -12.4220   49.4180 C   0  0  0  0  0  0
   36.8960  -13.3380   48.6630 C   0  0  0  0  0  0
   37.3930  -13.0040   47.3970 C   0  0  0  0  0  0
   38.1060  -13.9750   46.6740 C   0  0  0  0  0  0
   38.3700  -15.6180   47.3270 S   0  0  0  0  0  0
   37.0310  -16.2710   47.6180 O   0  0  0  0  0  0
   39.1320  -15.5480   48.6360 O   0  0  0  0  0  0
   39.0830  -16.5010   46.3030 O   0  5  0  0  0  0
   38.6000  -13.6740   45.4090 C   0  0  0  0  0  0
   38.3990  -12.4110   44.8590 C   0  0  0  0  0  0
   37.7200  -11.4160   45.5700 C   0  0  0  0  0  0
   37.5090  -10.2190   44.9600 N   0  0  0  0  0  0
   38.5280   -9.4340   44.4960 C   0  0  0  0  0  0
   39.7170   -9.6730   44.6760 O   0  0  0  0  0  0
   38.1580   -8.2680   43.7870 C   0  0  0  0  0  0
   38.9360   -7.8600   42.6970 C   0  0  0  0  0  0
   37.0310   -7.4850   44.1080 C   0  0  0  0  0  0
   36.6740   -6.3430   43.3900 C   0  0  0  0  0  0
   37.4530   -5.9390   42.3080 C   0  0  0  0  0  0
   37.0980   -4.7850   41.5830 C   0  0  0  0  0  0
   38.5900   -6.7040   41.9840 C   0  0  0  0  0  0
   39.2930   -6.3020   40.9220 N   0  0  0  0  0  0
   40.3850   -5.5160   41.0600 C   0  0  0  0  0  0
   40.8500   -5.1630   42.1470 O   0  0  0  0  0  0
   41.0080   -5.1760   39.8460 C   0  0  0  0  0  0
   42.3950   -5.1030   39.7820 C   0  0  0  0  0  0
   40.2710   -4.9200   38.6750 C   0  0  0  0  0  0
   40.9060   -4.6020   37.4750 C   0  0  0  0  0  0
   42.2970   -4.5280   37.4260 C   0  0  0  0  0  0
   43.0420   -4.7800   38.5850 C   0  0  0  0  0  0
   44.3700   -4.7080   38.5700 N   0  3  0  0  0  0
   45.1050   -4.5220   39.8180 O   0  0  0  0  0  0
   45.1010   -4.7870   37.3320 O   0  5  0  0  0  0
   35.4169  -10.4282   49.5070 H   0  0  0  0  0  0
   35.8132  -12.6958   50.4027 H   0  0  0  0  0  0
   37.0682  -14.3388   49.0589 H   0  0  0  0  0  0
   39.1469  -14.4303   44.8459 H   0  0  0  0  0  0
   38.7763  -12.1943   43.8596 H   0  0  0  0  0  0
   36.4837   -9.8450   44.8224 H   0  0  0  0  0  0
   39.8102   -8.4409   42.4030 H   0  0  0  0  0  0
   36.4116   -7.7844   44.9535 H   0  0  0  0  0  0
   35.7910   -5.7705   43.6740 H   0  0  0  0  0  0
   36.1814   -4.3515   42.0096 H   0  0  0  0  0  0
   36.9217   -5.0529   40.5308 H   0  0  0  0  0  0
   37.9136   -4.0493   41.6424 H   0  0  0  0  0  0
   38.9871   -6.6100   39.9113 H   0  0  0  0  0  0
   42.9858   -5.3001   40.6765 H   0  0  0  0  0  0
   39.1827   -4.9713   38.7065 H   0  0  0  0  0  0
   40.3165   -4.4119   36.5781 H   0  0  0  0  0  0
   42.8011   -4.2760   36.4930 H   0  0  0  0  0  0
  1  2  1  0  0  0
  2  3  2  0  0  0
  2  4  2  0  0  0
  2  5  1  0  0  0
  5  6  2  0  0  0
  5  7  1  0  0  0
  6 10  1  0  0  0
  6 18  1  0  0  0
  7  8  2  0  0  0
  7 41  1  0  0  0
  8  9  1  0  0  0
  8 42  1  0  0  0
  9 10  2  0  0  0
  9 43  1  0  0  0
 10 11  1  0  0  0
 11 12  1  0  0  0
 11 16  2  0  0  0
 12 13  2  0  0  0
 12 14  2  0  0  0
 12 15  1  0  0  0
 16 17  1  0  0  0
 16 44  1  0  0  0
 17 18  2  0  0  0
 17 45  1  0  0  0
 18 19  1  0  0  0
 19 20  1  0  0  0
 19 46  1  0  0  0
 20 21  2  0  0  0
 20 22  1  0  0  0
 22 23  2  0  0  0
 22 24  1  0  0  0
 23 28  1  0  0  0
 23 47  1  0  0  0
 24 25  2  0  0  0
 24 48  1  0  0  0
 25 26  1  0  0  0
 25 49  1  0  0  0
 26 27  1  0  0  0
 26 28  2  0  0  0
 27 50  1  0  0  0
 27 51  1  0  0  0
 27 52  1  0  0  0
 28 29  1  0  0  0
 29 30  1  0  0  0
 29 53  1  0  0  0
 30 31  2  0  0  0
 30 32  1  0  0  0
 32 33  2  0  0  0
 32 34  1  0  0  0
 33 37  1  0  0  0
 33 54  1  0  0  0
 34 35  2  0  0  0
 34 55  1  0  0  0
 35 36  1  0  0  0
 35 56  1  0  0  0
 36 37  2  0  0  0
 36 57  1  0  0  0
 37 38  1  0  0  0
 38 39  2  0  0  0
 38 40  1  0  0  0
M  CHG  4   1  -1  15  -1  38   1  40  -1
M  END
> <s_m_source_file>
../4nru_ligand.sdf

> <i_m_source_file_index>
1

> <s_epik_input>
W09IXVMoPU8pKD1PKWMxW2NIXVtjSF1bY0hdYyhjMTIpYyhTKD1PKSg9TylbT0hdKVtjSF1bY0hdYzJbTkhdQyg9TyljM1tjSF1jKGMoW0NIM10pW2NIXVtjSF0zKVtOSF1DKD1PKWM0W2NIXWMoW04rXSg9TylbTy1dKVtjSF1bY0hdW2NIXTQ=

> <s_epik_cmdline>
J2VwaWtfYXBwJywgJy1pbWFlJywgJ2xpZ2FuZF9wcm8ubWFlJywgJy1vbWFlJywgJ2xpZ2FuZF9wcmVwLm1hZScsICctbXMnLCAnMScsICctcGgnLCAnNycsICctcGh0JywgJzAuNScsICctbnQn

> <r_lp_tautomer_probability>
1

> <r_epik_Ionization_Penalty>
  0.0000

> <r_epik_Ionization_Penalty_Charging>
  0.0000

> <r_epik_Ionization_Penalty_Neutral>
  0.0000

> <r_epik_State_Penalty>
 -0.0000

> <r_epik_Charging_Adjusted_Penalty>
5.00424205128499e-06

> <i_epik_Tot_Q>
-2

> <i_epik_Tot_abs_Q>
4

$$$$
