4ntj_ligand
                    3D
 Schrodinger Suite 2020-3.
 58 60  0  0  1  0            999 V2000
   15.9210   94.1750   57.3890 C   0  0  0  0  0  0
   13.7710  100.3390   55.7690 C   0  0  0  0  0  0
   18.7320   97.5250   52.1240 N   0  0  0  0  0  0
   19.3140  103.0570   48.9460 O   0  5  0  0  0  0
   13.9550   97.9480   57.2890 O   0  0  0  0  0  0
   17.2190  106.0380   46.4550 O   0  0  0  0  0  0
   19.1540  105.9810   48.0450 O   0  0  0  0  0  0
   17.8800   97.9800   52.7570 C   0  0  0  0  0  0
   17.5640  101.5630   43.1690 C   0  0  0  0  0  0
   18.0810  102.7790   42.7150 C   0  0  0  0  0  0
   17.6190  101.2490   44.5310 C   0  0  0  0  0  0
   18.6560  103.6760   43.6240 C   0  0  0  0  0  0
   18.1880  102.1480   45.4390 C   0  0  0  0  0  0
   16.3670   97.8880   54.6700 C   0  0  0  0  0  0
   15.0310   95.2870   56.8260 C   0  0  0  0  0  0
   17.0380  102.9050   51.1080 C   0  0  0  0  0  0
   17.5770  100.7870   49.7120 C   0  0  0  0  0  0
   16.1740  102.0070   51.9960 C   0  0  0  0  0  0
   16.6730   99.9840   50.6710 C   0  0  0  0  0  0
   19.3190  104.2820   45.8810 C   0  0  0  0  0  0
   15.2540  100.2950   53.9820 N   0  0  0  0  0  0
   17.4270  104.0470   48.0910 N   0  0  0  0  0  0
   15.7140   96.5520   56.8950 O   0  0  0  0  0  0
   18.0870  103.1560   48.8540 C   0  0  0  0  0  0
   14.9350   97.6440   56.6050 C   0  0  0  0  0  0
   14.7980   99.6680   55.0910 C   0  0  0  0  0  0
   18.6840  103.3830   44.9960 C   0  0  0  0  0  0
   16.8140   98.5660   53.5360 C   0  0  0  0  0  0
   15.3500   98.4110   55.4850 C   0  0  0  0  0  0
   16.2130   99.7860   53.1770 C   0  0  0  0  0  0
   17.1430  102.2920   49.6980 C   0  0  0  0  0  0
   16.7030  100.6040   52.0280 N   0  0  0  0  0  0
   18.2510  105.1280   47.1410 S   0  0  0  0  0  0
   15.3884   93.2143   57.3308 H   0  0  0  0  0  0
   16.1644   94.3963   58.4387 H   0  0  0  0  0  0
   16.8493   94.1158   56.8019 H   0  0  0  0  0  0
   13.5427  101.2810   55.2489 H   0  0  0  0  0  0
   14.0924  100.5569   56.7982 H   0  0  0  0  0  0
   12.8720   99.7056   55.7920 H   0  0  0  0  0  0
   17.1190  100.8610   42.4638 H   0  0  0  0  0  0
   18.0369  103.0292   41.6550 H   0  0  0  0  0  0
   17.2169  100.3001   44.8861 H   0  0  0  0  0  0
   19.0857  104.6102   43.2624 H   0  0  0  0  0  0
   18.2463  101.8876   46.4958 H   0  0  0  0  0  0
   16.8175   96.9300   54.9296 H   0  0  0  0  0  0
   14.7876   95.0657   55.7764 H   0  0  0  0  0  0
   14.1026   95.3462   57.4131 H   0  0  0  0  0  0
   16.5798  103.9027   51.0393 H   0  0  0  0  0  0
   18.0441  102.9928   51.5439 H   0  0  0  0  0  0
   18.6222  100.7156   50.0474 H   0  0  0  0  0  0
   17.4893  100.3763   48.6953 H   0  0  0  0  0  0
   16.1680  102.4029   53.0223 H   0  0  0  0  0  0
   15.1459  101.9852   51.6055 H   0  0  0  0  0  0
   15.6407   99.9879   50.2911 H   0  0  0  0  0  0
   17.0360   98.9476   50.7356 H   0  0  0  0  0  0
   20.0870  103.7468   46.4587 H   0  0  0  0  0  0
   19.7912  105.0915   45.3051 H   0  0  0  0  0  0
   16.1422  102.3140   49.2420 H   0  0  0  0  0  0
  1 15  1  0  0  0
  1 34  1  0  0  0
  1 35  1  0  0  0
  1 36  1  0  0  0
  2 26  1  0  0  0
  2 37  1  0  0  0
  2 38  1  0  0  0
  2 39  1  0  0  0
  3  8  3  0  0  0
  4 24  1  0  0  0
  5 25  2  0  0  0
  6 33  2  0  0  0
  7 33  2  0  0  0
  8 28  1  0  0  0
  9 10  2  0  0  0
  9 11  1  0  0  0
  9 40  1  0  0  0
 10 12  1  0  0  0
 10 41  1  0  0  0
 11 13  2  0  0  0
 11 42  1  0  0  0
 12 27  2  0  0  0
 12 43  1  0  0  0
 13 27  1  0  0  0
 13 44  1  0  0  0
 14 28  2  0  0  0
 14 29  1  0  0  0
 14 45  1  0  0  0
 15 23  1  0  0  0
 15 46  1  0  0  0
 15 47  1  0  0  0
 16 18  1  0  0  0
 16 31  1  0  0  0
 16 48  1  0  0  0
 16 49  1  0  0  0
 17 19  1  0  0  0
 17 31  1  0  0  0
 17 50  1  0  0  0
 17 51  1  0  0  0
 18 32  1  0  0  0
 18 52  1  0  0  0
 18 53  1  0  0  0
 19 32  1  0  0  0
 19 54  1  0  0  0
 19 55  1  0  0  0
 20 27  1  0  0  0
 20 33  1  0  0  0
 20 56  1  0  0  0
 20 57  1  0  0  0
 21 26  1  0  0  0
 21 30  2  0  0  0
 22 24  2  0  0  0
 22 33  1  0  0  0
 23 25  1  0  0  0
 24 31  1  0  0  0
 25 29  1  0  0  0
 26 29  2  0  0  0
 28 30  1  0  0  0
 30 32  1  0  0  0
 31 58  1  0  0  0
M  CHG  1   4  -1
M  END
> <s_m_source_file>
../4ntj_ligand.sdf

> <i_m_source_file_index>
1

> <s_epik_input>
W0NIM11bQ0gyXU9DKD1PKWMxW2NIXWMoQyNOKWMobmMxW0NIM10pTihbQ0gyXVtDSDJdMilbQ0gyXVtDSDJdW0NIXTJDKD1PKVtOSF1TKD1PKSg9TylbQ0gyXWMzW2NIXVtjSF1bY0hdW2NIXVtjSF0z

> <s_epik_cmdline>
J2VwaWtfYXBwJywgJy1pbWFlJywgJ2xpZ2FuZF9wcm8ubWFlJywgJy1vbWFlJywgJ2xpZ2FuZF9wcmVwLm1hZScsICctbXMnLCAnMScsICctcGgnLCAnNycsICctcGh0JywgJzAuNScsICctbnQn

> <r_lp_tautomer_probability>
1

> <r_epik_Ionization_Penalty>
  0.0074

> <r_epik_Ionization_Penalty_Charging>
  0.0074

> <r_epik_Ionization_Penalty_Neutral>
  0.0000

> <r_epik_State_Penalty>
 -0.0000

> <r_epik_Charging_Adjusted_Penalty>
0.00744715712456264

> <i_epik_Tot_Q>
-1

> <i_epik_Tot_abs_Q>
1

> <s_epik_Chemistry_Notes>
This compound has an ester and may undergo hydrolysis at high or low pH.

$$$$
