4nuf_ligand
                    3D
 Schrodinger Suite 2020-3.
259260  0  0  1  0            999 V2000
  -10.6650   23.9870  -93.8330 N   0  3  0  0  0  0
   -9.4150   23.8970  -93.0820 C   0  0  2  0  0  0
   -8.8480   25.2740  -92.7440 C   0  0  0  0  0  0
   -7.8340   25.3820  -92.0550 O   0  0  0  0  0  0
   -8.3750   23.1040  -93.8860 C   0  0  0  0  0  0
   -7.0240   22.9280  -93.1820 C   0  0  0  0  0  0
   -6.0740   21.4230  -93.6450 S   0  0  0  0  0  0
   -4.4290   22.1050  -93.8970 C   0  0  0  0  0  0
   -9.5020   26.3240  -93.2270 N   0  0  0  0  0  0
   -9.0280   27.6750  -92.9850 C   0  0  2  0  0  0
  -10.0770   28.4880  -92.2160 C   0  0  0  0  0  0
  -11.1130   27.9580  -91.7950 O   0  0  0  0  0  0
   -8.6660   28.3400  -94.3350 C   0  0  0  0  0  0
   -7.6310   29.4240  -94.2300 C   0  0  0  0  0  0
   -7.9530   30.7660  -94.2180 N   0  0  0  0  0  0
   -6.2840   29.3610  -94.0930 C   0  0  0  0  0  0
   -6.8510   31.4810  -94.0750 C   0  0  0  0  0  0
   -5.8240   30.6530  -93.9960 N   0  0  0  0  0  0
   -9.7670   29.7700  -92.0270 N   0  0  0  0  0  0
  -10.6020   30.7300  -91.3100 C   0  0  2  0  0  0
  -11.1860   30.2110  -90.0000 C   0  0  0  0  0  0
  -12.3590   30.4460  -89.7080 O   0  0  0  0  0  0
  -11.7240   31.2290  -92.2200 C   0  0  0  0  0  0
  -12.6890   30.1570  -92.6600 C   0  0  0  0  0  0
  -13.6620   30.7050  -93.6890 C   0  0  0  0  0  0
  -12.9710   31.0930  -94.9130 N   0  0  0  0  0  0
  -13.4300   30.8470  -96.1340 C   0  0  0  0  0  0
  -12.7300   31.2330  -97.1940 N   0  0  0  0  0  0
  -14.5870   30.2140  -96.2910 N   0  0  0  0  0  0
  -10.3650   29.5180  -89.2100 N   0  0  0  0  0  0
  -10.8130   28.9760  -87.9220 C   0  0  2  0  0  0
  -10.9830   30.1320  -86.9490 C   0  0  0  0  0  0
  -11.6970   30.0320  -85.9540 O   0  0  0  0  0  0
   -9.7990   27.9400  -87.3290 C   0  0  0  0  0  0
   -8.4980   28.6070  -86.9670 C   0  0  0  0  0  0
  -10.3940   27.2710  -86.1010 C   0  0  0  0  0  0
  -10.3150   31.2320  -87.2600 N   0  0  0  0  0  0
  -10.3960   32.4330  -86.4560 C   0  0  2  0  0  0
  -11.8440   32.9050  -86.2920 C   0  0  0  0  0  0
  -12.3470   33.0310  -85.1770 O   0  0  0  0  0  0
   -9.5890   33.5330  -87.1230 C   0  0  0  0  0  0
  -10.0210   34.8050  -86.6850 O   0  0  0  0  0  0
  -12.5070   33.1770  -87.4110 N   0  0  0  0  0  0
  -13.8860   33.6490  -87.3790 C   0  0  2  0  0  0
  -14.7830   32.6710  -86.6370 C   0  0  0  0  0  0
  -15.7440   33.0580  -85.9650 O   0  0  0  0  0  0
  -14.4040   33.8500  -88.7960 C   0  0  0  0  0  0
  -14.4650   31.3940  -86.7600 N   0  0  0  0  0  0
  -15.2530   30.3790  -86.1010 C   0  0  2  0  0  0
  -15.1180   30.4850  -84.5810 C   0  0  0  0  0  0
  -16.1090   30.5040  -83.8550 O   0  0  0  0  0  0
  -14.8150   29.0180  -86.5810 C   0  0  0  0  0  0
  -13.8840   30.5710  -84.1040 N   0  0  0  0  0  0
  -13.6290   30.6610  -82.6740 C   0  0  2  0  0  0
  -14.3480   31.8550  -82.0320 C   0  0  0  0  0  0
  -14.9830   31.7430  -80.9750 O   0  0  0  0  0  0
  -12.1130   30.7510  -82.4390 C   0  0  0  0  0  0
  -11.2700   29.5350  -82.8720 C   0  0  0  0  0  0
   -9.8160   29.8890  -82.8750 C   0  0  0  0  0  0
  -11.5010   28.3640  -81.9310 C   0  0  0  0  0  0
  -14.2640   33.0020  -82.6890 N   0  0  0  0  0  0
  -14.8780   34.2160  -82.1620 C   0  0  2  0  0  0
  -16.3820   34.0600  -81.9990 C   0  0  0  0  0  0
  -16.9740   34.5390  -81.0230 O   0  0  0  0  0  0
  -14.5620   35.3890  -83.0840 C   0  0  0  0  0  0
  -14.9970   36.7380  -82.5430 C   0  0  0  0  0  0
  -14.5000   37.9040  -83.3920 C   0  0  0  0  0  0
  -14.6440   39.0630  -82.9450 O   0  0  0  0  0  0
  -13.9670   37.6680  -84.5010 O   0  0  0  0  0  0
  -16.9840   33.3820  -82.9710 N   0  0  0  0  0  0
  -18.4200   33.1330  -82.9890 C   0  0  2  0  0  0
  -18.8120   32.0920  -81.9420 C   0  0  0  0  0  0
  -19.8100   32.2360  -81.2480 O   0  0  0  0  0  0
  -18.8350   32.6460  -84.3850 C   0  0  0  0  0  0
  -20.3020   32.2330  -84.5300 C   0  0  0  0  0  0
  -21.2720   33.4160  -84.5650 C   0  0  0  0  0  0
  -20.9320   34.4510  -85.1810 O   0  0  0  0  0  0
  -22.3830   33.3080  -83.9960 O   0  0  0  0  0  0
  -17.9960   31.0580  -81.8150 N   0  0  0  0  0  0
  -18.3000   29.9910  -80.8960 C   0  0  2  0  0  0
  -18.1460   30.3930  -79.4590 C   0  0  0  0  0  0
  -18.8460   29.8670  -78.6010 O   0  0  0  0  0  0
  -17.4250   28.8000  -81.1860 C   0  0  0  0  0  0
  -17.2340   31.3260  -79.1920 N   0  0  0  0  0  0
  -16.9740   31.7450  -77.8160 C   0  0  2  0  0  0
  -17.8540   32.9020  -77.3610 C   0  0  0  0  0  0
  -17.6860   33.4240  -76.2630 O   0  0  0  0  0  0
  -15.4840   32.0770  -77.6260 C   0  0  0  0  0  0
  -15.0590   32.0810  -76.1470 C   0  0  0  0  0  0
  -15.2920   31.1120  -75.4240 O   0  0  0  0  0  0
  -14.4270   33.1710  -75.7050 N   0  0  0  0  0  0
  -18.8050   33.2870  -78.2020 N   0  0  0  0  0  0
  -19.7250   34.3590  -77.8580 C   0  0  2  0  0  0
  -20.5010   34.0630  -76.5700 C   0  0  0  0  0  0
  -20.8670   34.9830  -75.8360 O   0  0  0  0  0  0
  -20.7200   34.5700  -78.9900 C   0  0  0  0  0  0
  -20.1860   35.3750  -80.1520 C   0  0  0  0  0  0
  -21.2210   35.4760  -81.2750 C   0  0  0  0  0  0
  -20.7800   36.4640  -82.3760 C   0  0  0  0  0  0
  -19.4310   36.1600  -82.9840 N   0  3  0  0  0  0
  -20.7610   32.7860  -76.2980 N   0  0  0  0  0  0
  -21.5120   32.4100  -75.1060 C   0  0  2  0  0  0
  -20.9220   32.9240  -73.8080 C   0  0  0  0  0  0
  -21.5980   32.8920  -72.7810 O   0  0  0  0  0  0
  -21.6470   30.8830  -74.9660 C   0  0  0  0  0  0
  -22.5170   30.3350  -76.0610 C   0  0  0  0  0  0
  -20.2890   30.2370  -75.0260 C   0  0  0  0  0  0
  -19.6660   33.3750  -73.8460 N   0  0  0  0  0  0
  -18.9760   33.8970  -72.6590 C   0  0  2  0  0  0
  -19.0290   35.4250  -72.5580 C   0  0  0  0  0  0
  -18.3300   36.0210  -71.7390 O   0  0  0  0  0  0
  -17.5000   33.4580  -72.6320 C   0  0  0  0  0  0
  -17.2920   32.0150  -72.2590 C   0  0  0  0  0  0
  -17.4950   31.0020  -73.1890 C   0  0  0  0  0  0
  -16.9070   31.6660  -70.9680 C   0  0  0  0  0  0
  -17.3230   29.6580  -72.8430 C   0  0  0  0  0  0
  -16.7330   30.3240  -70.6090 C   0  0  0  0  0  0
  -16.9420   29.3190  -71.5510 C   0  0  0  0  0  0
  -19.8500   36.0570  -73.3900 N   0  0  0  0  0  0
  -19.9810   37.5100  -73.3690 C   0  0  2  0  0  0
  -21.1690   37.9150  -72.5020 C   0  0  0  0  0  0
  -21.0100   38.5440  -71.4570 O   0  0  0  0  0  0
  -20.1870   38.0400  -74.7880 C   0  0  0  0  0  0
  -19.0980   37.6740  -75.7950 C   0  0  0  0  0  0
  -19.3950   38.3320  -77.1480 C   0  0  0  0  0  0
  -17.7400   38.1210  -75.2530 C   0  0  0  0  0  0
  -22.3342   37.5995  -72.8629 O   0  0  0  0  0  0
  -11.4032   24.5564  -93.2493 H   0  0  0  0  0  0
  -11.0510   22.9750  -94.0250 H   0  0  0  0  0  0
  -10.4818   24.4973  -94.7901 H   0  0  0  0  0  0
   -9.6884   23.3808  -92.1499 H   0  0  0  0  0  0
   -8.7619   22.0949  -94.0913 H   0  0  0  0  0  0
   -8.1748   23.6203  -94.8365 H   0  0  0  0  0  0
   -6.3753   23.7856  -93.4138 H   0  0  0  0  0  0
   -7.1817   22.8708  -92.0949 H   0  0  0  0  0  0
   -3.7382   21.2990  -94.1855 H   0  0  0  0  0  0
   -4.0789   22.5719  -92.9646 H   0  0  0  0  0  0
   -4.4639   22.8612  -94.6951 H   0  0  0  0  0  0
  -10.4151   26.1590  -93.8179 H   0  0  0  0  0  0
   -8.1342   27.5772  -92.3514 H   0  0  0  0  0  0
   -8.2681   27.5797  -95.0232 H   0  0  0  0  0  0
   -9.5667   28.7953  -94.7727 H   0  0  0  0  0  0
   -5.5757   28.5204  -94.0518 H   0  0  0  0  0  0
   -6.7980   32.5688  -94.0299 H   0  0  0  0  0  0
   -8.8061   30.0898  -92.4564 H   0  0  0  0  0  0
   -9.8917   31.5292  -91.0515 H   0  0  0  0  0  0
  -12.3119   31.9939  -91.6915 H   0  0  0  0  0  0
  -11.2900   31.6652  -93.1318 H   0  0  0  0  0  0
  -12.1301   29.3216  -93.1069 H   0  0  0  0  0  0
  -13.2563   29.7948  -91.7900 H   0  0  0  0  0  0
  -14.4073   29.9345  -93.9357 H   0  0  0  0  0  0
  -14.1711   31.5892  -93.2779 H   0  0  0  0  0  0
  -12.0088   31.6231  -94.8570 H   0  0  0  0  0  0
  -11.7722   31.7570  -97.0596 H   0  0  0  0  0  0
  -15.1639   29.8959  -95.4101 H   0  0  0  0  0  0
  -14.9684   30.0079  -97.3020 H   0  0  0  0  0  0
   -9.3296   29.3564  -89.5445 H   0  0  0  0  0  0
  -11.7745   28.4833  -88.1289 H   0  0  0  0  0  0
   -9.5684   27.1657  -88.0756 H   0  0  0  0  0  0
   -8.0724   29.0892  -87.8594 H   0  0  0  0  0  0
   -7.7931   27.8533  -86.5861 H   0  0  0  0  0  0
   -8.6784   29.3656  -86.1911 H   0  0  0  0  0  0
  -11.3435   26.7859  -86.3716 H   0  0  0  0  0  0
  -10.5772   28.0276  -85.3238 H   0  0  0  0  0  0
   -9.6920   26.5153  -85.7188 H   0  0  0  0  0  0
   -9.6838   31.2146  -88.1607 H   0  0  0  0  0  0
   -9.9768   32.1553  -85.4777 H   0  0  0  0  0  0
   -8.5253   33.4122  -86.8700 H   0  0  0  0  0  0
   -9.7157   33.4707  -88.2139 H   0  0  0  0  0  0
   -9.5379   35.7137  -87.0734 H   0  0  0  0  0  0
  -11.9949   33.0396  -88.3748 H   0  0  0  0  0  0
  -13.8584   34.6060  -86.8373 H   0  0  0  0  0  0
  -13.7516   34.5581  -89.3279 H   0  0  0  0  0  0
  -15.4275   34.2514  -88.7587 H   0  0  0  0  0  0
  -14.4073   32.8858  -89.3254 H   0  0  0  0  0  0
  -13.5949   31.1061  -87.3683 H   0  0  0  0  0  0
  -16.2973   30.5632  -86.3933 H   0  0  0  0  0  0
  -14.9200   28.9636  -87.6746 H   0  0  0  0  0  0
  -15.4424   28.2449  -86.1134 H   0  0  0  0  0  0
  -13.7631   28.8529  -86.3050 H   0  0  0  0  0  0
  -13.0436   30.5734  -84.8138 H   0  0  0  0  0  0
  -14.0479   29.7381  -82.2466 H   0  0  0  0  0  0
  -11.7061   31.6087  -82.9947 H   0  0  0  0  0  0
  -11.9156   30.8831  -81.3649 H   0  0  0  0  0  0
  -11.5529   29.2380  -83.8927 H   0  0  0  0  0  0
   -9.6464   30.7364  -83.5555 H   0  0  0  0  0  0
   -9.2285   29.0231  -83.2142 H   0  0  0  0  0  0
   -9.5044   30.1677  -81.8575 H   0  0  0  0  0  0
  -12.5693   28.1020  -81.9272 H   0  0  0  0  0  0
  -11.1884   28.6436  -80.9141 H   0  0  0  0  0  0
  -10.9125   27.4990  -82.2708 H   0  0  0  0  0  0
  -13.7214   33.0307  -83.6454 H   0  0  0  0  0  0
  -14.4340   34.3684  -81.1672 H   0  0  0  0  0  0
  -13.4760   35.4423  -83.2504 H   0  0  0  0  0  0
  -15.0739   35.2466  -84.0472 H   0  0  0  0  0  0
  -16.0957   36.7857  -82.5172 H   0  0  0  0  0  0
  -14.6003   36.8703  -81.5256 H   0  0  0  0  0  0
  -13.6037   38.4983  -85.1245 H   0  0  0  0  0  0
  -16.3498   33.0027  -83.7858 H   0  0  0  0  0  0
  -18.8929   34.0945  -82.7402 H   0  0  0  0  0  0
  -18.6645   33.4477  -85.1187 H   0  0  0  0  0  0
  -18.2362   31.7649  -84.6590 H   0  0  0  0  0  0
  -20.4342   31.6726  -85.4673 H   0  0  0  0  0  0
  -20.5899   31.5978  -83.6793 H   0  0  0  0  0  0
  -23.0927   34.1483  -84.0111 H   0  0  0  0  0  0
  -17.0780   31.0182  -82.4197 H   0  0  0  0  0  0
  -19.3620   29.7695  -81.0777 H   0  0  0  0  0  0
  -17.5405   28.5082  -82.2403 H   0  0  0  0  0  0
  -17.7211   27.9613  -80.5388 H   0  0  0  0  0  0
  -16.3743   29.0607  -80.9907 H   0  0  0  0  0  0
  -16.6735   31.7825  -80.0212 H   0  0  0  0  0  0
  -17.2608   30.8681  -77.2170 H   0  0  0  0  0  0
  -14.8718   31.3282  -78.1499 H   0  0  0  0  0  0
  -15.2752   33.0750  -78.0387 H   0  0  0  0  0  0
  -14.2404   34.0133  -76.3874 H   0  0  0  0  0  0
  -14.0930   33.2267  -74.6584 H   0  0  0  0  0  0
  -18.8905   32.7797  -79.1743 H   0  0  0  0  0  0
  -19.0788   35.2376  -77.7152 H   0  0  0  0  0  0
  -21.0298   33.5943  -79.3925 H   0  0  0  0  0  0
  -21.6016   35.1057  -78.6082 H   0  0  0  0  0  0
  -19.9372   36.3907  -79.8108 H   0  0  0  0  0  0
  -19.2822   34.8901  -80.5495 H   0  0  0  0  0  0
  -21.3603   34.4867  -81.7353 H   0  0  0  0  0  0
  -22.1782   35.8259  -80.8611 H   0  0  0  0  0  0
  -21.5123   36.4491  -83.1967 H   0  0  0  0  0  0
  -20.7209   37.4788  -81.9558 H   0  0  0  0  0  0
  -19.1987   36.9100  -83.7544 H   0  0  0  0  0  0
  -19.4517   35.1595  -83.4406 H   0  0  0  0  0  0
  -18.6603   36.1892  -82.1996 H   0  0  0  0  0  0
  -20.4000   32.0094  -76.9884 H   0  0  0  0  0  0
  -22.4692   32.9156  -75.3013 H   0  0  0  0  0  0
  -22.1116   30.6347  -74.0003 H   0  0  0  0  0  0
  -23.5083   30.8095  -76.0138 H   0  0  0  0  0  0
  -22.6245   29.2476  -75.9343 H   0  0  0  0  0  0
  -22.0553   30.5466  -77.0367 H   0  0  0  0  0  0
  -19.6551   30.6408  -74.2228 H   0  0  0  0  0  0
  -19.8251   30.4485  -76.0007 H   0  0  0  0  0  0
  -20.3943   29.1495  -74.8983 H   0  0  0  0  0  0
  -19.1467   33.3450  -74.8153 H   0  0  0  0  0  0
  -19.5490   33.4538  -71.8312 H   0  0  0  0  0  0
  -17.0568   33.6007  -73.6286 H   0  0  0  0  0  0
  -16.9507   34.0637  -71.8963 H   0  0  0  0  0  0
  -17.7933   31.2596  -74.2052 H   0  0  0  0  0  0
  -16.7388   32.4474  -70.2269 H   0  0  0  0  0  0
  -17.4877   28.8777  -73.5860 H   0  0  0  0  0  0
  -16.4342   30.0656  -69.5931 H   0  0  0  0  0  0
  -16.8073   28.2730  -71.2758 H   0  0  0  0  0  0
  -20.4377   35.4621  -74.1046 H   0  0  0  0  0  0
  -19.0426   37.8949  -72.9433 H   0  0  0  0  0  0
  -21.1292   37.6435  -75.1943 H   0  0  0  0  0  0
  -20.2308   39.1389  -74.7662 H   0  0  0  0  0  0
  -19.0772   36.5838  -75.9403 H   0  0  0  0  0  0
  -20.3757   37.9931  -77.5131 H   0  0  0  0  0  0
  -18.6165   38.0493  -77.8719 H   0  0  0  0  0  0
  -19.4058   39.4255  -77.0294 H   0  0  0  0  0  0
  -17.5538   37.6346  -74.2841 H   0  0  0  0  0  0
  -17.7393   39.2131  -75.1212 H   0  0  0  0  0  0
  -16.9500   37.8369  -75.9638 H   0  0  0  0  0  0
  -23.1980   37.8865  -72.2452 H   0  0  0  0  0  0
  1  2  1  0  0  0
  1128  1  0  0  0
  1129  1  0  0  0
  1130  1  0  0  0
  2  3  1  0  0  0
  2  5  1  0  0  0
  2131  1  0  0  0
  3  4  2  0  0  0
  3  9  1  0  0  0
  5  6  1  0  0  0
  5132  1  0  0  0
  5133  1  0  0  0
  6  7  1  0  0  0
  6134  1  0  0  0
  6135  1  0  0  0
  7  8  1  0  0  0
  8136  1  0  0  0
  8137  1  0  0  0
  8138  1  0  0  0
  9 10  1  0  0  0
  9139  1  0  0  0
 10 11  1  0  0  0
 10 13  1  0  0  0
 10140  1  0  0  0
 11 12  2  0  0  0
 11 19  1  0  0  0
 13 14  1  0  0  0
 13141  1  0  0  0
 13142  1  0  0  0
 14 15  2  0  0  0
 14 16  1  0  0  0
 15 17  1  0  0  0
 16 18  2  0  0  0
 16143  1  0  0  0
 17 18  1  0  0  0
 17144  1  0  0  0
 19 20  1  0  0  0
 19145  1  0  0  0
 20 21  1  0  0  0
 20 23  1  0  0  0
 20146  1  0  0  0
 21 22  2  0  0  0
 21 30  1  0  0  0
 23 24  1  0  0  0
 23147  1  0  0  0
 23148  1  0  0  0
 24 25  1  0  0  0
 24149  1  0  0  0
 24150  1  0  0  0
 25 26  1  0  0  0
 25151  1  0  0  0
 25152  1  0  0  0
 26 27  1  0  0  0
 26153  1  0  0  0
 27 28  2  0  0  0
 27 29  1  0  0  0
 28154  1  0  0  0
 29155  1  0  0  0
 29156  1  0  0  0
 30 31  1  0  0  0
 30157  1  0  0  0
 31 32  1  0  0  0
 31 34  1  0  0  0
 31158  1  0  0  0
 32 33  2  0  0  0
 32 37  1  0  0  0
 34 35  1  0  0  0
 34 36  1  0  0  0
 34159  1  0  0  0
 35160  1  0  0  0
 35161  1  0  0  0
 35162  1  0  0  0
 36163  1  0  0  0
 36164  1  0  0  0
 36165  1  0  0  0
 37 38  1  0  0  0
 37166  1  0  0  0
 38 39  1  0  0  0
 38 41  1  0  0  0
 38167  1  0  0  0
 39 40  2  0  0  0
 39 43  1  0  0  0
 41 42  1  0  0  0
 41168  1  0  0  0
 41169  1  0  0  0
 42170  1  0  0  0
 43 44  1  0  0  0
 43171  1  0  0  0
 44 45  1  0  0  0
 44 47  1  0  0  0
 44172  1  0  0  0
 45 46  2  0  0  0
 45 48  1  0  0  0
 47173  1  0  0  0
 47174  1  0  0  0
 47175  1  0  0  0
 48 49  1  0  0  0
 48176  1  0  0  0
 49 50  1  0  0  0
 49 52  1  0  0  0
 49177  1  0  0  0
 50 51  2  0  0  0
 50 53  1  0  0  0
 52178  1  0  0  0
 52179  1  0  0  0
 52180  1  0  0  0
 53 54  1  0  0  0
 53181  1  0  0  0
 54 55  1  0  0  0
 54 57  1  0  0  0
 54182  1  0  0  0
 55 56  2  0  0  0
 55 61  1  0  0  0
 57 58  1  0  0  0
 57183  1  0  0  0
 57184  1  0  0  0
 58 59  1  0  0  0
 58 60  1  0  0  0
 58185  1  0  0  0
 59186  1  0  0  0
 59187  1  0  0  0
 59188  1  0  0  0
 60189  1  0  0  0
 60190  1  0  0  0
 60191  1  0  0  0
 61 62  1  0  0  0
 61192  1  0  0  0
 62 63  1  0  0  0
 62 65  1  0  0  0
 62193  1  0  0  0
 63 64  2  0  0  0
 63 70  1  0  0  0
 65 66  1  0  0  0
 65194  1  0  0  0
 65195  1  0  0  0
 66 67  1  0  0  0
 66196  1  0  0  0
 66197  1  0  0  0
 67 68  2  0  0  0
 67 69  1  0  0  0
 69198  1  0  0  0
 70 71  1  0  0  0
 70199  1  0  0  0
 71 72  1  0  0  0
 71 74  1  0  0  0
 71200  1  0  0  0
 72 73  2  0  0  0
 72 79  1  0  0  0
 74 75  1  0  0  0
 74201  1  0  0  0
 74202  1  0  0  0
 75 76  1  0  0  0
 75203  1  0  0  0
 75204  1  0  0  0
 76 77  2  0  0  0
 76 78  1  0  0  0
 78205  1  0  0  0
 79 80  1  0  0  0
 79206  1  0  0  0
 80 81  1  0  0  0
 80 83  1  0  0  0
 80207  1  0  0  0
 81 82  2  0  0  0
 81 84  1  0  0  0
 83208  1  0  0  0
 83209  1  0  0  0
 83210  1  0  0  0
 84 85  1  0  0  0
 84211  1  0  0  0
 85 86  1  0  0  0
 85 88  1  0  0  0
 85212  1  0  0  0
 86 87  2  0  0  0
 86 92  1  0  0  0
 88 89  1  0  0  0
 88213  1  0  0  0
 88214  1  0  0  0
 89 90  2  0  0  0
 89 91  1  0  0  0
 91215  1  0  0  0
 91216  1  0  0  0
 92 93  1  0  0  0
 92217  1  0  0  0
 93 94  1  0  0  0
 93 96  1  0  0  0
 93218  1  0  0  0
 94 95  2  0  0  0
 94101  1  0  0  0
 96 97  1  0  0  0
 96219  1  0  0  0
 96220  1  0  0  0
 97 98  1  0  0  0
 97221  1  0  0  0
 97222  1  0  0  0
 98 99  1  0  0  0
 98223  1  0  0  0
 98224  1  0  0  0
 99100  1  0  0  0
 99225  1  0  0  0
 99226  1  0  0  0
100227  1  0  0  0
100228  1  0  0  0
100229  1  0  0  0
101102  1  0  0  0
101230  1  0  0  0
102103  1  0  0  0
102105  1  0  0  0
102231  1  0  0  0
103104  2  0  0  0
103108  1  0  0  0
105106  1  0  0  0
105107  1  0  0  0
105232  1  0  0  0
106233  1  0  0  0
106234  1  0  0  0
106235  1  0  0  0
107236  1  0  0  0
107237  1  0  0  0
107238  1  0  0  0
108109  1  0  0  0
108239  1  0  0  0
109110  1  0  0  0
109112  1  0  0  0
109240  1  0  0  0
110111  2  0  0  0
110119  1  0  0  0
112113  1  0  0  0
112241  1  0  0  0
112242  1  0  0  0
113114  2  0  0  0
113115  1  0  0  0
114116  1  0  0  0
114243  1  0  0  0
115117  2  0  0  0
115244  1  0  0  0
116118  2  0  0  0
116245  1  0  0  0
117118  1  0  0  0
117246  1  0  0  0
118247  1  0  0  0
119120  1  0  0  0
119248  1  0  0  0
120121  1  0  0  0
120123  1  0  0  0
120249  1  0  0  0
121122  2  0  0  0
121127  1  0  0  0
123124  1  0  0  0
123250  1  0  0  0
123251  1  0  0  0
124125  1  0  0  0
124126  1  0  0  0
124252  1  0  0  0
125253  1  0  0  0
125254  1  0  0  0
125255  1  0  0  0
126256  1  0  0  0
126257  1  0  0  0
126258  1  0  0  0
127259  1  0  0  0
M  CHG  2   1   1 100   1
M  END
> <s_m_source_file>
../4nuf_ligand.sdf

> <i_m_source_file_index>
1

> <s_epik_input>
W0NIM11TW0NIMl1bQ0gyXVtDQEhdKFtOSDMrXSlDKD1PKVtOSF1bQ0BASF0oW0NIMl1DMT1OW0NIMl1OPVtDSF0xKUMoPU8pW05IXVtDQEBIXShbQ0gyXVtDSDJdW0NIMl1bTkhdL0MoPU5cW0hdKVtOSDJdKUMoPU8pW05IXVtDQEBIXShbQ0hdKFtDSDNdKVtDSDNdKUMoPU8pW05IXVtDQEBIXShbQ0gyXVtPSF0pQyg9TylbTkhdW0NAQEhdKFtDSDNdKUMoPU8pW05IXVtDQEBIXShbQ0gzXSlDKD1PKVtOSF1bQ0BASF0oW0NIMl1bQ0hdKFtDSDNdKVtDSDNdKUMoPU8pW05IXVtDQEBIXShbQ0gyXVtDSDJdQyg9TylbT0hdKUMoPU8pW05IXVtDQEBIXShbQ0gyXVtDSDJdQyg9TylbT0hdKUMoPU8pW05IXVtDQEBIXShbQ0gzXSlDKD1PKVtOSF1bQ0BASF0oW0NIMl1DKD1PKVtOSDJdKUMoPU8pW05IXVtDQEBIXShbQ0gyXVtDSDJdW0NIMl1bQ0gyXVtOSDMrXSlDKD1PKVtOSF1bQ0BASF0oW0NIXShbQ0gzXSlbQ0gzXSlDKD1PKVtOSF1bQ0BIXShDKD1PKVtOSF1bQ0BIXShDKD1PKVtPSF0pW0NIMl1bQ0hdKFtDSDNdKVtDSDNdKVtDSDJdYzJbY0hdW2NIXVtjSF1bY0hdW2NIXTI=

> <s_epik_cmdline>
J2VwaWtfYXBwJywgJy1pbWFlJywgJ2xpZ2FuZF9wcm8ubWFlJywgJy1vbWFlJywgJ2xpZ2FuZF9wcmVwLm1hZScsICctbXMnLCAnMScsICctcGgnLCAnNycsICctcGh0JywgJzAuNScsICctbnQn

> <s_epik_pKa_notes>
Molecule size exceeds maximum supported for generating protonation states

> <s_epik_Chemistry_Notes>
This compound has an imine and may undergo hydrolysis.

$$$$
