4nus_ligand
                    3D
 Schrodinger Suite 2020-3.
 50 53  0  0  1  0            999 V2000
  -15.8240    2.2260  -26.8690 C   0  0  0  0  0  0
  -17.1200    1.9860  -27.0890 N   0  0  0  0  0  0
  -17.9500    3.0310  -27.0680 C   0  0  0  0  0  0
  -17.5500    4.3290  -26.8050 C   0  0  0  0  0  0
  -16.1990    4.5740  -26.5410 C   0  0  0  0  0  0
  -15.2940    3.4880  -26.6080 C   0  0  0  0  0  0
  -13.8210    3.6330  -26.4250 C   0  0  0  0  0  0
  -15.8330    5.9520  -26.0930 C   0  0  0  0  0  0
  -13.1430    2.8640  -25.4720 C   0  0  0  0  0  0
  -11.8140    3.0890  -25.2130 C   0  0  0  0  0  0
  -11.1100    4.0720  -25.8800 C   0  0  0  0  0  0
  -11.7810    4.8030  -26.8370 C   0  0  0  0  0  0
  -13.1030    4.5960  -27.1380 C   0  0  0  0  0  0
  -11.1840    2.3200  -24.2910 F   0  0  0  0  0  0
  -16.2530    7.0730  -26.8050 C   0  0  0  0  0  0
  -15.8560    8.3480  -26.4390 C   0  0  0  0  0  0
  -15.0250    8.5490  -25.3280 C   0  0  0  0  0  0
  -14.6190    7.4270  -24.5980 C   0  0  0  0  0  0
  -15.0350    6.1570  -24.9660 C   0  0  0  0  0  0
   -9.8270    4.4380  -25.7010 O   0  0  0  0  0  0
  -11.1090    5.7920  -27.4660 F   0  0  0  0  0  0
  -14.6490    9.8620  -24.9210 N   0  0  0  0  0  0
  -15.3580   10.9590  -25.5920 C   0  0  0  0  0  0
  -14.7410   12.3030  -25.2500 C   0  0  0  0  0  0
  -14.7180   12.5130  -23.8050 N   0  3  0  0  0  0
  -13.9290   11.4580  -23.1720 C   0  0  0  0  0  0
  -14.5150   10.0830  -23.4750 C   0  0  0  0  0  0
  -14.1690   13.8400  -23.4820 C   0  0  0  0  0  0
  -15.1372    1.3800  -26.8954 H   0  0  0  0  0  0
  -19.0059    2.8510  -27.2701 H   0  0  0  0  0  0
  -18.2735    5.1443  -26.8036 H   0  0  0  0  0  0
  -13.6744    2.0807  -24.9315 H   0  0  0  0  0  0
  -13.5873    5.1757  -27.9238 H   0  0  0  0  0  0
  -16.9071    6.9440  -27.6673 H   0  0  0  0  0  0
  -16.1935    9.2053  -27.0214 H   0  0  0  0  0  0
  -13.9695    7.5525  -23.7317 H   0  0  0  0  0  0
  -14.7328    5.3007  -24.3630 H   0  0  0  0  0  0
   -9.2045    3.9160  -24.9594 H   0  0  0  0  0  0
  -15.3064   10.8167  -26.6815 H   0  0  0  0  0  0
  -16.4105   10.9650  -25.2725 H   0  0  0  0  0  0
  -13.7091   12.3399  -25.6292 H   0  0  0  0  0  0
  -15.3313   13.1064  -25.7148 H   0  0  0  0  0  0
  -15.7480   12.4644  -23.4220 H   0  0  0  0  0  0
  -12.8972   11.4938  -23.5517 H   0  0  0  0  0  0
  -13.9240   11.6076  -22.0822 H   0  0  0  0  0  0
  -15.5049   10.0140  -23.0003 H   0  0  0  0  0  0
  -13.8493    9.3188  -23.0474 H   0  0  0  0  0  0
  -14.7775   14.6168  -23.9681 H   0  0  0  0  0  0
  -13.1325   13.9060  -23.8443 H   0  0  0  0  0  0
  -14.1868   13.9888  -22.3923 H   0  0  0  0  0  0
  1  2  2  0  0  0
  1  6  1  0  0  0
  1 29  1  0  0  0
  2  3  1  0  0  0
  3  4  2  0  0  0
  3 30  1  0  0  0
  4  5  1  0  0  0
  4 31  1  0  0  0
  5  6  2  0  0  0
  5  8  1  0  0  0
  6  7  1  0  0  0
  7  9  2  0  0  0
  7 13  1  0  0  0
  8 15  2  0  0  0
  8 19  1  0  0  0
  9 10  1  0  0  0
  9 32  1  0  0  0
 10 11  2  0  0  0
 10 14  1  0  0  0
 11 12  1  0  0  0
 11 20  1  0  0  0
 12 13  2  0  0  0
 12 21  1  0  0  0
 13 33  1  0  0  0
 15 16  1  0  0  0
 15 34  1  0  0  0
 16 17  2  0  0  0
 16 35  1  0  0  0
 17 18  1  0  0  0
 17 22  1  0  0  0
 18 19  2  0  0  0
 18 36  1  0  0  0
 19 37  1  0  0  0
 20 38  1  0  0  0
 22 23  1  0  0  0
 22 27  1  0  0  0
 23 24  1  0  0  0
 23 39  1  0  0  0
 23 40  1  0  0  0
 24 25  1  0  0  0
 24 41  1  0  0  0
 24 42  1  0  0  0
 25 26  1  0  0  0
 25 28  1  0  0  0
 25 43  1  0  0  0
 26 27  1  0  0  0
 26 44  1  0  0  0
 26 45  1  0  0  0
 27 46  1  0  0  0
 27 47  1  0  0  0
 28 48  1  0  0  0
 28 49  1  0  0  0
 28 50  1  0  0  0
M  CHG  1  25   1
M  END
> <s_m_source_file>
../4nus_ligand.sdf

> <i_m_source_file_index>
1

> <s_epik_input>
W2NIXTFjKEYpYyhbT0hdKWMoRilbY0hdYzEtYzJbY0hdbltjSF1bY0hdYzItYzNbY0hdW2NIXWMoW2NIXVtjSF0zKU40W0NIMl1bQ0gyXVtOSCtdKFtDSDNdKVtDSDJdW0NIMl00

> <s_epik_cmdline>
J2VwaWtfYXBwJywgJy1pbWFlJywgJ2xpZ2FuZF9wcm8ubWFlJywgJy1vbWFlJywgJ2xpZ2FuZF9wcmVwLm1hZScsICctbXMnLCAnMScsICctcGgnLCAnNycsICctcGh0JywgJzAuNScsICctbnQn

> <r_lp_tautomer_probability>
0.999999999997365

> <r_epik_Ionization_Penalty>
  0.3699

> <r_epik_Ionization_Penalty_Charging>
  0.0647

> <r_epik_Ionization_Penalty_Neutral>
  0.3051

> <r_epik_State_Penalty>
  0.2960

> <r_epik_Charging_Adjusted_Penalty>
0.360720890334111

> <i_epik_Tot_Q>
1

> <i_epik_Tot_abs_Q>
1

$$$$
