4nvq_ligand
                    3D
 Schrodinger Suite 2020-3.
 53 56  0  0  1  0            999 V2000
   -7.4980    7.0850   12.4230 N   0  3  0  0  0  0
   -6.8760   16.8430   10.3700 N   0  0  0  0  0  0
   -9.0400   14.4110   11.9520 C   0  0  0  0  0  0
   -7.7030   13.8650   11.9600 C   0  0  0  0  0  0
   -7.4000   12.6060   12.4960 C   0  0  0  0  0  0
   -8.5060   11.8430   13.0090 C   0  0  0  0  0  0
   -6.8790   10.0730   13.4050 C   0  0  0  0  0  0
   -7.7130    7.6260   13.8050 C   0  0  0  0  0  0
   -6.4540    5.6920   10.8050 C   0  0  0  0  0  0
   -7.4690   15.8060   10.9930 C   0  0  0  0  0  0
   -9.5070   16.9780   12.2580 C   0  0  0  0  0  0
   -8.9770   15.8010   11.3570 C   0  0  0  0  0  0
   -9.9780   16.2470   10.2350 C   0  0  0  0  0  0
  -10.6400   17.2470   11.2330 C   0  0  0  0  0  0
  -10.1150   13.6950   12.4590 C   0  0  0  0  0  0
   -6.7780   14.7230   11.3460 N   0  3  0  0  0  0
   -9.8650   12.3930   13.0010 C   0  0  0  0  0  0
  -10.8360   11.5820   13.5470 O   0  0  0  0  0  0
  -12.1900   12.0150   13.6560 C   0  0  0  0  0  0
   -8.2690   10.5500   13.4690 O   0  0  0  0  0  0
   -6.7510    8.7760   14.2400 C   0  0  0  0  0  0
   -6.2590    6.2380   12.2230 C   0  0  0  0  0  0
   -7.9650    5.3670   10.7580 C   0  0  0  0  0  0
   -8.6220    6.2600   11.8600 C   0  0  0  0  0  0
   -7.4129    8.0470   11.8965 H   0  0  0  0  0  0
   -7.4675   17.7266   10.0883 H   0  0  0  0  0  0
   -6.3792   12.2249   12.5227 H   0  0  0  0  0  0
   -6.6096    9.8679   12.3584 H   0  0  0  0  0  0
   -6.2078   10.8435   13.8122 H   0  0  0  0  0  0
   -8.7327    8.0304   13.8859 H   0  0  0  0  0  0
   -7.5795    6.8184   14.5398 H   0  0  0  0  0  0
   -6.1652    6.4608   10.0732 H   0  0  0  0  0  0
   -5.8263    4.7994   10.6662 H   0  0  0  0  0  0
   -9.7841   16.5860   13.2477 H   0  0  0  0  0  0
   -8.7184   17.7365   12.3717 H   0  0  0  0  0  0
   -9.4153   16.6575    9.3836 H   0  0  0  0  0  0
  -10.5657   15.3789    9.9017 H   0  0  0  0  0  0
  -11.6084   16.9717   11.6762 H   0  0  0  0  0  0
  -10.6485   18.3145   10.9675 H   0  0  0  0  0  0
  -11.1220   14.1119   12.4452 H   0  0  0  0  0  0
   -5.7011   14.6630   11.1297 H   0  0  0  0  0  0
  -12.7934   11.2192   14.1170 H   0  0  0  0  0  0
  -12.5845   12.2407   12.6543 H   0  0  0  0  0  0
  -12.2366   12.9192   14.2808 H   0  0  0  0  0  0
   -5.7266    8.3845   14.1545 H   0  0  0  0  0  0
   -6.9727    8.9956   15.2948 H   0  0  0  0  0  0
   -5.3637    6.8701   12.3172 H   0  0  0  0  0  0
   -6.2299    5.4452   12.9849 H   0  0  0  0  0  0
   -8.3606    5.6062    9.7599 H   0  0  0  0  0  0
   -8.1167    4.2975   10.9658 H   0  0  0  0  0  0
   -9.0668    5.6512   12.6609 H   0  0  0  0  0  0
   -9.3887    6.9254   11.4364 H   0  0  0  0  0  0
   -5.8003   16.8061   10.1430 H   0  0  0  0  0  0
  1  8  1  0  0  0
  1 22  1  0  0  0
  1 24  1  0  0  0
  1 25  1  0  0  0
  2 10  1  0  0  0
  2 26  1  0  0  0
  2 53  1  0  0  0
  3  4  2  0  0  0
  3 12  1  0  0  0
  3 15  1  0  0  0
  4  5  1  0  0  0
  4 16  1  0  0  0
  5  6  2  0  0  0
  5 27  1  0  0  0
  6 17  1  0  0  0
  6 20  1  0  0  0
  7 20  1  0  0  0
  7 21  1  0  0  0
  7 28  1  0  0  0
  7 29  1  0  0  0
  8 21  1  0  0  0
  8 30  1  0  0  0
  8 31  1  0  0  0
  9 22  1  0  0  0
  9 23  1  0  0  0
  9 32  1  0  0  0
  9 33  1  0  0  0
 10 12  1  0  0  0
 10 16  2  0  0  0
 11 12  1  0  0  0
 11 14  1  0  0  0
 11 34  1  0  0  0
 11 35  1  0  0  0
 12 13  1  0  0  0
 13 14  1  0  0  0
 13 36  1  0  0  0
 13 37  1  0  0  0
 14 38  1  0  0  0
 14 39  1  0  0  0
 15 17  2  0  0  0
 15 40  1  0  0  0
 16 41  1  0  0  0
 17 18  1  0  0  0
 18 19  1  0  0  0
 19 42  1  0  0  0
 19 43  1  0  0  0
 19 44  1  0  0  0
 21 45  1  0  0  0
 21 46  1  0  0  0
 22 47  1  0  0  0
 22 48  1  0  0  0
 23 24  1  0  0  0
 23 49  1  0  0  0
 23 50  1  0  0  0
 24 51  1  0  0  0
 24 52  1  0  0  0
M  CHG  2   1   1  16   1
M  END
> <s_m_source_file>
../4nvq_ligand.sdf

> <i_m_source_file_index>
1

> <s_epik_input>
W0NIMl0xW0NIMl1bQ0gyXVtDSDJdW05IK10xW0NIMl1bQ0gyXVtDSDJdT2MoYyhbY0hdMilPW0NIM10pW2NIXWMoW05IXUNcMz1OXFtIXSljMkMzNFtDSDJdW0NIMl1bQ0gyXTQ=

> <s_epik_cmdline>
J2VwaWtfYXBwJywgJy1pbWFlJywgJ2xpZ2FuZF9wcm8ubWFlJywgJy1vbWFlJywgJ2xpZ2FuZF9wcmVwLm1hZScsICctbXMnLCAnMScsICctcGgnLCAnNycsICctcGh0JywgJzAuNScsICctbnQn

> <r_lp_tautomer_probability>
1

> <r_epik_Ionization_Penalty>
  0.0025

> <r_epik_Ionization_Penalty_Charging>
  0.0025

> <r_epik_Ionization_Penalty_Neutral>
  0.0000

> <r_epik_State_Penalty>
 -0.0000

> <r_epik_Charging_Adjusted_Penalty>
0.00254885164497697

> <i_epik_Tot_Q>
2

> <i_epik_Tot_abs_Q>
2

> <s_epik_Chemistry_Notes>
This compound has an imine and may undergo hydrolysis.

$$$$
