4nw2_ligand
                    3D
 Schrodinger Suite 2020-3.
201200  0  0  1  0            999 V2000
   49.3530   -2.3500  -11.9420 N   0  3  0  0  0  0
   48.7420   -3.6220  -11.5570 C   0  0  2  0  0  0
   47.9580   -4.2530  -12.6930 C   0  0  0  0  0  0
   47.0080   -3.6540  -13.1800 O   0  0  0  0  0  0
   47.8180   -3.2190  -10.4140 C   0  0  0  0  0  0
   48.5550   -2.1080   -9.7500 C   0  0  0  0  0  0
   49.3870   -1.4070  -10.8110 C   0  0  0  0  0  0
   48.3540   -5.4540  -13.1010 N   0  0  0  0  0  0
   47.6930   -6.1340  -14.2030 C   0  0  2  0  0  0
   46.2800   -6.5540  -13.8200 C   0  0  0  0  0  0
   46.0620   -7.1760  -12.7790 O   0  0  0  0  0  0
   48.5050   -7.3520  -14.6460 C   0  0  0  0  0  0
   45.3210   -6.2010  -14.6670 N   0  0  0  0  0  0
   43.9410   -6.6160  -14.4740 C   0  0  2  0  0  0
   43.7270   -7.9850  -15.1100 C   0  0  0  0  0  0
   43.9100   -8.1530  -16.3180 O   0  0  0  0  0  0
   42.9770   -5.5830  -15.0650 C   0  0  0  0  0  0
   43.1280   -4.1890  -14.4680 C   0  0  0  0  0  0
   43.3540   -8.9600  -14.2860 N   0  0  0  0  0  0
   43.1660  -10.3310  -14.7450 C   0  0  2  0  0  0
   41.6930  -10.6310  -15.0120 C   0  0  0  0  0  0
   40.8310   -9.7740  -14.8110 O   0  0  0  0  0  0
   43.7250  -11.3180  -13.7160 C   0  0  0  0  0  0
   41.4120  -11.8480  -15.4670 N   0  0  0  0  0  0
   40.0380  -12.2710  -15.7120 C   0  0  2  0  0  0
   39.3610  -12.6830  -14.4070 C   0  0  0  0  0  0
   38.2020  -12.3490  -14.1630 O   0  0  0  0  0  0
   39.9950  -13.4260  -16.7130 C   0  0  0  0  0  0
   38.5830  -13.8810  -17.0680 C   0  0  0  0  0  0
   38.5800  -15.2140  -17.8010 C   0  0  0  0  0  0
   39.3490  -15.1700  -19.0430 N   0  0  0  0  0  0
   38.8510  -14.8010  -20.2210 C   0  0  0  0  0  0
   39.6280  -14.7950  -21.2980 N   0  0  0  0  0  0
   37.5790  -14.4370  -20.3230 N   0  0  0  0  0  0
   34.4960  -18.9280  -13.1360 N   0  3  0  0  0  0
   33.4510  -19.6970  -13.8000 C   0  0  2  0  0  0
   32.3150  -18.7820  -14.2430 C   0  0  0  0  0  0
   32.1030  -17.7140  -13.6670 O   0  0  0  0  0  0
   32.9220  -20.8010  -12.8790 C   0  0  0  0  0  0
   32.2830  -20.2920  -11.5960 C   0  0  0  0  0  0
   32.1110  -21.4050  -10.5720 C   0  0  0  0  0  0
   30.8780  -22.1720  -10.7530 N   0  0  0  0  0  0
   29.8540  -22.1510   -9.9010 C   0  0  0  0  0  0
   29.9140  -21.4030   -8.8060 N   0  0  0  0  0  0
   28.7730  -22.8850  -10.1320 N   0  0  0  0  0  0
   31.5830  -19.2040  -15.2670 N   0  0  0  0  0  0
   30.5270  -18.3780  -15.8360 C   0  0  2  0  0  0
   29.1790  -18.5830  -15.1340 C   0  0  0  0  0  0
   28.2530  -17.7950  -15.3290 O   0  0  0  0  0  0
   30.3590  -18.6530  -17.3490 C   0  0  0  0  0  0
   29.0660  -19.6290  -14.3170 N   0  0  0  0  0  0
   27.7950  -19.9180  -13.6490 C   0  0  2  0  0  0
   27.6680  -19.2020  -12.3040 C   0  0  0  0  0  0
   28.5860  -19.2150  -11.4910 O   0  0  0  0  0  0
   27.6090  -21.4290  -13.4650 C   0  0  0  0  0  0
   26.5110  -18.5820  -12.0940 N   0  0  0  0  0  0
   26.1840  -17.8610  -10.8690 C   0  0  2  0  0  0
   24.7710  -18.2070  -10.3990 C   0  0  0  0  0  0
   23.9930  -18.8280  -11.1240 O   0  0  0  0  0  0
   26.2660  -16.3450  -11.0790 C   0  0  0  0  0  0
   27.5180  -15.8150  -11.7530 C   0  0  0  0  0  0
   27.3250  -14.3580  -12.1880 C   0  0  0  0  0  0
   26.5870  -14.2510  -13.4470 N   0  0  0  0  0  0
   26.3340  -13.1030  -14.0710 C   0  0  0  0  0  0
   25.6680  -13.0950  -15.2200 N   0  0  0  0  0  0
   26.7490  -11.9580  -13.5480 N   0  0  0  0  0  0
   24.4290  -17.7720   -9.1940 N   0  0  0  0  0  0
   23.0380  -17.8160   -8.7530 C   0  0  2  0  0  0
   22.7300  -16.5830   -7.9090 C   0  0  0  0  0  0
   23.6370  -15.9590   -7.3590 O   0  0  0  0  0  0
   22.7440  -19.0960   -7.9640 C   0  0  0  0  0  0
   23.4910  -19.1510   -6.7650 O   0  0  0  0  0  0
   21.4540  -16.2250   -7.8290 N   0  0  0  0  0  0
   21.0370  -15.1060   -7.0250 C   0  0  1  0  0  0
   19.6160  -14.6240   -7.3480 C   0  0  0  0  0  0
   19.5220  -14.1680   -8.7860 C   0  0  0  0  0  0
   19.3030  -12.6660   -8.8340 C   0  0  0  0  0  0
   20.2550  -12.0820   -9.8630 C   0  0  0  0  0  0
   20.4790  -10.5860   -9.8660 N   0  3  0  0  0  0
   21.0860  -15.4500   -5.5370 C   0  0  0  0  0  0
   20.3920  -16.3240   -5.0220 O   0  0  0  0  0  0
   19.3050   -9.8390   -9.3290 C   0  0  0  0  0  0
   20.7860  -10.1230  -11.2570 C   0  0  0  0  0  0
   21.6630  -10.3000   -8.9970 C   0  0  0  0  0  0
   21.9520  -14.7380   -4.8250 N   0  0  0  0  0  0
   22.1630  -15.0070   -3.4040 C   0  0  2  0  0  0
   21.7580  -13.8240   -2.5240 C   0  0  0  0  0  0
   21.3000  -14.0140   -1.3940 O   0  0  0  0  0  0
   23.6400  -15.3720   -3.1100 C   0  0  0  0  0  0
   24.0170  -16.6690   -3.8130 C   0  0  0  0  0  0
   24.5700  -14.2400   -3.5290 C   0  0  0  0  0  0
   21.8730  -12.6590   -2.9130 O   0  0  0  0  0  0
   50.3845   -2.5264  -12.2809 H   0  0  0  0  0  0
   48.7716   -1.8960  -12.7580 H   0  0  0  0  0  0
   49.5151   -4.3578  -11.2906 H   0  0  0  0  0  0
   46.8494   -2.8948  -10.8224 H   0  0  0  0  0  0
   47.6647   -4.0792   -9.7457 H   0  0  0  0  0  0
   47.8354   -1.4065   -9.3027 H   0  0  0  0  0  0
   49.2050   -2.5180   -8.9630 H   0  0  0  0  0  0
   50.4289   -1.2515  -10.4945 H   0  0  0  0  0  0
   48.9508   -0.4461  -11.1215 H   0  0  0  0  0  0
   49.2001   -5.9335  -12.5870 H   0  0  0  0  0  0
   47.6464   -5.3902  -15.0120 H   0  0  0  0  0  0
   49.5222   -7.0348  -14.9194 H   0  0  0  0  0  0
   48.0203   -7.8191  -15.5159 H   0  0  0  0  0  0
   48.5566   -8.0780  -13.8212 H   0  0  0  0  0  0
   45.5922   -5.5785  -15.5324 H   0  0  0  0  0  0
   43.7863   -6.6765  -13.3866 H   0  0  0  0  0  0
   43.1520   -5.4954  -16.1475 H   0  0  0  0  0  0
   41.9403   -5.9044  -14.8860 H   0  0  0  0  0  0
   42.4056   -3.5074  -14.9409 H   0  0  0  0  0  0
   44.1495   -3.8222  -14.6469 H   0  0  0  0  0  0
   42.9379   -4.2312  -13.3854 H   0  0  0  0  0  0
   43.1866   -8.7061  -13.2289 H   0  0  0  0  0  0
   43.7272  -10.3959  -15.6888 H   0  0  0  0  0  0
   44.7858  -11.0933  -13.5310 H   0  0  0  0  0  0
   43.6293  -12.3436  -14.1021 H   0  0  0  0  0  0
   43.1613  -11.2260  -12.7759 H   0  0  0  0  0  0
   42.2436  -12.5419  -15.6589 H   0  0  0  0  0  0
   39.5341  -11.3895  -16.1350 H   0  0  0  0  0  0
   39.9240  -13.2868  -13.6801 H   0  0  0  0  0  0
   40.4838  -13.1182  -17.6491 H   0  0  0  0  0  0
   40.5221  -14.2953  -16.2928 H   0  0  0  0  0  0
   37.9920  -13.9945  -16.1472 H   0  0  0  0  0  0
   38.1086  -13.1310  -17.7180 H   0  0  0  0  0  0
   39.0214  -15.9881  -17.1561 H   0  0  0  0  0  0
   37.5458  -15.4920  -18.0522 H   0  0  0  0  0  0
   40.4118  -15.4536  -19.0422 H   0  0  0  0  0  0
   40.6829  -15.0962  -21.2169 H   0  0  0  0  0  0
   39.2167  -14.4889  -22.2712 H   0  0  0  0  0  0
   36.9327  -14.4409  -19.4329 H   0  0  0  0  0  0
   34.8604  -18.1425  -13.8144 H   0  0  0  0  0  0
   35.3280  -19.5956  -12.8675 H   0  0  0  0  0  0
   34.0882  -18.4656  -12.2250 H   0  0  0  0  0  0
   33.9303  -20.1453  -14.6828 H   0  0  0  0  0  0
   32.1565  -21.3859  -13.4100 H   0  0  0  0  0  0
   33.7507  -21.4622  -12.5857 H   0  0  0  0  0  0
   32.9192  -19.5109  -11.1544 H   0  0  0  0  0  0
   31.2912  -19.8730  -11.8215 H   0  0  0  0  0  0
   32.9532  -22.1083  -10.6499 H   0  0  0  0  0  0
   32.0868  -20.9725   -9.5609 H   0  0  0  0  0  0
   30.7556  -22.8161  -11.6362 H   0  0  0  0  0  0
   30.8060  -20.7912   -8.6060 H   0  0  0  0  0  0
   29.0717  -21.3950   -8.0986 H   0  0  0  0  0  0
   28.7142  -23.5080  -11.0367 H   0  0  0  0  0  0
   31.7879  -20.2003  -15.6858 H   0  0  0  0  0  0
   30.8870  -17.3560  -15.6466 H   0  0  0  0  0  0
   31.3235  -18.5073  -17.8574 H   0  0  0  0  0  0
   29.6153  -17.9589  -17.7675 H   0  0  0  0  0  0
   30.0187  -19.6884  -17.4979 H   0  0  0  0  0  0
   29.9374  -20.2782  -14.1458 H   0  0  0  0  0  0
   27.0335  -19.5158  -14.3334 H   0  0  0  0  0  0
   27.7027  -21.9313  -14.4391 H   0  0  0  0  0  0
   26.6120  -21.6272  -13.0446 H   0  0  0  0  0  0
   28.3789  -21.8124  -12.7792 H   0  0  0  0  0  0
   25.7786  -18.6353  -12.9130 H   0  0  0  0  0  0
   26.9388  -18.1986  -10.1435 H   0  0  0  0  0  0
   25.4266  -16.0162  -11.7093 H   0  0  0  0  0  0
   26.2142  -15.8365  -10.1049 H   0  0  0  0  0  0
   28.3627  -15.8668  -11.0502 H   0  0  0  0  0  0
   27.7421  -16.4240  -12.6412 H   0  0  0  0  0  0
   26.7616  -13.8159  -11.4142 H   0  0  0  0  0  0
   28.3076  -13.8834  -12.3262 H   0  0  0  0  0  0
   26.2019  -15.1571  -13.9375 H   0  0  0  0  0  0
   25.3202  -14.0409  -15.6607 H   0  0  0  0  0  0
   25.4642  -12.1424  -15.7310 H   0  0  0  0  0  0
   27.3013  -11.9560  -12.5967 H   0  0  0  0  0  0
   25.2060  -17.3750   -8.5242 H   0  0  0  0  0  0
   22.4309  -17.8137   -9.6703 H   0  0  0  0  0  0
   21.6746  -19.1320   -7.7089 H   0  0  0  0  0  0
   23.0046  -19.9720   -8.5761 H   0  0  0  0  0  0
   23.3859  -20.0136   -6.0906 H   0  0  0  0  0  0
   20.7089  -16.8042   -8.3942 H   0  0  0  0  0  0
   21.7789  -14.3439   -7.3055 H   0  0  0  0  0  0
   18.9044  -15.4475   -7.1884 H   0  0  0  0  0  0
   19.3559  -13.7819   -6.6898 H   0  0  0  0  0  0
   20.4557  -14.4171   -9.3114 H   0  0  0  0  0  0
   18.6784  -14.6752   -9.2771 H   0  0  0  0  0  0
   18.2616  -12.4563   -9.1196 H   0  0  0  0  0  0
   19.5054  -12.2341   -7.8428 H   0  0  0  0  0  0
   21.2558  -12.5172   -9.7252 H   0  0  0  0  0  0
   19.8899  -12.3150  -10.8742 H   0  0  0  0  0  0
   18.4246  -10.0387   -9.9575 H   0  0  0  0  0  0
   19.5227   -8.7608   -9.3347 H   0  0  0  0  0  0
   19.1019  -10.1667   -8.2988 H   0  0  0  0  0  0
   19.9242  -10.3263  -11.9097 H   0  0  0  0  0  0
   21.6679  -10.6603  -11.6360 H   0  0  0  0  0  0
   20.9914   -9.0424  -11.2468 H   0  0  0  0  0  0
   21.4536  -10.6346   -7.9703 H   0  0  0  0  0  0
   21.8647   -9.2186   -8.9964 H   0  0  0  0  0  0
   22.5411  -10.8365   -9.3856 H   0  0  0  0  0  0
   22.5151  -13.9345   -5.3222 H   0  0  0  0  0  0
   21.4906  -15.8559   -3.2111 H   0  0  0  0  0  0
   21.0108  -13.1580   -0.7667 H   0  0  0  0  0  0
   23.7699  -15.5248   -2.0284 H   0  0  0  0  0  0
   23.3334  -17.4702   -3.4956 H   0  0  0  0  0  0
   25.0495  -16.9421   -3.5495 H   0  0  0  0  0  0
   23.9405  -16.5316   -4.9017 H   0  0  0  0  0  0
   24.2790  -13.3151   -3.0095 H   0  0  0  0  0  0
   24.4967  -14.0886   -4.6161 H   0  0  0  0  0  0
   25.6056  -14.4992   -3.2639 H   0  0  0  0  0  0
  1  2  1  0  0  0
  1  7  1  0  0  0
  1 93  1  0  0  0
  1 94  1  0  0  0
  2  3  1  0  0  0
  2  5  1  0  0  0
  2 95  1  0  0  0
  3  4  2  0  0  0
  3  8  1  0  0  0
  5  6  1  0  0  0
  5 96  1  0  0  0
  5 97  1  0  0  0
  6  7  1  0  0  0
  6 98  1  0  0  0
  6 99  1  0  0  0
  7100  1  0  0  0
  7101  1  0  0  0
  8  9  1  0  0  0
  8102  1  0  0  0
  9 10  1  0  0  0
  9 12  1  0  0  0
  9103  1  0  0  0
 10 11  2  0  0  0
 10 13  1  0  0  0
 12104  1  0  0  0
 12105  1  0  0  0
 12106  1  0  0  0
 13 14  1  0  0  0
 13107  1  0  0  0
 14 15  1  0  0  0
 14 17  1  0  0  0
 14108  1  0  0  0
 15 16  2  0  0  0
 15 19  1  0  0  0
 17 18  1  0  0  0
 17109  1  0  0  0
 17110  1  0  0  0
 18111  1  0  0  0
 18112  1  0  0  0
 18113  1  0  0  0
 19 20  1  0  0  0
 19114  1  0  0  0
 20 21  1  0  0  0
 20 23  1  0  0  0
 20115  1  0  0  0
 21 22  2  0  0  0
 21 24  1  0  0  0
 23116  1  0  0  0
 23117  1  0  0  0
 23118  1  0  0  0
 24 25  1  0  0  0
 24119  1  0  0  0
 25 26  1  0  0  0
 25 28  1  0  0  0
 25120  1  0  0  0
 26 27  2  0  0  0
 26121  1  0  0  0
 28 29  1  0  0  0
 28122  1  0  0  0
 28123  1  0  0  0
 29 30  1  0  0  0
 29124  1  0  0  0
 29125  1  0  0  0
 30 31  1  0  0  0
 30126  1  0  0  0
 30127  1  0  0  0
 31 32  1  0  0  0
 31128  1  0  0  0
 32 33  1  0  0  0
 32 34  2  0  0  0
 33129  1  0  0  0
 33130  1  0  0  0
 34131  1  0  0  0
 35 36  1  0  0  0
 35132  1  0  0  0
 35133  1  0  0  0
 35134  1  0  0  0
 36 37  1  0  0  0
 36 39  1  0  0  0
 36135  1  0  0  0
 37 38  2  0  0  0
 37 46  1  0  0  0
 39 40  1  0  0  0
 39136  1  0  0  0
 39137  1  0  0  0
 40 41  1  0  0  0
 40138  1  0  0  0
 40139  1  0  0  0
 41 42  1  0  0  0
 41140  1  0  0  0
 41141  1  0  0  0
 42 43  1  0  0  0
 42142  1  0  0  0
 43 44  1  0  0  0
 43 45  2  0  0  0
 44143  1  0  0  0
 44144  1  0  0  0
 45145  1  0  0  0
 46 47  1  0  0  0
 46146  1  0  0  0
 47 48  1  0  0  0
 47 50  1  0  0  0
 47147  1  0  0  0
 48 49  2  0  0  0
 48 51  1  0  0  0
 50148  1  0  0  0
 50149  1  0  0  0
 50150  1  0  0  0
 51 52  1  0  0  0
 51151  1  0  0  0
 52 53  1  0  0  0
 52 55  1  0  0  0
 52152  1  0  0  0
 53 54  2  0  0  0
 53 56  1  0  0  0
 55153  1  0  0  0
 55154  1  0  0  0
 55155  1  0  0  0
 56 57  1  0  0  0
 56156  1  0  0  0
 57 58  1  0  0  0
 57 60  1  0  0  0
 57157  1  0  0  0
 58 59  2  0  0  0
 58 67  1  0  0  0
 60 61  1  0  0  0
 60158  1  0  0  0
 60159  1  0  0  0
 61 62  1  0  0  0
 61160  1  0  0  0
 61161  1  0  0  0
 62 63  1  0  0  0
 62162  1  0  0  0
 62163  1  0  0  0
 63 64  1  0  0  0
 63164  1  0  0  0
 64 65  1  0  0  0
 64 66  2  0  0  0
 65165  1  0  0  0
 65166  1  0  0  0
 66167  1  0  0  0
 67 68  1  0  0  0
 67168  1  0  0  0
 68 69  1  0  0  0
 68 71  1  0  0  0
 68169  1  0  0  0
 69 70  2  0  0  0
 69 73  1  0  0  0
 71 72  1  0  0  0
 71170  1  0  0  0
 71171  1  0  0  0
 72172  1  0  0  0
 73 74  1  0  0  0
 73173  1  0  0  0
 74 75  1  0  0  0
 74 80  1  0  0  0
 74174  1  0  0  0
 75 76  1  0  0  0
 75175  1  0  0  0
 75176  1  0  0  0
 76 77  1  0  0  0
 76177  1  0  0  0
 76178  1  0  0  0
 77 78  1  0  0  0
 77179  1  0  0  0
 77180  1  0  0  0
 78 79  1  0  0  0
 78181  1  0  0  0
 78182  1  0  0  0
 79 82  1  0  0  0
 79 83  1  0  0  0
 79 84  1  0  0  0
 80 81  2  0  0  0
 80 85  1  0  0  0
 82183  1  0  0  0
 82184  1  0  0  0
 82185  1  0  0  0
 83186  1  0  0  0
 83187  1  0  0  0
 83188  1  0  0  0
 84189  1  0  0  0
 84190  1  0  0  0
 84191  1  0  0  0
 85 86  1  0  0  0
 85192  1  0  0  0
 86 87  1  0  0  0
 86 89  1  0  0  0
 86193  1  0  0  0
 87 88  1  0  0  0
 87 92  2  0  0  0
 88194  1  0  0  0
 89 90  1  0  0  0
 89 91  1  0  0  0
 89195  1  0  0  0
 90196  1  0  0  0
 90197  1  0  0  0
 90198  1  0  0  0
 91199  1  0  0  0
 91200  1  0  0  0
 91201  1  0  0  0
M  CHG  3   1   1  35   1  79   1
M  END
> <s_m_source_file>
../4nw2_ligand.sdf

> <i_m_source_file_index>
1

> <s_epik_input>
W0NIMl0xW0NIMl1bQ0gyXVtOSDIrXVtDQEBIXTFDKD1PKVtOSF1bQ0BASF0oW0NIM10pQyg9TylbTkhdW0NAQEhdKFtDSDJdW0NIM10pQyg9TylbTkhdW0NAQEhdKFtDSDNdKUMoPU8pW05IXVtDQEhdKFtDSF09TylbQ0gyXVtDSDJdW0NIMl1bTkhdL0MoW05IMl0pPU5cW0hdLltIXS9OPUMoW05IMl0pXFtOSF1bQ0gyXVtDSDJdW0NIMl1bQ0BIXShbTkgzK10pQyg9TylbTkhdW0NAQEhdKFtDSDNdKUMoPU8pW05IXVtDQEBIXShbQ0gzXSlDKD1PKVtOSF1bQ0BASF0oW0NIMl1bQ0gyXVtDSDJdW05IXS9DKFtOSDJdKT1OXFtIXSlDKD1PKVtOSF1bQ0BASF0oW0NIMl1bT0hdKUMoPU8pW05IXVtDQEhdKEMoPU8pW05IXVtDQEhdKEMoPU8pW09IXSlbQ0hdKFtDSDNdKVtDSDNdKVtDSDJdW0NIMl1bQ0gyXVtDSDJdW04rXShbQ0gzXSkoW0NIM10pW0NIM10=

> <s_epik_cmdline>
J2VwaWtfYXBwJywgJy1pbWFlJywgJ2xpZ2FuZF9wcm8ubWFlJywgJy1vbWFlJywgJ2xpZ2FuZF9wcmVwLm1hZScsICctbXMnLCAnMScsICctcGgnLCAnNycsICctcGh0JywgJzAuNScsICctbnQn

> <s_epik_pKa_notes>
Molecule size exceeds maximum supported for generating protonation states

> <s_epik_Chemistry_Notes>
This compound has an imine and may undergo hydrolysis.

$$$$
