4nw5_ligand
                    3D
 Schrodinger Suite 2020-3.
 52 55  0  0  1  0            999 V2000
  -16.3070    2.1520  -24.8180 F   0  0  0  0  0  0
  -15.6170    2.7510  -23.8240 C   0  0  0  0  0  0
  -15.6800    4.1200  -23.7350 C   0  0  0  0  0  0
  -15.0320    4.7470  -22.6830 C   0  0  0  0  0  0
  -14.3490    3.9990  -21.7370 C   0  0  0  0  0  0
  -14.3120    2.6100  -21.8420 C   0  0  0  0  0  0
  -13.7690    1.8020  -20.8850 O   0  0  0  0  0  0
  -13.2940    2.4110  -19.6860 C   0  0  0  0  0  0
  -14.9290    1.9450  -22.9260 C   0  0  0  0  0  0
  -14.8370    0.4540  -23.1060 C   0  0  0  0  0  0
  -13.6040   -0.2050  -23.1450 C   0  0  0  0  0  0
  -13.5380   -1.5790  -23.3650 C   0  0  0  0  0  0
  -14.6890   -2.3400  -23.5210 C   0  0  0  0  0  0
  -15.9280   -1.6950  -23.4860 C   0  0  0  0  0  0
  -15.9800   -0.3230  -23.2900 C   0  0  0  0  0  0
  -17.2160   -2.2070  -23.6410 N   0  0  0  0  0  0
  -17.9720   -1.0980  -23.5330 C   0  0  0  0  0  0
  -17.3110    0.0530  -23.3370 O   0  0  0  0  0  0
  -19.3330   -1.0410  -23.5500 N   0  0  0  0  0  0
  -20.1990    0.0740  -23.5140 C   0  0  0  0  0  0
  -19.7530    1.3570  -23.2030 C   0  0  0  0  0  0
  -20.6520    2.4100  -23.1780 C   0  0  0  0  0  0
  -20.3390    3.6910  -22.8090 O   0  0  0  0  0  0
  -19.0000    3.9690  -22.3840 C   0  0  0  0  0  0
  -22.0010    2.1880  -23.4940 C   0  0  0  0  0  0
  -22.8990    3.2400  -23.5040 O   0  0  0  0  0  0
  -22.9380    4.0210  -24.7040 C   0  0  0  0  0  0
  -22.4380    0.8960  -23.7960 C   0  0  0  0  0  0
  -21.5400   -0.1550  -23.8060 C   0  0  0  0  0  0
  -23.7850    0.7650  -24.0140 O   0  0  0  0  0  0
  -24.2930   -0.5330  -24.3060 C   0  0  0  0  0  0
  -16.2283    4.7011  -24.4764 H   0  0  0  0  0  0
  -15.0595    5.8334  -22.5990 H   0  0  0  0  0  0
  -13.8410    4.4971  -20.9112 H   0  0  0  0  0  0
  -12.8882    1.6373  -19.0176 H   0  0  0  0  0  0
  -14.1242    2.9301  -19.1846 H   0  0  0  0  0  0
  -12.5032    3.1353  -19.9310 H   0  0  0  0  0  0
  -12.6846    0.3627  -23.0017 H   0  0  0  0  0  0
  -12.5642   -2.0661  -23.4157 H   0  0  0  0  0  0
  -14.6272   -3.4183  -23.6677 H   0  0  0  0  0  0
  -19.9218   -1.9689  -23.5987 H   0  0  0  0  0  0
  -18.7003    1.5311  -22.9802 H   0  0  0  0  0  0
  -18.9116    5.0341  -22.1238 H   0  0  0  0  0  0
  -18.3000    3.7312  -23.1985 H   0  0  0  0  0  0
  -18.7600    3.3552  -21.5033 H   0  0  0  0  0  0
  -23.6834    4.8227  -24.5956 H   0  0  0  0  0  0
  -23.2131    3.3767  -25.5520 H   0  0  0  0  0  0
  -21.9474    4.4634  -24.8859 H   0  0  0  0  0  0
  -21.8823   -1.1625  -24.0425 H   0  0  0  0  0  0
  -25.3814   -0.4758  -24.4548 H   0  0  0  0  0  0
  -24.0726   -1.2102  -23.4676 H   0  0  0  0  0  0
  -23.8174   -0.9155  -25.2211 H   0  0  0  0  0  0
  1  2  1  0  0  0
  2  3  2  0  0  0
  2  9  1  0  0  0
  3  4  1  0  0  0
  3 32  1  0  0  0
  4  5  2  0  0  0
  4 33  1  0  0  0
  5  6  1  0  0  0
  5 34  1  0  0  0
  6  7  1  0  0  0
  6  9  2  0  0  0
  7  8  1  0  0  0
  8 35  1  0  0  0
  8 36  1  0  0  0
  8 37  1  0  0  0
  9 10  1  0  0  0
 10 11  1  0  0  0
 10 15  2  0  0  0
 11 12  2  0  0  0
 11 38  1  0  0  0
 12 13  1  0  0  0
 12 39  1  0  0  0
 13 14  2  0  0  0
 13 40  1  0  0  0
 14 15  1  0  0  0
 14 16  1  0  0  0
 15 18  1  0  0  0
 16 17  2  0  0  0
 17 18  1  0  0  0
 17 19  1  0  0  0
 19 20  1  0  0  0
 19 41  1  0  0  0
 20 21  2  0  0  0
 20 29  1  0  0  0
 21 22  1  0  0  0
 21 42  1  0  0  0
 22 23  1  0  0  0
 22 25  2  0  0  0
 23 24  1  0  0  0
 24 43  1  0  0  0
 24 44  1  0  0  0
 24 45  1  0  0  0
 25 26  1  0  0  0
 25 28  1  0  0  0
 26 27  1  0  0  0
 27 46  1  0  0  0
 27 47  1  0  0  0
 27 48  1  0  0  0
 28 29  2  0  0  0
 28 30  1  0  0  0
 29 49  1  0  0  0
 30 31  1  0  0  0
 31 50  1  0  0  0
 31 51  1  0  0  0
 31 52  1  0  0  0
M  END
> <s_m_source_file>
../4nw5_ligand.sdf

> <i_m_source_file_index>
1

> <s_epik_input>
RmMxW2NIXVtjSF1bY0hdYyhPW0NIM10pYzEtYyhbY0hdW2NIXVtjSF0yKWMoYzIzKW9jKG4zKVtOSF1jNFtjSF1jKE9bQ0gzXSljKE9bQ0gzXSljKFtjSF00KU9bQ0gzXQ==

> <s_epik_cmdline>
J2VwaWtfYXBwJywgJy1pbWFlJywgJ2xpZ2FuZF9wcm8ubWFlJywgJy1vbWFlJywgJ2xpZ2FuZF9wcmVwLm1hZScsICctbXMnLCAnMScsICctcGgnLCAnNycsICctcGh0JywgJzAuNScsICctbnQn

> <r_lp_tautomer_probability>
1

> <r_epik_Ionization_Penalty>
  0.0000

> <r_epik_Ionization_Penalty_Charging>
  0.0000

> <r_epik_Ionization_Penalty_Neutral>
  0.0000

> <r_epik_State_Penalty>
 -0.0000

> <r_epik_Charging_Adjusted_Penalty>
0

> <i_epik_Tot_Q>
0

> <i_epik_Tot_abs_Q>
0

$$$$
