4nw7_ligand
                    3D
 Schrodinger Suite 2020-3.
 43 46  0  0  1  0            999 V2000
   -9.3810   34.4590    3.9080 O   0  0  0  0  0  0
  -10.5850   34.6590    3.8460 C   0  0  0  0  0  0
  -11.3230   33.9600    2.9620 O   0  5  0  0  0  0
  -11.1720   35.7220    4.7460 C   0  0  0  0  0  0
  -12.6640   35.4800    4.9350 C   0  0  0  0  0  0
  -13.1260   34.6530    5.9670 C   0  0  0  0  0  0
  -14.5090   34.5080    6.1870 C   0  0  0  0  0  0
  -13.5860   36.1870    4.1490 C   0  0  0  0  0  0
  -14.9580   36.0410    4.3600 C   0  0  0  0  0  0
  -15.4300   35.2100    5.3760 C   0  0  0  0  0  0
  -16.7810   34.9950    5.5140 N   0  0  0  0  0  0
  -17.2400   33.8120    5.9680 C   0  0  0  0  0  0
  -18.5700   33.5840    5.9820 N   0  0  0  0  0  0
  -19.0660   32.3980    6.4560 C   0  0  0  0  0  0
  -20.5250   32.2060    6.5120 C   0  0  0  0  0  0
  -21.2090   33.4720    6.9910 C   0  0  0  0  0  0
  -21.4150   32.9960    5.5540 C   0  0  0  0  0  0
  -18.2220   31.4210    6.8680 N   0  0  0  0  0  0
  -16.3860   32.8350    6.3740 N   0  0  0  0  0  0
  -16.8700   31.6420    6.8260 C   0  0  0  0  0  0
  -16.0060   30.6780    7.2620 C   0  0  0  0  0  0
  -16.4990   29.4730    7.7430 C   0  0  0  0  0  0
  -14.6430   30.9080    7.2270 C   0  0  0  0  0  0
  -13.7590   29.9290    7.6530 C   0  0  0  0  0  0
  -11.9790   30.2200    7.5490 Cl  0  0  0  0  0  0
  -14.2470   28.7190    8.1390 C   0  0  0  0  0  0
  -15.6150   28.4930    8.1870 C   0  0  0  0  0  0
  -10.6734   35.6890    5.7259 H   0  0  0  0  0  0
  -11.0211   36.7120    4.2909 H   0  0  0  0  0  0
  -12.4148   34.1218    6.5996 H   0  0  0  0  0  0
  -14.8694   33.8551    6.9819 H   0  0  0  0  0  0
  -13.2279   36.8562    3.3667 H   0  0  0  0  0  0
  -15.6642   36.5791    3.7276 H   0  0  0  0  0  0
  -17.4941   35.7910    5.2533 H   0  0  0  0  0  0
  -20.4703   31.1372    6.7664 H   0  0  0  0  0  0
  -21.8706   33.2337    7.8368 H   0  0  0  0  0  0
  -20.4496   34.1997    7.3132 H   0  0  0  0  0  0
  -20.8214   33.3232    4.6877 H   0  0  0  0  0  0
  -22.2425   32.3573    5.2113 H   0  0  0  0  0  0
  -17.5739   29.2945    7.7731 H   0  0  0  0  0  0
  -14.2624   31.8624    6.8632 H   0  0  0  0  0  0
  -13.5548   27.9498    8.4815 H   0  0  0  0  0  0
  -15.9979   27.5480    8.5724 H   0  0  0  0  0  0
  1  2  2  0  0  0
  2  3  1  0  0  0
  2  4  1  0  0  0
  4  5  1  0  0  0
  4 28  1  0  0  0
  4 29  1  0  0  0
  5  6  2  0  0  0
  5  8  1  0  0  0
  6  7  1  0  0  0
  6 30  1  0  0  0
  7 10  2  0  0  0
  7 31  1  0  0  0
  8  9  2  0  0  0
  8 32  1  0  0  0
  9 10  1  0  0  0
  9 33  1  0  0  0
 10 11  1  0  0  0
 11 12  1  0  0  0
 11 34  1  0  0  0
 12 13  2  0  0  0
 12 19  1  0  0  0
 13 14  1  0  0  0
 14 15  1  0  0  0
 14 18  2  0  0  0
 15 16  1  0  0  0
 15 17  1  0  0  0
 15 35  1  0  0  0
 16 17  1  0  0  0
 16 36  1  0  0  0
 16 37  1  0  0  0
 17 38  1  0  0  0
 17 39  1  0  0  0
 18 20  1  0  0  0
 19 20  2  0  0  0
 20 21  1  0  0  0
 21 22  2  0  0  0
 21 23  1  0  0  0
 22 27  1  0  0  0
 22 40  1  0  0  0
 23 24  2  0  0  0
 23 41  1  0  0  0
 24 25  1  0  0  0
 24 26  1  0  0  0
 26 27  2  0  0  0
 26 42  1  0  0  0
 27 43  1  0  0  0
M  CHG  1   3  -1
M  END
> <s_m_source_file>
../4nw7_ligand.sdf

> <i_m_source_file_index>
1

> <s_epik_input>
Tz1DKFtPSF0pW0NIMl1jMVtjSF1bY0hdYyhbY0hdW2NIXTEpW05IXWMybmMoW0NIXTNbQ0gyXVtDSDJdMyluYyhuMiktYzRbY0hdW2NIXVtjSF1jKENsKVtjSF00

> <s_epik_cmdline>
J2VwaWtfYXBwJywgJy1pbWFlJywgJ2xpZ2FuZF9wcm8ubWFlJywgJy1vbWFlJywgJ2xpZ2FuZF9wcmVwLm1hZScsICctbXMnLCAnMScsICctcGgnLCAnNycsICctcGh0JywgJzAuNScsICctbnQn

> <r_lp_tautomer_probability>
1

> <r_epik_Ionization_Penalty>
  0.0020

> <r_epik_Ionization_Penalty_Charging>
  0.0020

> <r_epik_Ionization_Penalty_Neutral>
  0.0000

> <r_epik_State_Penalty>
 -0.0000

> <r_epik_Charging_Adjusted_Penalty>
0.00196091624271598

> <i_epik_Tot_Q>
-1

> <i_epik_Tot_abs_Q>
1

$$$$
