4nwd_ligand
                    3D
 Schrodinger Suite 2020-3.
 31 30  0  0  1  0            999 V2000
   -1.0890   30.8760  -13.9390 O   0  5  0  0  0  0
   -2.2190   31.1580  -13.4500 C   0  0  0  0  0  0
   -2.4940   32.1900  -12.7830 O   0  0  0  0  0  0
   -3.3550   30.1580  -13.6710 C   0  0  1  0  0  0
   -4.5560   30.6520  -12.9950 N   0  3  0  0  0  0
   -3.5980   29.8990  -15.1760 C   0  0  0  0  0  0
   -4.3130   28.5590  -15.4780 C   0  0  2  0  0  0
   -3.6190   27.3810  -14.7910 C   0  0  0  0  0  0
   -2.3580   27.3680  -14.8570 O   0  5  0  0  0  0
   -4.3700   26.5340  -14.2470 O   0  0  0  0  0  0
   -4.3790   28.2400  -16.9910 C   0  0  0  0  0  0
   -5.6670   28.7240  -17.6560 C   0  0  0  0  0  0
   -6.8840   28.6660  -16.7360 C   0  0  0  0  0  0
   -7.3070   27.5800  -16.2940 O   0  0  0  0  0  0
   -7.4100   29.8880  -16.4750 N   0  0  0  0  0  0
   -8.6010   29.9590  -15.5970 C   0  0  0  0  0  0
   -3.1148   29.1949  -13.1969 H   0  0  0  0  0  0
   -4.3345   30.8208  -11.9308 H   0  0  0  0  0  0
   -5.3614   29.9086  -13.0885 H   0  0  0  0  0  0
   -4.8744   31.5977  -13.4578 H   0  0  0  0  0  0
   -4.2259   30.7020  -15.5895 H   0  0  0  0  0  0
   -2.6337   29.8784  -15.7049 H   0  0  0  0  0  0
   -5.3317   28.6781  -15.0805 H   0  0  0  0  0  0
   -3.5376   28.7272  -17.5055 H   0  0  0  0  0  0
   -4.3188   27.1517  -17.1393 H   0  0  0  0  0  0
   -5.5443   29.7694  -17.9754 H   0  0  0  0  0  0
   -5.8856   28.0961  -18.5324 H   0  0  0  0  0  0
   -6.9794   30.8097  -16.8933 H   0  0  0  0  0  0
   -8.9084   31.0087  -15.4802 H   0  0  0  0  0  0
   -8.3555   29.5370  -14.6113 H   0  0  0  0  0  0
   -9.4235   29.3840  -16.0476 H   0  0  0  0  0  0
  1  2  1  0  0  0
  2  3  2  0  0  0
  2  4  1  0  0  0
  4  5  1  0  0  0
  4  6  1  0  0  0
  4 17  1  0  0  0
  5 18  1  0  0  0
  5 19  1  0  0  0
  5 20  1  0  0  0
  6  7  1  0  0  0
  6 21  1  0  0  0
  6 22  1  0  0  0
  7  8  1  0  0  0
  7 11  1  0  0  0
  7 23  1  0  0  0
  8  9  1  0  0  0
  8 10  2  0  0  0
 11 12  1  0  0  0
 11 24  1  0  0  0
 11 25  1  0  0  0
 12 13  1  0  0  0
 12 26  1  0  0  0
 12 27  1  0  0  0
 13 14  2  0  0  0
 13 15  1  0  0  0
 15 16  1  0  0  0
 15 28  1  0  0  0
 16 29  1  0  0  0
 16 30  1  0  0  0
 16 31  1  0  0  0
M  CHG  3   1  -1   5   1   9  -1
M  END
> <s_m_source_file>
../4nwd_ligand.sdf

> <i_m_source_file_index>
1

> <s_epik_input>
W09IXUMoPU8pW0NAQEhdKFtOSDMrXSlbQ0gyXVtDQEhdKEMoPU8pW09IXSlbQ0gyXVtDSDJdQyg9TylbTkhdW0NIM10=

> <s_epik_cmdline>
J2VwaWtfYXBwJywgJy1pbWFlJywgJ2xpZ2FuZF9wcm8ubWFlJywgJy1vbWFlJywgJ2xpZ2FuZF9wcmVwLm1hZScsICctbXMnLCAnMScsICctcGgnLCAnNycsICctcGh0JywgJzAuNScsICctbnQn

> <r_lp_tautomer_probability>
1

> <r_epik_Ionization_Penalty>
  0.0016

> <r_epik_Ionization_Penalty_Charging>
  0.0016

> <r_epik_Ionization_Penalty_Neutral>
  0.0000

> <r_epik_State_Penalty>
 -0.0000

> <r_epik_Charging_Adjusted_Penalty>
0.00164577770012236

> <i_epik_Tot_Q>
-1

> <i_epik_Tot_abs_Q>
3

$$$$
