4nwk_ligand
                    3D
 Schrodinger Suite 2020-3.
 96100  0  0  1  0            999 V2000
   50.3910   76.0990    0.4210 C   0  0  1  0  0  0
   51.5070   76.0620    1.4510 C   0  0  0  0  0  0
   52.7870   76.3790    0.6760 C   0  0  2  0  0  0
   49.0200   76.3770    1.0350 C   0  0  0  0  0  0
   53.8200   74.3620    0.0000 C   0  0  0  0  0  0
   55.4130   73.3800    1.6190 C   0  0  0  0  0  0
   55.7630   72.3620    0.6540 C   0  0  0  0  0  0
   55.1230   72.3300   -0.6460 C   0  0  0  0  0  0
   54.0870   73.3780   -1.0220 C   0  0  0  0  0  0
   46.8020   75.5390    1.4270 C   0  0  2  0  0  0
   46.4070   75.7900    2.8460 C   0  0  0  0  0  0
   45.1590   77.2220    0.2590 C   0  0  0  0  0  0
   44.6990   78.3850   -0.2230 C   0  0  0  0  0  0
   47.3560   75.8390    3.7730 N   0  0  0  0  0  0
   48.1500   76.0450    6.3160 C   0  0  0  0  0  0
   55.4320   71.3390   -1.6450 C   0  0  0  0  0  0
   54.7620   71.3780   -2.9420 C   0  0  0  0  0  0
   53.7640   72.3870   -3.2880 C   0  0  0  0  0  0
   53.4220   73.3920   -2.3180 C   0  0  0  0  0  0
   50.1350   77.4350   -1.5690 C   0  0  0  0  0  0
   52.2570   77.6040   -0.0840 C   0  0  0  0  0  0
   50.9070   77.1240   -0.5030 N   0  0  0  0  0  0
   52.9710   75.3970   -0.3180 O   0  0  0  0  0  0
   48.7620   77.4900    1.4950 O   0  0  0  0  0  0
   48.1440   75.3150    1.0230 N   0  0  0  0  0  0
   54.4560   74.3160    1.2340 N   0  0  0  0  0  0
   46.2500   76.1850    0.1980 C   0  0  2  0  0  0
   45.9820   74.7500    0.4850 C   0  0  0  0  0  0
   45.2170   75.9350    3.0980 O   0  5  0  0  0  0
   46.7980   76.0880    5.2620 S   0  0  0  0  0  0
   45.9770   75.0350    5.7300 O   0  0  0  0  0  0
   46.3550   77.4460    5.3570 O   0  0  0  0  0  0
   48.5690   74.7390    6.8850 C   0  0  0  0  0  0
   48.1930   75.8850    7.7670 C   0  0  0  0  0  0
   49.0290   76.9350   -1.7570 O   0  0  0  0  0  0
   50.7090   78.4400   -2.5590 C   0  0  2  0  0  0
   49.9870   79.8040   -2.4850 C   0  0  0  0  0  0
   48.5360   79.6940   -2.9930 C   0  0  0  0  0  0
   50.0400   80.3040   -1.0130 C   0  0  0  0  0  0
   50.7260   80.7810   -3.4200 C   0  0  0  0  0  0
   50.5840   77.9200   -3.9060 N   0  0  0  0  0  0
   51.6220   77.2740   -4.4810 C   0  0  0  0  0  0
   52.6950   77.1640   -3.9700 O   0  0  0  0  0  0
   51.2950   76.7660   -5.6650 O   0  0  0  0  0  0
   52.1640   75.9580   -6.4600 C   0  0  0  0  0  0
   52.5030   74.6520   -5.7400 C   0  0  0  0  0  0
   51.3620   75.5890   -7.7270 C   0  0  0  0  0  0
   53.4370   76.7630   -6.8300 C   0  0  0  0  0  0
   55.0240   70.4730   -3.9530 O   0  0  0  0  0  0
   55.9090   69.3910   -3.6590 C   0  0  0  0  0  0
   50.1970   75.1578   -0.1143 H   0  0  0  0  0  0
   51.3119   76.8136    2.2301 H   0  0  0  0  0  0
   51.5508   75.0626    1.9084 H   0  0  0  0  0  0
   53.7287   76.4219    1.2430 H   0  0  0  0  0  0
   55.8776   73.4136    2.6045 H   0  0  0  0  0  0
   56.5137   71.6130    0.9060 H   0  0  0  0  0  0
   44.5955   76.6883    1.0385 H   0  0  0  0  0  0
   45.2625   78.9187   -1.0025 H   0  0  0  0  0  0
   43.7580   78.8058    0.1610 H   0  0  0  0  0  0
   48.6555   76.8533    5.7673 H   0  0  0  0  0  0
   56.1652   70.5608   -1.4329 H   0  0  0  0  0  0
   53.2854   72.3783   -4.2673 H   0  0  0  0  0  0
   52.6764   74.1528   -2.5490 H   0  0  0  0  0  0
   52.2224   78.4694    0.5941 H   0  0  0  0  0  0
   52.9237   77.8274   -0.9299 H   0  0  0  0  0  0
   48.4636   74.3102    0.7097 H   0  0  0  0  0  0
   46.6817   76.7435   -0.6456 H   0  0  0  0  0  0
   46.5748   73.9072    0.0999 H   0  0  0  0  0  0
   45.0930   74.3651    1.0062 H   0  0  0  0  0  0
   47.8817   73.9519    6.5414 H   0  0  0  0  0  0
   49.5908   74.5047    6.5517 H   0  0  0  0  0  0
   48.8995   76.6113    8.1952 H   0  0  0  0  0  0
   47.1904   76.0585    8.1849 H   0  0  0  0  0  0
   51.7812   78.5615   -2.3455 H   0  0  0  0  0  0
   47.9734   79.0023   -2.3487 H   0  0  0  0  0  0
   48.5368   79.3147   -4.0255 H   0  0  0  0  0  0
   48.0623   80.6864   -2.9673 H   0  0  0  0  0  0
   49.5073   79.5926   -0.3647 H   0  0  0  0  0  0
   49.5616   81.2921   -0.9440 H   0  0  0  0  0  0
   51.0885   80.3808   -0.6894 H   0  0  0  0  0  0
   50.6758   80.4081   -4.4536 H   0  0  0  0  0  0
   51.7783   80.8605   -3.1096 H   0  0  0  0  0  0
   50.2514   81.7718   -3.3641 H   0  0  0  0  0  0
   49.6434   78.0511   -4.4611 H   0  0  0  0  0  0
   51.5740   74.1153   -5.4973 H   0  0  0  0  0  0
   53.0501   74.8761   -4.8124 H   0  0  0  0  0  0
   53.1288   74.0254   -6.3925 H   0  0  0  0  0  0
   50.4654   75.0197   -7.4405 H   0  0  0  0  0  0
   51.9885   74.9764   -8.3920 H   0  0  0  0  0  0
   51.0608   76.5081   -8.2509 H   0  0  0  0  0  0
   53.9912   77.0142   -5.9136 H   0  0  0  0  0  0
   53.1475   77.6887   -7.3489 H   0  0  0  0  0  0
   54.0751   76.1570   -7.4899 H   0  0  0  0  0  0
   56.0224   68.7573   -4.5510 H   0  0  0  0  0  0
   55.4950   68.7924   -2.8342 H   0  0  0  0  0  0
   56.8911   69.7900   -3.3654 H   0  0  0  0  0  0
  1  2  1  0  0  0
  1  4  1  0  0  0
  1 22  1  0  0  0
  1 51  1  0  0  0
  2  3  1  0  0  0
  2 52  1  0  0  0
  2 53  1  0  0  0
  3 21  1  0  0  0
  3 23  1  0  0  0
  3 54  1  0  0  0
  4 24  2  0  0  0
  4 25  1  0  0  0
  5  9  2  0  0  0
  5 23  1  0  0  0
  5 26  1  0  0  0
  6  7  1  0  0  0
  6 26  2  0  0  0
  6 55  1  0  0  0
  7  8  2  0  0  0
  7 56  1  0  0  0
  8  9  1  0  0  0
  8 16  1  0  0  0
  9 19  1  0  0  0
 10 11  1  0  0  0
 10 25  1  0  0  0
 10 27  1  0  0  0
 10 28  1  0  0  0
 11 14  2  0  0  0
 11 29  1  0  0  0
 12 13  2  0  0  0
 12 27  1  0  0  0
 12 57  1  0  0  0
 13 58  1  0  0  0
 13 59  1  0  0  0
 14 30  1  0  0  0
 15 30  1  0  0  0
 15 33  1  0  0  0
 15 34  1  0  0  0
 15 60  1  0  0  0
 16 17  2  0  0  0
 16 61  1  0  0  0
 17 18  1  0  0  0
 17 49  1  0  0  0
 18 19  2  0  0  0
 18 62  1  0  0  0
 19 63  1  0  0  0
 20 22  1  0  0  0
 20 35  2  0  0  0
 20 36  1  0  0  0
 21 22  1  0  0  0
 21 64  1  0  0  0
 21 65  1  0  0  0
 25 66  1  0  0  0
 27 28  1  0  0  0
 27 67  1  0  0  0
 28 68  1  0  0  0
 28 69  1  0  0  0
 30 31  2  0  0  0
 30 32  2  0  0  0
 33 34  1  0  0  0
 33 70  1  0  0  0
 33 71  1  0  0  0
 34 72  1  0  0  0
 34 73  1  0  0  0
 36 37  1  0  0  0
 36 41  1  0  0  0
 36 74  1  0  0  0
 37 38  1  0  0  0
 37 39  1  0  0  0
 37 40  1  0  0  0
 38 75  1  0  0  0
 38 76  1  0  0  0
 38 77  1  0  0  0
 39 78  1  0  0  0
 39 79  1  0  0  0
 39 80  1  0  0  0
 40 81  1  0  0  0
 40 82  1  0  0  0
 40 83  1  0  0  0
 41 42  1  0  0  0
 41 84  1  0  0  0
 42 43  2  0  0  0
 42 44  1  0  0  0
 44 45  1  0  0  0
 45 46  1  0  0  0
 45 47  1  0  0  0
 45 48  1  0  0  0
 46 85  1  0  0  0
 46 86  1  0  0  0
 46 87  1  0  0  0
 47 88  1  0  0  0
 47 89  1  0  0  0
 47 90  1  0  0  0
 48 91  1  0  0  0
 48 92  1  0  0  0
 48 93  1  0  0  0
 49 50  1  0  0  0
 50 94  1  0  0  0
 50 95  1  0  0  0
 50 96  1  0  0  0
M  CHG  1  29  -1
M  END
> <s_m_source_file>
../4nwk_ligand.sdf

> <i_m_source_file_index>
1

> <s_epik_input>
W0NIMl0xW0NIMl1bQ0hdMVMoPU8pKD1PKVtOSF1DKD1PKVtDQEBdMihbQ0BASF0oW0NIMl0yKVtDSF09W0NIMl0pW05IXUMoPU8pW0NAQEhdM1tDSDJdW0NAQEhdKE9jKG5bY0hdW2NIXTQpYyhjNDUpW2NIXVtjSF1jKFtjSF01KU9bQ0gzXSlbQ0gyXU4zQyg9TylbQ0BIXShDKFtDSDNdKShbQ0gzXSlbQ0gzXSlbTkhdQyg9TylPQyhbQ0gzXSkoW0NIM10pW0NIM10=

> <s_epik_cmdline>
J2VwaWtfYXBwJywgJy1pbWFlJywgJ2xpZ2FuZF9wcm8ubWFlJywgJy1vbWFlJywgJ2xpZ2FuZF9wcmVwLm1hZScsICctbXMnLCAnMScsICctcGgnLCAnNycsICctcGh0JywgJzAuNScsICctbnQn

> <r_lp_tautomer_probability>
1

> <r_epik_Ionization_Penalty>
  0.0082

> <r_epik_Ionization_Penalty_Charging>
  0.0081

> <r_epik_Ionization_Penalty_Neutral>
  0.0001

> <r_epik_State_Penalty>
 -0.0000

> <r_epik_Charging_Adjusted_Penalty>
0.00806433787134458

> <i_epik_Tot_Q>
-1

> <i_epik_Tot_abs_Q>
1

> <s_epik_Chemistry_Notes>
This compound has an ester and may undergo hydrolysis at high or low pH.

$$$$
