4nwm_ligand
                    3D
 Schrodinger Suite 2020-3.
 79 84  0  0  1  0            999 V2000
   11.6740   20.8870   22.6770 C   0  0  0  0  0  0
   10.8710   20.8770   21.5410 C   0  0  0  0  0  0
   18.0840   22.9770   20.4610 C   0  0  0  0  0  0
   17.7300   20.6410   19.9620 C   0  0  0  0  0  0
    4.8500   17.3020   19.9970 C   0  0  0  0  0  0
    6.7800   17.6030   21.4420 C   0  0  0  0  0  0
   19.4160   22.8720   20.0640 C   0  0  0  0  0  0
   19.0670   20.5520   19.5500 C   0  0  0  0  0  0
   13.0940   20.8630   22.5480 C   0  0  0  0  0  0
    5.4700   18.0730   18.9920 C   0  0  0  0  0  0
    7.4280   18.3530   20.4400 C   0  0  0  0  0  0
    8.9210   21.7860   15.0500 C   0  0  0  0  0  0
   11.4610   20.8250   20.2440 C   0  0  0  0  0  0
    5.5050   17.0650   21.2010 C   0  0  0  0  0  0
   17.2320   21.8630   20.4030 C   0  0  0  0  0  0
   19.9440   21.6560   19.5880 C   0  0  0  0  0  0
   12.8790   20.7860   20.0910 C   0  0  0  0  0  0
    8.8200   20.8060   16.9830 C   0  0  0  0  0  0
    6.7520   18.5900   19.1990 C   0  0  0  0  0  0
   13.6720   20.8330   21.2670 C   0  0  0  0  0  0
   10.0070   21.5750   16.9940 C   0  0  0  0  0  0
    8.5380   20.0390   18.1470 C   0  0  0  0  0  0
   10.5380   20.8430   19.0800 C   0  0  0  0  0  0
    4.8590   16.1870   22.2450 C   0  0  0  0  0  0
   15.7700   22.0440   20.7180 C   0  0  0  0  0  0
    4.0140   13.9440   23.0780 C   0  0  0  0  0  0
    5.1760   14.0230   20.8870 C   0  0  0  0  0  0
    3.0060   13.0220   22.4330 C   0  0  0  0  0  0
    4.1060   13.0900   20.3670 C   0  0  0  0  0  0
   13.5460   20.6280   18.7340 C   0  0  0  0  0  0
   22.3070   21.2200   20.3430 C   0  0  0  0  0  0
   21.9450   22.8710   18.5290 C   0  0  0  0  0  0
   21.6700   20.5150   18.0640 C   0  0  0  0  0  0
   21.4270   21.5690   19.1400 C   0  0  0  0  0  0
    8.1530   20.9570   15.7790 N   0  0  0  0  0  0
   10.8940   21.6390   18.0370 N   0  0  0  0  0  0
    9.4030   20.0360   19.1990 N   0  0  0  0  0  0
   10.0770   22.1920   15.7630 N   0  3  0  0  0  0
    4.6620   14.7790   22.0480 N   0  0  0  0  0  0
    7.3470   19.3900   18.1720 N   0  0  0  0  0  0
   15.0860   20.8940   21.0510 N   0  0  0  0  0  0
    4.5350   16.7170   23.3040 O   0  0  0  0  0  0
   15.2150   23.1370   20.6950 O   0  0  0  0  0  0
    3.6000   12.2410   21.3980 O   0  0  0  0  0  0
   11.2174   20.9132   23.6664 H   0  0  0  0  0  0
    9.7862   20.9091   21.6429 H   0  0  0  0  0  0
   17.7007   23.9323   20.8196 H   0  0  0  0  0  0
   17.0868   19.7614   19.9371 H   0  0  0  0  0  0
    3.8546   16.8906   19.8298 H   0  0  0  0  0  0
    7.2678   17.4406   22.4031 H   0  0  0  0  0  0
   20.0617   23.7481   20.1231 H   0  0  0  0  0  0
   19.4424   19.5951   19.1872 H   0  0  0  0  0  0
   13.7263   20.8679   23.4359 H   0  0  0  0  0  0
    4.9495   18.2657   18.0539 H   0  0  0  0  0  0
    8.4303   18.7476   20.6069 H   0  0  0  0  0  0
    8.6838   22.1064   14.0355 H   0  0  0  0  0  0
    3.5041   14.5942   23.8042 H   0  0  0  0  0  0
    4.7793   13.3465   23.5949 H   0  0  0  0  0  0
    6.0548   13.4375   21.1951 H   0  0  0  0  0  0
    5.4649   14.7280   20.0936 H   0  0  0  0  0  0
    2.5949   12.3399   23.1918 H   0  0  0  0  0  0
    2.1913   13.6178   21.9957 H   0  0  0  0  0  0
    3.2702   13.6798   19.9625 H   0  0  0  0  0  0
    4.5265   12.4567   19.5719 H   0  0  0  0  0  0
   12.7774   20.6122   17.9473 H   0  0  0  0  0  0
   14.1130   19.6857   18.7117 H   0  0  0  0  0  0
   14.2302   21.4718   18.5613 H   0  0  0  0  0  0
   22.1533   21.9645   21.1380 H   0  0  0  0  0  0
   23.3637   21.2228   20.0374 H   0  0  0  0  0  0
   22.0363   20.2219   20.7180 H   0  0  0  0  0  0
   21.8068   23.6932   19.2466 H   0  0  0  0  0  0
   21.3866   23.0911   17.6072 H   0  0  0  0  0  0
   23.0143   22.7656   18.2936 H   0  0  0  0  0  0
   21.3221   19.5358   18.4247 H   0  0  0  0  0  0
   22.7454   20.4619   17.8390 H   0  0  0  0  0  0
   21.1177   20.7874   17.1526 H   0  0  0  0  0  0
    6.8152   19.5507   17.2226 H   0  0  0  0  0  0
   15.6970   19.9845   21.1485 H   0  0  0  0  0  0
   10.8020   22.8729   15.2933 H   0  0  0  0  0  0
  1  2  2  0  0  0
  1  9  1  0  0  0
  1 45  1  0  0  0
  2 13  1  0  0  0
  2 46  1  0  0  0
  3  7  2  0  0  0
  3 15  1  0  0  0
  3 47  1  0  0  0
  4  8  1  0  0  0
  4 15  2  0  0  0
  4 48  1  0  0  0
  5 10  2  0  0  0
  5 14  1  0  0  0
  5 49  1  0  0  0
  6 11  1  0  0  0
  6 14  2  0  0  0
  6 50  1  0  0  0
  7 16  1  0  0  0
  7 51  1  0  0  0
  8 16  2  0  0  0
  8 52  1  0  0  0
  9 20  2  0  0  0
  9 53  1  0  0  0
 10 19  1  0  0  0
 10 54  1  0  0  0
 11 19  2  0  0  0
 11 55  1  0  0  0
 12 35  2  0  0  0
 12 38  1  0  0  0
 12 56  1  0  0  0
 13 17  2  0  0  0
 13 23  1  0  0  0
 14 24  1  0  0  0
 15 25  1  0  0  0
 16 34  1  0  0  0
 17 20  1  0  0  0
 17 30  1  0  0  0
 18 21  1  0  0  0
 18 22  2  0  0  0
 18 35  1  0  0  0
 19 40  1  0  0  0
 20 41  1  0  0  0
 21 36  1  0  0  0
 21 38  2  0  0  0
 22 37  1  0  0  0
 22 40  1  0  0  0
 23 36  2  0  0  0
 23 37  1  0  0  0
 24 39  1  0  0  0
 24 42  2  0  0  0
 25 41  1  0  0  0
 25 43  2  0  0  0
 26 28  1  0  0  0
 26 39  1  0  0  0
 26 57  1  0  0  0
 26 58  1  0  0  0
 27 29  1  0  0  0
 27 39  1  0  0  0
 27 59  1  0  0  0
 27 60  1  0  0  0
 28 44  1  0  0  0
 28 61  1  0  0  0
 28 62  1  0  0  0
 29 44  1  0  0  0
 29 63  1  0  0  0
 29 64  1  0  0  0
 30 65  1  0  0  0
 30 66  1  0  0  0
 30 67  1  0  0  0
 31 34  1  0  0  0
 31 68  1  0  0  0
 31 69  1  0  0  0
 31 70  1  0  0  0
 32 34  1  0  0  0
 32 71  1  0  0  0
 32 72  1  0  0  0
 32 73  1  0  0  0
 33 34  1  0  0  0
 33 74  1  0  0  0
 33 75  1  0  0  0
 33 76  1  0  0  0
 38 79  1  0  0  0
 40 77  1  0  0  0
 41 78  1  0  0  0
M  CHG  1  38   1
M  END
> <s_m_source_file>
../4nwm_ligand.sdf

> <i_m_source_file_index>
1

> <s_epik_input>
W2NIXTFbY0hdYyhDKFtDSDNdKShbQ0gzXSlbQ0gzXSlbY0hdW2NIXWMxQyg9TylbTkhdYyhjMltDSDNdKVtjSF1bY0hdW2NIXWMyLWMobmMoYzM0KW5bY0hdbjQpW25IXWMzW05IXWMoW2NIXVtjSF01KVtjSF1bY0hdYzVDKD1PKU42W0NIMl1bQ0gyXU9bQ0gyXVtDSDJdNg==

> <s_epik_cmdline>
J2VwaWtfYXBwJywgJy1pbWFlJywgJ2xpZ2FuZF9wcm8ubWFlJywgJy1vbWFlJywgJ2xpZ2FuZF9wcmVwLm1hZScsICctbXMnLCAnMScsICctcGgnLCAnNycsICctcGh0JywgJzAuNScsICctbnQn

> <r_epik_Ionization_Penalty>
  0.0340

> <r_epik_Ionization_Penalty_Charging>
  0.0000

> <r_epik_Ionization_Penalty_Neutral>
  0.0340

> <r_epik_State_Penalty>
  0.4107

> <r_epik_Charging_Adjusted_Penalty>
0.410679838952604

> <i_epik_Tot_Q>
1

> <i_epik_Tot_abs_Q>
1

$$$$
