4nxo_ligand
                    3D
 Schrodinger Suite 2020-3.
 55 58  0  0  1  0            999 V2000
  168.3790    2.8390  -61.3860 C   0  0  0  0  0  0
  168.4730    4.7850  -62.8170 C   0  0  0  0  0  0
  170.1600    4.4540  -61.1320 C   0  0  0  0  0  0
  161.4850    4.8160  -62.9400 C   0  0  0  0  0  0
  162.3840    5.7700  -63.5790 C   0  0  0  0  0  0
  163.6780    5.4200  -63.8680 C   0  0  0  0  0  0
  163.2850    3.1880  -62.9200 C   0  0  0  0  0  0
  162.7920    8.0050  -64.5380 C   0  0  0  0  0  0
  164.5710    6.3580  -64.5010 C   0  0  0  0  0  0
  161.6140    1.1080  -62.1700 C   0  0  2  0  0  0
  162.5280    0.6580  -61.1450 N   0  0  0  0  0  0
  163.8860    0.8260  -61.2470 C   0  0  0  0  0  0
  164.4370    0.2590  -60.0520 C   0  0  0  0  0  0
  163.3730   -0.2070  -59.3200 N   0  0  0  0  0  0
  162.2510    0.0450  -60.0010 N   0  0  0  0  0  0
  165.9380    0.2320  -59.7230 C   0  0  0  0  0  0
  166.5100    1.4960  -60.1110 N   0  0  0  0  0  0
  167.7100    1.5110  -60.9430 C   0  0  0  0  0  0
  168.2150    0.4480  -61.2930 O   0  0  0  0  0  0
  167.8430    3.5880  -62.4290 C   0  0  0  0  0  0
  169.6260    5.2080  -62.1720 C   0  0  0  0  0  0
  169.5330    3.2660  -60.7450 C   0  0  0  0  0  0
  161.0410    2.4890  -61.9370 C   0  0  0  0  0  0
  161.9470    3.5380  -62.6160 C   0  0  0  0  0  0
  164.1560    4.1010  -63.5350 C   0  0  0  0  0  0
  161.9210    7.0880  -63.9160 C   0  0  0  0  0  0
  164.1170    7.6410  -64.8270 C   0  0  0  0  0  0
  160.6960    0.0570  -62.7600 C   0  0  0  0  0  0
  159.3990   -0.2080  -62.0220 C   0  0  0  0  0  0
  159.0720   -1.5450  -61.6540 N   0  0  0  0  0  0
  157.9050   -1.8100  -60.9910 O   0  0  0  0  0  0
  158.6350    0.6890  -61.7490 O   0  0  0  0  0  0
  170.2330    6.3590  -62.5480 F   0  0  0  0  0  0
  168.0536    5.3818  -63.6270 H   0  0  0  0  0  0
  171.0631    4.7880  -60.6212 H   0  0  0  0  0  0
  160.4565    5.0990  -62.7160 H   0  0  0  0  0  0
  163.6457    2.1899  -62.6715 H   0  0  0  0  0  0
  162.4351    9.0021  -64.7961 H   0  0  0  0  0  0
  165.5977    6.0686  -64.7253 H   0  0  0  0  0  0
  162.3265    1.2562  -62.9949 H   0  0  0  0  0  0
  164.4319    1.2935  -62.0665 H   0  0  0  0  0  0
  166.0738    0.0725  -58.6431 H   0  0  0  0  0  0
  166.4204   -0.5861  -60.2780 H   0  0  0  0  0  0
  166.0430    2.4356  -59.7807 H   0  0  0  0  0  0
  166.9422    3.2502  -62.9415 H   0  0  0  0  0  0
  169.9536    2.6712  -59.9342 H   0  0  0  0  0  0
  160.0294    2.5433  -62.3656 H   0  0  0  0  0  0
  160.9926    2.6884  -60.8563 H   0  0  0  0  0  0
  165.1839    3.8156  -63.7587 H   0  0  0  0  0  0
  160.8950    7.3789  -63.6903 H   0  0  0  0  0  0
  164.7892    8.3548  -65.3033 H   0  0  0  0  0  0
  160.4042    0.3548  -63.7779 H   0  0  0  0  0  0
  161.2206   -0.9091  -62.7969 H   0  0  0  0  0  0
  159.7608   -2.3653  -61.9044 H   0  0  0  0  0  0
  157.6555   -2.8434  -60.7083 H   0  0  0  0  0  0
  1 18  1  0  0  0
  1 20  2  0  0  0
  1 22  1  0  0  0
  2 20  1  0  0  0
  2 21  2  0  0  0
  2 34  1  0  0  0
  3 21  1  0  0  0
  3 22  2  0  0  0
  3 35  1  0  0  0
  4  5  2  0  0  0
  4 24  1  0  0  0
  4 36  1  0  0  0
  5  6  1  0  0  0
  5 26  1  0  0  0
  6  9  1  0  0  0
  6 25  2  0  0  0
  7 24  2  0  0  0
  7 25  1  0  0  0
  7 37  1  0  0  0
  8 26  2  0  0  0
  8 27  1  0  0  0
  8 38  1  0  0  0
  9 27  2  0  0  0
  9 39  1  0  0  0
 10 11  1  0  0  0
 10 23  1  0  0  0
 10 28  1  0  0  0
 10 40  1  0  0  0
 11 12  1  0  0  0
 11 15  1  0  0  0
 12 13  2  0  0  0
 12 41  1  0  0  0
 13 14  1  0  0  0
 13 16  1  0  0  0
 14 15  2  0  0  0
 16 17  1  0  0  0
 16 42  1  0  0  0
 16 43  1  0  0  0
 17 18  1  0  0  0
 17 44  1  0  0  0
 18 19  2  0  0  0
 20 45  1  0  0  0
 21 33  1  0  0  0
 22 46  1  0  0  0
 23 24  1  0  0  0
 23 47  1  0  0  0
 23 48  1  0  0  0
 25 49  1  0  0  0
 26 50  1  0  0  0
 27 51  1  0  0  0
 28 29  1  0  0  0
 28 52  1  0  0  0
 28 53  1  0  0  0
 29 30  1  0  0  0
 29 32  2  0  0  0
 30 31  1  0  0  0
 30 54  1  0  0  0
 31 55  1  0  0  0
M  END
> <s_m_source_file>
../4nxo_ligand.sdf

> <i_m_source_file_index>
1

> <s_epik_input>
W2NIXTFbY0hdYyhGKVtjSF1bY0hdYzFDKD1PKVtOSF1bQ0gyXWMobm4yKVtjSF1uMltDQEBIXShbQ0gyXUMoPU8pW05IXVtPSF0pW0NIMl1jKFtjSF0zKVtjSF1bY0hdYyhjMzQpW2NIXVtjSF1bY0hdW2NIXTQ=

> <s_epik_cmdline>
J2VwaWtfYXBwJywgJy1pbWFlJywgJ2xpZ2FuZF9wcm8ubWFlJywgJy1vbWFlJywgJ2xpZ2FuZF9wcmVwLm1hZScsICctbXMnLCAnMScsICctcGgnLCAnNycsICctcGh0JywgJzAuNScsICctbnQn

> <r_lp_tautomer_probability>
1

> <r_epik_Ionization_Penalty>
  0.0093

> <r_epik_Ionization_Penalty_Charging>
  0.0000

> <r_epik_Ionization_Penalty_Neutral>
  0.0093

> <r_epik_State_Penalty>
 -0.0000

> <r_epik_Charging_Adjusted_Penalty>
0

> <i_epik_Tot_Q>
0

> <i_epik_Tot_abs_Q>
0

> <s_epik_Chemistry_Notes>
This compound has a N-S or N-O group and may undergo hydrolysis at high or low pH.

$$$$
