4nxs_ligand
                    3D
 Schrodinger Suite 2020-3.
 38 39  0  0  1  0            999 V2000
   27.3400  -20.5800    2.6970 C   0  0  0  0  0  0
   25.2980  -21.4330    1.6010 C   0  0  0  0  0  0
   26.4580  -21.6030    2.5210 C   0  0  0  0  0  0
   24.4360  -22.4290    1.4270 F   0  0  0  0  0  0
   25.1240  -20.2530    0.9370 C   0  0  0  0  0  0
   26.0920  -19.1360    1.1320 C   0  0  0  0  0  0
   27.1490  -19.2860    1.9780 C   0  0  0  0  0  0
   28.1050  -18.2350    2.1770 N   0  0  0  0  0  0
   27.9680  -17.1830    3.1420 C   0  0  0  0  0  0
   26.6400  -17.0930    4.1390 S   0  0  0  0  0  0
   29.0310  -16.2250    3.2130 N   0  0  0  0  0  0
   30.1200  -16.4310    2.3140 C   0  0  0  0  0  0
   31.2990  -15.5110    2.4070 C   0  0  2  0  0  0
   32.4120  -16.2520    2.7320 O   0  0  0  0  0  0
   31.1820  -14.3480    3.3460 C   0  0  1  0  0  0
   30.8030  -13.2180    2.6600 O   0  0  0  0  0  0
   30.2970  -14.5420    4.5270 C   0  0  1  0  0  0
   30.0690  -13.3140    5.1040 O   0  0  0  0  0  0
   29.0040  -15.1530    4.1450 C   0  0  1  0  0  0
   28.0360  -14.0850    3.7860 C   0  0  0  0  0  0
   28.1000  -12.8700    4.4330 O   0  0  0  0  0  0
   28.1904  -20.7071    3.3669 H   0  0  0  0  0  0
   26.6004  -22.5442    3.0521 H   0  0  0  0  0  0
   24.2763  -20.1273    0.2634 H   0  0  0  0  0  0
   25.9535  -18.1969    0.5962 H   0  0  0  0  0  0
   29.0190  -18.2000    1.5660 H   0  0  0  0  0  0
   30.5341  -17.4389    2.4646 H   0  0  0  0  0  0
   29.7640  -16.3319    1.2779 H   0  0  0  0  0  0
   31.4556  -15.0849    1.4050 H   0  0  0  0  0  0
   32.6637  -17.1507    2.1498 H   0  0  0  0  0  0
   32.1908  -14.1484    3.7365 H   0  0  0  0  0  0
   31.3481  -12.9162    1.7535 H   0  0  0  0  0  0
   30.7875  -15.1675    5.2874 H   0  0  0  0  0  0
   30.9155  -12.7054    5.4547 H   0  0  0  0  0  0
   28.6668  -15.7345    5.0158 H   0  0  0  0  0  0
   28.1468  -13.8326    2.7211 H   0  0  0  0  0  0
   27.0120  -14.4399    3.9740 H   0  0  0  0  0  0
   27.3884  -12.0716    4.1756 H   0  0  0  0  0  0
  1  3  2  0  0  0
  1  7  1  0  0  0
  1 22  1  0  0  0
  2  3  1  0  0  0
  2  4  1  0  0  0
  2  5  2  0  0  0
  3 23  1  0  0  0
  5  6  1  0  0  0
  5 24  1  0  0  0
  6  7  2  0  0  0
  6 25  1  0  0  0
  7  8  1  0  0  0
  8  9  1  0  0  0
  8 26  1  0  0  0
  9 10  2  0  0  0
  9 11  1  0  0  0
 11 12  1  0  0  0
 11 19  1  0  0  0
 12 13  1  0  0  0
 12 27  1  0  0  0
 12 28  1  0  0  0
 13 14  1  0  0  0
 13 15  1  0  0  0
 13 29  1  0  0  0
 14 30  1  0  0  0
 15 16  1  0  0  0
 15 17  1  0  0  0
 15 31  1  0  0  0
 16 32  1  0  0  0
 17 18  1  0  0  0
 17 19  1  0  0  0
 17 33  1  0  0  0
 18 34  1  0  0  0
 19 20  1  0  0  0
 19 35  1  0  0  0
 20 21  1  0  0  0
 20 36  1  0  0  0
 20 37  1  0  0  0
 21 38  1  0  0  0
M  END
> <s_m_source_file>
../4nxs_ligand.sdf

> <i_m_source_file_index>
1

> <s_epik_input>
RmMxW2NIXVtjSF1jKFtjSF1bY0hdMSlbTkhdQyg9UylOMltDSDJdW0NASF0oW09IXSlbQ0BASF0oW09IXSlbQ0BASF0oW09IXSlbQ0BIXTJbQ0gyXVtPSF0=

> <s_epik_cmdline>
J2VwaWtfYXBwJywgJy1pbWFlJywgJ2xpZ2FuZF9wcm8ubWFlJywgJy1vbWFlJywgJ2xpZ2FuZF9wcmVwLm1hZScsICctbXMnLCAnMScsICctcGgnLCAnNycsICctcGh0JywgJzAuNScsICctbnQn

> <r_lp_tautomer_probability>
1

> <r_epik_Ionization_Penalty>
  0.0000

> <r_epik_Ionization_Penalty_Charging>
  0.0000

> <r_epik_Ionization_Penalty_Neutral>
  0.0000

> <r_epik_State_Penalty>
 -0.0000

> <r_epik_Charging_Adjusted_Penalty>
0

> <i_epik_Tot_Q>
0

> <i_epik_Tot_abs_Q>
0

$$$$
