4nxu_ligand
                    3D
 Schrodinger Suite 2020-3.
 39 41  0  0  1  0            999 V2000
   -5.0740  -26.8620  -11.9640 P   0  0  0  0  0  0
   -5.0350  -25.5020  -11.3190 O   0  0  0  0  0  0
   -4.3900  -26.9370  -13.3080 O   0  5  0  0  0  0
   -6.4310  -27.5170  -11.9170 O   0  5  0  0  0  0
   -4.4580  -28.1850   -9.4990 P   0  0  1  0  0  0
   -3.2680  -27.8730   -8.6250 O   0  5  0  0  0  0
   -5.8480  -27.7220   -9.1430 O   0  0  0  0  0  0
   -4.1390  -27.8000  -11.0370 O   0  0  0  0  0  0
   -4.5230  -29.7890   -9.6600 O   0  0  0  0  0  0
   -5.6970  -30.4320  -10.1150 C   0  0  0  0  0  0
   -5.4530  -31.9160  -10.1400 C   0  0  1  0  0  0
   -4.9830  -32.3400   -8.8570 O   0  0  0  0  0  0
   -6.7330  -32.6540  -10.4130 C   0  0  1  0  0  0
   -6.4850  -33.6500  -11.3950 O   0  0  0  0  0  0
   -7.1620  -33.2050   -9.0660 C   0  0  1  0  0  0
   -7.8500  -34.4440   -9.1270 O   0  0  0  0  0  0
   -5.8530  -33.3280   -8.2960 C   0  0  2  0  0  0
   -5.9880  -33.1200   -6.8180 N   0  0  0  0  0  0
   -6.7520  -32.1980   -6.1900 C   0  0  0  0  0  0
   -6.6270  -32.2970   -4.8380 N   0  0  0  0  0  0
   -5.7730  -33.2870   -4.5660 C   0  0  0  0  0  0
   -5.2120  -33.9020   -3.3430 C   0  0  0  0  0  0
   -5.5510  -33.4640   -2.1130 N   0  0  0  0  0  0
   -4.3390  -34.9340   -3.5310 N   0  0  0  0  0  0
   -4.0040  -35.3700   -4.7720 C   0  0  0  0  0  0
   -4.4830  -34.8500   -5.9130 N   0  0  0  0  0  0
   -5.3540  -33.8280   -5.8740 C   0  0  0  0  0  0
   -6.5291  -30.2009   -9.4337 H   0  0  0  0  0  0
   -5.9416  -30.0758  -11.1266 H   0  0  0  0  0  0
   -4.6861  -32.1503  -10.8930 H   0  0  0  0  0  0
   -7.5355  -32.0633  -10.8789 H   0  0  0  0  0  0
   -6.1683  -33.3577  -12.4071 H   0  0  0  0  0  0
   -7.9466  -32.5990   -8.5893 H   0  0  0  0  0  0
   -8.8141  -34.5125   -9.6522 H   0  0  0  0  0  0
   -5.4163  -34.3314   -8.4078 H   0  0  0  0  0  0
   -7.3847  -31.4711   -6.6992 H   0  0  0  0  0  0
   -6.2585  -32.6290   -2.0021 H   0  0  0  0  0  0
   -5.1200  -33.9418   -1.2209 H   0  0  0  0  0  0
   -3.2988  -36.1978   -4.8470 H   0  0  0  0  0  0
  1  2  2  0  0  0
  1  3  1  0  0  0
  1  4  1  0  0  0
  1  8  1  0  0  0
  5  6  1  0  0  0
  5  7  2  0  0  0
  5  8  1  0  0  0
  5  9  1  0  0  0
  9 10  1  0  0  0
 10 11  1  0  0  0
 10 28  1  0  0  0
 10 29  1  0  0  0
 11 12  1  0  0  0
 11 13  1  0  0  0
 11 30  1  0  0  0
 12 17  1  0  0  0
 13 14  1  0  0  0
 13 15  1  0  0  0
 13 31  1  0  0  0
 14 32  1  0  0  0
 15 16  1  0  0  0
 15 17  1  0  0  0
 15 33  1  0  0  0
 16 34  1  0  0  0
 17 18  1  0  0  0
 17 35  1  0  0  0
 18 19  1  0  0  0
 18 27  1  0  0  0
 19 20  2  0  0  0
 19 36  1  0  0  0
 20 21  1  0  0  0
 21 22  2  0  0  0
 21 27  1  0  0  0
 22 23  1  0  0  0
 22 24  1  0  0  0
 23 37  1  0  0  0
 23 38  1  0  0  0
 24 25  2  0  0  0
 25 26  1  0  0  0
 25 39  1  0  0  0
 26 27  2  0  0  0
M  CHG  3   3  -1   4  -1   6  -1
M  END
> <s_m_source_file>
../4nxu_ligand.sdf

> <i_m_source_file_index>
1

> <s_epik_input>
Tz1QKFtPSF0pKFtPSF0pT1tQQF0oPU8pKFtPSF0pT1tDSDJdW0NASF0xT1tDQEhdKFtDQEhdKFtPSF0pW0NAQEhdMVtPSF0pbihbY0hdbjIpYyhjMjMpbltjSF1uYzNbTkgyXQ==

> <s_epik_cmdline>
J2VwaWtfYXBwJywgJy1pbWFlJywgJ2xpZ2FuZF9wcm8ubWFlJywgJy1vbWFlJywgJ2xpZ2FuZF9wcmVwLm1hZScsICctbXMnLCAnMScsICctcGgnLCAnNycsICctcGh0JywgJzAuNScsICctbnQn

> <r_lp_tautomer_probability>
0.999997216410988

> <r_epik_Ionization_Penalty>
  0.1037

> <r_epik_Ionization_Penalty_Charging>
  0.1033

> <r_epik_Ionization_Penalty_Neutral>
  0.0004

> <r_epik_State_Penalty>
  0.0922

> <r_epik_Charging_Adjusted_Penalty>
0.19546844050481

> <i_epik_Tot_Q>
-3

> <i_epik_Tot_abs_Q>
3

> <s_epik_Chemistry_Notes>
This compound contains an acetal/aminal-like group ( X-CH(R)-Y where X, Y are N, S, or O) that may be acid/base labile, releasing an aldehyde.

$$$$
