4nxv_ligand
                    3D
 Schrodinger Suite 2020-3.
 40 42  0  0  1  0            999 V2000
   -4.7470  -27.1360  -11.5440 P   0  0  0  0  0  0
   -5.2720  -25.7330  -11.3640 O   0  5  0  0  0  0
   -3.9280  -27.2000  -12.8130 O   0  5  0  0  0  0
   -5.8990  -28.0860  -11.6510 O   0  0  0  0  0  0
   -3.8530  -27.4840  -10.3090 O   0  0  0  0  0  0
   -4.2780  -28.5960   -9.2920 P   0  0  1  0  0  0
   -3.1380  -28.8510   -8.3230 O   0  5  0  0  0  0
   -5.5100  -28.1440   -8.5300 O   0  0  0  0  0  0
   -4.5950  -29.9050  -10.1050 O   0  0  0  0  0  0
   -5.0650  -31.0740   -9.5000 C   0  0  0  0  0  0
   -5.0420  -32.1430  -10.5720 C   0  0  1  0  0  0
   -4.0850  -33.1260  -10.2690 O   0  0  0  0  0  0
   -6.3790  -32.7940  -10.7620 C   0  0  1  0  0  0
   -6.5810  -33.2240  -12.0640 O   0  0  0  0  0  0
   -6.2430  -33.8910   -9.7680 C   0  0  1  0  0  0
   -7.0590  -34.9670  -10.0670 O   0  0  0  0  0  0
   -4.7750  -34.2510   -9.8010 C   0  0  2  0  0  0
   -4.2410  -34.6990   -8.5180 N   0  0  0  0  0  0
   -3.2870  -35.6380   -8.3540 C   0  0  0  0  0  0
   -3.0280  -35.7940   -7.0650 N   0  0  0  0  0  0
   -3.7960  -34.9620   -6.3600 C   0  0  0  0  0  0
   -3.9570  -34.6850   -4.9680 C   0  0  0  0  0  0
   -3.2900  -35.2870   -4.1370 O   0  0  0  0  0  0
   -4.8850  -33.7220   -4.5790 N   0  3  0  0  0  0
   -5.7030  -32.9740   -5.5030 C   0  0  0  0  0  0
   -6.6620  -31.9660   -5.0420 N   0  0  0  0  0  0
   -5.5580  -33.2230   -6.8020 N   0  0  0  0  0  0
   -4.5890  -34.2390   -7.2740 C   0  0  0  0  0  0
   -4.4075  -31.3419   -8.6598 H   0  0  0  0  0  0
   -6.0868  -30.9089   -9.1277 H   0  0  0  0  0  0
   -4.7192  -31.6904  -11.5212 H   0  0  0  0  0  0
   -7.2821  -32.1716  -10.6782 H   0  0  0  0  0  0
   -6.6940  -32.4891  -12.8747 H   0  0  0  0  0  0
   -6.6311  -33.6361   -8.7708 H   0  0  0  0  0  0
   -8.1518  -34.8422  -10.0780 H   0  0  0  0  0  0
   -4.5779  -35.0888  -10.4861 H   0  0  0  0  0  0
   -2.8019  -36.1863   -9.1616 H   0  0  0  0  0  0
   -6.7756  -31.7663   -3.9663 H   0  0  0  0  0  0
   -7.2681  -31.4092   -5.7718 H   0  0  0  0  0  0
   -5.0271  -33.4944   -3.5122 H   0  0  0  0  0  0
  1  2  1  0  0  0
  1  3  1  0  0  0
  1  4  2  0  0  0
  1  5  1  0  0  0
  5  6  1  0  0  0
  6  7  1  0  0  0
  6  8  2  0  0  0
  6  9  1  0  0  0
  9 10  1  0  0  0
 10 11  1  0  0  0
 10 29  1  0  0  0
 10 30  1  0  0  0
 11 12  1  0  0  0
 11 13  1  0  0  0
 11 31  1  0  0  0
 12 17  1  0  0  0
 13 14  1  0  0  0
 13 15  1  0  0  0
 13 32  1  0  0  0
 14 33  1  0  0  0
 15 16  1  0  0  0
 15 17  1  0  0  0
 15 34  1  0  0  0
 16 35  1  0  0  0
 17 18  1  0  0  0
 17 36  1  0  0  0
 18 19  1  0  0  0
 18 28  1  0  0  0
 19 20  2  0  0  0
 19 37  1  0  0  0
 20 21  1  0  0  0
 21 22  1  0  0  0
 21 28  2  0  0  0
 22 23  2  0  0  0
 22 24  1  0  0  0
 24 25  1  0  0  0
 24 40  1  0  0  0
 25 26  1  0  0  0
 25 27  2  0  0  0
 26 38  1  0  0  0
 26 39  1  0  0  0
 27 28  1  0  0  0
M  CHG  4   2  -1   3  -1   7  -1  24   1
M  END
> <s_m_source_file>
../4nxv_ligand.sdf

> <i_m_source_file_index>
1

> <s_epik_input>
W09IXVAoPU8pKFtPSF0pT1tQQF0oPU8pKFtPSF0pT1tDSDJdW0NASF0xT1tDQEhdKFtDQEhdKFtPSF0pW0NAQEhdMVtPSF0pbihbY0hdbjIpYyhjMjMpW25IXWMoPU5cW0hdKVxbbkhdYzM9Tw==

> <s_epik_cmdline>
J2VwaWtfYXBwJywgJy1pbWFlJywgJ2xpZ2FuZF9wcm8ubWFlJywgJy1vbWFlJywgJ2xpZ2FuZF9wcmVwLm1hZScsICctbXMnLCAnMScsICctcGgnLCAnNycsICctcGh0JywgJzAuNScsICctbnQn

> <r_epik_Ionization_Penalty>
  2.4918

> <r_epik_Ionization_Penalty_Charging>
  2.4918

> <r_epik_Ionization_Penalty_Neutral>
  0.0000

> <r_epik_State_Penalty>
  0.1302

> <r_epik_Charging_Adjusted_Penalty>
2.62193179535438

> <i_epik_Tot_Q>
-2

> <i_epik_Tot_abs_Q>
4

> <s_epik_Chemistry_Notes>
This compound has an imine and may undergo hydrolysis. This compound contains an acetal/aminal-like group ( X-CH(R)-Y where X, Y are N, S, or O) that may be acid/base labile, releasing an aldehyde.

$$$$
