4ny3_ligand
                    3D
 Schrodinger Suite 2020-3.
 89 91  0  0  1  0            999 V2000
   18.9270    2.6990   11.9150 N   0  3  0  0  0  0
   19.0080    2.3870   13.3470 C   0  0  2  0  0  0
   18.6720    3.5850   14.2320 C   0  0  0  0  0  0
   18.5460    3.4210   15.4470 O   0  0  0  0  0  0
   20.4780    1.9910   13.5350 C   0  0  0  0  0  0
   21.1980    2.6630   12.4150 C   0  0  0  0  0  0
   20.2440    2.6280   11.2590 C   0  0  0  0  0  0
   18.5120    4.7640   13.6340 N   0  0  0  0  0  0
   18.3060    5.9860   14.4110 C   0  0  2  0  0  0
   17.0240    6.7650   14.0980 C   0  0  0  0  0  0
   17.0100    7.9910   14.2030 O   0  0  0  0  0  0
   19.5110    6.9210   14.2590 C   0  0  0  0  0  0
   20.7730    6.3530   14.8810 C   0  0  0  0  0  0
   20.6620    5.4740   15.7620 O   0  0  0  0  0  0
   21.8760    6.7910   14.4900 O   0  5  0  0  0  0
   15.9480    6.0730   13.7330 N   0  0  0  0  0  0
   14.7000    6.7630   13.4060 C   0  0  2  0  0  0
   13.7520    6.9160   14.5920 C   0  0  0  0  0  0
   12.7230    7.5820   14.4840 O   0  0  0  0  0  0
   13.9730    6.0710   12.2490 C   0  0  0  0  0  0
   14.7170    6.1390   10.9400 C   0  0  0  0  0  0
   14.8840    7.3480   10.2750 C   0  0  0  0  0  0
   15.2490    4.9940   10.3630 C   0  0  0  0  0  0
   15.5680    7.4120    9.0720 C   0  0  0  0  0  0
   15.9320    5.0490    9.1630 C   0  0  0  0  0  0
   16.0890    6.2600    8.5230 C   0  0  0  0  0  0
   16.7680    6.3120    7.3270 O   0  0  0  0  0  0
   14.1000    6.3170   15.7240 N   0  0  0  0  0  0
   13.1820    6.2850   16.8580 C   0  0  2  0  0  0
   13.6930    7.0440   18.0770 C   0  0  0  0  0  0
   13.4480    6.6450   19.2150 O   0  0  0  0  0  0
   12.8520    4.8380   17.2200 C   0  0  0  0  0  0
   12.2190    4.0770   16.0990 C   0  0  0  0  0  0
   10.8450    4.0740   15.9380 C   0  0  0  0  0  0
   12.9980    3.3850   15.1890 C   0  0  0  0  0  0
   10.2590    3.3900   14.8980 C   0  0  0  0  0  0
   12.4160    2.6970   14.1540 C   0  0  0  0  0  0
   11.0450    2.7050   14.0030 C   0  0  0  0  0  0
   14.3900    8.1460   17.8280 N   0  0  0  0  0  0
   14.9120    8.9850   18.8980 C   0  0  2  0  0  0
   13.9220   10.0870   19.2620 C   0  0  0  0  0  0
   13.0030   10.3930   18.5010 O   0  0  0  0  0  0
   16.2520    9.5940   18.4840 C   0  0  0  0  0  0
   17.3350    8.5880   18.0890 C   0  0  0  0  0  0
   18.5800    9.3060   17.5940 C   0  0  0  0  0  0
   17.6670    7.6750   19.2590 C   0  0  0  0  0  0
   14.0180   10.6970   20.3290 O   0  5  0  0  0  0
   18.2578    1.9796   11.4203 H   0  0  0  0  0  0
   18.5324    3.7173   11.7833 H   0  0  0  0  0  0
   18.2723    1.6087   13.5978 H   0  0  0  0  0  0
   20.8299    2.3428   14.5160 H   0  0  0  0  0  0
   20.5725    0.8963   13.4826 H   0  0  0  0  0  0
   21.4450    3.6950   12.7048 H   0  0  0  0  0  0
   22.1242    2.1130   12.1922 H   0  0  0  0  0  0
   20.3153    1.6956   10.6797 H   0  0  0  0  0  0
   20.3647    3.4887   10.5847 H   0  0  0  0  0  0
   18.5369    4.8085   12.5352 H   0  0  0  0  0  0
   18.2003    5.5828   15.4289 H   0  0  0  0  0  0
   19.7092    7.0930   13.1908 H   0  0  0  0  0  0
   19.2948    7.8808   14.7510 H   0  0  0  0  0  0
   16.0005    4.9756   13.6778 H   0  0  0  0  0  0
   15.0482    7.7652   13.1157 H   0  0  0  0  0  0
   13.8298    5.0073   12.4898 H   0  0  0  0  0  0
   12.9934    6.5470   12.0944 H   0  0  0  0  0  0
   14.4705    8.2596   10.7065 H   0  0  0  0  0  0
   15.1258    4.0346   10.8654 H   0  0  0  0  0  0
   15.6934    8.3675    8.5627 H   0  0  0  0  0  0
   16.3443    4.1401    8.7249 H   0  0  0  0  0  0
   16.8979    7.2740    6.8096 H   0  0  0  0  0  0
   15.0891    5.8423   15.8035 H   0  0  0  0  0  0
   12.2903    6.8173   16.4953 H   0  0  0  0  0  0
   13.7759    4.3099   17.4985 H   0  0  0  0  0  0
   12.1512    4.8228   18.0677 H   0  0  0  0  0  0
   10.2191    4.6202   16.6437 H   0  0  0  0  0  0
   14.0828    3.3862   15.2949 H   0  0  0  0  0  0
    9.1749    3.3915   14.7844 H   0  0  0  0  0  0
   13.0379    2.1436   13.4504 H   0  0  0  0  0  0
   10.5850    2.1678   13.1736 H   0  0  0  0  0  0
   14.5695    8.4191   16.7777 H   0  0  0  0  0  0
   15.0443    8.3141   19.7597 H   0  0  0  0  0  0
   16.1034   10.2497   17.6133 H   0  0  0  0  0  0
   16.6617   10.1809   19.3193 H   0  0  0  0  0  0
   16.9552    7.9644   17.2663 H   0  0  0  0  0  0
   18.3152    9.9591   16.7494 H   0  0  0  0  0  0
   19.3242    8.5655   17.2657 H   0  0  0  0  0  0
   19.0015    9.9130   18.4088 H   0  0  0  0  0  0
   16.7523    7.1675   19.5991 H   0  0  0  0  0  0
   18.0831    8.2724   20.0836 H   0  0  0  0  0  0
   18.4058    6.9248   18.9405 H   0  0  0  0  0  0
  1  2  1  0  0  0
  1  7  1  0  0  0
  1 48  1  0  0  0
  1 49  1  0  0  0
  2  3  1  0  0  0
  2  5  1  0  0  0
  2 50  1  0  0  0
  3  4  2  0  0  0
  3  8  1  0  0  0
  5  6  1  0  0  0
  5 51  1  0  0  0
  5 52  1  0  0  0
  6  7  1  0  0  0
  6 53  1  0  0  0
  6 54  1  0  0  0
  7 55  1  0  0  0
  7 56  1  0  0  0
  8  9  1  0  0  0
  8 57  1  0  0  0
  9 10  1  0  0  0
  9 12  1  0  0  0
  9 58  1  0  0  0
 10 11  2  0  0  0
 10 16  1  0  0  0
 12 13  1  0  0  0
 12 59  1  0  0  0
 12 60  1  0  0  0
 13 14  2  0  0  0
 13 15  1  0  0  0
 16 17  1  0  0  0
 16 61  1  0  0  0
 17 18  1  0  0  0
 17 20  1  0  0  0
 17 62  1  0  0  0
 18 19  2  0  0  0
 18 28  1  0  0  0
 20 21  1  0  0  0
 20 63  1  0  0  0
 20 64  1  0  0  0
 21 22  2  0  0  0
 21 23  1  0  0  0
 22 24  1  0  0  0
 22 65  1  0  0  0
 23 25  2  0  0  0
 23 66  1  0  0  0
 24 26  2  0  0  0
 24 67  1  0  0  0
 25 26  1  0  0  0
 25 68  1  0  0  0
 26 27  1  0  0  0
 27 69  1  0  0  0
 28 29  1  0  0  0
 28 70  1  0  0  0
 29 30  1  0  0  0
 29 32  1  0  0  0
 29 71  1  0  0  0
 30 31  2  0  0  0
 30 39  1  0  0  0
 32 33  1  0  0  0
 32 72  1  0  0  0
 32 73  1  0  0  0
 33 34  2  0  0  0
 33 35  1  0  0  0
 34 36  1  0  0  0
 34 74  1  0  0  0
 35 37  2  0  0  0
 35 75  1  0  0  0
 36 38  2  0  0  0
 36 76  1  0  0  0
 37 38  1  0  0  0
 37 77  1  0  0  0
 38 78  1  0  0  0
 39 40  1  0  0  0
 39 79  1  0  0  0
 40 41  1  0  0  0
 40 43  1  0  0  0
 40 80  1  0  0  0
 41 42  2  0  0  0
 41 47  1  0  0  0
 43 44  1  0  0  0
 43 81  1  0  0  0
 43 82  1  0  0  0
 44 45  1  0  0  0
 44 46  1  0  0  0
 44 83  1  0  0  0
 45 84  1  0  0  0
 45 85  1  0  0  0
 45 86  1  0  0  0
 46 87  1  0  0  0
 46 88  1  0  0  0
 46 89  1  0  0  0
M  CHG  3   1   1  15  -1  47  -1
M  END
> <s_m_source_file>
../4ny3_ligand.sdf

> <i_m_source_file_index>
1

> <s_epik_input>
W0NIMl0xW0NIMl1bQ0gyXVtOSDIrXVtDQEBIXTFDKD1PKVtOSF1bQ0BASF0oW0NIMl1DKD1PKVtPSF0pQyg9TylbTkhdW0NAQEhdKFtDSDJdYzJbY0hdW2NIXWMoW09IXSlbY0hdW2NIXTIpQyg9TylbTkhdW0NASF0oQyg9TylbTkhdW0NASF0oQyg9TylbT0hdKVtDSDJdW0NIXShbQ0gzXSlbQ0gzXSlbQ0gyXWMzW2NIXVtjSF1bY0hdW2NIXVtjSF0z

> <s_epik_cmdline>
J2VwaWtfYXBwJywgJy1pbWFlJywgJ2xpZ2FuZF9wcm8ubWFlJywgJy1vbWFlJywgJ2xpZ2FuZF9wcmVwLm1hZScsICctbXMnLCAnMScsICctcGgnLCAnNycsICctcGh0JywgJzAuNScsICctbnQn

> <r_lp_tautomer_probability>
0.999999999997365

> <r_epik_Ionization_Penalty>
  0.0424

> <r_epik_Ionization_Penalty_Charging>
  0.0416

> <r_epik_Ionization_Penalty_Neutral>
  0.0009

> <r_epik_State_Penalty>
  0.0339

> <r_epik_Charging_Adjusted_Penalty>
0.0754511168234512

> <i_epik_Tot_Q>
-1

> <i_epik_Tot_abs_Q>
3

$$$$
