4nyf_ligand
                    3D
 Schrodinger Suite 2020-3.
 48 50  0  0  1  0            999 V2000
   18.6600   64.4030    8.4330 N   0  0  0  0  0  0
   18.5920   64.5860    9.7720 C   0  0  0  0  0  0
   19.6660   64.2170   10.6650 C   0  0  0  0  0  0
   20.8640   63.6130   10.0530 C   0  0  0  0  0  0
   20.9310   63.4190    8.5910 C   0  0  0  0  0  0
   19.7730   63.8400    7.8400 C   0  0  0  0  0  0
   19.4670   64.4690   12.0860 C   0  0  0  0  0  0
   18.2740   65.0580   12.5860 C   0  0  0  0  0  0
   17.2430   65.4120   11.6890 C   0  0  0  0  0  0
   17.4110   65.1730   10.2950 C   0  0  0  0  0  0
   22.2050   62.7810    7.9370 C   0  0  1  0  0  0
   21.9960   61.2840    7.5360 C   0  0  0  0  0  0
   21.1970   60.5950    8.2380 O   0  0  0  0  0  0
   22.6650   60.9010    6.5290 O   0  5  0  0  0  0
   22.7370   63.5380    6.7920 O   0  0  0  0  0  0
   23.6810   64.6440    6.9560 C   0  0  0  0  0  0
   19.6230   63.7380    6.3410 C   0  0  0  0  0  0
   22.0180   63.2070   10.9260 C   0  0  0  0  0  0
   23.0170   64.1670   11.3210 C   0  0  0  0  0  0
   24.1110   63.7790   12.1440 C   0  0  0  0  0  0
   24.2200   62.4320   12.5810 C   0  0  0  0  0  0
   23.2490   61.4660   12.2080 C   0  0  0  0  0  0
   22.1530   61.8490   11.3850 C   0  0  0  0  0  0
   25.5390   61.9660   13.5720 Cl  0  0  0  0  0  0
   22.9960   65.9400    7.3930 C   0  0  0  0  0  0
   24.8280   64.3130    7.9400 C   0  0  0  0  0  0
   24.2820   64.8560    5.5570 C   0  0  0  0  0  0
   20.2566   64.1977   12.7867 H   0  0  0  0  0  0
   18.1559   65.2352   13.6550 H   0  0  0  0  0  0
   16.3242   65.8654   12.0609 H   0  0  0  0  0  0
   16.6091   65.4490    9.6102 H   0  0  0  0  0  0
   23.0049   62.8668    8.6872 H   0  0  0  0  0  0
   18.6406   64.1331    6.0431 H   0  0  0  0  0  0
   19.7025   62.6843    6.0354 H   0  0  0  0  0  0
   20.4167   64.3223    5.8525 H   0  0  0  0  0  0
   22.9339   65.2009   10.9860 H   0  0  0  0  0  0
   24.8621   64.5123   12.4378 H   0  0  0  0  0  0
   23.3425   60.4354   12.5505 H   0  0  0  0  0  0
   21.4079   61.1065   11.0991 H   0  0  0  0  0  0
   22.5600   65.8048    8.3938 H   0  0  0  0  0  0
   22.1999   66.1933    6.6774 H   0  0  0  0  0  0
   23.7355   66.7538    7.4220 H   0  0  0  0  0  0
   24.4138   64.1582    8.9472 H   0  0  0  0  0  0
   25.5442   65.1476    7.9623 H   0  0  0  0  0  0
   25.3415   63.3979    7.6101 H   0  0  0  0  0  0
   23.4780   65.0926    4.8446 H   0  0  0  0  0  0
   24.7976   63.9387    5.2366 H   0  0  0  0  0  0
   25.0004   65.6884    5.5889 H   0  0  0  0  0  0
  1  2  2  0  0  0
  1  6  1  0  0  0
  2  3  1  0  0  0
  2 10  1  0  0  0
  3  4  2  0  0  0
  3  7  1  0  0  0
  4  5  1  0  0  0
  4 18  1  0  0  0
  5  6  2  0  0  0
  5 11  1  0  0  0
  6 17  1  0  0  0
  7  8  2  0  0  0
  7 28  1  0  0  0
  8  9  1  0  0  0
  8 29  1  0  0  0
  9 10  2  0  0  0
  9 30  1  0  0  0
 10 31  1  0  0  0
 11 12  1  0  0  0
 11 15  1  0  0  0
 11 32  1  0  0  0
 12 13  2  0  0  0
 12 14  1  0  0  0
 15 16  1  0  0  0
 16 25  1  0  0  0
 16 26  1  0  0  0
 16 27  1  0  0  0
 17 33  1  0  0  0
 17 34  1  0  0  0
 17 35  1  0  0  0
 18 19  2  0  0  0
 18 23  1  0  0  0
 19 20  1  0  0  0
 19 36  1  0  0  0
 20 21  2  0  0  0
 20 37  1  0  0  0
 21 22  1  0  0  0
 21 24  1  0  0  0
 22 23  2  0  0  0
 22 38  1  0  0  0
 23 39  1  0  0  0
 25 40  1  0  0  0
 25 41  1  0  0  0
 25 42  1  0  0  0
 26 43  1  0  0  0
 26 44  1  0  0  0
 26 45  1  0  0  0
 27 46  1  0  0  0
 27 47  1  0  0  0
 27 48  1  0  0  0
M  CHG  1  14  -1
M  END
> <s_m_source_file>
../4nyf_ligand.sdf

> <i_m_source_file_index>
1

> <s_epik_input>
W2NIXTFbY0hdW2NIXVtjSF1jKGMxMiljKGMoYyhuMilbQ0gzXSlbQ0BASF0oQyg9TylbT0hdKU9DKFtDSDNdKShbQ0gzXSlbQ0gzXSktYzNbY0hdW2NIXWMoQ2wpW2NIXVtjSF0z

> <s_epik_cmdline>
J2VwaWtfYXBwJywgJy1pbWFlJywgJ2xpZ2FuZF9wcm8ubWFlJywgJy1vbWFlJywgJ2xpZ2FuZF9wcmVwLm1hZScsICctbXMnLCAnMScsICctcGgnLCAnNycsICctcGh0JywgJzAuNScsICctbnQn

> <r_epik_Ionization_Penalty>
  0.0362

> <r_epik_Ionization_Penalty_Charging>
  0.0001

> <r_epik_Ionization_Penalty_Neutral>
  0.0361

> <r_epik_State_Penalty>
  0.0302

> <r_epik_Charging_Adjusted_Penalty>
0.0302189850809405

> <i_epik_Tot_Q>
-1

> <i_epik_Tot_abs_Q>
1

$$$$
