4nyi_ligand
                    3D
 Schrodinger Suite 2020-3.
 65 69  0  0  1  0            999 V2000
   40.8730   28.4720   19.1120 O   0  0  0  0  0  0
   40.4840   28.7820   20.2400 C   0  0  0  0  0  0
   41.3670   29.5600   21.1780 C   0  0  2  0  0  0
   41.3610   30.9930   20.7700 C   0  0  0  0  0  0
   40.2240   31.6700   21.5020 C   0  0  0  0  0  0
   40.0260   31.6760   22.8690 C   0  0  0  0  0  0
   38.9020   32.3780   23.1360 N   0  3  0  0  0  0
   38.3490   32.8330   21.9690 C   0  0  0  0  0  0
   39.1760   32.3920   20.9200 C   0  0  0  0  0  0
   38.8520   32.7170   19.6110 C   0  0  0  0  0  0
   37.6890   33.4700   19.4150 C   0  0  0  0  0  0
   36.8870   33.8940   20.4690 C   0  0  0  0  0  0
   37.1920   33.5880   21.7860 C   0  0  0  0  0  0
   42.6960   29.0250   21.1690 N   0  3  0  0  0  0
   39.1590   28.4230   20.7360 N   0  0  0  0  0  0
   38.1850   27.6720   19.9400 C   0  0  2  0  0  0
   37.6700   28.5620   18.8930 C   0  0  0  0  0  0
   37.0570   29.7860   19.4710 C   0  0  0  0  0  0
   37.1280   27.2600   20.8800 C   0  0  0  0  0  0
   36.3740   28.4100   21.4610 C   0  0  0  0  0  0
   36.0630   29.4670   20.5040 N   0  3  1  0  0  0
   35.0820   30.5240   20.7440 C   0  0  0  0  0  0
   34.0020   30.2090   21.7660 C   0  0  0  0  0  0
   32.7210   29.7980   21.4970 C   0  0  0  0  0  0
   32.0610   29.6410   22.6810 N   0  3  0  0  0  0
   32.8880   29.9600   23.7350 C   0  0  0  0  0  0
   34.1140   30.3260   23.1630 C   0  0  0  0  0  0
   35.1610   30.7020   24.0150 C   0  0  0  0  0  0
   34.9590   30.7020   25.4040 C   0  0  0  0  0  0
   36.0830   31.1100   26.2590 C   0  0  0  0  0  0
   33.7170   30.3240   25.9420 C   0  0  0  0  0  0
   32.6540   29.9480   25.1290 C   0  0  0  0  0  0
   41.0285   29.4677   22.2205 H   0  0  0  0  0  0
   42.3216   31.4554   21.0409 H   0  0  0  0  0  0
   41.2138   31.0639   19.6822 H   0  0  0  0  0  0
   40.7366   31.1582   23.5299 H   0  0  0  0  0  0
   39.4744   32.4005   18.7740 H   0  0  0  0  0  0
   37.4007   33.7343   18.3976 H   0  0  0  0  0  0
   35.9951   34.4824   20.2538 H   0  0  0  0  0  0
   36.5707   33.9148   22.6198 H   0  0  0  0  0  0
   42.6680   27.9684   21.4738 H   0  0  0  0  0  0
   43.3245   29.5926   21.8710 H   0  0  0  0  0  0
   43.1159   29.1032   20.1553 H   0  0  0  0  0  0
   38.9049   28.7429   21.7573 H   0  0  0  0  0  0
   38.6148   26.7888   19.4448 H   0  0  0  0  0  0
   38.4947   28.8652   18.2312 H   0  0  0  0  0  0
   36.9044   28.0333   18.3062 H   0  0  0  0  0  0
   37.8408   30.4077   19.9283 H   0  0  0  0  0  0
   36.5550   30.3556   18.6750 H   0  0  0  0  0  0
   36.4030   26.6181   20.3581 H   0  0  0  0  0  0
   37.5769   26.7022   21.7151 H   0  0  0  0  0  0
   35.4170   28.0525   21.8688 H   0  0  0  0  0  0
   36.9672   28.8683   22.2660 H   0  0  0  0  0  0
   35.3257   28.7410   20.1308 H   0  0  0  0  0  0
   35.5960   31.4251   21.1099 H   0  0  0  0  0  0
   34.5569   30.7569   19.8059 H   0  0  0  0  0  0
   32.3969   29.6537   20.4558 H   0  0  0  0  0  0
   36.1267   30.9928   23.6015 H   0  0  0  0  0  0
   36.9497   31.3613   25.6300 H   0  0  0  0  0  0
   36.3479   30.2839   26.9353 H   0  0  0  0  0  0
   35.7924   31.9901   26.8515 H   0  0  0  0  0  0
   33.5839   30.3257   27.0238 H   0  0  0  0  0  0
   31.6891   29.6586   25.5453 H   0  0  0  0  0  0
   31.0146   29.3019   22.6866 H   0  0  0  0  0  0
   38.5674   32.5059   24.1761 H   0  0  0  0  0  0
  1  2  2  0  0  0
  2  3  1  0  0  0
  2 15  1  0  0  0
  3  4  1  0  0  0
  3 14  1  0  0  0
  3 33  1  0  0  0
  4  5  1  0  0  0
  4 34  1  0  0  0
  4 35  1  0  0  0
  5  6  2  0  0  0
  5  9  1  0  0  0
  6  7  1  0  0  0
  6 36  1  0  0  0
  7  8  1  0  0  0
  7 65  1  0  0  0
  8  9  2  0  0  0
  8 13  1  0  0  0
  9 10  1  0  0  0
 10 11  2  0  0  0
 10 37  1  0  0  0
 11 12  1  0  0  0
 11 38  1  0  0  0
 12 13  2  0  0  0
 12 39  1  0  0  0
 13 40  1  0  0  0
 14 41  1  0  0  0
 14 42  1  0  0  0
 14 43  1  0  0  0
 15 16  1  0  0  0
 15 44  1  0  0  0
 16 17  1  0  0  0
 16 19  1  0  0  0
 16 45  1  0  0  0
 17 18  1  0  0  0
 17 46  1  0  0  0
 17 47  1  0  0  0
 18 21  1  0  0  0
 18 48  1  0  0  0
 18 49  1  0  0  0
 19 20  1  0  0  0
 19 50  1  0  0  0
 19 51  1  0  0  0
 20 21  1  0  0  0
 20 52  1  0  0  0
 20 53  1  0  0  0
 21 22  1  0  0  0
 21 54  1  0  0  0
 22 23  1  0  0  0
 22 55  1  0  0  0
 22 56  1  0  0  0
 23 24  2  0  0  0
 23 27  1  0  0  0
 24 25  1  0  0  0
 24 57  1  0  0  0
 25 26  1  0  0  0
 25 64  1  0  0  0
 26 27  2  0  0  0
 26 32  1  0  0  0
 27 28  1  0  0  0
 28 29  2  0  0  0
 28 58  1  0  0  0
 29 30  1  0  0  0
 29 31  1  0  0  0
 30 59  1  0  0  0
 30 60  1  0  0  0
 30 61  1  0  0  0
 31 32  2  0  0  0
 31 62  1  0  0  0
 32 63  1  0  0  0
M  CHG  4   7   1  14   1  21   1  25   1
M  END
> <s_m_source_file>
../4nyi_ligand.sdf

> <i_m_source_file_index>
1

> <s_epik_input>
W2NIXTFbY0hdW2NIXVtjSF1jKGMxMiljKFtjSF1bbkhdMilbQ0gyXVtDQEhdKFtOSDMrXSlDKD1PKVtOSF1bQ0BASF0zW0NIMl1bQ0gyXVtOQEBIK10oW0NIMl1bQ0gyXTMpW0NIMl1jKFtjSF1bbkhdNCljKGM0NSlbY0hdYyhbQ0gzXSlbY0hdW2NIXTU=

> <s_epik_cmdline>
J2VwaWtfYXBwJywgJy1pbWFlJywgJ2xpZ2FuZF9wcm8ubWFlJywgJy1vbWFlJywgJ2xpZ2FuZF9wcmVwLm1hZScsICctbXMnLCAnMScsICctcGgnLCAnNycsICctcGh0JywgJzAuNScsICctbnQn

> <r_lp_tautomer_probability>
1

> <r_epik_Ionization_Penalty>
  0.4504

> <r_epik_Ionization_Penalty_Charging>
  0.4503

> <r_epik_Ionization_Penalty_Neutral>
  0.0000

> <r_epik_State_Penalty>
 -0.0000

> <r_epik_Charging_Adjusted_Penalty>
0.450343132322746

> <i_epik_Tot_Q>
4

> <i_epik_Tot_abs_Q>
4

$$$$
