4nyj_ligand
                    3D
 Schrodinger Suite 2020-3.
 45 47  0  0  1  0            999 V2000
  -29.7330   33.1380  -64.1800 C   0  0  0  0  0  0
  -30.0160   34.0350  -63.2100 C   0  0  0  0  0  0
  -30.2500   35.4150  -63.5360 C   0  0  0  0  0  0
  -30.1940   35.8180  -64.8360 C   0  0  0  0  0  0
  -29.9020   34.8920  -65.8610 C   0  0  0  0  0  0
  -29.6670   33.5640  -65.5530 C   0  0  0  0  0  0
  -29.4110   32.8890  -66.7180 N   0  3  0  0  0  0
  -29.4680   33.7260  -67.7600 C   0  0  0  0  0  0
  -29.7700   35.0190  -67.3100 C   0  0  0  0  0  0
  -29.9140   36.2930  -68.1610 C   0  0  0  0  0  0
  -28.8690   36.4360  -68.7450 N   0  3  2  0  0  0
  -27.6610   36.5280  -67.9350 C   0  0  0  0  0  0
  -26.6670   37.6120  -68.3670 C   0  0  0  0  0  0
  -28.9110   36.9970  -70.0670 C   0  0  0  0  0  0
  -28.0230   38.2150  -70.2850 C   0  0  0  0  0  0
  -27.2730   38.6640  -69.0980 C   0  0  2  0  0  0
  -26.2070   39.6800  -69.4930 N   0  0  0  0  0  0
  -25.1260   39.4160  -70.3630 C   0  0  0  0  0  0
  -24.9690   38.3450  -70.8620 O   0  0  0  0  0  0
  -24.1050   40.5590  -70.6810 C   0  0  0  0  0  0
  -24.5600   41.8240  -70.1220 N   0  3  0  0  0  0
  -29.5550   32.0938  -63.9231 H   0  0  0  0  0  0
  -30.0673   33.7091  -62.1711 H   0  0  0  0  0  0
  -30.4709   36.1348  -62.7478 H   0  0  0  0  0  0
  -30.3760   36.8630  -65.0868 H   0  0  0  0  0  0
  -29.3194   33.5380  -68.8336 H   0  0  0  0  0  0
  -30.7459   36.1684  -68.8698 H   0  0  0  0  0  0
  -30.1174   37.1516  -67.5042 H   0  0  0  0  0  0
  -29.1206   35.3757  -68.8947 H   0  0  0  0  0  0
  -27.9343   36.7509  -66.8931 H   0  0  0  0  0  0
  -27.1188   35.5718  -67.9753 H   0  0  0  0  0  0
  -26.1963   38.0538  -67.4763 H   0  0  0  0  0  0
  -25.8924   37.1650  -69.0074 H   0  0  0  0  0  0
  -28.5878   36.2402  -70.7969 H   0  0  0  0  0  0
  -29.9386   37.3142  -70.2983 H   0  0  0  0  0  0
  -27.2765   37.9903  -71.0611 H   0  0  0  0  0  0
  -28.6409   39.0665  -70.6061 H   0  0  0  0  0  0
  -28.0270   39.0606  -68.4021 H   0  0  0  0  0  0
  -26.2477   40.7037  -69.0926 H   0  0  0  0  0  0
  -23.1267   40.3085  -70.2449 H   0  0  0  0  0  0
  -24.0037   40.6674  -71.7709 H   0  0  0  0  0  0
  -23.8295   42.6123  -70.3564 H   0  0  0  0  0  0
  -24.6586   41.7282  -69.0306 H   0  0  0  0  0  0
  -25.5356   42.0871  -70.5566 H   0  0  0  0  0  0
  -29.1994   31.8098  -66.6933 H   0  0  0  0  0  0
  1  2  2  0  0  0
  1  6  1  0  0  0
  1 22  1  0  0  0
  2  3  1  0  0  0
  2 23  1  0  0  0
  3  4  2  0  0  0
  3 24  1  0  0  0
  4  5  1  0  0  0
  4 25  1  0  0  0
  5  6  2  0  0  0
  5  9  1  0  0  0
  6  7  1  0  0  0
  7  8  1  0  0  0
  7 45  1  0  0  0
  8  9  2  0  0  0
  8 26  1  0  0  0
  9 10  1  0  0  0
 10 11  1  0  0  0
 10 27  1  0  0  0
 10 28  1  0  0  0
 11 12  1  0  0  0
 11 14  1  0  0  0
 11 29  1  0  0  0
 12 13  1  0  0  0
 12 30  1  0  0  0
 12 31  1  0  0  0
 13 16  1  0  0  0
 13 32  1  0  0  0
 13 33  1  0  0  0
 14 15  1  0  0  0
 14 34  1  0  0  0
 14 35  1  0  0  0
 15 16  1  0  0  0
 15 36  1  0  0  0
 15 37  1  0  0  0
 16 17  1  0  0  0
 16 38  1  0  0  0
 17 18  1  0  0  0
 17 39  1  0  0  0
 18 19  2  0  0  0
 18 20  1  0  0  0
 20 21  1  0  0  0
 20 40  1  0  0  0
 20 41  1  0  0  0
 21 42  1  0  0  0
 21 43  1  0  0  0
 21 44  1  0  0  0
M  CHG  3   7   1  11   1  21   1
M  END
> <s_m_source_file>
../4nyj_ligand.sdf

> <i_m_source_file_index>
1

> <s_epik_input>
W2NIXTFbY0hdW2NIXVtjSF1jKGMxMilbbkhdW2NIXWMyW0NIMl1bTkBASCtdM1tDSDJdW0NIMl1bQ0BIXShbQ0gyXVtDSDJdMylbTkhdQyg9TylbQ0gyXVtOSDMrXQ==

> <s_epik_cmdline>
J2VwaWtfYXBwJywgJy1pbWFlJywgJ2xpZ2FuZF9wcm8ubWFlJywgJy1vbWFlJywgJ2xpZ2FuZF9wcmVwLm1hZScsICctbXMnLCAnMScsICctcGgnLCAnNycsICctcGh0JywgJzAuNScsICctbnQn

> <r_epik_Ionization_Penalty>
  0.4421

> <r_epik_Ionization_Penalty_Charging>
  0.4421

> <r_epik_Ionization_Penalty_Neutral>
  0.0000

> <r_epik_State_Penalty>
  0.3112

> <r_epik_Charging_Adjusted_Penalty>
0.753312026363918

> <i_epik_Tot_Q>
3

> <i_epik_Tot_abs_Q>
3

$$$$
