4nym_ligand
                    3D
 Schrodinger Suite 2020-3.
 61 65  0  0  1  0            999 V2000
   35.7100   30.0140   24.7010 C   0  0  0  0  0  0
   35.6410   30.0620   26.1410 C   0  0  0  0  0  0
   34.4500   29.8290   26.8160 C   0  0  0  0  0  0
   33.3160   29.5360   26.0780 C   0  0  0  0  0  0
   33.3870   29.4820   24.6070 C   0  0  0  0  0  0
   34.5540   29.7170   23.9450 C   0  0  0  0  0  0
   32.4050   29.2110   23.6470 N   0  0  0  0  0  0
   34.2800   29.5820   22.5160 C   0  0  3  0  0  0
   32.9210   29.2690   22.4250 C   0  0  0  0  0  0
   35.2020   29.7390   21.3460 C   0  0  0  0  0  0
   36.2000   28.6360   21.2940 N   0  3  2  0  0  0
   37.1700   27.9590   22.2010 C   0  0  0  0  0  0
   37.8370   26.7780   21.6040 C   0  0  0  0  0  0
   38.4260   27.1400   20.3170 C   0  0  1  0  0  0
   37.3740   27.6460   19.4270 C   0  0  0  0  0  0
   36.7670   28.9010   19.9840 C   0  0  0  0  0  0
   39.4230   28.2330   20.4580 N   0  0  0  0  0  0
   40.8240   28.0320   20.8310 C   0  0  0  0  0  0
   41.7690   29.1860   20.9310 C   0  0  2  0  0  0
   41.2620   26.9280   21.0520 O   0  0  0  0  0  0
   41.6790   29.9550   22.2640 C   0  0  0  0  0  0
   41.5990   30.0680   19.8450 N   0  3  0  0  0  0
   40.4710   30.7250   22.7420 C   0  0  0  0  0  0
   38.9180   31.5360   24.1830 N   0  3  0  0  0  0
   40.0230   30.7350   24.0660 C   0  0  0  0  0  0
   39.5520   31.6020   22.0200 C   0  0  0  0  0  0
   38.6170   32.0660   22.9600 C   0  0  0  0  0  0
   37.5360   32.9690   22.5710 C   0  0  0  0  0  0
   37.4470   33.3630   21.2610 C   0  0  0  0  0  0
   38.3820   32.8990   20.3030 C   0  0  0  0  0  0
   39.4460   32.0110   20.6890 C   0  0  0  0  0  0
   36.6559   30.2073   24.1951 H   0  0  0  0  0  0
   36.5426   30.2858   26.7112 H   0  0  0  0  0  0
   34.4089   29.8758   27.9042 H   0  0  0  0  0  0
   32.3702   29.3452   26.5851 H   0  0  0  0  0  0
   32.2827   29.0816   21.5490 H   0  0  0  0  0  0
   34.6174   29.7269   20.4143 H   0  0  0  0  0  0
   35.7401   30.6948   21.4288 H   0  0  0  0  0  0
   35.5720   27.8308   21.7030 H   0  0  0  0  0  0
   37.9619   28.6675   22.4855 H   0  0  0  0  0  0
   36.6467   27.6120   23.1042 H   0  0  0  0  0  0
   38.6294   26.4239   22.2798 H   0  0  0  0  0  0
   37.0984   25.9769   21.4534 H   0  0  0  0  0  0
   38.8999   26.2297   19.9211 H   0  0  0  0  0  0
   37.8045   27.8671   18.4392 H   0  0  0  0  0  0
   36.5858   26.8859   19.3217 H   0  0  0  0  0  0
   35.9754   29.2531   19.3062 H   0  0  0  0  0  0
   37.5456   29.6732   20.0708 H   0  0  0  0  0  0
   39.1246   29.2763   20.2778 H   0  0  0  0  0  0
   42.7795   28.7692   20.8077 H   0  0  0  0  0  0
   41.8326   29.2576   23.1007 H   0  0  0  0  0  0
   42.4538   30.7354   22.2902 H   0  0  0  0  0  0
   41.6656   29.5056   18.9020 H   0  0  0  0  0  0
   42.3858   30.8364   19.8701 H   0  0  0  0  0  0
   40.6129   30.5504   19.9153 H   0  0  0  0  0  0
   40.5533   30.1482   24.8305 H   0  0  0  0  0  0
   36.8147   33.3223   23.3079 H   0  0  0  0  0  0
   36.6495   34.0395   20.9536 H   0  0  0  0  0  0
   38.2944   33.2177   19.2643 H   0  0  0  0  0  0
   40.1642   31.6600   19.9480 H   0  0  0  0  0  0
   38.4296   31.6599   25.1608 H   0  0  0  0  0  0
  1  2  2  0  0  0
  1  6  1  0  0  0
  1 32  1  0  0  0
  2  3  1  0  0  0
  2 33  1  0  0  0
  3  4  2  0  0  0
  3 34  1  0  0  0
  4  5  1  0  0  0
  4 35  1  0  0  0
  5  6  2  0  0  0
  5  7  1  0  0  0
  6  8  1  0  0  0
  7  9  2  0  0  0
  8  9  1  0  0  0
  8 10  1  0  0  0
  9 36  1  0  0  0
 10 11  1  0  0  0
 10 37  1  0  0  0
 10 38  1  0  0  0
 11 12  1  0  0  0
 11 16  1  0  0  0
 11 39  1  0  0  0
 12 13  1  0  0  0
 12 40  1  0  0  0
 12 41  1  0  0  0
 13 14  1  0  0  0
 13 42  1  0  0  0
 13 43  1  0  0  0
 14 15  1  0  0  0
 14 17  1  0  0  0
 14 44  1  0  0  0
 15 16  1  0  0  0
 15 45  1  0  0  0
 15 46  1  0  0  0
 16 47  1  0  0  0
 16 48  1  0  0  0
 17 18  1  0  0  0
 17 49  1  0  0  0
 18 19  1  0  0  0
 18 20  2  0  0  0
 19 21  1  0  0  0
 19 22  1  0  0  0
 19 50  1  0  0  0
 21 23  1  0  0  0
 21 51  1  0  0  0
 21 52  1  0  0  0
 22 53  1  0  0  0
 22 54  1  0  0  0
 22 55  1  0  0  0
 23 25  2  0  0  0
 23 26  1  0  0  0
 24 25  1  0  0  0
 24 27  1  0  0  0
 24 61  1  0  0  0
 25 56  1  0  0  0
 26 27  2  0  0  0
 26 31  1  0  0  0
 27 28  1  0  0  0
 28 29  2  0  0  0
 28 57  1  0  0  0
 29 30  1  0  0  0
 29 58  1  0  0  0
 30 31  2  0  0  0
 30 59  1  0  0  0
 31 60  1  0  0  0
M  CHG  3  11   1  22   1  24   1
M  END
> <s_m_source_file>
../4nym_ligand.sdf

> <i_m_source_file_index>
1

> <s_epik_input>
W2NIXTFbY0hdW2NIXVtjSF1jKGMxMilbQ0hdKFtDSF09TjIpW0NIMl1bTkBASCtdM1tDSDJdW0NIMl1bQ0BASF0oW0NIMl1bQ0gyXTMpW05IXUMoPU8pW0NAQEhdKFtOSDMrXSlbQ0gyXWM0W2NIXVtuSF1jKGM0NSlbY0hdW2NIXVtjSF1bY0hdNQ==

> <s_epik_cmdline>
J2VwaWtfYXBwJywgJy1pbWFlJywgJ2xpZ2FuZF9wcm8ubWFlJywgJy1vbWFlJywgJ2xpZ2FuZF9wcmVwLm1hZScsICctbXMnLCAnMScsICctcGgnLCAnNycsICctcGh0JywgJzAuNScsICctbnQn

> <r_lp_tautomer_probability>
1

> <r_epik_Ionization_Penalty>
  0.3633

> <r_epik_Ionization_Penalty_Charging>
  0.3625

> <r_epik_Ionization_Penalty_Neutral>
  0.0008

> <r_epik_State_Penalty>
 -0.0000

> <r_epik_Charging_Adjusted_Penalty>
0.362486409884837

> <i_epik_Tot_Q>
3

> <i_epik_Tot_abs_Q>
3

> <s_epik_Chemistry_Notes>
This compound has an imine and may undergo hydrolysis.

$$$$
