4nyt_ligand
                    3D
 Schrodinger Suite 2020-3.
 24 23  0  0  1  0            999 V2000
   24.6980  -52.0860   19.5730 P   0  0  0  0  0  0
   24.7350  -50.6300   19.8910 O   0  0  0  0  0  0
   24.3040  -53.0080   20.7690 O   0  5  0  0  0  0
   25.7480  -52.8580   18.8020 O   0  5  0  0  0  0
   23.3370  -52.1070   18.6470 O   0  0  0  0  0  0
   22.1420  -52.2060   19.4970 C   0  0  0  0  0  0
   20.7730  -51.9820   18.8340 C   0  0  0  0  0  0
   20.4870  -50.5220   18.9360 N   0  3  0  0  0  0
   19.9980  -49.8520   20.1940 C   0  0  0  0  0  0
   20.7790  -49.6630   17.7430 C   0  0  0  0  0  0
   19.0560  -50.8340   18.4600 C   0  0  0  0  0  0
   22.0881  -53.2123   19.9380 H   0  0  0  0  0  0
   22.2001  -51.4564   20.3000 H   0  0  0  0  0  0
   20.8183  -52.3012   17.7823 H   0  0  0  0  0  0
   20.0087  -52.5702   19.3630 H   0  0  0  0  0  0
   20.8594  -49.5001   20.7806 H   0  0  0  0  0  0
   19.4173  -50.5711   20.7904 H   0  0  0  0  0  0
   19.3603  -48.9957   19.9292 H   0  0  0  0  0  0
   21.8050  -49.2729   17.8144 H   0  0  0  0  0  0
   20.0688  -48.8235   17.7130 H   0  0  0  0  0  0
   20.6775  -50.2622   16.8261 H   0  0  0  0  0  0
   18.5623  -51.4927   19.1897 H   0  0  0  0  0  0
   19.0961  -51.3354   17.4817 H   0  0  0  0  0  0
   18.4875  -49.8968   18.3686 H   0  0  0  0  0  0
  1  2  2  0  0  0
  1  3  1  0  0  0
  1  4  1  0  0  0
  1  5  1  0  0  0
  5  6  1  0  0  0
  6  7  1  0  0  0
  6 12  1  0  0  0
  6 13  1  0  0  0
  7  8  1  0  0  0
  7 14  1  0  0  0
  7 15  1  0  0  0
  8  9  1  0  0  0
  8 10  1  0  0  0
  8 11  1  0  0  0
  9 16  1  0  0  0
  9 17  1  0  0  0
  9 18  1  0  0  0
 10 19  1  0  0  0
 10 20  1  0  0  0
 10 21  1  0  0  0
 11 22  1  0  0  0
 11 23  1  0  0  0
 11 24  1  0  0  0
M  CHG  3   3  -1   4  -1   8   1
M  END
> <s_m_source_file>
../4nyt_ligand.sdf

> <i_m_source_file_index>
1

> <s_epik_input>
Tz1QKFtPSF0pKFtPSF0pT1tDSDJdW0NIMl1bTitdKFtDSDNdKShbQ0gzXSlbQ0gzXQ==

> <s_epik_cmdline>
J2VwaWtfYXBwJywgJy1pbWFlJywgJ2xpZ2FuZF9wcm8ubWFlJywgJy1vbWFlJywgJ2xpZ2FuZF9wcmVwLm1hZScsICctbXMnLCAnMScsICctcGgnLCAnNycsICctcGh0JywgJzAuNScsICctbnQn

> <r_epik_Ionization_Penalty>
  0.0482

> <r_epik_Ionization_Penalty_Charging>
  0.0482

> <r_epik_Ionization_Penalty_Neutral>
  0.0000

> <r_epik_State_Penalty>
  0.0411

> <r_epik_Charging_Adjusted_Penalty>
0.0892630550767564

> <i_epik_Tot_Q>
-1

> <i_epik_Tot_abs_Q>
3

$$$$
