4nzb_ligand
                    3D
 Schrodinger Suite 2020-3.
 27 29  0  0  1  0            999 V2000
   12.9640   85.0870   19.2680 C   0  0  0  0  0  0
    9.6510   86.8310   28.0660 C   0  0  0  0  0  0
   12.6680   84.2250   21.5540 C   0  0  0  0  0  0
   12.6850   81.7990   21.9350 C   0  0  0  0  0  0
   11.7420   84.1770   25.6500 C   0  0  0  0  0  0
   12.3730   83.3950   23.8310 C   0  0  0  0  0  0
   12.5930   83.1200   22.4170 C   0  0  0  0  0  0
   11.0480   85.0750   26.5540 C   0  0  0  0  0  0
   10.1440   85.9840   25.9930 C   0  0  0  0  0  0
   11.2480   85.0580   27.9420 C   0  0  0  0  0  0
   10.5350   85.9610   28.7210 C   0  0  0  0  0  0
   13.0440   85.9580   18.4980 N   0  0  0  0  0  0
   11.6360   84.3620   24.2920 N   0  0  0  0  0  0
   12.8620   83.9910   20.1890 C   0  0  0  0  0  0
   12.4970   83.1560   26.0270 N   0  0  0  0  0  0
    9.4550   86.8550   26.7360 N   0  0  0  0  0  0
   12.9230   82.6160   24.7980 O   0  0  0  0  0  0
   12.8720   81.5820   20.5700 C   0  0  0  0  0  0
   12.9540   82.6710   19.7030 C   0  0  0  0  0  0
    9.0849   87.5349   28.6761 H   0  0  0  0  0  0
   12.5772   85.2408   21.9387 H   0  0  0  0  0  0
   12.6108   80.9557   22.6217 H   0  0  0  0  0  0
    9.9969   85.9814   24.9130 H   0  0  0  0  0  0
   11.9448   84.3546   28.3979 H   0  0  0  0  0  0
   10.6584   85.9922   29.8035 H   0  0  0  0  0  0
   12.9536   80.5663   20.1829 H   0  0  0  0  0  0
   13.0910   82.4993   18.6354 H   0  0  0  0  0  0
  1 12  3  0  0  0
  1 14  1  0  0  0
  2 11  2  0  0  0
  2 16  1  0  0  0
  2 20  1  0  0  0
  3  7  2  0  0  0
  3 14  1  0  0  0
  3 21  1  0  0  0
  4  7  1  0  0  0
  4 18  2  0  0  0
  4 22  1  0  0  0
  5  8  1  0  0  0
  5 13  1  0  0  0
  5 15  2  0  0  0
  6  7  1  0  0  0
  6 13  2  0  0  0
  6 17  1  0  0  0
  8  9  1  0  0  0
  8 10  2  0  0  0
  9 16  2  0  0  0
  9 23  1  0  0  0
 10 11  1  0  0  0
 10 24  1  0  0  0
 11 25  1  0  0  0
 14 19  2  0  0  0
 15 17  1  0  0  0
 18 19  1  0  0  0
 18 26  1  0  0  0
 19 27  1  0  0  0
M  END
> <s_m_source_file>
../4nzb_ligand.sdf

> <i_m_source_file_index>
1

> <s_epik_input>
W2NIXTFbY0hdW2NIXWMoQyNOKVtjSF1jMS1jKG9uMiluYzItYzNbY0hdbltjSF1bY0hdW2NIXTM=

> <s_epik_cmdline>
J2VwaWtfYXBwJywgJy1pbWFlJywgJ2xpZ2FuZF9wcm8ubWFlJywgJy1vbWFlJywgJ2xpZ2FuZF9wcmVwLm1hZScsICctbXMnLCAnMScsICctcGgnLCAnNycsICctcGh0JywgJzAuNScsICctbnQn

> <r_lp_tautomer_probability>
1

> <r_epik_Ionization_Penalty>
  0.0004

> <r_epik_Ionization_Penalty_Charging>
  0.0000

> <r_epik_Ionization_Penalty_Neutral>
  0.0004

> <r_epik_State_Penalty>
 -0.0000

> <r_epik_Charging_Adjusted_Penalty>
0

> <i_epik_Tot_Q>
0

> <i_epik_Tot_abs_Q>
0

$$$$
