4nzm_ligand
                    3D
 Schrodinger Suite 2020-3.
 53 53  0  0  1  0            999 V2000
   -1.4100   19.9280   11.1850 C   0  0  1  0  0  0
   -0.6090   20.0090    9.8700 C   0  0  2  0  0  0
    0.8420   19.6990   10.1900 C   0  0  2  0  0  0
    1.3980   20.7650   11.1540 C   0  0  1  0  0  0
    0.5390   20.9030   12.4590 C   0  0  2  0  0  0
   -0.9820   21.0190   12.1770 C   0  0  2  0  0  0
   -2.8020   20.0250   10.9070 O   0  0  0  0  0  0
   -0.7040   21.3250    9.2750 O   0  0  0  0  0  0
    1.6180   19.6660    8.9750 O   0  0  0  0  0  0
    2.7470   20.4110   11.4820 O   0  0  0  0  0  0
    0.9750   22.0600   13.2010 O   0  0  0  0  0  0
   -1.7560   20.8990   13.4040 O   0  0  0  0  0  0
   -3.1380   17.4950   10.4280 O   0  5  0  0  0  0
   -0.6430   20.2760    6.8650 O   0  5  0  0  0  0
    0.5420   17.6900    7.6740 O   0  5  0  0  0  0
    3.5330   22.8790   11.1680 O   0  5  0  0  0  0
    1.6500   20.6060   14.8660 O   0  0  0  0  0  0
   -2.2530   23.3690   13.9840 O   0  5  0  0  0  0
   -3.5620   18.4440   12.7830 O   0  0  0  0  0  0
   -2.7520   21.4030    7.7300 O   0  0  0  0  0  0
    2.4330   17.2220    9.3730 O   0  0  0  0  0  0
    5.1050   21.0750   12.1500 O   0  0  0  0  0  0
   -3.8980   22.1000   12.4850 O   0  0  0  0  0  0
   -5.1770   19.0350   10.8490 O   0  0  0  0  0  0
   -0.6410   22.8140    7.1770 O   0  0  0  0  0  0
    2.9770   18.4080    7.1550 O   0  0  0  0  0  0
    4.4720   21.0400    9.6470 O   0  0  0  0  0  0
    3.8370   24.8990   15.5310 O   0  5  0  0  0  0
   -3.8350   21.5490   14.9340 O   0  0  0  0  0  0
    4.3840   22.7870   14.1970 O   0  0  0  0  0  0
    2.7800   24.4880   13.1880 O   0  0  0  0  0  0
   -3.7650   18.7600   11.2070 P   0  0  0  0  0  0
   -1.1360   21.5410    7.7370 P   0  0  0  0  0  0
    1.9600   18.2560    8.2200 P   0  0  0  0  0  0
    3.9940   21.3370   11.0100 P   0  0  0  0  0  0
    1.4850   21.7480   14.4360 C   0  0  0  0  0  0
   -2.9820   21.9370   13.7920 P   0  0  0  0  0  0
    1.8750   22.9550   15.2930 C   0  0  0  0  0  0
    3.2060   23.8550   14.4600 P   0  0  0  0  0  0
   -1.2832   18.9405   11.6527 H   0  0  0  0  0  0
   -1.0164   19.3300    9.1065 H   0  0  0  0  0  0
    0.9314   18.6900   10.6190 H   0  0  0  0  0  0
    1.4482   21.7392   10.6456 H   0  0  0  0  0  0
    0.7125   20.0317   13.1077 H   0  0  0  0  0  0
   -1.2224   22.0192   11.7873 H   0  0  0  0  0  0
   -2.5581   18.2236   13.1749 H   0  0  0  0  0  0
   -3.2280   20.4933    8.1249 H   0  0  0  0  0  0
    1.7737   17.0129   10.2284 H   0  0  0  0  0  0
    4.8633   21.2617   13.2068 H   0  0  0  0  0  0
   -3.4419   22.3872   11.5261 H   0  0  0  0  0  0
    5.3109   23.1028   13.6960 H   0  0  0  0  0  0
    1.0022   23.6125   15.4191 H   0  0  0  0  0  0
    2.2189   22.6089   16.2789 H   0  0  0  0  0  0
  1  2  1  0  0  0
  1  6  1  0  0  0
  1  7  1  0  0  0
  1 40  1  0  0  0
  2  3  1  0  0  0
  2  8  1  0  0  0
  2 41  1  0  0  0
  3  4  1  0  0  0
  3  9  1  0  0  0
  3 42  1  0  0  0
  4  5  1  0  0  0
  4 10  1  0  0  0
  4 43  1  0  0  0
  5  6  1  0  0  0
  5 11  1  0  0  0
  5 44  1  0  0  0
  6 12  1  0  0  0
  6 45  1  0  0  0
  7 32  1  0  0  0
  8 33  1  0  0  0
  9 34  1  0  0  0
 10 35  1  0  0  0
 11 36  1  0  0  0
 12 37  1  0  0  0
 13 32  1  0  0  0
 14 33  1  0  0  0
 15 34  1  0  0  0
 16 35  1  0  0  0
 17 36  2  0  0  0
 18 37  1  0  0  0
 19 32  1  0  0  0
 19 46  1  0  0  0
 20 33  1  0  0  0
 20 47  1  0  0  0
 21 34  1  0  0  0
 21 48  1  0  0  0
 22 35  1  0  0  0
 22 49  1  0  0  0
 23 37  1  0  0  0
 23 50  1  0  0  0
 24 32  2  0  0  0
 25 33  2  0  0  0
 26 34  2  0  0  0
 27 35  2  0  0  0
 28 39  1  0  0  0
 29 37  2  0  0  0
 30 39  1  0  0  0
 30 51  1  0  0  0
 31 39  2  0  0  0
 36 38  1  0  0  0
 38 39  1  0  0  0
 38 52  1  0  0  0
 38 53  1  0  0  0
M  CHG  6  13  -1  14  -1  15  -1  16  -1  18  -1  28  -1
M  END
> <s_m_source_file>
../4nzm_ligand.sdf

> <i_m_source_file_index>
1

> <s_epik_input>
W09IXVAoPU8pKFtPSF0pT1tDQEhdMVtDQEBIXShPUCg9TykoW09IXSlbT0hdKVtDQEBIXShPUCg9TykoW09IXSlbT0hdKVtDQEhdKE9QKD1PKShbT0hdKVtPSF0pW0NASF0oW0NAQEhdMU9QKD1PKShbT0hdKVtPSF0pT0MoPU8pW0NIMl1QKD1PKShbT0hdKVtPSF0=

> <s_epik_cmdline>
J2VwaWtfYXBwJywgJy1pbWFlJywgJ2xpZ2FuZF9wcm8ubWFlJywgJy1vbWFlJywgJ2xpZ2FuZF9wcmVwLm1hZScsICctbXMnLCAnMScsICctcGgnLCAnNycsICctcGh0JywgJzAuNScsICctbnQn

> <r_lp_tautomer_probability>
1

> <r_epik_Ionization_Penalty>
  4.4679

> <r_epik_Ionization_Penalty_Charging>
  0.0006

> <r_epik_Ionization_Penalty_Neutral>
  4.4673

> <r_epik_State_Penalty>
 -0.0000

> <r_epik_Charging_Adjusted_Penalty>
0.000595471379479809

> <i_epik_Tot_Q>
-6

> <i_epik_Tot_abs_Q>
6

> <s_epik_Chemistry_Notes>
This compound has an ester and may undergo hydrolysis at high or low pH.

$$$$
