4nzo_ligand
                    3D
 Schrodinger Suite 2020-3.
 64 66  0  0  1  0            999 V2000
   -9.2040   14.8360   12.4590 C   0  0  0  0  0  0
  -10.1640   14.4470   11.5300 C   0  0  0  0  0  0
   -9.9700   14.7260   10.1840 C   0  0  0  0  0  0
   -8.8320   15.4080    9.7520 C   0  0  0  0  0  0
   -7.8760   15.8050   10.6850 C   0  0  0  0  0  0
   -8.0540   15.5050   12.0380 C   0  0  0  0  0  0
   -7.1110   15.9010   12.9820 C   0  0  0  0  0  0
   -7.6770   16.9410   13.7760 O   0  0  0  0  0  0
   -6.7510   17.4750   14.7360 C   0  0  2  0  0  0
   -7.2190   17.0680   16.1470 C   0  0  1  0  0  0
   -6.9760   15.6460   16.3330 O   0  0  0  0  0  0
   -8.1170   14.5750   16.7940 P   0  0  0  0  0  0
   -8.2090   13.5500   15.5500 O   0  5  0  0  0  0
   -9.4100   15.2710   16.9240 O   0  0  0  0  0  0
   -7.5930   13.8230   17.9560 O   0  5  0  0  0  0
   -6.4800   17.8240   17.2590 C   0  0  2  0  0  0
   -7.1510   17.4990   18.4920 O   0  0  0  0  0  0
   -6.3900   17.0270   19.8230 P   0  0  0  0  0  0
   -7.4670   17.0220   20.8310 O   0  0  0  0  0  0
   -5.3360   18.0510   19.9840 O   0  5  0  0  0  0
   -5.9050   15.6800   19.4330 O   0  0  0  0  0  0
   -6.6930   18.9900   14.5490 C   0  0  2  0  0  0
   -6.1080   19.3180   13.2600 O   0  0  0  0  0  0
   -6.8170   20.2270   12.1300 P   0  0  0  0  0  0
   -7.4280   19.1520   11.2890 O   0  5  0  0  0  0
   -7.7400   21.1430   12.8000 O   0  0  0  0  0  0
   -5.6520   20.9070   11.5330 O   0  0  0  0  0  0
   -5.8040   19.5760   15.6160 C   0  0  1  0  0  0
   -5.5060   20.9800   15.2500 O   0  0  0  0  0  0
   -4.1570   21.5090   14.4200 P   0  0  0  0  0  0
   -4.4970   22.9250   14.1840 O   0  5  0  0  0  0
   -3.1670   21.2350   15.4570 O   0  0  0  0  0  0
   -3.8360   20.9280   13.1170 O   0  5  0  0  0  0
   -6.4860   19.3410   16.9930 C   0  0  1  0  0  0
   -7.8630   19.7970   17.0270 O   0  0  0  0  0  0
   -8.2670   20.1870   18.3320 C   0  0  0  0  0  0
   -9.6530   19.9380   18.4110 C   0  0  0  0  0  0
  -10.5510   20.9690   18.1170 C   0  0  0  0  0  0
  -11.9270   20.7540   18.1950 C   0  0  0  0  0  0
  -12.4230   19.5070   18.5730 C   0  0  0  0  0  0
  -11.5370   18.4750   18.8760 C   0  0  0  0  0  0
  -10.1570   18.6870   18.7950 C   0  0  0  0  0  0
   -9.3504   14.6179   13.5169 H   0  0  0  0  0  0
  -11.0637   13.9259   11.8574 H   0  0  0  0  0  0
  -10.7160   14.4083    9.4555 H   0  0  0  0  0  0
   -8.6919   15.6284    8.6937 H   0  0  0  0  0  0
   -6.9896   16.3494   10.3594 H   0  0  0  0  0  0
   -6.8468   15.0435   13.6184 H   0  0  0  0  0  0
   -6.2100   16.2679   12.4687 H   0  0  0  0  0  0
   -5.7566   17.0478   14.5395 H   0  0  0  0  0  0
   -8.2987   17.2609   16.2311 H   0  0  0  0  0  0
   -5.4337   17.5018   17.3661 H   0  0  0  0  0  0
   -6.6213   14.8573   19.2912 H   0  0  0  0  0  0
   -7.7053   19.4197   14.5740 H   0  0  0  0  0  0
   -4.8868   20.3224   11.0012 H   0  0  0  0  0  0
   -4.8047   19.1183   15.6600 H   0  0  0  0  0  0
   -5.9881   19.9379   17.7713 H   0  0  0  0  0  0
   -7.7172   19.5948   19.0783 H   0  0  0  0  0  0
   -8.0497   21.2552   18.4792 H   0  0  0  0  0  0
  -10.1726   21.9485   17.8245 H   0  0  0  0  0  0
  -12.6172   21.5641   17.9595 H   0  0  0  0  0  0
  -13.4986   19.3402   18.6312 H   0  0  0  0  0  0
  -11.9205   17.5001   19.1769 H   0  0  0  0  0  0
   -9.4692   17.8752   19.0317 H   0  0  0  0  0  0
  1  2  2  0  0  0
  1  6  1  0  0  0
  1 43  1  0  0  0
  2  3  1  0  0  0
  2 44  1  0  0  0
  3  4  2  0  0  0
  3 45  1  0  0  0
  4  5  1  0  0  0
  4 46  1  0  0  0
  5  6  2  0  0  0
  5 47  1  0  0  0
  6  7  1  0  0  0
  7  8  1  0  0  0
  7 48  1  0  0  0
  7 49  1  0  0  0
  8  9  1  0  0  0
  9 10  1  0  0  0
  9 22  1  0  0  0
  9 50  1  0  0  0
 10 11  1  0  0  0
 10 16  1  0  0  0
 10 51  1  0  0  0
 11 12  1  0  0  0
 12 13  1  0  0  0
 12 14  2  0  0  0
 12 15  1  0  0  0
 16 17  1  0  0  0
 16 34  1  0  0  0
 16 52  1  0  0  0
 17 18  1  0  0  0
 18 19  2  0  0  0
 18 20  1  0  0  0
 18 21  1  0  0  0
 21 53  1  0  0  0
 22 23  1  0  0  0
 22 28  1  0  0  0
 22 54  1  0  0  0
 23 24  1  0  0  0
 24 25  1  0  0  0
 24 26  2  0  0  0
 24 27  1  0  0  0
 27 55  1  0  0  0
 28 29  1  0  0  0
 28 34  1  0  0  0
 28 56  1  0  0  0
 29 30  1  0  0  0
 30 31  1  0  0  0
 30 32  2  0  0  0
 30 33  1  0  0  0
 34 35  1  0  0  0
 34 57  1  0  0  0
 35 36  1  0  0  0
 36 37  1  0  0  0
 36 58  1  0  0  0
 36 59  1  0  0  0
 37 38  2  0  0  0
 37 42  1  0  0  0
 38 39  1  0  0  0
 38 60  1  0  0  0
 39 40  2  0  0  0
 39 61  1  0  0  0
 40 41  1  0  0  0
 40 62  1  0  0  0
 41 42  2  0  0  0
 41 63  1  0  0  0
 42 64  1  0  0  0
M  CHG  6  13  -1  15  -1  20  -1  25  -1  31  -1  33  -1
M  END
> <s_m_source_file>
../4nzo_ligand.sdf

> <i_m_source_file_index>
1

> <s_epik_input>
W2NIXTFbY0hdW2NIXVtjSF1bY0hdYzFbQ0gyXU9bQ0BASF0yW0NAQEhdKE9QKD1PKShbT0hdKVtPSF0pW0NASF0oT1AoPU8pKFtPSF0pW09IXSlbQ0BASF0oW0NASF0oT1AoPU8pKFtPSF0pW09IXSlbQ0BIXTJPUCg9TykoW09IXSlbT0hdKU9bQ0gyXWMzW2NIXVtjSF1bY0hdW2NIXVtjSF0z

> <s_epik_cmdline>
J2VwaWtfYXBwJywgJy1pbWFlJywgJ2xpZ2FuZF9wcm8ubWFlJywgJy1vbWFlJywgJ2xpZ2FuZF9wcmVwLm1hZScsICctbXMnLCAnMScsICctcGgnLCAnNycsICctcGh0JywgJzAuNScsICctbnQn

> <r_epik_Ionization_Penalty>
  2.2770

> <r_epik_Ionization_Penalty_Charging>
  0.2050

> <r_epik_Ionization_Penalty_Neutral>
  2.0720

> <r_epik_State_Penalty>
  0.3544

> <r_epik_Charging_Adjusted_Penalty>
0.559401067700898

> <i_epik_Tot_Q>
-6

> <i_epik_Tot_abs_Q>
6

$$$$
