4o04_ligand
                    3D
 Schrodinger Suite 2020-3.
 52 55  0  0  1  0            999 V2000
    8.6760  -12.3620  -24.2100 O   0  0  0  0  0  0
    7.5050  -12.7110  -24.3040 C   0  0  0  0  0  0
    7.1670  -14.1380  -24.6770 C   0  0  0  0  0  0
    5.9010  -14.3150  -25.5320 C   0  0  0  0  0  0
    5.5490  -15.7970  -25.6400 C   0  0  0  0  0  0
    6.1380  -13.7620  -26.9420 C   0  0  0  0  0  0
    6.3900  -11.7620  -24.1050 C   0  0  0  0  0  0
    6.2960  -10.3690  -23.7390 C   0  0  0  0  0  0
    7.4310   -9.4330  -23.3990 C   0  0  0  0  0  0
    6.9130   -7.9950  -23.4390 C   0  0  0  0  0  0
    5.6110   -7.8110  -22.7990 N   0  3  1  0  0  0
    5.2380   -6.3890  -22.7710 C   0  0  0  0  0  0
    4.5800   -8.5980  -23.4710 C   0  0  0  0  0  0
    4.9700  -10.0080  -23.7880 C   0  0  0  0  0  0
    4.2390  -11.1180  -24.1760 N   0  0  0  0  0  0
    5.1020  -12.1920  -24.3740 C   0  0  0  0  0  0
    4.7450  -13.5670  -24.8550 C   0  0  0  0  0  0
    2.8100  -11.1250  -24.3940 C   0  0  0  0  0  0
    2.2280  -10.1740  -25.2380 C   0  0  0  0  0  0
    0.8590  -10.1830  -25.4520 C   0  0  0  0  0  0
    0.0460  -11.1460  -24.8490 C   0  0  0  0  0  0
   -1.4300  -11.1550  -25.1550 C   0  0  0  0  0  0
   -2.2480  -11.7240  -24.2760 N   0  0  0  0  0  0
   -1.8320  -10.6500  -26.2050 O   0  0  0  0  0  0
    0.6330  -12.0950  -24.0080 C   0  0  0  0  0  0
    2.0020  -12.0860  -23.7720 C   0  0  0  0  0  0
    7.9959  -14.5719  -25.2555 H   0  0  0  0  0  0
    7.0095  -14.7286  -23.7624 H   0  0  0  0  0  0
    6.3762  -16.3359  -26.1251 H   0  0  0  0  0  0
    4.6339  -15.9138  -26.2392 H   0  0  0  0  0  0
    5.3833  -16.2088  -24.6335 H   0  0  0  0  0  0
    6.9684  -14.3069  -27.4147 H   0  0  0  0  0  0
    6.3895  -12.6930  -26.8791 H   0  0  0  0  0  0
    5.2261  -13.8893  -27.5438 H   0  0  0  0  0  0
    7.8086   -9.6652  -22.3923 H   0  0  0  0  0  0
    8.2413   -9.5577  -24.1324 H   0  0  0  0  0  0
    7.6242   -7.3346  -22.9213 H   0  0  0  0  0  0
    6.8077   -7.6721  -24.4853 H   0  0  0  0  0  0
    5.6932   -8.1745  -21.7641 H   0  0  0  0  0  0
    6.0251   -5.8134  -22.2620 H   0  0  0  0  0  0
    4.2881   -6.2697  -22.2293 H   0  0  0  0  0  0
    5.1218   -6.0201  -23.8008 H   0  0  0  0  0  0
    3.6863   -8.6534  -22.8320 H   0  0  0  0  0  0
    4.3185   -8.1200  -24.4266 H   0  0  0  0  0  0
    3.9141  -13.4547  -25.5670 H   0  0  0  0  0  0
    4.4026  -14.1371  -23.9788 H   0  0  0  0  0  0
    2.8512   -9.4256  -25.7275 H   0  0  0  0  0  0
    0.4106   -9.4291  -26.0991 H   0  0  0  0  0  0
   -1.8434  -12.1621  -23.3517 H   0  0  0  0  0  0
   -3.3298  -11.7569  -24.4726 H   0  0  0  0  0  0
    0.0094  -12.8514  -23.5315 H   0  0  0  0  0  0
    2.4464  -12.8245  -23.1048 H   0  0  0  0  0  0
  1  2  2  0  0  0
  2  3  1  0  0  0
  2  7  1  0  0  0
  3  4  1  0  0  0
  3 27  1  0  0  0
  3 28  1  0  0  0
  4  5  1  0  0  0
  4  6  1  0  0  0
  4 17  1  0  0  0
  5 29  1  0  0  0
  5 30  1  0  0  0
  5 31  1  0  0  0
  6 32  1  0  0  0
  6 33  1  0  0  0
  6 34  1  0  0  0
  7  8  1  0  0  0
  7 16  2  0  0  0
  8  9  1  0  0  0
  8 14  2  0  0  0
  9 10  1  0  0  0
  9 35  1  0  0  0
  9 36  1  0  0  0
 10 11  1  0  0  0
 10 37  1  0  0  0
 10 38  1  0  0  0
 11 12  1  0  0  0
 11 13  1  0  0  0
 11 39  1  0  0  0
 12 40  1  0  0  0
 12 41  1  0  0  0
 12 42  1  0  0  0
 13 14  1  0  0  0
 13 43  1  0  0  0
 13 44  1  0  0  0
 14 15  1  0  0  0
 15 16  1  0  0  0
 15 18  1  0  0  0
 16 17  1  0  0  0
 17 45  1  0  0  0
 17 46  1  0  0  0
 18 19  2  0  0  0
 18 26  1  0  0  0
 19 20  1  0  0  0
 19 47  1  0  0  0
 20 21  2  0  0  0
 20 48  1  0  0  0
 21 22  1  0  0  0
 21 25  1  0  0  0
 22 23  1  0  0  0
 22 24  2  0  0  0
 23 49  1  0  0  0
 23 50  1  0  0  0
 25 26  2  0  0  0
 25 51  1  0  0  0
 26 52  1  0  0  0
M  CHG  1  11   1
M  END
> <s_m_source_file>
../4o04_ligand.sdf

> <i_m_source_file_index>
1

> <s_epik_input>
Tz1DMVtDSDJdQyhbQ0gzXSkoW0NIM10pW0NIMl1jMm4oYyhjM2MxMilbQ0gyXVtOQEgrXShbQ0gzXSlbQ0gyXVtDSDJdMyktYzRbY0hdW2NIXWMoQyg9TylbTkgyXSlbY0hdW2NIXTQ=

> <s_epik_cmdline>
J2VwaWtfYXBwJywgJy1pbWFlJywgJ2xpZ2FuZF9wcm8ubWFlJywgJy1vbWFlJywgJ2xpZ2FuZF9wcmVwLm1hZScsICctbXMnLCAnMScsICctcGgnLCAnNycsICctcGh0JywgJzAuNScsICctbnQn

> <r_lp_tautomer_probability>
0.99995

> <r_epik_Ionization_Penalty>
  0.0659

> <r_epik_Ionization_Penalty_Charging>
  0.0659

> <r_epik_Ionization_Penalty_Neutral>
  0.0000

> <r_epik_State_Penalty>
  0.0575

> <r_epik_Charging_Adjusted_Penalty>
0.123483229406175

> <i_epik_Tot_Q>
1

> <i_epik_Tot_abs_Q>
1

$$$$
