4o05_ligand
                    3D
 Schrodinger Suite 2020-3.
 67 71  0  0  1  0            999 V2000
    0.7140   -9.1120  -26.3690 N   0  0  0  0  0  0
    0.8080   -7.9940  -28.5230 C   0  0  0  0  0  0
    9.0410  -11.7730  -23.8750 O   0  0  0  0  0  0
    7.9020  -12.1850  -24.0010 C   0  0  0  0  0  0
    7.6580  -13.6180  -24.4150 C   0  0  0  0  0  0
    6.4210  -13.8490  -25.2970 C   0  0  0  0  0  0
    6.1630  -15.3470  -25.4440 C   0  0  0  0  0  0
    6.6450  -13.2460  -26.6890 C   0  0  0  0  0  0
    5.2100  -13.1900  -24.6230 C   0  0  0  0  0  0
    5.4820  -11.8010  -24.1240 C   0  0  0  0  0  0
    6.7380  -11.2980  -23.8380 C   0  0  0  0  0  0
    6.5580   -9.9210  -23.4420 C   0  0  0  0  0  0
    7.6270   -8.9270  -23.0450 C   0  0  0  0  0  0
    7.0220   -7.5190  -23.0450 C   0  0  0  0  0  0
    5.6900   -7.4320  -22.4490 N   0  3  1  0  0  0
    5.2230   -6.0350  -22.4000 C   0  0  0  0  0  0
    4.7300   -8.2680  -23.1640 C   0  0  0  0  0  0
    5.2150   -9.6450  -23.4980 C   0  0  0  0  0  0
    4.5580  -10.7870  -23.9190 N   0  0  0  0  0  0
    3.1490  -10.8610  -24.2010 C   0  0  0  0  0  0
    2.5970   -9.9590  -25.1110 C   0  0  0  0  0  0
    2.3610  -11.8420  -23.5930 C   0  0  0  0  0  0
    1.0120  -11.9520  -23.9210 C   0  0  0  0  0  0
    0.1890  -13.0570  -23.3040 C   0  0  0  0  0  0
   -1.2720  -12.6780  -23.2240 C   0  0  0  0  0  0
   -1.7260  -12.0360  -24.4710 N   0  0  0  0  0  0
   -0.9740  -11.2530  -25.2680 C   0  0  0  0  0  0
   -1.4470  -10.7670  -26.2900 O   0  0  0  0  0  0
    0.4430  -11.0440  -24.8580 C   0  0  0  0  0  0
    1.2430  -10.0150  -25.4450 C   0  0  0  0  0  0
    1.4550   -8.1200  -27.1700 C   0  0  0  0  0  0
    1.5420   -6.7910  -26.4630 C   0  0  0  0  0  0
   -0.3783   -9.1946  -26.4692 H   0  0  0  0  0  0
    0.7649   -8.9831  -29.0023 H   0  0  0  0  0  0
    1.3980   -7.3085  -29.1491 H   0  0  0  0  0  0
   -0.2117   -7.5983  -28.4064 H   0  0  0  0  0  0
    8.5216  -13.9861  -24.9884 H   0  0  0  0  0  0
    7.5210  -14.2404  -23.5185 H   0  0  0  0  0  0
    7.0294  -15.8226  -25.9269 H   0  0  0  0  0  0
    5.2663  -15.5058  -26.0610 H   0  0  0  0  0  0
    6.0075  -15.7915  -24.4499 H   0  0  0  0  0  0
    7.5148  -13.7263  -27.1610 H   0  0  0  0  0  0
    6.8287  -12.1655  -26.5953 H   0  0  0  0  0  0
    5.7521  -13.4137  -27.3092 H   0  0  0  0  0  0
    4.3808  -13.1238  -25.3428 H   0  0  0  0  0  0
    4.8977  -13.7942  -23.7585 H   0  0  0  0  0  0
    7.9994   -9.1712  -22.0392 H   0  0  0  0  0  0
    8.4574   -8.9744  -23.7649 H   0  0  0  0  0  0
    7.6729   -6.8403  -22.4743 H   0  0  0  0  0  0
    6.9335   -7.1579  -24.0803 H   0  0  0  0  0  0
    5.7673   -7.8178  -21.4218 H   0  0  0  0  0  0
    5.9580   -5.4215  -21.8584 H   0  0  0  0  0  0
    4.2543   -5.9902  -21.8808 H   0  0  0  0  0  0
    5.1081   -5.6507  -23.4243 H   0  0  0  0  0  0
    3.8249   -8.3928  -22.5515 H   0  0  0  0  0  0
    4.4642   -7.7879  -24.1173 H   0  0  0  0  0  0
    3.2321   -9.1999  -25.5676 H   0  0  0  0  0  0
    2.8019  -12.5205  -22.8627 H   0  0  0  0  0  0
    0.2804  -13.9671  -23.9150 H   0  0  0  0  0  0
    0.5529  -13.2606  -22.2861 H   0  0  0  0  0  0
   -1.8764  -13.5813  -23.0546 H   0  0  0  0  0  0
   -1.4233  -11.9743  -22.3922 H   0  0  0  0  0  0
   -2.7592  -12.1807  -24.8195 H   0  0  0  0  0  0
    2.4849   -8.4865  -27.2927 H   0  0  0  0  0  0
    2.0196   -6.9283  -25.4816 H   0  0  0  0  0  0
    0.5301   -6.3825  -26.3244 H   0  0  0  0  0  0
    2.1398   -6.0927  -27.0672 H   0  0  0  0  0  0
  1 30  1  0  0  0
  1 31  1  0  0  0
  1 33  1  0  0  0
  2 31  1  0  0  0
  2 34  1  0  0  0
  2 35  1  0  0  0
  2 36  1  0  0  0
  3  4  2  0  0  0
  4  5  1  0  0  0
  4 11  1  0  0  0
  5  6  1  0  0  0
  5 37  1  0  0  0
  5 38  1  0  0  0
  6  7  1  0  0  0
  6  8  1  0  0  0
  6  9  1  0  0  0
  7 39  1  0  0  0
  7 40  1  0  0  0
  7 41  1  0  0  0
  8 42  1  0  0  0
  8 43  1  0  0  0
  8 44  1  0  0  0
  9 10  1  0  0  0
  9 45  1  0  0  0
  9 46  1  0  0  0
 10 11  2  0  0  0
 10 19  1  0  0  0
 11 12  1  0  0  0
 12 13  1  0  0  0
 12 18  2  0  0  0
 13 14  1  0  0  0
 13 47  1  0  0  0
 13 48  1  0  0  0
 14 15  1  0  0  0
 14 49  1  0  0  0
 14 50  1  0  0  0
 15 16  1  0  0  0
 15 17  1  0  0  0
 15 51  1  0  0  0
 16 52  1  0  0  0
 16 53  1  0  0  0
 16 54  1  0  0  0
 17 18  1  0  0  0
 17 55  1  0  0  0
 17 56  1  0  0  0
 18 19  1  0  0  0
 19 20  1  0  0  0
 20 21  2  0  0  0
 20 22  1  0  0  0
 21 30  1  0  0  0
 21 57  1  0  0  0
 22 23  2  0  0  0
 22 58  1  0  0  0
 23 24  1  0  0  0
 23 29  1  0  0  0
 24 25  1  0  0  0
 24 59  1  0  0  0
 24 60  1  0  0  0
 25 26  1  0  0  0
 25 61  1  0  0  0
 25 62  1  0  0  0
 26 27  1  0  0  0
 26 63  1  0  0  0
 27 28  2  0  0  0
 27 29  1  0  0  0
 29 30  2  0  0  0
 31 32  1  0  0  0
 31 64  1  0  0  0
 32 65  1  0  0  0
 32 66  1  0  0  0
 32 67  1  0  0  0
M  CHG  1  15   1
M  END
> <s_m_source_file>
../4o05_ligand.sdf

> <i_m_source_file_index>
1

> <s_epik_input>
W0NIMl0xW0NIMl1bTkhdQyg9TyljKGMxMiljKFtOSF1bQ0hdKFtDSDNdKVtDSDNdKVtjSF1jKFtjSF0yKS1uM2MoW0NIMl1bTkBIK10oW0NIM10pW0NIMl1bQ0gyXTQpYzRjKGMzNSlDKD1PKVtDSDJdQyhbQ0gzXSkoW0NIM10pW0NIMl01

> <s_epik_cmdline>
J2VwaWtfYXBwJywgJy1pbWFlJywgJ2xpZ2FuZF9wcm8ubWFlJywgJy1vbWFlJywgJ2xpZ2FuZF9wcmVwLm1hZScsICctbXMnLCAnMScsICctcGgnLCAnNycsICctcGh0JywgJzAuNScsICctbnQn

> <r_lp_tautomer_probability>
0.99995

> <r_epik_Ionization_Penalty>
  0.0661

> <r_epik_Ionization_Penalty_Charging>
  0.0659

> <r_epik_Ionization_Penalty_Neutral>
  0.0001

> <r_epik_State_Penalty>
  0.0575

> <r_epik_Charging_Adjusted_Penalty>
0.123483229406175

> <i_epik_Tot_Q>
1

> <i_epik_Tot_abs_Q>
1

$$$$
