4o09_ligand
                    3D
 Schrodinger Suite 2020-3.
 58 61  0  0  1  0            999 V2000
   -1.1740  -10.6650  -26.4400 O   0  0  0  0  0  0
   -0.7710  -11.1080  -25.3650 C   0  0  0  0  0  0
   -1.5910  -11.8460  -24.5890 N   0  0  0  0  0  0
   -1.2210  -12.5500  -23.3480 C   0  0  0  0  0  0
    0.2020  -13.0500  -23.4740 C   0  0  0  0  0  0
    1.1160  -11.9670  -23.9990 C   0  0  0  0  0  0
    2.4490  -11.9470  -23.5870 C   0  0  0  0  0  0
    0.6390  -10.9560  -24.8890 C   0  0  0  0  0  0
    1.5210   -9.9130  -25.3100 C   0  0  0  0  0  0
    1.1630   -8.7060  -26.1480 C   0  0  0  0  0  0
    0.4060   -7.5520  -25.4770 C   0  0  0  0  0  0
    0.1500   -6.4470  -26.4950 C   0  0  0  0  0  0
    1.0980   -6.9660  -24.2420 C   0  0  0  0  0  0
    2.8520   -9.9380  -24.8940 C   0  0  0  0  0  0
    3.3110  -10.9500  -24.0510 C   0  0  0  0  0  0
    4.7100  -10.9970  -23.7010 N   0  0  0  0  0  0
    5.4490   -9.9140  -23.2690 C   0  0  0  0  0  0
    5.6110  -11.9980  -24.0540 C   0  0  0  0  0  0
    5.2730  -13.3350  -24.6470 C   0  0  0  0  0  0
    6.4270  -14.0140  -25.3970 C   0  0  0  0  0  0
    6.6140  -13.3680  -26.7740 C   0  0  0  0  0  0
    6.1040  -15.4940  -25.5890 C   0  0  0  0  0  0
    7.7090  -13.8620  -24.5640 C   0  0  0  0  0  0
    8.0220  -12.4580  -24.0960 C   0  0  0  0  0  0
    9.1880  -12.0990  -23.9940 O   0  0  0  0  0  0
    6.8940  -11.5410  -23.8220 C   0  0  0  0  0  0
    6.7770  -10.1940  -23.3270 C   0  0  0  0  0  0
    7.8760   -9.2340  -22.9550 C   0  0  0  0  0  0
   -2.6246  -11.8955  -24.9622 H   0  0  0  0  0  0
   -1.2979  -11.8575  -22.4968 H   0  0  0  0  0  0
   -1.9015  -13.4000  -23.1918 H   0  0  0  0  0  0
    0.5670  -13.3698  -22.4868 H   0  0  0  0  0  0
    0.2311  -13.9019  -24.1693 H   0  0  0  0  0  0
    2.8184  -12.7103  -22.9022 H   0  0  0  0  0  0
    2.0819   -8.2487  -26.5436 H   0  0  0  0  0  0
    0.5194   -9.0177  -26.9838 H   0  0  0  0  0  0
   -0.5416   -7.9786  -25.1164 H   0  0  0  0  0  0
   -0.3467   -6.8716  -27.3799 H   0  0  0  0  0  0
    1.1072   -5.9946  -26.7936 H   0  0  0  0  0  0
   -0.4952   -5.6774  -26.0463 H   0  0  0  0  0  0
    1.2810   -7.7663  -23.5099 H   0  0  0  0  0  0
    0.4537   -6.1969  -23.7911 H   0  0  0  0  0  0
    2.0561   -6.5141  -24.5384 H   0  0  0  0  0  0
    3.5385   -9.1610  -25.2301 H   0  0  0  0  0  0
    5.0268   -8.9682  -22.9295 H   0  0  0  0  0  0
    4.9651  -14.0238  -23.8466 H   0  0  0  0  0  0
    4.4501  -13.2190  -25.3676 H   0  0  0  0  0  0
    5.6909  -13.4827  -27.3612 H   0  0  0  0  0  0
    7.4463  -13.8592  -27.2994 H   0  0  0  0  0  0
    6.8390  -12.2985  -26.6497 H   0  0  0  0  0  0
    5.1855  -15.5944  -26.1859 H   0  0  0  0  0  0
    5.9568  -15.9675  -24.6071 H   0  0  0  0  0  0
    6.9370  -15.9862  -26.1123 H   0  0  0  0  0  0
    7.6326  -14.4802  -23.6574 H   0  0  0  0  0  0
    8.5741  -14.1895  -25.1593 H   0  0  0  0  0  0
    7.4347   -8.2864  -22.6126 H   0  0  0  0  0  0
    8.5117   -9.0464  -23.8329 H   0  0  0  0  0  0
    8.4843   -9.6680  -22.1478 H   0  0  0  0  0  0
  1  2  2  0  0  0
  2  3  1  0  0  0
  2  8  1  0  0  0
  3  4  1  0  0  0
  3 29  1  0  0  0
  4  5  1  0  0  0
  4 30  1  0  0  0
  4 31  1  0  0  0
  5  6  1  0  0  0
  5 32  1  0  0  0
  5 33  1  0  0  0
  6  7  2  0  0  0
  6  8  1  0  0  0
  7 15  1  0  0  0
  7 34  1  0  0  0
  8  9  2  0  0  0
  9 10  1  0  0  0
  9 14  1  0  0  0
 10 11  1  0  0  0
 10 35  1  0  0  0
 10 36  1  0  0  0
 11 12  1  0  0  0
 11 13  1  0  0  0
 11 37  1  0  0  0
 12 38  1  0  0  0
 12 39  1  0  0  0
 12 40  1  0  0  0
 13 41  1  0  0  0
 13 42  1  0  0  0
 13 43  1  0  0  0
 14 15  2  0  0  0
 14 44  1  0  0  0
 15 16  1  0  0  0
 16 17  1  0  0  0
 16 18  1  0  0  0
 17 27  2  0  0  0
 17 45  1  0  0  0
 18 19  1  0  0  0
 18 26  2  0  0  0
 19 20  1  0  0  0
 19 46  1  0  0  0
 19 47  1  0  0  0
 20 21  1  0  0  0
 20 22  1  0  0  0
 20 23  1  0  0  0
 21 48  1  0  0  0
 21 49  1  0  0  0
 21 50  1  0  0  0
 22 51  1  0  0  0
 22 52  1  0  0  0
 22 53  1  0  0  0
 23 24  1  0  0  0
 23 54  1  0  0  0
 23 55  1  0  0  0
 24 25  2  0  0  0
 24 26  1  0  0  0
 26 27  1  0  0  0
 27 28  1  0  0  0
 28 56  1  0  0  0
 28 57  1  0  0  0
 28 58  1  0  0  0
M  END
> <s_m_source_file>
../4o09_ligand.sdf

> <i_m_source_file_index>
1

> <s_epik_input>
W0NIMl0xW0NIMl1bTkhdQyg9TyljKGMxMiljKFtDSDJdW0NIXShbQ0gzXSlbQ0gzXSlbY0hdYyhbY0hdMiktbjNbY0hdYyhbQ0gzXSljKGMzNClDKD1PKVtDSDJdQyhbQ0gyXTQpKFtDSDNdKVtDSDNd

> <s_epik_cmdline>
J2VwaWtfYXBwJywgJy1pbWFlJywgJ2xpZ2FuZF9wcm8ubWFlJywgJy1vbWFlJywgJ2xpZ2FuZF9wcmVwLm1hZScsICctbXMnLCAnMScsICctcGgnLCAnNycsICctcGh0JywgJzAuNScsICctbnQn

> <r_lp_tautomer_probability>
1

> <r_epik_Ionization_Penalty>
  0.0000

> <r_epik_Ionization_Penalty_Charging>
  0.0000

> <r_epik_Ionization_Penalty_Neutral>
  0.0000

> <r_epik_State_Penalty>
 -0.0000

> <r_epik_Charging_Adjusted_Penalty>
0

> <i_epik_Tot_Q>
0

> <i_epik_Tot_abs_Q>
0

$$$$
