4o0j_ligand
                    3D
 Schrodinger Suite 2020-3.
 61 63  0  0  1  0            999 V2000
   48.2310  -15.4000   28.0770 N   0  0  0  0  0  0
   47.3890  -16.4580   28.1640 C   0  0  0  0  0  0
   46.0040  -16.2920   28.4130 C   0  0  0  0  0  0
   45.5480  -14.9720   28.5380 C   0  0  0  0  0  0
   46.4480  -13.8870   28.4120 C   0  0  0  0  0  0
   47.8240  -14.1320   28.1660 C   0  0  0  0  0  0
   44.1230  -14.7390   28.7480 C   0  0  0  0  0  0
   43.7010  -14.4000   30.0360 C   0  0  0  0  0  0
   42.3620  -14.1600   30.2710 C   0  0  0  0  0  0
   41.4860  -14.2760   29.1910 C   0  0  0  0  0  0
   41.8820  -14.5640   27.8960 C   0  0  0  0  0  0
   43.2420  -14.8440   27.6680 C   0  0  0  0  0  0
   39.7920  -13.9330   29.5820 Cl  0  0  0  0  0  0
   45.0380  -17.4760   28.5180 C   0  0  0  0  0  0
   48.9770  -13.1310   28.0780 C   0  0  0  0  0  0
   48.0620  -17.7990   28.0120 C   0  0  0  0  0  0
   48.1770  -18.4730   26.8020 C   0  0  0  0  0  0
   48.8370  -19.7290   26.7750 C   0  0  0  0  0  0
   49.3990  -20.2720   27.9450 C   0  0  0  0  0  0
   49.3080  -19.5650   29.1500 C   0  0  0  0  0  0
   48.6400  -18.3330   29.1490 C   0  0  0  0  0  0
   50.1060  -21.6160   27.9080 C   0  0  0  0  0  0
   49.8930  -20.0890   30.4570 C   0  0  0  0  0  0
   45.9110  -12.5080   28.6170 C   0  0  1  0  0  0
   46.4080  -12.0920   29.9890 C   0  0  0  0  0  0
   46.4160  -11.5840   27.6770 O   0  0  0  0  0  0
   45.8060  -11.4180   26.3880 C   0  0  0  0  0  0
   46.0160  -12.6140   25.5070 C   0  0  0  0  0  0
   46.5280  -10.2230   25.7180 C   0  0  0  0  0  0
   44.3240  -11.1740   26.6170 C   0  0  0  0  0  0
   46.6550  -10.8980   30.1860 O   0  0  0  0  0  0
   46.5860  -12.9290   30.9030 O   0  5  0  0  0  0
   44.4233  -14.3256   30.8489 H   0  0  0  0  0  0
   42.0022  -13.8898   31.2638 H   0  0  0  0  0  0
   41.1620  -14.5736   27.0777 H   0  0  0  0  0  0
   43.5976  -15.1339   26.6793 H   0  0  0  0  0  0
   45.5952  -18.4161   28.3923 H   0  0  0  0  0  0
   44.2726  -17.3955   27.7321 H   0  0  0  0  0  0
   44.5525  -17.4667   29.5050 H   0  0  0  0  0  0
   49.9147  -13.6688   27.8741 H   0  0  0  0  0  0
   49.0652  -12.5886   29.0309 H   0  0  0  0  0  0
   48.7804  -12.4157   27.2658 H   0  0  0  0  0  0
   47.7667  -18.0436   25.8880 H   0  0  0  0  0  0
   48.9094  -20.2794   25.8370 H   0  0  0  0  0  0
   48.5734  -17.7733   30.0819 H   0  0  0  0  0  0
   50.0772  -22.0174   26.8842 H   0  0  0  0  0  0
   49.6004  -22.3151   28.5903 H   0  0  0  0  0  0
   51.1523  -21.4887   28.2226 H   0  0  0  0  0  0
   50.3781  -21.0599   30.2783 H   0  0  0  0  0  0
   49.0875  -20.2120   31.1960 H   0  0  0  0  0  0
   50.6354  -19.3730   30.8395 H   0  0  0  0  0  0
   44.8231  -12.4804   28.4565 H   0  0  0  0  0  0
   47.0938  -12.7723   25.3545 H   0  0  0  0  0  0
   45.5293  -12.4436   24.5354 H   0  0  0  0  0  0
   45.5789  -13.5029   25.9852 H   0  0  0  0  0  0
   47.5921  -10.4667   25.5827 H   0  0  0  0  0  0
   46.4341   -9.3327   26.3572 H   0  0  0  0  0  0
   46.0706  -10.0208   24.7382 H   0  0  0  0  0  0
   43.8761  -12.0585   27.0935 H   0  0  0  0  0  0
   43.8297  -10.9875   25.6522 H   0  0  0  0  0  0
   44.1932  -10.2994   27.2711 H   0  0  0  0  0  0
  1  2  2  0  0  0
  1  6  1  0  0  0
  2  3  1  0  0  0
  2 16  1  0  0  0
  3  4  2  0  0  0
  3 14  1  0  0  0
  4  5  1  0  0  0
  4  7  1  0  0  0
  5  6  2  0  0  0
  5 24  1  0  0  0
  6 15  1  0  0  0
  7  8  2  0  0  0
  7 12  1  0  0  0
  8  9  1  0  0  0
  8 33  1  0  0  0
  9 10  2  0  0  0
  9 34  1  0  0  0
 10 11  1  0  0  0
 10 13  1  0  0  0
 11 12  2  0  0  0
 11 35  1  0  0  0
 12 36  1  0  0  0
 14 37  1  0  0  0
 14 38  1  0  0  0
 14 39  1  0  0  0
 15 40  1  0  0  0
 15 41  1  0  0  0
 15 42  1  0  0  0
 16 17  2  0  0  0
 16 21  1  0  0  0
 17 18  1  0  0  0
 17 43  1  0  0  0
 18 19  2  0  0  0
 18 44  1  0  0  0
 19 20  1  0  0  0
 19 22  1  0  0  0
 20 21  2  0  0  0
 20 23  1  0  0  0
 21 45  1  0  0  0
 22 46  1  0  0  0
 22 47  1  0  0  0
 22 48  1  0  0  0
 23 49  1  0  0  0
 23 50  1  0  0  0
 23 51  1  0  0  0
 24 25  1  0  0  0
 24 26  1  0  0  0
 24 52  1  0  0  0
 25 31  2  0  0  0
 25 32  1  0  0  0
 26 27  1  0  0  0
 27 28  1  0  0  0
 27 29  1  0  0  0
 27 30  1  0  0  0
 28 53  1  0  0  0
 28 54  1  0  0  0
 28 55  1  0  0  0
 29 56  1  0  0  0
 29 57  1  0  0  0
 29 58  1  0  0  0
 30 59  1  0  0  0
 30 60  1  0  0  0
 30 61  1  0  0  0
M  CHG  1  32  -1
M  END
> <s_m_source_file>
../4o0j_ligand.sdf

> <i_m_source_file_index>
1

> <s_epik_input>
W2NIXTFjKFtDSDNdKWMoW0NIM10pW2NIXVtjSF1jMS1jMm5jKFtDSDNdKWMoW0NAQEhdKEMoPU8pW09IXSlPQyhbQ0gzXSkoW0NIM10pW0NIM10pYyhjMltDSDNdKS1jM1tjSF1bY0hdYyhDbClbY0hdW2NIXTM=

> <s_epik_cmdline>
J2VwaWtfYXBwJywgJy1pbWFlJywgJ2xpZ2FuZF9wcm8ubWFlJywgJy1vbWFlJywgJ2xpZ2FuZF9wcmVwLm1hZScsICctbXMnLCAnMScsICctcGgnLCAnNycsICctcGh0JywgJzAuNScsICctbnQn

> <r_epik_Ionization_Penalty>
  0.0943

> <r_epik_Ionization_Penalty_Charging>
  0.0001

> <r_epik_Ionization_Penalty_Neutral>
  0.0942

> <r_epik_State_Penalty>
  0.0845

> <r_epik_Charging_Adjusted_Penalty>
0.0845350455337304

> <i_epik_Tot_Q>
-1

> <i_epik_Tot_abs_Q>
1

$$$$
