4o0r_ligand
                    3D
 Schrodinger Suite 2020-3.
 66 70  0  0  1  0            999 V2000
   16.0590  -16.9600   15.0720 C   0  0  0  0  0  0
   17.1970  -17.7030   14.7500 C   0  0  0  0  0  0
   15.4500  -17.5680   16.1430 C   0  0  0  0  0  0
   15.9890  -15.7950   14.1150 C   0  0  0  0  0  0
   17.8950  -17.0720   13.5690 C   0  0  0  0  0  0
   17.2760  -18.7130   15.5800 N   0  3  0  0  0  0
   14.2870  -17.2140   16.8380 N   0  0  0  0  0  0
   16.1970  -18.6510   16.4570 N   0  0  0  0  0  0
   17.1250  -15.8780   13.1920 N   0  0  0  0  0  0
   17.9290  -18.0940   12.4210 C   0  0  0  0  0  0
   19.3180  -16.6870   13.9810 C   0  0  0  0  0  0
   13.1380  -16.6880   16.2570 C   0  0  0  0  0  0
   17.3710  -15.0010   12.1930 C   0  0  0  0  0  0
   11.9980  -16.4510   17.0500 C   0  0  0  0  0  0
   13.0760  -16.4000   14.9630 N   0  0  0  0  0  0
   16.5330  -13.9620   12.0180 N   0  0  0  0  0  0
   18.3260  -15.1250   11.4520 O   0  0  0  0  0  0
   10.8510  -15.9180   16.4520 C   0  0  0  0  0  0
   11.7000  -16.7080   18.7650 S   0  0  0  0  0  0
   11.9840  -15.8930   14.4250 C   0  0  0  0  0  0
   16.7520  -13.0030   10.9380 C   0  0  1  0  0  0
   10.8980  -15.6550   15.1240 N   0  0  0  0  0  0
    9.7960  -15.7330   17.3680 C   0  0  0  0  0  0
   10.0590  -16.0860   18.6170 C   0  0  0  0  0  0
   11.9990  -15.5870   12.9470 C   0  0  0  0  0  0
   15.6880  -13.2890    9.9160 C   0  0  0  0  0  0
   16.5430  -11.5580   11.4010 C   0  0  0  0  0  0
   14.3680  -13.3550   10.3300 C   0  0  0  0  0  0
   16.0120  -13.4780    8.5880 C   0  0  0  0  0  0
   17.5070  -11.1050   12.4140 N   0  3  0  0  0  0
   13.3650  -13.6120    9.4150 C   0  0  0  0  0  0
   15.0090  -13.7340    7.6720 C   0  0  0  0  0  0
   13.6890  -13.8020    8.0850 C   0  0  0  0  0  0
   18.8490  -11.6440   12.1730 C   0  0  0  0  0  0
   17.5870   -9.6410   12.3570 C   0  0  0  0  0  0
   15.0452  -15.8394   13.5517 H   0  0  0  0  0  0
   16.0345  -14.8526   14.6806 H   0  0  0  0  0  0
   14.2365  -17.3461   17.9289 H   0  0  0  0  0  0
   16.9003  -18.3603   12.1366 H   0  0  0  0  0  0
   18.4640  -18.9971   12.7498 H   0  0  0  0  0  0
   18.4470  -17.6558   11.5552 H   0  0  0  0  0  0
   19.2769  -15.9562   14.8021 H   0  0  0  0  0  0
   19.8413  -16.2434   13.1211 H   0  0  0  0  0  0
   19.8583  -17.5847   14.3158 H   0  0  0  0  0  0
   15.6769  -13.8389   12.6977 H   0  0  0  0  0  0
   17.7823  -13.1411   10.5782 H   0  0  0  0  0  0
    8.8296  -15.3271   17.0689 H   0  0  0  0  0  0
    9.3535  -16.0026   19.4437 H   0  0  0  0  0  0
   12.9823  -15.8477   12.5286 H   0  0  0  0  0  0
   11.8073  -14.5149   12.7926 H   0  0  0  0  0  0
   11.2183  -16.1754   12.4428 H   0  0  0  0  0  0
   16.6368  -10.8799   10.5400 H   0  0  0  0  0  0
   15.5401  -11.4554   11.8410 H   0  0  0  0  0  0
   14.1197  -13.2038   11.3805 H   0  0  0  0  0  0
   17.0513  -13.4258    8.2637 H   0  0  0  0  0  0
   17.1635  -11.4590   13.3972 H   0  0  0  0  0  0
   12.3258  -13.6645    9.7398 H   0  0  0  0  0  0
   15.2579  -13.8828    6.6213 H   0  0  0  0  0  0
   12.9026  -14.0061    7.3584 H   0  0  0  0  0  0
   18.8150  -12.7428   12.2108 H   0  0  0  0  0  0
   19.5378  -11.2716   12.9456 H   0  0  0  0  0  0
   19.2009  -11.3219   11.1818 H   0  0  0  0  0  0
   16.5899   -9.2121   12.5353 H   0  0  0  0  0  0
   17.9471   -9.3318   11.3647 H   0  0  0  0  0  0
   18.2840   -9.2816   13.1284 H   0  0  0  0  0  0
   18.0109  -19.5267   15.6688 H   0  0  0  0  0  0
  1  2  2  0  0  0
  1  3  1  0  0  0
  1  4  1  0  0  0
  2  5  1  0  0  0
  2  6  1  0  0  0
  3  7  1  0  0  0
  3  8  2  0  0  0
  4  9  1  0  0  0
  4 36  1  0  0  0
  4 37  1  0  0  0
  5  9  1  0  0  0
  5 10  1  0  0  0
  5 11  1  0  0  0
  6  8  1  0  0  0
  6 66  1  0  0  0
  7 12  1  0  0  0
  7 38  1  0  0  0
  9 13  1  0  0  0
 10 39  1  0  0  0
 10 40  1  0  0  0
 10 41  1  0  0  0
 11 42  1  0  0  0
 11 43  1  0  0  0
 11 44  1  0  0  0
 12 14  2  0  0  0
 12 15  1  0  0  0
 13 16  1  0  0  0
 13 17  2  0  0  0
 14 18  1  0  0  0
 14 19  1  0  0  0
 15 20  2  0  0  0
 16 21  1  0  0  0
 16 45  1  0  0  0
 18 22  2  0  0  0
 18 23  1  0  0  0
 19 24  1  0  0  0
 20 22  1  0  0  0
 20 25  1  0  0  0
 21 26  1  0  0  0
 21 27  1  0  0  0
 21 46  1  0  0  0
 23 24  2  0  0  0
 23 47  1  0  0  0
 24 48  1  0  0  0
 25 49  1  0  0  0
 25 50  1  0  0  0
 25 51  1  0  0  0
 26 28  2  0  0  0
 26 29  1  0  0  0
 27 30  1  0  0  0
 27 52  1  0  0  0
 27 53  1  0  0  0
 28 31  1  0  0  0
 28 54  1  0  0  0
 29 32  2  0  0  0
 29 55  1  0  0  0
 30 34  1  0  0  0
 30 35  1  0  0  0
 30 56  1  0  0  0
 31 33  2  0  0  0
 31 57  1  0  0  0
 32 33  1  0  0  0
 32 58  1  0  0  0
 33 59  1  0  0  0
 34 60  1  0  0  0
 34 61  1  0  0  0
 34 62  1  0  0  0
 35 63  1  0  0  0
 35 64  1  0  0  0
 35 65  1  0  0  0
M  CHG  2   6   1  30   1
M  END
> <s_m_source_file>
../4o0r_ligand.sdf

> <i_m_source_file_index>
1

> <s_epik_input>
W2NIXTFbY0hdW2NIXVtjSF1bY0hdYzFbQ0BASF0oW0NIMl1bTkgrXShbQ0gzXSlbQ0gzXSlbTkhdQyg9TylOKFtDSDJdMilDKFtDSDNdKShbQ0gzXSljKGMyMylbbkhdbmMzW05IXWM0bmMoW0NIM10pbmMoYzQ1KVtjSF1bY0hdczU=

> <s_epik_cmdline>
J2VwaWtfYXBwJywgJy1pbWFlJywgJ2xpZ2FuZF9wcm8ubWFlJywgJy1vbWFlJywgJ2xpZ2FuZF9wcmVwLm1hZScsICctbXMnLCAnMScsICctcGgnLCAnNycsICctcGh0JywgJzAuNScsICctbnQn

> <r_lp_tautomer_probability>
1

> <r_epik_Ionization_Penalty>
  0.0219

> <r_epik_Ionization_Penalty_Charging>
  0.0110

> <r_epik_Ionization_Penalty_Neutral>
  0.0109

> <r_epik_State_Penalty>
 -0.0000

> <r_epik_Charging_Adjusted_Penalty>
0.0110307749316627

> <i_epik_Tot_Q>
2

> <i_epik_Tot_abs_Q>
2

> <s_epik_Chemistry_Notes>
This compound has an imine and may undergo hydrolysis.

$$$$
