4o0t_ligand
                    3D
 Schrodinger Suite 2020-3.
 56 59  0  0  1  0            999 V2000
   13.3550  -11.8340   15.5130 C   0  0  0  0  0  0
   13.0080  -12.5910   14.3520 O   0  0  0  0  0  0
   12.4070  -13.8600   14.6260 C   0  0  0  0  0  0
   12.6240  -14.7750   13.4160 C   0  0  0  0  0  0
   13.8130  -15.6120   13.6150 N   0  0  0  0  0  0
   15.0160  -15.3510   12.9920 C   0  0  0  0  0  0
   15.2040  -14.5450   11.9740 N   0  0  0  0  0  0
   16.5200  -14.5330   11.6240 C   0  0  0  0  0  0
   17.2460  -13.8590   10.6260 C   0  0  0  0  0  0
   18.5950  -14.0400   10.5080 C   0  0  0  0  0  0
   19.2580  -14.9140   11.3730 C   0  0  0  0  0  0
   18.5530  -15.5840   12.3690 C   0  0  0  0  0  0
   17.1850  -15.4090   12.5080 C   0  0  0  0  0  0
   16.2070  -15.9210   13.3680 N   0  0  0  0  0  0
   16.3470  -16.8260   14.4330 C   0  0  0  0  0  0
   17.4150  -17.7200   14.5620 C   0  0  0  0  0  0
   17.4620  -18.5740   15.6530 C   0  0  0  0  0  0
   16.4910  -18.5310   16.5520 N   0  0  0  0  0  0
   15.4890  -17.6760   16.4110 C   0  0  0  0  0  0
   15.4190  -16.8450   15.3790 N   0  0  0  0  0  0
   14.4870  -17.6480   17.3640 N   0  0  0  0  0  0
   20.6730  -15.1140   11.2830 C   0  0  0  0  0  0
   21.8170  -15.3510   11.2550 C   0  0  0  0  0  0
   23.2640  -15.6240   11.2190 C   0  0  0  0  0  0
   23.7650  -15.8060   12.6490 C   0  0  0  0  0  0
   25.2260  -16.2550   12.6600 C   0  0  0  0  0  0
   25.3740  -17.5670   11.8950 C   0  0  0  0  0  0
   24.9250  -17.3600   10.4500 C   0  0  0  0  0  0
   23.4640  -16.9170   10.4210 C   0  0  0  0  0  0
   23.9660  -14.5540   10.5890 O   0  0  0  0  0  0
   13.8079  -10.8796   15.2065 H   0  0  0  0  0  0
   14.0744  -12.4030   16.1202 H   0  0  0  0  0  0
   12.4498  -11.6367   16.1061 H   0  0  0  0  0  0
   12.8743  -14.3020   15.5184 H   0  0  0  0  0  0
   11.3301  -13.7247   14.8049 H   0  0  0  0  0  0
   11.7460  -15.4247   13.2855 H   0  0  0  0  0  0
   12.7640  -14.1622   12.5133 H   0  0  0  0  0  0
   13.7654  -16.4855   14.2819 H   0  0  0  0  0  0
   16.7285  -13.1870    9.9413 H   0  0  0  0  0  0
   19.1529  -13.5036    9.7405 H   0  0  0  0  0  0
   19.0825  -16.2535   13.0469 H   0  0  0  0  0  0
   18.2042  -17.7450   13.8105 H   0  0  0  0  0  0
   18.2897  -19.2736   15.7695 H   0  0  0  0  0  0
   14.5288  -18.3298   18.2262 H   0  0  0  0  0  0
   13.6483  -16.9439   17.2597 H   0  0  0  0  0  0
   23.6835  -14.8519   13.1903 H   0  0  0  0  0  0
   23.1561  -16.5687   13.1566 H   0  0  0  0  0  0
   25.8498  -15.4851   12.1824 H   0  0  0  0  0  0
   25.5565  -16.4023   13.6988 H   0  0  0  0  0  0
   26.4270  -17.8847   11.9122 H   0  0  0  0  0  0
   24.7502  -18.3397   12.3681 H   0  0  0  0  0  0
   25.5492  -16.5861    9.9794 H   0  0  0  0  0  0
   25.0301  -18.3037    9.8946 H   0  0  0  0  0  0
   22.8453  -17.7158   10.8560 H   0  0  0  0  0  0
   23.1670  -16.7519    9.3748 H   0  0  0  0  0  0
   23.9358  -13.5444   11.0247 H   0  0  0  0  0  0
  1  2  1  0  0  0
  1 31  1  0  0  0
  1 32  1  0  0  0
  1 33  1  0  0  0
  2  3  1  0  0  0
  3  4  1  0  0  0
  3 34  1  0  0  0
  3 35  1  0  0  0
  4  5  1  0  0  0
  4 36  1  0  0  0
  4 37  1  0  0  0
  5  6  1  0  0  0
  5 38  1  0  0  0
  6  7  2  0  0  0
  6 14  1  0  0  0
  7  8  1  0  0  0
  8  9  2  0  0  0
  8 13  1  0  0  0
  9 10  1  0  0  0
  9 39  1  0  0  0
 10 11  2  0  0  0
 10 40  1  0  0  0
 11 12  1  0  0  0
 11 22  1  0  0  0
 12 13  2  0  0  0
 12 41  1  0  0  0
 13 14  1  0  0  0
 14 15  1  0  0  0
 15 16  2  0  0  0
 15 20  1  0  0  0
 16 17  1  0  0  0
 16 42  1  0  0  0
 17 18  2  0  0  0
 17 43  1  0  0  0
 18 19  1  0  0  0
 19 20  2  0  0  0
 19 21  1  0  0  0
 21 44  1  0  0  0
 21 45  1  0  0  0
 22 23  3  0  0  0
 23 24  1  0  0  0
 24 25  1  0  0  0
 24 29  1  0  0  0
 24 30  1  0  0  0
 25 26  1  0  0  0
 25 46  1  0  0  0
 25 47  1  0  0  0
 26 27  1  0  0  0
 26 48  1  0  0  0
 26 49  1  0  0  0
 27 28  1  0  0  0
 27 50  1  0  0  0
 27 51  1  0  0  0
 28 29  1  0  0  0
 28 52  1  0  0  0
 28 53  1  0  0  0
 29 54  1  0  0  0
 29 55  1  0  0  0
 30 56  1  0  0  0
M  END
> <s_m_source_file>
../4o0t_ligand.sdf

> <i_m_source_file_index>
1

> <s_epik_input>
W0NIM11PW0NIMl1bQ0gyXVtOSF1jKG4xKW4oLWMyW2NIXVtjSF1uYyhuMilbTkgyXSljKGMxMylbY0hdYyhbY0hdW2NIXTMpQyNDQzQoW09IXSlbQ0gyXVtDSDJdW0NIMl1bQ0gyXVtDSDJdNA==

> <s_epik_cmdline>
J2VwaWtfYXBwJywgJy1pbWFlJywgJ2xpZ2FuZF9wcm8ubWFlJywgJy1vbWFlJywgJ2xpZ2FuZF9wcmVwLm1hZScsICctbXMnLCAnMScsICctcGgnLCAnNycsICctcGh0JywgJzAuNScsICctbnQn

> <r_epik_Ionization_Penalty>
  0.0721

> <r_epik_Ionization_Penalty_Charging>
  0.0000

> <r_epik_Ionization_Penalty_Neutral>
  0.0721

> <r_epik_State_Penalty>
  0.0633

> <r_epik_Charging_Adjusted_Penalty>
0.0632778549507155

> <i_epik_Tot_Q>
0

> <i_epik_Tot_abs_Q>
0

$$$$
