4o0v_ligand
                    3D
 Schrodinger Suite 2020-3.
 56 59  0  0  1  0            999 V2000
  -40.9260   11.3530  -11.2700 C   0  0  0  0  0  0
  -40.4830   12.5880  -11.8320 O   0  0  0  0  0  0
  -39.4690   13.2490  -11.0700 C   0  0  0  0  0  0
  -38.7850   14.2990  -11.9510 C   0  0  0  0  0  0
  -38.3650   13.6690  -13.2060 N   0  0  0  0  0  0
  -37.0250   13.4410  -13.4320 C   0  0  0  0  0  0
  -36.0520   14.1340  -12.8920 N   0  0  0  0  0  0
  -34.8540   13.6590  -13.3200 C   0  0  0  0  0  0
  -33.5330   14.0330  -13.0550 C   0  0  0  0  0  0
  -32.5020   13.3580  -13.6430 C   0  0  0  0  0  0
  -32.7580   12.2920  -14.5110 C   0  0  0  0  0  0
  -34.0640   11.9070  -14.7800 C   0  0  0  0  0  0
  -35.1220   12.5840  -14.1930 C   0  0  0  0  0  0
  -36.5110   12.4640  -14.2500 N   0  0  0  0  0  0
  -37.2590   11.5320  -14.9880 C   0  0  0  0  0  0
  -36.7620   10.9610  -16.1660 C   0  0  0  0  0  0
  -37.5420   10.0450  -16.8480 C   0  0  0  0  0  0
  -38.7400    9.7340  -16.3730 N   0  0  0  0  0  0
  -39.1910   10.2860  -15.2570 C   0  0  0  0  0  0
  -38.4710   11.1670  -14.5710 N   0  0  0  0  0  0
  -40.4460    9.9260  -14.7980 N   0  0  0  0  0  0
  -31.6680   11.5920  -15.1290 C   0  0  0  0  0  0
  -30.7940   10.9980  -15.6350 C   0  0  0  0  0  0
  -29.6950   10.2520  -16.2780 C   0  0  0  0  0  0
  -30.0230    8.7580  -16.2790 C   0  0  0  0  0  0
  -28.9700    7.9690  -17.0810 C   0  0  0  0  0  0
  -28.8880    8.5060  -18.5100 C   0  0  0  0  0  0
  -28.4800    9.9760  -18.4690 C   0  0  0  0  0  0
  -29.5530   10.7680  -17.7250 C   0  0  0  0  0  0
  -28.4790   10.4990  -15.5810 O   0  0  0  0  0  0
  -41.7012   10.9138  -11.9151 H   0  0  0  0  0  0
  -41.3422   11.5345  -10.2681 H   0  0  0  0  0  0
  -40.0759   10.6590  -11.1937 H   0  0  0  0  0  0
  -39.9266   13.7388  -10.1978 H   0  0  0  0  0  0
  -38.7272   12.5117  -10.7292 H   0  0  0  0  0  0
  -39.4911   15.1152  -12.1639 H   0  0  0  0  0  0
  -37.9063   14.7019  -11.4261 H   0  0  0  0  0  0
  -39.1168   13.3831  -13.9564 H   0  0  0  0  0  0
  -33.3264   14.8630  -12.3793 H   0  0  0  0  0  0
  -31.4733   13.6519  -13.4345 H   0  0  0  0  0  0
  -34.2580   11.0719  -15.4531 H   0  0  0  0  0  0
  -35.7753   11.2343  -16.5398 H   0  0  0  0  0  0
  -37.1760    9.5841  -17.7654 H   0  0  0  0  0  0
  -41.0489    9.1973  -15.3597 H   0  0  0  0  0  0
  -40.8406   10.3685  -13.8715 H   0  0  0  0  0  0
  -30.0347    8.3845  -15.2444 H   0  0  0  0  0  0
  -31.0104    8.5997  -16.7372 H   0  0  0  0  0  0
  -27.9871    8.0744  -16.5986 H   0  0  0  0  0  0
  -29.2520    6.9062  -17.1102 H   0  0  0  0  0  0
  -28.1406    7.9304  -19.0757 H   0  0  0  0  0  0
  -29.8703    8.4082  -18.9954 H   0  0  0  0  0  0
  -27.5167   10.0747  -17.9471 H   0  0  0  0  0  0
  -28.3815   10.3580  -19.4958 H   0  0  0  0  0  0
  -30.5123   10.6535  -18.2509 H   0  0  0  0  0  0
  -29.2681   11.8303  -17.7092 H   0  0  0  0  0  0
  -28.3792   10.2015  -14.5267 H   0  0  0  0  0  0
  1  2  1  0  0  0
  1 31  1  0  0  0
  1 32  1  0  0  0
  1 33  1  0  0  0
  2  3  1  0  0  0
  3  4  1  0  0  0
  3 34  1  0  0  0
  3 35  1  0  0  0
  4  5  1  0  0  0
  4 36  1  0  0  0
  4 37  1  0  0  0
  5  6  1  0  0  0
  5 38  1  0  0  0
  6  7  2  0  0  0
  6 14  1  0  0  0
  7  8  1  0  0  0
  8  9  2  0  0  0
  8 13  1  0  0  0
  9 10  1  0  0  0
  9 39  1  0  0  0
 10 11  2  0  0  0
 10 40  1  0  0  0
 11 12  1  0  0  0
 11 22  1  0  0  0
 12 13  2  0  0  0
 12 41  1  0  0  0
 13 14  1  0  0  0
 14 15  1  0  0  0
 15 16  2  0  0  0
 15 20  1  0  0  0
 16 17  1  0  0  0
 16 42  1  0  0  0
 17 18  2  0  0  0
 17 43  1  0  0  0
 18 19  1  0  0  0
 19 20  2  0  0  0
 19 21  1  0  0  0
 21 44  1  0  0  0
 21 45  1  0  0  0
 22 23  3  0  0  0
 23 24  1  0  0  0
 24 25  1  0  0  0
 24 29  1  0  0  0
 24 30  1  0  0  0
 25 26  1  0  0  0
 25 46  1  0  0  0
 25 47  1  0  0  0
 26 27  1  0  0  0
 26 48  1  0  0  0
 26 49  1  0  0  0
 27 28  1  0  0  0
 27 50  1  0  0  0
 27 51  1  0  0  0
 28 29  1  0  0  0
 28 52  1  0  0  0
 28 53  1  0  0  0
 29 54  1  0  0  0
 29 55  1  0  0  0
 30 56  1  0  0  0
M  END
> <s_m_source_file>
../4o0v_ligand.sdf

> <i_m_source_file_index>
1

> <s_epik_input>
W0NIM11PW0NIMl1bQ0gyXVtOSF1jKG4xKW4oLWMyW2NIXVtjSF1uYyhuMilbTkgyXSljKGMxMylbY0hdYyhbY0hdW2NIXTMpQyNDQzQoW09IXSlbQ0gyXVtDSDJdW0NIMl1bQ0gyXVtDSDJdNA==

> <s_epik_cmdline>
J2VwaWtfYXBwJywgJy1pbWFlJywgJ2xpZ2FuZF9wcm8ubWFlJywgJy1vbWFlJywgJ2xpZ2FuZF9wcmVwLm1hZScsICctbXMnLCAnMScsICctcGgnLCAnNycsICctcGh0JywgJzAuNScsICctbnQn

> <r_epik_Ionization_Penalty>
  0.0721

> <r_epik_Ionization_Penalty_Charging>
  0.0000

> <r_epik_Ionization_Penalty_Neutral>
  0.0721

> <r_epik_State_Penalty>
  0.0633

> <r_epik_Charging_Adjusted_Penalty>
0.0632778549507153

> <i_epik_Tot_Q>
0

> <i_epik_Tot_abs_Q>
0

$$$$
