4o0x_ligand
                    3D
 Schrodinger Suite 2020-3.
 46 49  0  0  1  0            999 V2000
  -18.7850   -4.1390   13.3680 C   0  0  0  0  0  0
  -19.0560   -2.6900   13.7020 C   0  0  0  0  0  0
  -18.3740   -1.7150   13.1770 N   0  0  0  0  0  0
  -18.8170   -0.5230   13.6420 C   0  0  0  0  0  0
  -18.4310    0.8000   13.3950 C   0  0  0  0  0  0
  -19.0730    1.8230   14.0190 C   0  0  0  0  0  0
  -20.1210    1.5720   14.9140 C   0  0  0  0  0  0
  -20.5130    0.2580   15.1750 C   0  0  0  0  0  0
  -19.8650   -0.8000   14.5410 C   0  0  0  0  0  0
  -20.0030   -2.1890   14.5700 N   0  0  0  0  0  0
  -20.9410   -2.8910   15.3420 C   0  0  0  0  0  0
  -21.4330   -2.3500   16.4560 N   0  0  0  0  0  0
  -22.3260   -2.9950   17.1910 C   0  0  0  0  0  0
  -22.7440   -4.1970   16.8300 N   0  0  0  0  0  0
  -22.2660   -4.7520   15.7140 C   0  0  0  0  0  0
  -21.3700   -4.0930   14.9820 N   0  0  0  0  0  0
  -22.6970   -6.0070   15.3130 N   0  0  0  0  0  0
  -20.7700    2.6850   15.5470 C   0  0  0  0  0  0
  -21.2950    3.5990   16.0680 C   0  0  0  0  0  0
  -21.9530    4.7570   16.7020 C   0  0  0  0  0  0
  -23.4610    4.5300   16.6490 C   0  0  0  0  0  0
  -24.1770    5.7470   17.2340 C   0  0  0  0  0  0
  -23.7330    5.9220   18.6830 C   0  0  0  0  0  0
  -22.2180    6.1370   18.7390 C   0  0  0  0  0  0
  -21.5030    4.9090   18.1670 C   0  0  0  0  0  0
  -21.6600    5.9580   15.9930 O   0  0  0  0  0  0
  -17.9632   -4.1998   12.6393 H   0  0  0  0  0  0
  -19.6906   -4.5917   12.9380 H   0  0  0  0  0  0
  -18.5039   -4.6799   14.2836 H   0  0  0  0  0  0
  -17.6158    1.0097   12.7025 H   0  0  0  0  0  0
  -18.7687    2.8507   13.8206 H   0  0  0  0  0  0
  -21.3254    0.0598   15.8742 H   0  0  0  0  0  0
  -22.7182   -2.5335   18.0972 H   0  0  0  0  0  0
  -23.4371   -6.5531   15.9163 H   0  0  0  0  0  0
  -22.2989   -6.4568   14.3915 H   0  0  0  0  0  0
  -23.7737    4.3863   15.6042 H   0  0  0  0  0  0
  -23.7179    3.6352   17.2350 H   0  0  0  0  0  0
  -23.9146    6.6421   16.6509 H   0  0  0  0  0  0
  -25.2646    5.5879   17.1919 H   0  0  0  0  0  0
  -24.2406    6.7950   19.1191 H   0  0  0  0  0  0
  -23.9940    5.0212   19.2578 H   0  0  0  0  0  0
  -21.9514    7.0243   18.1460 H   0  0  0  0  0  0
  -21.9073    6.2872   19.7835 H   0  0  0  0  0  0
  -21.7779    4.0052   18.7306 H   0  0  0  0  0  0
  -20.4122    5.0461   18.2032 H   0  0  0  0  0  0
  -21.9103    6.0413   14.9251 H   0  0  0  0  0  0
  1  2  1  0  0  0
  1 27  1  0  0  0
  1 28  1  0  0  0
  1 29  1  0  0  0
  2  3  2  0  0  0
  2 10  1  0  0  0
  3  4  1  0  0  0
  4  5  2  0  0  0
  4  9  1  0  0  0
  5  6  1  0  0  0
  5 30  1  0  0  0
  6  7  2  0  0  0
  6 31  1  0  0  0
  7  8  1  0  0  0
  7 18  1  0  0  0
  8  9  2  0  0  0
  8 32  1  0  0  0
  9 10  1  0  0  0
 10 11  1  0  0  0
 11 12  2  0  0  0
 11 16  1  0  0  0
 12 13  1  0  0  0
 13 14  2  0  0  0
 13 33  1  0  0  0
 14 15  1  0  0  0
 15 16  2  0  0  0
 15 17  1  0  0  0
 17 34  1  0  0  0
 17 35  1  0  0  0
 18 19  3  0  0  0
 19 20  1  0  0  0
 20 21  1  0  0  0
 20 25  1  0  0  0
 20 26  1  0  0  0
 21 22  1  0  0  0
 21 36  1  0  0  0
 21 37  1  0  0  0
 22 23  1  0  0  0
 22 38  1  0  0  0
 22 39  1  0  0  0
 23 24  1  0  0  0
 23 40  1  0  0  0
 23 41  1  0  0  0
 24 25  1  0  0  0
 24 42  1  0  0  0
 24 43  1  0  0  0
 25 44  1  0  0  0
 25 45  1  0  0  0
 26 46  1  0  0  0
M  END
> <s_m_source_file>
../4o0x_ligand.sdf

> <i_m_source_file_index>
1

> <s_epik_input>
bjFjKFtOSDJdKW5bY0hdbmMxLW4oYyhuMilbQ0gzXSljKGMyMylbY0hdYyhbY0hdW2NIXTMpQyNDQzQoW09IXSlbQ0gyXVtDSDJdW0NIMl1bQ0gyXVtDSDJdNA==

> <s_epik_cmdline>
J2VwaWtfYXBwJywgJy1pbWFlJywgJ2xpZ2FuZF9wcm8ubWFlJywgJy1vbWFlJywgJ2xpZ2FuZF9wcmVwLm1hZScsICctbXMnLCAnMScsICctcGgnLCAnNycsICctcGh0JywgJzAuNScsICctbnQn

> <r_epik_Ionization_Penalty>
  0.0590

> <r_epik_Ionization_Penalty_Charging>
  0.0000

> <r_epik_Ionization_Penalty_Neutral>
  0.0590

> <r_epik_State_Penalty>
  0.0511

> <r_epik_Charging_Adjusted_Penalty>
0.0510963828139443

> <i_epik_Tot_Q>
0

> <i_epik_Tot_abs_Q>
0

$$$$
