4o0y_ligand
                    3D
 Schrodinger Suite 2020-3.
 44 46  0  0  1  0            999 V2000
   12.7220  -36.4820   11.6480 C   0  0  0  0  0  0
   13.6370  -36.3050   12.8630 C   0  0  0  0  0  0
   12.9440  -35.5820   13.9450 N   0  0  0  0  0  0
   13.0070  -34.2030   14.0560 C   0  0  0  0  0  0
   13.8230  -33.4120   13.4010 N   0  0  0  0  0  0
   13.5960  -32.1140   13.7650 C   0  0  0  0  0  0
   14.1660  -30.8880   13.3810 C   0  0  0  0  0  0
   13.7350  -29.7050   13.9380 C   0  0  0  0  0  0
   12.6980  -29.7090   14.8820 C   0  0  0  0  0  0
   12.1210  -30.9200   15.2700 C   0  0  0  0  0  0
   12.5620  -32.1180   14.7240 C   0  0  0  0  0  0
   12.2060  -33.4540   14.8880 N   0  0  0  0  0  0
   11.2380  -33.9540   15.7540 C   0  0  0  0  0  0
   10.8910  -35.2480   15.7300 N   0  0  0  0  0  0
    9.9740  -35.7140   16.5790 C   0  0  0  0  0  0
    9.4060  -34.8900   17.4610 N   0  0  0  0  0  0
    9.7680  -33.5960   17.4880 C   0  0  0  0  0  0
   10.6810  -33.1350   16.6460 N   0  0  0  0  0  0
    9.2070  -32.7110   18.3740 N   0  0  0  0  0  0
   12.2320  -28.4850   15.4740 C   0  0  0  0  0  0
   11.8330  -27.4890   15.9540 C   0  0  0  0  0  0
   11.2710  -26.2790   16.5880 C   0  0  0  0  0  0
    9.7610  -26.5060   16.7360 C   0  0  0  0  0  0
   11.9230  -26.0740   17.9520 C   0  0  0  0  0  0
   11.4270  -25.1060   15.7760 O   0  0  0  0  0  0
   13.2627  -37.0231   10.8575 H   0  0  0  0  0  0
   12.4157  -35.4944   11.2727 H   0  0  0  0  0  0
   11.8303  -37.0556   11.9410 H   0  0  0  0  0  0
   13.9433  -37.2926   13.2383 H   0  0  0  0  0  0
   14.5287  -35.7314   12.5700 H   0  0  0  0  0  0
   12.3578  -36.1387   14.6910 H   0  0  0  0  0  0
   14.9589  -30.8736   12.6332 H   0  0  0  0  0  0
   14.2005  -28.7640   13.6448 H   0  0  0  0  0  0
   11.3182  -30.9248   16.0072 H   0  0  0  0  0  0
    9.6893  -36.7658   16.5522 H   0  0  0  0  0  0
    8.4455  -33.0564   19.0887 H   0  0  0  0  0  0
    9.5188  -31.6561   18.3696 H   0  0  0  0  0  0
    9.5832  -27.3987   17.3536 H   0  0  0  0  0  0
    9.3131  -26.6526   15.7421 H   0  0  0  0  0  0
    9.3040  -25.6294   17.2184 H   0  0  0  0  0  0
   11.7940  -26.9815   18.5601 H   0  0  0  0  0  0
   11.4491  -25.2214   18.4605 H   0  0  0  0  0  0
   12.9959  -25.8713   17.8188 H   0  0  0  0  0  0
   11.0136  -25.0836   14.7569 H   0  0  0  0  0  0
  1  2  1  0  0  0
  1 26  1  0  0  0
  1 27  1  0  0  0
  1 28  1  0  0  0
  2  3  1  0  0  0
  2 29  1  0  0  0
  2 30  1  0  0  0
  3  4  1  0  0  0
  3 31  1  0  0  0
  4  5  2  0  0  0
  4 12  1  0  0  0
  5  6  1  0  0  0
  6  7  2  0  0  0
  6 11  1  0  0  0
  7  8  1  0  0  0
  7 32  1  0  0  0
  8  9  2  0  0  0
  8 33  1  0  0  0
  9 10  1  0  0  0
  9 20  1  0  0  0
 10 11  2  0  0  0
 10 34  1  0  0  0
 11 12  1  0  0  0
 12 13  1  0  0  0
 13 14  2  0  0  0
 13 18  1  0  0  0
 14 15  1  0  0  0
 15 16  2  0  0  0
 15 35  1  0  0  0
 16 17  1  0  0  0
 17 18  2  0  0  0
 17 19  1  0  0  0
 19 36  1  0  0  0
 19 37  1  0  0  0
 20 21  3  0  0  0
 21 22  1  0  0  0
 22 23  1  0  0  0
 22 24  1  0  0  0
 22 25  1  0  0  0
 23 38  1  0  0  0
 23 39  1  0  0  0
 23 40  1  0  0  0
 24 41  1  0  0  0
 24 42  1  0  0  0
 24 43  1  0  0  0
 25 44  1  0  0  0
M  END
> <s_m_source_file>
../4o0y_ligand.sdf

> <i_m_source_file_index>
1

> <s_epik_input>
bjFjKFtOSDJdKW5bY0hdbmMxLW4oYyhuMilbTkhdW0NIMl1bQ0gzXSljKGMyMylbY0hdYyhbY0hdW2NIXTMpQyNDQyhbQ0gzXSkoW0NIM10pW09IXQ==

> <s_epik_cmdline>
J2VwaWtfYXBwJywgJy1pbWFlJywgJ2xpZ2FuZF9wcm8ubWFlJywgJy1vbWFlJywgJ2xpZ2FuZF9wcmVwLm1hZScsICctbXMnLCAnMScsICctcGgnLCAnNycsICctcGh0JywgJzAuNScsICctbnQn

> <r_epik_Ionization_Penalty>
  0.3008

> <r_epik_Ionization_Penalty_Charging>
  0.0000

> <r_epik_Ionization_Penalty_Neutral>
  0.3008

> <r_epik_State_Penalty>
  0.2943

> <r_epik_Charging_Adjusted_Penalty>
0.294286992152313

> <i_epik_Tot_Q>
0

> <i_epik_Tot_abs_Q>
0

$$$$
