4o10_ligand
                    3D
 Schrodinger Suite 2020-3.
 46 49  0  0  1  0            999 V2000
   15.7390    9.9980    5.6750 C   0  0  0  0  0  0
   15.2150   10.6100    4.5420 C   0  0  0  0  0  0
   14.1020   11.5320    4.6760 C   0  0  0  0  0  0
   13.5880   11.7660    5.8790 C   0  0  0  0  0  0
   15.7580   10.3610    3.2060 C   0  0  0  0  0  0
   16.8330    9.5840    3.1260 N   0  0  0  0  0  0
   17.3280    9.3670    1.7730 C   0  0  0  0  0  0
   15.8880    7.3490    1.4600 C   0  0  0  0  0  0
   14.9550    6.7420   -0.6680 C   0  0  0  0  0  0
   15.7630    5.0170   -3.7250 C   0  0  0  0  0  0
   17.8260    3.7120   -3.5710 C   0  0  0  0  0  0
   16.4450    4.0970   -1.6360 C   0  0  0  0  0  0
   14.4510   10.5370    9.0660 C   0  0  0  0  0  0
   15.3890    9.9130    8.2330 C   0  0  0  0  0  0
   15.1510   10.3140    6.9290 C   0  0  0  0  0  0
   14.0850   11.1840    7.0080 N   0  0  0  0  0  0
   13.6580   11.3320    8.2970 C   0  0  0  0  0  0
   15.2260   10.8300    2.1920 O   0  0  0  0  0  0
   16.4640    8.4690    0.9410 C   0  0  0  0  0  0
   15.1450    6.4930    0.6820 C   0  0  0  0  0  0
   15.5510    7.8760   -1.2110 C   0  0  0  0  0  0
   16.2950    8.7310   -0.4130 C   0  0  0  0  0  0
   14.0730    5.5480   -1.6170 S   0  0  0  0  0  0
   13.5390    4.5220   -0.7590 O   0  0  0  0  0  0
   13.2720    6.1860   -2.6070 O   0  0  0  0  0  0
   15.5100    4.8250   -2.3790 C   0  0  0  0  0  0
   16.9030    4.4490   -4.2940 C   0  0  0  0  0  0
   17.5920    3.5450   -2.2060 C   0  0  0  0  0  0
   18.4740    2.8430   -1.4540 F   0  0  0  0  0  0
   17.1090    4.6460   -5.6140 F   0  0  0  0  0  0
   16.5727    9.2994    5.6036 H   0  0  0  0  0  0
   13.6910   12.0285    3.7970 H   0  0  0  0  0  0
   12.7406   12.4460    5.9664 H   0  0  0  0  0  0
   17.3456    9.1181    3.9805 H   0  0  0  0  0  0
   17.3928   10.3311    1.2473 H   0  0  0  0  0  0
   18.3256    8.9056    1.8171 H   0  0  0  0  0  0
   16.0195    7.1258    2.5188 H   0  0  0  0  0  0
   15.0785    5.6063   -4.3352 H   0  0  0  0  0  0
   18.7033    3.2783   -4.0510 H   0  0  0  0  0  0
   16.2704    3.9555   -0.5694 H   0  0  0  0  0  0
   14.3702   10.4078   10.1453 H   0  0  0  0  0  0
   16.1729    9.2282    8.5564 H   0  0  0  0  0  0
   12.8404   11.9644    8.6428 H   0  0  0  0  0  0
   14.6993    5.6064    1.1331 H   0  0  0  0  0  0
   15.4319    8.0938   -2.2724 H   0  0  0  0  0  0
   16.7521    9.6178   -0.8521 H   0  0  0  0  0  0
  1  2  2  0  0  0
  1 15  1  0  0  0
  1 31  1  0  0  0
  2  3  1  0  0  0
  2  5  1  0  0  0
  3  4  2  0  0  0
  3 32  1  0  0  0
  4 16  1  0  0  0
  4 33  1  0  0  0
  5  6  1  0  0  0
  5 18  2  0  0  0
  6  7  1  0  0  0
  6 34  1  0  0  0
  7 19  1  0  0  0
  7 35  1  0  0  0
  7 36  1  0  0  0
  8 19  2  0  0  0
  8 20  1  0  0  0
  8 37  1  0  0  0
  9 20  2  0  0  0
  9 21  1  0  0  0
  9 23  1  0  0  0
 10 26  2  0  0  0
 10 27  1  0  0  0
 10 38  1  0  0  0
 11 27  2  0  0  0
 11 28  1  0  0  0
 11 39  1  0  0  0
 12 26  1  0  0  0
 12 28  2  0  0  0
 12 40  1  0  0  0
 13 14  1  0  0  0
 13 17  2  0  0  0
 13 41  1  0  0  0
 14 15  2  0  0  0
 14 42  1  0  0  0
 15 16  1  0  0  0
 16 17  1  0  0  0
 17 43  1  0  0  0
 19 22  1  0  0  0
 20 44  1  0  0  0
 21 22  2  0  0  0
 21 45  1  0  0  0
 22 46  1  0  0  0
 23 24  2  0  0  0
 23 25  2  0  0  0
 23 26  1  0  0  0
 27 30  1  0  0  0
 28 29  1  0  0  0
M  END
> <s_m_source_file>
../4o10_ligand.sdf

> <i_m_source_file_index>
1

> <s_epik_input>
W2NIXTFbY0hdW2NIXW4oYzEyKVtjSF1bY0hdYyhbY0hdMilDKD1PKVtOSF1bQ0gyXWMoW2NIXVtjSF0zKVtjSF1bY0hdYzNTKD1PKSg9TyljNFtjSF1jKEYpW2NIXWMoRilbY0hdNA==

> <s_epik_cmdline>
J2VwaWtfYXBwJywgJy1pbWFlJywgJ2xpZ2FuZF9wcm8ubWFlJywgJy1vbWFlJywgJ2xpZ2FuZF9wcmVwLm1hZScsICctbXMnLCAnMScsICctcGgnLCAnNycsICctcGh0JywgJzAuNScsICctbnQn

> <r_lp_tautomer_probability>
1

> <r_epik_Ionization_Penalty>
  0.0032

> <r_epik_Ionization_Penalty_Charging>
  0.0000

> <r_epik_Ionization_Penalty_Neutral>
  0.0032

> <r_epik_State_Penalty>
 -0.0000

> <r_epik_Charging_Adjusted_Penalty>
0

> <i_epik_Tot_Q>
0

> <i_epik_Tot_abs_Q>
0

$$$$
