4o12_ligand
                    3D
 Schrodinger Suite 2020-3.
 52 53  0  0  1  0            999 V2000
   16.2290    3.3570   -3.7530 C   0  0  0  0  0  0
   17.5170    3.0610   -4.1450 C   0  0  0  0  0  0
   18.4860    2.7680   -3.1970 C   0  0  0  0  0  0
   18.1590    2.7700   -1.8530 C   0  0  0  0  0  0
   16.8690    3.0650   -1.4550 C   0  0  0  0  0  0
   15.9000    3.3640   -2.3990 C   0  0  0  0  0  0
   14.0480    4.9000   -2.3890 C   0  0  0  0  0  0
   14.9200    6.0620   -1.9160 C   0  0  0  0  0  0
   14.9760    6.1170   -0.3840 C   0  0  0  0  0  0
   16.0750    7.0950    0.0400 C   0  0  0  0  0  0
   15.8590    7.5970    1.4750 C   0  0  0  0  0  0
   16.6110    8.9210    1.6460 C   0  0  0  0  0  0
   15.7520    9.8610    3.8970 C   0  0  3  0  0  0
   14.0110   10.3950    2.2850 C   0  0  0  0  0  0
   15.3660   10.2520    6.3560 C   0  0  0  0  0  0
   14.1240   10.9000    6.3270 C   0  0  0  0  0  0
   14.6290    3.6490   -1.9930 O   0  0  0  0  0  0
   16.7030    9.2880    3.0710 N   0  3  2  0  0  0
   14.5620   10.3490    3.5230 N   0  0  3  0  0  0
   13.5500   10.4270    1.2430 N   0  0  0  0  0  0
   16.1320    9.9190    5.2250 N   0  0  0  0  0  0
   13.4630   11.1800    7.5080 C   0  0  0  0  0  0
   13.9930   10.8480    8.6690 N   0  3  0  0  0  0
   15.1620   10.2420    8.7530 C   0  0  0  0  0  0
   15.8790    9.9340    7.6130 C   0  0  0  0  0  0
   20.1080    2.3980   -3.6900 Cl  0  0  0  0  0  0
   15.4694    3.5851   -4.5007 H   0  0  0  0  0  0
   17.7749    3.0572   -5.2040 H   0  0  0  0  0  0
   18.9195    2.5387   -1.1072 H   0  0  0  0  0  0
   16.6131    3.0625   -0.3955 H   0  0  0  0  0  0
   13.0463    4.9882   -1.9432 H   0  0  0  0  0  0
   13.9649    4.9266   -3.4855 H   0  0  0  0  0  0
   15.9419    5.9346   -2.3026 H   0  0  0  0  0  0
   14.5025    7.0091   -2.2885 H   0  0  0  0  0  0
   14.0056    6.4576    0.0064 H   0  0  0  0  0  0
   15.1988    5.1148    0.0110 H   0  0  0  0  0  0
   17.0522    6.5923   -0.0094 H   0  0  0  0  0  0
   16.0744    7.9627   -0.6360 H   0  0  0  0  0  0
   14.7842    7.7504    1.6519 H   0  0  0  0  0  0
   16.2449    6.8518    2.1862 H   0  0  0  0  0  0
   17.6278    8.8204    1.2385 H   0  0  0  0  0  0
   16.0774    9.7180    1.1075 H   0  0  0  0  0  0
   16.2078   10.8492    3.7362 H   0  0  0  0  0  0
   13.6792   11.1832    5.3731 H   0  0  0  0  0  0
   16.9217    8.3900    3.6675 H   0  0  0  0  0  0
   13.9917   10.7399    4.2729 H   0  0  0  0  0  0
   17.1675    9.6833    5.5116 H   0  0  0  0  0  0
   12.4948   11.6798    7.4795 H   0  0  0  0  0  0
   15.5660    9.9818    9.7314 H   0  0  0  0  0  0
   16.8478    9.4414    7.6963 H   0  0  0  0  0  0
   13.4582   11.0756    9.6029 H   0  0  0  0  0  0
   17.5082   10.0247    3.2087 H   0  0  0  0  0  0
  1  2  2  0  0  0
  1  6  1  0  0  0
  1 27  1  0  0  0
  2  3  1  0  0  0
  2 28  1  0  0  0
  3  4  2  0  0  0
  3 26  1  0  0  0
  4  5  1  0  0  0
  4 29  1  0  0  0
  5  6  2  0  0  0
  5 30  1  0  0  0
  6 17  1  0  0  0
  7  8  1  0  0  0
  7 17  1  0  0  0
  7 31  1  0  0  0
  7 32  1  0  0  0
  8  9  1  0  0  0
  8 33  1  0  0  0
  8 34  1  0  0  0
  9 10  1  0  0  0
  9 35  1  0  0  0
  9 36  1  0  0  0
 10 11  1  0  0  0
 10 37  1  0  0  0
 10 38  1  0  0  0
 11 12  1  0  0  0
 11 39  1  0  0  0
 11 40  1  0  0  0
 12 18  1  0  0  0
 12 41  1  0  0  0
 12 42  1  0  0  0
 13 18  1  0  0  0
 13 19  1  0  0  0
 13 21  1  0  0  0
 13 43  1  0  0  0
 14 19  1  0  0  0
 14 20  3  0  0  0
 15 16  2  0  0  0
 15 21  1  0  0  0
 15 25  1  0  0  0
 16 22  1  0  0  0
 16 44  1  0  0  0
 18 45  1  0  0  0
 18 52  1  0  0  0
 19 46  1  0  0  0
 21 47  1  0  0  0
 22 23  2  0  0  0
 22 48  1  0  0  0
 23 24  1  0  0  0
 23 51  1  0  0  0
 24 25  2  0  0  0
 24 49  1  0  0  0
 25 50  1  0  0  0
M  CHG  2  18   1  23   1
M  END
> <s_m_source_file>
../4o12_ligand.sdf

> <i_m_source_file_index>
1

> <s_epik_input>
Q2xjMVtjSF1bY0hdYyhbY0hdW2NIXTEpT1tDSDJdW0NIMl1bQ0gyXVtDSDJdW0NIMl1bQ0gyXVtOSF1bQ0hdKFtOSF1DI04pW05IXWMyW2NIXVtjSF1uW2NIXVtjSF0y

> <s_epik_cmdline>
J2VwaWtfYXBwJywgJy1pbWFlJywgJ2xpZ2FuZF9wcm8ubWFlJywgJy1vbWFlJywgJ2xpZ2FuZF9wcmVwLm1hZScsICctbXMnLCAnMScsICctcGgnLCAnNycsICctcGh0JywgJzAuNScsICctbnQn

> <r_lp_tautomer_probability>
0.9999999999368

> <r_epik_Ionization_Penalty>
  0.0196

> <r_epik_Ionization_Penalty_Charging>
  0.0172

> <r_epik_Ionization_Penalty_Neutral>
  0.0024

> <r_epik_State_Penalty>
  0.0073

> <r_epik_Charging_Adjusted_Penalty>
0.0244785033459433

> <i_epik_Tot_Q>
2

> <i_epik_Tot_abs_Q>
2

> <s_epik_Chemistry_Notes>
This compound contains an acetal/aminal-like group ( X-CH(R)-Y where X, Y are N, S, or O) that may be acid/base labile, releasing an aldehyde.

$$$$
