4o13_ligand
                    3D
 Schrodinger Suite 2020-3.
 47 50  0  0  1  0            999 V2000
   16.5690    4.5500   -4.7750 C   0  0  0  0  0  0
   17.5670    3.8280   -4.1370 C   0  0  0  0  0  0
   17.5240    3.6300   -2.7730 C   0  0  0  0  0  0
   16.4790    4.1630   -2.0290 C   0  0  0  0  0  0
   15.4710    4.8940   -2.6510 C   0  0  0  0  0  0
   15.5270    5.0800   -4.0280 C   0  0  0  0  0  0
   14.1440    5.5700   -1.6850 S   0  0  0  0  0  0
   13.2850    6.2490   -2.5970 O   0  0  0  0  0  0
   13.7150    4.4840   -0.8810 O   0  0  0  0  0  0
   15.0380    6.7170   -0.6950 C   0  0  0  0  0  0
   15.4160    6.3380    0.5760 C   0  0  0  0  0  0
   16.1430    7.1940    1.3740 C   0  0  0  0  0  0
   16.5000    8.4420    0.9200 C   0  0  0  0  0  0
   16.1360    8.8260   -0.3610 C   0  0  0  0  0  0
   15.4080    7.9650   -1.1690 C   0  0  0  0  0  0
   17.3210    9.3730    1.7830 C   0  0  0  0  0  0
   16.7950    9.5700    3.1360 N   0  0  0  0  0  0
   15.7030   10.3370    3.2530 C   0  0  0  0  0  0
   15.1770   10.8060    2.2510 O   0  0  0  0  0  0
   15.1280   10.5980    4.5800 C   0  0  0  0  0  0
   15.6990   10.0650    5.7440 C   0  0  0  0  0  0
   15.0810   10.3750    6.9590 C   0  0  0  0  0  0
   15.3280   10.0370    8.3560 C   0  0  0  0  0  0
   14.3960   10.6080    9.0710 N   0  3  0  0  0  0
   13.5400   11.3510    8.2570 N   0  0  0  0  0  0
   13.9340   11.2070    6.9580 C   0  0  0  0  0  0
   13.4540   11.6880    5.8220 N   0  0  0  0  0  0
   14.0010   11.4130    4.6620 C   0  0  0  0  0  0
   18.6370    2.8420   -2.1230 C   0  0  0  0  0  0
   19.7390    3.6690   -1.8940 F   0  0  0  0  0  0
   18.2390    2.3390   -0.8930 F   0  0  0  0  0  0
   18.9970    1.7870   -2.9660 F   0  0  0  0  0  0
   16.6032    4.6996   -5.8541 H   0  0  0  0  0  0
   18.3911    3.4142   -4.7181 H   0  0  0  0  0  0
   16.4482    4.0077   -0.9506 H   0  0  0  0  0  0
   14.7425    5.6493   -4.5266 H   0  0  0  0  0  0
   15.1374    5.3536    0.9521 H   0  0  0  0  0  0
   16.4381    6.8790    2.3749 H   0  0  0  0  0  0
   16.4230    9.8087   -0.7351 H   0  0  0  0  0  0
   15.1271    8.2704   -2.1769 H   0  0  0  0  0  0
   18.3389    8.9703    1.8913 H   0  0  0  0  0  0
   17.3676   10.3653    1.3106 H   0  0  0  0  0  0
   17.2948    9.0977    3.9946 H   0  0  0  0  0  0
   16.5961    9.4321    5.6765 H   0  0  0  0  0  0
   16.1854    9.4026    8.6251 H   0  0  0  0  0  0
   13.5701   11.8274    3.7386 H   0  0  0  0  0  0
   14.2265   10.5697   10.1572 H   0  0  0  0  0  0
  1  2  2  0  0  0
  1  6  1  0  0  0
  1 33  1  0  0  0
  2  3  1  0  0  0
  2 34  1  0  0  0
  3  4  2  0  0  0
  3 29  1  0  0  0
  4  5  1  0  0  0
  4 35  1  0  0  0
  5  6  2  0  0  0
  5  7  1  0  0  0
  6 36  1  0  0  0
  7  8  2  0  0  0
  7  9  2  0  0  0
  7 10  1  0  0  0
 10 11  2  0  0  0
 10 15  1  0  0  0
 11 12  1  0  0  0
 11 37  1  0  0  0
 12 13  2  0  0  0
 12 38  1  0  0  0
 13 14  1  0  0  0
 13 16  1  0  0  0
 14 15  2  0  0  0
 14 39  1  0  0  0
 15 40  1  0  0  0
 16 17  1  0  0  0
 16 41  1  0  0  0
 16 42  1  0  0  0
 17 18  1  0  0  0
 17 43  1  0  0  0
 18 19  2  0  0  0
 18 20  1  0  0  0
 20 21  2  0  0  0
 20 28  1  0  0  0
 21 22  1  0  0  0
 21 44  1  0  0  0
 22 23  2  0  0  0
 22 26  1  0  0  0
 23 24  1  0  0  0
 23 45  1  0  0  0
 24 25  1  0  0  0
 24 47  1  0  0  0
 25 26  2  0  0  0
 26 27  1  0  0  0
 27 28  2  0  0  0
 28 46  1  0  0  0
 29 30  1  0  0  0
 29 31  1  0  0  0
 29 32  1  0  0  0
M  CHG  1  24   1
M  END
> <s_m_source_file>
../4o13_ligand.sdf

> <i_m_source_file_index>
1

> <s_epik_input>
RkMoRikoRiljMVtjSF1bY0hdW2NIXWMoW2NIXTEpUyg9TykoPU8pYzJbY0hdW2NIXWMoW2NIXVtjSF0yKVtDSDJdW05IXUMoPU8pYyhbY0hdMylbY0hdbmMoYzM0KW5bbkhdW2NIXTQ=

> <s_epik_cmdline>
J2VwaWtfYXBwJywgJy1pbWFlJywgJ2xpZ2FuZF9wcm8ubWFlJywgJy1vbWFlJywgJ2xpZ2FuZF9wcmVwLm1hZScsICctbXMnLCAnMScsICctcGgnLCAnNycsICctcGh0JywgJzAuNScsICctbnQn

> <r_epik_Ionization_Penalty>
  0.0540

> <r_epik_Ionization_Penalty_Charging>
  0.0000

> <r_epik_Ionization_Penalty_Neutral>
  0.0540

> <r_epik_State_Penalty>
  0.0558

> <r_epik_Charging_Adjusted_Penalty>
0.0557765651976235

> <i_epik_Tot_Q>
1

> <i_epik_Tot_abs_Q>
1

> <s_epik_Chemistry_Notes>
This compound has an imine and may undergo hydrolysis.

$$$$
