4o15_ligand
                    3D
 Schrodinger Suite 2020-3.
 47 50  0  0  1  0            999 V2000
   16.9920    5.1930   -4.5510 C   0  0  0  0  0  0
   17.9340    4.4370   -3.8760 C   0  0  0  0  0  0
   17.7810    4.1590   -2.5300 C   0  0  0  0  0  0
   16.6680    4.6440   -1.8570 C   0  0  0  0  0  0
   15.7150    5.4020   -2.5310 C   0  0  0  0  0  0
   15.8880    5.6790   -3.8770 C   0  0  0  0  0  0
   14.3100    6.0320   -1.6540 S   0  0  0  0  0  0
   13.5040    6.7500   -2.5780 O   0  0  0  0  0  0
   13.8470    4.9410   -0.8600 O   0  0  0  0  0  0
   15.1380    7.1580   -0.5840 C   0  0  0  0  0  0
   15.6820    8.3150   -1.1090 C   0  0  0  0  0  0
   16.3670    9.1790   -0.2780 C   0  0  0  0  0  0
   16.5180    8.8790    1.0630 C   0  0  0  0  0  0
   15.9830    7.7190    1.5870 C   0  0  0  0  0  0
   15.2980    6.8560    0.7530 C   0  0  0  0  0  0
   17.2960    9.8390    1.9270 C   0  0  0  0  0  0
   16.8040    9.9900    3.2970 N   0  0  0  0  0  0
   15.6860   10.7180    3.4270 C   0  0  0  0  0  0
   15.1720   11.1790    2.4200 O   0  0  0  0  0  0
   15.0890   10.9770    4.7500 C   0  0  0  0  0  0
   15.6260   10.4600    5.9370 C   0  0  0  0  0  0
   14.9680   10.7910    7.1340 C   0  0  0  0  0  0
   15.1820   10.4720    8.5420 C   0  0  0  0  0  0
   14.2410   11.0580    9.2330 N   0  3  0  0  0  0
   13.3930   11.7740    8.3900 N   0  0  0  0  0  0
   13.8240   11.6220    7.0990 C   0  0  0  0  0  0
   13.3730   12.0830    5.9430 N   0  0  0  0  0  0
   13.9550   11.7950    4.8090 C   0  0  0  0  0  0
   18.8340    3.3300   -1.8260 C   0  0  0  0  0  0
   19.9580    4.0990   -1.5300 F   0  0  0  0  0  0
   18.3290    2.8060   -0.6450 F   0  0  0  0  0  0
   19.2530    2.2860   -2.6490 F   0  0  0  0  0  0
   17.1206    5.4048   -5.6125 H   0  0  0  0  0  0
   18.8048    4.0570   -4.4102 H   0  0  0  0  0  0
   16.5398    4.4302   -0.7959 H   0  0  0  0  0  0
   15.1507    6.2825   -4.4064 H   0  0  0  0  0  0
   15.5713    8.5432   -2.1691 H   0  0  0  0  0  0
   16.7897   10.0997   -0.6802 H   0  0  0  0  0  0
   16.0995    7.4868    2.6456 H   0  0  0  0  0  0
   14.8817    5.9316    1.1534 H   0  0  0  0  0  0
   18.3388    9.4982    2.0065 H   0  0  0  0  0  0
   17.2714   10.8416    1.4751 H   0  0  0  0  0  0
   17.3465    9.5210    4.1311 H   0  0  0  0  0  0
   16.5240    9.8256    5.9039 H   0  0  0  0  0  0
   16.0286    9.8357    8.8393 H   0  0  0  0  0  0
   13.5548   12.1987    3.8673 H   0  0  0  0  0  0
   14.0591   11.0493   10.3178 H   0  0  0  0  0  0
  1  2  2  0  0  0
  1  6  1  0  0  0
  1 33  1  0  0  0
  2  3  1  0  0  0
  2 34  1  0  0  0
  3  4  2  0  0  0
  3 29  1  0  0  0
  4  5  1  0  0  0
  4 35  1  0  0  0
  5  6  2  0  0  0
  5  7  1  0  0  0
  6 36  1  0  0  0
  7  8  2  0  0  0
  7  9  2  0  0  0
  7 10  1  0  0  0
 10 11  2  0  0  0
 10 15  1  0  0  0
 11 12  1  0  0  0
 11 37  1  0  0  0
 12 13  2  0  0  0
 12 38  1  0  0  0
 13 14  1  0  0  0
 13 16  1  0  0  0
 14 15  2  0  0  0
 14 39  1  0  0  0
 15 40  1  0  0  0
 16 17  1  0  0  0
 16 41  1  0  0  0
 16 42  1  0  0  0
 17 18  1  0  0  0
 17 43  1  0  0  0
 18 19  2  0  0  0
 18 20  1  0  0  0
 20 21  2  0  0  0
 20 28  1  0  0  0
 21 22  1  0  0  0
 21 44  1  0  0  0
 22 23  2  0  0  0
 22 26  1  0  0  0
 23 24  1  0  0  0
 23 45  1  0  0  0
 24 25  1  0  0  0
 24 47  1  0  0  0
 25 26  2  0  0  0
 26 27  1  0  0  0
 27 28  2  0  0  0
 28 46  1  0  0  0
 29 30  1  0  0  0
 29 31  1  0  0  0
 29 32  1  0  0  0
M  CHG  1  24   1
M  END
> <s_m_source_file>
../4o15_ligand.sdf

> <i_m_source_file_index>
1

> <s_epik_input>
RkMoRikoRiljMVtjSF1bY0hdW2NIXWMoW2NIXTEpUyg9TykoPU8pYzJbY0hdW2NIXWMoW2NIXVtjSF0yKVtDSDJdW05IXUMoPU8pYyhbY0hdMylbY0hdbmMoYzM0KW5bbkhdW2NIXTQ=

> <s_epik_cmdline>
J2VwaWtfYXBwJywgJy1pbWFlJywgJ2xpZ2FuZF9wcm8ubWFlJywgJy1vbWFlJywgJ2xpZ2FuZF9wcmVwLm1hZScsICctbXMnLCAnMScsICctcGgnLCAnNycsICctcGh0JywgJzAuNScsICctbnQn

> <r_epik_Ionization_Penalty>
  0.0540

> <r_epik_Ionization_Penalty_Charging>
  0.0000

> <r_epik_Ionization_Penalty_Neutral>
  0.0540

> <r_epik_State_Penalty>
  0.0558

> <r_epik_Charging_Adjusted_Penalty>
0.0557765651976236

> <i_epik_Tot_Q>
1

> <i_epik_Tot_abs_Q>
1

> <s_epik_Chemistry_Notes>
This compound has an imine and may undergo hydrolysis.

$$$$
