4o1b_ligand
                    3D
 Schrodinger Suite 2020-3.
 58 60  0  0  1  0            999 V2000
   11.9840    1.9800   -8.0720 C   0  0  0  0  0  0
   12.5160    0.8860   -8.7240 C   0  0  0  0  0  0
   12.9410   -0.2190   -8.0130 C   0  0  0  0  0  0
   12.8460   -0.2300   -6.6310 C   0  0  0  0  0  0
   12.3170    0.8570   -5.9670 C   0  0  0  0  0  0
   11.8900    1.9800   -6.6800 C   0  0  0  0  0  0
   11.3230    3.1360   -5.9400 C   0  0  0  0  0  0
   10.1950    3.0290   -5.4840 O   0  0  0  0  0  0
   12.0190    4.2890   -5.7710 N   0  0  0  0  0  0
   11.4460    5.4020   -5.0000 C   0  0  0  0  0  0
   12.3350    5.5530   -3.7470 C   0  0  0  0  0  0
   13.3970    4.4770   -6.2580 C   0  0  0  0  0  0
   14.3130    4.7030   -5.0380 C   0  0  0  0  0  0
   13.7940    5.8420   -4.1350 C   0  0  0  0  0  0
   14.6450    5.9750   -2.8470 C   0  0  0  0  0  0
   14.4620    7.3620   -2.1930 C   0  0  0  0  0  0
   14.9600    7.4510   -0.7320 C   0  0  0  0  0  0
   15.3040    8.9120   -0.3780 C   0  0  0  0  0  0
   15.5680    9.1120    1.0520 N   0  0  0  0  0  0
   14.8970    9.9890    1.8390 C   0  0  0  0  0  0
   13.9730   10.6730    1.4140 O   0  0  0  0  0  0
   15.2500   10.0150    3.2650 C   0  0  0  0  0  0
   14.4690   10.6990    4.1400 C   0  0  0  0  0  0
   14.7860   10.6310    5.5780 C   0  0  0  0  0  0
   15.9240    9.9640    6.0630 C   0  0  0  0  0  0
   16.1520    9.8770    7.3760 C   0  0  0  0  0  0
   15.3200   10.4030    8.2680 C   0  0  0  0  0  0
   14.1770   11.0530    7.8470 N   0  0  0  0  0  0
   13.8910   11.1700    6.4990 C   0  0  0  0  0  0
   11.6382    2.8416   -8.6431 H   0  0  0  0  0  0
   12.6015    0.8943   -9.8106 H   0  0  0  0  0  0
   13.3507   -1.0815   -8.5386 H   0  0  0  0  0  0
   13.1894   -1.0980   -6.0682 H   0  0  0  0  0  0
   12.2317    0.8398   -4.8805 H   0  0  0  0  0  0
   11.4608    6.3169   -5.6106 H   0  0  0  0  0  0
   10.4085    5.1616   -4.7248 H   0  0  0  0  0  0
   11.9631    6.3856   -3.1318 H   0  0  0  0  0  0
   12.3045    4.6223   -3.1614 H   0  0  0  0  0  0
   13.7165    3.5805   -6.8095 H   0  0  0  0  0  0
   13.4341    5.3506   -6.9254 H   0  0  0  0  0  0
   14.3599    3.7816   -4.4391 H   0  0  0  0  0  0
   15.3235    4.9684   -5.3823 H   0  0  0  0  0  0
   13.8588    6.7849   -4.6978 H   0  0  0  0  0  0
   14.3388    5.2046   -2.1240 H   0  0  0  0  0  0
   15.7085    5.8431   -3.0949 H   0  0  0  0  0  0
   15.0204    8.1152   -2.7683 H   0  0  0  0  0  0
   13.3940    7.6252   -2.1841 H   0  0  0  0  0  0
   14.1725    7.0908   -0.0536 H   0  0  0  0  0  0
   15.8594    6.8291   -0.6126 H   0  0  0  0  0  0
   16.2047    9.2205   -0.9291 H   0  0  0  0  0  0
   14.4629    9.5643   -0.6556 H   0  0  0  0  0  0
   16.3552    8.5293    1.5527 H   0  0  0  0  0  0
   16.1432    9.4831    3.6246 H   0  0  0  0  0  0
   13.6176   11.2901    3.7715 H   0  0  0  0  0  0
   16.6265    9.5139    5.3616 H   0  0  0  0  0  0
   17.0457    9.3600    7.7254 H   0  0  0  0  0  0
   15.5397   10.3214    9.3325 H   0  0  0  0  0  0
   12.9841   11.6735    6.1643 H   0  0  0  0  0  0
  1  2  2  0  0  0
  1  6  1  0  0  0
  1 30  1  0  0  0
  2  3  1  0  0  0
  2 31  1  0  0  0
  3  4  2  0  0  0
  3 32  1  0  0  0
  4  5  1  0  0  0
  4 33  1  0  0  0
  5  6  2  0  0  0
  5 34  1  0  0  0
  6  7  1  0  0  0
  7  8  2  0  0  0
  7  9  1  0  0  0
  9 10  1  0  0  0
  9 12  1  0  0  0
 10 11  1  0  0  0
 10 35  1  0  0  0
 10 36  1  0  0  0
 11 14  1  0  0  0
 11 37  1  0  0  0
 11 38  1  0  0  0
 12 13  1  0  0  0
 12 39  1  0  0  0
 12 40  1  0  0  0
 13 14  1  0  0  0
 13 41  1  0  0  0
 13 42  1  0  0  0
 14 15  1  0  0  0
 14 43  1  0  0  0
 15 16  1  0  0  0
 15 44  1  0  0  0
 15 45  1  0  0  0
 16 17  1  0  0  0
 16 46  1  0  0  0
 16 47  1  0  0  0
 17 18  1  0  0  0
 17 48  1  0  0  0
 17 49  1  0  0  0
 18 19  1  0  0  0
 18 50  1  0  0  0
 18 51  1  0  0  0
 19 20  1  0  0  0
 19 52  1  0  0  0
 20 21  2  0  0  0
 20 22  1  0  0  0
 22 23  2  0  0  0
 22 53  1  0  0  0
 23 24  1  0  0  0
 23 54  1  0  0  0
 24 25  2  0  0  0
 24 29  1  0  0  0
 25 26  1  0  0  0
 25 55  1  0  0  0
 26 27  2  0  0  0
 26 56  1  0  0  0
 27 28  1  0  0  0
 27 57  1  0  0  0
 28 29  2  0  0  0
 29 58  1  0  0  0
M  END
> <s_m_source_file>
../4o1b_ligand.sdf

> <i_m_source_file_index>
1

> <s_epik_input>
W2NIXTFbY0hdW2NIXVtjSF1bY0hdYzFDKD1PKU4yW0NIMl1bQ0gyXVtDSF0oW0NIMl1bQ0gyXTIpW0NIMl1bQ0gyXVtDSDJdW0NIMl1bTkhdQyg9TykvW0NIXT1bQ0hdL2MzW2NIXVtjSF1bY0hdbltjSF0z

> <s_epik_cmdline>
J2VwaWtfYXBwJywgJy1pbWFlJywgJ2xpZ2FuZF9wcm8ubWFlJywgJy1vbWFlJywgJ2xpZ2FuZF9wcmVwLm1hZScsICctbXMnLCAnMScsICctcGgnLCAnNycsICctcGh0JywgJzAuNScsICctbnQn

> <r_lp_tautomer_probability>
1

> <r_epik_Ionization_Penalty>
  0.0020

> <r_epik_Ionization_Penalty_Charging>
  0.0000

> <r_epik_Ionization_Penalty_Neutral>
  0.0020

> <r_epik_State_Penalty>
 -0.0000

> <r_epik_Charging_Adjusted_Penalty>
0

> <i_epik_Tot_Q>
0

> <i_epik_Tot_abs_Q>
0

$$$$
