4o1l_ligand
                    3D
 Schrodinger Suite 2020-3.
 34 36  0  0  1  0            999 V2000
   16.2100   22.5570   14.0030 C   0  0  0  0  0  0
   16.6050   21.6840   14.5540 C   0  0  0  0  0  0
   17.1140   20.6550   15.1040 C   0  0  0  0  0  0
   18.4510   20.6160   15.1380 C   0  0  0  0  0  0
   16.5630   19.6180   15.7730 C   0  0  0  0  0  0
   15.2920   19.1740   16.0760 C   0  0  0  0  0  0
   14.2260   19.8610   15.6540 N   0  0  0  0  0  0
   15.1020   18.0660   16.7810 N   0  0  0  0  0  0
   16.2170   17.3350   17.1990 C   0  0  0  0  0  0
   17.4870   17.7700   16.8410 N   0  0  0  0  0  0
   17.6400   18.9010   16.1820 C   0  0  0  0  0  0
   18.7740   19.5080   15.7860 N   0  0  0  0  0  0
   20.1190   18.9730   16.0500 C   0  0  2  0  0  0
   20.8750   19.8880   16.7590 O   0  0  0  0  0  0
   22.2680   19.4050   16.5980 C   0  0  2  0  0  0
   23.2530   20.5090   16.7360 C   0  0  0  0  0  0
   23.4180   20.6380   18.1180 O   0  0  0  0  0  0
   22.3270   18.8920   15.1770 C   0  0  1  0  0  0
   22.9330   17.6000   15.1980 O   0  0  0  0  0  0
   20.8710   18.8140   14.7560 C   0  0  1  0  0  0
   20.6100   17.5110   14.2200 O   0  0  0  0  0  0
   19.1373   21.3503   14.7162 H   0  0  0  0  0  0
   14.3619   20.7821   15.0682 H   0  0  0  0  0  0
   13.2128   19.5053   15.8925 H   0  0  0  0  0  0
   16.0919   16.4337   17.7991 H   0  0  0  0  0  0
   20.0036   18.0590   16.6511 H   0  0  0  0  0  0
   22.5092   18.6629   17.3733 H   0  0  0  0  0  0
   24.1889   20.2308   16.2294 H   0  0  0  0  0  0
   22.8461   21.4228   16.2785 H   0  0  0  0  0  0
   24.1055   21.3960   18.5214 H   0  0  0  0  0  0
   22.9467   19.4763   14.4809 H   0  0  0  0  0  0
   23.9896   17.4927   15.4844 H   0  0  0  0  0  0
   20.5757   19.5246   13.9700 H   0  0  0  0  0  0
   19.6030   17.2570   13.8574 H   0  0  0  0  0  0
  1  2  3  0  0  0
  2  3  1  0  0  0
  3  4  2  0  0  0
  3  5  1  0  0  0
  4 12  1  0  0  0
  4 22  1  0  0  0
  5  6  2  0  0  0
  5 11  1  0  0  0
  6  7  1  0  0  0
  6  8  1  0  0  0
  7 23  1  0  0  0
  7 24  1  0  0  0
  8  9  2  0  0  0
  9 10  1  0  0  0
  9 25  1  0  0  0
 10 11  2  0  0  0
 11 12  1  0  0  0
 12 13  1  0  0  0
 13 14  1  0  0  0
 13 20  1  0  0  0
 13 26  1  0  0  0
 14 15  1  0  0  0
 15 16  1  0  0  0
 15 18  1  0  0  0
 15 27  1  0  0  0
 16 17  1  0  0  0
 16 28  1  0  0  0
 16 29  1  0  0  0
 17 30  1  0  0  0
 18 19  1  0  0  0
 18 20  1  0  0  0
 18 31  1  0  0  0
 19 32  1  0  0  0
 20 21  1  0  0  0
 20 33  1  0  0  0
 21 34  1  0  0  0
M  END
> <s_m_source_file>
../4o1l_ligand.sdf

> <i_m_source_file_index>
1

> <s_epik_input>
W09IXVtDQEBIXTFbQ0BIXShbT0hdKVtDQEBIXShbQ0gyXVtPSF0pT1tDQEhdMW4oW2NIXWMyQyNbQ0hdKWMoYzIzKW5bY0hdbmMzW05IMl0=

> <s_epik_cmdline>
J2VwaWtfYXBwJywgJy1pbWFlJywgJ2xpZ2FuZF9wcm8ubWFlJywgJy1vbWFlJywgJ2xpZ2FuZF9wcmVwLm1hZScsICctbXMnLCAnMScsICctcGgnLCAnNycsICctcGh0JywgJzAuNScsICctbnQn

> <r_lp_tautomer_probability>
1

> <r_epik_Ionization_Penalty>
  0.0025

> <r_epik_Ionization_Penalty_Charging>
  0.0000

> <r_epik_Ionization_Penalty_Neutral>
  0.0025

> <r_epik_State_Penalty>
 -0.0000

> <r_epik_Charging_Adjusted_Penalty>
0

> <i_epik_Tot_Q>
0

> <i_epik_Tot_abs_Q>
0

> <s_epik_Chemistry_Notes>
This compound contains an acetal/aminal-like group ( X-CH(R)-Y where X, Y are N, S, or O) that may be acid/base labile, releasing an aldehyde.

$$$$
