4o24_ligand
                    3D
 Schrodinger Suite 2020-3.
 34 35  0  0  1  0            999 V2000
    1.3480  454.9810  104.3800 C   0  0  0  0  0  0
    0.1500  454.9560  105.3240 C   0  0  0  0  0  0
   -1.1010  455.2470  104.4910 C   0  0  0  0  0  0
    0.2420  455.9800  106.4820 C   0  0  0  0  0  0
    0.2560  457.4460  106.1310 N   0  0  0  0  0  0
    1.0190  458.2440  105.3440 C   0  0  0  0  0  0
    1.9640  457.8420  104.6710 O   0  0  0  0  0  0
   -0.6970  458.1480  106.7570 C   0  0  0  0  0  0
   -1.8560  457.4830  107.8480 S   0  0  0  0  0  0
   -0.6230  459.7170  106.3460 S   0  0  0  0  0  0
    0.6760  459.5360  105.3270 C   0  0  0  0  0  0
    1.3630  460.4130  104.5710 C   0  0  0  0  0  0
    1.0910  461.7870  104.4630 C   0  0  0  0  0  0
    1.9180  462.5070  103.6050 C   0  0  0  0  0  0
    1.7440  463.8720  103.4120 C   0  0  0  0  0  0
    0.7250  464.5400  104.0770 C   0  0  0  0  0  0
    0.5510  465.8760  103.8920 O   0  0  0  0  0  0
   -0.1130  463.8380  104.9350 C   0  0  0  0  0  0
    0.0710  462.4730  105.1200 C   0  0  0  0  0  0
    1.2075  454.2293  103.5893 H   0  0  0  0  0  0
    2.2642  454.7528  104.9443 H   0  0  0  0  0  0
    1.4361  455.9790  103.9258 H   0  0  0  0  0  0
    0.1209  453.9577  105.7851 H   0  0  0  0  0  0
   -1.1699  454.5214  103.6671 H   0  0  0  0  0  0
   -1.0384  456.2649  104.0788 H   0  0  0  0  0  0
   -1.9935  455.1637  105.1285 H   0  0  0  0  0  0
   -0.6217  455.8548  107.1516 H   0  0  0  0  0  0
    1.1711  455.8125  107.0466 H   0  0  0  0  0  0
    2.2178  460.0695  103.9699 H   0  0  0  0  0  0
    2.7175  461.9899  103.0744 H   0  0  0  0  0  0
    2.4064  464.4172  102.7397 H   0  0  0  0  0  0
    1.2163  466.4283  103.2121 H   0  0  0  0  0  0
   -0.9134  464.3572  105.4621 H   0  0  0  0  0  0
   -0.5942  461.9292  105.7908 H   0  0  0  0  0  0
  1  2  1  0  0  0
  1 20  1  0  0  0
  1 21  1  0  0  0
  1 22  1  0  0  0
  2  3  1  0  0  0
  2  4  1  0  0  0
  2 23  1  0  0  0
  3 24  1  0  0  0
  3 25  1  0  0  0
  3 26  1  0  0  0
  4  5  1  0  0  0
  4 27  1  0  0  0
  4 28  1  0  0  0
  5  6  1  0  0  0
  5  8  1  0  0  0
  6  7  2  0  0  0
  6 11  1  0  0  0
  8  9  2  0  0  0
  8 10  1  0  0  0
 10 11  1  0  0  0
 11 12  2  0  0  0
 12 13  1  0  0  0
 12 29  1  0  0  0
 13 14  2  0  0  0
 13 19  1  0  0  0
 14 15  1  0  0  0
 14 30  1  0  0  0
 15 16  2  0  0  0
 15 31  1  0  0  0
 16 17  1  0  0  0
 16 18  1  0  0  0
 17 32  1  0  0  0
 18 19  2  0  0  0
 18 33  1  0  0  0
 19 34  1  0  0  0
M  END
> <s_m_source_file>
../4o24_ligand.sdf

> <i_m_source_file_index>
1

> <s_epik_input>
W0NIM11bQ0hdKFtDSDNdKVtDSDJdTjFDKD1PKS9DKFNDMT1TKT1bQ0hdL2MyW2NIXVtjSF1jKFtPSF0pW2NIXVtjSF0y

> <s_epik_cmdline>
J2VwaWtfYXBwJywgJy1pbWFlJywgJ2xpZ2FuZF9wcm8ubWFlJywgJy1vbWFlJywgJ2xpZ2FuZF9wcmVwLm1hZScsICctbXMnLCAnMScsICctcGgnLCAnNycsICctcGh0JywgJzAuNScsICctbnQn

> <r_epik_Ionization_Penalty>
  0.1076

> <r_epik_Ionization_Penalty_Charging>
  0.0000

> <r_epik_Ionization_Penalty_Neutral>
  0.1076

> <r_epik_State_Penalty>
  0.0974

> <r_epik_Charging_Adjusted_Penalty>
0.0974436211075758

> <i_epik_Tot_Q>
0

> <i_epik_Tot_abs_Q>
0

$$$$
