4o28_ligand
                    3D
 Schrodinger Suite 2020-3.
 45 48  0  0  1  0            999 V2000
   15.4040    8.1390   -1.3250 C   0  0  0  0  0  0
   16.1360    8.9980   -0.5250 C   0  0  0  0  0  0
   16.3820    8.6850    0.7980 C   0  0  0  0  0  0
   17.2090    9.6210    1.6390 C   0  0  0  0  0  0
   13.3660   11.7300    5.8450 C   0  0  0  0  0  0
   15.7510   10.3170    8.0670 C   0  0  0  0  0  0
   16.3930    4.5290   -1.8230 C   0  0  0  0  0  0
   17.8410    4.2210   -3.6920 C   0  0  0  0  0  0
   15.7610    5.4280   -3.9400 C   0  0  0  0  0  0
   15.8930    7.5050    1.3130 C   0  0  0  0  0  0
   15.1620    6.6450    0.5170 C   0  0  0  0  0  0
   14.8960    6.9650   -0.8010 C   0  0  0  0  0  0
   16.7310    9.8150    3.0040 N   0  0  0  0  0  0
   15.6510   10.5910    3.1280 C   0  0  0  0  0  0
   15.1450   11.0620    2.1210 O   0  0  0  0  0  0
   15.0990   10.8440    4.4650 C   0  0  0  0  0  0
   13.8590   11.5160    4.5990 C   0  0  0  0  0  0
   14.0860   11.2810    6.9780 C   0  0  0  0  0  0
   13.8340   11.3550    8.2830 N   0  0  0  0  0  0
   14.8370   10.7750    8.9560 C   0  0  0  0  0  0
   15.2870   10.6270    6.8130 N   0  0  0  0  0  0
   15.7830   10.4100    5.5710 C   0  0  0  0  0  0
   14.0130    5.8440   -1.8430 S   0  0  0  0  0  0
   13.2420    6.5760   -2.7840 O   0  0  0  0  0  0
   13.5110    4.7620   -1.0810 O   0  0  0  0  0  0
   15.4790    5.2140   -2.6100 C   0  0  0  0  0  0
   17.5680    4.0210   -2.3520 C   0  0  0  0  0  0
   16.9370    4.9240   -4.4770 C   0  0  0  0  0  0
   17.1970    5.1280   -5.7810 F   0  0  0  0  0  0
   18.4400    3.3460   -1.5620 F   0  0  0  0  0  0
   15.2273    8.3885   -2.3712 H   0  0  0  0  0  0
   16.5215    9.9286   -0.9415 H   0  0  0  0  0  0
   18.2352    9.2328    1.7184 H   0  0  0  0  0  0
   17.2286   10.6155    1.1694 H   0  0  0  0  0  0
   12.4154   12.2477    5.9734 H   0  0  0  0  0  0
   16.6807    9.7993    8.3033 H   0  0  0  0  0  0
   16.1816    4.3871   -0.7632 H   0  0  0  0  0  0
   18.7595    3.8296   -4.1294 H   0  0  0  0  0  0
   15.0666    5.9885   -4.5660 H   0  0  0  0  0  0
   16.0840    7.2483    2.3550 H   0  0  0  0  0  0
   14.7922    5.7071    0.9313 H   0  0  0  0  0  0
   17.2554    9.3356    3.8437 H   0  0  0  0  0  0
   13.3120   11.8543    3.7190 H   0  0  0  0  0  0
   14.9062   10.6863   10.0402 H   0  0  0  0  0  0
   16.7318    9.8871    5.4504 H   0  0  0  0  0  0
  1  2  2  0  0  0
  1 12  1  0  0  0
  1 31  1  0  0  0
  2  3  1  0  0  0
  2 32  1  0  0  0
  3  4  1  0  0  0
  3 10  2  0  0  0
  4 13  1  0  0  0
  4 33  1  0  0  0
  4 34  1  0  0  0
  5 17  2  0  0  0
  5 18  1  0  0  0
  5 35  1  0  0  0
  6 20  2  0  0  0
  6 21  1  0  0  0
  6 36  1  0  0  0
  7 26  2  0  0  0
  7 27  1  0  0  0
  7 37  1  0  0  0
  8 27  2  0  0  0
  8 28  1  0  0  0
  8 38  1  0  0  0
  9 26  1  0  0  0
  9 28  2  0  0  0
  9 39  1  0  0  0
 10 11  1  0  0  0
 10 40  1  0  0  0
 11 12  2  0  0  0
 11 41  1  0  0  0
 12 23  1  0  0  0
 13 14  1  0  0  0
 13 42  1  0  0  0
 14 15  2  0  0  0
 14 16  1  0  0  0
 16 17  1  0  0  0
 16 22  2  0  0  0
 17 43  1  0  0  0
 18 19  2  0  0  0
 18 21  1  0  0  0
 19 20  1  0  0  0
 20 44  1  0  0  0
 21 22  1  0  0  0
 22 45  1  0  0  0
 23 24  2  0  0  0
 23 25  2  0  0  0
 23 26  1  0  0  0
 27 30  1  0  0  0
 28 29  1  0  0  0
M  END
> <s_m_source_file>
../4o28_ligand.sdf

> <i_m_source_file_index>
1

> <s_epik_input>
W2NIXTFjKEYpW2NIXWMoRilbY0hdYzFTKD1PKSg9TyljKFtjSF1bY0hdMilbY0hdW2NIXWMyW0NIMl1bTkhdQyg9TyljKFtjSF1bY0hdMylbY0hdbihjMzQpW2NIXVtjSF1uNA==

> <s_epik_cmdline>
J2VwaWtfYXBwJywgJy1pbWFlJywgJ2xpZ2FuZF9wcm8ubWFlJywgJy1vbWFlJywgJ2xpZ2FuZF9wcmVwLm1hZScsICctbXMnLCAnMScsICctcGgnLCAnNycsICctcGh0JywgJzAuNScsICctbnQn

> <r_epik_Ionization_Penalty>
  0.0297

> <r_epik_Ionization_Penalty_Charging>
  0.0297

> <r_epik_Ionization_Penalty_Neutral>
  0.0000

> <r_epik_State_Penalty>
  0.0244

> <r_epik_Charging_Adjusted_Penalty>
0.0540974139773578

> <i_epik_Tot_Q>
0

> <i_epik_Tot_abs_Q>
0

$$$$
