4o2a_ligand
                    3D
 Schrodinger Suite 2020-3.
 46 49  0  0  1  0            999 V2000
   17.3360   63.5760   43.5860 C   0  0  0  0  0  0
   16.2280   64.2930   42.8700 C   0  0  0  0  0  0
   15.6810   65.2450   43.4220 O   0  0  0  0  0  0
   15.4210   63.3270   38.8400 C   0  0  0  0  0  0
   16.3340   62.5440   39.5650 C   0  0  0  0  0  0
   16.5950   62.8660   40.8850 C   0  0  0  0  0  0
   14.7710   64.4240   39.4270 C   0  0  0  0  0  0
   15.0410   64.7340   40.7480 C   0  0  0  0  0  0
   15.9540   63.9610   41.4840 C   0  0  0  0  0  0
   15.1570   63.0070   37.5140 N   0  0  0  0  0  0
   17.9730   65.1330   45.5060 C   0  0  0  0  0  0
   17.2870   63.9820   47.1960 C   0  0  0  0  0  0
   17.3710   63.9880   45.0020 N   0  0  0  0  0  0
   16.9290   63.2390   46.0830 C   0  0  0  0  0  0
   16.9670   63.4800   48.4760 C   0  0  0  0  0  0
   16.2590   62.0050   46.1110 C   0  0  0  0  0  0
   16.3070   62.2650   48.5390 C   0  0  0  0  0  0
   15.9550   61.5320   47.3730 C   0  0  0  0  0  0
   17.9220   65.1320   46.8400 N   0  0  0  0  0  0
   17.2590   70.2390   46.7180 C   0  0  0  0  0  0
   19.1870   67.3180   45.0160 C   0  0  0  0  0  0
   19.5640   67.9700   43.9500 N   0  0  0  0  0  0
   18.5510   66.1390   44.6140 C   0  0  0  0  0  0
   18.5700   66.0800   43.3070 N   0  0  0  0  0  0
   16.2780   70.1080   47.2880 N   0  0  0  0  0  0
   19.1910   67.1970   42.8980 O   0  0  0  0  0  0
   18.8640   67.9740   46.2160 N   0  0  0  0  0  0
   19.5000   69.2920   46.3920 C   0  0  0  0  0  0
   18.5230   70.3970   45.9830 C   0  0  0  0  0  0
   17.1673   62.4905   43.5289 H   0  0  0  0  0  0
   18.2981   63.8229   43.1133 H   0  0  0  0  0  0
   16.8298   61.6949   39.0946 H   0  0  0  0  0  0
   17.3005   62.2674   41.4612 H   0  0  0  0  0  0
   14.0647   65.0221   38.8512 H   0  0  0  0  0  0
   14.5433   65.5814   41.2194 H   0  0  0  0  0  0
   15.6609   62.1494   37.0443 H   0  0  0  0  0  0
   14.4441   63.6113   36.9338 H   0  0  0  0  0  0
   17.2297   64.0285   49.3806 H   0  0  0  0  0  0
   15.9980   61.4604   45.2036 H   0  0  0  0  0  0
   16.0484   61.8564   49.5158 H   0  0  0  0  0  0
   15.4357   60.5793   47.4765 H   0  0  0  0  0  0
   18.1950   67.5778   46.9941 H   0  0  0  0  0  0
   19.7800   69.4260   47.4473 H   0  0  0  0  0  0
   20.4007   69.3514   45.7633 H   0  0  0  0  0  0
   18.3294   70.3306   44.9022 H   0  0  0  0  0  0
   18.9632   71.3775   46.2170 H   0  0  0  0  0  0
  1  2  1  0  0  0
  1 13  1  0  0  0
  1 30  1  0  0  0
  1 31  1  0  0  0
  2  3  2  0  0  0
  2  9  1  0  0  0
  4  5  2  0  0  0
  4  7  1  0  0  0
  4 10  1  0  0  0
  5  6  1  0  0  0
  5 32  1  0  0  0
  6  9  2  0  0  0
  6 33  1  0  0  0
  7  8  2  0  0  0
  7 34  1  0  0  0
  8  9  1  0  0  0
  8 35  1  0  0  0
 10 36  1  0  0  0
 10 37  1  0  0  0
 11 13  1  0  0  0
 11 19  2  0  0  0
 11 23  1  0  0  0
 12 14  2  0  0  0
 12 15  1  0  0  0
 12 19  1  0  0  0
 13 14  1  0  0  0
 14 16  1  0  0  0
 15 17  2  0  0  0
 15 38  1  0  0  0
 16 18  2  0  0  0
 16 39  1  0  0  0
 17 18  1  0  0  0
 17 40  1  0  0  0
 18 41  1  0  0  0
 20 25  3  0  0  0
 20 29  1  0  0  0
 21 22  2  0  0  0
 21 23  1  0  0  0
 21 27  1  0  0  0
 22 26  1  0  0  0
 23 24  2  0  0  0
 24 26  1  0  0  0
 27 28  1  0  0  0
 27 42  1  0  0  0
 28 29  1  0  0  0
 28 43  1  0  0  0
 28 44  1  0  0  0
 29 45  1  0  0  0
 29 46  1  0  0  0
M  END
> <s_m_source_file>
../4o2a_ligand.sdf

> <i_m_source_file_index>
1

> <s_epik_input>
W05IMl1jMVtjSF1bY0hdYyhbY0hdW2NIXTEpQyg9TylbQ0gyXW4oYyhjMjMpW2NIXVtjSF1bY0hdW2NIXTIpYyhuMyktYzRub25jNFtOSF1bQ0gyXVtDSDJdQyNO

> <s_epik_cmdline>
J2VwaWtfYXBwJywgJy1pbWFlJywgJ2xpZ2FuZF9wcm8ubWFlJywgJy1vbWFlJywgJ2xpZ2FuZF9wcmVwLm1hZScsICctbXMnLCAnMScsICctcGgnLCAnNycsICctcGh0JywgJzAuNScsICctbnQn

> <r_lp_tautomer_probability>
1

> <r_epik_Ionization_Penalty>
  0.0005

> <r_epik_Ionization_Penalty_Charging>
  0.0000

> <r_epik_Ionization_Penalty_Neutral>
  0.0005

> <r_epik_State_Penalty>
 -0.0000

> <r_epik_Charging_Adjusted_Penalty>
0

> <i_epik_Tot_Q>
0

> <i_epik_Tot_abs_Q>
0

$$$$
