4o2e_ligand
                    3D
 Schrodinger Suite 2020-3.
130130  0  0  1  0            999 V2000
   32.0630  -18.6220   -4.9300 N   0  3  0  0  0  0
   31.4910  -19.7150   -4.1540 C   0  0  2  0  0  0
   29.9660  -19.6760   -4.1930 C   0  0  0  0  0  0
   29.3680  -18.6080   -4.2740 O   0  0  0  0  0  0
   31.9870  -19.6710   -2.7090 C   0  0  0  0  0  0
   32.2780  -20.9740   -2.2360 O   0  0  0  0  0  0
   29.3480  -20.8510   -4.1320 N   0  0  0  0  0  0
   27.9120  -20.9850   -4.3200 C   0  0  2  0  0  0
   27.1690  -20.5360   -3.0680 C   0  0  0  0  0  0
   27.6250  -20.7100   -1.9850 O   0  0  0  0  0  0
   27.4530  -22.4110   -4.5130 C   0  0  0  0  0  0
   27.8260  -23.0470   -5.8020 C   0  0  0  0  0  0
   29.0870  -23.5040   -6.0460 N   0  0  0  0  0  0
   27.1050  -23.3470   -6.8910 C   0  0  0  0  0  0
   29.1300  -24.0670   -7.2260 C   0  0  0  0  0  0
   27.9410  -23.9790   -7.7620 N   0  0  0  0  0  0
   25.9650  -20.0490   -3.2520 N   0  0  0  0  0  0
   25.1460  -19.6630   -2.1080 C   0  0  2  0  0  0
   24.7050  -20.9260   -1.3710 C   0  0  0  0  0  0
   24.3200  -21.9130   -1.9970 O   0  0  0  0  0  0
   23.9270  -18.8160   -2.5230 C   0  0  0  0  0  0
   23.0260  -19.5980   -3.4690 C   0  0  0  0  0  0
   23.1540  -18.3560   -1.2920 C   0  0  0  0  0  0
   24.7780  -20.9020   -0.0440 N   0  0  0  0  0  0
   24.4990  -22.0930    0.7560 C   0  0  2  0  0  0
   23.0260  -22.2020    1.1310 C   0  0  0  0  0  0
   22.6280  -23.1030    1.8680 O   0  0  0  0  0  0
   25.3740  -22.1150    2.0090 C   0  0  0  0  0  0
   22.2210  -21.2800    0.6150 N   0  0  0  0  0  0
   20.7860  -21.2850    0.8740 C   0  0  2  0  0  0
   20.0740  -22.1740   -0.1420 C   0  0  0  0  0  0
   20.3900  -22.1450   -1.3300 O   0  0  0  0  0  0
   20.2030  -19.8600    0.8180 C   0  0  0  0  0  0
   18.7170  -19.8770    1.1460 C   0  0  0  0  0  0
   20.9530  -18.9460    1.7770 C   0  0  0  0  0  0
   19.0980  -22.9490    0.2940 N   0  0  0  0  0  0
   18.4180  -23.9470   -0.4960 C   0  0  2  0  0  0
   16.9090  -23.9140   -0.2380 C   0  0  0  0  0  0
   16.4920  -24.1150    0.8520 O   0  0  0  0  0  0
   18.9800  -25.3450   -0.1450 C   0  0  0  0  0  0
   17.9720  -26.4750    0.1100 C   0  0  0  0  0  0
   18.2770  -27.3420    1.3130 C   0  0  0  0  0  0
   17.4150  -28.1380    1.7160 O   0  5  0  0  0  0
   19.3720  -27.2840    1.8720 O   0  0  0  0  0  0
   16.1050  -23.6500   -1.2590 N   0  0  0  0  0  0
   14.6530  -23.6060   -1.1140 C   0  0  2  0  0  0
   13.9360  -24.1250   -2.3520 C   0  0  0  0  0  0
   14.0400  -23.5410   -3.4300 O   0  0  0  0  0  0
   14.1840  -22.1810   -0.8170 C   0  0  0  0  0  0
   14.8360  -21.5970    0.4180 C   0  0  0  0  0  0
   14.3890  -21.8320    1.5420 O   0  0  0  0  0  0
   15.8990  -20.8280    0.2160 N   0  0  0  0  0  0
   13.2110  -25.2260   -2.1960 N   0  0  0  0  0  0
   12.4170  -25.7650   -3.2890 C   0  0  2  0  0  0
   11.4270  -24.7120   -3.7720 C   0  0  0  0  0  0
   10.9380  -23.9030   -2.9870 O   0  0  0  0  0  0
   11.6860  -27.0170   -2.8450 C   0  0  0  0  0  0
   11.1380  -24.7150   -5.0670 N   0  0  0  0  0  0
   10.1220  -23.8180   -5.6020 C   0  0  2  0  0  0
    8.7440  -24.3560   -5.2340 C   0  0  0  0  0  0
    7.7190  -23.6990   -5.4090 O   0  5  0  0  0  0
   10.2650  -23.6720   -7.1200 C   0  0  0  0  0  0
   11.4210  -22.8030   -7.6300 C   0  0  0  0  0  0
   12.7810  -23.4080   -7.2900 C   0  0  0  0  0  0
   11.3000  -22.5710   -9.1320 C   0  0  0  0  0  0
    8.6310  -25.4790   -4.7470 O   0  0  0  0  0  0
   31.6927  -18.6738   -5.9645 H   0  0  0  0  0  0
   33.1598  -18.7060   -4.9285 H   0  0  0  0  0  0
   31.7682  -17.6613   -4.4827 H   0  0  0  0  0  0
   31.8475  -20.6323   -4.6454 H   0  0  0  0  0  0
   32.9012  -19.0618   -2.6536 H   0  0  0  0  0  0
   31.2110  -19.2268   -2.0683 H   0  0  0  0  0  0
   32.6473  -21.1169   -1.2097 H   0  0  0  0  0  0
   29.9619  -21.7414   -3.9313 H   0  0  0  0  0  0
   27.7430  -20.3763   -5.2205 H   0  0  0  0  0  0
   26.8758  -22.9771   -3.7671 H   0  0  0  0  0  0
   26.0523  -23.1795   -7.1625 H   0  0  0  0  0  0
   30.0051  -24.5291   -7.6829 H   0  0  0  0  0  0
   25.5734  -19.9320   -4.2732 H   0  0  0  0  0  0
   25.7959  -19.0432   -1.4728 H   0  0  0  0  0  0
   24.2754  -17.9209   -3.0590 H   0  0  0  0  0  0
   23.6061  -19.9179   -4.3471 H   0  0  0  0  0  0
   22.1921  -18.9583   -3.7936 H   0  0  0  0  0  0
   22.6290  -20.4827   -2.9497 H   0  0  0  0  0  0
   23.8257  -17.7947   -0.6259 H   0  0  0  0  0  0
   22.7578  -19.2329   -0.7590 H   0  0  0  0  0  0
   22.3209  -17.7086   -1.6030 H   0  0  0  0  0  0
   25.0554  -19.9596    0.4509 H   0  0  0  0  0  0
   24.7528  -22.9365    0.0971 H   0  0  0  0  0  0
   26.4320  -22.0355    1.7188 H   0  0  0  0  0  0
   25.2127  -23.0577    2.5524 H   0  0  0  0  0  0
   25.1070  -21.2676    2.6576 H   0  0  0  0  0  0
   22.6622  -20.4992   -0.0219 H   0  0  0  0  0  0
   20.6793  -21.6972    1.8882 H   0  0  0  0  0  0
   20.3190  -19.4598   -0.2000 H   0  0  0  0  0  0
   18.1939  -20.5420    0.4430 H   0  0  0  0  0  0
   18.3106  -18.8586    1.0588 H   0  0  0  0  0  0
   18.5724  -20.2428    2.1733 H   0  0  0  0  0  0
   22.0234  -18.9476    1.5235 H   0  0  0  0  0  0
   20.8197  -19.3071    2.8075 H   0  0  0  0  0  0
   20.5578  -17.9229    1.6930 H   0  0  0  0  0  0
   18.8118  -22.7900    1.3442 H   0  0  0  0  0  0
   18.6177  -23.6725   -1.5423 H   0  0  0  0  0  0
   19.6133  -25.7033   -0.9699 H   0  0  0  0  0  0
   19.5791  -25.2789    0.7752 H   0  0  0  0  0  0
   16.9732  -26.0449    0.2756 H   0  0  0  0  0  0
   17.9429  -27.1442   -0.7625 H   0  0  0  0  0  0
   16.5658  -23.4606   -2.2397 H   0  0  0  0  0  0
   14.4457  -24.2776   -0.2678 H   0  0  0  0  0  0
   14.4301  -21.5291   -1.6682 H   0  0  0  0  0  0
   13.0958  -22.1791   -0.6564 H   0  0  0  0  0  0
   16.2608  -20.6474   -0.8070 H   0  0  0  0  0  0
   16.4181  -20.3713    1.0716 H   0  0  0  0  0  0
   13.2176  -25.7320   -1.2193 H   0  0  0  0  0  0
   13.1230  -26.0240   -4.0918 H   0  0  0  0  0  0
   12.4155  -27.7647   -2.5002 H   0  0  0  0  0  0
   11.1131  -27.4262   -3.6901 H   0  0  0  0  0  0
   10.9992  -26.7683   -2.0225 H   0  0  0  0  0  0
   11.6731  -25.4027   -5.7383 H   0  0  0  0  0  0
   10.2887  -22.8367   -5.1338 H   0  0  0  0  0  0
   10.4193  -24.6635   -7.5708 H   0  0  0  0  0  0
    9.3510  -23.2199   -7.5326 H   0  0  0  0  0  0
   11.3560  -21.8307   -7.1196 H   0  0  0  0  0  0
   12.8499  -23.5680   -6.2039 H   0  0  0  0  0  0
   13.5783  -22.7214   -7.6108 H   0  0  0  0  0  0
   12.8946  -24.3704   -7.8104 H   0  0  0  0  0  0
   10.3154  -22.1355   -9.3576 H   0  0  0  0  0  0
   11.4068  -23.5296   -9.6608 H   0  0  0  0  0  0
   12.0905  -21.8805   -9.4612 H   0  0  0  0  0  0
   29.8770  -23.3670   -5.2929 H   0  0  0  0  0  0
  1  2  1  0  0  0
  1 67  1  0  0  0
  1 68  1  0  0  0
  1 69  1  0  0  0
  2  3  1  0  0  0
  2  5  1  0  0  0
  2 70  1  0  0  0
  3  4  2  0  0  0
  3  7  1  0  0  0
  5  6  1  0  0  0
  5 71  1  0  0  0
  5 72  1  0  0  0
  6 73  1  0  0  0
  7  8  1  0  0  0
  7 74  1  0  0  0
  8  9  1  0  0  0
  8 11  1  0  0  0
  8 75  1  0  0  0
  9 10  2  0  0  0
  9 17  1  0  0  0
 11 12  2  0  0  0
 11 76  1  0  0  0
 12 13  1  0  0  0
 12 14  1  0  0  0
 13 15  1  0  0  0
 13130  1  0  0  0
 14 16  2  0  0  0
 14 77  1  0  0  0
 15 16  1  0  0  0
 15 78  1  0  0  0
 17 18  1  0  0  0
 17 79  1  0  0  0
 18 19  1  0  0  0
 18 21  1  0  0  0
 18 80  1  0  0  0
 19 20  2  0  0  0
 19 24  1  0  0  0
 21 22  1  0  0  0
 21 23  1  0  0  0
 21 81  1  0  0  0
 22 82  1  0  0  0
 22 83  1  0  0  0
 22 84  1  0  0  0
 23 85  1  0  0  0
 23 86  1  0  0  0
 23 87  1  0  0  0
 24 25  1  0  0  0
 24 88  1  0  0  0
 25 26  1  0  0  0
 25 28  1  0  0  0
 25 89  1  0  0  0
 26 27  2  0  0  0
 26 29  1  0  0  0
 28 90  1  0  0  0
 28 91  1  0  0  0
 28 92  1  0  0  0
 29 30  1  0  0  0
 29 93  1  0  0  0
 30 31  1  0  0  0
 30 33  1  0  0  0
 30 94  1  0  0  0
 31 32  2  0  0  0
 31 36  1  0  0  0
 33 34  1  0  0  0
 33 35  1  0  0  0
 33 95  1  0  0  0
 34 96  1  0  0  0
 34 97  1  0  0  0
 34 98  1  0  0  0
 35 99  1  0  0  0
 35100  1  0  0  0
 35101  1  0  0  0
 36 37  1  0  0  0
 36102  1  0  0  0
 37 38  1  0  0  0
 37 40  1  0  0  0
 37103  1  0  0  0
 38 39  2  0  0  0
 38 45  1  0  0  0
 40 41  1  0  0  0
 40104  1  0  0  0
 40105  1  0  0  0
 41 42  1  0  0  0
 41106  1  0  0  0
 41107  1  0  0  0
 42 43  1  0  0  0
 42 44  2  0  0  0
 45 46  1  0  0  0
 45108  1  0  0  0
 46 47  1  0  0  0
 46 49  1  0  0  0
 46109  1  0  0  0
 47 48  2  0  0  0
 47 53  1  0  0  0
 49 50  1  0  0  0
 49110  1  0  0  0
 49111  1  0  0  0
 50 51  2  0  0  0
 50 52  1  0  0  0
 52112  1  0  0  0
 52113  1  0  0  0
 53 54  1  0  0  0
 53114  1  0  0  0
 54 55  1  0  0  0
 54 57  1  0  0  0
 54115  1  0  0  0
 55 56  2  0  0  0
 55 58  1  0  0  0
 57116  1  0  0  0
 57117  1  0  0  0
 57118  1  0  0  0
 58 59  1  0  0  0
 58119  1  0  0  0
 59 60  1  0  0  0
 59 62  1  0  0  0
 59120  1  0  0  0
 60 61  1  0  0  0
 60 66  2  0  0  0
 62 63  1  0  0  0
 62121  1  0  0  0
 62122  1  0  0  0
 63 64  1  0  0  0
 63 65  1  0  0  0
 63123  1  0  0  0
 64124  1  0  0  0
 64125  1  0  0  0
 64126  1  0  0  0
 65127  1  0  0  0
 65128  1  0  0  0
 65129  1  0  0  0
M  CHG  3   1   1  43  -1  61  -1
M  END
> <s_m_source_file>
../4o2e_ligand.sdf

> <i_m_source_file_index>
1

> <s_epik_input>
W0NIXTE9TltDSDJdTj1DMVtDSDJdW0NASF0oW05IXUMoPU8pW0NAQEhdKFtOSDMrXSlbQ0gyXVtPSF0pQyg9TylbTkhdW0NAQEhdKFtDSF0oW0NIM10pW0NIM10pQyg9TylbTkhdW0NAQEhdKFtDSDNdKUMoPU8pW05IXVtDQEBIXShbQ0hdKFtDSDNdKVtDSDNdKUMoPU8pW05IXVtDQEBIXShbQ0gyXVtDSDJdQyg9TylbT0hdKUMoPU8pW05IXVtDQEBIXShbQ0gyXUMoPU8pW05IMl0pQyg9TylbTkhdW0NAQEhdKFtDSDNdKUMoPU8pW05IXVtDQEhdKEMoPU8pW09IXSlbQ0gyXVtDSF0oW0NIM10pW0NIM10=

> <s_epik_cmdline>
J2VwaWtfYXBwJywgJy1pbWFlJywgJ2xpZ2FuZF9wcm8ubWFlJywgJy1vbWFlJywgJ2xpZ2FuZF9wcmVwLm1hZScsICctbXMnLCAnMScsICctcGgnLCAnNycsICctcGh0JywgJzAuNScsICctbnQn

> <r_epik_Ionization_Penalty>
  0.1945

> <r_epik_Ionization_Penalty_Charging>
  0.1944

> <r_epik_Ionization_Penalty_Neutral>
  0.0001

> <r_epik_State_Penalty>
  0.1822

> <r_epik_Charging_Adjusted_Penalty>
0.37663227077128

> <i_epik_Tot_Q>
-1

> <i_epik_Tot_abs_Q>
3

> <s_epik_Chemistry_Notes>
This compound has an imine and may undergo hydrolysis.

$$$$
