4o2f_ligand
                    3D
 Schrodinger Suite 2020-3.
118118  0  0  1  0            999 V2000
   28.6530  -17.8990   -4.6320 N   0  0  0  0  0  0
   27.2160  -18.1510   -4.6240 C   0  0  2  0  0  0
   26.5760  -17.5630   -3.3780 C   0  0  0  0  0  0
   27.2140  -17.4780   -2.3270 O   0  0  0  0  0  0
   26.9300  -19.6550   -4.6810 C   0  0  0  0  0  0
   27.3280  -20.2990   -5.9730 C   0  0  0  0  0  0
   28.6200  -20.6880   -6.2430 N   0  0  0  0  0  0
   26.5970  -20.6240   -7.0680 C   0  0  0  0  0  0
   28.6720  -21.2240   -7.4540 C   0  0  0  0  0  0
   27.4590  -21.1980   -7.9710 N   0  0  0  0  0  0
   25.3130  -17.1590   -3.4960 N   0  0  0  0  0  0
   24.5730  -16.6640   -2.3420 C   0  0  2  0  0  0
   24.0590  -17.8510   -1.5360 C   0  0  0  0  0  0
   23.5100  -18.8010   -2.0920 O   0  0  0  0  0  0
   23.4150  -15.7450   -2.7480 C   0  0  0  0  0  0
   22.4110  -16.4910   -3.6250 C   0  0  0  0  0  0
   22.7330  -15.1710   -1.5150 C   0  0  0  0  0  0
   24.2490  -17.7980   -0.2220 N   0  0  0  0  0  0
   23.8490  -18.8990    0.6490 C   0  0  2  0  0  0
   22.4670  -18.6530    1.2430 C   0  0  0  0  0  0
   22.2720  -18.7710    2.4520 O   0  0  0  0  0  0
   24.8750  -19.1090    1.7490 C   0  0  0  0  0  0
   21.5140  -18.3080    0.3830 N   0  0  0  0  0  0
   20.1400  -18.0750    0.8100 C   0  0  2  0  0  0
   19.2250  -19.0910    0.1400 C   0  0  0  0  0  0
   19.2160  -19.2150   -1.0870 O   0  0  0  0  0  0
   19.6840  -16.6390    0.5020 C   0  0  0  0  0  0
   18.2290  -16.4510    0.8900 C   0  0  0  0  0  0
   20.5590  -15.6420    1.2400 C   0  0  0  0  0  0
   18.4450  -19.8390    0.8740 N   0  0  0  0  0  0
   17.7590  -20.9990    0.3600 C   0  0  2  0  0  0
   16.2780  -20.8910    0.4840 C   0  0  0  0  0  0
   15.7400  -20.9850    1.5380 O   0  0  0  0  0  0
   18.2370  -22.2530    1.0870 C   0  0  0  0  0  0
   17.1830  -22.9390    1.8830 C   0  0  0  0  0  0
   17.1330  -24.4360    1.6710 C   0  0  0  0  0  0
   17.8440  -25.1690    2.3790 O   0  5  0  0  0  0
   16.3490  -24.8900    0.8210 O   0  0  0  0  0  0
   15.6260  -20.7110   -0.6320 N   0  0  0  0  0  0
   14.1750  -20.5580   -0.7090 C   0  0  2  0  0  0
   13.5680  -21.1220   -1.9910 C   0  0  0  0  0  0
   13.7760  -20.5870   -3.0790 O   0  0  0  0  0  0
   13.7890  -19.0860   -0.5640 C   0  0  0  0  0  0
   14.3920  -18.4460    0.6690 C   0  0  0  0  0  0
   13.8810  -18.6030    1.7790 O   0  0  0  0  0  0
   15.4930  -17.7290    0.4830 N   0  0  0  0  0  0
   12.8050  -22.2010   -1.8560 N   0  0  0  0  0  0
   12.1130  -22.7790   -3.0020 C   0  0  2  0  0  0
   11.0330  -21.8290   -3.5090 C   0  0  0  0  0  0
   10.4260  -21.0950   -2.7280 O   0  0  0  0  0  0
   11.5120  -24.1240   -2.6380 C   0  0  0  0  0  0
   10.7990  -21.8400   -4.8180 N   0  0  0  0  0  0
    9.7140  -21.0590   -5.3960 C   0  0  2  0  0  0
    8.3710  -21.6370   -4.9650 C   0  0  0  0  0  0
    7.3230  -21.0090   -5.1150 O   0  5  0  0  0  0
    9.8070  -21.0350   -6.9230 C   0  0  0  0  0  0
   10.8330  -20.0920   -7.5540 C   0  0  0  0  0  0
   12.2540  -20.4890   -7.1720 C   0  0  0  0  0  0
   10.6730  -20.0660   -9.0680 C   0  0  0  0  0  0
    8.3120  -22.7570   -4.4600 O   0  0  0  0  0  0
   29.1141  -18.3777   -3.7555 H   0  0  0  0  0  0
   29.0930  -18.3145   -5.5506 H   0  0  0  0  0  0
   26.8278  -17.6466   -5.5212 H   0  0  0  0  0  0
   26.4773  -20.2599   -3.8815 H   0  0  0  0  0  0
   25.5321  -20.5112   -7.3194 H   0  0  0  0  0  0
   29.5645  -21.6187   -7.9395 H   0  0  0  0  0  0
   24.8285  -17.2028   -4.4826 H   0  0  0  0  0  0
   25.2945  -16.0734   -1.7583 H   0  0  0  0  0  0
   23.8207  -14.9068   -3.3335 H   0  0  0  0  0  0
   22.9260  -16.8963   -4.5085 H   0  0  0  0  0  0
   21.6199  -15.7980   -3.9475 H   0  0  0  0  0  0
   21.9642  -17.3158   -3.0505 H   0  0  0  0  0  0
   23.4742  -14.6395   -0.9001 H   0  0  0  0  0  0
   22.2880  -15.9882   -0.9283 H   0  0  0  0  0  0
   21.9438  -14.4704   -1.8253 H   0  0  0  0  0  0
   24.7185  -16.9003    0.2066 H   0  0  0  0  0  0
   23.8145  -19.7896    0.0043 H   0  0  0  0  0  0
   25.8636  -19.2845    1.2997 H   0  0  0  0  0  0
   24.5883  -19.9802    2.3563 H   0  0  0  0  0  0
   24.9161  -18.2143    2.3877 H   0  0  0  0  0  0
   21.7864  -18.1994   -0.6772 H   0  0  0  0  0  0
   20.1377  -18.2201    1.9004 H   0  0  0  0  0  0
   19.7774  -16.4500   -0.5776 H   0  0  0  0  0  0
   17.6080  -17.1794    0.3480 H   0  0  0  0  0  0
   17.9091  -15.4311    0.6302 H   0  0  0  0  0  0
   18.1154  -16.6062    1.9730 H   0  0  0  0  0  0
   21.6094  -15.7902    0.9490 H   0  0  0  0  0  0
   20.4540  -15.7942    2.3243 H   0  0  0  0  0  0
   20.2477  -14.6191    0.9814 H   0  0  0  0  0  0
   18.3225  -19.5498    1.9282 H   0  0  0  0  0  0
   18.0078  -21.0100   -0.7114 H   0  0  0  0  0  0
   18.6114  -22.9819    0.3532 H   0  0  0  0  0  0
   19.0448  -21.9870    1.7846 H   0  0  0  0  0  0
   17.3629  -22.7674    2.9545 H   0  0  0  0  0  0
   16.1964  -22.5378    1.6080 H   0  0  0  0  0  0
   16.2321  -20.6772   -1.5494 H   0  0  0  0  0  0
   13.8098  -21.1600    0.1362 H   0  0  0  0  0  0
   14.1419  -18.5261   -1.4426 H   0  0  0  0  0  0
   12.6950  -18.9994   -0.4893 H   0  0  0  0  0  0
   15.9124  -17.6173   -0.5278 H   0  0  0  0  0  0
   15.9863  -17.2464    1.3396 H   0  0  0  0  0  0
   12.6992  -22.6588   -0.8614 H   0  0  0  0  0  0
   12.8789  -22.9207   -3.7787 H   0  0  0  0  0  0
   12.3054  -24.7940   -2.2752 H   0  0  0  0  0  0
   11.0368  -24.5657   -3.5263 H   0  0  0  0  0  0
   10.7582  -23.9872   -1.8487 H   0  0  0  0  0  0
   11.4418  -22.4529   -5.4669 H   0  0  0  0  0  0
    9.8399  -20.0402   -5.0007 H   0  0  0  0  0  0
   10.0701  -22.0380   -7.2901 H   0  0  0  0  0  0
    8.8370  -20.7330   -7.3447 H   0  0  0  0  0  0
   10.6517  -19.0782   -7.1675 H   0  0  0  0  0  0
   12.3490  -20.5019   -6.0762 H   0  0  0  0  0  0
   12.9636  -19.7616   -7.5930 H   0  0  0  0  0  0
   12.4749  -21.4900   -7.5711 H   0  0  0  0  0  0
    9.6425  -19.7778   -9.3229 H   0  0  0  0  0  0
   10.8861  -21.0649   -9.4764 H   0  0  0  0  0  0
   11.3749  -19.3365   -9.4984 H   0  0  0  0  0  0
   29.4100  -20.5296   -5.4941 H   0  0  0  0  0  0
  1  2  1  0  0  0
  1 61  1  0  0  0
  1 62  1  0  0  0
  2  3  1  0  0  0
  2  5  1  0  0  0
  2 63  1  0  0  0
  3  4  2  0  0  0
  3 11  1  0  0  0
  5  6  2  0  0  0
  5 64  1  0  0  0
  6  7  1  0  0  0
  6  8  1  0  0  0
  7  9  1  0  0  0
  7118  1  0  0  0
  8 10  2  0  0  0
  8 65  1  0  0  0
  9 10  1  0  0  0
  9 66  1  0  0  0
 11 12  1  0  0  0
 11 67  1  0  0  0
 12 13  1  0  0  0
 12 15  1  0  0  0
 12 68  1  0  0  0
 13 14  2  0  0  0
 13 18  1  0  0  0
 15 16  1  0  0  0
 15 17  1  0  0  0
 15 69  1  0  0  0
 16 70  1  0  0  0
 16 71  1  0  0  0
 16 72  1  0  0  0
 17 73  1  0  0  0
 17 74  1  0  0  0
 17 75  1  0  0  0
 18 19  1  0  0  0
 18 76  1  0  0  0
 19 20  1  0  0  0
 19 22  1  0  0  0
 19 77  1  0  0  0
 20 21  2  0  0  0
 20 23  1  0  0  0
 22 78  1  0  0  0
 22 79  1  0  0  0
 22 80  1  0  0  0
 23 24  1  0  0  0
 23 81  1  0  0  0
 24 25  1  0  0  0
 24 27  1  0  0  0
 24 82  1  0  0  0
 25 26  2  0  0  0
 25 30  1  0  0  0
 27 28  1  0  0  0
 27 29  1  0  0  0
 27 83  1  0  0  0
 28 84  1  0  0  0
 28 85  1  0  0  0
 28 86  1  0  0  0
 29 87  1  0  0  0
 29 88  1  0  0  0
 29 89  1  0  0  0
 30 31  1  0  0  0
 30 90  1  0  0  0
 31 32  1  0  0  0
 31 34  1  0  0  0
 31 91  1  0  0  0
 32 33  2  0  0  0
 32 39  1  0  0  0
 34 35  1  0  0  0
 34 92  1  0  0  0
 34 93  1  0  0  0
 35 36  1  0  0  0
 35 94  1  0  0  0
 35 95  1  0  0  0
 36 37  1  0  0  0
 36 38  2  0  0  0
 39 40  1  0  0  0
 39 96  1  0  0  0
 40 41  1  0  0  0
 40 43  1  0  0  0
 40 97  1  0  0  0
 41 42  2  0  0  0
 41 47  1  0  0  0
 43 44  1  0  0  0
 43 98  1  0  0  0
 43 99  1  0  0  0
 44 45  2  0  0  0
 44 46  1  0  0  0
 46100  1  0  0  0
 46101  1  0  0  0
 47 48  1  0  0  0
 47102  1  0  0  0
 48 49  1  0  0  0
 48 51  1  0  0  0
 48103  1  0  0  0
 49 50  2  0  0  0
 49 52  1  0  0  0
 51104  1  0  0  0
 51105  1  0  0  0
 51106  1  0  0  0
 52 53  1  0  0  0
 52107  1  0  0  0
 53 54  1  0  0  0
 53 56  1  0  0  0
 53108  1  0  0  0
 54 55  1  0  0  0
 54 60  2  0  0  0
 56 57  1  0  0  0
 56109  1  0  0  0
 56110  1  0  0  0
 57 58  1  0  0  0
 57 59  1  0  0  0
 57111  1  0  0  0
 58112  1  0  0  0
 58113  1  0  0  0
 58114  1  0  0  0
 59115  1  0  0  0
 59116  1  0  0  0
 59117  1  0  0  0
M  CHG  2  37  -1  55  -1
M  END
> <s_m_source_file>
../4o2f_ligand.sdf

> <i_m_source_file_index>
1

> <s_epik_input>
W0NIXTE9TltDSDJdTj1DMVtDSDJdW0NASF0oW05IMytdKUMoPU8pW05IXVtDQEBIXShbQ0hdKFtDSDNdKVtDSDNdKUMoPU8pW05IXVtDQEBIXShbQ0gzXSlDKD1PKVtOSF1bQ0BASF0oW0NIXShbQ0gzXSlbQ0gzXSlDKD1PKVtOSF1bQ0BASF0oW0NIMl1bQ0gyXUMoPU8pW09IXSlDKD1PKVtOSF1bQ0BASF0oW0NIMl1DKD1PKVtOSDJdKUMoPU8pW05IXVtDQEBIXShbQ0gzXSlDKD1PKVtOSF1bQ0BIXShDKD1PKVtPSF0pW0NIMl1bQ0hdKFtDSDNdKVtDSDNd

> <s_epik_cmdline>
J2VwaWtfYXBwJywgJy1pbWFlJywgJ2xpZ2FuZF9wcm8ubWFlJywgJy1vbWFlJywgJ2xpZ2FuZF9wcmVwLm1hZScsICctbXMnLCAnMScsICctcGgnLCAnNycsICctcGh0JywgJzAuNScsICctbnQn

> <r_epik_Ionization_Penalty>
  0.1080

> <r_epik_Ionization_Penalty_Charging>
  0.0019

> <r_epik_Ionization_Penalty_Neutral>
  0.1061

> <r_epik_State_Penalty>
  0.0959

> <r_epik_Charging_Adjusted_Penalty>
0.0978703821156813

> <i_epik_Tot_Q>
-2

> <i_epik_Tot_abs_Q>
2

> <s_epik_Chemistry_Notes>
This compound has an imine and may undergo hydrolysis.

$$$$
