4o36_ligand
                    3D
 Schrodinger Suite 2020-3.
206209  0  0  1  0            999 V2000
  -14.3440    5.7900   16.7420 N   0  3  0  0  0  0
  -14.1700    4.4710   17.4780 C   0  0  2  0  0  0
  -12.7090    3.9540   17.5460 C   0  0  0  0  0  0
  -11.8660    4.3760   16.7560 O   0  0  0  0  0  0
  -14.9520    3.3750   16.7550 C   0  0  0  0  0  0
  -16.4450    3.6680   16.6650 C   0  0  0  0  0  0
  -17.2660    2.5650   16.0370 C   0  0  0  0  0  0
  -16.7130    1.6460   15.3030 O   0  0  0  0  0  0
  -18.4900    2.5160   16.3540 O   0  0  0  0  0  0
  -12.4380    3.0070   18.4470 N   0  0  0  0  0  0
  -11.1420    2.2920   18.4600 C   0  0  2  0  0  0
  -10.9920    1.4880   17.2210 C   0  0  0  0  0  0
  -11.9300    1.0580   16.6220 O   0  0  0  0  0  0
  -10.9430    1.3830   19.6990 C   0  0  2  0  0  0
  -11.9220    0.3520   19.6300 O   0  0  0  0  0  0
  -11.0590    2.1110   21.0020 C   0  0  0  0  0  0
   -9.7540    1.0880   16.9430 N   0  0  0  0  0  0
   -9.4850    0.1630   15.8320 C   0  0  2  0  0  0
  -10.1530   -1.1790   16.0600 C   0  0  0  0  0  0
  -10.7670   -1.7420   15.1130 O   0  0  0  0  0  0
   -7.9970   -0.0150   15.6350 C   0  0  0  0  0  0
  -10.1700   -1.6240   17.2920 N   0  0  0  0  0  0
  -10.8620   -2.8770   17.6500 C   0  0  2  0  0  0
  -12.3550   -2.8110   17.4120 C   0  0  0  0  0  0
  -12.9840   -3.7380   16.8750 O   0  0  0  0  0  0
  -10.5620   -3.2690   19.0870 C   0  0  0  0  0  0
  -12.9510   -1.7070   17.8000 N   0  0  0  0  0  0
  -14.4400   -1.4650   17.5970 C   0  0  2  0  0  0
  -14.7670   -1.3570   16.1360 C   0  0  0  0  0  0
  -15.7480   -1.9540   15.6580 O   0  0  0  0  0  0
  -14.8720   -0.2380   18.3390 C   0  0  0  0  0  0
  -13.9010   -0.6860   15.3700 N   0  0  0  0  0  0
  -14.1050   -0.5840   13.9730 C   0  0  2  0  0  0
  -14.0830   -1.9630   13.3330 C   0  0  0  0  0  0
  -14.8580   -2.2850   12.4110 O   0  0  0  0  0  0
  -13.0800    0.3170   13.2890 C   0  0  0  0  0  0
  -13.4630    1.7420   13.2840 C   0  0  0  0  0  0
  -12.5770    2.7470   13.5030 N   0  0  0  0  0  0
  -14.6660    2.3230   13.0940 C   0  0  0  0  0  0
  -13.1980    3.9060   13.4290 C   0  0  0  0  0  0
  -14.4600    3.6770   13.1510 N   0  0  0  0  0  0
  -13.1110   -2.7570   13.7520 N   0  0  0  0  0  0
  -13.0160   -4.1130   13.1880 C   0  0  2  0  0  0
  -14.3260   -4.9320   13.3790 C   0  0  0  0  0  0
  -14.8290   -5.5460   12.4270 O   0  0  0  0  0  0
  -11.8060   -4.8680   13.8130 C   0  0  0  0  0  0
  -11.7160   -6.3210   13.3500 C   0  0  0  0  0  0
  -10.8540   -6.6460   12.2980 C   0  0  0  0  0  0
  -12.4570   -7.2760   13.9190 C   0  0  0  0  0  0
  -10.7480   -7.9360   11.8860 C   0  0  0  0  0  0
  -12.4510   -8.6010   13.4850 C   0  0  0  0  0  0
  -11.5680   -8.8920   12.4510 C   0  0  0  0  0  0
  -14.8560   -4.8890   14.6040 N   0  0  0  0  0  0
  -16.0440   -5.6790   14.8760 C   0  0  2  0  0  0
  -17.2410   -5.1560   14.0680 C   0  0  0  0  0  0
  -17.9560   -5.9430   13.4620 O   0  0  0  0  0  0
  -16.4220   -5.5830   16.3570 C   0  0  0  0  0  0
  -15.4060   -6.1420   17.3420 C   0  0  0  0  0  0
  -15.7570   -5.8930   18.8070 C   0  0  0  0  0  0
  -14.9760   -5.2460   19.5390 O   0  0  0  0  0  0
  -16.8380   -6.3010   19.2410 O   0  0  0  0  0  0
  -17.4010   -3.8360   14.0100 N   0  0  0  0  0  0
  -18.4640   -3.2190   13.2240 C   0  0  2  0  0  0
  -18.3420   -3.5130   11.7240 C   0  0  0  0  0  0
  -19.3550   -3.7030   11.0170 O   0  0  0  0  0  0
  -18.4370   -1.6980   13.4500 C   0  0  0  0  0  0
  -19.5440   -0.9540   12.7330 C   0  0  0  0  0  0
  -19.5130    0.5430   12.9340 C   0  0  0  0  0  0
  -19.5050    1.3080   11.9660 O   0  0  0  0  0  0
  -19.3400    0.9400   14.1490 N   0  0  0  0  0  0
  -17.1090   -3.5600   11.2070 N   0  0  0  0  0  0
  -16.9230   -3.6840    9.7880 C   0  0  2  0  0  0
  -16.9200   -5.1500    9.3130 C   0  0  0  0  0  0
  -17.1490   -5.3590    8.1620 O   0  0  0  0  0  0
  -15.6450   -2.9970    9.3910 C   0  0  0  0  0  0
  -15.6810   -1.5030    9.5430 C   0  0  0  0  0  0
  -14.5230   -0.7630    9.7060 N   0  0  0  0  0  0
  -16.7110   -0.6360    9.6040 C   0  0  0  0  0  0
  -14.8650    0.5040    9.8500 C   0  0  0  0  0  0
  -16.1730    0.5970    9.7520 N   0  0  0  0  0  0
  -16.6020   -6.0630   10.1940 N   0  0  0  0  0  0
  -16.4470   -7.4510    9.7720 C   0  0  2  0  0  0
  -17.3140   -8.4860   10.4100 C   0  0  0  0  0  0
  -17.4230   -9.5850    9.8760 O   0  0  0  0  0  0
  -14.9890   -7.8220    9.9010 C   0  0  0  0  0  0
  -14.0170   -6.9450    9.1340 C   0  0  0  0  0  0
  -13.9320   -6.9430    7.7690 N   0  0  0  0  0  0
  -13.1340   -5.9970    9.5320 C   0  0  0  0  0  0
  -13.1040   -6.0230    7.3530 C   0  0  0  0  0  0
  -12.6060   -5.4420    8.4070 N   0  0  0  0  0  0
  -17.8220   -8.2800   11.6010 N   0  0  0  0  0  0
  -18.5600   -9.3560   12.2810 C   0  0  2  0  0  0
  -20.0490   -9.4060   11.9560 C   0  0  0  0  0  0
  -20.7080   -8.3730   11.9930 O   0  0  0  0  0  0
  -18.3490   -9.2050   13.7810 C   0  0  0  0  0  0
  -16.8980   -9.3450   14.2020 C   0  0  0  0  0  0
  -16.1510  -10.9230   13.8110 S   0  0  0  0  0  0
  -17.5490  -11.9860   14.3450 C   0  0  0  0  0  0
  -20.5090  -10.5750   11.6320 N   0  0  0  0  0  0
  -21.9510  -10.7990   11.4230 C   0  0  2  0  0  0
  -22.3460  -12.1270   11.9920 C   0  0  0  0  0  0
  -22.5770  -13.0710   11.2780 O   0  0  0  0  0  0
  -22.3260  -10.7390    9.9570 C   0  0  0  0  0  0
  -23.8250  -10.7990    9.7300 C   0  0  0  0  0  0
  -24.5960  -10.4950   10.6820 O   0  0  0  0  0  0
  -24.1910  -11.0050    8.5960 O   0  0  0  0  0  0
  -22.3420  -12.2220   13.2980 N   0  0  0  0  0  0
  -22.4490  -13.5190   13.9570 C   0  0  2  0  0  0
  -23.6900  -14.3280   13.5560 C   0  0  0  0  0  0
  -24.7490  -13.6080   13.4920 O   0  0  0  0  0  0
  -22.4510  -13.2810   15.4140 C   0  0  0  0  0  0
  -21.2680  -12.6050   15.7380 O   0  0  0  0  0  0
  -23.6570  -15.6010   13.2690 O   0  0  0  0  0  0
  -13.7807    6.5779   17.2634 H   0  0  0  0  0  0
  -15.4106    6.0576   16.7164 H   0  0  0  0  0  0
  -13.9666    5.6887   15.7138 H   0  0  0  0  0  0
  -14.5382    4.6853   18.4921 H   0  0  0  0  0  0
  -14.5704    3.2684   15.7288 H   0  0  0  0  0  0
  -14.8306    2.4228   17.2921 H   0  0  0  0  0  0
  -16.8484    3.8300   17.6755 H   0  0  0  0  0  0
  -16.6056    4.5706   16.0571 H   0  0  0  0  0  0
  -17.3309    0.8531   14.8563 H   0  0  0  0  0  0
  -13.2084    2.7627   19.1932 H   0  0  0  0  0  0
  -10.3849    3.0899   18.4704 H   0  0  0  0  0  0
   -9.9468    0.9165   19.7028 H   0  0  0  0  0  0
  -11.9840   -0.2888   18.7381 H   0  0  0  0  0  0
  -10.2994    2.9054   21.0470 H   0  0  0  0  0  0
  -10.9016    1.4057   21.8313 H   0  0  0  0  0  0
  -12.0612    2.5568   21.0850 H   0  0  0  0  0  0
   -8.9241    1.4615   17.5609 H   0  0  0  0  0  0
   -9.9177    0.6303   14.9351 H   0  0  0  0  0  0
   -7.5288    0.9668   15.4712 H   0  0  0  0  0  0
   -7.8172   -0.6575   14.7604 H   0  0  0  0  0  0
   -7.5621   -0.4838   16.5300 H   0  0  0  0  0  0
   -9.6526   -1.0405   18.0677 H   0  0  0  0  0  0
  -10.4532   -3.6333   16.9638 H   0  0  0  0  0  0
   -9.4729   -3.3104   19.2360 H   0  0  0  0  0  0
  -10.9986   -4.2567   19.2964 H   0  0  0  0  0  0
  -10.9973   -2.5236   19.7689 H   0  0  0  0  0  0
  -12.3308   -0.9409   18.2884 H   0  0  0  0  0  0
  -15.0087   -2.3165   17.9990 H   0  0  0  0  0  0
  -14.6199   -0.3460   19.4043 H   0  0  0  0  0  0
  -15.9589   -0.1077   18.2307 H   0  0  0  0  0  0
  -14.3545    0.6409   17.9270 H   0  0  0  0  0  0
  -13.0240   -0.2109   15.8339 H   0  0  0  0  0  0
  -15.1016   -0.1220   13.9148 H   0  0  0  0  0  0
  -12.1149    0.2363   13.8106 H   0  0  0  0  0  0
  -12.9579    0.0042   12.2415 H   0  0  0  0  0  0
  -15.6774    1.9274   12.9194 H   0  0  0  0  0  0
  -12.7427    4.8857   13.5736 H   0  0  0  0  0  0
  -12.3829   -2.4225   14.5056 H   0  0  0  0  0  0
  -12.8639   -3.9430   12.1119 H   0  0  0  0  0  0
  -10.8714   -4.3640   13.5258 H   0  0  0  0  0  0
  -11.9005   -4.8685   14.9089 H   0  0  0  0  0  0
  -10.2689   -5.8665   11.8100 H   0  0  0  0  0  0
  -13.0952   -7.0071   14.7607 H   0  0  0  0  0  0
  -10.0247   -8.2128   11.1190 H   0  0  0  0  0  0
  -13.0966   -9.3596   13.9276 H   0  0  0  0  0  0
  -11.5216   -9.9131   12.0725 H   0  0  0  0  0  0
  -14.4117   -4.2722   15.3991 H   0  0  0  0  0  0
  -15.7630   -6.7019   14.5849 H   0  0  0  0  0  0
  -16.5646   -4.5273   16.6313 H   0  0  0  0  0  0
  -17.3557   -6.1371   16.5338 H   0  0  0  0  0  0
  -15.3266   -7.2310   17.2084 H   0  0  0  0  0  0
  -14.4254   -5.6778   17.1604 H   0  0  0  0  0  0
  -15.2314   -5.0681   20.5940 H   0  0  0  0  0  0
  -16.7010   -3.2062   14.5785 H   0  0  0  0  0  0
  -19.3886   -3.6843   13.5963 H   0  0  0  0  0  0
  -18.5428   -1.4850   14.5240 H   0  0  0  0  0  0
  -17.4817   -1.2904   13.0877 H   0  0  0  0  0  0
  -19.4674   -1.1366   11.6510 H   0  0  0  0  0  0
  -20.5196   -1.3089   13.0966 H   0  0  0  0  0  0
  -19.3572    0.2118   14.9733 H   0  0  0  0  0  0
  -19.1753    2.0068   14.3609 H   0  0  0  0  0  0
  -16.2356   -3.5033   11.8733 H   0  0  0  0  0  0
  -17.7906   -3.1650    9.3546 H   0  0  0  0  0  0
  -14.8200   -3.3670   10.0174 H   0  0  0  0  0  0
  -15.4270   -3.2103    8.3341 H   0  0  0  0  0  0
  -17.8033   -0.7575    9.5576 H   0  0  0  0  0  0
  -14.1787    1.3333   10.0213 H   0  0  0  0  0  0
  -16.4515   -5.7887   11.2486 H   0  0  0  0  0  0
  -16.8257   -7.4354    8.7393 H   0  0  0  0  0  0
  -14.6882   -7.7649   10.9575 H   0  0  0  0  0  0
  -14.8373   -8.8469    9.5315 H   0  0  0  0  0  0
  -12.8119   -5.6439   10.5228 H   0  0  0  0  0  0
  -12.8722   -5.7851    6.3148 H   0  0  0  0  0  0
  -17.6968   -7.3036   12.0919 H   0  0  0  0  0  0
  -18.1315  -10.2899   11.8882 H   0  0  0  0  0  0
  -18.6915   -8.2099   14.1011 H   0  0  0  0  0  0
  -18.9232   -9.9786   14.3118 H   0  0  0  0  0  0
  -16.2943   -8.5755   13.6986 H   0  0  0  0  0  0
  -16.8185   -9.2185   15.2918 H   0  0  0  0  0  0
  -17.2887  -13.0425   14.1838 H   0  0  0  0  0  0
  -18.4450  -11.7355   13.7582 H   0  0  0  0  0  0
  -17.7510  -11.8170   15.4130 H   0  0  0  0  0  0
  -19.8002  -11.4078   11.5137 H   0  0  0  0  0  0
  -22.4718   -9.9900   11.9562 H   0  0  0  0  0  0
  -21.9581   -9.7977    9.5227 H   0  0  0  0  0  0
  -21.8719  -11.5894    9.4273 H   0  0  0  0  0  0
  -25.6862  -10.5314   10.5399 H   0  0  0  0  0  0
  -22.2563  -11.3049   13.8994 H   0  0  0  0  0  0
  -21.5599  -14.0872   13.6463 H   0  0  0  0  0  0
  -23.3257  -12.6714   15.6847 H   0  0  0  0  0  0
  -22.4976  -14.2444   15.9429 H   0  0  0  0  0  0
  -21.0625  -12.3255   16.7819 H   0  0  0  0  0  0
  -24.5821  -16.1256   12.9881 H   0  0  0  0  0  0
  1  2  1  0  0  0
  1114  1  0  0  0
  1115  1  0  0  0
  1116  1  0  0  0
  2  3  1  0  0  0
  2  5  1  0  0  0
  2117  1  0  0  0
  3  4  2  0  0  0
  3 10  1  0  0  0
  5  6  1  0  0  0
  5118  1  0  0  0
  5119  1  0  0  0
  6  7  1  0  0  0
  6120  1  0  0  0
  6121  1  0  0  0
  7  8  1  0  0  0
  7  9  2  0  0  0
  8122  1  0  0  0
 10 11  1  0  0  0
 10123  1  0  0  0
 11 12  1  0  0  0
 11 14  1  0  0  0
 11124  1  0  0  0
 12 13  2  0  0  0
 12 17  1  0  0  0
 14 15  1  0  0  0
 14 16  1  0  0  0
 14125  1  0  0  0
 15126  1  0  0  0
 16127  1  0  0  0
 16128  1  0  0  0
 16129  1  0  0  0
 17 18  1  0  0  0
 17130  1  0  0  0
 18 19  1  0  0  0
 18 21  1  0  0  0
 18131  1  0  0  0
 19 20  2  0  0  0
 19 22  1  0  0  0
 21132  1  0  0  0
 21133  1  0  0  0
 21134  1  0  0  0
 22 23  1  0  0  0
 22135  1  0  0  0
 23 24  1  0  0  0
 23 26  1  0  0  0
 23136  1  0  0  0
 24 25  2  0  0  0
 24 27  1  0  0  0
 26137  1  0  0  0
 26138  1  0  0  0
 26139  1  0  0  0
 27 28  1  0  0  0
 27140  1  0  0  0
 28 29  1  0  0  0
 28 31  1  0  0  0
 28141  1  0  0  0
 29 30  2  0  0  0
 29 32  1  0  0  0
 31142  1  0  0  0
 31143  1  0  0  0
 31144  1  0  0  0
 32 33  1  0  0  0
 32145  1  0  0  0
 33 34  1  0  0  0
 33 36  1  0  0  0
 33146  1  0  0  0
 34 35  2  0  0  0
 34 42  1  0  0  0
 36 37  1  0  0  0
 36147  1  0  0  0
 36148  1  0  0  0
 37 38  2  0  0  0
 37 39  1  0  0  0
 38 40  1  0  0  0
 39 41  2  0  0  0
 39149  1  0  0  0
 40 41  1  0  0  0
 40150  1  0  0  0
 42 43  1  0  0  0
 42151  1  0  0  0
 43 44  1  0  0  0
 43 46  1  0  0  0
 43152  1  0  0  0
 44 45  2  0  0  0
 44 53  1  0  0  0
 46 47  1  0  0  0
 46153  1  0  0  0
 46154  1  0  0  0
 47 48  2  0  0  0
 47 49  1  0  0  0
 48 50  1  0  0  0
 48155  1  0  0  0
 49 51  2  0  0  0
 49156  1  0  0  0
 50 52  2  0  0  0
 50157  1  0  0  0
 51 52  1  0  0  0
 51158  1  0  0  0
 52159  1  0  0  0
 53 54  1  0  0  0
 53160  1  0  0  0
 54 55  1  0  0  0
 54 57  1  0  0  0
 54161  1  0  0  0
 55 56  2  0  0  0
 55 62  1  0  0  0
 57 58  1  0  0  0
 57162  1  0  0  0
 57163  1  0  0  0
 58 59  1  0  0  0
 58164  1  0  0  0
 58165  1  0  0  0
 59 60  1  0  0  0
 59 61  2  0  0  0
 60166  1  0  0  0
 62 63  1  0  0  0
 62167  1  0  0  0
 63 64  1  0  0  0
 63 66  1  0  0  0
 63168  1  0  0  0
 64 65  2  0  0  0
 64 71  1  0  0  0
 66 67  1  0  0  0
 66169  1  0  0  0
 66170  1  0  0  0
 67 68  1  0  0  0
 67171  1  0  0  0
 67172  1  0  0  0
 68 69  2  0  0  0
 68 70  1  0  0  0
 70173  1  0  0  0
 70174  1  0  0  0
 71 72  1  0  0  0
 71175  1  0  0  0
 72 73  1  0  0  0
 72 75  1  0  0  0
 72176  1  0  0  0
 73 74  2  0  0  0
 73 81  1  0  0  0
 75 76  1  0  0  0
 75177  1  0  0  0
 75178  1  0  0  0
 76 77  2  0  0  0
 76 78  1  0  0  0
 77 79  1  0  0  0
 78 80  2  0  0  0
 78179  1  0  0  0
 79 80  1  0  0  0
 79180  1  0  0  0
 81 82  1  0  0  0
 81181  1  0  0  0
 82 83  1  0  0  0
 82 85  1  0  0  0
 82182  1  0  0  0
 83 84  2  0  0  0
 83 91  1  0  0  0
 85 86  1  0  0  0
 85183  1  0  0  0
 85184  1  0  0  0
 86 87  2  0  0  0
 86 88  1  0  0  0
 87 89  1  0  0  0
 88 90  2  0  0  0
 88185  1  0  0  0
 89 90  1  0  0  0
 89186  1  0  0  0
 91 92  1  0  0  0
 91187  1  0  0  0
 92 93  1  0  0  0
 92 95  1  0  0  0
 92188  1  0  0  0
 93 94  2  0  0  0
 93 99  1  0  0  0
 95 96  1  0  0  0
 95189  1  0  0  0
 95190  1  0  0  0
 96 97  1  0  0  0
 96191  1  0  0  0
 96192  1  0  0  0
 97 98  1  0  0  0
 98193  1  0  0  0
 98194  1  0  0  0
 98195  1  0  0  0
 99100  1  0  0  0
 99196  1  0  0  0
100101  1  0  0  0
100103  1  0  0  0
100197  1  0  0  0
101102  2  0  0  0
101107  1  0  0  0
103104  1  0  0  0
103198  1  0  0  0
103199  1  0  0  0
104105  1  0  0  0
104106  2  0  0  0
105200  1  0  0  0
107108  1  0  0  0
107201  1  0  0  0
108109  1  0  0  0
108111  1  0  0  0
108202  1  0  0  0
109110  2  0  0  0
109113  1  0  0  0
111112  1  0  0  0
111203  1  0  0  0
111204  1  0  0  0
112205  1  0  0  0
113206  1  0  0  0
M  CHG  1   1   1
M  END
> <s_m_source_file>
../4o36_ligand.sdf

> <i_m_source_file_index>
1

> <s_epik_input>
W09IXUMoPU8pW0NIMl1bQ0gyXVtDQEhdKFtOSDMrXSlDKD1PKVtOSF1bQ0BASF0oW0NASF0oW09IXSlbQ0gzXSlDKD1PKVtOSF1bQ0BASF0oW0NIM10pQyg9TylbTkhdW0NAQEhdKFtDSDNdKUMoPU8pW05IXVtDQEBIXShbQ0gzXSlDKD1PKVtOSF1bQ0BASF0oW0NIMl1DMT1OW0NIMl1OPVtDSF0xKUMoPU8pW05IXVtDQEBIXShbQ0gyXWMyW2NIXVtjSF1bY0hdW2NIXVtjSF0yKUMoPU8pW05IXVtDQEBIXShbQ0gyXVtDSDJdQyg9TylbT0hdKUMoPU8pW05IXVtDQEBIXShbQ0gyXVtDSDJdQyg9TylbTkgyXSlDKD1PKVtOSF1bQ0BASF0oW0NIMl1DMz1OW0NIMl1OPVtDSF0zKUMoPU8pW05IXVtDQEBIXShbQ0gyXUM0PU5bQ0gyXU49W0NIXTQpQyg9TylbTkhdW0NAQEhdKFtDSDJdW0NIMl1TW0NIM10pQyg9TylbTkhdW0NAQEhdKFtDSDJdQyg9TylbT0hdKUMoPU8pW05IXVtDQEhdKEMoPU8pW09IXSlbQ0gyXVtPSF0=

> <s_epik_cmdline>
J2VwaWtfYXBwJywgJy1pbWFlJywgJ2xpZ2FuZF9wcm8ubWFlJywgJy1vbWFlJywgJ2xpZ2FuZF9wcmVwLm1hZScsICctbXMnLCAnMScsICctcGgnLCAnNycsICctcGh0JywgJzAuNScsICctbnQn

> <s_epik_pKa_notes>
Molecule size exceeds maximum supported for generating protonation states

> <s_epik_Chemistry_Notes>
This compound has an imine and may undergo hydrolysis.

$$$$
