4o37_ligand
                    3D
 Schrodinger Suite 2020-3.
242245  0  0  1  0            999 V2000
  -13.9150    9.3620   19.4840 N   0  3  0  0  0  0
  -13.1050    8.5210   18.5720 C   0  0  2  0  0  0
  -13.5240    7.0140   18.6770 C   0  0  0  0  0  0
  -13.6960    6.4600   19.7780 O   0  0  0  0  0  0
  -11.6240    8.6550   18.9130 C   0  0  0  0  0  0
  -10.7490    8.9210   17.7040 C   0  0  0  0  0  0
   -9.2770    8.6330   18.0320 C   0  0  0  0  0  0
   -8.5450    9.8310   18.6630 C   0  0  0  0  0  0
   -7.0960    9.5660   18.9550 N   0  3  0  0  0  0
  -13.7580    6.4060   17.5300 N   0  0  0  0  0  0
  -13.9920    4.9610   17.4850 C   0  0  2  0  0  0
  -12.6360    4.2830   17.6730 C   0  0  0  0  0  0
  -11.6820    4.6900   17.0460 O   0  0  0  0  0  0
  -14.5510    4.6430   16.1160 C   0  0  0  0  0  0
  -14.8540    3.1700   15.9570 C   0  0  0  0  0  0
  -15.4260    2.8180   14.5570 C   0  0  0  0  0  0
  -14.9370    3.3030   13.5510 O   0  0  0  0  0  0
  -16.4040    2.0340   14.4910 O   0  0  0  0  0  0
  -12.5700    3.2540   18.5150 N   0  0  0  0  0  0
  -11.2760    2.5720   18.6650 C   0  0  2  0  0  0
  -11.0080    1.6700   17.4470 C   0  0  0  0  0  0
  -11.9190    1.3320   16.6820 O   0  0  0  0  0  0
  -11.2910    1.6440   19.8900 C   0  0  2  0  0  0
  -12.2830    0.6250   19.6930 O   0  0  0  0  0  0
  -11.5930    2.4580   21.1630 C   0  0  0  0  0  0
   -9.7810    1.2020   17.3080 N   0  0  0  0  0  0
   -9.4210    0.2420   16.1890 C   0  0  2  0  0  0
  -10.1770   -1.0690   16.3920 C   0  0  0  0  0  0
  -10.7150   -1.6170   15.4110 O   0  0  0  0  0  0
   -7.9200   -0.0160   16.1220 C   0  0  0  0  0  0
  -10.3940   -1.5010   17.6220 N   0  0  0  0  0  0
  -11.1180   -2.7540   17.8140 C   0  0  2  0  0  0
  -12.5550   -2.6090   17.4030 C   0  0  0  0  0  0
  -13.2120   -3.5020   16.8620 O   0  0  0  0  0  0
  -11.0570   -3.2030   19.2800 C   0  0  0  0  0  0
  -13.1550   -1.4450   17.7370 N   0  0  0  0  0  0
  -14.5470   -1.2280   17.3340 C   0  0  2  0  0  0
  -14.7190   -1.0590   15.8210 C   0  0  0  0  0  0
  -15.6770   -1.5830   15.2610 O   0  0  0  0  0  0
  -15.0660    0.0740   18.0470 C   0  0  0  0  0  0
  -13.7410   -0.3890   15.2300 N   0  0  0  0  0  0
  -13.7600   -0.2910   13.7670 C   0  0  2  0  0  0
  -13.8490   -1.6660   13.0790 C   0  0  0  0  0  0
  -14.5540   -1.9760   12.1450 O   0  0  0  0  0  0
  -12.6140    0.5630   13.3340 C   0  0  0  0  0  0
  -12.3980    0.7970   11.8670 C   0  0  0  0  0  0
  -11.9100   -0.2330   11.0250 C   0  0  0  0  0  0
  -11.7290   -0.0290    9.7200 N   0  0  0  0  0  0
  -11.9650    1.2190    9.1240 C   0  0  0  0  0  0
  -12.4350    2.2270    9.9510 C   0  0  0  0  0  0
  -12.6800    2.0460   11.3030 C   0  0  0  0  0  0
  -12.8580   -2.5440   13.6210 N   0  0  0  0  0  0
  -12.8270   -3.9180   13.0100 C   0  0  2  0  0  0
  -14.1750   -4.5900   13.1710 C   0  0  0  0  0  0
  -14.6310   -5.2660   12.2750 O   0  0  0  0  0  0
  -11.7520   -4.7120   13.8110 C   0  0  0  0  0  0
  -11.7320   -6.2060   13.4360 C   0  0  0  0  0  0
  -12.5910   -7.0660   14.0740 C   0  0  0  0  0  0
  -10.8830   -6.6590   12.3950 C   0  0  0  0  0  0
  -12.6490   -8.4270   13.7000 C   0  0  0  0  0  0
  -10.9420   -8.0130   12.0490 C   0  0  0  0  0  0
  -11.8030   -8.8720   12.6760 C   0  0  0  0  0  0
  -14.8120   -4.4600   14.3290 N   0  0  0  0  0  0
  -16.0900   -5.1320   14.5440 C   0  0  2  0  0  0
  -17.1930   -4.6300   13.6120 C   0  0  0  0  0  0
  -17.9670   -5.3620   12.9600 O   0  0  0  0  0  0
  -16.5790   -5.0210   16.0150 C   0  0  0  0  0  0
  -15.6400   -5.7870   16.9400 C   0  0  0  0  0  0
  -15.7670   -5.3360   18.3710 C   0  0  0  0  0  0
  -16.2090   -4.1940   18.6780 O   0  0  0  0  0  0
  -15.2010   -6.0660   19.2190 O   0  0  0  0  0  0
  -17.2540   -3.2930   13.5240 N   0  0  0  0  0  0
  -18.2890   -2.7320   12.6620 C   0  0  2  0  0  0
  -18.0890   -3.1360   11.1550 C   0  0  0  0  0  0
  -19.0450   -3.3570   10.4700 O   0  0  0  0  0  0
  -18.2120   -1.1810   12.8560 C   0  0  0  0  0  0
  -19.1740   -0.4400   11.9540 C   0  0  0  0  0  0
  -19.1520    1.0840   12.2360 C   0  0  0  0  0  0
  -17.8570    1.7340   12.1410 N   0  0  0  0  0  0
  -17.3990    2.3650   11.0760 C   0  0  0  0  0  0
  -18.1620    2.3670    9.9670 N   0  0  0  0  0  0
  -16.2460    3.0290   11.0810 N   0  0  0  0  0  0
  -16.7870   -3.0670   10.7900 N   0  0  0  0  0  0
  -16.4750   -3.5170    9.3770 C   0  0  2  0  0  0
  -16.6000   -4.9940    9.0930 C   0  0  0  0  0  0
  -16.9390   -5.4140    7.9730 O   0  0  0  0  0  0
  -15.0180   -3.1420    9.0230 C   0  0  0  0  0  0
  -14.9520   -1.7130    8.5570 C   0  0  0  0  0  0
  -14.3110   -1.5510    7.3640 C   0  0  0  0  0  0
  -14.2070   -0.3070    6.7970 N   0  0  0  0  0  0
  -14.6190    0.8110    7.4530 C   0  0  0  0  0  0
  -15.2220    0.6490    8.7190 C   0  0  0  0  0  0
  -15.4260   -0.6420    9.3200 C   0  0  0  0  0  0
  -16.2980   -5.8480   10.1390 N   0  0  0  0  0  0
  -16.0740   -7.2920    9.7700 C   0  0  2  0  0  0
  -16.8810   -8.2690   10.5220 C   0  0  0  0  0  0
  -16.7440   -9.4600   10.1170 O   0  0  0  0  0  0
  -14.5810   -7.6080    9.8930 C   0  0  0  0  0  0
  -13.7080   -6.7440    9.0790 C   0  0  0  0  0  0
  -13.7260   -6.7640    7.7030 N   0  0  0  0  0  0
  -12.7970   -5.7950    9.4310 C   0  0  0  0  0  0
  -12.8720   -5.8610    7.2380 C   0  0  0  0  0  0
  -12.2620   -5.2860    8.2730 N   0  0  0  0  0  0
  -17.6420   -7.9470   11.5630 N   0  0  0  0  0  0
  -18.3630   -8.9680   12.2470 C   0  0  2  0  0  0
  -19.7800   -9.0250   11.8670 C   0  0  0  0  0  0
  -20.4830   -7.9500   11.8910 O   0  0  0  0  0  0
  -18.3240   -8.7020   13.7930 C   0  0  0  0  0  0
  -16.9990   -8.9510   14.4770 C   0  0  0  0  0  0
  -16.5790  -10.4110   14.3250 C   0  0  0  0  0  0
  -17.6660  -11.3980   14.6880 C   0  0  0  0  0  0
  -20.3540  -10.1690   11.5480 N   0  0  0  0  0  0
  -21.7890  -10.3280   11.3730 C   0  0  2  0  0  0
  -22.1850  -11.6930   11.8760 C   0  0  0  0  0  0
  -22.4810  -12.5720   11.0620 O   0  0  0  0  0  0
  -22.2130  -10.1200    9.8940 C   0  0  0  0  0  0
  -23.7300  -10.2120    9.6740 C   0  0  0  0  0  0
  -24.4410  -10.0140   10.6250 O   0  0  0  0  0  0
  -24.0600  -10.5210    8.5250 O   0  0  0  0  0  0
  -22.2150  -11.8700   13.1800 N   0  0  0  0  0  0
  -22.4040  -13.1560   13.7890 C   0  0  2  0  0  0
  -23.7010  -13.7410   13.4270 C   0  0  0  0  0  0
  -24.7450  -13.0460   13.4240 O   0  0  0  0  0  0
  -22.2610  -12.9940   15.3270 C   0  0  0  0  0  0
  -21.0280  -12.3990   15.7120 O   0  0  0  0  0  0
  -23.6340  -15.0050   13.1190 O   0  0  0  0  0  0
  -14.9801    9.2580   19.2296 H   0  0  0  0  0  0
  -13.6135   10.4144   19.3769 H   0  0  0  0  0  0
  -13.7527    9.0379   20.5226 H   0  0  0  0  0  0
  -13.2923    8.9164   17.5627 H   0  0  0  0  0  0
  -11.4832    9.4918   19.6129 H   0  0  0  0  0  0
  -11.2692    7.7238   19.3788 H   0  0  0  0  0  0
  -11.0637    8.2718   16.8736 H   0  0  0  0  0  0
  -10.8487    9.9745   17.4038 H   0  0  0  0  0  0
   -9.2169    7.7970   18.7444 H   0  0  0  0  0  0
   -8.7408    8.3675   17.1090 H   0  0  0  0  0  0
   -8.5895   10.6903   17.9777 H   0  0  0  0  0  0
   -9.0282   10.0959   19.6150 H   0  0  0  0  0  0
   -6.6421   10.4627   19.4021 H   0  0  0  0  0  0
   -6.5729    9.3178   18.0197 H   0  0  0  0  0  0
   -7.0116    8.7234   19.6571 H   0  0  0  0  0  0
  -13.7764    6.9953   16.6014 H   0  0  0  0  0  0
  -14.7015    4.6520   18.2668 H   0  0  0  0  0  0
  -15.4841    5.2046   15.9615 H   0  0  0  0  0  0
  -13.8194    4.9286   15.3458 H   0  0  0  0  0  0
  -13.9309    2.5885   16.0974 H   0  0  0  0  0  0
  -15.5971    2.8653   16.7086 H   0  0  0  0  0  0
  -16.8298    1.7670   13.5125 H   0  0  0  0  0  0
  -13.4430    2.9097   19.0889 H   0  0  0  0  0  0
  -10.5402    3.3834   18.7661 H   0  0  0  0  0  0
  -10.3383    1.1055   20.0010 H   0  0  0  0  0  0
  -12.2152   -0.0482   18.8257 H   0  0  0  0  0  0
  -10.8223    3.2318   21.2949 H   0  0  0  0  0  0
  -11.5928    1.7879   22.0353 H   0  0  0  0  0  0
  -12.5794    2.9354   21.0675 H   0  0  0  0  0  0
   -9.0119    1.5230   18.0260 H   0  0  0  0  0  0
   -9.7137    0.7049   15.2350 H   0  0  0  0  0  0
   -7.3904    0.9369   15.9757 H   0  0  0  0  0  0
   -7.7010   -0.6901   15.2808 H   0  0  0  0  0  0
   -7.5856   -0.4810   17.0611 H   0  0  0  0  0  0
  -10.0384   -0.9321   18.4937 H   0  0  0  0  0  0
  -10.6196   -3.4795   17.1543 H   0  0  0  0  0  0
  -10.0062   -3.3110   19.5870 H   0  0  0  0  0  0
  -11.5721   -4.1688   19.3894 H   0  0  0  0  0  0
  -11.5490   -2.4511   19.9145 H   0  0  0  0  0  0
  -12.6181   -0.6679   18.3007 H   0  0  0  0  0  0
  -15.0644   -2.1535   17.6270 H   0  0  0  0  0  0
  -14.9488   -0.0325   19.1355 H   0  0  0  0  0  0
  -16.1285    0.2255   17.8057 H   0  0  0  0  0  0
  -14.4838    0.9398   17.6985 H   0  0  0  0  0  0
  -12.9308    0.0861   15.8026 H   0  0  0  0  0  0
  -14.6792    0.2378   13.4748 H   0  0  0  0  0  0
  -12.7252    1.5703   13.7618 H   0  0  0  0  0  0
  -11.6715    0.1176   13.6852 H   0  0  0  0  0  0
  -11.6786   -1.2090   11.4517 H   0  0  0  0  0  0
  -11.7873    1.3877    8.0619 H   0  0  0  0  0  0
  -12.6209    3.2095    9.5171 H   0  0  0  0  0  0
  -13.0821    2.8560   11.9115 H   0  0  0  0  0  0
  -12.1509   -2.2822   14.4219 H   0  0  0  0  0  0
  -12.6186   -3.8549   11.9318 H   0  0  0  0  0  0
  -10.7562   -4.2941   13.6020 H   0  0  0  0  0  0
  -11.9642   -4.6329   14.8874 H   0  0  0  0  0  0
  -13.2323   -6.6964   14.8741 H   0  0  0  0  0  0
  -10.2070   -5.9752   11.8815 H   0  0  0  0  0  0
  -13.3350   -9.1138   14.1959 H   0  0  0  0  0  0
  -10.2883   -8.3918   11.2633 H   0  0  0  0  0  0
  -11.8310   -9.9189   12.3739 H   0  0  0  0  0  0
  -14.3736   -3.8435   15.1276 H   0  0  0  0  0  0
  -15.8364   -6.1699   14.2823 H   0  0  0  0  0  0
  -16.5980   -3.9632   16.3162 H   0  0  0  0  0  0
  -17.5910   -5.4441   16.0979 H   0  0  0  0  0  0
  -15.8766   -6.8603   16.8956 H   0  0  0  0  0  0
  -14.5996   -5.6274   16.6204 H   0  0  0  0  0  0
  -16.2871   -3.9004   19.7352 H   0  0  0  0  0  0
  -16.5679   -2.6253   14.0657 H   0  0  0  0  0  0
  -19.2473   -3.1600   12.9914 H   0  0  0  0  0  0
  -18.4598   -0.9290   13.8977 H   0  0  0  0  0  0
  -17.1940   -0.8329   12.6268 H   0  0  0  0  0  0
  -18.8927   -0.6051   10.9035 H   0  0  0  0  0  0
  -20.1954   -0.8119   12.1228 H   0  0  0  0  0  0
  -19.8043    1.5996   11.5158 H   0  0  0  0  0  0
  -19.5126    1.2731   13.2579 H   0  0  0  0  0  0
  -17.1719    1.7236   13.0016 H   0  0  0  0  0  0
  -19.1165    1.8204    9.9551 H   0  0  0  0  0  0
  -17.8310    2.9152    9.0726 H   0  0  0  0  0  0
  -15.6170    3.0321   11.9834 H   0  0  0  0  0  0
  -15.9778   -2.7134   11.4459 H   0  0  0  0  0  0
  -17.2556   -3.0180    8.7839 H   0  0  0  0  0  0
  -14.3821   -3.2619    9.9125 H   0  0  0  0  0  0
  -14.6543   -3.8010    8.2208 H   0  0  0  0  0  0
  -13.8792   -2.4150    6.8588 H   0  0  0  0  0  0
  -14.4877    1.8005    7.0151 H   0  0  0  0  0  0
  -15.5457    1.5367    9.2624 H   0  0  0  0  0  0
  -15.9092   -0.7738   10.2881 H   0  0  0  0  0  0
  -16.2175   -5.5297   11.1889 H   0  0  0  0  0  0
  -16.4545   -7.4164    8.7454 H   0  0  0  0  0  0
  -14.2658   -7.4878   10.9400 H   0  0  0  0  0  0
  -14.3977   -8.6439    9.5715 H   0  0  0  0  0  0
  -12.4601   -5.4141   10.4064 H   0  0  0  0  0  0
  -12.6990   -5.6291    6.1871 H   0  0  0  0  0  0
  -17.7177   -6.9018   11.8976 H   0  0  0  0  0  0
  -17.8732   -9.8850   11.8876 H   0  0  0  0  0  0
  -18.5756   -7.6495   13.9904 H   0  0  0  0  0  0
  -19.0535   -9.3539   14.2958 H   0  0  0  0  0  0
  -16.2272   -8.3103   14.0255 H   0  0  0  0  0  0
  -17.0895   -8.7168   15.5480 H   0  0  0  0  0  0
  -16.2972  -10.6045   13.2795 H   0  0  0  0  0  0
  -15.7194  -10.6154   14.9802 H   0  0  0  0  0  0
  -17.2902  -12.4231   14.5538 H   0  0  0  0  0  0
  -18.5381  -11.2389   14.0367 H   0  0  0  0  0  0
  -17.9602  -11.2498   15.7375 H   0  0  0  0  0  0
  -19.6846  -11.0315   11.4138 H   0  0  0  0  0  0
  -22.2655   -9.5548   11.9936 H   0  0  0  0  0  0
  -21.8908   -9.1237    9.5569 H   0  0  0  0  0  0
  -21.7415  -10.8899    9.2656 H   0  0  0  0  0  0
  -25.1247  -10.6134    8.2646 H   0  0  0  0  0  0
  -22.0872  -10.9769   13.8093 H   0  0  0  0  0  0
  -21.6529  -13.8277   13.3477 H   0  0  0  0  0  0
  -23.0724  -12.3548   15.7054 H   0  0  0  0  0  0
  -22.3187  -13.9822   15.8067 H   0  0  0  0  0  0
  -20.8073  -12.2305   16.7764 H   0  0  0  0  0  0
  -24.5451  -15.5499   12.8309 H   0  0  0  0  0  0
  1  2  1  0  0  0
  1127  1  0  0  0
  1128  1  0  0  0
  1129  1  0  0  0
  2  3  1  0  0  0
  2  5  1  0  0  0
  2130  1  0  0  0
  3  4  2  0  0  0
  3 10  1  0  0  0
  5  6  1  0  0  0
  5131  1  0  0  0
  5132  1  0  0  0
  6  7  1  0  0  0
  6133  1  0  0  0
  6134  1  0  0  0
  7  8  1  0  0  0
  7135  1  0  0  0
  7136  1  0  0  0
  8  9  1  0  0  0
  8137  1  0  0  0
  8138  1  0  0  0
  9139  1  0  0  0
  9140  1  0  0  0
  9141  1  0  0  0
 10 11  1  0  0  0
 10142  1  0  0  0
 11 12  1  0  0  0
 11 14  1  0  0  0
 11143  1  0  0  0
 12 13  2  0  0  0
 12 19  1  0  0  0
 14 15  1  0  0  0
 14144  1  0  0  0
 14145  1  0  0  0
 15 16  1  0  0  0
 15146  1  0  0  0
 15147  1  0  0  0
 16 17  2  0  0  0
 16 18  1  0  0  0
 18148  1  0  0  0
 19 20  1  0  0  0
 19149  1  0  0  0
 20 21  1  0  0  0
 20 23  1  0  0  0
 20150  1  0  0  0
 21 22  2  0  0  0
 21 26  1  0  0  0
 23 24  1  0  0  0
 23 25  1  0  0  0
 23151  1  0  0  0
 24152  1  0  0  0
 25153  1  0  0  0
 25154  1  0  0  0
 25155  1  0  0  0
 26 27  1  0  0  0
 26156  1  0  0  0
 27 28  1  0  0  0
 27 30  1  0  0  0
 27157  1  0  0  0
 28 29  2  0  0  0
 28 31  1  0  0  0
 30158  1  0  0  0
 30159  1  0  0  0
 30160  1  0  0  0
 31 32  1  0  0  0
 31161  1  0  0  0
 32 33  1  0  0  0
 32 35  1  0  0  0
 32162  1  0  0  0
 33 34  2  0  0  0
 33 36  1  0  0  0
 35163  1  0  0  0
 35164  1  0  0  0
 35165  1  0  0  0
 36 37  1  0  0  0
 36166  1  0  0  0
 37 38  1  0  0  0
 37 40  1  0  0  0
 37167  1  0  0  0
 38 39  2  0  0  0
 38 41  1  0  0  0
 40168  1  0  0  0
 40169  1  0  0  0
 40170  1  0  0  0
 41 42  1  0  0  0
 41171  1  0  0  0
 42 43  1  0  0  0
 42 45  1  0  0  0
 42172  1  0  0  0
 43 44  2  0  0  0
 43 52  1  0  0  0
 45 46  1  0  0  0
 45173  1  0  0  0
 45174  1  0  0  0
 46 47  2  0  0  0
 46 51  1  0  0  0
 47 48  1  0  0  0
 47175  1  0  0  0
 48 49  2  0  0  0
 49 50  1  0  0  0
 49176  1  0  0  0
 50 51  2  0  0  0
 50177  1  0  0  0
 51178  1  0  0  0
 52 53  1  0  0  0
 52179  1  0  0  0
 53 54  1  0  0  0
 53 56  1  0  0  0
 53180  1  0  0  0
 54 55  2  0  0  0
 54 63  1  0  0  0
 56 57  1  0  0  0
 56181  1  0  0  0
 56182  1  0  0  0
 57 58  2  0  0  0
 57 59  1  0  0  0
 58 60  1  0  0  0
 58183  1  0  0  0
 59 61  2  0  0  0
 59184  1  0  0  0
 60 62  2  0  0  0
 60185  1  0  0  0
 61 62  1  0  0  0
 61186  1  0  0  0
 62187  1  0  0  0
 63 64  1  0  0  0
 63188  1  0  0  0
 64 65  1  0  0  0
 64 67  1  0  0  0
 64189  1  0  0  0
 65 66  2  0  0  0
 65 72  1  0  0  0
 67 68  1  0  0  0
 67190  1  0  0  0
 67191  1  0  0  0
 68 69  1  0  0  0
 68192  1  0  0  0
 68193  1  0  0  0
 69 70  1  0  0  0
 69 71  2  0  0  0
 70194  1  0  0  0
 72 73  1  0  0  0
 72195  1  0  0  0
 73 74  1  0  0  0
 73 76  1  0  0  0
 73196  1  0  0  0
 74 75  2  0  0  0
 74 83  1  0  0  0
 76 77  1  0  0  0
 76197  1  0  0  0
 76198  1  0  0  0
 77 78  1  0  0  0
 77199  1  0  0  0
 77200  1  0  0  0
 78 79  1  0  0  0
 78201  1  0  0  0
 78202  1  0  0  0
 79 80  1  0  0  0
 79203  1  0  0  0
 80 81  1  0  0  0
 80 82  2  0  0  0
 81204  1  0  0  0
 81205  1  0  0  0
 82206  1  0  0  0
 83 84  1  0  0  0
 83207  1  0  0  0
 84 85  1  0  0  0
 84 87  1  0  0  0
 84208  1  0  0  0
 85 86  2  0  0  0
 85 94  1  0  0  0
 87 88  1  0  0  0
 87209  1  0  0  0
 87210  1  0  0  0
 88 89  2  0  0  0
 88 93  1  0  0  0
 89 90  1  0  0  0
 89211  1  0  0  0
 90 91  2  0  0  0
 91 92  1  0  0  0
 91212  1  0  0  0
 92 93  2  0  0  0
 92213  1  0  0  0
 93214  1  0  0  0
 94 95  1  0  0  0
 94215  1  0  0  0
 95 96  1  0  0  0
 95 98  1  0  0  0
 95216  1  0  0  0
 96 97  2  0  0  0
 96104  1  0  0  0
 98 99  1  0  0  0
 98217  1  0  0  0
 98218  1  0  0  0
 99100  2  0  0  0
 99101  1  0  0  0
100102  1  0  0  0
101103  2  0  0  0
101219  1  0  0  0
102103  1  0  0  0
102220  1  0  0  0
104105  1  0  0  0
104221  1  0  0  0
105106  1  0  0  0
105108  1  0  0  0
105222  1  0  0  0
106107  2  0  0  0
106112  1  0  0  0
108109  1  0  0  0
108223  1  0  0  0
108224  1  0  0  0
109110  1  0  0  0
109225  1  0  0  0
109226  1  0  0  0
110111  1  0  0  0
110227  1  0  0  0
110228  1  0  0  0
111229  1  0  0  0
111230  1  0  0  0
111231  1  0  0  0
112113  1  0  0  0
112232  1  0  0  0
113114  1  0  0  0
113116  1  0  0  0
113233  1  0  0  0
114115  2  0  0  0
114120  1  0  0  0
116117  1  0  0  0
116234  1  0  0  0
116235  1  0  0  0
117118  2  0  0  0
117119  1  0  0  0
119236  1  0  0  0
120121  1  0  0  0
120237  1  0  0  0
121122  1  0  0  0
121124  1  0  0  0
121238  1  0  0  0
122123  2  0  0  0
122126  1  0  0  0
124125  1  0  0  0
124239  1  0  0  0
124240  1  0  0  0
125241  1  0  0  0
126242  1  0  0  0
M  CHG  2   1   1   9   1
M  END
> <s_m_source_file>
../4o37_ligand.sdf

> <i_m_source_file_index>
1

> <s_epik_input>
W05IMytdW0NIMl1bQ0gyXVtDSDJdW0NIMl1bQ0BIXShbTkgzK10pQyg9TylbTkhdW0NAQEhdKFtDSDJdW0NIMl1DKD1PKVtPSF0pQyg9TylbTkhdW0NAQEhdKFtDQEhdKFtPSF0pW0NIM10pQyg9TylbTkhdW0NAQEhdKFtDSDNdKUMoPU8pW05IXVtDQEBIXShbQ0gzXSlDKD1PKVtOSF1bQ0BASF0oW0NIM10pQyg9TylbTkhdW0NAQEhdKFtDSDJdYzFbY0hdbltjSF1bY0hdW2NIXTEpQyg9TylbTkhdW0NAQEhdKFtDSDJdYzJbY0hdW2NIXVtjSF1bY0hdW2NIXTIpQyg9TylbTkhdW0NAQEhdKFtDSDJdW0NIMl1DKD1PKVtPSF0pQyg9TylbTkhdW0NAQEhdKFtDSDJdW0NIMl1bQ0gyXVtOSF0vQyhbTkgyXSk9TlxbSF0pQyg9TylbTkhdW0NAQEhdKFtDSDJdYzNbY0hdbltjSF1bY0hdW2NIXTMpQyg9TylbTkhdW0NAQEhdKFtDSDJdQzQ9TltDSDJdTj1bQ0hdNClDKD1PKVtOSF1bQ0BASF0oW0NIMl1bQ0gyXVtDSDJdW0NIM10pQyg9TylbTkhdW0NAQEhdKFtDSDJdQyg9TylbT0hdKUMoPU8pW05IXVtDQEhdKEMoPU8pW09IXSlbQ0gyXVtPSF0=

> <s_epik_cmdline>
J2VwaWtfYXBwJywgJy1pbWFlJywgJ2xpZ2FuZF9wcm8ubWFlJywgJy1vbWFlJywgJ2xpZ2FuZF9wcmVwLm1hZScsICctbXMnLCAnMScsICctcGgnLCAnNycsICctcGh0JywgJzAuNScsICctbnQn

> <s_epik_pKa_notes>
Molecule size exceeds maximum supported for generating protonation states

> <s_epik_Chemistry_Notes>
This compound has an imine and may undergo hydrolysis.

$$$$
