4o3a_ligand
                    3D
 Schrodinger Suite 2020-3.
 15 14  0  0  1  0            999 V2000
  -50.7870   12.4060   -5.6400 N   0  3  0  0  0  0
  -51.5860   13.6230   -5.8390 C   0  0  2  0  0  0
  -51.7550   13.9450   -7.3210 C   0  0  0  0  0  0
  -51.5000   13.0550   -8.1420 O   0  0  0  0  0  0
  -51.0070   14.8220   -5.0700 C   0  0  0  0  0  0
  -52.0470   15.4500   -4.1090 C   0  0  0  0  0  0
  -52.8200   16.3040   -4.5630 O   0  0  0  0  0  0
  -52.1230   15.0850   -2.9100 O   0  5  0  0  0  0
  -52.1770   15.0610   -7.6920 O   0  5  0  0  0  0
  -51.2356   11.5763   -6.2060 H   0  0  0  0  0  0
  -50.7669   12.1514   -4.5700 H   0  0  0  0  0  0
  -49.7604   12.5793   -5.9950 H   0  0  0  0  0  0
  -52.5722   13.3750   -5.4197 H   0  0  0  0  0  0
  -50.1429   14.4928   -4.4742 H   0  0  0  0  0  0
  -50.6870   15.5955   -5.7837 H   0  0  0  0  0  0
  1  2  1  0  0  0
  1 10  1  0  0  0
  1 11  1  0  0  0
  1 12  1  0  0  0
  2  3  1  0  0  0
  2  5  1  0  0  0
  2 13  1  0  0  0
  3  4  2  0  0  0
  3  9  1  0  0  0
  5  6  1  0  0  0
  5 14  1  0  0  0
  5 15  1  0  0  0
  6  7  2  0  0  0
  6  8  1  0  0  0
M  CHG  3   1   1   8  -1   9  -1
M  END
> <s_m_source_file>
../4o3a_ligand.sdf

> <i_m_source_file_index>
1

> <s_epik_input>
Tz1DKFtPSF0pW0NAQEhdKFtOSDMrXSlbQ0gyXUMoPU8pW09IXQ==

> <s_epik_cmdline>
J2VwaWtfYXBwJywgJy1pbWFlJywgJ2xpZ2FuZF9wcm8ubWFlJywgJy1vbWFlJywgJ2xpZ2FuZF9wcmVwLm1hZScsICctbXMnLCAnMScsICctcGgnLCAnNycsICctcGh0JywgJzAuNScsICctbnQn

> <r_lp_tautomer_probability>
1

> <r_epik_Ionization_Penalty>
  0.0054

> <r_epik_Ionization_Penalty_Charging>
  0.0054

> <r_epik_Ionization_Penalty_Neutral>
  0.0000

> <r_epik_State_Penalty>
 -0.0000

> <r_epik_Charging_Adjusted_Penalty>
0.00544610570333974

> <i_epik_Tot_Q>
-1

> <i_epik_Tot_abs_Q>
3

$$$$
