4o3f_ligand
                    3D
 Schrodinger Suite 2020-3.
 54 57  0  0  1  0            999 V2000
  -21.7650   -1.4380  -24.6600 C   0  0  0  0  0  0
  -22.5960   -0.6010  -25.5600 C   0  0  0  0  0  0
  -21.7630   -0.6800  -26.7710 C   0  0  0  0  0  0
  -21.6180   -2.0740  -26.8470 O   0  0  0  0  0  0
  -21.1410   -2.4090  -25.5980 C   0  0  1  0  0  0
  -19.6590   -2.4220  -25.6520 C   0  0  0  0  0  0
  -19.0320   -1.5580  -25.1140 O   0  0  0  0  0  0
  -18.9850   -3.5020  -26.3660 N   0  0  0  0  0  0
  -17.5960   -3.5710  -26.4180 C   0  0  0  0  0  0
  -17.2110   -4.9920  -26.0930 C   0  0  0  0  0  0
  -19.7200   -4.5550  -26.9790 C   0  0  0  0  0  0
  -18.8390   -5.4570  -27.8070 C   0  0  0  0  0  0
  -17.6990   -5.8650  -27.0790 N   0  0  0  0  0  0
  -17.1010   -7.1490  -27.2130 C   0  0  0  0  0  0
  -16.0960   -7.2810  -26.5060 N   0  0  0  0  0  0
  -17.5630   -8.0200  -27.9890 N   0  3  0  0  0  0
  -17.0170   -9.2190  -28.1000 C   0  0  0  0  0  0
  -17.5080  -10.1830  -28.9320 C   0  0  0  0  0  0
  -16.8520  -11.4050  -29.0070 C   0  0  0  0  0  0
  -17.2040  -12.4960  -29.7550 O   0  0  0  0  0  0
  -18.3120  -12.4230  -30.5330 C   0  0  0  0  0  0
  -15.7380  -11.6350  -28.2550 C   0  0  0  0  0  0
  -15.2410  -12.8610  -28.4340 O   0  0  0  0  0  0
  -14.0080  -13.1100  -27.9690 C   0  0  0  0  0  0
  -15.2370  -10.6930  -27.4210 C   0  0  0  0  0  0
  -15.8780   -9.4780  -27.3400 C   0  0  0  0  0  0
  -15.4460   -8.3930  -26.5170 C   0  0  0  0  0  0
  -14.3210   -8.5590  -25.7110 N   0  0  0  0  0  0
  -21.0246   -0.8043  -24.1499 H   0  0  0  0  0  0
  -22.4093   -1.9236  -23.9123 H   0  0  0  0  0  0
  -23.5942   -1.0517  -25.6619 H   0  0  0  0  0  0
  -22.6916    0.4096  -25.1363 H   0  0  0  0  0  0
  -22.3037   -0.2321  -27.6178 H   0  0  0  0  0  0
  -20.8229   -0.1332  -26.6057 H   0  0  0  0  0  0
  -21.4411   -3.4275  -25.3105 H   0  0  0  0  0  0
  -17.2528   -3.2969  -27.4265 H   0  0  0  0  0  0
  -17.1665   -2.8747  -25.6827 H   0  0  0  0  0  0
  -16.1149   -5.0743  -26.0502 H   0  0  0  0  0  0
  -17.6381   -5.2741  -25.1194 H   0  0  0  0  0  0
  -20.2014   -5.1668  -26.2019 H   0  0  0  0  0  0
  -20.4897   -4.1289  -27.6393 H   0  0  0  0  0  0
  -19.4057   -6.3522  -28.1027 H   0  0  0  0  0  0
  -18.5068   -4.9193  -28.7073 H   0  0  0  0  0  0
  -18.4011   -9.9968  -29.5284 H   0  0  0  0  0  0
  -18.4510  -13.3766  -31.0634 H   0  0  0  0  0  0
  -18.1933  -11.6103  -31.2647 H   0  0  0  0  0  0
  -19.1905  -12.2229  -29.9020 H   0  0  0  0  0  0
  -13.7371  -14.1532  -28.1886 H   0  0  0  0  0  0
  -13.9864  -12.9467  -26.8814 H   0  0  0  0  0  0
  -13.2892  -12.4343  -28.4556 H   0  0  0  0  0  0
  -14.3453  -10.8929  -26.8268 H   0  0  0  0  0  0
  -13.9757   -7.7331  -25.0717 H   0  0  0  0  0  0
  -13.7784   -9.5159  -25.7142 H   0  0  0  0  0  0
  -18.4481   -7.7962  -28.6026 H   0  0  0  0  0  0
  1  2  1  0  0  0
  1  5  1  0  0  0
  1 29  1  0  0  0
  1 30  1  0  0  0
  2  3  1  0  0  0
  2 31  1  0  0  0
  2 32  1  0  0  0
  3  4  1  0  0  0
  3 33  1  0  0  0
  3 34  1  0  0  0
  4  5  1  0  0  0
  5  6  1  0  0  0
  5 35  1  0  0  0
  6  7  2  0  0  0
  6  8  1  0  0  0
  8  9  1  0  0  0
  8 11  1  0  0  0
  9 10  1  0  0  0
  9 36  1  0  0  0
  9 37  1  0  0  0
 10 13  1  0  0  0
 10 38  1  0  0  0
 10 39  1  0  0  0
 11 12  1  0  0  0
 11 40  1  0  0  0
 11 41  1  0  0  0
 12 13  1  0  0  0
 12 42  1  0  0  0
 12 43  1  0  0  0
 13 14  1  0  0  0
 14 15  2  0  0  0
 14 16  1  0  0  0
 15 27  1  0  0  0
 16 17  2  0  0  0
 16 54  1  0  0  0
 17 18  1  0  0  0
 17 26  1  0  0  0
 18 19  2  0  0  0
 18 44  1  0  0  0
 19 20  1  0  0  0
 19 22  1  0  0  0
 20 21  1  0  0  0
 21 45  1  0  0  0
 21 46  1  0  0  0
 21 47  1  0  0  0
 22 23  1  0  0  0
 22 25  2  0  0  0
 23 24  1  0  0  0
 24 48  1  0  0  0
 24 49  1  0  0  0
 24 50  1  0  0  0
 25 26  1  0  0  0
 25 51  1  0  0  0
 26 27  2  0  0  0
 27 28  1  0  0  0
 28 52  1  0  0  0
 28 53  1  0  0  0
M  CHG  1  16   1
M  END
> <s_m_source_file>
../4o3f_ligand.sdf

> <i_m_source_file_index>
1

> <s_epik_input>
TzFbQ0gyXVtDSDJdW0NIMl1bQ0BASF0xQyg9TylOMltDSDJdW0NIMl1OKFtDSDJdW0NIMl0yKWMobjMpbmMoW05IMl0pYyhjMzQpW2NIXWMoT1tDSDNdKWMoW2NIXTQpT1tDSDNd

> <s_epik_cmdline>
J2VwaWtfYXBwJywgJy1pbWFlJywgJ2xpZ2FuZF9wcm8ubWFlJywgJy1vbWFlJywgJ2xpZ2FuZF9wcmVwLm1hZScsICctbXMnLCAnMScsICctcGgnLCAnNycsICctcGh0JywgJzAuNScsICctbnQn

> <r_lp_tautomer_probability>
0.993507999998615

> <r_epik_Ionization_Penalty>
  0.4710

> <r_epik_Ionization_Penalty_Charging>
  0.4709

> <r_epik_Ionization_Penalty_Neutral>
  0.0000

> <r_epik_State_Penalty>
  0.1223

> <r_epik_Charging_Adjusted_Penalty>
0.593273030524644

> <i_epik_Tot_Q>
1

> <i_epik_Tot_abs_Q>
1

$$$$
