4o3u_ligand
                    3D
 Schrodinger Suite 2020-3.
219223  0  0  1  0            999 V2000
   28.9630    4.6160  -39.2540 N   0  3  0  0  0  0
   29.8390    5.0580  -40.3240 C   0  0  2  0  0  0
   30.8770    6.0720  -39.8170 C   0  0  0  0  0  0
   30.5410    7.2380  -39.6050 O   0  0  0  0  0  0
   29.0140    5.6200  -41.5300 C   0  0  2  0  0  0
   27.9510    4.6200  -42.0970 C   0  0  0  0  0  0
   29.9130    6.1930  -42.6170 C   0  0  0  0  0  0
   28.4610    3.3140  -42.7380 C   0  0  0  0  0  0
   32.1380    5.6500  -39.6510 N   0  0  0  0  0  0
   33.2110    6.5830  -39.2720 C   0  0  2  0  0  0
   33.6680    7.3270  -40.5720 C   0  0  0  0  0  0
   33.8500    6.6920  -41.6060 O   0  0  0  0  0  0
   34.3870    5.8510  -38.5680 C   0  0  2  0  0  0
   33.9560    5.3080  -37.2080 C   0  0  0  0  0  0
   35.6140    6.7550  -38.4260 C   0  0  0  0  0  0
   34.4460    4.0210  -36.9540 C   0  0  0  0  0  0
   33.7790    8.6480  -40.5080 N   0  0  0  0  0  0
   34.2440    9.4700  -41.6170 C   0  0  0  0  0  0
   33.3110    9.6250  -42.7910 C   0  0  0  0  0  0
   33.7570    9.9030  -43.9020 O   0  0  0  0  0  0
   32.0250    9.4550  -42.5550 N   0  0  0  0  0  0
   31.0280    9.6080  -43.6040 C   0  0  0  0  0  0
   30.3760   10.9720  -43.5720 C   0  0  0  0  0  0
   30.6300   11.7730  -42.6640 O   0  0  0  0  0  0
   29.5590   11.2500  -44.5920 N   0  0  0  0  0  0
   28.8080   12.4930  -44.7200 C   0  0  2  0  0  0
   27.3340   12.1390  -44.4100 C   0  0  0  0  0  0
   27.0040   10.9530  -44.3940 O   0  0  0  0  0  0
   28.9630   13.1440  -46.1080 C   0  0  0  0  0  0
   30.1120   12.3180  -47.2650 S   0  0  0  0  0  0
   26.4240   13.1070  -44.1560 N   0  0  0  0  0  0
   25.0230   12.7410  -43.9240 C   0  0  2  0  0  0
   24.3340   12.2950  -45.2180 C   0  0  0  0  0  0
   24.6950   12.7480  -46.2980 O   0  0  0  0  0  0
   24.4210   14.0310  -43.3670 C   0  0  0  0  0  0
   25.5930   14.9170  -43.0650 C   0  0  0  0  0  0
   26.5820   14.5670  -44.0870 C   0  0  0  0  0  0
   23.3470   11.4060  -45.1020 N   0  0  0  0  0  0
   22.6220   10.8230  -46.2320 C   0  0  2  0  0  0
   22.3080   11.7750  -47.4020 C   0  0  0  0  0  0
   22.5200   11.3920  -48.5490 O   0  0  0  0  0  0
   21.3960    9.9960  -45.7720 C   0  0  0  0  0  0
   20.2000   10.8360  -45.4210 C   0  0  0  0  0  0
   19.2410   11.1420  -46.3740 C   0  0  0  0  0  0
   20.0580   11.3870  -44.1540 C   0  0  0  0  0  0
   18.1820   11.9970  -46.0880 C   0  0  0  0  0  0
   18.9820   12.2180  -43.8410 C   0  0  0  0  0  0
   18.0450   12.5200  -44.8160 C   0  0  0  0  0  0
   16.9500   13.3010  -44.5420 O   0  0  0  0  0  0
   21.8530   13.0220  -47.1020 N   0  0  0  0  0  0
   21.4600   14.0660  -48.0690 C   0  0  2  0  0  0
   22.6190   14.7410  -48.8780 C   0  0  0  0  0  0
   22.3640   15.5380  -49.7840 O   0  0  0  0  0  0
   20.5600   15.1020  -47.3840 C   0  0  0  0  0  0
   21.1600   15.7090  -46.1580 C   0  0  0  0  0  0
   20.8510   15.4210  -44.8590 C   0  0  0  0  0  0
   22.2100   16.6870  -46.1140 C   0  0  0  0  0  0
   21.6490   16.1610  -44.0020 N   0  0  0  0  0  0
   22.4880   16.9460  -44.7480 C   0  0  0  0  0  0
   22.9430   17.3740  -47.1010 C   0  0  0  0  0  0
   23.4560   17.8640  -44.3490 C   0  0  0  0  0  0
   23.9130   18.2720  -46.7060 C   0  0  0  0  0  0
   24.1430   18.5340  -45.3470 C   0  0  0  0  0  0
   23.8750   14.4270  -48.5440 N   0  0  0  0  0  0
   25.0620   14.9720  -49.2010 C   0  0  2  0  0  0
   25.3860   14.1370  -50.4410 C   0  0  0  0  0  0
   25.3530   12.9060  -50.3680 O   0  0  0  0  0  0
   26.2490   14.9390  -48.2160 C   0  0  0  0  0  0
   27.4030   15.8350  -48.5860 C   0  0  0  0  0  0
   27.8350   16.8440  -47.1500 S   0  0  0  0  0  0
   29.5860   16.6510  -47.0850 C   0  0  0  0  0  0
   25.7250   14.8000  -51.5650 N   0  0  0  0  0  0
   26.1130   14.1370  -52.8170 C   0  0  2  0  0  0
   27.4950   13.5300  -52.6720 C   0  0  0  0  0  0
   28.2520   13.9430  -51.7820 O   0  0  0  0  0  0
   26.0820   15.1120  -54.0020 C   0  0  0  0  0  0
   24.6900   15.6040  -54.3810 C   0  0  0  0  0  0
   23.8770   15.8830  -53.4550 O   0  0  0  0  0  0
   24.4230   15.7560  -55.6000 O   0  0  0  0  0  0
   27.8180   12.5240  -53.5240 N   0  0  0  0  0  0
   29.1070   11.8380  -53.4610 C   0  0  2  0  0  0
   30.2350   12.8310  -53.6640 C   0  0  0  0  0  0
   31.1710   12.9090  -52.8580 O   0  0  0  0  0  0
   29.1840   10.7260  -54.5060 C   0  0  0  0  0  0
   30.4710    9.9310  -54.4010 C   0  0  0  0  0  0
   30.6830    8.9530  -55.5280 C   0  0  0  0  0  0
   31.9640    8.2550  -55.3770 N   0  0  0  0  0  0
   32.1380    7.1390  -54.6690 C   0  0  0  0  0  0
   31.1080    6.5670  -54.0530 N   0  0  0  0  0  0
   33.3330    6.5690  -54.6020 N   0  0  0  0  0  0
   30.0900   13.6400  -54.7140 N   0  0  0  0  0  0
   31.0750   14.6210  -55.1230 C   0  0  2  0  0  0
   31.4020   15.7210  -54.1230 C   0  0  0  0  0  0
   32.4410   16.3570  -54.2810 O   0  0  0  0  0  0
   30.8680   15.0840  -56.5740 C   0  0  0  0  0  0
   31.2460   14.0020  -57.5950 C   0  0  0  0  0  0
   30.3090   12.8130  -57.7870 C   0  0  0  0  0  0
   29.0880   12.9520  -57.5360 O   0  0  0  0  0  0
   30.8000   11.7420  -58.2100 O   0  0  0  0  0  0
   30.6090   15.8930  -53.0460 N   0  0  0  0  0  0
   31.0540   16.8610  -52.0530 C   0  0  2  0  0  0
   31.6080   16.2400  -50.7470 C   0  0  0  0  0  0
   31.4370   16.7850  -49.6600 O   0  0  0  0  0  0
   30.1720   18.1110  -51.9210 C   0  0  0  0  0  0
   28.8840   17.9800  -51.1320 C   0  0  0  0  0  0
   28.4980   19.2650  -50.4130 C   0  0  0  0  0  0
   29.3690   19.8650  -49.7370 O   0  0  0  0  0  0
   27.3140   19.6590  -50.5060 O   0  0  0  0  0  0
   32.3460   15.1110  -50.9000 N   0  0  0  0  0  0
   33.0470   14.3820  -49.8390 C   0  0  2  0  0  0
   34.4650   13.9350  -50.2750 C   0  0  0  0  0  0
   34.9030   14.1180  -51.4180 O   0  0  0  0  0  0
   32.2210   13.1990  -49.3480 C   0  0  0  0  0  0
   30.5550   13.6310  -48.7760 S   0  0  0  0  0  0
   35.2032   13.3611  -49.4305 O   0  0  0  0  0  0
   29.5681    4.2270  -38.4218 H   0  0  0  0  0  0
   28.2997    3.8220  -39.6276 H   0  0  0  0  0  0
   28.3575    5.4642  -38.9019 H   0  0  0  0  0  0
   30.3733    4.1441  -40.6230 H   0  0  0  0  0  0
   28.4420    6.4759  -41.1423 H   0  0  0  0  0  0
   27.2802    4.2993  -41.2863 H   0  0  0  0  0  0
   27.3640    5.1161  -42.8839 H   0  0  0  0  0  0
   30.6380    6.8863  -42.1655 H   0  0  0  0  0  0
   29.2995    6.7324  -43.3536 H   0  0  0  0  0  0
   30.4510    5.3742  -43.1172 H   0  0  0  0  0  0
   27.6048    2.7184  -43.0874 H   0  0  0  0  0  0
   29.0292    2.7375  -41.9931 H   0  0  0  0  0  0
   29.1129    3.5543  -43.5908 H   0  0  0  0  0  0
   32.3642    4.5843  -39.8034 H   0  0  0  0  0  0
   32.7872    7.2800  -38.5341 H   0  0  0  0  0  0
   34.6844    4.9957  -39.1925 H   0  0  0  0  0  0
   34.3291    5.9710  -36.4135 H   0  0  0  0  0  0
   32.8579    5.2630  -37.1624 H   0  0  0  0  0  0
   35.9065    7.1343  -39.4162 H   0  0  0  0  0  0
   36.4455    6.1792  -37.9936 H   0  0  0  0  0  0
   35.3716    7.6011  -37.7662 H   0  0  0  0  0  0
   34.1028    3.6868  -35.9638 H   0  0  0  0  0  0
   35.5457    4.0366  -36.9749 H   0  0  0  0  0  0
   34.0744    3.3287  -37.7238 H   0  0  0  0  0  0
   33.4978    9.1189  -39.5545 H   0  0  0  0  0  0
   34.4413   10.4912  -41.2589 H   0  0  0  0  0  0
   35.1692    9.0407  -42.0289 H   0  0  0  0  0  0
   31.7128    9.1909  -41.5338 H   0  0  0  0  0  0
   31.5064    9.4792  -44.5861 H   0  0  0  0  0  0
   30.2422    8.8489  -43.4766 H   0  0  0  0  0  0
   29.4707   10.4720  -45.3646 H   0  0  0  0  0  0
   29.2371   13.2077  -44.0023 H   0  0  0  0  0  0
   27.9866   13.1650  -46.6142 H   0  0  0  0  0  0
   29.3376   14.1716  -45.9913 H   0  0  0  0  0  0
   24.9451   11.8845  -43.2381 H   0  0  0  0  0  0
   23.7584   14.4816  -44.1206 H   0  0  0  0  0  0
   23.8428   13.8037  -42.4593 H   0  0  0  0  0  0
   25.2837   15.9704  -43.1340 H   0  0  0  0  0  0
   25.9584   14.7080  -42.0487 H   0  0  0  0  0  0
   27.6145   14.8107  -43.7961 H   0  0  0  0  0  0
   26.3652   15.0062  -45.0719 H   0  0  0  0  0  0
   23.0879   11.1151  -44.0733 H   0  0  0  0  0  0
   23.3959   10.1507  -46.6308 H   0  0  0  0  0  0
   21.0916    9.3123  -46.5781 H   0  0  0  0  0  0
   21.6615    9.4132  -44.8777 H   0  0  0  0  0  0
   19.3185   10.7032  -47.3687 H   0  0  0  0  0  0
   20.8021   11.1657  -43.3889 H   0  0  0  0  0  0
   17.4620   12.2539  -46.8649 H   0  0  0  0  0  0
   18.8791   12.6270  -42.8359 H   0  0  0  0  0  0
   16.2217   13.5249  -45.3354 H   0  0  0  0  0  0
   21.7906   13.2211  -46.0220 H   0  0  0  0  0  0
   20.8895   13.4824  -48.8066 H   0  0  0  0  0  0
   20.3485   15.9238  -48.0839 H   0  0  0  0  0  0
   19.6158   14.6251  -47.0823 H   0  0  0  0  0  0
   20.0867   14.7112  -44.5424 H   0  0  0  0  0  0
   22.7473   17.1992  -48.1589 H   0  0  0  0  0  0
   23.6642   18.0475  -43.2949 H   0  0  0  0  0  0
   24.5092   18.7853  -47.4605 H   0  0  0  0  0  0
   24.8824   19.2852  -45.0694 H   0  0  0  0  0  0
   23.9845   13.7095  -47.7174 H   0  0  0  0  0  0
   24.8251   16.0052  -49.4949 H   0  0  0  0  0  0
   25.9077   15.2570  -47.2198 H   0  0  0  0  0  0
   26.6485   13.9158  -48.1574 H   0  0  0  0  0  0
   28.2646   15.2192  -48.8833 H   0  0  0  0  0  0
   27.1093   16.4838  -49.4243 H   0  0  0  0  0  0
   29.9871   17.2263  -46.2376 H   0  0  0  0  0  0
   30.0305   17.0193  -48.0214 H   0  0  0  0  0  0
   29.8330   15.5869  -46.9555 H   0  0  0  0  0  0
   25.6998   15.8983  -51.5091 H   0  0  0  0  0  0
   25.3705   13.3421  -52.9805 H   0  0  0  0  0  0
   26.6805   16.0026  -53.7598 H   0  0  0  0  0  0
   26.5003   14.6202  -54.8926 H   0  0  0  0  0  0
   22.8658   16.2402  -53.7000 H   0  0  0  0  0  0
   27.0743   12.2291  -54.2790 H   0  0  0  0  0  0
   29.1716   11.4021  -52.4531 H   0  0  0  0  0  0
   28.3414   10.0328  -54.3665 H   0  0  0  0  0  0
   29.1345   11.1653  -55.5133 H   0  0  0  0  0  0
   31.3287   10.6197  -54.4041 H   0  0  0  0  0  0
   30.4691    9.3520  -53.4657 H   0  0  0  0  0  0
   29.8718    8.2101  -55.5262 H   0  0  0  0  0  0
   30.6838    9.4927  -56.4865 H   0  0  0  0  0  0
   32.8664    8.6494  -55.8671 H   0  0  0  0  0  0
   30.1116    7.0306  -54.1015 H   0  0  0  0  0  0
   31.2522    5.6301  -53.4949 H   0  0  0  0  0  0
   34.1928    7.0329  -55.1076 H   0  0  0  0  0  0
   29.1546   13.5299  -55.2822 H   0  0  0  0  0  0
   31.9869   14.0074  -55.0787 H   0  0  0  0  0  0
   29.8099   15.3416  -56.7292 H   0  0  0  0  0  0
   31.4931   15.9678  -56.7696 H   0  0  0  0  0  0
   31.3295   14.4541  -58.5943 H   0  0  0  0  0  0
   32.2101   13.5533  -57.3138 H   0  0  0  0  0  0
   28.3992   12.1048  -57.6692 H   0  0  0  0  0  0
   29.6672   15.3447  -52.8962 H   0  0  0  0  0  0
   31.9451   17.2518  -52.5660 H   0  0  0  0  0  0
   30.7395   18.9089  -51.4198 H   0  0  0  0  0  0
   29.8663   18.4514  -52.9213 H   0  0  0  0  0  0
   28.0617   17.7169  -51.8136 H   0  0  0  0  0  0
   28.9975   17.1920  -50.3730 H   0  0  0  0  0  0
   29.1114   20.7952  -49.2094 H   0  0  0  0  0  0
   32.3909   14.7495  -51.9379 H   0  0  0  0  0  0
   33.1355   15.1135  -49.0223 H   0  0  0  0  0  0
   32.1004   12.4720  -50.1646 H   0  0  0  0  0  0
   32.7350   12.7187  -48.5024 H   0  0  0  0  0  0
   36.2141   13.0343  -49.7157 H   0  0  0  0  0  0
  1  2  1  0  0  0
  1116  1  0  0  0
  1117  1  0  0  0
  1118  1  0  0  0
  2  3  1  0  0  0
  2  5  1  0  0  0
  2119  1  0  0  0
  3  4  2  0  0  0
  3  9  1  0  0  0
  5  6  1  0  0  0
  5  7  1  0  0  0
  5120  1  0  0  0
  6  8  1  0  0  0
  6121  1  0  0  0
  6122  1  0  0  0
  7123  1  0  0  0
  7124  1  0  0  0
  7125  1  0  0  0
  8126  1  0  0  0
  8127  1  0  0  0
  8128  1  0  0  0
  9 10  1  0  0  0
  9129  1  0  0  0
 10 11  1  0  0  0
 10 13  1  0  0  0
 10130  1  0  0  0
 11 12  2  0  0  0
 11 17  1  0  0  0
 13 14  1  0  0  0
 13 15  1  0  0  0
 13131  1  0  0  0
 14 16  1  0  0  0
 14132  1  0  0  0
 14133  1  0  0  0
 15134  1  0  0  0
 15135  1  0  0  0
 15136  1  0  0  0
 16137  1  0  0  0
 16138  1  0  0  0
 16139  1  0  0  0
 17 18  1  0  0  0
 17140  1  0  0  0
 18 19  1  0  0  0
 18141  1  0  0  0
 18142  1  0  0  0
 19 20  2  0  0  0
 19 21  1  0  0  0
 21 22  1  0  0  0
 21143  1  0  0  0
 22 23  1  0  0  0
 22144  1  0  0  0
 22145  1  0  0  0
 23 24  2  0  0  0
 23 25  1  0  0  0
 25 26  1  0  0  0
 25146  1  0  0  0
 26 27  1  0  0  0
 26 29  1  0  0  0
 26147  1  0  0  0
 27 28  2  0  0  0
 27 31  1  0  0  0
 29 30  1  0  0  0
 29148  1  0  0  0
 29149  1  0  0  0
 30114  1  0  0  0
 31 32  1  0  0  0
 31 37  1  0  0  0
 32 33  1  0  0  0
 32 35  1  0  0  0
 32150  1  0  0  0
 33 34  2  0  0  0
 33 38  1  0  0  0
 35 36  1  0  0  0
 35151  1  0  0  0
 35152  1  0  0  0
 36 37  1  0  0  0
 36153  1  0  0  0
 36154  1  0  0  0
 37155  1  0  0  0
 37156  1  0  0  0
 38 39  1  0  0  0
 38157  1  0  0  0
 39 40  1  0  0  0
 39 42  1  0  0  0
 39158  1  0  0  0
 40 41  2  0  0  0
 40 50  1  0  0  0
 42 43  1  0  0  0
 42159  1  0  0  0
 42160  1  0  0  0
 43 44  2  0  0  0
 43 45  1  0  0  0
 44 46  1  0  0  0
 44161  1  0  0  0
 45 47  2  0  0  0
 45162  1  0  0  0
 46 48  2  0  0  0
 46163  1  0  0  0
 47 48  1  0  0  0
 47164  1  0  0  0
 48 49  1  0  0  0
 49165  1  0  0  0
 50 51  1  0  0  0
 50166  1  0  0  0
 51 52  1  0  0  0
 51 54  1  0  0  0
 51167  1  0  0  0
 52 53  2  0  0  0
 52 64  1  0  0  0
 54 55  1  0  0  0
 54168  1  0  0  0
 54169  1  0  0  0
 55 56  2  0  0  0
 55 57  1  0  0  0
 56 58  1  0  0  0
 56170  1  0  0  0
 57 59  2  0  0  0
 57 60  1  0  0  0
 58 59  1  0  0  0
 59 61  1  0  0  0
 60 62  2  0  0  0
 60171  1  0  0  0
 61 63  2  0  0  0
 61172  1  0  0  0
 62 63  1  0  0  0
 62173  1  0  0  0
 63174  1  0  0  0
 64 65  1  0  0  0
 64175  1  0  0  0
 65 66  1  0  0  0
 65 68  1  0  0  0
 65176  1  0  0  0
 66 67  2  0  0  0
 66 72  1  0  0  0
 68 69  1  0  0  0
 68177  1  0  0  0
 68178  1  0  0  0
 69 70  1  0  0  0
 69179  1  0  0  0
 69180  1  0  0  0
 70 71  1  0  0  0
 71181  1  0  0  0
 71182  1  0  0  0
 71183  1  0  0  0
 72 73  1  0  0  0
 72184  1  0  0  0
 73 74  1  0  0  0
 73 76  1  0  0  0
 73185  1  0  0  0
 74 75  2  0  0  0
 74 80  1  0  0  0
 76 77  1  0  0  0
 76186  1  0  0  0
 76187  1  0  0  0
 77 78  1  0  0  0
 77 79  2  0  0  0
 78188  1  0  0  0
 80 81  1  0  0  0
 80189  1  0  0  0
 81 82  1  0  0  0
 81 84  1  0  0  0
 81190  1  0  0  0
 82 83  2  0  0  0
 82 91  1  0  0  0
 84 85  1  0  0  0
 84191  1  0  0  0
 84192  1  0  0  0
 85 86  1  0  0  0
 85193  1  0  0  0
 85194  1  0  0  0
 86 87  1  0  0  0
 86195  1  0  0  0
 86196  1  0  0  0
 87 88  1  0  0  0
 87197  1  0  0  0
 88 89  1  0  0  0
 88 90  2  0  0  0
 89198  1  0  0  0
 89199  1  0  0  0
 90200  1  0  0  0
 91 92  1  0  0  0
 91201  1  0  0  0
 92 93  1  0  0  0
 92 95  1  0  0  0
 92202  1  0  0  0
 93 94  2  0  0  0
 93100  1  0  0  0
 95 96  1  0  0  0
 95203  1  0  0  0
 95204  1  0  0  0
 96 97  1  0  0  0
 96205  1  0  0  0
 96206  1  0  0  0
 97 98  1  0  0  0
 97 99  2  0  0  0
 98207  1  0  0  0
100101  1  0  0  0
100208  1  0  0  0
101102  1  0  0  0
101104  1  0  0  0
101209  1  0  0  0
102103  2  0  0  0
102109  1  0  0  0
104105  1  0  0  0
104210  1  0  0  0
104211  1  0  0  0
105106  1  0  0  0
105212  1  0  0  0
105213  1  0  0  0
106107  1  0  0  0
106108  2  0  0  0
107214  1  0  0  0
109110  1  0  0  0
109215  1  0  0  0
110111  1  0  0  0
110113  1  0  0  0
110216  1  0  0  0
111112  2  0  0  0
111115  1  0  0  0
113114  1  0  0  0
113217  1  0  0  0
113218  1  0  0  0
115219  1  0  0  0
M  CHG  1   1   1
M  END
> <s_m_source_file>
../4o3u_ligand.sdf

> <i_m_source_file_index>
1

> <s_epik_input>
W0NIM11bQ0gyXVtDQEhdKFtDSDNdKVtDQEhdKFtOSDMrXSlDKD1PKVtOSF1bQ0BASF0oW0NAQEhdKFtDSDNdKVtDSDJdW0NIM10pQyg9TylbTkhdW0NIMl1DKD1PKVtOSF1bQ0gyXUMoPU8pW05IXVtDQEhdKEMxPU8pW0NIMl1TU1tDSDJdW0NAQEhdKEMoPU8pW09IXSlbTkhdQyg9TylbQ0BIXShbQ0gyXVtDSDJdQyg9TylbT0hdKVtOSF1DKD1PKVtDQEhdKFtDSDJdW0NIMl1DKD1PKVtPSF0pW05IXUMoPU8pW0NASF0oW0NIMl1bQ0gyXVtDSDJdW05IXS9DKFtOSDJdKT1OXFtIXSlbTkhdQyg9TylbQ0BIXShbQ0gyXUMoPU8pW09IXSlbTkhdQyg9TylbQ0BIXShbQ0gyXVtDSDJdU1tDSDNdKVtOSF1DKD1PKVtDQEhdKFtDSDJdYzJbY0hdW25IXWMoYzIzKVtjSF1bY0hdW2NIXVtjSF0zKVtOSF1DKD1PKVtDQEBIXShbTkhdQyg9TylbQ0BASF0oTjE0KVtDSDJdW0NIMl1bQ0gyXTQpW0NIMl1jNVtjSF1bY0hdYyhbT0hdKVtjSF1bY0hdNQ==

> <s_epik_cmdline>
J2VwaWtfYXBwJywgJy1pbWFlJywgJ2xpZ2FuZF9wcm8ubWFlJywgJy1vbWFlJywgJ2xpZ2FuZF9wcmVwLm1hZScsICctbXMnLCAnMScsICctcGgnLCAnNycsICctcGh0JywgJzAuNScsICctbnQn

> <s_epik_pKa_notes>
Molecule size exceeds maximum supported for generating protonation states

> <s_epik_Chemistry_Notes>
This compound has an imine and may undergo hydrolysis.

$$$$
