4o42_ligand
                    3D
 Schrodinger Suite 2020-3.
130129  0  0  1  0            999 V2000
  -13.5570    9.7670   19.8280 N   0  3  0  0  0  0
  -13.6760    8.5200   20.6360 C   0  0  2  0  0  0
  -13.2830    7.3090   19.7780 C   0  0  0  0  0  0
  -14.0030    6.9610   18.8370 O   0  0  0  0  0  0
  -15.1110    8.3860   21.1540 C   0  0  0  0  0  0
  -15.2810    7.3640   22.2700 C   0  0  0  0  0  0
  -16.7410    6.9930   22.5080 C   0  0  0  0  0  0
  -16.8590    5.7920   23.3530 N   0  0  0  0  0  0
  -17.5220    4.6670   23.0490 C   0  0  0  0  0  0
  -18.1890    4.5370   21.9030 N   0  3  0  0  0  0
  -17.5360    3.6500   23.9100 N   0  0  0  0  0  0
  -12.1410    6.6800   20.0870 N   0  0  0  0  0  0
  -11.6390    5.5270   19.2890 C   0  0  2  0  0  0
  -12.4210    4.2330   19.5170 C   0  0  0  0  0  0
  -12.3710    3.3390   18.6460 O   0  0  0  0  0  0
  -10.1360    5.2060   19.5430 C   0  0  2  0  0  0
   -9.3590    6.3930   19.4110 O   0  0  0  0  0  0
   -9.5720    4.1180   18.5510 C   0  0  0  0  0  0
  -13.1200    4.1050   20.6600 N   0  0  0  0  0  0
  -13.8900    2.8810   20.8900 C   0  0  2  0  0  0
  -15.2420    2.9230   20.2120 C   0  0  0  0  0  0
  -15.9380    3.9440   20.1990 O   0  0  0  0  0  0
  -14.0210    2.4810   22.3550 C   0  0  0  0  0  0
  -15.5630    1.7780   19.6200 N   0  0  0  0  0  0
  -16.7700    1.5600   18.8440 C   0  0  2  0  0  0
  -17.1940    0.1060   19.0860 C   0  0  0  0  0  0
  -16.3810   -0.7010   19.5400 O   0  0  0  0  0  0
  -16.4510    1.7200   17.3450 C   0  0  0  0  0  0
  -15.6640    2.9610   16.9380 C   0  0  0  0  0  0
  -15.1800    2.9150   15.4930 C   0  0  0  0  0  0
  -13.9900    2.0780   15.2960 N   0  0  0  0  0  0
  -13.3810    1.8650   14.1160 C   0  0  0  0  0  0
  -12.3110    1.0780   14.0430 N   0  0  0  0  0  0
  -13.8390    2.4130   12.9980 N   0  3  0  0  0  0
  -18.4490   -0.2340   18.7390 N   0  0  0  0  0  0
  -18.9320   -1.6200   18.7190 C   0  0  2  0  0  0
  -19.7270   -1.8160   17.4170 C   0  0  0  0  0  0
  -20.1340   -0.8300   16.7910 O   0  0  0  0  0  0
  -19.8010   -1.9210   19.9520 C   0  0  0  0  0  0
  -18.9910   -2.1090   21.1030 O   0  0  0  0  0  0
  -19.9140   -3.0650   17.0000 N   0  0  0  0  0  0
  -20.6590   -3.3930   15.7620 C   0  0  1  0  0  0
  -20.2690   -4.7410   15.1880 C   0  0  0  0  0  0
  -18.8080   -4.7040   14.7840 C   0  0  0  0  0  0
  -18.5850   -5.3480   13.4500 C   0  0  0  0  0  0
  -17.4300   -4.7080   12.7140 C   0  0  0  0  0  0
  -17.7950   -3.8540   11.5630 N   0  3  0  0  0  0
  -16.5030   -3.4600   10.9880 C   0  0  0  0  0  0
  -18.5070   -4.6230   10.5210 C   0  0  0  0  0  0
  -22.1320   -3.4080   16.0280 C   0  0  0  0  0  0
  -22.6270   -4.1830   16.8930 O   0  0  0  0  0  0
  -22.8300   -2.5790   15.2420 N   0  0  0  0  0  0
  -24.2360   -2.2120   15.4590 C   0  0  2  0  0  0
  -25.1190   -2.8130   14.3650 C   0  0  0  0  0  0
  -24.7880   -2.6990   13.1870 O   0  0  0  0  0  0
  -24.4060   -0.6580   15.4870 C   0  0  0  0  0  0
  -23.4470   -0.0430   16.5040 C   0  0  0  0  0  0
  -24.1760   -0.0220   14.1080 C   0  0  0  0  0  0
  -26.1795   -3.4214   14.6694 O   0  5  0  0  0  0
  -12.5269    9.8652   19.4549 H   0  0  0  0  0  0
  -13.8040   10.6357   20.4559 H   0  0  0  0  0  0
  -14.2524    9.7202   18.9769 H   0  0  0  0  0  0
  -12.9883    8.5930   21.4914 H   0  0  0  0  0  0
  -15.4497    9.3546   21.5502 H   0  0  0  0  0  0
  -15.7707    8.0759   20.3303 H   0  0  0  0  0  0
  -14.7367    6.4439   22.0106 H   0  0  0  0  0  0
  -14.8798    7.7752   23.2081 H   0  0  0  0  0  0
  -17.2536    7.8260   23.0114 H   0  0  0  0  0  0
  -17.2299    6.7909   21.5436 H   0  0  0  0  0  0
  -16.3740    5.7641   24.3399 H   0  0  0  0  0  0
  -18.1948    5.3603   21.1736 H   0  0  0  0  0  0
  -16.9941    3.7295   24.8639 H   0  0  0  0  0  0
  -18.0895    2.7310   23.6668 H   0  0  0  0  0  0
  -11.5701    7.0370   20.9568 H   0  0  0  0  0  0
  -11.8138    5.8957   18.2675 H   0  0  0  0  0  0
  -10.0131    4.8873   20.5886 H   0  0  0  0  0  0
   -9.5953    7.2760   20.0230 H   0  0  0  0  0  0
  -10.1641    3.1956   18.6433 H   0  0  0  0  0  0
   -8.5214    3.9057   18.7984 H   0  0  0  0  0  0
   -9.6370    4.4937   17.5192 H   0  0  0  0  0  0
  -13.1183    4.9039   21.4161 H   0  0  0  0  0  0
  -13.2638    2.1204   20.4008 H   0  0  0  0  0  0
  -13.0242    2.4593   22.8197 H   0  0  0  0  0  0
  -14.4791    1.4832   22.4231 H   0  0  0  0  0  0
  -14.6542    3.2118   22.8794 H   0  0  0  0  0  0
  -14.8377    0.9612   19.7501 H   0  0  0  0  0  0
  -17.5213    2.2935   19.1719 H   0  0  0  0  0  0
  -15.8519    0.8628   17.0041 H   0  0  0  0  0  0
  -17.3895    1.7621   16.7728 H   0  0  0  0  0  0
  -16.3006    3.8513   17.0479 H   0  0  0  0  0  0
  -14.7786    3.0615   17.5829 H   0  0  0  0  0  0
  -15.9763    2.5082   14.8524 H   0  0  0  0  0  0
  -14.9244    3.9315   15.1594 H   0  0  0  0  0  0
  -13.5287    1.5671   16.1540 H   0  0  0  0  0  0
  -11.9092    0.6101   14.9539 H   0  0  0  0  0  0
  -11.8280    0.8951   13.0718 H   0  0  0  0  0  0
  -14.7221    3.0681   13.0282 H   0  0  0  0  0  0
  -19.1250    0.5881   18.4612 H   0  0  0  0  0  0
  -18.0536   -2.2812   18.7554 H   0  0  0  0  0  0
  -20.4854   -1.0790   20.1326 H   0  0  0  0  0  0
  -20.3847   -2.8364   19.7746 H   0  0  0  0  0  0
  -19.4579   -2.3334   22.0734 H   0  0  0  0  0  0
  -19.4889   -3.8711   17.6160 H   0  0  0  0  0  0
  -20.3993   -2.5979   15.0476 H   0  0  0  0  0  0
  -20.4233   -5.5215   15.9476 H   0  0  0  0  0  0
  -20.8912   -4.9584   14.3073 H   0  0  0  0  0  0
  -18.4705   -3.6588   14.7243 H   0  0  0  0  0  0
  -18.2069   -5.2413   15.5323 H   0  0  0  0  0  0
  -18.3600   -6.4155   13.5912 H   0  0  0  0  0  0
  -19.4914   -5.2425   12.8358 H   0  0  0  0  0  0
  -16.8647   -4.0664   13.4060 H   0  0  0  0  0  0
  -16.7682   -5.4921   12.3175 H   0  0  0  0  0  0
  -18.4371   -3.0189   11.8796 H   0  0  0  0  0  0
  -15.9326   -2.8817   11.7298 H   0  0  0  0  0  0
  -16.6727   -2.8427   10.0935 H   0  0  0  0  0  0
  -15.9356   -4.3604   10.7099 H   0  0  0  0  0  0
  -19.4866   -4.9424   10.9061 H   0  0  0  0  0  0
  -17.9136   -5.5083   10.2489 H   0  0  0  0  0  0
  -18.6507   -3.9906    9.6325 H   0  0  0  0  0  0
  -22.2792   -2.1641   14.3850 H   0  0  0  0  0  0
  -24.5031   -2.6553   16.4296 H   0  0  0  0  0  0
  -25.4398   -0.4275   15.7837 H   0  0  0  0  0  0
  -23.6149   -0.5010   17.4899 H   0  0  0  0  0  0
  -23.6257    1.0405   16.5678 H   0  0  0  0  0  0
  -22.4097   -0.2255   16.1868 H   0  0  0  0  0  0
  -24.8685   -0.4676   13.3786 H   0  0  0  0  0  0
  -23.1394   -0.2045   13.7884 H   0  0  0  0  0  0
  -24.3554    1.0615   14.1694 H   0  0  0  0  0  0
  -13.3356    2.2123   12.0408 H   0  0  0  0  0  0
  -18.7339    3.6063   21.6863 H   0  0  0  0  0  0
  1  2  1  0  0  0
  1 60  1  0  0  0
  1 61  1  0  0  0
  1 62  1  0  0  0
  2  3  1  0  0  0
  2  5  1  0  0  0
  2 63  1  0  0  0
  3  4  2  0  0  0
  3 12  1  0  0  0
  5  6  1  0  0  0
  5 64  1  0  0  0
  5 65  1  0  0  0
  6  7  1  0  0  0
  6 66  1  0  0  0
  6 67  1  0  0  0
  7  8  1  0  0  0
  7 68  1  0  0  0
  7 69  1  0  0  0
  8  9  1  0  0  0
  8 70  1  0  0  0
  9 10  2  0  0  0
  9 11  1  0  0  0
 10 71  1  0  0  0
 10130  1  0  0  0
 11 72  1  0  0  0
 11 73  1  0  0  0
 12 13  1  0  0  0
 12 74  1  0  0  0
 13 14  1  0  0  0
 13 16  1  0  0  0
 13 75  1  0  0  0
 14 15  2  0  0  0
 14 19  1  0  0  0
 16 17  1  0  0  0
 16 18  1  0  0  0
 16 76  1  0  0  0
 17 77  1  0  0  0
 18 78  1  0  0  0
 18 79  1  0  0  0
 18 80  1  0  0  0
 19 20  1  0  0  0
 19 81  1  0  0  0
 20 21  1  0  0  0
 20 23  1  0  0  0
 20 82  1  0  0  0
 21 22  2  0  0  0
 21 24  1  0  0  0
 23 83  1  0  0  0
 23 84  1  0  0  0
 23 85  1  0  0  0
 24 25  1  0  0  0
 24 86  1  0  0  0
 25 26  1  0  0  0
 25 28  1  0  0  0
 25 87  1  0  0  0
 26 27  2  0  0  0
 26 35  1  0  0  0
 28 29  1  0  0  0
 28 88  1  0  0  0
 28 89  1  0  0  0
 29 30  1  0  0  0
 29 90  1  0  0  0
 29 91  1  0  0  0
 30 31  1  0  0  0
 30 92  1  0  0  0
 30 93  1  0  0  0
 31 32  1  0  0  0
 31 94  1  0  0  0
 32 33  1  0  0  0
 32 34  2  0  0  0
 33 95  1  0  0  0
 33 96  1  0  0  0
 34 97  1  0  0  0
 34129  1  0  0  0
 35 36  1  0  0  0
 35 98  1  0  0  0
 36 37  1  0  0  0
 36 39  1  0  0  0
 36 99  1  0  0  0
 37 38  2  0  0  0
 37 41  1  0  0  0
 39 40  1  0  0  0
 39100  1  0  0  0
 39101  1  0  0  0
 40102  1  0  0  0
 41 42  1  0  0  0
 41103  1  0  0  0
 42 43  1  0  0  0
 42 50  1  0  0  0
 42104  1  0  0  0
 43 44  1  0  0  0
 43105  1  0  0  0
 43106  1  0  0  0
 44 45  1  0  0  0
 44107  1  0  0  0
 44108  1  0  0  0
 45 46  1  0  0  0
 45109  1  0  0  0
 45110  1  0  0  0
 46 47  1  0  0  0
 46111  1  0  0  0
 46112  1  0  0  0
 47 48  1  0  0  0
 47 49  1  0  0  0
 47113  1  0  0  0
 48114  1  0  0  0
 48115  1  0  0  0
 48116  1  0  0  0
 49117  1  0  0  0
 49118  1  0  0  0
 49119  1  0  0  0
 50 51  2  0  0  0
 50 52  1  0  0  0
 52 53  1  0  0  0
 52120  1  0  0  0
 53 54  1  0  0  0
 53 56  1  0  0  0
 53121  1  0  0  0
 54 55  2  0  0  0
 54 59  1  0  0  0
 56 57  1  0  0  0
 56 58  1  0  0  0
 56122  1  0  0  0
 57123  1  0  0  0
 57124  1  0  0  0
 57125  1  0  0  0
 58126  1  0  0  0
 58127  1  0  0  0
 58128  1  0  0  0
M  CHG  5   1   1  10   1  34   1  47   1  59  -1
M  END
> <s_m_source_file>
../4o42_ligand.sdf

> <i_m_source_file_index>
1

> <s_epik_input>
W0hdL049QyhbTkgyXSlcW05IXVtDSDJdW0NIMl1bQ0gyXVtDQEhdKFtOSDMrXSlDKD1PKVtOSF1bQ0BASF0oW0NASF0oW09IXSlbQ0gzXSlDKD1PKVtOSF1bQ0BASF0oW0NIM10pQyg9TylbTkhdW0NAQEhdKFtDSDJdW0NIMl1bQ0gyXVtOSF0vQyhbTkgyXSk9TlxbSF0pQyg9TylbTkhdW0NAQEhdKFtDSDJdW09IXSlDKD1PKVtOSF1bQ0BIXShDKD1PKVtOSF1bQ0BIXShDKD1PKVtPSF0pW0NIXShbQ0gzXSlbQ0gzXSlbQ0gyXVtDSDJdW0NIMl1bQ0gyXVtOSCtdKFtDSDNdKVtDSDNd

> <s_epik_cmdline>
J2VwaWtfYXBwJywgJy1pbWFlJywgJ2xpZ2FuZF9wcm8ubWFlJywgJy1vbWFlJywgJ2xpZ2FuZF9wcmVwLm1hZScsICctbXMnLCAnMScsICctcGgnLCAnNycsICctcGh0JywgJzAuNScsICctbnQn

> <r_epik_Ionization_Penalty>
  0.1401

> <r_epik_Ionization_Penalty_Charging>
  0.1401

> <r_epik_Ionization_Penalty_Neutral>
  0.0000

> <r_epik_State_Penalty>
  0.1276

> <r_epik_Charging_Adjusted_Penalty>
0.267673338834464

> <i_epik_Tot_Q>
3

> <i_epik_Tot_abs_Q>
5

> <s_epik_Chemistry_Notes>
This compound has an imine and may undergo hydrolysis.

$$$$
