4o43_ligand
                    3D
 Schrodinger Suite 2020-3.
 34 35  0  0  1  0            999 V2000
   14.8800  456.2130   23.6550 C   0  0  0  0  0  0
   14.6500  455.4740   24.9740 C   0  0  0  0  0  0
   15.3640  456.1640   26.1510 C   0  0  1  0  0  0
   16.8830  456.0670   25.9630 C   0  0  0  0  0  0
   14.8910  457.5740   26.4050 N   0  0  0  0  0  0
   15.2310  458.7580   25.8390 C   0  0  0  0  0  0
   16.0620  458.7970   24.9370 O   0  0  0  0  0  0
   13.9730  457.7260   27.3630 C   0  0  0  0  0  0
   13.3030  456.4560   28.3050 S   0  0  0  0  0  0
   13.5800  459.2690   27.5120 S   0  0  0  0  0  0
   14.5770  459.8320   26.3470 C   0  0  0  0  0  0
   14.5700  461.1630   26.1140 C   0  0  0  0  0  0
   15.3180  461.9020   25.1810 C   0  0  0  0  0  0
   15.0640  463.2700   25.1700 C   0  0  0  0  0  0
   15.7260  464.1250   24.2970 C   0  0  0  0  0  0
   16.6640  463.6160   23.4080 C   0  0  0  0  0  0
   17.3160  464.4470   22.5520 O   0  0  0  0  0  0
   16.9310  462.2540   23.4000 C   0  0  0  0  0  0
   16.2570  461.4140   24.2780 C   0  0  0  0  0  0
   14.3542  455.6879   22.8440 H   0  0  0  0  0  0
   15.9573  456.2429   23.4345 H   0  0  0  0  0  0
   14.4940  457.2397   23.7378 H   0  0  0  0  0  0
   13.5727  455.4441   25.1945 H   0  0  0  0  0  0
   15.0360  454.4473   24.8912 H   0  0  0  0  0  0
   15.0866  455.6434   27.0794 H   0  0  0  0  0  0
   17.1639  455.0189   25.7823 H   0  0  0  0  0  0
   17.3886  456.4311   26.8695 H   0  0  0  0  0  0
   17.1859  456.6814   25.1023 H   0  0  0  0  0  0
   13.9108  461.8205   26.6998 H   0  0  0  0  0  0
   14.3288  463.6806   25.8621 H   0  0  0  0  0  0
   15.5095  465.1932   24.3099 H   0  0  0  0  0  0
   17.1011  465.5258   22.5620 H   0  0  0  0  0  0
   17.6667  461.8448   22.7076 H   0  0  0  0  0  0
   16.4695  460.3451   24.2587 H   0  0  0  0  0  0
  1  2  1  0  0  0
  1 20  1  0  0  0
  1 21  1  0  0  0
  1 22  1  0  0  0
  2  3  1  0  0  0
  2 23  1  0  0  0
  2 24  1  0  0  0
  3  4  1  0  0  0
  3  5  1  0  0  0
  3 25  1  0  0  0
  4 26  1  0  0  0
  4 27  1  0  0  0
  4 28  1  0  0  0
  5  6  1  0  0  0
  5  8  1  0  0  0
  6  7  2  0  0  0
  6 11  1  0  0  0
  8  9  2  0  0  0
  8 10  1  0  0  0
 10 11  1  0  0  0
 11 12  2  0  0  0
 12 13  1  0  0  0
 12 29  1  0  0  0
 13 14  2  0  0  0
 13 19  1  0  0  0
 14 15  1  0  0  0
 14 30  1  0  0  0
 15 16  2  0  0  0
 15 31  1  0  0  0
 16 17  1  0  0  0
 16 18  1  0  0  0
 17 32  1  0  0  0
 18 19  2  0  0  0
 18 33  1  0  0  0
 19 34  1  0  0  0
M  END
> <s_m_source_file>
../4o43_ligand.sdf

> <i_m_source_file_index>
1

> <s_epik_input>
W0NIM11bQ0gyXVtDQEBIXShbQ0gzXSlOMUMoPU8pL0MoU0MxPVMpPVtDSF1cYzJbY0hdW2NIXWMoW09IXSlbY0hdW2NIXTI=

> <s_epik_cmdline>
J2VwaWtfYXBwJywgJy1pbWFlJywgJ2xpZ2FuZF9wcm8ubWFlJywgJy1vbWFlJywgJ2xpZ2FuZF9wcmVwLm1hZScsICctbXMnLCAnMScsICctcGgnLCAnNycsICctcGh0JywgJzAuNScsICctbnQn

> <r_epik_Ionization_Penalty>
  0.1023

> <r_epik_Ionization_Penalty_Charging>
  0.0000

> <r_epik_Ionization_Penalty_Neutral>
  0.1023

> <r_epik_State_Penalty>
  0.0923

> <r_epik_Charging_Adjusted_Penalty>
0.0922941975826906

> <i_epik_Tot_Q>
0

> <i_epik_Tot_abs_Q>
0

$$$$
