4o45_ligand
                    3D
 Schrodinger Suite 2020-3.
 71 70  0  0  1  0            999 V2000
   10.9210  116.3680   -5.0630 N   0  3  0  0  0  0
   10.7790  115.8920   -3.6550 C   0  0  2  0  0  0
   10.9070  114.3560   -3.5550 C   0  0  0  0  0  0
   11.0320  113.6390   -4.5520 O   0  0  0  0  0  0
    9.4400  116.3670   -3.0530 C   0  0  0  0  0  0
   10.8750  113.8710   -2.3280 N   0  0  0  0  0  0
   10.8970  112.4220   -2.0380 C   0  0  2  0  0  0
    9.7640  111.6500   -2.7640 C   0  0  0  0  0  0
    9.9030  110.4620   -3.0810 O   0  0  0  0  0  0
   10.7900  112.2350   -0.5270 C   0  0  0  0  0  0
   10.7110  110.8360   -0.0540 C   0  0  0  0  0  0
   10.6220  110.7590    1.4370 C   0  0  0  0  0  0
   11.6720  111.4950    2.1540 N   0  0  0  0  0  0
   12.8130  110.9700    2.6100 C   0  0  0  0  0  0
   13.1150  109.6960    2.3890 N   0  3  0  0  0  0
   13.6680  111.7470    3.2930 N   0  0  0  0  0  0
    8.6610  112.3430   -3.0240 N   0  0  0  0  0  0
    7.4750  111.7080   -3.5630 C   0  0  2  0  0  0
    7.4790  111.6370   -5.0610 C   0  0  0  0  0  0
    6.6780  110.8760   -5.6320 O   0  0  0  0  0  0
    6.2320  112.4690   -3.1110 C   0  0  2  0  0  0
    6.3250  113.8360   -3.5280 O   0  0  0  0  0  0
    6.1420  112.4080   -1.5940 C   0  0  0  0  0  0
    8.3930  112.4020   -5.6830 N   0  0  0  0  0  0
    8.4160  112.6390   -7.1450 C   0  0  2  0  0  0
    8.2690  111.3640   -7.9430 C   0  0  0  0  0  0
    9.1690  110.4870   -7.9160 O   0  0  0  0  0  0
    9.6860  113.3720   -7.5640 C   0  0  0  0  0  0
    7.1250  111.2900   -8.6490 N   0  0  0  0  0  0
    6.7180  110.1440   -9.4520 C   0  0  2  0  0  0
    6.9370  110.4630  -10.9290 C   0  0  0  0  0  0
    8.0840  110.6030  -11.3760 O   0  0  0  0  0  0
    5.2450  109.8050   -9.1860 C   0  0  0  0  0  0
    5.9459  110.5845  -11.6974 O   0  5  0  0  0  0
   11.8804  116.0193   -5.4729 H   0  0  0  0  0  0
   10.8916  117.4674   -5.0831 H   0  0  0  0  0  0
   10.0957  115.9679   -5.6703 H   0  0  0  0  0  0
   11.6140  116.3489   -3.1036 H   0  0  0  0  0  0
    9.3693  117.4617   -3.1343 H   0  0  0  0  0  0
    9.3896  116.0739   -1.9940 H   0  0  0  0  0  0
    8.6066  115.9040   -3.6016 H   0  0  0  0  0  0
   10.8302  114.5965   -1.5024 H   0  0  0  0  0  0
   11.8601  112.0481   -2.4157 H   0  0  0  0  0  0
   11.6731  112.6740   -0.0398 H   0  0  0  0  0  0
    9.8818  112.7348   -0.1591 H   0  0  0  0  0  0
    9.8175  110.3552   -0.4789 H   0  0  0  0  0  0
   11.6096  110.2890   -0.3754 H   0  0  0  0  0  0
    9.6593  111.1751    1.7688 H   0  0  0  0  0  0
   10.6966  109.7086    1.7550 H   0  0  0  0  0  0
   11.5513  112.5698    2.3544 H   0  0  0  0  0  0
   12.4180  109.0545    1.8298 H   0  0  0  0  0  0
   13.4230  112.8031    3.4790 H   0  0  0  0  0  0
   14.6138  111.3277    3.6668 H   0  0  0  0  0  0
    8.6618  113.4240   -2.8205 H   0  0  0  0  0  0
    7.5161  110.6814   -3.1702 H   0  0  0  0  0  0
    5.3222  112.0710   -3.5842 H   0  0  0  0  0  0
    6.3987  114.0809   -4.5979 H   0  0  0  0  0  0
    6.0705  111.3584   -1.2729 H   0  0  0  0  0  0
    5.2496  112.9560   -1.2573 H   0  0  0  0  0  0
    7.0407  112.8655   -1.1547 H   0  0  0  0  0  0
    9.1551  112.8648   -5.0387 H   0  0  0  0  0  0
    7.5328  113.2645   -7.3417 H   0  0  0  0  0  0
    9.7849  114.2980   -6.9786 H   0  0  0  0  0  0
    9.6305  113.6190   -8.6345 H   0  0  0  0  0  0
   10.5585  112.7276   -7.3811 H   0  0  0  0  0  0
    6.4782  112.1778   -8.5900 H   0  0  0  0  0  0
    7.3532  109.2996   -9.1460 H   0  0  0  0  0  0
    5.1079  109.5786   -8.1183 H   0  0  0  0  0  0
    4.9560  108.9299   -9.7865 H   0  0  0  0  0  0
    4.6155  110.6636   -9.4625 H   0  0  0  0  0  0
   14.0622  109.2821    2.7651 H   0  0  0  0  0  0
  1  2  1  0  0  0
  1 35  1  0  0  0
  1 36  1  0  0  0
  1 37  1  0  0  0
  2  3  1  0  0  0
  2  5  1  0  0  0
  2 38  1  0  0  0
  3  4  2  0  0  0
  3  6  1  0  0  0
  5 39  1  0  0  0
  5 40  1  0  0  0
  5 41  1  0  0  0
  6  7  1  0  0  0
  6 42  1  0  0  0
  7  8  1  0  0  0
  7 10  1  0  0  0
  7 43  1  0  0  0
  8  9  2  0  0  0
  8 17  1  0  0  0
 10 11  1  0  0  0
 10 44  1  0  0  0
 10 45  1  0  0  0
 11 12  1  0  0  0
 11 46  1  0  0  0
 11 47  1  0  0  0
 12 13  1  0  0  0
 12 48  1  0  0  0
 12 49  1  0  0  0
 13 14  1  0  0  0
 13 50  1  0  0  0
 14 15  2  0  0  0
 14 16  1  0  0  0
 15 51  1  0  0  0
 15 71  1  0  0  0
 16 52  1  0  0  0
 16 53  1  0  0  0
 17 18  1  0  0  0
 17 54  1  0  0  0
 18 19  1  0  0  0
 18 21  1  0  0  0
 18 55  1  0  0  0
 19 20  2  0  0  0
 19 24  1  0  0  0
 21 22  1  0  0  0
 21 23  1  0  0  0
 21 56  1  0  0  0
 22 57  1  0  0  0
 23 58  1  0  0  0
 23 59  1  0  0  0
 23 60  1  0  0  0
 24 25  1  0  0  0
 24 61  1  0  0  0
 25 26  1  0  0  0
 25 28  1  0  0  0
 25 62  1  0  0  0
 26 27  2  0  0  0
 26 29  1  0  0  0
 28 63  1  0  0  0
 28 64  1  0  0  0
 28 65  1  0  0  0
 29 30  1  0  0  0
 29 66  1  0  0  0
 30 31  1  0  0  0
 30 33  1  0  0  0
 30 67  1  0  0  0
 31 32  2  0  0  0
 31 34  1  0  0  0
 33 68  1  0  0  0
 33 69  1  0  0  0
 33 70  1  0  0  0
M  CHG  3   1   1  15   1  34  -1
M  END
> <s_m_source_file>
../4o45_ligand.sdf

> <i_m_source_file_index>
1

> <s_epik_input>
W0hdL049QyhbTkgyXSlcW05IXVtDSDJdW0NIMl1bQ0gyXVtDQEhdKFtOSF1DKD1PKVtDQEBIXShbTkgzK10pW0NIM10pQyg9TylbTkhdW0NAQEhdKFtDQEhdKFtPSF0pW0NIM10pQyg9TylbTkhdW0NAQEhdKFtDSDNdKUMoPU8pW05IXVtDQEBIXShbQ0gzXSlDKD1PKVtPSF0=

> <s_epik_cmdline>
J2VwaWtfYXBwJywgJy1pbWFlJywgJ2xpZ2FuZF9wcm8ubWFlJywgJy1vbWFlJywgJ2xpZ2FuZF9wcmVwLm1hZScsICctbXMnLCAnMScsICctcGgnLCAnNycsICctcGh0JywgJzAuNScsICctbnQn

> <r_epik_Ionization_Penalty>
  0.1252

> <r_epik_Ionization_Penalty_Charging>
  0.1252

> <r_epik_Ionization_Penalty_Neutral>
  0.0000

> <r_epik_State_Penalty>
  0.1145

> <r_epik_Charging_Adjusted_Penalty>
0.239761312579831

> <i_epik_Tot_Q>
1

> <i_epik_Tot_abs_Q>
3

> <s_epik_Chemistry_Notes>
This compound has an imine and may undergo hydrolysis.

$$$$
