4o4g_ligand
                    3D
 Schrodinger Suite 2020-3.
 43 45  0  0  1  0            999 V2000
  215.6400  -27.5180   33.5430 N   0  0  0  0  0  0
  214.9130  -28.5980   34.1150 C   0  0  0  0  0  0
  214.4970  -29.7850   33.4250 C   0  0  0  0  0  0
  213.7710  -30.8020   34.0780 C   0  0  0  0  0  0
  213.4400  -30.6750   35.4490 C   0  0  0  0  0  0
  212.6840  -31.7220   36.1010 C   0  0  0  0  0  0
  212.0600  -32.5350   36.6360 N   0  0  0  0  0  0
  213.8330  -29.5210   36.1560 C   0  0  0  0  0  0
  214.5530  -28.5060   35.4900 C   0  0  0  0  0  0
  216.1040  -26.0680   35.3950 N   0  0  0  0  0  0
  216.6840  -24.9800   35.9150 C   0  0  0  0  0  0
  217.5490  -24.4700   33.8580 C   0  0  0  0  0  0
  217.4180  -24.1510   35.1600 N   0  0  0  0  0  0
  216.9750  -25.5720   33.2840 N   0  0  0  0  0  0
  216.2440  -26.3750   34.0980 C   0  0  0  0  0  0
  216.5040  -24.7130   37.2680 N   0  0  0  0  0  0
  215.3550  -25.1910   37.9060 C   0  0  0  0  0  0
  214.2370  -24.3070   38.0050 C   0  0  0  0  0  0
  214.2840  -22.8830   37.4570 C   0  0  0  0  0  0
  213.0440  -24.7420   38.6290 C   0  0  0  0  0  0
  212.9430  -26.0490   39.1560 C   0  0  0  0  0  0
  211.6570  -26.4960   39.8240 C   0  0  0  0  0  0
  214.0440  -26.9290   39.0550 C   0  0  0  0  0  0
  215.2540  -26.5190   38.4360 C   0  0  0  0  0  0
  216.3990  -27.5300   38.3680 C   0  0  0  0  0  0
  215.8139  -27.4859   32.4573 H   0  0  0  0  0  0
  214.7482  -29.9034   32.3710 H   0  0  0  0  0  0
  213.4632  -31.6896   33.5253 H   0  0  0  0  0  0
  213.5823  -29.4129   37.2113 H   0  0  0  0  0  0
  214.8448  -27.6173   36.0496 H   0  0  0  0  0  0
  218.1461  -23.8132   33.2254 H   0  0  0  0  0  0
  217.2593  -24.1339   37.8196 H   0  0  0  0  0  0
  215.2696  -22.6962   37.0057 H   0  0  0  0  0  0
  214.1147  -22.1690   38.2765 H   0  0  0  0  0  0
  213.5016  -22.7578   36.6940 H   0  0  0  0  0  0
  212.1950  -24.0625   38.7038 H   0  0  0  0  0  0
  210.9271  -25.6733   39.8017 H   0  0  0  0  0  0
  211.8637  -26.7746   40.8679 H   0  0  0  0  0  0
  211.2474  -27.3642   39.2869 H   0  0  0  0  0  0
  213.9630  -27.9383   39.4586 H   0  0  0  0  0  0
  217.2632  -27.0719   37.8647 H   0  0  0  0  0  0
  216.0729  -28.4158   37.8032 H   0  0  0  0  0  0
  216.6846  -27.8296   39.3872 H   0  0  0  0  0  0
  1  2  1  0  0  0
  1 15  1  0  0  0
  1 26  1  0  0  0
  2  3  2  0  0  0
  2  9  1  0  0  0
  3  4  1  0  0  0
  3 27  1  0  0  0
  4  5  2  0  0  0
  4 28  1  0  0  0
  5  6  1  0  0  0
  5  8  1  0  0  0
  6  7  3  0  0  0
  8  9  2  0  0  0
  8 29  1  0  0  0
  9 30  1  0  0  0
 10 11  2  0  0  0
 10 15  1  0  0  0
 11 13  1  0  0  0
 11 16  1  0  0  0
 12 13  2  0  0  0
 12 14  1  0  0  0
 12 31  1  0  0  0
 14 15  2  0  0  0
 16 17  1  0  0  0
 16 32  1  0  0  0
 17 18  2  0  0  0
 17 24  1  0  0  0
 18 19  1  0  0  0
 18 20  1  0  0  0
 19 33  1  0  0  0
 19 34  1  0  0  0
 19 35  1  0  0  0
 20 21  2  0  0  0
 20 36  1  0  0  0
 21 22  1  0  0  0
 21 23  1  0  0  0
 22 37  1  0  0  0
 22 38  1  0  0  0
 22 39  1  0  0  0
 23 24  2  0  0  0
 23 40  1  0  0  0
 24 25  1  0  0  0
 25 41  1  0  0  0
 25 42  1  0  0  0
 25 43  1  0  0  0
M  END
> <s_m_source_file>
../4o4g_ligand.sdf

> <i_m_source_file_index>
1

> <s_epik_input>
TiNDYyhbY0hdW2NIXTEpW2NIXVtjSF1jMVtOSF1jKG5bY0hdbjIpbmMyW05IXWMzYyhbQ0gzXSlbY0hdYyhbQ0gzXSlbY0hdYzNbQ0gzXQ==

> <s_epik_cmdline>
J2VwaWtfYXBwJywgJy1pbWFlJywgJ2xpZ2FuZF9wcm8ubWFlJywgJy1vbWFlJywgJ2xpZ2FuZF9wcmVwLm1hZScsICctbXMnLCAnMScsICctcGgnLCAnNycsICctcGh0JywgJzAuNScsICctbnQn

> <r_lp_tautomer_probability>
1

> <r_epik_Ionization_Penalty>
  0.0000

> <r_epik_Ionization_Penalty_Charging>
  0.0000

> <r_epik_Ionization_Penalty_Neutral>
  0.0000

> <r_epik_State_Penalty>
 -0.0000

> <r_epik_Charging_Adjusted_Penalty>
0

> <i_epik_Tot_Q>
0

> <i_epik_Tot_abs_Q>
0

$$$$
