4o4k_ligand
                    3D
 Schrodinger Suite 2020-3.
 22 23  0  0  1  0            999 V2000
   10.0620  462.5100   31.7660 O   0  0  0  0  0  0
   10.0480  463.4520   30.9940 C   0  0  0  0  0  0
    9.6260  464.6410   31.4550 N   0  0  0  0  0  0
    9.6660  465.5930   30.5330 C   0  0  0  0  0  0
    9.2860  466.8490   30.7440 N   0  0  0  0  0  0
   10.2440  464.9540   29.1330 S   0  0  0  0  0  0
   10.4670  463.4280   29.7100 C   0  0  0  0  0  0
   10.9290  462.4690   28.8790 C   0  0  0  0  0  0
   11.0840  461.0920   29.1360 C   0  0  0  0  0  0
   11.5970  460.3380   28.0830 C   0  0  0  0  0  0
   11.7950  458.9660   28.2000 C   0  0  0  0  0  0
   11.4780  458.3230   29.3900 C   0  0  0  0  0  0
   11.6690  456.9860   29.5130 O   0  0  0  0  0  0
   10.9660  459.0490   30.4540 C   0  0  0  0  0  0
   10.7780  460.4140   30.3130 C   0  0  0  0  0  0
    8.9148  467.1524   31.7340 H   0  0  0  0  0  0
   11.2408  462.7303   27.8570 H   0  0  0  0  0  0
   11.8490  460.8344   27.1459 H   0  0  0  0  0  0
   12.1973  458.3977   27.3613 H   0  0  0  0  0  0
   12.0752  456.4085   28.6695 H   0  0  0  0  0  0
   10.7143  458.5516   31.3906 H   0  0  0  0  0  0
   10.3757  460.9782   31.1544 H   0  0  0  0  0  0
  1  2  2  0  0  0
  2  3  1  0  0  0
  2  7  1  0  0  0
  3  4  1  0  0  0
  4  5  2  0  0  0
  4  6  1  0  0  0
  5 16  1  0  0  0
  6  7  1  0  0  0
  7  8  2  0  0  0
  8  9  1  0  0  0
  8 17  1  0  0  0
  9 10  2  0  0  0
  9 15  1  0  0  0
 10 11  1  0  0  0
 10 18  1  0  0  0
 11 12  2  0  0  0
 11 19  1  0  0  0
 12 13  1  0  0  0
 12 14  1  0  0  0
 13 20  1  0  0  0
 14 15  2  0  0  0
 14 21  1  0  0  0
 15 22  1  0  0  0
M  END
> <s_m_source_file>
../4o4k_ligand.sdf

> <i_m_source_file_index>
1

> <s_epik_input>
Tz1DMVtOSF0vQyg9TlxbSF0pU0NcMT1bQ0hdXGMyW2NIXVtjSF1jKFtPSF0pW2NIXVtjSF0y

> <s_epik_cmdline>
J2VwaWtfYXBwJywgJy1pbWFlJywgJ2xpZ2FuZF9wcm8ubWFlJywgJy1vbWFlJywgJ2xpZ2FuZF9wcmVwLm1hZScsICctbXMnLCAnMScsICctcGgnLCAnNycsICctcGh0JywgJzAuNScsICctbnQn

> <r_epik_Ionization_Penalty>
  0.0687

> <r_epik_Ionization_Penalty_Charging>
  0.0000

> <r_epik_Ionization_Penalty_Neutral>
  0.0687

> <r_epik_State_Penalty>
  0.0599

> <r_epik_Charging_Adjusted_Penalty>
0.059947305807928

> <i_epik_Tot_Q>
0

> <i_epik_Tot_abs_Q>
0

> <s_epik_Chemistry_Notes>
This compound has an imine and may undergo hydrolysis.

$$$$
