4o4r_ligand
                    3D
 Schrodinger Suite 2020-3.
 50 52  0  0  1  0            999 V2000
    7.0810   12.1540   41.7140 O   0  5  0  0  0  0
    8.0250   13.2000   40.9240 P   0  0  0  0  0  0
    7.1080   14.5310   40.8270 O   0  5  0  0  0  0
    8.4760   12.7440   39.5800 O   0  0  0  0  0  0
    9.2210   13.5380   41.9490 O   0  0  0  0  0  0
   10.4940   12.8730   41.8890 C   0  0  0  0  0  0
   11.4330   13.6830   42.5370 C   0  0  0  0  0  0
   11.6940   14.9500   42.0180 C   0  0  0  0  0  0
   11.0340   15.3970   40.8830 C   0  0  0  0  0  0
   10.1630   16.2640   40.9660 O   0  0  0  0  0  0
   12.6160   15.7610   42.6640 C   0  0  0  0  0  0
   12.8710   16.9960   42.1480 O   0  5  0  0  0  0
   13.2810   15.3340   43.8100 C   0  0  0  0  0  0
   14.2070   16.1420   44.4650 C   0  0  0  0  0  0
   13.0120   14.1060   44.2930 N   0  3  0  0  0  0
   12.1340   13.2830   43.6830 C   0  0  0  0  0  0
   11.8420   12.0890   44.1930 N   0  0  0  0  0  0
   12.6720   11.3780   44.7200 N   0  0  0  0  0  0
   12.1550   10.2890   45.2860 C   0  0  0  0  0  0
   12.8220    9.6430   46.3210 C   0  0  0  0  0  0
   12.2570    8.5000   46.9190 C   0  0  0  0  0  0
   12.9080    7.8250   47.9620 C   0  0  0  0  0  0
   14.5220    8.3480   48.5720 S   0  0  0  0  0  0
   15.4980    8.3510   47.4160 O   0  0  0  0  0  0
   15.0470    7.3620   49.6010 O   0  0  0  0  0  0
   14.4640    9.7660   49.1510 O   0  5  0  0  0  0
   12.3070    6.7030   48.5410 C   0  0  0  0  0  0
   11.0600    6.2290   48.1050 C   0  0  0  0  0  0
   10.4690    5.1450   48.6530 N   0  3  0  0  0  0
    8.9870    4.7100   48.2640 O   0  0  0  0  0  0
   11.1460    4.3570   49.6480 O   0  5  0  0  0  0
   10.4280    6.9030   47.0730 C   0  0  0  0  0  0
   11.0080    8.0270   46.4800 C   0  0  0  0  0  0
   10.3310    8.6890   45.4470 C   0  0  0  0  0  0
    8.7190    8.1300   44.8320 S   0  0  0  0  0  0
    8.2620    8.9830   43.6510 O   0  0  0  0  0  0
    7.7220    8.2130   45.9760 O   0  0  0  0  0  0
    8.7900    6.6800   44.3540 O   0  5  0  0  0  0
   10.9070    9.8120   44.8670 C   0  0  0  0  0  0
   10.4218   11.8970   42.3912 H   0  0  0  0  0  0
   10.7807   12.7240   40.8375 H   0  0  0  0  0  0
   11.2941   14.9707   39.9029 H   0  0  0  0  0  0
   14.2980   17.1007   43.9333 H   0  0  0  0  0  0
   15.1849   15.6385   44.4832 H   0  0  0  0  0  0
   13.8696   16.3250   45.4959 H   0  0  0  0  0  0
   13.7828   10.0215   46.6697 H   0  0  0  0  0  0
   12.8196    6.1838   49.3508 H   0  0  0  0  0  0
    9.4602    6.5498   46.7170 H   0  0  0  0  0  0
   10.3767   10.3325   44.0695 H   0  0  0  0  0  0
   13.5129   13.7523   45.2062 H   0  0  0  0  0  0
  1  2  1  0  0  0
  2  3  1  0  0  0
  2  4  2  0  0  0
  2  5  1  0  0  0
  5  6  1  0  0  0
  6  7  1  0  0  0
  6 40  1  0  0  0
  6 41  1  0  0  0
  7  8  2  0  0  0
  7 16  1  0  0  0
  8  9  1  0  0  0
  8 11  1  0  0  0
  9 10  2  0  0  0
  9 42  1  0  0  0
 11 12  1  0  0  0
 11 13  2  0  0  0
 13 14  1  0  0  0
 13 15  1  0  0  0
 14 43  1  0  0  0
 14 44  1  0  0  0
 14 45  1  0  0  0
 15 16  2  0  0  0
 15 50  1  0  0  0
 16 17  1  0  0  0
 17 18  2  0  0  0
 18 19  1  0  0  0
 19 20  2  0  0  0
 19 39  1  0  0  0
 20 21  1  0  0  0
 20 46  1  0  0  0
 21 22  2  0  0  0
 21 33  1  0  0  0
 22 23  1  0  0  0
 22 27  1  0  0  0
 23 24  2  0  0  0
 23 25  2  0  0  0
 23 26  1  0  0  0
 27 28  2  0  0  0
 27 47  1  0  0  0
 28 29  1  0  0  0
 28 32  1  0  0  0
 29 30  2  0  0  0
 29 31  1  0  0  0
 32 33  2  0  0  0
 32 48  1  0  0  0
 33 34  1  0  0  0
 34 35  1  0  0  0
 34 39  2  0  0  0
 35 36  2  0  0  0
 35 37  2  0  0  0
 35 38  1  0  0  0
 39 49  1  0  0  0
M  CHG  8   1  -1   3  -1  12  -1  15   1  26  -1  29   1  31  -1  38  -1
M  END
> <s_m_source_file>
../4o4r_ligand.sdf

> <i_m_source_file_index>
1

> <s_epik_input>
W09IXVAoPU8pKFtPSF0pT1tDSDJdYzFjKFtDSF09TyljKFtPSF0pYyhbQ0gzXSluYzEvTj1OL2MoW2NIXTIpW2NIXWMoUyg9TykoPU8pW09IXSljKGMyMylbY0hdYyhbTitdKD1PKVtPLV0pW2NIXWMzUyg9TykoPU8pW09IXQ==

> <s_epik_cmdline>
J2VwaWtfYXBwJywgJy1pbWFlJywgJ2xpZ2FuZF9wcm8ubWFlJywgJy1vbWFlJywgJ2xpZ2FuZF9wcmVwLm1hZScsICctbXMnLCAnMScsICctcGgnLCAnNycsICctcGh0JywgJzAuNScsICctbnQn

> <r_epik_Ionization_Penalty>
  0.4258

> <r_epik_Ionization_Penalty_Charging>
  0.4258

> <r_epik_Ionization_Penalty_Neutral>
  0.0000

> <r_epik_State_Penalty>
  0.3973

> <r_epik_Charging_Adjusted_Penalty>
0.823174964822897

> <i_epik_Tot_Q>
-4

> <i_epik_Tot_abs_Q>
8

$$$$
