4o4y_ligand
                    3D
 Schrodinger Suite 2020-3.
 99100  0  0  1  0            999 V2000
    6.5300   29.1770  -57.5040 N   0  3  0  0  0  0
    6.5130   28.2790  -56.3480 C   0  0  2  0  0  0
    5.1440   28.2740  -55.6230 C   0  0  0  0  0  0
    4.8490   29.1920  -54.8660 O   0  0  0  0  0  0
    7.6470   28.8380  -55.4580 C   0  0  0  0  0  0
    8.0700   30.1780  -56.0930 C   0  0  0  0  0  0
    7.0700   30.5010  -57.1570 C   0  0  0  0  0  0
    4.3190   27.2590  -55.8750 N   0  0  0  0  0  0
    2.9140   27.2890  -55.4570 C   0  0  2  0  0  0
    2.7880   27.1660  -53.9510 C   0  0  0  0  0  0
    3.4760   26.3500  -53.3420 O   0  0  0  0  0  0
    2.1290   26.1720  -56.1170 C   0  0  0  0  0  0
    1.8780   27.9420  -53.3390 N   0  0  0  0  0  0
    1.7400   27.8740  -51.8860 C   0  0  2  0  0  0
    1.4330   26.4660  -51.3740 C   0  0  0  0  0  0
    0.7150   25.7030  -52.0370 O   0  0  0  0  0  0
    0.5600   28.8040  -51.5760 C   0  0  0  0  0  0
    0.2790   29.5630  -52.8180 C   0  0  0  0  0  0
    1.1130   29.0520  -53.9390 C   0  0  0  0  0  0
    1.9980   26.1360  -50.2200 N   0  0  0  0  0  0
    1.7060   24.8670  -49.5470 C   0  0  2  0  0  0
    0.9510   25.1850  -48.2510 C   0  0  0  0  0  0
    1.4820   25.8140  -47.3270 O   0  0  0  0  0  0
    2.9820   24.0710  -49.2780 C   0  0  0  0  0  0
    2.7090   22.7970  -48.4710 C   0  0  0  0  0  0
    3.3200   21.5580  -49.0510 C   0  0  0  0  0  0
    4.2150   21.6770  -49.8860 O   0  0  0  0  0  0
    2.9430   20.4540  -48.6400 O   0  5  0  0  0  0
   -0.3210   24.7930  -48.2220 N   0  0  0  0  0  0
   -1.1830   25.0590  -47.0660 C   0  0  2  0  0  0
   -1.6740   23.7560  -46.4370 C   0  0  0  0  0  0
   -2.0130   22.8270  -47.1580 O   0  0  0  0  0  0
   -2.3440   25.9420  -47.5250 C   0  0  0  0  0  0
   -1.8180   27.2790  -48.0880 C   0  0  0  0  0  0
   -2.6940   27.7990  -49.2340 C   0  0  0  0  0  0
   -1.6650   28.2990  -46.9470 C   0  0  0  0  0  0
   -1.7760   23.7250  -45.1030 N   0  0  0  0  0  0
   -2.0630   22.5000  -44.3790 C   0  0  2  0  0  0
   -3.3540   22.5720  -43.5520 C   0  0  0  0  0  0
   -3.5030   21.8750  -42.5790 O   0  0  0  0  0  0
   -0.8650   22.1170  -43.4820 C   0  0  0  0  0  0
    0.0240   20.9550  -43.9410 C   0  0  0  0  0  0
    0.6850   21.2830  -45.2030 C   0  0  0  0  0  0
    1.0820   20.6460  -42.8580 C   0  0  0  0  0  0
   -4.2850   23.4180  -43.9480 N   0  0  0  0  0  0
   -5.5660   23.5080  -43.2040 C   0  0  0  0  0  0
   -6.6770   22.7800  -43.9090 C   0  0  0  0  0  0
   -6.4510   22.1810  -44.9650 O   0  5  0  0  0  0
   -7.8200   22.7800  -43.4580 O   0  0  0  0  0  0
    7.1586   28.7435  -58.2958 H   0  0  0  0  0  0
    5.5050   29.3092  -57.8808 H   0  0  0  0  0  0
    6.6689   27.2407  -56.6762 H   0  0  0  0  0  0
    7.2710   28.9858  -54.4349 H   0  0  0  0  0  0
    8.4850   28.1257  -55.4413 H   0  0  0  0  0  0
    8.0801   30.9622  -55.3217 H   0  0  0  0  0  0
    9.0760   30.0770  -56.5264 H   0  0  0  0  0  0
    7.5281   30.9552  -58.0480 H   0  0  0  0  0  0
    6.2557   31.1456  -56.7944 H   0  0  0  0  0  0
    4.7149   26.3835  -56.4105 H   0  0  0  0  0  0
    2.5336   28.2671  -55.7866 H   0  0  0  0  0  0
    2.2179   26.2577  -57.2101 H   0  0  0  0  0  0
    1.0703   26.2476  -55.8281 H   0  0  0  0  0  0
    2.5294   25.2005  -55.7916 H   0  0  0  0  0  0
    2.7006   28.1660  -51.4367 H   0  0  0  0  0  0
   -0.3121   28.2032  -51.2785 H   0  0  0  0  0  0
    0.8343   29.4834  -50.7555 H   0  0  0  0  0  0
   -0.4210   30.3943  -52.9878 H   0  0  0  0  0  0
    1.0458   29.5199  -54.9322 H   0  0  0  0  0  0
    2.7046   26.8481  -49.7687 H   0  0  0  0  0  0
    1.0863   24.2640  -50.2270 H   0  0  0  0  0  0
    3.4401   23.7785  -50.2343 H   0  0  0  0  0  0
    3.6884   24.6922  -48.7079 H   0  0  0  0  0  0
    3.1161   22.9119  -47.4556 H   0  0  0  0  0  0
    1.6241   22.6246  -48.4137 H   0  0  0  0  0  0
   -0.7216   24.2569  -49.0950 H   0  0  0  0  0  0
   -0.5785   25.5839  -46.3116 H   0  0  0  0  0  0
   -2.9114   25.4223  -48.3111 H   0  0  0  0  0  0
   -3.0062   26.1500  -46.6716 H   0  0  0  0  0  0
   -0.8246   27.1175  -48.5318 H   0  0  0  0  0  0
   -2.7671   27.0303  -50.0175 H   0  0  0  0  0  0
   -2.2440   28.7101  -49.6551 H   0  0  0  0  0  0
   -3.6993   28.0295  -48.8515 H   0  0  0  0  0  0
   -1.0294   27.8727  -46.1569 H   0  0  0  0  0  0
   -2.6557   28.5366  -46.5323 H   0  0  0  0  0  0
   -1.2005   29.2172  -47.3358 H   0  0  0  0  0  0
   -1.6347   24.6679  -44.5544 H   0  0  0  0  0  0
   -2.2189   21.7654  -45.1827 H   0  0  0  0  0  0
   -0.1883   22.9789  -43.3864 H   0  0  0  0  0  0
   -1.2308   21.8258  -42.4863 H   0  0  0  0  0  0
   -0.5969   20.0715  -44.1505 H   0  0  0  0  0  0
   -0.0741   21.5016  -45.9685 H   0  0  0  0  0  0
    1.2985   20.4298  -45.5281 H   0  0  0  0  0  0
    1.3279   22.1643  -45.0619 H   0  0  0  0  0  0
    0.5774   20.4003  -41.9120 H   0  0  0  0  0  0
    1.7256   21.5261  -42.7125 H   0  0  0  0  0  0
    1.6962   19.7916  -43.1787 H   0  0  0  0  0  0
   -4.1138   24.0560  -44.8275 H   0  0  0  0  0  0
   -5.4422   23.0631  -42.2056 H   0  0  0  0  0  0
   -5.8571   24.5638  -43.1014 H   0  0  0  0  0  0
  1  2  1  0  0  0
  1  7  1  0  0  0
  1 50  1  0  0  0
  1 51  1  0  0  0
  2  3  1  0  0  0
  2  5  1  0  0  0
  2 52  1  0  0  0
  3  4  2  0  0  0
  3  8  1  0  0  0
  5  6  1  0  0  0
  5 53  1  0  0  0
  5 54  1  0  0  0
  6  7  1  0  0  0
  6 55  1  0  0  0
  6 56  1  0  0  0
  7 57  1  0  0  0
  7 58  1  0  0  0
  8  9  1  0  0  0
  8 59  1  0  0  0
  9 10  1  0  0  0
  9 12  1  0  0  0
  9 60  1  0  0  0
 10 11  2  0  0  0
 10 13  1  0  0  0
 12 61  1  0  0  0
 12 62  1  0  0  0
 12 63  1  0  0  0
 13 14  1  0  0  0
 13 19  1  0  0  0
 14 15  1  0  0  0
 14 17  1  0  0  0
 14 64  1  0  0  0
 15 16  2  0  0  0
 15 20  1  0  0  0
 17 18  1  0  0  0
 17 65  1  0  0  0
 17 66  1  0  0  0
 18 19  2  0  0  0
 18 67  1  0  0  0
 19 68  1  0  0  0
 20 21  1  0  0  0
 20 69  1  0  0  0
 21 22  1  0  0  0
 21 24  1  0  0  0
 21 70  1  0  0  0
 22 23  2  0  0  0
 22 29  1  0  0  0
 24 25  1  0  0  0
 24 71  1  0  0  0
 24 72  1  0  0  0
 25 26  1  0  0  0
 25 73  1  0  0  0
 25 74  1  0  0  0
 26 27  2  0  0  0
 26 28  1  0  0  0
 29 30  1  0  0  0
 29 75  1  0  0  0
 30 31  1  0  0  0
 30 33  1  0  0  0
 30 76  1  0  0  0
 31 32  2  0  0  0
 31 37  1  0  0  0
 33 34  1  0  0  0
 33 77  1  0  0  0
 33 78  1  0  0  0
 34 35  1  0  0  0
 34 36  1  0  0  0
 34 79  1  0  0  0
 35 80  1  0  0  0
 35 81  1  0  0  0
 35 82  1  0  0  0
 36 83  1  0  0  0
 36 84  1  0  0  0
 36 85  1  0  0  0
 37 38  1  0  0  0
 37 86  1  0  0  0
 38 39  1  0  0  0
 38 41  1  0  0  0
 38 87  1  0  0  0
 39 40  2  0  0  0
 39 45  1  0  0  0
 41 42  1  0  0  0
 41 88  1  0  0  0
 41 89  1  0  0  0
 42 43  1  0  0  0
 42 44  1  0  0  0
 42 90  1  0  0  0
 43 91  1  0  0  0
 43 92  1  0  0  0
 43 93  1  0  0  0
 44 94  1  0  0  0
 44 95  1  0  0  0
 44 96  1  0  0  0
 45 46  1  0  0  0
 45 97  1  0  0  0
 46 47  1  0  0  0
 46 98  1  0  0  0
 46 99  1  0  0  0
 47 48  1  0  0  0
 47 49  2  0  0  0
M  CHG  3   1   1  28  -1  48  -1
M  END
> <s_m_source_file>
../4o4y_ligand.sdf

> <i_m_source_file_index>
1

> <s_epik_input>
W0NIMl0xW0NIMl1bQ0gyXVtOSDIrXVtDQEBIXTFDKD1PKVtOSF1bQ0BASF0oW0NIM10pQyg9TylOMltDQEBIXShbQ0gyXVtDSF09W0NIXTIpQyg9TylbTkhdW0NAQEhdKFtDSDJdW0NIMl1DKD1PKVtPSF0pQyg9TylbTkhdW0NAQEhdKFtDSDJdW0NIXShbQ0gzXSlbQ0gzXSlDKD1PKVtOSF1bQ0BASF0oW0NIMl1bQ0hdKFtDSDNdKVtDSDNdKUMoPU8pW05IXVtDSDJdQyg9TylbT0hd

> <s_epik_cmdline>
J2VwaWtfYXBwJywgJy1pbWFlJywgJ2xpZ2FuZF9wcm8ubWFlJywgJy1vbWFlJywgJ2xpZ2FuZF9wcmVwLm1hZScsICctbXMnLCAnMScsICctcGgnLCAnNycsICctcGh0JywgJzAuNScsICctbnQn

> <r_epik_Ionization_Penalty>
  0.0433

> <r_epik_Ionization_Penalty_Charging>
  0.0433

> <r_epik_Ionization_Penalty_Neutral>
  0.0000

> <r_epik_State_Penalty>
  0.0348

> <r_epik_Charging_Adjusted_Penalty>
0.0780980564242214

> <i_epik_Tot_Q>
-1

> <i_epik_Tot_abs_Q>
3

$$$$
