4o55_ligand
                    3D
 Schrodinger Suite 2020-3.
 57 60  0  0  1  0            999 V2000
  -37.5650   32.5790  -28.0330 C   0  0  0  0  0  0
  -36.7750   31.4510  -28.3300 C   0  0  0  0  0  0
  -35.4200   31.6330  -28.6200 C   0  0  0  0  0  0
  -34.8840   32.9490  -28.6130 C   0  0  0  0  0  0
  -35.7220   34.0390  -28.3000 C   0  0  0  0  0  0
  -37.0170   33.8160  -28.0310 N   0  0  0  0  0  0
  -34.5720   30.4420  -28.9250 C   0  0  0  0  0  0
  -34.1120   29.6060  -27.8970 C   0  0  0  0  0  0
  -33.2950   28.5050  -28.1880 C   0  0  0  0  0  0
  -32.9380   28.2020  -29.5040 C   0  0  0  0  0  0
  -33.4000   29.0400  -30.5220 C   0  0  0  0  0  0
  -34.2140   30.1530  -30.2360 C   0  0  0  0  0  0
  -37.4150   30.0740  -28.3320 C   0  0  0  0  0  0
  -35.3010   35.4870  -28.2810 C   0  0  0  0  0  0
  -33.4330   33.1990  -28.9220 C   0  0  1  0  0  0
  -33.2500   33.7180  -30.3410 C   0  0  0  0  0  0
  -32.7850   34.0990  -27.9920 O   0  0  0  0  0  0
  -34.0260   33.3010  -31.2300 O   0  5  0  0  0  0
  -32.3030   34.4940  -30.5950 O   0  0  0  0  0  0
  -32.3880   33.5540  -26.7180 C   0  0  0  0  0  0
  -33.5500   33.1770  -25.8260 C   0  0  0  0  0  0
  -31.6410   34.7010  -26.0440 C   0  0  0  0  0  0
  -31.5480   32.2930  -26.8610 C   0  0  0  0  0  0
  -39.0220   32.4220  -27.7230 C   0  0  0  0  0  0
  -40.0120   32.3670  -28.6270 N   0  0  0  0  0  0
  -41.1880   32.1930  -27.9830 C   0  0  0  0  0  0
  -40.8890   32.1280  -26.6280 C   0  0  0  0  0  0
  -39.5550   32.2700  -26.5020 N   0  0  0  0  0  0
  -42.5210   32.0730  -28.4160 C   0  0  0  0  0  0
  -41.9160   31.9450  -25.6950 C   0  0  0  0  0  0
  -43.5470   31.8850  -27.4810 C   0  0  0  0  0  0
  -43.2510   31.8170  -26.1080 C   0  0  0  0  0  0
  -44.5540   31.5700  -24.8700 Cl  0  0  0  0  0  0
  -34.3919   29.8141  -26.8643 H   0  0  0  0  0  0
  -32.9327   27.8757  -27.3751 H   0  0  0  0  0  0
  -32.3162   27.3358  -29.7304 H   0  0  0  0  0  0
  -33.1256   28.8286  -31.5555 H   0  0  0  0  0  0
  -34.5649   30.7909  -31.0472 H   0  0  0  0  0  0
  -38.4815   30.1650  -28.0785 H   0  0  0  0  0  0
  -36.9146   29.4360  -27.5887 H   0  0  0  0  0  0
  -37.3125   29.6235  -29.3303 H   0  0  0  0  0  0
  -34.2281   35.5600  -28.5125 H   0  0  0  0  0  0
  -35.4906   35.9109  -27.2838 H   0  0  0  0  0  0
  -35.8772   36.0463  -29.0328 H   0  0  0  0  0  0
  -32.9223   32.2361  -28.7737 H   0  0  0  0  0  0
  -34.2007   34.0522  -25.6820 H   0  0  0  0  0  0
  -33.1691   32.8388  -24.8510 H   0  0  0  0  0  0
  -34.1252   32.3659  -26.2964 H   0  0  0  0  0  0
  -32.3021   35.5773  -25.9725 H   0  0  0  0  0  0
  -30.7525   34.9596  -26.6388 H   0  0  0  0  0  0
  -31.3299   34.3931  -25.0349 H   0  0  0  0  0  0
  -32.1436   31.5094  -27.3522 H   0  0  0  0  0  0
  -31.2353   31.9459  -25.8651 H   0  0  0  0  0  0
  -30.6580   32.5123  -27.4690 H   0  0  0  0  0  0
  -42.7577   32.1268  -29.4889 H   0  0  0  0  0  0
  -41.6648   31.9020  -24.6249 H   0  0  0  0  0  0
  -44.5790   31.7910  -27.8191 H   0  0  0  0  0  0
  1  2  2  0  0  0
  1  6  1  0  0  0
  1 24  1  0  0  0
  2  3  1  0  0  0
  2 13  1  0  0  0
  3  4  2  0  0  0
  3  7  1  0  0  0
  4  5  1  0  0  0
  4 15  1  0  0  0
  5  6  2  0  0  0
  5 14  1  0  0  0
  7  8  2  0  0  0
  7 12  1  0  0  0
  8  9  1  0  0  0
  8 34  1  0  0  0
  9 10  2  0  0  0
  9 35  1  0  0  0
 10 11  1  0  0  0
 10 36  1  0  0  0
 11 12  2  0  0  0
 11 37  1  0  0  0
 12 38  1  0  0  0
 13 39  1  0  0  0
 13 40  1  0  0  0
 13 41  1  0  0  0
 14 42  1  0  0  0
 14 43  1  0  0  0
 14 44  1  0  0  0
 15 16  1  0  0  0
 15 17  1  0  0  0
 15 45  1  0  0  0
 16 18  1  0  0  0
 16 19  2  0  0  0
 17 20  1  0  0  0
 20 21  1  0  0  0
 20 22  1  0  0  0
 20 23  1  0  0  0
 21 46  1  0  0  0
 21 47  1  0  0  0
 21 48  1  0  0  0
 22 49  1  0  0  0
 22 50  1  0  0  0
 22 51  1  0  0  0
 23 52  1  0  0  0
 23 53  1  0  0  0
 23 54  1  0  0  0
 24 25  2  0  0  0
 24 28  1  0  0  0
 25 26  1  0  0  0
 26 27  1  0  0  0
 26 29  2  0  0  0
 27 28  2  0  0  0
 27 30  1  0  0  0
 29 31  1  0  0  0
 29 55  1  0  0  0
 30 32  2  0  0  0
 30 56  1  0  0  0
 31 32  1  0  0  0
 31 57  1  0  0  0
 32 33  1  0  0  0
M  CHG  1  18  -1
M  END
> <s_m_source_file>
../4o55_ligand.sdf

> <i_m_source_file_index>
1

> <s_epik_input>
W0NIXTFbQ0gyXUMoQ2wpPVtDSF1DKEM9MTIpPU5DKD1OMiljM2MoW0NIM10pYyhjKGMobjMpW0NIM10pW0NAQEhdKEMoPU8pW09IXSlPQyhbQ0gzXSkoW0NIM10pW0NIM10pLWM0W2NIXVtjSF1bY0hdW2NIXVtjSF00

> <s_epik_cmdline>
J2VwaWtfYXBwJywgJy1pbWFlJywgJ2xpZ2FuZF9wcm8ubWFlJywgJy1vbWFlJywgJ2xpZ2FuZF9wcmVwLm1hZScsICctbXMnLCAnMScsICctcGgnLCAnNycsICctcGh0JywgJzAuNScsICctbnQn

> <r_lp_tautomer_probability>
1

> <r_epik_Ionization_Penalty>
  0.0003

> <r_epik_Ionization_Penalty_Charging>
  0.0000

> <r_epik_Ionization_Penalty_Neutral>
  0.0002

> <r_epik_State_Penalty>
 -0.0000

> <r_epik_Charging_Adjusted_Penalty>
3.78333295180559e-05

> <i_epik_Tot_Q>
-1

> <i_epik_Tot_abs_Q>
1

> <s_epik_Chemistry_Notes>
This compound has an imine and may undergo hydrolysis.

$$$$
