4o5b_ligand
                    3D
 Schrodinger Suite 2020-3.
 57 60  0  0  1  0            999 V2000
   37.7150  -32.5780  -27.5560 C   0  0  0  0  0  0
   36.9370  -31.4670  -27.8840 C   0  0  0  0  0  0
   35.6410  -31.6560  -28.2930 C   0  0  0  0  0  0
   35.1440  -32.9500  -28.3460 C   0  0  0  0  0  0
   35.9730  -34.0320  -28.0410 C   0  0  0  0  0  0
   37.2260  -33.8170  -27.6490 N   0  0  0  0  0  0
   34.7640  -30.4990  -28.6420 C   0  0  0  0  0  0
   34.1840  -29.6840  -27.6370 C   0  0  0  0  0  0
   33.3270  -28.6120  -27.9920 C   0  0  0  0  0  0
   33.0710  -28.3240  -29.3370 C   0  0  0  0  0  0
   33.6540  -29.1660  -30.3240 C   0  0  0  0  0  0
   34.4860  -30.2550  -29.9900 C   0  0  0  0  0  0
   37.5190  -30.0680  -27.8110 C   0  0  0  0  0  0
   35.5700  -35.4840  -28.0750 C   0  0  0  0  0  0
   33.7230  -33.1540  -28.7380 C   0  0  1  0  0  0
   33.5400  -33.6540  -30.1630 C   0  0  0  0  0  0
   33.1100  -34.0770  -27.7940 O   0  0  0  0  0  0
   34.3210  -33.1750  -31.0380 O   0  0  0  0  0  0
   32.6120  -34.5000  -30.3910 O   0  5  0  0  0  0
   32.4890  -33.6060  -26.5710 C   0  0  0  0  0  0
   33.5680  -33.3560  -25.5510 C   0  0  0  0  0  0
   31.5540  -34.6790  -25.9950 C   0  0  0  0  0  0
   31.7370  -32.3030  -26.7800 C   0  0  0  0  0  0
   39.1290  -32.4020  -27.1300 C   0  0  0  0  0  0
   40.1830  -32.6270  -27.8990 N   0  0  0  0  0  0
   41.2880  -32.3330  -27.1920 C   0  0  0  0  0  0
   40.8930  -31.9100  -25.9280 C   0  0  0  0  0  0
   39.5480  -31.9690  -25.9210 N   0  0  0  0  0  0
   42.6400  -32.3930  -27.5350 C   0  0  0  0  0  0
   41.8560  -31.5360  -24.9780 C   0  0  0  0  0  0
   43.6040  -32.0250  -26.5980 C   0  0  0  0  0  0
   43.2150  -31.5960  -25.3290 C   0  0  0  0  0  0
   44.5220  -31.1400  -24.1930 Cl  0  0  0  0  0  0
   34.3980  -29.8826  -26.5868 H   0  0  0  0  0  0
   32.8642  -28.0079  -27.2116 H   0  0  0  0  0  0
   32.4432  -27.4791  -29.6202 H   0  0  0  0  0  0
   33.4507  -28.9626  -31.3754 H   0  0  0  0  0  0
   34.9040  -30.8939  -30.7680 H   0  0  0  0  0  0
   38.5616  -30.1223  -27.4646 H   0  0  0  0  0  0
   36.9298  -29.4620  -27.1070 H   0  0  0  0  0  0
   37.4876  -29.6053  -28.8085 H   0  0  0  0  0  0
   34.5250  -35.5668  -28.4084 H   0  0  0  0  0  0
   35.6690  -35.9156  -27.0681 H   0  0  0  0  0  0
   36.2219  -36.0292  -28.7734 H   0  0  0  0  0  0
   33.2222  -32.1772  -28.6667 H   0  0  0  0  0  0
   34.1315  -34.2848  -25.3782 H   0  0  0  0  0  0
   33.1106  -33.0237  -24.6074 H   0  0  0  0  0  0
   34.2501  -32.5769  -25.9223 H   0  0  0  0  0  0
   32.1145  -35.6144  -25.8503 H   0  0  0  0  0  0
   30.7225  -34.8541  -26.6935 H   0  0  0  0  0  0
   31.1552  -34.3373  -25.0285 H   0  0  0  0  0  0
   32.4212  -31.5469  -27.1925 H   0  0  0  0  0  0
   31.3389  -31.9509  -25.8169 H   0  0  0  0  0  0
   30.9063  -32.4677  -27.4820 H   0  0  0  0  0  0
   42.9383  -32.7290  -28.5391 H   0  0  0  0  0  0
   41.5619  -31.2001  -23.9727 H   0  0  0  0  0  0
   44.6618  -32.0724  -26.8568 H   0  0  0  0  0  0
  1  2  2  0  0  0
  1  6  1  0  0  0
  1 24  1  0  0  0
  2  3  1  0  0  0
  2 13  1  0  0  0
  3  4  2  0  0  0
  3  7  1  0  0  0
  4  5  1  0  0  0
  4 15  1  0  0  0
  5  6  2  0  0  0
  5 14  1  0  0  0
  7  8  2  0  0  0
  7 12  1  0  0  0
  8  9  1  0  0  0
  8 34  1  0  0  0
  9 10  2  0  0  0
  9 35  1  0  0  0
 10 11  1  0  0  0
 10 36  1  0  0  0
 11 12  2  0  0  0
 11 37  1  0  0  0
 12 38  1  0  0  0
 13 39  1  0  0  0
 13 40  1  0  0  0
 13 41  1  0  0  0
 14 42  1  0  0  0
 14 43  1  0  0  0
 14 44  1  0  0  0
 15 16  1  0  0  0
 15 17  1  0  0  0
 15 45  1  0  0  0
 16 18  2  0  0  0
 16 19  1  0  0  0
 17 20  1  0  0  0
 20 21  1  0  0  0
 20 22  1  0  0  0
 20 23  1  0  0  0
 21 46  1  0  0  0
 21 47  1  0  0  0
 21 48  1  0  0  0
 22 49  1  0  0  0
 22 50  1  0  0  0
 22 51  1  0  0  0
 23 52  1  0  0  0
 23 53  1  0  0  0
 23 54  1  0  0  0
 24 25  2  0  0  0
 24 28  1  0  0  0
 25 26  1  0  0  0
 26 27  1  0  0  0
 26 29  2  0  0  0
 27 28  2  0  0  0
 27 30  1  0  0  0
 29 31  1  0  0  0
 29 55  1  0  0  0
 30 32  2  0  0  0
 30 56  1  0  0  0
 31 32  1  0  0  0
 31 57  1  0  0  0
 32 33  1  0  0  0
M  CHG  1  19  -1
M  END
> <s_m_source_file>
../4o5b_ligand.sdf

> <i_m_source_file_index>
1

> <s_epik_input>
W0NIXTFbQ0gyXUMoQ2wpPVtDSF1DKEM9MTIpPU5DKD1OMiljM2MoW0NIM10pYyhjKGMobjMpW0NIM10pW0NAQEhdKEMoPU8pW09IXSlPQyhbQ0gzXSkoW0NIM10pW0NIM10pLWM0W2NIXVtjSF1bY0hdW2NIXVtjSF00

> <s_epik_cmdline>
J2VwaWtfYXBwJywgJy1pbWFlJywgJ2xpZ2FuZF9wcm8ubWFlJywgJy1vbWFlJywgJ2xpZ2FuZF9wcmVwLm1hZScsICctbXMnLCAnMScsICctcGgnLCAnNycsICctcGh0JywgJzAuNScsICctbnQn

> <r_lp_tautomer_probability>
1

> <r_epik_Ionization_Penalty>
  0.0003

> <r_epik_Ionization_Penalty_Charging>
  0.0000

> <r_epik_Ionization_Penalty_Neutral>
  0.0002

> <r_epik_State_Penalty>
 -0.0000

> <r_epik_Charging_Adjusted_Penalty>
3.78333295180559e-05

> <i_epik_Tot_Q>
-1

> <i_epik_Tot_abs_Q>
1

> <s_epik_Chemistry_Notes>
This compound has an imine and may undergo hydrolysis.

$$$$
