4o5g_ligand
                    3D
 Schrodinger Suite 2020-3.
 24 25  0  0  1  0            999 V2000
   56.9420  460.7870   30.7580 O   0  0  0  0  0  0
   57.9420  460.2980   30.2450 C   0  0  0  0  0  0
   57.9640  458.9860   29.9470 N   0  0  0  0  0  0
   59.1150  458.5910   29.4040 C   0  0  0  0  0  0
   59.4020  457.3530   29.0100 N   0  0  0  0  0  0
   60.1040  459.8400   29.3010 S   0  0  0  0  0  0
   59.0870  460.9510   29.9590 C   0  0  0  0  0  0
   59.5240  462.2210   30.0690 C   0  0  0  0  0  0
   58.8390  463.3510   30.5380 C   0  0  0  0  0  0
   59.6070  464.5040   30.6160 C   0  0  0  0  0  0
   59.0740  465.6930   31.0880 C   0  0  0  0  0  0
   57.7490  465.7580   31.4840 C   0  0  0  0  0  0
   57.2400  466.9030   31.9260 N   0  0  0  0  0  0
   56.9660  464.6180   31.4160 C   0  0  0  0  0  0
   57.5170  463.4280   30.9600 C   0  0  0  0  0  0
   57.0847  458.3594   30.1572 H   0  0  0  0  0  0
   60.3866  457.1290   28.5736 H   0  0  0  0  0  0
   60.5502  462.4777   29.7671 H   0  0  0  0  0  0
   60.6497  464.4740   30.2999 H   0  0  0  0  0  0
   59.7016  466.5822   31.1478 H   0  0  0  0  0  0
   57.8711  467.8026   31.9758 H   0  0  0  0  0  0
   56.1875  466.9513   32.2421 H   0  0  0  0  0  0
   55.9198  464.6548   31.7197 H   0  0  0  0  0  0
   56.8973  462.5317   30.9323 H   0  0  0  0  0  0
  1  2  2  0  0  0
  2  3  1  0  0  0
  2  7  1  0  0  0
  3  4  1  0  0  0
  3 16  1  0  0  0
  4  5  2  0  0  0
  4  6  1  0  0  0
  5 17  1  0  0  0
  6  7  1  0  0  0
  7  8  2  0  0  0
  8  9  1  0  0  0
  8 18  1  0  0  0
  9 10  2  0  0  0
  9 15  1  0  0  0
 10 11  1  0  0  0
 10 19  1  0  0  0
 11 12  2  0  0  0
 11 20  1  0  0  0
 12 13  1  0  0  0
 12 14  1  0  0  0
 13 21  1  0  0  0
 13 22  1  0  0  0
 14 15  2  0  0  0
 14 23  1  0  0  0
 15 24  1  0  0  0
M  END
> <s_m_source_file>
../4o5g_ligand.sdf

> <i_m_source_file_index>
1

> <s_epik_input>
Tz1DMVtOSF0vQyg9Ti9bSF0pU0NcMT1bQ0hdXGMyW2NIXVtjSF1jKFtOSDJdKVtjSF1bY0hdMg==

> <s_epik_cmdline>
J2VwaWtfYXBwJywgJy1pbWFlJywgJ2xpZ2FuZF9wcm8ubWFlJywgJy1vbWFlJywgJ2xpZ2FuZF9wcmVwLm1hZScsICctbXMnLCAnMScsICctcGgnLCAnNycsICctcGh0JywgJzAuNScsICctbnQn

> <r_lp_tautomer_probability>
1

> <r_epik_Ionization_Penalty>
  0.0034

> <r_epik_Ionization_Penalty_Charging>
  0.0000

> <r_epik_Ionization_Penalty_Neutral>
  0.0034

> <r_epik_State_Penalty>
 -0.0000

> <r_epik_Charging_Adjusted_Penalty>
0

> <i_epik_Tot_Q>
0

> <i_epik_Tot_abs_Q>
0

> <s_epik_Chemistry_Notes>
This compound has an imine and may undergo hydrolysis.

$$$$
