4o6e_ligand
                    3D
 Schrodinger Suite 2020-3.
 56 59  0  0  1  0            999 V2000
   14.3980   11.4050   12.8610 C   0  0  0  0  0  0
   14.3830   10.0830   12.4440 C   0  0  0  0  0  0
   13.3230    9.2370   12.7760 C   0  0  0  0  0  0
   13.3580    7.7780   12.3740 C   0  0  1  0  0  0
   16.2560    5.7090   15.8260 C   0  0  0  0  0  0
   18.4820    4.9640   15.0140 C   0  0  0  0  0  0
   20.6540    5.4400   13.5220 C   0  0  0  0  0  0
   18.4370    5.8990   13.9950 C   0  0  0  0  0  0
   23.3220    6.8230   11.3060 C   0  0  0  0  0  0
   12.3140    9.7050   13.6110 C   0  0  0  0  0  0
   12.3260   11.0310   14.0390 C   0  0  0  0  0  0
   13.3770   11.8780   13.6830 C   0  0  0  0  0  0
   13.3900    7.5410   10.8630 C   0  0  0  0  0  0
   12.1680    8.0070   10.3020 O   0  0  0  0  0  0
   14.6230    7.2840   12.9230 N   0  0  0  0  0  0
   14.7660    6.6570   14.1130 C   0  0  0  0  0  0
   13.7840    6.3850   14.8090 O   0  0  0  0  0  0
   16.0280    6.3160   14.4940 N   0  0  0  0  0  0
   17.2910    4.5910   15.8510 C   0  0  0  0  0  0
   19.6680    4.2650   15.2390 C   0  0  0  0  0  0
   20.7330    4.5340   14.4960 N   0  0  0  0  0  0
   19.5400    6.1230   13.2780 N   0  0  0  0  0  0
   17.2030    6.7010   13.6610 C   0  0  0  0  0  0
   21.7980    5.6960   12.8020 N   0  0  0  0  0  0
   21.8300    6.5590   11.6180 C   0  0  0  0  0  0
   23.4110    7.6330   10.0050 C   0  0  0  0  0  0
   22.7350    6.8990    8.9720 O   0  0  0  0  0  0
   21.3240    6.6820    9.1490 C   0  0  0  0  0  0
   21.1120    5.8650   10.4370 C   0  0  0  0  0  0
   15.7150   12.4350   12.3690 Cl  0  0  0  0  0  0
   13.3920   13.1650   14.1040 F   0  0  0  0  0  0
   15.2108    9.6984   11.8482 H   0  0  0  0  0  0
   12.4686    7.2649   12.7687 H   0  0  0  0  0  0
   16.6075    6.4816   16.5257 H   0  0  0  0  0  0
   15.3150    5.2778   16.1984 H   0  0  0  0  0  0
   23.7748    7.3896   12.1330 H   0  0  0  0  0  0
   23.8472    5.8637   11.1879 H   0  0  0  0  0  0
   11.5151    9.0356   13.9301 H   0  0  0  0  0  0
   11.5102   11.4090   14.6552 H   0  0  0  0  0  0
   14.2360    8.0898   10.4236 H   0  0  0  0  0  0
   13.5069    6.4657   10.6629 H   0  0  0  0  0  0
   11.9937    7.9257    9.2189 H   0  0  0  0  0  0
   15.5564    7.4122   12.3552 H   0  0  0  0  0  0
   17.6197    4.4187   16.8865 H   0  0  0  0  0  0
   16.8447    3.6691   15.4498 H   0  0  0  0  0  0
   19.7189    3.5047   16.0184 H   0  0  0  0  0  0
   17.4028    7.7692   13.8312 H   0  0  0  0  0  0
   16.9364    6.5414   12.6058 H   0  0  0  0  0  0
   22.7212    5.2145   13.1567 H   0  0  0  0  0  0
   21.2939    7.4932   11.8413 H   0  0  0  0  0  0
   22.9307    8.6121   10.1491 H   0  0  0  0  0  0
   24.4674    7.7789    9.7355 H   0  0  0  0  0  0
   20.8114    7.6518    9.2314 H   0  0  0  0  0  0
   20.9267    6.1295    8.2848 H   0  0  0  0  0  0
   21.5243    4.8544   10.3000 H   0  0  0  0  0  0
   20.0354    5.7957   10.6520 H   0  0  0  0  0  0
  1  2  2  0  0  0
  1 12  1  0  0  0
  1 30  1  0  0  0
  2  3  1  0  0  0
  2 32  1  0  0  0
  3  4  1  0  0  0
  3 10  2  0  0  0
  4 13  1  0  0  0
  4 15  1  0  0  0
  4 33  1  0  0  0
  5 18  1  0  0  0
  5 19  1  0  0  0
  5 34  1  0  0  0
  5 35  1  0  0  0
  6  8  2  0  0  0
  6 19  1  0  0  0
  6 20  1  0  0  0
  7 21  1  0  0  0
  7 22  2  0  0  0
  7 24  1  0  0  0
  8 22  1  0  0  0
  8 23  1  0  0  0
  9 25  1  0  0  0
  9 26  1  0  0  0
  9 36  1  0  0  0
  9 37  1  0  0  0
 10 11  1  0  0  0
 10 38  1  0  0  0
 11 12  2  0  0  0
 11 39  1  0  0  0
 12 31  1  0  0  0
 13 14  1  0  0  0
 13 40  1  0  0  0
 13 41  1  0  0  0
 14 42  1  0  0  0
 15 16  1  0  0  0
 15 43  1  0  0  0
 16 17  2  0  0  0
 16 18  1  0  0  0
 18 23  1  0  0  0
 19 44  1  0  0  0
 19 45  1  0  0  0
 20 21  2  0  0  0
 20 46  1  0  0  0
 23 47  1  0  0  0
 23 48  1  0  0  0
 24 25  1  0  0  0
 24 49  1  0  0  0
 25 29  1  0  0  0
 25 50  1  0  0  0
 26 27  1  0  0  0
 26 51  1  0  0  0
 26 52  1  0  0  0
 27 28  1  0  0  0
 28 29  1  0  0  0
 28 53  1  0  0  0
 28 54  1  0  0  0
 29 55  1  0  0  0
 29 56  1  0  0  0
M  END
> <s_m_source_file>
../4o6e_ligand.sdf

> <i_m_source_file_index>
1

> <s_epik_input>
RmMxW2NIXVtjSF1jKFtjSF1jMUNsKVtDQEBIXShbQ0gyXVtPSF0pW05IXUMoPU8pTihbQ0gyXVtDSDJdMilbQ0gyXWMoYzIzKW5jKG5bY0hdMylbTkhdW0NIXTRbQ0gyXVtDSDJdT1tDSDJdW0NIMl00

> <s_epik_cmdline>
J2VwaWtfYXBwJywgJy1pbWFlJywgJ2xpZ2FuZF9wcm8ubWFlJywgJy1vbWFlJywgJ2xpZ2FuZF9wcmVwLm1hZScsICctbXMnLCAnMScsICctcGgnLCAnNycsICctcGh0JywgJzAuNScsICctbnQn

> <r_lp_tautomer_probability>
1

> <r_epik_Ionization_Penalty>
  0.0065

> <r_epik_Ionization_Penalty_Charging>
  0.0000

> <r_epik_Ionization_Penalty_Neutral>
  0.0065

> <r_epik_State_Penalty>
 -0.0000

> <r_epik_Charging_Adjusted_Penalty>
0

> <i_epik_Tot_Q>
0

> <i_epik_Tot_abs_Q>
0

$$$$
