4o6w_ligand
                    3D
 Schrodinger Suite 2020-3.
125127  0  0  1  0            999 V2000
    4.9080   17.4060   14.1240 C   0  0  0  0  0  0
    5.1970   17.9060   13.0510 O   0  0  0  0  0  0
    3.5220   17.5910   14.7010 C   0  0  0  0  0  0
    5.8280   16.6800   14.8020 N   0  0  0  0  0  0
    7.2140   16.4190   14.3560 C   0  0  2  0  0  0
    7.2650   15.6240   13.0640 C   0  0  0  0  0  0
    6.4350   14.7430   12.8560 O   0  0  0  0  0  0
    7.8810   15.5330   15.4390 C   0  0  0  0  0  0
    6.9550   15.5880   16.6790 C   0  0  0  0  0  0
    5.6020   16.0260   16.1030 C   0  0  0  0  0  0
    8.2390   15.9230   12.1690 N   0  0  0  0  0  0
    8.3740   15.2120   10.8820 C   0  0  2  0  0  0
    9.4000   14.0910   10.9600 C   0  0  0  0  0  0
    9.7090   13.4380    9.9590 O   0  0  0  0  0  0
    8.7030   16.1930    9.7500 C   0  0  0  0  0  0
    7.5300   17.1260    9.4860 C   0  0  0  0  0  0
    7.9450   17.9990    8.2880 C   0  0  0  0  0  0
    6.2910   16.3500    9.0600 C   0  0  0  0  0  0
   10.9320   12.4200   13.7700 C   0  0  0  0  0  0
   10.9570   12.7500   12.3100 C   0  0  2  0  0  0
   12.3840   13.0230   11.8350 C   0  0  0  0  0  0
   12.9060   14.3300   12.3650 C   0  0  0  0  0  0
   13.4260   14.5700   13.5880 C   0  0  0  0  0  0
   13.7570   15.8880   13.6170 N   0  3  0  0  0  0
   13.4540   16.4320   12.4710 C   0  0  0  0  0  0
   12.9210   15.5100   11.6530 N   0  0  0  0  0  0
   12.4470   15.7040   10.2820 C   0  0  0  0  0  0
   13.6180   15.3550    9.3790 C   0  0  0  0  0  0
   13.2040   15.4300    7.9250 C   0  0  0  0  0  0
   14.4320   15.0370    7.0990 C   0  0  0  0  0  0
   13.9440   14.7230    5.7000 C   0  0  0  0  0  0
   15.1570   14.4020    4.8110 C   0  0  0  0  0  0
   15.5450   12.9270    5.0260 C   0  0  0  0  0  0
   16.6150   12.5100    3.9880 C   0  0  0  0  0  0
   16.0760   12.5070    2.5670 C   0  0  0  0  0  0
   15.1490   11.5550    2.1950 C   0  0  0  0  0  0
   14.6380   11.5260    0.9150 C   0  0  0  0  0  0
   15.0580   12.4590   -0.0070 C   0  0  0  0  0  0
   15.9840   13.4170    0.3510 C   0  0  0  0  0  0
   16.4960   13.4480    1.6340 C   0  0  0  0  0  0
    9.9600   13.8310   12.1540 N   0  0  0  0  0  0
   10.4470   13.1850   14.6040 O   0  0  0  0  0  0
   14.3640   16.5950   14.7700 C   0  0  0  0  0  0
   11.4810   11.2290   14.0760 N   0  0  0  0  0  0
   11.5500   10.7310   15.4440 C   0  0  2  0  0  0
   12.5800   11.4840   16.2380 C   0  0  0  0  0  0
   13.3290   12.3260   15.7260 O   0  0  0  0  0  0
   11.6950    9.2080   15.3930 C   0  0  0  0  0  0
   12.9140    8.8660   14.7370 O   0  0  0  0  0  0
   12.6580   11.2090   17.5420 N   0  0  0  0  0  0
   13.6040   11.8820   18.4400 C   0  0  1  0  0  0
   13.3250   11.3920   19.8620 C   0  0  1  0  0  0
   14.0430   12.1910   20.9440 C   0  0  0  0  0  0
   11.9400   11.5270   20.1640 O   0  0  0  0  0  0
   11.0460   10.1980   20.3610 P   0  0  0  0  0  0
   11.0240    9.5170   19.0570 O   0  0  0  0  0  0
    9.6370   10.8140   20.7770 O   0  5  0  0  0  0
   11.6700    9.3500   21.5040 O   0  5  0  0  0  0
   15.0650   11.7840   18.1420 C   0  0  0  0  0  0
   15.5550   10.7230   17.8590 O   0  0  0  0  0  0
   15.7680   12.9540   18.2170 N   0  0  0  0  0  0
    2.9184   18.2041   14.0156 H   0  0  0  0  0  0
    3.5950   18.0950   15.6760 H   0  0  0  0  0  0
    3.0448   16.6085   14.8309 H   0  0  0  0  0  0
    7.6770   17.4032   14.1917 H   0  0  0  0  0  0
    7.9758   14.5035   15.0632 H   0  0  0  0  0  0
    8.8792   15.9307   15.6745 H   0  0  0  0  0  0
    6.9072   14.5929   17.1453 H   0  0  0  0  0  0
    7.3544   16.3134   17.4031 H   0  0  0  0  0  0
    5.1166   16.7346   16.7902 H   0  0  0  0  0  0
    4.9544   15.1477   15.9643 H   0  0  0  0  0  0
    8.9433   16.7267   12.4299 H   0  0  0  0  0  0
    7.3923   14.7525   10.6945 H   0  0  0  0  0  0
    9.5795   16.7957   10.0303 H   0  0  0  0  0  0
    8.9233   15.6311    8.8303 H   0  0  0  0  0  0
    7.2951   17.6888   10.4015 H   0  0  0  0  0  0
    8.8408   18.5806    8.5511 H   0  0  0  0  0  0
    7.1241   18.6853    8.0326 H   0  0  0  0  0  0
    8.1666   17.3549    7.4243 H   0  0  0  0  0  0
    5.9568   15.7090    9.8891 H   0  0  0  0  0  0
    6.5318   15.7250    8.1874 H   0  0  0  0  0  0
    5.4894   17.0554    8.7958 H   0  0  0  0  0  0
   10.6338   11.9328   11.6484 H   0  0  0  0  0  0
   13.0471   12.2180   12.1846 H   0  0  0  0  0  0
   12.4034   13.0626   10.7359 H   0  0  0  0  0  0
   13.5550   13.8479   14.3943 H   0  0  0  0  0  0
   13.6103   17.4799   12.2151 H   0  0  0  0  0  0
   11.5893   15.0416   10.0934 H   0  0  0  0  0  0
   12.1387   16.7510   10.1453 H   0  0  0  0  0  0
   14.4403   16.0643    9.5543 H   0  0  0  0  0  0
   13.9610   14.3338    9.6015 H   0  0  0  0  0  0
   12.3712   14.7344    7.7445 H   0  0  0  0  0  0
   12.8835   16.4551    7.6874 H   0  0  0  0  0  0
   15.1459   15.8737    7.0826 H   0  0  0  0  0  0
   14.9107   14.1554    7.5503 H   0  0  0  0  0  0
   13.2674   13.8564    5.7336 H   0  0  0  0  0  0
   13.4058   15.5929    5.2955 H   0  0  0  0  0  0
   14.8935   14.5707    3.7564 H   0  0  0  0  0  0
   15.9976   15.0552    5.0879 H   0  0  0  0  0  0
   15.9522   12.7990    6.0398 H   0  0  0  0  0  0
   14.6546   12.2923    4.9057 H   0  0  0  0  0  0
   17.4593   13.2139    4.0288 H   0  0  0  0  0  0
   16.9723   11.4952    4.2171 H   0  0  0  0  0  0
   14.8161   10.8156    2.9234 H   0  0  0  0  0  0
   13.9057   10.7690    0.6342 H   0  0  0  0  0  0
   14.6583   12.4405   -1.0209 H   0  0  0  0  0  0
   16.3134   14.1533   -0.3821 H   0  0  0  0  0  0
   17.2264   14.2073    1.9134 H   0  0  0  0  0  0
    9.6657   14.4374   13.0233 H   0  0  0  0  0  0
   14.5078   15.8872   15.5997 H   0  0  0  0  0  0
   13.6979   17.4085   15.0932 H   0  0  0  0  0  0
   15.3367   17.0138   14.4725 H   0  0  0  0  0  0
   11.8860   10.6259   13.2500 H   0  0  0  0  0  0
   10.6136   10.9613   15.9732 H   0  0  0  0  0  0
   11.7054    8.8062   16.4169 H   0  0  0  0  0  0
   10.8480    8.7774   14.8387 H   0  0  0  0  0  0
   13.1905    7.8094   14.6061 H   0  0  0  0  0  0
   11.9749   10.4426   17.9370 H   0  0  0  0  0  0
   13.4047   12.9468   18.2492 H   0  0  0  0  0  0
   13.6141   10.3310   19.8903 H   0  0  0  0  0  0
   15.1294   12.1363   20.7801 H   0  0  0  0  0  0
   13.7996   11.7721   21.9315 H   0  0  0  0  0  0
   13.7180   13.2410   20.9009 H   0  0  0  0  0  0
   15.2530   13.8891   18.4823 H   0  0  0  0  0  0
   16.8487   12.9604   18.0121 H   0  0  0  0  0  0
  1  2  2  0  0  0
  1  3  1  0  0  0
  1  4  1  0  0  0
  3 62  1  0  0  0
  3 63  1  0  0  0
  3 64  1  0  0  0
  4  5  1  0  0  0
  4 10  1  0  0  0
  5  6  1  0  0  0
  5  8  1  0  0  0
  5 65  1  0  0  0
  6  7  2  0  0  0
  6 11  1  0  0  0
  8  9  1  0  0  0
  8 66  1  0  0  0
  8 67  1  0  0  0
  9 10  1  0  0  0
  9 68  1  0  0  0
  9 69  1  0  0  0
 10 70  1  0  0  0
 10 71  1  0  0  0
 11 12  1  0  0  0
 11 72  1  0  0  0
 12 13  1  0  0  0
 12 15  1  0  0  0
 12 73  1  0  0  0
 13 14  2  0  0  0
 13 41  1  0  0  0
 15 16  1  0  0  0
 15 74  1  0  0  0
 15 75  1  0  0  0
 16 17  1  0  0  0
 16 18  1  0  0  0
 16 76  1  0  0  0
 17 77  1  0  0  0
 17 78  1  0  0  0
 17 79  1  0  0  0
 18 80  1  0  0  0
 18 81  1  0  0  0
 18 82  1  0  0  0
 19 20  1  0  0  0
 19 42  2  0  0  0
 19 44  1  0  0  0
 20 21  1  0  0  0
 20 41  1  0  0  0
 20 83  1  0  0  0
 21 22  1  0  0  0
 21 84  1  0  0  0
 21 85  1  0  0  0
 22 23  2  0  0  0
 22 26  1  0  0  0
 23 24  1  0  0  0
 23 86  1  0  0  0
 24 25  2  0  0  0
 24 43  1  0  0  0
 25 26  1  0  0  0
 25 87  1  0  0  0
 26 27  1  0  0  0
 27 28  1  0  0  0
 27 88  1  0  0  0
 27 89  1  0  0  0
 28 29  1  0  0  0
 28 90  1  0  0  0
 28 91  1  0  0  0
 29 30  1  0  0  0
 29 92  1  0  0  0
 29 93  1  0  0  0
 30 31  1  0  0  0
 30 94  1  0  0  0
 30 95  1  0  0  0
 31 32  1  0  0  0
 31 96  1  0  0  0
 31 97  1  0  0  0
 32 33  1  0  0  0
 32 98  1  0  0  0
 32 99  1  0  0  0
 33 34  1  0  0  0
 33100  1  0  0  0
 33101  1  0  0  0
 34 35  1  0  0  0
 34102  1  0  0  0
 34103  1  0  0  0
 35 36  2  0  0  0
 35 40  1  0  0  0
 36 37  1  0  0  0
 36104  1  0  0  0
 37 38  2  0  0  0
 37105  1  0  0  0
 38 39  1  0  0  0
 38106  1  0  0  0
 39 40  2  0  0  0
 39107  1  0  0  0
 40108  1  0  0  0
 41109  1  0  0  0
 43110  1  0  0  0
 43111  1  0  0  0
 43112  1  0  0  0
 44 45  1  0  0  0
 44113  1  0  0  0
 45 46  1  0  0  0
 45 48  1  0  0  0
 45114  1  0  0  0
 46 47  2  0  0  0
 46 50  1  0  0  0
 48 49  1  0  0  0
 48115  1  0  0  0
 48116  1  0  0  0
 49117  1  0  0  0
 50 51  1  0  0  0
 50118  1  0  0  0
 51 52  1  0  0  0
 51 59  1  0  0  0
 51119  1  0  0  0
 52 53  1  0  0  0
 52 54  1  0  0  0
 52120  1  0  0  0
 53121  1  0  0  0
 53122  1  0  0  0
 53123  1  0  0  0
 54 55  1  0  0  0
 55 56  2  0  0  0
 55 57  1  0  0  0
 55 58  1  0  0  0
 59 60  2  0  0  0
 59 61  1  0  0  0
 61124  1  0  0  0
 61125  1  0  0  0
M  CHG  3  24   1  57  -1  58  -1
M  END
> <s_m_source_file>
../4o6w_ligand.sdf

> <i_m_source_file_index>
1

> <s_epik_input>
Tz1QKFtPSF0pKFtPSF0pT1tDQEhdKFtDSDNdKVtDQEBIXShDKD1PKVtOSDJdKVtOSF1DKD1PKVtDQEhdKFtDSDJdW09IXSlbTkhdQyg9TylbQ0BASF0oW05IXUMoPU8pW0NASF0oW0NIMl1bQ0hdKFtDSDNdKVtDSDNdKVtOSF1DKD1PKVtDQEBIXShOMUMoPU8pW0NIM10pW0NIMl1bQ0gyXVtDSDJdMSlbQ0gyXWMyW2NIXVtuK10oW0NIM10pW2NIXW4yW0NIMl1bQ0gyXVtDSDJdW0NIMl1bQ0gyXVtDSDJdW0NIMl1bQ0gyXWMzW2NIXVtjSF1bY0hdW2NIXVtjSF0z

> <s_epik_cmdline>
J2VwaWtfYXBwJywgJy1pbWFlJywgJ2xpZ2FuZF9wcm8ubWFlJywgJy1vbWFlJywgJ2xpZ2FuZF9wcmVwLm1hZScsICctbXMnLCAnMScsICctcGgnLCAnNycsICctcGh0JywgJzAuNScsICctbnQn

> <r_lp_tautomer_probability>
1

> <r_epik_Ionization_Penalty>
  0.0862

> <r_epik_Ionization_Penalty_Charging>
  0.0862

> <r_epik_Ionization_Penalty_Neutral>
  0.0000

> <r_epik_State_Penalty>
  0.0767

> <r_epik_Charging_Adjusted_Penalty>
0.162909030390379

> <i_epik_Tot_Q>
-1

> <i_epik_Tot_abs_Q>
3

$$$$
