4o70_ligand
                    3D
 Schrodinger Suite 2020-3.
 59 62  0  0  1  0            999 V2000
   30.6940  -33.6340  -21.5740 C   0  0  0  0  0  0
   32.7460  -33.3250  -20.2740 N   0  0  0  0  0  0
   33.5870  -33.9860  -21.2810 C   0  0  0  0  0  0
   35.6690  -33.2690  -22.6150 C   0  0  0  0  0  0
   35.4880  -31.5170  -24.1930 C   0  0  0  0  0  0
   28.9730  -34.7240  -23.6780 C   0  0  0  0  0  0
   27.9000  -33.3870  -25.4350 C   0  0  0  0  0  0
   27.2530  -33.0690  -23.0590 C   0  0  1  0  0  0
   26.0780  -34.5620  -21.4040 C   0  0  0  0  0  0
   27.5290  -30.1470  -17.1970 C   0  0  0  0  0  0
   27.6610  -31.2050  -18.1890 C   0  0  0  0  0  0
   29.0410  -31.6240  -18.4340 C   0  0  0  0  0  0
   30.1710  -31.4360  -17.6750 C   0  0  0  0  0  0
   31.2070  -32.0210  -18.3370 N   0  0  0  0  0  0
   30.7020  -32.5010  -19.5000 N   0  0  0  0  0  0
   29.3960  -32.3060  -19.5700 C   0  0  0  0  0  0
   28.6850  -32.7170  -20.6390 N   0  0  0  0  0  0
   29.3660  -33.3860  -21.6120 C   0  0  0  0  0  0
   31.3600  -33.1920  -20.4750 C   0  0  0  0  0  0
   34.2860  -33.0700  -22.3200 C   0  0  0  0  0  0
   36.2380  -32.4770  -23.5790 C   0  0  0  0  0  0
   34.1570  -31.3320  -23.9310 N   0  0  0  0  0  0
   33.5950  -32.0980  -23.0000 C   0  0  0  0  0  0
   33.4870  -30.3870  -24.5870 O   0  0  0  0  0  0
   28.5080  -33.7420  -22.7410 N   0  0  0  0  0  0
   29.1330  -34.0640  -25.0050 C   0  0  0  0  0  0
   27.3260  -32.4880  -24.4130 C   0  0  0  0  0  0
   26.0770  -33.9890  -22.7950 C   0  0  0  0  0  0
   25.9600  -33.6400  -20.3980 O   0  0  0  0  0  0
   31.2034  -34.1602  -22.3813 H   0  0  0  0  0  0
   33.1991  -32.9289  -19.3532 H   0  0  0  0  0  0
   34.3958  -34.5370  -20.7787 H   0  0  0  0  0  0
   32.9747  -34.6871  -21.8671 H   0  0  0  0  0  0
   36.2414  -34.0378  -22.0752 H   0  0  0  0  0  0
   35.9498  -30.8493  -24.9353 H   0  0  0  0  0  0
   29.9383  -35.1271  -23.3379 H   0  0  0  0  0  0
   28.2390  -35.5403  -23.7482 H   0  0  0  0  0  0
   28.1084  -32.7771  -26.3264 H   0  0  0  0  0  0
   27.1339  -34.1387  -25.6760 H   0  0  0  0  0  0
   27.1226  -32.2006  -22.3965 H   0  0  0  0  0  0
   25.2336  -35.2583  -21.2937 H   0  0  0  0  0  0
   27.0217  -35.0995  -21.2295 H   0  0  0  0  0  0
   26.4663  -29.8917  -17.0724 H   0  0  0  0  0  0
   28.0827  -29.2580  -17.5332 H   0  0  0  0  0  0
   27.9383  -30.4922  -16.2361 H   0  0  0  0  0  0
   27.1073  -32.0940  -17.8528 H   0  0  0  0  0  0
   27.2517  -30.8598  -19.1499 H   0  0  0  0  0  0
   30.2275  -30.9148  -16.7194 H   0  0  0  0  0  0
   37.2934  -32.6125  -23.8580 H   0  0  0  0  0  0
   32.7569  -32.5571  -23.5447 H   0  0  0  0  0  0
   33.2063  -31.3570  -22.2860 H   0  0  0  0  0  0
   33.9972  -29.7793  -25.3488 H   0  0  0  0  0  0
   29.9350  -33.3133  -24.9468 H   0  0  0  0  0  0
   29.3921  -34.8195  -25.7614 H   0  0  0  0  0  0
   27.9402  -31.5785  -24.3382 H   0  0  0  0  0  0
   26.2997  -32.2148  -24.6997 H   0  0  0  0  0  0
   25.1382  -33.4306  -22.9251 H   0  0  0  0  0  0
   26.1039  -34.8308  -23.5026 H   0  0  0  0  0  0
   25.9516  -33.9692  -19.3484 H   0  0  0  0  0  0
  1 18  1  0  0  0
  1 19  2  0  0  0
  1 30  1  0  0  0
  2  3  1  0  0  0
  2 19  1  0  0  0
  2 31  1  0  0  0
  3 20  1  0  0  0
  3 32  1  0  0  0
  3 33  1  0  0  0
  4 20  2  0  0  0
  4 21  1  0  0  0
  4 34  1  0  0  0
  5 21  2  0  0  0
  5 22  1  0  0  0
  5 35  1  0  0  0
  6 25  1  0  0  0
  6 26  1  0  0  0
  6 36  1  0  0  0
  6 37  1  0  0  0
  7 26  1  0  0  0
  7 27  1  0  0  0
  7 38  1  0  0  0
  7 39  1  0  0  0
  8 25  1  0  0  0
  8 27  1  0  0  0
  8 28  1  0  0  0
  8 40  1  0  0  0
  9 28  1  0  0  0
  9 29  1  0  0  0
  9 41  1  0  0  0
  9 42  1  0  0  0
 10 11  1  0  0  0
 10 43  1  0  0  0
 10 44  1  0  0  0
 10 45  1  0  0  0
 11 12  1  0  0  0
 11 46  1  0  0  0
 11 47  1  0  0  0
 12 13  1  0  0  0
 12 16  2  0  0  0
 13 14  2  0  0  0
 13 48  1  0  0  0
 14 15  1  0  0  0
 15 16  1  0  0  0
 15 19  1  0  0  0
 16 17  1  0  0  0
 17 18  2  0  0  0
 18 25  1  0  0  0
 20 23  1  0  0  0
 21 49  1  0  0  0
 22 23  1  0  0  0
 22 24  1  0  0  0
 23 50  1  0  0  0
 23 51  1  0  0  0
 24 52  1  0  0  0
 26 53  1  0  0  0
 26 54  1  0  0  0
 27 55  1  0  0  0
 27 56  1  0  0  0
 28 57  1  0  0  0
 28 58  1  0  0  0
 29 59  1  0  0  0
M  END
> <s_m_source_file>
../4o70_ligand.sdf

> <i_m_source_file_index>
1

> <s_epik_input>
W0NIM11bQ0gyXWMoW2NIXW4xKWMobjEyKW5jKE4oW0NIMl1bQ0gyXVtDSDJdW0NIMl0zKVtDQEBIXTNbQ0gyXVtDSDJdW09IXSlbY0hdYzJbTkhdW0NIMl1DND1bQ0hdW0NIXT1bQ0hdTihbQ0gyXTQpW09IXQ==

> <s_epik_cmdline>
J2VwaWtfYXBwJywgJy1pbWFlJywgJ2xpZ2FuZF9wcm8ubWFlJywgJy1vbWFlJywgJ2xpZ2FuZF9wcmVwLm1hZScsICctbXMnLCAnMScsICctcGgnLCAnNycsICctcGh0JywgJzAuNScsICctbnQn

> <r_lp_tautomer_probability>
1

> <r_epik_Ionization_Penalty>
  0.0012

> <r_epik_Ionization_Penalty_Charging>
  0.0000

> <r_epik_Ionization_Penalty_Neutral>
  0.0012

> <r_epik_State_Penalty>
 -0.0000

> <r_epik_Charging_Adjusted_Penalty>
0

> <i_epik_Tot_Q>
0

> <i_epik_Tot_abs_Q>
0

> <s_epik_Chemistry_Notes>
This compound has a N-S or N-O group and may undergo hydrolysis at high or low pH.

$$$$
