4o71_ligand
                    3D
 Schrodinger Suite 2020-3.
 49 52  0  0  1  0            999 V2000
   27.0900  100.4270   27.5010 C   0  0  0  0  0  0
   26.4670  100.7190   28.8150 N   0  3  1  0  0  0
   25.0380  100.2950   28.8180 C   0  0  0  0  0  0
   24.3750  100.6190   30.1690 C   0  0  0  0  0  0
   25.1950  100.0420   31.3660 C   0  0  1  0  0  0
   26.6730  100.4740   31.2660 C   0  0  1  0  0  0
   27.2620  100.0830   29.9100 C   0  0  0  0  0  0
   24.4590  100.2270   32.6710 C   0  0  0  0  0  0
   23.8450   99.1140   33.2910 C   0  0  0  0  0  0
   23.9750   97.9010   32.6920 O   0  0  0  0  0  0
   23.3880   96.7680   33.1690 C   0  0  0  0  0  0
   22.6530   96.8200   34.3640 C   0  0  0  0  0  0
   22.5060   98.0540   35.0560 C   0  0  0  0  0  0
   21.8250   98.1310   36.1330 O   0  0  0  0  0  0
   23.1120   99.2150   34.5050 C   0  0  0  0  0  0
   23.0040  100.4820   35.0980 C   0  0  0  0  0  0
   22.3020  100.6520   36.2360 O   0  0  0  0  0  0
   23.6040  101.5800   34.4950 C   0  0  0  0  0  0
   24.3280  101.4780   33.3090 C   0  0  0  0  0  0
   24.8560  102.6010   32.7810 O   0  0  0  0  0  0
   23.6090   95.6000   32.3970 C   0  0  0  0  0  0
   23.5110   95.5980   30.9720 C   0  0  0  0  0  0
   23.0760   96.9750   30.0810 Cl  0  0  0  0  0  0
   23.7540   94.4150   30.2590 C   0  0  0  0  0  0
   24.0820   93.2380   30.9250 C   0  0  0  0  0  0
   24.1780   93.2350   32.3130 C   0  0  0  0  0  0
   23.9410   94.4040   33.0300 C   0  0  0  0  0  0
   26.8050  101.8760   31.4330 O   0  0  0  0  0  0
   26.4989  100.8985   26.7021 H   0  0  0  0  0  0
   27.1187   99.3389   27.3425 H   0  0  0  0  0  0
   28.1145  100.8271   27.4840 H   0  0  0  0  0  0
   26.4758  101.8052   28.9885 H   0  0  0  0  0  0
   24.4965  100.8254   28.0209 H   0  0  0  0  0  0
   24.9769   99.2106   28.6439 H   0  0  0  0  0  0
   24.3048  101.7100   30.2907 H   0  0  0  0  0  0
   23.3662  100.1813   30.1967 H   0  0  0  0  0  0
   25.2667   98.9444   31.3586 H   0  0  0  0  0  0
   27.2484  100.0339   32.0938 H   0  0  0  0  0  0
   27.2291   98.9891   29.7992 H   0  0  0  0  0  0
   28.3055  100.4261   29.8524 H   0  0  0  0  0  0
   22.1948   95.9144   34.7617 H   0  0  0  0  0  0
   21.8232   99.7886   36.7210 H   0  0  0  0  0  0
   23.5048  102.5575   34.9670 H   0  0  0  0  0  0
   25.4324  102.5506   31.8455 H   0  0  0  0  0  0
   23.6852   94.4175   29.1712 H   0  0  0  0  0  0
   24.2629   92.3225   30.3618 H   0  0  0  0  0  0
   24.4389   92.3167   32.8390 H   0  0  0  0  0  0
   24.0172   94.3834   34.1171 H   0  0  0  0  0  0
   26.4386  102.3574   32.3517 H   0  0  0  0  0  0
  1  2  1  0  0  0
  1 29  1  0  0  0
  1 30  1  0  0  0
  1 31  1  0  0  0
  2  3  1  0  0  0
  2  7  1  0  0  0
  2 32  1  0  0  0
  3  4  1  0  0  0
  3 33  1  0  0  0
  3 34  1  0  0  0
  4  5  1  0  0  0
  4 35  1  0  0  0
  4 36  1  0  0  0
  5  6  1  0  0  0
  5  8  1  0  0  0
  5 37  1  0  0  0
  6  7  1  0  0  0
  6 28  1  0  0  0
  6 38  1  0  0  0
  7 39  1  0  0  0
  7 40  1  0  0  0
  8  9  2  0  0  0
  8 19  1  0  0  0
  9 10  1  0  0  0
  9 15  1  0  0  0
 10 11  1  0  0  0
 11 12  2  0  0  0
 11 21  1  0  0  0
 12 13  1  0  0  0
 12 41  1  0  0  0
 13 14  2  0  0  0
 13 15  1  0  0  0
 15 16  2  0  0  0
 16 17  1  0  0  0
 16 18  1  0  0  0
 17 42  1  0  0  0
 18 19  2  0  0  0
 18 43  1  0  0  0
 19 20  1  0  0  0
 20 44  1  0  0  0
 21 22  2  0  0  0
 21 27  1  0  0  0
 22 23  1  0  0  0
 22 24  1  0  0  0
 24 25  2  0  0  0
 24 45  1  0  0  0
 25 26  1  0  0  0
 25 46  1  0  0  0
 26 27  2  0  0  0
 26 47  1  0  0  0
 27 48  1  0  0  0
 28 49  1  0  0  0
M  CHG  1   2   1
M  END
> <s_m_source_file>
../4o71_ligand.sdf

> <i_m_source_file_index>
1

> <s_epik_input>
W0NIM11bTkBIK10xW0NIMl1bQ0gyXVtDQEBIXShbQ0BASF0oW0NIMl0xKVtPSF0pYzJjKFtPSF0pW2NIXWMoW09IXSljKGMyMyljKD1PKVtjSF1jKG8zKS1jNGMoQ2wpW2NIXVtjSF1bY0hdW2NIXTQ=

> <s_epik_cmdline>
J2VwaWtfYXBwJywgJy1pbWFlJywgJ2xpZ2FuZF9wcm8ubWFlJywgJy1vbWFlJywgJ2xpZ2FuZF9wcmVwLm1hZScsICctbXMnLCAnMScsICctcGgnLCAnNycsICctcGh0JywgJzAuNScsICctbnQn

> <r_lp_tautomer_probability>
1

> <r_epik_Ionization_Penalty>
  0.0511

> <r_epik_Ionization_Penalty_Charging>
  0.0145

> <r_epik_Ionization_Penalty_Neutral>
  0.0367

> <r_epik_State_Penalty>
 -0.0000

> <r_epik_Charging_Adjusted_Penalty>
0.0144761008223437

> <i_epik_Tot_Q>
1

> <i_epik_Tot_abs_Q>
1

$$$$
