4o72_ligand
                    3D
 Schrodinger Suite 2020-3.
 49 54  0  0  1  0            999 V2000
  129.2520   -3.9790    0.1040 O   0  0  0  0  0  0
  128.2110   -4.6580   -0.0970 C   0  0  0  0  0  0
  126.9970   -4.4000    0.5890 C   0  0  0  0  0  0
  125.8420   -5.1800    0.3070 C   0  0  0  0  0  0
  124.5800   -4.9400    0.9170 C   0  0  0  0  0  0
  123.4690   -5.7710    0.5790 C   0  0  0  0  0  0
  123.0250   -5.9050   -0.7590 C   0  0  0  0  0  0
  121.9410   -6.7400   -1.1010 C   0  0  0  0  0  0
  121.2700   -7.4700   -0.1120 C   0  0  0  0  0  0
  121.6930   -7.3580    1.2330 C   0  0  0  0  0  0
  122.7790   -6.5120    1.5400 C   0  0  0  0  0  0
  123.0790   -6.5230    3.2730 S   0  0  0  0  0  0
  121.8300   -7.7130    3.5690 C   0  0  0  0  0  0
  121.1750   -8.0270    2.3630 C   0  0  0  0  0  0
  120.1220   -8.9650    2.4030 C   0  0  0  0  0  0
  119.7360   -9.5160    3.6310 C   0  0  0  0  0  0
  120.4120   -9.1920    4.8190 C   0  0  0  0  0  0
  121.4710   -8.2820    4.7990 C   0  0  0  0  0  0
  124.5190   -3.9380    1.8960 C   0  0  0  0  0  0
  125.6400   -3.1350    2.1770 C   0  0  0  0  0  0
  126.8590   -3.3550    1.5280 C   0  0  0  0  0  0
  125.9640   -6.1600   -0.6210 O   0  0  0  0  0  0
  127.0760   -6.3870   -1.3600 C   0  0  0  0  0  0
  126.9270   -7.3310   -2.3330 N   0  0  0  0  0  0
  125.6750   -8.0480   -2.4940 C   0  0  0  0  0  0
  125.1440   -7.8370   -3.9230 C   0  0  0  0  0  0
  126.1770   -8.1740   -4.8590 O   0  0  0  0  0  0
  127.3220   -7.3270   -4.7010 C   0  0  0  0  0  0
  127.9510   -7.5880   -3.3250 C   0  0  0  0  0  0
  128.2350   -5.6300   -1.1010 C   0  0  0  0  0  0
  123.5345   -5.3481   -1.5454 H   0  0  0  0  0  0
  121.6237   -6.8176   -2.1409 H   0  0  0  0  0  0
  120.4326   -8.1161   -0.3754 H   0  0  0  0  0  0
  119.6128   -9.2585    1.4850 H   0  0  0  0  0  0
  118.8955  -10.2091    3.6658 H   0  0  0  0  0  0
  120.1090   -9.6524    5.7594 H   0  0  0  0  0  0
  122.0034   -8.0215    5.7137 H   0  0  0  0  0  0
  123.5916   -3.7791    2.4463 H   0  0  0  0  0  0
  125.5571   -2.3319    2.9093 H   0  0  0  0  0  0
  127.7115   -2.7129    1.7495 H   0  0  0  0  0  0
  125.8420   -9.1211   -2.3193 H   0  0  0  0  0  0
  124.9394   -7.6687   -1.7694 H   0  0  0  0  0  0
  124.2687   -8.4825   -4.0880 H   0  0  0  0  0  0
  124.8532   -6.7843   -4.0544 H   0  0  0  0  0  0
  128.0540   -7.5488   -5.4915 H   0  0  0  0  0  0
  127.0120   -6.2741   -4.7734 H   0  0  0  0  0  0
  128.8039   -6.9147   -3.1544 H   0  0  0  0  0  0
  128.2864   -8.6325   -3.2437 H   0  0  0  0  0  0
  129.1433   -5.8008   -1.6788 H   0  0  0  0  0  0
  1  2  2  0  0  0
  2  3  1  0  0  0
  2 30  1  0  0  0
  3  4  2  0  0  0
  3 21  1  0  0  0
  4  5  1  0  0  0
  4 22  1  0  0  0
  5  6  1  0  0  0
  5 19  2  0  0  0
  6  7  2  0  0  0
  6 11  1  0  0  0
  7  8  1  0  0  0
  7 31  1  0  0  0
  8  9  2  0  0  0
  8 32  1  0  0  0
  9 10  1  0  0  0
  9 33  1  0  0  0
 10 11  2  0  0  0
 10 14  1  0  0  0
 11 12  1  0  0  0
 12 13  1  0  0  0
 13 14  2  0  0  0
 13 18  1  0  0  0
 14 15  1  0  0  0
 15 16  2  0  0  0
 15 34  1  0  0  0
 16 17  1  0  0  0
 16 35  1  0  0  0
 17 18  2  0  0  0
 17 36  1  0  0  0
 18 37  1  0  0  0
 19 20  1  0  0  0
 19 38  1  0  0  0
 20 21  2  0  0  0
 20 39  1  0  0  0
 21 40  1  0  0  0
 22 23  1  0  0  0
 23 24  1  0  0  0
 23 30  2  0  0  0
 24 25  1  0  0  0
 24 29  1  0  0  0
 25 26  1  0  0  0
 25 41  1  0  0  0
 25 42  1  0  0  0
 26 27  1  0  0  0
 26 43  1  0  0  0
 26 44  1  0  0  0
 27 28  1  0  0  0
 28 29  1  0  0  0
 28 45  1  0  0  0
 28 46  1  0  0  0
 29 47  1  0  0  0
 29 48  1  0  0  0
 30 49  1  0  0  0
M  END
> <s_m_source_file>
../4o72_ligand.sdf

> <i_m_source_file_index>
1

> <s_epik_input>
W0NIMl0xW0NIMl1PW0NIMl1bQ0gyXU4xYyhbY0hdYzI9TylvYyhjMjMpYyhbY0hdW2NIXVtjSF0zKS1jKFtjSF1bY0hdW2NIXTQpYyhjNDUpc2M2YzVbY0hdW2NIXVtjSF1bY0hdNg==

> <s_epik_cmdline>
J2VwaWtfYXBwJywgJy1pbWFlJywgJ2xpZ2FuZF9wcm8ubWFlJywgJy1vbWFlJywgJ2xpZ2FuZF9wcmVwLm1hZScsICctbXMnLCAnMScsICctcGgnLCAnNycsICctcGh0JywgJzAuNScsICctbnQn

> <r_epik_Ionization_Penalty>
  0.1018

> <r_epik_Ionization_Penalty_Charging>
  0.1018

> <r_epik_Ionization_Penalty_Neutral>
  0.0000

> <r_epik_State_Penalty>
  0.0918

> <r_epik_Charging_Adjusted_Penalty>
0.193538371068701

> <i_epik_Tot_Q>
0

> <i_epik_Tot_abs_Q>
0

> <s_epik_Chemistry_Notes>
This compound has an imine and may undergo hydrolysis.

$$$$
