4o74_ligand
                    3D
 Schrodinger Suite 2020-3.
 78 82  0  0  1  0            999 V2000
    1.3150   -5.9510  -19.6770 N   0  0  0  0  0  0
    1.7580  -10.1010  -20.1630 N   0  0  0  0  0  0
    2.1580   -6.5940  -18.8540 C   0  0  0  0  0  0
    2.2520  -10.8550  -19.0730 C   0  0  1  0  0  0
    3.2620  -10.0790  -18.1800 C   0  0  0  0  0  0
   -0.8250   -6.2880  -22.6650 C   0  0  0  0  0  0
    0.9980  -10.6400  -21.3430 C   0  0  0  0  0  0
    0.3300  -10.3320  -17.4100 C   0  0  0  0  0  0
    0.4780  -12.4030  -22.7840 C   0  0  0  0  0  0
   -0.4850  -10.7820  -21.2760 C   0  0  0  0  0  0
   -2.2880   -5.4520  -24.3750 C   0  0  0  0  0  0
   -0.7820   -7.5240  -23.2410 C   0  0  0  0  0  0
   -3.0760   -6.8870  -26.2400 C   0  0  0  0  0  0
   -3.6670   -8.3310  -28.2210 C   0  0  2  0  0  0
   -3.4740   -9.1030  -30.4580 C   0  0  0  0  0  0
   -5.5520   -9.3430  -29.3770 C   0  0  0  0  0  0
   -3.8090   -5.9930  -26.6380 O   0  0  0  0  0  0
   -2.9340   -8.1210  -26.9480 N   0  0  0  0  0  0
   -4.8700   -9.1130  -28.0430 C   0  0  0  0  0  0
   -4.6590   -9.9210  -30.2980 N   0  3  1  0  0  0
   -5.1880  -10.1490  -31.3910 C   0  0  0  0  0  0
   -2.7670   -8.9010  -29.1520 C   0  0  0  0  0  0
   -2.2720   -6.7050  -24.9640 C   0  0  0  0  0  0
   -1.5770   -5.2620  -23.2250 C   0  0  0  0  0  0
   -1.5410   -4.0230  -22.5490 O   0  0  0  0  0  0
   -2.3420   -2.9740  -23.1480 C   0  0  0  0  0  0
   -1.5150   -7.7360  -24.4120 C   0  0  0  0  0  0
   -0.1540   -5.8740  -21.4810 N   0  0  0  0  0  0
    0.6630   -6.6220  -20.6720 C   0  0  0  0  0  0
    0.8150   -7.9750  -20.8420 N   0  0  0  0  0  0
    1.6050   -8.6480  -20.0030 C   0  0  0  0  0  0
   -0.7920  -11.5660  -22.5330 C   0  0  0  0  0  0
    1.4800  -12.0070  -21.6950 C   0  0  0  0  0  0
    1.1290  -11.4030  -18.1450 C   0  0  0  0  0  0
    4.0480  -10.7220  -17.4960 O   0  0  0  0  0  0
    3.2550   -8.7150  -18.1780 N   0  0  0  0  0  0
    4.2210   -7.9870  -17.3720 C   0  0  0  0  0  0
    2.3260   -7.9880  -18.9950 C   0  0  0  0  0  0
    2.7056   -6.0466  -18.0868 H   0  0  0  0  0  0
    2.7406  -11.6455  -19.6615 H   0  0  0  0  0  0
    1.1956   -9.8447  -22.0768 H   0  0  0  0  0  0
   -0.4357  -10.8117  -16.7827 H   0  0  0  0  0  0
   -0.1571   -9.6709  -18.1420 H   0  0  0  0  0  0
    1.0065   -9.7409  -16.7752 H   0  0  0  0  0  0
    0.2304  -13.4729  -22.7209 H   0  0  0  0  0  0
    0.8744  -12.1768  -23.7848 H   0  0  0  0  0  0
   -0.7606  -11.3207  -20.3574 H   0  0  0  0  0  0
   -0.9489   -9.7846  -21.2694 H   0  0  0  0  0  0
   -2.8560   -4.6349  -24.8198 H   0  0  0  0  0  0
   -0.1908   -8.3261  -22.7990 H   0  0  0  0  0  0
   -4.0236   -7.3840  -28.6522 H   0  0  0  0  0  0
   -2.7811   -9.5941  -31.1571 H   0  0  0  0  0  0
   -3.7594   -8.1180  -30.8559 H   0  0  0  0  0  0
   -6.4084  -10.0195  -29.2392 H   0  0  0  0  0  0
   -5.9050   -8.3818  -29.7789 H   0  0  0  0  0  0
   -2.2830   -8.9138  -26.5509 H   0  0  0  0  0  0
   -4.6125  -10.0861  -27.5995 H   0  0  0  0  0  0
   -5.5604   -8.5769  -27.3751 H   0  0  0  0  0  0
   -4.4483  -10.9595  -30.0028 H   0  0  0  0  0  0
   -4.4482  -10.5985  -32.0697 H   0  0  0  0  0  0
   -5.5575   -9.2073  -31.8231 H   0  0  0  0  0  0
   -6.0293  -10.8442  -31.2533 H   0  0  0  0  0  0
   -1.9111   -8.2252  -29.2955 H   0  0  0  0  0  0
   -2.4099   -9.8692  -28.7712 H   0  0  0  0  0  0
   -2.2478   -2.0547  -22.5513 H   0  0  0  0  0  0
   -3.3961   -3.2875  -23.1746 H   0  0  0  0  0  0
   -1.9900   -2.7838  -24.1727 H   0  0  0  0  0  0
   -1.4942   -8.7126  -24.8956 H   0  0  0  0  0  0
   -0.2640   -4.8411  -21.1190 H   0  0  0  0  0  0
   -0.9726  -10.9064  -23.3946 H   0  0  0  0  0  0
   -1.6529  -12.2373  -22.3983 H   0  0  0  0  0  0
    2.5177  -11.9484  -22.0551 H   0  0  0  0  0  0
    1.4367  -12.6516  -20.8047 H   0  0  0  0  0  0
    0.4096  -11.9821  -18.7426 H   0  0  0  0  0  0
    1.5731  -12.0520  -17.3758 H   0  0  0  0  0  0
    4.8463   -8.7007  -16.8155 H   0  0  0  0  0  0
    3.6898   -7.3347  -16.6633 H   0  0  0  0  0  0
    4.8580   -7.3747  -18.0273 H   0  0  0  0  0  0
  1  3  2  0  0  0
  1 29  1  0  0  0
  2  4  1  0  0  0
  2  7  1  0  0  0
  2 31  1  0  0  0
  3 38  1  0  0  0
  3 39  1  0  0  0
  4  5  1  0  0  0
  4 34  1  0  0  0
  4 40  1  0  0  0
  5 35  2  0  0  0
  5 36  1  0  0  0
  6 12  2  0  0  0
  6 24  1  0  0  0
  6 28  1  0  0  0
  7 10  1  0  0  0
  7 33  1  0  0  0
  7 41  1  0  0  0
  8 34  1  0  0  0
  8 42  1  0  0  0
  8 43  1  0  0  0
  8 44  1  0  0  0
  9 32  1  0  0  0
  9 33  1  0  0  0
  9 45  1  0  0  0
  9 46  1  0  0  0
 10 32  1  0  0  0
 10 47  1  0  0  0
 10 48  1  0  0  0
 11 23  1  0  0  0
 11 24  2  0  0  0
 11 49  1  0  0  0
 12 27  1  0  0  0
 12 50  1  0  0  0
 13 17  2  0  0  0
 13 18  1  0  0  0
 13 23  1  0  0  0
 14 18  1  0  0  0
 14 19  1  0  0  0
 14 22  1  0  0  0
 14 51  1  0  0  0
 15 20  1  0  0  0
 15 22  1  0  0  0
 15 52  1  0  0  0
 15 53  1  0  0  0
 16 19  1  0  0  0
 16 20  1  0  0  0
 16 54  1  0  0  0
 16 55  1  0  0  0
 18 56  1  0  0  0
 19 57  1  0  0  0
 19 58  1  0  0  0
 20 21  1  0  0  0
 20 59  1  0  0  0
 21 60  1  0  0  0
 21 61  1  0  0  0
 21 62  1  0  0  0
 22 63  1  0  0  0
 22 64  1  0  0  0
 23 27  2  0  0  0
 24 25  1  0  0  0
 25 26  1  0  0  0
 26 65  1  0  0  0
 26 66  1  0  0  0
 26 67  1  0  0  0
 27 68  1  0  0  0
 28 29  1  0  0  0
 28 69  1  0  0  0
 29 30  2  0  0  0
 30 31  1  0  0  0
 31 38  2  0  0  0
 32 70  1  0  0  0
 32 71  1  0  0  0
 33 72  1  0  0  0
 33 73  1  0  0  0
 34 74  1  0  0  0
 34 75  1  0  0  0
 36 37  1  0  0  0
 36 38  1  0  0  0
 37 76  1  0  0  0
 37 77  1  0  0  0
 37 78  1  0  0  0
M  CHG  1  20   1
M  END
> <s_m_source_file>
../4o74_ligand.sdf

> <i_m_source_file_index>
1

> <s_epik_input>
W0NIMl0xW0NIMl1bQ0gyXVtDSDJdW0NIXTFOMltDQEhdKFtDSDJdW0NIM10pQyg9TylOKFtDSDNdKWMoYzIzKVtjSF1uYyhuMylbTkhdYzRbY0hdW2NIXWMoW2NIXWM0T1tDSDNdKUMoPU8pW05IXVtDQEBIXTVbQ0gyXVtDSDJdW05AQEgrXShbQ0gzXSlbQ0gyXVtDSDJdNQ==

> <s_epik_cmdline>
J2VwaWtfYXBwJywgJy1pbWFlJywgJ2xpZ2FuZF9wcm8ubWFlJywgJy1vbWFlJywgJ2xpZ2FuZF9wcmVwLm1hZScsICctbXMnLCAnMScsICctcGgnLCAnNycsICctcGh0JywgJzAuNScsICctbnQn

> <r_lp_tautomer_probability>
0.999999648617923

> <r_epik_Ionization_Penalty>
  0.0476

> <r_epik_Ionization_Penalty_Charging>
  0.0049

> <r_epik_Ionization_Penalty_Neutral>
  0.0426

> <r_epik_State_Penalty>
  0.0356

> <r_epik_Charging_Adjusted_Penalty>
0.0405113066483781

> <i_epik_Tot_Q>
1

> <i_epik_Tot_abs_Q>
1

$$$$
