4o75_ligand
                    3D
 Schrodinger Suite 2020-3.
 64 67  0  0  1  0            999 V2000
   14.9300   -1.9280   13.2400 F   0  0  0  0  0  0
   14.7840   -0.9250   12.3370 C   0  0  0  0  0  0
   13.8650    0.0890   12.5410 C   0  0  0  0  0  0
   13.7220    1.0940   11.6100 N   0  0  0  0  0  0
   14.5210    1.0700   10.5240 C   0  0  0  0  0  0
   15.4350    0.0770   10.3230 N   0  0  0  0  0  0
   15.5980   -0.9190   11.1880 C   0  0  0  0  0  0
   16.5660   -1.9620   10.9520 N   0  0  0  0  0  0
   17.7790   -1.6740   10.2600 C   0  0  0  0  0  0
   18.9140   -2.2490   10.7170 N   0  0  0  0  0  0
   20.1080   -2.0220   10.0950 C   0  0  0  0  0  0
   21.2610   -2.6270   10.5690 N   0  0  0  0  0  0
   22.4570   -2.3440   10.1700 C   0  0  0  0  0  0
   23.3880   -2.9170   10.6300 O   0  0  0  0  0  0
   22.7150   -1.3040    9.1200 C   0  0  0  0  0  0
   21.5640   -0.8980    8.3210 O   0  0  0  0  0  0
   20.1880   -1.1700    8.9820 C   0  0  0  0  0  0
   19.0400   -0.5570    8.4830 C   0  0  0  0  0  0
   17.8170   -0.8150    9.1440 C   0  0  0  0  0  0
   23.7180   -1.8180    8.1580 C   0  0  0  0  0  0
   23.4610   -0.0980    9.7800 C   0  0  0  0  0  0
   21.0700   -3.6820   11.5070 C   0  0  0  0  0  0
   21.1360   -3.2760   12.8390 O   0  0  0  0  0  0
   21.2800   -4.5680   13.7300 P   0  0  0  0  0  0
   22.7190   -5.0320   13.6780 O   0  0  0  0  0  0
   20.3890   -5.6590   13.1610 O   0  5  0  0  0  0
   20.8830   -4.2310   15.1540 O   0  5  0  0  0  0
   14.5280    2.0490    9.4550 N   0  0  0  0  0  0
   14.0280    3.3650    9.5770 C   0  0  0  0  0  0
   13.0860    3.7610   10.5560 C   0  0  0  0  0  0
   12.6520    5.0930   10.5450 C   0  0  0  0  0  0
   11.6800    5.6810   11.4580 O   0  0  0  0  0  0
   11.0620    4.9220   12.5090 C   0  0  0  0  0  0
   13.1840    5.9360    9.5830 C   0  0  0  0  0  0
   12.8000    7.2860    9.5540 O   0  0  0  0  0  0
   13.5560    8.0230   10.4970 C   0  0  0  0  0  0
   14.1240    5.5220    8.6260 C   0  0  0  0  0  0
   14.6020    6.4360    7.6600 O   0  0  0  0  0  0
   13.9820    6.1710    6.4350 C   0  0  0  0  0  0
   14.5540    4.2270    8.6190 C   0  0  0  0  0  0
   13.2517    0.0925   13.4421 H   0  0  0  0  0  0
   16.3700   -2.9847   11.3064 H   0  0  0  0  0  0
   19.0835    0.0986    7.6133 H   0  0  0  0  0  0
   16.8991   -0.3470    8.7884 H   0  0  0  0  0  0
   23.3021   -2.6840    7.6223 H   0  0  0  0  0  0
   24.6242   -2.1236    8.7014 H   0  0  0  0  0  0
   23.9722   -1.0279    7.4362 H   0  0  0  0  0  0
   22.8057    0.3743   10.5267 H   0  0  0  0  0  0
   23.7249    0.6378    9.0061 H   0  0  0  0  0  0
   24.3770   -0.4580   10.2714 H   0  0  0  0  0  0
   20.0786   -4.1334   11.3542 H   0  0  0  0  0  0
   21.8473   -4.4467   11.3621 H   0  0  0  0  0  0
   14.9419    1.7854    8.4705 H   0  0  0  0  0  0
   12.7104    3.0528   11.2945 H   0  0  0  0  0  0
   10.3678    5.5670   13.0676 H   0  0  0  0  0  0
   11.8369    4.5406   13.1903 H   0  0  0  0  0  0
   10.5080    4.0771   12.0741 H   0  0  0  0  0  0
   13.2493    9.0790   10.4680 H   0  0  0  0  0  0
   14.6253    7.9449   10.2512 H   0  0  0  0  0  0
   13.3808    7.6178   11.5045 H   0  0  0  0  0  0
   14.3493    6.8790    5.6774 H   0  0  0  0  0  0
   12.8930    6.2823    6.5435 H   0  0  0  0  0  0
   14.2160    5.1432    6.1204 H   0  0  0  0  0  0
   15.2843    3.8795    7.8883 H   0  0  0  0  0  0
  1  2  1  0  0  0
  2  3  2  0  0  0
  2  7  1  0  0  0
  3  4  1  0  0  0
  3 41  1  0  0  0
  4  5  2  0  0  0
  5  6  1  0  0  0
  5 28  1  0  0  0
  6  7  2  0  0  0
  7  8  1  0  0  0
  8  9  1  0  0  0
  8 42  1  0  0  0
  9 10  2  0  0  0
  9 19  1  0  0  0
 10 11  1  0  0  0
 11 12  1  0  0  0
 11 17  2  0  0  0
 12 13  1  0  0  0
 12 22  1  0  0  0
 13 14  2  0  0  0
 13 15  1  0  0  0
 15 16  1  0  0  0
 15 20  1  0  0  0
 15 21  1  0  0  0
 16 17  1  0  0  0
 17 18  1  0  0  0
 18 19  2  0  0  0
 18 43  1  0  0  0
 19 44  1  0  0  0
 20 45  1  0  0  0
 20 46  1  0  0  0
 20 47  1  0  0  0
 21 48  1  0  0  0
 21 49  1  0  0  0
 21 50  1  0  0  0
 22 23  1  0  0  0
 22 51  1  0  0  0
 22 52  1  0  0  0
 23 24  1  0  0  0
 24 25  2  0  0  0
 24 26  1  0  0  0
 24 27  1  0  0  0
 28 29  1  0  0  0
 28 53  1  0  0  0
 29 30  2  0  0  0
 29 40  1  0  0  0
 30 31  1  0  0  0
 30 54  1  0  0  0
 31 32  1  0  0  0
 31 34  2  0  0  0
 32 33  1  0  0  0
 33 55  1  0  0  0
 33 56  1  0  0  0
 33 57  1  0  0  0
 34 35  1  0  0  0
 34 37  1  0  0  0
 35 36  1  0  0  0
 36 58  1  0  0  0
 36 59  1  0  0  0
 36 60  1  0  0  0
 37 38  1  0  0  0
 37 40  2  0  0  0
 38 39  1  0  0  0
 39 61  1  0  0  0
 39 62  1  0  0  0
 39 63  1  0  0  0
 40 64  1  0  0  0
M  CHG  2  26  -1  27  -1
M  END
> <s_m_source_file>
../4o75_ligand.sdf

> <i_m_source_file_index>
1

> <s_epik_input>
W0NIM11PYyhbY0hdMSljKE9bQ0gzXSljKE9bQ0gzXSlbY0hdYzFbTkhdYyhuW2NIXWMyRiluYzJbTkhdYyhuMylbY0hdW2NIXWMoYzM0KU9DKFtDSDNdKShbQ0gzXSlDKD1PKU40W0NIMl1PUCg9TykoW09IXSlbT0hd

> <s_epik_cmdline>
J2VwaWtfYXBwJywgJy1pbWFlJywgJ2xpZ2FuZF9wcm8ubWFlJywgJy1vbWFlJywgJ2xpZ2FuZF9wcmVwLm1hZScsICctbXMnLCAnMScsICctcGgnLCAnNycsICctcGh0JywgJzAuNScsICctbnQn

> <r_lp_tautomer_probability>
0.999999622918466

> <r_epik_Ionization_Penalty>
  0.0741

> <r_epik_Ionization_Penalty_Charging>
  0.0724

> <r_epik_Ionization_Penalty_Neutral>
  0.0018

> <r_epik_State_Penalty>
  0.0636

> <r_epik_Charging_Adjusted_Penalty>
0.135962791506059

> <i_epik_Tot_Q>
-2

> <i_epik_Tot_abs_Q>
2

> <s_epik_Chemistry_Notes>
This compound contains an acetal/aminal-like group ( X-CH(R)-Y where X, Y are N, S, or O) that may be acid/base labile, releasing an aldehyde.

$$$$
