4o76_ligand
                    3D
 Schrodinger Suite 2020-3.
 72 75  0  0  1  0            999 V2000
    7.8910    4.8690  135.3500 O   0  0  0  0  0  0
    7.1740    4.5890  133.9920 S   0  0  0  0  0  0
    7.0360    3.0500  133.6300 O   0  0  0  0  0  0
    5.5930    5.2780  133.8270 N   0  0  3  0  0  0
    5.1030    6.4900  134.5200 C   0  0  0  0  0  0
    4.7710    6.0640  135.9790 C   0  0  0  0  0  0
    3.8940    7.0310  133.6950 C   0  0  0  0  0  0
    6.1830    7.6040  134.5610 C   0  0  0  0  0  0
    8.1620    5.2360  132.6880 C   0  0  0  0  0  0
    9.5190    4.9680  132.6940 C   0  0  0  0  0  0
   10.3440    5.4630  131.6680 C   0  0  0  0  0  0
    9.8170    6.2330  130.6390 C   0  0  0  0  0  0
    7.6140    6.0000  131.6340 C   0  0  0  0  0  0
    8.4350    6.5220  130.6080 C   0  0  0  0  0  0
    8.0430    7.2870  129.5470 N   0  0  0  0  0  0
    6.7630    7.5150  129.1090 C   0  0  0  0  0  0
    5.7120    6.7930  129.5530 N   0  0  0  0  0  0
    4.4430    7.0000  129.0710 C   0  0  0  0  0  0
    4.2670    7.9030  128.0860 N   0  0  0  0  0  0
    5.2700    8.6490  127.5840 C   0  0  0  0  0  0
    6.5610    8.4710  128.0640 C   0  0  0  0  0  0
    7.6250    9.2990  127.4600 C   0  0  0  0  0  0
    3.3940    6.2950  129.5660 N   0  0  0  0  0  0
    3.4380    5.2400  130.4180 C   0  0  0  0  0  0
    4.5220    4.3830  130.6390 C   0  0  0  0  0  0
    4.4240    3.3250  131.5530 C   0  0  0  0  0  0
    3.2490    3.0590  132.2800 C   0  0  0  0  0  0
    2.1690    3.9230  132.0320 C   0  0  0  0  0  0
    2.2620    4.9810  131.1200 C   0  0  0  0  0  0
    3.1330    1.9850  133.1640 N   0  0  0  0  0  0
    4.3380    1.4480  133.7620 C   0  0  0  0  0  0
    4.2670    0.1840  134.6460 C   0  0  0  0  0  0
    2.9540   -0.4970  134.6790 N   0  3  0  0  0  0
    2.8450   -1.3800  135.8690 C   0  0  0  0  0  0
    1.7930    0.3850  134.4730 C   0  0  0  0  0  0
    1.9370    1.1560  133.1440 C   0  0  0  0  0  0
    4.8904    4.6414  133.2692 H   0  0  0  0  0  0
    4.0058    5.2739  135.9651 H   0  0  0  0  0  0
    4.3912    6.9325  136.5371 H   0  0  0  0  0  0
    5.6812    5.6845  136.4663 H   0  0  0  0  0  0
    3.1090    6.2619  133.6475 H   0  0  0  0  0  0
    4.2268    7.2787  132.6762 H   0  0  0  0  0  0
    3.4940    7.9338  134.1797 H   0  0  0  0  0  0
    7.0512    7.2520  135.1375 H   0  0  0  0  0  0
    5.7652    8.5023  135.0390 H   0  0  0  0  0  0
    6.4980    7.8472  133.5355 H   0  0  0  0  0  0
    9.9508    4.3708  133.4971 H   0  0  0  0  0  0
   11.4108    5.2395  131.6805 H   0  0  0  0  0  0
   10.4708    6.6145  129.8547 H   0  0  0  0  0  0
    6.5410    6.1902  131.6112 H   0  0  0  0  0  0
    8.7957    7.8053  128.9348 H   0  0  0  0  0  0
    5.0699    9.3867  126.8070 H   0  0  0  0  0  0
    8.5894    9.0570  127.9304 H   0  0  0  0  0  0
    7.3962   10.3631  127.6190 H   0  0  0  0  0  0
    7.6815    9.0934  126.3809 H   0  0  0  0  0  0
    2.3665    6.5634  129.2791 H   0  0  0  0  0  0
    5.4529    4.5401  130.0942 H   0  0  0  0  0  0
    5.2916    2.6834  131.7066 H   0  0  0  0  0  0
    1.2316    3.7649  132.5652 H   0  0  0  0  0  0
    1.3932    5.6181  130.9547 H   0  0  0  0  0  0
    5.0512    1.1771  132.9696 H   0  0  0  0  0  0
    4.7902    2.2055  134.4191 H   0  0  0  0  0  0
    4.9927   -0.5586  134.2828 H   0  0  0  0  0  0
    4.5046    0.4504  135.6865 H   0  0  0  0  0  0
    2.9136   -1.1364  133.7848 H   0  0  0  0  0  0
    3.7489   -2.0018  135.9482 H   0  0  0  0  0  0
    1.9621   -2.0279  135.7652 H   0  0  0  0  0  0
    2.7433   -0.7639  136.7746 H   0  0  0  0  0  0
    0.8746   -0.2195  134.4403 H   0  0  0  0  0  0
    1.7284    1.1056  135.3016 H   0  0  0  0  0  0
    1.0516    1.7931  133.0023 H   0  0  0  0  0  0
    2.0052    0.4338  132.3170 H   0  0  0  0  0  0
  1  2  2  0  0  0
  2  3  2  0  0  0
  2  4  1  0  0  0
  2  9  1  0  0  0
  4  5  1  0  0  0
  4 37  1  0  0  0
  5  6  1  0  0  0
  5  7  1  0  0  0
  5  8  1  0  0  0
  6 38  1  0  0  0
  6 39  1  0  0  0
  6 40  1  0  0  0
  7 41  1  0  0  0
  7 42  1  0  0  0
  7 43  1  0  0  0
  8 44  1  0  0  0
  8 45  1  0  0  0
  8 46  1  0  0  0
  9 10  2  0  0  0
  9 13  1  0  0  0
 10 11  1  0  0  0
 10 47  1  0  0  0
 11 12  2  0  0  0
 11 48  1  0  0  0
 12 14  1  0  0  0
 12 49  1  0  0  0
 13 14  2  0  0  0
 13 50  1  0  0  0
 14 15  1  0  0  0
 15 16  1  0  0  0
 15 51  1  0  0  0
 16 17  2  0  0  0
 16 21  1  0  0  0
 17 18  1  0  0  0
 18 19  2  0  0  0
 18 23  1  0  0  0
 19 20  1  0  0  0
 20 21  2  0  0  0
 20 52  1  0  0  0
 21 22  1  0  0  0
 22 53  1  0  0  0
 22 54  1  0  0  0
 22 55  1  0  0  0
 23 24  1  0  0  0
 23 56  1  0  0  0
 24 25  2  0  0  0
 24 29  1  0  0  0
 25 26  1  0  0  0
 25 57  1  0  0  0
 26 27  2  0  0  0
 26 58  1  0  0  0
 27 28  1  0  0  0
 27 30  1  0  0  0
 28 29  2  0  0  0
 28 59  1  0  0  0
 29 60  1  0  0  0
 30 31  1  0  0  0
 30 36  1  0  0  0
 31 32  1  0  0  0
 31 61  1  0  0  0
 31 62  1  0  0  0
 32 33  1  0  0  0
 32 63  1  0  0  0
 32 64  1  0  0  0
 33 34  1  0  0  0
 33 35  1  0  0  0
 33 65  1  0  0  0
 34 66  1  0  0  0
 34 67  1  0  0  0
 34 68  1  0  0  0
 35 36  1  0  0  0
 35 69  1  0  0  0
 35 70  1  0  0  0
 36 71  1  0  0  0
 36 72  1  0  0  0
M  CHG  1  33   1
M  END
> <s_m_source_file>
../4o76_ligand.sdf

> <i_m_source_file_index>
1

> <s_epik_input>
W0NIM11DKFtDSDNdKShbQ0gzXSlbTkhdUyg9TykoPU8pYzFbY0hdW2NIXVtjSF1jKFtjSF0xKVtOSF1jMm5jKG5bY0hdYzJbQ0gzXSlbTkhdYzNbY0hdW2NIXWMoW2NIXVtjSF0zKU40W0NIMl1bQ0gyXVtOSCtdKFtDSDNdKVtDSDJdW0NIMl00

> <s_epik_cmdline>
J2VwaWtfYXBwJywgJy1pbWFlJywgJ2xpZ2FuZF9wcm8ubWFlJywgJy1vbWFlJywgJ2xpZ2FuZF9wcmVwLm1hZScsICctbXMnLCAnMScsICctcGgnLCAnNycsICctcGh0JywgJzAuNScsICctbnQn

> <r_lp_tautomer_probability>
1

> <r_epik_Ionization_Penalty>
  0.1265

> <r_epik_Ionization_Penalty_Charging>
  0.0647

> <r_epik_Ionization_Penalty_Neutral>
  0.0617

> <r_epik_State_Penalty>
 -0.0000

> <r_epik_Charging_Adjusted_Penalty>
0.0647487349615153

> <i_epik_Tot_Q>
1

> <i_epik_Tot_abs_Q>
1

$$$$
