4o77_ligand
                    3D
 Schrodinger Suite 2020-3.
 38 41  0  0  1  0            999 V2000
   -6.5100  -12.5910  -25.7780 F   0  0  0  0  0  0
   -5.9200  -11.8970  -24.8290 C   0  0  0  0  0  0
   -4.8480  -12.4580  -24.1130 C   0  0  0  0  0  0
   -4.2090  -11.7220  -23.0940 C   0  0  0  0  0  0
   -4.6300  -10.4110  -22.7690 C   0  0  0  0  0  0
   -3.9390   -9.7160  -21.7410 C   0  0  0  0  0  0
   -3.6190   -8.3550  -21.6270 C   0  0  0  0  0  0
   -3.8740   -7.2620  -22.4860 C   0  0  0  0  0  0
   -3.6720   -7.3740  -23.8850 C   0  0  0  0  0  0
   -3.9080   -6.2540  -24.7160 C   0  0  0  0  0  0
   -4.3040   -5.0800  -24.1590 N   0  0  0  0  0  0
   -4.4890   -4.9260  -22.8190 C   0  0  0  0  0  0
   -4.2690   -6.0150  -21.9470 C   0  0  0  0  0  0
   -2.9440   -8.2180  -20.4780 N   0  0  0  0  0  0
   -2.8510   -9.4080  -19.8740 C   0  0  0  0  0  0
   -2.1750   -9.6690  -18.6610 C   0  0  0  0  0  0
   -1.2630   -8.7160  -18.1330 C   0  0  0  0  0  0
   -0.5590   -8.9900  -16.9420 C   0  0  0  0  0  0
   -0.7550  -10.2150  -16.2670 C   0  0  0  0  0  0
   -0.0830  -10.4750  -15.1140 O   0  0  0  0  0  0
   -1.6420  -11.1720  -16.7940 C   0  0  0  0  0  0
   -2.3480  -10.8990  -17.9860 C   0  0  0  0  0  0
   -3.4390  -10.3380  -20.6540 N   0  0  0  0  0  0
   -5.7150   -9.8610  -23.4890 C   0  0  0  0  0  0
   -6.3520  -10.5940  -24.5160 C   0  0  0  0  0  0
   -4.5090  -13.4672  -24.3468 H   0  0  0  0  0  0
   -3.3783  -12.1698  -22.5486 H   0  0  0  0  0  0
   -3.3371   -8.3169  -24.3172 H   0  0  0  0  0  0
   -3.7732   -6.3323  -25.7948 H   0  0  0  0  0  0
   -4.8067   -3.9629  -22.4194 H   0  0  0  0  0  0
   -4.4019   -5.8961  -20.8717 H   0  0  0  0  0  0
   -1.1068   -7.7694  -18.6504 H   0  0  0  0  0  0
    0.1383   -8.2542  -16.5414 H   0  0  0  0  0  0
    0.6106   -9.7277  -14.7012 H   0  0  0  0  0  0
   -1.7840  -12.1238  -16.2821 H   0  0  0  0  0  0
   -3.0333  -11.6442  -18.3898 H   0  0  0  0  0  0
   -6.0654   -8.8572  -23.2488 H   0  0  0  0  0  0
   -7.1803  -10.1491  -25.0674 H   0  0  0  0  0  0
  1  2  1  0  0  0
  2  3  2  0  0  0
  2 25  1  0  0  0
  3  4  1  0  0  0
  3 26  1  0  0  0
  4  5  2  0  0  0
  4 27  1  0  0  0
  5  6  1  0  0  0
  5 24  1  0  0  0
  6  7  2  0  0  0
  6 23  1  0  0  0
  7  8  1  0  0  0
  7 14  1  0  0  0
  8  9  2  0  0  0
  8 13  1  0  0  0
  9 10  1  0  0  0
  9 28  1  0  0  0
 10 11  2  0  0  0
 10 29  1  0  0  0
 11 12  1  0  0  0
 12 13  2  0  0  0
 12 30  1  0  0  0
 13 31  1  0  0  0
 14 15  1  0  0  0
 15 16  1  0  0  0
 15 23  2  0  0  0
 16 17  2  0  0  0
 16 22  1  0  0  0
 17 18  1  0  0  0
 17 32  1  0  0  0
 18 19  2  0  0  0
 18 33  1  0  0  0
 19 20  1  0  0  0
 19 21  1  0  0  0
 20 34  1  0  0  0
 21 22  2  0  0  0
 21 35  1  0  0  0
 22 36  1  0  0  0
 24 25  2  0  0  0
 24 37  1  0  0  0
 25 38  1  0  0  0
M  END
> <s_m_source_file>
../4o77_ligand.sdf

> <i_m_source_file_index>
1

> <s_epik_input>
RmMxW2NIXVtjSF1jKFtjSF1bY0hdMSktYzJjKC1jM1tjSF1bY0hdbltjSF1bY0hdMylbbkhdYyhuMiktYzRbY0hdW2NIXWMoW09IXSlbY0hdW2NIXTQ=

> <s_epik_cmdline>
J2VwaWtfYXBwJywgJy1pbWFlJywgJ2xpZ2FuZF9wcm8ubWFlJywgJy1vbWFlJywgJ2xpZ2FuZF9wcmVwLm1hZScsICctbXMnLCAnMScsICctcGgnLCAnNycsICctcGh0JywgJzAuNScsICctbnQn

> <r_epik_Ionization_Penalty>
 15.0095

> <r_epik_Ionization_Penalty_Charging>
  0.0000

> <r_epik_Ionization_Penalty_Neutral>
 15.0095

> <r_epik_State_Penalty>
  0.1385

> <r_epik_Charging_Adjusted_Penalty>
0.138532981437348

> <i_epik_Tot_Q>
0

> <i_epik_Tot_abs_Q>
0

$$$$
