4o78_ligand
                    3D
 Schrodinger Suite 2020-3.
 50 53  0  0  1  0            999 V2000
  119.7320   -6.9520    3.0590 N   0  0  0  0  0  0
  117.0850   -9.7690    0.4750 N   0  5  0  0  0  0
  120.8560   -6.9170    2.2940 C   0  0  0  0  0  0
  118.6030   -7.6590    2.9430 C   0  0  0  0  0  0
  116.5420   -8.4200    3.8220 C   0  0  0  0  0  0
  116.3040   -9.1350    2.6460 C   0  0  0  0  0  0
  117.2780   -9.0930    1.6230 C   0  0  0  0  0  0
  118.3630   -8.5040   -1.1550 C   0  0  0  0  0  0
  120.2930   -9.9980   -4.0800 C   0  0  0  0  0  0
  119.0420  -10.8860   -2.4650 C   0  0  0  0  0  0
  121.7460   -5.8730    2.5880 C   0  0  0  0  0  0
  123.2900   -6.6620    0.9430 C   0  0  0  0  0  0
  125.5270   -7.3740    0.7220 C   0  0  0  0  0  0
  122.0810   -9.7620   -0.5550 C   0  0  0  0  0  0
  122.8290   -8.5640   -0.3300 O   0  0  0  0  0  0
  122.4160   -7.7120    0.6380 C   0  0  0  0  0  0
  121.2100   -7.8510    1.3140 C   0  0  0  0  0  0
  117.6890   -7.7070    3.9380 N   0  0  0  0  0  0
  117.8900   -9.7450   -0.6450 C   0  0  0  0  0  0
  119.1750   -8.4700   -2.3150 C   0  0  0  0  0  0
  119.5140   -9.6750   -2.9590 C   0  0  0  0  0  0
  121.0320   -9.1160   -5.0030 C   0  0  0  0  0  0
  120.2540  -11.3400   -4.1780 N   0  0  0  0  0  0
  119.5010  -11.8800   -3.2560 N   0  0  0  0  0  0
  118.2310  -10.9360   -1.3180 C   0  0  0  0  0  0
  118.3970   -8.3550    1.8010 N   0  0  0  0  0  0
  122.9650   -5.7290    1.9170 C   0  0  0  0  0  0
  123.8630   -4.7320    2.1460 O   0  0  0  0  0  0
  123.4920   -3.6410    3.0060 C   0  0  0  0  0  0
  124.4720   -6.5280    0.2540 O   0  0  0  0  0  0
  119.6549   -6.3153    3.9527 H   0  0  0  0  0  0
  115.8159   -8.4351    4.6348 H   0  0  0  0  0  0
  115.3880   -9.7122    2.5202 H   0  0  0  0  0  0
  118.0984   -7.5643   -0.6480 H   0  0  0  0  0  0
  121.4798   -5.1530    3.3619 H   0  0  0  0  0  0
  126.4300   -7.2023    0.1178 H   0  0  0  0  0  0
  125.2202   -8.4265    0.6320 H   0  0  0  0  0  0
  125.7416   -7.1435    1.7759 H   0  0  0  0  0  0
  122.5466  -10.3376   -1.3685 H   0  0  0  0  0  0
  121.0488   -9.5029   -0.8333 H   0  0  0  0  0  0
  122.0723  -10.3668    0.3638 H   0  0  0  0  0  0
  120.5440   -8.6822    1.0824 H   0  0  0  0  0  0
  119.5402   -7.5119   -2.7133 H   0  0  0  0  0  0
  120.8963   -8.0683   -4.6965 H   0  0  0  0  0  0
  120.6489   -9.2516   -6.0252 H   0  0  0  0  0  0
  122.1018   -9.3704   -4.9756 H   0  0  0  0  0  0
  117.8661  -11.8946   -0.9492 H   0  0  0  0  0  0
  124.3292   -2.9313    3.0799 H   0  0  0  0  0  0
  123.2506   -4.0287    4.0067 H   0  0  0  0  0  0
  122.6125   -3.1284    2.5893 H   0  0  0  0  0  0
  1  3  1  0  0  0
  1  4  1  0  0  0
  1 31  1  0  0  0
  2  7  1  0  0  0
  2 19  1  0  0  0
  3 11  2  0  0  0
  3 17  1  0  0  0
  4 18  2  0  0  0
  4 26  1  0  0  0
  5  6  2  0  0  0
  5 18  1  0  0  0
  5 32  1  0  0  0
  6  7  1  0  0  0
  6 33  1  0  0  0
  7 26  2  0  0  0
  8 19  2  0  0  0
  8 20  1  0  0  0
  8 34  1  0  0  0
  9 21  1  0  0  0
  9 22  1  0  0  0
  9 23  2  0  0  0
 10 21  1  0  0  0
 10 24  2  0  0  0
 10 25  1  0  0  0
 11 27  1  0  0  0
 11 35  1  0  0  0
 12 16  1  0  0  0
 12 27  2  0  0  0
 12 30  1  0  0  0
 13 30  1  0  0  0
 13 36  1  0  0  0
 13 37  1  0  0  0
 13 38  1  0  0  0
 14 15  1  0  0  0
 14 39  1  0  0  0
 14 40  1  0  0  0
 14 41  1  0  0  0
 15 16  1  0  0  0
 16 17  2  0  0  0
 17 42  1  0  0  0
 19 25  1  0  0  0
 20 21  2  0  0  0
 20 43  1  0  0  0
 22 44  1  0  0  0
 22 45  1  0  0  0
 22 46  1  0  0  0
 23 24  1  0  0  0
 25 47  1  0  0  0
 27 28  1  0  0  0
 28 29  1  0  0  0
 29 48  1  0  0  0
 29 49  1  0  0  0
 29 50  1  0  0  0
M  CHG  1   2  -1
M  END
> <s_m_source_file>
../4o78_ligand.sdf

> <i_m_source_file_index>
1

> <s_epik_input>
W0NIM11PYyhbY0hdMSljKE9bQ0gzXSljKE9bQ0gzXSlbY0hdYzFbTkhdYzJuW2NIXVtjSF1jKG4yKVtOSF1DKFtDSDJdMyk9W0NIXVtDSF09QyhDMz00KUMoW0NIM10pPU5ONA==

> <s_epik_cmdline>
J2VwaWtfYXBwJywgJy1pbWFlJywgJ2xpZ2FuZF9wcm8ubWFlJywgJy1vbWFlJywgJ2xpZ2FuZF9wcmVwLm1hZScsICctbXMnLCAnMScsICctcGgnLCAnNycsICctcGh0JywgJzAuNScsICctbnQn

> <r_epik_Ionization_Penalty>
  0.0003

> <r_epik_Ionization_Penalty_Charging>
  0.0000

> <r_epik_Ionization_Penalty_Neutral>
  0.0003

> <r_epik_State_Penalty>
  0.0197

> <r_epik_Charging_Adjusted_Penalty>
0.0196617196335803

> <i_epik_Tot_Q>
-1

> <i_epik_Tot_abs_Q>
1

> <s_epik_Chemistry_Notes>
This compound has an imine and may undergo hydrolysis.

$$$$
