4o7b_ligand
                    3D
 Schrodinger Suite 2020-3.
 60 64  0  0  1  0            999 V2000
  121.7470   -5.5350   -6.6150 C   0  0  0  0  0  0
  121.4760   -6.5460   -5.5640 C   0  0  0  0  0  0
  121.1230   -6.2480   -4.2070 C   0  0  0  0  0  0
  120.9200   -7.3220   -3.3030 C   0  0  0  0  0  0
  121.0350   -8.6670   -3.7250 C   0  0  0  0  0  0
  121.3960   -8.9380   -5.0420 C   0  0  0  0  0  0
  121.5990   -7.8920   -5.9490 C   0  0  0  0  0  0
  120.5190   -7.0970   -2.0150 O   0  0  0  0  0  0
  121.4500   -6.8320   -1.0670 C   0  0  0  0  0  0
  121.0600   -6.8370    0.2230 N   0  0  0  0  0  0
  121.9450   -6.5830    1.2240 C   0  0  0  0  0  0
  123.2850   -6.3500    0.9070 C   0  0  0  0  0  0
  123.6780   -6.3260   -0.4650 C   0  0  0  0  0  0
  122.7310   -6.5930   -1.4040 N   0  0  0  0  0  0
  125.0320   -6.1110   -0.8610 C   0  0  0  0  0  0
  125.9960   -5.2910   -0.2400 C   0  0  0  0  0  0
  127.1650   -5.4020   -0.8980 N   0  0  0  0  0  0
  126.9590   -6.2760   -1.8870 C   0  0  0  0  0  0
  125.6840   -6.7230   -1.8990 N   0  0  0  0  0  0
  125.1790   -7.6910   -2.8600 C   0  0  0  0  0  0
  125.6720   -9.1450   -2.6600 C   0  0  0  0  0  0
  125.1310  -10.0730   -3.7750 C   0  0  0  0  0  0
  125.5210   -9.5820   -5.1130 N   0  3  0  0  0  0
  125.0360   -8.2110   -5.3710 C   0  0  0  0  0  0
  125.5270   -7.2010   -4.2990 C   0  0  0  0  0  0
  125.9180   -4.3680    0.8300 C   0  0  0  0  0  0
  127.0890   -4.0180    1.5310 C   0  0  0  0  0  0
  127.0430   -3.0730    2.5530 C   0  0  0  0  0  0
  125.8360   -2.4340    2.8870 C   0  0  0  0  0  0
  124.6650   -2.7510    2.1900 C   0  0  0  0  0  0
  124.7180   -3.6960    1.1510 C   0  0  0  0  0  0
  125.8130   -1.5540    3.8600 F   0  0  0  0  0  0
  120.9670   -4.8560   -3.7160 C   0  0  0  0  0  0
  121.6192   -4.5263   -6.1951 H   0  0  0  0  0  0
  121.0446   -5.6765   -7.4496 H   0  0  0  0  0  0
  122.7781   -5.6525   -6.9796 H   0  0  0  0  0  0
  120.8432   -9.4820   -3.0271 H   0  0  0  0  0  0
  121.5212   -9.9704   -5.3683 H   0  0  0  0  0  0
  121.8593   -8.1273   -6.9810 H   0  0  0  0  0  0
  121.6122   -6.5615    2.2617 H   0  0  0  0  0  0
  124.0199   -6.1888    1.6957 H   0  0  0  0  0  0
  127.7247   -6.5897   -2.5965 H   0  0  0  0  0  0
  124.1017   -7.6942   -2.6375 H   0  0  0  0  0  0
  126.7715   -9.1662   -2.6862 H   0  0  0  0  0  0
  125.3211   -9.5207   -1.6875 H   0  0  0  0  0  0
  125.5392  -11.0854   -3.6395 H   0  0  0  0  0  0
  124.0330  -10.1100   -3.7206 H   0  0  0  0  0  0
  126.6178   -9.5763   -5.1961 H   0  0  0  0  0  0
  125.0983  -10.2432   -5.8838 H   0  0  0  0  0  0
  125.4010   -7.8714   -6.3515 H   0  0  0  0  0  0
  123.9360   -8.2043   -5.3669 H   0  0  0  0  0  0
  125.0422   -6.2309   -4.4832 H   0  0  0  0  0  0
  126.6172   -7.0902   -4.3950 H   0  0  0  0  0  0
  128.0368   -4.4898    1.2718 H   0  0  0  0  0  0
  127.9529   -2.8260    3.1000 H   0  0  0  0  0  0
  123.7219   -2.2703    2.4499 H   0  0  0  0  0  0
  123.8147   -3.9147    0.5815 H   0  0  0  0  0  0
  121.1584   -4.1529   -4.5400 H   0  0  0  0  0  0
  121.6842   -4.6716   -2.9026 H   0  0  0  0  0  0
  119.9428   -4.7119   -3.3415 H   0  0  0  0  0  0
  1  2  1  0  0  0
  1 34  1  0  0  0
  1 35  1  0  0  0
  1 36  1  0  0  0
  2  3  2  0  0  0
  2  7  1  0  0  0
  3  4  1  0  0  0
  3 33  1  0  0  0
  4  5  2  0  0  0
  4  8  1  0  0  0
  5  6  1  0  0  0
  5 37  1  0  0  0
  6  7  2  0  0  0
  6 38  1  0  0  0
  7 39  1  0  0  0
  8  9  1  0  0  0
  9 10  2  0  0  0
  9 14  1  0  0  0
 10 11  1  0  0  0
 11 12  2  0  0  0
 11 40  1  0  0  0
 12 13  1  0  0  0
 12 41  1  0  0  0
 13 14  2  0  0  0
 13 15  1  0  0  0
 15 16  2  0  0  0
 15 19  1  0  0  0
 16 17  1  0  0  0
 16 26  1  0  0  0
 17 18  2  0  0  0
 18 19  1  0  0  0
 18 42  1  0  0  0
 19 20  1  0  0  0
 20 21  1  0  0  0
 20 25  1  0  0  0
 20 43  1  0  0  0
 21 22  1  0  0  0
 21 44  1  0  0  0
 21 45  1  0  0  0
 22 23  1  0  0  0
 22 46  1  0  0  0
 22 47  1  0  0  0
 23 24  1  0  0  0
 23 48  1  0  0  0
 23 49  1  0  0  0
 24 25  1  0  0  0
 24 50  1  0  0  0
 24 51  1  0  0  0
 25 52  1  0  0  0
 25 53  1  0  0  0
 26 27  2  0  0  0
 26 31  1  0  0  0
 27 28  1  0  0  0
 27 54  1  0  0  0
 28 29  2  0  0  0
 28 55  1  0  0  0
 29 30  1  0  0  0
 29 32  1  0  0  0
 30 31  2  0  0  0
 30 56  1  0  0  0
 31 57  1  0  0  0
 33 58  1  0  0  0
 33 59  1  0  0  0
 33 60  1  0  0  0
M  CHG  1  23   1
M  END
> <s_m_source_file>
../4o7b_ligand.sdf

> <i_m_source_file_index>
1

> <s_epik_input>
W0NIM11jMWMoW0NIM10pYyhbY0hdW2NIXVtjSF0xKU9jMm5bY0hdW2NIXWMobjIpLWMzYygtYzRbY0hdW2NIXWMoRilbY0hdW2NIXTQpbltjSF1uM1tDSF01W0NIMl1bQ0gyXVtOSDIrXVtDSDJdW0NIMl01

> <s_epik_cmdline>
J2VwaWtfYXBwJywgJy1pbWFlJywgJ2xpZ2FuZF9wcm8ubWFlJywgJy1vbWFlJywgJ2xpZ2FuZF9wcmVwLm1hZScsICctbXMnLCAnMScsICctcGgnLCAnNycsICctcGh0JywgJzAuNScsICctbnQn

> <r_lp_tautomer_probability>
1

> <r_epik_Ionization_Penalty>
  0.0071

> <r_epik_Ionization_Penalty_Charging>
  0.0071

> <r_epik_Ionization_Penalty_Neutral>
  0.0000

> <r_epik_State_Penalty>
 -0.0000

> <r_epik_Charging_Adjusted_Penalty>
0.00714851862785632

> <i_epik_Tot_Q>
1

> <i_epik_Tot_abs_Q>
1

$$$$
