4o7c_ligand
                    3D
 Schrodinger Suite 2020-3.
 51 55  0  0  1  0            999 V2000
  114.1370   -8.1560    2.6650 C   0  0  0  0  0  0
  113.0650   -8.4270    3.7530 C   0  0  0  0  0  0
  112.9440   -9.8640    4.0500 N   0  3  0  0  0  0
  114.2100  -10.4520    4.5290 C   0  0  0  0  0  0
  115.3270  -10.2680    3.4730 C   0  0  0  0  0  0
  115.5020   -8.7850    3.0740 C   0  0  0  0  0  0
  116.5530   -8.6520    2.0310 C   0  0  0  0  0  0
  117.7120   -8.0150    2.2020 N   0  0  0  0  0  0
  118.4340   -8.1130    1.0850 C   0  0  3  0  0  0
  119.7070   -7.5400    0.9960 C   0  0  0  0  0  0
  120.7530   -8.1280    0.2200 C   0  0  0  0  0  0
  122.0470   -7.5440    0.1810 C   0  0  0  0  0  0
  122.3120   -6.3630    0.8670 C   0  0  0  0  0  0
  123.4380   -5.6050    0.9430 C   0  0  1  0  0  0
  123.2360   -4.4580    1.8140 C   0  0  0  0  0  0
  121.7700   -4.5610    2.2430 C   0  0  0  0  0  0
  121.3070   -5.7810    1.5930 C   0  0  0  0  0  0
  120.0260   -6.3470    1.7040 C   0  0  0  0  0  0
  124.5690   -5.8190    0.3480 N   0  0  0  0  0  0
  125.4400   -4.9670    0.3320 O   0  0  0  0  0  0
  117.7020   -8.8510    0.1470 C   0  0  0  0  0  0
  117.9640   -9.2170   -1.1860 C   0  0  0  0  0  0
  118.6500   -8.3690   -2.0420 C   0  0  0  0  0  0
  118.8980   -8.7110   -3.3240 C   0  0  0  0  0  0
  118.4580   -9.8950   -3.7930 N   0  0  0  0  0  0
  117.7700  -10.7380   -2.9960 C   0  0  0  0  0  0
  117.5150  -10.4190   -1.7070 C   0  0  0  0  0  0
  116.5490   -9.1680    0.7760 N   0  0  0  0  0  0
  113.8117   -8.5980    1.7117 H   0  0  0  0  0  0
  114.2670   -7.0708    2.5406 H   0  0  0  0  0  0
  113.3427   -7.9035    4.6797 H   0  0  0  0  0  0
  112.0879   -8.0615    3.4041 H   0  0  0  0  0  0
  112.1845  -10.0142    4.8314 H   0  0  0  0  0  0
  112.6443  -10.4028    3.1390 H   0  0  0  0  0  0
  114.5150   -9.9555    5.4620 H   0  0  0  0  0  0
  114.0678  -11.5268    4.7152 H   0  0  0  0  0  0
  116.2817  -10.6302    3.8822 H   0  0  0  0  0  0
  115.0747  -10.8412    2.5687 H   0  0  0  0  0  0
  120.5552   -9.0363   -0.3492 H   0  0  0  0  0  0
  122.8397   -8.0254   -0.3916 H   0  0  0  0  0  0
  123.0965   -5.0114    0.0821 H   0  0  0  0  0  0
  123.9214   -4.5238    2.6718 H   0  0  0  0  0  0
  123.4370   -3.5326    1.2543 H   0  0  0  0  0  0
  121.7125   -4.6244    3.3397 H   0  0  0  0  0  0
  121.2236   -3.6708    1.8981 H   0  0  0  0  0  0
  119.2743   -5.8713    2.3340 H   0  0  0  0  0  0
  118.9969   -7.4044   -1.6713 H   0  0  0  0  0  0
  119.4505   -8.0339   -3.9754 H   0  0  0  0  0  0
  117.4153  -11.6879   -3.3959 H   0  0  0  0  0  0
  116.9548  -11.1095   -1.0765 H   0  0  0  0  0  0
  117.9316   -7.5202    3.1596 H   0  0  0  0  0  0
  1  2  1  0  0  0
  1  6  1  0  0  0
  1 29  1  0  0  0
  1 30  1  0  0  0
  2  3  1  0  0  0
  2 31  1  0  0  0
  2 32  1  0  0  0
  3  4  1  0  0  0
  3 33  1  0  0  0
  3 34  1  0  0  0
  4  5  1  0  0  0
  4 35  1  0  0  0
  4 36  1  0  0  0
  5  6  1  0  0  0
  5 37  1  0  0  0
  5 38  1  0  0  0
  6  7  2  0  0  0
  7  8  1  0  0  0
  7 28  1  0  0  0
  8  9  1  0  0  0
  8 51  1  0  0  0
  9 10  1  0  0  0
  9 21  1  0  0  0
 10 11  2  0  0  0
 10 18  1  0  0  0
 11 12  1  0  0  0
 11 39  1  0  0  0
 12 13  2  0  0  0
 12 40  1  0  0  0
 13 14  1  0  0  0
 13 17  1  0  0  0
 14 15  1  0  0  0
 14 19  1  0  0  0
 14 41  1  0  0  0
 15 16  1  0  0  0
 15 42  1  0  0  0
 15 43  1  0  0  0
 16 17  1  0  0  0
 16 44  1  0  0  0
 16 45  1  0  0  0
 17 18  2  0  0  0
 18 46  1  0  0  0
 19 20  2  0  0  0
 21 22  1  0  0  0
 21 28  2  0  0  0
 22 23  2  0  0  0
 22 27  1  0  0  0
 23 24  1  0  0  0
 23 47  1  0  0  0
 24 25  2  0  0  0
 24 48  1  0  0  0
 25 26  1  0  0  0
 26 27  2  0  0  0
 26 49  1  0  0  0
 27 50  1  0  0  0
M  CHG  1   3   1
M  END
> <s_m_source_file>
../4o7c_ligand.sdf

> <i_m_source_file_index>
1

> <s_epik_input>
W0NIMl0xW0NIMl1bTkgyK11bQ0gyXVtDSDJdW0NIXTFDMj1OW0NIXShjKFtjSF1bY0hdMylbY0hdYyhjMzQpW0NIMl1bQ0gyXVtDSF00Tj1PKUMoPU4yKWM1W2NIXVtjSF1uW2NIXVtjSF01

> <s_epik_cmdline>
J2VwaWtfYXBwJywgJy1pbWFlJywgJ2xpZ2FuZF9wcm8ubWFlJywgJy1vbWFlJywgJ2xpZ2FuZF9wcmVwLm1hZScsICctbXMnLCAnMScsICctcGgnLCAnNycsICctcGh0JywgJzAuNScsICctbnQn

> <r_lp_tautomer_probability>
1

> <r_epik_Ionization_Penalty>
  0.0133

> <r_epik_Ionization_Penalty_Charging>
  0.0114

> <r_epik_Ionization_Penalty_Neutral>
  0.0019

> <r_epik_State_Penalty>
 -0.0000

> <r_epik_Charging_Adjusted_Penalty>
0.0113685824828495

> <i_epik_Tot_Q>
1

> <i_epik_Tot_abs_Q>
1

> <s_epik_Chemistry_Notes>
This compound has an imine and may undergo hydrolysis.

$$$$
