4o7d_ligand
                    3D
 Schrodinger Suite 2020-3.
 21 20  0  0  1  0            999 V2000
   20.9380   -8.5420   64.5200 N   0  3  0  0  0  0
   20.0680   -7.4010   64.8690 C   0  0  2  0  0  0
   18.9540   -7.9190   65.8330 C   0  0  0  0  0  0
   18.4710   -7.1450   66.7100 O   0  5  0  0  0  0
   18.6250   -9.1200   65.6710 O   0  0  0  0  0  0
   19.4960   -6.7460   63.5950 C   0  0  0  0  0  0
   18.6550   -5.4680   63.7700 C   0  0  0  0  0  0
   18.1860   -5.1520   62.3590 C   0  0  0  0  0  0
   18.9740   -5.0170   61.4330 O   0  0  0  0  0  0
   16.6900   -5.3960   62.0850 C   0  0  0  0  0  0
   21.3355   -8.9949   65.4403 H   0  0  0  0  0  0
   21.7718   -8.1896   63.8950 H   0  0  0  0  0  0
   20.3548   -9.2914   63.9648 H   0  0  0  0  0  0
   20.6862   -6.6404   65.3683 H   0  0  0  0  0  0
   20.3219   -6.4617   62.9264 H   0  0  0  0  0  0
   18.8366   -7.4601   63.0799 H   0  0  0  0  0  0
   17.8170   -5.6712   64.4529 H   0  0  0  0  0  0
   19.2845   -4.6694   64.1895 H   0  0  0  0  0  0
   16.1528   -5.4900   63.0403 H   0  0  0  0  0  0
   16.5700   -6.3224   61.5041 H   0  0  0  0  0  0
   16.2789   -4.5499   61.5149 H   0  0  0  0  0  0
  1  2  1  0  0  0
  1 11  1  0  0  0
  1 12  1  0  0  0
  1 13  1  0  0  0
  2  3  1  0  0  0
  2  6  1  0  0  0
  2 14  1  0  0  0
  3  4  1  0  0  0
  3  5  2  0  0  0
  6  7  1  0  0  0
  6 15  1  0  0  0
  6 16  1  0  0  0
  7  8  1  0  0  0
  7 17  1  0  0  0
  7 18  1  0  0  0
  8  9  2  0  0  0
  8 10  1  0  0  0
 10 19  1  0  0  0
 10 20  1  0  0  0
 10 21  1  0  0  0
M  CHG  2   1   1   4  -1
M  END
> <s_m_source_file>
../4o7d_ligand.sdf

> <i_m_source_file_index>
1

> <s_epik_input>
W09IXUMoPU8pW0NAQEhdKFtOSDMrXSlbQ0gyXVtDSDJdQyg9TylbQ0gzXQ==

> <s_epik_cmdline>
J2VwaWtfYXBwJywgJy1pbWFlJywgJ2xpZ2FuZF9wcm8ubWFlJywgJy1vbWFlJywgJ2xpZ2FuZF9wcmVwLm1hZScsICctbXMnLCAnMScsICctcGgnLCAnNycsICctcGh0JywgJzAuNScsICctbnQn

> <r_lp_tautomer_probability>
1

> <r_epik_Ionization_Penalty>
  0.0017

> <r_epik_Ionization_Penalty_Charging>
  0.0017

> <r_epik_Ionization_Penalty_Neutral>
  0.0000

> <r_epik_State_Penalty>
 -0.0000

> <r_epik_Charging_Adjusted_Penalty>
0.00167094101738827

> <i_epik_Tot_Q>
0

> <i_epik_Tot_abs_Q>
2

$$$$
