4o7e_ligand
                    3D
 Schrodinger Suite 2020-3.
 38 41  0  0  1  0            999 V2000
   66.0920  121.5140   32.4270 C   0  0  0  0  0  0
   65.2060  121.6710   33.4870 C   0  0  0  0  0  0
   64.9350  122.9380   33.9830 C   0  0  0  0  0  0
   65.5700  124.0600   33.3950 C   0  0  0  0  0  0
   66.4520  123.9130   32.3310 C   0  0  0  0  0  0
   66.7190  122.6390   31.8410 C   0  0  0  0  0  0
   65.2660  125.4740   33.9530 C   0  0  0  0  0  0
   65.6670  126.6350   33.4170 N   0  0  0  0  0  0
   65.2030  127.6130   34.1910 C   0  0  3  0  0  0
   64.5120  127.0370   35.2340 C   0  0  0  0  0  0
   64.5590  125.7380   35.0790 N   0  0  0  0  0  0
   63.7870  127.7030   36.4040 C   0  0  0  0  0  0
   64.2110  128.9470   36.9910 C   0  0  0  0  0  0
   63.5010  129.4610   38.0390 C   0  0  0  0  0  0
   62.4240  128.8190   38.5240 N   0  0  0  0  0  0
   61.9880  127.6640   38.0190 C   0  0  0  0  0  0
   62.6580  127.0780   36.9570 C   0  0  0  0  0  0
   65.4600  129.0600   33.9010 C   0  0  0  0  0  0
   66.7760  129.4600   33.6830 C   0  0  0  0  0  0
   67.0500  130.8160   33.3940 C   0  0  0  0  0  0
   66.0100  131.7490   33.3220 C   0  0  0  0  0  0
   64.6780  131.3340   33.5300 C   0  0  0  0  0  0
   64.4000  129.9850   33.8190 C   0  0  0  0  0  0
   68.3850  131.2250   33.1850 O   0  0  0  0  0  0
   66.3054  120.5160   32.0442 H   0  0  0  0  0  0
   64.7243  120.7985   33.9284 H   0  0  0  0  0  0
   64.2424  123.0687   34.8145 H   0  0  0  0  0  0
   66.9290  124.7861   31.8857 H   0  0  0  0  0  0
   67.4094  122.5076   31.0078 H   0  0  0  0  0  0
   65.0854  129.4711   36.6052 H   0  0  0  0  0  0
   63.8120  130.4043   38.4879 H   0  0  0  0  0  0
   61.1062  127.1819   38.4410 H   0  0  0  0  0  0
   62.3076  126.1295   36.5500 H   0  0  0  0  0  0
   67.5873  128.7339   33.7348 H   0  0  0  0  0  0
   66.2286  132.7947   33.1056 H   0  0  0  0  0  0
   63.8650  132.0573   33.4670 H   0  0  0  0  0  0
   63.3724  129.6581   33.9782 H   0  0  0  0  0  0
   69.2009  130.4895   33.2422 H   0  0  0  0  0  0
  1  2  2  0  0  0
  1  6  1  0  0  0
  1 25  1  0  0  0
  2  3  1  0  0  0
  2 26  1  0  0  0
  3  4  2  0  0  0
  3 27  1  0  0  0
  4  5  1  0  0  0
  4  7  1  0  0  0
  5  6  2  0  0  0
  5 28  1  0  0  0
  6 29  1  0  0  0
  7  8  2  0  0  0
  7 11  1  0  0  0
  8  9  1  0  0  0
  9 10  1  0  0  0
  9 18  1  0  0  0
 10 11  2  0  0  0
 10 12  1  0  0  0
 12 13  2  0  0  0
 12 17  1  0  0  0
 13 14  1  0  0  0
 13 30  1  0  0  0
 14 15  2  0  0  0
 14 31  1  0  0  0
 15 16  1  0  0  0
 16 17  2  0  0  0
 16 32  1  0  0  0
 17 33  1  0  0  0
 18 19  2  0  0  0
 18 23  1  0  0  0
 19 20  1  0  0  0
 19 34  1  0  0  0
 20 21  2  0  0  0
 20 24  1  0  0  0
 21 22  1  0  0  0
 21 35  1  0  0  0
 22 23  2  0  0  0
 22 36  1  0  0  0
 23 37  1  0  0  0
 24 38  1  0  0  0
M  END
> <s_m_source_file>
../4o7e_ligand.sdf

> <i_m_source_file_index>
1

> <s_epik_input>
W2NIXTFbY0hdW2NIXVtjSF1bY0hdYzFDMj1OW0NIXShjM1tjSF1jKFtPSF0pW2NIXVtjSF1bY0hdMylDKD1OMiljNFtjSF1bY0hdbltjSF1bY0hdNA==

> <s_epik_cmdline>
J2VwaWtfYXBwJywgJy1pbWFlJywgJ2xpZ2FuZF9wcm8ubWFlJywgJy1vbWFlJywgJ2xpZ2FuZF9wcmVwLm1hZScsICctbXMnLCAnMScsICctcGgnLCAnNycsICctcGh0JywgJzAuNScsICctbnQn

> <r_epik_Ionization_Penalty>
  0.7251

> <r_epik_Ionization_Penalty_Charging>
  0.0000

> <r_epik_Ionization_Penalty_Neutral>
  0.7251

> <r_epik_State_Penalty>
  0.3659

> <r_epik_Charging_Adjusted_Penalty>
0.365908208628977

> <i_epik_Tot_Q>
0

> <i_epik_Tot_abs_Q>
0

> <s_epik_Chemistry_Notes>
This compound has an imine and may undergo hydrolysis.

$$$$
