4o97_ligand
                    3D
 Schrodinger Suite 2020-3.
 75 78  0  0  1  0            999 V2000
   20.5680    2.7730   23.3550 N   0  0  0  0  0  0
   20.1870    8.6940   32.3640 N   0  0  0  0  0  0
   19.3470    6.0660   26.0310 C   0  0  0  0  0  0
   19.8750    5.1260   25.1300 C   0  0  0  0  0  0
   19.0490    4.6370   24.1100 C   0  0  0  0  0  0
   19.5850    3.6540   23.1070 C   0  0  0  0  0  0
   21.0150    1.8800   22.2520 C   0  0  1  0  0  0
   22.6020    8.3080   27.7140 C   0  0  0  0  0  0
   14.7910   10.3200   23.0520 C   0  0  0  0  0  0
   13.9780   11.0690   25.2320 C   0  0  0  0  0  0
   14.8370    8.7910   24.9750 C   0  0  0  0  0  0
   21.6760    8.8050   30.3190 C   0  0  0  0  0  0
   22.5180    9.7170   29.6760 C   0  0  0  0  0  0
   22.9710    9.4770   28.3820 C   0  0  0  0  0  0
   23.2010    1.0130   21.2340 C   0  0  0  0  0  0
   21.4360   -0.6100   21.7380 C   0  0  0  0  0  0
   21.2230    9.2080   31.6910 C   0  0  0  0  0  0
   19.0950    3.7310   21.9980 O   0  0  0  0  0  0
   22.5280    2.1170   22.0470 C   0  0  0  0  0  0
   22.9220   -0.3150   21.9270 C   0  0  1  0  0  0
   23.7830   -1.3720   21.4370 N   0  3  0  0  0  0
   20.6760    0.4110   22.5990 C   0  0  0  0  0  0
   20.0960    6.5900   27.0630 O   0  0  0  0  0  0
   21.3660    6.1390   27.5950 C   0  0  0  0  0  0
   21.7850    7.3790   28.3560 C   0  0  0  0  0  0
   21.9060   10.2000   32.2410 N   0  3  0  0  0  0
   21.2990    7.6290   29.6690 C   0  0  0  0  0  0
   18.0100    6.5090   25.8860 C   0  0  0  0  0  0
   17.1510    6.0230   24.8660 C   0  0  0  0  0  0
   17.7060    5.0780   23.9850 C   0  0  0  0  0  0
   15.8090    6.4440   24.7160 O   0  0  0  0  0  0
   15.1540    7.4130   25.5800 C   0  0  0  0  0  0
   14.2790    9.8040   25.7840 C   0  0  0  0  0  0
   13.3970   12.1920   26.0770 C   0  0  0  0  0  0
   12.7210   11.9990   27.2190 N   0  0  0  0  0  0
   13.5640   13.4590   25.6790 N   0  3  0  0  0  0
   14.2470   11.3220   23.8660 C   0  0  0  0  0  0
   15.0880    9.0640   23.6160 C   0  0  0  0  0  0
   21.0407    2.7023   24.3457 H   0  0  0  0  0  0
   19.6033    7.8693   31.9291 H   0  0  0  0  0  0
   19.9190    9.0961   33.3522 H   0  0  0  0  0  0
   20.9059    4.7844   25.2229 H   0  0  0  0  0  0
   20.4750    2.1318   21.3273 H   0  0  0  0  0  0
   22.9503    8.1231   26.6978 H   0  0  0  0  0  0
   14.9820   10.5099   21.9958 H   0  0  0  0  0  0
   22.8232   10.6263   30.1938 H   0  0  0  0  0  0
   23.6159   10.2041   27.8886 H   0  0  0  0  0  0
   22.7880    1.0047   20.2145 H   0  0  0  0  0  0
   24.2842    1.1990   21.1892 H   0  0  0  0  0  0
   21.1729   -0.5016   20.6754 H   0  0  0  0  0  0
   21.2216   -1.6379   22.0658 H   0  0  0  0  0  0
   22.6813    3.0660   21.5123 H   0  0  0  0  0  0
   23.0279    2.1627   23.0258 H   0  0  0  0  0  0
   23.1909   -0.2963   22.9935 H   0  0  0  0  0  0
   24.8345   -1.0954   21.6039 H   0  0  0  0  0  0
   23.6085   -1.5177   20.3607 H   0  0  0  0  0  0
   23.5597   -2.3055   21.9743 H   0  0  0  0  0  0
   20.9336    0.2137   23.6501 H   0  0  0  0  0  0
   19.6007    0.2369   22.4461 H   0  0  0  0  0  0
   21.2043    5.2565   28.2314 H   0  0  0  0  0  0
   22.0380    5.8745   26.7653 H   0  0  0  0  0  0
   21.6408   10.5593   33.2463 H   0  0  0  0  0  0
   20.6413    6.9122   30.1607 H   0  0  0  0  0  0
   17.6256    7.2520   26.5847 H   0  0  0  0  0  0
   17.0876    4.6730   23.1840 H   0  0  0  0  0  0
   15.8238    7.5371   26.4437 H   0  0  0  0  0  0
   14.2200    6.9322   25.9064 H   0  0  0  0  0  0
   14.0797    9.6097   26.8379 H   0  0  0  0  0  0
   12.5540   10.9783   27.5935 H   0  0  0  0  0  0
   12.3335   12.8614   27.7812 H   0  0  0  0  0  0
   14.1108   13.6760   24.7495 H   0  0  0  0  0  0
   14.0294   12.3033   23.4442 H   0  0  0  0  0  0
   15.5215    8.2863   22.9872 H   0  0  0  0  0  0
   22.7386   10.6648   31.6927 H   0  0  0  0  0  0
   13.1545   14.2833   26.2814 H   0  0  0  0  0  0
  1  6  1  0  0  0
  1  7  1  0  0  0
  1 39  1  0  0  0
  2 17  1  0  0  0
  2 40  1  0  0  0
  2 41  1  0  0  0
  3  4  2  0  0  0
  3 23  1  0  0  0
  3 28  1  0  0  0
  4  5  1  0  0  0
  4 42  1  0  0  0
  5  6  1  0  0  0
  5 30  2  0  0  0
  6 18  2  0  0  0
  7 19  1  0  0  0
  7 22  1  0  0  0
  7 43  1  0  0  0
  8 14  2  0  0  0
  8 25  1  0  0  0
  8 44  1  0  0  0
  9 37  2  0  0  0
  9 38  1  0  0  0
  9 45  1  0  0  0
 10 33  2  0  0  0
 10 34  1  0  0  0
 10 37  1  0  0  0
 11 32  1  0  0  0
 11 33  1  0  0  0
 11 38  2  0  0  0
 12 13  2  0  0  0
 12 17  1  0  0  0
 12 27  1  0  0  0
 13 14  1  0  0  0
 13 46  1  0  0  0
 14 47  1  0  0  0
 15 19  1  0  0  0
 15 20  1  0  0  0
 15 48  1  0  0  0
 15 49  1  0  0  0
 16 20  1  0  0  0
 16 22  1  0  0  0
 16 50  1  0  0  0
 16 51  1  0  0  0
 17 26  2  0  0  0
 19 52  1  0  0  0
 19 53  1  0  0  0
 20 21  1  0  0  0
 20 54  1  0  0  0
 21 55  1  0  0  0
 21 56  1  0  0  0
 21 57  1  0  0  0
 22 58  1  0  0  0
 22 59  1  0  0  0
 23 24  1  0  0  0
 24 25  1  0  0  0
 24 60  1  0  0  0
 24 61  1  0  0  0
 25 27  2  0  0  0
 26 62  1  0  0  0
 26 74  1  0  0  0
 27 63  1  0  0  0
 28 29  2  0  0  0
 28 64  1  0  0  0
 29 30  1  0  0  0
 29 31  1  0  0  0
 30 65  1  0  0  0
 31 32  1  0  0  0
 32 66  1  0  0  0
 32 67  1  0  0  0
 33 68  1  0  0  0
 34 35  1  0  0  0
 34 36  2  0  0  0
 35 69  1  0  0  0
 35 70  1  0  0  0
 36 71  1  0  0  0
 36 75  1  0  0  0
 37 72  1  0  0  0
 38 73  1  0  0  0
M  CHG  3  21   1  26   1  36   1
M  END
> <s_m_source_file>
../4o97_ligand.sdf

> <i_m_source_file_index>
1

> <s_epik_input>
W0hdL049QyhbTkgyXSlcYzFbY0hdYyhbY0hdW2NIXVtjSF0xKVtDSDJdT2MoW2NIXTIpW2NIXWMoQyg9TylbTkhdW0NASF0zW0NIMl1bQ0gyXVtDQEhdKFtOSDMrXSlbQ0gyXVtDSDJdMylbY0hdYzJPW0NIMl1jKFtjSF00KVtjSF1bY0hdW2NIXWM0QyhcW05IMl0pPU4vW0hd

> <s_epik_cmdline>
J2VwaWtfYXBwJywgJy1pbWFlJywgJ2xpZ2FuZF9wcm8ubWFlJywgJy1vbWFlJywgJ2xpZ2FuZF9wcmVwLm1hZScsICctbXMnLCAnMScsICctcGgnLCAnNycsICctcGh0JywgJzAuNScsICctbnQn

> <r_lp_tautomer_probability>
1

> <r_epik_Ionization_Penalty>
  0.0008

> <r_epik_Ionization_Penalty_Charging>
  0.0008

> <r_epik_Ionization_Penalty_Neutral>
  0.0000

> <r_epik_State_Penalty>
 -0.0000

> <r_epik_Charging_Adjusted_Penalty>
0.000847420441444677

> <i_epik_Tot_Q>
3

> <i_epik_Tot_abs_Q>
3

> <s_epik_Chemistry_Notes>
This compound has an imine and may undergo hydrolysis.

$$$$
