4o9v_ligand
                    3D
 Schrodinger Suite 2020-3.
 69 72  0  0  1  0            999 V2000
   19.9830    7.5390   26.9600 N   0  0  0  0  0  0
   13.0880   13.7740   25.8290 N   0  3  0  0  0  0
   16.6500    7.6800   23.7880 C   0  0  0  0  0  0
   17.1650    7.7820   25.0830 C   0  0  0  0  0  0
   18.1500    6.8810   25.5270 C   0  0  0  0  0  0
   18.7200    7.1030   26.9180 C   0  0  0  0  0  0
   20.8100    7.8090   28.1110 C   0  0  1  0  0  0
   15.0710    9.4660   23.9680 C   0  0  0  0  0  0
   21.5400    2.6220   21.4270 C   0  0  0  0  0  0
   20.6000    4.6450   22.4190 C   0  0  0  0  0  0
   13.7380   10.1360   25.8360 C   0  0  0  0  0  0
   15.1480   10.7890   23.5110 C   0  0  0  0  0  0
   21.9460    8.6800   27.6090 C   0  0  0  0  0  0
   22.9710    9.0220   28.6990 C   0  0  0  0  0  0
   21.1830    8.8670   30.3610 C   0  0  0  0  0  0
   13.0960   12.5250   26.2150 C   0  0  0  0  0  0
   18.0380    6.9350   27.9060 O   0  0  0  0  0  0
   22.2070    9.8240   29.7310 C   0  0  1  0  0  0
   23.0950   10.4730   30.7080 N   0  3  0  0  0  0
   20.1090    8.4290   29.3420 C   0  0  0  0  0  0
   15.6870    8.4630   23.2540 O   0  0  0  0  0  0
   14.3770    9.1350   25.1160 C   0  0  0  0  0  0
   13.8390   11.4800   25.4130 C   0  0  0  0  0  0
   12.3190   12.1760   27.2370 N   0  0  0  0  0  0
   14.5290   11.7910   24.2530 C   0  0  0  0  0  0
   17.0390    6.6630   22.9760 C   0  0  0  0  0  0
   17.9950    5.7630   23.3840 C   0  0  0  0  0  0
   18.5620    5.8430   24.6740 C   0  0  0  0  0  0
   18.2100    4.8380   22.3710 O   0  0  0  0  0  0
   19.3260    4.1620   22.0850 C   0  0  0  0  0  0
   19.1270    2.9400   21.4360 C   0  0  0  0  0  0
   20.2360    2.1610   21.1140 C   0  0  0  0  0  0
   22.7310    1.7350   21.0820 C   0  0  0  0  0  0
   23.6130    1.4670   22.0430 N   0  3  0  0  0  0
   22.9020    1.1720   19.8680 N   0  0  0  0  0  0
   21.7190    3.8700   22.0730 C   0  0  0  0  0  0
   20.3836    7.6914   25.9470 H   0  0  0  0  0  0
   13.7196   14.0935   24.9870 H   0  0  0  0  0  0
   16.8022    8.5626   25.7517 H   0  0  0  0  0  0
   21.1294    6.8141   28.4548 H   0  0  0  0  0  0
   20.7185    5.5982   22.9343 H   0  0  0  0  0  0
   13.1599    9.8852   26.7254 H   0  0  0  0  0  0
   15.6826   11.0286   22.5918 H   0  0  0  0  0  0
   22.4803    8.1568   26.8023 H   0  0  0  0  0  0
   21.5397    9.6275   27.2253 H   0  0  0  0  0  0
   23.3735    8.0927   29.1283 H   0  0  0  0  0  0
   23.7915    9.6084   28.2598 H   0  0  0  0  0  0
   21.6992    7.9677   30.7282 H   0  0  0  0  0  0
   20.6797    9.3693   31.2003 H   0  0  0  0  0  0
   21.7132   10.6968   29.2789 H   0  0  0  0  0  0
   23.7950   11.1386   30.1817 H   0  0  0  0  0  0
   23.6608    9.7051   31.2559 H   0  0  0  0  0  0
   22.4931   11.0606   31.4169 H   0  0  0  0  0  0
   19.5179    9.3014   29.0266 H   0  0  0  0  0  0
   19.4442    7.6820   29.8003 H   0  0  0  0  0  0
   14.3315    8.0994   25.4529 H   0  0  0  0  0  0
   11.7851   12.9479   27.8107 H   0  0  0  0  0  0
   12.2105   11.1155   27.5083 H   0  0  0  0  0  0
   14.5877   12.8269   23.9190 H   0  0  0  0  0  0
   16.5879    6.5591   21.9892 H   0  0  0  0  0  0
   19.3040    5.1149   25.0018 H   0  0  0  0  0  0
   18.1211    2.6024   21.1862 H   0  0  0  0  0  0
   20.1016    1.1978   20.6218 H   0  0  0  0  0  0
   23.4929    1.9152   23.0403 H   0  0  0  0  0  0
   22.1855    1.3796   19.0596 H   0  0  0  0  0  0
   23.7579    0.5053   19.6865 H   0  0  0  0  0  0
   22.7230    4.2280   22.3010 H   0  0  0  0  0  0
   12.4497   14.5054   26.3463 H   0  0  0  0  0  0
   24.4617    0.7974   21.8395 H   0  0  0  0  0  0
  1  6  1  0  0  0
  1  7  1  0  0  0
  1 37  1  0  0  0
  2 16  2  0  0  0
  2 38  1  0  0  0
  2 68  1  0  0  0
  3  4  2  0  0  0
  3 21  1  0  0  0
  3 26  1  0  0  0
  4  5  1  0  0  0
  4 39  1  0  0  0
  5  6  1  0  0  0
  5 28  2  0  0  0
  6 17  2  0  0  0
  7 13  1  0  0  0
  7 20  1  0  0  0
  7 40  1  0  0  0
  8 12  2  0  0  0
  8 21  1  0  0  0
  8 22  1  0  0  0
  9 32  2  0  0  0
  9 33  1  0  0  0
  9 36  1  0  0  0
 10 30  1  0  0  0
 10 36  2  0  0  0
 10 41  1  0  0  0
 11 22  2  0  0  0
 11 23  1  0  0  0
 11 42  1  0  0  0
 12 25  1  0  0  0
 12 43  1  0  0  0
 13 14  1  0  0  0
 13 44  1  0  0  0
 13 45  1  0  0  0
 14 18  1  0  0  0
 14 46  1  0  0  0
 14 47  1  0  0  0
 15 18  1  0  0  0
 15 20  1  0  0  0
 15 48  1  0  0  0
 15 49  1  0  0  0
 16 23  1  0  0  0
 16 24  1  0  0  0
 18 19  1  0  0  0
 18 50  1  0  0  0
 19 51  1  0  0  0
 19 52  1  0  0  0
 19 53  1  0  0  0
 20 54  1  0  0  0
 20 55  1  0  0  0
 22 56  1  0  0  0
 23 25  2  0  0  0
 24 57  1  0  0  0
 24 58  1  0  0  0
 25 59  1  0  0  0
 26 27  2  0  0  0
 26 60  1  0  0  0
 27 28  1  0  0  0
 27 29  1  0  0  0
 28 61  1  0  0  0
 29 30  1  0  0  0
 30 31  2  0  0  0
 31 32  1  0  0  0
 31 62  1  0  0  0
 32 63  1  0  0  0
 33 34  2  0  0  0
 33 35  1  0  0  0
 34 64  1  0  0  0
 34 69  1  0  0  0
 35 65  1  0  0  0
 35 66  1  0  0  0
 36 67  1  0  0  0
M  CHG  3   2   1  19   1  34   1
M  END
> <s_m_source_file>
../4o9v_ligand.sdf

> <i_m_source_file_index>
1

> <s_epik_input>
W0hdL049QyhbTkgyXSlcYzFbY0hdW2NIXWMoW2NIXVtjSF0xKU9jKFtjSF0yKVtjSF1jKEMoPU8pW05IXVtDQEhdM1tDSDJdW0NIMl1bQ0BIXShbTkgzK10pW0NIMl1bQ0gyXTMpW2NIXWMyT2M0W2NIXVtjSF1jKFtjSF1bY0hdNCkvQyg9TlxbSF0pW05IMl0=

> <s_epik_cmdline>
J2VwaWtfYXBwJywgJy1pbWFlJywgJ2xpZ2FuZF9wcm8ubWFlJywgJy1vbWFlJywgJ2xpZ2FuZF9wcmVwLm1hZScsICctbXMnLCAnMScsICctcGgnLCAnNycsICctcGh0JywgJzAuNScsICctbnQn

> <r_lp_tautomer_probability>
1

> <r_epik_Ionization_Penalty>
  0.0011

> <r_epik_Ionization_Penalty_Charging>
  0.0011

> <r_epik_Ionization_Penalty_Neutral>
  0.0000

> <r_epik_State_Penalty>
 -0.0000

> <r_epik_Charging_Adjusted_Penalty>
0.00110248922571355

> <i_epik_Tot_Q>
3

> <i_epik_Tot_abs_Q>
3

> <s_epik_Chemistry_Notes>
This compound has an imine and may undergo hydrolysis.

$$$$
