4o9w_ligand
                    3D
 Schrodinger Suite 2020-3.
 87 86  0  0  1  0            999 V2000
    4.1940   15.9780   19.1400 N   0  3  0  0  0  0
    3.8470   15.8230   17.7330 C   0  0  2  0  0  0
    3.0050   14.5520   17.4990 C   0  0  0  0  0  0
    2.9620   13.6450   18.3370 O   0  0  0  0  0  0
    5.1120   15.8800   16.8310 C   0  0  0  0  0  0
    5.9120   14.5950   16.9190 C   0  0  0  0  0  0
    4.7530   16.2060   15.3890 C   0  0  0  0  0  0
    2.3050   14.5160   16.3720 N   0  0  0  0  0  0
    1.3300   13.4750   16.0900 C   0  0  2  0  0  0
    1.6690   12.8430   14.7600 C   0  0  0  0  0  0
    2.3370   13.4580   13.9290 O   0  0  0  0  0  0
   -0.0650   14.0950   15.9500 C   0  0  0  0  0  0
   -0.5520   15.0810   17.0040 C   0  0  0  0  0  0
   -1.7650   15.7930   16.4770 C   0  0  0  0  0  0
   -0.9070   14.3360   18.2470 C   0  0  0  0  0  0
    1.1670   11.6350   14.5420 N   0  0  0  0  0  0
    1.1430   11.0640   13.2040 C   0  0  2  0  0  0
    0.1000   11.8220   12.3870 C   0  0  0  0  0  0
   -0.4980   12.7860   12.8820 O   0  0  0  0  0  0
    0.8520    9.5630   13.2300 C   0  0  0  0  0  0
   -0.3960    9.2530   13.8440 O   0  0  0  0  0  0
   -0.1070   11.3950   11.1440 N   0  0  0  0  0  0
   -0.9280   12.1300   10.1790 C   0  0  1  0  0  0
   -0.8400   11.4510    8.8020 C   0  0  1  0  0  0
   -1.7160   12.2140    7.8110 C   0  0  0  0  0  0
    0.5180   11.5800    8.3870 O   0  0  0  0  0  0
    1.3410   10.1820    8.3080 P   0  0  0  0  0  0
    2.6820   10.6300    7.8650 O   0  0  0  0  0  0
    1.3750    9.4760    9.7460 O   0  5  0  0  0  0
    0.6410    9.2450    7.2070 O   0  5  0  0  0  0
   -2.3830   12.2940   10.6280 C   0  0  0  0  0  0
   -3.0260   11.3300   11.0780 O   0  0  0  0  0  0
   -2.8820   13.5280   10.5430 N   0  0  0  0  0  0
   -4.2470   13.8170   10.9860 C   0  0  2  0  0  0
   -5.2570   13.2370   10.0170 C   0  0  0  0  0  0
   -4.9860   13.1360    8.8140 O   0  0  0  0  0  0
   -4.4860   15.3230   11.1100 C   0  0  0  0  0  0
   -3.5430   16.1330   11.9870 C   0  0  0  0  0  0
   -4.1600   17.4910   12.2790 C   0  0  0  0  0  0
   -3.2500   15.4090   13.2620 C   0  0  0  0  0  0
   -6.4160   12.8490   10.5420 N   0  0  0  0  0  0
    3.2798   15.9333   19.7502 H   0  0  0  0  0  0
    4.6885   16.9490   19.2909 H   0  0  0  0  0  0
    4.8756   15.1687   19.4408 H   0  0  0  0  0  0
    3.2135   16.6942   17.5101 H   0  0  0  0  0  0
    5.7669   16.6875   17.1902 H   0  0  0  0  0  0
    6.1560   14.3863   17.9711 H   0  0  0  0  0  0
    6.8419   14.7017   16.3411 H   0  0  0  0  0  0
    5.3185   13.7648   16.5086 H   0  0  0  0  0  0
    4.1745   17.1410   15.3576 H   0  0  0  0  0  0
    4.1508   15.3878   14.9671 H   0  0  0  0  0  0
    5.6742   16.3248   14.7997 H   0  0  0  0  0  0
    2.4854   15.3143   15.6370 H   0  0  0  0  0  0
    1.3866   12.7558   16.9204 H   0  0  0  0  0  0
   -0.1243   14.6547   15.0049 H   0  0  0  0  0  0
   -0.8226   13.2975   15.9519 H   0  0  0  0  0  0
    0.2285   15.8167   17.2480 H   0  0  0  0  0  0
   -1.4994   16.3409   15.5609 H   0  0  0  0  0  0
   -2.1324   16.5012   17.2343 H   0  0  0  0  0  0
   -2.5515   15.0583   16.2498 H   0  0  0  0  0  0
   -0.0164   13.8161   18.6298 H   0  0  0  0  0  0
   -1.6927   13.5999   18.0215 H   0  0  0  0  0  0
   -1.2735   15.0428   19.0060 H   0  0  0  0  0  0
    0.7649   11.0632   15.3913 H   0  0  0  0  0  0
    2.1507   11.1963   12.7832 H   0  0  0  0  0  0
    0.8249    9.1769   12.2003 H   0  0  0  0  0  0
    1.6418    9.0461   13.7948 H   0  0  0  0  0  0
   -0.7236    8.2061   13.9260 H   0  0  0  0  0  0
    0.3690   10.4473   10.8520 H   0  0  0  0  0  0
   -0.4879   13.1377   10.1492 H   0  0  0  0  0  0
   -1.1075   10.3842    8.8217 H   0  0  0  0  0  0
   -2.7705   12.1281    8.1121 H   0  0  0  0  0  0
   -1.5862   11.7895    6.8045 H   0  0  0  0  0  0
   -1.4223   13.2740    7.8026 H   0  0  0  0  0  0
   -2.2544   14.3335   10.1339 H   0  0  0  0  0  0
   -4.3355   13.3309   11.9688 H   0  0  0  0  0  0
   -4.4171   15.7883   10.1156 H   0  0  0  0  0  0
   -5.4867   15.5021   11.5301 H   0  0  0  0  0  0
   -2.5841   16.2662   11.4648 H   0  0  0  0  0  0
   -4.3692   18.0100   11.3319 H   0  0  0  0  0  0
   -3.4595   18.0907   12.8788 H   0  0  0  0  0  0
   -5.0978   17.3552   12.8376 H   0  0  0  0  0  0
   -2.8045   14.4296   13.0334 H   0  0  0  0  0  0
   -4.1841   15.2647   13.8247 H   0  0  0  0  0  0
   -2.5458   16.0002   13.8658 H   0  0  0  0  0  0
   -6.5975   12.9651   11.6207 H   0  0  0  0  0  0
   -7.1929   12.4120    9.8974 H   0  0  0  0  0  0
  1  2  1  0  0  0
  1 42  1  0  0  0
  1 43  1  0  0  0
  1 44  1  0  0  0
  2  3  1  0  0  0
  2  5  1  0  0  0
  2 45  1  0  0  0
  3  4  2  0  0  0
  3  8  1  0  0  0
  5  6  1  0  0  0
  5  7  1  0  0  0
  5 46  1  0  0  0
  6 47  1  0  0  0
  6 48  1  0  0  0
  6 49  1  0  0  0
  7 50  1  0  0  0
  7 51  1  0  0  0
  7 52  1  0  0  0
  8  9  1  0  0  0
  8 53  1  0  0  0
  9 10  1  0  0  0
  9 12  1  0  0  0
  9 54  1  0  0  0
 10 11  2  0  0  0
 10 16  1  0  0  0
 12 13  1  0  0  0
 12 55  1  0  0  0
 12 56  1  0  0  0
 13 14  1  0  0  0
 13 15  1  0  0  0
 13 57  1  0  0  0
 14 58  1  0  0  0
 14 59  1  0  0  0
 14 60  1  0  0  0
 15 61  1  0  0  0
 15 62  1  0  0  0
 15 63  1  0  0  0
 16 17  1  0  0  0
 16 64  1  0  0  0
 17 18  1  0  0  0
 17 20  1  0  0  0
 17 65  1  0  0  0
 18 19  2  0  0  0
 18 22  1  0  0  0
 20 21  1  0  0  0
 20 66  1  0  0  0
 20 67  1  0  0  0
 21 68  1  0  0  0
 22 23  1  0  0  0
 22 69  1  0  0  0
 23 24  1  0  0  0
 23 31  1  0  0  0
 23 70  1  0  0  0
 24 25  1  0  0  0
 24 26  1  0  0  0
 24 71  1  0  0  0
 25 72  1  0  0  0
 25 73  1  0  0  0
 25 74  1  0  0  0
 26 27  1  0  0  0
 27 28  2  0  0  0
 27 29  1  0  0  0
 27 30  1  0  0  0
 31 32  2  0  0  0
 31 33  1  0  0  0
 33 34  1  0  0  0
 33 75  1  0  0  0
 34 35  1  0  0  0
 34 37  1  0  0  0
 34 76  1  0  0  0
 35 36  2  0  0  0
 35 41  1  0  0  0
 37 38  1  0  0  0
 37 77  1  0  0  0
 37 78  1  0  0  0
 38 39  1  0  0  0
 38 40  1  0  0  0
 38 79  1  0  0  0
 39 80  1  0  0  0
 39 81  1  0  0  0
 39 82  1  0  0  0
 40 83  1  0  0  0
 40 84  1  0  0  0
 40 85  1  0  0  0
 41 86  1  0  0  0
 41 87  1  0  0  0
M  CHG  3   1   1  29  -1  30  -1
M  END
> <s_m_source_file>
../4o9w_ligand.sdf

> <i_m_source_file_index>
1

> <s_epik_input>
W0NIM11bQ0hdKFtDSDNdKVtDQEhdKFtOSDMrXSlDKD1PKVtOSF1bQ0BASF0oW0NIMl1bQ0hdKFtDSDNdKVtDSDNdKUMoPU8pW05IXVtDQEBIXShbQ0gyXVtPSF0pQyg9TylbTkhdW0NAQEhdKFtDQEBIXShbQ0gzXSlPUCg9TykoW09IXSlbT0hdKUMoPU8pW05IXVtDQEhdKEMoPU8pW05IMl0pW0NIMl1bQ0hdKFtDSDNdKVtDSDNd

> <s_epik_cmdline>
J2VwaWtfYXBwJywgJy1pbWFlJywgJ2xpZ2FuZF9wcm8ubWFlJywgJy1vbWFlJywgJ2xpZ2FuZF9wcmVwLm1hZScsICctbXMnLCAnMScsICctcGgnLCAnNycsICctcGh0JywgJzAuNScsICctbnQn

> <r_lp_tautomer_probability>
1

> <r_epik_Ionization_Penalty>
  0.1677

> <r_epik_Ionization_Penalty_Charging>
  0.1677

> <r_epik_Ionization_Penalty_Neutral>
  0.0000

> <r_epik_State_Penalty>
 -0.0000

> <r_epik_Charging_Adjusted_Penalty>
0.167698477235598

> <i_epik_Tot_Q>
-1

> <i_epik_Tot_abs_Q>
3

$$$$
