4oag_ligand
                    3D
 Schrodinger Suite 2020-3.
 39 41  0  0  1  0            999 V2000
   77.4250  -11.3180    4.4600 P   0  0  0  0  0  0
   78.3880  -10.9800    3.3350 O   0  5  0  0  0  0
   76.4510  -10.2010    4.8040 O   0  5  0  0  0  0
   76.7860  -12.6720    4.3610 O   0  0  0  0  0  0
   78.2520  -12.3450    7.0080 P   0  0  1  0  0  0
   79.0440  -11.7100    8.1310 O   0  5  0  0  0  0
   76.8040  -12.7310    7.1880 O   0  0  0  0  0  0
   78.4010  -11.3640    5.7390 O   0  0  0  0  0  0
   79.0680  -13.5930    6.4310 O   0  0  0  0  0  0
   78.3970  -14.7810    6.0500 C   0  0  0  0  0  0
   79.3110  -15.9270    6.4360 C   0  0  1  0  0  0
   79.3830  -15.9870    7.8620 O   0  0  0  0  0  0
   78.8080  -17.2800    5.9580 C   0  0  1  0  0  0
   79.9030  -17.9980    5.3610 O   0  0  0  0  0  0
   78.3280  -17.9780    7.2180 C   0  0  1  0  0  0
   78.5450  -19.3900    7.1630 O   0  0  0  0  0  0
   79.2200  -17.3430    8.2720 C   0  0  2  0  0  0
   78.7530  -17.3270    9.6760 N   0  0  0  0  0  0
   77.6270  -16.8020   10.2050 C   0  0  0  0  0  0
   77.6250  -16.9720   11.5570 N   0  0  0  0  0  0
   78.7750  -17.5970   11.8860 C   0  0  0  0  0  0
   79.4170  -18.0760   13.1230 C   0  0  0  0  0  0
   78.8120  -17.9210   14.3220 N   0  0  0  0  0  0
   80.6180  -18.6740   13.0100 N   0  0  0  0  0  0
   81.2420  -18.8320   11.8180 C   0  0  0  0  0  0
   80.7120  -18.4310   10.6550 N   0  0  0  0  0  0
   79.5060  -17.8200   10.6430 C   0  0  0  0  0  0
   77.4360  -14.8458    6.5813 H   0  0  0  0  0  0
   78.2160  -14.7681    4.9651 H   0  0  0  0  0  0
   80.3094  -15.7288    6.0188 H   0  0  0  0  0  0
   78.0387  -17.2367    5.1729 H   0  0  0  0  0  0
   80.3680  -17.6231    4.4373 H   0  0  0  0  0  0
   77.2438  -17.9241    7.3961 H   0  0  0  0  0  0
   77.9775  -20.0063    6.4502 H   0  0  0  0  0  0
   80.1556  -17.9195    8.3189 H   0  0  0  0  0  0
   76.8364  -16.3143    9.6347 H   0  0  0  0  0  0
   77.8304  -17.4283   14.3832 H   0  0  0  0  0  0
   79.3013  -18.2876   15.2364 H   0  0  0  0  0  0
   82.2224  -19.3083   11.8046 H   0  0  0  0  0  0
  1  2  1  0  0  0
  1  3  1  0  0  0
  1  4  2  0  0  0
  1  8  1  0  0  0
  5  6  1  0  0  0
  5  7  2  0  0  0
  5  8  1  0  0  0
  5  9  1  0  0  0
  9 10  1  0  0  0
 10 11  1  0  0  0
 10 28  1  0  0  0
 10 29  1  0  0  0
 11 12  1  0  0  0
 11 13  1  0  0  0
 11 30  1  0  0  0
 12 17  1  0  0  0
 13 14  1  0  0  0
 13 15  1  0  0  0
 13 31  1  0  0  0
 14 32  1  0  0  0
 15 16  1  0  0  0
 15 17  1  0  0  0
 15 33  1  0  0  0
 16 34  1  0  0  0
 17 18  1  0  0  0
 17 35  1  0  0  0
 18 19  1  0  0  0
 18 27  1  0  0  0
 19 20  2  0  0  0
 19 36  1  0  0  0
 20 21  1  0  0  0
 21 22  2  0  0  0
 21 27  1  0  0  0
 22 23  1  0  0  0
 22 24  1  0  0  0
 23 37  1  0  0  0
 23 38  1  0  0  0
 24 25  2  0  0  0
 25 26  1  0  0  0
 25 39  1  0  0  0
 26 27  2  0  0  0
M  CHG  3   2  -1   3  -1   6  -1
M  END
> <s_m_source_file>
../4oag_ligand.sdf

> <i_m_source_file_index>
1

> <s_epik_input>
W09IXVAoPU8pKFtPSF0pT1tQQF0oPU8pKFtPSF0pT1tDSDJdW0NASF0xT1tDQEhdKFtDQEhdKFtPSF0pW0NAQEhdMVtPSF0pbihbY0hdbjIpYyhjMjMpbltjSF1uYzNbTkgyXQ==

> <s_epik_cmdline>
J2VwaWtfYXBwJywgJy1pbWFlJywgJ2xpZ2FuZF9wcm8ubWFlJywgJy1vbWFlJywgJ2xpZ2FuZF9wcmVwLm1hZScsICctbXMnLCAnMScsICctcGgnLCAnNycsICctcGh0JywgJzAuNScsICctbnQn

> <r_lp_tautomer_probability>
0.999997216410988

> <r_epik_Ionization_Penalty>
  0.1037

> <r_epik_Ionization_Penalty_Charging>
  0.1033

> <r_epik_Ionization_Penalty_Neutral>
  0.0004

> <r_epik_State_Penalty>
  0.0922

> <r_epik_Charging_Adjusted_Penalty>
0.19546844050481

> <i_epik_Tot_Q>
-3

> <i_epik_Tot_abs_Q>
3

> <s_epik_Chemistry_Notes>
This compound contains an acetal/aminal-like group ( X-CH(R)-Y where X, Y are N, S, or O) that may be acid/base labile, releasing an aldehyde.

$$$$
