4oak_ligand
                    3D
 Schrodinger Suite 2020-3.
 23 22  0  0  1  0            999 V2000
  -45.9150    1.6440  -32.6350 N   0  3  0  0  0  0
  -46.0530    3.0630  -32.9380 C   0  0  2  0  0  0
  -45.4750    3.3720  -34.3100 C   0  0  0  0  0  0
  -45.3680    3.9020  -31.8680 C   0  0  0  0  0  0
  -44.4600    3.4280  -31.1860 O   0  0  0  0  0  0
  -46.0030    4.9880  -31.5120 N   0  0  0  0  0  0
  -45.3020    5.8330  -30.5460 C   0  0  2  0  0  0
  -46.2960    6.9310  -30.2060 C   0  0  0  0  0  0
  -43.9990    6.4310  -31.0640 C   0  0  0  0  0  0
  -43.8210    6.6180  -32.2690 O   0  5  0  0  0  0
  -43.0960    6.7430  -30.2900 O   0  0  0  0  0  0
  -46.4144    1.0520  -33.4161 H   0  0  0  0  0  0
  -46.3784    1.4304  -31.6605 H   0  0  0  0  0  0
  -44.8481    1.3787  -32.5997 H   0  0  0  0  0  0
  -47.1330    3.2719  -32.9388 H   0  0  0  0  0  0
  -45.9818    2.7571  -35.0683 H   0  0  0  0  0  0
  -44.3986    3.1455  -34.3139 H   0  0  0  0  0  0
  -45.6265    4.4369  -34.5403 H   0  0  0  0  0  0
  -46.9940    5.2853  -31.8856 H   0  0  0  0  0  0
  -45.0104    5.2000  -29.6950 H   0  0  0  0  0  0
  -47.2279    6.4798  -29.8347 H   0  0  0  0  0  0
  -46.5096    7.5242  -31.1074 H   0  0  0  0  0  0
  -45.8700    7.5838  -29.4298 H   0  0  0  0  0  0
  1  2  1  0  0  0
  1 12  1  0  0  0
  1 13  1  0  0  0
  1 14  1  0  0  0
  2  3  1  0  0  0
  2  4  1  0  0  0
  2 15  1  0  0  0
  3 16  1  0  0  0
  3 17  1  0  0  0
  3 18  1  0  0  0
  4  5  2  0  0  0
  4  6  1  0  0  0
  6  7  1  0  0  0
  6 19  1  0  0  0
  7  8  1  0  0  0
  7  9  1  0  0  0
  7 20  1  0  0  0
  8 21  1  0  0  0
  8 22  1  0  0  0
  8 23  1  0  0  0
  9 10  1  0  0  0
  9 11  2  0  0  0
M  CHG  2   1   1  10  -1
M  END
> <s_m_source_file>
../4oak_ligand.sdf

> <i_m_source_file_index>
1

> <s_epik_input>
W05IMytdW0NASF0oW0NIM10pQyg9TylbTkhdW0NASF0oW0NIM10pQyg9TylbT0hd

> <s_epik_cmdline>
J2VwaWtfYXBwJywgJy1pbWFlJywgJ2xpZ2FuZF9wcm8ubWFlJywgJy1vbWFlJywgJ2xpZ2FuZF9wcmVwLm1hZScsICctbXMnLCAnMScsICctcGgnLCAnNycsICctcGh0JywgJzAuNScsICctbnQn

> <r_epik_Ionization_Penalty>
  0.1045

> <r_epik_Ionization_Penalty_Charging>
  0.1045

> <r_epik_Ionization_Penalty_Neutral>
  0.0000

> <r_epik_State_Penalty>
  0.0943

> <r_epik_Charging_Adjusted_Penalty>
0.198841141178231

> <i_epik_Tot_Q>
0

> <i_epik_Tot_abs_Q>
2

$$$$
