4oar_ligand
                    3D
 Schrodinger Suite 2020-3.
 72 76  0  0  1  0            999 V2000
   14.6120   26.4420   16.7630 C   0  0  0  0  0  0
   14.8220   27.8180   17.3480 C   0  0  0  0  0  0
   14.4440   29.0670   16.4020 C   0  0  0  0  0  0
   14.0010   28.8070   15.1200 C   0  0  0  0  0  0
   13.9050   27.5120   14.5770 C   0  0  0  0  0  0
   13.3950   27.4430   13.1360 C   0  0  0  0  0  0
   14.0670   26.3360   12.3250 C   0  0  0  0  0  0
   14.2300   25.0090   13.0450 C   0  0  2  0  0  0
   14.5270   25.0450   14.5900 C   0  0  0  0  0  0
   14.3520   26.3230   15.3000 C   0  0  0  0  0  0
   14.9820   23.7010   15.3110 C   0  0  2  0  0  0
   15.4270   22.6520   14.4330 C   0  0  0  0  0  0
   14.8640   22.4760   13.0030 C   0  0  1  0  0  0
   14.8580   23.8010   12.3010 C   0  0  1  0  0  0
   14.6400   23.4920   10.8220 C   0  0  0  0  0  0
   15.2600   22.0880   10.6720 C   0  0  0  0  0  0
   15.7360   21.6480   12.0840 C   0  0  2  0  0  0
   13.4770   21.8280   13.1250 C   0  0  0  0  0  0
   15.9430   20.1230   12.2820 C   0  0  0  0  0  0
   16.6920   19.5260   13.4650 C   0  0  0  0  0  0
   14.5150   30.2490   16.8900 O   0  0  0  0  0  0
   15.5180   19.3120   11.4970 O   0  0  0  0  0  0
   13.7480   23.0950   16.1330 C   0  0  0  0  0  0
   12.4780   23.6530   16.0270 C   0  0  0  0  0  0
   11.3910   23.0800   16.6730 C   0  0  0  0  0  0
   11.5660   21.9330   17.4410 C   0  0  0  0  0  0
   12.8230   21.3600   17.5560 C   0  0  0  0  0  0
   13.9060   21.9430   16.9030 C   0  0  0  0  0  0
   10.4950   21.3880   18.1140 N   0  0  0  0  0  0
    9.2100   21.8130   17.9310 C   0  0  0  0  0  0
   10.6430   20.3850   19.0220 C   0  0  0  0  0  0
   19.8150   22.0430   11.6140 C   0  0  0  0  0  0
   18.4430   21.4060   11.5110 C   0  0  0  0  0  0
   18.3270   20.3970   10.7910 O   0  0  0  0  0  0
   17.2550   21.9660   12.1740 O   0  0  0  0  0  0
   15.5073   25.8279   16.9398 H   0  0  0  0  0  0
   13.7422   25.9687   17.2421 H   0  0  0  0  0  0
   14.2067   27.9295   18.2530 H   0  0  0  0  0  0
   15.8830   27.9480   17.6077 H   0  0  0  0  0  0
   13.7149   29.6798   14.5147 H   0  0  0  0  0  0
   12.3123   27.2485   13.1392 H   0  0  0  0  0  0
   13.5942   28.3994   12.6303 H   0  0  0  0  0  0
   13.4723   26.1298   11.4229 H   0  0  0  0  0  0
   15.0774   26.6576   12.0324 H   0  0  0  0  0  0
   13.1579   24.7909   12.9310 H   0  0  0  0  0  0
   15.8947   23.9292   15.8811 H   0  0  0  0  0  0
   16.5079   22.7552   14.2568 H   0  0  0  0  0  0
   15.2226   21.6752   14.8957 H   0  0  0  0  0  0
   15.8384   24.2982   12.3395 H   0  0  0  0  0  0
   13.5629   23.5066   10.5993 H   0  0  0  0  0  0
   15.1512   24.2496   10.2099 H   0  0  0  0  0  0
   14.5020   21.3921   10.2831 H   0  0  0  0  0  0
   16.1081   22.1344    9.9730 H   0  0  0  0  0  0
   12.8471   22.4331   13.7936 H   0  0  0  0  0  0
   13.5812   20.8137   13.5378 H   0  0  0  0  0  0
   13.0093   21.7730   12.1309 H   0  0  0  0  0  0
   17.0411   20.3347   14.1239 H   0  0  0  0  0  0
   17.5562   18.9518   13.0998 H   0  0  0  0  0  0
   16.0200   18.8601   14.0262 H   0  0  0  0  0  0
   12.3345   24.5526   15.4284 H   0  0  0  0  0  0
   10.4018   23.5280   16.5787 H   0  0  0  0  0  0
   12.9627   20.4592   18.1535 H   0  0  0  0  0  0
   14.8937   21.4914   16.9952 H   0  0  0  0  0  0
    9.1936   22.6199   17.1836 H   0  0  0  0  0  0
    8.8085   22.1878   18.8841 H   0  0  0  0  0  0
    8.5930   20.9736   17.5780 H   0  0  0  0  0  0
   11.7063   20.1138   19.0986 H   0  0  0  0  0  0
   10.0634   19.5082   18.6975 H   0  0  0  0  0  0
   10.2790   20.7224   20.0036 H   0  0  0  0  0  0
   20.5395   21.4483   11.0383 H   0  0  0  0  0  0
   20.1249   22.0777   12.6689 H   0  0  0  0  0  0
   19.7759   23.0652   11.2095 H   0  0  0  0  0  0
  1  2  1  0  0  0
  1 10  1  0  0  0
  1 36  1  0  0  0
  1 37  1  0  0  0
  2  3  1  0  0  0
  2 38  1  0  0  0
  2 39  1  0  0  0
  3  4  1  0  0  0
  3 21  2  0  0  0
  4  5  2  0  0  0
  4 40  1  0  0  0
  5  6  1  0  0  0
  5 10  1  0  0  0
  6  7  1  0  0  0
  6 41  1  0  0  0
  6 42  1  0  0  0
  7  8  1  0  0  0
  7 43  1  0  0  0
  7 44  1  0  0  0
  8  9  1  0  0  0
  8 14  1  0  0  0
  8 45  1  0  0  0
  9 10  2  0  0  0
  9 11  1  0  0  0
 11 12  1  0  0  0
 11 23  1  0  0  0
 11 46  1  0  0  0
 12 13  1  0  0  0
 12 47  1  0  0  0
 12 48  1  0  0  0
 13 14  1  0  0  0
 13 17  1  0  0  0
 13 18  1  0  0  0
 14 15  1  0  0  0
 14 49  1  0  0  0
 15 16  1  0  0  0
 15 50  1  0  0  0
 15 51  1  0  0  0
 16 17  1  0  0  0
 16 52  1  0  0  0
 16 53  1  0  0  0
 17 19  1  0  0  0
 17 35  1  0  0  0
 18 54  1  0  0  0
 18 55  1  0  0  0
 18 56  1  0  0  0
 19 20  1  0  0  0
 19 22  2  0  0  0
 20 57  1  0  0  0
 20 58  1  0  0  0
 20 59  1  0  0  0
 23 24  2  0  0  0
 23 28  1  0  0  0
 24 25  1  0  0  0
 24 60  1  0  0  0
 25 26  2  0  0  0
 25 61  1  0  0  0
 26 27  1  0  0  0
 26 29  1  0  0  0
 27 28  2  0  0  0
 27 62  1  0  0  0
 28 63  1  0  0  0
 29 30  1  0  0  0
 29 31  1  0  0  0
 30 64  1  0  0  0
 30 65  1  0  0  0
 30 66  1  0  0  0
 31 67  1  0  0  0
 31 68  1  0  0  0
 31 69  1  0  0  0
 32 33  1  0  0  0
 32 70  1  0  0  0
 32 71  1  0  0  0
 32 72  1  0  0  0
 33 34  2  0  0  0
 33 35  1  0  0  0
M  END
> <s_m_source_file>
../4oar_ligand.sdf

> <i_m_source_file_index>
1

> <s_epik_input>
W2NIXTFbY0hdYyhOKFtDSDNdKVtDSDNdKVtjSF1bY0hdYzFbQ0BASF0oW0NIMl0yKUMoPUMzQyhbQ0gyXVtDSDJdNCk9W0NIXUMoPU8pW0NIMl1bQ0gyXTMpW0NAQEhdNFtDQEBIXShbQ0BdMjVbQ0gzXSlbQ0gyXVtDSDJdW0NAQF01KEMoPU8pW0NIM10pT0MoPU8pW0NIM10=

> <s_epik_cmdline>
J2VwaWtfYXBwJywgJy1pbWFlJywgJ2xpZ2FuZF9wcm8ubWFlJywgJy1vbWFlJywgJ2xpZ2FuZF9wcmVwLm1hZScsICctbXMnLCAnMScsICctcGgnLCAnNycsICctcGh0JywgJzAuNScsICctbnQn

> <r_lp_tautomer_probability>
0.99995

> <r_epik_Ionization_Penalty>
  0.0169

> <r_epik_Ionization_Penalty_Charging>
  0.0000

> <r_epik_Ionization_Penalty_Neutral>
  0.0169

> <r_epik_State_Penalty>
  0.0134

> <r_epik_Charging_Adjusted_Penalty>
0.0133829706628701

> <i_epik_Tot_Q>
0

> <i_epik_Tot_abs_Q>
0

> <s_epik_Chemistry_Notes>
This compound has an ester and may undergo hydrolysis at high or low pH.

$$$$
