4oaz_ligand
                    3D
 Schrodinger Suite 2020-3.
 68 74  0  0  1  0            999 V2000
   12.0570   51.4860    5.9550 P   0  0  2  0  0  0
   11.0790   50.3700    5.9320 O   0  0  0  0  0  0
   13.2720   51.1600    5.1630 O   0  5  0  0  0  0
   12.5710   51.8990    7.3920 O   0  0  0  0  0  0
   11.5620   52.1780    8.2980 C   0  0  0  0  0  0
   12.2510   53.0480    9.3070 C   0  0  1  0  0  0
   13.2030   52.4260   10.0740 O   0  0  0  0  0  0
   12.6270   54.4380    9.0140 C   0  0  1  0  0  0
   11.5500   55.3260    8.9660 O   0  0  0  0  0  0
   13.5000   54.7140   10.1130 C   0  0  1  0  0  0
   12.8140   55.1200   11.3350 O   0  0  0  0  0  0
   14.1120   53.4440   10.4130 C   0  0  2  0  0  0
   15.3760   53.1000    9.6850 N   0  0  0  0  0  0
   15.5840   52.3060    8.6220 C   0  0  0  0  0  0
   16.7890   52.2590    8.3280 N   0  0  0  0  0  0
   17.5340   53.0360    9.1050 C   0  0  0  0  0  0
   18.8590   53.3690    9.2620 C   0  0  0  0  0  0
   19.8350   52.8820    8.4550 O   0  0  0  0  0  0
   19.2370   54.2110   10.2530 N   0  0  0  0  0  0
   18.3030   54.7750   11.0940 C   0  0  0  0  0  0
   18.7620   55.6950   12.1350 N   0  0  0  0  0  0
   16.9860   54.4650   11.0300 N   0  0  0  0  0  0
   16.6000   53.6140   10.0630 C   0  0  0  0  0  0
   11.6490   56.6120    8.0910 P   0  0  1  0  0  0
   10.4060   57.4680    8.2920 O   0  5  0  0  0  0
   12.9190   57.2870    8.5010 O   0  0  0  0  0  0
   11.8050   56.1940    6.5710 O   0  0  0  0  0  0
   10.6330   55.7270    5.9570 C   0  0  0  0  0  0
   11.1660   54.9860    4.7760 C   0  0  1  0  0  0
   11.5450   55.8700    3.7050 O   0  0  0  0  0  0
   12.0060   53.7760    4.9030 C   0  0  1  0  0  0
   11.2460   52.6350    5.2790 O   0  0  0  0  0  0
   12.5740   53.7500    3.5260 C   0  0  1  0  0  0
   11.7770   53.0510    2.6650 O   0  0  0  0  0  0
   12.6140   55.2110    3.1180 C   0  0  2  0  0  0
   13.8430   55.8920    3.4640 N   0  0  0  0  0  0
   14.1330   56.6930    4.4540 C   0  0  0  0  0  0
   15.3090   57.0680    4.3730 N   0  0  0  0  0  0
   16.0070   56.5240    3.3890 C   0  0  0  0  0  0
   17.2990   56.5400    2.8320 C   0  0  0  0  0  0
   18.2900   57.2350    3.3290 O   0  0  0  0  0  0
   17.5400   55.8360    1.7280 N   0  0  0  0  0  0
   16.5960   55.0450    1.1480 C   0  0  0  0  0  0
   16.9250   54.2780   -0.0270 N   0  0  0  0  0  0
   15.3320   54.9670    1.6130 N   0  0  0  0  0  0
   15.0470   55.7030    2.7290 C   0  0  0  0  0  0
   10.7395   52.6958    7.7828 H   0  0  0  0  0  0
   11.1890   51.2387    8.7322 H   0  0  0  0  0  0
   11.4138   53.1816   10.0079 H   0  0  0  0  0  0
   13.0577   54.6058    8.0159 H   0  0  0  0  0  0
   14.1759   55.5276    9.8111 H   0  0  0  0  0  0
   12.2611   56.0705   11.3655 H   0  0  0  0  0  0
   14.3148   53.5166   11.4917 H   0  0  0  0  0  0
   14.7978   51.7728    8.0875 H   0  0  0  0  0  0
   20.3010   54.4520   10.3940 H   0  0  0  0  0  0
   19.8274   55.9597   12.2043 H   0  0  0  0  0  0
   18.0417   56.1219   12.8483 H   0  0  0  0  0  0
   10.0851   55.0796    6.6574 H   0  0  0  0  0  0
   10.0003   56.5820    5.6765 H   0  0  0  0  0  0
   10.2634   54.4400    4.4642 H   0  0  0  0  0  0
   12.7482   53.7451    5.7143 H   0  0  0  0  0  0
   13.5171   53.1891    3.4491 H   0  0  0  0  0  0
   11.6294   51.9702    2.8066 H   0  0  0  0  0  0
   12.5164   55.3095    2.0268 H   0  0  0  0  0  0
   13.4378   56.9889    5.2397 H   0  0  0  0  0  0
   18.5307   55.8813    1.2521 H   0  0  0  0  0  0
   17.9443   54.3131   -0.4392 H   0  0  0  0  0  0
   16.1568   53.6575   -0.5116 H   0  0  0  0  0  0
  1  2  2  0  0  0
  1  3  1  0  0  0
  1  4  1  0  0  0
  1 32  1  0  0  0
  4  5  1  0  0  0
  5  6  1  0  0  0
  5 47  1  0  0  0
  5 48  1  0  0  0
  6  7  1  0  0  0
  6  8  1  0  0  0
  6 49  1  0  0  0
  7 12  1  0  0  0
  8  9  1  0  0  0
  8 10  1  0  0  0
  8 50  1  0  0  0
  9 24  1  0  0  0
 10 11  1  0  0  0
 10 12  1  0  0  0
 10 51  1  0  0  0
 11 52  1  0  0  0
 12 13  1  0  0  0
 12 53  1  0  0  0
 13 14  1  0  0  0
 13 23  1  0  0  0
 14 15  2  0  0  0
 14 54  1  0  0  0
 15 16  1  0  0  0
 16 17  1  0  0  0
 16 23  2  0  0  0
 17 18  2  0  0  0
 17 19  1  0  0  0
 19 20  1  0  0  0
 19 55  1  0  0  0
 20 21  1  0  0  0
 20 22  2  0  0  0
 21 56  1  0  0  0
 21 57  1  0  0  0
 22 23  1  0  0  0
 24 25  1  0  0  0
 24 26  2  0  0  0
 24 27  1  0  0  0
 27 28  1  0  0  0
 28 29  1  0  0  0
 28 58  1  0  0  0
 28 59  1  0  0  0
 29 30  1  0  0  0
 29 31  1  0  0  0
 29 60  1  0  0  0
 30 35  1  0  0  0
 31 32  1  0  0  0
 31 33  1  0  0  0
 31 61  1  0  0  0
 33 34  1  0  0  0
 33 35  1  0  0  0
 33 62  1  0  0  0
 34 63  1  0  0  0
 35 36  1  0  0  0
 35 64  1  0  0  0
 36 37  1  0  0  0
 36 46  1  0  0  0
 37 38  2  0  0  0
 37 65  1  0  0  0
 38 39  1  0  0  0
 39 40  1  0  0  0
 39 46  2  0  0  0
 40 41  2  0  0  0
 40 42  1  0  0  0
 42 43  1  0  0  0
 42 66  1  0  0  0
 43 44  1  0  0  0
 43 45  2  0  0  0
 44 67  1  0  0  0
 44 68  1  0  0  0
 45 46  1  0  0  0
M  CHG  2   3  -1  25  -1
M  END
> <s_m_source_file>
../4oaz_ligand.sdf

> <i_m_source_file_index>
1

> <s_epik_input>
Tz1jMVtuSF1jKFtOSDJdKW5jKGMxMiluKFtjSF1uMilbQ0BIXShPMylbQ0BIXShbT0hdKVtDQEhdKE9bUEBAXSg9TykoW09IXSlPW0NIMl00KVtDQEhdM1tDSDJdT1tQQEBdKD1PKShbT0hdKU9bQ0BIXShbQ0BASF00NSlbQ0BASF0oW09IXSlbQ0BASF0oTzUpbihbY0hdbjYpYyhjNjcpbmMoW05IMl0pW25IXWM3PU8=

> <s_epik_cmdline>
J2VwaWtfYXBwJywgJy1pbWFlJywgJ2xpZ2FuZF9wcm8ubWFlJywgJy1vbWFlJywgJ2xpZ2FuZF9wcmVwLm1hZScsICctbXMnLCAnMScsICctcGgnLCAnNycsICctcGh0JywgJzAuNScsICctbnQn

> <r_lp_tautomer_probability>
1

> <r_epik_Ionization_Penalty>
  0.0042

> <r_epik_Ionization_Penalty_Charging>
  0.0040

> <r_epik_Ionization_Penalty_Neutral>
  0.0002

> <r_epik_State_Penalty>
 -0.0000

> <r_epik_Charging_Adjusted_Penalty>
0.00400193045734951

> <i_epik_Tot_Q>
-2

> <i_epik_Tot_abs_Q>
2

> <s_epik_Chemistry_Notes>
This compound contains an acetal/aminal-like group ( X-CH(R)-Y where X, Y are N, S, or O) that may be acid/base labile, releasing an aldehyde.

$$$$
