4ob0_ligand
                    3D
 Schrodinger Suite 2020-3.
 19 19  0  0  1  0            999 V2000
   36.2640   -9.8590   14.2830 B   0  0  0  0  0  0
   37.7480   -9.9470   14.0550 O   0  0  0  0  0  0
   35.9290   -9.8560   15.7450 O   0  0  0  0  0  0
   34.7280   -9.8810   10.8580 C   0  0  0  0  0  0
   33.5360   -9.3010   11.0560 C   0  0  0  0  0  0
   33.1900   -8.9160   12.2920 C   0  0  0  0  0  0
   34.0230   -9.0550   13.3710 C   0  0  0  0  0  0
   35.2440   -9.6590   13.1560 C   0  0  0  0  0  0
   35.5960  -10.0600   11.8970 C   0  0  0  0  0  0
   38.1742   -9.2003   14.4593 H   0  0  0  0  0  0
   38.1742   -9.2004   14.4592 H   0  0  0  0  0  0
   34.9868   -9.7997   15.8527 H   0  0  0  0  0  0
   34.9868   -9.7997   15.8527 H   0  0  0  0  0  0
   35.0152  -10.2180    9.8511 H   0  0  0  0  0  0
   32.8526   -9.1452   10.2083 H   0  0  0  0  0  0
   32.1915   -8.4729   12.4215 H   0  0  0  0  0  0
   33.7075   -8.6910   14.3599 H   0  0  0  0  0  0
   35.9246   -9.8159   13.9850 H   0  0  0  0  0  0
   36.5770  -10.5259   11.7223 H   0  0  0  0  0  0
  1  2  1  0  0  0
  1  3  1  0  0  0
  1  8  1  0  0  0
  2 10  1  0  0  0
  2 11  1  0  0  0
  3 12  1  0  0  0
  3 13  1  0  0  0
  4  5  2  0  0  0
  4  9  1  0  0  0
  4 14  1  0  0  0
  5  6  1  0  0  0
  5 15  1  0  0  0
  6  7  2  0  0  0
  6 16  1  0  0  0
  7  8  1  0  0  0
  7 17  1  0  0  0
  8  9  2  0  0  0
  8 18  1  0  0  0
  9 19  1  0  0  0
M  END
> <MOLECULAR_FORMULA>
C6H10O2B

> <MOLECULAR_WEIGHT>
124.9

> <NUM_HB_ATOMS>
2

> <NUM_ROTOR>
1

> <XLOGP2>
0.77

> <s_m_source_file>
../4ob0_ligand.sdf

> <i_m_source_file_index>
1

> <s_epik_input>
W09IMl1CKFtPSDJdKVtDSF0xPVtDSF1bQ0hdPVtDSF1bQ0hdPVtDSF0x

> <s_epik_cmdline>
J2VwaWtfYXBwJywgJy1pbWFlJywgJ2xpZ2FuZF9wcm8ubWFlJywgJy1vbWFlJywgJ2xpZ2FuZF9wcmVwLm1hZScsICctbXMnLCAnMScsICctcGgnLCAnNycsICctcGh0JywgJzAuNScsICctbnQn

> <r_lp_tautomer_probability>
1

> <r_epik_Ionization_Penalty>
  0.0000

> <r_epik_Ionization_Penalty_Charging>
  0.0000

> <r_epik_Ionization_Penalty_Neutral>
  0.0000

> <r_epik_State_Penalty>
 -0.0000

> <r_epik_Charging_Adjusted_Penalty>
0

> <i_epik_Tot_Q>
0

> <i_epik_Tot_abs_Q>
0

$$$$
