4ob1_ligand
                    3D
 Schrodinger Suite 2020-3.
 21 20  0  0  1  0            999 V2000
    8.6070   34.2520   21.0540 C   0  0  0  0  0  0
    8.4900   34.7210   19.6230 C   0  0  0  0  0  0
    9.5940   34.2330   18.7260 C   0  0  0  0  0  0
    9.2100   34.3650   17.2680 C   0  0  0  0  0  0
    9.7650   35.7940   16.6310 B   0  0  0  0  0  0
    9.9550   36.9480   17.4430 O   0  0  0  0  0  0
    9.6070   36.0750   15.2440 O   0  0  0  0  0  0
    7.7659   34.6504   21.6403 H   0  0  0  0  0  0
    9.5547   34.6115   21.4813 H   0  0  0  0  0  0
    8.5857   33.1526   21.0824 H   0  0  0  0  0  0
    7.5423   34.3615   19.1957 H   0  0  0  0  0  0
    8.5113   35.8204   19.5945 H   0  0  0  0  0  0
   10.5021   34.8271   18.9058 H   0  0  0  0  0  0
    9.8001   33.1741   18.9410 H   0  0  0  0  0  0
    9.8497   35.1198   16.7873 H   0  0  0  0  0  0
    8.1573   34.6749   17.1927 H   0  0  0  0  0  0
    9.3440   33.3963   16.7644 H   0  0  0  0  0  0
   10.7371   37.4074   17.1605 H   0  0  0  0  0  0
   10.7371   37.4074   17.1605 H   0  0  0  0  0  0
    9.4856   35.2613   14.7690 H   0  0  0  0  0  0
    9.4856   35.2613   14.7690 H   0  0  0  0  0  0
  1  2  1  0  0  0
  1  8  1  0  0  0
  1  9  1  0  0  0
  1 10  1  0  0  0
  2  3  1  0  0  0
  2 11  1  0  0  0
  2 12  1  0  0  0
  3  4  1  0  0  0
  3 13  1  0  0  0
  3 14  1  0  0  0
  4  5  1  0  0  0
  4 15  1  0  0  0
  4 16  1  0  0  0
  4 17  1  0  0  0
  5  6  1  0  0  0
  5  7  1  0  0  0
  6 18  1  0  0  0
  6 19  1  0  0  0
  7 20  1  0  0  0
  7 21  1  0  0  0
M  END
> <MOLECULAR_FORMULA>
C4H14O2B

> <MOLECULAR_WEIGHT>
104.9

> <NUM_HB_ATOMS>
2

> <NUM_ROTOR>
3

> <XLOGP2>
0.86

> <s_m_source_file>
../4ob1_ligand.sdf

> <i_m_source_file_index>
1

> <s_epik_input>
W0NIM11bQ0gyXVtDSDJdW0NIM11CKFtPSDJdKVtPSDJd

> <s_epik_cmdline>
J2VwaWtfYXBwJywgJy1pbWFlJywgJ2xpZ2FuZF9wcm8ubWFlJywgJy1vbWFlJywgJ2xpZ2FuZF9wcmVwLm1hZScsICctbXMnLCAnMScsICctcGgnLCAnNycsICctcGh0JywgJzAuNScsICctbnQn

> <r_lp_tautomer_probability>
1

> <r_epik_Ionization_Penalty>
  0.0000

> <r_epik_Ionization_Penalty_Charging>
  0.0000

> <r_epik_Ionization_Penalty_Neutral>
  0.0000

> <r_epik_State_Penalty>
 -0.0000

> <r_epik_Charging_Adjusted_Penalty>
0

> <i_epik_Tot_Q>
0

> <i_epik_Tot_abs_Q>
0

$$$$
