4ob2_ligand
                    3D
 Schrodinger Suite 2020-3.
 21 20  0  0  1  0            999 V2000
   -8.4350  -34.5550  206.4630 C   0  0  0  0  0  0
   -8.8600  -33.8740  205.1750 C   0  0  0  0  0  0
   -8.7380  -34.7580  203.9490 C   0  0  0  0  0  0
  -10.0490  -35.4180  203.5780 C   0  0  0  0  0  0
   -9.8490  -36.4260  202.2800 B   0  0  0  0  0  0
  -10.3410  -37.7730  202.3360 O   0  0  0  0  0  0
   -9.4260  -35.8710  201.0320 O   0  0  0  0  0  0
   -8.5510  -33.8549  207.3035 H   0  0  0  0  0  0
   -7.3818  -34.8628  206.3848 H   0  0  0  0  0  0
   -9.0642  -35.4409  206.6342 H   0  0  0  0  0  0
   -9.9132  -33.5662  205.2532 H   0  0  0  0  0  0
   -8.2309  -32.9881  205.0037 H   0  0  0  0  0  0
   -8.4090  -34.1525  203.0916 H   0  0  0  0  0  0
   -8.0014  -35.5520  204.1413 H   0  0  0  0  0  0
  -10.2204  -35.3107  202.4968 H   0  0  0  0  0  0
  -10.8705  -34.9369  204.1291 H   0  0  0  0  0  0
  -10.0085  -36.4859  203.8386 H   0  0  0  0  0  0
  -10.5780  -37.9854  203.2311 H   0  0  0  0  0  0
  -10.5780  -37.9854  203.2311 H   0  0  0  0  0  0
  -10.1539  -35.8759  200.4215 H   0  0  0  0  0  0
  -10.1539  -35.8759  200.4216 H   0  0  0  0  0  0
  1  2  1  0  0  0
  1  8  1  0  0  0
  1  9  1  0  0  0
  1 10  1  0  0  0
  2  3  1  0  0  0
  2 11  1  0  0  0
  2 12  1  0  0  0
  3  4  1  0  0  0
  3 13  1  0  0  0
  3 14  1  0  0  0
  4  5  1  0  0  0
  4 15  1  0  0  0
  4 16  1  0  0  0
  4 17  1  0  0  0
  5  6  1  0  0  0
  5  7  1  0  0  0
  6 18  1  0  0  0
  6 19  1  0  0  0
  7 20  1  0  0  0
  7 21  1  0  0  0
M  END
> <MOLECULAR_FORMULA>
C4H14O2B

> <MOLECULAR_WEIGHT>
104.9

> <NUM_HB_ATOMS>
2

> <NUM_ROTOR>
3

> <XLOGP2>
0.86

> <s_m_source_file>
../4ob2_ligand.sdf

> <i_m_source_file_index>
1

> <s_epik_input>
W0NIM11bQ0gyXVtDSDJdW0NIM11CKFtPSDJdKVtPSDJd

> <s_epik_cmdline>
J2VwaWtfYXBwJywgJy1pbWFlJywgJ2xpZ2FuZF9wcm8ubWFlJywgJy1vbWFlJywgJ2xpZ2FuZF9wcmVwLm1hZScsICctbXMnLCAnMScsICctcGgnLCAnNycsICctcGh0JywgJzAuNScsICctbnQn

> <r_lp_tautomer_probability>
1

> <r_epik_Ionization_Penalty>
  0.0000

> <r_epik_Ionization_Penalty_Charging>
  0.0000

> <r_epik_Ionization_Penalty_Neutral>
  0.0000

> <r_epik_State_Penalty>
 -0.0000

> <r_epik_Charging_Adjusted_Penalty>
0

> <i_epik_Tot_Q>
0

> <i_epik_Tot_abs_Q>
0

$$$$
