4obp_ligand
                    3D
 Schrodinger Suite 2020-3.
 26 28  0  0  1  0            999 V2000
  -15.9410   -4.2320   27.9200 C   0  0  0  0  0  0
  -16.7460   -5.2760   27.5700 C   0  0  0  0  0  0
  -16.8590   -6.3700   28.4280 C   0  0  0  0  0  0
  -16.1680   -6.4390   29.5620 N   0  0  0  0  0  0
  -15.3300   -5.4320   29.9410 C   0  0  0  0  0  0
  -15.2110   -4.2770   29.1230 C   0  0  0  0  0  0
  -14.3930   -3.2220   29.4390 N   0  0  0  0  0  0
  -13.7020   -3.3550   30.5560 C   0  0  0  0  0  0
  -13.6860   -4.3880   31.4050 N   0  0  0  0  0  0
  -14.4950   -5.4810   31.1120 C   0  0  0  0  0  0
  -14.4270   -6.6100   31.8520 N   0  0  0  0  0  0
  -17.8260   -7.4670   28.1750 C   0  0  0  0  0  0
  -18.3510   -7.6860   26.9020 C   0  0  0  0  0  0
  -19.3230   -8.6480   26.7260 C   0  0  0  0  0  0
  -19.7860   -9.4360   27.7070 N   0  0  0  0  0  0
  -19.2310   -9.2440   28.9410 C   0  0  0  0  0  0
  -18.2730   -8.2680   29.2290 C   0  0  0  0  0  0
  -19.5860  -10.1400   29.8880 F   0  0  0  0  0  0
  -15.8628   -3.3622   27.2678 H   0  0  0  0  0  0
  -17.2957   -5.2556   26.6290 H   0  0  0  0  0  0
  -13.0614   -2.5137   30.8205 H   0  0  0  0  0  0
  -15.0727   -7.4667   31.6089 H   0  0  0  0  0  0
  -13.7259   -6.6721   32.6973 H   0  0  0  0  0  0
  -17.9960   -7.1016   26.0531 H   0  0  0  0  0  0
  -19.7409   -8.7758   25.7274 H   0  0  0  0  0  0
  -17.8881   -8.1363   30.2402 H   0  0  0  0  0  0
  1  2  2  0  0  0
  1  6  1  0  0  0
  1 19  1  0  0  0
  2  3  1  0  0  0
  2 20  1  0  0  0
  3  4  2  0  0  0
  3 12  1  0  0  0
  4  5  1  0  0  0
  5  6  2  0  0  0
  5 10  1  0  0  0
  6  7  1  0  0  0
  7  8  2  0  0  0
  8  9  1  0  0  0
  8 21  1  0  0  0
  9 10  2  0  0  0
 10 11  1  0  0  0
 11 22  1  0  0  0
 11 23  1  0  0  0
 12 13  2  0  0  0
 12 17  1  0  0  0
 13 14  1  0  0  0
 13 24  1  0  0  0
 14 15  2  0  0  0
 14 25  1  0  0  0
 15 16  1  0  0  0
 16 17  2  0  0  0
 16 18  1  0  0  0
 17 26  1  0  0  0
M  END
> <s_m_source_file>
../4obp_ligand.sdf

> <i_m_source_file_index>
1

> <s_epik_input>
W05IMl1jMW5bY0hdbmMoYzEyKVtjSF1bY0hdYyhuMiktYzNbY0hdW2NIXW5jKEYpW2NIXTM=

> <s_epik_cmdline>
J2VwaWtfYXBwJywgJy1pbWFlJywgJ2xpZ2FuZF9wcm8ubWFlJywgJy1vbWFlJywgJ2xpZ2FuZF9wcmVwLm1hZScsICctbXMnLCAnMScsICctcGgnLCAnNycsICctcGh0JywgJzAuNScsICctbnQn

> <r_lp_tautomer_probability>
1

> <r_epik_Ionization_Penalty>
  0.0000

> <r_epik_Ionization_Penalty_Charging>
  0.0000

> <r_epik_Ionization_Penalty_Neutral>
  0.0000

> <r_epik_State_Penalty>
 -0.0000

> <r_epik_Charging_Adjusted_Penalty>
0

> <i_epik_Tot_Q>
0

> <i_epik_Tot_abs_Q>
0

$$$$
