4obq_ligand
                    3D
 Schrodinger Suite 2020-3.
 48 51  0  0  1  0            999 V2000
  -17.2270   -5.5050   27.7590 C   0  0  0  0  0  0
  -16.3360   -4.5110   28.0570 C   0  0  0  0  0  0
  -15.5460   -4.5790   29.2260 C   0  0  0  0  0  0
  -15.6740   -5.7170   30.0620 C   0  0  0  0  0  0
  -16.6390   -6.6820   29.7400 C   0  0  0  0  0  0
  -17.4300   -6.5880   28.6190 C   0  0  0  0  0  0
  -18.4420   -7.6320   28.3360 C   0  0  0  0  0  0
  -19.0310   -7.7590   27.0710 C   0  0  0  0  0  0
  -20.0120   -8.7210   26.8350 C   0  0  0  0  0  0
  -20.4250   -9.5640   27.8650 C   0  0  0  0  0  0
  -19.8650   -9.3860   29.1040 C   0  0  0  0  0  0
  -18.8840   -8.4640   29.3660 C   0  0  0  0  0  0
  -20.6270   -8.8230   25.5630 N   0  0  0  0  0  0
  -21.9510   -8.8540   25.2910 C   0  0  0  0  0  0
  -22.8340   -8.6480   26.1230 O   0  0  0  0  0  0
  -22.2910   -9.1970   23.8530 C   0  0  0  0  0  0
  -23.5400   -9.9460   23.7390 N   0  3  0  0  0  0
  -23.5940  -11.0630   22.7930 C   0  0  0  0  0  0
  -25.0740  -11.3850   22.6920 C   0  0  0  0  0  0
  -25.7940  -10.1470   23.1270 C   0  0  0  0  0  0
  -24.7050   -9.1280   23.3950 C   0  0  0  0  0  0
  -14.7660   -5.7700   31.1880 C   0  0  0  0  0  0
  -13.9540   -4.7510   31.4550 N   0  0  0  0  0  0
  -13.9570   -3.7070   30.6170 C   0  0  0  0  0  0
  -14.6750   -3.5540   29.5030 N   0  0  0  0  0  0
  -14.6440   -6.8990   31.9180 N   0  0  0  0  0  0
  -20.3600  -10.1060   30.1480 F   0  0  0  0  0  0
  -17.7923   -5.4513   26.8286 H   0  0  0  0  0  0
  -16.2346   -3.6581   27.3859 H   0  0  0  0  0  0
  -16.7669   -7.5381   30.4025 H   0  0  0  0  0  0
  -18.7187   -7.0982   26.2624 H   0  0  0  0  0  0
  -21.1699  -10.3406   27.6912 H   0  0  0  0  0  0
  -18.4554   -8.3821   30.3648 H   0  0  0  0  0  0
  -20.0077   -8.8876   24.6562 H   0  0  0  0  0  0
  -22.3966   -8.2701   23.2701 H   0  0  0  0  0  0
  -21.4864   -9.8112   23.4224 H   0  0  0  0  0  0
  -23.5662  -10.3390   24.7661 H   0  0  0  0  0  0
  -23.1712  -10.7469   21.8279 H   0  0  0  0  0  0
  -23.0115  -11.9077   23.1894 H   0  0  0  0  0  0
  -25.3224  -11.6456   21.6526 H   0  0  0  0  0  0
  -25.3101  -12.2347   23.3495 H   0  0  0  0  0  0
  -26.4700   -9.8151   22.3252 H   0  0  0  0  0  0
  -26.3785  -10.3622   24.0337 H   0  0  0  0  0  0
  -24.9513   -8.4674   24.2393 H   0  0  0  0  0  0
  -24.4766   -8.5193   22.5077 H   0  0  0  0  0  0
  -13.2927   -2.8825   30.8761 H   0  0  0  0  0  0
  -15.3027   -7.7570   31.7182 H   0  0  0  0  0  0
  -13.8858   -6.9610   32.7126 H   0  0  0  0  0  0
  1  2  2  0  0  0
  1  6  1  0  0  0
  1 28  1  0  0  0
  2  3  1  0  0  0
  2 29  1  0  0  0
  3  4  2  0  0  0
  3 25  1  0  0  0
  4  5  1  0  0  0
  4 22  1  0  0  0
  5  6  2  0  0  0
  5 30  1  0  0  0
  6  7  1  0  0  0
  7  8  2  0  0  0
  7 12  1  0  0  0
  8  9  1  0  0  0
  8 31  1  0  0  0
  9 10  2  0  0  0
  9 13  1  0  0  0
 10 11  1  0  0  0
 10 32  1  0  0  0
 11 12  2  0  0  0
 11 27  1  0  0  0
 12 33  1  0  0  0
 13 14  1  0  0  0
 13 34  1  0  0  0
 14 15  2  0  0  0
 14 16  1  0  0  0
 16 17  1  0  0  0
 16 35  1  0  0  0
 16 36  1  0  0  0
 17 18  1  0  0  0
 17 21  1  0  0  0
 17 37  1  0  0  0
 18 19  1  0  0  0
 18 38  1  0  0  0
 18 39  1  0  0  0
 19 20  1  0  0  0
 19 40  1  0  0  0
 19 41  1  0  0  0
 20 21  1  0  0  0
 20 42  1  0  0  0
 20 43  1  0  0  0
 21 44  1  0  0  0
 21 45  1  0  0  0
 22 23  2  0  0  0
 22 26  1  0  0  0
 23 24  1  0  0  0
 24 25  2  0  0  0
 24 46  1  0  0  0
 26 47  1  0  0  0
 26 48  1  0  0  0
M  CHG  1  17   1
M  END
> <s_m_source_file>
../4obq_ligand.sdf

> <i_m_source_file_index>
1

> <s_epik_input>
bjFbY0hdbmMoW05IMl0pYyhjMTIpW2NIXWMoW2NIXVtjSF0yKS1jM1tjSF1jKFtjSF1jKEYpW2NIXTMpW05IXUMoPU8pW0NIMl1bTkgrXTRbQ0gyXVtDSDJdW0NIMl1bQ0gyXTQ=

> <s_epik_cmdline>
J2VwaWtfYXBwJywgJy1pbWFlJywgJ2xpZ2FuZF9wcm8ubWFlJywgJy1vbWFlJywgJ2xpZ2FuZF9wcmVwLm1hZScsICctbXMnLCAnMScsICctcGgnLCAnNycsICctcGh0JywgJzAuNScsICctbnQn

> <r_lp_tautomer_probability>
0.999978000241998

> <r_epik_Ionization_Penalty>
  0.0292

> <r_epik_Ionization_Penalty_Charging>
  0.0211

> <r_epik_Ionization_Penalty_Neutral>
  0.0080

> <r_epik_State_Penalty>
  0.0170

> <r_epik_Charging_Adjusted_Penalty>
0.0381069328159824

> <i_epik_Tot_Q>
1

> <i_epik_Tot_abs_Q>
1

$$$$
