4obv_ligand
                    3D
 Schrodinger Suite 2020-3.
 28 29  0  0  1  0            999 V2000
  124.9150  120.7460  -43.7250 F   0  0  0  0  0  0
  126.2410  118.5200  -41.1830 O   0  0  0  0  0  0
  126.7300  119.1190  -43.2240 O   0  5  0  0  0  0
  124.2030  114.3050  -42.7700 N   0  0  0  0  0  0
  123.6850  118.2440  -41.5990 N   0  0  0  0  0  0
  124.4330  118.7270  -42.7220 C   0  0  1  0  0  0
  124.2610  117.8210  -43.8980 C   0  0  0  0  0  0
  123.9530  116.4310  -43.4450 C   0  0  0  0  0  0
  122.7030  115.9050  -43.2410 C   0  0  0  0  0  0
  123.9510  120.0920  -43.0780 C   0  0  0  0  0  0
  122.8570  114.5810  -42.8200 C   0  0  0  0  0  0
  124.8880  115.4400  -43.1550 C   0  0  0  0  0  0
  125.8760  118.7930  -42.3570 C   0  0  0  0  0  0
  121.3080  116.5030  -43.3920 C   0  0  0  0  0  0
  121.6300  113.7290  -42.5120 C   0  0  0  0  0  0
  120.1200  115.6830  -43.0940 C   0  0  0  0  0  0
  120.2800  114.3040  -42.6560 C   0  0  0  0  0  0
  122.6184  118.1933  -41.8633 H   0  0  0  0  0  0
  124.0428  117.2407  -41.3243 H   0  0  0  0  0  0
  123.4328  118.1854  -44.5235 H   0  0  0  0  0  0
  125.1885  117.8075  -44.4892 H   0  0  0  0  0  0
  123.6879  120.6398  -42.1611 H   0  0  0  0  0  0
  123.0646  120.0120  -43.7244 H   0  0  0  0  0  0
  125.9628  115.6516  -43.2553 H   0  0  0  0  0  0
  121.1893  117.5453  -43.7230 H   0  0  0  0  0  0
  121.7515  112.6865  -42.1827 H   0  0  0  0  0  0
  119.1224  116.1089  -43.2015 H   0  0  0  0  0  0
  119.3944  113.6910  -42.4325 H   0  0  0  0  0  0
  1 10  1  0  0  0
  2 13  2  0  0  0
  3 13  1  0  0  0
  4 11  2  0  0  0
  4 12  1  0  0  0
  5  6  1  0  0  0
  5 18  1  0  0  0
  5 19  1  0  0  0
  6  7  1  0  0  0
  6 10  1  0  0  0
  6 13  1  0  0  0
  7  8  1  0  0  0
  7 20  1  0  0  0
  7 21  1  0  0  0
  8  9  1  0  0  0
  8 12  2  0  0  0
  9 11  1  0  0  0
  9 14  2  0  0  0
 10 22  1  0  0  0
 10 23  1  0  0  0
 11 15  1  0  0  0
 12 24  1  0  0  0
 14 16  1  0  0  0
 14 25  1  0  0  0
 15 17  2  0  0  0
 15 26  1  0  0  0
 16 17  1  0  0  0
 16 27  1  0  0  0
 17 28  1  0  0  0
M  CHG  1   3  -1
M  END
> <s_m_source_file>
../4obv_ligand.sdf

> <i_m_source_file_index>
1

> <s_epik_input>
RltDSDJdW0NAXShbTkgzK10pKEMoPU8pW09IXSlbQ0gyXUMxPVtDSF1OPUMoQzE9MilbQ0hdPVtDSF1bQ0gyXVtDSF0y

> <s_epik_cmdline>
J2VwaWtfYXBwJywgJy1pbWFlJywgJ2xpZ2FuZF9wcm8ubWFlJywgJy1vbWFlJywgJ2xpZ2FuZF9wcmVwLm1hZScsICctbXMnLCAnMScsICctcGgnLCAnNycsICctcGh0JywgJzAuNScsICctbnQn

> <r_epik_Ionization_Penalty>
  0.2251

> <r_epik_Ionization_Penalty_Charging>
  0.0001

> <r_epik_Ionization_Penalty_Neutral>
  0.2250

> <r_epik_State_Penalty>
  0.2155

> <r_epik_Charging_Adjusted_Penalty>
0.215572327757892

> <i_epik_Tot_Q>
-1

> <i_epik_Tot_abs_Q>
1

> <s_epik_Chemistry_Notes>
This compound has an imine and may undergo hydrolysis.

$$$$
