4obz_ligand
                    3D
 Schrodinger Suite 2020-3.
 48 49  0  0  1  0            999 V2000
  -31.3930    1.3260  -17.3320 C   0  0  0  0  0  0
  -32.4980    1.9960  -17.8690 C   0  0  0  0  0  0
  -31.4660   -0.0660  -17.1620 C   0  0  0  0  0  0
  -30.1880   -1.0890  -15.3630 C   0  0  0  0  0  0
  -33.9850   -2.8870  -17.0800 C   0  0  0  0  0  0
  -32.5470    3.5030  -18.0490 C   0  0  0  0  0  0
  -33.3800    4.0700  -16.9140 C   0  0  0  0  0  0
  -35.6720    4.3440  -16.0870 C   0  0  0  0  0  0
  -36.6250    6.6180  -13.3890 C   0  0  0  0  0  0
  -37.5600    8.7420  -13.9970 C   0  0  0  0  0  0
  -37.1150    9.2690  -12.7850 C   0  0  0  0  0  0
  -37.3150    7.4160  -14.3070 C   0  0  0  0  0  0
  -36.2070    7.1370  -12.1500 C   0  0  0  0  0  0
  -32.8510    4.4520  -15.8840 O   0  0  0  0  0  0
  -33.6540    1.2780  -18.1720 C   0  0  0  0  0  0
  -33.7440   -0.0870  -17.9750 C   0  0  0  0  0  0
  -32.6530   -0.7860  -17.4650 C   0  0  0  0  0  0
  -32.7660   -2.1590  -17.2810 O   0  0  0  0  0  0
  -30.3570   -0.7160  -16.7240 O   0  0  0  0  0  0
  -34.7510    3.9970  -17.0470 N   0  3  0  0  0  0
  -36.8720    4.1800  -16.4890 N   0  0  0  0  0  0
  -35.3930    4.8580  -14.8220 N   0  0  0  0  0  0
  -36.4020    5.1700  -13.7880 C   0  0  0  0  0  0
  -36.4250    8.4790  -11.8580 C   0  0  0  0  0  0
  -37.4040   10.7230  -12.4970 C   0  0  0  0  0  0
  -30.4934    1.8738  -17.0512 H   0  0  0  0  0  0
  -29.2219   -1.6005  -15.2403 H   0  0  0  0  0  0
  -31.0019   -1.7661  -15.0646 H   0  0  0  0  0  0
  -30.2094   -0.1891  -14.7308 H   0  0  0  0  0  0
  -33.7582   -3.9572  -16.9647 H   0  0  0  0  0  0
  -34.6451   -2.7435  -17.9481 H   0  0  0  0  0  0
  -34.4867   -2.5187  -16.1730 H   0  0  0  0  0  0
  -31.5254    3.9095  -18.0168 H   0  0  0  0  0  0
  -33.0061    3.7416  -19.0197 H   0  0  0  0  0  0
  -38.1010    9.3749  -14.7004 H   0  0  0  0  0  0
  -37.6555    6.9987  -15.2547 H   0  0  0  0  0  0
  -35.7150    6.4908  -11.4230 H   0  0  0  0  0  0
  -34.5145    1.8103  -18.5773 H   0  0  0  0  0  0
  -34.6662   -0.6148  -18.2181 H   0  0  0  0  0  0
  -34.3257    5.0300  -14.6186 H   0  0  0  0  0  0
  -36.0824    4.5923  -12.9082 H   0  0  0  0  0  0
  -37.3391    4.7497  -14.1820 H   0  0  0  0  0  0
  -36.0647    8.9085  -10.9232 H   0  0  0  0  0  0
  -37.9509   11.1629  -13.3440 H   0  0  0  0  0  0
  -36.4569   11.2633  -12.3518 H   0  0  0  0  0  0
  -38.0147   10.8019  -11.5855 H   0  0  0  0  0  0
  -37.7133    4.4463  -15.8322 H   0  0  0  0  0  0
  -35.1939    3.6350  -17.9866 H   0  0  0  0  0  0
  1  2  2  0  0  0
  1  3  1  0  0  0
  1 26  1  0  0  0
  2  6  1  0  0  0
  2 15  1  0  0  0
  3 17  2  0  0  0
  3 19  1  0  0  0
  4 19  1  0  0  0
  4 27  1  0  0  0
  4 28  1  0  0  0
  4 29  1  0  0  0
  5 18  1  0  0  0
  5 30  1  0  0  0
  5 31  1  0  0  0
  5 32  1  0  0  0
  6  7  1  0  0  0
  6 33  1  0  0  0
  6 34  1  0  0  0
  7 14  2  0  0  0
  7 20  1  0  0  0
  8 20  1  0  0  0
  8 21  2  0  0  0
  8 22  1  0  0  0
  9 12  2  0  0  0
  9 13  1  0  0  0
  9 23  1  0  0  0
 10 11  2  0  0  0
 10 12  1  0  0  0
 10 35  1  0  0  0
 11 24  1  0  0  0
 11 25  1  0  0  0
 12 36  1  0  0  0
 13 24  2  0  0  0
 13 37  1  0  0  0
 15 16  2  0  0  0
 15 38  1  0  0  0
 16 17  1  0  0  0
 16 39  1  0  0  0
 17 18  1  0  0  0
 20 48  1  0  0  0
 21 47  1  0  0  0
 22 23  1  0  0  0
 22 40  1  0  0  0
 23 41  1  0  0  0
 23 42  1  0  0  0
 24 43  1  0  0  0
 25 44  1  0  0  0
 25 45  1  0  0  0
 25 46  1  0  0  0
M  CHG  1  20   1
M  END
> <s_m_source_file>
../4obz_ligand.sdf

> <i_m_source_file_index>
1

> <s_epik_input>
W0NIM11PYyhbY0hdW2NIXTEpYyhPW0NIM10pW2NIXWMxW0NIMl1DKD1PKVtOSF0vQyg9TlxbSF0pW05IXVtDSDJdYzJbY0hdW2NIXWMoW0NIM10pW2NIXVtjSF0y

> <s_epik_cmdline>
J2VwaWtfYXBwJywgJy1pbWFlJywgJ2xpZ2FuZF9wcm8ubWFlJywgJy1vbWFlJywgJ2xpZ2FuZF9wcmVwLm1hZScsICctbXMnLCAnMScsICctcGgnLCAnNycsICctcGh0JywgJzAuNScsICctbnQn

> <r_lp_tautomer_probability>
0.0644999999998426

> <r_epik_Ionization_Penalty>
  0.0000

> <r_epik_Ionization_Penalty_Charging>
  0.0000

> <r_epik_Ionization_Penalty_Neutral>
  0.0000

> <r_epik_State_Penalty>
  0.4107

> <r_epik_Charging_Adjusted_Penalty>
0.410681784221979

> <i_epik_Tot_Q>
1

> <i_epik_Tot_abs_Q>
1

> <s_epik_Chemistry_Notes>
This compound has an imine and may undergo hydrolysis.

$$$$
