4oc0_ligand
                    3D
 Schrodinger Suite 2020-3.
 48 49  0  0  1  0            999 V2000
   15.2970   43.6630   41.3870 C   0  0  0  0  0  0
   14.7500   45.0580   41.1550 C   0  0  0  0  0  0
   16.1670   44.8730   41.1560 C   0  0  0  0  0  0
   17.0990   44.7220   40.0650 C   0  0  0  0  0  0
   16.8080   43.8550   39.1950 O   0  5  0  0  0  0
   18.1020   45.4510   40.0410 O   0  0  0  0  0  0
   16.9500   45.2590   42.3690 N   0  0  0  0  0  0
   18.0740   44.5970   42.7600 C   0  0  0  0  0  0
   18.4240   43.5100   42.2710 O   0  0  0  0  0  0
   18.7200   45.1500   43.8000 N   0  0  0  0  0  0
   19.9710   44.7070   44.3710 C   0  0  2  0  0  0
   20.1150   45.4360   45.7360 C   0  0  0  0  0  0
   20.6640   44.7280   46.6370 O   0  0  0  0  0  0
   19.6710   46.6550   45.8230 O   0  5  0  0  0  0
   20.9990   45.3150   43.3350 C   0  0  0  0  0  0
   22.4930   45.3110   43.6720 C   0  0  0  0  0  0
   23.2890   45.9600   42.4910 C   0  0  0  0  0  0
   23.4960   47.4960   42.6500 C   0  0  0  0  0  0
   23.6700   47.9020   44.0750 N   0  0  0  0  0  0
   23.2190   49.0610   44.5920 C   0  0  0  0  0  0
   22.5780   49.8730   43.9100 O   0  0  0  0  0  0
   23.3590   49.2830   46.1420 C   0  0  0  0  0  0
   23.3680   50.5890   46.6860 C   0  0  0  0  0  0
   23.4660   50.8090   48.0840 C   0  0  0  0  0  0
   23.5350   49.7620   49.0180 C   0  0  0  0  0  0
   23.6630   50.1400   51.1870 I   0  0  0  0  0  0
   23.5130   48.4640   48.4710 C   0  0  0  0  0  0
   23.4220   48.2220   47.0680 C   0  0  0  0  0  0
   14.9654   43.2980   42.3702 H   0  0  0  0  0  0
   14.9262   42.9884   40.6013 H   0  0  0  0  0  0
   14.1146   45.0580   40.2570 H   0  0  0  0  0  0
   14.1538   45.3676   42.0260 H   0  0  0  0  0  0
   16.6242   46.1091   42.9864 H   0  0  0  0  0  0
   18.2019   46.0239   44.2216 H   0  0  0  0  0  0
   20.0193   43.6181   44.5190 H   0  0  0  0  0  0
   20.9319   44.7639   42.3854 H   0  0  0  0  0  0
   20.7612   46.3749   43.1614 H   0  0  0  0  0  0
   22.6627   45.8884   44.5928 H   0  0  0  0  0  0
   22.8326   44.2754   43.8208 H   0  0  0  0  0  0
   24.2855   45.4990   42.4234 H   0  0  0  0  0  0
   22.7450   45.7971   41.5489 H   0  0  0  0  0  0
   24.3956   47.8039   42.0969 H   0  0  0  0  0  0
   22.6199   48.0274   42.2500 H   0  0  0  0  0  0
   24.1952   47.2368   44.7762 H   0  0  0  0  0  0
   23.2980   51.4457   46.0157 H   0  0  0  0  0  0
   23.4888   51.8356   48.4495 H   0  0  0  0  0  0
   23.5677   47.6105   49.1467 H   0  0  0  0  0  0
   23.4007   47.1947   46.7043 H   0  0  0  0  0  0
  1  2  1  0  0  0
  1  3  1  0  0  0
  1 29  1  0  0  0
  1 30  1  0  0  0
  2  3  1  0  0  0
  2 31  1  0  0  0
  2 32  1  0  0  0
  3  4  1  0  0  0
  3  7  1  0  0  0
  4  5  1  0  0  0
  4  6  2  0  0  0
  7  8  1  0  0  0
  7 33  1  0  0  0
  8  9  2  0  0  0
  8 10  1  0  0  0
 10 11  1  0  0  0
 10 34  1  0  0  0
 11 12  1  0  0  0
 11 15  1  0  0  0
 11 35  1  0  0  0
 12 13  2  0  0  0
 12 14  1  0  0  0
 15 16  1  0  0  0
 15 36  1  0  0  0
 15 37  1  0  0  0
 16 17  1  0  0  0
 16 38  1  0  0  0
 16 39  1  0  0  0
 17 18  1  0  0  0
 17 40  1  0  0  0
 17 41  1  0  0  0
 18 19  1  0  0  0
 18 42  1  0  0  0
 18 43  1  0  0  0
 19 20  1  0  0  0
 19 44  1  0  0  0
 20 21  2  0  0  0
 20 22  1  0  0  0
 22 23  2  0  0  0
 22 28  1  0  0  0
 23 24  1  0  0  0
 23 45  1  0  0  0
 24 25  2  0  0  0
 24 46  1  0  0  0
 25 26  1  0  0  0
 25 27  1  0  0  0
 27 28  2  0  0  0
 27 47  1  0  0  0
 28 48  1  0  0  0
M  CHG  2   5  -1  14  -1
M  END
> <s_m_source_file>
../4oc0_ligand.sdf

> <i_m_source_file_index>
1

> <s_epik_input>
W0NIMl0xW0NIMl1DMShDKD1PKVtPSF0pW05IXUMoPU8pW05IXVtDQEhdKEMoPU8pW09IXSlbQ0gyXVtDSDJdW0NIMl1bQ0gyXVtOSF1DKD1PKWMyW2NIXVtjSF1jKEkpW2NIXVtjSF0y

> <s_epik_cmdline>
J2VwaWtfYXBwJywgJy1pbWFlJywgJ2xpZ2FuZF9wcm8ubWFlJywgJy1vbWFlJywgJ2xpZ2FuZF9wcmVwLm1hZScsICctbXMnLCAnMScsICctcGgnLCAnNycsICctcGh0JywgJzAuNScsICctbnQn

> <r_lp_tautomer_probability>
1

> <r_epik_Ionization_Penalty>
  0.0032

> <r_epik_Ionization_Penalty_Charging>
  0.0031

> <r_epik_Ionization_Penalty_Neutral>
  0.0001

> <r_epik_State_Penalty>
 -0.0000

> <r_epik_Charging_Adjusted_Penalty>
0.00311400506672462

> <i_epik_Tot_Q>
-2

> <i_epik_Tot_abs_Q>
2

$$$$
