4oc3_ligand
                    3D
 Schrodinger Suite 2020-3.
 54 55  0  0  1  0            999 V2000
   23.5420   48.4170   46.9890 C   0  0  0  0  0  0
   23.6350   48.6930   48.4010 C   0  0  0  0  0  0
   23.4960   49.9610   49.0240 C   0  0  0  0  0  0
   23.6330   50.3120   51.2530 I   0  0  0  0  0  0
   23.2600   50.9540   48.0470 C   0  0  0  0  0  0
   23.1480   50.7100   46.6430 C   0  0  0  0  0  0
   23.3180   49.4300   46.0500 C   0  0  0  0  0  0
   23.0690   49.3140   44.4840 C   0  0  0  0  0  0
   22.2040   50.0610   44.0340 O   0  0  0  0  0  0
   23.3180   48.3290   43.6230 N   0  0  0  0  0  0
   24.1610   47.1780   43.5600 C   0  0  0  0  0  0
   23.3880   46.1990   42.6170 C   0  0  0  0  0  0
   22.4410   45.3200   43.4960 C   0  0  0  0  0  0
   20.9780   45.8210   43.3730 C   0  0  0  0  0  0
   19.9930   45.0680   44.2890 C   0  0  1  0  0  0
   20.1320   45.6530   45.7000 C   0  0  0  0  0  0
   20.7440   44.9330   46.5430 O   0  0  0  0  0  0
   19.5890   46.7800   45.9150 O   0  5  0  0  0  0
   18.6620   45.4640   43.7910 N   0  0  0  0  0  0
   17.9510   44.7800   42.9120 C   0  0  0  0  0  0
   18.3610   43.7350   42.4370 O   0  0  0  0  0  0
   16.7260   45.1980   42.5800 N   0  0  0  0  0  0
   16.0350   44.5370   41.4640 C   0  0  2  0  0  0
   16.9810   44.6730   40.1930 C   0  0  0  0  0  0
   16.7710   43.8720   39.2410 O   0  0  0  0  0  0
   17.9360   45.5130   40.2140 O   0  5  0  0  0  0
   14.6310   45.0830   41.1990 C   0  0  0  0  0  0
   14.5230   46.5450   40.7410 C   0  0  0  0  0  0
   13.4670   47.3200   40.7650 C   0  0  0  0  0  0
   13.7530   48.5240   40.2640 C   0  0  0  0  0  0
   15.0000   48.5480   39.8370 C   0  0  0  0  0  0
   15.5370   47.2750   40.1480 O   0  0  0  0  0  0
   23.6493   47.3890   46.6427 H   0  0  0  0  0  0
   23.8316   47.8436   49.0552 H   0  0  0  0  0  0
   23.1555   51.9835   48.3896 H   0  0  0  0  0  0
   22.9194   51.5530   45.9909 H   0  0  0  0  0  0
   22.6464   48.5654   42.7845 H   0  0  0  0  0  0
   25.1410   47.4633   43.1498 H   0  0  0  0  0  0
   24.2929   46.7643   44.5707 H   0  0  0  0  0  0
   22.7995   46.7781   41.8901 H   0  0  0  0  0  0
   24.1069   45.5613   42.0817 H   0  0  0  0  0  0
   22.4931   44.2744   43.1584 H   0  0  0  0  0  0
   22.7554   45.3816   44.5483 H   0  0  0  0  0  0
   20.9313   46.8863   43.6432 H   0  0  0  0  0  0
   20.6314   45.6900   42.3373 H   0  0  0  0  0  0
   20.1234   43.9758   44.2909 H   0  0  0  0  0  0
   18.1923   46.3902   44.1536 H   0  0  0  0  0  0
   16.2341   46.0187   43.1228 H   0  0  0  0  0  0
   15.8553   43.5012   41.7879 H   0  0  0  0  0  0
   14.1505   44.4901   40.4067 H   0  0  0  0  0  0
   14.0325   45.0180   42.1196 H   0  0  0  0  0  0
   12.4887   47.0225   41.1424 H   0  0  0  0  0  0
   13.0585   49.3627   40.2153 H   0  0  0  0  0  0
   15.5117   49.3760   39.3463 H   0  0  0  0  0  0
  1  2  2  0  0  0
  1  7  1  0  0  0
  1 33  1  0  0  0
  2  3  1  0  0  0
  2 34  1  0  0  0
  3  4  1  0  0  0
  3  5  2  0  0  0
  5  6  1  0  0  0
  5 35  1  0  0  0
  6  7  2  0  0  0
  6 36  1  0  0  0
  7  8  1  0  0  0
  8  9  2  0  0  0
  8 10  1  0  0  0
 10 11  1  0  0  0
 10 37  1  0  0  0
 11 12  1  0  0  0
 11 38  1  0  0  0
 11 39  1  0  0  0
 12 13  1  0  0  0
 12 40  1  0  0  0
 12 41  1  0  0  0
 13 14  1  0  0  0
 13 42  1  0  0  0
 13 43  1  0  0  0
 14 15  1  0  0  0
 14 44  1  0  0  0
 14 45  1  0  0  0
 15 16  1  0  0  0
 15 19  1  0  0  0
 15 46  1  0  0  0
 16 17  2  0  0  0
 16 18  1  0  0  0
 19 20  1  0  0  0
 19 47  1  0  0  0
 20 21  2  0  0  0
 20 22  1  0  0  0
 22 23  1  0  0  0
 22 48  1  0  0  0
 23 24  1  0  0  0
 23 27  1  0  0  0
 23 49  1  0  0  0
 24 25  2  0  0  0
 24 26  1  0  0  0
 27 28  1  0  0  0
 27 50  1  0  0  0
 27 51  1  0  0  0
 28 29  2  0  0  0
 28 32  1  0  0  0
 29 30  1  0  0  0
 29 52  1  0  0  0
 30 31  2  0  0  0
 30 53  1  0  0  0
 31 32  1  0  0  0
 31 54  1  0  0  0
M  CHG  2  18  -1  26  -1
M  END
> <s_m_source_file>
../4oc3_ligand.sdf

> <i_m_source_file_index>
1

> <s_epik_input>
SWMxW2NIXVtjSF1jKFtjSF1bY0hdMSlDKD1PKVtOSF1bQ0gyXVtDSDJdW0NIMl1bQ0gyXVtDQEBIXShDKD1PKVtPSF0pW05IXUMoPU8pW05IXVtDQEhdKEMoPU8pW09IXSlbQ0gyXWMyW2NIXVtjSF1bY0hdbzI=

> <s_epik_cmdline>
J2VwaWtfYXBwJywgJy1pbWFlJywgJ2xpZ2FuZF9wcm8ubWFlJywgJy1vbWFlJywgJ2xpZ2FuZF9wcmVwLm1hZScsICctbXMnLCAnMScsICctcGgnLCAnNycsICctcGh0JywgJzAuNScsICctbnQn

> <r_lp_tautomer_probability>
1

> <r_epik_Ionization_Penalty>
  0.0019

> <r_epik_Ionization_Penalty_Charging>
  0.0019

> <r_epik_Ionization_Penalty_Neutral>
  0.0001

> <r_epik_State_Penalty>
 -0.0000

> <r_epik_Charging_Adjusted_Penalty>
0.00188650687123395

> <i_epik_Tot_Q>
-2

> <i_epik_Tot_abs_Q>
2

$$$$
