4oc4_ligand
                    3D
 Schrodinger Suite 2020-3.
 56 57  0  0  1  0            999 V2000
   23.2960   50.7440   46.6560 C   0  0  0  0  0  0
   23.4510   50.9390   48.0460 C   0  0  0  0  0  0
   23.5090   49.9010   48.9860 C   0  0  0  0  0  0
   23.6950   50.1830   51.1830 I   0  0  0  0  0  0
   23.4480   48.6220   48.4080 C   0  0  0  0  0  0
   23.3190   48.3940   47.0170 C   0  0  0  0  0  0
   23.2590   49.4490   46.1110 C   0  0  0  0  0  0
   23.0470   49.2240   44.5880 C   0  0  0  0  0  0
   22.2670   49.9660   43.9810 O   0  0  0  0  0  0
   23.5680   48.1400   44.0410 N   0  0  0  0  0  0
   23.3400   47.7820   42.6430 C   0  0  0  0  0  0
   23.2760   46.2680   42.5080 C   0  0  0  0  0  0
   22.3470   45.4970   43.5300 C   0  0  0  0  0  0
   20.8530   45.8460   43.3020 C   0  0  0  0  0  0
   19.9190   45.1240   44.3140 C   0  0  1  0  0  0
   20.0960   45.7000   45.7190 C   0  0  0  0  0  0
   20.7630   44.9740   46.4720 O   0  0  0  0  0  0
   19.5980   46.8240   45.9680 O   0  5  0  0  0  0
   18.5700   45.4360   43.8590 N   0  0  0  0  0  0
   17.9360   44.7080   42.9610 C   0  0  0  0  0  0
   18.4020   43.6300   42.5120 O   0  0  0  0  0  0
   16.7060   45.1020   42.6110 N   0  0  0  0  0  0
   16.1230   44.4280   41.4400 C   0  0  2  0  0  0
   17.0560   44.6900   40.2200 C   0  0  0  0  0  0
   16.9630   43.9100   39.2290 O   0  5  0  0  0  0
   17.9010   45.6100   40.2800 O   0  0  0  0  0  0
   14.7280   44.9290   41.0220 C   0  0  0  0  0  0
   14.5940   46.4220   40.7360 C   0  0  0  0  0  0
   15.1310   47.0210   39.5950 C   0  0  0  0  0  0
   14.9460   48.3780   39.3410 C   0  0  0  0  0  0
   14.2200   49.1220   40.1640 N   0  0  0  0  0  0
   13.6920   48.5790   41.2670 C   0  0  0  0  0  0
   13.8640   47.2310   41.6050 C   0  0  0  0  0  0
   23.2040   51.6081   45.9979 H   0  0  0  0  0  0
   23.5307   51.9628   48.4114 H   0  0  0  0  0  0
   23.5031   47.7563   49.0680 H   0  0  0  0  0  0
   23.2655   47.3700   46.6473 H   0  0  0  0  0  0
   24.1930   47.4973   44.6784 H   0  0  0  0  0  0
   22.3900   48.2199   42.3026 H   0  0  0  0  0  0
   24.1642   48.1695   42.0261 H   0  0  0  0  0  0
   22.8999   46.0046   41.5084 H   0  0  0  0  0  0
   24.2821   45.8448   42.6444 H   0  0  0  0  0  0
   22.4783   44.4128   43.3989 H   0  0  0  0  0  0
   22.6203   45.7778   44.5578 H   0  0  0  0  0  0
   20.7080   46.9303   43.4174 H   0  0  0  0  0  0
   20.5562   45.5424   42.2872 H   0  0  0  0  0  0
   20.0797   44.0366   44.3559 H   0  0  0  0  0  0
   18.0400   46.3091   44.2673 H   0  0  0  0  0  0
   16.1338   45.8781   43.1404 H   0  0  0  0  0  0
   16.0352   43.3852   41.7789 H   0  0  0  0  0  0
   14.4166   44.4186   40.0987 H   0  0  0  0  0  0
   14.0054   44.7120   41.8224 H   0  0  0  0  0  0
   15.7042   46.4171   38.8916 H   0  0  0  0  0  0
   15.4009   48.8311   38.4602 H   0  0  0  0  0  0
   13.1032   49.2126   41.9304 H   0  0  0  0  0  0
   13.4385   46.8254   42.5229 H   0  0  0  0  0  0
  1  2  2  0  0  0
  1  7  1  0  0  0
  1 34  1  0  0  0
  2  3  1  0  0  0
  2 35  1  0  0  0
  3  4  1  0  0  0
  3  5  2  0  0  0
  5  6  1  0  0  0
  5 36  1  0  0  0
  6  7  2  0  0  0
  6 37  1  0  0  0
  7  8  1  0  0  0
  8  9  2  0  0  0
  8 10  1  0  0  0
 10 11  1  0  0  0
 10 38  1  0  0  0
 11 12  1  0  0  0
 11 39  1  0  0  0
 11 40  1  0  0  0
 12 13  1  0  0  0
 12 41  1  0  0  0
 12 42  1  0  0  0
 13 14  1  0  0  0
 13 43  1  0  0  0
 13 44  1  0  0  0
 14 15  1  0  0  0
 14 45  1  0  0  0
 14 46  1  0  0  0
 15 16  1  0  0  0
 15 19  1  0  0  0
 15 47  1  0  0  0
 16 17  2  0  0  0
 16 18  1  0  0  0
 19 20  1  0  0  0
 19 48  1  0  0  0
 20 21  2  0  0  0
 20 22  1  0  0  0
 22 23  1  0  0  0
 22 49  1  0  0  0
 23 24  1  0  0  0
 23 27  1  0  0  0
 23 50  1  0  0  0
 24 25  1  0  0  0
 24 26  2  0  0  0
 27 28  1  0  0  0
 27 51  1  0  0  0
 27 52  1  0  0  0
 28 29  2  0  0  0
 28 33  1  0  0  0
 29 30  1  0  0  0
 29 53  1  0  0  0
 30 31  2  0  0  0
 30 54  1  0  0  0
 31 32  1  0  0  0
 32 33  2  0  0  0
 32 55  1  0  0  0
 33 56  1  0  0  0
M  CHG  2  18  -1  25  -1
M  END
> <s_m_source_file>
../4oc4_ligand.sdf

> <i_m_source_file_index>
1

> <s_epik_input>
SWMxW2NIXVtjSF1jKFtjSF1bY0hdMSlDKD1PKVtOSF1bQ0gyXVtDSDJdW0NIMl1bQ0gyXVtDQEBIXShDKD1PKVtPSF0pW05IXUMoPU8pW05IXVtDQEhdKEMoPU8pW09IXSlbQ0gyXWMyW2NIXVtjSF1uW2NIXVtjSF0y

> <s_epik_cmdline>
J2VwaWtfYXBwJywgJy1pbWFlJywgJ2xpZ2FuZF9wcm8ubWFlJywgJy1vbWFlJywgJ2xpZ2FuZF9wcmVwLm1hZScsICctbXMnLCAnMScsICctcGgnLCAnNycsICctcGh0JywgJzAuNScsICctbnQn

> <r_epik_Ionization_Penalty>
  0.0573

> <r_epik_Ionization_Penalty_Charging>
  0.0015

> <r_epik_Ionization_Penalty_Neutral>
  0.0558

> <r_epik_State_Penalty>
  0.0480

> <r_epik_Charging_Adjusted_Penalty>
0.0495691800591097

> <i_epik_Tot_Q>
-2

> <i_epik_Tot_abs_Q>
2

$$$$
