4oc5_ligand
                    3D
 Schrodinger Suite 2020-3.
 55 56  0  0  1  0            999 V2000
   14.0150   45.6150   41.2390 C   0  0  0  0  0  0
   13.0400   46.5170   40.8730 C   0  0  0  0  0  0
   13.3560   47.6370   40.1110 C   0  0  0  0  0  0
   12.3540   48.4870   39.7560 O   0  0  0  0  0  0
   14.6650   47.9080   39.7220 C   0  0  0  0  0  0
   15.6550   46.9870   40.1180 C   0  0  0  0  0  0
   15.3370   45.8690   40.8920 C   0  0  0  0  0  0
   16.3430   44.8250   41.3170 C   0  0  1  0  0  0
   17.4220   44.7020   40.2090 C   0  0  0  0  0  0
   17.2160   43.8620   39.2700 O   0  5  0  0  0  0
   18.4030   45.5000   40.2550 O   0  0  0  0  0  0
   17.0100   45.2940   42.5440 N   0  0  0  0  0  0
   18.1560   44.7510   42.9320 C   0  0  0  0  0  0
   18.5050   43.6610   42.4730 O   0  0  0  0  0  0
   18.7950   45.3650   43.9310 N   0  0  0  0  0  0
   19.9990   44.8260   44.5770 C   0  0  2  0  0  0
   20.1930   45.5610   45.9140 C   0  0  0  0  0  0
   19.6720   46.7260   46.0660 O   0  5  0  0  0  0
   20.8280   44.8840   46.7460 O   0  0  0  0  0  0
   21.2700   45.0020   43.7080 C   0  0  0  0  0  0
   21.6260   46.4260   43.4490 C   0  0  0  0  0  0
   22.9620   46.5000   42.6470 C   0  0  0  0  0  0
   23.5210   47.9020   42.7750 C   0  0  0  0  0  0
   23.7290   48.2110   44.1940 N   0  0  0  0  0  0
   23.2770   49.3360   44.7580 C   0  0  0  0  0  0
   22.6010   50.1410   44.1100 O   0  0  0  0  0  0
   23.4470   49.5480   46.3030 C   0  0  0  0  0  0
   23.5580   50.8310   46.8600 C   0  0  0  0  0  0
   23.6780   51.0340   48.2650 C   0  0  0  0  0  0
   23.6310   50.0060   49.2250 C   0  0  0  0  0  0
   23.7680   50.3270   51.3800 I   0  0  0  0  0  0
   23.4730   48.7260   48.6380 C   0  0  0  0  0  0
   23.3910   48.5030   47.2290 C   0  0  0  0  0  0
   13.7532   44.7138   41.7935 H   0  0  0  0  0  0
   12.0087   46.3510   41.1843 H   0  0  0  0  0  0
   11.3189   48.2753   40.0620 H   0  0  0  0  0  0
   14.9130   48.7936   39.1369 H   0  0  0  0  0  0
   16.6890   47.1503   39.8144 H   0  0  0  0  0  0
   15.8356   43.8719   41.5268 H   0  0  0  0  0  0
   16.5576   46.0981   43.1429 H   0  0  0  0  0  0
   18.3734   46.3241   44.2664 H   0  0  0  0  0  0
   19.8055   43.7512   44.7089 H   0  0  0  0  0  0
   22.1282   44.5369   44.2151 H   0  0  0  0  0  0
   21.1160   44.5200   42.7313 H   0  0  0  0  0  0
   20.8251   46.9039   42.8658 H   0  0  0  0  0  0
   21.7472   46.9537   44.4065 H   0  0  0  0  0  0
   23.6768   45.7715   43.0573 H   0  0  0  0  0  0
   22.7682   46.2678   41.5894 H   0  0  0  0  0  0
   24.4797   47.9648   42.2392 H   0  0  0  0  0  0
   22.8106   48.6210   42.3410 H   0  0  0  0  0  0
   24.2748   47.5044   44.8365 H   0  0  0  0  0  0
   23.5523   51.6974   46.1986 H   0  0  0  0  0  0
   23.8156   52.0551   48.6207 H   0  0  0  0  0  0
   23.4104   47.8618   49.2993 H   0  0  0  0  0  0
   23.2809   47.4820   46.8637 H   0  0  0  0  0  0
  1  2  2  0  0  0
  1  7  1  0  0  0
  1 34  1  0  0  0
  2  3  1  0  0  0
  2 35  1  0  0  0
  3  4  1  0  0  0
  3  5  2  0  0  0
  4 36  1  0  0  0
  5  6  1  0  0  0
  5 37  1  0  0  0
  6  7  2  0  0  0
  6 38  1  0  0  0
  7  8  1  0  0  0
  8  9  1  0  0  0
  8 12  1  0  0  0
  8 39  1  0  0  0
  9 10  1  0  0  0
  9 11  2  0  0  0
 12 13  1  0  0  0
 12 40  1  0  0  0
 13 14  2  0  0  0
 13 15  1  0  0  0
 15 16  1  0  0  0
 15 41  1  0  0  0
 16 17  1  0  0  0
 16 20  1  0  0  0
 16 42  1  0  0  0
 17 18  1  0  0  0
 17 19  2  0  0  0
 20 21  1  0  0  0
 20 43  1  0  0  0
 20 44  1  0  0  0
 21 22  1  0  0  0
 21 45  1  0  0  0
 21 46  1  0  0  0
 22 23  1  0  0  0
 22 47  1  0  0  0
 22 48  1  0  0  0
 23 24  1  0  0  0
 23 49  1  0  0  0
 23 50  1  0  0  0
 24 25  1  0  0  0
 24 51  1  0  0  0
 25 26  2  0  0  0
 25 27  1  0  0  0
 27 28  2  0  0  0
 27 33  1  0  0  0
 28 29  1  0  0  0
 28 52  1  0  0  0
 29 30  2  0  0  0
 29 53  1  0  0  0
 30 31  1  0  0  0
 30 32  1  0  0  0
 32 33  2  0  0  0
 32 54  1  0  0  0
 33 55  1  0  0  0
M  CHG  2  10  -1  18  -1
M  END
> <s_m_source_file>
../4oc5_ligand.sdf

> <i_m_source_file_index>
1

> <s_epik_input>
W09IXWMxW2NIXVtjSF1jKFtjSF1bY0hdMSlbQ0BASF0oQyg9TylbT0hdKVtOSF1DKD1PKVtOSF1bQ0BIXShDKD1PKVtPSF0pW0NIMl1bQ0gyXVtDSDJdW0NIMl1bTkhdQyg9TyljMltjSF1bY0hdYyhJKVtjSF1bY0hdMg==

> <s_epik_cmdline>
J2VwaWtfYXBwJywgJy1pbWFlJywgJ2xpZ2FuZF9wcm8ubWFlJywgJy1vbWFlJywgJ2xpZ2FuZF9wcmVwLm1hZScsICctbXMnLCAnMScsICctcGgnLCAnNycsICctcGh0JywgJzAuNScsICctbnQn

> <r_lp_tautomer_probability>
1

> <r_epik_Ionization_Penalty>
  0.0015

> <r_epik_Ionization_Penalty_Charging>
  0.0012

> <r_epik_Ionization_Penalty_Neutral>
  0.0004

> <r_epik_State_Penalty>
 -0.0000

> <r_epik_Charging_Adjusted_Penalty>
0.0011550447547873

> <i_epik_Tot_Q>
-2

> <i_epik_Tot_abs_Q>
2

$$$$
