4oc6_ligand
                    3D
 Schrodinger Suite 2020-3.
 98103  0  0  1  0            999 V2000
   15.7570   40.4850    8.8480 C   0  0  0  0  0  0
   14.9250   41.4050    8.0420 C   0  0  0  0  0  0
   16.4920   40.9360    9.6930 O   0  0  0  0  0  0
   13.2390   43.1180    6.5640 C   0  0  0  0  0  0
   12.6880   42.0570    7.3360 C   0  0  0  0  0  0
   13.5340   41.2290    8.0750 C   0  0  0  0  0  0
   11.9510   45.1560    6.2940 C   0  0  0  0  0  0
   10.7960   40.6760    7.9980 C   0  0  0  0  0  0
   14.7620   38.1810   11.2980 C   0  0  0  0  0  0
   13.4920   38.7190   11.0080 C   0  0  0  0  0  0
   14.7500   39.2750   13.4590 C   0  0  0  0  0  0
   15.4730   37.3110   10.2710 C   0  0  0  0  0  0
   16.4210   38.1610    9.4170 C   0  0  1  0  0  0
   17.2770   37.2830    8.5330 C   0  0  2  0  0  0
   11.3280   41.3750   12.0070 C   0  0  0  0  0  0
   10.6130   43.9840   12.7470 C   0  0  0  0  0  0
   18.2270   38.1680    7.7070 C   0  0  0  0  0  0
   15.3730   38.4600   12.5220 C   0  0  0  0  0  0
   20.0150   36.9230    6.4610 C   0  0  0  0  0  0
   20.4210   37.9340    5.3680 C   0  0  0  0  0  0
   15.6860   39.1490    8.6350 N   0  0  0  0  0  0
   15.4630   42.4610    7.2580 C   0  0  0  0  0  0
   14.6210   43.2860    6.5200 C   0  0  0  0  0  0
   17.3300   42.7920    7.1250 Br  0  0  0  0  0  0
   12.4840   43.9390    5.7720 O   0  0  0  0  0  0
   11.3380   41.8740    7.4230 O   0  0  0  0  0  0
   12.8660   39.5640   11.9310 C   0  0  0  0  0  0
   13.5090   39.8250   13.1650 C   0  0  0  0  0  0
   11.6370   40.0940   11.6350 O   0  0  0  0  0  0
   12.0360   42.4720   11.4860 C   0  0  0  0  0  0
   11.6720   43.7730   11.8560 C   0  0  0  0  0  0
    9.9060   42.8890   13.2660 C   0  0  0  0  0  0
   10.2730   41.5930   12.9010 C   0  0  0  0  0  0
   16.5670   36.3630    7.7220 O   0  0  0  0  0  0
   19.5920   37.6130    7.6990 N   0  0  0  0  0  0
   21.6390   38.6990    5.8120 C   0  0  0  0  0  0
   21.5170   39.9750    6.3640 C   0  0  0  0  0  0
   22.6120   40.6470    6.8560 C   0  0  0  0  0  0
   23.8390   40.0420    6.8200 C   0  0  0  0  0  0
   23.9940   38.7650    6.2910 C   0  0  0  0  0  0
   22.8940   38.0900    5.7730 C   0  0  0  0  0  0
   20.0390   40.8500    6.4940 Cl  0  0  0  0  0  0
   25.1510   40.9850    7.4200 Cl  0  0  0  0  0  0
   20.3740   37.7500    8.8250 C   0  0  0  0  0  0
   19.9470   38.3890    9.7790 O   0  0  0  0  0  0
   21.7830   37.1730    8.8990 C   0  0  0  0  0  0
   22.3290   36.9850   10.3140 C   0  0  0  0  0  0
   23.6490   36.3360   10.2490 N   0  0  0  0  0  0
   24.8240   36.9660    9.9690 C   0  0  0  0  0  0
   23.8420   35.0140   10.4610 C   0  0  0  0  0  0
   25.2880   34.7350   10.3390 C   0  0  0  0  0  0
   25.9080   35.9680   10.0260 C   0  0  0  0  0  0
   27.3020   36.0270    9.9230 C   0  0  0  0  0  0
   28.0580   34.8620   10.0840 C   0  0  0  0  0  0
   27.4690   33.6460   10.3870 C   0  0  0  0  0  0
   26.0840   33.6030   10.5540 C   0  0  0  0  0  0
   22.9900   34.1830   10.7560 O   0  0  0  0  0  0
   24.9990   38.1570    9.7670 O   0  0  0  0  0  0
   13.1076   40.4340    8.6867 H   0  0  0  0  0  0
   11.3777   45.6715    5.5094 H   0  0  0  0  0  0
   12.7749   45.8024    6.6308 H   0  0  0  0  0  0
   11.2898   44.9319    7.1440 H   0  0  0  0  0  0
    9.6972   40.7228    7.9748 H   0  0  0  0  0  0
   11.1371   40.5824    9.0396 H   0  0  0  0  0  0
   11.1382   39.8047    7.4203 H   0  0  0  0  0  0
   12.9985   38.4773   10.0666 H   0  0  0  0  0  0
   15.2305   39.4807   14.4155 H   0  0  0  0  0  0
   16.0554   36.5345   10.7886 H   0  0  0  0  0  0
   14.7288   36.8352    9.6153 H   0  0  0  0  0  0
   17.0826   38.7530   10.0666 H   0  0  0  0  0  0
   17.8034   36.5626    9.1764 H   0  0  0  0  0  0
   10.3380   44.9980   13.0372 H   0  0  0  0  0  0
   17.8642   38.2274    6.6703 H   0  0  0  0  0  0
   18.2592   39.1776    8.1426 H   0  0  0  0  0  0
   16.3508   38.0332   12.7452 H   0  0  0  0  0  0
   19.1778   36.3082    6.0990 H   0  0  0  0  0  0
   20.8714   36.2741    6.6966 H   0  0  0  0  0  0
   20.6483   37.3952    4.4363 H   0  0  0  0  0  0
   19.5930   38.6366    5.1925 H   0  0  0  0  0  0
   15.0266   38.8231    7.8171 H   0  0  0  0  0  0
   15.0479   44.0739    5.8994 H   0  0  0  0  0  0
   13.0216   40.4688   13.8971 H   0  0  0  0  0  0
   12.8650   42.3108   10.7968 H   0  0  0  0  0  0
   12.2158   44.6251   11.4483 H   0  0  0  0  0  0
    9.0737   43.0498   13.9513 H   0  0  0  0  0  0
    9.7329   40.7421   13.3161 H   0  0  0  0  0  0
   15.8503   35.6654    8.1798 H   0  0  0  0  0  0
   22.5035   41.6496    7.2697 H   0  0  0  0  0  0
   24.9768   38.2937    6.2825 H   0  0  0  0  0  0
   23.0108   37.0960    5.3412 H   0  0  0  0  0  0
   21.7993   36.1827    8.4203 H   0  0  0  0  0  0
   22.4818   37.8438    8.3777 H   0  0  0  0  0  0
   22.4264   37.9657   10.8027 H   0  0  0  0  0  0
   21.6384   36.3539   10.8927 H   0  0  0  0  0  0
   27.7963   36.9767    9.7182 H   0  0  0  0  0  0
   29.1406   34.9123    9.9678 H   0  0  0  0  0  0
   28.0723   32.7443   10.4925 H   0  0  0  0  0  0
   25.6120   32.6688   10.8581 H   0  0  0  0  0  0
  1  2  1  0  0  0
  1  3  2  0  0  0
  1 21  1  0  0  0
  2  6  2  0  0  0
  2 22  1  0  0  0
  4  5  2  0  0  0
  4 23  1  0  0  0
  4 25  1  0  0  0
  5  6  1  0  0  0
  5 26  1  0  0  0
  6 59  1  0  0  0
  7 25  1  0  0  0
  7 60  1  0  0  0
  7 61  1  0  0  0
  7 62  1  0  0  0
  8 26  1  0  0  0
  8 63  1  0  0  0
  8 64  1  0  0  0
  8 65  1  0  0  0
  9 10  2  0  0  0
  9 12  1  0  0  0
  9 18  1  0  0  0
 10 27  1  0  0  0
 10 66  1  0  0  0
 11 18  2  0  0  0
 11 28  1  0  0  0
 11 67  1  0  0  0
 12 13  1  0  0  0
 12 68  1  0  0  0
 12 69  1  0  0  0
 13 14  1  0  0  0
 13 21  1  0  0  0
 13 70  1  0  0  0
 14 17  1  0  0  0
 14 34  1  0  0  0
 14 71  1  0  0  0
 15 29  1  0  0  0
 15 30  2  0  0  0
 15 33  1  0  0  0
 16 31  2  0  0  0
 16 32  1  0  0  0
 16 72  1  0  0  0
 17 35  1  0  0  0
 17 73  1  0  0  0
 17 74  1  0  0  0
 18 75  1  0  0  0
 19 20  1  0  0  0
 19 35  1  0  0  0
 19 76  1  0  0  0
 19 77  1  0  0  0
 20 36  1  0  0  0
 20 78  1  0  0  0
 20 79  1  0  0  0
 21 80  1  0  0  0
 22 23  2  0  0  0
 22 24  1  0  0  0
 23 81  1  0  0  0
 27 28  2  0  0  0
 27 29  1  0  0  0
 28 82  1  0  0  0
 30 31  1  0  0  0
 30 83  1  0  0  0
 31 84  1  0  0  0
 32 33  2  0  0  0
 32 85  1  0  0  0
 33 86  1  0  0  0
 34 87  1  0  0  0
 35 44  1  0  0  0
 36 37  2  0  0  0
 36 41  1  0  0  0
 37 38  1  0  0  0
 37 42  1  0  0  0
 38 39  2  0  0  0
 38 88  1  0  0  0
 39 40  1  0  0  0
 39 43  1  0  0  0
 40 41  2  0  0  0
 40 89  1  0  0  0
 41 90  1  0  0  0
 44 45  2  0  0  0
 44 46  1  0  0  0
 46 47  1  0  0  0
 46 91  1  0  0  0
 46 92  1  0  0  0
 47 48  1  0  0  0
 47 93  1  0  0  0
 47 94  1  0  0  0
 48 49  1  0  0  0
 48 50  1  0  0  0
 49 52  1  0  0  0
 49 58  2  0  0  0
 50 51  1  0  0  0
 50 57  2  0  0  0
 51 52  2  0  0  0
 51 56  1  0  0  0
 52 53  1  0  0  0
 53 54  2  0  0  0
 53 95  1  0  0  0
 54 55  1  0  0  0
 54 96  1  0  0  0
 55 56  2  0  0  0
 55 97  1  0  0  0
 56 98  1  0  0  0
M  END
> <s_m_source_file>
../4oc6_ligand.sdf

> <i_m_source_file_index>
1

> <s_epik_input>
W2NIXTFbY0hdW2NIXVtjSF1bY0hdYzFPYyhbY0hdW2NIXVtjSF0yKVtjSF1jMltDSDJdW0NASF0oW05IXUMoPU8pYzNbY0hdYyhPW0NIM10pYyhbY0hdYzNCcilPW0NIM10pW0NAQEhdKFtPSF0pW0NIMl1OKFtDSDJdW0NIMl1jNGMoQ2wpW2NIXWMoQ2wpW2NIXVtjSF00KUMoPU8pW0NIMl1bQ0gyXU4oQzU9TylDKD1PKWMoYzU2KVtjSF1bY0hdW2NIXVtjSF02

> <s_epik_cmdline>
J2VwaWtfYXBwJywgJy1pbWFlJywgJ2xpZ2FuZF9wcm8ubWFlJywgJy1vbWFlJywgJ2xpZ2FuZF9wcmVwLm1hZScsICctbXMnLCAnMScsICctcGgnLCAnNycsICctcGh0JywgJzAuNScsICctbnQn

> <r_lp_tautomer_probability>
1

> <r_epik_Ionization_Penalty>
  0.0000

> <r_epik_Ionization_Penalty_Charging>
  0.0000

> <r_epik_Ionization_Penalty_Neutral>
  0.0000

> <r_epik_State_Penalty>
 -0.0000

> <r_epik_Charging_Adjusted_Penalty>
0

> <i_epik_Tot_Q>
0

> <i_epik_Tot_abs_Q>
0

$$$$
