4occ_ligand
                    3D
 Schrodinger Suite 2020-3.
 66 68  0  0  1  0            999 V2000
  -15.8840    2.9300  -15.8020 C   0  0  0  0  0  0
  -16.7940    3.9780  -15.5720 C   0  0  0  0  0  0
  -16.4680    5.3530  -14.5920 Cl  0  0  0  0  0  0
  -18.0460    3.9840  -16.1630 C   0  0  0  0  0  0
  -18.4030    2.9190  -17.0100 C   0  0  0  0  0  0
  -17.5030    1.8550  -17.2680 C   0  0  0  0  0  0
  -16.2270    1.8550  -16.6620 C   0  0  0  0  0  0
  -15.2070    0.7630  -16.9530 C   0  0  1  0  0  0
  -15.7060   -0.5590  -16.8230 O   0  0  0  0  0  0
  -14.7370   -1.6070  -16.8840 C   0  0  2  0  0  0
  -14.0990   -1.9370  -15.5440 C   0  0  0  0  0  0
  -15.0610   -2.5410  -14.4970 C   0  0  0  0  0  0
  -15.3120   -1.6580  -13.5120 O   0  5  0  0  0  0
  -15.5240   -3.6430  -14.5460 O   0  0  0  0  0  0
  -13.6390   -1.4090  -17.9360 C   0  0  0  0  0  0
  -12.8750   -2.3440  -18.1600 O   0  0  0  0  0  0
  -13.5560   -0.2090  -18.5850 N   0  0  0  0  0  0
  -12.6630   -0.0900  -19.7410 C   0  0  2  0  0  0
  -13.0570   -1.0100  -20.8850 C   0  0  0  0  0  0
  -14.3620    0.9850  -18.2220 C   0  0  2  0  0  0
  -13.6740    2.3370  -18.2760 C   0  0  0  0  0  0
  -12.5800    2.6600  -17.4350 C   0  0  0  0  0  0
  -11.9520    3.9210  -17.5060 C   0  0  0  0  0  0
  -12.4190    4.8670  -18.4300 C   0  0  0  0  0  0
  -11.6020    6.3530  -18.5680 Cl  0  0  0  0  0  0
  -13.5110    4.5710  -19.2680 C   0  0  0  0  0  0
  -14.1350    3.3150  -19.1930 C   0  0  0  0  0  0
  -14.7390   -0.7230  -21.3740 S   0  0  0  0  0  0
  -14.9540    0.6880  -21.5360 O   0  0  0  0  0  0
  -15.5820   -1.4940  -20.4970 O   0  0  0  0  0  0
  -14.8170   -1.4420  -23.0150 C   0  0  0  0  0  0
  -11.1600   -0.1760  -19.3780 C   0  0  0  0  0  0
  -10.2450    0.5150  -20.3310 C   0  0  0  0  0  0
  -16.3040   -1.4290  -23.3820 C   0  0  0  0  0  0
  -14.3080   -2.9010  -23.0060 C   0  0  0  0  0  0
  -14.0400   -0.4970  -23.9460 C   0  0  0  0  0  0
  -14.9084    2.9440  -15.3160 H   0  0  0  0  0  0
  -18.7435    4.8003  -15.9752 H   0  0  0  0  0  0
  -19.3885    2.9120  -17.4757 H   0  0  0  0  0  0
  -17.7941    1.0403  -17.9311 H   0  0  0  0  0  0
  -14.5226    0.7711  -16.0919 H   0  0  0  0  0  0
  -15.4149   -2.4165  -17.1924 H   0  0  0  0  0  0
  -13.2927   -2.6703  -15.6925 H   0  0  0  0  0  0
  -13.6837   -1.0203  -15.0999 H   0  0  0  0  0  0
  -12.8601    0.9367  -20.0832 H   0  0  0  0  0  0
  -12.4003   -0.8242  -21.7477 H   0  0  0  0  0  0
  -12.9546   -2.0575  -20.5651 H   0  0  0  0  0  0
  -15.0274    1.0506  -19.0955 H   0  0  0  0  0  0
  -12.2174    1.9209  -16.7206 H   0  0  0  0  0  0
  -11.1138    4.1574  -16.8506 H   0  0  0  0  0  0
  -13.8724    5.3172  -19.9755 H   0  0  0  0  0  0
  -14.9796    3.0906  -19.8444 H   0  0  0  0  0  0
  -10.9943    0.2818  -18.3916 H   0  0  0  0  0  0
  -10.8494   -1.2309  -19.3494 H   0  0  0  0  0  0
   -9.2054    0.3990  -19.9906 H   0  0  0  0  0  0
  -10.4997    1.5843  -20.3738 H   0  0  0  0  0  0
  -10.3549    0.0715  -21.3316 H   0  0  0  0  0  0
  -16.8530   -2.1070  -22.7120 H   0  0  0  0  0  0
  -16.4277   -1.7625  -24.4229 H   0  0  0  0  0  0
  -16.6992   -0.4081  -23.2747 H   0  0  0  0  0  0
  -14.9210   -3.4989  -22.3155 H   0  0  0  0  0  0
  -13.2588   -2.9212  -22.6763 H   0  0  0  0  0  0
  -14.3820   -3.3214  -24.0198 H   0  0  0  0  0  0
  -14.4714    0.5131  -23.8862 H   0  0  0  0  0  0
  -14.1079   -0.8641  -24.9807 H   0  0  0  0  0  0
  -12.9848   -0.4639  -23.6372 H   0  0  0  0  0  0
  1  2  2  0  0  0
  1  7  1  0  0  0
  1 37  1  0  0  0
  2  3  1  0  0  0
  2  4  1  0  0  0
  4  5  2  0  0  0
  4 38  1  0  0  0
  5  6  1  0  0  0
  5 39  1  0  0  0
  6  7  2  0  0  0
  6 40  1  0  0  0
  7  8  1  0  0  0
  8  9  1  0  0  0
  8 20  1  0  0  0
  8 41  1  0  0  0
  9 10  1  0  0  0
 10 11  1  0  0  0
 10 15  1  0  0  0
 10 42  1  0  0  0
 11 12  1  0  0  0
 11 43  1  0  0  0
 11 44  1  0  0  0
 12 13  1  0  0  0
 12 14  2  0  0  0
 15 16  2  0  0  0
 15 17  1  0  0  0
 17 18  1  0  0  0
 17 20  1  0  0  0
 18 19  1  0  0  0
 18 32  1  0  0  0
 18 45  1  0  0  0
 19 28  1  0  0  0
 19 46  1  0  0  0
 19 47  1  0  0  0
 20 21  1  0  0  0
 20 48  1  0  0  0
 21 22  2  0  0  0
 21 27  1  0  0  0
 22 23  1  0  0  0
 22 49  1  0  0  0
 23 24  2  0  0  0
 23 50  1  0  0  0
 24 25  1  0  0  0
 24 26  1  0  0  0
 26 27  2  0  0  0
 26 51  1  0  0  0
 27 52  1  0  0  0
 28 29  2  0  0  0
 28 30  2  0  0  0
 28 31  1  0  0  0
 31 34  1  0  0  0
 31 35  1  0  0  0
 31 36  1  0  0  0
 32 33  1  0  0  0
 32 53  1  0  0  0
 32 54  1  0  0  0
 33 55  1  0  0  0
 33 56  1  0  0  0
 33 57  1  0  0  0
 34 58  1  0  0  0
 34 59  1  0  0  0
 34 60  1  0  0  0
 35 61  1  0  0  0
 35 62  1  0  0  0
 35 63  1  0  0  0
 36 64  1  0  0  0
 36 65  1  0  0  0
 36 66  1  0  0  0
M  CHG  1  13  -1
M  END
> <s_m_source_file>
../4occ_ligand.sdf

> <i_m_source_file_index>
1

> <s_epik_input>
Q2xjMVtjSF1jKFtjSF1bY0hdW2NIXTEpW0NASF0yT1tDQEhdKFtDSDJdQyg9TylbT0hdKUMoPU8pTihbQ0BASF0oW0NIMl1bQ0gzXSlbQ0gyXVMoPU8pKD1PKUMoW0NIM10pKFtDSDNdKVtDSDNdKVtDQEBIXTJjM1tjSF1bY0hdYyhDbClbY0hdW2NIXTM=

> <s_epik_cmdline>
J2VwaWtfYXBwJywgJy1pbWFlJywgJ2xpZ2FuZF9wcm8ubWFlJywgJy1vbWFlJywgJ2xpZ2FuZF9wcmVwLm1hZScsICctbXMnLCAnMScsICctcGgnLCAnNycsICctcGh0JywgJzAuNScsICctbnQn

> <r_lp_tautomer_probability>
1

> <r_epik_Ionization_Penalty>
  0.0013

> <r_epik_Ionization_Penalty_Charging>
  0.0013

> <r_epik_Ionization_Penalty_Neutral>
  0.0000

> <r_epik_State_Penalty>
 -0.0000

> <r_epik_Charging_Adjusted_Penalty>
0.00129935715057938

> <i_epik_Tot_Q>
-1

> <i_epik_Tot_abs_Q>
1

$$$$
