4ock_ligand
                    3D
 Schrodinger Suite 2020-3.
 44 46  0  0  1  0            999 V2000
  -31.0040    7.8080  -16.9090 P   0  0  0  0  0  0
  -32.0420    7.6280  -18.1310 O   0  5  0  0  0  0
  -30.1760    9.0270  -17.1230 O   0  0  0  0  0  0
  -30.0940    6.4990  -16.8080 O   0  5  0  0  0  0
  -32.8360    9.0590  -14.8140 P   0  0  1  0  0  0
  -33.9120    9.2880  -15.7960 O   0  0  0  0  0  0
  -33.4260    8.5630  -13.4160 O   0  5  0  0  0  0
  -31.7440    7.8220  -15.3370 N   0  0  1  0  0  0
  -30.6970   10.8840  -13.9800 P   0  0  2  0  0  0
  -29.5760   10.3380  -14.8290 O   0  0  0  0  0  0
  -30.6870   10.6120  -12.4810 O   0  5  0  0  0  0
  -32.1110   10.5100  -14.6480 O   0  0  0  0  0  0
  -30.7710   12.4770  -14.1630 O   0  0  0  0  0  0
  -30.9550   13.0870  -15.4330 C   0  0  0  0  0  0
  -30.0410   14.2990  -15.5660 C   0  0  1  0  0  0
  -30.2750   15.2740  -14.5320 O   0  0  0  0  0  0
  -28.5620   13.9620  -15.4480 C   0  0  1  0  0  0
  -27.9790   13.5890  -16.7030 O   0  0  0  0  0  0
  -27.9220   15.2340  -14.9710 C   0  0  1  0  0  0
  -27.7690   16.1350  -16.0690 O   0  0  0  0  0  0
  -29.0150   15.8260  -14.1230 C   0  0  2  0  0  0
  -28.8550   15.5680  -12.6770 N   0  0  0  0  0  0
  -29.3540   14.5500  -11.9550 C   0  0  0  0  0  0
  -29.0350   14.6790  -10.6380 N   0  0  0  0  0  0
  -28.3450   15.8360  -10.5430 C   0  0  0  0  0  0
  -27.7660   16.6200   -9.4600 C   0  0  0  0  0  0
  -27.8620   16.1520   -8.2000 N   0  0  0  0  0  0
  -27.1460   17.7890   -9.7680 N   0  0  0  0  0  0
  -27.0700   18.2560  -11.0290 C   0  0  0  0  0  0
  -27.6040   17.5940  -12.0740 N   0  0  0  0  0  0
  -28.2490   16.4210  -11.8770 C   0  0  0  0  0  0
  -32.3452    6.9101  -15.2067 H   0  0  0  0  0  0
  -30.7142   12.3633  -16.2257 H   0  0  0  0  0  0
  -32.0015   13.4097  -15.5366 H   0  0  0  0  0  0
  -30.2928   14.7357  -16.5437 H   0  0  0  0  0  0
  -28.3801   13.0837  -14.8113 H   0  0  0  0  0  0
  -28.3179   12.6778  -17.2177 H   0  0  0  0  0  0
  -26.9307   15.0953  -14.5149 H   0  0  0  0  0  0
  -27.0207   15.9298  -16.8487 H   0  0  0  0  0  0
  -29.0096   16.9161  -14.2700 H   0  0  0  0  0  0
  -29.9379   13.7284  -12.3699 H   0  0  0  0  0  0
  -28.3751   15.1987   -8.0050 H   0  0  0  0  0  0
  -27.4273   16.7232   -7.3665 H   0  0  0  0  0  0
  -26.5591   19.2016  -11.2103 H   0  0  0  0  0  0
  1  2  1  0  0  0
  1  3  2  0  0  0
  1  4  1  0  0  0
  1  8  1  0  0  0
  5  6  2  0  0  0
  5  7  1  0  0  0
  5  8  1  0  0  0
  5 12  1  0  0  0
  8 32  1  0  0  0
  9 10  2  0  0  0
  9 11  1  0  0  0
  9 12  1  0  0  0
  9 13  1  0  0  0
 13 14  1  0  0  0
 14 15  1  0  0  0
 14 33  1  0  0  0
 14 34  1  0  0  0
 15 16  1  0  0  0
 15 17  1  0  0  0
 15 35  1  0  0  0
 16 21  1  0  0  0
 17 18  1  0  0  0
 17 19  1  0  0  0
 17 36  1  0  0  0
 18 37  1  0  0  0
 19 20  1  0  0  0
 19 21  1  0  0  0
 19 38  1  0  0  0
 20 39  1  0  0  0
 21 22  1  0  0  0
 21 40  1  0  0  0
 22 23  1  0  0  0
 22 31  1  0  0  0
 23 24  2  0  0  0
 23 41  1  0  0  0
 24 25  1  0  0  0
 25 26  2  0  0  0
 25 31  1  0  0  0
 26 27  1  0  0  0
 26 28  1  0  0  0
 27 42  1  0  0  0
 27 43  1  0  0  0
 28 29  2  0  0  0
 29 30  1  0  0  0
 29 44  1  0  0  0
 30 31  2  0  0  0
M  CHG  4   2  -1   4  -1   7  -1  11  -1
M  END
> <s_m_source_file>
../4ock_ligand.sdf

> <i_m_source_file_index>
1

> <s_epik_input>
W09IXVAoPU8pKFtPSF0pW05IXVtQQEBdKD1PKShbT0hdKU9bUEBdKD1PKShbT0hdKU9bQ0gyXVtDQEhdMU9bQ0BIXShbQ0BIXShbT0hdKVtDQEBIXTFbT0hdKW4oW2NIXW4yKWMoYzIzKW5bY0hdbmMzW05IMl0=

> <s_epik_cmdline>
J2VwaWtfYXBwJywgJy1pbWFlJywgJ2xpZ2FuZF9wcm8ubWFlJywgJy1vbWFlJywgJ2xpZ2FuZF9wcmVwLm1hZScsICctbXMnLCAnMScsICctcGgnLCAnNycsICctcGh0JywgJzAuNScsICctbnQn

> <r_lp_tautomer_probability>
0.999997216410988

> <r_epik_Ionization_Penalty>
  0.3578

> <r_epik_Ionization_Penalty_Charging>
  0.3346

> <r_epik_Ionization_Penalty_Neutral>
  0.0232

> <r_epik_State_Penalty>
  0.3402

> <r_epik_Charging_Adjusted_Penalty>
0.674771962662822

> <i_epik_Tot_Q>
-4

> <i_epik_Tot_abs_Q>
4

> <s_epik_Chemistry_Notes>
This compound contains an acetal/aminal-like group ( X-CH(R)-Y where X, Y are N, S, or O) that may be acid/base labile, releasing an aldehyde.

$$$$
