4ocp_ligand
                    3D
 Schrodinger Suite 2020-3.
 39 41  0  0  1  0            999 V2000
  -32.8010    8.9520  -14.9730 P   0  0  0  0  0  0
  -31.6730    8.7800  -15.9610 O   0  5  0  0  0  0
  -34.1290    9.2720  -15.6010 O   0  0  0  0  0  0
  -32.9350    7.9090  -13.8930 O   0  5  0  0  0  0
  -31.0380   10.7930  -13.5510 P   0  0  2  0  0  0
  -29.8300   10.3670  -14.3490 O   0  5  0  0  0  0
  -31.0630   10.5530  -12.0620 O   0  0  0  0  0  0
  -32.4540   10.2950  -14.1380 O   0  0  0  0  0  0
  -31.2150   12.3790  -13.7980 O   0  0  0  0  0  0
  -31.4150   12.8860  -15.1140 C   0  0  0  0  0  0
  -30.3820   13.9640  -15.3600 C   0  0  1  0  0  0
  -30.5420   14.9850  -14.3710 O   0  0  0  0  0  0
  -28.9490   13.4830  -15.2070 C   0  0  1  0  0  0
  -28.4410   12.8350  -16.3870 O   0  0  0  0  0  0
  -28.2370   14.7690  -14.8290 C   0  0  1  0  0  0
  -27.9810   15.5790  -15.9760 O   0  0  0  0  0  0
  -29.2580   15.5050  -13.9910 C   0  0  2  0  0  0
  -29.1170   15.3880  -12.5170 N   0  0  0  0  0  0
  -29.6110   14.4130  -11.7240 C   0  0  0  0  0  0
  -29.3170   14.6500  -10.4200 N   0  0  0  0  0  0
  -28.6370   15.8080  -10.3780 C   0  0  0  0  0  0
  -28.0550   16.6560   -9.3210 C   0  0  0  0  0  0
  -28.1520   16.2580   -8.0370 N   0  0  0  0  0  0
  -27.4270   17.8080   -9.6790 N   0  0  0  0  0  0
  -27.3560   18.1920  -10.9700 C   0  0  0  0  0  0
  -27.8740   17.4620  -11.9860 N   0  0  0  0  0  0
  -28.5190   16.2930  -11.7580 C   0  0  0  0  0  0
  -31.2954   12.0710  -15.8430 H   0  0  0  0  0  0
  -32.4288   13.3049  -15.1954 H   0  0  0  0  0  0
  -30.5571   14.3565  -16.3726 H   0  0  0  0  0  0
  -28.7914   12.6549  -14.5003 H   0  0  0  0  0  0
  -28.8950   11.8965  -16.7377 H   0  0  0  0  0  0
  -27.2521   14.5956  -14.3709 H   0  0  0  0  0  0
  -27.2620   15.2426  -16.7375 H   0  0  0  0  0  0
  -29.1623   16.5823  -14.1919 H   0  0  0  0  0  0
  -30.1716   13.5500  -12.0833 H   0  0  0  0  0  0
  -28.6686   15.3188   -7.7898 H   0  0  0  0  0  0
  -27.7146   16.8723   -7.2362 H   0  0  0  0  0  0
  -26.8590   19.1329  -11.2062 H   0  0  0  0  0  0
  1  2  1  0  0  0
  1  3  2  0  0  0
  1  4  1  0  0  0
  1  8  1  0  0  0
  5  6  1  0  0  0
  5  7  2  0  0  0
  5  8  1  0  0  0
  5  9  1  0  0  0
  9 10  1  0  0  0
 10 11  1  0  0  0
 10 28  1  0  0  0
 10 29  1  0  0  0
 11 12  1  0  0  0
 11 13  1  0  0  0
 11 30  1  0  0  0
 12 17  1  0  0  0
 13 14  1  0  0  0
 13 15  1  0  0  0
 13 31  1  0  0  0
 14 32  1  0  0  0
 15 16  1  0  0  0
 15 17  1  0  0  0
 15 33  1  0  0  0
 16 34  1  0  0  0
 17 18  1  0  0  0
 17 35  1  0  0  0
 18 19  1  0  0  0
 18 27  1  0  0  0
 19 20  2  0  0  0
 19 36  1  0  0  0
 20 21  1  0  0  0
 21 22  2  0  0  0
 21 27  1  0  0  0
 22 23  1  0  0  0
 22 24  1  0  0  0
 23 37  1  0  0  0
 23 38  1  0  0  0
 24 25  2  0  0  0
 25 26  1  0  0  0
 25 39  1  0  0  0
 26 27  2  0  0  0
M  CHG  3   2  -1   4  -1   6  -1
M  END
> <s_m_source_file>
../4ocp_ligand.sdf

> <i_m_source_file_index>
1

> <s_epik_input>
W09IXVAoPU8pKFtPSF0pT1tQQEBdKD1PKShbT0hdKU9bQ0gyXVtDQEhdMU9bQ0BIXShbQ0BIXShbT0hdKVtDQEBIXTFbT0hdKW4oW2NIXW4yKWMoYzIzKW5bY0hdbmMzW05IMl0=

> <s_epik_cmdline>
J2VwaWtfYXBwJywgJy1pbWFlJywgJ2xpZ2FuZF9wcm8ubWFlJywgJy1vbWFlJywgJ2xpZ2FuZF9wcmVwLm1hZScsICctbXMnLCAnMScsICctcGgnLCAnNycsICctcGh0JywgJzAuNScsICctbnQn

> <r_lp_tautomer_probability>
0.999997216410988

> <r_epik_Ionization_Penalty>
  0.1037

> <r_epik_Ionization_Penalty_Charging>
  0.1033

> <r_epik_Ionization_Penalty_Neutral>
  0.0004

> <r_epik_State_Penalty>
  0.0922

> <r_epik_Charging_Adjusted_Penalty>
0.19546844050481

> <i_epik_Tot_Q>
-3

> <i_epik_Tot_abs_Q>
3

> <s_epik_Chemistry_Notes>
This compound contains an acetal/aminal-like group ( X-CH(R)-Y where X, Y are N, S, or O) that may be acid/base labile, releasing an aldehyde.

$$$$
