4ocq_ligand
                    3D
 Schrodinger Suite 2020-3.
 30 30  0  0  1  0            999 V2000
   86.4850   83.7740  118.6790 O   0  0  0  0  0  0
   86.8710   83.6770  117.2860 C   0  0  2  0  0  0
   86.0150   84.5210  116.4670 O   0  0  0  0  0  0
   86.8080   82.2060  116.8210 C   0  0  2  0  0  0
   87.1010   82.0950  115.3810 N   0  0  0  0  0  0
   85.4410   81.5620  117.1720 C   0  0  1  0  0  0
   85.4300   80.1800  116.7650 O   0  0  0  0  0  0
   85.2160   81.6680  118.6700 C   0  0  1  0  0  0
   86.2810   80.9650  119.3700 O   0  0  0  0  0  0
   85.2090   83.1750  119.0020 C   0  0  1  0  0  0
   84.9400   83.4410  120.4730 C   0  0  0  0  0  0
   84.7460   84.8530  120.6420 O   0  0  0  0  0  0
   88.0970   81.3150  114.9320 C   0  0  0  0  0  0
   88.8120   80.6190  115.6590 O   0  0  0  0  0  0
   88.3000   81.3290  113.4140 C   0  0  0  0  0  0
   87.8871   84.0897  117.2011 H   0  0  0  0  0  0
   85.9488   85.5999  116.6712 H   0  0  0  0  0  0
   87.6097   81.6382  117.3158 H   0  0  0  0  0  0
   86.4987   82.6573  114.6522 H   0  0  0  0  0  0
   84.6072   82.0279  116.6264 H   0  0  0  0  0  0
   85.5788   79.9169  115.7073 H   0  0  0  0  0  0
   84.2955   81.1672  119.0044 H   0  0  0  0  0  0
   86.4092   79.8814  119.2304 H   0  0  0  0  0  0
   84.4404   83.6616  118.3835 H   0  0  0  0  0  0
   84.0381   82.8942  120.7855 H   0  0  0  0  0  0
   85.7995   83.1022  121.0701 H   0  0  0  0  0  0
   84.5362   85.2637  121.6407 H   0  0  0  0  0  0
   87.5674   82.0074  112.9524 H   0  0  0  0  0  0
   88.1606   80.3130  113.0161 H   0  0  0  0  0  0
   89.3178   81.6767  113.1834 H   0  0  0  0  0  0
  1  2  1  0  0  0
  1 10  1  0  0  0
  2  3  1  0  0  0
  2  4  1  0  0  0
  2 16  1  0  0  0
  3 17  1  0  0  0
  4  5  1  0  0  0
  4  6  1  0  0  0
  4 18  1  0  0  0
  5 13  1  0  0  0
  5 19  1  0  0  0
  6  7  1  0  0  0
  6  8  1  0  0  0
  6 20  1  0  0  0
  7 21  1  0  0  0
  8  9  1  0  0  0
  8 10  1  0  0  0
  8 22  1  0  0  0
  9 23  1  0  0  0
 10 11  1  0  0  0
 10 24  1  0  0  0
 11 12  1  0  0  0
 11 25  1  0  0  0
 11 26  1  0  0  0
 12 27  1  0  0  0
 13 14  2  0  0  0
 13 15  1  0  0  0
 15 28  1  0  0  0
 15 29  1  0  0  0
 15 30  1  0  0  0
M  END
> <s_m_source_file>
../4ocq_ligand.sdf

> <i_m_source_file_index>
1

> <s_epik_input>
W09IXVtDQEhdMU9bQ0BIXShbQ0gyXVtPSF0pW0NASF0oW09IXSlbQ0BIXShbT0hdKVtDQEhdMVtOSF1DKD1PKVtDSDNd

> <s_epik_cmdline>
J2VwaWtfYXBwJywgJy1pbWFlJywgJ2xpZ2FuZF9wcm8ubWFlJywgJy1vbWFlJywgJ2xpZ2FuZF9wcmVwLm1hZScsICctbXMnLCAnMScsICctcGgnLCAnNycsICctcGh0JywgJzAuNScsICctbnQn

> <r_lp_tautomer_probability>
1

> <r_epik_Ionization_Penalty>
  0.0000

> <r_epik_Ionization_Penalty_Charging>
  0.0000

> <r_epik_Ionization_Penalty_Neutral>
  0.0000

> <r_epik_State_Penalty>
 -0.0000

> <r_epik_Charging_Adjusted_Penalty>
0

> <i_epik_Tot_Q>
0

> <i_epik_Tot_abs_Q>
0

> <s_epik_Chemistry_Notes>
This compound contains an acetal/aminal-like group ( X-CH(R)-Y where X, Y are N, S, or O) that may be acid/base labile, releasing an aldehyde.

$$$$
