4oct_ligand
                    3D
 Schrodinger Suite 2020-3.
 14 13  0  0  1  0            999 V2000
   17.6820    3.5850    2.5700 C   0  0  0  0  0  0
   18.1430    2.4140    2.9210 O   0  5  0  0  0  0
   18.3450    4.6770    2.6890 O   0  0  0  0  0  0
   16.2990    3.6450    1.9870 C   0  0  0  0  0  0
   15.8170    2.6080    1.5950 O   0  0  0  0  0  0
   15.4490    4.9200    1.9010 C   0  0  0  0  0  0
   13.9930    4.6220    2.3150 C   0  0  0  0  0  0
   13.1660    5.8920    2.5590 C   0  0  0  0  0  0
   13.6230    7.0140    2.2080 O   0  0  0  0  0  0
   12.0340    5.7950    3.1100 O   0  5  0  0  0  0
   15.8646    5.6839    2.5746 H   0  0  0  0  0  0
   15.4583    5.2979    0.8680 H   0  0  0  0  0  0
   13.4958    4.0477    1.5194 H   0  0  0  0  0  0
   13.9891    4.0371    3.2466 H   0  0  0  0  0  0
  1  2  1  0  0  0
  1  3  2  0  0  0
  1  4  1  0  0  0
  4  5  2  0  0  0
  4  6  1  0  0  0
  6  7  1  0  0  0
  6 11  1  0  0  0
  6 12  1  0  0  0
  7  8  1  0  0  0
  7 13  1  0  0  0
  7 14  1  0  0  0
  8  9  2  0  0  0
  8 10  1  0  0  0
M  CHG  2   2  -1  10  -1
M  END
> <s_m_source_file>
../4oct_ligand.sdf

> <i_m_source_file_index>
1

> <s_epik_input>
W09IXUMoPU8pQyg9TylbQ0gyXVtDSDJdQyg9TylbT0hd

> <s_epik_cmdline>
J2VwaWtfYXBwJywgJy1pbWFlJywgJ2xpZ2FuZF9wcm8ubWFlJywgJy1vbWFlJywgJ2xpZ2FuZF9wcmVwLm1hZScsICctbXMnLCAnMScsICctcGgnLCAnNycsICctcGh0JywgJzAuNScsICctbnQn

> <r_lp_tautomer_probability>
1

> <r_epik_Ionization_Penalty>
  0.0013

> <r_epik_Ionization_Penalty_Charging>
  0.0013

> <r_epik_Ionization_Penalty_Neutral>
  0.0000

> <r_epik_State_Penalty>
 -0.0000

> <r_epik_Charging_Adjusted_Penalty>
0.00129329390835398

> <i_epik_Tot_Q>
-2

> <i_epik_Tot_abs_Q>
2

$$$$
