4ocv_ligand
                    3D
 Schrodinger Suite 2020-3.
 44 46  0  0  1  0            999 V2000
    0.6960   37.9760  -21.4290 P   0  0  0  0  0  0
    1.5410   38.0340  -22.8010 O   0  5  0  0  0  0
   -0.5940   37.3070  -21.6410 O   0  0  0  0  0  0
    0.3850   39.4420  -20.8810 O   0  5  0  0  0  0
    2.6420   38.6390  -19.4940 P   0  0  1  0  0  0
    1.8160   39.8710  -19.4770 O   0  0  0  0  0  0
    3.0490   38.3140  -17.9720 O   0  5  0  0  0  0
    1.6860   37.3340  -20.1550 N   0  0  1  0  0  0
    5.4600   38.3280  -20.5020 P   0  0  2  0  0  0
    5.3980   37.0240  -21.2670 O   0  5  0  0  0  0
    6.1230   38.3390  -19.1440 O   0  0  0  0  0  0
    3.9530   38.9850  -20.4140 O   0  0  0  0  0  0
    6.2730   39.3550  -21.4490 O   0  0  0  0  0  0
    6.0450   39.2770  -22.8650 C   0  0  0  0  0  0
    6.9600   40.1790  -23.6990 C   0  0  1  0  0  0
    8.2100   40.4550  -23.0540 O   0  0  0  0  0  0
    7.3080   39.4600  -24.9910 C   0  0  1  0  0  0
    7.2700   40.4170  -26.0550 O   0  0  0  0  0  0
    8.7140   38.9170  -24.7820 C   0  0  1  0  0  0
    9.4540   38.8950  -26.0030 O   0  0  0  0  0  0
    9.3110   39.9010  -23.7930 C   0  0  2  0  0  0
   10.3210   39.3590  -22.8370 N   0  0  0  0  0  0
   10.0650   38.9730  -21.5690 C   0  0  0  0  0  0
   11.1960   38.5690  -20.9360 N   0  0  0  0  0  0
   12.2090   38.7030  -21.8080 C   0  0  0  0  0  0
   13.6700   38.4640  -21.7820 C   0  0  0  0  0  0
   14.2710   37.9850  -20.6700 N   0  0  0  0  0  0
   14.3800   38.7390  -22.9010 N   0  0  0  0  0  0
   13.7930   39.2170  -24.0180 C   0  0  0  0  0  0
   12.4680   39.4650  -24.1100 N   0  0  0  0  0  0
   11.6350   39.2340  -23.0570 C   0  0  0  0  0  0
    1.0434   36.9031  -19.3731 H   0  0  0  0  0  0
    6.2109   38.2447  -23.2068 H   0  0  0  0  0  0
    5.0095   39.5746  -23.0866 H   0  0  0  0  0  0
    6.4657   41.1523  -23.8343 H   0  0  0  0  0  0
    6.6005   38.6741  -25.2941 H   0  0  0  0  0  0
    6.3198   40.9000  -26.3266 H   0  0  0  0  0  0
    8.7623   37.8624  -24.4730 H   0  0  0  0  0  0
    9.1442   38.2292  -26.8220 H   0  0  0  0  0  0
    9.8577   40.6733  -24.3540 H   0  0  0  0  0  0
    9.0757   38.9843  -21.1115 H   0  0  0  0  0  0
   13.6738   37.7686  -19.7719 H   0  0  0  0  0  0
   15.3572   37.8116  -20.6632 H   0  0  0  0  0  0
   14.4185   39.4127  -24.8889 H   0  0  0  0  0  0
  1  2  1  0  0  0
  1  3  2  0  0  0
  1  4  1  0  0  0
  1  8  1  0  0  0
  5  6  2  0  0  0
  5  7  1  0  0  0
  5  8  1  0  0  0
  5 12  1  0  0  0
  8 32  1  0  0  0
  9 10  1  0  0  0
  9 11  2  0  0  0
  9 12  1  0  0  0
  9 13  1  0  0  0
 13 14  1  0  0  0
 14 15  1  0  0  0
 14 33  1  0  0  0
 14 34  1  0  0  0
 15 16  1  0  0  0
 15 17  1  0  0  0
 15 35  1  0  0  0
 16 21  1  0  0  0
 17 18  1  0  0  0
 17 19  1  0  0  0
 17 36  1  0  0  0
 18 37  1  0  0  0
 19 20  1  0  0  0
 19 21  1  0  0  0
 19 38  1  0  0  0
 20 39  1  0  0  0
 21 22  1  0  0  0
 21 40  1  0  0  0
 22 23  1  0  0  0
 22 31  1  0  0  0
 23 24  2  0  0  0
 23 41  1  0  0  0
 24 25  1  0  0  0
 25 26  2  0  0  0
 25 31  1  0  0  0
 26 27  1  0  0  0
 26 28  1  0  0  0
 27 42  1  0  0  0
 27 43  1  0  0  0
 28 29  2  0  0  0
 29 30  1  0  0  0
 29 44  1  0  0  0
 30 31  2  0  0  0
M  CHG  4   2  -1   4  -1   7  -1  10  -1
M  END
> <s_m_source_file>
../4ocv_ligand.sdf

> <i_m_source_file_index>
1

> <s_epik_input>
W09IXVAoPU8pKFtPSF0pW05IXVtQQEBdKD1PKShbT0hdKU9bUEBAXSg9TykoW09IXSlPW0NIMl1bQ0BIXTFPW0NASF0oW0NASF0oW09IXSlbQ0BASF0xW09IXSluKFtjSF1uMiljKGMyMyluW2NIXW5jM1tOSDJd

> <s_epik_cmdline>
J2VwaWtfYXBwJywgJy1pbWFlJywgJ2xpZ2FuZF9wcm8ubWFlJywgJy1vbWFlJywgJ2xpZ2FuZF9wcmVwLm1hZScsICctbXMnLCAnMScsICctcGgnLCAnNycsICctcGh0JywgJzAuNScsICctbnQn

> <r_lp_tautomer_probability>
0.999997216410988

> <r_epik_Ionization_Penalty>
  0.3578

> <r_epik_Ionization_Penalty_Charging>
  0.3346

> <r_epik_Ionization_Penalty_Neutral>
  0.0232

> <r_epik_State_Penalty>
  0.3402

> <r_epik_Charging_Adjusted_Penalty>
0.674771962662822

> <i_epik_Tot_Q>
-4

> <i_epik_Tot_abs_Q>
4

> <s_epik_Chemistry_Notes>
This compound contains an acetal/aminal-like group ( X-CH(R)-Y where X, Y are N, S, or O) that may be acid/base labile, releasing an aldehyde.

$$$$
