4ocx_ligand
                    3D
 Schrodinger Suite 2020-3.
 53 55  0  0  1  0            999 V2000
   40.3370   43.3540   10.5110 N   0  0  0  0  0  0
   39.6230   42.5490    9.7150 C   0  0  0  0  0  0
   39.3710   41.2340   10.1080 N   0  0  0  0  0  0
   39.1150   42.9130    8.5400 N   0  0  0  0  0  0
   39.3360   44.1750    8.1590 C   0  0  0  0  0  0
   38.8630   44.6090    6.9210 N   0  0  0  0  0  0
   40.0400   45.0810    8.9120 C   0  0  0  0  0  0
   40.1870   46.3390    8.4660 N   0  0  0  0  0  0
   40.8890   47.1610    9.2430 C   0  0  0  0  0  0
   41.3920   46.6960   10.4390 C   0  0  0  0  0  0
   41.2350   45.4490   10.8990 N   0  0  0  0  0  0
   40.5500   44.6140   10.1150 C   0  0  0  0  0  0
   41.0870   48.5750    8.7470 C   0  0  0  0  0  0
   41.6340   49.4290    9.8150 N   0  0  0  0  0  0
   42.8440   50.1410    9.4520 C   0  0  0  0  0  0
   38.7180   51.9050   11.6400 C   0  0  0  0  0  0
   38.4270   50.6050   11.2950 C   0  0  0  0  0  0
   39.3900   49.8210   10.7070 C   0  0  0  0  0  0
   40.6540   50.3040   10.4030 C   0  0  0  0  0  0
   40.9140   51.6190   10.7710 C   0  0  0  0  0  0
   39.9690   52.4110   11.3810 C   0  0  0  0  0  0
   37.7170   52.7840   12.2710 C   0  0  0  0  0  0
   37.8210   53.9930   12.1050 O   0  0  0  0  0  0
   36.7760   52.1190   13.0460 N   0  0  0  0  0  0
   35.5180   52.6620   13.5470 C   0  0  2  0  0  0
   34.5460   53.4560   12.6550 C   0  0  0  0  0  0
   33.3250   53.2640   12.9430 O   0  5  0  0  0  0
   35.0070   54.1930   11.7400 O   0  0  0  0  0  0
   35.6650   53.4460   14.8460 C   0  0  0  0  0  0
   36.9820   54.1890   14.9800 C   0  0  0  0  0  0
   36.9730   54.6240   16.4230 C   0  0  0  0  0  0
   36.5110   55.7840   16.6300 O   0  5  0  0  0  0
   37.4570   53.7690   17.2170 O   0  0  0  0  0  0
   39.7597   40.8627   11.0677 H   0  0  0  0  0  0
   38.7836   40.5687    9.4581 H   0  0  0  0  0  0
   38.2929   43.9219    6.2784 H   0  0  0  0  0  0
   39.0600   45.6384    6.5870 H   0  0  0  0  0  0
   41.9587   47.3944   11.0548 H   0  0  0  0  0  0
   41.7887   48.5715    7.8999 H   0  0  0  0  0  0
   40.1209   48.9879    8.4211 H   0  0  0  0  0  0
   43.5639   49.4378    9.0078 H   0  0  0  0  0  0
   43.2843   50.5977   10.3507 H   0  0  0  0  0  0
   42.6016   50.9275    8.7222 H   0  0  0  0  0  0
   37.4344   50.1980   11.4878 H   0  0  0  0  0  0
   39.1523   48.7837   10.4713 H   0  0  0  0  0  0
   41.9003   52.0369   10.5693 H   0  0  0  0  0  0
   40.2119   53.4368   11.6581 H   0  0  0  0  0  0
   37.0575   51.0809   13.2764 H   0  0  0  0  0  0
   35.0949   51.6508   13.6388 H   0  0  0  0  0  0
   34.8634   54.1962   14.9142 H   0  0  0  0  0  0
   35.5956   52.7565   15.7003 H   0  0  0  0  0  0
   37.8131   53.5071   14.7470 H   0  0  0  0  0  0
   36.9970   55.0378   14.2804 H   0  0  0  0  0  0
  1  2  2  0  0  0
  1 12  1  0  0  0
  2  3  1  0  0  0
  2  4  1  0  0  0
  3 34  1  0  0  0
  3 35  1  0  0  0
  4  5  2  0  0  0
  5  6  1  0  0  0
  5  7  1  0  0  0
  6 36  1  0  0  0
  6 37  1  0  0  0
  7  8  1  0  0  0
  7 12  2  0  0  0
  8  9  2  0  0  0
  9 10  1  0  0  0
  9 13  1  0  0  0
 10 11  2  0  0  0
 10 38  1  0  0  0
 11 12  1  0  0  0
 13 14  1  0  0  0
 13 39  1  0  0  0
 13 40  1  0  0  0
 14 15  1  0  0  0
 14 19  1  0  0  0
 15 41  1  0  0  0
 15 42  1  0  0  0
 15 43  1  0  0  0
 16 17  2  0  0  0
 16 21  1  0  0  0
 16 22  1  0  0  0
 17 18  1  0  0  0
 17 44  1  0  0  0
 18 19  2  0  0  0
 18 45  1  0  0  0
 19 20  1  0  0  0
 20 21  2  0  0  0
 20 46  1  0  0  0
 21 47  1  0  0  0
 22 23  2  0  0  0
 22 24  1  0  0  0
 24 25  1  0  0  0
 24 48  1  0  0  0
 25 26  1  0  0  0
 25 29  1  0  0  0
 25 49  1  0  0  0
 26 27  1  0  0  0
 26 28  2  0  0  0
 29 30  1  0  0  0
 29 50  1  0  0  0
 29 51  1  0  0  0
 30 31  1  0  0  0
 30 52  1  0  0  0
 30 53  1  0  0  0
 31 32  1  0  0  0
 31 33  2  0  0  0
M  CHG  2  27  -1  32  -1
M  END
> <s_m_source_file>
../4ocx_ligand.sdf

> <i_m_source_file_index>
1

> <s_epik_input>
W05IMl1jMW5jKFtOSDJdKW5jKGMxMiluW2NIXWMobjIpW0NIMl1OKFtDSDNdKWMoW2NIXVtjSF0zKVtjSF1bY0hdYzNDKD1PKVtOSF1bQ0BIXShDKD1PKVtPSF0pW0NIMl1bQ0gyXUMoPU8pW09IXQ==

> <s_epik_cmdline>
J2VwaWtfYXBwJywgJy1pbWFlJywgJ2xpZ2FuZF9wcm8ubWFlJywgJy1vbWFlJywgJ2xpZ2FuZF9wcmVwLm1hZScsICctbXMnLCAnMScsICctcGgnLCAnNycsICctcGh0JywgJzAuNScsICctbnQn

> <r_epik_Ionization_Penalty>
  0.0825

> <r_epik_Ionization_Penalty_Charging>
  0.0043

> <r_epik_Ionization_Penalty_Neutral>
  0.0782

> <r_epik_State_Penalty>
  0.0653

> <r_epik_Charging_Adjusted_Penalty>
0.0696263758716876

> <i_epik_Tot_Q>
-2

> <i_epik_Tot_abs_Q>
2

$$$$
