4ocz_ligand
                    3D
 Schrodinger Suite 2020-3.
 47 48  0  0  1  0            999 V2000
   21.3830    7.7920   12.8470 F   0  0  0  0  0  0
   20.3700    8.2540   12.1480 C   0  0  0  0  0  0
   20.7830    9.0010   11.1340 F   0  0  0  0  0  0
   19.7350    7.1590   11.8050 F   0  0  0  0  0  0
   19.4150    9.0690   12.9500 C   0  0  0  0  0  0
   19.3990   10.4640   12.9370 C   0  0  0  0  0  0
   18.4640   11.1490   13.7210 C   0  0  0  0  0  0
   18.5100    8.3690   13.7240 C   0  0  0  0  0  0
   17.5990    9.0580   14.5090 C   0  0  0  0  0  0
   17.5430   10.4520   14.5300 C   0  0  0  0  0  0
   16.6870   11.1260   15.3740 N   0  0  0  0  0  0
   16.0720   10.6390   16.4850 C   0  0  0  0  0  0
   16.2220    9.4900   16.8640 O   0  0  0  0  0  0
   15.3330   11.5180   17.2030 N   0  0  0  0  0  0
   14.7880   11.3370   18.5620 C   0  0  0  0  0  0
   13.6360   10.3440   18.7370 C   0  0  0  0  0  0
   12.9990   10.3350   20.1450 C   0  0  0  0  0  0
   12.5870   11.7030   20.5360 N   0  0  0  0  0  0
   13.6760   12.6930   20.4220 C   0  0  0  0  0  0
   14.2800   12.7080   19.0170 C   0  0  0  0  0  0
   11.3870   12.0870   21.0410 C   0  0  0  0  0  0
   11.2140   13.2060   21.5580 O   0  0  0  0  0  0
   10.2240   11.1270   21.0190 C   0  0  0  0  0  0
    9.7330   10.9710   19.6030 C   0  0  0  0  0  0
    9.0720   11.6340   21.8800 C   0  0  0  0  0  0
   20.1091   11.0159   12.3211 H   0  0  0  0  0  0
   18.4473   12.2388   13.7061 H   0  0  0  0  0  0
   18.5123    7.2790   13.7174 H   0  0  0  0  0  0
   16.9040    8.4927   15.1299 H   0  0  0  0  0  0
   16.4362   12.1787   15.1770 H   0  0  0  0  0  0
   15.1511   12.4560   16.6579 H   0  0  0  0  0  0
   15.6370   10.9114   19.1171 H   0  0  0  0  0  0
   12.8322   10.5860   18.0261 H   0  0  0  0  0  0
   13.9994    9.3235   18.5461 H   0  0  0  0  0  0
   12.1139    9.6819   20.1428 H   0  0  0  0  0  0
   13.7302    9.9592   20.8759 H   0  0  0  0  0  0
   13.2834   13.6969   20.6414 H   0  0  0  0  0  0
   14.4726   12.4461   21.1393 H   0  0  0  0  0  0
   15.1144   13.4248   19.0226 H   0  0  0  0  0  0
   13.5002   13.0584   18.3248 H   0  0  0  0  0  0
   10.5773   10.1620   21.4113 H   0  0  0  0  0  0
   10.5538   10.6054   18.9685 H   0  0  0  0  0  0
    9.3841   11.9439   19.2267 H   0  0  0  0  0  0
    8.9027   10.2498   19.5802 H   0  0  0  0  0  0
    9.4151   11.7532   22.9183 H   0  0  0  0  0  0
    8.2443   10.9102   21.8481 H   0  0  0  0  0  0
    8.7256   12.6043   21.4946 H   0  0  0  0  0  0
  1  2  1  0  0  0
  2  3  1  0  0  0
  2  4  1  0  0  0
  2  5  1  0  0  0
  5  6  2  0  0  0
  5  8  1  0  0  0
  6  7  1  0  0  0
  6 26  1  0  0  0
  7 10  2  0  0  0
  7 27  1  0  0  0
  8  9  2  0  0  0
  8 28  1  0  0  0
  9 10  1  0  0  0
  9 29  1  0  0  0
 10 11  1  0  0  0
 11 12  1  0  0  0
 11 30  1  0  0  0
 12 13  2  0  0  0
 12 14  1  0  0  0
 14 15  1  0  0  0
 14 31  1  0  0  0
 15 16  1  0  0  0
 15 20  1  0  0  0
 15 32  1  0  0  0
 16 17  1  0  0  0
 16 33  1  0  0  0
 16 34  1  0  0  0
 17 18  1  0  0  0
 17 35  1  0  0  0
 17 36  1  0  0  0
 18 19  1  0  0  0
 18 21  1  0  0  0
 19 20  1  0  0  0
 19 37  1  0  0  0
 19 38  1  0  0  0
 20 39  1  0  0  0
 20 40  1  0  0  0
 21 22  2  0  0  0
 21 23  1  0  0  0
 23 24  1  0  0  0
 23 25  1  0  0  0
 23 41  1  0  0  0
 24 42  1  0  0  0
 24 43  1  0  0  0
 24 44  1  0  0  0
 25 45  1  0  0  0
 25 46  1  0  0  0
 25 47  1  0  0  0
M  END
> <s_m_source_file>
../4ocz_ligand.sdf

> <i_m_source_file_index>
1

> <s_epik_input>
RkMoRikoRiljMVtjSF1bY0hdYyhbY0hdW2NIXTEpW05IXUMoPU8pW05IXVtDSF0yW0NIMl1bQ0gyXU4oW0NIMl1bQ0gyXTIpQyg9TylbQ0hdKFtDSDNdKVtDSDNd

> <s_epik_cmdline>
J2VwaWtfYXBwJywgJy1pbWFlJywgJ2xpZ2FuZF9wcm8ubWFlJywgJy1vbWFlJywgJ2xpZ2FuZF9wcmVwLm1hZScsICctbXMnLCAnMScsICctcGgnLCAnNycsICctcGh0JywgJzAuNScsICctbnQn

> <r_lp_tautomer_probability>
1

> <r_epik_Ionization_Penalty>
  0.0000

> <r_epik_Ionization_Penalty_Charging>
  0.0000

> <r_epik_Ionization_Penalty_Neutral>
  0.0000

> <r_epik_State_Penalty>
 -0.0000

> <r_epik_Charging_Adjusted_Penalty>
0

> <i_epik_Tot_Q>
0

> <i_epik_Tot_abs_Q>
0

$$$$
