4od0_ligand
                    3D
 Schrodinger Suite 2020-3.
 45 46  0  0  1  0            999 V2000
   21.4240    7.9250   12.9180 F   0  0  0  0  0  0
   20.5510    7.3460   12.1190 C   0  0  0  0  0  0
   21.1880    6.7130   11.1610 F   0  0  0  0  0  0
   19.8320    6.4930   12.8340 F   0  0  0  0  0  0
   19.7050    8.3430   11.5530 O   0  0  0  0  0  0
   18.9260    9.0360   12.4320 C   0  0  0  0  0  0
   17.9220    8.4070   13.1770 C   0  0  0  0  0  0
   17.1470    9.1270   14.0780 C   0  0  0  0  0  0
   19.1600   10.3810   12.6120 C   0  0  0  0  0  0
   18.3720   11.0930   13.4970 C   0  0  0  0  0  0
   17.3530   10.4890   14.2360 C   0  0  0  0  0  0
   16.7210   11.2580   15.1700 N   0  0  0  0  0  0
   16.1110   10.8000   16.2720 C   0  0  0  0  0  0
   16.0890    9.6110   16.5310 O   0  0  0  0  0  0
   15.4970   11.7470   17.0040 N   0  0  0  0  0  0
   14.4570   11.5720   18.0120 C   0  0  0  0  0  0
   14.3100   12.8740   18.7920 C   0  0  0  0  0  0
   13.7520   12.6800   20.2040 C   0  0  0  0  0  0
   12.7910   11.5660   20.2030 N   0  0  0  0  0  0
   13.3540   10.2550   19.8430 C   0  0  0  0  0  0
   14.6500   10.4530   19.0330 C   0  0  0  0  0  0
   11.5130   11.7770   20.5420 C   0  0  0  0  0  0
   11.1830   12.7960   21.1360 O   0  0  0  0  0  0
   10.4370   10.7580   20.2240 C   0  0  0  0  0  0
    9.2620   10.9740   21.1670 C   0  0  0  0  0  0
   17.7458    7.3390   13.0489 H   0  0  0  0  0  0
   16.3771    8.6211   14.6606 H   0  0  0  0  0  0
   19.9585   10.8792   12.0622 H   0  0  0  0  0  0
   18.5521   12.1607   13.6219 H   0  0  0  0  0  0
   16.6843   12.3507   15.0492 H   0  0  0  0  0  0
   15.8689   12.7546   16.7667 H   0  0  0  0  0  0
   13.5985   11.2890   17.3851 H   0  0  0  0  0  0
   15.2940   13.3557   18.8901 H   0  0  0  0  0  0
   13.6241   13.5469   18.2564 H   0  0  0  0  0  0
   14.5763   12.4525   20.8959 H   0  0  0  0  0  0
   13.2452   13.6011   20.5278 H   0  0  0  0  0  0
   13.5785    9.6884   20.7587 H   0  0  0  0  0  0
   12.6256    9.6972   19.2361 H   0  0  0  0  0  0
   14.8978    9.5178   18.5096 H   0  0  0  0  0  0
   15.4693   10.7183   19.7174 H   0  0  0  0  0  0
   10.1072   10.8860   19.1824 H   0  0  0  0  0  0
   10.8411    9.7438   20.3586 H   0  0  0  0  0  0
    8.4740   10.2392   20.9452 H   0  0  0  0  0  0
    8.8644   11.9905   21.0305 H   0  0  0  0  0  0
    9.5984   10.8484   22.2067 H   0  0  0  0  0  0
  1  2  1  0  0  0
  2  3  1  0  0  0
  2  4  1  0  0  0
  2  5  1  0  0  0
  5  6  1  0  0  0
  6  7  2  0  0  0
  6  9  1  0  0  0
  7  8  1  0  0  0
  7 26  1  0  0  0
  8 11  2  0  0  0
  8 27  1  0  0  0
  9 10  2  0  0  0
  9 28  1  0  0  0
 10 11  1  0  0  0
 10 29  1  0  0  0
 11 12  1  0  0  0
 12 13  1  0  0  0
 12 30  1  0  0  0
 13 14  2  0  0  0
 13 15  1  0  0  0
 15 16  1  0  0  0
 15 31  1  0  0  0
 16 17  1  0  0  0
 16 21  1  0  0  0
 16 32  1  0  0  0
 17 18  1  0  0  0
 17 33  1  0  0  0
 17 34  1  0  0  0
 18 19  1  0  0  0
 18 35  1  0  0  0
 18 36  1  0  0  0
 19 20  1  0  0  0
 19 22  1  0  0  0
 20 21  1  0  0  0
 20 37  1  0  0  0
 20 38  1  0  0  0
 21 39  1  0  0  0
 21 40  1  0  0  0
 22 23  2  0  0  0
 22 24  1  0  0  0
 24 25  1  0  0  0
 24 41  1  0  0  0
 24 42  1  0  0  0
 25 43  1  0  0  0
 25 44  1  0  0  0
 25 45  1  0  0  0
M  END
> <s_m_source_file>
../4od0_ligand.sdf

> <i_m_source_file_index>
1

> <s_epik_input>
RkMoRikoRilPYzFbY0hdW2NIXWMoW2NIXVtjSF0xKVtOSF1DKD1PKVtOSF1bQ0hdMltDSDJdW0NIMl1OKFtDSDJdW0NIMl0yKUMoPU8pW0NIMl1bQ0gzXQ==

> <s_epik_cmdline>
J2VwaWtfYXBwJywgJy1pbWFlJywgJ2xpZ2FuZF9wcm8ubWFlJywgJy1vbWFlJywgJ2xpZ2FuZF9wcmVwLm1hZScsICctbXMnLCAnMScsICctcGgnLCAnNycsICctcGh0JywgJzAuNScsICctbnQn

> <r_lp_tautomer_probability>
1

> <r_epik_Ionization_Penalty>
  0.0000

> <r_epik_Ionization_Penalty_Charging>
  0.0000

> <r_epik_Ionization_Penalty_Neutral>
  0.0000

> <r_epik_State_Penalty>
 -0.0000

> <r_epik_Charging_Adjusted_Penalty>
0

> <i_epik_Tot_Q>
0

> <i_epik_Tot_abs_Q>
0

$$$$
