4od7_ligand
                    3D
 Schrodinger Suite 2020-3.
105107  0  0  1  0            999 V2000
  -32.9330   34.6110    6.4390 C   0  0  0  0  0  0
  -34.1400   34.6950    6.3080 O   0  0  0  0  0  0
  -32.1240   35.8470    6.3550 C   0  0  0  0  0  0
  -32.1900   33.3200    6.7140 N   0  0  0  0  0  0
  -32.9940   32.0930    6.7430 C   0  0  2  0  0  0
  -33.9920   32.0320    7.9020 C   0  0  0  0  0  0
  -34.7970   31.1370    7.9580 O   0  0  0  0  0  0
  -31.9300   30.9970    6.7990 C   0  0  0  0  0  0
  -30.7040   31.6520    7.2820 C   0  0  0  0  0  0
  -30.7570   33.0410    6.8600 C   0  0  0  0  0  0
  -33.9550   33.0320    8.7800 N   0  0  0  0  0  0
  -34.9100   33.1910    9.9010 C   0  0  2  0  0  0
  -36.3370   33.4320    9.4700 C   0  0  0  0  0  0
  -37.2600   33.3550   10.3000 O   0  0  0  0  0  0
  -34.3900   34.3100   10.8320 C   0  0  0  0  0  0
  -33.9200   35.5870   10.1700 C   0  0  0  0  0  0
  -34.7130   36.6040    9.7800 C   0  0  0  0  0  0
  -32.5680   36.0080    9.8990 C   0  0  0  0  0  0
  -33.9660   37.6220    9.2700 N   0  3  0  0  0  0
  -32.6440   37.2890    9.3230 C   0  0  0  0  0  0
  -31.3080   35.4300   10.0770 C   0  0  0  0  0  0
  -31.5130   38.0160    8.9250 C   0  0  0  0  0  0
  -30.1710   36.1610    9.6660 C   0  0  0  0  0  0
  -30.2940   37.4350    9.1030 C   0  0  0  0  0  0
  -36.4950   33.6650    8.1660 N   0  0  0  0  0  0
  -37.7840   33.9060    7.5200 C   0  0  2  0  0  0
  -38.7740   32.7500    7.7400 C   0  0  0  0  0  0
  -39.9750   32.9620    7.8270 O   0  0  0  0  0  0
  -37.5720   34.1560    6.0170 C   0  0  0  0  0  0
  -38.2690   31.5270    7.7860 N   0  0  0  0  0  0
  -39.1070   30.3280    7.8200 C   0  0  2  0  0  0
  -38.6030   29.4030    8.9380 C   0  0  0  0  0  0
  -37.5410   29.5980    9.4940 O   0  0  0  0  0  0
  -39.0780   29.5560    6.5170 C   0  0  2  0  0  0
  -37.7390   29.1610    6.2920 O   0  0  0  0  0  0
  -39.5460   30.4010    5.3370 C   0  0  0  0  0  0
  -39.4220   28.4260    9.2620 N   0  0  0  0  0  0
  -39.1720   27.4980   10.3390 C   0  0  2  0  0  0
  -39.4740   26.0980    9.7960 C   0  0  0  0  0  0
  -39.8190   25.9320    8.6300 O   0  0  0  0  0  0
  -39.9980   27.8510   11.5720 C   0  0  0  0  0  0
  -41.7040   27.6660   11.3460 S   0  0  0  0  0  0
  -39.2310   25.0980   10.6250 N   0  0  0  0  0  0
  -39.5240   23.7170   10.2900 C   0  0  2  0  0  0
  -40.7640   23.3000   11.0160 C   0  0  0  0  0  0
  -40.8470   23.4530   12.2170 O   0  0  0  0  0  0
  -38.3630   22.7700   10.6230 C   0  0  0  0  0  0
  -37.1370   23.0400    9.8150 C   0  0  0  0  0  0
  -37.2300   23.0290    8.5850 O   0  5  0  0  0  0
  -36.0830   23.2840   10.3910 O   0  0  0  0  0  0
  -41.7660   22.8810   10.2630 N   0  0  0  0  0  0
  -43.0480   22.4960   10.8320 C   0  0  2  0  0  0
  -43.2730   21.0300   10.5960 C   0  0  0  0  0  0
  -42.5800   20.4140    9.8110 O   0  0  0  0  0  0
  -44.2030   23.2920   10.2320 C   0  0  0  0  0  0
  -44.0500   24.6700   10.4530 O   0  0  0  0  0  0
  -44.1560   20.4090   11.5320 N   0  0  0  0  0  0
  -32.7835   36.7038    6.1529 H   0  0  0  0  0  0
  -31.3894   35.7499    5.5420 H   0  0  0  0  0  0
  -31.5976   36.0061    7.3077 H   0  0  0  0  0  0
  -33.6439   32.0407    5.8571 H   0  0  0  0  0  0
  -32.2564   30.2040    7.4879 H   0  0  0  0  0  0
  -31.7865   30.5735    5.7940 H   0  0  0  0  0  0
  -30.6601   31.5846    8.3791 H   0  0  0  0  0  0
  -29.8257   31.1514    6.8485 H   0  0  0  0  0  0
  -30.2527   33.1982    5.8951 H   0  0  0  0  0  0
  -30.3266   33.7174    7.6132 H   0  0  0  0  0  0
  -33.1512   33.7685    8.6336 H   0  0  0  0  0  0
  -34.9490   32.2145   10.4059 H   0  0  0  0  0  0
  -35.1894   34.6116   11.5248 H   0  0  0  0  0  0
  -33.5282   33.9386   11.4059 H   0  0  0  0  0  0
  -35.8039   36.5275    9.8987 H   0  0  0  0  0  0
  -31.2051   34.4402   10.5217 H   0  0  0  0  0  0
  -31.6060   39.0106    8.4888 H   0  0  0  0  0  0
  -29.1802   35.7240    9.7900 H   0  0  0  0  0  0
  -29.3962   37.9741    8.8005 H   0  0  0  0  0  0
  -35.5713   33.6684    7.5687 H   0  0  0  0  0  0
  -38.1832   34.8021    8.0177 H   0  0  0  0  0  0
  -36.8621   34.9849    5.8798 H   0  0  0  0  0  0
  -38.5333   34.4152    5.5493 H   0  0  0  0  0  0
  -37.1691   33.2466    5.5473 H   0  0  0  0  0  0
  -37.1731   31.4326    7.7983 H   0  0  0  0  0  0
  -40.1294   30.6994    7.9833 H   0  0  0  0  0  0
  -39.7007   28.6523    6.5924 H   0  0  0  0  0  0
  -37.2164   28.5403    7.0348 H   0  0  0  0  0  0
  -40.5876   30.7146    5.5008 H   0  0  0  0  0  0
  -39.4827   29.8075    4.4130 H   0  0  0  0  0  0
  -38.9053   31.2905    5.2460 H   0  0  0  0  0  0
  -40.3390   28.3370    8.6611 H   0  0  0  0  0  0
  -38.1166   27.5891   10.6354 H   0  0  0  0  0  0
  -39.7066   27.1979   12.4078 H   0  0  0  0  0  0
  -39.8169   28.9007   11.8465 H   0  0  0  0  0  0
  -42.3958   27.8930   12.1705 H   0  0  0  0  0  0
  -38.7892   25.3452   11.6016 H   0  0  0  0  0  0
  -39.6909   23.7037    9.2028 H   0  0  0  0  0  0
  -38.0936   22.8791   11.6839 H   0  0  0  0  0  0
  -38.6690   21.7317   10.4273 H   0  0  0  0  0  0
  -41.6087   22.8279    9.1756 H   0  0  0  0  0  0
  -42.9730   22.7142   11.9075 H   0  0  0  0  0  0
  -44.2444   23.1167    9.1469 H   0  0  0  0  0  0
  -45.1487   22.9693   10.6919 H   0  0  0  0  0  0
  -44.8066   25.3746   10.0774 H   0  0  0  0  0  0
  -44.7561   21.0274   12.2157 H   0  0  0  0  0  0
  -44.2357   19.3125   11.5689 H   0  0  0  0  0  0
  -34.4583   38.5327    8.8981 H   0  0  0  0  0  0
  1  2  2  0  0  0
  1  3  1  0  0  0
  1  4  1  0  0  0
  3 58  1  0  0  0
  3 59  1  0  0  0
  3 60  1  0  0  0
  4  5  1  0  0  0
  4 10  1  0  0  0
  5  6  1  0  0  0
  5  8  1  0  0  0
  5 61  1  0  0  0
  6  7  2  0  0  0
  6 11  1  0  0  0
  8  9  1  0  0  0
  8 62  1  0  0  0
  8 63  1  0  0  0
  9 10  1  0  0  0
  9 64  1  0  0  0
  9 65  1  0  0  0
 10 66  1  0  0  0
 10 67  1  0  0  0
 11 12  1  0  0  0
 11 68  1  0  0  0
 12 13  1  0  0  0
 12 15  1  0  0  0
 12 69  1  0  0  0
 13 14  2  0  0  0
 13 25  1  0  0  0
 15 16  1  0  0  0
 15 70  1  0  0  0
 15 71  1  0  0  0
 16 17  2  0  0  0
 16 18  1  0  0  0
 17 19  1  0  0  0
 17 72  1  0  0  0
 18 20  2  0  0  0
 18 21  1  0  0  0
 19 20  1  0  0  0
 19105  1  0  0  0
 20 22  1  0  0  0
 21 23  2  0  0  0
 21 73  1  0  0  0
 22 24  2  0  0  0
 22 74  1  0  0  0
 23 24  1  0  0  0
 23 75  1  0  0  0
 24 76  1  0  0  0
 25 26  1  0  0  0
 25 77  1  0  0  0
 26 27  1  0  0  0
 26 29  1  0  0  0
 26 78  1  0  0  0
 27 28  2  0  0  0
 27 30  1  0  0  0
 29 79  1  0  0  0
 29 80  1  0  0  0
 29 81  1  0  0  0
 30 31  1  0  0  0
 30 82  1  0  0  0
 31 32  1  0  0  0
 31 34  1  0  0  0
 31 83  1  0  0  0
 32 33  2  0  0  0
 32 37  1  0  0  0
 34 35  1  0  0  0
 34 36  1  0  0  0
 34 84  1  0  0  0
 35 85  1  0  0  0
 36 86  1  0  0  0
 36 87  1  0  0  0
 36 88  1  0  0  0
 37 38  1  0  0  0
 37 89  1  0  0  0
 38 39  1  0  0  0
 38 41  1  0  0  0
 38 90  1  0  0  0
 39 40  2  0  0  0
 39 43  1  0  0  0
 41 42  1  0  0  0
 41 91  1  0  0  0
 41 92  1  0  0  0
 42 93  1  0  0  0
 43 44  1  0  0  0
 43 94  1  0  0  0
 44 45  1  0  0  0
 44 47  1  0  0  0
 44 95  1  0  0  0
 45 46  2  0  0  0
 45 51  1  0  0  0
 47 48  1  0  0  0
 47 96  1  0  0  0
 47 97  1  0  0  0
 48 49  1  0  0  0
 48 50  2  0  0  0
 51 52  1  0  0  0
 51 98  1  0  0  0
 52 53  1  0  0  0
 52 55  1  0  0  0
 52 99  1  0  0  0
 53 54  2  0  0  0
 53 57  1  0  0  0
 55 56  1  0  0  0
 55100  1  0  0  0
 55101  1  0  0  0
 56102  1  0  0  0
 57103  1  0  0  0
 57104  1  0  0  0
M  CHG  2  19   1  49  -1
M  END
> <s_m_source_file>
../4od7_ligand.sdf

> <i_m_source_file_index>
1

> <s_epik_input>
W2NIXTFbY0hdW2NIXVtjSF1jKGMxMilbbkhdW2NIXWMyW0NIMl1bQ0BIXShbTkhdQyg9TylbQ0BASF0oTjNDKD1PKVtDSDNdKVtDSDJdW0NIMl1bQ0gyXTMpQyg9TylbTkhdW0NAQEhdKFtDSDNdKUMoPU8pW05IXVtDQEBIXShbQ0BIXShbT0hdKVtDSDNdKUMoPU8pW05IXVtDQEBIXShbQ0gyXVtTSF0pQyg9TylbTkhdW0NAQEhdKFtDSDJdQyg9TylbT0hdKUMoPU8pW05IXVtDQEhdKEMoPU8pW05IMl0pW0NIMl1bT0hd

> <s_epik_cmdline>
J2VwaWtfYXBwJywgJy1pbWFlJywgJ2xpZ2FuZF9wcm8ubWFlJywgJy1vbWFlJywgJ2xpZ2FuZF9wcmVwLm1hZScsICctbXMnLCAnMScsICctcGgnLCAnNycsICctcGh0JywgJzAuNScsICctbnQn

> <r_epik_Ionization_Penalty>
  0.0113

> <r_epik_Ionization_Penalty_Charging>
  0.0012

> <r_epik_Ionization_Penalty_Neutral>
  0.0101

> <r_epik_State_Penalty>
  0.0077

> <r_epik_Charging_Adjusted_Penalty>
0.00891065526841265

> <i_epik_Tot_Q>
0

> <i_epik_Tot_abs_Q>
2

$$$$
