4od9_ligand
                    3D
 Schrodinger Suite 2020-3.
 73 75  0  0  1  0            999 V2000
   -9.4870   11.8840  -38.2550 C   0  0  0  0  0  0
   -8.9030   12.9180  -38.9920 C   0  0  0  0  0  0
   -8.0060   13.8010  -38.3880 C   0  0  0  0  0  0
   -5.3180   14.2750  -36.7360 C   0  0  1  0  0  0
   -4.8180   12.9450  -36.1860 C   0  0  0  0  0  0
   -8.3100   12.6160  -36.2890 C   0  0  0  0  0  0
   -3.6920   10.7370  -36.6550 C   0  0  0  0  0  0
   -4.6360    9.8460  -35.8930 C   0  0  0  0  0  0
   -4.1650    9.1450  -34.7810 C   0  0  0  0  0  0
   -5.0190    8.2860  -34.0630 C   0  0  0  0  0  0
    0.5060   16.8510  -31.4510 C   0  0  0  0  0  0
    1.5370   16.6820  -32.3870 C   0  0  0  0  0  0
    0.1090   17.5840  -34.1100 C   0  0  0  0  0  0
    2.4140   16.8950  -34.5650 O   0  0  0  0  0  0
    3.0800   15.8400  -30.6900 C   0  0  0  0  0  0
   -2.2740   18.2220  -33.6320 C   0  0  0  0  0  0
   -2.9920   17.1160  -34.3670 C   0  0  0  0  0  0
   -6.8200    8.8870  -35.5640 C   0  0  0  0  0  0
   -6.3630    8.1690  -34.4480 C   0  0  0  0  0  0
   -7.7440   13.6640  -37.0260 C   0  0  0  0  0  0
   -9.1940   11.7300  -36.9040 C   0  0  0  0  0  0
   -6.7780   14.5910  -36.3300 C   0  0  0  0  0  0
   -4.4930   15.2380  -36.0170 N   0  0  0  0  0  0
   -4.8150   12.7710  -34.9710 O   0  0  0  0  0  0
   -4.2940   12.0340  -37.0460 N   0  0  0  0  0  0
   -5.9500    9.6820  -36.3130 C   0  0  0  0  0  0
   -4.2500   16.5480  -36.3980 C   0  0  0  0  0  0
   -4.6140   17.0140  -37.5580 N   0  0  0  0  0  0
   -3.5500   17.3960  -35.5630 N   0  3  0  0  0  0
    1.3450   17.0560  -33.7190 C   0  0  0  0  0  0
   -0.9240   17.7060  -33.1890 C   0  0  0  0  0  0
   -0.7300   17.3500  -31.8510 C   0  0  0  0  0  0
    2.7880   16.2340  -32.0480 O   0  0  0  0  0  0
    2.3560   17.1290  -35.9750 C   0  0  0  0  0  0
   -3.0530   16.0150  -33.8770 O   0  0  0  0  0  0
   -7.1940    7.3360  -33.7360 O   0  0  0  0  0  0
   -4.5910    7.5970  -32.9640 O   0  0  0  0  0  0
   -3.1930    7.3090  -32.7850 C   0  0  0  0  0  0
   -8.5690    7.1720  -34.1300 C   0  0  0  0  0  0
  -10.1763   11.1941  -38.7419 H   0  0  0  0  0  0
   -9.1499   13.0360  -40.0471 H   0  0  0  0  0  0
   -7.5195   14.5831  -38.9709 H   0  0  0  0  0  0
   -5.2297   14.3084  -37.8319 H   0  0  0  0  0  0
   -8.0596   12.4930  -35.2353 H   0  0  0  0  0  0
   -2.8115   10.9555  -36.0330 H   0  0  0  0  0  0
   -3.3727   10.2295  -37.5772 H   0  0  0  0  0  0
   -3.1282    9.2637  -34.4663 H   0  0  0  0  0  0
    0.6736   16.5904  -30.4060 H   0  0  0  0  0  0
   -0.0437   17.9009  -35.1417 H   0  0  0  0  0  0
    4.1280   15.5132  -30.6203 H   0  0  0  0  0  0
    2.4175   15.0119  -30.3980 H   0  0  0  0  0  0
    2.9169   16.6948  -30.0171 H   0  0  0  0  0  0
   -2.1447   19.0842  -34.3027 H   0  0  0  0  0  0
   -2.8662   18.5247  -32.7558 H   0  0  0  0  0  0
   -7.8698    8.8231  -35.8504 H   0  0  0  0  0  0
   -9.6515   10.9236  -36.3308 H   0  0  0  0  0  0
   -6.8911   14.4676  -35.2428 H   0  0  0  0  0  0
   -7.0200   15.6273  -36.6085 H   0  0  0  0  0  0
   -3.9962   14.9455  -35.0802 H   0  0  0  0  0  0
   -4.3405   12.3213  -38.1068 H   0  0  0  0  0  0
   -6.2999   10.1711  -37.2221 H   0  0  0  0  0  0
   -4.3618   18.0471  -37.8395 H   0  0  0  0  0  0
   -1.5385   17.4621  -31.1286 H   0  0  0  0  0  0
    3.3415   16.9289  -36.4207 H   0  0  0  0  0  0
    2.0749   18.1760  -36.1617 H   0  0  0  0  0  0
    1.6069   16.4621  -36.4268 H   0  0  0  0  0  0
   -3.0507    6.7509  -31.8478 H   0  0  0  0  0  0
   -2.6273    8.2513  -32.7401 H   0  0  0  0  0  0
   -2.8320    6.7045  -33.6302 H   0  0  0  0  0  0
   -9.0663    6.4718  -33.4427 H   0  0  0  0  0  0
   -8.6118    6.7732  -35.1543 H   0  0  0  0  0  0
   -9.0794    8.1458  -34.0940 H   0  0  0  0  0  0
   -3.4729   18.4102  -35.9819 H   0  0  0  0  0  0
  1  2  2  0  0  0
  1 21  1  0  0  0
  1 40  1  0  0  0
  2  3  1  0  0  0
  2 41  1  0  0  0
  3 20  2  0  0  0
  3 42  1  0  0  0
  4  5  1  0  0  0
  4 22  1  0  0  0
  4 23  1  0  0  0
  4 43  1  0  0  0
  5 24  2  0  0  0
  5 25  1  0  0  0
  6 20  1  0  0  0
  6 21  2  0  0  0
  6 44  1  0  0  0
  7  8  1  0  0  0
  7 25  1  0  0  0
  7 45  1  0  0  0
  7 46  1  0  0  0
  8  9  2  0  0  0
  8 26  1  0  0  0
  9 10  1  0  0  0
  9 47  1  0  0  0
 10 19  2  0  0  0
 10 37  1  0  0  0
 11 12  2  0  0  0
 11 32  1  0  0  0
 11 48  1  0  0  0
 12 30  1  0  0  0
 12 33  1  0  0  0
 13 30  2  0  0  0
 13 31  1  0  0  0
 13 49  1  0  0  0
 14 30  1  0  0  0
 14 34  1  0  0  0
 15 33  1  0  0  0
 15 50  1  0  0  0
 15 51  1  0  0  0
 15 52  1  0  0  0
 16 17  1  0  0  0
 16 31  1  0  0  0
 16 53  1  0  0  0
 16 54  1  0  0  0
 17 29  1  0  0  0
 17 35  2  0  0  0
 18 19  1  0  0  0
 18 26  2  0  0  0
 18 55  1  0  0  0
 19 36  1  0  0  0
 20 22  1  0  0  0
 21 56  1  0  0  0
 22 57  1  0  0  0
 22 58  1  0  0  0
 23 27  1  0  0  0
 23 59  1  0  0  0
 25 60  1  0  0  0
 26 61  1  0  0  0
 27 28  2  0  0  0
 27 29  1  0  0  0
 28 62  1  0  0  0
 29 73  1  0  0  0
 31 32  2  0  0  0
 32 63  1  0  0  0
 34 64  1  0  0  0
 34 65  1  0  0  0
 34 66  1  0  0  0
 36 39  1  0  0  0
 37 38  1  0  0  0
 38 67  1  0  0  0
 38 68  1  0  0  0
 38 69  1  0  0  0
 39 70  1  0  0  0
 39 71  1  0  0  0
 39 72  1  0  0  0
M  CHG  1  29   1
M  END
> <s_m_source_file>
../4od9_ligand.sdf

> <i_m_source_file_index>
1

> <s_epik_input>
W2NIXTFbY0hdYyhPW0NIM10pYyhPW0NIM10pW2NIXWMxW0NIMl1bTkhdQyg9TylbQ0BASF0oW0NIMl1jMltjSF1bY0hdW2NIXVtjSF1bY0hdMilbTkhdL0MoPU4vW0hdKVtOSF1DKD1PKVtDSDJdYyhbY0hdYzNPW0NIM10pW2NIXVtjSF1jM09bQ0gzXQ==

> <s_epik_cmdline>
J2VwaWtfYXBwJywgJy1pbWFlJywgJ2xpZ2FuZF9wcm8ubWFlJywgJy1vbWFlJywgJ2xpZ2FuZF9wcmVwLm1hZScsICctbXMnLCAnMScsICctcGgnLCAnNycsICctcGh0JywgJzAuNScsICctbnQn

> <r_lp_tautomer_probability>
1

> <r_epik_Ionization_Penalty>
  0.0000

> <r_epik_Ionization_Penalty_Charging>
  0.0000

> <r_epik_Ionization_Penalty_Neutral>
  0.0000

> <r_epik_State_Penalty>
 -0.0000

> <r_epik_Charging_Adjusted_Penalty>
5.45713855191785e-06

> <i_epik_Tot_Q>
1

> <i_epik_Tot_abs_Q>
1

> <s_epik_Chemistry_Notes>
This compound has an imine and may undergo hydrolysis.

$$$$
