4odf_ligand
                    3D
 Schrodinger Suite 2020-3.
 79 83  0  0  1  0            999 V2000
   11.8820  -22.8840   -2.4840 C   0  0  0  0  0  0
   12.8710  -22.1990   -1.7960 C   0  0  0  0  0  0
   14.4960  -22.2540   -2.3770 Cl  0  0  0  0  0  0
   12.5610  -21.4830   -0.6470 C   0  0  0  0  0  0
   11.2490  -21.4460   -0.1910 C   0  0  0  0  0  0
   10.2580  -22.1310   -0.8860 C   0  0  0  0  0  0
   10.5740  -22.8450   -2.0340 C   0  0  0  0  0  0
    9.4830  -23.5880   -2.7800 C   0  0  1  0  0  0
    8.7140  -24.2390   -1.8520 O   0  0  0  0  0  0
    7.7640  -25.0920   -2.4530 C   0  0  2  0  0  0
    6.8470  -25.4510   -1.2810 C   0  0  0  0  0  0
    7.6600  -26.0360   -0.1260 C   0  0  0  0  0  0
    8.0840  -25.1600    0.8690 C   0  0  0  0  0  0
    8.8300  -25.6370    1.9310 C   0  0  0  0  0  0
    9.1190  -26.9900    1.9610 C   0  0  0  0  0  0
    9.9390  -27.5490    3.1110 C   0  0  0  0  0  0
   10.1980  -28.7700    3.0920 O   0  0  0  0  0  0
   10.3250  -26.7490    3.9890 O   0  5  0  0  0  0
    8.6710  -27.8230    0.9430 C   0  0  0  0  0  0
    7.9630  -27.3410   -0.0650 N   0  0  0  0  0  0
    8.4090  -26.3050   -3.1270 C   0  0  0  0  0  0
    6.8960  -24.2950   -3.4240 C   0  0  0  0  0  0
    5.8360  -24.7990   -3.7990 O   0  0  0  0  0  0
    7.3060  -23.0010   -3.8240 N   0  0  0  0  0  0
    6.4330  -22.1390   -4.6480 C   0  0  1  0  0  0
    6.0110  -22.7140   -6.0040 C   0  0  0  0  0  0
    6.2550  -21.7710   -7.1770 C   0  0  0  0  0  0
    7.1290  -23.0150   -6.9910 C   0  0  0  0  0  0
    5.1880  -21.8040   -3.8250 C   0  0  0  0  0  0
    5.4260  -20.8770   -2.2690 S   0  0  0  0  0  0
    5.8060  -19.4560   -2.5810 O   0  0  0  0  0  0
    6.4730  -21.4940   -1.3940 O   0  0  0  0  0  0
    3.8160  -20.9530   -1.4140 C   0  0  0  0  0  0
    3.8950  -20.1560   -0.1190 C   0  0  0  0  0  0
    3.5130  -22.4260   -1.1310 C   0  0  0  0  0  0
    2.7500  -20.3740   -2.3360 C   0  0  0  0  0  0
    8.5710  -22.4700   -3.2770 C   0  0  2  0  0  0
    9.3710  -21.5940   -4.2350 C   0  0  0  0  0  0
    9.9650  -22.2000   -5.3340 C   0  0  0  0  0  0
   10.7170  -21.4570   -6.2280 C   0  0  0  0  0  0
   10.8890  -20.1020   -6.0000 C   0  0  0  0  0  0
   11.8400  -19.1840   -7.1110 Cl  0  0  0  0  0  0
   10.3100  -19.4920   -4.8900 C   0  0  0  0  0  0
    9.5530  -20.2410   -3.9970 C   0  0  0  0  0  0
   12.1342  -23.4530   -3.3788 H   0  0  0  0  0  0
   13.3438  -20.9522   -0.1051 H   0  0  0  0  0  0
   10.9975  -20.8825    0.7075 H   0  0  0  0  0  0
    9.2288  -22.1072   -0.5278 H   0  0  0  0  0  0
    9.8459  -24.3323   -3.5040 H   0  0  0  0  0  0
    6.3281  -24.5464   -0.9310 H   0  0  0  0  0  0
    6.1061  -26.1947   -1.6096 H   0  0  0  0  0  0
    7.8289  -24.1018    0.8113 H   0  0  0  0  0  0
    9.1790  -24.9693    2.7187 H   0  0  0  0  0  0
    8.9059  -28.8869    0.9755 H   0  0  0  0  0  0
    9.0231  -26.8484   -2.3938 H   0  0  0  0  0  0
    9.0443  -25.9674   -3.9591 H   0  0  0  0  0  0
    7.6231  -26.9712   -3.5126 H   0  0  0  0  0  0
    7.0618  -21.2663   -4.8784 H   0  0  0  0  0  0
    5.1594  -23.2949   -5.6202 H   0  0  0  0  0  0
    5.3507  -21.7207   -7.8012 H   0  0  0  0  0  0
    6.4943  -20.7670   -6.7967 H   0  0  0  0  0  0
    8.0915  -23.0380   -6.4589 H   0  0  0  0  0  0
    6.9479  -23.9917   -7.4635 H   0  0  0  0  0  0
    4.5050  -21.1875   -4.4278 H   0  0  0  0  0  0
    4.6802  -22.7350   -3.5327 H   0  0  0  0  0  0
    4.6690  -20.5893    0.5316 H   0  0  0  0  0  0
    2.9225  -20.1923    0.3938 H   0  0  0  0  0  0
    4.1506  -19.1106   -0.3468 H   0  0  0  0  0  0
    4.2857  -22.8379   -0.4653 H   0  0  0  0  0  0
    3.5068  -22.9874   -2.0770 H   0  0  0  0  0  0
    2.5287  -22.5115   -0.6474 H   0  0  0  0  0  0
    2.9734  -19.3156   -2.5355 H   0  0  0  0  0  0
    1.7645  -20.4563   -1.8542 H   0  0  0  0  0  0
    2.7426  -20.9322   -3.2838 H   0  0  0  0  0  0
    8.2059  -21.8386   -2.4536 H   0  0  0  0  0  0
    9.8381  -23.2706   -5.4944 H   0  0  0  0  0  0
   11.1675  -21.9321   -7.0994 H   0  0  0  0  0  0
   10.4509  -18.4244   -4.7212 H   0  0  0  0  0  0
    9.1080  -19.7701   -3.1204 H   0  0  0  0  0  0
  1  2  2  0  0  0
  1  7  1  0  0  0
  1 45  1  0  0  0
  2  3  1  0  0  0
  2  4  1  0  0  0
  4  5  2  0  0  0
  4 46  1  0  0  0
  5  6  1  0  0  0
  5 47  1  0  0  0
  6  7  2  0  0  0
  6 48  1  0  0  0
  7  8  1  0  0  0
  8  9  1  0  0  0
  8 37  1  0  0  0
  8 49  1  0  0  0
  9 10  1  0  0  0
 10 11  1  0  0  0
 10 21  1  0  0  0
 10 22  1  0  0  0
 11 12  1  0  0  0
 11 50  1  0  0  0
 11 51  1  0  0  0
 12 13  2  0  0  0
 12 20  1  0  0  0
 13 14  1  0  0  0
 13 52  1  0  0  0
 14 15  2  0  0  0
 14 53  1  0  0  0
 15 16  1  0  0  0
 15 19  1  0  0  0
 16 17  2  0  0  0
 16 18  1  0  0  0
 19 20  2  0  0  0
 19 54  1  0  0  0
 21 55  1  0  0  0
 21 56  1  0  0  0
 21 57  1  0  0  0
 22 23  2  0  0  0
 22 24  1  0  0  0
 24 25  1  0  0  0
 24 37  1  0  0  0
 25 26  1  0  0  0
 25 29  1  0  0  0
 25 58  1  0  0  0
 26 27  1  0  0  0
 26 28  1  0  0  0
 26 59  1  0  0  0
 27 28  1  0  0  0
 27 60  1  0  0  0
 27 61  1  0  0  0
 28 62  1  0  0  0
 28 63  1  0  0  0
 29 30  1  0  0  0
 29 64  1  0  0  0
 29 65  1  0  0  0
 30 31  2  0  0  0
 30 32  2  0  0  0
 30 33  1  0  0  0
 33 34  1  0  0  0
 33 35  1  0  0  0
 33 36  1  0  0  0
 34 66  1  0  0  0
 34 67  1  0  0  0
 34 68  1  0  0  0
 35 69  1  0  0  0
 35 70  1  0  0  0
 35 71  1  0  0  0
 36 72  1  0  0  0
 36 73  1  0  0  0
 36 74  1  0  0  0
 37 38  1  0  0  0
 37 75  1  0  0  0
 38 39  2  0  0  0
 38 44  1  0  0  0
 39 40  1  0  0  0
 39 76  1  0  0  0
 40 41  2  0  0  0
 40 77  1  0  0  0
 41 42  1  0  0  0
 41 43  1  0  0  0
 43 44  2  0  0  0
 43 78  1  0  0  0
 44 79  1  0  0  0
M  CHG  1  18  -1
M  END
> <s_m_source_file>
../4odf_ligand.sdf

> <i_m_source_file_index>
1

> <s_epik_input>
W0NIM11DKFtDSDNdKShbQ0gzXSlTKD1PKSg9TylbQ0gyXVtDQEhdKFtDSF0xW0NIMl1bQ0gyXTEpTihDMj1PKVtDQEhdKGMzW2NIXVtjSF1jKENsKVtjSF1bY0hdMylbQ0BASF0oYyhbY0hdYzRDbClbY0hdW2NIXVtjSF00KU9bQ0BAXTIoW0NIM10pW0NIMl1jNVtjSF1bY0hdYyhbY0hdbjUpQyg9TylbT0hd

> <s_epik_cmdline>
J2VwaWtfYXBwJywgJy1pbWFlJywgJ2xpZ2FuZF9wcm8ubWFlJywgJy1vbWFlJywgJ2xpZ2FuZF9wcmVwLm1hZScsICctbXMnLCAnMScsICctcGgnLCAnNycsICctcGh0JywgJzAuNScsICctbnQn

> <r_epik_Ionization_Penalty>
  0.0373

> <r_epik_Ionization_Penalty_Charging>
  0.0002

> <r_epik_Ionization_Penalty_Neutral>
  0.0371

> <r_epik_State_Penalty>
  0.0310

> <r_epik_Charging_Adjusted_Penalty>
0.0312745975135779

> <i_epik_Tot_Q>
-1

> <i_epik_Tot_abs_Q>
1

$$$$
