4oee_ligand
                    3D
 Schrodinger Suite 2020-3.
 56 57  0  0  1  0            999 V2000
  -14.1330   -7.3920   -3.1830 N   0  0  3  0  0  0
  -12.7420   -5.4580   -3.7380 C   0  0  2  0  0  0
  -15.0800   -7.2520   -1.9730 S   0  0  0  0  0  0
  -13.9630   -6.2930   -4.1520 C   0  0  1  0  0  0
  -13.7600   -6.8930   -5.5470 C   0  0  1  0  0  0
  -14.9840   -7.4980   -5.9860 O   0  0  0  0  0  0
  -13.3580   -5.7980   -6.5410 C   0  0  2  0  0  0
  -12.9600   -6.3950   -7.7840 O   0  0  0  0  0  0
  -12.2050   -4.9580   -6.0010 C   0  0  2  0  0  0
  -12.5480   -4.4300   -4.7200 O   0  0  0  0  0  0
  -11.8520   -3.8020   -6.9370 C   0  0  0  0  0  0
  -12.9510   -2.8880   -6.9750 O   0  0  0  0  0  0
  -16.4900   -9.2930   -6.4390 O   0  5  0  0  0  0
  -15.0510   -8.9610   -6.4380 S   0  0  0  0  0  0
  -16.4170   -6.9010   -2.4790 O   0  0  0  0  0  0
  -14.4670   -9.0480   -7.7870 O   0  0  0  0  0  0
  -15.0820   -8.5460   -1.2650 O   0  5  0  0  0  0
  -14.3020   -9.7780   -5.4760 O   0  0  0  0  0  0
  -14.5760   -6.2060   -1.0680 O   0  0  0  0  0  0
  -11.4800  -10.2560   -1.8970 S   0  0  0  0  0  0
   -8.9150   -8.0890   -2.0310 C   0  0  1  0  0  0
   -7.9380   -7.6040   -1.1160 O   0  0  0  0  0  0
  -10.3190   -7.9980   -1.4420 C   0  0  2  0  0  0
  -11.2000   -8.7880   -2.2470 O   0  0  0  0  0  0
  -10.8590   -6.5730   -1.3700 C   0  0  1  0  0  0
  -10.2470   -5.9010   -0.2600 O   0  0  0  0  0  0
  -10.6210   -5.7900   -2.6590 C   0  0  2  0  0  0
  -11.5610   -6.2560   -3.6400 O   0  0  0  0  0  0
   -9.1890   -5.9830   -3.1520 C   0  0  1  0  0  0
   -8.8670   -7.3670   -3.2600 O   0  0  0  0  0  0
   -9.0250   -5.4280   -4.5360 C   0  0  0  0  0  0
   -6.5410   -7.7280   -1.4770 C   0  0  0  0  0  0
   -9.0050   -4.1850   -4.6680 O   0  0  0  0  0  0
   -8.9080   -6.2310   -5.4930 O   0  5  0  0  0  0
  -12.3320  -10.7620   -2.9760 O   0  0  0  0  0  0
  -12.1220  -10.2940   -0.5690 O   0  5  0  0  0  0
  -10.1940  -10.9720   -1.8570 O   0  0  0  0  0  0
  -13.7131   -8.3855   -3.3989 H   0  0  0  0  0  0
  -12.8596   -4.9960   -2.7467 H   0  0  0  0  0  0
  -14.8688   -5.6689   -4.1433 H   0  0  0  0  0  0
  -13.0067   -7.6941   -5.5191 H   0  0  0  0  0  0
  -14.2239   -5.1560   -6.7603 H   0  0  0  0  0  0
  -13.6603   -7.0420   -8.3325 H   0  0  0  0  0  0
  -11.3283   -5.6053   -5.8514 H   0  0  0  0  0  0
  -10.9534   -3.2892   -6.5636 H   0  0  0  0  0  0
  -11.6578   -4.1937   -7.9464 H   0  0  0  0  0  0
  -12.8922   -1.9827   -7.5971 H   0  0  0  0  0  0
   -8.6129   -9.1237   -2.2502 H   0  0  0  0  0  0
  -10.3059   -8.4166   -0.4248 H   0  0  0  0  0  0
  -11.9412   -6.5964   -1.1746 H   0  0  0  0  0  0
  -10.3208   -6.3290    0.7506 H   0  0  0  0  0  0
  -10.8103   -4.7152   -2.5211 H   0  0  0  0  0  0
   -8.5025   -5.5214   -2.4270 H   0  0  0  0  0  0
   -5.9162   -7.3109   -0.6734 H   0  0  0  0  0  0
   -6.3533   -7.1775   -2.4107 H   0  0  0  0  0  0
   -6.2924   -8.7898   -1.6211 H   0  0  0  0  0  0
  1  3  1  0  0  0
  1  4  1  0  0  0
  1 38  1  0  0  0
  2  4  1  0  0  0
  2 10  1  0  0  0
  2 28  1  0  0  0
  2 39  1  0  0  0
  3 15  2  0  0  0
  3 17  1  0  0  0
  3 19  2  0  0  0
  4  5  1  0  0  0
  4 40  1  0  0  0
  5  6  1  0  0  0
  5  7  1  0  0  0
  5 41  1  0  0  0
  6 14  1  0  0  0
  7  8  1  0  0  0
  7  9  1  0  0  0
  7 42  1  0  0  0
  8 43  1  0  0  0
  9 10  1  0  0  0
  9 11  1  0  0  0
  9 44  1  0  0  0
 11 12  1  0  0  0
 11 45  1  0  0  0
 11 46  1  0  0  0
 12 47  1  0  0  0
 13 14  1  0  0  0
 14 16  2  0  0  0
 14 18  2  0  0  0
 20 24  1  0  0  0
 20 35  2  0  0  0
 20 36  1  0  0  0
 20 37  2  0  0  0
 21 22  1  0  0  0
 21 23  1  0  0  0
 21 30  1  0  0  0
 21 48  1  0  0  0
 22 32  1  0  0  0
 23 24  1  0  0  0
 23 25  1  0  0  0
 23 49  1  0  0  0
 25 26  1  0  0  0
 25 27  1  0  0  0
 25 50  1  0  0  0
 26 51  1  0  0  0
 27 28  1  0  0  0
 27 29  1  0  0  0
 27 52  1  0  0  0
 29 30  1  0  0  0
 29 31  1  0  0  0
 29 53  1  0  0  0
 31 33  2  0  0  0
 31 34  1  0  0  0
 32 54  1  0  0  0
 32 55  1  0  0  0
 32 56  1  0  0  0
M  CHG  4  13  -1  17  -1  34  -1  36  -1
M  END
> <s_m_source_file>
../4oee_ligand.sdf

> <i_m_source_file_index>
1

> <s_epik_input>
W09IXVtDSDJdW0NAQEhdKE8xKVtDQEBIXShbT0hdKVtDQEhdKE9TKD1PKSg9TylbT0hdKVtDQEBIXShbTkhdUyg9TykoPU8pW09IXSlbQ0BIXTFPW0NASF0oW0NAQEhdKE8yKUMoPU8pW09IXSlbQ0BIXShbT0hdKVtDQEhdKFtDQEBIXTJPW0NIM10pT1MoPU8pKD1PKVtPSF0=

> <s_epik_cmdline>
J2VwaWtfYXBwJywgJy1pbWFlJywgJ2xpZ2FuZF9wcm8ubWFlJywgJy1vbWFlJywgJ2xpZ2FuZF9wcmVwLm1hZScsICctbXMnLCAnMScsICctcGgnLCAnNycsICctcGh0JywgJzAuNScsICctbnQn

> <r_epik_Ionization_Penalty>
  0.0359

> <r_epik_Ionization_Penalty_Charging>
  0.0000

> <r_epik_Ionization_Penalty_Neutral>
  0.0358

> <r_epik_State_Penalty>
  0.0299

> <r_epik_Charging_Adjusted_Penalty>
0.0298975012622104

> <i_epik_Tot_Q>
-4

> <i_epik_Tot_abs_Q>
4

> <s_epik_Chemistry_Notes>
This compound contains an acetal/aminal-like group ( X-CH(R)-Y where X, Y are N, S, or O) that may be acid/base labile, releasing an aldehyde.

$$$$
