4oef_ligand
                    3D
 Schrodinger Suite 2020-3.
 56 57  0  0  1  0            999 V2000
   13.9380  -19.3750   21.5260 C   0  0  2  0  0  0
   14.5710  -19.5830   20.1490 C   0  0  1  0  0  0
   14.5170  -21.0570   19.7590 C   0  0  2  0  0  0
   15.1650  -21.8860   20.8560 C   0  0  1  0  0  0
   14.4740  -21.5800   22.1780 C   0  0  1  0  0  0
   15.1430  -22.3660   23.2950 C   0  0  0  0  0  0
   13.8950  -18.7620   19.1540 N   0  0  3  0  0  0
   15.2020  -21.2330   18.5420 O   0  0  0  0  0  0
   15.0750  -23.2710   20.5550 O   0  0  0  0  0  0
   14.5820  -20.2020   22.4830 O   0  0  0  0  0  0
   16.4880  -21.9460   23.2900 O   0  0  0  0  0  0
   14.3950  -17.2510   18.9520 S   0  0  0  0  0  0
   13.6500  -16.6860   17.8600 O   0  0  0  0  0  0
   15.8210  -17.3520   18.6600 O   0  5  0  0  0  0
   14.1520  -16.5450   20.1980 O   0  0  0  0  0  0
   17.4490  -22.4740   24.3870 S   0  0  0  0  0  0
   18.6700  -21.6840   24.3180 O   0  0  0  0  0  0
   17.7180  -23.8510   23.9850 O   0  0  0  0  0  0
   16.7370  -22.3130   25.6540 O   0  5  0  0  0  0
   10.2310  -18.4640   17.7990 S   0  0  0  0  0  0
    9.1460  -19.4360   20.7900 C   0  0  1  0  0  0
    7.8540  -18.9200   21.1700 O   0  0  0  0  0  0
   10.1030  -18.3280   20.3270 C   0  0  2  0  0  0
   10.7750  -18.8440   19.1890 O   0  0  0  0  0  0
   11.1250  -17.8630   21.3550 C   0  0  1  0  0  0
   10.4470  -16.9500   22.2210 O   0  0  0  0  0  0
   11.7290  -19.0080   22.1720 C   0  0  2  0  0  0
   12.5850  -19.8200   21.3440 O   0  0  0  0  0  0
   10.5810  -19.8130   22.7450 C   0  0  1  0  0  0
    9.7720  -20.3540   21.6990 O   0  0  0  0  0  0
   11.0610  -20.9860   23.5430 C   0  0  0  0  0  0
    7.4550  -18.8520   22.5380 C   0  0  0  0  0  0
   11.8500  -20.7870   24.4730 O   0  0  0  0  0  0
   10.6220  -22.1100   23.2260 O   0  5  0  0  0  0
   11.0640  -19.1490   16.7980 O   0  0  0  0  0  0
   10.3170  -17.0000   17.6810 O   0  0  0  0  0  0
    8.8230  -18.9090   17.6740 O   0  5  0  0  0  0
   13.9903  -18.3572   21.9400 H   0  0  0  0  0  0
   15.6167  -19.2416   20.1551 H   0  0  0  0  0  0
   13.4922  -21.4035   19.5595 H   0  0  0  0  0  0
   16.2471  -21.6967   20.9135 H   0  0  0  0  0  0
   13.3967  -21.7899   22.1046 H   0  0  0  0  0  0
   14.6513  -22.1347   24.2514 H   0  0  0  0  0  0
   15.0556  -23.4430   23.0888 H   0  0  0  0  0  0
   13.1821  -19.2219   18.4538 H   0  0  0  0  0  0
   14.8642  -20.7033   17.6391 H   0  0  0  0  0  0
   15.5245  -23.6633   19.6309 H   0  0  0  0  0  0
    8.8614  -20.1264   19.9823 H   0  0  0  0  0  0
    9.5313  -17.4290   20.0532 H   0  0  0  0  0  0
   11.9538  -17.3359   20.8597 H   0  0  0  0  0  0
    9.9504  -16.0617   21.8035 H   0  0  0  0  0  0
   12.3973  -18.6559   22.9716 H   0  0  0  0  0  0
    9.9696  -19.1344   23.3579 H   0  0  0  0  0  0
    6.4412  -18.4301   22.6037 H   0  0  0  0  0  0
    8.1557  -18.2108   23.0928 H   0  0  0  0  0  0
    7.4605  -19.8627   22.9722 H   0  0  0  0  0  0
  1  2  1  0  0  0
  1 10  1  0  0  0
  1 28  1  0  0  0
  1 38  1  0  0  0
  2  3  1  0  0  0
  2  7  1  0  0  0
  2 39  1  0  0  0
  3  4  1  0  0  0
  3  8  1  0  0  0
  3 40  1  0  0  0
  4  5  1  0  0  0
  4  9  1  0  0  0
  4 41  1  0  0  0
  5  6  1  0  0  0
  5 10  1  0  0  0
  5 42  1  0  0  0
  6 11  1  0  0  0
  6 43  1  0  0  0
  6 44  1  0  0  0
  7 12  1  0  0  0
  7 45  1  0  0  0
  8 46  1  0  0  0
  9 47  1  0  0  0
 11 16  1  0  0  0
 12 13  2  0  0  0
 12 14  1  0  0  0
 12 15  2  0  0  0
 16 17  2  0  0  0
 16 18  2  0  0  0
 16 19  1  0  0  0
 20 24  1  0  0  0
 20 35  2  0  0  0
 20 36  2  0  0  0
 20 37  1  0  0  0
 21 22  1  0  0  0
 21 23  1  0  0  0
 21 30  1  0  0  0
 21 48  1  0  0  0
 22 32  1  0  0  0
 23 24  1  0  0  0
 23 25  1  0  0  0
 23 49  1  0  0  0
 25 26  1  0  0  0
 25 27  1  0  0  0
 25 50  1  0  0  0
 26 51  1  0  0  0
 27 28  1  0  0  0
 27 29  1  0  0  0
 27 52  1  0  0  0
 29 30  1  0  0  0
 29 31  1  0  0  0
 29 53  1  0  0  0
 31 33  2  0  0  0
 31 34  1  0  0  0
 32 54  1  0  0  0
 32 55  1  0  0  0
 32 56  1  0  0  0
M  CHG  4  14  -1  19  -1  34  -1  37  -1
M  END
> <s_m_source_file>
../4oef_ligand.sdf

> <i_m_source_file_index>
1

> <s_epik_input>
W0NIM11PW0NASF0xW0NASF0oT1MoPU8pKD1PKVtPSF0pW0NAQEhdKFtPSF0pW0NAQEhdKFtDQEBIXShPMSlDKD1PKVtPSF0pT1tDQEBIXTJbQ0BIXShbTkhdUyg9TykoPU8pW09IXSlbQ0BASF0oW09IXSlbQ0BIXShbT0hdKVtDQEhdKE8yKVtDSDJdT1MoPU8pKD1PKVtPSF0=

> <s_epik_cmdline>
J2VwaWtfYXBwJywgJy1pbWFlJywgJ2xpZ2FuZF9wcm8ubWFlJywgJy1vbWFlJywgJ2xpZ2FuZF9wcmVwLm1hZScsICctbXMnLCAnMScsICctcGgnLCAnNycsICctcGh0JywgJzAuNScsICctbnQn

> <r_epik_Ionization_Penalty>
  0.0211

> <r_epik_Ionization_Penalty_Charging>
  0.0000

> <r_epik_Ionization_Penalty_Neutral>
  0.0211

> <r_epik_State_Penalty>
  0.0169

> <r_epik_Charging_Adjusted_Penalty>
0.0169336296348403

> <i_epik_Tot_Q>
-4

> <i_epik_Tot_abs_Q>
4

> <s_epik_Chemistry_Notes>
This compound contains an acetal/aminal-like group ( X-CH(R)-Y where X, Y are N, S, or O) that may be acid/base labile, releasing an aldehyde.

$$$$
