4oeg_ligand
                    3D
 Schrodinger Suite 2020-3.
 59 60  0  0  1  0            999 V2000
   13.5200  -18.8250   19.8740 N   0  0  3  0  0  0
   13.4050  -19.3160   22.2420 C   0  0  2  0  0  0
   13.9550  -17.3650   19.5970 S   0  0  0  0  0  0
   14.2010  -19.5650   20.9560 C   0  0  1  0  0  0
   16.7500  -22.4500   25.3920 S   0  0  0  0  0  0
   14.2580  -21.0710   20.6510 C   0  0  1  0  0  0
   15.1770  -21.3130   19.5870 O   0  0  0  0  0  0
   14.8420  -22.2570   18.4250 S   0  0  0  0  0  0
   14.7380  -21.8220   21.8900 C   0  0  2  0  0  0
   14.7080  -23.2370   21.6680 O   0  0  0  0  0  0
   13.8890  -21.4780   23.1040 C   0  0  2  0  0  0
   13.9590  -20.0700   23.3330 O   0  0  0  0  0  0
   14.4360  -22.1930   24.3300 C   0  0  0  0  0  0
   15.7460  -21.6780   24.5340 O   0  0  0  0  0  0
   13.6170  -16.5240   20.7560 O   0  0  0  0  0  0
   15.4130  -17.3900   19.3700 O   0  0  0  0  0  0
   13.2230  -16.8990   18.3970 O   0  5  0  0  0  0
   16.9040  -23.7980   24.7940 O   0  5  0  0  0  0
   18.0420  -21.7400   25.4000 O   0  0  0  0  0  0
   16.2000  -22.5420   26.7590 O   0  0  0  0  0  0
   15.6410  -23.4910   18.5990 O   0  5  0  0  0  0
   13.3980  -22.5560   18.4690 O   0  0  0  0  0  0
   15.1730  -21.6220   17.1330 O   0  0  0  0  0  0
    9.7610  -18.3400   18.4610 S   0  0  0  0  0  0
    8.5910  -19.2870   21.5270 C   0  0  1  0  0  0
    7.5780  -18.6470   22.2990 O   0  0  0  0  0  0
    9.5740  -18.2280   21.0200 C   0  0  2  0  0  0
   10.2570  -18.7260   19.8630 O   0  0  0  0  0  0
   10.5750  -17.7710   22.0830 C   0  0  1  0  0  0
    9.9380  -16.8240   22.9430 O   0  0  0  0  0  0
   11.1110  -18.9140   22.9400 C   0  0  2  0  0  0
   12.0280  -19.7010   22.1700 O   0  0  0  0  0  0
    9.9610  -19.7840   23.4280 C   0  0  1  0  0  0
    9.2590  -20.2970   22.2980 O   0  0  0  0  0  0
   10.5120  -20.9190   24.2330 C   0  0  0  0  0  0
    6.4140  -19.4640   22.4240 C   0  0  0  0  0  0
   10.0890  -22.0710   24.0040 O   0  5  0  0  0  0
   11.3760  -20.6650   25.0970 O   0  0  0  0  0  0
   10.6270  -19.0500   17.4990 O   0  0  0  0  0  0
    9.8620  -16.8760   18.3620 O   0  0  0  0  0  0
    8.3600  -18.8170   18.3450 O   0  5  0  0  0  0
   12.8473  -19.3553   19.1838 H   0  0  0  0  0  0
   13.4260  -18.2360   22.4498 H   0  0  0  0  0  0
   15.2323  -19.1895   21.0294 H   0  0  0  0  0  0
   13.2835  -21.4435   20.3024 H   0  0  0  0  0  0
   15.7923  -21.5737   22.0816 H   0  0  0  0  0  0
   15.2681  -23.6740   20.8281 H   0  0  0  0  0  0
   12.8323  -21.7296   22.9303 H   0  0  0  0  0  0
   13.7887  -21.9853   25.1948 H   0  0  0  0  0  0
   14.4603  -23.2766   24.1421 H   0  0  0  0  0  0
    8.0891  -19.8290   20.7120 H   0  0  0  0  0  0
    9.0104  -17.3436   20.6880 H   0  0  0  0  0  0
   11.4178  -17.2716   21.5828 H   0  0  0  0  0  0
    9.4812  -15.9172   22.5200 H   0  0  0  0  0  0
   11.6875  -18.5287   23.7939 H   0  0  0  0  0  0
    9.2307  -19.2153   24.0223 H   0  0  0  0  0  0
    5.6584  -18.9363   23.0245 H   0  0  0  0  0  0
    6.6810  -20.4093   22.9190 H   0  0  0  0  0  0
    6.0057  -19.6758   21.4248 H   0  0  0  0  0  0
  1  3  1  0  0  0
  1  4  1  0  0  0
  1 42  1  0  0  0
  2  4  1  0  0  0
  2 12  1  0  0  0
  2 32  1  0  0  0
  2 43  1  0  0  0
  3 15  2  0  0  0
  3 16  2  0  0  0
  3 17  1  0  0  0
  4  6  1  0  0  0
  4 44  1  0  0  0
  5 14  1  0  0  0
  5 18  1  0  0  0
  5 19  2  0  0  0
  5 20  2  0  0  0
  6  7  1  0  0  0
  6  9  1  0  0  0
  6 45  1  0  0  0
  7  8  1  0  0  0
  8 21  1  0  0  0
  8 22  2  0  0  0
  8 23  2  0  0  0
  9 10  1  0  0  0
  9 11  1  0  0  0
  9 46  1  0  0  0
 10 47  1  0  0  0
 11 12  1  0  0  0
 11 13  1  0  0  0
 11 48  1  0  0  0
 13 14  1  0  0  0
 13 49  1  0  0  0
 13 50  1  0  0  0
 24 28  1  0  0  0
 24 39  2  0  0  0
 24 40  2  0  0  0
 24 41  1  0  0  0
 25 26  1  0  0  0
 25 27  1  0  0  0
 25 34  1  0  0  0
 25 51  1  0  0  0
 26 36  1  0  0  0
 27 28  1  0  0  0
 27 29  1  0  0  0
 27 52  1  0  0  0
 29 30  1  0  0  0
 29 31  1  0  0  0
 29 53  1  0  0  0
 30 54  1  0  0  0
 31 32  1  0  0  0
 31 33  1  0  0  0
 31 55  1  0  0  0
 33 34  1  0  0  0
 33 35  1  0  0  0
 33 56  1  0  0  0
 35 37  1  0  0  0
 35 38  2  0  0  0
 36 57  1  0  0  0
 36 58  1  0  0  0
 36 59  1  0  0  0
M  CHG  5  17  -1  18  -1  21  -1  37  -1  41  -1
M  END
> <s_m_source_file>
../4oeg_ligand.sdf

> <i_m_source_file_index>
1

> <s_epik_input>
W09IXVMoPU8pKD1PKU9bQ0gyXVtDQEBIXShPMSlbQ0BASF0oW09IXSlbQ0BIXShPUyg9TykoPU8pW09IXSlbQ0BASF0oW05IXVMoPU8pKD1PKVtPSF0pW0NASF0xT1tDQEhdKFtDQEBIXShPMilDKD1PKVtPSF0pW0NASF0oW09IXSlbQ0BIXShbQ0BASF0yT1tDSDNdKU9TKD1PKSg9TylbT0hd

> <s_epik_cmdline>
J2VwaWtfYXBwJywgJy1pbWFlJywgJ2xpZ2FuZF9wcm8ubWFlJywgJy1vbWFlJywgJ2xpZ2FuZF9wcmVwLm1hZScsICctbXMnLCAnMScsICctcGgnLCAnNycsICctcGh0JywgJzAuNScsICctbnQn

> <r_epik_Ionization_Penalty>
  0.0373

> <r_epik_Ionization_Penalty_Charging>
  0.0000

> <r_epik_Ionization_Penalty_Neutral>
  0.0373

> <r_epik_State_Penalty>
  0.0312

> <r_epik_Charging_Adjusted_Penalty>
0.0311951986196197

> <i_epik_Tot_Q>
-5

> <i_epik_Tot_abs_Q>
5

> <s_epik_Chemistry_Notes>
This compound contains an acetal/aminal-like group ( X-CH(R)-Y where X, Y are N, S, or O) that may be acid/base labile, releasing an aldehyde.

$$$$
