4oew_ligand
                    3D
 Schrodinger Suite 2020-3.
 57 59  0  0  1  0            999 V2000
  -25.2180   18.8870  -19.2840 C   0  0  0  0  0  0
  -29.8350   13.5760  -15.0940 C   0  0  0  0  0  0
  -29.4720    9.6800  -19.7340 C   0  0  0  0  0  0
  -28.9300   19.1680  -16.6340 O   0  0  0  0  0  0
  -31.0240   13.5310  -24.0910 O   0  0  0  0  0  0
  -32.6380   14.3540  -22.4650 O   0  0  0  0  0  0
  -30.5490   17.6170  -14.0150 I   0  0  0  0  0  0
  -28.7320   14.8660  -22.6480 C   0  0  0  0  0  0
  -27.6580   15.5620  -22.0500 C   0  0  0  0  0  0
  -29.9720   14.9780  -20.6210 C   0  0  0  0  0  0
  -24.5550   17.9120  -20.2110 C   0  0  0  0  0  0
  -30.8200   14.6100  -15.6370 C   0  0  0  0  0  0
  -25.5030   16.9870  -20.9280 C   0  0  0  0  0  0
  -29.9440   10.0030  -22.1510 C   0  0  0  0  0  0
  -31.5030   10.1150  -20.5250 C   0  0  0  0  0  0
  -30.0800   11.5250  -22.3670 C   0  0  0  0  0  0
  -31.6280   11.6060  -20.5650 C   0  0  0  0  0  0
  -29.7810   15.2910  -17.7350 N   0  0  0  0  0  0
  -28.9420   17.3640  -18.1260 N   0  0  0  0  0  0
  -26.6550   16.6660  -20.1680 O   0  0  0  0  0  0
  -29.9300   14.5680  -21.9010 C   0  0  0  0  0  0
  -27.7280   15.9820  -20.7210 C   0  0  0  0  0  0
  -30.1500   15.6860  -16.4780 C   0  0  0  0  0  0
  -29.9110   16.9950  -15.9640 C   0  0  0  0  0  0
  -28.8590   15.6680  -19.9600 C   0  0  0  0  0  0
  -29.1690   16.0930  -18.5370 C   0  0  0  0  0  0
  -29.2760   17.8210  -16.8850 C   0  0  0  0  0  0
  -30.2700    9.6680  -20.8820 N   0  0  0  0  0  0
  -31.4030   12.1830  -21.8660 N   0  0  1  0  0  0
  -31.2900   13.6580  -22.6560 S   0  0  0  0  0  0
  -24.4532   19.5178  -18.8073 H   0  0  0  0  0  0
  -25.7743   18.3373  -18.5104 H   0  0  0  0  0  0
  -25.9127   19.5210  -19.8545 H   0  0  0  0  0  0
  -30.3792   12.8291  -14.4974 H   0  0  0  0  0  0
  -29.0885   14.0779  -14.4609 H   0  0  0  0  0  0
  -29.3281   13.0766  -15.9328 H   0  0  0  0  0  0
  -28.4624    9.3229  -19.9855 H   0  0  0  0  0  0
  -29.9149    9.0211  -18.9727 H   0  0  0  0  0  0
  -29.4108   10.7055  -19.3407 H   0  0  0  0  0  0
  -28.6547   14.5497  -23.6882 H   0  0  0  0  0  0
  -26.7626   15.7738  -22.6344 H   0  0  0  0  0  0
  -30.8783   14.7882  -20.0459 H   0  0  0  0  0  0
  -23.9987   18.4617  -20.9846 H   0  0  0  0  0  0
  -23.8603   17.2780  -19.6406 H   0  0  0  0  0  0
  -31.5665   14.1081  -16.2701 H   0  0  0  0  0  0
  -31.3269   15.1094  -14.7982 H   0  0  0  0  0  0
  -25.8429   17.4612  -21.8605 H   0  0  0  0  0  0
  -24.9878   16.0439  -21.1629 H   0  0  0  0  0  0
  -30.6163    9.4731  -22.8419 H   0  0  0  0  0  0
  -28.9051    9.6967  -22.3432 H   0  0  0  0  0  0
  -31.7015    9.7577  -19.5038 H   0  0  0  0  0  0
  -32.2306    9.6673  -21.2180 H   0  0  0  0  0  0
  -29.2669   12.0444  -21.8387 H   0  0  0  0  0  0
  -30.0208   11.7495  -23.4422 H   0  0  0  0  0  0
  -32.6420   11.8974  -20.2538 H   0  0  0  0  0  0
  -30.8917   12.0542  -19.8816 H   0  0  0  0  0  0
  -28.4658   18.0853  -18.8064 H   0  0  0  0  0  0
  1 11  1  0  0  0
  1 31  1  0  0  0
  1 32  1  0  0  0
  1 33  1  0  0  0
  2 12  1  0  0  0
  2 34  1  0  0  0
  2 35  1  0  0  0
  2 36  1  0  0  0
  3 28  1  0  0  0
  3 37  1  0  0  0
  3 38  1  0  0  0
  3 39  1  0  0  0
  4 27  2  0  0  0
  5 30  2  0  0  0
  6 30  2  0  0  0
  7 24  1  0  0  0
  8  9  2  0  0  0
  8 21  1  0  0  0
  8 40  1  0  0  0
  9 22  1  0  0  0
  9 41  1  0  0  0
 10 21  2  0  0  0
 10 25  1  0  0  0
 10 42  1  0  0  0
 11 13  1  0  0  0
 11 43  1  0  0  0
 11 44  1  0  0  0
 12 23  1  0  0  0
 12 45  1  0  0  0
 12 46  1  0  0  0
 13 20  1  0  0  0
 13 47  1  0  0  0
 13 48  1  0  0  0
 14 16  1  0  0  0
 14 28  1  0  0  0
 14 49  1  0  0  0
 14 50  1  0  0  0
 15 17  1  0  0  0
 15 28  1  0  0  0
 15 51  1  0  0  0
 15 52  1  0  0  0
 16 29  1  0  0  0
 16 53  1  0  0  0
 16 54  1  0  0  0
 17 29  1  0  0  0
 17 55  1  0  0  0
 17 56  1  0  0  0
 18 23  1  0  0  0
 18 26  2  0  0  0
 19 26  1  0  0  0
 19 27  1  0  0  0
 19 57  1  0  0  0
 20 22  1  0  0  0
 21 30  1  0  0  0
 22 25  2  0  0  0
 23 24  2  0  0  0
 24 27  1  0  0  0
 25 26  1  0  0  0
 29 30  1  0  0  0
M  END
> <s_m_source_file>
../4oew_ligand.sdf

> <i_m_source_file_index>
1

> <s_epik_input>
W0NIM11bQ0gyXWMxbmMobmMoW09IXSljMUkpLWMoW2NIXTIpYyhPW0NIMl1bQ0gyXVtDSDNdKVtjSF1bY0hdYzJTKD1PKSg9TylOKFtDSDJdW0NIMl0zKVtDSDJdW0NIMl1bTkgrXTNbQ0gzXQ==

> <s_epik_cmdline>
J2VwaWtfYXBwJywgJy1pbWFlJywgJ2xpZ2FuZF9wcm8ubWFlJywgJy1vbWFlJywgJ2xpZ2FuZF9wcmVwLm1hZScsICctbXMnLCAnMScsICctcGgnLCAnNycsICctcGh0JywgJzAuNScsICctbnQn

> <r_lp_tautomer_probability>
1

> <r_epik_Ionization_Penalty>
  0.2074

> <r_epik_Ionization_Penalty_Charging>
  0.0230

> <r_epik_Ionization_Penalty_Neutral>
  0.1844

> <r_epik_State_Penalty>
 -0.0000

> <r_epik_Charging_Adjusted_Penalty>
0.0229804739809145

> <i_epik_Tot_Q>
0

> <i_epik_Tot_abs_Q>
0

$$$$
