4oex_ligand
                    3D
 Schrodinger Suite 2020-3.
 57 59  0  0  1  0            999 V2000
   28.9580  -12.5950   19.5450 C   0  0  0  0  0  0
   26.3380  -18.4680   15.0600 C   0  0  0  0  0  0
   23.4640  -22.0070   19.7440 C   0  0  0  0  0  0
   30.8850  -15.3640   16.8220 O   0  0  0  0  0  0
   28.0890  -20.7550   24.1910 O   0  0  0  0  0  0
   29.1820  -21.6490   22.1830 O   0  0  0  0  0  0
   27.6820  -18.1110   22.8420 C   0  0  0  0  0  0
   27.6510  -16.7810   22.3260 C   0  0  0  0  0  0
   28.3090  -18.9490   20.6990 C   0  0  0  0  0  0
   29.3700  -17.0780   16.1160 C   0  0  0  0  0  0
   27.8400  -12.8050   20.5230 C   0  0  0  0  0  0
   27.7250  -18.9110   15.3930 C   0  0  0  0  0  0
   27.8170  -14.1180   21.2150 C   0  0  0  0  0  0
   24.1910  -21.7180   22.1010 C   0  0  0  0  0  0
   25.5330  -22.9940   20.5340 C   0  0  0  0  0  0
   25.3630  -20.8230   22.3260 C   0  0  0  0  0  0
   26.7040  -22.1110   20.8360 C   0  0  0  0  0  0
   28.0720  -18.1660   17.7510 N   0  0  0  0  0  0
   29.5650  -16.4960   18.3810 N   0  0  0  0  0  0
   27.9340  -15.2310   20.3970 O   0  0  0  0  0  0
   28.4140  -18.0270   16.4670 C   0  0  0  0  0  0
   28.0190  -19.1590   22.0270 C   0  0  0  0  0  0
   27.9570  -16.5670   20.9640 C   0  0  0  0  0  0
   28.2620  -17.6020   20.1750 C   0  0  0  0  0  0
   28.6380  -17.4000   18.6810 C   0  0  0  0  0  0
   29.9500  -16.2980   17.1140 C   0  0  0  0  0  0
   24.2660  -22.3750   20.8290 N   0  0  0  0  0  0
   26.6180  -21.4970   22.1310 N   0  0  1  0  0  0
   28.0470  -20.8430   22.6840 S   0  0  0  0  0  0
   28.8712  -11.5935   19.0984 H   0  0  0  0  0  0
   28.9000  -13.3560   18.7529 H   0  0  0  0  0  0
   29.9226  -12.6815   20.0667 H   0  0  0  0  0  0
   25.9131  -19.1362   14.2964 H   0  0  0  0  0  0
   26.3649  -17.4388   14.6727 H   0  0  0  0  0  0
   25.7146  -18.5028   15.9656 H   0  0  0  0  0  0
   22.5343  -21.5499   20.1137 H   0  0  0  0  0  0
   23.2221  -22.8991   19.1476 H   0  0  0  0  0  0
   24.0048  -21.2826   19.1173 H   0  0  0  0  0  0
   27.4367  -18.2936   23.8882 H   0  0  0  0  0  0
   27.3949  -15.9425   22.9736 H   0  0  0  0  0  0
   28.5704  -19.7856   20.0511 H   0  0  0  0  0  0
   29.6610  -16.9469   15.0738 H   0  0  0  0  0  0
   27.8980  -12.0440   21.3151 H   0  0  0  0  0  0
   26.8754  -12.7185   20.0014 H   0  0  0  0  0  0
   27.6981  -19.9402   15.7803 H   0  0  0  0  0  0
   28.3484  -18.8762   14.4874 H   0  0  0  0  0  0
   28.6523  -14.1710   21.9288 H   0  0  0  0  0  0
   26.8655  -14.2312   21.7551 H   0  0  0  0  0  0
   24.1601  -22.4863   22.8876 H   0  0  0  0  0  0
   23.2653  -21.1246   22.1315 H   0  0  0  0  0  0
   25.5356  -23.2536   19.4651 H   0  0  0  0  0  0
   25.6022  -23.9130   21.1346 H   0  0  0  0  0  0
   25.3199  -19.9786   21.6223 H   0  0  0  0  0  0
   25.3407  -20.4420   23.3577 H   0  0  0  0  0  0
   27.6289  -22.7058   20.8068 H   0  0  0  0  0  0
   26.7607  -21.3080   20.0864 H   0  0  0  0  0  0
   30.0280  -15.8972   19.1792 H   0  0  0  0  0  0
  1 11  1  0  0  0
  1 30  1  0  0  0
  1 31  1  0  0  0
  1 32  1  0  0  0
  2 12  1  0  0  0
  2 33  1  0  0  0
  2 34  1  0  0  0
  2 35  1  0  0  0
  3 27  1  0  0  0
  3 36  1  0  0  0
  3 37  1  0  0  0
  3 38  1  0  0  0
  4 26  2  0  0  0
  5 29  2  0  0  0
  6 29  2  0  0  0
  7  8  2  0  0  0
  7 22  1  0  0  0
  7 39  1  0  0  0
  8 23  1  0  0  0
  8 40  1  0  0  0
  9 22  2  0  0  0
  9 24  1  0  0  0
  9 41  1  0  0  0
 10 21  2  0  0  0
 10 26  1  0  0  0
 10 42  1  0  0  0
 11 13  1  0  0  0
 11 43  1  0  0  0
 11 44  1  0  0  0
 12 21  1  0  0  0
 12 45  1  0  0  0
 12 46  1  0  0  0
 13 20  1  0  0  0
 13 47  1  0  0  0
 13 48  1  0  0  0
 14 16  1  0  0  0
 14 27  1  0  0  0
 14 49  1  0  0  0
 14 50  1  0  0  0
 15 17  1  0  0  0
 15 27  1  0  0  0
 15 51  1  0  0  0
 15 52  1  0  0  0
 16 28  1  0  0  0
 16 53  1  0  0  0
 16 54  1  0  0  0
 17 28  1  0  0  0
 17 55  1  0  0  0
 17 56  1  0  0  0
 18 21  1  0  0  0
 18 25  2  0  0  0
 19 25  1  0  0  0
 19 26  1  0  0  0
 19 57  1  0  0  0
 20 23  1  0  0  0
 22 29  1  0  0  0
 23 24  2  0  0  0
 24 25  1  0  0  0
 28 29  1  0  0  0
M  END
> <s_m_source_file>
../4oex_ligand.sdf

> <i_m_source_file_index>
1

> <s_epik_input>
W0NIM11bQ0gyXWMxW2NIXWMoW09IXSluYyhuMSktYyhbY0hdMiljKE9bQ0gyXVtDSDJdW0NIM10pW2NIXVtjSF1jMlMoPU8pKD1PKU4oW0NIMl1bQ0gyXTMpW0NIMl1bQ0gyXVtOSCtdM1tDSDNd

> <s_epik_cmdline>
J2VwaWtfYXBwJywgJy1pbWFlJywgJ2xpZ2FuZF9wcm8ubWFlJywgJy1vbWFlJywgJ2xpZ2FuZF9wcmVwLm1hZScsICctbXMnLCAnMScsICctcGgnLCAnNycsICctcGh0JywgJzAuNScsICctbnQn

> <r_lp_tautomer_probability>
1

> <r_epik_Ionization_Penalty>
  0.1865

> <r_epik_Ionization_Penalty_Charging>
  0.0021

> <r_epik_Ionization_Penalty_Neutral>
  0.1844

> <r_epik_State_Penalty>
 -0.0000

> <r_epik_Charging_Adjusted_Penalty>
0.00208470950435668

> <i_epik_Tot_Q>
0

> <i_epik_Tot_abs_Q>
0

$$$$
