4ofl_ligand
                    3D
 Schrodinger Suite 2020-3.
 19 19  0  0  1  0            999 V2000
   17.1100   23.2300   39.9290 N   0  3  0  0  0  0
   17.7010   24.5660   39.9280 C   0  0  2  0  0  0
   16.8570   25.5500   39.1250 C   0  0  0  0  0  0
   17.0130   26.7660   39.2400 O   0  5  0  0  0  0
   19.1270   24.5230   39.3710 C   0  0  0  0  0  0
   19.2420   23.8470   38.0400 C   0  0  0  0  0  0
   18.2250   23.0910   37.4930 N   0  0  0  0  0  0
   20.2570   23.8100   37.1440 C   0  0  0  0  0  0
   18.6080   22.6210   36.3220 C   0  0  0  0  0  0
   19.8410   23.0440   36.0850 N   0  0  0  0  0  0
   15.9890   25.1470   38.3510 O   0  0  0  0  0  0
   16.0877   23.2816   40.3318 H   0  0  0  0  0  0
   17.7177   22.5607   40.5557 H   0  0  0  0  0  0
   17.0796   22.8418   38.9002 H   0  0  0  0  0  0
   17.7080   24.8730   40.9843 H   0  0  0  0  0  0
   20.0234   24.9340   39.8584 H   0  0  0  0  0  0
   21.2623   24.2564   37.1385 H   0  0  0  0  0  0
   18.0117   21.9916   35.6614 H   0  0  0  0  0  0
   17.2783   22.9655   38.0388 H   0  0  0  0  0  0
  1  2  1  0  0  0
  1 12  1  0  0  0
  1 13  1  0  0  0
  1 14  1  0  0  0
  2  3  1  0  0  0
  2  5  1  0  0  0
  2 15  1  0  0  0
  3  4  1  0  0  0
  3 11  2  0  0  0
  5  6  2  0  0  0
  5 16  1  0  0  0
  6  7  1  0  0  0
  6  8  1  0  0  0
  7  9  1  0  0  0
  7 19  1  0  0  0
  8 10  2  0  0  0
  8 17  1  0  0  0
  9 10  1  0  0  0
  9 18  1  0  0  0
M  CHG  2   1   1   4  -1
M  END
> <s_m_source_file>
../4ofl_ligand.sdf

> <i_m_source_file_index>
1

> <s_epik_input>
W09IXUMoPU8pW0NAQEhdKFtOSDMrXSlbQ0gyXUMxPU5bQ0gyXU49W0NIXTE=

> <s_epik_cmdline>
J2VwaWtfYXBwJywgJy1pbWFlJywgJ2xpZ2FuZF9wcm8ubWFlJywgJy1vbWFlJywgJ2xpZ2FuZF9wcmVwLm1hZScsICctbXMnLCAnMScsICctcGgnLCAnNycsICctcGh0JywgJzAuNScsICctbnQn

> <r_epik_Ionization_Penalty>
  0.1679

> <r_epik_Ionization_Penalty_Charging>
  0.1679

> <r_epik_Ionization_Penalty_Neutral>
  0.0000

> <r_epik_State_Penalty>
  0.1572

> <r_epik_Charging_Adjusted_Penalty>
0.32510251807624

> <i_epik_Tot_Q>
0

> <i_epik_Tot_abs_Q>
2

> <s_epik_Chemistry_Notes>
This compound has an imine and may undergo hydrolysis.

$$$$
