4og3_ligand
                    3D
 Schrodinger Suite 2020-3.
 66 69  0  0  1  0            999 V2000
  -10.7090   19.2530  -13.3780 C   0  0  0  0  0  0
  -10.1450   20.4160  -13.8740 C   0  0  0  0  0  0
   -8.7740   20.5460  -13.9560 C   0  0  0  0  0  0
   -8.2000   21.7370  -14.4730 C   0  0  0  0  0  0
   -7.7710   22.7050  -14.9050 N   0  0  0  0  0  0
   -7.9820   19.4870  -13.5260 C   0  0  0  0  0  0
   -8.5360   18.2940  -13.0460 C   0  0  0  0  0  0
   -9.9140   18.1720  -12.9880 C   0  0  0  0  0  0
  -10.5430   17.0400  -12.5460 O   0  0  0  0  0  0
   -9.7970   15.8740  -12.1640 C   0  0  0  0  0  0
  -10.7450   15.0020  -11.2900 C   0  0  0  0  0  0
  -11.6080   14.2870  -12.2920 C   0  0  0  0  0  0
  -12.7540   13.5400  -11.6530 N   0  3  1  0  0  0
  -13.4540   12.7050  -12.6230 C   0  0  0  0  0  0
  -14.6310   11.9580  -12.0290 C   0  0  0  0  0  0
  -12.1400   12.4960  -10.7160 C   0  0  0  0  0  0
  -13.2290   11.7220   -9.8950 C   0  0  0  0  0  0
  -14.1190   10.9850  -10.9790 C   0  0  1  0  0  0
  -15.2420   10.0570  -10.4050 C   0  0  1  0  0  0
  -14.6060    9.0850   -9.3780 C   0  0  0  0  0  0
  -13.5070    8.1070   -9.8940 C   0  0  0  0  0  0
  -13.2870    7.2890   -8.5970 C   0  0  0  0  0  0
  -14.6980    7.2320   -7.8840 C   0  0  0  0  0  0
  -15.6390    8.0850   -8.6670 C   0  0  0  0  0  0
  -16.1590   10.8960   -9.7320 O   0  0  0  0  0  0
  -15.9230    9.3060  -11.4220 C   0  0  0  0  0  0
  -17.3090    9.1660  -11.4000 C   0  0  0  0  0  0
  -17.9810    8.4190  -12.3700 C   0  0  0  0  0  0
  -17.2430    7.8440  -13.4170 C   0  0  0  0  0  0
  -15.8770    7.9640  -13.4680 C   0  0  0  0  0  0
  -15.2380    8.7220  -12.5040 C   0  0  0  0  0  0
  -11.7929   19.1792  -13.2901 H   0  0  0  0  0  0
  -10.7876   21.2333  -14.2015 H   0  0  0  0  0  0
   -6.8974   19.5886  -13.5637 H   0  0  0  0  0  0
   -7.8932   17.4750  -12.7234 H   0  0  0  0  0  0
   -9.4836   15.3275  -13.0658 H   0  0  0  0  0  0
   -8.9079   16.1785  -11.5923 H   0  0  0  0  0  0
  -10.1474   14.3043  -10.6849 H   0  0  0  0  0  0
  -11.3330   15.6524  -10.6258 H   0  0  0  0  0  0
  -12.0347   15.0170  -12.9956 H   0  0  0  0  0  0
  -10.9992   13.5569  -12.8455 H   0  0  0  0  0  0
  -13.4439   14.2767  -11.2156 H   0  0  0  0  0  0
  -13.8380   13.3345  -13.4392 H   0  0  0  0  0  0
  -12.7588   11.9574  -13.0326 H   0  0  0  0  0  0
  -15.3237   12.6752  -11.5645 H   0  0  0  0  0  0
  -15.1536   11.4056  -12.8238 H   0  0  0  0  0  0
  -11.5722   11.7620  -11.3067 H   0  0  0  0  0  0
  -11.4656   12.9940  -10.0038 H   0  0  0  0  0  0
  -12.7385   11.0058   -9.2193 H   0  0  0  0  0  0
  -13.8203   12.4373   -9.3045 H   0  0  0  0  0  0
  -13.4578   10.2910  -11.5186 H   0  0  0  0  0  0
  -14.1658    9.8618   -8.7355 H   0  0  0  0  0  0
  -13.9023    7.5241  -10.7390 H   0  0  0  0  0  0
  -12.6297    8.6826  -10.2242 H   0  0  0  0  0  0
  -12.9278    6.2819   -8.8552 H   0  0  0  0  0  0
  -12.5401    7.7943   -7.9670 H   0  0  0  0  0  0
  -15.0551    6.1919   -7.8604 H   0  0  0  0  0  0
  -14.6048    7.6110   -6.8556 H   0  0  0  0  0  0
  -16.3373    8.6620   -8.0429 H   0  0  0  0  0  0
  -16.2026    7.5336   -9.4341 H   0  0  0  0  0  0
  -15.8120   11.5478   -8.9167 H   0  0  0  0  0  0
  -17.8813    9.6500  -10.6086 H   0  0  0  0  0  0
  -19.0613    8.2845  -12.3151 H   0  0  0  0  0  0
  -17.7631    7.2939  -14.2012 H   0  0  0  0  0  0
  -15.3058    7.4706  -14.2544 H   0  0  0  0  0  0
  -14.1616    8.8732  -12.5853 H   0  0  0  0  0  0
  1  2  2  0  0  0
  1  8  1  0  0  0
  1 32  1  0  0  0
  2  3  1  0  0  0
  2 33  1  0  0  0
  3  4  1  0  0  0
  3  6  2  0  0  0
  4  5  3  0  0  0
  6  7  1  0  0  0
  6 34  1  0  0  0
  7  8  2  0  0  0
  7 35  1  0  0  0
  8  9  1  0  0  0
  9 10  1  0  0  0
 10 11  1  0  0  0
 10 36  1  0  0  0
 10 37  1  0  0  0
 11 12  1  0  0  0
 11 38  1  0  0  0
 11 39  1  0  0  0
 12 13  1  0  0  0
 12 40  1  0  0  0
 12 41  1  0  0  0
 13 14  1  0  0  0
 13 16  1  0  0  0
 13 42  1  0  0  0
 14 15  1  0  0  0
 14 43  1  0  0  0
 14 44  1  0  0  0
 15 18  1  0  0  0
 15 45  1  0  0  0
 15 46  1  0  0  0
 16 17  1  0  0  0
 16 47  1  0  0  0
 16 48  1  0  0  0
 17 18  1  0  0  0
 17 49  1  0  0  0
 17 50  1  0  0  0
 18 19  1  0  0  0
 18 51  1  0  0  0
 19 20  1  0  0  0
 19 25  1  0  0  0
 19 26  1  0  0  0
 20 21  1  0  0  0
 20 24  1  0  0  0
 20 52  1  0  0  0
 21 22  1  0  0  0
 21 53  1  0  0  0
 21 54  1  0  0  0
 22 23  1  0  0  0
 22 55  1  0  0  0
 22 56  1  0  0  0
 23 24  1  0  0  0
 23 57  1  0  0  0
 23 58  1  0  0  0
 24 59  1  0  0  0
 24 60  1  0  0  0
 25 61  1  0  0  0
 26 27  2  0  0  0
 26 31  1  0  0  0
 27 28  1  0  0  0
 27 62  1  0  0  0
 28 29  2  0  0  0
 28 63  1  0  0  0
 29 30  1  0  0  0
 29 64  1  0  0  0
 30 31  2  0  0  0
 30 65  1  0  0  0
 31 66  1  0  0  0
M  CHG  1  13   1
M  END
> <s_m_source_file>
../4og3_ligand.sdf

> <i_m_source_file_index>
1

> <s_epik_input>
TiNDYzFbY0hdW2NIXWMoW2NIXVtjSF0xKU9bQ0gyXVtDSDJdW0NIMl1bTkBIK10yW0NIMl1bQ0gyXVtDQEBIXShbQ0gyXVtDSDJdMilbQ0BdKFtPSF0pKFtDSF0zW0NIMl1bQ0gyXVtDSDJdW0NIMl0zKWM0W2NIXVtjSF1bY0hdW2NIXVtjSF00

> <s_epik_cmdline>
J2VwaWtfYXBwJywgJy1pbWFlJywgJ2xpZ2FuZF9wcm8ubWFlJywgJy1vbWFlJywgJ2xpZ2FuZF9wcmVwLm1hZScsICctbXMnLCAnMScsICctcGgnLCAnNycsICctcGh0JywgJzAuNScsICctbnQn

> <r_lp_tautomer_probability>
1

> <r_epik_Ionization_Penalty>
  0.0061

> <r_epik_Ionization_Penalty_Charging>
  0.0061

> <r_epik_Ionization_Penalty_Neutral>
  0.0000

> <r_epik_State_Penalty>
 -0.0000

> <r_epik_Charging_Adjusted_Penalty>
0.00612480020770586

> <i_epik_Tot_Q>
1

> <i_epik_Tot_abs_Q>
1

$$$$
