4og4_ligand
                    3D
 Schrodinger Suite 2020-3.
 66 69  0  0  1  0            999 V2000
   10.7800   19.2970   13.2690 C   0  0  0  0  0  0
   10.1910   20.4340   13.7900 C   0  0  0  0  0  0
    8.8250   20.4460   14.0140 C   0  0  0  0  0  0
    8.2630   21.5820   14.5300 C   0  0  0  0  0  0
    7.8580   22.4490   14.9200 N   0  0  0  0  0  0
    8.0410   19.3340   13.7230 C   0  0  0  0  0  0
    8.6320   18.1900   13.2000 C   0  0  0  0  0  0
   10.0030   18.1850   12.9780 C   0  0  0  0  0  0
   10.6430   17.1090   12.4710 O   0  0  0  0  0  0
    9.9070   15.9210   12.2250 C   0  0  0  0  0  0
   10.8330   15.0130   11.4090 C   0  0  0  0  0  0
   11.7990   14.2570   12.3340 C   0  0  0  0  0  0
   12.8270   13.5110   11.5810 N   0  3  1  0  0  0
   13.8550   13.0410   12.5280 C   0  0  0  0  0  0
   14.9160   12.1630   11.8590 C   0  0  0  0  0  0
   12.2070   12.3480   10.9180 C   0  0  0  0  0  0
   13.2340   11.4500   10.2150 C   0  0  0  0  0  0
   14.2520   10.9440   11.2320 C   0  0  1  0  0  0
   15.3080    9.9870   10.6230 C   0  0  2  0  0  0
   16.2590    9.4810   11.7210 C   0  0  0  0  0  0
   17.3930    8.6100   11.1580 C   0  0  0  0  0  0
   17.8540    7.7450   12.3470 C   0  0  0  0  0  0
   16.8770    8.0590   13.4320 C   0  0  0  0  0  0
   15.6310    8.5370   12.7110 C   0  0  0  0  0  0
   16.0830   10.7150    9.7440 O   0  0  0  0  0  0
   14.6870    8.8820    9.9280 C   0  0  0  0  0  0
   13.5540    8.2850   10.4620 C   0  0  0  0  0  0
   12.9670    7.2110    9.8050 C   0  0  0  0  0  0
   13.4910    6.7120    8.6220 C   0  0  0  0  0  0
   14.6300    7.2950    8.0890 C   0  0  0  0  0  0
   15.2250    8.3750    8.7450 C   0  0  0  0  0  0
   11.8544   19.2741   13.0869 H   0  0  0  0  0  0
   10.7953   21.3110   14.0218 H   0  0  0  0  0  0
    6.9666   19.3600   13.9047 H   0  0  0  0  0  0
    8.0298   17.3116   12.9680 H   0  0  0  0  0  0
    9.6345   15.4536   13.1827 H   0  0  0  0  0  0
    8.9934   16.1653   11.6632 H   0  0  0  0  0  0
   10.2303   14.2829   10.8490 H   0  0  0  0  0  0
   11.4174   15.6232   10.7046 H   0  0  0  0  0  0
   12.3119   14.9733   12.9927 H   0  0  0  0  0  0
   11.2342   13.5370   12.9444 H   0  0  0  0  0  0
   13.2820   14.1620   10.8199 H   0  0  0  0  0  0
   14.3661   13.9070   12.9739 H   0  0  0  0  0  0
   13.3782   12.4478   13.3222 H   0  0  0  0  0  0
   15.4303   12.7409   11.0770 H   0  0  0  0  0  0
   15.6471   11.8334   12.6119 H   0  0  0  0  0  0
   11.6812   11.7367   11.6662 H   0  0  0  0  0  0
   11.4900   12.6970   10.1603 H   0  0  0  0  0  0
   12.7187   10.5933    9.7562 H   0  0  0  0  0  0
   13.7523   12.0268    9.4348 H   0  0  0  0  0  0
   13.7167   10.3583   11.9938 H   0  0  0  0  0  0
   16.5775   10.4179   12.2013 H   0  0  0  0  0  0
   17.0070    7.9945   10.3320 H   0  0  0  0  0  0
   18.2020    9.2563   10.7867 H   0  0  0  0  0  0
   17.8249    6.6832   12.0610 H   0  0  0  0  0  0
   18.8816    8.0218   12.6251 H   0  0  0  0  0  0
   16.6816    7.1522   14.0231 H   0  0  0  0  0  0
   17.2931    8.8400   14.0854 H   0  0  0  0  0  0
   14.9264    9.0904   13.3492 H   0  0  0  0  0  0
   15.0919    7.7447   12.1710 H   0  0  0  0  0  0
   16.6344   11.5983   10.0985 H   0  0  0  0  0  0
   13.1264    8.6571   11.3930 H   0  0  0  0  0  0
   12.0747    6.7502   10.2288 H   0  0  0  0  0  0
   13.0133    5.8720    8.1177 H   0  0  0  0  0  0
   15.0591    6.9126    7.1628 H   0  0  0  0  0  0
   16.1233    8.8286    8.3262 H   0  0  0  0  0  0
  1  2  2  0  0  0
  1  8  1  0  0  0
  1 32  1  0  0  0
  2  3  1  0  0  0
  2 33  1  0  0  0
  3  4  1  0  0  0
  3  6  2  0  0  0
  4  5  3  0  0  0
  6  7  1  0  0  0
  6 34  1  0  0  0
  7  8  2  0  0  0
  7 35  1  0  0  0
  8  9  1  0  0  0
  9 10  1  0  0  0
 10 11  1  0  0  0
 10 36  1  0  0  0
 10 37  1  0  0  0
 11 12  1  0  0  0
 11 38  1  0  0  0
 11 39  1  0  0  0
 12 13  1  0  0  0
 12 40  1  0  0  0
 12 41  1  0  0  0
 13 14  1  0  0  0
 13 16  1  0  0  0
 13 42  1  0  0  0
 14 15  1  0  0  0
 14 43  1  0  0  0
 14 44  1  0  0  0
 15 18  1  0  0  0
 15 45  1  0  0  0
 15 46  1  0  0  0
 16 17  1  0  0  0
 16 47  1  0  0  0
 16 48  1  0  0  0
 17 18  1  0  0  0
 17 49  1  0  0  0
 17 50  1  0  0  0
 18 19  1  0  0  0
 18 51  1  0  0  0
 19 20  1  0  0  0
 19 25  1  0  0  0
 19 26  1  0  0  0
 20 21  1  0  0  0
 20 24  1  0  0  0
 20 52  1  0  0  0
 21 22  1  0  0  0
 21 53  1  0  0  0
 21 54  1  0  0  0
 22 23  1  0  0  0
 22 55  1  0  0  0
 22 56  1  0  0  0
 23 24  1  0  0  0
 23 57  1  0  0  0
 23 58  1  0  0  0
 24 59  1  0  0  0
 24 60  1  0  0  0
 25 61  1  0  0  0
 26 27  2  0  0  0
 26 31  1  0  0  0
 27 28  1  0  0  0
 27 62  1  0  0  0
 28 29  2  0  0  0
 28 63  1  0  0  0
 29 30  1  0  0  0
 29 64  1  0  0  0
 30 31  2  0  0  0
 30 65  1  0  0  0
 31 66  1  0  0  0
M  CHG  1  13   1
M  END
> <s_m_source_file>
../4og4_ligand.sdf

> <i_m_source_file_index>
1

> <s_epik_input>
TiNDYzFbY0hdW2NIXWMoW2NIXVtjSF0xKU9bQ0gyXVtDSDJdW0NIMl1bTkBIK10yW0NIMl1bQ0gyXVtDQEBIXShbQ0gyXVtDSDJdMilbQ0BAXShbT0hdKShbQ0hdM1tDSDJdW0NIMl1bQ0gyXVtDSDJdMyljNFtjSF1bY0hdW2NIXVtjSF1bY0hdNA==

> <s_epik_cmdline>
J2VwaWtfYXBwJywgJy1pbWFlJywgJ2xpZ2FuZF9wcm8ubWFlJywgJy1vbWFlJywgJ2xpZ2FuZF9wcmVwLm1hZScsICctbXMnLCAnMScsICctcGgnLCAnNycsICctcGh0JywgJzAuNScsICctbnQn

> <r_lp_tautomer_probability>
1

> <r_epik_Ionization_Penalty>
  0.0061

> <r_epik_Ionization_Penalty_Charging>
  0.0061

> <r_epik_Ionization_Penalty_Neutral>
  0.0000

> <r_epik_State_Penalty>
 -0.0000

> <r_epik_Charging_Adjusted_Penalty>
0.00612480020770586

> <i_epik_Tot_Q>
1

> <i_epik_Tot_abs_Q>
1

$$$$
