4og5_ligand
                    3D
 Schrodinger Suite 2020-3.
 65 68  0  0  1  0            999 V2000
   -8.4660   17.9330  -13.0370 C   0  0  0  0  0  0
   -7.9190   19.1380  -13.5100 C   0  0  0  0  0  0
   -8.7140   20.2070  -13.8530 C   0  0  0  0  0  0
   -8.1560   21.4560  -14.4110 C   0  0  0  0  0  0
   -7.7710   22.3920  -14.8260 N   0  0  0  0  0  0
  -10.0720   20.1630  -13.6780 C   0  0  0  0  0  0
  -10.6410   18.9770  -13.1990 C   0  0  0  0  0  0
   -9.8180   17.8820  -12.8700 C   0  0  0  0  0  0
  -10.4270   16.7360  -12.4060 O   0  0  0  0  0  0
   -9.5650   15.6350  -12.1140 C   0  0  0  0  0  0
  -10.4950   14.6220  -11.4020 C   0  0  0  0  0  0
  -11.3820   13.9910  -12.4460 C   0  0  0  0  0  0
  -12.3810   13.0740  -11.7640 N   0  3  2  0  0  0
  -11.8090   11.7990  -11.1930 C   0  0  0  0  0  0
  -12.8260   11.0710  -10.3430 C   0  0  0  0  0  0
  -13.3770   12.6810  -12.7450 C   0  0  0  0  0  0
  -14.4750   11.7260  -12.1680 C   0  0  0  0  0  0
  -13.8860   10.5390  -11.3710 C   0  0  2  0  0  0
  -15.0320    9.6900  -10.6990 C   0  0  2  0  0  0
  -16.0900    9.2170  -11.7570 C   0  0  0  0  0  0
  -15.6170    8.3450  -12.9160 C   0  0  0  0  0  0
  -16.8900    7.9840  -13.5880 C   0  0  0  0  0  0
  -17.8730    7.7460  -12.4010 C   0  0  0  0  0  0
  -17.2140    8.3040  -11.1840 C   0  0  0  0  0  0
  -15.7240   10.5380   -9.7920 O   0  0  0  0  0  0
  -14.4760    8.5680   -9.9530 C   0  0  0  0  0  0
  -13.4700    7.8680  -10.5270 N   0  0  0  0  0  0
  -12.9320    6.7620   -9.8850 C   0  0  0  0  0  0
  -13.3670    6.3940   -8.6250 C   0  0  0  0  0  0
  -14.4010    7.1100   -8.0150 C   0  0  0  0  0  0
  -14.9280    8.2240   -8.6750 C   0  0  0  0  0  0
   -7.8344   17.0734  -12.8126 H   0  0  0  0  0  0
   -6.8371   19.2279  -13.6076 H   0  0  0  0  0  0
  -10.6934   21.0290  -13.9058 H   0  0  0  0  0  0
  -11.7219   18.9007  -13.0805 H   0  0  0  0  0  0
   -9.1513   15.2346  -13.0513 H   0  0  0  0  0  0
   -8.7434   15.9743  -11.4661 H   0  0  0  0  0  0
   -9.8864   13.8523  -10.9047 H   0  0  0  0  0  0
  -11.1048   15.1480  -10.6527 H   0  0  0  0  0  0
  -11.9189   14.7783  -12.9954 H   0  0  0  0  0  0
  -10.7660   13.4093  -13.1475 H   0  0  0  0  0  0
  -12.8188   13.6458  -10.9325 H   0  0  0  0  0  0
  -11.5010   11.1353  -12.0143 H   0  0  0  0  0  0
  -10.9364   12.0367  -10.5668 H   0  0  0  0  0  0
  -12.3316   10.2512   -9.8013 H   0  0  0  0  0  0
  -13.2698   11.7723   -9.6210 H   0  0  0  0  0  0
  -13.8870   13.5769  -13.1288 H   0  0  0  0  0  0
  -12.8852   12.1546  -13.5763 H   0  0  0  0  0  0
  -15.1321   12.2902  -11.4898 H   0  0  0  0  0  0
  -15.0707   11.3106  -12.9942 H   0  0  0  0  0  0
  -13.3646    9.8670  -12.0685 H   0  0  0  0  0  0
  -16.3982   10.2106  -12.1145 H   0  0  0  0  0  0
  -14.9438    8.9275  -13.5621 H   0  0  0  0  0  0
  -15.0800    7.4700  -12.5211 H   0  0  0  0  0  0
  -17.2099    8.8126  -14.2369 H   0  0  0  0  0  0
  -16.7402    7.0793  -14.1955 H   0  0  0  0  0  0
  -18.8237    8.2609  -12.6034 H   0  0  0  0  0  0
  -18.0570    6.6674  -12.2879 H   0  0  0  0  0  0
  -16.7652    7.5197  -10.5568 H   0  0  0  0  0  0
  -17.9039    8.9087  -10.5771 H   0  0  0  0  0  0
  -16.2193   11.4488  -10.1595 H   0  0  0  0  0  0
  -12.1572    6.1762  -10.3797 H   0  0  0  0  0  0
  -12.9063    5.5506   -8.1106 H   0  0  0  0  0  0
  -14.7891    6.8055   -7.0430 H   0  0  0  0  0  0
  -15.6955    8.8279   -8.1908 H   0  0  0  0  0  0
  1  2  2  0  0  0
  1  8  1  0  0  0
  1 32  1  0  0  0
  2  3  1  0  0  0
  2 33  1  0  0  0
  3  4  1  0  0  0
  3  6  2  0  0  0
  4  5  3  0  0  0
  6  7  1  0  0  0
  6 34  1  0  0  0
  7  8  2  0  0  0
  7 35  1  0  0  0
  8  9  1  0  0  0
  9 10  1  0  0  0
 10 11  1  0  0  0
 10 36  1  0  0  0
 10 37  1  0  0  0
 11 12  1  0  0  0
 11 38  1  0  0  0
 11 39  1  0  0  0
 12 13  1  0  0  0
 12 40  1  0  0  0
 12 41  1  0  0  0
 13 14  1  0  0  0
 13 16  1  0  0  0
 13 42  1  0  0  0
 14 15  1  0  0  0
 14 43  1  0  0  0
 14 44  1  0  0  0
 15 18  1  0  0  0
 15 45  1  0  0  0
 15 46  1  0  0  0
 16 17  1  0  0  0
 16 47  1  0  0  0
 16 48  1  0  0  0
 17 18  1  0  0  0
 17 49  1  0  0  0
 17 50  1  0  0  0
 18 19  1  0  0  0
 18 51  1  0  0  0
 19 20  1  0  0  0
 19 25  1  0  0  0
 19 26  1  0  0  0
 20 21  1  0  0  0
 20 24  1  0  0  0
 20 52  1  0  0  0
 21 22  1  0  0  0
 21 53  1  0  0  0
 21 54  1  0  0  0
 22 23  1  0  0  0
 22 55  1  0  0  0
 22 56  1  0  0  0
 23 24  1  0  0  0
 23 57  1  0  0  0
 23 58  1  0  0  0
 24 59  1  0  0  0
 24 60  1  0  0  0
 25 61  1  0  0  0
 26 27  2  0  0  0
 26 31  1  0  0  0
 27 28  1  0  0  0
 28 29  2  0  0  0
 28 62  1  0  0  0
 29 30  1  0  0  0
 29 63  1  0  0  0
 30 31  2  0  0  0
 30 64  1  0  0  0
 31 65  1  0  0  0
M  CHG  1  13   1
M  END
> <s_m_source_file>
../4og5_ligand.sdf

> <i_m_source_file_index>
1

> <s_epik_input>
TiNDYzFbY0hdW2NIXWMoW2NIXVtjSF0xKU9bQ0gyXVtDSDJdW0NIMl1bTkBASCtdMltDSDJdW0NIMl1bQ0BIXShbQ0gyXVtDSDJdMilbQ0BAXShbT0hdKShbQ0hdM1tDSDJdW0NIMl1bQ0gyXVtDSDJdMyljNG5bY0hdW2NIXVtjSF1bY0hdNA==

> <s_epik_cmdline>
J2VwaWtfYXBwJywgJy1pbWFlJywgJ2xpZ2FuZF9wcm8ubWFlJywgJy1vbWFlJywgJ2xpZ2FuZF9wcmVwLm1hZScsICctbXMnLCAnMScsICctcGgnLCAnNycsICctcGh0JywgJzAuNScsICctbnQn

> <r_lp_tautomer_probability>
1

> <r_epik_Ionization_Penalty>
  0.0070

> <r_epik_Ionization_Penalty_Charging>
  0.0040

> <r_epik_Ionization_Penalty_Neutral>
  0.0030

> <r_epik_State_Penalty>
 -0.0000

> <r_epik_Charging_Adjusted_Penalty>
0.00401270183703473

> <i_epik_Tot_Q>
1

> <i_epik_Tot_abs_Q>
1

$$$$
