4og6_ligand
                    3D
 Schrodinger Suite 2020-3.
 66 69  0  0  1  0            999 V2000
  -17.1830    8.9290  -11.2810 C   0  0  0  0  0  0
  -17.8400    8.1740  -12.2630 C   0  0  0  0  0  0
  -19.2020    7.9050  -12.2150 F   0  0  0  0  0  0
  -17.1360    7.6610  -13.3370 C   0  0  0  0  0  0
  -15.7800    7.9020  -13.4280 C   0  0  0  0  0  0
  -15.1160    8.6550  -12.4510 C   0  0  0  0  0  0
  -15.8070    9.1820  -11.3590 C   0  0  0  0  0  0
  -15.1520    9.9490  -10.3550 C   0  0  2  0  0  0
  -14.4510    9.0200   -9.2960 C   0  0  0  0  0  0
  -13.4000    7.9810   -9.7610 C   0  0  0  0  0  0
  -13.2310    6.9850   -8.5620 C   0  0  0  0  0  0
  -14.4930    7.1380   -7.7650 C   0  0  0  0  0  0
  -15.4150    8.0860   -8.5660 C   0  0  0  0  0  0
  -16.1300   10.7430   -9.6850 O   0  0  0  0  0  0
  -14.0800   10.9160  -10.9530 C   0  0  1  0  0  0
  -14.7170   12.0530  -11.7510 C   0  0  0  0  0  0
  -13.6260   12.9070  -12.4170 C   0  0  0  0  0  0
  -13.1600   11.5650   -9.9180 C   0  0  0  0  0  0
  -12.1010   12.4340  -10.6240 C   0  0  0  0  0  0
  -12.6880   13.5110  -11.4490 N   0  3  1  0  0  0
  -11.6230   14.2160  -12.1900 C   0  0  0  0  0  0
  -10.5330   14.7730  -11.2620 C   0  0  0  0  0  0
   -9.6950   15.8330  -11.9980 C   0  0  0  0  0  0
  -10.5610   16.8770  -12.4530 O   0  0  0  0  0  0
   -9.9400   17.9950  -12.9140 C   0  0  0  0  0  0
  -10.7230   19.0780  -13.2950 C   0  0  0  0  0  0
  -10.1300   20.2390  -13.7720 C   0  0  0  0  0  0
   -8.7480   20.3190  -13.8710 C   0  0  0  0  0  0
   -8.1490   21.5230  -14.3650 C   0  0  0  0  0  0
   -7.6840   22.4880  -14.7610 N   0  0  0  0  0  0
   -7.9600   19.2360  -13.4910 C   0  0  0  0  0  0
   -8.5550   18.0710  -13.0120 C   0  0  0  0  0  0
  -17.7532    9.3265  -10.4414 H   0  0  0  0  0  0
  -17.6451    7.0741  -14.1015 H   0  0  0  0  0  0
  -15.2181    7.5010  -14.2716 H   0  0  0  0  0  0
  -14.0445    8.8318  -12.5450 H   0  0  0  0  0  0
  -13.9846    9.8130   -8.6929 H   0  0  0  0  0  0
  -13.7670    7.4658  -10.6609 H   0  0  0  0  0  0
  -12.4547    8.4938   -9.9919 H   0  0  0  0  0  0
  -13.1119    5.9622   -8.9490 H   0  0  0  0  0  0
  -12.3410    7.2620   -7.9779 H   0  0  0  0  0  0
  -14.9651    6.1532   -7.6333 H   0  0  0  0  0  0
  -14.2549    7.5652   -6.7797 H   0  0  0  0  0  0
  -16.0704    8.6763   -7.9088 H   0  0  0  0  0  0
  -16.0265    7.5425   -9.3013 H   0  0  0  0  0  0
  -16.9838   10.2598   -9.1874 H   0  0  0  0  0  0
  -13.4648   10.2774  -11.6040 H   0  0  0  0  0  0
  -15.3717   11.6331  -12.5288 H   0  0  0  0  0  0
  -15.3100   12.6874  -11.0759 H   0  0  0  0  0  0
  -13.0375   12.2801  -13.1030 H   0  0  0  0  0  0
  -14.0952   13.7268  -12.9808 H   0  0  0  0  0  0
  -13.7556   12.1977   -9.2435 H   0  0  0  0  0  0
  -12.6543   10.7816   -9.3345 H   0  0  0  0  0  0
  -11.4539   12.9074   -9.8709 H   0  0  0  0  0  0
  -11.4911   11.8026  -11.2868 H   0  0  0  0  0  0
  -13.2123   14.2277  -10.7998 H   0  0  0  0  0  0
  -11.1451   13.5204  -12.8955 H   0  0  0  0  0  0
  -12.0593   15.0593  -12.7454 H   0  0  0  0  0  0
  -11.0025   15.2349  -10.3809 H   0  0  0  0  0  0
   -9.8730   13.9545  -10.9390 H   0  0  0  0  0  0
   -8.9429   16.2478  -11.3108 H   0  0  0  0  0  0
   -9.1897   15.3688  -12.8578 H   0  0  0  0  0  0
  -11.8085   19.0155  -13.2189 H   0  0  0  0  0  0
  -10.7486   21.0862  -14.0682 H   0  0  0  0  0  0
   -6.8746   19.2998  -13.5685 H   0  0  0  0  0  0
   -7.9378   17.2230  -12.7154 H   0  0  0  0  0  0
  1  2  2  0  0  0
  1  7  1  0  0  0
  1 33  1  0  0  0
  2  3  1  0  0  0
  2  4  1  0  0  0
  4  5  2  0  0  0
  4 34  1  0  0  0
  5  6  1  0  0  0
  5 35  1  0  0  0
  6  7  2  0  0  0
  6 36  1  0  0  0
  7  8  1  0  0  0
  8  9  1  0  0  0
  8 14  1  0  0  0
  8 15  1  0  0  0
  9 10  1  0  0  0
  9 13  1  0  0  0
  9 37  1  0  0  0
 10 11  1  0  0  0
 10 38  1  0  0  0
 10 39  1  0  0  0
 11 12  1  0  0  0
 11 40  1  0  0  0
 11 41  1  0  0  0
 12 13  1  0  0  0
 12 42  1  0  0  0
 12 43  1  0  0  0
 13 44  1  0  0  0
 13 45  1  0  0  0
 14 46  1  0  0  0
 15 16  1  0  0  0
 15 18  1  0  0  0
 15 47  1  0  0  0
 16 17  1  0  0  0
 16 48  1  0  0  0
 16 49  1  0  0  0
 17 20  1  0  0  0
 17 50  1  0  0  0
 17 51  1  0  0  0
 18 19  1  0  0  0
 18 52  1  0  0  0
 18 53  1  0  0  0
 19 20  1  0  0  0
 19 54  1  0  0  0
 19 55  1  0  0  0
 20 21  1  0  0  0
 20 56  1  0  0  0
 21 22  1  0  0  0
 21 57  1  0  0  0
 21 58  1  0  0  0
 22 23  1  0  0  0
 22 59  1  0  0  0
 22 60  1  0  0  0
 23 24  1  0  0  0
 23 61  1  0  0  0
 23 62  1  0  0  0
 24 25  1  0  0  0
 25 26  2  0  0  0
 25 32  1  0  0  0
 26 27  1  0  0  0
 26 63  1  0  0  0
 27 28  2  0  0  0
 27 64  1  0  0  0
 28 29  1  0  0  0
 28 31  1  0  0  0
 29 30  3  0  0  0
 31 32  2  0  0  0
 31 65  1  0  0  0
 32 66  1  0  0  0
M  CHG  1  20   1
M  END
> <s_m_source_file>
../4og6_ligand.sdf

> <i_m_source_file_index>
1

> <s_epik_input>
W0NIMl0xW0NIMl1bQ0gyXVtDSDJdW0NIXTFbQ0BdKFtPSF0pKGMoW2NIXWMyRilbY0hdW2NIXVtjSF0yKVtDQEhdM1tDSDJdW0NIMl1bTkBASCtdKFtDSDJdW0NIMl0zKVtDSDJdW0NIMl1bQ0gyXU9jNFtjSF1bY0hdYyhDI04pW2NIXVtjSF00

> <s_epik_cmdline>
J2VwaWtfYXBwJywgJy1pbWFlJywgJ2xpZ2FuZF9wcm8ubWFlJywgJy1vbWFlJywgJ2xpZ2FuZF9wcmVwLm1hZScsICctbXMnLCAnMScsICctcGgnLCAnNycsICctcGh0JywgJzAuNScsICctbnQn

> <r_lp_tautomer_probability>
1

> <r_epik_Ionization_Penalty>
  0.0061

> <r_epik_Ionization_Penalty_Charging>
  0.0061

> <r_epik_Ionization_Penalty_Neutral>
  0.0000

> <r_epik_State_Penalty>
 -0.0000

> <r_epik_Charging_Adjusted_Penalty>
0.00612480020770586

> <i_epik_Tot_Q>
1

> <i_epik_Tot_abs_Q>
1

$$$$
