4og7_ligand
                    3D
 Schrodinger Suite 2020-3.
 69 72  0  0  1  0            999 V2000
  -10.5320   19.1560  -13.1580 C   0  0  0  0  0  0
  -10.0510   20.3970  -13.5670 C   0  0  0  0  0  0
   -8.6830   20.5970  -13.6800 C   0  0  0  0  0  0
   -8.1540   22.2090  -14.2480 S   0  0  0  0  0  0
   -8.2720   22.1950  -15.7240 O   0  0  0  0  0  0
   -6.7790   22.3800  -13.6800 O   0  0  0  0  0  0
   -9.1440   23.2950  -13.6840 N   0  0  0  0  0  0
   -7.7840   19.5760  -13.3710 C   0  0  0  0  0  0
   -8.2740   18.3390  -12.9890 C   0  0  0  0  0  0
   -9.6670   18.1310  -12.8580 C   0  0  0  0  0  0
  -10.2170   16.9590  -12.4950 O   0  0  0  0  0  0
   -9.3850   15.8420  -12.0990 C   0  0  0  0  0  0
  -10.3580   14.9320  -11.3600 C   0  0  0  0  0  0
  -11.1420   14.1630  -12.3970 C   0  0  0  0  0  0
  -12.0540   13.1460  -11.7450 N   0  3  2  0  0  0
  -11.4890   11.9550  -11.0140 C   0  0  0  0  0  0
  -12.5720   11.2430  -10.1720 C   0  0  0  0  0  0
  -13.0120   12.7470  -12.7520 C   0  0  0  0  0  0
  -14.1830   11.9850  -12.1060 C   0  0  0  0  0  0
  -13.6240   10.7700  -11.2940 C   0  0  2  0  0  0
  -14.7560    9.8860  -10.6580 C   0  0  2  0  0  0
  -15.7040    9.3460  -11.7670 C   0  0  0  0  0  0
  -15.1730    8.3510  -12.7450 C   0  0  0  0  0  0
  -16.3980    8.1180  -13.6020 C   0  0  0  0  0  0
  -17.4500    7.9640  -12.5240 C   0  0  0  0  0  0
  -16.9190    8.6750  -11.2780 C   0  0  0  0  0  0
  -15.4530   10.7800   -9.8400 O   0  0  0  0  0  0
  -14.2510    8.8040   -9.8910 C   0  0  0  0  0  0
  -13.2650    8.0210  -10.4200 N   0  0  0  0  0  0
  -12.7440    6.9060   -9.7400 C   0  0  0  0  0  0
  -13.2070    6.6110   -8.4690 C   0  0  0  0  0  0
  -14.2670    7.3850   -7.9350 C   0  0  0  0  0  0
  -14.7550    8.5040   -8.6170 C   0  0  0  0  0  0
  -11.6069   18.9956  -13.0748 H   0  0  0  0  0  0
  -10.7446   21.2058  -13.7968 H   0  0  0  0  0  0
   -8.8289   24.2916  -14.0267 H   0  0  0  0  0  0
   -9.1334   23.2651  -12.5845 H   0  0  0  0  0  0
   -6.7096   19.7500  -13.4296 H   0  0  0  0  0  0
   -7.5826   17.5207  -12.7880 H   0  0  0  0  0  0
   -8.9595   15.3661  -12.9948 H   0  0  0  0  0  0
   -8.5706   16.2022  -11.4532 H   0  0  0  0  0  0
   -9.7957   14.2412  -10.7145 H   0  0  0  0  0  0
  -11.0341   15.5421  -10.7430 H   0  0  0  0  0  0
  -11.7561   14.8613  -12.9846 H   0  0  0  0  0  0
  -10.4462   13.6348  -13.0655 H   0  0  0  0  0  0
  -12.5267   13.6678  -10.8999 H   0  0  0  0  0  0
  -11.0847   11.2361  -11.7418 H   0  0  0  0  0  0
  -10.6851   12.2859  -10.3401 H   0  0  0  0  0  0
  -12.1188   10.4012   -9.6279 H   0  0  0  0  0  0
  -13.0039   11.9545   -9.4528 H   0  0  0  0  0  0
  -13.4030   13.6406  -13.2606 H   0  0  0  0  0  0
  -12.5205   12.0925  -13.4869 H   0  0  0  0  0  0
  -14.7307   12.6587  -11.4306 H   0  0  0  0  0  0
  -14.8620   11.6219  -12.8915 H   0  0  0  0  0  0
  -13.1206   10.1366  -12.0393 H   0  0  0  0  0  0
  -15.9253   10.2899  -12.2867 H   0  0  0  0  0  0
  -14.3276    8.7915  -13.2938 H   0  0  0  0  0  0
  -14.8333    7.4536  -12.2072 H   0  0  0  0  0  0
  -16.5561    8.9857  -14.2593 H   0  0  0  0  0  0
  -16.2510    7.2161  -14.2144 H   0  0  0  0  0  0
  -18.3912    8.4221  -12.8621 H   0  0  0  0  0  0
  -17.6143    6.8953  -12.3219 H   0  0  0  0  0  0
  -16.6520    7.9733  -10.4741 H   0  0  0  0  0  0
  -17.6221    9.4267  -10.8900 H   0  0  0  0  0  0
  -15.9122   11.6800  -10.2749 H   0  0  0  0  0  0
  -11.9839    6.2807  -10.2084 H   0  0  0  0  0  0
  -12.7650    5.7996   -7.8907 H   0  0  0  0  0  0
  -14.7084    7.1041   -6.9788 H   0  0  0  0  0  0
  -15.5186    9.1360   -8.1636 H   0  0  0  0  0  0
  1  2  2  0  0  0
  1 10  1  0  0  0
  1 34  1  0  0  0
  2  3  1  0  0  0
  2 35  1  0  0  0
  3  4  1  0  0  0
  3  8  2  0  0  0
  4  5  2  0  0  0
  4  6  2  0  0  0
  4  7  1  0  0  0
  7 36  1  0  0  0
  7 37  1  0  0  0
  8  9  1  0  0  0
  8 38  1  0  0  0
  9 10  2  0  0  0
  9 39  1  0  0  0
 10 11  1  0  0  0
 11 12  1  0  0  0
 12 13  1  0  0  0
 12 40  1  0  0  0
 12 41  1  0  0  0
 13 14  1  0  0  0
 13 42  1  0  0  0
 13 43  1  0  0  0
 14 15  1  0  0  0
 14 44  1  0  0  0
 14 45  1  0  0  0
 15 16  1  0  0  0
 15 18  1  0  0  0
 15 46  1  0  0  0
 16 17  1  0  0  0
 16 47  1  0  0  0
 16 48  1  0  0  0
 17 20  1  0  0  0
 17 49  1  0  0  0
 17 50  1  0  0  0
 18 19  1  0  0  0
 18 51  1  0  0  0
 18 52  1  0  0  0
 19 20  1  0  0  0
 19 53  1  0  0  0
 19 54  1  0  0  0
 20 21  1  0  0  0
 20 55  1  0  0  0
 21 22  1  0  0  0
 21 27  1  0  0  0
 21 28  1  0  0  0
 22 23  1  0  0  0
 22 26  1  0  0  0
 22 56  1  0  0  0
 23 24  1  0  0  0
 23 57  1  0  0  0
 23 58  1  0  0  0
 24 25  1  0  0  0
 24 59  1  0  0  0
 24 60  1  0  0  0
 25 26  1  0  0  0
 25 61  1  0  0  0
 25 62  1  0  0  0
 26 63  1  0  0  0
 26 64  1  0  0  0
 27 65  1  0  0  0
 28 29  2  0  0  0
 28 33  1  0  0  0
 29 30  1  0  0  0
 30 31  2  0  0  0
 30 66  1  0  0  0
 31 32  1  0  0  0
 31 67  1  0  0  0
 32 33  2  0  0  0
 32 68  1  0  0  0
 33 69  1  0  0  0
M  CHG  1  15   1
M  END
> <s_m_source_file>
../4og7_ligand.sdf

> <i_m_source_file_index>
1

> <s_epik_input>
Tz1TKD1PKShbTkgyXSljMVtjSF1bY0hdYyhbY0hdW2NIXTEpT1tDSDJdW0NIMl1bQ0gyXVtOQEBIK10yW0NIMl1bQ0gyXVtDQEhdKFtDSDJdW0NIMl0yKVtDQEBdKFtPSF0pKFtDSF0zW0NIMl1bQ0gyXVtDSDJdW0NIMl0zKWM0bltjSF1bY0hdW2NIXVtjSF00

> <s_epik_cmdline>
J2VwaWtfYXBwJywgJy1pbWFlJywgJ2xpZ2FuZF9wcm8ubWFlJywgJy1vbWFlJywgJ2xpZ2FuZF9wcmVwLm1hZScsICctbXMnLCAnMScsICctcGgnLCAnNycsICctcGh0JywgJzAuNScsICctbnQn

> <r_lp_tautomer_probability>
1

> <r_epik_Ionization_Penalty>
  0.0068

> <r_epik_Ionization_Penalty_Charging>
  0.0035

> <r_epik_Ionization_Penalty_Neutral>
  0.0034

> <r_epik_State_Penalty>
 -0.0000

> <r_epik_Charging_Adjusted_Penalty>
0.00345210158825503

> <i_epik_Tot_Q>
1

> <i_epik_Tot_abs_Q>
1

$$$$
