4og8_ligand
                    3D
 Schrodinger Suite 2020-3.
 68 71  0  0  1  0            999 V2000
   10.7820   19.1740   13.4280 C   0  0  0  0  0  0
   10.2110   20.3510   13.9100 C   0  0  0  0  0  0
    8.8390   20.4500   13.9770 C   0  0  0  0  0  0
    8.2260   21.6560   14.5220 C   0  0  0  0  0  0
    7.7610   22.5890   14.9450 N   0  0  0  0  0  0
    8.0590   19.4040   13.5550 C   0  0  0  0  0  0
    8.6080   18.1900   13.1160 C   0  0  0  0  0  0
    9.9800   18.1220   13.0120 C   0  0  0  0  0  0
   10.6340   17.0280   12.5580 O   0  0  0  0  0  0
    9.8200   15.9040   12.1510 C   0  0  0  0  0  0
   10.7640   15.0530   11.2760 C   0  0  0  0  0  0
   11.6810   14.3510   12.2700 C   0  0  0  0  0  0
   12.7470   13.5620   11.5280 N   0  3  1  0  0  0
   13.6020   12.8520   12.5240 C   0  0  0  0  0  0
   14.7510   12.0840   11.9470 C   0  0  0  0  0  0
   12.1590   12.5020   10.6870 C   0  0  0  0  0  0
   13.2570   11.7460    9.9150 C   0  0  0  0  0  0
   14.1710   11.0540   10.9750 C   0  0  1  0  0  0
   15.2610   10.0850   10.4250 C   0  0  1  0  0  0
   14.6030    9.0950    9.3890 C   0  0  0  0  0  0
   13.5070    8.2210    9.8380 C   0  0  0  0  0  0
   13.2770    7.2290    8.6950 C   0  0  0  0  0  0
   14.6050    7.2520    7.8880 C   0  0  0  0  0  0
   15.5970    8.1450    8.6890 C   0  0  0  0  0  0
   16.2640   10.9470    9.7180 N   0  3  0  0  0  0
   15.9320    9.3250   11.5220 C   0  0  0  0  0  0
   15.2110    8.7410   12.5550 C   0  0  0  0  0  0
   15.8060    8.0190   13.5720 C   0  0  0  0  0  0
   17.1570    7.7940   13.5730 C   0  0  0  0  0  0
   17.9020    8.3100   12.5450 C   0  0  0  0  0  0
   17.3040    9.0650   11.5260 C   0  0  0  0  0  0
   11.8668   19.0800   13.3778 H   0  0  0  0  0  0
   10.8414   21.1809   14.2292 H   0  0  0  0  0  0
    6.9752   19.5199   13.5609 H   0  0  0  0  0  0
    7.9762   17.3372   12.8678 H   0  0  0  0  0  0
    9.4775   15.3576   13.0421 H   0  0  0  0  0  0
    8.9487   16.2676   11.5865 H   0  0  0  0  0  0
   10.1721   14.3359   10.6883 H   0  0  0  0  0  0
   11.3250   15.7103   10.5953 H   0  0  0  0  0  0
   12.1672   15.0999   12.9124 H   0  0  0  0  0  0
   11.0895   13.6630   12.8919 H   0  0  0  0  0  0
   13.3137   14.2578   10.8918 H   0  0  0  0  0  0
   14.0341   13.5828   13.2234 H   0  0  0  0  0  0
   12.9905   12.1277   13.0820 H   0  0  0  0  0  0
   15.4254   12.7745   11.4193 H   0  0  0  0  0  0
   15.3005   11.5823   12.7572 H   0  0  0  0  0  0
   11.6165   11.7875   11.3236 H   0  0  0  0  0  0
   11.4622   12.9516    9.9642 H   0  0  0  0  0  0
   12.7927   10.9976    9.2559 H   0  0  0  0  0  0
   13.8365   12.4586    9.3097 H   0  0  0  0  0  0
   13.5021   10.3877   11.5395 H   0  0  0  0  0  0
   14.1226    9.8156    8.7108 H   0  0  0  0  0  0
   13.8048    7.7051   10.7627 H   0  0  0  0  0  0
   12.6094    8.8273   10.0293 H   0  0  0  0  0  0
   13.0666    6.2327    9.1110 H   0  0  0  0  0  0
   12.4219    7.5609    8.0879 H   0  0  0  0  0  0
   14.9919    6.2270    7.7895 H   0  0  0  0  0  0
   14.4193    7.6715    6.8882 H   0  0  0  0  0  0
   16.2803    8.7306    8.0564 H   0  0  0  0  0  0
   16.1771    7.5980    9.4468 H   0  0  0  0  0  0
   15.7649   11.5042    8.9115 H   0  0  0  0  0  0
   17.0554   10.3136    9.2907 H   0  0  0  0  0  0
   16.7074   11.6554   10.4332 H   0  0  0  0  0  0
   14.1273    8.8572   12.5641 H   0  0  0  0  0  0
   15.1933    7.6242   14.3824 H   0  0  0  0  0  0
   17.6275    7.2194   14.3708 H   0  0  0  0  0  0
   18.9768    8.1306   12.5191 H   0  0  0  0  0  0
   17.9234    9.4575   10.7195 H   0  0  0  0  0  0
  1  2  2  0  0  0
  1  8  1  0  0  0
  1 32  1  0  0  0
  2  3  1  0  0  0
  2 33  1  0  0  0
  3  4  1  0  0  0
  3  6  2  0  0  0
  4  5  3  0  0  0
  6  7  1  0  0  0
  6 34  1  0  0  0
  7  8  2  0  0  0
  7 35  1  0  0  0
  8  9  1  0  0  0
  9 10  1  0  0  0
 10 11  1  0  0  0
 10 36  1  0  0  0
 10 37  1  0  0  0
 11 12  1  0  0  0
 11 38  1  0  0  0
 11 39  1  0  0  0
 12 13  1  0  0  0
 12 40  1  0  0  0
 12 41  1  0  0  0
 13 14  1  0  0  0
 13 16  1  0  0  0
 13 42  1  0  0  0
 14 15  1  0  0  0
 14 43  1  0  0  0
 14 44  1  0  0  0
 15 18  1  0  0  0
 15 45  1  0  0  0
 15 46  1  0  0  0
 16 17  1  0  0  0
 16 47  1  0  0  0
 16 48  1  0  0  0
 17 18  1  0  0  0
 17 49  1  0  0  0
 17 50  1  0  0  0
 18 19  1  0  0  0
 18 51  1  0  0  0
 19 20  1  0  0  0
 19 25  1  0  0  0
 19 26  1  0  0  0
 20 21  1  0  0  0
 20 24  1  0  0  0
 20 52  1  0  0  0
 21 22  1  0  0  0
 21 53  1  0  0  0
 21 54  1  0  0  0
 22 23  1  0  0  0
 22 55  1  0  0  0
 22 56  1  0  0  0
 23 24  1  0  0  0
 23 57  1  0  0  0
 23 58  1  0  0  0
 24 59  1  0  0  0
 24 60  1  0  0  0
 25 61  1  0  0  0
 25 62  1  0  0  0
 25 63  1  0  0  0
 26 27  2  0  0  0
 26 31  1  0  0  0
 27 28  1  0  0  0
 27 64  1  0  0  0
 28 29  2  0  0  0
 28 65  1  0  0  0
 29 30  1  0  0  0
 29 66  1  0  0  0
 30 31  2  0  0  0
 30 67  1  0  0  0
 31 68  1  0  0  0
M  CHG  2  13   1  25   1
M  END
> <s_m_source_file>
../4og8_ligand.sdf

> <i_m_source_file_index>
1

> <s_epik_input>
TiNDYzFbY0hdW2NIXWMoW2NIXVtjSF0xKU9bQ0gyXVtDSDJdW0NIMl1bTkBIK10yW0NIMl1bQ0gyXVtDQEBIXShbQ0gyXVtDSDJdMilbQ0BdKFtOSDMrXSkoW0NIXTNbQ0gyXVtDSDJdW0NIMl1bQ0gyXTMpYzRbY0hdW2NIXVtjSF1bY0hdW2NIXTQ=

> <s_epik_cmdline>
J2VwaWtfYXBwJywgJy1pbWFlJywgJ2xpZ2FuZF9wcm8ubWFlJywgJy1vbWFlJywgJ2xpZ2FuZF9wcmVwLm1hZScsICctbXMnLCAnMScsICctcGgnLCAnNycsICctcGh0JywgJzAuNScsICctbnQn

> <r_lp_tautomer_probability>
1

> <r_epik_Ionization_Penalty>
  0.0551

> <r_epik_Ionization_Penalty_Charging>
  0.0551

> <r_epik_Ionization_Penalty_Neutral>
  0.0000

> <r_epik_State_Penalty>
 -0.0000

> <r_epik_Charging_Adjusted_Penalty>
0.0551185412983891

> <i_epik_Tot_Q>
2

> <i_epik_Tot_abs_Q>
2

$$$$
