4ogi_ligand
                    3D
 Schrodinger Suite 2020-3.
 78 82  0  0  1  0            999 V2000
   22.0990    6.0260   19.8490 N   0  0  0  0  0  0
   22.5070   10.1000   20.2630 N   0  0  0  0  0  0
   22.9140    6.6980   19.0250 C   0  0  0  0  0  0
   23.1010   10.9070   19.2010 C   0  0  1  0  0  0
   24.1260   10.1460   18.3270 C   0  0  0  0  0  0
   20.1100    6.3900   22.8780 C   0  0  0  0  0  0
   21.8710   10.7090   21.4700 C   0  0  0  0  0  0
   21.2250   10.4220   17.4630 C   0  0  0  0  0  0
   20.0840   11.6290   22.6820 C   0  0  0  0  0  0
   22.3600   12.0530   21.9480 C   0  0  0  0  0  0
   18.5470    5.5890   24.6110 C   0  0  0  0  0  0
   20.1590    7.6070   23.5240 C   0  0  0  0  0  0
   17.9210    7.0110   26.5120 C   0  0  0  0  0  0
   17.3810    8.2810   28.5280 C   0  0  1  0  0  0
   15.6160    9.3840   29.8540 C   0  0  0  0  0  0
   17.7330    8.9730   30.8460 C   0  0  0  0  0  0
   17.1410    6.1350   26.8500 O   0  0  0  0  0  0
   18.0760    8.1570   27.2160 N   0  0  0  0  0  0
   18.4170    8.8800   29.5030 C   0  0  0  0  0  0
   16.6330    9.9120   30.7700 N   0  3  2  0  0  0
   16.0550   10.1460   32.1240 C   0  0  0  0  0  0
   16.1180    9.1120   28.4260 C   0  0  0  0  0  0
   18.6600    6.8400   25.2310 C   0  0  0  0  0  0
   19.2910    5.3770   23.4070 C   0  0  0  0  0  0
   19.2050    4.2010   22.6200 O   0  0  0  0  0  0
   18.2860    3.1510   23.1800 C   0  0  0  0  0  0
   19.4480    7.8460   24.6840 C   0  0  0  0  0  0
   20.7990    6.0180   21.6700 N   0  0  0  0  0  0
   21.5660    6.7780   20.8480 C   0  0  0  0  0  0
   21.7470    8.1050   21.0300 N   0  0  0  0  0  0
   22.4900    8.7540   20.1820 C   0  0  0  0  0  0
   21.4420   12.0980   23.2340 C   0  0  0  0  0  0
   20.3700   10.8670   21.4060 C   0  0  0  0  0  0
   21.9860   11.5050   18.2460 C   0  0  0  0  0  0
   24.8620   10.7910   17.6110 O   0  0  0  0  0  0
   24.1170    8.7740   18.3880 N   0  0  0  0  0  0
   25.0450    7.9440   17.6180 C   0  0  0  0  0  0
   23.1620    8.0730   19.1270 C   0  0  0  0  0  0
   23.4125    6.1434   18.2300 H   0  0  0  0  0  0
   23.6334   11.6620   19.7980 H   0  0  0  0  0  0
   22.2013    9.9245   22.1667 H   0  0  0  0  0  0
   20.4685   10.8970   16.8211 H   0  0  0  0  0  0
   20.7302    9.7387   18.1689 H   0  0  0  0  0  0
   21.9320    9.8557   16.8390 H   0  0  0  0  0  0
   19.5916   10.9808   23.4218 H   0  0  0  0  0  0
   19.4483   12.5038   22.4802 H   0  0  0  0  0  0
   23.4435   12.0049   22.1314 H   0  0  0  0  0  0
   22.1514   12.8132   21.1808 H   0  0  0  0  0  0
   17.9155    4.8057   25.0302 H   0  0  0  0  0  0
   20.7762    8.4031   23.1076 H   0  0  0  0  0  0
   17.0272    7.2937   28.8599 H   0  0  0  0  0  0
   15.2317    8.4297   30.2435 H   0  0  0  0  0  0
   14.7894   10.1048   29.7690 H   0  0  0  0  0  0
   17.3479    7.9827   31.1307 H   0  0  0  0  0  0
   18.4543    9.3170   31.6019 H   0  0  0  0  0  0
   18.6963    8.9847   26.8418 H   0  0  0  0  0  0
   19.2967    8.2215   29.5533 H   0  0  0  0  0  0
   18.7234    9.8746   29.1469 H   0  0  0  0  0  0
   17.0152   10.8641   30.3731 H   0  0  0  0  0  0
   15.2220   10.8604   32.0486 H   0  0  0  0  0  0
   16.8305   10.5557   32.7879 H   0  0  0  0  0  0
   15.6860    9.1945   32.5346 H   0  0  0  0  0  0
   16.3427   10.0593   27.9140 H   0  0  0  0  0  0
   15.3593    8.5574   27.8544 H   0  0  0  0  0  0
   18.2776    2.2771   22.5120 H   0  0  0  0  0  0
   17.2682    3.5602   23.2614 H   0  0  0  0  0  0
   18.6399    2.8476   24.1763 H   0  0  0  0  0  0
   19.5047    8.8205   25.1689 H   0  0  0  0  0  0
   20.7398    4.9841   21.2992 H   0  0  0  0  0  0
   21.3381   13.1103   23.6518 H   0  0  0  0  0  0
   21.7751   11.4080   24.0233 H   0  0  0  0  0  0
   20.0985   11.4260   20.4983 H   0  0  0  0  0  0
   19.8975    9.8740   21.3801 H   0  0  0  0  0  0
   21.2517   12.0639   18.8447 H   0  0  0  0  0  0
   22.4535   12.1809   17.5148 H   0  0  0  0  0  0
   25.7513    8.5900   17.0759 H   0  0  0  0  0  0
   24.4800    7.3333   16.8984 H   0  0  0  0  0  0
   25.6010    7.2851   18.3012 H   0  0  0  0  0  0
  1  3  2  0  0  0
  1 29  1  0  0  0
  2  4  1  0  0  0
  2  7  1  0  0  0
  2 31  1  0  0  0
  3 38  1  0  0  0
  3 39  1  0  0  0
  4  5  1  0  0  0
  4 34  1  0  0  0
  4 40  1  0  0  0
  5 35  2  0  0  0
  5 36  1  0  0  0
  6 12  2  0  0  0
  6 24  1  0  0  0
  6 28  1  0  0  0
  7 10  1  0  0  0
  7 33  1  0  0  0
  7 41  1  0  0  0
  8 34  1  0  0  0
  8 42  1  0  0  0
  8 43  1  0  0  0
  8 44  1  0  0  0
  9 32  1  0  0  0
  9 33  1  0  0  0
  9 45  1  0  0  0
  9 46  1  0  0  0
 10 32  1  0  0  0
 10 47  1  0  0  0
 10 48  1  0  0  0
 11 23  1  0  0  0
 11 24  2  0  0  0
 11 49  1  0  0  0
 12 27  1  0  0  0
 12 50  1  0  0  0
 13 17  2  0  0  0
 13 18  1  0  0  0
 13 23  1  0  0  0
 14 18  1  0  0  0
 14 19  1  0  0  0
 14 22  1  0  0  0
 14 51  1  0  0  0
 15 20  1  0  0  0
 15 22  1  0  0  0
 15 52  1  0  0  0
 15 53  1  0  0  0
 16 19  1  0  0  0
 16 20  1  0  0  0
 16 54  1  0  0  0
 16 55  1  0  0  0
 18 56  1  0  0  0
 19 57  1  0  0  0
 19 58  1  0  0  0
 20 21  1  0  0  0
 20 59  1  0  0  0
 21 60  1  0  0  0
 21 61  1  0  0  0
 21 62  1  0  0  0
 22 63  1  0  0  0
 22 64  1  0  0  0
 23 27  2  0  0  0
 24 25  1  0  0  0
 25 26  1  0  0  0
 26 65  1  0  0  0
 26 66  1  0  0  0
 26 67  1  0  0  0
 27 68  1  0  0  0
 28 29  1  0  0  0
 28 69  1  0  0  0
 29 30  2  0  0  0
 30 31  1  0  0  0
 31 38  2  0  0  0
 32 70  1  0  0  0
 32 71  1  0  0  0
 33 72  1  0  0  0
 33 73  1  0  0  0
 34 74  1  0  0  0
 34 75  1  0  0  0
 36 37  1  0  0  0
 36 38  1  0  0  0
 37 76  1  0  0  0
 37 77  1  0  0  0
 37 78  1  0  0  0
M  CHG  1  20   1
M  END
> <s_m_source_file>
../4ogi_ligand.sdf

> <i_m_source_file_index>
1

> <s_epik_input>
W0NIMl0xW0NIMl1bQ0gyXVtDSDJdW0NIXTFOMltDQEhdKFtDSDJdW0NIM10pQyg9TylOKFtDSDNdKWMoYzIzKVtjSF1uYyhuMylbTkhdYzRbY0hdW2NIXWMoW2NIXWM0T1tDSDNdKUMoPU8pW05IXVtDQEhdNVtDSDJdW0NIMl1bTkBIK10oW0NIM10pW0NIMl1bQ0gyXTU=

> <s_epik_cmdline>
J2VwaWtfYXBwJywgJy1pbWFlJywgJ2xpZ2FuZF9wcm8ubWFlJywgJy1vbWFlJywgJ2xpZ2FuZF9wcmVwLm1hZScsICctbXMnLCAnMScsICctcGgnLCAnNycsICctcGh0JywgJzAuNScsICctbnQn

> <r_lp_tautomer_probability>
0.999999648617923

> <r_epik_Ionization_Penalty>
  0.0476

> <r_epik_Ionization_Penalty_Charging>
  0.0049

> <r_epik_Ionization_Penalty_Neutral>
  0.0426

> <r_epik_State_Penalty>
  0.0356

> <r_epik_Charging_Adjusted_Penalty>
0.0405113066483781

> <i_epik_Tot_Q>
1

> <i_epik_Tot_abs_Q>
1

$$$$
