4ogn_ligand
                    3D
 Schrodinger Suite 2020-3.
 81 85  0  0  1  0            999 V2000
   12.5660  -24.1660   -2.6240 C   0  0  0  0  0  0
   13.5220  -23.4900   -1.8930 C   0  0  0  0  0  0
   15.1880  -23.3730   -2.5060 Cl  0  0  0  0  0  0
   13.2500  -22.8800   -0.6920 C   0  0  0  0  0  0
   11.9170  -22.9570   -0.1690 C   0  0  0  0  0  0
   10.9240  -23.6400   -0.9260 C   0  0  0  0  0  0
   11.2100  -24.2370   -2.1520 C   0  0  0  0  0  0
   10.1090  -24.9740   -2.9860 C   0  0  1  0  0  0
    9.1490  -25.8870   -2.1260 C   0  0  0  0  0  0
    8.2010  -26.6940   -3.0600 C   0  0  1  0  0  0
    8.7640  -27.9110   -3.7870 C   0  0  0  0  0  0
    9.1590  -29.1410   -2.9880 C   0  0  0  0  0  0
    8.3480  -30.2830   -2.9710 C   0  0  0  0  0  0
    8.7200  -31.4270   -2.2510 C   0  0  0  0  0  0
    9.9770  -31.3770   -1.6200 C   0  0  0  0  0  0
   10.5070  -32.6270   -0.8450 C   0  0  0  0  0  0
   11.7200  -32.6400   -0.4680 O   0  5  0  0  0  0
    9.7490  -33.6330   -0.8120 O   0  0  0  0  0  0
   10.7780  -30.2260   -1.7160 C   0  0  0  0  0  0
   10.3710  -29.1460   -2.4290 N   0  0  0  0  0  0
    7.0060  -27.2280   -2.1550 C   0  0  0  0  0  0
    7.4640  -25.7910   -4.0520 C   0  0  0  0  0  0
    6.4500  -26.2440   -4.6380 O   0  0  0  0  0  0
    7.9440  -24.5010   -4.3020 N   0  0  0  0  0  0
    7.1460  -23.5290   -5.1510 C   0  0  1  0  0  0
    6.9420  -24.0820   -6.5160 C   0  0  0  0  0  0
    7.9110  -23.5390   -7.5790 C   0  0  0  0  0  0
    6.4610  -22.9750   -7.5060 C   0  0  0  0  0  0
    5.7330  -23.2520   -4.5080 C   0  0  0  0  0  0
    5.8800  -22.4530   -2.9250 S   0  0  0  0  0  0
    6.2540  -23.5660   -2.0020 O   0  0  0  0  0  0
    6.8090  -21.3090   -3.0840 O   0  0  0  0  0  0
    4.2430  -21.8260   -2.3860 C   0  0  0  0  0  0
    3.8220  -20.6340   -3.2200 C   0  0  0  0  0  0
    4.3680  -21.3100   -0.9730 C   0  0  0  0  0  0
    3.2360  -23.0090   -2.4350 C   0  0  0  0  0  0
    9.1610  -23.9120   -3.6580 C   0  0  2  0  0  0
   10.0440  -22.9790   -4.6060 C   0  0  0  0  0  0
   10.8540  -23.5600   -5.6050 C   0  0  0  0  0  0
   11.6650  -22.6640   -6.3850 C   0  0  0  0  0  0
   11.6920  -21.3110   -6.0950 C   0  0  0  0  0  0
   12.7590  -20.2840   -7.0790 Cl  0  0  0  0  0  0
   10.8850  -20.7280   -5.1370 C   0  0  0  0  0  0
   10.0560  -21.5950   -4.3550 C   0  0  0  0  0  0
   12.8402  -24.6477   -3.5625 H   0  0  0  0  0  0
   14.0312  -22.3487   -0.1483 H   0  0  0  0  0  0
   11.6691  -22.5013    0.7896 H   0  0  0  0  0  0
    9.9084  -23.6978   -0.5345 H   0  0  0  0  0  0
   10.6726  -25.5928   -3.6998 H   0  0  0  0  0  0
    9.7489  -26.5881   -1.5272 H   0  0  0  0  0  0
    8.5456  -25.2563   -1.4565 H   0  0  0  0  0  0
    8.0217  -28.2829   -4.5086 H   0  0  0  0  0  0
    9.6833  -27.6268   -4.3201 H   0  0  0  0  0  0
    7.4108  -30.2822   -3.5276 H   0  0  0  0  0  0
    8.0744  -32.3027   -2.1839 H   0  0  0  0  0  0
   11.7426  -30.2007   -1.2090 H   0  0  0  0  0  0
    7.4040  -27.9033   -1.3833 H   0  0  0  0  0  0
    6.2857  -27.7728   -2.7829 H   0  0  0  0  0  0
    6.5023  -26.3770   -1.6733 H   0  0  0  0  0  0
    7.7473  -22.6127   -5.2443 H   0  0  0  0  0  0
    6.6261  -25.0878   -6.2019 H   0  0  0  0  0  0
    8.7872  -23.0951   -7.0838 H   0  0  0  0  0  0
    8.2368  -24.3616   -8.2326 H   0  0  0  0  0  0
    5.6058  -23.3497   -8.0876 H   0  0  0  0  0  0
    6.1562  -22.0831   -6.9388 H   0  0  0  0  0  0
    5.1488  -22.5995   -5.1736 H   0  0  0  0  0  0
    5.2006  -24.2044   -4.3684 H   0  0  0  0  0  0
    4.5802  -19.8415   -3.1358 H   0  0  0  0  0  0
    2.8547  -20.2561   -2.8574 H   0  0  0  0  0  0
    3.7254  -20.9387   -4.2725 H   0  0  0  0  0  0
    5.0824  -20.4738   -0.9499 H   0  0  0  0  0  0
    4.7274  -22.1175   -0.3182 H   0  0  0  0  0  0
    3.3854  -20.9626   -0.6213 H   0  0  0  0  0  0
    3.1526  -23.3770   -3.4683 H   0  0  0  0  0  0
    2.2504  -22.6661   -2.0872 H   0  0  0  0  0  0
    3.5924  -23.8211   -1.7842 H   0  0  0  0  0  0
    8.6488  -23.3131   -2.8906 H   0  0  0  0  0  0
   10.8645  -24.6362   -5.7773 H   0  0  0  0  0  0
   12.2621  -23.0531   -7.2097 H   0  0  0  0  0  0
   10.8796  -19.6490   -4.9823 H   0  0  0  0  0  0
    9.4322  -21.1812   -3.5627 H   0  0  0  0  0  0
  1  2  2  0  0  0
  1  7  1  0  0  0
  1 45  1  0  0  0
  2  3  1  0  0  0
  2  4  1  0  0  0
  4  5  2  0  0  0
  4 46  1  0  0  0
  5  6  1  0  0  0
  5 47  1  0  0  0
  6  7  2  0  0  0
  6 48  1  0  0  0
  7  8  1  0  0  0
  8  9  1  0  0  0
  8 37  1  0  0  0
  8 49  1  0  0  0
  9 10  1  0  0  0
  9 50  1  0  0  0
  9 51  1  0  0  0
 10 11  1  0  0  0
 10 21  1  0  0  0
 10 22  1  0  0  0
 11 12  1  0  0  0
 11 52  1  0  0  0
 11 53  1  0  0  0
 12 13  2  0  0  0
 12 20  1  0  0  0
 13 14  1  0  0  0
 13 54  1  0  0  0
 14 15  2  0  0  0
 14 55  1  0  0  0
 15 16  1  0  0  0
 15 19  1  0  0  0
 16 17  1  0  0  0
 16 18  2  0  0  0
 19 20  2  0  0  0
 19 56  1  0  0  0
 21 57  1  0  0  0
 21 58  1  0  0  0
 21 59  1  0  0  0
 22 23  2  0  0  0
 22 24  1  0  0  0
 24 25  1  0  0  0
 24 37  1  0  0  0
 25 26  1  0  0  0
 25 29  1  0  0  0
 25 60  1  0  0  0
 26 27  1  0  0  0
 26 28  1  0  0  0
 26 61  1  0  0  0
 27 28  1  0  0  0
 27 62  1  0  0  0
 27 63  1  0  0  0
 28 64  1  0  0  0
 28 65  1  0  0  0
 29 30  1  0  0  0
 29 66  1  0  0  0
 29 67  1  0  0  0
 30 31  2  0  0  0
 30 32  2  0  0  0
 30 33  1  0  0  0
 33 34  1  0  0  0
 33 35  1  0  0  0
 33 36  1  0  0  0
 34 68  1  0  0  0
 34 69  1  0  0  0
 34 70  1  0  0  0
 35 71  1  0  0  0
 35 72  1  0  0  0
 35 73  1  0  0  0
 36 74  1  0  0  0
 36 75  1  0  0  0
 36 76  1  0  0  0
 37 38  1  0  0  0
 37 77  1  0  0  0
 38 39  2  0  0  0
 38 44  1  0  0  0
 39 40  1  0  0  0
 39 78  1  0  0  0
 40 41  2  0  0  0
 40 79  1  0  0  0
 41 42  1  0  0  0
 41 43  1  0  0  0
 43 44  2  0  0  0
 43 80  1  0  0  0
 44 81  1  0  0  0
M  CHG  1  17  -1
M  END
> <s_m_source_file>
../4ogn_ligand.sdf

> <i_m_source_file_index>
1

> <s_epik_input>
W0NIM11DKFtDSDNdKShbQ0gzXSlTKD1PKSg9TylbQ0gyXVtDQEhdKFtDSF0xW0NIMl1bQ0gyXTEpTihDMj1PKVtDQEhdKGMzW2NIXVtjSF1jKENsKVtjSF1bY0hdMylbQ0BASF0oYyhbY0hdYzRDbClbY0hdW2NIXVtjSF00KVtDSDJdW0NAXTIoW0NIM10pW0NIMl1jNVtjSF1bY0hdYyhbY0hdbjUpQyg9TylbT0hd

> <s_epik_cmdline>
J2VwaWtfYXBwJywgJy1pbWFlJywgJ2xpZ2FuZF9wcm8ubWFlJywgJy1vbWFlJywgJ2xpZ2FuZF9wcmVwLm1hZScsICctbXMnLCAnMScsICctcGgnLCAnNycsICctcGh0JywgJzAuNScsICctbnQn

> <r_epik_Ionization_Penalty>
  0.0144

> <r_epik_Ionization_Penalty_Charging>
  0.0002

> <r_epik_Ionization_Penalty_Neutral>
  0.0142

> <r_epik_State_Penalty>
  0.0111

> <r_epik_Charging_Adjusted_Penalty>
0.0113332477982198

> <i_epik_Tot_Q>
-1

> <i_epik_Tot_abs_Q>
1

$$$$
