4ogt_ligand
                    3D
 Schrodinger Suite 2020-3.
 79 83  0  0  1  0            999 V2000
  -12.5400   23.7530   -2.4070 C   0  0  0  0  0  0
  -13.5440   23.1710   -1.6290 C   0  0  0  0  0  0
  -15.1650   23.0720   -2.2480 Cl  0  0  0  0  0  0
  -13.2560   22.6740   -0.3580 C   0  0  0  0  0  0
  -11.9570   22.7590    0.1350 C   0  0  0  0  0  0
  -10.9570   23.3390   -0.6490 C   0  0  0  0  0  0
  -11.2360   23.8390   -1.9210 C   0  0  0  0  0  0
  -10.1130   24.4780   -2.7680 C   0  0  1  0  0  0
   -9.2820   25.3540   -1.9830 O   0  0  0  0  0  0
   -8.2990   26.0120   -2.7990 C   0  0  1  0  0  0
   -8.7340   27.2590   -3.5740 C   0  0  0  0  0  0
   -9.1580   28.4970   -2.7550 C   0  0  0  0  0  0
   -8.2730   29.5740   -2.7330 C   0  0  0  0  0  0
   -8.5900   30.7230   -2.0250 C   0  0  0  0  0  0
   -9.8090   30.7720   -1.3700 C   0  0  0  0  0  0
  -10.1850   32.0350   -0.5950 C   0  0  0  0  0  0
  -11.3140   32.0780   -0.0570 O   0  0  0  0  0  0
   -9.3560   32.9730   -0.5890 O   0  5  0  0  0  0
  -10.6680   29.6750   -1.4320 C   0  0  0  0  0  0
  -10.3360   28.5820   -2.1160 N   0  0  0  0  0  0
   -7.2520   26.4550   -1.7760 C   0  0  0  0  0  0
   -7.5070   25.0460   -3.6760 C   0  0  0  0  0  0
   -6.4360   25.4430   -4.1340 O   0  0  0  0  0  0
   -7.9650   23.7400   -3.9320 N   0  0  0  0  0  0
   -7.0610   22.7890   -4.6520 C   0  0  1  0  0  0
   -6.7390   23.0730   -6.1250 C   0  0  0  0  0  0
   -6.8780   21.8620   -7.0350 C   0  0  0  0  0  0
   -7.8970   23.0120   -7.1160 C   0  0  0  0  0  0
   -5.7460   22.5670   -3.8730 C   0  0  0  0  0  0
   -5.9940   21.8330   -2.2280 S   0  0  0  0  0  0
   -6.6700   20.5050   -2.3830 O   0  0  0  0  0  0
   -6.8550   22.7320   -1.3900 O   0  0  0  0  0  0
   -4.3890   21.6230   -1.3690 C   0  0  0  0  0  0
   -4.6480   20.9110   -0.0470 C   0  0  0  0  0  0
   -3.7600   22.9940   -1.1170 C   0  0  0  0  0  0
   -3.4640   20.7660   -2.2240 C   0  0  0  0  0  0
   -9.2510   23.3060   -3.3250 C   0  0  2  0  0  0
  -10.1150   22.4140   -4.2400 C   0  0  0  0  0  0
  -10.7640   22.9960   -5.3250 C   0  0  0  0  0  0
  -11.5660   22.2250   -6.1580 C   0  0  0  0  0  0
  -11.7300   20.8730   -5.8910 C   0  0  0  0  0  0
  -12.7360   19.9160   -6.9260 Cl  0  0  0  0  0  0
  -11.0900   20.2880   -4.8050 C   0  0  0  0  0  0
  -10.2860   21.0610   -3.9720 C   0  0  0  0  0  0
  -12.7770   24.1412   -3.3975 H   0  0  0  0  0  0
  -14.0431   22.2219    0.2454 H   0  0  0  0  0  0
  -11.7214   22.3750    1.1275 H   0  0  0  0  0  0
   -9.9407   23.4020   -0.2600 H   0  0  0  0  0  0
  -10.5216   25.1482   -3.5386 H   0  0  0  0  0  0
   -7.9055   27.6024   -4.2110 H   0  0  0  0  0  0
   -9.6032   27.0154   -4.2026 H   0  0  0  0  0  0
   -7.3288   29.5125   -3.2742 H   0  0  0  0  0  0
   -7.8986   31.5647   -1.9850 H   0  0  0  0  0  0
  -11.6256   29.7130   -0.9127 H   0  0  0  0  0  0
   -7.7061   27.1676   -1.0717 H   0  0  0  0  0  0
   -6.4123   26.9386   -2.2967 H   0  0  0  0  0  0
   -6.8846   25.5774   -1.2239 H   0  0  0  0  0  0
   -7.7057   21.8980   -4.6749 H   0  0  0  0  0  0
   -5.9599   23.8218   -5.9190 H   0  0  0  0  0  0
   -5.9784   21.7687   -7.6611 H   0  0  0  0  0  0
   -6.9947   20.9552   -6.4234 H   0  0  0  0  0  0
   -8.8504   23.0525   -6.5688 H   0  0  0  0  0  0
   -7.8340   23.8659   -7.8065 H   0  0  0  0  0  0
   -5.0930   21.8886   -4.4417 H   0  0  0  0  0  0
   -5.2370   23.5317   -3.7302 H   0  0  0  0  0  0
   -5.3156   21.5249    0.5754 H   0  0  0  0  0  0
   -3.6945   20.7571    0.4795 H   0  0  0  0  0  0
   -5.1208   19.9370   -0.2416 H   0  0  0  0  0  0
   -4.4384   23.6007   -0.4992 H   0  0  0  0  0  0
   -3.5876   23.5006   -2.0781 H   0  0  0  0  0  0
   -2.8015   22.8668   -0.5924 H   0  0  0  0  0  0
   -3.9292   19.7843   -2.3966 H   0  0  0  0  0  0
   -2.5044   20.6306   -1.7035 H   0  0  0  0  0  0
   -3.2905   21.2644   -3.1892 H   0  0  0  0  0  0
   -8.8724   22.6917   -2.4947 H   0  0  0  0  0  0
  -10.6427   24.0611   -5.5223 H   0  0  0  0  0  0
  -12.0629   22.6791   -7.0153 H   0  0  0  0  0  0
  -11.2175   19.2240   -4.6055 H   0  0  0  0  0  0
   -9.7924   20.6069   -3.1128 H   0  0  0  0  0  0
  1  2  2  0  0  0
  1  7  1  0  0  0
  1 45  1  0  0  0
  2  3  1  0  0  0
  2  4  1  0  0  0
  4  5  2  0  0  0
  4 46  1  0  0  0
  5  6  1  0  0  0
  5 47  1  0  0  0
  6  7  2  0  0  0
  6 48  1  0  0  0
  7  8  1  0  0  0
  8  9  1  0  0  0
  8 37  1  0  0  0
  8 49  1  0  0  0
  9 10  1  0  0  0
 10 11  1  0  0  0
 10 21  1  0  0  0
 10 22  1  0  0  0
 11 12  1  0  0  0
 11 50  1  0  0  0
 11 51  1  0  0  0
 12 13  2  0  0  0
 12 20  1  0  0  0
 13 14  1  0  0  0
 13 52  1  0  0  0
 14 15  2  0  0  0
 14 53  1  0  0  0
 15 16  1  0  0  0
 15 19  1  0  0  0
 16 17  2  0  0  0
 16 18  1  0  0  0
 19 20  2  0  0  0
 19 54  1  0  0  0
 21 55  1  0  0  0
 21 56  1  0  0  0
 21 57  1  0  0  0
 22 23  2  0  0  0
 22 24  1  0  0  0
 24 25  1  0  0  0
 24 37  1  0  0  0
 25 26  1  0  0  0
 25 29  1  0  0  0
 25 58  1  0  0  0
 26 27  1  0  0  0
 26 28  1  0  0  0
 26 59  1  0  0  0
 27 28  1  0  0  0
 27 60  1  0  0  0
 27 61  1  0  0  0
 28 62  1  0  0  0
 28 63  1  0  0  0
 29 30  1  0  0  0
 29 64  1  0  0  0
 29 65  1  0  0  0
 30 31  2  0  0  0
 30 32  2  0  0  0
 30 33  1  0  0  0
 33 34  1  0  0  0
 33 35  1  0  0  0
 33 36  1  0  0  0
 34 66  1  0  0  0
 34 67  1  0  0  0
 34 68  1  0  0  0
 35 69  1  0  0  0
 35 70  1  0  0  0
 35 71  1  0  0  0
 36 72  1  0  0  0
 36 73  1  0  0  0
 36 74  1  0  0  0
 37 38  1  0  0  0
 37 75  1  0  0  0
 38 39  2  0  0  0
 38 44  1  0  0  0
 39 40  1  0  0  0
 39 76  1  0  0  0
 40 41  2  0  0  0
 40 77  1  0  0  0
 41 42  1  0  0  0
 41 43  1  0  0  0
 43 44  2  0  0  0
 43 78  1  0  0  0
 44 79  1  0  0  0
M  CHG  1  18  -1
M  END
> <s_m_source_file>
../4ogt_ligand.sdf

> <i_m_source_file_index>
1

> <s_epik_input>
W0NIM11DKFtDSDNdKShbQ0gzXSlTKD1PKSg9TylbQ0gyXVtDQEhdKFtDSF0xW0NIMl1bQ0gyXTEpTihDMj1PKVtDQEhdKGMzW2NIXVtjSF1jKENsKVtjSF1bY0hdMylbQ0BASF0oYyhbY0hdYzRDbClbY0hdW2NIXVtjSF00KU9bQ0BdMihbQ0gzXSlbQ0gyXWM1W2NIXVtjSF1jKFtjSF1uNSlDKD1PKVtPSF0=

> <s_epik_cmdline>
J2VwaWtfYXBwJywgJy1pbWFlJywgJ2xpZ2FuZF9wcm8ubWFlJywgJy1vbWFlJywgJ2xpZ2FuZF9wcmVwLm1hZScsICctbXMnLCAnMScsICctcGgnLCAnNycsICctcGh0JywgJzAuNScsICctbnQn

> <r_epik_Ionization_Penalty>
  0.0373

> <r_epik_Ionization_Penalty_Charging>
  0.0002

> <r_epik_Ionization_Penalty_Neutral>
  0.0371

> <r_epik_State_Penalty>
  0.0310

> <r_epik_Charging_Adjusted_Penalty>
0.0312745975135779

> <i_epik_Tot_Q>
-1

> <i_epik_Tot_abs_Q>
1

$$$$
