4ogv_ligand
                    3D
 Schrodinger Suite 2020-3.
 66 68  0  0  1  0            999 V2000
   15.9080    1.9380  -37.5460 C   0  0  0  0  0  0
   16.9120    2.8970  -37.6330 C   0  0  0  0  0  0
   16.5590    4.4530  -38.2960 Cl  0  0  0  0  0  0
   18.2030    2.6090  -37.1890 C   0  0  0  0  0  0
   18.4980    1.3610  -36.6490 C   0  0  0  0  0  0
   17.4980    0.3930  -36.5610 C   0  0  0  0  0  0
   16.2030    0.6890  -37.0070 C   0  0  0  0  0  0
   15.0940   -0.3530  -36.9080 C   0  0  1  0  0  0
   15.5610   -1.6050  -37.4130 O   0  0  0  0  0  0
   14.4470   -2.4190  -37.7500 C   0  0  1  0  0  0
   15.0040   -3.7640  -38.2260 C   0  0  0  0  0  0
   15.4100   -3.6390  -39.6890 C   0  0  0  0  0  0
   16.6340   -3.6650  -39.9470 O   0  0  0  0  0  0
   14.4770   -3.4740  -40.5070 O   0  5  0  0  0  0
   13.6010   -2.6170  -36.5020 C   0  0  0  0  0  0
   12.8580   -3.5910  -36.4700 O   0  0  0  0  0  0
   13.6670   -1.7020  -35.4120 N   0  0  0  0  0  0
   12.8560   -1.9470  -34.1940 C   0  0  1  0  0  0
   11.3800   -1.6480  -34.4670 C   0  0  0  0  0  0
   10.6620   -1.1720  -33.2140 C   0  0  0  0  0  0
   12.9970   -3.4090  -33.7470 C   0  0  0  0  0  0
   14.6870   -3.8820  -33.2290 S   0  0  0  0  0  0
   15.6820   -3.6220  -34.3230 O   0  0  0  0  0  0
   15.0180   -3.0320  -32.0350 O   0  0  0  0  0  0
   14.7170   -5.6680  -32.7660 C   0  0  0  0  0  0
   13.3790   -6.0750  -32.1290 C   0  0  0  0  0  0
   14.9800   -6.5350  -34.0010 C   0  0  0  0  0  0
   15.8410   -5.8920  -31.7560 C   0  0  0  0  0  0
   14.5700   -0.5220  -35.4750 C   0  0  2  0  0  0
   13.8680    0.8010  -35.1040 C   0  0  0  0  0  0
   12.8160    1.3070  -35.8780 C   0  0  0  0  0  0
   12.1990    2.5140  -35.5410 C   0  0  0  0  0  0
   12.6520    3.2150  -34.4260 C   0  0  0  0  0  0
   11.9190    4.7180  -33.9960 Cl  0  0  0  0  0  0
   13.7000    2.7200  -33.6520 C   0  0  0  0  0  0
   14.3130    1.5150  -33.9980 C   0  0  0  0  0  0
   14.9005    2.1624  -37.8964 H   0  0  0  0  0  0
   18.9842    3.3653  -37.2655 H   0  0  0  0  0  0
   19.5057    1.1411  -36.2965 H   0  0  0  0  0  0
   17.7228   -0.5899  -36.1469 H   0  0  0  0  0  0
   14.2627   -0.0535  -37.5631 H   0  0  0  0  0  0
   13.8663   -1.9058  -38.5307 H   0  0  0  0  0  0
   15.8804   -4.0337  -37.6183 H   0  0  0  0  0  0
   14.2311   -4.5394  -38.1192 H   0  0  0  0  0  0
   13.2440   -1.2673  -33.4210 H   0  0  0  0  0  0
   11.3006   -0.8613  -35.2317 H   0  0  0  0  0  0
   10.8814   -2.5603  -34.8264 H   0  0  0  0  0  0
    9.6073   -0.9683  -33.4508 H   0  0  0  0  0  0
   11.1392   -0.2522  -32.8450 H   0  0  0  0  0  0
   10.7201   -1.9512  -32.4398 H   0  0  0  0  0  0
   12.3346   -3.5955  -32.8888 H   0  0  0  0  0  0
   12.7180   -4.0748  -34.5770 H   0  0  0  0  0  0
   12.5653   -5.9159  -32.8519 H   0  0  0  0  0  0
   13.1983   -5.4631  -31.2330 H   0  0  0  0  0  0
   13.4157   -7.1374  -31.8462 H   0  0  0  0  0  0
   14.1755   -6.3809  -34.7352 H   0  0  0  0  0  0
   15.0092   -7.5943  -33.7059 H   0  0  0  0  0  0
   15.9442   -6.2524  -34.4488 H   0  0  0  0  0  0
   15.6614   -5.2733  -30.8644 H   0  0  0  0  0  0
   16.8029   -5.6111  -32.2096 H   0  0  0  0  0  0
   15.8679   -6.9529  -31.4667 H   0  0  0  0  0  0
   15.3603   -0.7501  -34.7447 H   0  0  0  0  0  0
   12.4752    0.7530  -36.7526 H   0  0  0  0  0  0
   11.3758    2.9013  -36.1413 H   0  0  0  0  0  0
   14.0406    3.2737  -32.7770 H   0  0  0  0  0  0
   15.1411    1.1337  -33.4005 H   0  0  0  0  0  0
  1  2  2  0  0  0
  1  7  1  0  0  0
  1 37  1  0  0  0
  2  3  1  0  0  0
  2  4  1  0  0  0
  4  5  2  0  0  0
  4 38  1  0  0  0
  5  6  1  0  0  0
  5 39  1  0  0  0
  6  7  2  0  0  0
  6 40  1  0  0  0
  7  8  1  0  0  0
  8  9  1  0  0  0
  8 29  1  0  0  0
  8 41  1  0  0  0
  9 10  1  0  0  0
 10 11  1  0  0  0
 10 15  1  0  0  0
 10 42  1  0  0  0
 11 12  1  0  0  0
 11 43  1  0  0  0
 11 44  1  0  0  0
 12 13  2  0  0  0
 12 14  1  0  0  0
 15 16  2  0  0  0
 15 17  1  0  0  0
 17 18  1  0  0  0
 17 29  1  0  0  0
 18 19  1  0  0  0
 18 21  1  0  0  0
 18 45  1  0  0  0
 19 20  1  0  0  0
 19 46  1  0  0  0
 19 47  1  0  0  0
 20 48  1  0  0  0
 20 49  1  0  0  0
 20 50  1  0  0  0
 21 22  1  0  0  0
 21 51  1  0  0  0
 21 52  1  0  0  0
 22 23  2  0  0  0
 22 24  2  0  0  0
 22 25  1  0  0  0
 25 26  1  0  0  0
 25 27  1  0  0  0
 25 28  1  0  0  0
 26 53  1  0  0  0
 26 54  1  0  0  0
 26 55  1  0  0  0
 27 56  1  0  0  0
 27 57  1  0  0  0
 27 58  1  0  0  0
 28 59  1  0  0  0
 28 60  1  0  0  0
 28 61  1  0  0  0
 29 30  1  0  0  0
 29 62  1  0  0  0
 30 31  2  0  0  0
 30 36  1  0  0  0
 31 32  1  0  0  0
 31 63  1  0  0  0
 32 33  2  0  0  0
 32 64  1  0  0  0
 33 34  1  0  0  0
 33 35  1  0  0  0
 35 36  2  0  0  0
 35 65  1  0  0  0
 36 66  1  0  0  0
M  CHG  1  14  -1
M  END
> <s_m_source_file>
../4ogv_ligand.sdf

> <i_m_source_file_index>
1

> <s_epik_input>
Q2xjMVtjSF1jKFtjSF1bY0hdW2NIXTEpW0NASF0yT1tDQEBIXShbQ0gyXUMoPU8pW09IXSlDKD1PKU4oW0NAQEhdKFtDSDJdW0NIM10pW0NIMl1TKD1PKSg9TylDKFtDSDNdKShbQ0gzXSlbQ0gzXSlbQ0BASF0yYzNbY0hdW2NIXWMoQ2wpW2NIXVtjSF0z

> <s_epik_cmdline>
J2VwaWtfYXBwJywgJy1pbWFlJywgJ2xpZ2FuZF9wcm8ubWFlJywgJy1vbWFlJywgJ2xpZ2FuZF9wcmVwLm1hZScsICctbXMnLCAnMScsICctcGgnLCAnNycsICctcGh0JywgJzAuNScsICctbnQn

> <r_lp_tautomer_probability>
1

> <r_epik_Ionization_Penalty>
  0.0014

> <r_epik_Ionization_Penalty_Charging>
  0.0014

> <r_epik_Ionization_Penalty_Neutral>
  0.0000

> <r_epik_State_Penalty>
 -0.0000

> <r_epik_Charging_Adjusted_Penalty>
0.00137923903890968

> <i_epik_Tot_Q>
-1

> <i_epik_Tot_abs_Q>
1

$$$$
