4oho_ligand
                    3D
 Schrodinger Suite 2020-3.
 52 54  0  0  1  0            999 V2000
   44.6010  -20.8990  -15.5290 C   0  0  0  0  0  0
   45.2760  -19.7130  -15.7530 C   0  0  0  0  0  0
   45.0620  -18.6700  -14.8840 C   0  0  0  0  0  0
   45.7030  -17.5230  -15.0590 N   0  0  0  0  0  0
   44.2250  -18.8150  -13.8280 N   0  0  0  0  0  0
   43.5680  -19.9270  -13.5860 C   0  0  0  0  0  0
   43.7330  -20.9970  -14.4420 C   0  0  0  0  0  0
   42.8310  -22.4490  -14.1510 S   0  0  0  0  0  0
   42.4910  -22.5300  -12.7160 O   0  0  0  0  0  0
   43.6780  -23.5980  -14.5690 O   0  0  0  0  0  0
   41.4470  -22.3850  -14.9290 N   0  0  1  0  0  0
   40.8640  -21.0630  -14.7090 C   0  0  0  0  0  0
   39.4890  -20.9720  -15.4040 C   0  0  2  0  0  0
   38.5500  -21.8820  -14.6810 C   0  0  0  0  0  0
   37.7580  -22.6840  -14.2190 C   0  0  0  0  0  0
   36.9090  -23.7100  -13.6130 C   0  0  0  0  0  0
   41.7080  -22.6040  -16.3310 C   0  0  0  0  0  0
   40.3800  -22.6630  -17.0680 C   0  0  0  0  0  0
   39.5450  -21.4960  -16.7650 N   0  0  0  0  0  0
   38.5700  -21.1010  -17.6490 C   0  0  0  0  0  0
   38.5490  -21.5070  -18.9720 C   0  0  0  0  0  0
   37.5490  -21.0810  -19.8370 C   0  0  0  0  0  0
   37.5400  -20.3150  -17.1900 C   0  0  0  0  0  0
   36.5350  -19.9060  -18.0540 C   0  0  0  0  0  0
   36.5310  -20.2740  -19.3690 C   0  0  0  0  0  0
   35.2470  -19.7270  -20.3750 S   0  0  1  0  0  0
   35.2100  -20.6820  -21.9290 C   0  0  0  0  0  0
   34.0030  -20.7000  -22.6340 F   0  0  0  0  0  0
   35.5250  -21.9830  -21.7170 F   0  0  0  0  0  0
   36.2150  -20.0000  -22.5170 F   0  0  0  0  0  0
   33.9700  -20.0350  -19.6770 O   0  0  0  0  0  0
   35.2930  -18.1450  -20.6580 N   0  0  0  0  0  0
   44.7460  -21.7490  -16.1957 H   0  0  0  0  0  0
   45.9592  -19.6083  -16.5958 H   0  0  0  0  0  0
   46.3839  -17.3983  -15.9139 H   0  0  0  0  0  0
   45.5541  -16.6959  -14.3493 H   0  0  0  0  0  0
   42.9045  -20.0030  -12.7245 H   0  0  0  0  0  0
   40.7365  -20.8935  -13.6296 H   0  0  0  0  0  0
   41.5318  -20.2940  -15.1245 H   0  0  0  0  0  0
   39.1515  -19.9258  -15.4431 H   0  0  0  0  0  0
   35.8553  -23.5002  -13.8488 H   0  0  0  0  0  0
   37.0488  -23.7041  -12.5219 H   0  0  0  0  0  0
   37.1847  -24.6970  -14.0127 H   0  0  0  0  0  0
   42.3179  -21.7772  -16.7239 H   0  0  0  0  0  0
   42.2500  -23.5526  -16.4593 H   0  0  0  0  0  0
   40.5632  -22.6879  -18.1523 H   0  0  0  0  0  0
   39.8338  -23.5693  -16.7676 H   0  0  0  0  0  0
   39.3299  -22.1719  -19.3412 H   0  0  0  0  0  0
   37.5679  -21.3835  -20.8840 H   0  0  0  0  0  0
   37.5129  -20.0120  -16.1433 H   0  0  0  0  0  0
   35.7301  -19.2765  -17.6747 H   0  0  0  0  0  0
   35.2987  -17.7713  -21.6926 H   0  0  0  0  0  0
  1  2  2  0  0  0
  1  7  1  0  0  0
  1 33  1  0  0  0
  2  3  1  0  0  0
  2 34  1  0  0  0
  3  4  1  0  0  0
  3  5  2  0  0  0
  4 35  1  0  0  0
  4 36  1  0  0  0
  5  6  1  0  0  0
  6  7  2  0  0  0
  6 37  1  0  0  0
  7  8  1  0  0  0
  8  9  2  0  0  0
  8 10  2  0  0  0
  8 11  1  0  0  0
 11 12  1  0  0  0
 11 17  1  0  0  0
 12 13  1  0  0  0
 12 38  1  0  0  0
 12 39  1  0  0  0
 13 14  1  0  0  0
 13 19  1  0  0  0
 13 40  1  0  0  0
 14 15  3  0  0  0
 15 16  1  0  0  0
 16 41  1  0  0  0
 16 42  1  0  0  0
 16 43  1  0  0  0
 17 18  1  0  0  0
 17 44  1  0  0  0
 17 45  1  0  0  0
 18 19  1  0  0  0
 18 46  1  0  0  0
 18 47  1  0  0  0
 19 20  1  0  0  0
 20 21  2  0  0  0
 20 23  1  0  0  0
 21 22  1  0  0  0
 21 48  1  0  0  0
 22 25  2  0  0  0
 22 49  1  0  0  0
 23 24  2  0  0  0
 23 50  1  0  0  0
 24 25  1  0  0  0
 24 51  1  0  0  0
 25 26  1  0  0  0
 26 27  1  0  0  0
 26 31  2  0  0  0
 26 32  2  0  0  0
 27 28  1  0  0  0
 27 29  1  0  0  0
 27 30  1  0  0  0
 32 52  1  0  0  0
M  END
> <s_m_source_file>
../4oho_ligand.sdf

> <i_m_source_file_index>
1

> <s_epik_input>
W05IMl1jMVtjSF1bY0hdYyhbY0hdbjEpUyg9TykoPU8pTjJbQ0gyXVtDQEhdKEMjQ1tDSDNdKU4oW0NIMl1bQ0gyXTIpYzNbY0hdW2NIXWMoW2NIXVtjSF0zKVtTQF0oPU8pKEMoRikoRilGKT1bTkhd

> <s_epik_cmdline>
J2VwaWtfYXBwJywgJy1pbWFlJywgJ2xpZ2FuZF9wcm8ubWFlJywgJy1vbWFlJywgJ2xpZ2FuZF9wcmVwLm1hZScsICctbXMnLCAnMScsICctcGgnLCAnNycsICctcGh0JywgJzAuNScsICctbnQn

> <r_lp_tautomer_probability>
1

> <r_epik_Ionization_Penalty>
  0.0001

> <r_epik_Ionization_Penalty_Charging>
  0.0000

> <r_epik_Ionization_Penalty_Neutral>
  0.0001

> <r_epik_State_Penalty>
 -0.0000

> <r_epik_Charging_Adjusted_Penalty>
0

> <i_epik_Tot_Q>
0

> <i_epik_Tot_abs_Q>
0

$$$$
