4ojq_ligand
                    3D
 Schrodinger Suite 2020-3.
 20 21  0  0  1  0            999 V2000
  -16.0640  -32.0090   35.8060 O   0  0  0  0  0  0
  -16.7190  -31.0290   36.1060 C   0  0  0  0  0  0
  -17.0260  -30.8190   37.3950 O   0  5  0  0  0  0
  -17.2010  -30.0440   35.0540 C   0  0  0  0  0  0
  -17.8360  -30.7270   33.8640 C   0  0  0  0  0  0
  -18.7830  -31.8340   33.9370 C   0  0  0  0  0  0
  -19.3290  -32.5310   35.0100 C   0  0  0  0  0  0
  -20.2050  -33.5600   34.7860 C   0  0  0  0  0  0
  -20.8930  -34.4900   36.3000 Br  0  0  0  0  0  0
  -17.6550  -30.4600   32.5560 C   0  0  0  0  0  0
  -18.4300  -31.3080   31.7910 N   0  0  0  0  0  0
  -19.1250  -32.1690   32.6140 C   0  0  0  0  0  0
  -20.0150  -33.2150   32.3970 C   0  0  0  0  0  0
  -20.5500  -33.8950   33.4740 C   0  0  0  0  0  0
  -17.9509  -29.3721   35.4970 H   0  0  0  0  0  0
  -16.3490  -29.4521   34.6882 H   0  0  0  0  0  0
  -19.0565  -32.2549   36.0393 H   0  0  0  0  0  0
  -17.0160  -29.7090   32.0685 H   0  0  0  0  0  0
  -20.2908  -33.4985   31.3706 H   0  0  0  0  0  0
  -21.2543  -34.7079   33.2970 H   0  0  0  0  0  0
  1  2  2  0  0  0
  2  3  1  0  0  0
  2  4  1  0  0  0
  4  5  1  0  0  0
  4 15  1  0  0  0
  4 16  1  0  0  0
  5  6  2  0  0  0
  5 10  1  0  0  0
  6  7  1  0  0  0
  6 12  1  0  0  0
  7  8  2  0  0  0
  7 17  1  0  0  0
  8  9  1  0  0  0
  8 14  1  0  0  0
 10 11  2  0  0  0
 10 18  1  0  0  0
 11 12  1  0  0  0
 12 13  2  0  0  0
 13 14  1  0  0  0
 13 19  1  0  0  0
 14 20  1  0  0  0
M  CHG  1   3  -1
M  END
> <s_m_source_file>
../4ojq_ligand.sdf

> <i_m_source_file_index>
1

> <s_epik_input>
Tz1DKFtPSF0pW0NIMl1DPTFbQ0hdPU5DKEMxMik9W0NIXVtDSDJdQyhCcik9W0NIXTI=

> <s_epik_cmdline>
J2VwaWtfYXBwJywgJy1pbWFlJywgJ2xpZ2FuZF9wcm8ubWFlJywgJy1vbWFlJywgJ2xpZ2FuZF9wcmVwLm1hZScsICctbXMnLCAnMScsICctcGgnLCAnNycsICctcGh0JywgJzAuNScsICctbnQn

> <r_lp_tautomer_probability>
1

> <r_epik_Ionization_Penalty>
  0.0000

> <r_epik_Ionization_Penalty_Charging>
  0.0000

> <r_epik_Ionization_Penalty_Neutral>
  0.0000

> <r_epik_State_Penalty>
 -0.0000

> <r_epik_Charging_Adjusted_Penalty>
2.74720896030896e-06

> <i_epik_Tot_Q>
-1

> <i_epik_Tot_abs_Q>
1

> <s_epik_Chemistry_Notes>
This compound has an imine and may undergo hydrolysis.

$$$$
