4ojr_ligand
                    3D
 Schrodinger Suite 2020-3.
 60 63  0  0  1  0            999 V2000
  -44.3650  -15.5030   12.8130 C   0  0  0  0  0  0
  -43.5520  -15.1080   14.0530 C   0  0  0  0  0  0
  -42.0740  -14.8510   13.9620 C   0  0  0  0  0  0
  -41.4330  -15.0140   12.6110 C   0  0  0  0  0  0
  -39.9210  -14.9480   12.7330 C   0  0  0  0  0  0
  -39.5340  -13.8900   13.7330 C   0  0  0  0  0  0
  -40.0380  -14.2480   15.0370 O   0  0  0  0  0  0
  -41.3770  -14.5100   15.0410 C   0  0  0  0  0  0
  -41.9950  -14.3730   16.2810 C   0  0  0  0  0  0
  -41.3240  -14.0020   17.4410 F   0  0  0  0  0  0
  -43.4340  -14.5760   16.5950 C   0  0  0  0  0  0
  -44.2690  -14.9660   15.4000 C   0  0  0  0  0  0
  -45.7340  -15.1820   15.6200 C   0  0  0  0  0  0
  -46.6180  -14.1790   15.5100 C   0  0  0  0  0  0
  -46.1400  -12.7780   15.1350 C   0  0  2  0  0  0
  -46.6380  -11.7950   16.0530 O   0  0  0  0  0  0
  -45.9900  -11.4760   17.3250 C   0  0  0  0  0  0
  -44.4980  -11.2530   17.1950 C   0  0  0  0  0  0
  -46.2920  -12.6090   18.2780 C   0  0  0  0  0  0
  -46.6740  -10.2030   17.7690 C   0  0  0  0  0  0
  -46.5810  -12.3870   13.7370 C   0  0  0  0  0  0
  -46.7850  -13.3550   12.8840 O   0  5  0  0  0  0
  -46.7340  -11.1940   13.4570 O   0  0  0  0  0  0
  -48.0120  -14.4120   15.7420 N   0  0  0  0  0  0
  -48.9960  -13.3290   15.6160 C   0  0  0  0  0  0
  -48.5010  -15.6750   16.0860 C   0  0  0  0  0  0
  -49.6930  -15.8400   16.2640 O   0  0  0  0  0  0
  -47.5130  -16.7700   16.2040 C   0  0  0  0  0  0
  -47.9400  -18.0530   16.5430 C   0  0  0  0  0  0
  -47.0250  -19.0860   16.6610 C   0  0  0  0  0  0
  -45.6850  -18.8600   16.4380 C   0  0  0  0  0  0
  -45.2400  -17.5940   16.0980 C   0  0  0  0  0  0
  -46.1470  -16.5350   15.9840 C   0  0  0  0  0  0
  -43.6982  -15.5588   11.9399 H   0  0  0  0  0  0
  -45.1454  -14.7494   12.6309 H   0  0  0  0  0  0
  -44.8342  -16.4839   12.9794 H   0  0  0  0  0  0
  -41.7165  -15.9881   12.1858 H   0  0  0  0  0  0
  -41.7746  -14.2091   11.9435 H   0  0  0  0  0  0
  -39.5374  -15.9227   13.0687 H   0  0  0  0  0  0
  -39.4846  -14.6996   11.7543 H   0  0  0  0  0  0
  -38.4378  -13.8085   13.7748 H   0  0  0  0  0  0
  -39.9622  -12.9236   13.4286 H   0  0  0  0  0  0
  -43.8477  -14.4543   17.5961 H   0  0  0  0  0  0
  -45.0432  -12.7571   15.2163 H   0  0  0  0  0  0
  -44.0145  -12.1867   16.8717 H   0  0  0  0  0  0
  -44.0872  -10.9451   18.1678 H   0  0  0  0  0  0
  -44.3085  -10.4652   16.4510 H   0  0  0  0  0  0
  -45.7843  -13.5223   17.9344 H   0  0  0  0  0  0
  -47.3778  -12.7825   18.3089 H   0  0  0  0  0  0
  -45.9337  -12.3469   19.2845 H   0  0  0  0  0  0
  -46.4395   -9.3946   17.0609 H   0  0  0  0  0  0
  -46.3181   -9.9263   18.7724 H   0  0  0  0  0  0
  -47.7621  -10.3619   17.7968 H   0  0  0  0  0  0
  -48.4813  -12.3959   15.3434 H   0  0  0  0  0  0
  -49.5170  -13.1936   16.5753 H   0  0  0  0  0  0
  -49.7266  -13.5865   14.8350 H   0  0  0  0  0  0
  -48.9991  -18.2441   16.7160 H   0  0  0  0  0  0
  -47.3678  -20.0845   16.9322 H   0  0  0  0  0  0
  -44.9729  -19.6801   16.5294 H   0  0  0  0  0  0
  -44.1788  -17.4216   15.9184 H   0  0  0  0  0  0
  1  2  1  0  0  0
  1 34  1  0  0  0
  1 35  1  0  0  0
  1 36  1  0  0  0
  2  3  2  0  0  0
  2 12  1  0  0  0
  3  4  1  0  0  0
  3  8  1  0  0  0
  4  5  1  0  0  0
  4 37  1  0  0  0
  4 38  1  0  0  0
  5  6  1  0  0  0
  5 39  1  0  0  0
  5 40  1  0  0  0
  6  7  1  0  0  0
  6 41  1  0  0  0
  6 42  1  0  0  0
  7  8  1  0  0  0
  8  9  2  0  0  0
  9 10  1  0  0  0
  9 11  1  0  0  0
 11 12  2  0  0  0
 11 43  1  0  0  0
 12 13  1  0  0  0
 13 14  2  0  0  0
 13 33  1  0  0  0
 14 15  1  0  0  0
 14 24  1  0  0  0
 15 16  1  0  0  0
 15 21  1  0  0  0
 15 44  1  0  0  0
 16 17  1  0  0  0
 17 18  1  0  0  0
 17 19  1  0  0  0
 17 20  1  0  0  0
 18 45  1  0  0  0
 18 46  1  0  0  0
 18 47  1  0  0  0
 19 48  1  0  0  0
 19 49  1  0  0  0
 19 50  1  0  0  0
 20 51  1  0  0  0
 20 52  1  0  0  0
 20 53  1  0  0  0
 21 22  1  0  0  0
 21 23  2  0  0  0
 24 25  1  0  0  0
 24 26  1  0  0  0
 25 54  1  0  0  0
 25 55  1  0  0  0
 25 56  1  0  0  0
 26 27  2  0  0  0
 26 28  1  0  0  0
 28 29  2  0  0  0
 28 33  1  0  0  0
 29 30  1  0  0  0
 29 57  1  0  0  0
 30 31  2  0  0  0
 30 58  1  0  0  0
 31 32  1  0  0  0
 31 59  1  0  0  0
 32 33  2  0  0  0
 32 60  1  0  0  0
M  CHG  1  22  -1
M  END
> <s_m_source_file>
../4ojr_ligand.sdf

> <i_m_source_file_index>
1

> <s_epik_input>
W0NIM11DKFtDSDNdKShbQ0gzXSlPW0NASF0oQyg9TylbT0hdKWMobihbQ0gzXSljMT1PKWMoYyhjMTIpW2NIXVtjSF1bY0hdW2NIXTIpLWMoYzNbQ0gzXSlbY0hdYyhGKWMoYzM0KU9bQ0gyXVtDSDJdW0NIMl00

> <s_epik_cmdline>
J2VwaWtfYXBwJywgJy1pbWFlJywgJ2xpZ2FuZF9wcm8ubWFlJywgJy1vbWFlJywgJ2xpZ2FuZF9wcmVwLm1hZScsICctbXMnLCAnMScsICctcGgnLCAnNycsICctcGh0JywgJzAuNScsICctbnQn

> <r_lp_tautomer_probability>
1

> <r_epik_Ionization_Penalty>
  0.0000

> <r_epik_Ionization_Penalty_Charging>
  0.0000

> <r_epik_Ionization_Penalty_Neutral>
  0.0000

> <r_epik_State_Penalty>
 -0.0000

> <r_epik_Charging_Adjusted_Penalty>
4.88523154914472e-05

> <i_epik_Tot_Q>
-1

> <i_epik_Tot_abs_Q>
1

$$$$
