4ok5_ligand
                    3D
 Schrodinger Suite 2020-3.
 35 37  0  0  1  0            999 V2000
  -16.9170  -30.5230   36.6120 O   0  0  0  0  0  0
  -16.8000  -30.8670   35.4620 C   0  0  0  0  0  0
  -16.0540  -31.9270   35.1630 O   0  5  0  0  0  0
  -17.5110  -30.1330   34.3530 C   0  0  0  0  0  0
  -18.2840  -31.1360   33.5390 C   0  0  0  0  0  0
  -19.2790  -32.0960   34.0390 C   0  0  0  0  0  0
  -19.8040  -32.4020   35.2960 C   0  0  0  0  0  0
  -20.7480  -33.3810   35.4310 C   0  0  0  0  0  0
  -21.2000  -34.0850   34.3140 C   0  0  0  0  0  0
  -20.6850  -33.7950   33.0640 C   0  0  0  0  0  0
  -19.7270  -32.8050   32.9180 C   0  0  0  0  0  0
  -19.0550  -32.3080   31.8210 N   0  0  0  0  0  0
  -18.1970  -31.3120   32.2140 C   0  0  0  0  0  0
  -19.2600  -32.8330   30.4620 C   0  0  0  0  0  0
  -19.2040  -31.8390   29.3310 C   0  0  0  0  0  0
  -20.2410  -30.9230   29.1220 C   0  0  0  0  0  0
  -20.1690  -30.0410   28.0340 C   0  0  0  0  0  0
  -21.2260  -29.0870   27.8360 C   0  0  0  0  0  0
  -22.0800  -28.3150   27.5500 C   0  0  0  0  0  0
  -19.0710  -30.0810   27.1790 C   0  0  0  0  0  0
  -18.0870  -30.9920   27.3810 C   0  0  0  0  0  0
  -18.1290  -31.8790   28.4390 C   0  0  0  0  0  0
  -18.1974  -29.3904   34.7860 H   0  0  0  0  0  0
  -16.7717  -29.6226   33.7182 H   0  0  0  0  0  0
  -19.4590  -31.8570   36.1747 H   0  0  0  0  0  0
  -21.1503  -33.6134   36.4170 H   0  0  0  0  0  0
  -21.9569  -34.8613   34.4267 H   0  0  0  0  0  0
  -21.0337  -34.3468   32.1911 H   0  0  0  0  0  0
  -17.5431  -30.7488   31.5482 H   0  0  0  0  0  0
  -18.4858  -33.5814   30.2374 H   0  0  0  0  0  0
  -20.2530  -33.3016   30.3958 H   0  0  0  0  0  0
  -21.0958  -30.8953   29.7978 H   0  0  0  0  0  0
  -19.0023  -29.3800   26.3471 H   0  0  0  0  0  0
  -17.2429  -31.0251   26.6921 H   0  0  0  0  0  0
  -17.3285  -32.6058   28.5773 H   0  0  0  0  0  0
  1  2  2  0  0  0
  2  3  1  0  0  0
  2  4  1  0  0  0
  4  5  1  0  0  0
  4 23  1  0  0  0
  4 24  1  0  0  0
  5  6  1  0  0  0
  5 13  2  0  0  0
  6  7  2  0  0  0
  6 11  1  0  0  0
  7  8  1  0  0  0
  7 25  1  0  0  0
  8  9  2  0  0  0
  8 26  1  0  0  0
  9 10  1  0  0  0
  9 27  1  0  0  0
 10 11  2  0  0  0
 10 28  1  0  0  0
 11 12  1  0  0  0
 12 13  1  0  0  0
 12 14  1  0  0  0
 13 29  1  0  0  0
 14 15  1  0  0  0
 14 30  1  0  0  0
 14 31  1  0  0  0
 15 16  2  0  0  0
 15 22  1  0  0  0
 16 17  1  0  0  0
 16 32  1  0  0  0
 17 18  1  0  0  0
 17 20  2  0  0  0
 18 19  3  0  0  0
 20 21  1  0  0  0
 20 33  1  0  0  0
 21 22  2  0  0  0
 21 34  1  0  0  0
 22 35  1  0  0  0
M  CHG  1   3  -1
M  END
> <s_m_source_file>
../4ok5_ligand.sdf

> <i_m_source_file_index>
1

> <s_epik_input>
Tz1DKFtPSF0pW0NIMl1jMVtjSF1uKGMoYzEyKVtjSF1bY0hdW2NIXVtjSF0yKVtDSDJdYzNbY0hdYyhDI1tDSF0pW2NIXVtjSF1bY0hdMw==

> <s_epik_cmdline>
J2VwaWtfYXBwJywgJy1pbWFlJywgJ2xpZ2FuZF9wcm8ubWFlJywgJy1vbWFlJywgJ2xpZ2FuZF9wcmVwLm1hZScsICctbXMnLCAnMScsICctcGgnLCAnNycsICctcGh0JywgJzAuNScsICctbnQn

> <r_lp_tautomer_probability>
1

> <r_epik_Ionization_Penalty>
  0.0011

> <r_epik_Ionization_Penalty_Charging>
  0.0011

> <r_epik_Ionization_Penalty_Neutral>
  0.0000

> <r_epik_State_Penalty>
 -0.0000

> <r_epik_Charging_Adjusted_Penalty>
0.0010668340448865

> <i_epik_Tot_Q>
-1

> <i_epik_Tot_abs_Q>
1

$$$$
