4ok6_ligand
                    3D
 Schrodinger Suite 2020-3.
 40 42  0  0  1  0            999 V2000
  -19.6760  -29.7790   26.4920 O   0  5  0  0  0  0
  -18.6300  -29.8240   27.1210 N   0  3  0  0  0  0
  -17.8400  -28.8790   27.0610 O   0  0  0  0  0  0
  -18.3370  -31.0240   27.9540 C   0  0  0  0  0  0
  -17.1650  -31.7470   27.7850 C   0  0  0  0  0  0
  -16.8980  -32.8570   28.5750 C   0  0  0  0  0  0
  -17.8240  -33.2260   29.5440 C   0  0  0  0  0  0
  -17.6010  -34.2990   30.3500 O   0  0  0  0  0  0
  -16.2320  -34.6410   30.5700 C   0  0  0  0  0  0
  -19.2480  -31.3990   28.9280 C   0  0  0  0  0  0
  -18.9860  -32.4960   29.7180 C   0  0  0  0  0  0
  -19.9560  -32.9460   30.7730 C   0  0  0  0  0  0
  -19.5060  -32.5230   32.1000 N   0  0  0  0  0  0
  -19.9320  -33.1150   33.2570 C   0  0  0  0  0  0
  -20.7820  -34.1790   33.5180 C   0  0  0  0  0  0
  -21.0110  -34.5630   34.8220 C   0  0  0  0  0  0
  -19.3090  -32.4410   34.3230 C   0  0  0  0  0  0
  -19.5500  -32.8450   35.6360 C   0  0  0  0  0  0
  -20.3890  -33.8970   35.8710 C   0  0  0  0  0  0
  -18.4800  -31.3950   33.7210 C   0  0  0  0  0  0
  -18.6470  -31.4870   32.3870 C   0  0  0  0  0  0
  -17.6360  -30.4040   34.4810 C   0  0  0  0  0  0
  -16.8320  -31.1060   35.5480 C   0  0  0  0  0  0
  -16.8630  -30.6270   36.8000 O   0  5  0  0  0  0
  -16.1850  -32.1010   35.2710 O   0  0  0  0  0  0
  -16.4468  -31.4405   27.0245 H   0  0  0  0  0  0
  -15.9798  -33.4283   28.4381 H   0  0  0  0  0  0
  -16.1749  -35.5176   31.2320 H   0  0  0  0  0  0
  -15.7130  -33.7924   31.0396 H   0  0  0  0  0  0
  -15.7537  -34.8764   29.6078 H   0  0  0  0  0  0
  -20.1666  -30.8292   29.0681 H   0  0  0  0  0  0
  -20.9442  -32.5054   30.5744 H   0  0  0  0  0  0
  -20.0336  -34.0431   30.7558 H   0  0  0  0  0  0
  -21.2660  -34.7084   32.6973 H   0  0  0  0  0  0
  -21.6842  -35.3943   35.0315 H   0  0  0  0  0  0
  -19.0730  -32.3258   36.4673 H   0  0  0  0  0  0
  -20.5732  -34.2186   36.8960 H   0  0  0  0  0  0
  -18.1740  -30.8398   31.6484 H   0  0  0  0  0  0
  -16.9471  -29.9006   33.7867 H   0  0  0  0  0  0
  -18.2876  -29.6566   34.9573 H   0  0  0  0  0  0
  1  2  1  0  0  0
  2  3  2  0  0  0
  2  4  1  0  0  0
  4  5  2  0  0  0
  4 10  1  0  0  0
  5  6  1  0  0  0
  5 26  1  0  0  0
  6  7  2  0  0  0
  6 27  1  0  0  0
  7  8  1  0  0  0
  7 11  1  0  0  0
  8  9  1  0  0  0
  9 28  1  0  0  0
  9 29  1  0  0  0
  9 30  1  0  0  0
 10 11  2  0  0  0
 10 31  1  0  0  0
 11 12  1  0  0  0
 12 13  1  0  0  0
 12 32  1  0  0  0
 12 33  1  0  0  0
 13 14  1  0  0  0
 13 21  1  0  0  0
 14 15  1  0  0  0
 14 17  2  0  0  0
 15 16  2  0  0  0
 15 34  1  0  0  0
 16 19  1  0  0  0
 16 35  1  0  0  0
 17 18  1  0  0  0
 17 20  1  0  0  0
 18 19  2  0  0  0
 18 36  1  0  0  0
 19 37  1  0  0  0
 20 21  2  0  0  0
 20 22  1  0  0  0
 21 38  1  0  0  0
 22 23  1  0  0  0
 22 39  1  0  0  0
 22 40  1  0  0  0
 23 24  1  0  0  0
 23 25  2  0  0  0
M  CHG  3   1  -1   2   1  24  -1
M  END
> <s_m_source_file>
../4ok6_ligand.sdf

> <i_m_source_file_index>
1

> <s_epik_input>
W08tXVtOK10oPU8pYzFbY0hdW2NIXWMoT1tDSDNdKWMoW2NIXTEpW0NIMl1uMltjSF1jKFtDSDJdQyg9TylbT0hdKWMoYzIzKVtjSF1bY0hdW2NIXVtjSF0z

> <s_epik_cmdline>
J2VwaWtfYXBwJywgJy1pbWFlJywgJ2xpZ2FuZF9wcm8ubWFlJywgJy1vbWFlJywgJ2xpZ2FuZF9wcmVwLm1hZScsICctbXMnLCAnMScsICctcGgnLCAnNycsICctcGh0JywgJzAuNScsICctbnQn

> <r_lp_tautomer_probability>
1

> <r_epik_Ionization_Penalty>
  0.0011

> <r_epik_Ionization_Penalty_Charging>
  0.0011

> <r_epik_Ionization_Penalty_Neutral>
  0.0000

> <r_epik_State_Penalty>
 -0.0000

> <r_epik_Charging_Adjusted_Penalty>
0.0010668340448865

> <i_epik_Tot_Q>
-1

> <i_epik_Tot_abs_Q>
3

$$$$
