4okg_ligand
                    3D
 Schrodinger Suite 2020-3.
 71 76  0  0  1  0            999 V2000
   -5.1200    6.5220   30.9160 C   0  0  0  0  0  0
   -4.8000    7.8910   30.4870 N   0  0  2  0  0  0
   -4.7070    8.0160   29.0160 C   0  0  0  0  0  0
   -4.4910    9.4990   28.6570 C   0  0  0  0  0  0
   -3.3150   10.0450   29.3740 N   0  3  2  0  0  0
   -3.4230    9.8980   30.8470 C   0  0  0  0  0  0
   -3.6130    8.4130   31.2090 C   0  0  0  0  0  0
   -3.0170   11.4410   29.0010 C   0  0  0  0  0  0
   -1.9760   11.5180   27.8990 C   0  0  0  0  0  0
   -2.2950   11.1710   26.5820 C   0  0  0  0  0  0
   -1.3230   11.3220   25.5830 C   0  0  0  0  0  0
   -0.0570   11.8020   25.9250 C   0  0  0  0  0  0
    0.1870   12.1300   27.2670 C   0  0  0  0  0  0
   -0.7650   11.9700   28.1870 N   0  0  0  0  0  0
    0.9820   11.8940   24.9500 C   0  0  0  0  0  0
    1.8310   11.9700   24.1400 C   0  0  0  0  0  0
    2.8510   12.0590   23.1390 C   0  0  0  0  0  0
    4.1860   12.3100   23.5280 C   0  0  0  0  0  0
    5.1820   12.3950   22.5690 C   0  0  0  0  0  0
    4.8920   12.1190   21.2140 C   0  0  0  0  0  0
    3.5660   11.7980   20.8410 C   0  0  0  0  0  0
    2.5500   11.7600   21.7880 C   0  0  0  0  0  0
    5.9670   12.2090   20.1790 C   0  0  0  0  0  0
    5.7270   13.0360   19.0740 C   0  0  0  0  0  0
    6.7060   13.2020   18.0720 C   0  0  0  0  0  0
    7.8810   12.4430   18.1550 C   0  0  0  0  0  0
    8.1120   11.6930   19.2260 N   0  0  0  0  0  0
    7.2100   11.5080   20.2080 C   0  0  0  0  0  0
    7.5100   10.5200   21.1680 N   0  0  0  0  0  0
    6.7070    9.4660   21.4560 C   0  0  0  0  0  0
    7.2570    8.6820   22.3380 N   0  0  0  0  0  0
    8.4990    9.1540   22.6360 C   0  0  0  0  0  0
    8.6810   10.3390   21.8870 C   0  0  0  0  0  0
    9.8820   11.0420   21.9750 C   0  0  0  0  0  0
   10.8850   10.6020   22.8280 C   0  0  0  0  0  0
   10.7000    9.4440   23.5830 C   0  0  0  0  0  0
    9.5240    8.7130   23.4860 C   0  0  0  0  0  0
    6.3480   13.9050   16.8220 C   0  0  0  0  0  0
    5.2230   13.7190   16.3650 O   0  0  0  0  0  0
    7.2170   14.5950   16.0600 N   0  0  0  0  0  0
    6.7110   15.0860   14.8240 O   0  0  0  0  0  0
   -6.0017    6.1620   30.3656 H   0  0  0  0  0  0
   -5.3338    6.5164   31.9950 H   0  0  0  0  0  0
   -4.2639    5.8632   30.7084 H   0  0  0  0  0  0
   -3.8605    7.4165   28.6499 H   0  0  0  0  0  0
   -5.6387    7.6531   28.5575 H   0  0  0  0  0  0
   -4.3226    9.5933   27.5741 H   0  0  0  0  0  0
   -5.3816   10.0786   28.9414 H   0  0  0  0  0  0
   -2.4610    9.4361   29.0423 H   0  0  0  0  0  0
   -2.5045   10.2739   31.3213 H   0  0  0  0  0  0
   -4.2860   10.4749   31.2108 H   0  0  0  0  0  0
   -3.7693    8.3113   32.2931 H   0  0  0  0  0  0
   -2.7220    7.8406   30.9117 H   0  0  0  0  0  0
   -3.9358   11.9292   28.6439 H   0  0  0  0  0  0
   -2.6323   11.9810   29.8788 H   0  0  0  0  0  0
   -3.2856   10.7885   26.3358 H   0  0  0  0  0  0
   -1.5534   11.0670   24.5486 H   0  0  0  0  0  0
    1.1623   12.5186   27.5600 H   0  0  0  0  0  0
    4.4320   12.4367   24.5823 H   0  0  0  0  0  0
    6.1939   12.6760   22.8610 H   0  0  0  0  0  0
    3.3384   11.5778   19.7980 H   0  0  0  0  0  0
    1.5323   11.5028   21.4942 H   0  0  0  0  0  0
    4.7734   13.5569   18.9875 H   0  0  0  0  0  0
    8.6051   12.4683   17.3406 H   0  0  0  0  0  0
    5.7281    9.2970   21.0073 H   0  0  0  0  0  0
   10.0335   11.9381   21.3733 H   0  0  0  0  0  0
   11.8170   11.1615   22.9077 H   0  0  0  0  0  0
   11.4882    9.1090   24.2572 H   0  0  0  0  0  0
    9.3975    7.8001   24.0679 H   0  0  0  0  0  0
    8.2626   14.7881   16.3419 H   0  0  0  0  0  0
    7.3654   15.6587   14.1504 H   0  0  0  0  0  0
  1  2  1  0  0  0
  1 42  1  0  0  0
  1 43  1  0  0  0
  1 44  1  0  0  0
  2  3  1  0  0  0
  2  7  1  0  0  0
  3  4  1  0  0  0
  3 45  1  0  0  0
  3 46  1  0  0  0
  4  5  1  0  0  0
  4 47  1  0  0  0
  4 48  1  0  0  0
  5  6  1  0  0  0
  5  8  1  0  0  0
  5 49  1  0  0  0
  6  7  1  0  0  0
  6 50  1  0  0  0
  6 51  1  0  0  0
  7 52  1  0  0  0
  7 53  1  0  0  0
  8  9  1  0  0  0
  8 54  1  0  0  0
  8 55  1  0  0  0
  9 10  2  0  0  0
  9 14  1  0  0  0
 10 11  1  0  0  0
 10 56  1  0  0  0
 11 12  2  0  0  0
 11 57  1  0  0  0
 12 13  1  0  0  0
 12 15  1  0  0  0
 13 14  2  0  0  0
 13 58  1  0  0  0
 15 16  3  0  0  0
 16 17  1  0  0  0
 17 18  2  0  0  0
 17 22  1  0  0  0
 18 19  1  0  0  0
 18 59  1  0  0  0
 19 20  2  0  0  0
 19 60  1  0  0  0
 20 21  1  0  0  0
 20 23  1  0  0  0
 21 22  2  0  0  0
 21 61  1  0  0  0
 22 62  1  0  0  0
 23 24  2  0  0  0
 23 28  1  0  0  0
 24 25  1  0  0  0
 24 63  1  0  0  0
 25 26  2  0  0  0
 25 38  1  0  0  0
 26 27  1  0  0  0
 26 64  1  0  0  0
 27 28  2  0  0  0
 28 29  1  0  0  0
 29 30  1  0  0  0
 29 33  1  0  0  0
 30 31  2  0  0  0
 30 65  1  0  0  0
 31 32  1  0  0  0
 32 33  2  0  0  0
 32 37  1  0  0  0
 33 34  1  0  0  0
 34 35  2  0  0  0
 34 66  1  0  0  0
 35 36  1  0  0  0
 35 67  1  0  0  0
 36 37  2  0  0  0
 36 68  1  0  0  0
 37 69  1  0  0  0
 38 39  2  0  0  0
 38 40  1  0  0  0
 40 41  1  0  0  0
 40 70  1  0  0  0
 41 71  1  0  0  0
M  CHG  1   5   1
M  END
> <s_m_source_file>
../4okg_ligand.sdf

> <i_m_source_file_index>
1

> <s_epik_input>
W0NIM11bTkBASCtdMVtDSDJdW0NIMl1bTkBIK10oW0NIMl1bQ0gyXTEpW0NIMl1jMltjSF1bY0hdYyhbY0hdbjIpQyNDYzNbY0hdW2NIXWMoW2NIXVtjSF0zKS1jNFtjSF1jKEMoPU8pW05IXVtPSF0pW2NIXW5jNC1uKFtjSF1uNSljKGM1NilbY0hdW2NIXVtjSF1bY0hdNg==

> <s_epik_cmdline>
J2VwaWtfYXBwJywgJy1pbWFlJywgJ2xpZ2FuZF9wcm8ubWFlJywgJy1vbWFlJywgJ2xpZ2FuZF9wcmVwLm1hZScsICctbXMnLCAnMScsICctcGgnLCAnNycsICctcGh0JywgJzAuNScsICctbnQn

> <r_epik_Ionization_Penalty>
  0.1075

> <r_epik_Ionization_Penalty_Charging>
  0.0300

> <r_epik_Ionization_Penalty_Neutral>
  0.0775

> <r_epik_State_Penalty>
  0.3246

> <r_epik_Charging_Adjusted_Penalty>
0.354571757720379

> <i_epik_Tot_Q>
1

> <i_epik_Tot_abs_Q>
1

> <s_epik_Chemistry_Notes>
This compound has a N-S or N-O group and may undergo hydrolysis at high or low pH.

$$$$
