4okp_ligand
                    3D
 Schrodinger Suite 2020-3.
 24 24  0  0  1  0            999 V2000
   63.0310    6.1080   48.1280 O   0  5  0  0  0  0
   64.1420    6.5290   48.5260 C   0  0  0  0  0  0
   65.0180    5.8460   49.0970 O   0  0  0  0  0  0
   64.4480    8.0220   48.3490 C   0  0  1  0  0  0
   65.7570    8.3050   48.9530 N   0  3  0  0  0  0
   64.4460    8.4600   46.8690 C   0  0  2  0  0  0
   65.4620    7.6130   46.1940 N   0  0  0  0  0  0
   64.7360   10.1310   46.3670 S   0  0  0  0  0  0
   64.5280    9.8200   44.5710 C   0  0  0  0  0  0
   65.4520    8.8820   44.1520 C   0  0  0  0  0  0
   65.9270    8.9890   42.8530 C   0  0  0  0  0  0
   65.7610    7.7310   44.8910 C   0  0  0  0  0  0
   66.7140    6.8500   44.3910 C   0  0  0  0  0  0
   66.3710    5.7030   44.0290 O   0  5  0  0  0  0
   67.9210    7.1740   44.3750 O   0  0  0  0  0  0
   63.6857    8.6099   48.8813 H   0  0  0  0  0  0
   65.7502    7.9902   50.0070 H   0  0  0  0  0  0
   65.9625    9.3840   48.8939 H   0  0  0  0  0  0
   66.5383    7.7527   48.4103 H   0  0  0  0  0  0
   63.4161    8.1561   46.6304 H   0  0  0  0  0  0
   63.5125    9.4431   44.3794 H   0  0  0  0  0  0
   64.6820   10.7573   44.0163 H   0  0  0  0  0  0
   65.6967    9.8831   42.2551 H   0  0  0  0  0  0
   66.5339    8.1797   42.4209 H   0  0  0  0  0  0
  1  2  1  0  0  0
  2  3  2  0  0  0
  2  4  1  0  0  0
  4  5  1  0  0  0
  4  6  1  0  0  0
  4 16  1  0  0  0
  5 17  1  0  0  0
  5 18  1  0  0  0
  5 19  1  0  0  0
  6  7  1  0  0  0
  6  8  1  0  0  0
  6 20  1  0  0  0
  7 12  2  0  0  0
  8  9  1  0  0  0
  9 10  1  0  0  0
  9 21  1  0  0  0
  9 22  1  0  0  0
 10 11  2  0  0  0
 10 12  1  0  0  0
 11 23  1  0  0  0
 11 24  1  0  0  0
 12 13  1  0  0  0
 13 14  1  0  0  0
 13 15  2  0  0  0
M  CHG  3   1  -1   5   1  14  -1
M  END
> <s_m_source_file>
../4okp_ligand.sdf

> <i_m_source_file_index>
1

> <s_epik_input>
W09IXUMoPU8pW0NAQEhdKFtOSDMrXSlbQ0BASF0xTj1DKEMoW0NIMl1TMSk9W0NIMl0pQyg9TylbT0hd

> <s_epik_cmdline>
J2VwaWtfYXBwJywgJy1pbWFlJywgJ2xpZ2FuZF9wcm8ubWFlJywgJy1vbWFlJywgJ2xpZ2FuZF9wcmVwLm1hZScsICctbXMnLCAnMScsICctcGgnLCAnNycsICctcGh0JywgJzAuNScsICctbnQn

> <r_epik_Ionization_Penalty>
  0.0527

> <r_epik_Ionization_Penalty_Charging>
  0.0466

> <r_epik_Ionization_Penalty_Neutral>
  0.0061

> <r_epik_State_Penalty>
  0.0059

> <r_epik_Charging_Adjusted_Penalty>
0.0525191093267775

> <i_epik_Tot_Q>
-1

> <i_epik_Tot_abs_Q>
3

> <s_epik_Chemistry_Notes>
This compound has an imine and may undergo hydrolysis. This compound contains an acetal/aminal-like group ( X-CH(R)-Y where X, Y are N, S, or O) that may be acid/base labile, releasing an aldehyde.

$$$$
