4olc_ligand
                    3D
 Schrodinger Suite 2020-3.
 18 17  0  0  1  0            999 V2000
   63.5900   63.4090   61.1340 C   0  0  0  0  0  0
   62.2220   63.5940   61.7590 C   0  0  0  0  0  0
   61.4940   64.6790   61.1040 N   0  0  0  0  0  0
   60.1680   64.8320   61.2310 C   0  0  0  0  0  0
   59.3980   66.2220   60.6530 S   0  5  0  0  0  0
   59.2830   63.7170   61.8970 S   0  0  0  0  0  0
   62.3120   65.5910   60.3160 C   0  0  0  0  0  0
   62.4910   66.8990   61.0580 C   0  0  0  0  0  0
   64.1176   62.5887   61.6427 H   0  0  0  0  0  0
   64.1695   64.3382   61.2384 H   0  0  0  0  0  0
   63.4759   63.1658   60.0673 H   0  0  0  0  0  0
   61.6425   62.6648   61.6546 H   0  0  0  0  0  0
   62.3360   63.8371   62.8257 H   0  0  0  0  0  0
   63.2985   65.1380   60.1380 H   0  0  0  0  0  0
   61.8189   65.7862   59.3523 H   0  0  0  0  0  0
   63.1095   67.5806   60.4556 H   0  0  0  0  0  0
   62.9866   66.7091   62.0215 H   0  0  0  0  0  0
   61.5070   67.3573   61.2358 H   0  0  0  0  0  0
  1  2  1  0  0  0
  1  9  1  0  0  0
  1 10  1  0  0  0
  1 11  1  0  0  0
  2  3  1  0  0  0
  2 12  1  0  0  0
  2 13  1  0  0  0
  3  4  1  0  0  0
  3  7  1  0  0  0
  4  5  1  0  0  0
  4  6  2  0  0  0
  7  8  1  0  0  0
  7 14  1  0  0  0
  7 15  1  0  0  0
  8 16  1  0  0  0
  8 17  1  0  0  0
  8 18  1  0  0  0
M  CHG  1   5  -1
M  END
> <s_m_source_file>
../4olc_ligand.sdf

> <i_m_source_file_index>
1

> <s_epik_input>
W0NIM11bQ0gyXU4oQyg9UylbU0hdKVtDSDJdW0NIM10=

> <s_epik_cmdline>
J2VwaWtfYXBwJywgJy1pbWFlJywgJ2xpZ2FuZF9wcm8ubWFlJywgJy1vbWFlJywgJ2xpZ2FuZF9wcmVwLm1hZScsICctbXMnLCAnMScsICctcGgnLCAnNycsICctcGh0JywgJzAuNScsICctbnQn

> <r_lp_tautomer_probability>
1

> <r_epik_Ionization_Penalty>
  0.0009

> <r_epik_Ionization_Penalty_Charging>
  0.0009

> <r_epik_Ionization_Penalty_Neutral>
  0.0000

> <r_epik_State_Penalty>
 -0.0000

> <r_epik_Charging_Adjusted_Penalty>
0.000944782002078571

> <i_epik_Tot_Q>
-1

> <i_epik_Tot_abs_Q>
1

$$$$
