4oma_ligand
                    3D
 Schrodinger Suite 2020-3.
 34 35  0  0  1  0            999 V2000
    4.4490   21.1930   14.3260 N   0  3  0  0  0  0
    5.3460   20.6340   15.1600 C   0  0  0  0  0  0
    5.2320   20.9000   16.5420 C   0  0  0  0  0  0
    6.4130   19.9120   14.5960 C   0  0  0  0  0  0
    7.2500   19.3920   15.5040 O   0  5  0  0  0  0
    6.5170   19.6070   13.2400 C   0  0  0  0  0  0
    7.5230   18.8370   12.6440 C   0  0  0  0  0  0
    5.5300   20.1810   12.3890 C   0  0  0  0  0  0
    4.4960   20.9550   12.9980 C   0  0  0  0  0  0
    5.4650   20.0730   10.9210 C   0  0  0  0  0  0
    5.0430   18.8020   10.5560 O   0  0  0  0  0  0
    5.3150   17.9910    9.1910 P   0  0  0  0  0  0
    5.0220   18.9410    8.1380 O   0  0  0  0  0  0
    6.8290   17.6980    9.3660 O   0  5  0  0  0  0
    4.5070   16.7900    9.2820 O   0  5  0  0  0  0
    8.5980   18.4460   13.5920 N   0  0  0  0  0  0
    9.7690   17.9220   13.1740 C   0  0  0  0  0  0
   10.8020   17.6380   13.9750 C   0  0  0  0  0  0
   10.8580   17.8600   15.3150 O   0  0  0  0  0  0
   11.8170   17.1440   13.2670 N   0  0  0  0  0  0
   11.2880   17.0750   11.7480 O   0  0  0  0  0  0
   10.0010   17.6080   11.8300 C   0  0  0  0  0  0
    4.3151   21.4780   16.7297 H   0  0  0  0  0  0
    6.1053   21.4787   16.8773 H   0  0  0  0  0  0
    5.1867   19.9505   17.0956 H   0  0  0  0  0  0
    7.0854   17.9132   12.2377 H   0  0  0  0  0  0
    7.9899   19.4105   11.8297 H   0  0  0  0  0  0
    3.7124   21.3708   12.3645 H   0  0  0  0  0  0
    4.7546   20.8161   10.5298 H   0  0  0  0  0  0
    6.4620   20.2592   10.4951 H   0  0  0  0  0  0
    8.4529   18.5806   14.6740 H   0  0  0  0  0  0
    9.3065   17.7527   11.0024 H   0  0  0  0  0  0
    9.9837   18.2704   15.8415 H   0  0  0  0  0  0
    3.6646   21.8534   14.7244 H   0  0  0  0  0  0
  1  2  2  0  0  0
  1  9  1  0  0  0
  1 34  1  0  0  0
  2  3  1  0  0  0
  2  4  1  0  0  0
  3 23  1  0  0  0
  3 24  1  0  0  0
  3 25  1  0  0  0
  4  5  1  0  0  0
  4  6  2  0  0  0
  6  7  1  0  0  0
  6  8  1  0  0  0
  7 16  1  0  0  0
  7 26  1  0  0  0
  7 27  1  0  0  0
  8  9  2  0  0  0
  8 10  1  0  0  0
  9 28  1  0  0  0
 10 11  1  0  0  0
 10 29  1  0  0  0
 10 30  1  0  0  0
 11 12  1  0  0  0
 12 13  2  0  0  0
 12 14  1  0  0  0
 12 15  1  0  0  0
 16 17  1  0  0  0
 16 31  1  0  0  0
 17 18  1  0  0  0
 17 22  2  0  0  0
 18 19  1  0  0  0
 18 20  2  0  0  0
 19 33  1  0  0  0
 20 21  1  0  0  0
 21 22  1  0  0  0
 22 32  1  0  0  0
M  CHG  4   1   1   5  -1  14  -1  15  -1
M  END
> <s_m_source_file>
../4oma_ligand.sdf

> <i_m_source_file_index>
1

> <s_epik_input>
W0NIM11jMW5bY0hdYyhbQ0gyXU9QKD1PKShbT0hdKVtPSF0pYyhjMVtPSF0pW0NIMl1bTkhdYzJjKD1PKVtuSF1vW2NIXTI=

> <s_epik_cmdline>
J2VwaWtfYXBwJywgJy1pbWFlJywgJ2xpZ2FuZF9wcm8ubWFlJywgJy1vbWFlJywgJ2xpZ2FuZF9wcmVwLm1hZScsICctbXMnLCAnMScsICctcGgnLCAnNycsICctcGh0JywgJzAuNScsICctbnQn

> <r_lp_tautomer_probability>
0.10222546149189

> <r_epik_Ionization_Penalty>
  0.1706

> <r_epik_Ionization_Penalty_Charging>
  0.1704

> <r_epik_Ionization_Penalty_Neutral>
  0.0002

> <r_epik_State_Penalty>
  0.1430

> <r_epik_Charging_Adjusted_Penalty>
0.313391512433062

> <i_epik_Tot_Q>
-2

> <i_epik_Tot_abs_Q>
4

$$$$
