4omc_ligand
                    3D
 Schrodinger Suite 2020-3.
113114  0  0  1  0            999 V2000
   34.4530   23.8290   -7.5700 C   0  0  0  0  0  0
   33.8650   25.0980   -7.7100 C   0  0  0  0  0  0
   33.1090   23.0430   -9.4850 C   0  0  0  0  0  0
   35.1270   22.3540   -5.7320 N   0  0  0  0  0  0
   30.9410   26.7380   -7.9040 C   0  0  0  0  0  0
   33.9160   23.4580   -4.0880 N   0  0  0  0  0  0
   34.1030   21.1670   -4.0560 N   0  3  0  0  0  0
   32.5300   24.3310   -9.6040 C   0  0  0  0  0  0
   32.1850   26.6860   -8.7540 C   0  0  0  0  0  0
   30.0320   25.9350   -8.0290 O   0  0  0  0  0  0
   32.9000   25.3640   -8.7140 C   0  0  0  0  0  0
   34.0710   22.8000   -8.4590 C   0  0  0  0  0  0
   35.4650   23.5600   -6.4850 C   0  0  0  0  0  0
   34.3660   22.3270   -4.6370 C   0  0  0  0  0  0
   30.9430   27.7000   -6.9950 N   0  0  0  0  0  0
   29.8200   27.8810   -6.0880 C   0  0  2  0  0  0
   29.3380   29.3190   -6.1690 C   0  0  0  0  0  0
   30.1270   30.2460   -6.0440 O   0  0  0  0  0  0
   30.2550   27.5200   -4.6670 C   0  0  0  0  0  0
   30.8240   26.0830   -4.5410 C   0  0  0  0  0  0
   29.7710   25.0780   -4.9450 C   0  0  0  0  0  0
   30.1780   23.6850   -4.7720 N   0  0  0  0  0  0
   30.3910   22.8420   -5.7820 C   0  0  0  0  0  0
   30.7450   21.5830   -5.5480 N   0  3  0  0  0  0
   30.2620   23.2660   -7.0380 N   0  0  0  0  0  0
   28.0340   29.4950   -6.3740 N   0  0  0  0  0  0
   27.4470   30.8190   -6.5230 C   0  0  2  0  0  0
   26.3800   31.1630   -5.4960 C   0  0  0  0  0  0
   25.7580   30.2710   -4.9080 O   0  0  0  0  0  0
   26.8060   30.9560   -7.9190 C   0  0  0  0  0  0
   27.8460   30.6540   -8.9980 C   0  0  0  0  0  0
   25.6520   29.9840   -8.0580 C   0  0  0  0  0  0
   26.1730   32.4630   -5.2960 N   0  0  0  0  0  0
   25.1600   32.9500   -4.3740 C   0  0  2  0  0  0
   23.8140   32.5100   -4.9510 C   0  0  0  0  0  0
   23.5830   32.6120   -6.1540 O   0  0  0  0  0  0
   25.2230   34.4790   -4.2730 C   0  0  0  0  0  0
   26.5000   35.0240   -3.6450 C   0  0  0  0  0  0
   26.5680   36.5320   -3.8100 C   0  0  0  0  0  0
   27.8180   37.1200   -3.3290 N   0  0  0  0  0  0
   28.9920   36.9840   -3.9380 C   0  0  0  0  0  0
   29.0910   36.2700   -5.0590 N   0  0  0  0  0  0
   30.0670   37.5800   -3.4370 N   0  3  0  0  0  0
   22.9270   32.0290   -4.0900 N   0  0  0  0  0  0
   21.6200   31.5680   -4.5120 C   0  0  0  0  0  0
   21.6370   30.0740   -4.6870 C   0  0  0  0  0  0
   21.3280   29.2290   -3.6090 C   0  0  0  0  0  0
   21.4340   27.8220   -3.7350 C   0  0  0  0  0  0
   21.8510   27.2340   -4.9440 C   0  0  0  0  0  0
   21.9490   25.7330   -5.0810 C   0  0  0  0  0  0
   21.3280   24.9830   -4.1750 N   0  0  0  0  0  0
   22.6520   25.1610   -6.0520 N   0  3  0  0  0  0
   22.1500   28.0770   -6.0280 C   0  0  0  0  0  0
   22.0460   29.4950   -5.9030 C   0  0  0  0  0  0
   34.1583   25.8975   -7.0297 H   0  0  0  0  0  0
   32.8224   22.2455  -10.1705 H   0  0  0  0  0  0
   35.5088   21.3758   -6.0598 H   0  0  0  0  0  0
   34.1312   24.4250   -4.5660 H   0  0  0  0  0  0
   33.3301   23.4227   -3.1577 H   0  0  0  0  0  0
   34.4709   20.2319   -4.5034 H   0  0  0  0  0  0
   31.7958   24.5256  -10.3858 H   0  0  0  0  0  0
   31.9200   26.8794   -9.8039 H   0  0  0  0  0  0
   32.8971   27.4501   -8.4089 H   0  0  0  0  0  0
   34.5157   21.8097   -8.3604 H   0  0  0  0  0  0
   36.4589   23.4241   -6.9362 H   0  0  0  0  0  0
   35.4916   24.4115   -5.7891 H   0  0  0  0  0  0
   31.8139   28.3691   -6.9324 H   0  0  0  0  0  0
   29.0124   27.2085   -6.4130 H   0  0  0  0  0  0
   31.0404   28.2155   -4.3362 H   0  0  0  0  0  0
   29.3915   27.5930   -3.9895 H   0  0  0  0  0  0
   31.6995   25.9764   -5.1984 H   0  0  0  0  0  0
   31.1231   25.8971   -3.4989 H   0  0  0  0  0  0
   28.8673   25.2291   -4.3364 H   0  0  0  0  0  0
   29.5238   25.2133   -6.0083 H   0  0  0  0  0  0
   30.3260   23.2767   -3.7614 H   0  0  0  0  0  0
   30.8536   21.2254   -4.5134 H   0  0  0  0  0  0
   29.9692   24.3070   -7.2398 H   0  0  0  0  0  0
   30.4482   22.5752   -7.8736 H   0  0  0  0  0  0
   27.3956   28.6009   -6.4297 H   0  0  0  0  0  0
   28.3155   31.4721   -6.3525 H   0  0  0  0  0  0
   26.4238   31.9794   -8.0481 H   0  0  0  0  0  0
   28.6873   31.3563   -8.9031 H   0  0  0  0  0  0
   27.3864   30.7643   -9.9913 H   0  0  0  0  0  0
   28.2125   29.6241   -8.8759 H   0  0  0  0  0  0
   24.8993   30.1955   -7.2843 H   0  0  0  0  0  0
   26.0226   28.9553   -7.9376 H   0  0  0  0  0  0
   25.1965   30.0956   -9.0530 H   0  0  0  0  0  0
   26.7971   33.1763   -5.8543 H   0  0  0  0  0  0
   25.3521   32.5216   -3.3792 H   0  0  0  0  0  0
   25.1524   34.9162   -5.2799 H   0  0  0  0  0  0
   24.3865   34.8406   -3.6569 H   0  0  0  0  0  0
   26.5144   34.7796   -2.5726 H   0  0  0  0  0  0
   27.3731   34.5698   -4.1364 H   0  0  0  0  0  0
   26.4738   36.7889   -4.8754 H   0  0  0  0  0  0
   25.7476   36.9999   -3.2461 H   0  0  0  0  0  0
   27.8247   37.7198   -2.4069 H   0  0  0  0  0  0
   28.2016   35.7751   -5.4762 H   0  0  0  0  0  0
   30.0621   36.1756   -5.5670 H   0  0  0  0  0  0
   29.9879   38.1699   -2.5119 H   0  0  0  0  0  0
   23.2088   31.9860   -3.0276 H   0  0  0  0  0  0
   20.8731   31.8359   -3.7502 H   0  0  0  0  0  0
   21.3549   32.0427   -5.4683 H   0  0  0  0  0  0
   21.0023   29.6613   -2.6629 H   0  0  0  0  0  0
   21.1893   27.1861   -2.8842 H   0  0  0  0  0  0
   20.7465   25.4593   -3.3719 H   0  0  0  0  0  0
   21.3959   23.8864   -4.2288 H   0  0  0  0  0  0
   23.1646   25.7837   -6.8000 H   0  0  0  0  0  0
   22.4654   27.6423   -6.9765 H   0  0  0  0  0  0
   22.2846   30.1331   -6.7539 H   0  0  0  0  0  0
   31.0369   37.4840   -3.9469 H   0  0  0  0  0  0
   30.9295   20.8982   -6.3888 H   0  0  0  0  0  0
   33.5165   21.1382   -3.1258 H   0  0  0  0  0  0
   22.7216   24.0646   -6.1081 H   0  0  0  0  0  0
  1  2  2  0  0  0
  1 12  1  0  0  0
  1 13  1  0  0  0
  2 11  1  0  0  0
  2 55  1  0  0  0
  3  8  1  0  0  0
  3 12  2  0  0  0
  3 56  1  0  0  0
  4 13  1  0  0  0
  4 14  1  0  0  0
  4 57  1  0  0  0
  5  9  1  0  0  0
  5 10  2  0  0  0
  5 15  1  0  0  0
  6 14  1  0  0  0
  6 58  1  0  0  0
  6 59  1  0  0  0
  7 14  2  0  0  0
  7 60  1  0  0  0
  7112  1  0  0  0
  8 11  2  0  0  0
  8 61  1  0  0  0
  9 11  1  0  0  0
  9 62  1  0  0  0
  9 63  1  0  0  0
 12 64  1  0  0  0
 13 65  1  0  0  0
 13 66  1  0  0  0
 15 16  1  0  0  0
 15 67  1  0  0  0
 16 17  1  0  0  0
 16 19  1  0  0  0
 16 68  1  0  0  0
 17 18  2  0  0  0
 17 26  1  0  0  0
 19 20  1  0  0  0
 19 69  1  0  0  0
 19 70  1  0  0  0
 20 21  1  0  0  0
 20 71  1  0  0  0
 20 72  1  0  0  0
 21 22  1  0  0  0
 21 73  1  0  0  0
 21 74  1  0  0  0
 22 23  1  0  0  0
 22 75  1  0  0  0
 23 24  2  0  0  0
 23 25  1  0  0  0
 24 76  1  0  0  0
 24111  1  0  0  0
 25 77  1  0  0  0
 25 78  1  0  0  0
 26 27  1  0  0  0
 26 79  1  0  0  0
 27 28  1  0  0  0
 27 30  1  0  0  0
 27 80  1  0  0  0
 28 29  2  0  0  0
 28 33  1  0  0  0
 30 31  1  0  0  0
 30 32  1  0  0  0
 30 81  1  0  0  0
 31 82  1  0  0  0
 31 83  1  0  0  0
 31 84  1  0  0  0
 32 85  1  0  0  0
 32 86  1  0  0  0
 32 87  1  0  0  0
 33 34  1  0  0  0
 33 88  1  0  0  0
 34 35  1  0  0  0
 34 37  1  0  0  0
 34 89  1  0  0  0
 35 36  2  0  0  0
 35 44  1  0  0  0
 37 38  1  0  0  0
 37 90  1  0  0  0
 37 91  1  0  0  0
 38 39  1  0  0  0
 38 92  1  0  0  0
 38 93  1  0  0  0
 39 40  1  0  0  0
 39 94  1  0  0  0
 39 95  1  0  0  0
 40 41  1  0  0  0
 40 96  1  0  0  0
 41 42  1  0  0  0
 41 43  2  0  0  0
 42 97  1  0  0  0
 42 98  1  0  0  0
 43 99  1  0  0  0
 43110  1  0  0  0
 44 45  1  0  0  0
 44100  1  0  0  0
 45 46  1  0  0  0
 45101  1  0  0  0
 45102  1  0  0  0
 46 47  2  0  0  0
 46 54  1  0  0  0
 47 48  1  0  0  0
 47103  1  0  0  0
 48 49  2  0  0  0
 48104  1  0  0  0
 49 50  1  0  0  0
 49 53  1  0  0  0
 50 51  1  0  0  0
 50 52  2  0  0  0
 51105  1  0  0  0
 51106  1  0  0  0
 52107  1  0  0  0
 52113  1  0  0  0
 53 54  2  0  0  0
 53108  1  0  0  0
 54109  1  0  0  0
M  CHG  4   7   1  24   1  43   1  52   1
M  END
> <s_m_source_file>
../4omc_ligand.sdf

> <i_m_source_file_index>
1

> <s_epik_input>
W0hdL049QyhbTkgyXSkvW05IXVtDSDJdYzFbY0hdYyhbY0hdW2NIXVtjSF0xKVtDSDJdQyg9TylbTkhdW0NAQEhdKFtDSDJdW0NIMl1bQ0gyXVtOSF0vQyg9TlxbSF0pW05IMl0pQyg9TylbTkhdW0NAQEhdKFtDSF0oW0NIM10pW0NIM10pQyg9TylbTkhdW0NAQEhdKFtDSDJdW0NIMl1bQ0gyXVtOSF0vQyhbTkgyXSk9TlxbSF0pQyg9TylbTkhdW0NIMl1jMltjSF1bY0hdYygvQyhbTkgyXSk9TlxbSF0pW2NIXVtjSF0y

> <s_epik_cmdline>
J2VwaWtfYXBwJywgJy1pbWFlJywgJ2xpZ2FuZF9wcm8ubWFlJywgJy1vbWFlJywgJ2xpZ2FuZF9wcmVwLm1hZScsICctbXMnLCAnMScsICctcGgnLCAnNycsICctcGh0JywgJzAuNScsICctbnQn

> <r_lp_tautomer_probability>
1

> <r_epik_Ionization_Penalty>
  0.0002

> <r_epik_Ionization_Penalty_Charging>
  0.0002

> <r_epik_Ionization_Penalty_Neutral>
  0.0000

> <r_epik_State_Penalty>
 -0.0000

> <r_epik_Charging_Adjusted_Penalty>
0.000199075516574916

> <i_epik_Tot_Q>
4

> <i_epik_Tot_abs_Q>
4

> <s_epik_Chemistry_Notes>
This compound has an imine and may undergo hydrolysis.

$$$$
