4omd_ligand
                    3D
 Schrodinger Suite 2020-3.
102103  0  0  1  0            999 V2000
   33.1150   25.6080   -8.8480 C   0  0  0  0  0  0
   34.1610   25.8380   -7.9300 C   0  0  0  0  0  0
   35.1010   24.8410   -7.6050 C   0  0  0  0  0  0
   34.9900   23.5780   -8.2150 C   0  0  0  0  0  0
   33.9480   23.3140   -9.1440 C   0  0  0  0  0  0
   33.0130   24.3400   -9.4530 C   0  0  0  0  0  0
   32.1230   26.6980   -9.1690 C   0  0  0  0  0  0
   30.8990   26.7320   -8.2790 C   0  0  0  0  0  0
   29.9480   25.9540   -8.4210 O   0  0  0  0  0  0
   30.9550   27.6610   -7.3280 N   0  0  0  0  0  0
   29.8700   27.8520   -6.3660 C   0  0  2  0  0  0
   29.3230   29.2740   -6.4840 C   0  0  0  0  0  0
   30.0820   30.2380   -6.4560 O   0  0  0  0  0  0
   30.3790   27.5780   -4.9480 C   0  0  0  0  0  0
   30.8650   26.1440   -4.7410 C   0  0  0  0  0  0
   29.7160   25.1740   -4.8490 C   0  0  0  0  0  0
   30.1320   23.7830   -4.7320 N   0  0  0  0  0  0
   30.2660   22.9630   -5.7670 C   0  0  0  0  0  0
   30.6400   21.7030   -5.5800 N   0  0  0  0  0  0
   30.0250   23.4060   -6.9940 N   0  3  0  0  0  0
   28.0060   29.4110   -6.6110 N   0  0  0  0  0  0
   27.3960   30.7300   -6.7830 C   0  0  2  0  0  0
   26.3760   31.0960   -5.7170 C   0  0  0  0  0  0
   25.7950   30.2200   -5.0710 O   0  0  0  0  0  0
   26.6880   30.8060   -8.1450 C   0  0  0  0  0  0
   27.6500   30.4060   -9.2420 C   0  0  0  0  0  0
   25.4760   29.8710   -8.1620 C   0  0  0  0  0  0
   26.1550   32.3960   -5.5440 N   0  0  0  0  0  0
   25.1790   32.8750   -4.5750 C   0  0  2  0  0  0
   23.8120   32.4570   -5.1170 C   0  0  0  0  0  0
   23.5520   32.5850   -6.3150 O   0  0  0  0  0  0
   25.2560   34.3960   -4.4480 C   0  0  0  0  0  0
   26.5780   34.9210   -3.9080 C   0  0  0  0  0  0
   26.5740   36.4400   -3.8790 C   0  0  0  0  0  0
   27.8230   37.0210   -3.3960 N   0  0  0  0  0  0
   28.9990   36.8870   -4.0060 C   0  0  0  0  0  0
   29.0840   36.1790   -5.1260 N   0  3  0  0  0  0
   30.0870   37.4720   -3.5050 N   0  0  0  0  0  0
   22.9430   31.9660   -4.2370 N   0  0  0  0  0  0
   21.6110   31.5180   -4.6180 C   0  0  0  0  0  0
   21.6050   30.0270   -4.8000 C   0  0  0  0  0  0
   21.3350   29.1770   -3.7090 C   0  0  0  0  0  0
   21.4630   27.7700   -3.8310 C   0  0  0  0  0  0
   21.8560   27.1860   -5.0470 C   0  0  0  0  0  0
   21.9940   25.6930   -5.1710 C   0  0  0  0  0  0
   21.3830   24.9280   -4.2690 N   0  0  0  0  0  0
   22.7170   25.1400   -6.1370 N   0  3  0  0  0  0
   22.1150   28.0280   -6.1470 C   0  0  0  0  0  0
   21.9860   29.4520   -6.0260 C   0  0  0  0  0  0
   34.2442   26.8169   -7.4579 H   0  0  0  0  0  0
   35.9009   25.0443   -6.8930 H   0  0  0  0  0  0
   35.7093   22.7957   -7.9729 H   0  0  0  0  0  0
   33.8660   22.3346   -9.6153 H   0  0  0  0  0  0
   32.2106   24.1435  -10.1641 H   0  0  0  0  0  0
   32.6113   27.6788   -9.0705 H   0  0  0  0  0  0
   31.7596   26.5712  -10.1995 H   0  0  0  0  0  0
   31.8520   28.2957   -7.2785 H   0  0  0  0  0  0
   29.0802   27.1301   -6.6210 H   0  0  0  0  0  0
   31.2234   28.2470   -4.7259 H   0  0  0  0  0  0
   29.5687   27.7583   -4.2263 H   0  0  0  0  0  0
   31.6138   25.8964   -5.5078 H   0  0  0  0  0  0
   31.3177   26.0507   -3.7428 H   0  0  0  0  0  0
   28.9905   25.3742   -4.0467 H   0  0  0  0  0  0
   29.2249   25.2946   -5.8259 H   0  0  0  0  0  0
   30.3554   23.3571   -3.7427 H   0  0  0  0  0  0
   30.8403   21.3338   -4.5633 H   0  0  0  0  0  0
   30.7496   21.0281   -6.4417 H   0  0  0  0  0  0
   29.7150   24.4497   -7.1509 H   0  0  0  0  0  0
   27.3733   28.5116   -6.5850 H   0  0  0  0  0  0
   28.2582   31.4063   -6.6874 H   0  0  0  0  0  0
   26.3530   31.8379   -8.3264 H   0  0  0  0  0  0
   28.5206   31.0782   -9.2293 H   0  0  0  0  0  0
   27.1452   30.4782  -10.2167 H   0  0  0  0  0  0
   27.9836   29.3708   -9.0776 H   0  0  0  0  0  0
   24.7770   30.1623   -7.3642 H   0  0  0  0  0  0
   25.8093   28.8357   -7.9975 H   0  0  0  0  0  0
   24.9709   29.9432   -9.1365 H   0  0  0  0  0  0
   26.7264   33.1144   -6.1502 H   0  0  0  0  0  0
   25.4018   32.4322   -3.5930 H   0  0  0  0  0  0
   25.1115   34.8543   -5.4375 H   0  0  0  0  0  0
   24.4701   34.7470   -3.7630 H   0  0  0  0  0  0
   26.7322   34.5441   -2.8862 H   0  0  0  0  0  0
   27.4000   34.5777   -4.5534 H   0  0  0  0  0  0
   26.4049   36.8257   -4.8952 H   0  0  0  0  0  0
   25.7708   36.7920   -3.2149 H   0  0  0  0  0  0
   27.8315   37.6150   -2.4702 H   0  0  0  0  0  0
   28.1870   35.6957   -5.5406 H   0  0  0  0  0  0
   30.0181   38.0589   -2.5772 H   0  0  0  0  0  0
   31.0537   37.3679   -4.0194 H   0  0  0  0  0  0
   23.2642   31.9053   -3.1867 H   0  0  0  0  0  0
   20.8933   31.7900   -3.8300 H   0  0  0  0  0  0
   21.3183   31.9997   -5.5626 H   0  0  0  0  0  0
   21.0232   29.6073   -2.7573 H   0  0  0  0  0  0
   21.2540   27.1338   -2.9710 H   0  0  0  0  0  0
   20.7848   25.3906   -3.4701 H   0  0  0  0  0  0
   21.4763   23.8333   -4.3225 H   0  0  0  0  0  0
   23.2202   25.7760   -6.8802 H   0  0  0  0  0  0
   22.4165   27.5929   -7.0998 H   0  0  0  0  0  0
   22.1839   30.0904   -6.8871 H   0  0  0  0  0  0
   30.0514   36.0757   -5.6393 H   0  0  0  0  0  0
   30.1352   22.7296   -7.8545 H   0  0  0  0  0  0
   22.8130   24.0457   -6.1944 H   0  0  0  0  0  0
  1  2  2  0  0  0
  1  6  1  0  0  0
  1  7  1  0  0  0
  2  3  1  0  0  0
  2 50  1  0  0  0
  3  4  2  0  0  0
  3 51  1  0  0  0
  4  5  1  0  0  0
  4 52  1  0  0  0
  5  6  2  0  0  0
  5 53  1  0  0  0
  6 54  1  0  0  0
  7  8  1  0  0  0
  7 55  1  0  0  0
  7 56  1  0  0  0
  8  9  2  0  0  0
  8 10  1  0  0  0
 10 11  1  0  0  0
 10 57  1  0  0  0
 11 12  1  0  0  0
 11 14  1  0  0  0
 11 58  1  0  0  0
 12 13  2  0  0  0
 12 21  1  0  0  0
 14 15  1  0  0  0
 14 59  1  0  0  0
 14 60  1  0  0  0
 15 16  1  0  0  0
 15 61  1  0  0  0
 15 62  1  0  0  0
 16 17  1  0  0  0
 16 63  1  0  0  0
 16 64  1  0  0  0
 17 18  1  0  0  0
 17 65  1  0  0  0
 18 19  1  0  0  0
 18 20  2  0  0  0
 19 66  1  0  0  0
 19 67  1  0  0  0
 20 68  1  0  0  0
 20101  1  0  0  0
 21 22  1  0  0  0
 21 69  1  0  0  0
 22 23  1  0  0  0
 22 25  1  0  0  0
 22 70  1  0  0  0
 23 24  2  0  0  0
 23 28  1  0  0  0
 25 26  1  0  0  0
 25 27  1  0  0  0
 25 71  1  0  0  0
 26 72  1  0  0  0
 26 73  1  0  0  0
 26 74  1  0  0  0
 27 75  1  0  0  0
 27 76  1  0  0  0
 27 77  1  0  0  0
 28 29  1  0  0  0
 28 78  1  0  0  0
 29 30  1  0  0  0
 29 32  1  0  0  0
 29 79  1  0  0  0
 30 31  2  0  0  0
 30 39  1  0  0  0
 32 33  1  0  0  0
 32 80  1  0  0  0
 32 81  1  0  0  0
 33 34  1  0  0  0
 33 82  1  0  0  0
 33 83  1  0  0  0
 34 35  1  0  0  0
 34 84  1  0  0  0
 34 85  1  0  0  0
 35 36  1  0  0  0
 35 86  1  0  0  0
 36 37  2  0  0  0
 36 38  1  0  0  0
 37 87  1  0  0  0
 37100  1  0  0  0
 38 88  1  0  0  0
 38 89  1  0  0  0
 39 40  1  0  0  0
 39 90  1  0  0  0
 40 41  1  0  0  0
 40 91  1  0  0  0
 40 92  1  0  0  0
 41 42  2  0  0  0
 41 49  1  0  0  0
 42 43  1  0  0  0
 42 93  1  0  0  0
 43 44  2  0  0  0
 43 94  1  0  0  0
 44 45  1  0  0  0
 44 48  1  0  0  0
 45 46  1  0  0  0
 45 47  2  0  0  0
 46 95  1  0  0  0
 46 96  1  0  0  0
 47 97  1  0  0  0
 47102  1  0  0  0
 48 49  2  0  0  0
 48 98  1  0  0  0
 49 99  1  0  0  0
M  CHG  3  20   1  37   1  47   1
M  END
> <s_m_source_file>
../4omd_ligand.sdf

> <i_m_source_file_index>
1

> <s_epik_input>
W2NIXTFbY0hdW2NIXVtjSF1bY0hdYzFbQ0gyXUMoPU8pW05IXVtDQEBIXShbQ0gyXVtDSDJdW0NIMl1bTkhdL0MoW05IMl0pPU5cW0hdKUMoPU8pW05IXVtDQEBIXShbQ0hdKFtDSDNdKVtDSDNdKUMoPU8pW05IXVtDQEBIXShbQ0gyXVtDSDJdW0NIMl1bTkhdL0MoPU5cW0hdKVtOSDJdKUMoPU8pW05IXVtDSDJdYzJbY0hdW2NIXWMoL0MoW05IMl0pPU5cW0hdKVtjSF1bY0hdMg==

> <s_epik_cmdline>
J2VwaWtfYXBwJywgJy1pbWFlJywgJ2xpZ2FuZF9wcm8ubWFlJywgJy1vbWFlJywgJ2xpZ2FuZF9wcmVwLm1hZScsICctbXMnLCAnMScsICctcGgnLCAnNycsICctcGh0JywgJzAuNScsICctbnQn

> <r_lp_tautomer_probability>
1

> <r_epik_Ionization_Penalty>
  0.0002

> <r_epik_Ionization_Penalty_Charging>
  0.0002

> <r_epik_Ionization_Penalty_Neutral>
  0.0000

> <r_epik_State_Penalty>
 -0.0000

> <r_epik_Charging_Adjusted_Penalty>
0.000181451570696929

> <i_epik_Tot_Q>
3

> <i_epik_Tot_abs_Q>
3

> <s_epik_Chemistry_Notes>
This compound has an imine and may undergo hydrolysis.

$$$$
