4omj_ligand
                    3D
 Schrodinger Suite 2020-3.
 91 91  0  0  1  0            999 V2000
   84.6210    1.6060    7.0600 C   0  0  0  0  0  0
   86.0360    1.0960    7.3460 C   0  0  0  0  0  0
   86.8640    0.8360    6.1050 C   0  0  0  0  0  0
   86.1370    0.2500    8.5240 O   0  0  0  0  0  0
   86.8290    1.5580    8.5010 C   0  0  1  0  0  0
   88.3380    1.4940    8.2410 C   0  0  0  0  0  0
   89.0230    2.3660    9.2580 C   0  0  0  0  0  0
   90.5330    2.1650    9.4100 C   0  0  2  0  0  0
   91.1500    0.7920    9.6540 C   0  0  0  0  0  0
   91.4160    3.3900    9.5060 C   0  0  0  0  0  0
   92.8800    3.0970    9.7770 C   0  0  0  0  0  0
   93.4830    4.3570   10.3730 C   0  0  0  0  0  0
   93.6510    5.3660    9.2660 C   0  0  2  0  0  0
   94.5770    5.0710    8.1010 C   0  0  0  0  0  0
   92.9190    6.6680    9.3270 C   0  0  0  0  0  0
   93.1360    7.6040    8.1390 C   0  0  0  0  0  0
   91.7600    8.1720    7.9060 C   0  0  0  0  0  0
   91.6660    9.0880    6.6890 C   0  0  0  0  0  0
   91.2850   10.5090    7.0530 C   0  0  2  0  0  0
   91.0220   10.9060    8.5080 C   0  0  0  0  0  0
   91.0240   11.5140    5.9660 C   0  0  0  0  0  0
   89.5110   11.7490    5.9870 C   0  0  0  0  0  0
   89.0010   12.1160    4.6080 C   0  0  0  0  0  0
   87.9190   13.1850    4.5220 C   0  0  2  0  0  0
   87.3380   13.8380    5.7670 C   0  0  0  0  0  0
   87.3270   13.5310    3.1630 C   0  0  0  0  0  0
   86.2080   12.5050    2.9130 C   0  0  0  0  0  0
   84.9940   12.8540    3.7800 C   0  0  0  0  0  0
   84.3230   11.7030    4.5310 C   0  0  0  0  0  0
   84.8670   10.2750    4.4360 C   0  0  0  0  0  0
   83.1040   11.9890    5.4060 C   0  0  0  0  0  0
   84.2333    1.1217    6.1516 H   0  0  0  0  0  0
   84.6469    2.6957    6.9120 H   0  0  0  0  0  0
   83.9662    1.3670    7.9109 H   0  0  0  0  0  0
   86.2072    0.4965    5.2905 H   0  0  0  0  0  0
   87.6129    0.0596    6.3200 H   0  0  0  0  0  0
   87.3732    1.7631    5.8031 H   0  0  0  0  0  0
   86.8175    2.4342    9.1660 H   0  0  0  0  0  0
   88.6831    0.4541    8.3385 H   0  0  0  0  0  0
   88.5507    1.8571    7.2247 H   0  0  0  0  0  0
   88.8823    3.4232    8.9887 H   0  0  0  0  0  0
   88.5897    2.1800   10.2518 H   0  0  0  0  0  0
   90.5892    1.8669    8.3527 H   0  0  0  0  0  0
   90.3761    0.0178    9.5461 H   0  0  0  0  0  0
   91.5681    0.7533   10.6707 H   0  0  0  0  0  0
   91.9509    0.6145    8.9212 H   0  0  0  0  0  0
   91.3735    3.9477    8.5588 H   0  0  0  0  0  0
   91.0634    4.0328   10.3261 H   0  0  0  0  0  0
   92.9613    2.2565   10.4820 H   0  0  0  0  0  0
   93.3821    2.8346    8.8341 H   0  0  0  0  0  0
   92.8110    4.7539   11.1482 H   0  0  0  0  0  0
   94.4595    4.1200   10.8206 H   0  0  0  0  0  0
   94.4864    5.8272    9.8132 H   0  0  0  0  0  0
   95.0220    4.0733    8.2299 H   0  0  0  0  0  0
   95.3754    5.8269    8.0667 H   0  0  0  0  0  0
   94.0050    5.0989    7.1618 H   0  0  0  0  0  0
   91.8367    6.4781    9.3772 H   0  0  0  0  0  0
   93.2354    7.2250   10.2212 H   0  0  0  0  0  0
   93.8731    8.3745    8.4092 H   0  0  0  0  0  0
   93.5077    7.0261    7.2800 H   0  0  0  0  0  0
   91.0456    7.3502    7.7503 H   0  0  0  0  0  0
   91.4540    8.7628    8.7820 H   0  0  0  0  0  0
   92.6400    9.1210    6.1789 H   0  0  0  0  0  0
   90.9028    8.7017    5.9974 H   0  0  0  0  0  0
   92.3750   10.6538    7.0225 H   0  0  0  0  0  0
   91.2633   10.0599    9.1683 H   0  0  0  0  0  0
   89.9622   11.1748    8.6289 H   0  0  0  0  0  0
   91.6515   11.7685    8.7722 H   0  0  0  0  0  0
   91.5788   12.4392    6.1811 H   0  0  0  0  0  0
   91.3550   11.1041    5.0004 H   0  0  0  0  0  0
   89.0021   10.8322    6.3195 H   0  0  0  0  0  0
   89.2771   12.5703    6.6804 H   0  0  0  0  0  0
   89.8342   12.4947    3.9977 H   0  0  0  0  0  0
   88.5698   11.2254    4.1275 H   0  0  0  0  0  0
   88.7661   13.8366    4.7826 H   0  0  0  0  0  0
   87.8785   13.4793    6.6554 H   0  0  0  0  0  0
   86.2732   13.5765    5.8552 H   0  0  0  0  0  0
   87.4422   14.9304    5.6907 H   0  0  0  0  0  0
   86.9279   14.5558    3.1871 H   0  0  0  0  0  0
   88.1097   13.4603    2.3933 H   0  0  0  0  0  0
   85.9200   12.5279    1.8516 H   0  0  0  0  0  0
   86.5682   11.4988    3.1735 H   0  0  0  0  0  0
   85.2915   13.5777    4.5532 H   0  0  0  0  0  0
   84.2073   13.2938    3.1494 H   0  0  0  0  0  0
   83.6751   11.5140    3.6624 H   0  0  0  0  0  0
   85.7398   10.2589    3.7667 H   0  0  0  0  0  0
   84.0862    9.6110    4.0365 H   0  0  0  0  0  0
   85.1658    9.9292    5.4366 H   0  0  0  0  0  0
   82.8575   13.0597    5.3528 H   0  0  0  0  0  0
   83.3281   11.7157    6.4477 H   0  0  0  0  0  0
   82.2486   11.3976    5.0476 H   0  0  0  0  0  0
  1  2  1  0  0  0
  1 32  1  0  0  0
  1 33  1  0  0  0
  1 34  1  0  0  0
  2  3  1  0  0  0
  2  4  1  0  0  0
  2  5  1  0  0  0
  3 35  1  0  0  0
  3 36  1  0  0  0
  3 37  1  0  0  0
  4  5  1  0  0  0
  5  6  1  0  0  0
  5 38  1  0  0  0
  6  7  1  0  0  0
  6 39  1  0  0  0
  6 40  1  0  0  0
  7  8  1  0  0  0
  7 41  1  0  0  0
  7 42  1  0  0  0
  8  9  1  0  0  0
  8 10  1  0  0  0
  8 43  1  0  0  0
  9 44  1  0  0  0
  9 45  1  0  0  0
  9 46  1  0  0  0
 10 11  1  0  0  0
 10 47  1  0  0  0
 10 48  1  0  0  0
 11 12  1  0  0  0
 11 49  1  0  0  0
 11 50  1  0  0  0
 12 13  1  0  0  0
 12 51  1  0  0  0
 12 52  1  0  0  0
 13 14  1  0  0  0
 13 15  1  0  0  0
 13 53  1  0  0  0
 14 54  1  0  0  0
 14 55  1  0  0  0
 14 56  1  0  0  0
 15 16  1  0  0  0
 15 57  1  0  0  0
 15 58  1  0  0  0
 16 17  1  0  0  0
 16 59  1  0  0  0
 16 60  1  0  0  0
 17 18  1  0  0  0
 17 61  1  0  0  0
 17 62  1  0  0  0
 18 19  1  0  0  0
 18 63  1  0  0  0
 18 64  1  0  0  0
 19 20  1  0  0  0
 19 21  1  0  0  0
 19 65  1  0  0  0
 20 66  1  0  0  0
 20 67  1  0  0  0
 20 68  1  0  0  0
 21 22  1  0  0  0
 21 69  1  0  0  0
 21 70  1  0  0  0
 22 23  1  0  0  0
 22 71  1  0  0  0
 22 72  1  0  0  0
 23 24  1  0  0  0
 23 73  1  0  0  0
 23 74  1  0  0  0
 24 25  1  0  0  0
 24 26  1  0  0  0
 24 75  1  0  0  0
 25 76  1  0  0  0
 25 77  1  0  0  0
 25 78  1  0  0  0
 26 27  1  0  0  0
 26 79  1  0  0  0
 26 80  1  0  0  0
 27 28  1  0  0  0
 27 81  1  0  0  0
 27 82  1  0  0  0
 28 29  1  0  0  0
 28 83  1  0  0  0
 28 84  1  0  0  0
 29 30  1  0  0  0
 29 31  1  0  0  0
 29 85  1  0  0  0
 30 86  1  0  0  0
 30 87  1  0  0  0
 30 88  1  0  0  0
 31 89  1  0  0  0
 31 90  1  0  0  0
 31 91  1  0  0  0
M  END
> <s_m_source_file>
../4omj_ligand.sdf

> <i_m_source_file_index>
1

> <s_epik_input>
W0NIM11DMShbQ0gzXSlPW0NASF0xW0NIMl1bQ0gyXVtDQEhdKFtDSDNdKVtDSDJdW0NIMl1bQ0gyXVtDQEhdKFtDSDNdKVtDSDJdW0NIMl1bQ0gyXVtDSDJdW0NASF0oW0NIM10pW0NIMl1bQ0gyXVtDSDJdW0NASF0oW0NIM10pW0NIMl1bQ0gyXVtDSDJdW0NIXShbQ0gzXSlbQ0gzXQ==

> <s_epik_cmdline>
J2VwaWtfYXBwJywgJy1pbWFlJywgJ2xpZ2FuZF9wcm8ubWFlJywgJy1vbWFlJywgJ2xpZ2FuZF9wcmVwLm1hZScsICctbXMnLCAnMScsICctcGgnLCAnNycsICctcGh0JywgJzAuNScsICctbnQn

> <r_lp_tautomer_probability>
1

> <r_epik_Ionization_Penalty>
  0.0000

> <r_epik_Ionization_Penalty_Charging>
  0.0000

> <r_epik_Ionization_Penalty_Neutral>
  0.0000

> <r_epik_State_Penalty>
 -0.0000

> <r_epik_Charging_Adjusted_Penalty>
0

> <i_epik_Tot_Q>
0

> <i_epik_Tot_abs_Q>
0

$$$$
