4omk_ligand
                    3D
 Schrodinger Suite 2020-3.
 92 91  0  0  1  0            999 V2000
   13.8780   -0.2390    8.9390 C   0  0  0  0  0  0
   14.1480    0.7280    7.8130 C   0  0  0  0  0  0
   13.1270    0.9070    6.6950 C   0  0  0  0  0  0
   15.4190    1.5320    7.8130 C   0  0  0  0  0  0
   16.4610    1.4020    8.9240 C   0  0  0  0  0  0
   17.7360    1.8440    8.2750 C   0  0  0  0  0  0
   18.9070    1.8990    9.2240 C   0  0  1  0  0  0
   19.3430    0.6440    9.9740 C   0  0  0  0  0  0
   19.6530    3.2210    9.3220 C   0  0  0  0  0  0
   20.8860    3.2480   10.2150 C   0  0  0  0  0  0
   21.3690    4.6760   10.3880 C   0  0  0  0  0  0
   21.8830    5.2340    9.0600 C   0  0  3  0  0  0
   22.9020    4.4690    8.2430 C   0  0  0  0  0  0
   21.4130    6.5620    8.5200 C   0  0  0  0  0  0
   20.4330    7.4230    9.2810 C   0  0  0  0  0  0
   20.8800    8.8520    9.0650 C   0  0  0  0  0  0
   20.5960    9.3130    7.6260 C   0  0  0  0  0  0
   19.5790   10.4280    7.3550 C   0  0  3  0  0  0
   18.8290   11.0820    8.4950 C   0  0  0  0  0  0
   19.2960   10.8950    5.9330 C   0  0  0  0  0  0
   17.7800   11.0310    5.7510 C   0  0  0  0  0  0
   17.5010   11.6650    4.4110 C   0  0  0  0  0  0
   16.3880   12.6900    4.2230 C   0  0  1  0  0  0
   15.5280   13.1540    5.4110 C   0  0  0  0  0  0
   14.1800   13.7590    4.9880 C   0  0  0  0  0  0
   13.1470   12.6640    4.7800 C   0  0  0  0  0  0
   12.4070   11.6140    3.9670 C   0  0  0  0  0  0
   11.2100   10.9320    4.6050 C   0  0  0  0  0  0
   12.8750   11.1800    2.5730 C   0  0  0  0  0  0
   16.2170   13.2820    2.8260 C   0  0  0  0  0  0
   12.9098   -0.7340    8.7729 H   0  0  0  0  0  0
   13.8515    0.3075    9.8932 H   0  0  0  0  0  0
   14.6758   -0.9956    8.9718 H   0  0  0  0  0  0
   14.6346   -0.0751    7.2400 H   0  0  0  0  0  0
   12.2717    0.2376    6.8690 H   0  0  0  0  0  0
   13.5938    0.6622    5.7295 H   0  0  0  0  0  0
   12.7789    1.9504    6.6799 H   0  0  0  0  0  0
   15.9979    1.3028    6.9061 H   0  0  0  0  0  0
   15.1746    2.6044    7.8306 H   0  0  0  0  0  0
   16.1792    2.0481    9.7684 H   0  0  0  0  0  0
   16.5079    0.3563    9.2622 H   0  0  0  0  0  0
   17.9987    1.1438    7.4683 H   0  0  0  0  0  0
   17.6039    2.8526    7.8564 H   0  0  0  0  0  0
   18.7887    1.7700   10.3100 H   0  0  0  0  0  0
   18.6503   -0.1793    9.7449 H   0  0  0  0  0  0
   19.3328    0.8414   11.0561 H   0  0  0  0  0  0
   20.3602    0.3650    9.6617 H   0  0  0  0  0  0
   20.0024    3.5198    8.3227 H   0  0  0  0  0  0
   18.9792    3.9935    9.7210 H   0  0  0  0  0  0
   20.6343    2.8288   11.2004 H   0  0  0  0  0  0
   21.6852    2.6485    9.7548 H   0  0  0  0  0  0
   20.5377    5.3040   10.7409 H   0  0  0  0  0  0
   22.1853    4.7003   11.1249 H   0  0  0  0  0  0
   22.6963    5.7497    9.5915 H   0  0  0  0  0  0
   23.1499    3.5273    8.7546 H   0  0  0  0  0  0
   23.8124    5.0761    8.1308 H   0  0  0  0  0  0
   22.4842    4.2477    7.2498 H   0  0  0  0  0  0
   22.2772    7.2286    8.3829 H   0  0  0  0  0  0
   20.9117    6.4080    7.5530 H   0  0  0  0  0  0
   19.4189    7.2596    8.8875 H   0  0  0  0  0  0
   20.4602    7.1546   10.3474 H   0  0  0  0  0  0
   20.3400    9.5138    9.7581 H   0  0  0  0  0  0
   21.9613    8.9301    9.2511 H   0  0  0  0  0  0
   21.5244    9.6894    7.1716 H   0  0  0  0  0  0
   20.2173    8.4646    7.0371 H   0  0  0  0  0  0
   18.7808    9.6770    7.2607 H   0  0  0  0  0  0
   19.1470   10.6339    9.4479 H   0  0  0  0  0  0
   17.7484   10.9272    8.3596 H   0  0  0  0  0  0
   19.0464   12.1602    8.5062 H   0  0  0  0  0  0
   19.7808   11.8677    5.7632 H   0  0  0  0  0  0
   19.6927   10.1580    5.2192 H   0  0  0  0  0  0
   17.3147   10.0352    5.7942 H   0  0  0  0  0  0
   17.3696   11.6625    6.5527 H   0  0  0  0  0  0
   18.3955   12.2053    4.0677 H   0  0  0  0  0  0
   17.2428   10.8829    3.6819 H   0  0  0  0  0  0
   15.3874   12.3117    4.4793 H   0  0  0  0  0  0
   15.3146   12.2965    6.0661 H   0  0  0  0  0  0
   16.0719   13.9231    5.9791 H   0  0  0  0  0  0
   13.8229   14.4428    5.7721 H   0  0  0  0  0  0
   14.3065   14.3143    4.0469 H   0  0  0  0  0  0
   13.3506   11.8320    5.4701 H   0  0  0  0  0  0
   12.1421   13.0658    4.9766 H   0  0  0  0  0  0
   12.2693   12.4400    3.2537 H   0  0  0  0  0  0
   11.0230   11.3711    5.5961 H   0  0  0  0  0  0
   11.4153    9.8567    4.7132 H   0  0  0  0  0  0
   10.3245   11.0740    3.9680 H   0  0  0  0  0  0
   13.7477   11.7801    2.2759 H   0  0  0  0  0  0
   12.0612   11.3329    1.8489 H   0  0  0  0  0  0
   13.1519   10.1156    2.5941 H   0  0  0  0  0  0
   16.9302   12.8067    2.1365 H   0  0  0  0  0  0
   16.4069   14.3649    2.8609 H   0  0  0  0  0  0
   15.1906   13.1009    2.4742 H   0  0  0  0  0  0
  1  2  1  0  0  0
  1 31  1  0  0  0
  1 32  1  0  0  0
  1 33  1  0  0  0
  2  3  1  0  0  0
  2  4  1  0  0  0
  2 34  1  0  0  0
  3 35  1  0  0  0
  3 36  1  0  0  0
  3 37  1  0  0  0
  4  5  1  0  0  0
  4 38  1  0  0  0
  4 39  1  0  0  0
  5  6  1  0  0  0
  5 40  1  0  0  0
  5 41  1  0  0  0
  6  7  1  0  0  0
  6 42  1  0  0  0
  6 43  1  0  0  0
  7  8  1  0  0  0
  7  9  1  0  0  0
  7 44  1  0  0  0
  8 45  1  0  0  0
  8 46  1  0  0  0
  8 47  1  0  0  0
  9 10  1  0  0  0
  9 48  1  0  0  0
  9 49  1  0  0  0
 10 11  1  0  0  0
 10 50  1  0  0  0
 10 51  1  0  0  0
 11 12  1  0  0  0
 11 52  1  0  0  0
 11 53  1  0  0  0
 12 13  1  0  0  0
 12 14  1  0  0  0
 12 54  1  0  0  0
 13 55  1  0  0  0
 13 56  1  0  0  0
 13 57  1  0  0  0
 14 15  1  0  0  0
 14 58  1  0  0  0
 14 59  1  0  0  0
 15 16  1  0  0  0
 15 60  1  0  0  0
 15 61  1  0  0  0
 16 17  1  0  0  0
 16 62  1  0  0  0
 16 63  1  0  0  0
 17 18  1  0  0  0
 17 64  1  0  0  0
 17 65  1  0  0  0
 18 19  1  0  0  0
 18 20  1  0  0  0
 18 66  1  0  0  0
 19 67  1  0  0  0
 19 68  1  0  0  0
 19 69  1  0  0  0
 20 21  1  0  0  0
 20 70  1  0  0  0
 20 71  1  0  0  0
 21 22  1  0  0  0
 21 72  1  0  0  0
 21 73  1  0  0  0
 22 23  1  0  0  0
 22 74  1  0  0  0
 22 75  1  0  0  0
 23 24  1  0  0  0
 23 30  1  0  0  0
 23 76  1  0  0  0
 24 25  1  0  0  0
 24 77  1  0  0  0
 24 78  1  0  0  0
 25 26  1  0  0  0
 25 79  1  0  0  0
 25 80  1  0  0  0
 26 27  1  0  0  0
 26 81  1  0  0  0
 26 82  1  0  0  0
 27 28  1  0  0  0
 27 29  1  0  0  0
 27 83  1  0  0  0
 28 84  1  0  0  0
 28 85  1  0  0  0
 28 86  1  0  0  0
 29 87  1  0  0  0
 29 88  1  0  0  0
 29 89  1  0  0  0
 30 90  1  0  0  0
 30 91  1  0  0  0
 30 92  1  0  0  0
M  END
> <s_m_source_file>
../4omk_ligand.sdf

> <i_m_source_file_index>
1

> <s_epik_input>
W0NIM11bQ0hdKFtDSDNdKVtDSDJdW0NIMl1bQ0gyXVtDQEBIXShbQ0gzXSlbQ0gyXVtDSDJdW0NIMl1bQ0hdKFtDSDNdKVtDSDJdW0NIMl1bQ0gyXVtDSDJdW0NIXShbQ0gzXSlbQ0gyXVtDSDJdW0NIMl1bQ0hdKFtDSDNdKVtDSDJdW0NIMl1bQ0gyXVtDSF0oW0NIM10pW0NIM10=

> <s_epik_cmdline>
J2VwaWtfYXBwJywgJy1pbWFlJywgJ2xpZ2FuZF9wcm8ubWFlJywgJy1vbWFlJywgJ2xpZ2FuZF9wcmVwLm1hZScsICctbXMnLCAnMScsICctcGgnLCAnNycsICctcGh0JywgJzAuNScsICctbnQn

> <r_lp_tautomer_probability>
1

> <r_epik_Ionization_Penalty>
  0.0000

> <r_epik_Ionization_Penalty_Charging>
  0.0000

> <r_epik_Ionization_Penalty_Neutral>
  0.0000

> <r_epik_State_Penalty>
 -0.0000

> <r_epik_Charging_Adjusted_Penalty>
0

> <i_epik_Tot_Q>
0

> <i_epik_Tot_abs_Q>
0

$$$$
