4ona_ligand
                    3D
 Schrodinger Suite 2020-3.
 49 51  0  0  1  0            999 V2000
    9.8820  -19.5650  -32.8690 C   0  0  0  0  0  0
    8.4650  -19.2160  -32.4400 C   0  0  0  0  0  0
    7.5490  -19.8620  -33.3510 O   0  0  0  0  0  0
    6.2110  -19.6990  -33.1340 C   0  0  0  0  0  0
    5.7060  -19.0210  -32.0590 C   0  0  0  0  0  0
    5.3860  -20.3650  -34.0170 C   0  0  0  0  0  0
    4.0570  -20.4690  -33.7640 C   0  0  0  0  0  0
    3.4990  -19.8980  -32.6060 C   0  0  0  0  0  0
    2.1500  -20.0470  -32.2290 C   0  0  0  0  0  0
    4.3290  -19.1310  -31.7700 C   0  0  0  0  0  0
    3.8580  -18.5410  -30.6360 N   0  0  0  0  0  0
    2.5980  -18.7500  -30.3250 C   0  0  0  0  0  0
    1.6910  -19.4890  -31.0660 C   0  0  0  0  0  0
    0.2780  -19.5800  -30.6640 C   0  0  0  0  0  0
   -0.3240  -18.4550  -30.3000 N   0  0  0  0  0  0
   -1.6140  -18.8070  -29.9920 N   0  0  0  0  0  0
   -2.5250  -17.7040  -29.5200 C   0  0  0  0  0  0
   -1.7460  -16.3900  -29.4720 C   0  0  0  0  0  0
   -3.6890  -17.5590  -30.5000 C   0  0  0  0  0  0
   -3.0340  -18.0420  -28.1160 C   0  0  0  0  0  0
   -1.8300  -20.1250  -30.1670 C   0  0  0  0  0  0
   -3.0320  -20.7180  -30.0560 N   0  0  0  0  0  0
   -0.6040  -20.6920  -30.5830 C   0  0  0  0  0  0
   -0.4390  -22.1420  -30.7720 C   0  0  0  0  0  0
   -1.4230  -22.8540  -30.9150 O   0  0  0  0  0  0
    0.7670  -22.6760  -30.7610 N   0  0  0  0  0  0
   10.6001  -19.0835  -32.1889 H   0  0  0  0  0  0
   10.0528  -19.2078  -33.8953 H   0  0  0  0  0  0
   10.0177  -20.6560  -32.8331 H   0  0  0  0  0  0
    8.2942  -19.5732  -31.4137 H   0  0  0  0  0  0
    8.3292  -18.1250  -32.4759 H   0  0  0  0  0  0
    6.3558  -18.4063  -31.4362 H   0  0  0  0  0  0
    5.8033  -20.8090  -34.9208 H   0  0  0  0  0  0
    3.4147  -21.0009  -34.4659 H   0  0  0  0  0  0
    1.4679  -20.6095  -32.8665 H   0  0  0  0  0  0
    2.2343  -18.3012  -29.4006 H   0  0  0  0  0  0
   -1.3789  -16.1444  -30.4794 H   0  0  0  0  0  0
   -0.8924  -16.4947  -28.7861 H   0  0  0  0  0  0
   -2.4060  -15.5853  -29.1159 H   0  0  0  0  0  0
   -3.2988  -17.3167  -31.4995 H   0  0  0  0  0  0
   -4.3554  -16.7521  -30.1610 H   0  0  0  0  0  0
   -4.2505  -18.5038  -30.5447 H   0  0  0  0  0  0
   -2.1796  -18.1411  -27.4303 H   0  0  0  0  0  0
   -3.5916  -18.9897  -28.1464 H   0  0  0  0  0  0
   -3.6964  -17.2380  -27.7627 H   0  0  0  0  0  0
   -3.9021  -20.1379  -29.7148 H   0  0  0  0  0  0
   -3.1450  -21.7831  -30.3064 H   0  0  0  0  0  0
    1.6513  -22.0346  -30.6323 H   0  0  0  0  0  0
    0.8884  -23.7627  -30.8805 H   0  0  0  0  0  0
  1  2  1  0  0  0
  1 27  1  0  0  0
  1 28  1  0  0  0
  1 29  1  0  0  0
  2  3  1  0  0  0
  2 30  1  0  0  0
  2 31  1  0  0  0
  3  4  1  0  0  0
  4  5  2  0  0  0
  4  6  1  0  0  0
  5 10  1  0  0  0
  5 32  1  0  0  0
  6  7  2  0  0  0
  6 33  1  0  0  0
  7  8  1  0  0  0
  7 34  1  0  0  0
  8  9  1  0  0  0
  8 10  2  0  0  0
  9 13  2  0  0  0
  9 35  1  0  0  0
 10 11  1  0  0  0
 11 12  2  0  0  0
 12 13  1  0  0  0
 12 36  1  0  0  0
 13 14  1  0  0  0
 14 15  2  0  0  0
 14 23  1  0  0  0
 15 16  1  0  0  0
 16 17  1  0  0  0
 16 21  1  0  0  0
 17 18  1  0  0  0
 17 19  1  0  0  0
 17 20  1  0  0  0
 18 37  1  0  0  0
 18 38  1  0  0  0
 18 39  1  0  0  0
 19 40  1  0  0  0
 19 41  1  0  0  0
 19 42  1  0  0  0
 20 43  1  0  0  0
 20 44  1  0  0  0
 20 45  1  0  0  0
 21 22  1  0  0  0
 21 23  2  0  0  0
 22 46  1  0  0  0
 22 47  1  0  0  0
 23 24  1  0  0  0
 24 25  2  0  0  0
 24 26  1  0  0  0
 26 48  1  0  0  0
 26 49  1  0  0  0
M  END
> <s_m_source_file>
../4ona_ligand.sdf

> <i_m_source_file_index>
1

> <s_epik_input>
W0NIM11bQ0gyXU9jKFtjSF1bY0hdMSlbY0hdYyhjMTIpbltjSF1jKFtjSF0yKS1jM25uKEMoW0NIM10pKFtDSDNdKVtDSDNdKWMoW05IMl0pYzNDKD1PKVtOSDJd

> <s_epik_cmdline>
J2VwaWtfYXBwJywgJy1pbWFlJywgJ2xpZ2FuZF9wcm8ubWFlJywgJy1vbWFlJywgJ2xpZ2FuZF9wcmVwLm1hZScsICctbXMnLCAnMScsICctcGgnLCAnNycsICctcGh0JywgJzAuNScsICctbnQn

> <r_lp_tautomer_probability>
1

> <r_epik_Ionization_Penalty>
  0.0093

> <r_epik_Ionization_Penalty_Charging>
  0.0000

> <r_epik_Ionization_Penalty_Neutral>
  0.0093

> <r_epik_State_Penalty>
 -0.0000

> <r_epik_Charging_Adjusted_Penalty>
0

> <i_epik_Tot_Q>
0

> <i_epik_Tot_abs_Q>
0

$$$$
