4onf_ligand
                    3D
 Schrodinger Suite 2020-3.
 94 94  0  0  1  0            999 V2000
    3.2780    4.3280   33.4460 N   0  3  0  0  0  0
    2.6010    5.5700   33.8320 C   0  0  2  0  0  0
    1.3140    5.3270   34.6040 C   0  0  0  0  0  0
    0.9050    6.1770   35.3890 O   0  0  0  0  0  0
    2.2740    6.4430   32.6160 C   0  0  0  0  0  0
    3.4740    7.2130   32.1000 C   0  0  0  0  0  0
    4.5690    7.1390   32.7100 O   0  5  0  0  0  0
    3.3070    7.9060   31.0800 O   0  0  0  0  0  0
    0.6600    4.1920   34.3470 N   0  0  0  0  0  0
   -0.5980    3.8450   35.0250 C   0  0  2  0  0  0
   -0.4910    3.9800   36.5470 C   0  0  0  0  0  0
   -1.4510    4.3670   37.2230 O   0  0  0  0  0  0
   -1.0150    2.4400   34.6620 C   0  0  0  0  0  0
    0.6880    3.6730   37.0780 N   0  0  0  0  0  0
    0.8990    3.6380   38.5270 C   0  0  2  0  0  0
    0.6940    5.0050   39.1820 C   0  0  0  0  0  0
    0.4350    5.1010   40.3860 O   0  0  0  0  0  0
    2.3040    3.1070   38.8520 C   0  0  0  0  0  0
    3.4500    3.9560   38.2890 C   0  0  0  0  0  0
    3.8620    3.5720   36.8630 C   0  0  0  0  0  0
    3.0850    2.8780   36.1610 O   0  5  0  0  0  0
    4.9840    3.9490   36.4580 O   0  0  0  0  0  0
    0.8050    6.0660   38.3930 N   0  0  0  0  0  0
    0.6530    7.4140   38.9370 C   0  0  2  0  0  0
   -0.7990    7.8410   39.0120 C   0  0  0  0  0  0
   -1.1160    8.8610   39.6110 O   0  0  0  0  0  0
    1.4380    8.4170   38.1040 C   0  0  0  0  0  0
    2.9190    8.1380   38.0790 C   0  0  0  0  0  0
    3.6790    8.2850   39.2290 C   0  0  0  0  0  0
    3.5350    7.7230   36.9200 C   0  0  0  0  0  0
    5.0450    8.0180   39.2240 C   0  0  0  0  0  0
    4.9020    7.4600   36.8950 C   0  0  0  0  0  0
    5.6530    7.6110   38.0500 C   0  0  0  0  0  0
   -1.6800    7.0540   38.4110 N   0  0  0  0  0  0
   -3.0840    7.4440   38.3300 C   0  0  2  0  0  0
   -4.0120    6.6140   39.2290 C   0  0  0  0  0  0
   -5.2010    6.9270   39.3540 O   0  0  0  0  0  0
   -3.5590    7.3960   36.8760 C   0  0  0  0  0  0
   -2.9640    8.4810   35.9750 C   0  0  0  0  0  0
   -3.5660    8.4300   34.5560 C   0  0  0  0  0  0
   -3.1880    7.1980   33.8630 N   0  0  0  0  0  0
   -3.9540    6.1150   33.7900 C   0  0  0  0  0  0
   -5.1590    6.1190   34.3450 N   0  3  0  0  0  0
   -3.5160    5.0280   33.1560 N   0  0  0  0  0  0
   -3.4690    5.5630   39.8370 N   0  0  0  0  0  0
   -4.2250    4.7010   40.7490 C   0  0  2  0  0  0
   -4.2810    5.2920   42.1590 C   0  0  0  0  0  0
   -5.3040    5.2110   42.8450 O   0  0  0  0  0  0
   -3.5940    3.3090   40.8040 C   0  0  0  0  0  0
   -3.2653    5.8715   42.6282 O   0  5  0  0  0  0
    3.4937    3.7331   34.3458 H   0  0  0  0  0  0
    4.2197    4.5686   32.9310 H   0  0  0  0  0  0
    2.6284    3.7506   32.7717 H   0  0  0  0  0  0
    3.3407    6.0532   34.4873 H   0  0  0  0  0  0
    1.9071    5.8076   31.7965 H   0  0  0  0  0  0
    1.4990    7.1748   32.8877 H   0  0  0  0  0  0
    1.0903    3.5068   33.6018 H   0  0  0  0  0  0
   -1.3387    4.5662   34.6492 H   0  0  0  0  0  0
   -1.0897    2.3508   33.5682 H   0  0  0  0  0  0
   -1.9925    2.2189   35.1155 H   0  0  0  0  0  0
   -0.2666    1.7268   35.0379 H   0  0  0  0  0  0
    1.5189    3.4411   36.3954 H   0  0  0  0  0  0
    0.1213    2.9531   38.8958 H   0  0  0  0  0  0
    2.4389    3.0705   39.9431 H   0  0  0  0  0  0
    2.4196    2.0960   38.4343 H   0  0  0  0  0  0
    3.1469    5.0132   38.2677 H   0  0  0  0  0  0
    4.3386    3.8421   38.9273 H   0  0  0  0  0  0
    1.0130    5.9253   37.3221 H   0  0  0  0  0  0
    1.0569    7.3497   39.9581 H   0  0  0  0  0  0
    1.0777    8.3924   37.0650 H   0  0  0  0  0  0
    1.2971    9.4267   38.5171 H   0  0  0  0  0  0
    3.1997    8.6146   40.1508 H   0  0  0  0  0  0
    2.9458    7.5989   36.0114 H   0  0  0  0  0  0
    5.6303    8.1286   40.1368 H   0  0  0  0  0  0
    5.3799    7.1365   35.9703 H   0  0  0  0  0  0
    6.7240    7.4088   38.0333 H   0  0  0  0  0  0
   -1.3474    6.1019   37.9718 H   0  0  0  0  0  0
   -3.0848    8.4744   38.7152 H   0  0  0  0  0  0
   -3.2847    6.4275   36.4325 H   0  0  0  0  0  0
   -4.6517    7.5181   36.8430 H   0  0  0  0  0  0
   -3.1729    9.4711   36.4064 H   0  0  0  0  0  0
   -1.8762    8.3371   35.8971 H   0  0  0  0  0  0
   -4.6632    8.4725   34.6215 H   0  0  0  0  0  0
   -3.2001    9.2870   33.9714 H   0  0  0  0  0  0
   -2.2132    7.1278   33.3582 H   0  0  0  0  0  0
   -5.5205    7.0164   34.8684 H   0  0  0  0  0  0
   -2.5169    5.0248   32.6959 H   0  0  0  0  0  0
   -4.1535    4.1338   33.0927 H   0  0  0  0  0  0
   -2.4091    5.3516   39.6322 H   0  0  0  0  0  0
   -5.2399    4.6545   40.3273 H   0  0  0  0  0  0
   -3.5539    2.8843   39.7901 H   0  0  0  0  0  0
   -4.1996    2.6572   41.4509 H   0  0  0  0  0  0
   -2.5747    3.3843   41.2106 H   0  0  0  0  0  0
   -5.7966    5.2249   34.2818 H   0  0  0  0  0  0
  1  2  1  0  0  0
  1 51  1  0  0  0
  1 52  1  0  0  0
  1 53  1  0  0  0
  2  3  1  0  0  0
  2  5  1  0  0  0
  2 54  1  0  0  0
  3  4  2  0  0  0
  3  9  1  0  0  0
  5  6  1  0  0  0
  5 55  1  0  0  0
  5 56  1  0  0  0
  6  7  1  0  0  0
  6  8  2  0  0  0
  9 10  1  0  0  0
  9 57  1  0  0  0
 10 11  1  0  0  0
 10 13  1  0  0  0
 10 58  1  0  0  0
 11 12  2  0  0  0
 11 14  1  0  0  0
 13 59  1  0  0  0
 13 60  1  0  0  0
 13 61  1  0  0  0
 14 15  1  0  0  0
 14 62  1  0  0  0
 15 16  1  0  0  0
 15 18  1  0  0  0
 15 63  1  0  0  0
 16 17  2  0  0  0
 16 23  1  0  0  0
 18 19  1  0  0  0
 18 64  1  0  0  0
 18 65  1  0  0  0
 19 20  1  0  0  0
 19 66  1  0  0  0
 19 67  1  0  0  0
 20 21  1  0  0  0
 20 22  2  0  0  0
 23 24  1  0  0  0
 23 68  1  0  0  0
 24 25  1  0  0  0
 24 27  1  0  0  0
 24 69  1  0  0  0
 25 26  2  0  0  0
 25 34  1  0  0  0
 27 28  1  0  0  0
 27 70  1  0  0  0
 27 71  1  0  0  0
 28 29  2  0  0  0
 28 30  1  0  0  0
 29 31  1  0  0  0
 29 72  1  0  0  0
 30 32  2  0  0  0
 30 73  1  0  0  0
 31 33  2  0  0  0
 31 74  1  0  0  0
 32 33  1  0  0  0
 32 75  1  0  0  0
 33 76  1  0  0  0
 34 35  1  0  0  0
 34 77  1  0  0  0
 35 36  1  0  0  0
 35 38  1  0  0  0
 35 78  1  0  0  0
 36 37  2  0  0  0
 36 45  1  0  0  0
 38 39  1  0  0  0
 38 79  1  0  0  0
 38 80  1  0  0  0
 39 40  1  0  0  0
 39 81  1  0  0  0
 39 82  1  0  0  0
 40 41  1  0  0  0
 40 83  1  0  0  0
 40 84  1  0  0  0
 41 42  1  0  0  0
 41 85  1  0  0  0
 42 43  2  0  0  0
 42 44  1  0  0  0
 43 86  1  0  0  0
 43 94  1  0  0  0
 44 87  1  0  0  0
 44 88  1  0  0  0
 45 46  1  0  0  0
 45 89  1  0  0  0
 46 47  1  0  0  0
 46 49  1  0  0  0
 46 90  1  0  0  0
 47 48  2  0  0  0
 47 50  1  0  0  0
 49 91  1  0  0  0
 49 92  1  0  0  0
 49 93  1  0  0  0
M  CHG  5   1   1   7  -1  21  -1  43   1  50  -1
M  END
> <s_m_source_file>
../4onf_ligand.sdf

> <i_m_source_file_index>
1

> <s_epik_input>
W09IXUMoPU8pW0NIMl1bQ0BIXShbTkgzK10pQyg9TylbTkhdW0NAQEhdKFtDSDNdKUMoPU8pW05IXVtDQEBIXShbQ0gyXVtDSDJdQyg9TylbT0hdKUMoPU8pW05IXVtDQEBIXShbQ0gyXWMxW2NIXVtjSF1bY0hdW2NIXVtjSF0xKUMoPU8pW05IXVtDQEhdKEMoPU8pW05IXVtDQEBIXShbQ0gzXSlDKD1PKVtPSF0pW0NIMl1bQ0gyXVtDSDJdW05IXS9DKD1OXFtIXSlbTkgyXQ==

> <s_epik_cmdline>
J2VwaWtfYXBwJywgJy1pbWFlJywgJ2xpZ2FuZF9wcm8ubWFlJywgJy1vbWFlJywgJ2xpZ2FuZF9wcmVwLm1hZScsICctbXMnLCAnMScsICctcGgnLCAnNycsICctcGh0JywgJzAuNScsICctbnQn

> <r_epik_Ionization_Penalty>
  0.0221

> <r_epik_Ionization_Penalty_Charging>
  0.0221

> <r_epik_Ionization_Penalty_Neutral>
  0.0000

> <r_epik_State_Penalty>
  0.0161

> <r_epik_Charging_Adjusted_Penalty>
0.038179564459605

> <i_epik_Tot_Q>
-1

> <i_epik_Tot_abs_Q>
5

> <s_epik_Chemistry_Notes>
This compound has an imine and may undergo hydrolysis.

$$$$
