4ono_ligand
                    3D
 Schrodinger Suite 2020-3.
102101  0  0  1  0            999 V2000
    8.5160  -31.1240  -38.8300 O   0  5  0  0  0  0
    5.8450  -31.3310  -25.9720 C   0  0  0  0  0  0
    4.6540  -22.5590  -25.8400 C   0  0  0  0  0  0
    7.2110  -24.8220  -37.0630 C   0  0  0  0  0  0
    0.3540  -18.8900  -27.6300 C   0  0  0  0  0  0
    8.6910  -20.5390  -33.2680 C   0  0  0  0  0  0
    4.3550  -16.6270  -33.1550 C   0  0  0  0  0  0
   10.8350  -31.1200  -39.0320 O   0  0  0  0  0  0
    9.8440  -30.6980  -36.9530 O   0  5  0  0  0  0
    6.4780  -29.9540  -26.1900 C   0  0  0  0  0  0
    5.4020  -28.9540  -26.6370 C   0  0  0  0  0  0
    6.1060  -27.7140  -27.2160 C   0  0  0  0  0  0
    5.0620  -26.6950  -27.7420 C   0  0  0  0  0  0
    4.8760  -25.5720  -26.6850 C   0  0  0  0  0  0
   10.2770  -27.1400  -37.1290 C   0  0  0  0  0  0
    2.3630  -21.2120  -26.8930 C   0  0  0  0  0  0
    8.1770  -23.9130  -34.3600 C   0  0  0  0  0  0
    2.7820  -18.2070  -30.2580 C   0  0  0  0  0  0
    6.1230  -19.5080  -32.8520 C   0  0  0  0  0  0
   10.7210  -27.9370  -38.3510 C   0  0  0  0  0  0
    4.1100  -24.4020  -27.3390 C   0  0  0  0  0  0
    9.2850  -26.0390  -37.5170 C   0  0  0  0  0  0
    2.2990  -22.7620  -26.7590 C   0  0  0  0  0  0
    9.0970  -24.5440  -35.4510 C   0  0  0  0  0  0
    1.7750  -20.8420  -28.2790 C   0  0  0  0  0  0
    7.8630  -22.4140  -34.6480 C   0  0  0  0  0  0
    1.4690  -18.8960  -29.8650 C   0  0  0  0  0  0
    6.2290  -21.0090  -33.2540 C   0  0  0  0  0  0
    2.7680  -17.9700  -31.7810 C   0  0  0  0  0  0
    4.6300  -19.1160  -33.0470 C   0  0  0  0  0  0
    9.6800  -28.8220  -38.7490 O   0  0  0  0  0  0
    3.5520  -23.4820  -26.2520 C   0  0  2  0  0  0
    8.3720  -25.5170  -36.4020 C   0  0  1  0  0  0
    1.5940  -19.3180  -28.3800 C   0  0  1  0  0  0
    7.6480  -21.6050  -33.3410 C   0  0  2  0  0  0
    4.2350  -17.8460  -32.2570 C   0  0  1  0  0  0
    9.7220  -30.3780  -38.3980 P   0  0  0  0  0  0
    6.6192  -32.0439  -25.6520 H   0  0  0  0  0  0
    5.3919  -31.6792  -26.9119 H   0  0  0  0  0  0
    5.0692  -31.2591  -25.1955 H   0  0  0  0  0  0
    5.5142  -23.1484  -25.4898 H   0  0  0  0  0  0
    4.3014  -21.9066  -25.0276 H   0  0  0  0  0  0
    4.9570  -21.9431  -26.6995 H   0  0  0  0  0  0
    6.7003  -25.5236  -37.7390 H   0  0  0  0  0  0
    7.5792  -23.9601  -37.6389 H   0  0  0  0  0  0
    6.5055  -24.4747  -36.2939 H   0  0  0  0  0  0
    0.4419  -19.1893  -26.5752 H   0  0  0  0  0  0
   -0.5287  -19.3720  -28.0756 H   0  0  0  0  0  0
    0.2461  -17.7971  -27.6933 H   0  0  0  0  0  0
    9.6889  -20.9973  -33.3328 H   0  0  0  0  0  0
    8.5969  -19.9986  -32.3145 H   0  0  0  0  0  0
    8.5556  -19.8358  -34.1030 H   0  0  0  0  0  0
    4.0734  -15.7262  -32.5900 H   0  0  0  0  0  0
    3.6853  -16.7415  -34.0201 H   0  0  0  0  0  0
    5.3932  -16.5305  -33.5053 H   0  0  0  0  0  0
    6.9311  -29.6058  -25.2501 H   0  0  0  0  0  0
    7.2538  -30.0258  -26.9665 H   0  0  0  0  0  0
    4.7653  -29.4190  -27.4041 H   0  0  0  0  0  0
    4.7850  -28.6683  -25.7723 H   0  0  0  0  0  0
    6.7096  -27.2351  -26.4310 H   0  0  0  0  0  0
    6.7596  -28.0180  -28.0469 H   0  0  0  0  0  0
    5.4184  -26.2598  -28.6873 H   0  0  0  0  0  0
    4.1034  -27.2070  -27.9124 H   0  0  0  0  0  0
    4.3037  -25.9634  -25.8310 H   0  0  0  0  0  0
    5.8616  -25.2274  -26.3388 H   0  0  0  0  0  0
    9.7897  -27.8139  -36.4090 H   0  0  0  0  0  0
   11.1540  -26.6723  -36.6578 H   0  0  0  0  0  0
    1.7726  -20.7497  -26.0882 H   0  0  0  0  0  0
    3.4091  -20.8803  -26.8173 H   0  0  0  0  0  0
    7.2235  -24.4603  -34.3231 H   0  0  0  0  0  0
    8.6738  -23.9754  -33.3805 H   0  0  0  0  0  0
    2.8652  -17.2468  -29.7278 H   0  0  0  0  0  0
    3.6304  -18.8515  -29.9846 H   0  0  0  0  0  0
    6.4320  -19.3866  -31.8033 H   0  0  0  0  0  0
    6.7792  -18.9078  -33.4994 H   0  0  0  0  0  0
   10.9485  -27.2463  -39.1763 H   0  0  0  0  0  0
   11.6202  -28.5196  -38.1019 H   0  0  0  0  0  0
    4.7937  -23.8316  -27.9848 H   0  0  0  0  0  0
    3.2807  -24.7987  -27.9430 H   0  0  0  0  0  0
    9.8366  -25.1628  -37.8885 H   0  0  0  0  0  0
    8.6140  -26.4111  -38.3052 H   0  0  0  0  0  0
    1.5013  -23.0364  -26.0530 H   0  0  0  0  0  0
    2.0871  -23.2066  -27.7426 H   0  0  0  0  0  0
    9.5287  -23.7460  -36.0729 H   0  0  0  0  0  0
    9.9064  -25.1093  -34.9659 H   0  0  0  0  0  0
    2.4608  -21.1794  -29.0701 H   0  0  0  0  0  0
    0.7988  -21.3328  -28.4061 H   0  0  0  0  0  0
    8.7021  -21.9627  -35.1978 H   0  0  0  0  0  0
    6.9469  -22.3408  -35.2525 H   0  0  0  0  0  0
    0.6327  -18.1937  -29.9968 H   0  0  0  0  0  0
    1.3118  -19.7774  -30.5041 H   0  0  0  0  0  0
    5.6916  -21.6246  -32.5176 H   0  0  0  0  0  0
    5.7829  -21.1545  -34.2489 H   0  0  0  0  0  0
    2.2765  -18.8185  -32.2796 H   0  0  0  0  0  0
    2.2163  -17.0446  -32.0030 H   0  0  0  0  0  0
    4.4381  -18.9218  -34.1126 H   0  0  0  0  0  0
    3.9868  -19.9392  -32.7027 H   0  0  0  0  0  0
    3.2420  -24.0327  -25.3517 H   0  0  0  0  0  0
    8.0200  -26.3628  -35.7931 H   0  0  0  0  0  0
    2.4607  -18.8246  -27.9159 H   0  0  0  0  0  0
    7.7711  -22.2573  -32.4639 H   0  0  0  0  0  0
    4.9101  -17.7219  -31.3975 H   0  0  0  0  0  0
  1 37  1  0  0  0
  2 10  1  0  0  0
  2 38  1  0  0  0
  2 39  1  0  0  0
  2 40  1  0  0  0
  3 32  1  0  0  0
  3 41  1  0  0  0
  3 42  1  0  0  0
  3 43  1  0  0  0
  4 33  1  0  0  0
  4 44  1  0  0  0
  4 45  1  0  0  0
  4 46  1  0  0  0
  5 34  1  0  0  0
  5 47  1  0  0  0
  5 48  1  0  0  0
  5 49  1  0  0  0
  6 35  1  0  0  0
  6 50  1  0  0  0
  6 51  1  0  0  0
  6 52  1  0  0  0
  7 36  1  0  0  0
  7 53  1  0  0  0
  7 54  1  0  0  0
  7 55  1  0  0  0
  8 37  2  0  0  0
  9 37  1  0  0  0
 10 11  1  0  0  0
 10 56  1  0  0  0
 10 57  1  0  0  0
 11 12  1  0  0  0
 11 58  1  0  0  0
 11 59  1  0  0  0
 12 13  1  0  0  0
 12 60  1  0  0  0
 12 61  1  0  0  0
 13 14  1  0  0  0
 13 62  1  0  0  0
 13 63  1  0  0  0
 14 21  1  0  0  0
 14 64  1  0  0  0
 14 65  1  0  0  0
 15 20  1  0  0  0
 15 22  1  0  0  0
 15 66  1  0  0  0
 15 67  1  0  0  0
 16 23  1  0  0  0
 16 25  1  0  0  0
 16 68  1  0  0  0
 16 69  1  0  0  0
 17 24  1  0  0  0
 17 26  1  0  0  0
 17 70  1  0  0  0
 17 71  1  0  0  0
 18 27  1  0  0  0
 18 29  1  0  0  0
 18 72  1  0  0  0
 18 73  1  0  0  0
 19 28  1  0  0  0
 19 30  1  0  0  0
 19 74  1  0  0  0
 19 75  1  0  0  0
 20 31  1  0  0  0
 20 76  1  0  0  0
 20 77  1  0  0  0
 21 32  1  0  0  0
 21 78  1  0  0  0
 21 79  1  0  0  0
 22 33  1  0  0  0
 22 80  1  0  0  0
 22 81  1  0  0  0
 23 32  1  0  0  0
 23 82  1  0  0  0
 23 83  1  0  0  0
 24 33  1  0  0  0
 24 84  1  0  0  0
 24 85  1  0  0  0
 25 34  1  0  0  0
 25 86  1  0  0  0
 25 87  1  0  0  0
 26 35  1  0  0  0
 26 88  1  0  0  0
 26 89  1  0  0  0
 27 34  1  0  0  0
 27 90  1  0  0  0
 27 91  1  0  0  0
 28 35  1  0  0  0
 28 92  1  0  0  0
 28 93  1  0  0  0
 29 36  1  0  0  0
 29 94  1  0  0  0
 29 95  1  0  0  0
 30 36  1  0  0  0
 30 96  1  0  0  0
 30 97  1  0  0  0
 31 37  1  0  0  0
 32 98  1  0  0  0
 33 99  1  0  0  0
 34100  1  0  0  0
 35101  1  0  0  0
 36102  1  0  0  0
M  CHG  2   1  -1   9  -1
M  END
> <s_m_source_file>
../4ono_ligand.sdf

> <i_m_source_file_index>
1

> <s_epik_input>
W09IXVAoPU8pKFtPSF0pT1tDSDJdW0NIMl1bQ0gyXVtDQEhdKFtDSDNdKVtDSDJdW0NIMl1bQ0gyXVtDQEBIXShbQ0gzXSlbQ0gyXVtDSDJdW0NIMl1bQ0BASF0oW0NIM10pW0NIMl1bQ0gyXVtDSDJdW0NAQEhdKFtDSDNdKVtDSDJdW0NIMl1bQ0gyXVtDQEhdKFtDSDNdKVtDSDJdW0NIMl1bQ0gyXVtDSDJdW0NIMl1bQ0gyXVtDSDNd

> <s_epik_cmdline>
J2VwaWtfYXBwJywgJy1pbWFlJywgJ2xpZ2FuZF9wcm8ubWFlJywgJy1vbWFlJywgJ2xpZ2FuZF9wcmVwLm1hZScsICctbXMnLCAnMScsICctcGgnLCAnNycsICctcGh0JywgJzAuNScsICctbnQn

> <r_epik_Ionization_Penalty>
  0.1543

> <r_epik_Ionization_Penalty_Charging>
  0.1543

> <r_epik_Ionization_Penalty_Neutral>
  0.0000

> <r_epik_State_Penalty>
  0.1436

> <r_epik_Charging_Adjusted_Penalty>
0.297976646471993

> <i_epik_Tot_Q>
-2

> <i_epik_Tot_abs_Q>
2

$$$$
