4oo9_ligand
                    3D
 Schrodinger Suite 2020-3.
 46 48  0  0  1  0            999 V2000
  -24.9420   -6.7880   40.8390 C   0  0  0  0  0  0
  -20.7960   -4.3510   45.5040 N   0  0  0  0  0  0
  -24.9830   -2.9800   43.7630 O   0  0  0  0  0  0
  -25.1450   -8.0810   41.3520 C   0  0  0  0  0  0
  -18.7660   -5.3900   45.0750 O   0  0  0  0  0  0
  -25.1500   -6.5380   39.4670 C   0  0  0  0  0  0
  -19.5140   -5.1790   47.1890 O   0  0  0  0  0  0
  -24.5020   -5.6880   41.6960 C   0  0  0  0  0  0
  -25.5560   -9.1190   40.5140 C   0  0  0  0  0  0
  -25.7700   -8.8810   39.1450 C   0  0  0  0  0  0
  -25.5690   -7.5870   38.6120 C   0  0  0  0  0  0
  -25.7930   -7.3150   37.1470 C   0  0  0  0  0  0
  -24.1940   -4.7640   42.4400 C   0  0  0  0  0  0
  -23.8270   -3.6010   43.2760 C   0  0  1  0  0  0
  -23.0770   -2.5060   42.4660 C   0  0  0  0  0  0
  -21.6920   -2.9420   41.9420 C   0  0  0  0  0  0
  -20.7690   -3.5540   43.0010 C   0  0  0  0  0  0
  -21.4020   -4.3440   44.1730 C   0  0  2  0  0  0
  -22.9230   -4.1610   44.4130 C   0  0  1  0  0  0
  -23.0060   -3.4230   45.7590 C   0  0  0  0  0  0
  -21.6700   -3.6800   46.4640 C   0  0  0  0  0  0
  -19.5610   -4.9000   45.8770 C   0  0  0  0  0  0
  -18.3970   -5.8790   47.7150 C   0  0  0  0  0  0
  -25.7084   -2.5410   43.0622 H   0  0  0  0  0  0
  -24.9803   -8.2745   42.4120 H   0  0  0  0  0  0
  -24.9885   -5.5380   39.0644 H   0  0  0  0  0  0
  -25.7116  -10.1175   40.9225 H   0  0  0  0  0  0
  -26.0910   -9.6944   38.4943 H   0  0  0  0  0  0
  -25.5845   -6.2560   36.9346 H   0  0  0  0  0  0
  -26.8375   -7.5423   36.8874 H   0  0  0  0  0  0
  -25.1206   -7.9481   36.5495 H   0  0  0  0  0  0
  -23.6782   -2.2218   41.5898 H   0  0  0  0  0  0
  -22.9173   -1.6235   43.1030 H   0  0  0  0  0  0
  -21.8196   -3.7005   41.1556 H   0  0  0  0  0  0
  -21.1653   -2.0696   41.5279 H   0  0  0  0  0  0
  -20.0838   -4.2685   42.5214 H   0  0  0  0  0  0
  -20.1868   -2.7562   43.4852 H   0  0  0  0  0  0
  -21.1154   -5.3256   43.7676 H   0  0  0  0  0  0
  -23.3980   -5.1528   44.4406 H   0  0  0  0  0  0
  -23.1606   -2.3488   45.5793 H   0  0  0  0  0  0
  -23.8476   -3.8216   46.3445 H   0  0  0  0  0  0
  -21.8143   -4.3262   47.3424 H   0  0  0  0  0  0
  -21.2099   -2.7316   46.7782 H   0  0  0  0  0  0
  -18.5284   -6.0182   48.7982 H   0  0  0  0  0  0
  -17.4804   -5.3002   47.5282 H   0  0  0  0  0  0
  -18.3165   -6.8611   47.2262 H   0  0  0  0  0  0
  1  4  2  0  0  0
  1  6  1  0  0  0
  1  8  1  0  0  0
  2 18  1  0  0  0
  2 21  1  0  0  0
  2 22  1  0  0  0
  3 14  1  0  0  0
  3 24  1  0  0  0
  4  9  1  0  0  0
  4 25  1  0  0  0
  5 22  2  0  0  0
  6 11  2  0  0  0
  6 26  1  0  0  0
  7 22  1  0  0  0
  7 23  1  0  0  0
  8 13  3  0  0  0
  9 10  2  0  0  0
  9 27  1  0  0  0
 10 11  1  0  0  0
 10 28  1  0  0  0
 11 12  1  0  0  0
 12 29  1  0  0  0
 12 30  1  0  0  0
 12 31  1  0  0  0
 13 14  1  0  0  0
 14 15  1  0  0  0
 14 19  1  0  0  0
 15 16  1  0  0  0
 15 32  1  0  0  0
 15 33  1  0  0  0
 16 17  1  0  0  0
 16 34  1  0  0  0
 16 35  1  0  0  0
 17 18  1  0  0  0
 17 36  1  0  0  0
 17 37  1  0  0  0
 18 19  1  0  0  0
 18 38  1  0  0  0
 19 20  1  0  0  0
 19 39  1  0  0  0
 20 21  1  0  0  0
 20 40  1  0  0  0
 20 41  1  0  0  0
 21 42  1  0  0  0
 21 43  1  0  0  0
 23 44  1  0  0  0
 23 45  1  0  0  0
 23 46  1  0  0  0
M  END
> <s_m_source_file>
../4oo9_ligand.sdf

> <i_m_source_file_index>
1

> <s_epik_input>
W2NIXTFjKFtDSDNdKVtjSF1bY0hdW2NIXWMxQyNDW0NAXShbT0hdKShbQ0gyXVtDSDJdW0NIMl0yKVtDQEBIXShbQ0BASF0yMylbQ0gyXVtDSDJdTjNDKD1PKU9bQ0gzXQ==

> <s_epik_cmdline>
J2VwaWtfYXBwJywgJy1pbWFlJywgJ2xpZ2FuZF9wcm8ubWFlJywgJy1vbWFlJywgJ2xpZ2FuZF9wcmVwLm1hZScsICctbXMnLCAnMScsICctcGgnLCAnNycsICctcGh0JywgJzAuNScsICctbnQn

> <r_lp_tautomer_probability>
1

> <r_epik_Ionization_Penalty>
  0.0000

> <r_epik_Ionization_Penalty_Charging>
  0.0000

> <r_epik_Ionization_Penalty_Neutral>
  0.0000

> <r_epik_State_Penalty>
 -0.0000

> <r_epik_Charging_Adjusted_Penalty>
0

> <i_epik_Tot_Q>
0

> <i_epik_Tot_abs_Q>
0

> <s_epik_Chemistry_Notes>
This compound has an ester and may undergo hydrolysis at high or low pH.

$$$$
