4ool_ligand
                    3D
 Schrodinger Suite 2020-3.
 54 55  0  0  1  0            999 V2000
   24.3500    4.2140   15.4100 C   0  0  0  0  0  0
   24.8960    3.1820   14.7260 C   0  0  0  0  0  0
   23.5120    3.8710   13.0940 C   0  0  0  0  0  0
   23.5940   -0.2790   15.9970 C   0  0  0  0  0  0
   23.6090   -1.0880   18.6310 C   0  0  0  0  0  0
   22.5100   -0.4090   18.1930 C   0  0  0  0  0  0
   24.6920   -0.9390   16.4970 C   0  0  0  0  0  0
   22.4690    0.0090   16.8240 C   0  0  0  0  0  0
   28.7480    5.4570   17.4350 C   0  0  0  0  0  0
   25.8320    2.2220   15.3770 C   0  0  0  0  0  0
   32.3360    3.5670   16.9580 C   0  0  0  0  0  0
   26.4890    2.6010   16.6620 C   0  0  0  0  0  0
   33.1540    4.7390   16.6390 C   0  0  0  0  0  0
   34.1080    1.4980   18.9770 C   0  0  0  0  0  0
   25.9070   -1.1900   15.5960 C   0  0  0  0  0  0
   32.9000    2.1630   16.8670 C   0  0  0  0  0  0
   34.2550    2.0650   17.5850 C   0  0  0  0  0  0
   29.1280    3.2030   18.5310 C   0  0  0  0  0  0
   28.1470    4.1160   17.7890 C   0  0  2  0  0  0
   24.3810    2.9990   13.5050 N   0  0  0  0  0  0
   25.9910    1.0530   14.8150 N   0  0  0  0  0  0
   31.1250    3.8170   17.3220 N   0  0  0  0  0  0
   24.6660   -1.3830   17.8020 N   0  0  0  0  0  0
   22.8960    3.8870   11.8550 N   0  0  0  0  0  0
   27.4530    3.5480   16.6180 N   0  0  0  0  0  0
   33.7550    4.8060   15.5720 O   0  5  0  0  0  0
   34.4640    0.3520   19.2140 O   0  0  0  0  0  0
   21.5110    0.6200   16.3630 O   0  0  0  0  0  0
   28.8400    5.8010   16.2810 O   0  0  0  0  0  0
   26.1450    2.0850   17.7120 O   0  0  0  0  0  0
   33.2030    5.6430   17.4580 O   0  0  0  0  0  0
   33.6310    2.1860   19.8690 O   0  5  0  0  0  0
   21.4840   -0.1530   19.0610 O   0  0  0  0  0  0
   25.7210   -2.1860   18.3280 O   0  5  0  0  0  0
   26.7310   -0.0170   15.3720 O   0  0  0  0  0  0
   30.1810    2.8180   17.6540 O   0  0  0  0  0  0
   23.2030    5.0400   14.3660 S   0  0  0  0  0  0
   24.5832    4.4878   16.4390 H   0  0  0  0  0  0
   23.5837    0.0289   14.9514 H   0  0  0  0  0  0
   23.6509   -1.4073   19.6723 H   0  0  0  0  0  0
   29.1028    6.1212   18.2369 H   0  0  0  0  0  0
   26.5511   -1.9553   16.0538 H   0  0  0  0  0  0
   25.5665   -1.5393   14.6101 H   0  0  0  0  0  0
   32.2005    1.4557   17.3366 H   0  0  0  0  0  0
   33.0409    1.8922   15.8102 H   0  0  0  0  0  0
   34.6899    3.0736   17.6440 H   0  0  0  0  0  0
   34.9154    1.4150   16.9922 H   0  0  0  0  0  0
   29.5493    3.7411   19.3930 H   0  0  0  0  0  0
   28.5989    2.3049   18.8824 H   0  0  0  0  0  0
   27.3276    4.2452   18.5115 H   0  0  0  0  0  0
   23.1429    3.1181   11.1081 H   0  0  0  0  0  0
   22.1594    4.6686   11.6170 H   0  0  0  0  0  0
   27.7089    3.8941   15.6057 H   0  0  0  0  0  0
   21.5508   -0.4897   20.1061 H   0  0  0  0  0  0
  1  2  2  0  0  0
  1 37  1  0  0  0
  1 38  1  0  0  0
  2 10  1  0  0  0
  2 20  1  0  0  0
  3 20  2  0  0  0
  3 24  1  0  0  0
  3 37  1  0  0  0
  4  7  2  0  0  0
  4  8  1  0  0  0
  4 39  1  0  0  0
  5  6  2  0  0  0
  5 23  1  0  0  0
  5 40  1  0  0  0
  6  8  1  0  0  0
  6 33  1  0  0  0
  7 15  1  0  0  0
  7 23  1  0  0  0
  8 28  2  0  0  0
  9 19  1  0  0  0
  9 29  2  0  0  0
  9 41  1  0  0  0
 10 12  1  0  0  0
 10 21  2  0  0  0
 11 13  1  0  0  0
 11 16  1  0  0  0
 11 22  2  0  0  0
 12 25  1  0  0  0
 12 30  2  0  0  0
 13 26  1  0  0  0
 13 31  2  0  0  0
 14 17  1  0  0  0
 14 27  2  0  0  0
 14 32  1  0  0  0
 15 35  1  0  0  0
 15 42  1  0  0  0
 15 43  1  0  0  0
 16 17  1  0  0  0
 16 44  1  0  0  0
 16 45  1  0  0  0
 17 46  1  0  0  0
 17 47  1  0  0  0
 18 19  1  0  0  0
 18 36  1  0  0  0
 18 48  1  0  0  0
 18 49  1  0  0  0
 19 25  1  0  0  0
 19 50  1  0  0  0
 21 35  1  0  0  0
 22 36  1  0  0  0
 23 34  1  0  0  0
 24 51  1  0  0  0
 24 52  1  0  0  0
 25 53  1  0  0  0
 33 54  1  0  0  0
M  CHG  3  26  -1  32  -1  34  -1
M  END
> <s_m_source_file>
../4ool_ligand.sdf

> <i_m_source_file_index>
1

> <s_epik_input>
W09IXWMxW2NIXW4oW09IXSljKFtjSF1jMT1PKVtDSDJdT1xOPUMoXGMyW2NIXXNjKG4yKVtOSDJdKUMoPU8pW05IXVtDQEhdKFtDSF09TylbQ0gyXU9cTj1DKFxDKD1PKVtPSF0pW0NIMl1bQ0gyXUMoPU8pW09IXQ==

> <s_epik_cmdline>
J2VwaWtfYXBwJywgJy1pbWFlJywgJ2xpZ2FuZF9wcm8ubWFlJywgJy1vbWFlJywgJ2xpZ2FuZF9wcmVwLm1hZScsICctbXMnLCAnMScsICctcGgnLCAnNycsICctcGh0JywgJzAuNScsICctbnQn

> <r_lp_tautomer_probability>
0.99990000499975

> <r_epik_Ionization_Penalty>
  0.0472

> <r_epik_Ionization_Penalty_Charging>
  0.0041

> <r_epik_Ionization_Penalty_Neutral>
  0.0431

> <r_epik_State_Penalty>
  0.0317

> <r_epik_Charging_Adjusted_Penalty>
0.0357692284851837

> <i_epik_Tot_Q>
-3

> <i_epik_Tot_abs_Q>
3

> <s_epik_Chemistry_Notes>
This compound has an imine and may undergo hydrolysis.

$$$$
