4oon_ligand
                    3D
 Schrodinger Suite 2020-3.
 67 69  0  0  1  0            999 V2000
  -41.1270   12.5730   -4.6300 C   0  0  0  0  0  0
  -41.8990   10.4710   -2.9010 C   0  0  0  0  0  0
  -33.6450   10.9610    7.7630 C   0  0  0  0  0  0
  -40.2220   12.0620   -3.6930 C   0  0  0  0  0  0
  -40.6000   10.9850   -2.8360 C   0  0  0  0  0  0
  -42.4280   12.0620   -4.6770 C   0  0  0  0  0  0
  -42.8130   11.0120   -3.8180 C   0  0  0  0  0  0
  -34.9980   10.9640    7.6530 C   0  0  0  0  0  0
  -34.8900   11.9780    9.6460 C   0  0  0  0  0  0
  -38.8010   12.3400   -3.3830 C   0  0  0  0  0  0
  -39.3870   10.6310   -2.0540 C   0  0  0  0  0  0
  -32.9440   10.4360    2.9570 C   0  0  0  0  0  0
  -35.7430   10.4150    6.4840 C   0  0  0  0  0  0
  -35.3190   11.9900   -0.0630 C   0  0  0  0  0  0
  -34.9500    9.6720    5.4840 C   0  0  0  0  0  0
  -34.2640   12.8680   -0.5840 C   0  0  0  0  0  0
  -36.4820   10.0460   -2.1510 C   0  0  0  0  0  0
  -40.0960   10.4370    5.8640 C   0  0  0  0  0  0
  -39.4630   10.0960    3.4780 C   0  0  0  0  0  0
  -38.8500   12.2100    4.5370 C   0  0  0  0  0  0
  -36.7790   12.0190   -0.4990 C   0  0  0  0  0  0
  -34.8090    9.1050    1.9450 C   0  0  0  0  0  0
  -34.0600    9.4720    3.2300 C   0  0  2  0  0  0
  -36.9890   11.4440   -1.9140 C   0  0  2  0  0  0
  -39.0210   10.7070    4.8120 C   0  0  0  0  0  0
  -35.6260   11.5120    8.6890 N   0  0  0  0  0  0
  -37.0320   10.6250    6.3180 N   0  0  0  0  0  0
  -34.8740   11.1610    0.8110 N   0  0  0  0  0  0
  -38.3750   11.4730   -2.4230 N   0  0  0  0  0  0
  -35.3970   12.5750   10.7850 N   0  0  0  0  0  0
  -34.9120   10.1200    4.2180 N   0  0  0  0  0  0
  -34.4150   14.0760   -0.6280 O   0  0  0  0  0  0
  -36.4830    9.2060   -1.2550 O   0  5  0  0  0  0
  -40.0450    9.3960    6.5190 O   0  0  0  0  0  0
  -38.1500   13.2400   -3.8970 O   0  0  0  0  0  0
  -39.3430    9.7320   -1.2200 O   0  0  0  0  0  0
  -33.0560   11.6040    3.2440 O   0  0  0  0  0  0
  -34.3180    8.6960    5.8460 O   0  0  0  0  0  0
  -33.1960   12.3620   -0.9200 O   0  5  0  0  0  0
  -36.1440    9.7590   -3.2910 O   0  0  0  0  0  0
  -41.0220   11.2290    6.0740 O   0  5  0  0  0  0
  -43.3250   12.5870   -5.5540 O   0  0  0  0  0  0
  -44.0790   10.5140   -3.8700 O   0  0  0  0  0  0
  -35.6290   10.1820    1.4880 O   0  0  0  0  0  0
  -37.7530   10.1050    5.1890 O   0  0  0  0  0  0
  -33.1880   11.7210    9.2860 S   0  0  0  0  0  0
  -40.8208   13.3620   -5.3169 H   0  0  0  0  0  0
  -42.1996    9.6553   -2.2435 H   0  0  0  0  0  0
  -32.9519   10.5536    7.0269 H   0  0  0  0  0  0
  -32.0171   10.0706    2.4909 H   0  0  0  0  0  0
  -40.4229   10.5379    3.1724 H   0  0  0  0  0  0
  -39.5804    9.0084    3.5938 H   0  0  0  0  0  0
  -38.7030   10.3031    2.7102 H   0  0  0  0  0  0
  -39.8205   12.6437    4.2540 H   0  0  0  0  0  0
  -38.1312   12.3532    3.7167 H   0  0  0  0  0  0
  -38.4760   12.7084    5.4435 H   0  0  0  0  0  0
  -37.3824   11.4216    0.2003 H   0  0  0  0  0  0
  -37.1407   13.0578   -0.5004 H   0  0  0  0  0  0
  -34.0837    8.8615    1.1547 H   0  0  0  0  0  0
  -35.4535    8.2335    2.1324 H   0  0  0  0  0  0
  -33.6927    8.5292    3.6616 H   0  0  0  0  0  0
  -36.3932   12.1511   -2.5098 H   0  0  0  0  0  0
  -36.4842   12.6863   10.9102 H   0  0  0  0  0  0
  -34.7133   12.9387   11.5662 H   0  0  0  0  0  0
  -35.5305   10.9828    3.9297 H   0  0  0  0  0  0
  -43.0244   13.4060   -6.2240 H   0  0  0  0  0  0
  -44.3758    9.6949   -3.1984 H   0  0  0  0  0  0
  1  4  2  0  0  0
  1  6  1  0  0  0
  1 47  1  0  0  0
  2  5  2  0  0  0
  2  7  1  0  0  0
  2 48  1  0  0  0
  3  8  2  0  0  0
  3 46  1  0  0  0
  3 49  1  0  0  0
  4  5  1  0  0  0
  4 10  1  0  0  0
  5 11  1  0  0  0
  6  7  2  0  0  0
  6 42  1  0  0  0
  7 43  1  0  0  0
  8 13  1  0  0  0
  8 26  1  0  0  0
  9 26  2  0  0  0
  9 30  1  0  0  0
  9 46  1  0  0  0
 10 29  1  0  0  0
 10 35  2  0  0  0
 11 29  1  0  0  0
 11 36  2  0  0  0
 12 23  1  0  0  0
 12 37  2  0  0  0
 12 50  1  0  0  0
 13 15  1  0  0  0
 13 27  2  0  0  0
 14 16  1  0  0  0
 14 21  1  0  0  0
 14 28  2  0  0  0
 15 31  1  0  0  0
 15 38  2  0  0  0
 16 32  2  0  0  0
 16 39  1  0  0  0
 17 24  1  0  0  0
 17 33  1  0  0  0
 17 40  2  0  0  0
 18 25  1  0  0  0
 18 34  2  0  0  0
 18 41  1  0  0  0
 19 25  1  0  0  0
 19 51  1  0  0  0
 19 52  1  0  0  0
 19 53  1  0  0  0
 20 25  1  0  0  0
 20 54  1  0  0  0
 20 55  1  0  0  0
 20 56  1  0  0  0
 21 24  1  0  0  0
 21 57  1  0  0  0
 21 58  1  0  0  0
 22 23  1  0  0  0
 22 44  1  0  0  0
 22 59  1  0  0  0
 22 60  1  0  0  0
 23 31  1  0  0  0
 23 61  1  0  0  0
 24 29  1  0  0  0
 24 62  1  0  0  0
 25 45  1  0  0  0
 27 45  1  0  0  0
 28 44  1  0  0  0
 30 63  1  0  0  0
 30 64  1  0  0  0
 31 65  1  0  0  0
 42 66  1  0  0  0
 43 67  1  0  0  0
M  CHG  3  33  -1  39  -1  41  -1
M  END
> <s_m_source_file>
../4oon_ligand.sdf

> <i_m_source_file_index>
1

> <s_epik_input>
W2NIXTFjKFtPSF0pYyhbT0hdKVtjSF1jKGMxMilDKD1PKU4oQzI9TylbQ0BIXShDKD1PKVtPSF0pW0NIMl1DKFxDKD1PKVtPSF0pPU4vT1tDSDJdW0NAQEhdKFtDSF09TylbTkhdQyg9TylDKFxjM1tjSF1zYyhuMylbTkgyXSk9Ti9PQyhbQ0gzXSkoW0NIM10pQyg9TylbT0hd

> <s_epik_cmdline>
J2VwaWtfYXBwJywgJy1pbWFlJywgJ2xpZ2FuZF9wcm8ubWFlJywgJy1vbWFlJywgJ2xpZ2FuZF9wcmVwLm1hZScsICctbXMnLCAnMScsICctcGgnLCAnNycsICctcGh0JywgJzAuNScsICctbnQn

> <r_lp_tautomer_probability>
0.999900004999526

> <r_epik_Ionization_Penalty>
  0.2927

> <r_epik_Ionization_Penalty_Charging>
  0.0003

> <r_epik_Ionization_Penalty_Neutral>
  0.2924

> <r_epik_State_Penalty>
  0.2490

> <r_epik_Charging_Adjusted_Penalty>
0.249269703612616

> <i_epik_Tot_Q>
-3

> <i_epik_Tot_abs_Q>
3

> <s_epik_Chemistry_Notes>
This compound has an imine and may undergo hydrolysis.

$$$$
