4oow_ligand
                    3D
 Schrodinger Suite 2020-3.
 14 14  0  0  1  0            999 V2000
  -31.3470    1.5740   15.7400 C   0  0  0  0  0  0
  -31.4030    0.2450   15.3170 C   0  0  0  0  0  0
  -30.2630   -0.5690   15.4350 C   0  0  0  0  0  0
  -30.2230   -1.8830   15.0630 O   0  0  0  0  0  0
  -29.0820   -0.0630   15.9640 C   0  0  0  0  0  0
  -28.0420   -0.9430   16.0380 O   0  0  0  0  0  0
  -29.0210    1.2710   16.3820 C   0  0  0  0  0  0
  -30.1570    2.0860   16.2670 C   0  0  0  0  0  0
  -32.2280    2.2108   15.6598 H   0  0  0  0  0  0
  -32.3246   -0.1590   14.8980 H   0  0  0  0  0  0
  -31.1165   -2.3609   14.6349 H   0  0  0  0  0  0
  -28.1710   -1.9776   15.6874 H   0  0  0  0  0  0
  -28.0963    1.6745   16.7945 H   0  0  0  0  0  0
  -30.1119    3.1258   16.5907 H   0  0  0  0  0  0
  1  2  2  0  0  0
  1  8  1  0  0  0
  1  9  1  0  0  0
  2  3  1  0  0  0
  2 10  1  0  0  0
  3  4  1  0  0  0
  3  5  2  0  0  0
  4 11  1  0  0  0
  5  6  1  0  0  0
  5  7  1  0  0  0
  6 12  1  0  0  0
  7  8  2  0  0  0
  7 13  1  0  0  0
  8 14  1  0  0  0
M  END
> <s_m_source_file>
../4oow_ligand.sdf

> <i_m_source_file_index>
1

> <s_epik_input>
W09IXWMxW2NIXVtjSF1bY0hdW2NIXWMxW09IXQ==

> <s_epik_cmdline>
J2VwaWtfYXBwJywgJy1pbWFlJywgJ2xpZ2FuZF9wcm8ubWFlJywgJy1vbWFlJywgJ2xpZ2FuZF9wcmVwLm1hZScsICctbXMnLCAnMScsICctcGgnLCAnNycsICctcGh0JywgJzAuNScsICctbnQn

> <r_lp_tautomer_probability>
1

> <r_epik_Ionization_Penalty>
  0.0022

> <r_epik_Ionization_Penalty_Charging>
  0.0000

> <r_epik_Ionization_Penalty_Neutral>
  0.0022

> <r_epik_State_Penalty>
 -0.0000

> <r_epik_Charging_Adjusted_Penalty>
0

> <i_epik_Tot_Q>
0

> <i_epik_Tot_abs_Q>
0

$$$$
