4oq5_ligand
                    3D
 Schrodinger Suite 2020-3.
 59 63  0  0  1  0            999 V2000
    7.4520    9.6770    9.7520 C   0  0  0  0  0  0
   11.4780    6.0150   10.2410 C   0  0  0  0  0  0
   12.4780    6.9480   10.3110 C   0  0  0  0  0  0
    6.9610    9.0530    8.6250 C   0  0  0  0  0  0
    7.8890    8.9380   10.8300 C   0  0  0  0  0  0
   11.6710    4.8560    9.5250 C   0  0  0  0  0  0
   13.6520    6.7160    9.6500 C   0  0  0  0  0  0
   11.7410    1.5730    9.0990 C   0  0  0  0  0  0
   14.2120    3.2610    7.4530 C   0  0  0  0  0  0
   10.7860    0.5910    8.9630 C   0  0  0  0  0  0
   15.2060    4.1990    7.5050 C   0  0  0  0  0  0
    6.8980    7.6760    8.5660 C   0  0  0  0  0  0
    7.8430    7.5660   10.7660 C   0  0  0  0  0  0
    8.8520    5.3340    7.7900 C   0  0  0  0  0  0
    7.0620    3.7780    8.1870 C   0  0  0  0  0  0
    9.2330    4.6190    6.6760 C   0  0  0  0  0  0
    7.4400    3.0630    7.0750 C   0  0  0  0  0  0
   11.4460    2.1920    6.8300 C   0  0  0  0  0  0
   12.8590    4.6070    8.8630 C   0  0  0  0  0  0
   13.8610    5.5570    8.9260 C   0  0  0  0  0  0
   12.0670    2.3880    8.0370 C   0  0  0  0  0  0
   13.0450    3.4420    8.1390 C   0  0  0  0  0  0
   10.1380    0.4200    7.7600 C   0  0  0  0  0  0
   15.0500    5.3470    8.2550 C   0  0  0  0  0  0
   10.4890    1.2210    6.6980 C   0  0  0  0  0  0
    7.3510    6.9400    9.6410 C   0  0  0  0  0  0
    7.7670    4.9050    8.5360 C   0  0  0  0  0  0
    8.5200    3.4920    6.3410 C   0  0  0  0  0  0
    9.0750   -0.5910    7.5910 C   0  0  0  0  0  0
   16.1770    6.3370    8.2840 C   0  0  0  0  0  0
    9.8260    1.1420    5.4470 N   0  0  0  0  0  0
    8.1740   -0.4950    6.7660 O   0  0  0  0  0  0
    9.9810    3.3100    4.1870 O   0  0  0  0  0  0
    7.7720    2.0460    4.3210 O   0  0  0  0  0  0
    9.2620   -1.6150    8.4590 O   0  5  0  0  0  0
    7.3180    5.5590    9.6640 O   0  0  0  0  0  0
    8.9910    2.5490    4.9240 S   0  0  0  0  0  0
    7.4950   10.7655    9.7908 H   0  0  0  0  0  0
   10.5310    6.1902   10.7515 H   0  0  0  0  0  0
   12.3397    7.8635   10.8862 H   0  0  0  0  0  0
    6.6216    9.6493    7.7780 H   0  0  0  0  0  0
    8.2667    9.4359   11.7230 H   0  0  0  0  0  0
   10.8700    4.1182    9.4787 H   0  0  0  0  0  0
   14.4435    7.4640    9.6950 H   0  0  0  0  0  0
   12.2444    1.7072   10.0565 H   0  0  0  0  0  0
   14.3528    2.3590    6.8575 H   0  0  0  0  0  0
   10.5424   -0.0521    9.8087 H   0  0  0  0  0  0
   16.1297    4.0384    6.9491 H   0  0  0  0  0  0
    6.4965    7.1776    7.6837 H   0  0  0  0  0  0
    8.1968    6.9708   11.6078 H   0  0  0  0  0  0
    9.3999    6.2299    8.0819 H   0  0  0  0  0  0
    6.2111    3.4540    8.7862 H   0  0  0  0  0  0
   10.0821    4.9399    6.0725 H   0  0  0  0  0  0
    6.8910    2.1688    6.7798 H   0  0  0  0  0  0
   11.7147    2.8105    5.9736 H   0  0  0  0  0  0
   17.0148    5.9566    7.6812 H   0  0  0  0  0  0
   16.5093    6.4839    9.3223 H   0  0  0  0  0  0
   15.8331    7.2963    7.8698 H   0  0  0  0  0  0
    9.8281    0.2385    4.8195 H   0  0  0  0  0  0
  1  4  2  0  0  0
  1  5  1  0  0  0
  1 38  1  0  0  0
  2  3  2  0  0  0
  2  6  1  0  0  0
  2 39  1  0  0  0
  3  7  1  0  0  0
  3 40  1  0  0  0
  4 12  1  0  0  0
  4 41  1  0  0  0
  5 13  2  0  0  0
  5 42  1  0  0  0
  6 19  2  0  0  0
  6 43  1  0  0  0
  7 20  2  0  0  0
  7 44  1  0  0  0
  8 10  2  0  0  0
  8 21  1  0  0  0
  8 45  1  0  0  0
  9 11  1  0  0  0
  9 22  2  0  0  0
  9 46  1  0  0  0
 10 23  1  0  0  0
 10 47  1  0  0  0
 11 24  2  0  0  0
 11 48  1  0  0  0
 12 26  2  0  0  0
 12 49  1  0  0  0
 13 26  1  0  0  0
 13 50  1  0  0  0
 14 16  2  0  0  0
 14 27  1  0  0  0
 14 51  1  0  0  0
 15 17  1  0  0  0
 15 27  2  0  0  0
 15 52  1  0  0  0
 16 28  1  0  0  0
 16 53  1  0  0  0
 17 28  2  0  0  0
 17 54  1  0  0  0
 18 21  2  0  0  0
 18 25  1  0  0  0
 18 55  1  0  0  0
 19 20  1  0  0  0
 19 22  1  0  0  0
 20 24  1  0  0  0
 21 22  1  0  0  0
 23 25  2  0  0  0
 23 29  1  0  0  0
 24 30  1  0  0  0
 25 31  1  0  0  0
 26 36  1  0  0  0
 27 36  1  0  0  0
 28 37  1  0  0  0
 29 32  2  0  0  0
 29 35  1  0  0  0
 30 56  1  0  0  0
 30 57  1  0  0  0
 30 58  1  0  0  0
 31 37  1  0  0  0
 31 59  1  0  0  0
 33 37  2  0  0  0
 34 37  2  0  0  0
M  CHG  1  35  -1
M  END
> <s_m_source_file>
../4oq5_ligand.sdf

> <i_m_source_file_index>
1

> <s_epik_input>
W2NIXTFbY0hdW2NIXVtjSF1bY0hdYzFPYzJbY0hdW2NIXWMoW2NIXVtjSF0yKVMoPU8pKD1PKVtOSF1jKFtjSF0zKWMoQyg9TylbT0hdKVtjSF1bY0hdYzMtYzRbY0hdW2NIXWMoW0NIM10pYyhjNDUpW2NIXVtjSF1bY0hdW2NIXTU=

> <s_epik_cmdline>
J2VwaWtfYXBwJywgJy1pbWFlJywgJ2xpZ2FuZF9wcm8ubWFlJywgJy1vbWFlJywgJ2xpZ2FuZF9wcmVwLm1hZScsICctbXMnLCAnMScsICctcGgnLCAnNycsICctcGh0JywgJzAuNScsICctbnQn

> <r_lp_tautomer_probability>
1

> <r_epik_Ionization_Penalty>
  0.0182

> <r_epik_Ionization_Penalty_Charging>
  0.0000

> <r_epik_Ionization_Penalty_Neutral>
  0.0182

> <r_epik_State_Penalty>
  0.0144

> <r_epik_Charging_Adjusted_Penalty>
0.0144969253679897

> <i_epik_Tot_Q>
-1

> <i_epik_Tot_abs_Q>
1

$$$$
