4or0_ligand
                    3D
 Schrodinger Suite 2020-3.
 30 31  0  0  1  0            999 V2000
   10.2610   21.1540  123.3530 C   0  0  0  0  0  0
   10.2250   22.4390  123.8430 O   0  0  0  0  0  0
   11.3730   20.7610  122.5500 C   0  0  0  0  0  0
    9.3640   15.0470  121.4540 C   0  0  2  0  0  0
   11.4210   19.4830  122.0160 C   0  0  0  0  0  0
   10.3500   18.6070  122.2980 C   0  0  0  0  0  0
    9.2780   19.0120  123.0840 C   0  0  0  0  0  0
    9.1950   20.2980  123.6370 C   0  0  0  0  0  0
   10.3740   17.3120  121.7690 C   0  0  0  0  0  0
    9.3310   16.4380  122.0030 C   0  0  0  0  0  0
    8.0700   14.8320  120.7620 C   0  0  0  0  0  0
    8.2250   18.1130  123.3380 C   0  0  0  0  0  0
    8.2540   16.8400  122.8030 C   0  0  0  0  0  0
   11.1180   23.3290  123.2330 C   0  0  0  0  0  0
    9.1580   12.8290  122.3400 O   0  0  0  0  0  0
    9.5770   14.4420  123.7660 O   0  5  0  0  0  0
    9.3840   14.0520  122.5750 C   0  0  0  0  0  0
   12.1830   21.4644  122.3570 H   0  0  0  0  0  0
   10.2394   14.9258  120.7990 H   0  0  0  0  0  0
   12.2597   19.1639  121.3973 H   0  0  0  0  0  0
    8.3502   20.6102  124.2509 H   0  0  0  0  0  0
   11.2236   16.9902  121.1668 H   0  0  0  0  0  0
    7.9838   15.5338  119.9194 H   0  0  0  0  0  0
    7.2439   15.0032  121.4678 H   0  0  0  0  0  0
    8.0227   13.7995  120.3855 H   0  0  0  0  0  0
    7.3842   18.4225  123.9588 H   0  0  0  0  0  0
    7.4371   16.1469  123.0038 H   0  0  0  0  0  0
   11.0143   24.3238  123.6908 H   0  0  0  0  0  0
   10.8934   23.3947  122.1582 H   0  0  0  0  0  0
   12.1477   22.9674  123.3710 H   0  0  0  0  0  0
  1  2  1  0  0  0
  1  3  2  0  0  0
  1  8  1  0  0  0
  2 14  1  0  0  0
  3  5  1  0  0  0
  3 18  1  0  0  0
  4 10  1  0  0  0
  4 11  1  0  0  0
  4 17  1  0  0  0
  4 19  1  0  0  0
  5  6  2  0  0  0
  5 20  1  0  0  0
  6  7  1  0  0  0
  6  9  1  0  0  0
  7  8  2  0  0  0
  7 12  1  0  0  0
  8 21  1  0  0  0
  9 10  2  0  0  0
  9 22  1  0  0  0
 10 13  1  0  0  0
 11 23  1  0  0  0
 11 24  1  0  0  0
 11 25  1  0  0  0
 12 13  2  0  0  0
 12 26  1  0  0  0
 13 27  1  0  0  0
 14 28  1  0  0  0
 14 29  1  0  0  0
 14 30  1  0  0  0
 15 17  2  0  0  0
 16 17  1  0  0  0
M  CHG  1  16  -1
M  END
> <s_m_source_file>
../4or0_ligand.sdf

> <i_m_source_file_index>
1

> <s_epik_input>
W2NIXTFbY0hdYyhPW0NIM10pW2NIXWMoYzEyKVtjSF1bY0hdYyhbY0hdMilbQ0BIXShbQ0gzXSlDKD1PKVtPSF0=

> <s_epik_cmdline>
J2VwaWtfYXBwJywgJy1pbWFlJywgJ2xpZ2FuZF9wcm8ubWFlJywgJy1vbWFlJywgJ2xpZ2FuZF9wcmVwLm1hZScsICctbXMnLCAnMScsICctcGgnLCAnNycsICctcGh0JywgJzAuNScsICctbnQn

> <r_lp_tautomer_probability>
1

> <r_epik_Ionization_Penalty>
  0.0013

> <r_epik_Ionization_Penalty_Charging>
  0.0013

> <r_epik_Ionization_Penalty_Neutral>
  0.0000

> <r_epik_State_Penalty>
 -0.0000

> <r_epik_Charging_Adjusted_Penalty>
0.00132655585401113

> <i_epik_Tot_Q>
-1

> <i_epik_Tot_abs_Q>
1

$$$$
