4or6_ligand
                    3D
 Schrodinger Suite 2020-3.
 40 42  0  0  1  0            999 V2000
  -12.3650  -24.5840   -1.8990 P   0  0  0  0  0  0
  -12.5420  -25.9940   -1.3900 O   0  0  0  0  0  0
  -13.5430  -23.7380   -1.4780 O   0  5  0  0  0  0
  -12.2790  -24.5950   -3.4070 O   0  5  0  0  0  0
  -11.0170  -23.9400   -1.3000 O   0  0  0  0  0  0
   -9.5990  -24.7000   -1.3760 P   0  0  2  0  0  0
   -9.7410  -26.1790   -1.1040 O   0  5  0  0  0  0
   -8.6140  -24.0690   -0.4220 O   0  0  0  0  0  0
   -9.1390  -24.4430   -2.8930 O   0  0  0  0  0  0
   -8.7410  -23.1390   -3.2960 C   0  0  0  0  0  0
   -7.6430  -23.2510   -4.3380 C   0  0  1  0  0  0
   -7.7690  -22.1700   -5.2590 O   0  0  0  0  0  0
   -6.2820  -23.1200   -3.6800 C   0  0  1  0  0  0
   -5.4410  -24.1780   -4.1400 O   0  0  0  0  0  0
   -5.7220  -21.7980   -4.1570 C   0  0  1  0  0  0
   -4.3290  -21.9290   -4.4450 O   0  0  0  0  0  0
   -6.5210  -21.4950   -5.4120 C   0  0  2  0  0  0
   -6.7810  -20.0450   -5.5590 N   0  0  0  0  0  0
   -7.0360  -19.1630   -4.5750 C   0  0  0  0  0  0
   -7.2440  -17.9200   -5.0840 N   0  0  0  0  0  0
   -7.1350  -18.0070   -6.4240 C   0  0  0  0  0  0
   -7.2400  -17.0810   -7.5750 C   0  0  0  0  0  0
   -7.4920  -15.8690   -7.4030 O   0  0  0  0  0  0
   -7.0570  -17.5820   -8.8040 N   0  3  0  0  0  0
   -6.7850  -18.8830   -9.0210 C   0  0  0  0  0  0
   -6.6140  -19.3150  -10.2940 N   0  0  0  0  0  0
   -6.6740  -19.7860   -8.0160 N   0  0  0  0  0  0
   -6.8360  -19.4120   -6.7270 C   0  0  0  0  0  0
   -9.6039  -22.6085   -3.7250 H   0  0  0  0  0  0
   -8.3662  -22.5839   -2.4234 H   0  0  0  0  0  0
   -7.7407  -24.1953   -4.8936 H   0  0  0  0  0  0
   -6.3095  -23.2114   -2.5841 H   0  0  0  0  0  0
   -5.6851  -25.2217   -3.8927 H   0  0  0  0  0  0
   -5.7458  -20.9915   -3.4094 H   0  0  0  0  0  0
   -3.6182  -22.1494   -3.6349 H   0  0  0  0  0  0
   -6.0085  -21.8362   -6.3235 H   0  0  0  0  0  0
   -7.0710  -19.4116   -3.5143 H   0  0  0  0  0  0
   -6.6978  -18.6064  -11.1312 H   0  0  0  0  0  0
   -6.3914  -20.3742  -10.4901 H   0  0  0  0  0  0
   -7.1271  -16.9236   -9.6824 H   0  0  0  0  0  0
  1  2  2  0  0  0
  1  3  1  0  0  0
  1  4  1  0  0  0
  1  5  1  0  0  0
  5  6  1  0  0  0
  6  7  1  0  0  0
  6  8  2  0  0  0
  6  9  1  0  0  0
  9 10  1  0  0  0
 10 11  1  0  0  0
 10 29  1  0  0  0
 10 30  1  0  0  0
 11 12  1  0  0  0
 11 13  1  0  0  0
 11 31  1  0  0  0
 12 17  1  0  0  0
 13 14  1  0  0  0
 13 15  1  0  0  0
 13 32  1  0  0  0
 14 33  1  0  0  0
 15 16  1  0  0  0
 15 17  1  0  0  0
 15 34  1  0  0  0
 16 35  1  0  0  0
 17 18  1  0  0  0
 17 36  1  0  0  0
 18 19  1  0  0  0
 18 28  1  0  0  0
 19 20  2  0  0  0
 19 37  1  0  0  0
 20 21  1  0  0  0
 21 22  1  0  0  0
 21 28  2  0  0  0
 22 23  2  0  0  0
 22 24  1  0  0  0
 24 25  1  0  0  0
 24 40  1  0  0  0
 25 26  1  0  0  0
 25 27  2  0  0  0
 26 38  1  0  0  0
 26 39  1  0  0  0
 27 28  1  0  0  0
M  CHG  4   3  -1   4  -1   7  -1  24   1
M  END
> <s_m_source_file>
../4or6_ligand.sdf

> <i_m_source_file_index>
1

> <s_epik_input>
Tz1QKFtPSF0pKFtPSF0pT1tQQEBdKD1PKShbT0hdKU9bQ0gyXVtDQEhdMU9bQ0BIXShbQ0BIXShbT0hdKVtDQEBIXTFbT0hdKW4oW2NIXW4yKWMoYzIzKVtuSF1jKD1OXFtIXSlcW25IXWMzPU8=

> <s_epik_cmdline>
J2VwaWtfYXBwJywgJy1pbWFlJywgJ2xpZ2FuZF9wcm8ubWFlJywgJy1vbWFlJywgJ2xpZ2FuZF9wcmVwLm1hZScsICctbXMnLCAnMScsICctcGgnLCAnNycsICctcGh0JywgJzAuNScsICctbnQn

> <r_epik_Ionization_Penalty>
  2.4918

> <r_epik_Ionization_Penalty_Charging>
  2.4918

> <r_epik_Ionization_Penalty_Neutral>
  0.0000

> <r_epik_State_Penalty>
  0.1302

> <r_epik_Charging_Adjusted_Penalty>
2.62193179535438

> <i_epik_Tot_Q>
-2

> <i_epik_Tot_abs_Q>
4

> <s_epik_Chemistry_Notes>
This compound has an imine and may undergo hydrolysis. This compound contains an acetal/aminal-like group ( X-CH(R)-Y where X, Y are N, S, or O) that may be acid/base labile, releasing an aldehyde.

$$$$
