4oru_ligand
                    3D
 Schrodinger Suite 2020-3.
178177  0  0  1  0            999 V2000
   42.5380  -16.5990   -1.9110 O   0  0  0  0  0  0
   42.7840  -16.3530   -3.2940 C   0  0  0  0  0  0
   44.0680  -15.5490   -3.4400 C   0  0  0  0  0  0
   44.9430  -16.1910   -4.3650 O   0  0  0  0  0  0
   46.3070  -16.0190   -3.9890 C   0  0  0  0  0  0
   47.0130  -17.3690   -3.9280 C   0  0  0  0  0  0
   47.3520  -17.8010   -5.2440 O   0  0  0  0  0  0
   47.6720  -19.1880   -5.2580 C   0  0  0  0  0  0
   47.9450  -19.6680   -6.6760 C   0  0  0  0  0  0
   47.0300  -20.7030   -7.0260 O   0  0  0  0  0  0
   45.7630  -20.1620   -7.3870 C   0  0  0  0  0  0
   44.7640  -21.2560   -7.7290 C   0  0  0  0  0  0
   44.1490  -20.9510   -8.9790 O   0  0  0  0  0  0
   44.5000  -21.9100   -9.9710 C   0  0  0  0  0  0
   43.6550  -21.6950  -11.2200 C   0  0  0  0  0  0
   43.1030  -22.9420  -11.6360 O   0  0  0  0  0  0
   42.0230  -23.3590  -10.8030 C   0  0  0  0  0  0
   40.7040  -22.7860  -11.3050 C   0  0  0  0  0  0
   39.6480  -23.1920  -10.4350 O   0  0  0  0  0  0
   39.5160  -22.3500   -9.2910 C   0  0  0  0  0  0
   38.2740  -21.4830   -9.4480 C   0  0  0  0  0  0
   38.3530  -20.3350   -8.6030 O   0  0  0  0  0  0
   38.0450  -20.6070   -7.2380 C   0  0  0  0  0  0
   38.4930  -19.4400   -6.3620 C   0  0  0  0  0  0
   37.8540  -18.2330   -6.7800 O   0  0  0  0  0  0
   38.0170  -17.1590   -5.8530 C   0  0  0  0  0  0
   37.6690  -15.8430   -6.5400 C   0  0  0  0  0  0
   37.2740  -14.8540   -5.5920 O   0  0  0  0  0  0
   37.4070  -13.5280   -6.1090 C   0  0  0  0  0  0
   36.1810  -12.6910   -5.7590 C   0  0  0  0  0  0
   35.1430  -12.9650   -6.6980 O   0  0  0  0  0  0
   34.6520  -11.7680   -7.2920 C   0  0  0  0  0  0
   33.8190  -12.1050   -8.5220 C   0  0  0  0  0  0
   33.9000  -11.0210   -9.4450 O   0  0  0  0  0  0
   32.7820  -10.9740  -10.3330 C   0  0  0  0  0  0
   31.4910  -10.8200   -9.5350 C   0  0  0  0  0  0
   31.2360   -9.4530   -9.2030 O   0  0  0  0  0  0
   30.0830   -9.3020   -8.3690 C   0  0  0  0  0  0
   30.1750  -10.2090   -7.1460 C   0  0  0  0  0  0
   30.8660   -9.5820   -6.0630 O   0  0  0  0  0  0
   29.9900   -9.4200   -4.9500 C   0  0  0  0  0  0
   30.6180   -9.9500   -3.6710 C   0  0  0  0  0  0
   29.6370  -10.6690   -2.9230 O   0  0  0  0  0  0
   28.5740   -9.8510   -2.4270 C   0  0  0  0  0  0
   29.1680   -8.8100   -1.4910 C   0  0  0  0  0  0
   28.1960   -8.1260   -0.7160 O   0  0  0  0  0  0
   28.7970   -6.9900   -0.1000 C   0  0  0  0  0  0
   27.8460   -6.2910    0.8620 C   0  0  0  0  0  0
   28.5810   -5.3090    1.5960 O   0  0  0  0  0  0
   27.7400   -4.3200    2.1840 C   0  0  0  0  0  0
   27.2790   -3.3250    1.1280 C   0  0  0  0  0  0
   28.2110   -2.2520    1.0640 O   0  0  0  0  0  0
   27.5710   -0.9840    0.9490 C   0  0  0  0  0  0
   26.5910   -0.7660    2.0930 C   0  0  0  0  0  0
   25.7790    0.3680    1.8040 O   0  0  0  0  0  0
   24.7350    0.5500    2.7550 C   0  0  0  0  0  0
   23.3620    0.3730    2.1170 C   0  0  0  0  0  0
   23.3730   -0.7910    1.2950 O   0  0  0  0  0  0
   22.0900   -1.1040    0.7480 C   0  0  0  0  0  0
   21.1410   -1.5240    1.8610 C   0  0  0  0  0  0
   21.7590   -2.4960    2.7000 O   0  0  0  0  0  0
   21.2990   -2.3750    4.0450 C   0  0  0  0  0  0
   21.3640   -3.7050    4.7880 C   0  0  0  0  0  0
   20.3800   -4.5900    4.2570 O   0  0  0  0  0  0
   19.9190   -5.5440    5.2130 C   0  0  0  0  0  0
   19.0030   -6.5540    4.5310 C   0  0  0  0  0  0
   19.7800   -7.4770    3.7640 O   0  0  0  0  0  0
   20.4910   -8.3990    4.5910 C   0  0  0  0  0  0
   21.2470   -9.4060    3.7280 C   0  0  0  0  0  0
   22.0500   -8.7370    2.7550 O   0  0  0  0  0  0
   23.4440   -8.8400    3.0390 C   0  0  0  0  0  0
   23.9710   -7.4940    3.5250 C   0  0  0  0  0  0
   24.7990   -6.9160    2.5130 O   0  0  0  0  0  0
   24.3380   -5.6380    2.0770 C   0  0  0  0  0  0
   24.4080   -4.6300    3.2190 C   0  0  0  0  0  0
   24.5040   -3.3000    2.6860 O   0  0  0  0  0  0
   41.6492  -17.1695   -1.6034 H   0  0  0  0  0  0
   42.8867  -17.3113   -3.8242 H   0  0  0  0  0  0
   41.9435  -15.7861   -3.7208 H   0  0  0  0  0  0
   43.8291  -14.5403   -3.8082 H   0  0  0  0  0  0
   44.5668  -15.4739   -2.4625 H   0  0  0  0  0  0
   46.8137  -15.3818   -4.7287 H   0  0  0  0  0  0
   46.3571  -15.5424   -2.9989 H   0  0  0  0  0  0
   47.9312  -17.2758   -3.3296 H   0  0  0  0  0  0
   46.3465  -18.1107   -3.4637 H   0  0  0  0  0  0
   48.5693  -19.3634   -4.6464 H   0  0  0  0  0  0
   46.8294  -19.7629   -4.8462 H   0  0  0  0  0  0
   47.8262  -18.8283   -7.3766 H   0  0  0  0  0  0
   48.9721  -20.0566   -6.7402 H   0  0  0  0  0  0
   45.3618  -19.5758   -6.5471 H   0  0  0  0  0  0
   45.8793  -19.5110   -8.2660 H   0  0  0  0  0  0
   45.2870  -22.2212   -7.7993 H   0  0  0  0  0  0
   43.9969  -21.3110   -6.9425 H   0  0  0  0  0  0
   45.5637  -21.7987  -10.2284 H   0  0  0  0  0  0
   44.3211  -22.9230   -9.5813 H   0  0  0  0  0  0
   42.8419  -20.9890  -10.9955 H   0  0  0  0  0  0
   44.2852  -21.2851  -12.0230 H   0  0  0  0  0  0
   41.9587  -24.4571  -10.8084 H   0  0  0  0  0  0
   42.1955  -23.0069   -9.7753 H   0  0  0  0  0  0
   40.7640  -21.6878  -11.3216 H   0  0  0  0  0  0
   40.5058  -23.1578  -12.3211 H   0  0  0  0  0  0
   39.4211  -22.9708   -8.3879 H   0  0  0  0  0  0
   40.4053  -21.7085   -9.2032 H   0  0  0  0  0  0
   38.1883  -21.1511  -10.4932 H   0  0  0  0  0  0
   37.3825  -22.0664   -9.1743 H   0  0  0  0  0  0
   36.9596  -20.7475   -7.1280 H   0  0  0  0  0  0
   38.5672  -21.5212   -6.9194 H   0  0  0  0  0  0
   38.2256  -19.6439   -5.3147 H   0  0  0  0  0  0
   39.5829  -19.3167   -6.4447 H   0  0  0  0  0  0
   37.3493  -17.3129   -4.9924 H   0  0  0  0  0  0
   39.0606  -17.1288   -5.5066 H   0  0  0  0  0  0
   38.5476  -15.4720   -7.0881 H   0  0  0  0  0  0
   36.8393  -16.0050   -7.2438 H   0  0  0  0  0  0
   38.2990  -13.0529   -5.6748 H   0  0  0  0  0  0
   37.5098  -13.5697   -7.2034 H   0  0  0  0  0  0
   35.8392  -12.9474   -4.7454 H   0  0  0  0  0  0
   36.4425  -11.6233   -5.7986 H   0  0  0  0  0  0
   34.0260  -11.2284   -6.5660 H   0  0  0  0  0  0
   35.4989  -11.1323   -7.5898 H   0  0  0  0  0  0
   34.2090  -13.0214   -8.9891 H   0  0  0  0  0  0
   32.7719  -12.2624   -8.2239 H   0  0  0  0  0  0
   32.8912  -10.1179  -11.0150 H   0  0  0  0  0  0
   32.7384  -11.9050  -10.9173 H   0  0  0  0  0  0
   30.6454  -11.1959  -10.1296 H   0  0  0  0  0  0
   31.5667  -11.3954   -8.6006 H   0  0  0  0  0  0
   30.0093   -8.2579   -8.0308 H   0  0  0  0  0  0
   29.1806   -9.5671   -8.9394 H   0  0  0  0  0  0
   29.1619  -10.4661   -6.8032 H   0  0  0  0  0  0
   30.7167  -11.1288   -7.4115 H   0  0  0  0  0  0
   29.7651   -8.3520   -4.8129 H   0  0  0  0  0  0
   29.0559   -9.9706   -5.1354 H   0  0  0  0  0  0
   31.4522  -10.6212   -3.9230 H   0  0  0  0  0  0
   30.9932   -9.1082   -3.0706 H   0  0  0  0  0  0
   28.0688   -9.3558   -3.2693 H   0  0  0  0  0  0
   27.8518  -10.4780   -1.8836 H   0  0  0  0  0  0
   29.8622   -9.2992   -0.7918 H   0  0  0  0  0  0
   29.7110   -8.0554   -2.0790 H   0  0  0  0  0  0
   29.6855   -7.3069    0.4659 H   0  0  0  0  0  0
   29.0940   -6.2673   -0.8742 H   0  0  0  0  0  0
   27.0389   -5.8068    0.2926 H   0  0  0  0  0  0
   27.4147   -7.0302    1.5531 H   0  0  0  0  0  0
   26.8592   -4.8055    2.6295 H   0  0  0  0  0  0
   28.2970   -3.7826    2.9656 H   0  0  0  0  0  0
   27.2236   -3.8269    0.1507 H   0  0  0  0  0  0
   26.2855   -2.9376    1.3981 H   0  0  0  0  0  0
   28.3288   -0.1871    0.9752 H   0  0  0  0  0  0
   27.0210   -0.9358   -0.0024 H   0  0  0  0  0  0
   25.9551   -1.6565    2.2057 H   0  0  0  0  0  0
   27.1484   -0.5931    3.0254 H   0  0  0  0  0  0
   24.8418   -0.1892    3.5626 H   0  0  0  0  0  0
   24.7953    1.5644    3.1761 H   0  0  0  0  0  0
   22.6031    0.2607    2.9053 H   0  0  0  0  0  0
   23.1260    1.2553    1.5039 H   0  0  0  0  0  0
   21.6825   -0.2182    0.2387 H   0  0  0  0  0  0
   22.1902   -1.9281    0.0263 H   0  0  0  0  0  0
   20.8746   -0.6453    2.4667 H   0  0  0  0  0  0
   20.2299   -1.9568    1.4222 H   0  0  0  0  0  0
   21.9256   -1.6482    4.5828 H   0  0  0  0  0  0
   20.2545   -2.0300    4.0457 H   0  0  0  0  0  0
   22.3633   -4.1470    4.6618 H   0  0  0  0  0  0
   21.1697   -3.5374    5.8576 H   0  0  0  0  0  0
   20.7802   -6.0703    5.6505 H   0  0  0  0  0  0
   19.3628   -5.0265    6.0085 H   0  0  0  0  0  0
   18.4335   -7.1057    5.2934 H   0  0  0  0  0  0
   18.3061   -6.0252    3.8641 H   0  0  0  0  0  0
   21.2096   -7.8506    5.2177 H   0  0  0  0  0  0
   19.7801   -8.9381    5.2344 H   0  0  0  0  0  0
   21.9003  -10.0187    4.3666 H   0  0  0  0  0  0
   20.5280  -10.0562    3.2082 H   0  0  0  0  0  0
   23.6040   -9.5976    3.8203 H   0  0  0  0  0  0
   23.9833   -9.1346    2.1267 H   0  0  0  0  0  0
   23.1249   -6.8233    3.7353 H   0  0  0  0  0  0
   24.5597   -7.6404    4.4426 H   0  0  0  0  0  0
   24.9682   -5.2843    1.2477 H   0  0  0  0  0  0
   23.2956   -5.7210    1.7358 H   0  0  0  0  0  0
   23.5007   -4.7109    3.8356 H   0  0  0  0  0  0
   25.2924   -4.8390    3.8388 H   0  0  0  0  0  0
   24.5644   -2.4378    3.3664 H   0  0  0  0  0  0
  1  2  1  0  0  0
  1 77  1  0  0  0
  2  3  1  0  0  0
  2 78  1  0  0  0
  2 79  1  0  0  0
  3  4  1  0  0  0
  3 80  1  0  0  0
  3 81  1  0  0  0
  4  5  1  0  0  0
  5  6  1  0  0  0
  5 82  1  0  0  0
  5 83  1  0  0  0
  6  7  1  0  0  0
  6 84  1  0  0  0
  6 85  1  0  0  0
  7  8  1  0  0  0
  8  9  1  0  0  0
  8 86  1  0  0  0
  8 87  1  0  0  0
  9 10  1  0  0  0
  9 88  1  0  0  0
  9 89  1  0  0  0
 10 11  1  0  0  0
 11 12  1  0  0  0
 11 90  1  0  0  0
 11 91  1  0  0  0
 12 13  1  0  0  0
 12 92  1  0  0  0
 12 93  1  0  0  0
 13 14  1  0  0  0
 14 15  1  0  0  0
 14 94  1  0  0  0
 14 95  1  0  0  0
 15 16  1  0  0  0
 15 96  1  0  0  0
 15 97  1  0  0  0
 16 17  1  0  0  0
 17 18  1  0  0  0
 17 98  1  0  0  0
 17 99  1  0  0  0
 18 19  1  0  0  0
 18100  1  0  0  0
 18101  1  0  0  0
 19 20  1  0  0  0
 20 21  1  0  0  0
 20102  1  0  0  0
 20103  1  0  0  0
 21 22  1  0  0  0
 21104  1  0  0  0
 21105  1  0  0  0
 22 23  1  0  0  0
 23 24  1  0  0  0
 23106  1  0  0  0
 23107  1  0  0  0
 24 25  1  0  0  0
 24108  1  0  0  0
 24109  1  0  0  0
 25 26  1  0  0  0
 26 27  1  0  0  0
 26110  1  0  0  0
 26111  1  0  0  0
 27 28  1  0  0  0
 27112  1  0  0  0
 27113  1  0  0  0
 28 29  1  0  0  0
 29 30  1  0  0  0
 29114  1  0  0  0
 29115  1  0  0  0
 30 31  1  0  0  0
 30116  1  0  0  0
 30117  1  0  0  0
 31 32  1  0  0  0
 32 33  1  0  0  0
 32118  1  0  0  0
 32119  1  0  0  0
 33 34  1  0  0  0
 33120  1  0  0  0
 33121  1  0  0  0
 34 35  1  0  0  0
 35 36  1  0  0  0
 35122  1  0  0  0
 35123  1  0  0  0
 36 37  1  0  0  0
 36124  1  0  0  0
 36125  1  0  0  0
 37 38  1  0  0  0
 38 39  1  0  0  0
 38126  1  0  0  0
 38127  1  0  0  0
 39 40  1  0  0  0
 39128  1  0  0  0
 39129  1  0  0  0
 40 41  1  0  0  0
 41 42  1  0  0  0
 41130  1  0  0  0
 41131  1  0  0  0
 42 43  1  0  0  0
 42132  1  0  0  0
 42133  1  0  0  0
 43 44  1  0  0  0
 44 45  1  0  0  0
 44134  1  0  0  0
 44135  1  0  0  0
 45 46  1  0  0  0
 45136  1  0  0  0
 45137  1  0  0  0
 46 47  1  0  0  0
 47 48  1  0  0  0
 47138  1  0  0  0
 47139  1  0  0  0
 48 49  1  0  0  0
 48140  1  0  0  0
 48141  1  0  0  0
 49 50  1  0  0  0
 50 51  1  0  0  0
 50142  1  0  0  0
 50143  1  0  0  0
 51 52  1  0  0  0
 51144  1  0  0  0
 51145  1  0  0  0
 52 53  1  0  0  0
 53 54  1  0  0  0
 53146  1  0  0  0
 53147  1  0  0  0
 54 55  1  0  0  0
 54148  1  0  0  0
 54149  1  0  0  0
 55 56  1  0  0  0
 56 57  1  0  0  0
 56150  1  0  0  0
 56151  1  0  0  0
 57 58  1  0  0  0
 57152  1  0  0  0
 57153  1  0  0  0
 58 59  1  0  0  0
 59 60  1  0  0  0
 59154  1  0  0  0
 59155  1  0  0  0
 60 61  1  0  0  0
 60156  1  0  0  0
 60157  1  0  0  0
 61 62  1  0  0  0
 62 63  1  0  0  0
 62158  1  0  0  0
 62159  1  0  0  0
 63 64  1  0  0  0
 63160  1  0  0  0
 63161  1  0  0  0
 64 65  1  0  0  0
 65 66  1  0  0  0
 65162  1  0  0  0
 65163  1  0  0  0
 66 67  1  0  0  0
 66164  1  0  0  0
 66165  1  0  0  0
 67 68  1  0  0  0
 68 69  1  0  0  0
 68166  1  0  0  0
 68167  1  0  0  0
 69 70  1  0  0  0
 69168  1  0  0  0
 69169  1  0  0  0
 70 71  1  0  0  0
 71 72  1  0  0  0
 71170  1  0  0  0
 71171  1  0  0  0
 72 73  1  0  0  0
 72172  1  0  0  0
 72173  1  0  0  0
 73 74  1  0  0  0
 74 75  1  0  0  0
 74174  1  0  0  0
 74175  1  0  0  0
 75 76  1  0  0  0
 75176  1  0  0  0
 75177  1  0  0  0
 76178  1  0  0  0
M  END
> <s_m_source_file>
../4oru_ligand.sdf

> <i_m_source_file_index>
1

> <s_epik_input>
W09IXVtDSDJdW0NIMl1PW0NIMl1bQ0gyXU9bQ0gyXVtDSDJdT1tDSDJdW0NIMl1PW0NIMl1bQ0gyXU9bQ0gyXVtDSDJdT1tDSDJdW0NIMl1PW0NIMl1bQ0gyXU9bQ0gyXVtDSDJdT1tDSDJdW0NIMl1PW0NIMl1bQ0gyXU9bQ0gyXVtDSDJdT1tDSDJdW0NIMl1PW0NIMl1bQ0gyXU9bQ0gyXVtDSDJdT1tDSDJdW0NIMl1PW0NIMl1bQ0gyXU9bQ0gyXVtDSDJdT1tDSDJdW0NIMl1PW0NIMl1bQ0gyXU9bQ0gyXVtDSDJdT1tDSDJdW0NIMl1PW0NIMl1bQ0gyXU9bQ0gyXVtDSDJdT1tDSDJdW0NIMl1bT0hd

> <s_epik_cmdline>
J2VwaWtfYXBwJywgJy1pbWFlJywgJ2xpZ2FuZF9wcm8ubWFlJywgJy1vbWFlJywgJ2xpZ2FuZF9wcmVwLm1hZScsICctbXMnLCAnMScsICctcGgnLCAnNycsICctcGh0JywgJzAuNScsICctbnQn

> <s_epik_pKa_notes>
Molecule size exceeds maximum supported for generating protonation states

$$$$
