4orx_ligand
                    3D
 Schrodinger Suite 2020-3.
178177  0  0  1  0            999 V2000
   19.8700  -53.3530   -2.9070 O   0  0  0  0  0  0
   19.4300  -53.9490   -4.1310 C   0  0  0  0  0  0
   19.9230  -55.3890   -4.1590 C   0  0  0  0  0  0
   21.1350  -55.4070   -3.4070 O   0  0  0  0  0  0
   21.8620  -56.6320   -3.4510 C   0  0  0  0  0  0
   23.1730  -56.3930   -2.7160 C   0  0  0  0  0  0
   23.8150  -55.2460   -3.2640 O   0  0  0  0  0  0
   24.2700  -54.3460   -2.2580 C   0  0  0  0  0  0
   25.1850  -53.2940   -2.8730 C   0  0  0  0  0  0
   25.5620  -52.3310   -1.8880 O   0  0  0  0  0  0
   24.4800  -51.4700   -1.5350 C   0  0  0  0  0  0
   23.9360  -50.8430   -2.8120 C   0  0  0  0  0  0
   25.0140  -50.1810   -3.4720 O   0  0  0  0  0  0
   24.8950  -50.1680   -4.8970 C   0  0  0  0  0  0
   23.8630  -49.1550   -5.3970 C   0  0  0  0  0  0
   23.3870  -48.2950   -4.3600 O   0  0  0  0  0  0
   24.3200  -47.3100   -3.9180 C   0  0  0  0  0  0
   24.2420  -47.2590   -2.3940 C   0  0  0  0  0  0
   24.3450  -45.9140   -1.9310 O   0  0  0  0  0  0
   23.2470  -45.1050   -2.3500 C   0  0  0  0  0  0
   21.9270  -45.6500   -1.8200 C   0  0  0  0  0  0
   20.8730  -44.8310   -2.3190 O   0  0  0  0  0  0
   19.7540  -45.5840   -2.7750 C   0  0  0  0  0  0
   19.0440  -46.2090   -1.5870 C   0  0  0  0  0  0
   18.0450  -47.1150   -2.0380 O   0  0  0  0  0  0
   17.9760  -48.2750   -1.2180 C   0  0  0  0  0  0
   18.3250  -49.4980   -2.0510 C   0  0  0  0  0  0
   17.3090  -50.4890   -1.8840 O   0  0  0  0  0  0
   17.8440  -51.6880   -1.3320 C   0  0  0  0  0  0
   16.8190  -52.4030   -0.4760 C   0  0  0  0  0  0
   17.4560  -53.4570    0.2360 O   0  0  0  0  0  0
   16.5190  -54.0930    1.0860 C   0  0  0  0  0  0
   17.1390  -55.2140    1.8990 C   0  0  0  0  0  0
   16.1090  -56.1040    2.3470 O   0  0  0  0  0  0
   15.0860  -55.4820    3.1260 C   0  0  0  0  0  0
   15.6730  -54.9170    4.4060 C   0  0  0  0  0  0
   14.7630  -55.0290    5.4990 O   0  0  0  0  0  0
   15.4080  -55.6350    6.6200 C   0  0  0  0  0  0
   15.4920  -54.6930    7.8160 C   0  0  0  0  0  0
   14.3120  -54.7980    8.6160 O   0  0  0  0  0  0
   14.0410  -56.1510    8.9770 C   0  0  0  0  0  0
   12.8900  -56.2440    9.9750 C   0  0  0  0  0  0
   11.6350  -56.1840    9.2930 O   0  0  0  0  0  0
   11.3610  -57.3770    8.5670 C   0  0  0  0  0  0
   11.1310  -57.0530    7.0980 C   0  0  0  0  0  0
   10.9730  -58.2630    6.3580 O   0  0  0  0  0  0
   10.3290  -58.0260    5.1080 C   0  0  0  0  0  0
    8.8790  -57.6290    5.3540 C   0  0  0  0  0  0
    7.9950  -58.6970    4.9960 O   0  0  0  0  0  0
    8.0660  -59.8180    5.8760 C   0  0  0  0  0  0
    7.1190  -60.8980    5.3740 C   0  0  0  0  0  0
    7.5910  -62.1910    5.7480 O   0  0  0  0  0  0
    6.6150  -63.2050    5.4960 C   0  0  0  0  0  0
    7.2140  -64.5950    5.6870 C   0  0  0  0  0  0
    7.4470  -64.8730    7.0670 O   0  0  0  0  0  0
    6.6400  -65.9530    7.5310 C   0  0  0  0  0  0
    7.3200  -66.6530    8.7000 C   0  0  0  0  0  0
    6.5740  -67.8020    9.1040 O   0  0  0  0  0  0
    5.2590  -67.4890    9.5460 C   0  0  0  0  0  0
    4.7030  -68.5980   10.4330 C   0  0  0  0  0  0
    3.4520  -68.1880   10.9810 O   0  0  0  0  0  0
    2.5260  -67.7910    9.9760 C   0  0  0  0  0  0
    1.3040  -67.1400   10.6130 C   0  0  0  0  0  0
    0.7920  -66.1350    9.7360 O   0  0  0  0  0  0
    1.4740  -64.8920    9.8990 C   0  0  0  0  0  0
    0.5610  -63.7390    9.4970 C   0  0  0  0  0  0
    0.5150  -63.6360    8.0750 O   0  0  0  0  0  0
    0.3020  -62.2990    7.6260 C   0  0  0  0  0  0
    0.3410  -62.2490    6.0990 C   0  0  0  0  0  0
    0.4320  -60.8970    5.6400 O   0  0  0  0  0  0
   -0.1950  -60.6860    4.3740 C   0  0  0  0  0  0
    0.8040  -60.1780    3.3380 C   0  0  0  0  0  0
    1.2170  -61.2300    2.4600 O   0  0  0  0  0  0
    2.6160  -61.5180    2.5560 C   0  0  0  0  0  0
    3.0860  -62.3140    1.3420 C   0  0  0  0  0  0
    4.3690  -62.8870    1.5860 O   0  0  0  0  0  0
   19.6190  -52.3055   -2.6840 H   0  0  0  0  0  0
   18.3313  -53.9233   -4.1771 H   0  0  0  0  0  0
   19.8458  -53.3892   -4.9817 H   0  0  0  0  0  0
   19.1652  -56.0448   -3.7055 H   0  0  0  0  0  0
   20.0980  -55.6965   -5.2005 H   0  0  0  0  0  0
   21.2774  -57.4232   -2.9588 H   0  0  0  0  0  0
   22.0473  -56.9110   -4.4988 H   0  0  0  0  0  0
   22.9695  -56.2270   -1.6478 H   0  0  0  0  0  0
   23.8244  -57.2717   -2.8329 H   0  0  0  0  0  0
   23.4061  -53.8471   -1.7945 H   0  0  0  0  0  0
   24.8261  -54.9045   -1.4906 H   0  0  0  0  0  0
   26.0902  -53.7800   -3.2661 H   0  0  0  0  0  0
   24.6578  -52.7833   -3.6923 H   0  0  0  0  0  0
   23.6935  -52.0552   -1.0360 H   0  0  0  0  0  0
   24.8423  -50.6864   -0.8533 H   0  0  0  0  0  0
   23.5205  -51.6299   -3.4586 H   0  0  0  0  0  0
   23.1454  -50.1215   -2.5583 H   0  0  0  0  0  0
   25.8657  -49.9067   -5.3436 H   0  0  0  0  0  0
   24.5859  -51.1635   -5.2482 H   0  0  0  0  0  0
   24.3159  -48.5244   -6.1762 H   0  0  0  0  0  0
   22.9973  -49.6895   -5.8152 H   0  0  0  0  0  0
   25.3324  -47.5921   -4.2428 H   0  0  0  0  0  0
   24.0550  -46.3338   -4.3502 H   0  0  0  0  0  0
   23.2805  -47.6776   -2.0619 H   0  0  0  0  0  0
   25.0661  -47.8478   -1.9647 H   0  0  0  0  0  0
   23.3808  -44.0808   -1.9717 H   0  0  0  0  0  0
   23.2031  -45.0871   -3.4490 H   0  0  0  0  0  0
   21.7942  -46.6867   -2.1630 H   0  0  0  0  0  0
   21.9354  -45.6259   -0.7203 H   0  0  0  0  0  0
   19.0584  -44.9201   -3.3092 H   0  0  0  0  0  0
   20.0983  -46.3775   -3.4545 H   0  0  0  0  0  0
   19.7732  -46.7532   -0.9688 H   0  0  0  0  0  0
   18.5707  -45.4190   -0.9855 H   0  0  0  0  0  0
   18.6896  -48.1791   -0.3864 H   0  0  0  0  0  0
   16.9572  -48.3803   -0.8167 H   0  0  0  0  0  0
   18.3904  -49.2129   -3.1114 H   0  0  0  0  0  0
   19.2926  -49.9032   -1.7199 H   0  0  0  0  0  0
   18.1517  -52.3609   -2.1459 H   0  0  0  0  0  0
   18.7160  -51.4465   -0.7065 H   0  0  0  0  0  0
   16.3760  -51.6917    0.2366 H   0  0  0  0  0  0
   16.0289  -52.8175   -1.1194 H   0  0  0  0  0  0
   16.1019  -53.3562    1.7883 H   0  0  0  0  0  0
   15.7074  -54.5228    0.4806 H   0  0  0  0  0  0
   17.8557  -55.7670    1.2741 H   0  0  0  0  0  0
   17.6619  -54.7901    2.7690 H   0  0  0  0  0  0
   14.6303  -54.6649    2.5474 H   0  0  0  0  0  0
   14.3158  -56.2251    3.3803 H   0  0  0  0  0  0
   16.5908  -55.4665    4.6623 H   0  0  0  0  0  0
   15.9111  -53.8528    4.2618 H   0  0  0  0  0  0
   14.8450  -56.5284    6.9281 H   0  0  0  0  0  0
   16.4319  -55.9249    6.3414 H   0  0  0  0  0  0
   16.3659  -54.9568    8.4298 H   0  0  0  0  0  0
   15.5930  -53.6570    7.4604 H   0  0  0  0  0  0
   13.7689  -56.7230    8.0777 H   0  0  0  0  0  0
   14.9367  -56.5944    9.4365 H   0  0  0  0  0  0
   12.9556  -57.1957   10.5227 H   0  0  0  0  0  0
   12.9525  -55.4069   10.6858 H   0  0  0  0  0  0
   12.2150  -58.0646    8.6559 H   0  0  0  0  0  0
   10.4598  -57.8567    8.9766 H   0  0  0  0  0  0
   10.2225  -56.4413    6.9953 H   0  0  0  0  0  0
   11.9945  -56.4957    6.7059 H   0  0  0  0  0  0
   10.8473  -57.2142    4.5766 H   0  0  0  0  0  0
   10.3612  -58.9418    4.4995 H   0  0  0  0  0  0
    8.7391  -57.3933    6.4193 H   0  0  0  0  0  0
    8.6329  -56.7450    4.7475 H   0  0  0  0  0  0
    9.0955  -60.2049    5.8945 H   0  0  0  0  0  0
    7.7727  -59.5076    6.8897 H   0  0  0  0  0  0
    6.1212  -60.7424    5.8101 H   0  0  0  0  0  0
    7.0519  -60.8460    4.2773 H   0  0  0  0  0  0
    5.7723  -63.0839    6.1925 H   0  0  0  0  0  0
    6.2516  -63.1152    4.4617 H   0  0  0  0  0  0
    6.5206  -65.3508    5.2897 H   0  0  0  0  0  0
    8.1721  -64.6583    5.1503 H   0  0  0  0  0  0
    5.6645  -65.5664    7.8609 H   0  0  0  0  0  0
    6.4910  -66.6761    6.7156 H   0  0  0  0  0  0
    8.3290  -66.9720    8.3997 H   0  0  0  0  0  0
    7.3927  -65.9594    9.5507 H   0  0  0  0  0  0
    5.2792  -66.5525   10.1226 H   0  0  0  0  0  0
    4.5982  -67.3690    8.6748 H   0  0  0  0  0  0
    4.5593  -69.5093    9.8339 H   0  0  0  0  0  0
    5.4106  -68.8039   11.2496 H   0  0  0  0  0  0
    3.0065  -67.0692    9.2992 H   0  0  0  0  0  0
    2.2058  -68.6737    9.4031 H   0  0  0  0  0  0
    0.5316  -67.9033   10.7885 H   0  0  0  0  0  0
    1.5904  -66.6812   11.5708 H   0  0  0  0  0  0
    1.7679  -64.7704   10.9520 H   0  0  0  0  0  0
    2.3721  -64.8805    9.2640 H   0  0  0  0  0  0
   -0.4528  -63.9225    9.8824 H   0  0  0  0  0  0
    0.9490  -62.7999    9.9184 H   0  0  0  0  0  0
   -0.6800  -61.9471    7.9750 H   0  0  0  0  0  0
    1.0901  -61.6466    8.0300 H   0  0  0  0  0  0
    1.2164  -62.8075    5.7361 H   0  0  0  0  0  0
   -0.5762  -62.7012    5.6938 H   0  0  0  0  0  0
   -0.6213  -61.6338    4.0135 H   0  0  0  0  0  0
   -0.9968  -59.9407    4.4816 H   0  0  0  0  0  0
    0.3377  -59.3825    2.7383 H   0  0  0  0  0  0
    1.6919  -59.7786    3.8499 H   0  0  0  0  0  0
    3.1818  -60.5759    2.6047 H   0  0  0  0  0  0
    2.8074  -62.1081    3.4644 H   0  0  0  0  0  0
    2.3685  -63.1210    1.1325 H   0  0  0  0  0  0
    3.1528  -61.6472    0.4697 H   0  0  0  0  0  0
    4.8563  -63.4953    0.8098 H   0  0  0  0  0  0
  1  2  1  0  0  0
  1 77  1  0  0  0
  2  3  1  0  0  0
  2 78  1  0  0  0
  2 79  1  0  0  0
  3  4  1  0  0  0
  3 80  1  0  0  0
  3 81  1  0  0  0
  4  5  1  0  0  0
  5  6  1  0  0  0
  5 82  1  0  0  0
  5 83  1  0  0  0
  6  7  1  0  0  0
  6 84  1  0  0  0
  6 85  1  0  0  0
  7  8  1  0  0  0
  8  9  1  0  0  0
  8 86  1  0  0  0
  8 87  1  0  0  0
  9 10  1  0  0  0
  9 88  1  0  0  0
  9 89  1  0  0  0
 10 11  1  0  0  0
 11 12  1  0  0  0
 11 90  1  0  0  0
 11 91  1  0  0  0
 12 13  1  0  0  0
 12 92  1  0  0  0
 12 93  1  0  0  0
 13 14  1  0  0  0
 14 15  1  0  0  0
 14 94  1  0  0  0
 14 95  1  0  0  0
 15 16  1  0  0  0
 15 96  1  0  0  0
 15 97  1  0  0  0
 16 17  1  0  0  0
 17 18  1  0  0  0
 17 98  1  0  0  0
 17 99  1  0  0  0
 18 19  1  0  0  0
 18100  1  0  0  0
 18101  1  0  0  0
 19 20  1  0  0  0
 20 21  1  0  0  0
 20102  1  0  0  0
 20103  1  0  0  0
 21 22  1  0  0  0
 21104  1  0  0  0
 21105  1  0  0  0
 22 23  1  0  0  0
 23 24  1  0  0  0
 23106  1  0  0  0
 23107  1  0  0  0
 24 25  1  0  0  0
 24108  1  0  0  0
 24109  1  0  0  0
 25 26  1  0  0  0
 26 27  1  0  0  0
 26110  1  0  0  0
 26111  1  0  0  0
 27 28  1  0  0  0
 27112  1  0  0  0
 27113  1  0  0  0
 28 29  1  0  0  0
 29 30  1  0  0  0
 29114  1  0  0  0
 29115  1  0  0  0
 30 31  1  0  0  0
 30116  1  0  0  0
 30117  1  0  0  0
 31 32  1  0  0  0
 32 33  1  0  0  0
 32118  1  0  0  0
 32119  1  0  0  0
 33 34  1  0  0  0
 33120  1  0  0  0
 33121  1  0  0  0
 34 35  1  0  0  0
 35 36  1  0  0  0
 35122  1  0  0  0
 35123  1  0  0  0
 36 37  1  0  0  0
 36124  1  0  0  0
 36125  1  0  0  0
 37 38  1  0  0  0
 38 39  1  0  0  0
 38126  1  0  0  0
 38127  1  0  0  0
 39 40  1  0  0  0
 39128  1  0  0  0
 39129  1  0  0  0
 40 41  1  0  0  0
 41 42  1  0  0  0
 41130  1  0  0  0
 41131  1  0  0  0
 42 43  1  0  0  0
 42132  1  0  0  0
 42133  1  0  0  0
 43 44  1  0  0  0
 44 45  1  0  0  0
 44134  1  0  0  0
 44135  1  0  0  0
 45 46  1  0  0  0
 45136  1  0  0  0
 45137  1  0  0  0
 46 47  1  0  0  0
 47 48  1  0  0  0
 47138  1  0  0  0
 47139  1  0  0  0
 48 49  1  0  0  0
 48140  1  0  0  0
 48141  1  0  0  0
 49 50  1  0  0  0
 50 51  1  0  0  0
 50142  1  0  0  0
 50143  1  0  0  0
 51 52  1  0  0  0
 51144  1  0  0  0
 51145  1  0  0  0
 52 53  1  0  0  0
 53 54  1  0  0  0
 53146  1  0  0  0
 53147  1  0  0  0
 54 55  1  0  0  0
 54148  1  0  0  0
 54149  1  0  0  0
 55 56  1  0  0  0
 56 57  1  0  0  0
 56150  1  0  0  0
 56151  1  0  0  0
 57 58  1  0  0  0
 57152  1  0  0  0
 57153  1  0  0  0
 58 59  1  0  0  0
 59 60  1  0  0  0
 59154  1  0  0  0
 59155  1  0  0  0
 60 61  1  0  0  0
 60156  1  0  0  0
 60157  1  0  0  0
 61 62  1  0  0  0
 62 63  1  0  0  0
 62158  1  0  0  0
 62159  1  0  0  0
 63 64  1  0  0  0
 63160  1  0  0  0
 63161  1  0  0  0
 64 65  1  0  0  0
 65 66  1  0  0  0
 65162  1  0  0  0
 65163  1  0  0  0
 66 67  1  0  0  0
 66164  1  0  0  0
 66165  1  0  0  0
 67 68  1  0  0  0
 68 69  1  0  0  0
 68166  1  0  0  0
 68167  1  0  0  0
 69 70  1  0  0  0
 69168  1  0  0  0
 69169  1  0  0  0
 70 71  1  0  0  0
 71 72  1  0  0  0
 71170  1  0  0  0
 71171  1  0  0  0
 72 73  1  0  0  0
 72172  1  0  0  0
 72173  1  0  0  0
 73 74  1  0  0  0
 74 75  1  0  0  0
 74174  1  0  0  0
 74175  1  0  0  0
 75 76  1  0  0  0
 75176  1  0  0  0
 75177  1  0  0  0
 76178  1  0  0  0
M  END
> <s_m_source_file>
../4orx_ligand.sdf

> <i_m_source_file_index>
1

> <s_epik_input>
W09IXVtDSDJdW0NIMl1PW0NIMl1bQ0gyXU9bQ0gyXVtDSDJdT1tDSDJdW0NIMl1PW0NIMl1bQ0gyXU9bQ0gyXVtDSDJdT1tDSDJdW0NIMl1PW0NIMl1bQ0gyXU9bQ0gyXVtDSDJdT1tDSDJdW0NIMl1PW0NIMl1bQ0gyXU9bQ0gyXVtDSDJdT1tDSDJdW0NIMl1PW0NIMl1bQ0gyXU9bQ0gyXVtDSDJdT1tDSDJdW0NIMl1PW0NIMl1bQ0gyXU9bQ0gyXVtDSDJdT1tDSDJdW0NIMl1PW0NIMl1bQ0gyXU9bQ0gyXVtDSDJdT1tDSDJdW0NIMl1PW0NIMl1bQ0gyXU9bQ0gyXVtDSDJdT1tDSDJdW0NIMl1bT0hd

> <s_epik_cmdline>
J2VwaWtfYXBwJywgJy1pbWFlJywgJ2xpZ2FuZF9wcm8ubWFlJywgJy1vbWFlJywgJ2xpZ2FuZF9wcmVwLm1hZScsICctbXMnLCAnMScsICctcGgnLCAnNycsICctcGh0JywgJzAuNScsICctbnQn

> <s_epik_pKa_notes>
Molecule size exceeds maximum supported for generating protonation states

$$$$
