4ory_ligand
                    3D
 Schrodinger Suite 2020-3.
178177  0  0  1  0            999 V2000
   16.0880   -2.7790    5.4870 O   0  0  0  0  0  0
   17.2700   -1.9940    5.3140 C   0  0  0  0  0  0
   16.8800   -0.5750    4.9300 C   0  0  0  0  0  0
   18.0590    0.1440    4.5780 O   0  0  0  0  0  0
   17.8050    1.1300    3.5790 C   0  0  0  0  0  0
   16.7010    2.0840    4.0300 C   0  0  0  0  0  0
   15.5170    1.8530    3.2680 O   0  0  0  0  0  0
   15.7580    1.9500    1.8650 C   0  0  0  0  0  0
   15.0480    0.7940    1.1700 C   0  0  0  0  0  0
   15.3680    0.7860   -0.2190 O   0  0  0  0  0  0
   15.5980   -0.5440   -0.6810 C   0  0  0  0  0  0
   16.9850   -0.9970   -0.2380 C   0  0  0  0  0  0
   16.9420   -2.3590    0.1840 O   0  0  0  0  0  0
   18.0980   -2.7090    0.9440 C   0  0  0  0  0  0
   17.7440   -3.8430    1.8980 C   0  0  0  0  0  0
   18.5450   -3.7720    3.0780 O   0  0  0  0  0  0
   19.6220   -4.7100    3.0980 C   0  0  0  0  0  0
   19.7320   -5.3280    4.4920 C   0  0  0  0  0  0
   19.5470   -4.3290    5.4970 O   0  0  0  0  0  0
   19.9940   -4.7500    6.7880 C   0  0  0  0  0  0
   19.2240   -4.0140    7.8830 C   0  0  0  0  0  0
   18.2130   -4.8790    8.4020 O   0  0  0  0  0  0
   17.3530   -4.2400    9.3450 C   0  0  0  0  0  0
   16.2260   -3.5200    8.6120 C   0  0  0  0  0  0
   15.0230   -3.5550    9.3830 O   0  0  0  0  0  0
   13.8690   -3.7590    8.5620 C   0  0  0  0  0  0
   13.6750   -2.5850    7.6050 C   0  0  0  0  0  0
   12.2770   -2.3980    7.3850 O   0  0  0  0  0  0
   11.9360   -2.2530    6.0040 C   0  0  0  0  0  0
   10.4700   -2.6360    5.8490 C   0  0  0  0  0  0
   10.1700   -2.9440    4.4880 O   0  0  0  0  0  0
    9.0110   -3.7740    4.3970 C   0  0  0  0  0  0
    8.4810   -3.8760    2.9720 C   0  0  0  0  0  0
    7.1020   -4.2550    3.0060 O   0  0  0  0  0  0
    6.9110   -5.5620    3.5420 C   0  0  0  0  0  0
    5.4260   -5.9070    3.5010 C   0  0  0  0  0  0
    5.2070   -7.2600    3.9120 O   0  0  0  0  0  0
    5.6710   -8.2280    2.9620 C   0  0  0  0  0  0
    5.0490   -9.5960    3.2510 C   0  0  0  0  0  0
    3.6610   -9.5700    2.9110 O   0  0  0  0  0  0
    2.8490  -10.2780    3.8500 C   0  0  0  0  0  0
    1.3950   -9.8430    3.6820 C   0  0  0  0  0  0
    1.2760   -8.4300    3.8530 O   0  0  0  0  0  0
    1.7750   -8.0160    5.1250 C   0  0  0  0  0  0
    1.5760   -6.5130    5.2740 C   0  0  0  0  0  0
    0.1780   -6.2270    5.2740 O   0  0  0  0  0  0
   -0.0820   -4.8710    5.6300 C   0  0  0  0  0  0
   -1.5810   -4.7150    5.8720 C   0  0  0  0  0  0
   -2.1170   -3.7760    4.9440 O   0  0  0  0  0  0
   -3.2940   -4.2480    4.2880 C   0  0  0  0  0  0
   -4.2030   -3.0470    4.0530 C   0  0  0  0  0  0
   -4.8110   -3.0930    2.7650 O   0  0  0  0  0  0
   -5.4360   -1.8430    2.4790 C   0  0  0  0  0  0
   -6.0590   -1.8900    1.0900 C   0  0  0  0  0  0
   -6.9550   -2.9970    0.9970 O   0  0  0  0  0  0
   -6.6680   -3.8040   -0.1430 C   0  0  0  0  0  0
   -7.9020   -4.6200   -0.5060 C   0  0  0  0  0  0
   -9.0520   -3.7730   -0.5460 O   0  0  0  0  0  0
  -10.2340   -4.5380   -0.7810 C   0  0  0  0  0  0
  -11.4790   -3.6820   -0.5600 C   0  0  0  0  0  0
  -12.6430   -4.5120   -0.5590 O   0  0  0  0  0  0
  -12.5860   -5.5440    0.4260 C   0  0  0  0  0  0
  -13.4270   -5.1520    1.6360 C   0  0  0  0  0  0
  -12.6600   -5.3760    2.8160 O   0  0  0  0  0  0
  -11.5690   -4.4610    2.9070 C   0  0  0  0  0  0
  -12.0160   -3.2170    3.6700 C   0  0  0  0  0  0
  -12.9670   -3.5680    4.6770 O   0  0  0  0  0  0
  -12.4380   -3.4660    6.0000 C   0  0  0  0  0  0
  -11.5490   -4.6680    6.3030 C   0  0  0  0  0  0
  -10.9590   -4.5640    7.5980 O   0  0  0  0  0  0
  -10.4120   -3.2750    7.8780 C   0  0  0  0  0  0
   -9.5050   -3.3930    9.0980 C   0  0  0  0  0  0
   -9.3600   -2.1250    9.7340 O   0  0  0  0  0  0
   -8.7680   -1.1520    8.8750 C   0  0  0  0  0  0
   -7.2680   -1.3870    8.7400 C   0  0  0  0  0  0
   -6.6720   -0.2470    8.1200 O   0  0  0  0  0  0
   16.1683   -3.8395    5.7680 H   0  0  0  0  0  0
   17.8399   -1.9772    6.2547 H   0  0  0  0  0  0
   17.8890   -2.4337    4.5181 H   0  0  0  0  0  0
   16.1902   -0.6034    4.0736 H   0  0  0  0  0  0
   16.3857   -0.0870    5.7829 H   0  0  0  0  0  0
   18.7217    1.7093    3.3942 H   0  0  0  0  0  0
   17.4895    0.6361    2.6481 H   0  0  0  0  0  0
   16.4846    1.9169    5.0955 H   0  0  0  0  0  0
   17.0307    3.1228    3.8814 H   0  0  0  0  0  0
   15.3683    2.9084    1.4914 H   0  0  0  0  0  0
   16.8399    1.8947    1.6741 H   0  0  0  0  0  0
   15.3692   -0.1571    1.6197 H   0  0  0  0  0  0
   13.9603    0.9070    1.2890 H   0  0  0  0  0  0
   14.8376   -1.2161   -0.2568 H   0  0  0  0  0  0
   15.5359   -0.5667   -1.7790 H   0  0  0  0  0  0
   17.6880   -0.9007   -1.0785 H   0  0  0  0  0  0
   17.3258   -0.3696    0.5988 H   0  0  0  0  0  0
   18.8991   -3.0344    0.2640 H   0  0  0  0  0  0
   18.4375   -1.8347    1.5188 H   0  0  0  0  0  0
   16.6837   -3.7668    2.1807 H   0  0  0  0  0  0
   17.9228   -4.8085    1.4023 H   0  0  0  0  0  0
   19.4319   -5.5024    2.3591 H   0  0  0  0  0  0
   20.5616   -4.1948    2.8496 H   0  0  0  0  0  0
   18.9604   -6.1029    4.6115 H   0  0  0  0  0  0
   20.7274   -5.7796    4.6154 H   0  0  0  0  0  0
   19.8286   -5.8319    6.8985 H   0  0  0  0  0  0
   21.0666   -4.5304    6.8943 H   0  0  0  0  0  0
   19.9161   -3.7272    8.6884 H   0  0  0  0  0  0
   18.7587   -3.1112    7.4606 H   0  0  0  0  0  0
   16.9236   -4.9950   10.0199 H   0  0  0  0  0  0
   17.9300   -3.5098    9.9314 H   0  0  0  0  0  0
   16.5105   -2.4711    8.4421 H   0  0  0  0  0  0
   16.0445   -4.0119    7.6450 H   0  0  0  0  0  0
   13.9953   -4.6803    7.9744 H   0  0  0  0  0  0
   12.9770   -3.8500    9.1993 H   0  0  0  0  0  0
   14.1079   -1.6758    8.0476 H   0  0  0  0  0  0
   14.1769   -2.8030    6.6508 H   0  0  0  0  0  0
   12.0944   -1.2093    5.6949 H   0  0  0  0  0  0
   12.5715   -2.9154    5.3979 H   0  0  0  0  0  0
   10.2541   -3.5186    6.4690 H   0  0  0  0  0  0
    9.8358   -1.7972    6.1717 H   0  0  0  0  0  0
    9.2590   -4.7890    4.7409 H   0  0  0  0  0  0
    8.2117   -3.3581    5.0280 H   0  0  0  0  0  0
    8.5826   -2.9013    2.4724 H   0  0  0  0  0  0
    9.0572   -4.6329    2.4197 H   0  0  0  0  0  0
    7.4765   -6.2904    2.9423 H   0  0  0  0  0  0
    7.2679   -5.5875    4.5822 H   0  0  0  0  0  0
    4.8752   -5.2373    4.1779 H   0  0  0  0  0  0
    5.0488   -5.7827    2.4752 H   0  0  0  0  0  0
    5.3870   -7.9115    1.9475 H   0  0  0  0  0  0
    6.7660   -8.3103    3.0274 H   0  0  0  0  0  0
    5.5589  -10.3646    2.6516 H   0  0  0  0  0  0
    5.1602   -9.8310    4.3198 H   0  0  0  0  0  0
    2.9350  -11.3593    3.6671 H   0  0  0  0  0  0
    3.1872  -10.0509    4.8718 H   0  0  0  0  0  0
    1.0456  -10.1129    2.6745 H   0  0  0  0  0  0
    0.7717  -10.3489    4.4340 H   0  0  0  0  0  0
    1.2291   -8.5421    5.9219 H   0  0  0  0  0  0
    2.8463   -8.2559    5.1944 H   0  0  0  0  0  0
    2.0235   -6.1760    6.2207 H   0  0  0  0  0  0
    2.0607   -5.9939    4.4340 H   0  0  0  0  0  0
    0.4750   -4.6187    6.5444 H   0  0  0  0  0  0
    0.2378   -4.2092    4.8116 H   0  0  0  0  0  0
   -2.0773   -5.6874    5.7375 H   0  0  0  0  0  0
   -1.7514   -4.3551    6.8974 H   0  0  0  0  0  0
   -3.0183   -4.7136    3.3303 H   0  0  0  0  0  0
   -3.7964   -4.9905    4.9255 H   0  0  0  0  0  0
   -4.9989   -3.0354    4.8123 H   0  0  0  0  0  0
   -3.6135   -2.1212    4.1256 H   0  0  0  0  0  0
   -6.2200   -1.6459    3.2250 H   0  0  0  0  0  0
   -4.6847   -1.0404    2.5159 H   0  0  0  0  0  0
   -6.6132   -0.9580    0.9050 H   0  0  0  0  0  0
   -5.2658   -2.0007    0.3359 H   0  0  0  0  0  0
   -6.3918   -3.1580   -0.9894 H   0  0  0  0  0  0
   -5.8333   -4.4820    0.0884 H   0  0  0  0  0  0
   -7.7582   -5.0826   -1.4936 H   0  0  0  0  0  0
   -8.0568   -5.4058    0.2480 H   0  0  0  0  0  0
  -10.2329   -4.9054   -1.8178 H   0  0  0  0  0  0
  -10.2611   -5.3928   -0.0892 H   0  0  0  0  0  0
  -11.4008   -3.1639    0.4072 H   0  0  0  0  0  0
  -11.5619   -2.9400   -1.3678 H   0  0  0  0  0  0
  -12.9769   -6.4797   -0.0003 H   0  0  0  0  0  0
  -11.5427   -5.6925    0.7415 H   0  0  0  0  0  0
  -13.7003   -4.0889    1.5637 H   0  0  0  0  0  0
  -14.3404   -5.7645    1.6617 H   0  0  0  0  0  0
  -10.7332   -4.9388    3.4391 H   0  0  0  0  0  0
  -11.2444   -4.1756    1.8955 H   0  0  0  0  0  0
  -11.1439   -2.7469    4.1479 H   0  0  0  0  0  0
  -12.4793   -2.5049    2.9712 H   0  0  0  0  0  0
  -11.8423   -2.5454    6.0867 H   0  0  0  0  0  0
  -13.2652   -3.4370    6.7245 H   0  0  0  0  0  0
  -12.1510   -5.5879    6.2659 H   0  0  0  0  0  0
  -10.7439   -4.7263    5.5557 H   0  0  0  0  0  0
   -9.8328   -2.9261    7.0103 H   0  0  0  0  0  0
  -11.2284   -2.5668    8.0826 H   0  0  0  0  0  0
   -9.9433   -4.1045    9.8133 H   0  0  0  0  0  0
   -8.5136   -3.7520    8.7845 H   0  0  0  0  0  0
   -9.2272   -1.2157    7.8775 H   0  0  0  0  0  0
   -8.9326   -0.1471    9.2909 H   0  0  0  0  0  0
   -6.8293   -1.5382    9.7374 H   0  0  0  0  0  0
   -7.0908   -2.2798    8.1224 H   0  0  0  0  0  0
   -5.5879   -0.2256    7.9346 H   0  0  0  0  0  0
  1  2  1  0  0  0
  1 77  1  0  0  0
  2  3  1  0  0  0
  2 78  1  0  0  0
  2 79  1  0  0  0
  3  4  1  0  0  0
  3 80  1  0  0  0
  3 81  1  0  0  0
  4  5  1  0  0  0
  5  6  1  0  0  0
  5 82  1  0  0  0
  5 83  1  0  0  0
  6  7  1  0  0  0
  6 84  1  0  0  0
  6 85  1  0  0  0
  7  8  1  0  0  0
  8  9  1  0  0  0
  8 86  1  0  0  0
  8 87  1  0  0  0
  9 10  1  0  0  0
  9 88  1  0  0  0
  9 89  1  0  0  0
 10 11  1  0  0  0
 11 12  1  0  0  0
 11 90  1  0  0  0
 11 91  1  0  0  0
 12 13  1  0  0  0
 12 92  1  0  0  0
 12 93  1  0  0  0
 13 14  1  0  0  0
 14 15  1  0  0  0
 14 94  1  0  0  0
 14 95  1  0  0  0
 15 16  1  0  0  0
 15 96  1  0  0  0
 15 97  1  0  0  0
 16 17  1  0  0  0
 17 18  1  0  0  0
 17 98  1  0  0  0
 17 99  1  0  0  0
 18 19  1  0  0  0
 18100  1  0  0  0
 18101  1  0  0  0
 19 20  1  0  0  0
 20 21  1  0  0  0
 20102  1  0  0  0
 20103  1  0  0  0
 21 22  1  0  0  0
 21104  1  0  0  0
 21105  1  0  0  0
 22 23  1  0  0  0
 23 24  1  0  0  0
 23106  1  0  0  0
 23107  1  0  0  0
 24 25  1  0  0  0
 24108  1  0  0  0
 24109  1  0  0  0
 25 26  1  0  0  0
 26 27  1  0  0  0
 26110  1  0  0  0
 26111  1  0  0  0
 27 28  1  0  0  0
 27112  1  0  0  0
 27113  1  0  0  0
 28 29  1  0  0  0
 29 30  1  0  0  0
 29114  1  0  0  0
 29115  1  0  0  0
 30 31  1  0  0  0
 30116  1  0  0  0
 30117  1  0  0  0
 31 32  1  0  0  0
 32 33  1  0  0  0
 32118  1  0  0  0
 32119  1  0  0  0
 33 34  1  0  0  0
 33120  1  0  0  0
 33121  1  0  0  0
 34 35  1  0  0  0
 35 36  1  0  0  0
 35122  1  0  0  0
 35123  1  0  0  0
 36 37  1  0  0  0
 36124  1  0  0  0
 36125  1  0  0  0
 37 38  1  0  0  0
 38 39  1  0  0  0
 38126  1  0  0  0
 38127  1  0  0  0
 39 40  1  0  0  0
 39128  1  0  0  0
 39129  1  0  0  0
 40 41  1  0  0  0
 41 42  1  0  0  0
 41130  1  0  0  0
 41131  1  0  0  0
 42 43  1  0  0  0
 42132  1  0  0  0
 42133  1  0  0  0
 43 44  1  0  0  0
 44 45  1  0  0  0
 44134  1  0  0  0
 44135  1  0  0  0
 45 46  1  0  0  0
 45136  1  0  0  0
 45137  1  0  0  0
 46 47  1  0  0  0
 47 48  1  0  0  0
 47138  1  0  0  0
 47139  1  0  0  0
 48 49  1  0  0  0
 48140  1  0  0  0
 48141  1  0  0  0
 49 50  1  0  0  0
 50 51  1  0  0  0
 50142  1  0  0  0
 50143  1  0  0  0
 51 52  1  0  0  0
 51144  1  0  0  0
 51145  1  0  0  0
 52 53  1  0  0  0
 53 54  1  0  0  0
 53146  1  0  0  0
 53147  1  0  0  0
 54 55  1  0  0  0
 54148  1  0  0  0
 54149  1  0  0  0
 55 56  1  0  0  0
 56 57  1  0  0  0
 56150  1  0  0  0
 56151  1  0  0  0
 57 58  1  0  0  0
 57152  1  0  0  0
 57153  1  0  0  0
 58 59  1  0  0  0
 59 60  1  0  0  0
 59154  1  0  0  0
 59155  1  0  0  0
 60 61  1  0  0  0
 60156  1  0  0  0
 60157  1  0  0  0
 61 62  1  0  0  0
 62 63  1  0  0  0
 62158  1  0  0  0
 62159  1  0  0  0
 63 64  1  0  0  0
 63160  1  0  0  0
 63161  1  0  0  0
 64 65  1  0  0  0
 65 66  1  0  0  0
 65162  1  0  0  0
 65163  1  0  0  0
 66 67  1  0  0  0
 66164  1  0  0  0
 66165  1  0  0  0
 67 68  1  0  0  0
 68 69  1  0  0  0
 68166  1  0  0  0
 68167  1  0  0  0
 69 70  1  0  0  0
 69168  1  0  0  0
 69169  1  0  0  0
 70 71  1  0  0  0
 71 72  1  0  0  0
 71170  1  0  0  0
 71171  1  0  0  0
 72 73  1  0  0  0
 72172  1  0  0  0
 72173  1  0  0  0
 73 74  1  0  0  0
 74 75  1  0  0  0
 74174  1  0  0  0
 74175  1  0  0  0
 75 76  1  0  0  0
 75176  1  0  0  0
 75177  1  0  0  0
 76178  1  0  0  0
M  END
> <s_m_source_file>
../4ory_ligand.sdf

> <i_m_source_file_index>
1

> <s_epik_input>
W09IXVtDSDJdW0NIMl1PW0NIMl1bQ0gyXU9bQ0gyXVtDSDJdT1tDSDJdW0NIMl1PW0NIMl1bQ0gyXU9bQ0gyXVtDSDJdT1tDSDJdW0NIMl1PW0NIMl1bQ0gyXU9bQ0gyXVtDSDJdT1tDSDJdW0NIMl1PW0NIMl1bQ0gyXU9bQ0gyXVtDSDJdT1tDSDJdW0NIMl1PW0NIMl1bQ0gyXU9bQ0gyXVtDSDJdT1tDSDJdW0NIMl1PW0NIMl1bQ0gyXU9bQ0gyXVtDSDJdT1tDSDJdW0NIMl1PW0NIMl1bQ0gyXU9bQ0gyXVtDSDJdT1tDSDJdW0NIMl1PW0NIMl1bQ0gyXU9bQ0gyXVtDSDJdT1tDSDJdW0NIMl1bT0hd

> <s_epik_cmdline>
J2VwaWtfYXBwJywgJy1pbWFlJywgJ2xpZ2FuZF9wcm8ubWFlJywgJy1vbWFlJywgJ2xpZ2FuZF9wcmVwLm1hZScsICctbXMnLCAnMScsICctcGgnLCAnNycsICctcGh0JywgJzAuNScsICctbnQn

> <s_epik_pKa_notes>
Molecule size exceeds maximum supported for generating protonation states

$$$$
