4os1_ligand
                    3D
 Schrodinger Suite 2020-3.
202204  0  0  1  0            999 V2000
   34.1350   21.8300   -8.4000 N   0  3  0  0  0  0
   32.7530   21.5930   -7.8890 C   0  0  0  0  0  0
   32.3530   20.1280   -7.9660 C   0  0  0  0  0  0
   33.1040   19.2530   -7.5290 O   0  0  0  0  0  0
   31.1810   19.8700   -8.5410 N   0  0  0  0  0  0
   30.5930   18.5220   -8.6080 C   0  0  1  0  0  0
   29.1630   18.5750   -8.8880 C   0  0  0  0  0  0
   28.4250   17.2950   -8.9870 C   0  0  1  0  0  0
   28.3610   16.6140   -7.6060 C   0  0  0  0  0  0
   27.8810   15.0050   -7.5770 S   0  0  0  0  0  0
   26.9060   17.5680   -9.6890 S   0  0  0  0  0  0
   31.2210   17.9990   -9.7010 C   0  0  0  0  0  0
   31.4110   18.6680  -10.7200 O   0  0  0  0  0  0
   31.6160   16.7300   -9.6060 N   0  0  0  0  0  0
   32.2010   16.0110  -10.7390 C   0  0  2  0  0  0
   31.1320   15.5500  -11.7550 C   0  0  0  0  0  0
   29.9190   15.6420  -11.5100 O   0  0  0  0  0  0
   32.9990   14.8140  -10.2360 C   0  0  0  0  0  0
   31.6060   15.0730  -12.9010 N   0  0  0  0  0  0
   30.7680   14.4240  -13.8980 C   0  0  2  0  0  0
   30.7760   12.9270  -13.6200 C   0  0  0  0  0  0
   31.5280   12.4420  -12.7680 O   0  0  0  0  0  0
   31.3180   14.6650  -15.3090 C   0  0  0  0  0  0
   31.1540   16.0430  -15.9630 C   0  0  0  0  0  0
   31.3280   17.2030  -14.9940 C   0  0  0  0  0  0
   32.1330   16.1650  -17.1240 C   0  0  0  0  0  0
   29.9450   12.1880  -14.3400 N   0  0  0  0  0  0
   29.9990   10.7410  -14.2710 C   0  0  0  0  0  0
   29.1950   10.1910  -13.1230 C   0  0  0  0  0  0
   28.2980   10.8430  -12.6000 O   0  0  0  0  0  0
   29.5310    8.9720  -12.7440 N   0  0  0  0  0  0
   28.8200    8.2520  -11.7030 C   0  0  2  0  0  0
   28.9280    9.0190  -10.3860 C   0  0  0  0  0  0
   30.0300    9.3540   -9.9490 O   0  0  0  0  0  0
   29.4190    6.8610  -11.5410 C   0  0  0  0  0  0
   29.3110    5.9850  -12.7790 C   0  0  0  0  0  0
   30.2770    4.8210  -12.6950 C   0  0  0  0  0  0
   31.6420    5.2530  -12.9740 N   0  0  0  0  0  0
   32.6800    4.4370  -13.1390 C   0  0  0  0  0  0
   32.5390    3.1180  -13.0420 N   0  0  0  0  0  0
   33.8730    4.9510  -13.4040 N   0  0  0  0  0  0
   27.7800    9.2920   -9.7720 N   0  0  0  0  0  0
   27.7180   10.0190   -8.5110 C   0  0  0  0  0  0
   26.9070   11.2830   -8.6350 C   0  0  0  0  0  0
   26.3670   11.7750   -7.6540 O   0  0  0  0  0  0
   26.8000   11.8000   -9.8530 N   0  0  0  0  0  0
   26.2290   13.1110  -10.0780 C   0  0  2  0  0  0
   25.0020   13.1210  -11.0250 C   0  0  0  0  0  0
   24.5470   14.1770  -11.4530 O   0  0  0  0  0  0
   27.3720   14.0400  -10.5110 C   0  0  0  0  0  0
   28.6650   14.0690   -9.2180 S   0  0  0  0  0  0
   24.4280   11.9450  -11.2750 N   0  0  0  0  0  0
   23.1660   11.8310  -12.0160 C   0  0  2  0  0  0
   22.0490   12.5560  -11.2560 C   0  0  0  0  0  0
   22.0410   12.5560  -10.0130 O   0  0  0  0  0  0
   22.7550   10.3700  -12.2020 C   0  0  0  0  0  0
   23.6980    9.5270  -13.0470 C   0  0  0  0  0  0
   24.7450    8.7810  -12.2430 C   0  0  0  0  0  0
   25.0190    9.1550  -11.0730 O   0  0  0  0  0  0
   25.3090    7.8120  -12.7970 O   0  0  0  0  0  0
   21.1460   13.1990  -12.0050 N   0  0  0  0  0  0
   19.9540   13.8280  -11.4400 C   0  0  2  0  0  0
   20.3000   14.8920  -10.3690 C   0  0  0  0  0  0
   19.6610   14.9740   -9.3110 O   0  0  0  0  0  0
   19.0310   12.7250  -10.8780 C   0  0  0  0  0  0
   17.5940   13.1850  -10.6750 C   0  0  0  0  0  0
   17.0730   13.9920  -11.4370 O   0  0  0  0  0  0
   16.9430   12.6540   -9.6420 N   0  0  0  0  0  0
   21.3290   15.6890  -10.6610 N   0  0  0  0  0  0
   21.7940   16.7600   -9.7730 C   0  0  2  0  0  0
   21.6620   18.1110  -10.4760 C   0  0  0  0  0  0
   21.9360   18.2130  -11.6720 O   0  0  0  0  0  0
   23.2810   16.5830   -9.4380 C   0  0  0  0  0  0
   23.5630   15.6760   -8.2840 C   0  0  0  0  0  0
   23.3230   14.3210   -8.3220 N   0  0  0  0  0  0
   24.1250   15.9250   -7.0760 C   0  0  0  0  0  0
   23.6990   13.7780   -7.1750 C   0  0  0  0  0  0
   24.1880   14.7300   -6.4020 N   0  0  0  0  0  0
   21.3010   19.1470   -9.7270 N   0  0  0  0  0  0
   21.3490   20.5270  -10.2410 C   0  0  2  0  0  0
   22.7350   20.9180  -10.7330 C   0  0  0  0  0  0
   22.8690   21.5350  -11.7860 O   0  0  0  0  0  0
   20.9490   21.5170   -9.1560 C   0  0  0  0  0  0
   19.4930   21.4300   -8.7790 C   0  0  0  0  0  0
   19.1550   22.3390   -7.6160 C   0  0  0  0  0  0
   17.7530   22.1370   -7.2830 N   0  0  0  0  0  0
   17.2830   21.1230   -6.5610 C   0  0  0  0  0  0
   15.9770   21.0320   -6.3400 N   0  0  0  0  0  0
   18.1000   20.2110   -6.0460 N   0  0  0  0  0  0
   23.7560   20.5430   -9.9600 N   0  0  0  0  0  0
   25.1560   20.8670  -10.2620 C   0  0  2  0  0  0
   25.7910   20.1160  -11.4430 C   0  0  0  0  0  0
   26.9310   20.4190  -11.8020 O   0  0  0  0  0  0
   26.0320   20.6220   -9.0140 C   0  0  0  0  0  0
   26.0500   18.9050   -8.3890 S   0  0  0  0  0  0
   25.0940   19.1330  -12.0220 N   0  0  0  0  0  0
   25.6820   18.2530  -13.0550 C   0  0  2  0  0  0
   26.0270   18.9890  -14.3620 C   0  0  0  0  0  0
   25.3770   19.9770  -14.7360 O   0  0  0  0  0  0
   24.7490   17.0640  -13.3510 C   0  0  0  0  0  0
   25.1300   16.0810  -14.4730 C   0  0  0  0  0  0
   26.4670   15.4080  -14.2180 C   0  0  0  0  0  0
   24.0450   15.0310  -14.6650 C   0  0  0  0  0  0
   27.0920   18.4890  -15.0610 N   0  0  0  0  0  0
   34.3757   22.9006   -8.3232 H   0  0  0  0  0  0
   34.1959   21.5150   -9.4522 H   0  0  0  0  0  0
   34.8519   21.2491   -7.8012 H   0  0  0  0  0  0
   32.6921   21.9080   -6.8368 H   0  0  0  0  0  0
   32.0360   22.1739   -8.4877 H   0  0  0  0  0  0
   30.6468   20.7255   -8.9800 H   0  0  0  0  0  0
   30.7412   17.9139   -7.7034 H   0  0  0  0  0  0
   28.6539   19.1369   -8.0911 H   0  0  0  0  0  0
   28.9967   19.0756   -9.8533 H   0  0  0  0  0  0
   29.0695   16.6299   -9.5804 H   0  0  0  0  0  0
   29.3571   16.6359   -7.1399 H   0  0  0  0  0  0
   27.6448   17.1498   -6.9658 H   0  0  0  0  0  0
   31.4909   16.2227   -8.6380 H   0  0  0  0  0  0
   32.8670   16.7416  -11.2214 H   0  0  0  0  0  0
   33.7558   15.1550   -9.5143 H   0  0  0  0  0  0
   33.4970   14.3225  -11.0848 H   0  0  0  0  0  0
   32.3202   14.1006   -9.7459 H   0  0  0  0  0  0
   32.6854   15.1868  -13.0796 H   0  0  0  0  0  0
   29.7632   14.8609  -13.8001 H   0  0  0  0  0  0
   32.4044   14.4927  -15.3134 H   0  0  0  0  0  0
   30.8342   13.9732  -16.0143 H   0  0  0  0  0  0
   30.1185   16.1185  -16.3263 H   0  0  0  0  0  0
   30.6139   17.0977  -14.1640 H   0  0  0  0  0  0
   31.1418   18.1511  -15.5198 H   0  0  0  0  0  0
   32.3541   17.1989  -14.5976 H   0  0  0  0  0  0
   31.9923   15.3189  -17.8127 H   0  0  0  0  0  0
   33.1629   16.1560  -16.7377 H   0  0  0  0  0  0
   31.9506   17.1082  -17.6598 H   0  0  0  0  0  0
   29.2101   12.6804  -14.9938 H   0  0  0  0  0  0
   29.5977   10.3143  -15.2021 H   0  0  0  0  0  0
   31.0426   10.4188  -14.1400 H   0  0  0  0  0  0
   30.3870    8.5027  -13.2510 H   0  0  0  0  0  0
   27.7712    8.1810  -12.0270 H   0  0  0  0  0  0
   30.4890    6.9482  -11.3010 H   0  0  0  0  0  0
   28.9025    6.3319  -10.7265 H   0  0  0  0  0  0
   28.2868    5.5925  -12.8622 H   0  0  0  0  0  0
   29.5488    6.5815  -13.6721 H   0  0  0  0  0  0
   30.2436    4.3890  -11.6839 H   0  0  0  0  0  0
   29.9924    4.0545  -13.4308 H   0  0  0  0  0  0
   31.8724    6.3250  -13.0623 H   0  0  0  0  0  0
   31.5519    2.6851  -12.8223 H   0  0  0  0  0  0
   33.4095    2.4601  -13.1814 H   0  0  0  0  0  0
   33.9965    6.0410  -13.4855 H   0  0  0  0  0  0
   26.8535    8.9457  -10.2533 H   0  0  0  0  0  0
   27.2524    9.3831   -7.7437 H   0  0  0  0  0  0
   28.7357   10.2906   -8.1939 H   0  0  0  0  0  0
   27.1597   11.2033  -10.7042 H   0  0  0  0  0  0
   25.8193   13.4240   -9.1063 H   0  0  0  0  0  0
   27.8059   13.6730  -11.4528 H   0  0  0  0  0  0
   26.9813   15.0575  -10.6593 H   0  0  0  0  0  0
   24.9324   11.0401  -10.9053 H   0  0  0  0  0  0
   23.3639   12.2937  -12.9942 H   0  0  0  0  0  0
   22.6949    9.8782  -11.2199 H   0  0  0  0  0  0
   21.7728   10.3253  -12.6951 H   0  0  0  0  0  0
   23.1189    8.7752  -13.6033 H   0  0  0  0  0  0
   24.2338   10.1753  -13.7560 H   0  0  0  0  0  0
   25.7780    8.6161  -10.4869 H   0  0  0  0  0  0
   21.3299   13.2429  -13.0886 H   0  0  0  0  0  0
   19.4714   14.3522  -12.2781 H   0  0  0  0  0  0
   19.0103   11.8741  -11.5748 H   0  0  0  0  0  0
   19.4119   12.3903   -9.9018 H   0  0  0  0  0  0
   17.4503   11.9332   -8.9839 H   0  0  0  0  0  0
   15.8979   12.9361   -9.4467 H   0  0  0  0  0  0
   21.8354   15.5121  -11.6213 H   0  0  0  0  0  0
   21.1594   16.6866   -8.8775 H   0  0  0  0  0  0
   23.8049   16.1597  -10.3077 H   0  0  0  0  0  0
   23.7189   17.5601   -9.1860 H   0  0  0  0  0  0
   24.4998   16.8442   -6.6021 H   0  0  0  0  0  0
   23.6185   12.7230   -6.9129 H   0  0  0  0  0  0
   20.9598   18.9545   -8.6991 H   0  0  0  0  0  0
   20.6379   20.5262  -11.0802 H   0  0  0  0  0  0
   21.5389   21.3238   -8.2479 H   0  0  0  0  0  0
   21.1403   22.5420   -9.5063 H   0  0  0  0  0  0
   18.8734   21.7258   -9.6384 H   0  0  0  0  0  0
   19.2501   20.3968   -8.4902 H   0  0  0  0  0  0
   19.7911   22.0851   -6.7553 H   0  0  0  0  0  0
   19.3305   23.3856   -7.9055 H   0  0  0  0  0  0
   16.9954   22.8526   -7.6351 H   0  0  0  0  0  0
   15.2939   21.7833   -6.7630 H   0  0  0  0  0  0
   19.1832   20.2795   -6.2246 H   0  0  0  0  0  0
   17.6933   19.3873   -5.4409 H   0  0  0  0  0  0
   23.5077   19.9637   -9.0585 H   0  0  0  0  0  0
   25.0672   21.9229  -10.5572 H   0  0  0  0  0  0
   27.0767   20.8793   -9.2431 H   0  0  0  0  0  0
   25.6731   21.2497   -8.1851 H   0  0  0  0  0  0
   24.0500   18.9894  -11.7065 H   0  0  0  0  0  0
   26.6229   17.9114  -12.5989 H   0  0  0  0  0  0
   24.6583   16.4365  -12.4521 H   0  0  0  0  0  0
   23.7557   17.4398  -13.6376 H   0  0  0  0  0  0
   25.2311   16.6612  -15.4021 H   0  0  0  0  0  0
   27.2433   16.1751  -14.0808 H   0  0  0  0  0  0
   26.7273   14.7724  -15.0772 H   0  0  0  0  0  0
   26.3988   14.7889  -13.3113 H   0  0  0  0  0  0
   23.0815   15.5288  -14.8489 H   0  0  0  0  0  0
   23.9705   14.4110  -13.7595 H   0  0  0  0  0  0
   24.2990   14.3944  -15.5254 H   0  0  0  0  0  0
   27.6337   17.6093  -14.6832 H   0  0  0  0  0  0
   27.4064   18.9668  -16.0006 H   0  0  0  0  0  0
  1  2  1  0  0  0
  1105  1  0  0  0
  1106  1  0  0  0
  1107  1  0  0  0
  2  3  1  0  0  0
  2108  1  0  0  0
  2109  1  0  0  0
  3  4  2  0  0  0
  3  5  1  0  0  0
  5  6  1  0  0  0
  5110  1  0  0  0
  6  7  1  0  0  0
  6 12  1  0  0  0
  6111  1  0  0  0
  7  8  1  0  0  0
  7112  1  0  0  0
  7113  1  0  0  0
  8  9  1  0  0  0
  8 11  1  0  0  0
  8114  1  0  0  0
  9 10  1  0  0  0
  9115  1  0  0  0
  9116  1  0  0  0
 10 51  1  0  0  0
 11 95  1  0  0  0
 12 13  2  0  0  0
 12 14  1  0  0  0
 14 15  1  0  0  0
 14117  1  0  0  0
 15 16  1  0  0  0
 15 18  1  0  0  0
 15118  1  0  0  0
 16 17  2  0  0  0
 16 19  1  0  0  0
 18119  1  0  0  0
 18120  1  0  0  0
 18121  1  0  0  0
 19 20  1  0  0  0
 19122  1  0  0  0
 20 21  1  0  0  0
 20 23  1  0  0  0
 20123  1  0  0  0
 21 22  2  0  0  0
 21 27  1  0  0  0
 23 24  1  0  0  0
 23124  1  0  0  0
 23125  1  0  0  0
 24 25  1  0  0  0
 24 26  1  0  0  0
 24126  1  0  0  0
 25127  1  0  0  0
 25128  1  0  0  0
 25129  1  0  0  0
 26130  1  0  0  0
 26131  1  0  0  0
 26132  1  0  0  0
 27 28  1  0  0  0
 27133  1  0  0  0
 28 29  1  0  0  0
 28134  1  0  0  0
 28135  1  0  0  0
 29 30  2  0  0  0
 29 31  1  0  0  0
 31 32  1  0  0  0
 31136  1  0  0  0
 32 33  1  0  0  0
 32 35  1  0  0  0
 32137  1  0  0  0
 33 34  2  0  0  0
 33 42  1  0  0  0
 35 36  1  0  0  0
 35138  1  0  0  0
 35139  1  0  0  0
 36 37  1  0  0  0
 36140  1  0  0  0
 36141  1  0  0  0
 37 38  1  0  0  0
 37142  1  0  0  0
 37143  1  0  0  0
 38 39  1  0  0  0
 38144  1  0  0  0
 39 40  1  0  0  0
 39 41  2  0  0  0
 40145  1  0  0  0
 40146  1  0  0  0
 41147  1  0  0  0
 42 43  1  0  0  0
 42148  1  0  0  0
 43 44  1  0  0  0
 43149  1  0  0  0
 43150  1  0  0  0
 44 45  2  0  0  0
 44 46  1  0  0  0
 46 47  1  0  0  0
 46151  1  0  0  0
 47 48  1  0  0  0
 47 50  1  0  0  0
 47152  1  0  0  0
 48 49  2  0  0  0
 48 52  1  0  0  0
 50 51  1  0  0  0
 50153  1  0  0  0
 50154  1  0  0  0
 52 53  1  0  0  0
 52155  1  0  0  0
 53 54  1  0  0  0
 53 56  1  0  0  0
 53156  1  0  0  0
 54 55  2  0  0  0
 54 61  1  0  0  0
 56 57  1  0  0  0
 56157  1  0  0  0
 56158  1  0  0  0
 57 58  1  0  0  0
 57159  1  0  0  0
 57160  1  0  0  0
 58 59  1  0  0  0
 58 60  2  0  0  0
 59161  1  0  0  0
 61 62  1  0  0  0
 61162  1  0  0  0
 62 63  1  0  0  0
 62 65  1  0  0  0
 62163  1  0  0  0
 63 64  2  0  0  0
 63 69  1  0  0  0
 65 66  1  0  0  0
 65164  1  0  0  0
 65165  1  0  0  0
 66 67  2  0  0  0
 66 68  1  0  0  0
 68166  1  0  0  0
 68167  1  0  0  0
 69 70  1  0  0  0
 69168  1  0  0  0
 70 71  1  0  0  0
 70 73  1  0  0  0
 70169  1  0  0  0
 71 72  2  0  0  0
 71 79  1  0  0  0
 73 74  1  0  0  0
 73170  1  0  0  0
 73171  1  0  0  0
 74 75  2  0  0  0
 74 76  1  0  0  0
 75 77  1  0  0  0
 76 78  2  0  0  0
 76172  1  0  0  0
 77 78  1  0  0  0
 77173  1  0  0  0
 79 80  1  0  0  0
 79174  1  0  0  0
 80 81  1  0  0  0
 80 83  1  0  0  0
 80175  1  0  0  0
 81 82  2  0  0  0
 81 90  1  0  0  0
 83 84  1  0  0  0
 83176  1  0  0  0
 83177  1  0  0  0
 84 85  1  0  0  0
 84178  1  0  0  0
 84179  1  0  0  0
 85 86  1  0  0  0
 85180  1  0  0  0
 85181  1  0  0  0
 86 87  1  0  0  0
 86182  1  0  0  0
 87 88  2  0  0  0
 87 89  1  0  0  0
 88183  1  0  0  0
 89184  1  0  0  0
 89185  1  0  0  0
 90 91  1  0  0  0
 90186  1  0  0  0
 91 92  1  0  0  0
 91 94  1  0  0  0
 91187  1  0  0  0
 92 93  2  0  0  0
 92 96  1  0  0  0
 94 95  1  0  0  0
 94188  1  0  0  0
 94189  1  0  0  0
 96 97  1  0  0  0
 96190  1  0  0  0
 97 98  1  0  0  0
 97100  1  0  0  0
 97191  1  0  0  0
 98 99  2  0  0  0
 98104  1  0  0  0
100101  1  0  0  0
100192  1  0  0  0
100193  1  0  0  0
101102  1  0  0  0
101103  1  0  0  0
101194  1  0  0  0
102195  1  0  0  0
102196  1  0  0  0
102197  1  0  0  0
103198  1  0  0  0
103199  1  0  0  0
103200  1  0  0  0
104201  1  0  0  0
104202  1  0  0  0
M  CHG  1   1   1
M  END
> <s_m_source_file>
../4os1_ligand.sdf

> <i_m_source_file_index>
1

> <s_epik_input>
W05IMytdW0NIMl1DKD1PKVtOSF1bQ0BASF0oW0NIMl1bQ0BASF0xMilDKD1PKVtOSF1bQ0BASF0oW0NIM10pQyg9TylbTkhdW0NAQEhdKFtDSDJdW0NIXShbQ0gzXSlbQ0gzXSlDKD1PKVtOSF1bQ0gyXUMoPU8pW05IXVtDQEBIXShbQ0gyXVtDSDJdW0NIMl1bTkhdL0MoW05IMl0pPU5cW0hdKUMoPU8pW05IXVtDSDJdQyg9TylbTkhdW0NAQEhdKFtDSDJdU1NbQ0gyXTEpQyg9TylbTkhdW0NAQEhdKFtDSDJdW0NIMl1DKD1PKVtPSF0pQyg9TylbTkhdW0NAQEhdKFtDSDJdQyg9TylbTkgyXSlDKD1PKVtOSF1bQ0BASF0oW0NIMl1DMz1OW0NIMl1OPVtDSF0zKUMoPU8pW05IXVtDQEBIXShbQ0gyXVtDSDJdW0NIMl1bTkhdL0MoPU5cW0hdKVtOSDJdKUMoPU8pW05IXVtDQEBIXShbQ0gyXVNTMilDKD1PKVtOSF1bQ0BIXShDKD1PKVtOSDJdKVtDSDJdW0NIXShbQ0gzXSlbQ0gzXQ==

> <s_epik_cmdline>
J2VwaWtfYXBwJywgJy1pbWFlJywgJ2xpZ2FuZF9wcm8ubWFlJywgJy1vbWFlJywgJ2xpZ2FuZF9wcmVwLm1hZScsICctbXMnLCAnMScsICctcGgnLCAnNycsICctcGh0JywgJzAuNScsICctbnQn

> <s_epik_pKa_notes>
Molecule size exceeds maximum supported for generating protonation states

> <s_epik_Chemistry_Notes>
This compound has an imine and may undergo hydrolysis.

$$$$
