4os2_ligand
                    3D
 Schrodinger Suite 2020-3.
192194  0  0  1  0            999 V2000
   45.4780   73.9510   13.8510 N   0  3  0  0  0  0
   45.5670   73.8010   12.3650 C   0  0  0  0  0  0
   46.1630   72.4650   11.9520 C   0  0  0  0  0  0
   45.4530   71.4650   11.8830 O   0  0  0  0  0  0
   47.4720   72.4490   11.7100 N   0  0  0  0  0  0
   48.1600   71.2970   11.0940 C   0  0  1  0  0  0
   49.3100   71.7520   10.3160 C   0  0  0  0  0  0
   50.1410   70.6760    9.7500 C   0  0  1  0  0  0
   49.5810   70.1190    8.4360 C   0  0  0  0  0  0
   50.1910   68.5850    8.0710 S   0  0  0  0  0  0
   51.7700   71.0900    9.6150 S   0  0  0  0  0  0
   48.5570   70.5740   12.2010 C   0  0  0  0  0  0
   49.5280   70.9190   12.8820 O   0  0  0  0  0  0
   47.8400   69.4830   12.4920 N   0  0  0  0  0  0
   48.1200   68.6260   13.6480 C   0  0  2  0  0  0
   47.9870   67.1520   13.2920 C   0  0  0  0  0  0
   47.2160   66.7940   12.3970 O   0  0  0  0  0  0
   47.1040   68.8970   14.7530 C   0  0  0  0  0  0
   47.2710   70.0690   15.7130 C   0  0  0  0  0  0
   45.9900   70.1580   16.5210 C   0  0  0  0  0  0
   48.4560   69.8450   16.6330 C   0  0  0  0  0  0
   48.7150   66.3000   14.0100 N   0  0  0  0  0  0
   48.4740   64.8490   13.9880 C   0  0  0  0  0  0
   49.3050   64.0910   12.9620 C   0  0  0  0  0  0
   50.3110   64.5920   12.4900 O   0  0  0  0  0  0
   48.8940   62.8700   12.6500 N   0  0  0  0  0  0
   49.5560   62.0690   11.6230 C   0  0  2  0  0  0
   49.5200   62.7810   10.2850 C   0  0  0  0  0  0
   48.4620   63.1660    9.8270 O   0  0  0  0  0  0
   48.8620   60.7350   11.4620 C   0  0  0  0  0  0
   49.0580   59.8170   12.6460 C   0  0  0  0  0  0
   48.1000   58.6510   12.5630 C   0  0  0  0  0  0
   46.7350   59.0460   12.8920 N   0  0  0  0  0  0
   45.7410   58.1860   13.0940 C   0  0  0  0  0  0
   45.9490   56.8730   12.9830 N   0  0  0  0  0  0
   44.5330   58.6370   13.3970 N   0  0  0  0  0  0
   50.6850   62.9320    9.6730 N   0  0  0  0  0  0
   50.8180   63.6390    8.4090 C   0  0  0  0  0  0
   51.5720   64.9280    8.5990 C   0  0  0  0  0  0
   52.0600   65.5080    7.6380 O   0  0  0  0  0  0
   51.7100   65.3640    9.8500 N   0  0  0  0  0  0
   52.2430   66.6920   10.1530 C   0  0  2  0  0  0
   53.5330   66.7250   11.0030 C   0  0  0  0  0  0
   54.0380   67.8050   11.3320 O   0  0  0  0  0  0
   51.1330   67.5090   10.8160 C   0  0  0  0  0  0
   49.6560   67.5980    9.7760 S   0  0  0  0  0  0
   54.0950   65.5550   11.2970 N   0  0  0  0  0  0
   55.3970   65.4560   11.9630 C   0  0  2  0  0  0
   56.4640   66.2520   11.2120 C   0  0  0  0  0  0
   56.5040   66.2430    9.9580 O   0  0  0  0  0  0
   55.8660   64.0020   12.0550 C   0  0  0  0  0  0
   55.0190   63.0860   12.9280 C   0  0  0  0  0  0
   53.8280   62.4570   12.2230 C   0  0  0  0  0  0
   53.4910   62.8520   11.0650 O   0  0  0  0  0  0
   53.2130   61.5360   12.8310 O   0  0  0  0  0  0
   57.3150   66.9390   11.9650 N   0  0  0  0  0  0
   58.5250   67.5600   11.4020 C   0  0  2  0  0  0
   58.1620   68.5810   10.3150 C   0  0  0  0  0  0
   58.8270   68.6650    9.2700 O   0  0  0  0  0  0
   59.4490   66.4530   10.8720 C   0  0  0  0  0  0
   60.8700   66.9210   10.6040 C   0  0  0  0  0  0
   61.4400   67.6780   11.3760 O   0  0  0  0  0  0
   61.4520   66.4570    9.4870 N   0  0  0  0  0  0
   57.0840   69.3270   10.5700 N   0  0  0  0  0  0
   56.6090   70.4160    9.7150 C   0  0  2  0  0  0
   56.7390   71.7320   10.4360 C   0  0  0  0  0  0
   56.4840   71.8180   11.6530 O   0  0  0  0  0  0
   55.1230   70.2660    9.3830 C   0  0  0  0  0  0
   54.8410   69.3810    8.2140 C   0  0  0  0  0  0
   55.1770   68.0440    8.1940 N   0  0  0  0  0  0
   54.2350   69.6370    7.0280 C   0  0  0  0  0  0
   54.7940   67.5150    7.0430 C   0  0  0  0  0  0
   54.2220   68.4600    6.3180 N   0  0  0  0  0  0
   57.0670   72.7750    9.6850 N   0  0  0  0  0  0
   57.0520   74.1300   10.2420 C   0  0  2  0  0  0
   55.6550   74.5440   10.7060 C   0  0  0  0  0  0
   55.5350   75.2860   11.6720 O   0  0  0  0  0  0
   57.6040   75.1480    9.2350 C   0  0  0  0  0  0
   59.1210   75.2300    9.2440 C   0  0  0  0  0  0
   59.6600   76.1790    8.1870 C   0  0  0  0  0  0
   59.4190   75.6210    6.8730 N   0  0  0  0  0  0
   60.1410   74.6440    6.3260 C   0  0  0  0  0  0
   61.1870   74.1250    6.9690 N   0  0  0  0  0  0
   59.8180   74.1890    5.1210 N   0  0  0  0  0  0
   54.6060   74.0520   10.0460 N   0  0  0  0  0  0
   53.2230   74.4300   10.3940 C   0  0  2  0  0  0
   52.6380   73.6980   11.6090 C   0  0  0  0  0  0
   51.5320   74.0060   12.0330 O   0  0  0  0  0  0
   52.2790   74.2690    9.1760 C   0  0  0  0  0  0
   52.1720   72.6410    8.3600 S   0  0  0  0  0  0
   53.3760   72.7460   12.1700 N   0  0  0  0  0  0
   52.8190   71.8070   13.1300 C   0  0  2  0  0  0
   52.2910   72.5340   14.3640 C   0  0  0  0  0  0
   52.9700   73.3970   14.8950 O   0  0  0  0  0  0
   53.8860   70.7930   13.5470 C   0  0  0  0  0  0
   53.5340   69.7660   14.6300 C   0  0  0  0  0  0
   52.3700   68.8920   14.2250 C   0  0  0  0  0  0
   54.7440   68.8990   14.9450 C   0  0  0  0  0  0
   51.0670   72.1500   14.8320 N   0  0  0  0  0  0
   45.0418   74.9309   14.0951 H   0  0  0  0  0  0
   46.4850   73.8788   14.2878 H   0  0  0  0  0  0
   44.8418   73.1536   14.2626 H   0  0  0  0  0  0
   44.5600   73.8732   11.9282 H   0  0  0  0  0  0
   46.2032   74.5984   11.9534 H   0  0  0  0  0  0
   48.0442   73.3456   11.9905 H   0  0  0  0  0  0
   47.5516   70.6709   10.4247 H   0  0  0  0  0  0
   48.9617   72.3610    9.4687 H   0  0  0  0  0  0
   49.9693   72.3570   10.9558 H   0  0  0  0  0  0
   49.9406   69.8904   10.4935 H   0  0  0  0  0  0
   48.4863   70.0397    8.5084 H   0  0  0  0  0  0
   49.8458   70.7943    7.6091 H   0  0  0  0  0  0
   47.0068   69.2400   11.8161 H   0  0  0  0  0  0
   49.1504   68.8755   13.9415 H   0  0  0  0  0  0
   46.1150   69.0760   14.3059 H   0  0  0  0  0  0
   47.0510   68.0269   15.4239 H   0  0  0  0  0  0
   47.4590   71.0034   15.1639 H   0  0  0  0  0  0
   45.1393   70.3203   15.8428 H   0  0  0  0  0  0
   46.0603   70.9974   17.2285 H   0  0  0  0  0  0
   45.8417   69.2208   17.0775 H   0  0  0  0  0  0
   49.3774   69.7824   16.0354 H   0  0  0  0  0  0
   48.3156   68.9068   17.1899 H   0  0  0  0  0  0
   48.5343   70.6834   17.3408 H   0  0  0  0  0  0
   49.5198   66.7145   14.6349 H   0  0  0  0  0  0
   48.7128   64.4227   14.9735 H   0  0  0  0  0  0
   47.4171   64.6564   13.7515 H   0  0  0  0  0  0
   48.0267   62.4632   13.1907 H   0  0  0  0  0  0
   50.5901   61.9360   11.9736 H   0  0  0  0  0  0
   47.7806   60.8965   11.3416 H   0  0  0  0  0  0
   49.2572   60.2210   10.5734 H   0  0  0  0  0  0
   50.0902   59.4368   12.6482 H   0  0  0  0  0  0
   48.8701   60.3732   13.5763 H   0  0  0  0  0  0
   48.1047   58.2447   11.5408 H   0  0  0  0  0  0
   48.4126   57.8685   13.2701 H   0  0  0  0  0  0
   46.4783   60.1115   12.9863 H   0  0  0  0  0  0
   46.9506   56.4941   12.7315 H   0  0  0  0  0  0
   45.1189   56.1692   13.1429 H   0  0  0  0  0  0
   44.3571   59.7189   13.4895 H   0  0  0  0  0  0
   51.5727   62.4983   10.1567 H   0  0  0  0  0  0
   51.3649   63.0089    7.6922 H   0  0  0  0  0  0
   49.8188   63.8665    8.0092 H   0  0  0  0  0  0
   51.4093   64.6924   10.6676 H   0  0  0  0  0  0
   52.5310   67.0820    9.1656 H   0  0  0  0  0  0
   50.8554   67.0420   11.7725 H   0  0  0  0  0  0
   51.4904   68.5332   10.9982 H   0  0  0  0  0  0
   53.5469   64.6417   11.0222 H   0  0  0  0  0  0
   55.2203   65.8780   12.9633 H   0  0  0  0  0  0
   55.8683   63.5533   11.0507 H   0  0  0  0  0  0
   56.8830   63.9705   12.4730 H   0  0  0  0  0  0
   55.6399   62.2585   13.3016 H   0  0  0  0  0  0
   54.6188   63.6572   13.7787 H   0  0  0  0  0  0
   52.6288   62.3950   10.5573 H   0  0  0  0  0  0
   57.0948   67.0374   13.0382 H   0  0  0  0  0  0
   59.0258   68.1056   12.2153 H   0  0  0  0  0  0
   59.5056   65.6385   11.6092 H   0  0  0  0  0  0
   59.0481   66.0630    9.9248 H   0  0  0  0  0  0
   60.9004   65.7771    8.8211 H   0  0  0  0  0  0
   62.4806   66.7566    9.2375 H   0  0  0  0  0  0
   56.5420   69.0767   11.4939 H   0  0  0  0  0  0
   57.2439   70.3605    8.8185 H   0  0  0  0  0  0
   54.5959   69.8354   10.2471 H   0  0  0  0  0  0
   54.6981   71.2533    9.1491 H   0  0  0  0  0  0
   53.7976   70.5472    6.5919 H   0  0  0  0  0  0
   54.9278   66.4755    6.7437 H   0  0  0  0  0  0
   57.3522   72.6152    8.6347 H   0  0  0  0  0  0
   57.7135   74.0686   11.1187 H   0  0  0  0  0  0
   57.2909   74.8655    8.2190 H   0  0  0  0  0  0
   57.2142   76.1485    9.4739 H   0  0  0  0  0  0
   59.4630   75.5884   10.2261 H   0  0  0  0  0  0
   59.5433   74.2330    9.0501 H   0  0  0  0  0  0
   59.1513   77.1505    8.2728 H   0  0  0  0  0  0
   60.7412   76.3170    8.3351 H   0  0  0  0  0  0
   58.5931   76.0043    6.2557 H   0  0  0  0  0  0
   61.4592   74.4980    7.9674 H   0  0  0  0  0  0
   61.7779   73.3238    6.5012 H   0  0  0  0  0  0
   58.9559   74.6135    4.5857 H   0  0  0  0  0  0
   54.7928   73.3467    9.2228 H   0  0  0  0  0  0
   53.3441   75.4839   10.6850 H   0  0  0  0  0  0
   51.2466   74.4971    9.4796 H   0  0  0  0  0  0
   52.5880   74.9608    8.3786 H   0  0  0  0  0  0
   54.4374   72.6804   11.8888 H   0  0  0  0  0  0
   51.9878   71.3125   12.6060 H   0  0  0  0  0  0
   54.1813   70.1917   12.6745 H   0  0  0  0  0  0
   54.7647   71.3258   13.9395 H   0  0  0  0  0  0
   53.2278   70.3153   15.5325 H   0  0  0  0  0  0
   51.4985   69.5238   13.9986 H   0  0  0  0  0  0
   52.1220   68.2067   15.0489 H   0  0  0  0  0  0
   52.6422   68.3092   13.3327 H   0  0  0  0  0  0
   55.5880   69.5403   15.2391 H   0  0  0  0  0  0
   55.0195   68.3162   14.0537 H   0  0  0  0  0  0
   54.4993   68.2137   15.7699 H   0  0  0  0  0  0
   50.5002   71.3649   14.3101 H   0  0  0  0  0  0
   50.6478   72.6257   15.7309 H   0  0  0  0  0  0
  1  2  1  0  0  0
  1100  1  0  0  0
  1101  1  0  0  0
  1102  1  0  0  0
  2  3  1  0  0  0
  2103  1  0  0  0
  2104  1  0  0  0
  3  4  2  0  0  0
  3  5  1  0  0  0
  5  6  1  0  0  0
  5105  1  0  0  0
  6  7  1  0  0  0
  6 12  1  0  0  0
  6106  1  0  0  0
  7  8  1  0  0  0
  7107  1  0  0  0
  7108  1  0  0  0
  8  9  1  0  0  0
  8 11  1  0  0  0
  8109  1  0  0  0
  9 10  1  0  0  0
  9110  1  0  0  0
  9111  1  0  0  0
 10 46  1  0  0  0
 11 90  1  0  0  0
 12 13  2  0  0  0
 12 14  1  0  0  0
 14 15  1  0  0  0
 14112  1  0  0  0
 15 16  1  0  0  0
 15 18  1  0  0  0
 15113  1  0  0  0
 16 17  2  0  0  0
 16 22  1  0  0  0
 18 19  1  0  0  0
 18114  1  0  0  0
 18115  1  0  0  0
 19 20  1  0  0  0
 19 21  1  0  0  0
 19116  1  0  0  0
 20117  1  0  0  0
 20118  1  0  0  0
 20119  1  0  0  0
 21120  1  0  0  0
 21121  1  0  0  0
 21122  1  0  0  0
 22 23  1  0  0  0
 22123  1  0  0  0
 23 24  1  0  0  0
 23124  1  0  0  0
 23125  1  0  0  0
 24 25  2  0  0  0
 24 26  1  0  0  0
 26 27  1  0  0  0
 26126  1  0  0  0
 27 28  1  0  0  0
 27 30  1  0  0  0
 27127  1  0  0  0
 28 29  2  0  0  0
 28 37  1  0  0  0
 30 31  1  0  0  0
 30128  1  0  0  0
 30129  1  0  0  0
 31 32  1  0  0  0
 31130  1  0  0  0
 31131  1  0  0  0
 32 33  1  0  0  0
 32132  1  0  0  0
 32133  1  0  0  0
 33 34  1  0  0  0
 33134  1  0  0  0
 34 35  1  0  0  0
 34 36  2  0  0  0
 35135  1  0  0  0
 35136  1  0  0  0
 36137  1  0  0  0
 37 38  1  0  0  0
 37138  1  0  0  0
 38 39  1  0  0  0
 38139  1  0  0  0
 38140  1  0  0  0
 39 40  2  0  0  0
 39 41  1  0  0  0
 41 42  1  0  0  0
 41141  1  0  0  0
 42 43  1  0  0  0
 42 45  1  0  0  0
 42142  1  0  0  0
 43 44  2  0  0  0
 43 47  1  0  0  0
 45 46  1  0  0  0
 45143  1  0  0  0
 45144  1  0  0  0
 47 48  1  0  0  0
 47145  1  0  0  0
 48 49  1  0  0  0
 48 51  1  0  0  0
 48146  1  0  0  0
 49 50  2  0  0  0
 49 56  1  0  0  0
 51 52  1  0  0  0
 51147  1  0  0  0
 51148  1  0  0  0
 52 53  1  0  0  0
 52149  1  0  0  0
 52150  1  0  0  0
 53 54  1  0  0  0
 53 55  2  0  0  0
 54151  1  0  0  0
 56 57  1  0  0  0
 56152  1  0  0  0
 57 58  1  0  0  0
 57 60  1  0  0  0
 57153  1  0  0  0
 58 59  2  0  0  0
 58 64  1  0  0  0
 60 61  1  0  0  0
 60154  1  0  0  0
 60155  1  0  0  0
 61 62  2  0  0  0
 61 63  1  0  0  0
 63156  1  0  0  0
 63157  1  0  0  0
 64 65  1  0  0  0
 64158  1  0  0  0
 65 66  1  0  0  0
 65 68  1  0  0  0
 65159  1  0  0  0
 66 67  2  0  0  0
 66 74  1  0  0  0
 68 69  1  0  0  0
 68160  1  0  0  0
 68161  1  0  0  0
 69 70  2  0  0  0
 69 71  1  0  0  0
 70 72  1  0  0  0
 71 73  2  0  0  0
 71162  1  0  0  0
 72 73  1  0  0  0
 72163  1  0  0  0
 74 75  1  0  0  0
 74164  1  0  0  0
 75 76  1  0  0  0
 75 78  1  0  0  0
 75165  1  0  0  0
 76 77  2  0  0  0
 76 85  1  0  0  0
 78 79  1  0  0  0
 78166  1  0  0  0
 78167  1  0  0  0
 79 80  1  0  0  0
 79168  1  0  0  0
 79169  1  0  0  0
 80 81  1  0  0  0
 80170  1  0  0  0
 80171  1  0  0  0
 81 82  1  0  0  0
 81172  1  0  0  0
 82 83  1  0  0  0
 82 84  2  0  0  0
 83173  1  0  0  0
 83174  1  0  0  0
 84175  1  0  0  0
 85 86  1  0  0  0
 85176  1  0  0  0
 86 87  1  0  0  0
 86 89  1  0  0  0
 86177  1  0  0  0
 87 88  2  0  0  0
 87 91  1  0  0  0
 89 90  1  0  0  0
 89178  1  0  0  0
 89179  1  0  0  0
 91 92  1  0  0  0
 91180  1  0  0  0
 92 93  1  0  0  0
 92 95  1  0  0  0
 92181  1  0  0  0
 93 94  2  0  0  0
 93 99  1  0  0  0
 95 96  1  0  0  0
 95182  1  0  0  0
 95183  1  0  0  0
 96 97  1  0  0  0
 96 98  1  0  0  0
 96184  1  0  0  0
 97185  1  0  0  0
 97186  1  0  0  0
 97187  1  0  0  0
 98188  1  0  0  0
 98189  1  0  0  0
 98190  1  0  0  0
 99191  1  0  0  0
 99192  1  0  0  0
M  CHG  1   1   1
M  END
> <s_m_source_file>
../4os2_ligand.sdf

> <i_m_source_file_index>
1

> <s_epik_input>
W05IMytdW0NIMl1DKD1PKVtOSF1bQ0BASF0oW0NIMl1bQ0BASF0xMilDKD1PKVtOSF1bQ0BASF0oW0NIMl1bQ0hdKFtDSDNdKVtDSDNdKUMoPU8pW05IXVtDSDJdQyg9TylbTkhdW0NAQEhdKFtDSDJdW0NIMl1bQ0gyXVtOSF0vQyhbTkgyXSk9TlxbSF0pQyg9TylbTkhdW0NIMl1DKD1PKVtOSF1bQ0BASF0oW0NIMl1TU1tDSDJdMSlDKD1PKVtOSF1bQ0BASF0oW0NIMl1bQ0gyXUMoPU8pW09IXSlDKD1PKVtOSF1bQ0BASF0oW0NIMl1DKD1PKVtOSDJdKUMoPU8pW05IXVtDQEBIXShbQ0gyXUMzPU5bQ0gyXU49W0NIXTMpQyg9TylbTkhdW0NAQEhdKFtDSDJdW0NIMl1bQ0gyXVtOSF0vQyhbTkgyXSk9TlxbSF0pQyg9TylbTkhdW0NAQEhdKFtDSDJdU1MyKUMoPU8pW05IXVtDQEhdKEMoPU8pW05IMl0pW0NIMl1bQ0hdKFtDSDNdKVtDSDNd

> <s_epik_cmdline>
J2VwaWtfYXBwJywgJy1pbWFlJywgJ2xpZ2FuZF9wcm8ubWFlJywgJy1vbWFlJywgJ2xpZ2FuZF9wcmVwLm1hZScsICctbXMnLCAnMScsICctcGgnLCAnNycsICctcGh0JywgJzAuNScsICctbnQn

> <s_epik_pKa_notes>
Molecule size exceeds maximum supported for generating protonation states

> <s_epik_Chemistry_Notes>
This compound has an imine and may undergo hydrolysis.

$$$$
