4os4_ligand
                    3D
 Schrodinger Suite 2020-3.
202204  0  0  1  0            999 V2000
   22.2680   20.5250  -14.2670 N   0  3  0  0  0  0
   22.7770   19.1550  -13.9980 C   0  0  0  0  0  0
   24.2880   19.0650  -14.1070 C   0  0  0  0  0  0
   24.9910   20.0900  -14.2410 O   0  0  0  0  0  0
   24.7930   17.8380  -14.0180 N   0  0  0  0  0  0
   26.2300   17.6060  -14.0510 C   0  0  1  0  0  0
   26.7260   17.2410  -12.7130 C   0  0  0  0  0  0
   26.7930   18.3240  -11.6900 C   0  0  2  0  0  0
   27.7870   17.9090  -10.5710 C   0  0  0  0  0  0
   27.5080   16.4140   -9.8130 S   0  0  0  0  0  0
   25.2430   18.7090  -11.1060 S   0  0  0  0  0  0
   26.3760   16.4700  -14.9030 C   0  0  0  0  0  0
   25.6620   15.4720  -14.7530 O   0  0  0  0  0  0
   27.3060   16.5510  -15.8550 N   0  0  0  0  0  0
   27.6130   15.4210  -16.7370 C   0  0  2  0  0  0
   29.0280   14.9040  -16.4710 C   0  0  0  0  0  0
   29.7410   14.5420  -17.3970 O   0  0  0  0  0  0
   27.4570   15.8340  -18.2000 C   0  0  0  0  0  0
   29.4130   14.8420  -15.1980 N   0  0  0  0  0  0
   30.8070   14.6000  -14.8210 C   0  0  2  0  0  0
   31.1140   13.1600  -14.4080 C   0  0  0  0  0  0
   32.2690   12.8040  -14.2620 O   0  0  0  0  0  0
   31.2190   15.5930  -13.7310 C   0  0  0  0  0  0
   31.0420   17.0570  -14.1840 C   0  0  0  0  0  0
   31.3430   18.0420  -13.0620 C   0  0  0  0  0  0
   31.9040   17.3650  -15.4020 C   0  0  0  0  0  0
   30.0930   12.3250  -14.2600 N   0  0  0  0  0  0
   30.3100   10.9000  -14.0480 C   0  0  0  0  0  0
   29.3420   10.3260  -13.0400 C   0  0  0  0  0  0
   28.3710   10.9770  -12.6280 O   0  0  0  0  0  0
   29.6310    9.0930  -12.6600 N   0  0  0  0  0  0
   28.8930    8.3850  -11.6320 C   0  0  2  0  0  0
   28.9330    9.1910  -10.3310 C   0  0  0  0  0  0
   30.0110    9.5200   -9.8110 O   0  0  0  0  0  0
   29.5090    7.0070  -11.4280 C   0  0  0  0  0  0
   29.4740    6.1150  -12.6710 C   0  0  0  0  0  0
   30.4350    4.9460  -12.5190 C   0  0  0  0  0  0
   31.8030    5.3260  -12.8510 N   0  0  0  0  0  0
   32.7990    4.4650  -13.0330 C   0  0  0  0  0  0
   32.5860    3.1540  -12.9090 N   0  0  0  0  0  0
   34.0060    4.9220  -13.3550 N   0  0  0  0  0  0
   27.7520    9.5060   -9.8170 N   0  0  0  0  0  0
   27.6110   10.3250   -8.6230 C   0  0  0  0  0  0
   26.8560   11.6010   -8.9210 C   0  0  0  0  0  0
   26.3480   12.2530   -8.0060 O   0  0  0  0  0  0
   26.7700   11.9430  -10.2100 N   0  0  0  0  0  0
   26.1800   13.1960  -10.6690 C   0  0  2  0  0  0
   24.7960   13.0690  -11.3210 C   0  0  0  0  0  0
   24.2240   14.0750  -11.7230 O   0  0  0  0  0  0
   27.1400   13.8870  -11.6490 C   0  0  0  0  0  0
   28.4170   14.8650  -10.8270 S   0  0  0  0  0  0
   24.2660   11.8520  -11.4330 N   0  0  0  0  0  0
   22.9620   11.6290  -12.0610 C   0  0  2  0  0  0
   21.8820   12.4380  -11.3460 C   0  0  0  0  0  0
   21.8690   12.5030  -10.1090 O   0  0  0  0  0  0
   22.5660   10.1460  -12.0110 C   0  0  0  0  0  0
   23.4060    9.2300  -12.8960 C   0  0  0  0  0  0
   24.6160    8.6700  -12.1820 C   0  0  0  0  0  0
   24.9560    9.1600  -11.0770 O   0  0  0  0  0  0
   25.2170    7.7160  -12.7100 O   0  0  0  0  0  0
   20.9920   13.0520  -12.1160 N   0  0  0  0  0  0
   19.8090   13.6900  -11.5470 C   0  0  2  0  0  0
   20.1710   14.7270  -10.4630 C   0  0  0  0  0  0
   19.5480   14.7620   -9.4070 O   0  0  0  0  0  0
   18.8990   12.5890  -10.9720 C   0  0  0  0  0  0
   17.4960   13.0740  -10.6630 C   0  0  0  0  0  0
   16.9300   13.8930  -11.3860 O   0  0  0  0  0  0
   16.9180   12.5540   -9.5830 N   0  0  0  0  0  0
   21.1900   15.5540  -10.7240 N   0  0  0  0  0  0
   21.6110   16.5910   -9.7670 C   0  0  2  0  0  0
   21.2140   17.9820  -10.2470 C   0  0  0  0  0  0
   20.9560   18.2100  -11.4340 O   0  0  0  0  0  0
   23.1230   16.5630   -9.5200 C   0  0  0  0  0  0
   23.5400   15.6720   -8.3970 C   0  0  0  0  0  0
   23.2730   14.3210   -8.3860 N   0  0  0  0  0  0
   24.2210   15.9330   -7.2550 C   0  0  0  0  0  0
   23.7530   13.7900   -7.2710 C   0  0  0  0  0  0
   24.3340   14.7450   -6.5700 N   0  0  0  0  0  0
   21.1650   18.9100   -9.3050 N   0  0  0  0  0  0
   20.8710   20.3000   -9.6100 C   0  0  2  0  0  0
   22.1850   21.0640   -9.5260 C   0  0  0  0  0  0
   22.7740   21.1600   -8.4570 O   0  0  0  0  0  0
   19.8490   20.8480   -8.6070 C   0  0  0  0  0  0
   19.6950   22.3630   -8.5860 C   0  0  0  0  0  0
   18.5270   22.7690   -7.6980 C   0  0  0  0  0  0
   18.5410   21.9530   -6.4890 N   0  0  0  0  0  0
   17.6630   21.0010   -6.1730 C   0  0  0  0  0  0
   16.6100   20.7260   -6.9360 N   0  0  0  0  0  0
   17.8370   20.3310   -5.0510 N   0  0  0  0  0  0
   22.6660   21.5800  -10.6470 N   0  0  0  0  0  0
   23.8110   22.4980  -10.6180 C   0  0  2  0  0  0
   23.5160   23.7140  -11.4700 C   0  0  0  0  0  0
   23.6690   23.6630  -12.6940 O   0  0  0  0  0  0
   25.0820   21.8100  -11.1220 C   0  0  0  0  0  0
   25.6230   20.4310  -10.0910 S   0  0  0  0  0  0
   23.0760   24.7990  -10.8350 N   0  0  0  0  0  0
   22.8230   26.0410  -11.5680 C   0  0  2  0  0  0
   24.1380   26.7190  -11.9460 C   0  0  0  0  0  0
   24.1820   27.4920  -12.8940 O   0  0  0  0  0  0
   21.9240   27.0080  -10.7780 C   0  0  0  0  0  0
   20.4080   26.8000  -10.9020 C   0  0  0  0  0  0
   19.9160   26.9860  -12.3360 C   0  0  0  0  0  0
   20.0020   25.4310  -10.3740 C   0  0  0  0  0  0
   25.2270   26.4080  -11.1920 N   0  0  0  0  0  0
   21.1719   20.5335  -14.1750 H   0  0  0  0  0  0
   22.5529   20.8286  -15.2852 H   0  0  0  0  0  0
   22.7025   21.2269  -13.5400 H   0  0  0  0  0  0
   22.4921   18.8514  -12.9798 H   0  0  0  0  0  0
   22.3425   18.4531  -14.7250 H   0  0  0  0  0  0
   24.1009   16.9889  -13.9177 H   0  0  0  0  0  0
   26.7818   18.4868  -14.4112 H   0  0  0  0  0  0
   26.0749   16.4680  -12.2789 H   0  0  0  0  0  0
   27.7517   16.8523  -12.7956 H   0  0  0  0  0  0
   27.2671   19.1710  -12.2075 H   0  0  0  0  0  0
   28.8029   17.8458  -10.9880 H   0  0  0  0  0  0
   27.7670   18.6586   -9.7662 H   0  0  0  0  0  0
   27.8494   17.5007  -15.9684 H   0  0  0  0  0  0
   26.8831   14.6343  -16.4955 H   0  0  0  0  0  0
   26.4345   16.2021  -18.3700 H   0  0  0  0  0  0
   27.6467   14.9658  -18.8483 H   0  0  0  0  0  0
   28.1775   16.6313  -18.4347 H   0  0  0  0  0  0
   28.6484   14.9788  -14.4191 H   0  0  0  0  0  0
   31.3658   14.7697  -15.7532 H   0  0  0  0  0  0
   30.5991   15.4335  -12.8364 H   0  0  0  0  0  0
   32.2778   15.4387  -13.4756 H   0  0  0  0  0  0
   29.9871   17.1916  -14.4651 H   0  0  0  0  0  0
   30.7143   17.8080  -12.1902 H   0  0  0  0  0  0
   31.1285   19.0650  -13.4048 H   0  0  0  0  0  0
   32.4036   17.9644  -12.7807 H   0  0  0  0  0  0
   31.6763   16.6467  -16.2034 H   0  0  0  0  0  0
   32.9665   17.2850  -15.1289 H   0  0  0  0  0  0
   31.6914   18.3856  -15.7530 H   0  0  0  0  0  0
   29.0693   12.7255  -14.2997 H   0  0  0  0  0  0
   30.1756   10.3632  -14.9987 H   0  0  0  0  0  0
   31.3320   10.7361  -13.6758 H   0  0  0  0  0  0
   30.4773    8.6042  -13.1649 H   0  0  0  0  0  0
   27.8566    8.2839  -11.9866 H   0  0  0  0  0  0
   30.5646    7.1165  -11.1385 H   0  0  0  0  0  0
   28.9642    6.4757  -10.6337 H   0  0  0  0  0  0
   28.4560    5.7230  -12.8124 H   0  0  0  0  0  0
   29.7661    6.7037  -13.5531 H   0  0  0  0  0  0
   30.4174    4.5898  -11.4784 H   0  0  0  0  0  0
   30.1295    4.1304  -13.1909 H   0  0  0  0  0  0
   32.0662    6.3878  -12.9668 H   0  0  0  0  0  0
   31.5857    2.7821  -12.6425 H   0  0  0  0  0  0
   33.4107    2.4448  -13.0732 H   0  0  0  0  0  0
   34.1755    6.0042  -13.4558 H   0  0  0  0  0  0
   26.8575    9.1224  -10.3296 H   0  0  0  0  0  0
   27.0596    9.7622   -7.8554 H   0  0  0  0  0  0
   28.6077   10.5885   -8.2393 H   0  0  0  0  0  0
   27.1722   11.2247  -10.9396 H   0  0  0  0  0  0
   26.0468   13.7490   -9.7275 H   0  0  0  0  0  0
   27.6473   13.1276  -12.2622 H   0  0  0  0  0  0
   26.5716   14.5656  -12.3020 H   0  0  0  0  0  0
   24.8384   11.0004  -11.0366 H   0  0  0  0  0  0
   23.0903   11.9655  -13.1004 H   0  0  0  0  0  0
   22.6687    9.7736  -10.9811 H   0  0  0  0  0  0
   21.5220   10.0340  -12.3390 H   0  0  0  0  0  0
   22.7924    8.3811  -13.2318 H   0  0  0  0  0  0
   23.7638    9.7926  -13.7709 H   0  0  0  0  0  0
   25.8338    8.7630  -10.5461 H   0  0  0  0  0  0
   21.1597   13.0741  -13.2029 H   0  0  0  0  0  0
   19.3252   14.2249  -12.3775 H   0  0  0  0  0  0
   18.8138   11.7673  -11.6983 H   0  0  0  0  0  0
   19.3321   12.2072  -10.0357 H   0  0  0  0  0  0
   17.4622   11.8244   -8.9654 H   0  0  0  0  0  0
   15.8960   12.8538   -9.3079 H   0  0  0  0  0  0
   21.7174   15.4439  -11.6830 H   0  0  0  0  0  0
   21.0717   16.3377   -8.8423 H   0  0  0  0  0  0
   23.6358   16.2052  -10.4250 H   0  0  0  0  0  0
   23.4736   17.5768   -9.2765 H   0  0  0  0  0  0
   24.6527   16.8534   -6.8348 H   0  0  0  0  0  0
   23.6802   12.7416   -6.9818 H   0  0  0  0  0  0
   21.3548   18.6032   -8.2659 H   0  0  0  0  0  0
   20.4448   20.3567  -10.6225 H   0  0  0  0  0  0
   18.8540   20.4391   -8.8370 H   0  0  0  0  0  0
   20.1403   20.5526   -7.5882 H   0  0  0  0  0  0
   20.6162   22.8198   -8.1951 H   0  0  0  0  0  0
   19.5101   22.7270   -9.6074 H   0  0  0  0  0  0
   18.6230   23.8312   -7.4288 H   0  0  0  0  0  0
   17.5826   22.6119   -8.2397 H   0  0  0  0  0  0
   19.3298   22.0986   -5.7363 H   0  0  0  0  0  0
   16.4521   21.2770   -7.8748 H   0  0  0  0  0  0
   15.8964   19.9474   -6.6286 H   0  0  0  0  0  0
   18.7039   20.5479   -4.4096 H   0  0  0  0  0  0
   22.1984   21.3141  -11.6065 H   0  0  0  0  0  0
   23.9393   22.7941   -9.5664 H   0  0  0  0  0  0
   24.9076   21.4126  -12.1328 H   0  0  0  0  0  0
   25.9060   22.5381  -11.1514 H   0  0  0  0  0  0
   22.9028   24.7559   -9.7496 H   0  0  0  0  0  0
   22.2920   25.7212  -12.4767 H   0  0  0  0  0  0
   22.1494   26.9240   -9.7046 H   0  0  0  0  0  0
   22.1115   28.0390  -11.1124 H   0  0  0  0  0  0
   19.9204   27.5692  -10.2851 H   0  0  0  0  0  0
   20.2175   27.9788  -12.7012 H   0  0  0  0  0  0
   18.8194   26.9036  -12.3610 H   0  0  0  0  0  0
   20.3568   26.2095  -12.9785 H   0  0  0  0  0  0
   20.3638   25.3141   -9.3418 H   0  0  0  0  0  0
   20.4431   24.6479  -11.0081 H   0  0  0  0  0  0
   18.9057   25.3420  -10.3906 H   0  0  0  0  0  0
   25.1310   25.7063  -10.3503 H   0  0  0  0  0  0
   26.2034   26.8583  -11.4241 H   0  0  0  0  0  0
  1  2  1  0  0  0
  1105  1  0  0  0
  1106  1  0  0  0
  1107  1  0  0  0
  2  3  1  0  0  0
  2108  1  0  0  0
  2109  1  0  0  0
  3  4  2  0  0  0
  3  5  1  0  0  0
  5  6  1  0  0  0
  5110  1  0  0  0
  6  7  1  0  0  0
  6 12  1  0  0  0
  6111  1  0  0  0
  7  8  1  0  0  0
  7112  1  0  0  0
  7113  1  0  0  0
  8  9  1  0  0  0
  8 11  1  0  0  0
  8114  1  0  0  0
  9 10  1  0  0  0
  9115  1  0  0  0
  9116  1  0  0  0
 10 51  1  0  0  0
 11 95  1  0  0  0
 12 13  2  0  0  0
 12 14  1  0  0  0
 14 15  1  0  0  0
 14117  1  0  0  0
 15 16  1  0  0  0
 15 18  1  0  0  0
 15118  1  0  0  0
 16 17  2  0  0  0
 16 19  1  0  0  0
 18119  1  0  0  0
 18120  1  0  0  0
 18121  1  0  0  0
 19 20  1  0  0  0
 19122  1  0  0  0
 20 21  1  0  0  0
 20 23  1  0  0  0
 20123  1  0  0  0
 21 22  2  0  0  0
 21 27  1  0  0  0
 23 24  1  0  0  0
 23124  1  0  0  0
 23125  1  0  0  0
 24 25  1  0  0  0
 24 26  1  0  0  0
 24126  1  0  0  0
 25127  1  0  0  0
 25128  1  0  0  0
 25129  1  0  0  0
 26130  1  0  0  0
 26131  1  0  0  0
 26132  1  0  0  0
 27 28  1  0  0  0
 27133  1  0  0  0
 28 29  1  0  0  0
 28134  1  0  0  0
 28135  1  0  0  0
 29 30  2  0  0  0
 29 31  1  0  0  0
 31 32  1  0  0  0
 31136  1  0  0  0
 32 33  1  0  0  0
 32 35  1  0  0  0
 32137  1  0  0  0
 33 34  2  0  0  0
 33 42  1  0  0  0
 35 36  1  0  0  0
 35138  1  0  0  0
 35139  1  0  0  0
 36 37  1  0  0  0
 36140  1  0  0  0
 36141  1  0  0  0
 37 38  1  0  0  0
 37142  1  0  0  0
 37143  1  0  0  0
 38 39  1  0  0  0
 38144  1  0  0  0
 39 40  1  0  0  0
 39 41  2  0  0  0
 40145  1  0  0  0
 40146  1  0  0  0
 41147  1  0  0  0
 42 43  1  0  0  0
 42148  1  0  0  0
 43 44  1  0  0  0
 43149  1  0  0  0
 43150  1  0  0  0
 44 45  2  0  0  0
 44 46  1  0  0  0
 46 47  1  0  0  0
 46151  1  0  0  0
 47 48  1  0  0  0
 47 50  1  0  0  0
 47152  1  0  0  0
 48 49  2  0  0  0
 48 52  1  0  0  0
 50 51  1  0  0  0
 50153  1  0  0  0
 50154  1  0  0  0
 52 53  1  0  0  0
 52155  1  0  0  0
 53 54  1  0  0  0
 53 56  1  0  0  0
 53156  1  0  0  0
 54 55  2  0  0  0
 54 61  1  0  0  0
 56 57  1  0  0  0
 56157  1  0  0  0
 56158  1  0  0  0
 57 58  1  0  0  0
 57159  1  0  0  0
 57160  1  0  0  0
 58 59  1  0  0  0
 58 60  2  0  0  0
 59161  1  0  0  0
 61 62  1  0  0  0
 61162  1  0  0  0
 62 63  1  0  0  0
 62 65  1  0  0  0
 62163  1  0  0  0
 63 64  2  0  0  0
 63 69  1  0  0  0
 65 66  1  0  0  0
 65164  1  0  0  0
 65165  1  0  0  0
 66 67  2  0  0  0
 66 68  1  0  0  0
 68166  1  0  0  0
 68167  1  0  0  0
 69 70  1  0  0  0
 69168  1  0  0  0
 70 71  1  0  0  0
 70 73  1  0  0  0
 70169  1  0  0  0
 71 72  2  0  0  0
 71 79  1  0  0  0
 73 74  1  0  0  0
 73170  1  0  0  0
 73171  1  0  0  0
 74 75  2  0  0  0
 74 76  1  0  0  0
 75 77  1  0  0  0
 76 78  2  0  0  0
 76172  1  0  0  0
 77 78  1  0  0  0
 77173  1  0  0  0
 79 80  1  0  0  0
 79174  1  0  0  0
 80 81  1  0  0  0
 80 83  1  0  0  0
 80175  1  0  0  0
 81 82  2  0  0  0
 81 90  1  0  0  0
 83 84  1  0  0  0
 83176  1  0  0  0
 83177  1  0  0  0
 84 85  1  0  0  0
 84178  1  0  0  0
 84179  1  0  0  0
 85 86  1  0  0  0
 85180  1  0  0  0
 85181  1  0  0  0
 86 87  1  0  0  0
 86182  1  0  0  0
 87 88  1  0  0  0
 87 89  2  0  0  0
 88183  1  0  0  0
 88184  1  0  0  0
 89185  1  0  0  0
 90 91  1  0  0  0
 90186  1  0  0  0
 91 92  1  0  0  0
 91 94  1  0  0  0
 91187  1  0  0  0
 92 93  2  0  0  0
 92 96  1  0  0  0
 94 95  1  0  0  0
 94188  1  0  0  0
 94189  1  0  0  0
 96 97  1  0  0  0
 96190  1  0  0  0
 97 98  1  0  0  0
 97100  1  0  0  0
 97191  1  0  0  0
 98 99  2  0  0  0
 98104  1  0  0  0
100101  1  0  0  0
100192  1  0  0  0
100193  1  0  0  0
101102  1  0  0  0
101103  1  0  0  0
101194  1  0  0  0
102195  1  0  0  0
102196  1  0  0  0
102197  1  0  0  0
103198  1  0  0  0
103199  1  0  0  0
103200  1  0  0  0
104201  1  0  0  0
104202  1  0  0  0
M  CHG  1   1   1
M  END
> <s_m_source_file>
../4os4_ligand.sdf

> <i_m_source_file_index>
1

> <s_epik_input>
W05IMytdW0NIMl1DKD1PKVtOSF1bQ0BASF0oW0NIMl1bQ0BIXTEyKUMoPU8pW05IXVtDQEBIXShbQ0gzXSlDKD1PKVtOSF1bQ0BASF0oW0NIMl1bQ0hdKFtDSDNdKVtDSDNdKUMoPU8pW05IXVtDSDJdQyg9TylbTkhdW0NAQEhdKFtDSDJdW0NIMl1bQ0gyXVtOSF0vQyhbTkgyXSk9TlxbSF0pQyg9TylbTkhdW0NIMl1DKD1PKVtOSF1bQ0BASF0oW0NIMl1TU1tDSDJdMSlDKD1PKVtOSF1bQ0BASF0oW0NIMl1bQ0gyXUMoPU8pW09IXSlDKD1PKVtOSF1bQ0BASF0oW0NIMl1DKD1PKVtOSDJdKUMoPU8pW05IXVtDQEBIXShbQ0gyXUMzPU5bQ0gyXU49W0NIXTMpQyg9TylbTkhdW0NAQEhdKFtDSDJdW0NIMl1bQ0gyXVtOSF0vQyhbTkgyXSk9TlxbSF0pQyg9TylbTkhdW0NAQEhdKFtDSDJdU1MyKUMoPU8pW05IXVtDQEhdKEMoPU8pW05IMl0pW0NIMl1bQ0hdKFtDSDNdKVtDSDNd

> <s_epik_cmdline>
J2VwaWtfYXBwJywgJy1pbWFlJywgJ2xpZ2FuZF9wcm8ubWFlJywgJy1vbWFlJywgJ2xpZ2FuZF9wcmVwLm1hZScsICctbXMnLCAnMScsICctcGgnLCAnNycsICctcGh0JywgJzAuNScsICctbnQn

> <s_epik_pKa_notes>
Molecule size exceeds maximum supported for generating protonation states

> <s_epik_Chemistry_Notes>
This compound has an imine and may undergo hydrolysis.

$$$$
