4os5_ligand
                    3D
 Schrodinger Suite 2020-3.
202204  0  0  1  0            999 V2000
    3.7280  -19.7580  -14.1070 N   0  3  0  0  0  0
    2.9720  -18.5740  -13.6100 C   0  0  0  0  0  0
    1.4670  -18.6970  -13.7670 C   0  0  0  0  0  0
    0.9550  -19.7860  -14.0560 O   0  0  0  0  0  0
    0.7580  -17.5920  -13.5140 N   0  0  0  0  0  0
   -0.7020  -17.5010  -13.7660 C   0  0  1  0  0  0
   -1.6650  -17.1010  -12.6810 C   0  0  0  0  0  0
   -1.1600  -16.8240  -11.2870 C   0  0  2  0  0  0
   -1.1650  -18.0270  -10.3660 C   0  0  0  0  0  0
   -0.9830  -19.4950  -11.1200 S   0  0  0  0  0  0
   -2.0920  -15.7760  -10.3600 S   0  0  0  0  0  0
   -0.6450  -16.4340  -14.6720 C   0  0  0  0  0  0
    0.2410  -15.5620  -14.5790 O   0  0  0  0  0  0
   -1.5600  -16.4060  -15.6470 N   0  0  0  0  0  0
   -1.7240  -15.2280  -16.5250 C   0  0  2  0  0  0
   -3.1230  -14.6470  -16.3280 C   0  0  0  0  0  0
   -3.7040  -14.0890  -17.2450 O   0  0  0  0  0  0
   -1.4740  -15.5900  -17.9950 C   0  0  0  0  0  0
   -3.6320  -14.7560  -15.1030 N   0  0  0  0  0  0
   -5.0420  -14.4940  -14.7940 C   0  0  2  0  0  0
   -5.3230  -13.0180  -14.4860 C   0  0  0  0  0  0
   -6.4620  -12.5720  -14.6300 O   0  0  0  0  0  0
   -5.4990  -15.3810  -13.6230 C   0  0  0  0  0  0
   -5.2460  -16.8870  -13.8030 C   0  0  0  0  0  0
   -5.6740  -17.6820  -12.5840 C   0  0  0  0  0  0
   -5.9470  -17.4160  -15.0450 C   0  0  0  0  0  0
   -4.2920  -12.2700  -14.0820 N   0  0  0  0  0  0
   -4.4340  -10.8300  -13.8340 C   0  0  0  0  0  0
   -3.3660  -10.2250  -12.9330 C   0  0  0  0  0  0
   -2.3710  -10.8590  -12.5830 O   0  0  0  0  0  0
   -3.5940   -8.9800  -12.5470 N   0  0  0  0  0  0
   -2.7310   -8.3170  -11.5690 C   0  0  2  0  0  0
   -2.7180   -9.1510  -10.2690 C   0  0  0  0  0  0
   -3.7680   -9.5230   -9.7340 O   0  0  0  0  0  0
   -3.2020   -6.8870  -11.3290 C   0  0  0  0  0  0
   -3.1300   -5.9860  -12.5590 C   0  0  0  0  0  0
   -4.1370   -4.8390  -12.4640 C   0  0  0  0  0  0
   -5.5230   -5.2260  -12.7870 N   0  0  0  0  0  0
   -6.5280   -4.3630  -12.9680 C   0  0  0  0  0  0
   -6.3240   -3.0610  -12.8570 N   0  0  0  0  0  0
   -7.7430   -4.7940  -13.2590 N   0  0  0  0  0  0
   -1.5190   -9.4760   -9.8020 N   0  0  0  0  0  0
   -1.3510  -10.3750   -8.6610 C   0  0  0  0  0  0
   -0.5650  -11.6190   -9.0230 C   0  0  0  0  0  0
   -0.0440  -12.2940   -8.1430 O   0  0  0  0  0  0
   -0.4450  -11.8740  -10.3270 N   0  0  0  0  0  0
    0.1230  -13.1050  -10.8780 C   0  0  2  0  0  0
    1.5300  -12.9620  -11.4290 C   0  0  0  0  0  0
    2.1460  -13.9630  -11.8000 O   0  0  0  0  0  0
   -0.7510  -13.6120  -12.0290 C   0  0  0  0  0  0
   -2.4040  -14.1630  -11.5440 S   0  0  0  0  0  0
    2.0460  -11.7390  -11.5060 N   0  0  0  0  0  0
    3.3650  -11.5280  -12.1040 C   0  0  2  0  0  0
    4.4320  -12.3360  -11.3500 C   0  0  0  0  0  0
    4.4460  -12.3460  -10.1200 O   0  0  0  0  0  0
    3.7280  -10.0460  -12.0900 C   0  0  0  0  0  0
    2.8080   -9.1780  -12.9340 C   0  0  0  0  0  0
    1.6570   -8.6010  -12.1700 C   0  0  0  0  0  0
    1.3420   -9.0900  -11.0560 O   0  0  0  0  0  0
    1.0910   -7.6210  -12.6730 O   0  0  0  0  0  0
    5.2950  -13.0290  -12.0860 N   0  0  0  0  0  0
    6.5130  -13.6350  -11.5000 C   0  0  2  0  0  0
    6.1510  -14.6670  -10.4100 C   0  0  0  0  0  0
    6.7420  -14.6840   -9.3160 O   0  0  0  0  0  0
    7.4170  -12.5160  -10.9180 C   0  0  0  0  0  0
    8.8520  -12.9700  -10.6480 C   0  0  0  0  0  0
    9.4330  -13.6980  -11.4410 O   0  0  0  0  0  0
    9.4360  -12.5090   -9.5290 N   0  0  0  0  0  0
    5.1490  -15.4960  -10.7080 N   0  0  0  0  0  0
    4.6840  -16.5110   -9.7770 C   0  0  2  0  0  0
    5.1230  -17.8980  -10.2220 C   0  0  0  0  0  0
    5.4160  -18.1300  -11.3930 O   0  0  0  0  0  0
    3.1630  -16.4490   -9.6110 C   0  0  0  0  0  0
    2.7210  -15.6240   -8.4460 C   0  0  0  0  0  0
    2.9570  -14.2660   -8.3600 N   0  0  0  0  0  0
    2.0810  -15.9660   -7.3040 C   0  0  0  0  0  0
    2.4720  -13.8090   -7.2180 C   0  0  0  0  0  0
    1.9290  -14.8170   -6.5600 N   0  0  0  0  0  0
    5.1850  -18.8040   -9.2540 N   0  0  0  0  0  0
    5.5160  -20.1950   -9.5180 C   0  0  2  0  0  0
    4.2000  -20.9470   -9.4940 C   0  0  0  0  0  0
    3.5530  -21.0300   -8.4510 O   0  0  0  0  0  0
    6.4540  -20.7400   -8.4460 C   0  0  0  0  0  0
    7.3710  -21.8500   -8.9380 C   0  0  0  0  0  0
    7.9500  -22.6720   -7.7900 C   0  0  0  0  0  0
    8.0140  -21.9050   -6.5590 N   0  0  0  0  0  0
    8.8780  -20.9240   -6.3140 C   0  0  0  0  0  0
    9.7890  -20.5540   -7.2160 N   0  0  0  0  0  0
    8.8250  -20.2980   -5.1510 N   0  0  0  0  0  0
    3.7790  -21.4730  -10.6350 N   0  0  0  0  0  0
    2.4400  -22.0670  -10.7120 C   0  0  2  0  0  0
    2.4750  -23.4820  -11.2480 C   0  0  0  0  0  0
    2.4460  -23.7180  -12.4590 O   0  0  0  0  0  0
    1.5250  -21.1890  -11.5450 C   0  0  0  0  0  0
    0.9980  -19.6890  -10.6780 S   0  0  0  0  0  0
    2.4970  -24.4170  -10.3100 N   0  0  0  0  0  0
    2.7780  -25.8090  -10.5980 C   0  0  2  0  0  0
    1.4460  -26.4670  -10.9230 C   0  0  0  0  0  0
    1.2570  -27.0140  -12.0050 O   0  0  0  0  0  0
    3.4420  -26.4910   -9.3880 C   0  0  0  0  0  0
    4.4210  -25.7150   -8.4790 C   0  0  0  0  0  0
    5.4440  -24.9440   -9.3040 C   0  0  0  0  0  0
    3.7320  -24.8010   -7.4600 C   0  0  0  0  0  0
    0.4900  -26.3690   -9.9620 N   0  0  0  0  0  0
    4.8055  -19.5934  -13.9592 H   0  0  0  0  0  0
    3.5224  -19.9011  -15.1781 H   0  0  0  0  0  0
    3.4141  -20.6534  -13.5505 H   0  0  0  0  0  0
    3.1776  -18.4309  -12.5389 H   0  0  0  0  0  0
    3.2859  -17.6785  -14.1664 H   0  0  0  0  0  0
    1.3001  -16.7277  -13.1027 H   0  0  0  0  0  0
   -1.0965  -18.4809  -14.0729 H   0  0  0  0  0  0
   -2.1748  -16.1695  -12.9683 H   0  0  0  0  0  0
   -2.4098  -17.8980  -12.5397 H   0  0  0  0  0  0
   -0.1512  -16.5218  -11.6046 H   0  0  0  0  0  0
   -0.3385  -17.9405   -9.6453 H   0  0  0  0  0  0
   -2.1212  -18.0698   -9.8239 H   0  0  0  0  0  0
   -2.1998  -17.2898  -15.7872 H   0  0  0  0  0  0
   -0.9665  -14.4905  -16.2212 H   0  0  0  0  0  0
   -0.4609  -16.0046  -18.1033 H   0  0  0  0  0  0
   -1.5691  -14.6872  -18.6162 H   0  0  0  0  0  0
   -2.2128  -16.3377  -18.3192 H   0  0  0  0  0  0
   -2.9406  -15.0585  -14.3027 H   0  0  0  0  0  0
   -5.5744  -14.7531  -15.7210 H   0  0  0  0  0  0
   -4.9676  -15.0821  -12.7075 H   0  0  0  0  0  0
   -6.5823  -15.2617  -13.4737 H   0  0  0  0  0  0
   -4.1623  -17.0297  -13.9261 H   0  0  0  0  0  0
   -5.1613  -17.2910  -11.6928 H   0  0  0  0  0  0
   -5.4089  -18.7403  -12.7248 H   0  0  0  0  0  0
   -6.7621  -17.5912  -12.4505 H   0  0  0  0  0  0
   -5.6293  -16.8326  -15.9218 H   0  0  0  0  0  0
   -7.0359  -17.3244  -14.9185 H   0  0  0  0  0  0
   -5.6827  -18.4735  -15.1928 H   0  0  0  0  0  0
   -3.3180  -12.7599  -13.9358 H   0  0  0  0  0  0
   -4.3855  -10.2869  -14.7893 H   0  0  0  0  0  0
   -5.4024  -10.6350  -13.3502 H   0  0  0  0  0  0
   -4.4523   -8.4427  -12.9767 H   0  0  0  0  0  0
   -1.7199   -8.2657  -11.9992 H   0  0  0  0  0  0
   -4.2513   -6.8971  -10.9991 H   0  0  0  0  0  0
   -2.5779   -6.4209  -10.5523 H   0  0  0  0  0  0
   -2.1194   -5.5597  -12.6425 H   0  0  0  0  0  0
   -3.3545   -6.5763  -13.4596 H   0  0  0  0  0  0
   -4.1429   -4.4403  -11.4388 H   0  0  0  0  0  0
   -3.8518   -4.0415  -13.1659 H   0  0  0  0  0  0
   -5.7865   -6.2886  -12.8944 H   0  0  0  0  0  0
   -5.3207   -2.6801  -12.6154 H   0  0  0  0  0  0
   -7.1576   -2.3590  -13.0062 H   0  0  0  0  0  0
   -7.9354   -5.8727  -13.3561 H   0  0  0  0  0  0
   -0.6363   -9.0477  -10.2994 H   0  0  0  0  0  0
   -0.8112   -9.8515   -7.8581 H   0  0  0  0  0  0
   -2.3389  -10.6900   -8.2938 H   0  0  0  0  0  0
   -0.8071  -11.0849  -11.0024 H   0  0  0  0  0  0
    0.1497  -13.7666   -9.9996 H   0  0  0  0  0  0
   -0.8896  -12.8073  -12.7661 H   0  0  0  0  0  0
   -0.2605  -14.4704  -12.5113 H   0  0  0  0  0  0
    1.4752  -10.8830  -11.1169 H   0  0  0  0  0  0
    3.2806  -11.8801  -13.1427 H   0  0  0  0  0  0
    3.6783   -9.6661  -11.0589 H   0  0  0  0  0  0
    4.7480   -9.9146  -12.4804 H   0  0  0  0  0  0
    3.3794   -8.3356  -13.3511 H   0  0  0  0  0  0
    2.3883   -9.7784  -13.7546 H   0  0  0  0  0  0
    0.4973   -8.6702  -10.4901 H   0  0  0  0  0  0
    5.0840  -13.1465  -13.1592 H   0  0  0  0  0  0
    7.0241  -14.1590  -12.3211 H   0  0  0  0  0  0
    7.4651  -11.6771  -11.6279 H   0  0  0  0  0  0
    6.9976  -12.1650   -9.9636 H   0  0  0  0  0  0
    8.8745  -11.8563   -8.8444 H   0  0  0  0  0  0
   10.4756  -12.7843   -9.2976 H   0  0  0  0  0  0
    4.6716  -15.3937  -11.6937 H   0  0  0  0  0  0
    5.1712  -16.2662   -8.8216 H   0  0  0  0  0  0
    2.7133  -16.0098  -10.5137 H   0  0  0  0  0  0
    2.7687  -17.4650   -9.4621 H   0  0  0  0  0  0
    1.7025  -16.9245   -6.9192 H   0  0  0  0  0  0
    2.5134  -12.7745   -6.8771 H   0  0  0  0  0  0
    4.9763  -18.4739   -8.2257 H   0  0  0  0  0  0
    6.0236  -20.2623  -10.4916 H   0  0  0  0  0  0
    7.0957  -19.9281   -8.0731 H   0  0  0  0  0  0
    5.8618  -21.1505   -7.6149 H   0  0  0  0  0  0
    6.8057  -22.5293   -9.5929 H   0  0  0  0  0  0
    8.2087  -21.4115   -9.5001 H   0  0  0  0  0  0
    7.3171  -23.5546   -7.6154 H   0  0  0  0  0  0
    8.9686  -22.9967   -8.0488 H   0  0  0  0  0  0
    7.3116  -22.1196   -5.7401 H   0  0  0  0  0  0
    9.8420  -21.0681   -8.1870 H   0  0  0  0  0  0
   10.4871  -19.7349   -6.9886 H   0  0  0  0  0  0
    8.0780  -20.5949   -4.4001 H   0  0  0  0  0  0
    4.4292  -21.4654  -11.5222 H   0  0  0  0  0  0
    2.0721  -22.1127   -9.6764 H   0  0  0  0  0  0
    2.0491  -20.8780  -12.4607 H   0  0  0  0  0  0
    0.6202  -21.7537  -11.8142 H   0  0  0  0  0  0
    2.2904  -24.0999   -9.2772 H   0  0  0  0  0  0
    3.4695  -25.8469  -11.4527 H   0  0  0  0  0  0
    2.6651  -26.8386   -8.6911 H   0  0  0  0  0  0
    4.0369  -27.3499   -9.7320 H   0  0  0  0  0  0
    4.9568  -26.4701   -7.8851 H   0  0  0  0  0  0
    5.9212  -25.6241  -10.0250 H   0  0  0  0  0  0
    6.2095  -24.5211   -8.6368 H   0  0  0  0  0  0
    4.9398  -24.1302   -9.8458 H   0  0  0  0  0  0
    3.0008  -25.3836   -6.8805 H   0  0  0  0  0  0
    3.2155  -23.9862   -7.9886 H   0  0  0  0  0  0
    4.4852  -24.3771   -6.7795 H   0  0  0  0  0  0
    0.7167  -25.8669   -9.0099 H   0  0  0  0  0  0
   -0.5104  -26.7918  -10.1363 H   0  0  0  0  0  0
  1  2  1  0  0  0
  1105  1  0  0  0
  1106  1  0  0  0
  1107  1  0  0  0
  2  3  1  0  0  0
  2108  1  0  0  0
  2109  1  0  0  0
  3  4  2  0  0  0
  3  5  1  0  0  0
  5  6  1  0  0  0
  5110  1  0  0  0
  6  7  1  0  0  0
  6 12  1  0  0  0
  6111  1  0  0  0
  7  8  1  0  0  0
  7112  1  0  0  0
  7113  1  0  0  0
  8  9  1  0  0  0
  8 11  1  0  0  0
  8114  1  0  0  0
  9 10  1  0  0  0
  9115  1  0  0  0
  9116  1  0  0  0
 10 95  1  0  0  0
 11 51  1  0  0  0
 12 13  2  0  0  0
 12 14  1  0  0  0
 14 15  1  0  0  0
 14117  1  0  0  0
 15 16  1  0  0  0
 15 18  1  0  0  0
 15118  1  0  0  0
 16 17  2  0  0  0
 16 19  1  0  0  0
 18119  1  0  0  0
 18120  1  0  0  0
 18121  1  0  0  0
 19 20  1  0  0  0
 19122  1  0  0  0
 20 21  1  0  0  0
 20 23  1  0  0  0
 20123  1  0  0  0
 21 22  2  0  0  0
 21 27  1  0  0  0
 23 24  1  0  0  0
 23124  1  0  0  0
 23125  1  0  0  0
 24 25  1  0  0  0
 24 26  1  0  0  0
 24126  1  0  0  0
 25127  1  0  0  0
 25128  1  0  0  0
 25129  1  0  0  0
 26130  1  0  0  0
 26131  1  0  0  0
 26132  1  0  0  0
 27 28  1  0  0  0
 27133  1  0  0  0
 28 29  1  0  0  0
 28134  1  0  0  0
 28135  1  0  0  0
 29 30  2  0  0  0
 29 31  1  0  0  0
 31 32  1  0  0  0
 31136  1  0  0  0
 32 33  1  0  0  0
 32 35  1  0  0  0
 32137  1  0  0  0
 33 34  2  0  0  0
 33 42  1  0  0  0
 35 36  1  0  0  0
 35138  1  0  0  0
 35139  1  0  0  0
 36 37  1  0  0  0
 36140  1  0  0  0
 36141  1  0  0  0
 37 38  1  0  0  0
 37142  1  0  0  0
 37143  1  0  0  0
 38 39  1  0  0  0
 38144  1  0  0  0
 39 40  1  0  0  0
 39 41  2  0  0  0
 40145  1  0  0  0
 40146  1  0  0  0
 41147  1  0  0  0
 42 43  1  0  0  0
 42148  1  0  0  0
 43 44  1  0  0  0
 43149  1  0  0  0
 43150  1  0  0  0
 44 45  2  0  0  0
 44 46  1  0  0  0
 46 47  1  0  0  0
 46151  1  0  0  0
 47 48  1  0  0  0
 47 50  1  0  0  0
 47152  1  0  0  0
 48 49  2  0  0  0
 48 52  1  0  0  0
 50 51  1  0  0  0
 50153  1  0  0  0
 50154  1  0  0  0
 52 53  1  0  0  0
 52155  1  0  0  0
 53 54  1  0  0  0
 53 56  1  0  0  0
 53156  1  0  0  0
 54 55  2  0  0  0
 54 61  1  0  0  0
 56 57  1  0  0  0
 56157  1  0  0  0
 56158  1  0  0  0
 57 58  1  0  0  0
 57159  1  0  0  0
 57160  1  0  0  0
 58 59  1  0  0  0
 58 60  2  0  0  0
 59161  1  0  0  0
 61 62  1  0  0  0
 61162  1  0  0  0
 62 63  1  0  0  0
 62 65  1  0  0  0
 62163  1  0  0  0
 63 64  2  0  0  0
 63 69  1  0  0  0
 65 66  1  0  0  0
 65164  1  0  0  0
 65165  1  0  0  0
 66 67  2  0  0  0
 66 68  1  0  0  0
 68166  1  0  0  0
 68167  1  0  0  0
 69 70  1  0  0  0
 69168  1  0  0  0
 70 71  1  0  0  0
 70 73  1  0  0  0
 70169  1  0  0  0
 71 72  2  0  0  0
 71 79  1  0  0  0
 73 74  1  0  0  0
 73170  1  0  0  0
 73171  1  0  0  0
 74 75  2  0  0  0
 74 76  1  0  0  0
 75 77  1  0  0  0
 76 78  2  0  0  0
 76172  1  0  0  0
 77 78  1  0  0  0
 77173  1  0  0  0
 79 80  1  0  0  0
 79174  1  0  0  0
 80 81  1  0  0  0
 80 83  1  0  0  0
 80175  1  0  0  0
 81 82  2  0  0  0
 81 90  1  0  0  0
 83 84  1  0  0  0
 83176  1  0  0  0
 83177  1  0  0  0
 84 85  1  0  0  0
 84178  1  0  0  0
 84179  1  0  0  0
 85 86  1  0  0  0
 85180  1  0  0  0
 85181  1  0  0  0
 86 87  1  0  0  0
 86182  1  0  0  0
 87 88  1  0  0  0
 87 89  2  0  0  0
 88183  1  0  0  0
 88184  1  0  0  0
 89185  1  0  0  0
 90 91  1  0  0  0
 90186  1  0  0  0
 91 92  1  0  0  0
 91 94  1  0  0  0
 91187  1  0  0  0
 92 93  2  0  0  0
 92 96  1  0  0  0
 94 95  1  0  0  0
 94188  1  0  0  0
 94189  1  0  0  0
 96 97  1  0  0  0
 96190  1  0  0  0
 97 98  1  0  0  0
 97100  1  0  0  0
 97191  1  0  0  0
 98 99  2  0  0  0
 98104  1  0  0  0
100101  1  0  0  0
100192  1  0  0  0
100193  1  0  0  0
101102  1  0  0  0
101103  1  0  0  0
101194  1  0  0  0
102195  1  0  0  0
102196  1  0  0  0
102197  1  0  0  0
103198  1  0  0  0
103199  1  0  0  0
103200  1  0  0  0
104201  1  0  0  0
104202  1  0  0  0
M  CHG  1   1   1
M  END
> <s_m_source_file>
../4os5_ligand.sdf

> <i_m_source_file_index>
1

> <s_epik_input>
W05IMytdW0NIMl1DKD1PKVtOSF1bQ0BASF0oW0NIMl1bQ0BIXTEyKUMoPU8pW05IXVtDQEBIXShbQ0gzXSlDKD1PKVtOSF1bQ0BASF0oW0NIMl1bQ0hdKFtDSDNdKVtDSDNdKUMoPU8pW05IXVtDSDJdQyg9TylbTkhdW0NAQEhdKFtDSDJdW0NIMl1bQ0gyXVtOSF0vQyhbTkgyXSk9TlxbSF0pQyg9TylbTkhdW0NIMl1DKD1PKVtOSF1bQ0BASF0oW0NIMl1TUzIpQyg9TylbTkhdW0NAQEhdKFtDSDJdW0NIMl1DKD1PKVtPSF0pQyg9TylbTkhdW0NAQEhdKFtDSDJdQyg9TylbTkgyXSlDKD1PKVtOSF1bQ0BASF0oW0NIMl1DMz1OW0NIMl1OPVtDSF0zKUMoPU8pW05IXVtDQEBIXShbQ0gyXVtDSDJdW0NIMl1bTkhdL0MoW05IMl0pPU5cW0hdKUMoPU8pW05IXVtDQEBIXShbQ0gyXVNTW0NIMl0xKUMoPU8pW05IXVtDQEhdKEMoPU8pW05IMl0pW0NIMl1bQ0hdKFtDSDNdKVtDSDNd

> <s_epik_cmdline>
J2VwaWtfYXBwJywgJy1pbWFlJywgJ2xpZ2FuZF9wcm8ubWFlJywgJy1vbWFlJywgJ2xpZ2FuZF9wcmVwLm1hZScsICctbXMnLCAnMScsICctcGgnLCAnNycsICctcGh0JywgJzAuNScsICctbnQn

> <s_epik_pKa_notes>
Molecule size exceeds maximum supported for generating protonation states

> <s_epik_Chemistry_Notes>
This compound has an imine and may undergo hydrolysis.

$$$$
