4os6_ligand
                    3D
 Schrodinger Suite 2020-3.
192194  0  0  1  0            999 V2000
   30.4750   21.6630  -12.5490 N   0  3  0  0  0  0
   30.1510   21.2330  -11.1650 C   0  0  0  0  0  0
   30.7350   19.8670  -10.8640 C   0  0  0  0  0  0
   31.7080   19.7660  -10.1120 O   0  0  0  0  0  0
   30.1370   18.8190  -11.4370 N   0  0  0  0  0  0
   30.6470   17.4370  -11.2630 C   0  0  1  0  0  0
   30.3130   16.8040   -9.9590 C   0  0  0  0  0  0
   28.8810   16.5500   -9.5840 C   0  0  2  0  0  0
   28.3240   17.7160   -8.7920 C   0  0  0  0  0  0
   26.6400   17.7500   -8.8460 S   0  0  0  0  0  0
   28.6850   15.1200   -8.6940 S   0  0  0  0  0  0
   30.0930   16.6820  -12.3000 C   0  0  0  0  0  0
   28.9590   16.9220  -12.7440 O   0  0  0  0  0  0
   30.8570   15.6940  -12.7800 N   0  0  0  0  0  0
   30.4380   14.7730  -13.8380 C   0  0  2  0  0  0
   30.6780   13.3260  -13.4290 C   0  0  0  0  0  0
   31.5500   13.0510  -12.6010 O   0  0  0  0  0  0
   31.2690   15.0060  -15.1080 C   0  0  0  0  0  0
   30.9690   16.1790  -16.0260 C   0  0  0  0  0  0
   31.9250   16.1480  -17.2050 C   0  0  0  0  0  0
   29.5470   16.0990  -16.5160 C   0  0  0  0  0  0
   29.9270   12.4070  -14.0320 N   0  0  0  0  0  0
   30.1900   10.9700  -13.8900 C   0  0  0  0  0  0
   29.3000   10.2520  -12.8900 C   0  0  0  0  0  0
   28.2840   10.7780  -12.4500 O   0  0  0  0  0  0
   29.6820    9.0220  -12.5620 N   0  0  0  0  0  0
   28.9850    8.2430  -11.5500 C   0  0  2  0  0  0
   29.0370    9.0170  -10.2470 C   0  0  0  0  0  0
   30.1050    9.4220   -9.8160 O   0  0  0  0  0  0
   29.6450    6.8840  -11.3680 C   0  0  0  0  0  0
   29.4750    5.9860  -12.5760 C   0  0  0  0  0  0
   30.4490    4.8290  -12.5240 C   0  0  0  0  0  0
   31.8020    5.2270  -12.8690 N   0  0  0  0  0  0
   32.8150    4.3710  -13.0010 C   0  0  0  0  0  0
   32.6220    3.0730  -12.7940 N   0  0  0  0  0  0
   34.0250    4.8120  -13.3210 N   0  0  0  0  0  0
   27.8730    9.2260   -9.6480 N   0  0  0  0  0  0
   27.7500    9.9910   -8.4220 C   0  0  0  0  0  0
   27.0060   11.2890   -8.6360 C   0  0  0  0  0  0
   26.5190   11.8950   -7.6730 O   0  0  0  0  0  0
   26.9080   11.7090   -9.8980 N   0  0  0  0  0  0
   26.3820   13.0200  -10.2640 C   0  0  2  0  0  0
   25.0410   13.0040  -11.0210 C   0  0  0  0  0  0
   24.4930   14.0640  -11.3370 O   0  0  0  0  0  0
   27.4360   13.7630  -11.0910 C   0  0  0  0  0  0
   29.0340   13.8600  -10.2440 S   0  0  0  0  0  0
   24.5000   11.8190  -11.2950 N   0  0  0  0  0  0
   23.2040   11.7050  -11.9700 C   0  0  2  0  0  0
   22.1430   12.5010  -11.2320 C   0  0  0  0  0  0
   22.1230   12.5100   -9.9880 O   0  0  0  0  0  0
   22.7330   10.2520  -12.0150 C   0  0  0  0  0  0
   23.5740    9.3190  -12.8840 C   0  0  0  0  0  0
   24.7500    8.6910  -12.1610 C   0  0  0  0  0  0
   25.0660    9.0980  -11.0150 O   0  0  0  0  0  0
   25.3620    7.7550  -12.7370 O   0  0  0  0  0  0
   21.2570   13.1550  -11.9870 N   0  0  0  0  0  0
   20.0680   13.7850  -11.4080 C   0  0  2  0  0  0
   20.4440   14.8290  -10.3430 C   0  0  0  0  0  0
   19.8050   14.9150   -9.2970 O   0  0  0  0  0  0
   19.1590   12.6860  -10.8270 C   0  0  0  0  0  0
   17.7520   13.1540  -10.5340 C   0  0  0  0  0  0
   17.1700   13.9380  -11.2810 O   0  0  0  0  0  0
   17.1810   12.6490   -9.4410 N   0  0  0  0  0  0
   21.5170   15.5790  -10.6150 N   0  0  0  0  0  0
   21.9710   16.6790   -9.7680 C   0  0  2  0  0  0
   21.8620   17.9900  -10.5170 C   0  0  0  0  0  0
   22.1220   18.0560  -11.7250 O   0  0  0  0  0  0
   23.4460   16.5200   -9.3810 C   0  0  0  0  0  0
   23.6790   15.6340   -8.1990 C   0  0  0  0  0  0
   23.4370   14.2760   -8.2230 N   0  0  0  0  0  0
   24.1660   15.9100   -6.9640 C   0  0  0  0  0  0
   23.7510   13.7560   -7.0460 C   0  0  0  0  0  0
   24.1930   14.7260   -6.2630 N   0  0  0  0  0  0
   21.5450   19.0440   -9.7760 N   0  0  0  0  0  0
   21.5880   20.3980  -10.3190 C   0  0  2  0  0  0
   22.9960   20.8180  -10.7700 C   0  0  0  0  0  0
   23.1320   21.6060  -11.6950 O   0  0  0  0  0  0
   21.0430   21.3880   -9.2850 C   0  0  0  0  0  0
   19.5270   21.4300   -9.2530 C   0  0  0  0  0  0
   19.0150   22.3910   -8.1920 C   0  0  0  0  0  0
   19.2790   21.8400   -6.8750 N   0  0  0  0  0  0
   18.5540   20.8770   -6.3050 C   0  0  0  0  0  0
   17.4870   20.3680   -6.9210 N   0  0  0  0  0  0
   18.8960   20.4270   -5.1070 N   0  0  0  0  0  0
   24.0430   20.2810  -10.1550 N   0  0  0  0  0  0
   25.4100   20.6710  -10.5220 C   0  0  2  0  0  0
   26.0700   19.7370  -11.5440 C   0  0  0  0  0  0
   27.2760   19.8180  -11.7570 O   0  0  0  0  0  0
   26.2880   20.7950   -9.2750 C   0  0  0  0  0  0
   26.0510   19.4960   -8.0530 S   0  0  0  0  0  0
   25.2850   18.8620  -12.1730 N   0  0  0  0  0  0
   25.8120   17.9110  -13.1470 C   0  0  2  0  0  0
   26.3560   18.6450  -14.3790 C   0  0  0  0  0  0
   25.7160   19.5720  -14.8730 O   0  0  0  0  0  0
   24.7070   16.9490  -13.5750 C   0  0  0  0  0  0
   24.9770   15.9640  -14.7190 C   0  0  0  0  0  0
   26.1140   15.0200  -14.3960 C   0  0  0  0  0  0
   23.7090   15.1850  -15.0390 C   0  0  0  0  0  0
   27.5420   18.2130  -14.8780 N   0  0  0  0  0  0
   30.0385   22.6552  -12.7363 H   0  0  0  0  0  0
   30.0594   20.9385  -13.2648 H   0  0  0  0  0  0
   31.5670   21.7139  -12.6710 H   0  0  0  0  0  0
   30.5666   21.9575  -10.4492 H   0  0  0  0  0  0
   29.0590   21.1822  -11.0430 H   0  0  0  0  0  0
   29.2432   19.0021  -12.0515 H   0  0  0  0  0  0
   31.7446   17.4417  -11.3360 H   0  0  0  0  0  0
   30.7791   15.8091   -9.9043 H   0  0  0  0  0  0
   30.6917   17.4318   -9.1390 H   0  0  0  0  0  0
   28.3739   16.5575  -10.5601 H   0  0  0  0  0  0
   28.6371   17.6284   -7.7412 H   0  0  0  0  0  0
   28.7051   18.6591   -9.2107 H   0  0  0  0  0  0
   31.8557   15.5962  -12.3293 H   0  0  0  0  0  0
   29.3676   14.9835  -13.9795 H   0  0  0  0  0  0
   32.3238   15.1548  -14.8338 H   0  0  0  0  0  0
   31.1819   14.1310  -15.7689 H   0  0  0  0  0  0
   31.0910   17.1227  -15.4741 H   0  0  0  0  0  0
   32.9606   16.2068  -16.8389 H   0  0  0  0  0  0
   31.7204   17.0035  -17.8655 H   0  0  0  0  0  0
   31.7866   15.2112  -17.7648 H   0  0  0  0  0  0
   28.8611   16.1220  -15.6563 H   0  0  0  0  0  0
   29.4038   15.1622  -17.0744 H   0  0  0  0  0  0
   29.3377   16.9544  -17.1751 H   0  0  0  0  0  0
   29.0873   12.7538  -14.6522 H   0  0  0  0  0  0
   30.0409   10.4724  -14.8596 H   0  0  0  0  0  0
   31.2269   10.8183  -13.5557 H   0  0  0  0  0  0
   30.5531    8.5956  -13.0810 H   0  0  0  0  0  0
   27.9510    8.1006  -11.8971 H   0  0  0  0  0  0
   30.7232    7.0199  -11.1979 H   0  0  0  0  0  0
   29.1988    6.3727  -10.5023 H   0  0  0  0  0  0
   28.4500    5.5871  -12.5950 H   0  0  0  0  0  0
   29.6600    6.5654  -13.4926 H   0  0  0  0  0  0
   30.4675    4.4107  -11.5068 H   0  0  0  0  0  0
   30.1327    4.0512  -13.2346 H   0  0  0  0  0  0
   32.0370    6.2883  -13.0375 H   0  0  0  0  0  0
   31.6214    2.7012  -12.5285 H   0  0  0  0  0  0
   33.4628    2.3700  -12.8881 H   0  0  0  0  0  0
   34.1913    5.8856  -13.4937 H   0  0  0  0  0  0
   26.9779    8.7922  -10.1178 H   0  0  0  0  0  0
   27.2007    9.3998   -7.6745 H   0  0  0  0  0  0
   28.7522   10.2295   -8.0365 H   0  0  0  0  0  0
   27.2469   11.0143  -10.6806 H   0  0  0  0  0  0
   26.1903   13.4883   -9.2873 H   0  0  0  0  0  0
   27.5887   13.2392  -12.0462 H   0  0  0  0  0  0
   27.0920   14.7894  -11.2866 H   0  0  0  0  0  0
   25.0494   10.9121  -11.0023 H   0  0  0  0  0  0
   23.3782   12.1057  -12.9795 H   0  0  0  0  0  0
   22.7481    9.8300  -10.9993 H   0  0  0  0  0  0
   21.7087   10.2107  -12.4139 H   0  0  0  0  0  0
   22.9448    8.4960  -13.2538 H   0  0  0  0  0  0
   23.9816    9.8809  -13.7373 H   0  0  0  0  0  0
   26.2202    7.2741  -12.2448 H   0  0  0  0  0  0
   21.4382   13.2138  -13.0704 H   0  0  0  0  0  0
   19.5625   14.3128  -12.2301 H   0  0  0  0  0  0
   19.0852   11.8545  -11.5434 H   0  0  0  0  0  0
   19.5857   12.3189   -9.8819 H   0  0  0  0  0  0
   17.7400   11.9502   -8.8013 H   0  0  0  0  0  0
   16.1507   12.9309   -9.1785 H   0  0  0  0  0  0
   22.0673   15.3293  -11.5342 H   0  0  0  0  0  0
   21.3090   16.6413   -8.8904 H   0  0  0  0  0  0
   24.0015   16.0844  -10.2246 H   0  0  0  0  0  0
   23.8684   17.5050   -9.1335 H   0  0  0  0  0  0
   24.5076   16.8400   -6.4861 H   0  0  0  0  0  0
   23.6604   12.7056   -6.7693 H   0  0  0  0  0  0
   21.2447   18.8800   -8.7306 H   0  0  0  0  0  0
   20.9410   20.3538  -11.2075 H   0  0  0  0  0  0
   21.3922   21.1003   -8.2824 H   0  0  0  0  0  0
   21.4021   22.4004   -9.5219 H   0  0  0  0  0  0
   19.1486   21.7603  -10.2316 H   0  0  0  0  0  0
   19.1370   20.4262   -9.0289 H   0  0  0  0  0  0
   19.5283   23.3584   -8.2952 H   0  0  0  0  0  0
   17.9320   22.5351   -8.3197 H   0  0  0  0  0  0
   20.1238   22.2175   -6.2801 H   0  0  0  0  0  0
   17.1980   20.7376   -7.9159 H   0  0  0  0  0  0
   16.8956   19.5784   -6.4344 H   0  0  0  0  0  0
   19.7754   20.8430   -4.5936 H   0  0  0  0  0  0
   23.8775   19.5362   -9.3626 H   0  0  0  0  0  0
   25.2706   21.6495  -11.0047 H   0  0  0  0  0  0
   27.3478   20.7647   -9.5683 H   0  0  0  0  0  0
   26.0745   21.7484   -8.7696 H   0  0  0  0  0  0
   24.2102   18.8708  -11.9389 H   0  0  0  0  0  0
   26.6231   17.3720  -12.6356 H   0  0  0  0  0  0
   24.4262   16.3112  -12.7239 H   0  0  0  0  0  0
   23.8298   17.5230  -13.9081 H   0  0  0  0  0  0
   25.2873   16.5350  -15.6065 H   0  0  0  0  0  0
   27.0196   15.6013  -14.1680 H   0  0  0  0  0  0
   26.3053   14.3671  -15.2604 H   0  0  0  0  0  0
   25.8439   14.4052  -13.5248 H   0  0  0  0  0  0
   22.8954   15.8881  -15.2707 H   0  0  0  0  0  0
   23.4270   14.5711  -14.1709 H   0  0  0  0  0  0
   23.8884   14.5329  -15.9066 H   0  0  0  0  0  0
   28.0709   17.3785  -14.3945 H   0  0  0  0  0  0
   27.9743   18.6974  -15.7660 H   0  0  0  0  0  0
  1  2  1  0  0  0
  1100  1  0  0  0
  1101  1  0  0  0
  1102  1  0  0  0
  2  3  1  0  0  0
  2103  1  0  0  0
  2104  1  0  0  0
  3  4  2  0  0  0
  3  5  1  0  0  0
  5  6  1  0  0  0
  5105  1  0  0  0
  6  7  1  0  0  0
  6 12  1  0  0  0
  6106  1  0  0  0
  7  8  1  0  0  0
  7107  1  0  0  0
  7108  1  0  0  0
  8  9  1  0  0  0
  8 11  1  0  0  0
  8109  1  0  0  0
  9 10  1  0  0  0
  9110  1  0  0  0
  9111  1  0  0  0
 10 90  1  0  0  0
 11 46  1  0  0  0
 12 13  2  0  0  0
 12 14  1  0  0  0
 14 15  1  0  0  0
 14112  1  0  0  0
 15 16  1  0  0  0
 15 18  1  0  0  0
 15113  1  0  0  0
 16 17  2  0  0  0
 16 22  1  0  0  0
 18 19  1  0  0  0
 18114  1  0  0  0
 18115  1  0  0  0
 19 20  1  0  0  0
 19 21  1  0  0  0
 19116  1  0  0  0
 20117  1  0  0  0
 20118  1  0  0  0
 20119  1  0  0  0
 21120  1  0  0  0
 21121  1  0  0  0
 21122  1  0  0  0
 22 23  1  0  0  0
 22123  1  0  0  0
 23 24  1  0  0  0
 23124  1  0  0  0
 23125  1  0  0  0
 24 25  2  0  0  0
 24 26  1  0  0  0
 26 27  1  0  0  0
 26126  1  0  0  0
 27 28  1  0  0  0
 27 30  1  0  0  0
 27127  1  0  0  0
 28 29  2  0  0  0
 28 37  1  0  0  0
 30 31  1  0  0  0
 30128  1  0  0  0
 30129  1  0  0  0
 31 32  1  0  0  0
 31130  1  0  0  0
 31131  1  0  0  0
 32 33  1  0  0  0
 32132  1  0  0  0
 32133  1  0  0  0
 33 34  1  0  0  0
 33134  1  0  0  0
 34 35  1  0  0  0
 34 36  2  0  0  0
 35135  1  0  0  0
 35136  1  0  0  0
 36137  1  0  0  0
 37 38  1  0  0  0
 37138  1  0  0  0
 38 39  1  0  0  0
 38139  1  0  0  0
 38140  1  0  0  0
 39 40  2  0  0  0
 39 41  1  0  0  0
 41 42  1  0  0  0
 41141  1  0  0  0
 42 43  1  0  0  0
 42 45  1  0  0  0
 42142  1  0  0  0
 43 44  2  0  0  0
 43 47  1  0  0  0
 45 46  1  0  0  0
 45143  1  0  0  0
 45144  1  0  0  0
 47 48  1  0  0  0
 47145  1  0  0  0
 48 49  1  0  0  0
 48 51  1  0  0  0
 48146  1  0  0  0
 49 50  2  0  0  0
 49 56  1  0  0  0
 51 52  1  0  0  0
 51147  1  0  0  0
 51148  1  0  0  0
 52 53  1  0  0  0
 52149  1  0  0  0
 52150  1  0  0  0
 53 54  2  0  0  0
 53 55  1  0  0  0
 55151  1  0  0  0
 56 57  1  0  0  0
 56152  1  0  0  0
 57 58  1  0  0  0
 57 60  1  0  0  0
 57153  1  0  0  0
 58 59  2  0  0  0
 58 64  1  0  0  0
 60 61  1  0  0  0
 60154  1  0  0  0
 60155  1  0  0  0
 61 62  2  0  0  0
 61 63  1  0  0  0
 63156  1  0  0  0
 63157  1  0  0  0
 64 65  1  0  0  0
 64158  1  0  0  0
 65 66  1  0  0  0
 65 68  1  0  0  0
 65159  1  0  0  0
 66 67  2  0  0  0
 66 74  1  0  0  0
 68 69  1  0  0  0
 68160  1  0  0  0
 68161  1  0  0  0
 69 70  2  0  0  0
 69 71  1  0  0  0
 70 72  1  0  0  0
 71 73  2  0  0  0
 71162  1  0  0  0
 72 73  1  0  0  0
 72163  1  0  0  0
 74 75  1  0  0  0
 74164  1  0  0  0
 75 76  1  0  0  0
 75 78  1  0  0  0
 75165  1  0  0  0
 76 77  2  0  0  0
 76 85  1  0  0  0
 78 79  1  0  0  0
 78166  1  0  0  0
 78167  1  0  0  0
 79 80  1  0  0  0
 79168  1  0  0  0
 79169  1  0  0  0
 80 81  1  0  0  0
 80170  1  0  0  0
 80171  1  0  0  0
 81 82  1  0  0  0
 81172  1  0  0  0
 82 83  1  0  0  0
 82 84  2  0  0  0
 83173  1  0  0  0
 83174  1  0  0  0
 84175  1  0  0  0
 85 86  1  0  0  0
 85176  1  0  0  0
 86 87  1  0  0  0
 86 89  1  0  0  0
 86177  1  0  0  0
 87 88  2  0  0  0
 87 91  1  0  0  0
 89 90  1  0  0  0
 89178  1  0  0  0
 89179  1  0  0  0
 91 92  1  0  0  0
 91180  1  0  0  0
 92 93  1  0  0  0
 92 95  1  0  0  0
 92181  1  0  0  0
 93 94  2  0  0  0
 93 99  1  0  0  0
 95 96  1  0  0  0
 95182  1  0  0  0
 95183  1  0  0  0
 96 97  1  0  0  0
 96 98  1  0  0  0
 96184  1  0  0  0
 97185  1  0  0  0
 97186  1  0  0  0
 97187  1  0  0  0
 98188  1  0  0  0
 98189  1  0  0  0
 98190  1  0  0  0
 99191  1  0  0  0
 99192  1  0  0  0
M  CHG  1   1   1
M  END
> <s_m_source_file>
../4os6_ligand.sdf

> <i_m_source_file_index>
1

> <s_epik_input>
W05IMytdW0NIMl1DKD1PKVtOSF1bQ0BASF0oW0NIMl1bQ0BIXTEyKUMoPU8pW05IXVtDQEBIXShbQ0gyXVtDSF0oW0NIM10pW0NIM10pQyg9TylbTkhdW0NIMl1DKD1PKVtOSF1bQ0BASF0oW0NIMl1bQ0gyXVtDSDJdW05IXS9DKFtOSDJdKT1OXFtIXSlDKD1PKVtOSF1bQ0gyXUMoPU8pW05IXVtDQEBIXShbQ0gyXVNTMilDKD1PKVtOSF1bQ0BASF0oW0NIMl1bQ0gyXUMoPU8pW09IXSlDKD1PKVtOSF1bQ0BASF0oW0NIMl1DKD1PKVtOSDJdKUMoPU8pW05IXVtDQEBIXShbQ0gyXUMzPU5bQ0gyXU49W0NIXTMpQyg9TylbTkhdW0NAQEhdKFtDSDJdW0NIMl1bQ0gyXVtOSF0vQyhbTkgyXSk9TlxbSF0pQyg9TylbTkhdW0NAQEhdKFtDSDJdU1NbQ0gyXTEpQyg9TylbTkhdW0NASF0oQyg9TylbTkgyXSlbQ0gyXVtDSF0oW0NIM10pW0NIM10=

> <s_epik_cmdline>
J2VwaWtfYXBwJywgJy1pbWFlJywgJ2xpZ2FuZF9wcm8ubWFlJywgJy1vbWFlJywgJ2xpZ2FuZF9wcmVwLm1hZScsICctbXMnLCAnMScsICctcGgnLCAnNycsICctcGh0JywgJzAuNScsICctbnQn

> <s_epik_pKa_notes>
Molecule size exceeds maximum supported for generating protonation states

> <s_epik_Chemistry_Notes>
This compound has an imine and may undergo hydrolysis.

$$$$
