4os7_ligand
                    3D
 Schrodinger Suite 2020-3.
218220  0  0  1  0            999 V2000
    4.4570  -19.9100  -14.3270 N   0  3  0  0  0  0
    3.6720  -18.9510  -13.5050 C   0  0  0  0  0  0
    2.2060  -19.0060  -13.8480 C   0  0  0  0  0  0
    1.6570  -20.0820  -14.1210 O   0  0  0  0  0  0
   -0.2090  -16.4490  -14.8480 C   0  0  0  0  0  0
    1.5450  -17.8590  -13.8430 N   0  0  0  0  0  0
    0.1890  -17.8500  -14.3530 C   0  0  1  0  0  0
   -0.8030  -18.5200  -13.3990 C   0  0  0  0  0  0
   -1.0280  -17.7620  -12.1020 C   0  0  0  0  0  0
   -1.3620  -16.6250  -12.2880 O   0  0  0  0  0  0
   -0.8990  -18.2750  -10.8130 N   0  0  0  0  0  0
    0.2490  -15.4160  -14.3380 O   0  0  0  0  0  0
   -0.5300  -19.6760  -10.5440 C   0  0  0  0  0  0
   -1.1630  -17.4930   -9.5990 C   0  0  0  0  0  0
   -2.6340  -17.0730   -9.5060 C   0  0  0  0  0  0
   -2.8790  -16.2000   -8.2840 C   0  0  0  0  0  0
   -2.1380  -14.5320   -8.3250 S   0  0  0  0  0  0
    0.7970  -19.9340   -9.8160 C   0  0  0  0  0  0
    0.7850  -21.3430   -9.2420 C   0  0  0  0  0  0
    0.6690  -22.7040  -10.4640 S   0  0  0  0  0  0
   -1.0630  -16.4560  -15.8630 N   0  0  0  0  0  0
   -1.4480  -15.2490  -16.5760 C   0  0  2  0  0  0
   -2.8340  -14.8230  -16.1130 C   0  0  0  0  0  0
   -3.6630  -14.4230  -16.9270 O   0  0  0  0  0  0
   -1.4410  -15.5210  -18.0780 C   0  0  0  0  0  0
   -3.0740  -14.9040  -14.8030 N   0  0  0  0  0  0
   -4.4170  -14.7080  -14.2460 C   0  0  2  0  0  0
   -4.6540  -13.3030  -13.6770 C   0  0  0  0  0  0
   -5.6540  -13.0700  -12.9850 O   0  0  0  0  0  0
   -4.7040  -15.7910  -13.2070 C   0  0  0  0  0  0
   -4.5230  -17.2090  -13.7890 C   0  0  0  0  0  0
   -4.7360  -18.2780  -12.7300 C   0  0  0  0  0  0
   -5.4420  -17.4450  -14.9810 C   0  0  0  0  0  0
   -3.7490  -12.3730  -13.9870 N   0  0  0  0  0  0
   -4.0200  -10.9490  -13.8220 C   0  0  0  0  0  0
   -3.0730  -10.2540  -12.8660 C   0  0  0  0  0  0
   -2.0450  -10.8080  -12.4540 O   0  0  0  0  0  0
   -3.4210   -9.0150  -12.5490 N   0  0  0  0  0  0
   -2.6950   -8.2410  -11.5630 C   0  0  2  0  0  0
   -2.7230   -8.9990  -10.2320 C   0  0  0  0  0  0
   -3.7770   -9.4030   -9.7570 O   0  0  0  0  0  0
   -3.3120   -6.8550  -11.4260 C   0  0  0  0  0  0
   -3.2180   -6.0190  -12.7010 C   0  0  0  0  0  0
   -4.1780   -4.8460  -12.6360 C   0  0  0  0  0  0
   -5.5480   -5.2500  -12.9220 N   0  0  0  0  0  0
   -6.5690   -4.4030  -13.0340 C   0  0  0  0  0  0
   -6.3860   -3.0990  -12.8740 N   0  0  0  0  0  0
   -7.7740   -4.8670  -13.3170 N   0  0  0  0  0  0
   -1.5460   -9.2010   -9.6580 N   0  0  0  0  0  0
   -1.3840   -9.9960   -8.4480 C   0  0  0  0  0  0
   -0.5840  -11.2600   -8.6810 C   0  0  0  0  0  0
   -0.0320  -11.8380   -7.7370 O   0  0  0  0  0  0
   -0.4960  -11.6790   -9.9440 N   0  0  0  0  0  0
    0.0250  -12.9910  -10.2870 C   0  0  2  0  0  0
    1.3410  -12.9610  -11.0760 C   0  0  0  0  0  0
    1.8480  -14.0150  -11.4580 O   0  0  0  0  0  0
   -1.0580  -13.7470  -11.0570 C   0  0  0  0  0  0
   -2.6350  -13.7870  -10.1580 S   0  0  0  0  0  0
    1.9130  -11.7700  -11.2750 N   0  0  0  0  0  0
    3.1880  -11.6180  -11.9920 C   0  0  2  0  0  0
    4.2780  -12.3990  -11.2800 C   0  0  0  0  0  0
    4.3020  -12.4360  -10.0460 O   0  0  0  0  0  0
    3.6410  -10.1500  -12.0540 C   0  0  0  0  0  0
    2.7800   -9.2580  -12.9410 C   0  0  0  0  0  0
    1.6300   -8.6230  -12.1960 C   0  0  0  0  0  0
    1.2980   -9.0730  -11.0730 O   0  0  0  0  0  0
    1.0700   -7.6480  -12.7320 O   0  0  0  0  0  0
    5.1620  -13.0150  -12.0520 N   0  0  0  0  0  0
    6.3810  -13.6070  -11.5090 C   0  0  2  0  0  0
    6.0630  -14.6550  -10.4290 C   0  0  0  0  0  0
    6.7170  -14.7040   -9.3880 O   0  0  0  0  0  0
    7.2660  -12.4800  -10.9360 C   0  0  0  0  0  0
    8.6960  -12.9180  -10.6770 C   0  0  0  0  0  0
    9.2840  -13.6600  -11.4710 O   0  0  0  0  0  0
    9.2780  -12.4280   -9.5760 N   0  0  0  0  0  0
    5.0400  -15.4730  -10.6800 N   0  0  0  0  0  0
    4.6540  -16.5360   -9.7490 C   0  0  2  0  0  0
    5.2000  -17.8860  -10.1840 C   0  0  0  0  0  0
    5.6170  -18.0770  -11.3260 O   0  0  0  0  0  0
    3.1380  -16.5710   -9.5410 C   0  0  0  0  0  0
    2.6700  -15.6640   -8.4470 C   0  0  0  0  0  0
    2.9440  -14.3150   -8.4390 N   0  0  0  0  0  0
    1.9660  -15.9140   -7.3150 C   0  0  0  0  0  0
    2.4270  -13.7720   -7.3500 C   0  0  0  0  0  0
    1.8320  -14.7200   -6.6500 N   0  0  0  0  0  0
    5.2040  -18.8130   -9.2360 N   0  0  0  0  0  0
    5.9190  -20.0760   -9.3720 C   0  0  2  0  0  0
    4.8980  -21.1700   -9.1350 C   0  0  0  0  0  0
    4.1370  -21.1000   -8.1710 O   0  0  0  0  0  0
    7.0020  -20.1280   -8.2920 C   0  0  0  0  0  0
    8.1790  -21.0300   -8.5780 C   0  0  0  0  0  0
    9.3450  -20.6780   -7.6680 C   0  0  0  0  0  0
    9.0000  -20.7360   -6.2400 N   0  0  0  0  0  0
    8.7970  -21.8610   -5.5570 C   0  0  0  0  0  0
    8.8700  -23.0440   -6.1610 N   0  0  0  0  0  0
    8.5140  -21.8060   -4.2610 N   0  0  0  0  0  0
    4.8610  -22.1750   -9.9970 N   0  0  0  0  0  0
    3.8850  -23.2400   -9.8110 C   0  0  2  0  0  0
    4.4230  -24.3620   -8.9190 C   0  0  0  0  0  0
    5.4780  -24.9290   -9.1910 O   0  0  0  0  0  0
    3.3470  -23.7090  -11.1600 C   0  0  0  0  0  0
    2.2140  -22.4460  -11.8010 S   0  0  0  0  0  0
    3.6620  -24.6310   -7.8480 N   0  0  0  0  0  0
    4.0660  -25.4060   -6.6520 C   0  0  2  0  0  0
    4.8250  -24.5270   -5.6510 C   0  0  0  0  0  0
    6.0090  -24.2310   -5.8260 O   0  0  0  0  0  0
    4.8560  -26.6890   -6.9880 C   0  0  0  0  0  0
    5.7040  -27.3420   -5.8800 C   0  0  0  0  0  0
    4.9640  -27.4790   -4.5510 C   0  0  0  0  0  0
    6.2080  -28.7010   -6.3480 C   0  0  0  0  0  0
    4.1140  -24.1090   -4.5700 N   0  0  0  0  0  0
    5.5200  -19.8442  -14.0519 H   0  0  0  0  0  0
    4.3379  -19.6630  -15.3923 H   0  0  0  0  0  0
    4.0937  -20.9322  -14.1448 H   0  0  0  0  0  0
    3.7911  -19.1980  -12.4397 H   0  0  0  0  0  0
    4.0353  -17.9288  -13.6872 H   0  0  0  0  0  0
    1.9970  -16.9297  -13.4661 H   0  0  0  0  0  0
    0.2199  -18.5070  -15.2347 H   0  0  0  0  0  0
   -1.7815  -18.6122  -13.8929 H   0  0  0  0  0  0
   -0.4332  -19.5200  -13.1285 H   0  0  0  0  0  0
   -1.3016  -20.1441   -9.9151 H   0  0  0  0  0  0
   -0.4503  -20.2233  -11.4949 H   0  0  0  0  0  0
   -0.9182  -18.0974   -8.7131 H   0  0  0  0  0  0
   -0.5427  -16.5846   -9.6059 H   0  0  0  0  0  0
   -2.9104  -16.5038  -10.4058 H   0  0  0  0  0  0
   -3.2672  -17.9693   -9.4303 H   0  0  0  0  0  0
   -3.9606  -16.0488   -8.1523 H   0  0  0  0  0  0
   -2.4665  -16.6939   -7.3919 H   0  0  0  0  0  0
    1.6308  -19.8311  -10.5261 H   0  0  0  0  0  0
    0.9165  -19.2040   -9.0018 H   0  0  0  0  0  0
    1.7127  -21.5167   -8.6771 H   0  0  0  0  0  0
   -0.0795  -21.4585   -8.5717 H   0  0  0  0  0  0
   -1.4843  -17.4279  -16.1594 H   0  0  0  0  0  0
   -0.7114  -14.4686  -16.3344 H   0  0  0  0  0  0
   -0.4316  -15.8268  -18.3905 H   0  0  0  0  0  0
   -1.7308  -14.6072  -18.6174 H   0  0  0  0  0  0
   -2.1555  -16.3250  -18.3083 H   0  0  0  0  0  0
   -2.2284  -15.1250  -14.1351 H   0  0  0  0  0  0
   -5.0901  -14.8116  -15.1098 H   0  0  0  0  0  0
   -4.0142  -15.6765  -12.3579 H   0  0  0  0  0  0
   -5.7409  -15.6937  -12.8528 H   0  0  0  0  0  0
   -3.4856  -17.2983  -14.1438 H   0  0  0  0  0  0
   -4.0645  -18.0902  -11.8792 H   0  0  0  0  0  0
   -4.5172  -19.2672  -13.1584 H   0  0  0  0  0  0
   -5.7804  -18.2502  -12.3859 H   0  0  0  0  0  0
   -5.2729  -16.6622  -15.7350 H   0  0  0  0  0  0
   -6.4899  -17.4131  -14.6480 H   0  0  0  0  0  0
   -5.2267  -18.4301  -15.4206 H   0  0  0  0  0  0
   -2.7758  -12.7061  -14.3769 H   0  0  0  0  0  0
   -3.9311  -10.4437  -14.7950 H   0  0  0  0  0  0
   -5.0386  -10.8126  -13.4297 H   0  0  0  0  0  0
   -4.2907   -8.5769  -13.0606 H   0  0  0  0  0  0
   -1.6625   -8.1310  -11.9260 H   0  0  0  0  0  0
   -4.3781   -6.9516  -11.1728 H   0  0  0  0  0  0
   -2.7947   -6.3005  -10.6292 H   0  0  0  0  0  0
   -2.1927   -5.6370  -12.8142 H   0  0  0  0  0  0
   -3.4743   -6.6441  -13.5691 H   0  0  0  0  0  0
   -4.1515   -4.4060  -11.6282 H   0  0  0  0  0  0
   -3.8808   -4.0875  -13.3752 H   0  0  0  0  0  0
   -5.7902   -6.3141  -13.0600 H   0  0  0  0  0  0
   -5.3848   -2.7089  -12.6384 H   0  0  0  0  0  0
   -7.2354   -2.4077  -12.9769 H   0  0  0  0  0  0
   -7.9299   -5.9477  -13.4504 H   0  0  0  0  0  0
   -0.6687   -8.7386  -10.1338 H   0  0  0  0  0  0
   -0.8591   -9.4012   -7.6860 H   0  0  0  0  0  0
   -2.3733  -10.2893   -8.0668 H   0  0  0  0  0  0
   -0.8332  -10.9963  -10.7379 H   0  0  0  0  0  0
    0.2545  -13.4580   -9.3179 H   0  0  0  0  0  0
   -1.2291  -13.2560  -12.0264 H   0  0  0  0  0  0
   -0.7328  -14.7845  -11.2238 H   0  0  0  0  0  0
    1.3950  -10.8836  -10.8801 H   0  0  0  0  0  0
    2.9904  -12.0124  -12.9997 H   0  0  0  0  0  0
    3.6156   -9.7155  -11.0438 H   0  0  0  0  0  0
    4.6662  -10.0990  -12.4494 H   0  0  0  0  0  0
    3.3978   -8.4483  -13.3566 H   0  0  0  0  0  0
    2.3579   -9.8556  -13.7624 H   0  0  0  0  0  0
    0.4616   -8.6169  -10.5231 H   0  0  0  0  0  0
    4.9558  -13.0729  -13.1309 H   0  0  0  0  0  0
    6.8750  -14.1154  -12.3501 H   0  0  0  0  0  0
    7.2984  -11.6417  -11.6474 H   0  0  0  0  0  0
    6.8457  -12.1338   -9.9802 H   0  0  0  0  0  0
    8.7110  -11.7708   -8.9002 H   0  0  0  0  0  0
   10.3233  -12.6824   -9.3468 H   0  0  0  0  0  0
    4.4806  -15.3323  -11.6167 H   0  0  0  0  0  0
    5.1347  -16.2709   -8.7958 H   0  0  0  0  0  0
    2.6335  -16.2601  -10.4677 H   0  0  0  0  0  0
    2.8273  -17.5933   -9.2796 H   0  0  0  0  0  0
    1.5309  -16.8313   -6.8915 H   0  0  0  0  0  0
    2.4827  -12.7184   -7.0761 H   0  0  0  0  0  0
    4.6374  -18.5978   -8.3180 H   0  0  0  0  0  0
    6.3687  -20.1566  -10.3726 H   0  0  0  0  0  0
    7.4183  -19.1210   -8.1415 H   0  0  0  0  0  0
    6.5632  -20.4879   -7.3497 H   0  0  0  0  0  0
    7.8897  -22.0768   -8.4032 H   0  0  0  0  0  0
    8.4902  -20.9056   -9.6257 H   0  0  0  0  0  0
   10.1707  -21.3841   -7.8402 H   0  0  0  0  0  0
    9.6855  -19.6553   -7.8872 H   0  0  0  0  0  0
    8.8933  -19.8064   -5.6618 H   0  0  0  0  0  0
    9.1039  -23.1000   -7.2344 H   0  0  0  0  0  0
    8.6965  -23.9662   -5.5871 H   0  0  0  0  0  0
    8.4514  -20.8326   -3.7525 H   0  0  0  0  0  0
    5.5582  -22.2102  -10.8471 H   0  0  0  0  0  0
    3.0473  -22.7886   -9.2591 H   0  0  0  0  0  0
    4.1842  -23.8510  -11.8593 H   0  0  0  0  0  0
    2.8119  -24.6613  -11.0304 H   0  0  0  0  0  0
    2.6471  -24.2120   -7.9149 H   0  0  0  0  0  0
    3.1086  -25.7162   -6.2080 H   0  0  0  0  0  0
    4.1576  -27.4764   -7.3077 H   0  0  0  0  0  0
    5.5683  -26.4791   -7.7995 H   0  0  0  0  0  0
    6.5586  -26.6774   -5.6853 H   0  0  0  0  0  0
    4.6067  -26.4905   -4.2267 H   0  0  0  0  0  0
    5.6463  -27.8894   -3.7920 H   0  0  0  0  0  0
    4.1061  -28.1558   -4.6771 H   0  0  0  0  0  0
    6.7380  -28.5858   -7.3050 H   0  0  0  0  0  0
    5.3549  -29.3825   -6.4810 H   0  0  0  0  0  0
    6.8951  -29.1161   -5.5959 H   0  0  0  0  0  0
    3.0591  -24.4004   -4.4594 H   0  0  0  0  0  0
    4.5937  -23.4795   -3.8061 H   0  0  0  0  0  0
  1  2  1  0  0  0
  1112  1  0  0  0
  1113  1  0  0  0
  1114  1  0  0  0
  2  3  1  0  0  0
  2115  1  0  0  0
  2116  1  0  0  0
  3  4  2  0  0  0
  3  6  1  0  0  0
  5  7  1  0  0  0
  5 12  2  0  0  0
  5 21  1  0  0  0
  6  7  1  0  0  0
  6117  1  0  0  0
  7  8  1  0  0  0
  7118  1  0  0  0
  8  9  1  0  0  0
  8119  1  0  0  0
  8120  1  0  0  0
  9 10  2  0  0  0
  9 11  1  0  0  0
 11 13  1  0  0  0
 11 14  1  0  0  0
 13 18  1  0  0  0
 13121  1  0  0  0
 13122  1  0  0  0
 14 15  1  0  0  0
 14123  1  0  0  0
 14124  1  0  0  0
 15 16  1  0  0  0
 15125  1  0  0  0
 15126  1  0  0  0
 16 17  1  0  0  0
 16127  1  0  0  0
 16128  1  0  0  0
 17 58  1  0  0  0
 18 19  1  0  0  0
 18129  1  0  0  0
 18130  1  0  0  0
 19 20  1  0  0  0
 19131  1  0  0  0
 19132  1  0  0  0
 20102  1  0  0  0
 21 22  1  0  0  0
 21133  1  0  0  0
 22 23  1  0  0  0
 22 25  1  0  0  0
 22134  1  0  0  0
 23 24  2  0  0  0
 23 26  1  0  0  0
 25135  1  0  0  0
 25136  1  0  0  0
 25137  1  0  0  0
 26 27  1  0  0  0
 26138  1  0  0  0
 27 28  1  0  0  0
 27 30  1  0  0  0
 27139  1  0  0  0
 28 29  2  0  0  0
 28 34  1  0  0  0
 30 31  1  0  0  0
 30140  1  0  0  0
 30141  1  0  0  0
 31 32  1  0  0  0
 31 33  1  0  0  0
 31142  1  0  0  0
 32143  1  0  0  0
 32144  1  0  0  0
 32145  1  0  0  0
 33146  1  0  0  0
 33147  1  0  0  0
 33148  1  0  0  0
 34 35  1  0  0  0
 34149  1  0  0  0
 35 36  1  0  0  0
 35150  1  0  0  0
 35151  1  0  0  0
 36 37  2  0  0  0
 36 38  1  0  0  0
 38 39  1  0  0  0
 38152  1  0  0  0
 39 40  1  0  0  0
 39 42  1  0  0  0
 39153  1  0  0  0
 40 41  2  0  0  0
 40 49  1  0  0  0
 42 43  1  0  0  0
 42154  1  0  0  0
 42155  1  0  0  0
 43 44  1  0  0  0
 43156  1  0  0  0
 43157  1  0  0  0
 44 45  1  0  0  0
 44158  1  0  0  0
 44159  1  0  0  0
 45 46  1  0  0  0
 45160  1  0  0  0
 46 47  1  0  0  0
 46 48  2  0  0  0
 47161  1  0  0  0
 47162  1  0  0  0
 48163  1  0  0  0
 49 50  1  0  0  0
 49164  1  0  0  0
 50 51  1  0  0  0
 50165  1  0  0  0
 50166  1  0  0  0
 51 52  2  0  0  0
 51 53  1  0  0  0
 53 54  1  0  0  0
 53167  1  0  0  0
 54 55  1  0  0  0
 54 57  1  0  0  0
 54168  1  0  0  0
 55 56  2  0  0  0
 55 59  1  0  0  0
 57 58  1  0  0  0
 57169  1  0  0  0
 57170  1  0  0  0
 59 60  1  0  0  0
 59171  1  0  0  0
 60 61  1  0  0  0
 60 63  1  0  0  0
 60172  1  0  0  0
 61 62  2  0  0  0
 61 68  1  0  0  0
 63 64  1  0  0  0
 63173  1  0  0  0
 63174  1  0  0  0
 64 65  1  0  0  0
 64175  1  0  0  0
 64176  1  0  0  0
 65 66  1  0  0  0
 65 67  2  0  0  0
 66177  1  0  0  0
 68 69  1  0  0  0
 68178  1  0  0  0
 69 70  1  0  0  0
 69 72  1  0  0  0
 69179  1  0  0  0
 70 71  2  0  0  0
 70 76  1  0  0  0
 72 73  1  0  0  0
 72180  1  0  0  0
 72181  1  0  0  0
 73 74  2  0  0  0
 73 75  1  0  0  0
 75182  1  0  0  0
 75183  1  0  0  0
 76 77  1  0  0  0
 76184  1  0  0  0
 77 78  1  0  0  0
 77 80  1  0  0  0
 77185  1  0  0  0
 78 79  2  0  0  0
 78 86  1  0  0  0
 80 81  1  0  0  0
 80186  1  0  0  0
 80187  1  0  0  0
 81 82  2  0  0  0
 81 83  1  0  0  0
 82 84  1  0  0  0
 83 85  2  0  0  0
 83188  1  0  0  0
 84 85  1  0  0  0
 84189  1  0  0  0
 86 87  1  0  0  0
 86190  1  0  0  0
 87 88  1  0  0  0
 87 90  1  0  0  0
 87191  1  0  0  0
 88 89  2  0  0  0
 88 97  1  0  0  0
 90 91  1  0  0  0
 90192  1  0  0  0
 90193  1  0  0  0
 91 92  1  0  0  0
 91194  1  0  0  0
 91195  1  0  0  0
 92 93  1  0  0  0
 92196  1  0  0  0
 92197  1  0  0  0
 93 94  1  0  0  0
 93198  1  0  0  0
 94 95  1  0  0  0
 94 96  2  0  0  0
 95199  1  0  0  0
 95200  1  0  0  0
 96201  1  0  0  0
 97 98  1  0  0  0
 97202  1  0  0  0
 98 99  1  0  0  0
 98101  1  0  0  0
 98203  1  0  0  0
 99100  2  0  0  0
 99103  1  0  0  0
101102  1  0  0  0
101204  1  0  0  0
101205  1  0  0  0
103104  1  0  0  0
103206  1  0  0  0
104105  1  0  0  0
104107  1  0  0  0
104207  1  0  0  0
105106  2  0  0  0
105111  1  0  0  0
107108  1  0  0  0
107208  1  0  0  0
107209  1  0  0  0
108109  1  0  0  0
108110  1  0  0  0
108210  1  0  0  0
109211  1  0  0  0
109212  1  0  0  0
109213  1  0  0  0
110214  1  0  0  0
110215  1  0  0  0
110216  1  0  0  0
111217  1  0  0  0
111218  1  0  0  0
M  CHG  1   1   1
M  END
> <s_m_source_file>
../4os7_ligand.sdf

> <i_m_source_file_index>
1

> <s_epik_input>
W05IMytdW0NIMl1DKD1PKVtOSF1bQ0BASF0oW0NIMl1DKD1PKU4xMilDKD1PKVtOSF1bQ0BASF0oW0NIM10pQyg9TylbTkhdW0NAQEhdKFtDSDJdW0NIXShbQ0gzXSlbQ0gzXSlDKD1PKVtOSF1bQ0gyXUMoPU8pW05IXVtDQEBIXShbQ0gyXVtDSDJdW0NIMl1bTkhdL0MoW05IMl0pPU5cW0hdKUMoPU8pW05IXVtDSDJdQyg9TylbTkhdW0NAQEhdKFtDSDJdU1NbQ0gyXVtDSDJdW0NIMl0yKUMoPU8pW05IXVtDQEBIXShbQ0gyXVtDSDJdQyg9TylbT0hdKUMoPU8pW05IXVtDQEBIXShbQ0gyXUMoPU8pW05IMl0pQyg9TylbTkhdW0NAQEhdKFtDSDJdQzM9TltDSDJdTj1bQ0hdMylDKD1PKVtOSF1bQ0BASF0oW0NIMl1bQ0gyXVtDSDJdW05IXS9DKFtOSDJdKT1OXFtIXSlDKD1PKVtOSF1bQ0BIXShDKD1PKVtOSF1bQ0BIXShDKD1PKVtOSDJdKVtDSDJdW0NIXShbQ0gzXSlbQ0gzXSlbQ0gyXVNTW0NIMl1bQ0gyXVtDSDJdMQ==

> <s_epik_cmdline>
J2VwaWtfYXBwJywgJy1pbWFlJywgJ2xpZ2FuZF9wcm8ubWFlJywgJy1vbWFlJywgJ2xpZ2FuZF9wcmVwLm1hZScsICctbXMnLCAnMScsICctcGgnLCAnNycsICctcGh0JywgJzAuNScsICctbnQn

> <s_epik_pKa_notes>
Molecule size exceeds maximum supported for generating protonation states

> <s_epik_Chemistry_Notes>
This compound has an imine and may undergo hydrolysis.

$$$$
