4osf_ligand
                    3D
 Schrodinger Suite 2020-3.
 23 23  0  0  1  0            999 V2000
   52.1800  -14.1370   -2.1680 O   0  0  0  0  0  0
   52.7870  -14.2640   -3.4140 C   0  0  0  0  0  0
   52.0640  -14.7780   -4.5130 C   0  0  0  0  0  0
   52.6850  -14.9200   -5.7500 C   0  0  0  0  0  0
   54.0120  -14.5580   -5.8920 C   0  0  0  0  0  0
   54.7110  -14.7210   -7.2210 C   0  0  0  0  0  0
   54.2360  -13.6870   -8.2440 C   0  0  0  0  0  0
   54.3620  -12.4070   -7.6200 N   0  0  0  0  0  0
   55.3160  -11.4770   -8.0970 C   0  0  0  0  0  0
   56.4590  -11.9150   -9.2440 S   0  0  0  0  0  0
   54.7320  -14.0490   -4.7900 C   0  0  0  0  0  0
   54.1160  -13.9040   -3.5610 C   0  0  0  0  0  0
   51.1248  -14.4198   -2.0389 H   0  0  0  0  0  0
   51.0191  -15.0636   -4.3921 H   0  0  0  0  0  0
   52.1294  -15.3138   -6.6011 H   0  0  0  0  0  0
   55.7952  -14.5968   -7.0827 H   0  0  0  0  0  0
   54.5052  -15.7240   -7.6230 H   0  0  0  0  0  0
   54.8640  -13.7474   -9.1451 H   0  0  0  0  0  0
   53.1889  -13.8910   -8.5125 H   0  0  0  0  0  0
   53.7171  -12.1444   -6.7684 H   0  0  0  0  0  0
   55.2988  -10.4506   -7.7017 H   0  0  0  0  0  0
   55.7787  -13.7689   -4.9085 H   0  0  0  0  0  0
   54.6735  -13.5083   -2.7120 H   0  0  0  0  0  0
  1  2  1  0  0  0
  1 13  1  0  0  0
  2  3  2  0  0  0
  2 12  1  0  0  0
  3  4  1  0  0  0
  3 14  1  0  0  0
  4  5  2  0  0  0
  4 15  1  0  0  0
  5  6  1  0  0  0
  5 11  1  0  0  0
  6  7  1  0  0  0
  6 16  1  0  0  0
  6 17  1  0  0  0
  7  8  1  0  0  0
  7 18  1  0  0  0
  7 19  1  0  0  0
  8  9  1  0  0  0
  8 20  1  0  0  0
  9 10  2  0  0  0
  9 21  1  0  0  0
 11 12  2  0  0  0
 11 22  1  0  0  0
 12 23  1  0  0  0
M  END
> <s_m_source_file>
../4osf_ligand.sdf

> <i_m_source_file_index>
1

> <s_epik_input>
W09IXWMxW2NIXVtjSF1jKFtjSF1bY0hdMSlbQ0gyXVtDSDJdW05IXVtDSF09Uw==

> <s_epik_cmdline>
J2VwaWtfYXBwJywgJy1pbWFlJywgJ2xpZ2FuZF9wcm8ubWFlJywgJy1vbWFlJywgJ2xpZ2FuZF9wcmVwLm1hZScsICctbXMnLCAnMScsICctcGgnLCAnNycsICctcGh0JywgJzAuNScsICctbnQn

> <r_lp_tautomer_probability>
1

> <r_epik_Ionization_Penalty>
  0.0005

> <r_epik_Ionization_Penalty_Charging>
  0.0000

> <r_epik_Ionization_Penalty_Neutral>
  0.0005

> <r_epik_State_Penalty>
 -0.0000

> <r_epik_Charging_Adjusted_Penalty>
0

> <i_epik_Tot_Q>
0

> <i_epik_Tot_abs_Q>
0

$$$$
