4otf_ligand
                    3D
 Schrodinger Suite 2020-3.
 79 84  0  0  1  0            999 V2000
  -38.0710   27.6490   -6.9500 C   0  0  0  0  0  0
  -39.0470   27.7390   -8.1150 C   0  0  0  0  0  0
  -38.5930   27.9920   -9.4330 C   0  0  0  0  0  0
  -39.5310   28.0750  -10.4670 C   0  0  0  0  0  0
  -40.8890   27.8930  -10.2090 C   0  0  0  0  0  0
  -41.3330   27.6380   -8.9200 C   0  0  0  0  0  0
  -40.4180   27.5750   -7.8700 C   0  0  0  0  0  0
  -40.7930   27.2790   -6.5470 N   0  0  0  0  0  0
  -40.9360   28.2000   -5.5720 C   0  0  0  0  0  0
  -40.7690   29.3790   -5.8020 O   0  0  0  0  0  0
  -41.2090   27.8130   -4.1910 C   0  0  0  0  0  0
  -41.0330   26.5940   -3.5870 C   0  0  0  0  0  0
  -41.3300   26.6070   -2.2150 C   0  0  0  0  0  0
  -41.7170   27.8170   -1.7390 C   0  0  0  0  0  0
  -41.6900   28.9810   -2.9850 S   0  0  0  0  0  0
  -42.0950   28.1250   -0.2880 C   0  0  0  0  0  0
  -42.2830   26.8220    0.4980 C   0  0  0  0  0  0
  -41.1320   25.8550    0.1600 C   0  0  0  0  0  0
  -41.2620   25.3860   -1.2970 C   0  0  0  0  0  0
  -37.1590   28.1990   -9.7950 C   0  0  0  0  0  0
  -36.2940   28.8770   -8.9750 C   0  0  0  0  0  0
  -34.9860   29.0660   -9.3240 N   0  0  0  0  0  0
  -34.5280   28.6080  -10.5120 C   0  0  0  0  0  0
  -33.3630   28.7550  -10.8950 O   0  0  0  0  0  0
  -35.4660   27.8850  -11.3630 C   0  0  0  0  0  0
  -36.7140   27.7060  -10.9720 N   0  0  0  0  0  0
  -34.9550   27.4120  -12.5510 N   0  0  0  0  0  0
  -35.6630   26.9530  -13.6680 C   0  0  0  0  0  0
  -37.0420   26.7700  -13.7010 C   0  0  0  0  0  0
  -37.6400   26.2970  -14.8730 C   0  0  0  0  0  0
  -36.8630   26.0130  -15.9910 C   0  0  0  0  0  0
  -35.4930   26.1900  -15.9590 C   0  0  0  0  0  0
  -34.8960   26.6650  -14.7990 C   0  0  0  0  0  0
  -37.4780   25.5030  -17.2730 C   0  0  2  0  0  0
  -38.5420   26.4780  -17.7000 C   0  0  0  0  0  0
  -38.1800   27.5950  -18.0160 O   0  0  0  0  0  0
  -39.8490   26.1520  -17.7110 N   0  0  0  0  0  0
  -40.3040   24.8120  -17.3350 C   0  0  0  0  0  0
  -39.2260   23.7920  -17.7190 C   0  0  0  0  0  0
  -37.9810   24.1430  -17.0020 N   0  0  1  0  0  0
  -36.9140   23.1410  -17.1520 C   0  0  0  0  0  0
  -40.8610   27.1380  -18.1260 C   0  0  0  0  0  0
  -34.0870   29.7850   -8.4060 C   0  0  0  0  0  0
  -37.0456   27.8002   -7.3183 H   0  0  0  0  0  0
  -38.1498   26.6569   -6.4815 H   0  0  0  0  0  0
  -38.3125   28.4249   -6.2086 H   0  0  0  0  0  0
  -39.1975   28.2838  -11.4835 H   0  0  0  0  0  0
  -41.6074   27.9516  -11.0267 H   0  0  0  0  0  0
  -42.3953   27.4871   -8.7283 H   0  0  0  0  0  0
  -40.9909   26.2382   -6.2512 H   0  0  0  0  0  0
  -40.6962   25.7043   -4.1191 H   0  0  0  0  0  0
  -41.2953   28.7166    0.1815 H   0  0  0  0  0  0
  -43.0345   28.6968   -0.2673 H   0  0  0  0  0  0
  -42.2770   27.0401    1.5762 H   0  0  0  0  0  0
  -43.2437   26.3627    0.2221 H   0  0  0  0  0  0
  -40.1693   26.3702    0.2930 H   0  0  0  0  0  0
  -41.1769   24.9833    0.8294 H   0  0  0  0  0  0
  -42.1789   24.7893   -1.4120 H   0  0  0  0  0  0
  -40.3894   24.7729   -1.5664 H   0  0  0  0  0  0
  -36.6565   29.2730   -8.0264 H   0  0  0  0  0  0
  -33.8664   27.3644  -12.7013 H   0  0  0  0  0  0
  -37.6489   26.9928  -12.8234 H   0  0  0  0  0  0
  -38.7194   26.1503  -14.9106 H   0  0  0  0  0  0
  -34.8873   25.9591  -16.8353 H   0  0  0  0  0  0
  -33.8167   26.8148  -14.7707 H   0  0  0  0  0  0
  -36.7703   25.4101  -18.1100 H   0  0  0  0  0  0
  -40.4791   24.7754  -16.2496 H   0  0  0  0  0  0
  -41.2394   24.5801  -17.8653 H   0  0  0  0  0  0
  -39.5565   22.7832  -17.4308 H   0  0  0  0  0  0
  -39.0589   23.8266  -18.8057 H   0  0  0  0  0  0
  -36.0235   23.4675  -16.5949 H   0  0  0  0  0  0
  -36.6607   23.0317  -18.2168 H   0  0  0  0  0  0
  -37.2602   22.1747  -16.7564 H   0  0  0  0  0  0
  -40.3664   28.0884  -18.3750 H   0  0  0  0  0  0
  -41.5738   27.2999  -17.3040 H   0  0  0  0  0  0
  -41.3987   26.7621  -19.0089 H   0  0  0  0  0  0
  -34.6416   30.0739   -7.5011 H   0  0  0  0  0  0
  -33.7006   30.6871   -8.9029 H   0  0  0  0  0  0
  -33.2472   29.1311   -8.1282 H   0  0  0  0  0  0
  1  2  1  0  0  0
  1 44  1  0  0  0
  1 45  1  0  0  0
  1 46  1  0  0  0
  2  3  2  0  0  0
  2  7  1  0  0  0
  3  4  1  0  0  0
  3 20  1  0  0  0
  4  5  2  0  0  0
  4 47  1  0  0  0
  5  6  1  0  0  0
  5 48  1  0  0  0
  6  7  2  0  0  0
  6 49  1  0  0  0
  7  8  1  0  0  0
  8  9  1  0  0  0
  8 50  1  0  0  0
  9 10  2  0  0  0
  9 11  1  0  0  0
 11 12  2  0  0  0
 11 15  1  0  0  0
 12 13  1  0  0  0
 12 51  1  0  0  0
 13 14  2  0  0  0
 13 19  1  0  0  0
 14 15  1  0  0  0
 14 16  1  0  0  0
 16 17  1  0  0  0
 16 52  1  0  0  0
 16 53  1  0  0  0
 17 18  1  0  0  0
 17 54  1  0  0  0
 17 55  1  0  0  0
 18 19  1  0  0  0
 18 56  1  0  0  0
 18 57  1  0  0  0
 19 58  1  0  0  0
 19 59  1  0  0  0
 20 21  2  0  0  0
 20 26  1  0  0  0
 21 22  1  0  0  0
 21 60  1  0  0  0
 22 23  1  0  0  0
 22 43  1  0  0  0
 23 24  2  0  0  0
 23 25  1  0  0  0
 25 26  2  0  0  0
 25 27  1  0  0  0
 27 28  1  0  0  0
 27 61  1  0  0  0
 28 29  2  0  0  0
 28 33  1  0  0  0
 29 30  1  0  0  0
 29 62  1  0  0  0
 30 31  2  0  0  0
 30 63  1  0  0  0
 31 32  1  0  0  0
 31 34  1  0  0  0
 32 33  2  0  0  0
 32 64  1  0  0  0
 33 65  1  0  0  0
 34 35  1  0  0  0
 34 40  1  0  0  0
 34 66  1  0  0  0
 35 36  2  0  0  0
 35 37  1  0  0  0
 37 38  1  0  0  0
 37 42  1  0  0  0
 38 39  1  0  0  0
 38 67  1  0  0  0
 38 68  1  0  0  0
 39 40  1  0  0  0
 39 69  1  0  0  0
 39 70  1  0  0  0
 40 41  1  0  0  0
 41 71  1  0  0  0
 41 72  1  0  0  0
 41 73  1  0  0  0
 42 74  1  0  0  0
 42 75  1  0  0  0
 42 76  1  0  0  0
 43 77  1  0  0  0
 43 78  1  0  0  0
 43 79  1  0  0  0
M  END
> <s_m_source_file>
../4otf_ligand.sdf

> <i_m_source_file_index>
1

> <s_epik_input>
W0NIMl0xW0NIMl1bQ0gyXVtDSDJdYyhjMTIpc2MoW2NIXTIpQyg9TylbTkhdYzNbY0hdW2NIXVtjSF1jKGMzW0NIM10pLWM0W2NIXW4oW0NIM10pYyg9TyljKG40KVtOSF1jNVtjSF1bY0hdYyhbY0hdW2NIXTUpW0NAQEhdNkMoPU8pTihbQ0gzXSlbQ0gyXVtDSDJdW05ASCtdNltDSDNd

> <s_epik_cmdline>
J2VwaWtfYXBwJywgJy1pbWFlJywgJ2xpZ2FuZF9wcm8ubWFlJywgJy1vbWFlJywgJ2xpZ2FuZF9wcmVwLm1hZScsICctbXMnLCAnMScsICctcGgnLCAnNycsICctcGh0JywgJzAuNScsICctbnQn

> <r_lp_tautomer_probability>
1

> <r_epik_Ionization_Penalty>
  0.0733

> <r_epik_Ionization_Penalty_Charging>
  0.0000

> <r_epik_Ionization_Penalty_Neutral>
  0.0733

> <r_epik_State_Penalty>
  0.0604

> <r_epik_Charging_Adjusted_Penalty>
0.0604488337437427

> <i_epik_Tot_Q>
0

> <i_epik_Tot_abs_Q>
0

$$$$
