4oty_ligand
                    3D
 Schrodinger Suite 2020-3.
 32 33  0  0  1  0            999 V2000
  -17.6450   38.1710   27.9330 O   0  0  0  0  0  0
  -16.8490   38.8740   27.3340 C   0  0  0  0  0  0
  -15.9400   39.5580   28.0230 O   0  5  0  0  0  0
  -16.8980   38.9750   25.8320 C   0  0  0  0  0  0
  -17.4930   40.3050   25.4400 C   0  0  0  0  0  0
  -18.8360   40.4070   25.1100 C   0  0  0  0  0  0
  -19.3650   41.6410   24.7500 C   0  0  0  0  0  0
  -20.8240   41.7410   24.3930 C   0  0  0  0  0  0
  -18.5620   42.7800   24.7140 C   0  0  0  0  0  0
  -17.2100   42.7280   25.0420 C   0  0  0  0  0  0
  -16.6380   41.5160   25.4060 C   0  0  0  0  0  0
  -15.3290   41.4100   25.7310 N   0  0  0  0  0  0
  -14.4420   42.4170   25.5670 C   0  0  0  0  0  0
  -13.7980   43.0570   26.7370 C   0  0  0  0  0  0
  -14.2020   42.5100   28.3960 Cl  0  0  0  0  0  0
  -12.8830   44.0820   26.5340 C   0  0  0  0  0  0
  -12.5650   44.5100   25.2460 C   0  0  0  0  0  0
  -13.1390   43.9370   24.1110 C   0  0  0  0  0  0
  -14.0630   42.9040   24.2190 C   0  0  0  0  0  0
  -14.6130   42.3590   23.1210 F   0  0  0  0  0  0
  -15.8791   38.8936   25.4256 H   0  0  0  0  0  0
  -17.5192   38.1611   25.4298 H   0  0  0  0  0  0
  -19.4740   39.5235   25.1328 H   0  0  0  0  0  0
  -21.2911   40.7488   24.4781 H   0  0  0  0  0  0
  -20.9246   42.1063   23.3603 H   0  0  0  0  0  0
  -21.3223   42.4410   25.0797 H   0  0  0  0  0  0
  -19.0028   43.7332   24.4223 H   0  0  0  0  0  0
  -16.6038   43.6335   25.0133 H   0  0  0  0  0  0
  -14.9409   40.4703   26.1509 H   0  0  0  0  0  0
  -12.4079   44.5574   27.3921 H   0  0  0  0  0  0
  -11.8446   45.3185   25.1217 H   0  0  0  0  0  0
  -12.8586   44.3050   23.1240 H   0  0  0  0  0  0
  1  2  2  0  0  0
  2  3  1  0  0  0
  2  4  1  0  0  0
  4  5  1  0  0  0
  4 21  1  0  0  0
  4 22  1  0  0  0
  5  6  2  0  0  0
  5 11  1  0  0  0
  6  7  1  0  0  0
  6 23  1  0  0  0
  7  8  1  0  0  0
  7  9  2  0  0  0
  8 24  1  0  0  0
  8 25  1  0  0  0
  8 26  1  0  0  0
  9 10  1  0  0  0
  9 27  1  0  0  0
 10 11  2  0  0  0
 10 28  1  0  0  0
 11 12  1  0  0  0
 12 13  1  0  0  0
 12 29  1  0  0  0
 13 14  2  0  0  0
 13 19  1  0  0  0
 14 15  1  0  0  0
 14 16  1  0  0  0
 16 17  2  0  0  0
 16 30  1  0  0  0
 17 18  1  0  0  0
 17 31  1  0  0  0
 18 19  2  0  0  0
 18 32  1  0  0  0
 19 20  1  0  0  0
M  CHG  1   3  -1
M  END
> <s_m_source_file>
../4oty_ligand.sdf

> <i_m_source_file_index>
1

> <s_epik_input>
Tz1DKFtPSF0pW0NIMl1jMVtjSF1jKFtDSDNdKVtjSF1bY0hdYzFbTkhdYzJjKENsKVtjSF1bY0hdW2NIXWMyRg==

> <s_epik_cmdline>
J2VwaWtfYXBwJywgJy1pbWFlJywgJ2xpZ2FuZF9wcm8ubWFlJywgJy1vbWFlJywgJ2xpZ2FuZF9wcmVwLm1hZScsICctbXMnLCAnMScsICctcGgnLCAnNycsICctcGh0JywgJzAuNScsICctbnQn

> <r_lp_tautomer_probability>
1

> <r_epik_Ionization_Penalty>
  0.0024

> <r_epik_Ionization_Penalty_Charging>
  0.0024

> <r_epik_Ionization_Penalty_Neutral>
  0.0000

> <r_epik_State_Penalty>
 -0.0000

> <r_epik_Charging_Adjusted_Penalty>
0.00235849812090343

> <i_epik_Tot_Q>
-1

> <i_epik_Tot_abs_Q>
1

$$$$
