4ouj_ligand
                    3D
 Schrodinger Suite 2020-3.
 45 46  0  0  1  0            999 V2000
   57.9730   14.7360    5.6610 C   0  0  2  0  0  0
   58.8050   14.8060    6.9270 C   0  0  1  0  0  0
   60.1750   14.2730    6.7260 C   0  0  2  0  0  0
   60.2390   12.9210    6.0730 C   0  0  2  0  0  0
   59.3850   12.9280    4.8250 C   0  0  1  0  0  0
   59.2750   11.5860    4.1310 C   0  0  0  0  0  0
   56.6440   15.0530    5.9230 O   0  0  0  0  0  0
   58.8740   16.1680    7.3280 O   0  0  0  0  0  0
   60.9680   14.3710    7.9690 O   0  0  0  0  0  0
   59.6610   12.0200    6.9740 O   0  0  0  0  0  0
   58.0280   13.3620    5.1420 O   0  0  0  0  0  0
   60.4690   11.1320    3.6310 O   0  0  0  0  0  0
   53.3160   16.1740    3.8650 C   0  0  1  0  0  0
   53.9610   14.8690    3.4320 C   0  0  1  0  0  0
   54.8910   14.4150    4.4540 C   0  0  2  0  0  0
   55.9100   15.4350    4.7540 C   0  0  1  0  0  0
   55.2770   16.7710    5.1050 C   0  0  1  0  0  0
   56.2660   17.8910    5.4040 C   0  0  0  0  0  0
   52.6160   16.0060    5.0280 O   0  0  0  0  0  0
   52.9440   13.9080    3.2380 O   0  0  0  0  0  0
   55.5050   13.2810    3.9500 O   0  0  0  0  0  0
   54.3490   17.1920    4.0800 O   0  0  0  0  0  0
   55.8000   18.8930    6.2510 O   0  0  0  0  0  0
   58.3017   15.4700    4.9106 H   0  0  0  0  0  0
   58.3421   14.2272    7.7399 H   0  0  0  0  0  0
   60.6504   14.9412    5.9929 H   0  0  0  0  0  0
   61.2713   12.6050    5.8619 H   0  0  0  0  0  0
   59.8652   13.6448    4.1427 H   0  0  0  0  0  0
   58.9079   10.8334    4.8443 H   0  0  0  0  0  0
   58.5727   11.6655    3.2881 H   0  0  0  0  0  0
   57.9496   16.7312    7.5239 H   0  0  0  0  0  0
   60.9942   15.3159    8.5316 H   0  0  0  0  0  0
   60.1222   11.8549    7.9589 H   0  0  0  0  0  0
   60.5137   10.1668    3.1052 H   0  0  0  0  0  0
   52.5658   16.5230    3.1401 H   0  0  0  0  0  0
   54.5117   14.9518    2.4834 H   0  0  0  0  0  0
   54.3590   14.1577    5.3818 H   0  0  0  0  0  0
   56.5708   15.4825    3.8759 H   0  0  0  0  0  0
   54.6887   16.5972    6.0180 H   0  0  0  0  0  0
   57.1616   17.4706    5.8848 H   0  0  0  0  0  0
   56.5526   18.3874    4.4652 H   0  0  0  0  0  0
   51.7911   15.2797    5.0734 H   0  0  0  0  0  0
   52.1509   14.0884    2.4975 H   0  0  0  0  0  0
   54.8994   12.4074    3.6670 H   0  0  0  0  0  0
   56.4535   19.7373    6.5159 H   0  0  0  0  0  0
  1  2  1  0  0  0
  1  7  1  0  0  0
  1 11  1  0  0  0
  1 24  1  0  0  0
  2  3  1  0  0  0
  2  8  1  0  0  0
  2 25  1  0  0  0
  3  4  1  0  0  0
  3  9  1  0  0  0
  3 26  1  0  0  0
  4  5  1  0  0  0
  4 10  1  0  0  0
  4 27  1  0  0  0
  5  6  1  0  0  0
  5 11  1  0  0  0
  5 28  1  0  0  0
  6 12  1  0  0  0
  6 29  1  0  0  0
  6 30  1  0  0  0
  7 16  1  0  0  0
  8 31  1  0  0  0
  9 32  1  0  0  0
 10 33  1  0  0  0
 12 34  1  0  0  0
 13 14  1  0  0  0
 13 19  1  0  0  0
 13 22  1  0  0  0
 13 35  1  0  0  0
 14 15  1  0  0  0
 14 20  1  0  0  0
 14 36  1  0  0  0
 15 16  1  0  0  0
 15 21  1  0  0  0
 15 37  1  0  0  0
 16 17  1  0  0  0
 16 38  1  0  0  0
 17 18  1  0  0  0
 17 22  1  0  0  0
 17 39  1  0  0  0
 18 23  1  0  0  0
 18 40  1  0  0  0
 18 41  1  0  0  0
 19 42  1  0  0  0
 20 43  1  0  0  0
 21 44  1  0  0  0
 23 45  1  0  0  0
M  END
> <s_m_source_file>
../4ouj_ligand.sdf

> <i_m_source_file_index>
1

> <s_epik_input>
W09IXVtDQEBIXTFbQ0BIXShbT0hdKVtDQEBIXShbT0hdKVtDQEBIXShbQ0BIXShPMSlbQ0gyXVtPSF0pT1tDQEhdMltDQEhdKFtPSF0pW0NAQEhdKFtPSF0pW0NAQEhdKFtPSF0pW0NASF0oTzIpW0NIMl1bT0hd

> <s_epik_cmdline>
J2VwaWtfYXBwJywgJy1pbWFlJywgJ2xpZ2FuZF9wcm8ubWFlJywgJy1vbWFlJywgJ2xpZ2FuZF9wcmVwLm1hZScsICctbXMnLCAnMScsICctcGgnLCAnNycsICctcGh0JywgJzAuNScsICctbnQn

> <r_lp_tautomer_probability>
1

> <r_epik_Ionization_Penalty>
  0.0000

> <r_epik_Ionization_Penalty_Charging>
  0.0000

> <r_epik_Ionization_Penalty_Neutral>
  0.0000

> <r_epik_State_Penalty>
 -0.0000

> <r_epik_Charging_Adjusted_Penalty>
0

> <i_epik_Tot_Q>
0

> <i_epik_Tot_abs_Q>
0

> <s_epik_Chemistry_Notes>
This compound contains an acetal/aminal-like group ( X-CH(R)-Y where X, Y are N, S, or O) that may be acid/base labile, releasing an aldehyde.

$$$$
