4ov5_ligand
                    3D
 Schrodinger Suite 2020-3.
224227  0  0  1  0            999 V2000
   48.2600   -8.3350   38.1640 N   0  3  0  0  0  0
   47.7750   -8.5230   36.8090 C   0  0  0  0  0  0
   46.6190   -9.5010   36.7440 C   0  0  0  0  0  0
   46.7800  -10.6390   36.2990 O   0  0  0  0  0  0
   45.4470   -9.0550   37.1850 N   0  0  0  0  0  0
   44.2630   -9.9060   37.2140 C   0  0  2  0  0  0
   43.4380   -9.7810   35.9360 C   0  0  0  0  0  0
   42.2100   -9.7280   35.9810 O   0  0  0  0  0  0
   43.3980   -9.5750   38.4300 C   0  0  0  0  0  0
   42.9410   -8.2350   38.3780 O   0  0  0  0  0  0
   44.1210   -9.7340   34.7980 N   0  0  0  0  0  0
   43.4460   -9.6710   33.5090 C   0  0  2  0  0  0
   43.2830  -11.0660   32.9240 C   0  0  0  0  0  0
   44.1670  -11.9110   33.0560 O   0  0  0  0  0  0
   44.2330   -8.7900   32.5350 C   0  0  0  0  0  0
   45.6570   -9.2740   32.3270 C   0  0  0  0  0  0
   46.2560   -9.8020   33.2890 O   0  0  0  0  0  0
   46.1790   -9.1270   31.2020 O   0  0  0  0  0  0
   42.1440  -11.3110   32.2850 N   0  0  0  0  0  0
   41.9560  -12.5480   31.5440 C   0  0  2  0  0  0
   42.6480  -12.4040   30.1990 C   0  0  0  0  0  0
   42.2500  -11.5850   29.3740 O   0  0  0  0  0  0
   40.4800  -12.8420   31.3560 C   0  0  0  0  0  0
   43.6960  -13.1900   29.9820 N   0  0  0  0  0  0
   44.4340  -13.1220   28.7270 C   0  0  2  0  0  0
   43.7260  -13.9010   27.6270 C   0  0  0  0  0  0
   42.9620  -14.8280   27.8990 O   0  0  0  0  0  0
   45.8650  -13.6290   28.9120 C   0  0  0  0  0  0
   46.7060  -12.7520   29.8240 C   0  0  0  0  0  0
   48.0850  -13.3440   30.0410 C   0  0  0  0  0  0
   48.8300  -12.6260   31.0700 N   0  0  0  0  0  0
   49.9350  -13.0840   31.6490 C   0  0  0  0  0  0
   50.4250  -14.2670   31.3040 N   0  0  0  0  0  0
   50.5460  -12.3630   32.5780 N   0  0  0  0  0  0
   43.9810  -13.5130   26.3840 N   0  0  0  0  0  0
   43.3530  -14.1550   25.2390 C   0  0  2  0  0  0
   44.3760  -14.4010   24.1380 C   0  0  0  0  0  0
   45.4320  -13.7690   24.1070 O   0  0  0  0  0  0
   42.2070  -13.2910   24.7040 C   0  0  0  0  0  0
   42.6570  -11.9900   24.0990 C   0  0  0  0  0  0
   42.9800  -10.9090   24.9040 C   0  0  0  0  0  0
   42.7510  -11.8440   22.7240 C   0  0  0  0  0  0
   43.3950   -9.7120   24.3500 C   0  0  0  0  0  0
   43.1650  -10.6490   22.1640 C   0  0  0  0  0  0
   43.4870   -9.5820   22.9790 C   0  0  0  0  0  0
   44.0620  -15.3270   23.2410 N   0  0  0  0  0  0
   44.8910  -15.5580   22.0680 C   0  0  2  0  0  0
   44.1920  -15.0060   20.8350 C   0  0  0  0  0  0
   42.9670  -14.8760   20.8110 O   0  0  0  0  0  0
   45.1770  -17.0500   21.8870 C   0  0  0  0  0  0
   46.0240  -17.7210   22.9710 C   0  0  0  0  0  0
   46.2250  -19.1950   22.6570 C   0  0  0  0  0  0
   47.3630  -17.0130   23.1210 C   0  0  0  0  0  0
   44.9750  -14.6700   19.8170 N   0  0  0  0  0  0
   44.4230  -14.2000   18.5560 C   0  0  2  0  0  0
   44.6930  -15.2270   17.4680 C   0  0  0  0  0  0
   45.7660  -15.8280   17.4240 O   0  0  0  0  0  0
   45.0230  -12.8460   18.1760 C   0  0  0  0  0  0
   44.5570  -12.3050   16.8320 C   0  0  0  0  0  0
   44.8060  -10.8130   16.7430 C   0  0  0  0  0  0
   44.0800  -10.1000   17.7900 N   0  0  0  0  0  0
   44.5280   -9.0110   18.4050 C   0  0  0  0  0  0
   45.7060   -8.4980   18.0790 N   0  0  0  0  0  0
   43.7950   -8.4350   19.3480 N   0  0  0  0  0  0
   43.7110  -15.4360   16.5990 N   0  0  0  0  0  0
   43.8610  -16.3770   15.5090 C   0  0  0  0  0  0
   44.8540  -15.8840   14.4790 C   0  0  0  0  0  0
   44.9910  -14.6790   14.2630 O   0  0  0  0  0  0
   45.5580  -16.8200   13.8520 N   0  0  0  0  0  0
   46.4740  -16.4940   12.7690 C   0  0  2  0  0  0
   45.6930  -16.3770   11.4690 C   0  0  0  0  0  0
   44.6160  -16.9550   11.3320 O   0  0  0  0  0  0
   47.5460  -17.5740   12.6290 C   0  0  0  0  0  0
   48.4600  -17.7050   13.8260 C   0  0  0  0  0  0
   48.8100  -16.5950   14.5830 C   0  0  0  0  0  0
   48.9700  -18.9400   14.2000 C   0  0  0  0  0  0
   49.6470  -16.7120   15.6770 C   0  0  0  0  0  0
   49.8060  -19.0680   15.2920 C   0  0  0  0  0  0
   50.1400  -17.9510   16.0260 C   0  0  0  0  0  0
   50.9730  -18.0770   17.1140 O   0  0  0  0  0  0
   46.2350  -15.6270   10.5160 N   0  0  0  0  0  0
   45.6050  -15.4950    9.2100 C   0  0  2  0  0  0
   45.7150  -16.8050    8.4440 C   0  0  0  0  0  0
   46.7570  -17.4590    8.4670 O   0  0  0  0  0  0
   46.2590  -14.3730    8.4040 C   0  0  0  0  0  0
   46.1670  -13.0270    9.0540 C   0  0  0  0  0  0
   45.0360  -12.2450    8.9900 N   0  0  0  0  0  0
   47.0730  -12.3250    9.7750 C   0  0  0  0  0  0
   45.2450  -11.1170    9.6480 C   0  0  0  0  0  0
   46.4730  -11.1410   10.1330 N   0  0  0  0  0  0
   44.6370  -17.1900    7.7690 N   0  0  0  0  0  0
   44.6660  -18.3790    6.9310 C   0  0  2  0  0  0
   45.5460  -18.1140    5.7140 C   0  0  0  0  0  0
   45.8710  -16.9620    5.4220 O   0  0  0  0  0  0
   43.2540  -18.7910    6.5200 C   0  0  0  0  0  0
   42.3460  -19.1960    7.6850 C   0  0  0  0  0  0
   40.9730  -19.5770    7.1810 C   0  0  0  0  0  0
   42.9550  -20.3390    8.4810 C   0  0  0  0  0  0
   45.9270  -19.1790    5.0140 N   0  0  0  0  0  0
   46.9420  -19.1010    3.9620 C   0  0  2  0  0  0
   46.7110  -18.0110    2.9130 C   0  0  0  0  0  0
   47.4150  -17.0000    2.9000 O   0  0  0  0  0  0
   47.1300  -20.4630    3.2860 C   0  0  0  0  0  0
   48.0600  -20.4190    2.0950 C   0  0  0  0  0  0
   49.3260  -19.8560    2.1980 C   0  0  0  0  0  0
   47.6750  -20.9460    0.8690 C   0  0  0  0  0  0
   50.1790  -19.8100    1.1130 C   0  0  0  0  0  0
   48.5230  -20.9070   -0.2220 C   0  0  0  0  0  0
   49.7730  -20.3390   -0.0940 C   0  0  0  0  0  0
   50.6210  -20.2980   -1.1770 O   0  0  0  0  0  0
   45.7350  -18.2160    2.0350 N   0  0  0  0  0  0
   45.4840  -17.2650    0.9560 C   0  0  2  0  0  0
   44.0750  -17.3960    0.3920 C   0  0  0  0  0  0
   43.8170  -17.0090   -0.7480 O   0  0  0  0  0  0
   46.5180  -17.4360   -0.1510 C   0  0  0  0  0  0
   43.1648  -17.9053    1.0989 O   0  0  0  0  0  0
   49.0954   -7.6194   38.1584 H   0  0  0  0  0  0
   48.6052   -9.2986   38.5669 H   0  0  0  0  0  0
   47.4469   -7.9445   38.7936 H   0  0  0  0  0  0
   47.4298   -7.5594   36.4061 H   0  0  0  0  0  0
   48.5881   -8.9135   36.1794 H   0  0  0  0  0  0
   45.3846   -8.0137   37.5341 H   0  0  0  0  0  0
   44.6593  -10.9297   37.2853 H   0  0  0  0  0  0
   42.5256  -10.2447   38.4526 H   0  0  0  0  0  0
   43.9885   -9.7110   39.3480 H   0  0  0  0  0  0
   42.3041   -7.8395   39.1829 H   0  0  0  0  0  0
   45.2200   -9.7435   34.8435 H   0  0  0  0  0  0
   42.4584   -9.2323   33.7143 H   0  0  0  0  0  0
   43.7316   -8.7874   31.5559 H   0  0  0  0  0  0
   44.2799   -7.7628   32.9257 H   0  0  0  0  0  0
   47.2883  -10.1608   33.1641 H   0  0  0  0  0  0
   41.3376  -10.5638   32.3216 H   0  0  0  0  0  0
   42.4017  -13.3608   32.1362 H   0  0  0  0  0  0
   39.9980  -12.9425   32.3396 H   0  0  0  0  0  0
   40.3617  -13.7791   30.7922 H   0  0  0  0  0  0
   40.0099  -12.0176   30.7998 H   0  0  0  0  0  0
   44.0052  -13.8990   30.7641 H   0  0  0  0  0  0
   44.4458  -12.0552   28.4591 H   0  0  0  0  0  0
   45.8429  -14.6365   29.3530 H   0  0  0  0  0  0
   46.3696  -13.6673   27.9353 H   0  0  0  0  0  0
   46.8205  -11.7560   29.3714 H   0  0  0  0  0  0
   46.2092  -12.6560   30.8007 H   0  0  0  0  0  0
   47.9881  -14.3937   30.3553 H   0  0  0  0  0  0
   48.6575  -13.2935   29.1031 H   0  0  0  0  0  0
   48.4836  -11.6398   31.4126 H   0  0  0  0  0  0
   49.9202  -14.8679   30.5332 H   0  0  0  0  0  0
   51.3363  -14.6474   31.7886 H   0  0  0  0  0  0
   50.1420  -11.3813   32.8664 H   0  0  0  0  0  0
   44.6872  -12.6837   26.2307 H   0  0  0  0  0  0
   42.9682  -15.1152   25.6132 H   0  0  0  0  0  0
   41.6652  -13.8437   23.9223 H   0  0  0  0  0  0
   41.5173  -13.0470   25.5255 H   0  0  0  0  0  0
   42.9060  -11.0036   25.9874 H   0  0  0  0  0  0
   42.4953  -12.6819   22.0754 H   0  0  0  0  0  0
   43.6494   -8.8715   24.9957 H   0  0  0  0  0  0
   43.2370  -10.5497   21.0809 H   0  0  0  0  0  0
   43.8132   -8.6389   22.5406 H   0  0  0  0  0  0
   43.1531  -15.9262   23.3988 H   0  0  0  0  0  0
   45.8330  -15.0202   22.2508 H   0  0  0  0  0  0
   44.2276  -17.6049   21.8620 H   0  0  0  0  0  0
   45.7188  -17.2076   20.9427 H   0  0  0  0  0  0
   45.4912  -17.6480   23.9306 H   0  0  0  0  0  0
   45.2455  -19.6847   22.5533 H   0  0  0  0  0  0
   46.7880  -19.6704   23.4737 H   0  0  0  0  0  0
   46.7870  -19.2963   21.7168 H   0  0  0  0  0  0
   47.1924  -15.9502   23.3474 H   0  0  0  0  0  0
   47.9316  -17.1015   22.1835 H   0  0  0  0  0  0
   47.9326  -17.4757   23.9404 H   0  0  0  0  0  0
   46.0645  -14.7536   19.9433 H   0  0  0  0  0  0
   43.3398  -14.0911   18.7137 H   0  0  0  0  0  0
   44.7494  -12.0978   18.9346 H   0  0  0  0  0  0
   46.1184  -12.9319   18.1241 H   0  0  0  0  0  0
   45.1083  -12.8073   16.0235 H   0  0  0  0  0  0
   43.4799  -12.4944   16.7140 H   0  0  0  0  0  0
   45.8814  -10.6132   16.8597 H   0  0  0  0  0  0
   44.4684  -10.4427   15.7638 H   0  0  0  0  0  0
   43.0932  -10.4593   18.1174 H   0  0  0  0  0  0
   46.3158   -8.9741   17.2970 H   0  0  0  0  0  0
   42.8171   -8.8589   19.6202 H   0  0  0  0  0  0
   44.1648   -7.5333   19.8580 H   0  0  0  0  0  0
   42.7703  -14.8785   16.7188 H   0  0  0  0  0  0
   44.2187  -17.3399   15.9025 H   0  0  0  0  0  0
   42.8898  -16.5216   15.0131 H   0  0  0  0  0  0
   45.4341  -17.8652   14.1717 H   0  0  0  0  0  0
   46.9397  -15.5336   13.0350 H   0  0  0  0  0  0
   47.0642  -18.5523   12.4845 H   0  0  0  0  0  0
   48.1835  -17.3476   11.7617 H   0  0  0  0  0  0
   48.4183  -15.6151   14.3102 H   0  0  0  0  0  0
   48.7061  -19.8253   13.6215 H   0  0  0  0  0  0
   49.9152  -15.8306   16.2595 H   0  0  0  0  0  0
   50.1987  -20.0458   15.5710 H   0  0  0  0  0  0
   51.2441  -17.1896   17.7048 H   0  0  0  0  0  0
   47.1772  -15.1003   10.7279 H   0  0  0  0  0  0
   44.5510  -15.2530    9.4111 H   0  0  0  0  0  0
   47.3273  -14.5957    8.2656 H   0  0  0  0  0  0
   45.7705  -14.2945    7.4215 H   0  0  0  0  0  0
   48.1072  -12.5337   10.0863 H   0  0  0  0  0  0
   44.5266  -10.3063    9.7692 H   0  0  0  0  0  0
   43.7143  -16.5966    7.8501 H   0  0  0  0  0  0
   45.0997  -19.1846    7.5417 H   0  0  0  0  0  0
   42.7616  -17.9513    6.0077 H   0  0  0  0  0  0
   43.3071  -19.6546    5.8408 H   0  0  0  0  0  0
   42.2350  -18.3331    8.3582 H   0  0  0  0  0  0
   40.5474  -18.7400    6.6080 H   0  0  0  0  0  0
   40.3194  -19.8063    8.0355 H   0  0  0  0  0  0
   41.0530  -20.4620    6.5327 H   0  0  0  0  0  0
   43.9525  -20.0453    8.8398 H   0  0  0  0  0  0
   43.0434  -21.2272    7.8382 H   0  0  0  0  0  0
   42.3098  -20.5715    9.3410 H   0  0  0  0  0  0
   45.4511  -20.1425    5.2488 H   0  0  0  0  0  0
   47.8360  -18.8053    4.5307 H   0  0  0  0  0  0
   47.5529  -21.1759    4.0091 H   0  0  0  0  0  0
   46.1569  -20.8339    2.9316 H   0  0  0  0  0  0
   49.6519  -19.4431    3.1527 H   0  0  0  0  0  0
   46.6884  -21.3976    0.7654 H   0  0  0  0  0  0
   51.1664  -19.3587    1.2100 H   0  0  0  0  0  0
   48.2053  -21.3229   -1.1781 H   0  0  0  0  0  0
   51.6187  -19.8455   -1.0775 H   0  0  0  0  0  0
   45.1119  -19.1176    2.1296 H   0  0  0  0  0  0
   45.5820  -16.2744    1.4240 H   0  0  0  0  0  0
   47.5284  -17.3387    0.2728 H   0  0  0  0  0  0
   46.3658  -16.6620   -0.9176 H   0  0  0  0  0  0
   46.4059  -18.4308   -0.6070 H   0  0  0  0  0  0
   42.1455  -18.0024    0.6968 H   0  0  0  0  0  0
  1  2  1  0  0  0
  1117  1  0  0  0
  1118  1  0  0  0
  1119  1  0  0  0
  2  3  1  0  0  0
  2120  1  0  0  0
  2121  1  0  0  0
  3  4  2  0  0  0
  3  5  1  0  0  0
  5  6  1  0  0  0
  5122  1  0  0  0
  6  7  1  0  0  0
  6  9  1  0  0  0
  6123  1  0  0  0
  7  8  2  0  0  0
  7 11  1  0  0  0
  9 10  1  0  0  0
  9124  1  0  0  0
  9125  1  0  0  0
 10126  1  0  0  0
 11 12  1  0  0  0
 11127  1  0  0  0
 12 13  1  0  0  0
 12 15  1  0  0  0
 12128  1  0  0  0
 13 14  2  0  0  0
 13 19  1  0  0  0
 15 16  1  0  0  0
 15129  1  0  0  0
 15130  1  0  0  0
 16 17  1  0  0  0
 16 18  2  0  0  0
 17131  1  0  0  0
 19 20  1  0  0  0
 19132  1  0  0  0
 20 21  1  0  0  0
 20 23  1  0  0  0
 20133  1  0  0  0
 21 22  2  0  0  0
 21 24  1  0  0  0
 23134  1  0  0  0
 23135  1  0  0  0
 23136  1  0  0  0
 24 25  1  0  0  0
 24137  1  0  0  0
 25 26  1  0  0  0
 25 28  1  0  0  0
 25138  1  0  0  0
 26 27  2  0  0  0
 26 35  1  0  0  0
 28 29  1  0  0  0
 28139  1  0  0  0
 28140  1  0  0  0
 29 30  1  0  0  0
 29141  1  0  0  0
 29142  1  0  0  0
 30 31  1  0  0  0
 30143  1  0  0  0
 30144  1  0  0  0
 31 32  1  0  0  0
 31145  1  0  0  0
 32 33  1  0  0  0
 32 34  2  0  0  0
 33146  1  0  0  0
 33147  1  0  0  0
 34148  1  0  0  0
 35 36  1  0  0  0
 35149  1  0  0  0
 36 37  1  0  0  0
 36 39  1  0  0  0
 36150  1  0  0  0
 37 38  2  0  0  0
 37 46  1  0  0  0
 39 40  1  0  0  0
 39151  1  0  0  0
 39152  1  0  0  0
 40 41  2  0  0  0
 40 42  1  0  0  0
 41 43  1  0  0  0
 41153  1  0  0  0
 42 44  2  0  0  0
 42154  1  0  0  0
 43 45  2  0  0  0
 43155  1  0  0  0
 44 45  1  0  0  0
 44156  1  0  0  0
 45157  1  0  0  0
 46 47  1  0  0  0
 46158  1  0  0  0
 47 48  1  0  0  0
 47 50  1  0  0  0
 47159  1  0  0  0
 48 49  2  0  0  0
 48 54  1  0  0  0
 50 51  1  0  0  0
 50160  1  0  0  0
 50161  1  0  0  0
 51 52  1  0  0  0
 51 53  1  0  0  0
 51162  1  0  0  0
 52163  1  0  0  0
 52164  1  0  0  0
 52165  1  0  0  0
 53166  1  0  0  0
 53167  1  0  0  0
 53168  1  0  0  0
 54 55  1  0  0  0
 54169  1  0  0  0
 55 56  1  0  0  0
 55 58  1  0  0  0
 55170  1  0  0  0
 56 57  2  0  0  0
 56 65  1  0  0  0
 58 59  1  0  0  0
 58171  1  0  0  0
 58172  1  0  0  0
 59 60  1  0  0  0
 59173  1  0  0  0
 59174  1  0  0  0
 60 61  1  0  0  0
 60175  1  0  0  0
 60176  1  0  0  0
 61 62  1  0  0  0
 61177  1  0  0  0
 62 63  2  0  0  0
 62 64  1  0  0  0
 63178  1  0  0  0
 64179  1  0  0  0
 64180  1  0  0  0
 65 66  1  0  0  0
 65181  1  0  0  0
 66 67  1  0  0  0
 66182  1  0  0  0
 66183  1  0  0  0
 67 68  2  0  0  0
 67 69  1  0  0  0
 69 70  1  0  0  0
 69184  1  0  0  0
 70 71  1  0  0  0
 70 73  1  0  0  0
 70185  1  0  0  0
 71 72  2  0  0  0
 71 81  1  0  0  0
 73 74  1  0  0  0
 73186  1  0  0  0
 73187  1  0  0  0
 74 75  2  0  0  0
 74 76  1  0  0  0
 75 77  1  0  0  0
 75188  1  0  0  0
 76 78  2  0  0  0
 76189  1  0  0  0
 77 79  2  0  0  0
 77190  1  0  0  0
 78 79  1  0  0  0
 78191  1  0  0  0
 79 80  1  0  0  0
 80192  1  0  0  0
 81 82  1  0  0  0
 81193  1  0  0  0
 82 83  1  0  0  0
 82 85  1  0  0  0
 82194  1  0  0  0
 83 84  2  0  0  0
 83 91  1  0  0  0
 85 86  1  0  0  0
 85195  1  0  0  0
 85196  1  0  0  0
 86 87  2  0  0  0
 86 88  1  0  0  0
 87 89  1  0  0  0
 88 90  2  0  0  0
 88197  1  0  0  0
 89 90  1  0  0  0
 89198  1  0  0  0
 91 92  1  0  0  0
 91199  1  0  0  0
 92 93  1  0  0  0
 92 95  1  0  0  0
 92200  1  0  0  0
 93 94  2  0  0  0
 93 99  1  0  0  0
 95 96  1  0  0  0
 95201  1  0  0  0
 95202  1  0  0  0
 96 97  1  0  0  0
 96 98  1  0  0  0
 96203  1  0  0  0
 97204  1  0  0  0
 97205  1  0  0  0
 97206  1  0  0  0
 98207  1  0  0  0
 98208  1  0  0  0
 98209  1  0  0  0
 99100  1  0  0  0
 99210  1  0  0  0
100101  1  0  0  0
100103  1  0  0  0
100211  1  0  0  0
101102  2  0  0  0
101111  1  0  0  0
103104  1  0  0  0
103212  1  0  0  0
103213  1  0  0  0
104105  2  0  0  0
104106  1  0  0  0
105107  1  0  0  0
105214  1  0  0  0
106108  2  0  0  0
106215  1  0  0  0
107109  2  0  0  0
107216  1  0  0  0
108109  1  0  0  0
108217  1  0  0  0
109110  1  0  0  0
110218  1  0  0  0
111112  1  0  0  0
111219  1  0  0  0
112113  1  0  0  0
112115  1  0  0  0
112220  1  0  0  0
113114  2  0  0  0
113116  1  0  0  0
115221  1  0  0  0
115222  1  0  0  0
115223  1  0  0  0
116224  1  0  0  0
M  CHG  1   1   1
M  END
> <s_m_source_file>
../4ov5_ligand.sdf

> <i_m_source_file_index>
1

> <s_epik_input>
W05IMytdW0NIMl1DKD1PKVtOSF1bQ0BASF0oW0NIMl1bT0hdKUMoPU8pW05IXVtDQEBIXShbQ0gyXUMoPU8pW09IXSlDKD1PKVtOSF1bQ0BASF0oW0NIM10pQyg9TylbTkhdW0NAQEhdKFtDSDJdW0NIMl1bQ0gyXVtOSF0vQyhbTkgyXSk9TlxbSF0pQyg9TylbTkhdW0NAQEhdKFtDSDJdYzFbY0hdW2NIXVtjSF1bY0hdW2NIXTEpQyg9TylbTkhdW0NAQEhdKFtDSDJdW0NIXShbQ0gzXSlbQ0gzXSlDKD1PKVtOSF1bQ0BASF0oW0NIMl1bQ0gyXVtDSDJdW05IXS9DKD1OXFtIXSlbTkgyXSlDKD1PKVtOSF1bQ0gyXUMoPU8pW05IXVtDQEBIXShbQ0gyXWMyW2NIXVtjSF1jKFtPSF0pW2NIXVtjSF0yKUMoPU8pW05IXVtDQEBIXShbQ0gyXUMzPU5bQ0gyXU49W0NIXTMpQyg9TylbTkhdW0NAQEhdKFtDSDJdW0NIXShbQ0gzXSlbQ0gzXSlDKD1PKVtOSF1bQ0BIXShDKD1PKVtOSF1bQ0BASF0oW0NIM10pQyg9TylbT0hdKVtDSDJdYzRbY0hdW2NIXWMoW09IXSlbY0hdW2NIXTQ=

> <s_epik_cmdline>
J2VwaWtfYXBwJywgJy1pbWFlJywgJ2xpZ2FuZF9wcm8ubWFlJywgJy1vbWFlJywgJ2xpZ2FuZF9wcmVwLm1hZScsICctbXMnLCAnMScsICctcGgnLCAnNycsICctcGh0JywgJzAuNScsICctbnQn

> <s_epik_pKa_notes>
Molecule size exceeds maximum supported for generating protonation states

> <s_epik_Chemistry_Notes>
This compound has an imine and may undergo hydrolysis.

$$$$
