4ovf_ligand
                    3D
 Schrodinger Suite 2020-3.
 28 30  0  0  1  0            999 V2000
    6.9900   -1.6820   -9.6800 Cl  0  0  0  0  0  0
    7.6370   -3.2200  -10.3320 C   0  0  0  0  0  0
    8.7190   -3.8770   -9.7410 C   0  0  0  0  0  0
    9.1560   -5.0740  -10.3180 C   0  0  0  0  0  0
    7.0230   -3.7550  -11.4630 C   0  0  0  0  0  0
    7.4670   -4.9490  -12.0250 C   0  0  0  0  0  0
    8.5410   -5.6140  -11.4460 C   0  0  0  0  0  0
    9.1670   -6.7570  -11.7660 N   0  3  0  0  0  0
   10.1600   -6.9750  -10.8880 C   0  0  0  0  0  0
   10.1810   -5.9360   -9.9660 C   0  0  0  0  0  0
   11.1640   -5.8380   -8.8260 C   0  0  0  0  0  0
   11.6860   -7.2490   -8.5550 C   0  0  0  0  0  0
   11.1120   -8.1480  -10.8830 C   0  0  0  0  0  0
   12.2000   -7.9640   -9.8110 C   0  0  2  0  0  0
   12.7580   -9.3010   -9.4020 C   0  0  0  0  0  0
   12.0270  -10.4070   -9.4890 O   0  5  0  0  0  0
   13.8940   -9.3880   -8.9750 O   0  0  0  0  0  0
    9.2082   -3.4690   -8.8565 H   0  0  0  0  0  0
    6.1814   -3.2301  -11.9150 H   0  0  0  0  0  0
    6.9776   -5.3575  -12.9092 H   0  0  0  0  0  0
   11.9893   -5.1685   -9.1100 H   0  0  0  0  0  0
   10.6556   -5.4366   -7.9369 H   0  0  0  0  0  0
   12.5202   -7.2002   -7.8397 H   0  0  0  0  0  0
   10.8774   -7.8645   -8.1338 H   0  0  0  0  0  0
   10.5547   -9.0716  -10.6677 H   0  0  0  0  0  0
   11.5951   -8.2324  -11.8676 H   0  0  0  0  0  0
   12.9941   -7.3509  -10.2621 H   0  0  0  0  0  0
    8.8322   -7.3428  -12.6347 H   0  0  0  0  0  0
  1  2  1  0  0  0
  2  3  2  0  0  0
  2  5  1  0  0  0
  3  4  1  0  0  0
  3 18  1  0  0  0
  4  7  2  0  0  0
  4 10  1  0  0  0
  5  6  2  0  0  0
  5 19  1  0  0  0
  6  7  1  0  0  0
  6 20  1  0  0  0
  7  8  1  0  0  0
  8  9  1  0  0  0
  8 28  1  0  0  0
  9 10  2  0  0  0
  9 13  1  0  0  0
 10 11  1  0  0  0
 11 12  1  0  0  0
 11 21  1  0  0  0
 11 22  1  0  0  0
 12 14  1  0  0  0
 12 23  1  0  0  0
 12 24  1  0  0  0
 13 14  1  0  0  0
 13 25  1  0  0  0
 13 26  1  0  0  0
 14 15  1  0  0  0
 14 27  1  0  0  0
 15 16  1  0  0  0
 15 17  2  0  0  0
M  CHG  2   8   1  16  -1
M  END
> <s_m_source_file>
../4ovf_ligand.sdf

> <i_m_source_file_index>
1

> <s_epik_input>
Q2xjKFtjSF0xKVtjSF1bY0hdYyhjMTIpW25IXWMzYzJbQ0gyXVtDSDJdW0NASF0oW0NIMl0zKUMoPU8pW09IXQ==

> <s_epik_cmdline>
J2VwaWtfYXBwJywgJy1pbWFlJywgJ2xpZ2FuZF9wcm8ubWFlJywgJy1vbWFlJywgJ2xpZ2FuZF9wcmVwLm1hZScsICctbXMnLCAnMScsICctcGgnLCAnNycsICctcGh0JywgJzAuNScsICctbnQn

> <r_lp_tautomer_probability>
1

> <r_epik_Ionization_Penalty>
  0.0013

> <r_epik_Ionization_Penalty_Charging>
  0.0013

> <r_epik_Ionization_Penalty_Neutral>
  0.0000

> <r_epik_State_Penalty>
 -0.0000

> <r_epik_Charging_Adjusted_Penalty>
0.00126491638790401

> <i_epik_Tot_Q>
0

> <i_epik_Tot_abs_Q>
2

$$$$
