4ovg_ligand
                    3D
 Schrodinger Suite 2020-3.
 35 37  0  0  1  0            999 V2000
    6.6650   -8.7890  -13.3490 O   0  0  0  0  0  0
    7.1330   -8.0510  -12.4950 C   0  0  0  0  0  0
    6.7060   -8.0470  -11.2280 N   0  0  0  0  0  0
    8.2460   -7.1290  -12.8970 C   0  0  0  0  0  0
    8.7340   -6.2580  -11.8140 N   0  0  0  0  0  0
    8.1890   -5.0710  -11.4920 C   0  0  0  0  0  0
    7.0930   -4.3810  -11.9840 C   0  0  0  0  0  0
    6.7650   -3.1510  -11.4320 C   0  0  0  0  0  0
    9.7940   -6.5250  -11.0320 C   0  0  0  0  0  0
   10.6730   -7.7450  -11.0760 C   0  0  0  0  0  0
   11.8840   -7.5380  -10.1470 C   0  0  2  0  0  0
   12.5390   -8.8360   -9.7550 C   0  0  0  0  0  0
   12.0070   -9.9470   -9.8530 O   0  0  0  0  0  0
   13.7670   -8.7400   -9.2890 O   0  5  0  0  0  0
   11.5440   -6.8110   -8.8440 C   0  0  0  0  0  0
   11.0930   -5.3730   -9.0610 C   0  0  0  0  0  0
   10.0080   -5.4110  -10.0850 C   0  0  0  0  0  0
    8.9400   -4.4480  -10.3750 C   0  0  0  0  0  0
    8.5800   -3.2210   -9.8350 C   0  0  0  0  0  0
    7.4750   -2.5870  -10.3890 C   0  0  0  0  0  0
    6.8640   -1.0000   -9.8450 Cl  0  0  0  0  0  0
    5.8906   -8.7182  -10.9203 H   0  0  0  0  0  0
    7.1701   -7.3725  -10.4933 H   0  0  0  0  0  0
    9.1052   -7.7213  -13.2448 H   0  0  0  0  0  0
    7.9019   -6.4707  -13.7084 H   0  0  0  0  0  0
    6.4959   -4.7991  -12.7944 H   0  0  0  0  0  0
    5.9120   -2.6070  -11.8378 H   0  0  0  0  0  0
   10.0997   -8.6222  -10.7416 H   0  0  0  0  0  0
   11.0240   -7.9071  -12.1058 H   0  0  0  0  0  0
   12.5818   -6.9321  -10.7436 H   0  0  0  0  0  0
   10.7287   -7.3414   -8.3302 H   0  0  0  0  0  0
   12.4319   -6.7868   -8.1951 H   0  0  0  0  0  0
   10.7204   -4.9585   -8.1126 H   0  0  0  0  0  0
   11.9432   -4.7715   -9.4151 H   0  0  0  0  0  0
    9.1394   -2.7748   -9.0128 H   0  0  0  0  0  0
  1  2  2  0  0  0
  2  3  1  0  0  0
  2  4  1  0  0  0
  3 22  1  0  0  0
  3 23  1  0  0  0
  4  5  1  0  0  0
  4 24  1  0  0  0
  4 25  1  0  0  0
  5  6  1  0  0  0
  5  9  1  0  0  0
  6  7  1  0  0  0
  6 18  2  0  0  0
  7  8  2  0  0  0
  7 26  1  0  0  0
  8 20  1  0  0  0
  8 27  1  0  0  0
  9 10  1  0  0  0
  9 17  2  0  0  0
 10 11  1  0  0  0
 10 28  1  0  0  0
 10 29  1  0  0  0
 11 12  1  0  0  0
 11 15  1  0  0  0
 11 30  1  0  0  0
 12 13  2  0  0  0
 12 14  1  0  0  0
 15 16  1  0  0  0
 15 31  1  0  0  0
 15 32  1  0  0  0
 16 17  1  0  0  0
 16 33  1  0  0  0
 16 34  1  0  0  0
 17 18  1  0  0  0
 18 19  1  0  0  0
 19 20  2  0  0  0
 19 35  1  0  0  0
 20 21  1  0  0  0
M  CHG  1  14  -1
M  END
> <s_m_source_file>
../4ovg_ligand.sdf

> <i_m_source_file_index>
1

> <s_epik_input>
Tz1DKFtOSDJdKVtDSDJdbjFjKFtDSDJdW0NASF0oQyg9TylbT0hdKVtDSDJdW0NIMl0yKWMyYyhjMTMpW2NIXWMoQ2wpW2NIXVtjSF0z

> <s_epik_cmdline>
J2VwaWtfYXBwJywgJy1pbWFlJywgJ2xpZ2FuZF9wcm8ubWFlJywgJy1vbWFlJywgJ2xpZ2FuZF9wcmVwLm1hZScsICctbXMnLCAnMScsICctcGgnLCAnNycsICctcGh0JywgJzAuNScsICctbnQn

> <r_lp_tautomer_probability>
1

> <r_epik_Ionization_Penalty>
  0.0013

> <r_epik_Ionization_Penalty_Charging>
  0.0013

> <r_epik_Ionization_Penalty_Neutral>
  0.0000

> <r_epik_State_Penalty>
 -0.0000

> <r_epik_Charging_Adjusted_Penalty>
0.0013148954362256

> <i_epik_Tot_Q>
-1

> <i_epik_Tot_abs_Q>
1

$$$$
