4ovh_ligand
                    3D
 Schrodinger Suite 2020-3.
 40 42  0  0  1  0            999 V2000
  -34.8870   -9.9000   -8.9910 O   0  5  0  0  0  0
  -33.7410   -9.6430   -9.4140 C   0  0  0  0  0  0
  -32.7250   -9.4300   -8.7250 O   0  0  0  0  0  0
  -33.4890   -9.7640  -10.8590 C   0  0  0  0  0  0
  -33.0520   -8.4800  -11.4310 N   0  0  0  0  0  0
  -32.4370   -8.4920  -12.6180 C   0  0  0  0  0  0
  -32.4240   -9.4930  -13.3160 O   0  0  0  0  0  0
  -31.8310   -7.2330  -13.1560 C   0  0  0  0  0  0
  -31.2520   -6.4170  -12.0040 N   0  0  0  0  0  0
  -30.2160   -6.6380  -11.1730 C   0  0  0  0  0  0
  -29.3410   -7.7340  -11.1170 C   0  0  0  0  0  0
  -28.1280   -7.4300  -10.1840 C   0  0  2  0  0  0
  -27.3190   -8.6860   -9.7820 C   0  0  0  0  0  0
  -27.8690   -9.8100   -9.8920 O   0  5  0  0  0  0
  -26.1520   -8.4830   -9.3670 O   0  0  0  0  0  0
  -28.6120   -6.7570   -8.9300 C   0  0  0  0  0  0
  -29.1970   -5.4300   -9.3240 C   0  0  0  0  0  0
  -30.1540   -5.5740  -10.3390 C   0  0  0  0  0  0
  -31.1310   -4.7240  -10.6580 C   0  0  0  0  0  0
  -31.8030   -5.2520  -11.6910 C   0  0  0  0  0  0
  -32.8510   -4.6220  -12.2290 C   0  0  0  0  0  0
  -33.2550   -3.4070  -11.7290 C   0  0  0  0  0  0
  -32.5800   -2.8470  -10.6750 C   0  0  0  0  0  0
  -33.2350   -1.2140  -10.0920 Br  0  0  0  0  0  0
  -31.4890   -3.5340  -10.1320 C   0  0  0  0  0  0
  -32.7015  -10.5122  -11.0325 H   0  0  0  0  0  0
  -34.4123  -10.0790  -11.3671 H   0  0  0  0  0  0
  -33.2342   -7.5435  -10.8834 H   0  0  0  0  0  0
  -31.0299   -7.4860  -13.8661 H   0  0  0  0  0  0
  -32.6047   -6.6444  -13.6707 H   0  0  0  0  0  0
  -29.8769   -8.6114  -10.7260 H   0  0  0  0  0  0
  -28.9643   -7.9544  -12.1267 H   0  0  0  0  0  0
  -27.4536   -6.7564  -10.7331 H   0  0  0  0  0  0
  -29.3758   -7.3851   -8.4482 H   0  0  0  0  0  0
  -27.7666   -6.6142   -8.2408 H   0  0  0  0  0  0
  -29.6812   -4.9689   -8.4505 H   0  0  0  0  0  0
  -28.3964   -4.7705   -9.6901 H   0  0  0  0  0  0
  -33.3862   -5.0718  -13.0652 H   0  0  0  0  0  0
  -34.1085   -2.8908  -12.1686 H   0  0  0  0  0  0
  -30.9344   -3.1128   -9.2935 H   0  0  0  0  0  0
  1  2  1  0  0  0
  2  3  2  0  0  0
  2  4  1  0  0  0
  4  5  1  0  0  0
  4 26  1  0  0  0
  4 27  1  0  0  0
  5  6  1  0  0  0
  5 28  1  0  0  0
  6  7  2  0  0  0
  6  8  1  0  0  0
  8  9  1  0  0  0
  8 29  1  0  0  0
  8 30  1  0  0  0
  9 10  1  0  0  0
  9 20  1  0  0  0
 10 11  1  0  0  0
 10 18  2  0  0  0
 11 12  1  0  0  0
 11 31  1  0  0  0
 11 32  1  0  0  0
 12 13  1  0  0  0
 12 16  1  0  0  0
 12 33  1  0  0  0
 13 14  1  0  0  0
 13 15  2  0  0  0
 16 17  1  0  0  0
 16 34  1  0  0  0
 16 35  1  0  0  0
 17 18  1  0  0  0
 17 36  1  0  0  0
 17 37  1  0  0  0
 18 19  1  0  0  0
 19 20  2  0  0  0
 19 25  1  0  0  0
 20 21  1  0  0  0
 21 22  2  0  0  0
 21 38  1  0  0  0
 22 23  1  0  0  0
 22 39  1  0  0  0
 23 24  1  0  0  0
 23 25  2  0  0  0
 25 40  1  0  0  0
M  CHG  2   1  -1  14  -1
M  END
> <s_m_source_file>
../4ovh_ligand.sdf

> <i_m_source_file_index>
1

> <s_epik_input>
W09IXUMoPU8pW0NIMl1bTkhdQyg9TylbQ0gyXW4xYyhbY0hdW2NIXWMoQnIpW2NIXTIpYzJjKGMxMylbQ0gyXVtDSDJdW0NASF0oW0NIMl0zKUMoPU8pW09IXQ==

> <s_epik_cmdline>
J2VwaWtfYXBwJywgJy1pbWFlJywgJ2xpZ2FuZF9wcm8ubWFlJywgJy1vbWFlJywgJ2xpZ2FuZF9wcmVwLm1hZScsICctbXMnLCAnMScsICctcGgnLCAnNycsICctcGh0JywgJzAuNScsICctbnQn

> <r_lp_tautomer_probability>
1

> <r_epik_Ionization_Penalty>
  0.0015

> <r_epik_Ionization_Penalty_Charging>
  0.0015

> <r_epik_Ionization_Penalty_Neutral>
  0.0000

> <r_epik_State_Penalty>
 -0.0000

> <r_epik_Charging_Adjusted_Penalty>
0.00147922695734239

> <i_epik_Tot_Q>
-2

> <i_epik_Tot_abs_Q>
2

$$$$
