4ovz_ligand
                    3D
 Schrodinger Suite 2020-3.
 57 60  0  0  1  0            999 V2000
   -7.4620   45.9030  -43.4420 F   0  0  0  0  0  0
   -8.1640   46.5600  -42.5280 C   0  0  0  0  0  0
   -9.2240   45.9240  -41.8140 C   0  0  0  0  0  0
   -9.9250   46.6530  -40.8640 C   0  0  0  0  0  0
   -7.8590   47.9510  -42.2370 C   0  0  0  0  0  0
   -8.5490   48.6710  -41.2710 C   0  0  0  0  0  0
   -9.5760   48.0340  -40.5620 C   0  0  0  0  0  0
  -10.4100   48.7790  -39.5700 C   0  0  0  0  0  0
  -11.8180   48.4360  -39.8070 N   0  0  0  0  0  0
  -12.6300   47.9630  -38.7550 C   0  0  0  0  0  0
  -12.2050   47.8670  -37.6470 O   0  0  0  0  0  0
  -14.0810   47.5870  -39.0210 C   0  0  1  0  0  0
  -14.1210   46.1350  -39.2260 C   0  0  0  0  0  0
  -15.4680   45.7020  -39.7240 C   0  0  0  0  0  0
  -16.6190   46.1040  -38.8530 N   0  3  1  0  0  0
  -16.3930   47.3730  -38.0970 C   0  0  0  0  0  0
  -14.9970   47.9410  -37.9190 C   0  0  0  0  0  0
  -18.0950   45.9920  -39.4280 C   0  0  2  0  0  0
  -19.2720   46.1120  -38.5340 C   0  0  0  0  0  0
  -18.2270   44.5750  -40.1400 C   0  0  0  0  0  0
  -18.3020   43.4700  -39.3570 C   0  0  0  0  0  0
  -18.3950   42.1220  -39.9630 C   0  0  0  0  0  0
  -18.3820   41.9970  -41.3190 C   0  0  0  0  0  0
  -18.3130   43.1940  -42.1660 C   0  0  0  0  0  0
  -18.2230   44.4390  -41.6090 C   0  0  0  0  0  0
  -18.2990   43.0470  -43.5660 C   0  0  0  0  0  0
  -18.1990   44.2060  -44.3860 C   0  0  0  0  0  0
  -18.1120   45.4640  -43.8290 C   0  0  0  0  0  0
  -18.1080   45.6090  -42.4460 C   0  0  0  0  0  0
   -9.4785   44.8828  -42.0119 H   0  0  0  0  0  0
  -10.7530   46.1827  -40.3335 H   0  0  0  0  0  0
   -7.0633   48.4446  -42.7949 H   0  0  0  0  0  0
   -8.2966   49.7118  -41.0681 H   0  0  0  0  0  0
  -10.1157   48.4874  -38.5510 H   0  0  0  0  0  0
  -10.2566   49.8604  -39.7006 H   0  0  0  0  0  0
  -12.2493   48.5470  -40.8128 H   0  0  0  0  0  0
  -14.4551   48.1326  -39.8999 H   0  0  0  0  0  0
  -13.3608   45.8483  -39.9676 H   0  0  0  0  0  0
  -13.9151   45.6244  -38.2737 H   0  0  0  0  0  0
  -15.6515   46.1426  -40.7151 H   0  0  0  0  0  0
  -15.4957   44.6050  -39.7996 H   0  0  0  0  0  0
  -16.5130   45.2958  -38.1144 H   0  0  0  0  0  0
  -16.9414   48.1927  -38.5843 H   0  0  0  0  0  0
  -16.7531   47.2538  -37.0645 H   0  0  0  0  0  0
  -14.5979   47.5512  -36.9710 H   0  0  0  0  0  0
  -15.0889   49.0353  -37.8558 H   0  0  0  0  0  0
  -18.2247   46.9125  -40.0160 H   0  0  0  0  0  0
  -19.2372   47.0784  -38.0097 H   0  0  0  0  0  0
  -19.2581   45.2947  -37.7979 H   0  0  0  0  0  0
  -20.1937   46.0519  -39.1313 H   0  0  0  0  0  0
  -18.2937   43.5751  -38.2721 H   0  0  0  0  0  0
  -18.4731   41.2383  -39.3297 H   0  0  0  0  0  0
  -18.4228   41.0080  -41.7755 H   0  0  0  0  0  0
  -18.3640   42.0568  -44.0169 H   0  0  0  0  0  0
  -18.1911   44.0973  -45.4705 H   0  0  0  0  0  0
  -18.0465   46.3426  -44.4708 H   0  0  0  0  0  0
  -18.0187   46.5985  -41.9977 H   0  0  0  0  0  0
  1  2  1  0  0  0
  2  3  2  0  0  0
  2  5  1  0  0  0
  3  4  1  0  0  0
  3 30  1  0  0  0
  4  7  2  0  0  0
  4 31  1  0  0  0
  5  6  2  0  0  0
  5 32  1  0  0  0
  6  7  1  0  0  0
  6 33  1  0  0  0
  7  8  1  0  0  0
  8  9  1  0  0  0
  8 34  1  0  0  0
  8 35  1  0  0  0
  9 10  1  0  0  0
  9 36  1  0  0  0
 10 11  2  0  0  0
 10 12  1  0  0  0
 12 13  1  0  0  0
 12 17  1  0  0  0
 12 37  1  0  0  0
 13 14  1  0  0  0
 13 38  1  0  0  0
 13 39  1  0  0  0
 14 15  1  0  0  0
 14 40  1  0  0  0
 14 41  1  0  0  0
 15 16  1  0  0  0
 15 18  1  0  0  0
 15 42  1  0  0  0
 16 17  1  0  0  0
 16 43  1  0  0  0
 16 44  1  0  0  0
 17 45  1  0  0  0
 17 46  1  0  0  0
 18 19  1  0  0  0
 18 20  1  0  0  0
 18 47  1  0  0  0
 19 48  1  0  0  0
 19 49  1  0  0  0
 19 50  1  0  0  0
 20 21  2  0  0  0
 20 25  1  0  0  0
 21 22  1  0  0  0
 21 51  1  0  0  0
 22 23  2  0  0  0
 22 52  1  0  0  0
 23 24  1  0  0  0
 23 53  1  0  0  0
 24 25  2  0  0  0
 24 26  1  0  0  0
 25 29  1  0  0  0
 26 27  2  0  0  0
 26 54  1  0  0  0
 27 28  1  0  0  0
 27 55  1  0  0  0
 28 29  2  0  0  0
 28 56  1  0  0  0
 29 57  1  0  0  0
M  CHG  1  15   1
M  END
> <s_m_source_file>
../4ovz_ligand.sdf

> <i_m_source_file_index>
1

> <s_epik_input>
RmMxW2NIXVtjSF1jKFtjSF1bY0hdMSlbQ0gyXVtOSF1DKD1PKVtDQEhdMltDSDJdW0NIMl1bTkBASCtdKFtDSDJdW0NIMl0yKVtDQEhdKFtDSDNdKWMoW2NIXVtjSF1bY0hdMyljKGMzNClbY0hdW2NIXVtjSF1bY0hdNA==

> <s_epik_cmdline>
J2VwaWtfYXBwJywgJy1pbWFlJywgJ2xpZ2FuZF9wcm8ubWFlJywgJy1vbWFlJywgJ2xpZ2FuZF9wcmVwLm1hZScsICctbXMnLCAnMScsICctcGgnLCAnNycsICctcGh0JywgJzAuNScsICctbnQn

> <r_epik_Ionization_Penalty>
  0.0247

> <r_epik_Ionization_Penalty_Charging>
  0.0247

> <r_epik_Ionization_Penalty_Neutral>
  0.0000

> <r_epik_State_Penalty>
  0.0200

> <r_epik_Charging_Adjusted_Penalty>
0.0447242741613233

> <i_epik_Tot_Q>
1

> <i_epik_Tot_abs_Q>
1

$$$$
