4ow0_ligand
                    3D
 Schrodinger Suite 2020-3.
 57 60  0  0  1  0            999 V2000
   -8.7950   45.8410  -42.7920 F   0  0  0  0  0  0
   -8.4950   46.9800  -42.2180 C   0  0  0  0  0  0
   -7.3700   47.6520  -42.6080 C   0  0  0  0  0  0
   -7.0440   48.8740  -41.9890 C   0  0  0  0  0  0
   -7.8890   49.4130  -40.9790 C   0  0  0  0  0  0
   -9.3400   47.4950  -41.2090 C   0  0  0  0  0  0
   -9.0210   48.7200  -40.5890 C   0  0  0  0  0  0
   -9.9770   49.2790  -39.4950 C   0  0  0  0  0  0
  -11.3530   48.9550  -39.8030 N   0  0  0  0  0  0
  -12.2010   48.4090  -38.8130 C   0  0  0  0  0  0
  -11.8240   48.2390  -37.6700 O   0  0  0  0  0  0
  -13.6730   48.0270  -39.1780 C   0  0  2  0  0  0
  -14.5370   48.3430  -38.0530 C   0  0  0  0  0  0
  -15.9700   47.9290  -38.4060 C   0  0  0  0  0  0
  -16.2170   46.6060  -39.0460 N   0  3  2  0  0  0
  -15.1130   46.1590  -39.9340 C   0  0  0  0  0  0
  -13.7140   46.5690  -39.5140 C   0  0  0  0  0  0
  -17.6320   46.4130  -39.6150 C   0  0  2  0  0  0
  -18.7090   46.5420  -38.5580 C   0  0  0  0  0  0
  -17.7520   45.0150  -40.2820 C   0  0  0  0  0  0
  -17.8000   44.8180  -41.7770 C   0  0  0  0  0  0
  -17.7370   45.9260  -42.6800 C   0  0  0  0  0  0
  -17.7640   45.7240  -44.0760 C   0  0  0  0  0  0
  -17.8340   44.4130  -44.5740 C   0  0  0  0  0  0
  -17.9230   43.3300  -43.7070 C   0  0  0  0  0  0
  -17.8810   43.5350  -42.2840 C   0  0  0  0  0  0
  -17.9540   42.3830  -41.3810 C   0  0  0  0  0  0
  -17.9600   42.5790  -39.9570 C   0  0  0  0  0  0
  -17.8460   43.9090  -39.4130 C   0  0  0  0  0  0
   -6.7308   47.2452  -43.3916 H   0  0  0  0  0  0
   -6.1414   49.4088  -42.2845 H   0  0  0  0  0  0
   -7.6453   50.3684  -40.5143 H   0  0  0  0  0  0
  -10.2343   46.9474  -40.9116 H   0  0  0  0  0  0
   -9.7177   48.8379  -38.5213 H   0  0  0  0  0  0
   -9.8731   50.3728  -39.4413 H   0  0  0  0  0  0
  -11.7469   49.1333  -40.8145 H   0  0  0  0  0  0
  -14.0906   48.5867  -40.0279 H   0  0  0  0  0  0
  -14.1965   47.7929  -37.1634 H   0  0  0  0  0  0
  -14.4979   49.4239  -37.8529 H   0  0  0  0  0  0
  -16.5805   47.9046  -37.4913 H   0  0  0  0  0  0
  -16.3978   48.6550  -39.1130 H   0  0  0  0  0  0
  -16.1510   45.9017  -38.2036 H   0  0  0  0  0  0
  -15.1064   45.0603  -39.9861 H   0  0  0  0  0  0
  -15.2628   46.5730  -40.9421 H   0  0  0  0  0  0
  -13.0183   46.3636  -40.3410 H   0  0  0  0  0  0
  -13.4192   45.9811  -38.6323 H   0  0  0  0  0  0
  -17.7965   47.2249  -40.3387 H   0  0  0  0  0  0
  -18.6349   47.5287  -38.0775 H   0  0  0  0  0  0
  -18.5762   45.7548  -37.8013 H   0  0  0  0  0  0
  -19.6981   46.4362  -39.0275 H   0  0  0  0  0  0
  -17.6672   46.9392  -42.2843 H   0  0  0  0  0  0
  -17.7310   46.5735  -44.7582 H   0  0  0  0  0  0
  -17.8184   44.2429  -45.6505 H   0  0  0  0  0  0
  -18.0250   42.3213  -44.1073 H   0  0  0  0  0  0
  -18.0039   41.3741  -41.7906 H   0  0  0  0  0  0
  -18.0507   41.7225  -39.2890 H   0  0  0  0  0  0
  -17.8325   44.0590  -38.3335 H   0  0  0  0  0  0
  1  2  1  0  0  0
  2  3  2  0  0  0
  2  6  1  0  0  0
  3  4  1  0  0  0
  3 30  1  0  0  0
  4  5  2  0  0  0
  4 31  1  0  0  0
  5  7  1  0  0  0
  5 32  1  0  0  0
  6  7  2  0  0  0
  6 33  1  0  0  0
  7  8  1  0  0  0
  8  9  1  0  0  0
  8 34  1  0  0  0
  8 35  1  0  0  0
  9 10  1  0  0  0
  9 36  1  0  0  0
 10 11  2  0  0  0
 10 12  1  0  0  0
 12 13  1  0  0  0
 12 17  1  0  0  0
 12 37  1  0  0  0
 13 14  1  0  0  0
 13 38  1  0  0  0
 13 39  1  0  0  0
 14 15  1  0  0  0
 14 40  1  0  0  0
 14 41  1  0  0  0
 15 16  1  0  0  0
 15 18  1  0  0  0
 15 42  1  0  0  0
 16 17  1  0  0  0
 16 43  1  0  0  0
 16 44  1  0  0  0
 17 45  1  0  0  0
 17 46  1  0  0  0
 18 19  1  0  0  0
 18 20  1  0  0  0
 18 47  1  0  0  0
 19 48  1  0  0  0
 19 49  1  0  0  0
 19 50  1  0  0  0
 20 21  2  0  0  0
 20 29  1  0  0  0
 21 22  1  0  0  0
 21 26  1  0  0  0
 22 23  2  0  0  0
 22 51  1  0  0  0
 23 24  1  0  0  0
 23 52  1  0  0  0
 24 25  2  0  0  0
 24 53  1  0  0  0
 25 26  1  0  0  0
 25 54  1  0  0  0
 26 27  2  0  0  0
 27 28  1  0  0  0
 27 55  1  0  0  0
 28 29  2  0  0  0
 28 56  1  0  0  0
 29 57  1  0  0  0
M  CHG  1  15   1
M  END
> <s_m_source_file>
../4ow0_ligand.sdf

> <i_m_source_file_index>
1

> <s_epik_input>
RmMxW2NIXVtjSF1bY0hdYyhbY0hdMSlbQ0gyXVtOSF1DKD1PKVtDQEBIXTJbQ0gyXVtDSDJdW05ASCtdKFtDSDJdW0NIMl0yKVtDQEhdKFtDSDNdKWMzW2NIXVtjSF1bY0hdYyhjMzQpW2NIXVtjSF1bY0hdW2NIXTQ=

> <s_epik_cmdline>
J2VwaWtfYXBwJywgJy1pbWFlJywgJ2xpZ2FuZF9wcm8ubWFlJywgJy1vbWFlJywgJ2xpZ2FuZF9wcmVwLm1hZScsICctbXMnLCAnMScsICctcGgnLCAnNycsICctcGh0JywgJzAuNScsICctbnQn

> <r_epik_Ionization_Penalty>
  0.0249

> <r_epik_Ionization_Penalty_Charging>
  0.0249

> <r_epik_Ionization_Penalty_Neutral>
  0.0000

> <r_epik_State_Penalty>
  0.0202

> <r_epik_Charging_Adjusted_Penalty>
0.0451354224351867

> <i_epik_Tot_Q>
1

> <i_epik_Tot_abs_Q>
1

$$$$
