4own_ligand
                    3D
 Schrodinger Suite 2020-3.
 16 16  0  0  1  0            999 V2000
  -20.2430  -23.5810   14.9860 N   0  0  0  0  0  0
  -19.4720  -25.1620   16.6730 O   0  0  0  0  0  0
  -19.9520  -27.2540   16.3110 O   0  5  0  0  0  0
  -19.9060  -27.5250   11.5300 F   0  0  0  0  0  0
  -20.3170  -24.2950   12.7230 C   0  0  0  0  0  0
  -20.2230  -25.3510   11.8340 C   0  0  0  0  0  0
  -19.8160  -26.8850   13.6450 C   0  0  0  0  0  0
  -19.7670  -26.0900   15.8880 C   0  0  0  0  0  0
  -20.1630  -24.5470   14.0740 C   0  0  0  0  0  0
  -19.9790  -26.6280   12.3000 C   0  0  0  0  0  0
  -19.9120  -25.8340   14.5370 C   0  0  0  0  0  0
  -20.4399  -22.5448   14.6738 H   0  0  0  0  0  0
  -20.1122  -23.8188   16.0520 H   0  0  0  0  0  0
  -20.5088  -23.2834   12.3652 H   0  0  0  0  0  0
  -20.3416  -25.1749   10.7649 H   0  0  0  0  0  0
  -19.6155  -27.8968   13.9974 H   0  0  0  0  0  0
  1  9  1  0  0  0
  1 12  1  0  0  0
  1 13  1  0  0  0
  2  8  2  0  0  0
  3  8  1  0  0  0
  4 10  1  0  0  0
  5  6  2  0  0  0
  5  9  1  0  0  0
  5 14  1  0  0  0
  6 10  1  0  0  0
  6 15  1  0  0  0
  7 10  2  0  0  0
  7 11  1  0  0  0
  7 16  1  0  0  0
  8 11  1  0  0  0
  9 11  2  0  0  0
M  CHG  1   3  -1
M  END
> <s_m_source_file>
../4own_ligand.sdf

> <i_m_source_file_index>
1

> <s_epik_input>
W05IMl1jMVtjSF1bY0hdYyhGKVtjSF1jMUMoPU8pW09IXQ==

> <s_epik_cmdline>
J2VwaWtfYXBwJywgJy1pbWFlJywgJ2xpZ2FuZF9wcm8ubWFlJywgJy1vbWFlJywgJ2xpZ2FuZF9wcmVwLm1hZScsICctbXMnLCAnMScsICctcGgnLCAnNycsICctcGh0JywgJzAuNScsICctbnQn

> <r_lp_tautomer_probability>
1

> <r_epik_Ionization_Penalty>
  0.0079

> <r_epik_Ionization_Penalty_Charging>
  0.0004

> <r_epik_Ionization_Penalty_Neutral>
  0.0075

> <r_epik_State_Penalty>
 -0.0000

> <r_epik_Charging_Adjusted_Penalty>
0.000356900462446444

> <i_epik_Tot_Q>
-1

> <i_epik_Tot_abs_Q>
1

$$$$
