4oya_ligand
                    3D
 Schrodinger Suite 2020-3.
 37 40  0  0  1  0            999 V2000
   17.2900   20.7040   -1.0160 C   0  0  0  0  0  0
   18.0940   21.8720   -1.1490 C   0  0  0  0  0  0
   17.6110   23.2180   -1.5580 C   0  0  0  0  0  0
   19.4970   24.5220   -0.4750 C   0  0  0  0  0  0
   20.1700   25.7170   -0.2670 C   0  0  0  0  0  0
   19.7250   26.8770   -0.8680 C   0  0  0  0  0  0
   18.6200   26.8390   -1.6900 C   0  0  0  0  0  0
   16.8180   28.3100   -2.4230 C   0  0  0  0  0  0
   16.3740   28.0840   -3.8250 C   0  0  0  0  0  0
   14.6280   26.5480   -6.5220 C   0  0  0  0  0  0
   15.3290   28.0610   -8.2530 C   0  0  0  0  0  0
   16.0710   28.7900   -7.3320 C   0  0  0  0  0  0
   16.0910   28.3930   -5.9900 C   0  0  0  0  0  0
   17.9290   25.6580   -1.8830 C   0  0  0  0  0  0
   15.9530   20.6110   -1.1960 N   0  0  0  0  0  0
   18.0380   19.7010   -0.6610 N   0  0  0  0  0  0
   19.3070   20.2140   -0.5720 O   0  0  0  0  0  0
   19.3330   21.5610   -0.8900 N   0  0  0  0  0  0
   16.5410   23.2790   -2.1540 O   0  0  0  0  0  0
   18.3680   24.4790   -1.2860 C   0  0  0  0  0  0
   18.2130   28.0530   -2.2550 O   0  0  0  0  0  0
   15.5520   27.1150   -4.2300 N   0  5  0  0  0  0
   15.3770   27.2870   -5.5860 C   0  0  0  0  0  0
   14.6160   26.9430   -7.8500 C   0  0  0  0  0  0
   16.6910   28.8670   -4.8670 N   0  3  0  0  0  0
   19.8559   23.6094    0.0010 H   0  0  0  0  0  0
   21.0523   25.7399    0.3726 H   0  0  0  0  0  0
   20.2453   27.8187   -0.6932 H   0  0  0  0  0  0
   16.0935   28.6369   -1.6626 H   0  0  0  0  0  0
   14.0586   25.6649   -6.1966 H   0  0  0  0  0  0
   15.3094   28.3754   -9.3069 H   0  0  0  0  0  0
   16.6344   29.6662   -7.6528 H   0  0  0  0  0  0
   17.0349   25.6492   -2.5063 H   0  0  0  0  0  0
   15.3756   21.4975   -1.4971 H   0  0  0  0  0  0
   15.4428   19.6488   -1.0413 H   0  0  0  0  0  0
   14.0373   26.3651   -8.5856 H   0  0  0  0  0  0
   17.3219   29.7667   -4.9184 H   0  0  0  0  0  0
  1  2  1  0  0  0
  1 15  1  0  0  0
  1 16  2  0  0  0
  2  3  1  0  0  0
  2 18  2  0  0  0
  3 19  2  0  0  0
  3 20  1  0  0  0
  4  5  2  0  0  0
  4 20  1  0  0  0
  4 26  1  0  0  0
  5  6  1  0  0  0
  5 27  1  0  0  0
  6  7  2  0  0  0
  6 28  1  0  0  0
  7 14  1  0  0  0
  7 21  1  0  0  0
  8  9  2  0  0  0
  8 21  1  0  0  0
  8 29  1  0  0  0
  9 22  1  0  0  0
  9 25  1  0  0  0
 10 23  2  0  0  0
 10 24  1  0  0  0
 10 30  1  0  0  0
 11 12  1  0  0  0
 11 24  2  0  0  0
 11 31  1  0  0  0
 12 13  1  0  0  0
 12 32  1  0  0  0
 13 23  1  0  0  0
 13 25  2  0  0  0
 14 20  2  0  0  0
 14 33  1  0  0  0
 15 34  1  0  0  0
 15 35  1  0  0  0
 16 17  1  0  0  0
 17 18  1  0  0  0
 22 23  1  0  0  0
 24 36  1  0  0  0
 25 37  1  0  0  0
M  CHG  2  22  -1  25   1
M  END
> <s_m_source_file>
../4oya_ligand.sdf

> <i_m_source_file_index>
1

> <s_epik_input>
bjFvbmMoYzFbTkgyXSlDKD1PKWMoW2NIXTIpW2NIXVtjSF1bY0hdYzJPW0NIMl1DKE4zKT1OQyhDPTM0KT1bQ0hdW0NIXT1bQ0hdW0NIMl00

> <s_epik_cmdline>
J2VwaWtfYXBwJywgJy1pbWFlJywgJ2xpZ2FuZF9wcm8ubWFlJywgJy1vbWFlJywgJ2xpZ2FuZF9wcmVwLm1hZScsICctbXMnLCAnMScsICctcGgnLCAnNycsICctcGh0JywgJzAuNScsICctbnQn

> <r_epik_Ionization_Penalty>
  0.2445

> <r_epik_Ionization_Penalty_Charging>
  0.2444

> <r_epik_Ionization_Penalty_Neutral>
  0.0000

> <r_epik_State_Penalty>
  0.5252

> <r_epik_Charging_Adjusted_Penalty>
0.769608962403569

> <i_epik_Tot_Q>
0

> <i_epik_Tot_abs_Q>
2

> <s_epik_Chemistry_Notes>
This compound has an imine and may undergo hydrolysis.

$$$$
