4oyb_ligand
                    3D
 Schrodinger Suite 2020-3.
 34 35  0  0  1  0            999 V2000
   15.1710   27.0360   -7.8260 C   0  0  0  0  0  0
   15.1270   27.0880   -6.3040 C   0  0  0  0  0  0
   18.0410   27.7980   -4.1320 C   0  0  0  0  0  0
   18.6520   26.8360   -2.0070 C   0  0  0  0  0  0
   20.0990   25.8840   -0.3630 C   0  0  0  0  0  0
   19.5060   24.6530   -0.5500 C   0  0  0  0  0  0
   18.4770   24.5050   -1.4700 C   0  0  0  0  0  0
   18.0560   25.6140   -2.1970 C   0  0  0  0  0  0
   17.7870   23.2100   -1.7290 C   0  0  0  0  0  0
   18.2930   21.9080   -1.2070 C   0  0  0  0  0  0
   16.4560   27.4220   -5.8100 O   0  0  0  0  0  0
   16.5960   27.5820   -4.4800 C   0  0  0  0  0  0
   15.6870   27.5550   -3.6850 O   0  0  0  0  0  0
   18.2440   27.9610   -2.7250 O   0  0  0  0  0  0
   19.6710   26.9800   -1.0930 C   0  0  0  0  0  0
   16.7600   23.2200   -2.4000 O   0  0  0  0  0  0
   19.5320   21.6910   -0.8640 N   0  0  0  0  0  0
   19.5630   20.3680   -0.4440 O   0  0  0  0  0  0
   18.3490   19.7820   -0.5310 N   0  0  0  0  0  0
   17.5550   20.7030   -0.9950 C   0  0  0  0  0  0
   16.2380   20.4870   -1.2200 N   0  0  0  0  0  0
   14.1726   26.7844   -8.2133 H   0  0  0  0  0  0
   15.8923   26.2696   -8.1460 H   0  0  0  0  0  0
   15.4799   28.0164   -8.2176 H   0  0  0  0  0  0
   14.4057   27.8544   -5.9840 H   0  0  0  0  0  0
   14.8181   26.1076   -5.9124 H   0  0  0  0  0  0
   18.6313   26.9306   -4.4624 H   0  0  0  0  0  0
   18.4079   28.7045   -4.6356 H   0  0  0  0  0  0
   20.9063   25.9944    0.3610 H   0  0  0  0  0  0
   19.8465   23.7931    0.0267 H   0  0  0  0  0  0
   17.2482   25.5120   -2.9217 H   0  0  0  0  0  0
   20.1392   27.9530   -0.9444 H   0  0  0  0  0  0
   15.6070   21.2977   -1.6133 H   0  0  0  0  0  0
   15.7986   19.5008   -1.0095 H   0  0  0  0  0  0
  1  2  1  0  0  0
  1 22  1  0  0  0
  1 23  1  0  0  0
  1 24  1  0  0  0
  2 11  1  0  0  0
  2 25  1  0  0  0
  2 26  1  0  0  0
  3 12  1  0  0  0
  3 14  1  0  0  0
  3 27  1  0  0  0
  3 28  1  0  0  0
  4  8  2  0  0  0
  4 14  1  0  0  0
  4 15  1  0  0  0
  5  6  1  0  0  0
  5 15  2  0  0  0
  5 29  1  0  0  0
  6  7  2  0  0  0
  6 30  1  0  0  0
  7  8  1  0  0  0
  7  9  1  0  0  0
  8 31  1  0  0  0
  9 10  1  0  0  0
  9 16  2  0  0  0
 10 17  2  0  0  0
 10 20  1  0  0  0
 11 12  1  0  0  0
 12 13  2  0  0  0
 15 32  1  0  0  0
 17 18  1  0  0  0
 18 19  1  0  0  0
 19 20  2  0  0  0
 20 21  1  0  0  0
 21 33  1  0  0  0
 21 34  1  0  0  0
M  END
> <s_m_source_file>
../4oyb_ligand.sdf

> <i_m_source_file_index>
1

> <s_epik_input>
W0NIM11bQ0gyXU9DKD1PKVtDSDJdT2MxW2NIXWMoW2NIXVtjSF1bY0hdMSlDKD1PKWMybm9uYzJbTkgyXQ==

> <s_epik_cmdline>
J2VwaWtfYXBwJywgJy1pbWFlJywgJ2xpZ2FuZF9wcm8ubWFlJywgJy1vbWFlJywgJ2xpZ2FuZF9wcmVwLm1hZScsICctbXMnLCAnMScsICctcGgnLCAnNycsICctcGh0JywgJzAuNScsICctbnQn

> <r_lp_tautomer_probability>
1

> <r_epik_Ionization_Penalty>
  0.0000

> <r_epik_Ionization_Penalty_Charging>
  0.0000

> <r_epik_Ionization_Penalty_Neutral>
  0.0000

> <r_epik_State_Penalty>
 -0.0000

> <r_epik_Charging_Adjusted_Penalty>
0

> <i_epik_Tot_Q>
0

> <i_epik_Tot_abs_Q>
0

> <s_epik_Chemistry_Notes>
This compound has an ester and may undergo hydrolysis at high or low pH.

$$$$
