4oyi_ligand
                    3D
 Schrodinger Suite 2020-3.
 21 22  0  0  1  0            999 V2000
   17.2490   20.5360   -0.9150 C   0  0  0  0  0  0
   18.0090   21.7290   -1.1140 C   0  0  0  0  0  0
   17.4670   23.0340   -1.5770 C   0  0  0  0  0  0
   17.6940   25.4530   -2.0430 C   0  0  0  0  0  0
   18.3050   26.6780   -1.8930 C   0  0  0  0  0  0
   19.4030   26.8050   -1.0700 C   0  0  0  0  0  0
   19.8920   25.7070   -0.3960 C   0  0  0  0  0  0
   19.2840   24.4730   -0.5420 C   0  0  0  0  0  0
   15.9160   20.3710   -1.1050 N   0  0  0  0  0  0
   18.0390   19.5850   -0.5090 N   0  0  0  0  0  0
   19.2900   20.1610   -0.4480 O   0  0  0  0  0  0
   19.2580   21.4890   -0.8260 N   0  0  0  0  0  0
   16.3850   23.0330   -2.1590 O   0  0  0  0  0  0
   18.1770   24.3340   -1.3680 C   0  0  0  0  0  0
   16.8256   25.3581   -2.6950 H   0  0  0  0  0  0
   17.9199   27.5476   -2.4255 H   0  0  0  0  0  0
   19.8854   27.7753   -0.9520 H   0  0  0  0  0  0
   20.7606   25.8111    0.2542 H   0  0  0  0  0  0
   19.6752   23.6076   -0.0071 H   0  0  0  0  0  0
   15.3010   21.2152   -1.4501 H   0  0  0  0  0  0
   15.4501   19.3930   -0.9140 H   0  0  0  0  0  0
  1  2  1  0  0  0
  1  9  1  0  0  0
  1 10  2  0  0  0
  2  3  1  0  0  0
  2 12  2  0  0  0
  3 13  2  0  0  0
  3 14  1  0  0  0
  4  5  2  0  0  0
  4 14  1  0  0  0
  4 15  1  0  0  0
  5  6  1  0  0  0
  5 16  1  0  0  0
  6  7  2  0  0  0
  6 17  1  0  0  0
  7  8  1  0  0  0
  7 18  1  0  0  0
  8 14  2  0  0  0
  8 19  1  0  0  0
  9 20  1  0  0  0
  9 21  1  0  0  0
 10 11  1  0  0  0
 11 12  1  0  0  0
M  END
> <s_m_source_file>
../4oyi_ligand.sdf

> <i_m_source_file_index>
1

> <s_epik_input>
bjFvbmMoYzFbTkgyXSlDKD1PKWMyW2NIXVtjSF1bY0hdW2NIXVtjSF0y

> <s_epik_cmdline>
J2VwaWtfYXBwJywgJy1pbWFlJywgJ2xpZ2FuZF9wcm8ubWFlJywgJy1vbWFlJywgJ2xpZ2FuZF9wcmVwLm1hZScsICctbXMnLCAnMScsICctcGgnLCAnNycsICctcGh0JywgJzAuNScsICctbnQn

> <r_lp_tautomer_probability>
1

> <r_epik_Ionization_Penalty>
  0.0000

> <r_epik_Ionization_Penalty_Charging>
  0.0000

> <r_epik_Ionization_Penalty_Neutral>
  0.0000

> <r_epik_State_Penalty>
 -0.0000

> <r_epik_Charging_Adjusted_Penalty>
0

> <i_epik_Tot_Q>
0

> <i_epik_Tot_abs_Q>
0

$$$$
