4oym_ligand
                    3D
 Schrodinger Suite 2020-3.
 25 26  0  0  1  0            999 V2000
   17.1090   28.0100   -1.9230 C   0  0  0  0  0  0
   18.4060   26.8820   -0.2480 C   0  0  0  0  0  0
   19.9110   25.8450    1.3050 C   0  0  0  0  0  0
   19.2690   24.6330    1.1240 C   0  0  0  0  0  0
   18.1810   24.5340    0.2650 C   0  0  0  0  0  0
   17.7560   25.6700   -0.4170 C   0  0  0  0  0  0
   17.9430   21.9350    0.4340 C   0  0  0  0  0  0
   17.1330   20.7790    0.5150 C   0  0  0  0  0  0
   18.0720   28.0560   -0.8710 O   0  0  0  0  0  0
   19.4860   26.9670    0.6210 C   0  0  0  0  0  0
   17.4500   23.2600    0.0020 C   0  0  0  0  0  0
   16.3920   23.2930   -0.6200 O   0  0  0  0  0  0
   19.1680   21.6100    0.7380 N   0  0  0  0  0  0
   19.1120   20.2570    1.0280 O   0  0  0  0  0  0
   17.8550   19.7650    0.8860 N   0  0  0  0  0  0
   15.8100   20.7060    0.2800 N   0  0  0  0  0  0
   16.9496   29.0239   -2.3187 H   0  0  0  0  0  0
   16.1592   27.6148   -1.5336 H   0  0  0  0  0  0
   17.4759   27.3558   -2.7276 H   0  0  0  0  0  0
   20.7558   25.9147    1.9903 H   0  0  0  0  0  0
   19.6188   23.7499    1.6586 H   0  0  0  0  0  0
   16.9023   25.6057   -1.0917 H   0  0  0  0  0  0
   19.9979   27.9187    0.7631 H   0  0  0  0  0  0
   15.2565   21.6039   -0.0322 H   0  0  0  0  0  0
   15.2821   19.7485    0.4001 H   0  0  0  0  0  0
  1  9  1  0  0  0
  1 17  1  0  0  0
  1 18  1  0  0  0
  1 19  1  0  0  0
  2  6  2  0  0  0
  2  9  1  0  0  0
  2 10  1  0  0  0
  3  4  1  0  0  0
  3 10  2  0  0  0
  3 20  1  0  0  0
  4  5  2  0  0  0
  4 21  1  0  0  0
  5  6  1  0  0  0
  5 11  1  0  0  0
  6 22  1  0  0  0
  7  8  1  0  0  0
  7 11  1  0  0  0
  7 13  2  0  0  0
  8 15  2  0  0  0
  8 16  1  0  0  0
 10 23  1  0  0  0
 11 12  2  0  0  0
 13 14  1  0  0  0
 14 15  1  0  0  0
 16 24  1  0  0  0
 16 25  1  0  0  0
M  END
> <s_m_source_file>
../4oym_ligand.sdf

> <i_m_source_file_index>
1

> <s_epik_input>
W0NIM11PYzFbY0hdYyhbY0hdW2NIXVtjSF0xKUMoPU8pYzJjKFtOSDJdKW5vbjI=

> <s_epik_cmdline>
J2VwaWtfYXBwJywgJy1pbWFlJywgJ2xpZ2FuZF9wcm8ubWFlJywgJy1vbWFlJywgJ2xpZ2FuZF9wcmVwLm1hZScsICctbXMnLCAnMScsICctcGgnLCAnNycsICctcGh0JywgJzAuNScsICctbnQn

> <r_lp_tautomer_probability>
1

> <r_epik_Ionization_Penalty>
  0.0000

> <r_epik_Ionization_Penalty_Charging>
  0.0000

> <r_epik_Ionization_Penalty_Neutral>
  0.0000

> <r_epik_State_Penalty>
 -0.0000

> <r_epik_Charging_Adjusted_Penalty>
0

> <i_epik_Tot_Q>
0

> <i_epik_Tot_abs_Q>
0

$$$$
