4oyp_ligand
                    3D
 Schrodinger Suite 2020-3.
 17 18  0  0  1  0            999 V2000
   16.8220   30.4920   -2.2860 O   0  5  0  0  0  0
   15.2970   28.8720   -2.4030 O   0  0  0  0  0  0
   19.9780   25.7350    1.2620 C   0  0  0  0  0  0
   18.9420   24.8580    0.9760 C   0  0  0  0  0  0
   19.9450   27.0420    0.7930 C   0  0  0  0  0  0
   17.8620   25.2860    0.2280 C   0  0  0  0  0  0
   18.4670   28.6800   -0.6130 C   0  0  0  0  0  0
   16.8690   27.1610   -0.9860 O   0  0  0  0  0  0
   16.4020   29.3360   -2.0250 C   0  0  0  0  0  0
   17.2800   28.4580   -1.2150 C   0  0  0  0  0  0
   18.8570   27.4900    0.0190 C   0  0  0  0  0  0
   17.8480   26.5880   -0.2350 C   0  0  0  0  0  0
   20.8244   25.3959    1.8593 H   0  0  0  0  0  0
   18.9799   23.8317    1.3412 H   0  0  0  0  0  0
   20.7638   27.7231    1.0247 H   0  0  0  0  0  0
   17.0365   24.6093    0.0072 H   0  0  0  0  0  0
   19.0237   29.6171   -0.6171 H   0  0  0  0  0  0
  1  9  1  0  0  0
  2  9  2  0  0  0
  3  4  2  0  0  0
  3  5  1  0  0  0
  3 13  1  0  0  0
  4  6  1  0  0  0
  4 14  1  0  0  0
  5 11  2  0  0  0
  5 15  1  0  0  0
  6 12  2  0  0  0
  6 16  1  0  0  0
  7 10  2  0  0  0
  7 11  1  0  0  0
  7 17  1  0  0  0
  8 10  1  0  0  0
  8 12  1  0  0  0
  9 10  1  0  0  0
 11 12  1  0  0  0
M  CHG  1   1  -1
M  END
> <s_m_source_file>
../4oyp_ligand.sdf

> <i_m_source_file_index>
1

> <s_epik_input>
W09IXUMoPU8pYyhbY0hdMSlvYyhjMTIpW2NIXVtjSF1bY0hdW2NIXTI=

> <s_epik_cmdline>
J2VwaWtfYXBwJywgJy1pbWFlJywgJ2xpZ2FuZF9wcm8ubWFlJywgJy1vbWFlJywgJ2xpZ2FuZF9wcmVwLm1hZScsICctbXMnLCAnMScsICctcGgnLCAnNycsICctcGh0JywgJzAuNScsICctbnQn

> <r_lp_tautomer_probability>
1

> <r_epik_Ionization_Penalty>
  0.0001

> <r_epik_Ionization_Penalty_Charging>
  0.0001

> <r_epik_Ionization_Penalty_Neutral>
  0.0000

> <r_epik_State_Penalty>
 -0.0000

> <r_epik_Charging_Adjusted_Penalty>
6.52610419607063e-05

> <i_epik_Tot_Q>
-1

> <i_epik_Tot_abs_Q>
1

$$$$
