4oys_ligand
                    3D
 Schrodinger Suite 2020-3.
 52 55  0  0  1  0            999 V2000
   17.3650  -17.5320  -23.2920 C   0  0  0  0  0  0
   16.7830  -16.2380  -22.9490 C   0  0  0  0  0  0
   17.5870  -15.0730  -22.8260 C   0  0  0  0  0  0
   21.5200  -17.4830  -24.3330 C   0  0  1  0  0  0
   20.9610  -18.7490  -23.6650 C   0  0  0  0  0  0
   19.4430  -18.8370  -23.8370 C   0  0  0  0  0  0
   21.3230  -17.4360  -25.8360 C   0  0  0  0  0  0
   15.2910  -12.3470  -21.8090 C   0  0  0  0  0  0
   15.6640  -13.4390  -22.7910 C   0  0  1  0  0  0
   21.6370  -14.9430  -23.7030 C   0  0  0  0  0  0
   21.6420  -13.0550  -22.0020 C   0  0  0  0  0  0
   15.3240  -13.0900  -24.2310 C   0  0  0  0  0  0
   18.9570  -15.1450  -23.1160 N   0  0  0  0  0  0
   18.8070  -17.5460  -23.5150 N   0  0  0  0  0  0
   19.5360  -16.3280  -23.3940 C   0  0  3  0  0  0
   20.9550  -16.2980  -23.6610 N   0  0  1  0  0  0
   17.1270  -13.8510  -22.6430 N   0  0  0  0  0  0
   16.7960  -18.6250  -23.4080 O   0  0  0  0  0  0
   20.1030  -17.0200  -26.1800 F   0  0  0  0  0  0
   22.1860  -16.5980  -26.4010 F   0  0  0  0  0  0
   21.5000  -18.6220  -26.4200 F   0  0  0  0  0  0
   18.0850  -12.7510  -22.4520 C   0  0  0  0  0  0
   17.5500  -11.7500  -21.4530 C   0  0  0  0  0  0
   16.2530  -11.2730  -21.8170 O   0  0  0  0  0  0
   21.8820  -14.4030  -22.3250 C   0  0  0  0  0  0
   21.8790  -12.6220  -20.6680 C   0  0  0  0  0  0
   22.3430  -13.5430  -19.6860 C   0  0  0  0  0  0
   22.5680  -14.8560  -19.9930 N   0  0  0  0  0  0
   22.3340  -15.2630  -21.2780 C   0  0  0  0  0  0
   21.5670  -10.9860  -20.2180 Cl  0  0  0  0  0  0
   16.0445  -15.9540  -23.7132 H   0  0  0  0  0  0
   16.2885  -16.3066  -21.9688 H   0  0  0  0  0  0
   22.6114  -17.4549  -24.1983 H   0  0  0  0  0  0
   21.4194  -19.6380  -24.1228 H   0  0  0  0  0  0
   21.1930  -18.7293  -22.5899 H   0  0  0  0  0  0
   19.2067  -19.1000  -24.8786 H   0  0  0  0  0  0
   19.0418  -19.6090  -23.1638 H   0  0  0  0  0  0
   14.3075  -11.9335  -22.0767 H   0  0  0  0  0  0
   15.2481  -12.7665  -20.7930 H   0  0  0  0  0  0
   15.0345  -14.3027  -22.5308 H   0  0  0  0  0  0
   22.6056  -15.0358  -24.2160 H   0  0  0  0  0  0
   21.0010  -14.2291  -24.2469 H   0  0  0  0  0  0
   21.2820  -12.3571  -22.7580 H   0  0  0  0  0  0
   14.2652  -12.7991  -24.2976 H   0  0  0  0  0  0
   15.5050  -13.9648  -24.8728 H   0  0  0  0  0  0
   15.9557  -12.2535  -24.5645 H   0  0  0  0  0  0
   19.0373  -13.1550  -22.0779 H   0  0  0  0  0  0
   18.2547  -12.2417  -23.4121 H   0  0  0  0  0  0
   17.4769  -12.2235  -20.4628 H   0  0  0  0  0  0
   18.2306  -10.8876  -21.3977 H   0  0  0  0  0  0
   22.5224  -13.1940  -18.6691 H   0  0  0  0  0  0
   22.5036  -16.3125  -21.5186 H   0  0  0  0  0  0
  1  2  1  0  0  0
  1 14  1  0  0  0
  1 18  2  0  0  0
  2  3  1  0  0  0
  2 31  1  0  0  0
  2 32  1  0  0  0
  3 13  2  0  0  0
  3 17  1  0  0  0
  4  5  1  0  0  0
  4  7  1  0  0  0
  4 16  1  0  0  0
  4 33  1  0  0  0
  5  6  1  0  0  0
  5 34  1  0  0  0
  5 35  1  0  0  0
  6 14  1  0  0  0
  6 36  1  0  0  0
  6 37  1  0  0  0
  7 19  1  0  0  0
  7 20  1  0  0  0
  7 21  1  0  0  0
  8  9  1  0  0  0
  8 24  1  0  0  0
  8 38  1  0  0  0
  8 39  1  0  0  0
  9 12  1  0  0  0
  9 17  1  0  0  0
  9 40  1  0  0  0
 10 16  1  0  0  0
 10 25  1  0  0  0
 10 41  1  0  0  0
 10 42  1  0  0  0
 11 25  2  0  0  0
 11 26  1  0  0  0
 11 43  1  0  0  0
 12 44  1  0  0  0
 12 45  1  0  0  0
 12 46  1  0  0  0
 13 15  1  0  0  0
 14 15  1  0  0  0
 15 16  1  0  0  0
 17 22  1  0  0  0
 22 23  1  0  0  0
 22 47  1  0  0  0
 22 48  1  0  0  0
 23 24  1  0  0  0
 23 49  1  0  0  0
 23 50  1  0  0  0
 25 29  1  0  0  0
 26 27  2  0  0  0
 26 30  1  0  0  0
 27 28  1  0  0  0
 27 51  1  0  0  0
 28 29  2  0  0  0
 29 52  1  0  0  0
M  END
> <s_m_source_file>
../4oys_ligand.sdf

> <i_m_source_file_index>
1

> <s_epik_input>
W0NIM11bQ0BASF0xW0NIMl1PW0NIMl1bQ0gyXVtOK11cMT1DKFxbQ0gyXUMyPU8pW05IXVtDSF0oTjIzKU4oW0NASF0oQyhGKShGKUYpW0NIMl1bQ0gyXTMpW0NIMl1jNFtjSF1jKENsKVtjSF1uW2NIXTQ=

> <s_epik_cmdline>
J2VwaWtfYXBwJywgJy1pbWFlJywgJ2xpZ2FuZF9wcm8ubWFlJywgJy1vbWFlJywgJ2xpZ2FuZF9wcmVwLm1hZScsICctbXMnLCAnMScsICctcGgnLCAnNycsICctcGh0JywgJzAuNScsICctbnQn

> <r_lp_tautomer_probability>
1

> <r_epik_Ionization_Penalty>
  0.0004

> <r_epik_Ionization_Penalty_Charging>
  0.0000

> <r_epik_Ionization_Penalty_Neutral>
  0.0004

> <r_epik_State_Penalty>
 -0.0000

> <r_epik_Charging_Adjusted_Penalty>
0

> <i_epik_Tot_Q>
0

> <i_epik_Tot_abs_Q>
0

> <s_epik_Chemistry_Notes>
This compound has an imine and may undergo hydrolysis.

$$$$
