4oyt_ligand
                    3D
 Schrodinger Suite 2020-3.
 55 57  0  0  1  0            999 V2000
   21.0110   -2.4360   20.3400 N   0  0  0  0  0  0
   20.6500   -1.1750   20.5970 C   0  0  0  0  0  0
   20.5970   -0.2980   19.5680 N   0  0  0  0  0  0
   20.3580   -0.7330   21.8510 N   0  3  0  0  0  0
   20.3920   -1.5260   22.9480 C   0  0  0  0  0  0
   20.0990   -1.0910   24.0960 O   0  0  0  0  0  0
   20.7990   -2.9230   22.6960 C   0  0  1  0  0  0
   20.8610   -3.9500   23.6210 N   0  0  0  0  0  0
   20.1670   -5.0970   23.0030 C   0  0  1  0  0  0
   21.2030   -5.7000   22.0540 C   0  0  0  0  0  0
   21.4550   -4.6390   21.0660 N   0  0  0  0  0  0
   21.0930   -3.3410   21.3080 C   0  0  0  0  0  0
   19.4870   -6.0070   24.0040 C   0  0  0  0  0  0
   18.4880   -5.1290   24.5680 N   0  0  0  0  0  0
   14.3670   -5.2490   24.3180 C   0  0  0  0  0  0
   15.1170   -5.2690   23.1330 C   0  0  0  0  0  0
   16.5130   -5.2320   23.1660 C   0  0  0  0  0  0
   17.1510   -5.1910   24.4110 C   0  0  0  0  0  0
   16.3980   -5.1620   25.5820 C   0  0  0  0  0  0
   15.0130   -5.1950   25.5410 C   0  0  0  0  0  0
   12.8680   -5.2840   24.3320 C   0  0  0  0  0  0
   12.2460   -5.0260   23.3080 O   0  0  0  0  0  0
   12.2830   -5.5790   25.5010 N   0  0  0  0  0  0
   10.9710   -6.1880   25.6900 C   0  0  1  0  0  0
   10.8880   -7.5720   25.0490 C   0  0  0  0  0  0
    9.5310   -7.8140   24.3880 C   0  0  0  0  0  0
    9.6650   -8.7970   23.2420 C   0  0  0  0  0  0
   10.7160   -9.4810   23.1480 O   0  5  0  0  0  0
    8.7120   -8.8860   22.4300 O   0  0  0  0  0  0
   10.6500   -6.3190   27.1540 C   0  0  0  0  0  0
   11.5950   -6.5010   27.9550 O   0  0  0  0  0  0
    9.4530   -6.2370   27.5190 O   0  5  0  0  0  0
   21.4710   -3.8740   24.7410 C   0  0  0  0  0  0
   20.9070   -3.8330   25.8290 O   0  0  0  0  0  0
   21.0513   -2.6855   23.7400 H   0  0  0  0  0  0
   19.2773   -4.7869   22.4353 H   0  0  0  0  0  0
   22.1104   -5.9598   22.6189 H   0  0  0  0  0  0
   20.7894   -6.6064   21.5877 H   0  0  0  0  0  0
   21.9432   -4.8818   20.1106 H   0  0  0  0  0  0
   19.0564   -6.8725   23.4792 H   0  0  0  0  0  0
   20.2240   -6.3555   24.7425 H   0  0  0  0  0  0
   18.7928   -4.2905   25.2114 H   0  0  0  0  0  0
   14.6033   -5.3141   22.1727 H   0  0  0  0  0  0
   17.0925   -5.2350   22.2428 H   0  0  0  0  0  0
   16.9055   -5.1126   26.5454 H   0  0  0  0  0  0
   14.4363   -5.1785   26.4658 H   0  0  0  0  0  0
   12.8975   -5.3145   26.3742 H   0  0  0  0  0  0
   10.2729   -5.4915   25.2026 H   0  0  0  0  0  0
   11.6678   -7.6668   24.2790 H   0  0  0  0  0  0
   11.0380   -8.3426   25.8195 H   0  0  0  0  0  0
    8.8298   -8.2241   25.1297 H   0  0  0  0  0  0
    9.1381   -6.8633   23.9985 H   0  0  0  0  0  0
   22.5694   -3.8455   24.6895 H   0  0  0  0  0  0
   20.3218    0.7508   19.7529 H   0  0  0  0  0  0
   20.0765    0.3181   22.0120 H   0  0  0  0  0  0
  1  2  1  0  0  0
  1 12  2  0  0  0
  2  3  2  0  0  0
  2  4  1  0  0  0
  3 54  1  0  0  0
  4  5  1  0  0  0
  4 55  1  0  0  0
  5  6  2  0  0  0
  5  7  1  0  0  0
  7  8  1  0  0  0
  7 12  1  0  0  0
  7 35  1  0  0  0
  8  9  1  0  0  0
  8 33  1  0  0  0
  9 10  1  0  0  0
  9 13  1  0  0  0
  9 36  1  0  0  0
 10 11  1  0  0  0
 10 37  1  0  0  0
 10 38  1  0  0  0
 11 12  1  0  0  0
 11 39  1  0  0  0
 13 14  1  0  0  0
 13 40  1  0  0  0
 13 41  1  0  0  0
 14 18  1  0  0  0
 14 42  1  0  0  0
 15 16  2  0  0  0
 15 20  1  0  0  0
 15 21  1  0  0  0
 16 17  1  0  0  0
 16 43  1  0  0  0
 17 18  2  0  0  0
 17 44  1  0  0  0
 18 19  1  0  0  0
 19 20  2  0  0  0
 19 45  1  0  0  0
 20 46  1  0  0  0
 21 22  2  0  0  0
 21 23  1  0  0  0
 23 24  1  0  0  0
 23 47  1  0  0  0
 24 25  1  0  0  0
 24 30  1  0  0  0
 24 48  1  0  0  0
 25 26  1  0  0  0
 25 49  1  0  0  0
 25 50  1  0  0  0
 26 27  1  0  0  0
 26 51  1  0  0  0
 26 52  1  0  0  0
 27 28  1  0  0  0
 27 29  2  0  0  0
 30 31  2  0  0  0
 30 32  1  0  0  0
 33 34  2  0  0  0
 33 53  1  0  0  0
M  CHG  3   4   1  28  -1  32  -1
M  END
> <s_m_source_file>
../4oyt_ligand.sdf

> <i_m_source_file_index>
1

> <s_epik_input>
Tz1DMVtOSF1DKD1OXFtIXSlcTj1DKFtDQEBIXTEyKVtOSF1bQ0gyXVtDQEhdKE4yW0NIXT1PKVtDSDJdW05IXWMoW2NIXVtjSF0zKVtjSF1bY0hdYzNDKD1PKVtOSF1bQ0BIXShDKD1PKVtPSF0pW0NIMl1bQ0gyXUMoPU8pW09IXQ==

> <s_epik_cmdline>
J2VwaWtfYXBwJywgJy1pbWFlJywgJ2xpZ2FuZF9wcm8ubWFlJywgJy1vbWFlJywgJ2xpZ2FuZF9wcmVwLm1hZScsICctbXMnLCAnMScsICctcGgnLCAnNycsICctcGh0JywgJzAuNScsICctbnQn

> <r_epik_Ionization_Penalty>
  0.0043

> <r_epik_Ionization_Penalty_Charging>
  0.0043

> <r_epik_Ionization_Penalty_Neutral>
  0.0000

> <r_epik_State_Penalty>
  0.4107

> <r_epik_Charging_Adjusted_Penalty>
0.414981631178887

> <i_epik_Tot_Q>
-1

> <i_epik_Tot_abs_Q>
3

> <s_epik_Chemistry_Notes>
This compound has an imine and may undergo hydrolysis.

$$$$
