4oz1_ligand
                    3D
 Schrodinger Suite 2020-3.
127129  0  0  1  0            999 V2000
   23.5280  -69.5920   87.9570 N   0  3  0  0  0  0
   22.8540  -69.7120   89.2470 C   0  0  2  0  0  0
   23.3590  -68.6550   90.2380 C   0  0  0  0  0  0
   24.2340  -68.9330   91.0730 O   0  0  0  0  0  0
   23.0610  -71.1160   89.8190 C   0  0  0  0  0  0
   22.7970  -67.4500   90.1480 N   0  0  0  0  0  0
   23.2980  -66.3130   90.9200 C   0  0  2  0  0  0
   22.8730  -66.4040   92.3820 C   0  0  0  0  0  0
   22.0250  -67.2230   92.7470 O   0  0  0  0  0  0
   22.8160  -64.9910   90.3130 C   0  0  0  0  0  0
   21.5180  -64.6380   90.7670 O   0  0  0  0  0  0
   23.4940  -65.5790   93.2270 N   0  0  0  0  0  0
   23.1730  -65.5750   94.6550 C   0  0  2  0  0  0
   22.0990  -64.5530   94.9830 C   0  0  0  0  0  0
   21.8330  -64.2870   96.1610 O   0  0  0  0  0  0
   24.4290  -65.3060   95.4740 C   0  0  0  0  0  0
   25.4910  -66.3190   95.1990 C   0  0  0  0  0  0
   26.6300  -66.2240   96.1590 C   0  0  0  0  0  0
   26.2840  -66.7050   97.4940 N   0  0  0  0  0  0
   27.0900  -66.6040   98.5430 C   0  0  0  0  0  0
   28.2900  -66.0510   98.4110 N   0  0  0  0  0  0
   26.7130  -67.0600   99.7220 N   0  3  0  0  0  0
   21.4910  -63.9600   93.9530 N   0  0  0  0  0  0
   20.3480  -63.0870   94.1730 C   0  0  2  0  0  0
   19.2180  -63.9280   94.7300 C   0  0  0  0  0  0
   19.0180  -65.0690   94.3100 O   0  0  0  0  0  0
   19.9090  -62.3830   92.8810 C   0  0  0  0  0  0
   20.8810  -61.3300   92.4390 C   0  0  0  0  0  0
   21.7050  -61.3850   91.3560 C   0  0  0  0  0  0
   21.1460  -60.0790   93.0840 C   0  0  0  0  0  0
   22.4590  -60.2350   91.2790 N   0  3  0  0  0  0
   22.1380  -59.4200   92.3290 C   0  0  0  0  0  0
   20.6400  -59.4480   94.2230 C   0  0  0  0  0  0
   22.6270  -58.1620   92.6760 C   0  0  0  0  0  0
   21.1260  -58.2060   94.5700 C   0  0  0  0  0  0
   22.1090  -57.5710   93.7980 C   0  0  0  0  0  0
   18.5190  -63.3490   95.6990 N   0  0  0  0  0  0
   17.4030  -63.9710   96.4120 C   0  0  2  0  0  0
   17.8370  -65.1410   97.3090 C   0  0  0  0  0  0
   17.0070  -65.8410   97.8810 O   0  0  0  0  0  0
   16.3470  -64.4030   95.4030 C   0  0  0  0  0  0
   15.9690  -63.2720   94.4790 C   0  0  0  0  0  0
   15.6620  -62.1780   95.0120 O   0  5  0  0  0  0
   16.0390  -63.4440   93.2400 O   0  0  0  0  0  0
   19.1410  -65.3310   97.4800 N   0  0  0  0  0  0
   19.6060  -66.3150   98.4520 C   0  0  2  0  0  0
   19.3020  -65.8720   99.8850 C   0  0  0  0  0  0
   19.8520  -64.8860  100.3690 O   0  0  0  0  0  0
   21.1040  -66.5570   98.2970 C   0  0  0  0  0  0
   21.6790  -67.5000   99.3500 C   0  0  0  0  0  0
   23.1860  -67.6350   99.2270 C   0  0  0  0  0  0
   23.8770  -67.4860  100.2640 O   0  5  0  0  0  0
   23.6650  -67.8930   98.1020 O   0  0  0  0  0  0
   18.4250  -66.6070  100.5590 N   0  0  0  0  0  0
   18.1070  -66.3540  101.9640 C   0  0  2  0  0  0
   19.2490  -66.7700  102.9020 C   0  0  0  0  0  0
   20.0670  -67.6340  102.5610 O   0  0  0  0  0  0
   16.8430  -67.1170  102.4030 C   0  0  2  0  0  0
   17.0500  -68.5250  102.2020 O   0  0  0  0  0  0
   15.6210  -66.6490  101.6170 C   0  0  0  0  0  0
   19.3100  -66.1500  104.0950 N   0  0  0  0  0  0
   20.3790  -66.5530  105.0200 C   0  0  2  0  0  0
   20.1720  -67.9710  105.5430 C   0  0  0  0  0  0
   21.0600  -68.8160  105.4100 O   0  0  0  0  0  0
   20.2940  -65.5210  106.1590 C   0  0  0  0  0  0
   19.0380  -64.7470  105.9470 C   0  0  0  0  0  0
   18.5660  -64.9580  104.5480 C   0  0  0  0  0  0
   19.1160  -68.2900  106.0960 O   0  5  0  0  0  0
   23.3730  -68.5799   87.5551 H   0  0  0  0  0  0
   23.1137  -70.3321   87.2566 H   0  0  0  0  0  0
   24.6050  -69.7736   88.0877 H   0  0  0  0  0  0
   21.7884  -69.5375   89.0371 H   0  0  0  0  0  0
   22.6950  -71.8628   89.0991 H   0  0  0  0  0  0
   22.5045  -71.2131   90.7629 H   0  0  0  0  0  0
   24.1323  -71.2814   90.0062 H   0  0  0  0  0  0
   21.9373  -67.3211   89.4740 H   0  0  0  0  0  0
   24.3937  -66.3861   90.8554 H   0  0  0  0  0  0
   23.5089  -64.1843   90.5942 H   0  0  0  0  0  0
   22.7834  -65.0810   89.2172 H   0  0  0  0  0  0
   21.0446  -63.7105   90.4124 H   0  0  0  0  0  0
   24.2591  -64.8937   92.8333 H   0  0  0  0  0  0
   22.7806  -66.5790   94.8742 H   0  0  0  0  0  0
   24.8245  -64.3109   95.2225 H   0  0  0  0  0  0
   24.1829  -65.3427   96.5455 H   0  0  0  0  0  0
   25.0633  -67.3293   95.2783 H   0  0  0  0  0  0
   25.8883  -66.1676   94.1845 H   0  0  0  0  0  0
   27.4715  -66.8292   95.7906 H   0  0  0  0  0  0
   26.9458  -65.1743   96.2506 H   0  0  0  0  0  0
   25.3087  -67.1818   97.6712 H   0  0  0  0  0  0
   28.6143  -65.6676   97.4323 H   0  0  0  0  0  0
   28.9598  -65.9763   99.2803 H   0  0  0  0  0  0
   25.7210  -67.5199   99.8423 H   0  0  0  0  0  0
   21.8604  -64.1356   92.9319 H   0  0  0  0  0  0
   20.6703  -62.3228   94.8956 H   0  0  0  0  0  0
   19.8217  -63.1229   92.0718 H   0  0  0  0  0  0
   18.9349  -61.8976   93.0407 H   0  0  0  0  0  0
   21.6925  -62.2677   90.6997 H   0  0  0  0  0  0
   19.8725  -59.9306   94.8280 H   0  0  0  0  0  0
   23.3922  -57.6674   92.0777 H   0  0  0  0  0  0
   20.7396  -57.7089   95.4598 H   0  0  0  0  0  0
   22.4686  -56.5864   94.0968 H   0  0  0  0  0  0
   18.8337  -62.3265   95.9549 H   0  0  0  0  0  0
   17.0072  -63.1858   97.0730 H   0  0  0  0  0  0
   16.7379  -65.2326   94.7956 H   0  0  0  0  0  0
   15.4435  -64.7332   95.9365 H   0  0  0  0  0  0
   19.8686  -64.7510   96.8933 H   0  0  0  0  0  0
   19.0431  -67.2300   98.2157 H   0  0  0  0  0  0
   21.3034  -67.0025   97.3112 H   0  0  0  0  0  0
   21.6407  -65.6006   98.3824 H   0  0  0  0  0  0
   21.4488  -67.1130  100.3536 H   0  0  0  0  0  0
   21.2330  -68.4984   99.2308 H   0  0  0  0  0  0
   17.9310  -67.4308  100.0230 H   0  0  0  0  0  0
   17.9579  -65.2644  101.9853 H   0  0  0  0  0  0
   16.6552  -66.9835  103.4786 H   0  0  0  0  0  0
   17.8911  -69.0333  102.6962 H   0  0  0  0  0  0
   15.4722  -65.5711  101.7781 H   0  0  0  0  0  0
   14.7317  -67.1973  101.9611 H   0  0  0  0  0  0
   15.7786  -66.8414  100.5455 H   0  0  0  0  0  0
   21.3462  -66.5651  104.4962 H   0  0  0  0  0  0
   20.2716  -66.0438  107.1265 H   0  0  0  0  0  0
   21.1716  -64.8590  106.1202 H   0  0  0  0  0  0
   18.2697  -65.0943  106.6534 H   0  0  0  0  0  0
   19.2336  -63.6776  106.1145 H   0  0  0  0  0  0
   18.8077  -64.1054  103.8964 H   0  0  0  0  0  0
   17.4858  -65.1604  104.5015 H   0  0  0  0  0  0
   23.1766  -60.1019   90.4560 H   0  0  0  0  0  0
   27.3906  -66.9803  100.5849 H   0  0  0  0  0  0
  1  2  1  0  0  0
  1 69  1  0  0  0
  1 70  1  0  0  0
  1 71  1  0  0  0
  2  3  1  0  0  0
  2  5  1  0  0  0
  2 72  1  0  0  0
  3  4  2  0  0  0
  3  6  1  0  0  0
  5 73  1  0  0  0
  5 74  1  0  0  0
  5 75  1  0  0  0
  6  7  1  0  0  0
  6 76  1  0  0  0
  7  8  1  0  0  0
  7 10  1  0  0  0
  7 77  1  0  0  0
  8  9  2  0  0  0
  8 12  1  0  0  0
 10 11  1  0  0  0
 10 78  1  0  0  0
 10 79  1  0  0  0
 11 80  1  0  0  0
 12 13  1  0  0  0
 12 81  1  0  0  0
 13 14  1  0  0  0
 13 16  1  0  0  0
 13 82  1  0  0  0
 14 15  2  0  0  0
 14 23  1  0  0  0
 16 17  1  0  0  0
 16 83  1  0  0  0
 16 84  1  0  0  0
 17 18  1  0  0  0
 17 85  1  0  0  0
 17 86  1  0  0  0
 18 19  1  0  0  0
 18 87  1  0  0  0
 18 88  1  0  0  0
 19 20  1  0  0  0
 19 89  1  0  0  0
 20 21  1  0  0  0
 20 22  2  0  0  0
 21 90  1  0  0  0
 21 91  1  0  0  0
 22 92  1  0  0  0
 22127  1  0  0  0
 23 24  1  0  0  0
 23 93  1  0  0  0
 24 25  1  0  0  0
 24 27  1  0  0  0
 24 94  1  0  0  0
 25 26  2  0  0  0
 25 37  1  0  0  0
 27 28  1  0  0  0
 27 95  1  0  0  0
 27 96  1  0  0  0
 28 29  2  0  0  0
 28 30  1  0  0  0
 29 31  1  0  0  0
 29 97  1  0  0  0
 30 32  2  0  0  0
 30 33  1  0  0  0
 31 32  1  0  0  0
 31126  1  0  0  0
 32 34  1  0  0  0
 33 35  2  0  0  0
 33 98  1  0  0  0
 34 36  2  0  0  0
 34 99  1  0  0  0
 35 36  1  0  0  0
 35100  1  0  0  0
 36101  1  0  0  0
 37 38  1  0  0  0
 37102  1  0  0  0
 38 39  1  0  0  0
 38 41  1  0  0  0
 38103  1  0  0  0
 39 40  2  0  0  0
 39 45  1  0  0  0
 41 42  1  0  0  0
 41104  1  0  0  0
 41105  1  0  0  0
 42 43  1  0  0  0
 42 44  2  0  0  0
 45 46  1  0  0  0
 45106  1  0  0  0
 46 47  1  0  0  0
 46 49  1  0  0  0
 46107  1  0  0  0
 47 48  2  0  0  0
 47 54  1  0  0  0
 49 50  1  0  0  0
 49108  1  0  0  0
 49109  1  0  0  0
 50 51  1  0  0  0
 50110  1  0  0  0
 50111  1  0  0  0
 51 52  1  0  0  0
 51 53  2  0  0  0
 54 55  1  0  0  0
 54112  1  0  0  0
 55 56  1  0  0  0
 55 58  1  0  0  0
 55113  1  0  0  0
 56 57  2  0  0  0
 56 61  1  0  0  0
 58 59  1  0  0  0
 58 60  1  0  0  0
 58114  1  0  0  0
 59115  1  0  0  0
 60116  1  0  0  0
 60117  1  0  0  0
 60118  1  0  0  0
 61 62  1  0  0  0
 61 67  1  0  0  0
 62 63  1  0  0  0
 62 65  1  0  0  0
 62119  1  0  0  0
 63 64  2  0  0  0
 63 68  1  0  0  0
 65 66  1  0  0  0
 65120  1  0  0  0
 65121  1  0  0  0
 66 67  1  0  0  0
 66122  1  0  0  0
 66123  1  0  0  0
 67124  1  0  0  0
 67125  1  0  0  0
M  CHG  6   1   1  22   1  31   1  43  -1  52  -1  68  -1
M  END
> <s_m_source_file>
../4oz1_ligand.sdf

> <i_m_source_file_index>
1

> <s_epik_input>
W05IMytdW0NAQEhdKFtDSDNdKUMoPU8pW05IXVtDQEBIXShbQ0gyXVtPSF0pQyg9TylbTkhdW0NAQEhdKFtDSDJdW0NIMl1bQ0gyXVtOSF0vQyhbTkgyXSk9TlxbSF0pQyg9TylbTkhdW0NAQEhdKFtDSDJdYzFbY0hdW25IXWMoYzEyKVtjSF1bY0hdW2NIXVtjSF0yKUMoPU8pW05IXVtDQEBIXShbQ0gyXUMoPU8pW09IXSlDKD1PKVtOSF1bQ0BASF0oW0NIMl1bQ0gyXUMoPU8pW09IXSlDKD1PKVtOSF1bQ0BASF0oW0NASF0oW09IXSlbQ0gzXSlDKD1PKU4zW0NASF0oQyg9TylbT0hdKVtDSDJdW0NIMl1bQ0gyXTM=

> <s_epik_cmdline>
J2VwaWtfYXBwJywgJy1pbWFlJywgJ2xpZ2FuZF9wcm8ubWFlJywgJy1vbWFlJywgJ2xpZ2FuZF9wcmVwLm1hZScsICctbXMnLCAnMScsICctcGgnLCAnNycsICctcGh0JywgJzAuNScsICctbnQn

> <r_epik_Ionization_Penalty>
  0.1380

> <r_epik_Ionization_Penalty_Charging>
  0.1380

> <r_epik_Ionization_Penalty_Neutral>
  0.0000

> <r_epik_State_Penalty>
  0.1240

> <r_epik_Charging_Adjusted_Penalty>
0.262013181211135

> <i_epik_Tot_Q>
0

> <i_epik_Tot_abs_Q>
6

> <s_epik_Chemistry_Notes>
This compound has an imine and may undergo hydrolysis.

$$$$
