4oz2_ligand
                    3D
 Schrodinger Suite 2020-3.
 21 22  0  0  1  0            999 V2000
   20.6890   28.1390   -8.6960 C   0  0  0  0  0  0
   21.0420   29.5680   -8.9320 C   0  0  0  0  0  0
   22.2840   31.2810   -9.1990 N   0  0  0  0  0  0
   21.0300   31.7480   -9.2900 C   0  0  0  0  0  0
   20.1990   30.6680   -9.1280 C   0  0  0  0  0  0
   18.7230   30.7160   -9.1600 C   0  0  0  0  0  0
   16.6730   31.8220   -9.7790 C   0  0  0  0  0  0
   15.9820   30.7870   -9.2230 C   0  0  0  0  0  0
   16.5910   29.7220   -8.6350 C   0  0  0  0  0  0
   17.9700   29.6860   -8.6000 C   0  0  0  0  0  0
   22.3220   29.9400   -8.9790 N   0  0  0  0  0  0
   18.0550   31.7870   -9.7560 C   0  0  0  0  0  0
   14.6230   30.8210   -9.2530 F   0  0  0  0  0  0
   19.5947   28.0277   -8.6906 H   0  0  0  0  0  0
   21.0952   27.8164   -7.7260 H   0  0  0  0  0  0
   21.1167   27.5185   -9.4973 H   0  0  0  0  0  0
   20.7299   32.7821   -9.4593 H   0  0  0  0  0  0
   16.1461   32.6612  -10.2331 H   0  0  0  0  0  0
   16.0020   28.9142   -8.2007 H   0  0  0  0  0  0
   18.4756   28.8429   -8.1293 H   0  0  0  0  0  0
   18.6257   32.5997  -10.2055 H   0  0  0  0  0  0
  1  2  1  0  0  0
  1 14  1  0  0  0
  1 15  1  0  0  0
  1 16  1  0  0  0
  2  5  2  0  0  0
  2 11  1  0  0  0
  3  4  1  0  0  0
  3 11  2  0  0  0
  4  5  1  0  0  0
  4 17  1  0  0  0
  5  6  1  0  0  0
  6 10  2  0  0  0
  6 12  1  0  0  0
  7  8  1  0  0  0
  7 12  2  0  0  0
  7 18  1  0  0  0
  8  9  2  0  0  0
  8 13  1  0  0  0
  9 10  1  0  0  0
  9 19  1  0  0  0
 10 20  1  0  0  0
 12 21  1  0  0  0
M  END
> <s_m_source_file>
../4oz2_ligand.sdf

> <i_m_source_file_index>
1

> <s_epik_input>
TjE9TltDSDJdQyg9QzFbQ0gzXSljMltjSF1bY0hdYyhGKVtjSF1bY0hdMg==

> <s_epik_cmdline>
J2VwaWtfYXBwJywgJy1pbWFlJywgJ2xpZ2FuZF9wcm8ubWFlJywgJy1vbWFlJywgJ2xpZ2FuZF9wcmVwLm1hZScsICctbXMnLCAnMScsICctcGgnLCAnNycsICctcGh0JywgJzAuNScsICctbnQn

> <r_lp_tautomer_probability>
1

> <r_epik_Ionization_Penalty>
  0.0000

> <r_epik_Ionization_Penalty_Charging>
  0.0000

> <r_epik_Ionization_Penalty_Neutral>
  0.0000

> <r_epik_State_Penalty>
 -0.0000

> <r_epik_Charging_Adjusted_Penalty>
0

> <i_epik_Tot_Q>
0

> <i_epik_Tot_abs_Q>
0

$$$$
