4ozl_ligand
                    3D
 Schrodinger Suite 2020-3.
 35 37  0  0  1  0            999 V2000
   55.9730   90.4040  106.3820 P   0  0  0  0  0  0
   55.6170   91.4870  105.3990 O   0  0  0  0  0  0
   57.3730   89.8330  106.3170 O   0  5  0  0  0  0
   55.6570   90.9190  107.7700 O   0  5  0  0  0  0
   54.9330   89.2180  106.2390 O   0  0  0  0  0  0
   54.9200   88.4030  105.0820 C   0  0  0  0  0  0
   53.5920   87.7230  104.9410 C   0  0  1  0  0  0
   53.2760   87.0500  106.1880 O   0  0  0  0  0  0
   52.4110   88.6580  104.7180 C   0  0  1  0  0  0
   52.2450   89.0210  103.3590 O   0  0  0  0  0  0
   51.2460   87.8600  105.2740 C   0  0  1  0  0  0
   50.8530   86.8630  104.3410 O   0  0  0  0  0  0
   51.8990   87.1650  106.4620 C   0  0  2  0  0  0
   51.7380   87.9080  107.7300 N   0  0  0  0  0  0
   52.6670   88.6990  108.3170 C   0  0  0  0  0  0
   52.2110   89.1870  109.5010 N   0  0  0  0  0  0
   50.9680   88.6720  109.6870 C   0  0  0  0  0  0
   49.9180   88.7820  110.7110 C   0  0  0  0  0  0
   50.1160   89.5330  111.8270 N   0  0  0  0  0  0
   48.7780   88.0870  110.5130 N   0  0  0  0  0  0
   48.5710   87.3320  109.4140 C   0  0  0  0  0  0
   49.4820   87.2000  108.4320 N   0  0  0  0  0  0
   50.6720   87.8380  108.5210 C   0  0  0  0  0  0
   55.1014   89.0252  104.1932 H   0  0  0  0  0  0
   55.7080   87.6397  105.1623 H   0  0  0  0  0  0
   53.7153   87.0357  104.0910 H   0  0  0  0  0  0
   52.5213   89.6659  105.1447 H   0  0  0  0  0  0
   53.0252   89.6022  102.8457 H   0  0  0  0  0  0
   50.3288   88.4354  105.4677 H   0  0  0  0  0  0
   50.3574   87.1526  103.4027 H   0  0  0  0  0  0
   51.4721   86.1619  106.6091 H   0  0  0  0  0  0
   53.6490   88.9155  107.8965 H   0  0  0  0  0  0
   51.0572   90.0873  111.9571 H   0  0  0  0  0  0
   49.3350   89.5863  112.5998 H   0  0  0  0  0  0
   47.6221   86.8046  109.3170 H   0  0  0  0  0  0
  1  2  2  0  0  0
  1  3  1  0  0  0
  1  4  1  0  0  0
  1  5  1  0  0  0
  5  6  1  0  0  0
  6  7  1  0  0  0
  6 24  1  0  0  0
  6 25  1  0  0  0
  7  8  1  0  0  0
  7  9  1  0  0  0
  7 26  1  0  0  0
  8 13  1  0  0  0
  9 10  1  0  0  0
  9 11  1  0  0  0
  9 27  1  0  0  0
 10 28  1  0  0  0
 11 12  1  0  0  0
 11 13  1  0  0  0
 11 29  1  0  0  0
 12 30  1  0  0  0
 13 14  1  0  0  0
 13 31  1  0  0  0
 14 15  1  0  0  0
 14 23  1  0  0  0
 15 16  2  0  0  0
 15 32  1  0  0  0
 16 17  1  0  0  0
 17 18  2  0  0  0
 17 23  1  0  0  0
 18 19  1  0  0  0
 18 20  1  0  0  0
 19 33  1  0  0  0
 19 34  1  0  0  0
 20 21  2  0  0  0
 21 22  1  0  0  0
 21 35  1  0  0  0
 22 23  2  0  0  0
M  CHG  2   3  -1   4  -1
M  END
> <s_m_source_file>
../4ozl_ligand.sdf

> <i_m_source_file_index>
1

> <s_epik_input>
Tz1QKFtPSF0pKFtPSF0pT1tDSDJdW0NASF0xT1tDQEhdKFtDQEhdKFtPSF0pW0NAQEhdMVtPSF0pbihbY0hdbjIpYyhjMjMpbltjSF1uYzNbTkgyXQ==

> <s_epik_cmdline>
J2VwaWtfYXBwJywgJy1pbWFlJywgJ2xpZ2FuZF9wcm8ubWFlJywgJy1vbWFlJywgJ2xpZ2FuZF9wcmVwLm1hZScsICctbXMnLCAnMScsICctcGgnLCAnNycsICctcGh0JywgJzAuNScsICctbnQn

> <r_lp_tautomer_probability>
0.999997216410988

> <r_epik_Ionization_Penalty>
  0.1025

> <r_epik_Ionization_Penalty_Charging>
  0.1020

> <r_epik_Ionization_Penalty_Neutral>
  0.0004

> <r_epik_State_Penalty>
  0.0920

> <r_epik_Charging_Adjusted_Penalty>
0.194024004396068

> <i_epik_Tot_Q>
-2

> <i_epik_Tot_abs_Q>
2

> <s_epik_Chemistry_Notes>
This compound contains an acetal/aminal-like group ( X-CH(R)-Y where X, Y are N, S, or O) that may be acid/base labile, releasing an aldehyde.

$$$$
