4ozn_ligand
                    3D
 Schrodinger Suite 2020-3.
 43 45  0  0  1  0            999 V2000
  -55.1540   45.4920  -27.6260 P   0  0  0  0  0  0
  -55.9360   46.7750  -27.8010 O   0  0  0  0  0  0
  -53.6580   45.6980  -27.5220 O   0  5  0  0  0  0
  -55.5310   44.3890  -28.5910 O   0  5  0  0  0  0
  -55.4860   45.6980  -24.7700 P   0  0  1  0  0  0
  -54.5690   46.8820  -24.9920 O   0  5  0  0  0  0
  -56.8520   45.8920  -24.1570 O   0  0  0  0  0  0
  -55.6250   44.9060  -26.1810 O   0  0  0  0  0  0
  -53.4760   43.8250  -24.3350 P   0  0  2  0  0  0
  -52.6190   44.7910  -25.1190 O   0  0  0  0  0  0
  -53.9380   42.5270  -24.9610 O   0  5  0  0  0  0
  -54.7560   44.6350  -23.8090 O   0  0  0  0  0  0
  -52.6930   43.5130  -22.9680 O   0  0  0  0  0  0
  -53.1590   42.5940  -21.9870 C   0  0  0  0  0  0
  -52.1660   42.6320  -20.8410 C   0  0  1  0  0  0
  -50.8300   42.7970  -21.3300 O   0  0  0  0  0  0
  -52.4220   43.8340  -19.9500 C   0  0  1  0  0  0
  -53.3220   43.4930  -18.8960 O   0  0  0  0  0  0
  -51.0540   44.2280  -19.4390 C   0  0  1  0  0  0
  -50.7230   43.5410  -18.2300 O   0  0  0  0  0  0
  -50.1070   43.7450  -20.5210 C   0  0  2  0  0  0
  -49.6070   44.9150  -21.3000 N   0  0  0  0  0  0
  -50.0940   45.3530  -22.4770 C   0  0  0  0  0  0
  -49.4110   46.4400  -22.9210 N   0  0  0  0  0  0
  -48.4600   46.7160  -22.0120 C   0  0  0  0  0  0
  -47.3930   47.7380  -21.8580 C   0  0  0  0  0  0
  -47.2060   48.6990  -22.7920 N   0  0  0  0  0  0
  -46.6150   47.6770  -20.7530 N   0  0  0  0  0  0
  -46.7950   46.7220  -19.8180 C   0  0  0  0  0  0
  -47.7420   45.7670  -19.8940 N   0  0  0  0  0  0
  -48.5940   45.7110  -20.9460 C   0  0  0  0  0  0
  -54.1596   42.8979  -21.6459 H   0  0  0  0  0  0
  -53.2111   41.5860  -22.4243 H   0  0  0  0  0  0
  -52.2287   41.6737  -20.3045 H   0  0  0  0  0  0
  -52.9473   44.6676  -20.4390 H   0  0  0  0  0  0
  -54.3524   43.1873  -19.1300 H   0  0  0  0  0  0
  -50.9926   45.2946  -19.1771 H   0  0  0  0  0  0
  -51.2911   43.7423  -17.3098 H   0  0  0  0  0  0
  -49.2235   43.2126  -20.1389 H   0  0  0  0  0  0
  -50.9294   44.8939  -23.0056 H   0  0  0  0  0  0
  -47.8491   48.7318  -23.6838 H   0  0  0  0  0  0
  -46.4108   49.4474  -22.6595 H   0  0  0  0  0  0
  -46.1357   46.7229  -18.9500 H   0  0  0  0  0  0
  1  2  2  0  0  0
  1  3  1  0  0  0
  1  4  1  0  0  0
  1  8  1  0  0  0
  5  6  1  0  0  0
  5  7  2  0  0  0
  5  8  1  0  0  0
  5 12  1  0  0  0
  9 10  2  0  0  0
  9 11  1  0  0  0
  9 12  1  0  0  0
  9 13  1  0  0  0
 13 14  1  0  0  0
 14 15  1  0  0  0
 14 32  1  0  0  0
 14 33  1  0  0  0
 15 16  1  0  0  0
 15 17  1  0  0  0
 15 34  1  0  0  0
 16 21  1  0  0  0
 17 18  1  0  0  0
 17 19  1  0  0  0
 17 35  1  0  0  0
 18 36  1  0  0  0
 19 20  1  0  0  0
 19 21  1  0  0  0
 19 37  1  0  0  0
 20 38  1  0  0  0
 21 22  1  0  0  0
 21 39  1  0  0  0
 22 23  1  0  0  0
 22 31  1  0  0  0
 23 24  2  0  0  0
 23 40  1  0  0  0
 24 25  1  0  0  0
 25 26  2  0  0  0
 25 31  1  0  0  0
 26 27  1  0  0  0
 26 28  1  0  0  0
 27 41  1  0  0  0
 27 42  1  0  0  0
 28 29  2  0  0  0
 29 30  1  0  0  0
 29 43  1  0  0  0
 30 31  2  0  0  0
M  CHG  4   3  -1   4  -1   6  -1  11  -1
M  END
> <s_m_source_file>
../4ozn_ligand.sdf

> <i_m_source_file_index>
1

> <s_epik_input>
Tz1QKFtPSF0pKFtPSF0pT1tQQF0oPU8pKFtPSF0pT1tQQF0oPU8pKFtPSF0pT1tDSDJdW0NASF0xT1tDQEhdKFtDQEhdKFtPSF0pW0NAQEhdMVtPSF0pbihbY0hdbjIpYyhjMjMpbltjSF1uYzNbTkgyXQ==

> <s_epik_cmdline>
J2VwaWtfYXBwJywgJy1pbWFlJywgJ2xpZ2FuZF9wcm8ubWFlJywgJy1vbWFlJywgJ2xpZ2FuZF9wcmVwLm1hZScsICctbXMnLCAnMScsICctcGgnLCAnNycsICctcGh0JywgJzAuNScsICctbnQn

> <r_lp_tautomer_probability>
0.999997216410988

> <r_epik_Ionization_Penalty>
  0.0818

> <r_epik_Ionization_Penalty_Charging>
  0.0813

> <r_epik_Ionization_Penalty_Neutral>
  0.0004

> <r_epik_State_Penalty>
  0.0708

> <r_epik_Charging_Adjusted_Penalty>
0.152157994418768

> <i_epik_Tot_Q>
-4

> <i_epik_Tot_abs_Q>
4

> <s_epik_Chemistry_Notes>
This compound contains an acetal/aminal-like group ( X-CH(R)-Y where X, Y are N, S, or O) that may be acid/base labile, releasing an aldehyde.

$$$$
