4ozo_ligand
                    3D
 Schrodinger Suite 2020-3.
 36 37  0  0  1  0            999 V2000
   29.8180  -32.0470    1.1680 O   0  5  0  0  0  0
   29.0270  -32.1340    2.3860 N   0  3  0  0  0  0
   28.9150  -33.3240    3.0240 O   0  0  0  0  0  0
   28.4600  -30.9980    2.8330 C   0  0  0  0  0  0
   28.6140  -29.8450    2.0680 C   0  0  0  0  0  0
   28.0560  -28.6420    2.4660 C   0  0  0  0  0  0
   27.3170  -28.5890    3.6350 C   0  0  0  0  0  0
   27.1450  -29.7420    4.3900 C   0  0  0  0  0  0
   27.6840  -30.9620    3.9970 C   0  0  0  0  0  0
   27.4200  -32.3240    5.0610 S   0  0  0  0  0  0
   26.1130  -31.7210    6.1220 C   0  0  2  0  0  0
   26.5640  -30.8030    7.1790 O   0  0  0  0  0  0
   25.4430  -30.3960    7.9770 C   0  0  2  0  0  0
   25.9500  -29.4290    9.0480 C   0  0  0  0  0  0
   26.5440  -28.2930    8.4170 O   0  0  0  0  0  0
   24.7820  -31.6070    8.6470 C   0  0  2  0  0  0
   25.7230  -32.2940    9.4780 O   0  0  0  0  0  0
   24.3340  -32.5310    7.5510 C   0  0  2  0  0  0
   23.6660  -33.7160    8.0740 O   0  0  0  0  0  0
   25.5610  -32.9450    6.7600 C   0  0  1  0  0  0
   25.0850  -33.8050    5.7450 O   0  0  0  0  0  0
   29.1836  -29.8902    1.1398 H   0  0  0  0  0  0
   28.1975  -27.7445    1.8639 H   0  0  0  0  0  0
   26.8729  -27.6485    3.9610 H   0  0  0  0  0  0
   26.5720  -29.6891    5.3157 H   0  0  0  0  0  0
   25.3031  -31.1105    5.6962 H   0  0  0  0  0  0
   24.7336  -29.9184    7.2852 H   0  0  0  0  0  0
   25.1077  -29.1026    9.6756 H   0  0  0  0  0  0
   26.6992  -29.9355    9.6743 H   0  0  0  0  0  0
   26.9683  -27.4833    9.0288 H   0  0  0  0  0  0
   23.9567  -31.3209    9.3157 H   0  0  0  0  0  0
   26.1701  -31.7815   10.3425 H   0  0  0  0  0  0
   23.5795  -32.0252    6.9306 H   0  0  0  0  0  0
   22.7518  -33.6111    8.6767 H   0  0  0  0  0  0
   26.3354  -33.4684    7.3399 H   0  0  0  0  0  0
   25.7886  -34.2482    5.0249 H   0  0  0  0  0  0
  1  2  1  0  0  0
  2  3  2  0  0  0
  2  4  1  0  0  0
  4  5  2  0  0  0
  4  9  1  0  0  0
  5  6  1  0  0  0
  5 22  1  0  0  0
  6  7  2  0  0  0
  6 23  1  0  0  0
  7  8  1  0  0  0
  7 24  1  0  0  0
  8  9  2  0  0  0
  8 25  1  0  0  0
  9 10  1  0  0  0
 10 11  1  0  0  0
 11 12  1  0  0  0
 11 20  1  0  0  0
 11 26  1  0  0  0
 12 13  1  0  0  0
 13 14  1  0  0  0
 13 16  1  0  0  0
 13 27  1  0  0  0
 14 15  1  0  0  0
 14 28  1  0  0  0
 14 29  1  0  0  0
 15 30  1  0  0  0
 16 17  1  0  0  0
 16 18  1  0  0  0
 16 31  1  0  0  0
 17 32  1  0  0  0
 18 19  1  0  0  0
 18 20  1  0  0  0
 18 33  1  0  0  0
 19 34  1  0  0  0
 20 21  1  0  0  0
 20 35  1  0  0  0
 21 36  1  0  0  0
M  CHG  2   1  -1   2   1
M  END
> <s_m_source_file>
../4ozo_ligand.sdf

> <i_m_source_file_index>
1

> <s_epik_input>
W08tXVtOK10oPU8pYzFbY0hdW2NIXVtjSF1bY0hdYzFTW0NAQEhdMk9bQ0BIXShbQ0gyXVtPSF0pW0NASF0oW09IXSlbQ0BIXShbT0hdKVtDQEhdMltPSF0=

> <s_epik_cmdline>
J2VwaWtfYXBwJywgJy1pbWFlJywgJ2xpZ2FuZF9wcm8ubWFlJywgJy1vbWFlJywgJ2xpZ2FuZF9wcmVwLm1hZScsICctbXMnLCAnMScsICctcGgnLCAnNycsICctcGh0JywgJzAuNScsICctbnQn

> <r_lp_tautomer_probability>
1

> <r_epik_Ionization_Penalty>
  0.0000

> <r_epik_Ionization_Penalty_Charging>
  0.0000

> <r_epik_Ionization_Penalty_Neutral>
  0.0000

> <r_epik_State_Penalty>
 -0.0000

> <r_epik_Charging_Adjusted_Penalty>
0

> <i_epik_Tot_Q>
0

> <i_epik_Tot_abs_Q>
2

> <s_epik_Chemistry_Notes>
This compound contains an acetal/aminal-like group ( X-CH(R)-Y where X, Y are N, S, or O) that may be acid/base labile, releasing an aldehyde.

$$$$
