4p0a_ligand
                    3D
 Schrodinger Suite 2020-3.
 62 62  0  0  1  0            999 V2000
   13.2430  -11.9290   -1.1980 N   0  3  0  0  0  0
   12.6190  -11.3200   -2.3730 C   0  0  2  0  0  0
   11.2590  -10.6960   -2.0280 C   0  0  0  0  0  0
   10.5570  -11.1750   -1.1420 O   0  0  0  0  0  0
   12.4540  -12.3360   -3.5000 C   0  0  0  0  0  0
   12.0670  -11.6790   -4.8130 C   0  0  0  0  0  0
   12.9690  -11.1910   -5.5410 O   0  5  0  0  0  0
   10.8490  -11.6020   -5.0870 O   0  0  0  0  0  0
   10.9000   -9.6210   -2.7300 N   0  0  0  0  0  0
    9.7360   -8.8010   -2.3730 C   0  0  2  0  0  0
    8.4150   -9.1420   -3.1100 C   0  0  0  0  0  0
    7.3520   -8.6270   -2.7480 O   0  0  0  0  0  0
   10.0750   -7.3110   -2.5810 C   0  0  0  0  0  0
   11.3580   -6.7690   -1.9320 C   0  0  0  0  0  0
   11.4810   -5.2470   -2.0700 C   0  0  0  0  0  0
   11.4100   -7.1680   -0.4830 C   0  0  0  0  0  0
    8.4670  -10.0040   -4.1210 N   0  0  0  0  0  0
    7.2780  -10.2460   -4.9320 C   0  0  2  0  0  0
    6.7450  -11.6910   -4.8770 C   0  0  0  0  0  0
    5.7840  -12.0300   -5.5730 O   0  0  0  0  0  0
    7.5410   -9.8280   -6.3820 C   0  0  0  0  0  0
    8.0090   -8.3960   -6.5190 C   0  0  0  0  0  0
    9.3660   -8.0800   -6.4850 C   0  0  0  0  0  0
    7.0980   -7.3570   -6.6370 C   0  0  0  0  0  0
    9.7970   -6.7610   -6.5920 C   0  0  0  0  0  0
    7.5170   -6.0350   -6.7500 C   0  0  0  0  0  0
    8.8640   -5.7490   -6.7240 C   0  0  0  0  0  0
    9.2680   -4.4560   -6.8330 O   0  0  0  0  0  0
    7.3220  -12.5240   -4.0170 N   0  0  0  0  0  0
    6.9120  -13.9180   -3.9340 C   0  0  0  0  0  0
    5.4660  -14.2020   -3.5330 C   0  0  0  0  0  0
    5.1350  -14.4440   -2.3690 O   0  5  0  0  0  0
    4.5720  -14.2260   -4.3830 O   0  0  0  0  0  0
   13.3479  -11.1734   -0.4055 H   0  0  0  0  0  0
   14.2363  -12.3160   -1.4695 H   0  0  0  0  0  0
   12.6140  -12.7555   -0.8357 H   0  0  0  0  0  0
   13.3254  -10.5351   -2.6811 H   0  0  0  0  0  0
   13.4027  -12.8715   -3.6527 H   0  0  0  0  0  0
   11.6658  -13.0553   -3.2328 H   0  0  0  0  0  0
   11.5118   -9.3562   -3.6050 H   0  0  0  0  0  0
    9.5883   -9.0680   -1.3162 H   0  0  0  0  0  0
   10.1890   -7.1075   -3.6560 H   0  0  0  0  0  0
    9.2632   -6.6900   -2.1744 H   0  0  0  0  0  0
   12.2191   -7.2205   -2.4465 H   0  0  0  0  0  0
   11.4414   -4.9709   -3.1341 H   0  0  0  0  0  0
   12.4382   -4.9161   -1.6407 H   0  0  0  0  0  0
   10.6517   -4.7621   -1.5342 H   0  0  0  0  0  0
   11.3207   -8.2612   -0.4003 H   0  0  0  0  0  0
   10.5804   -6.6903    0.0588 H   0  0  0  0  0  0
   12.3669   -6.8443   -0.0477 H   0  0  0  0  0  0
    9.4039  -10.5343   -4.3466 H   0  0  0  0  0  0
    6.5249   -9.6027   -4.4534 H   0  0  0  0  0  0
    8.3204  -10.4730   -6.8139 H   0  0  0  0  0  0
    6.6150   -9.9302   -6.9668 H   0  0  0  0  0  0
   10.1005   -8.8776   -6.3730 H   0  0  0  0  0  0
    6.0312   -7.5808   -6.6413 H   0  0  0  0  0  0
   10.8615   -6.5276   -6.5719 H   0  0  0  0  0  0
    6.7863   -5.2335   -6.8581 H   0  0  0  0  0  0
   10.3403   -4.2113   -6.8139 H   0  0  0  0  0  0
    8.1206  -12.1456   -3.3619 H   0  0  0  0  0  0
    7.0423  -14.3976   -4.9153 H   0  0  0  0  0  0
    7.5296  -14.4380   -3.1869 H   0  0  0  0  0  0
  1  2  1  0  0  0
  1 34  1  0  0  0
  1 35  1  0  0  0
  1 36  1  0  0  0
  2  3  1  0  0  0
  2  5  1  0  0  0
  2 37  1  0  0  0
  3  4  2  0  0  0
  3  9  1  0  0  0
  5  6  1  0  0  0
  5 38  1  0  0  0
  5 39  1  0  0  0
  6  7  1  0  0  0
  6  8  2  0  0  0
  9 10  1  0  0  0
  9 40  1  0  0  0
 10 11  1  0  0  0
 10 13  1  0  0  0
 10 41  1  0  0  0
 11 12  2  0  0  0
 11 17  1  0  0  0
 13 14  1  0  0  0
 13 42  1  0  0  0
 13 43  1  0  0  0
 14 15  1  0  0  0
 14 16  1  0  0  0
 14 44  1  0  0  0
 15 45  1  0  0  0
 15 46  1  0  0  0
 15 47  1  0  0  0
 16 48  1  0  0  0
 16 49  1  0  0  0
 16 50  1  0  0  0
 17 18  1  0  0  0
 17 51  1  0  0  0
 18 19  1  0  0  0
 18 21  1  0  0  0
 18 52  1  0  0  0
 19 20  2  0  0  0
 19 29  1  0  0  0
 21 22  1  0  0  0
 21 53  1  0  0  0
 21 54  1  0  0  0
 22 23  2  0  0  0
 22 24  1  0  0  0
 23 25  1  0  0  0
 23 55  1  0  0  0
 24 26  2  0  0  0
 24 56  1  0  0  0
 25 27  2  0  0  0
 25 57  1  0  0  0
 26 27  1  0  0  0
 26 58  1  0  0  0
 27 28  1  0  0  0
 28 59  1  0  0  0
 29 30  1  0  0  0
 29 60  1  0  0  0
 30 31  1  0  0  0
 30 61  1  0  0  0
 30 62  1  0  0  0
 31 32  1  0  0  0
 31 33  2  0  0  0
M  CHG  3   1   1   7  -1  32  -1
M  END
> <s_m_source_file>
../4p0a_ligand.sdf

> <i_m_source_file_index>
1

> <s_epik_input>
W09IXUMoPU8pW0NIMl1bQ0BIXShbTkgzK10pQyg9TylbTkhdW0NAQEhdKFtDSDJdW0NIXShbQ0gzXSlbQ0gzXSlDKD1PKVtOSF1bQ0BIXShDKD1PKVtOSF1bQ0gyXUMoPU8pW09IXSlbQ0gyXWMxW2NIXVtjSF1jKFtPSF0pW2NIXVtjSF0x

> <s_epik_cmdline>
J2VwaWtfYXBwJywgJy1pbWFlJywgJ2xpZ2FuZF9wcm8ubWFlJywgJy1vbWFlJywgJ2xpZ2FuZF9wcmVwLm1hZScsICctbXMnLCAnMScsICctcGgnLCAnNycsICctcGh0JywgJzAuNScsICctbnQn

> <r_lp_tautomer_probability>
0.999999999997365

> <r_epik_Ionization_Penalty>
  0.0255

> <r_epik_Ionization_Penalty_Charging>
  0.0246

> <r_epik_Ionization_Penalty_Neutral>
  0.0008

> <r_epik_State_Penalty>
  0.0156

> <r_epik_Charging_Adjusted_Penalty>
0.0402649365105047

> <i_epik_Tot_Q>
-1

> <i_epik_Tot_abs_Q>
3

$$$$
