4p0b_ligand
                    3D
 Schrodinger Suite 2020-3.
 63 63  0  0  1  0            999 V2000
   10.6380  -12.8900   -3.8640 N   0  3  0  0  0  0
   11.0610  -12.1510   -2.6830 C   0  0  2  0  0  0
   10.0500  -11.0710   -2.3150 C   0  0  0  0  0  0
    9.2920  -11.2220   -1.3580 O   0  0  0  0  0  0
   12.4440  -11.5320   -2.8960 C   0  0  0  0  0  0
   13.5590  -12.3880   -2.3260 C   0  0  0  0  0  0
   13.3390  -13.6030   -2.1280 O   0  5  0  0  0  0
   14.6560  -11.8470   -2.0710 O   0  0  0  0  0  0
   10.0410   -9.9810   -3.0770 N   0  0  0  0  0  0
    9.2320   -8.8170   -2.7290 C   0  0  2  0  0  0
    7.9050   -8.7760   -3.4850 C   0  0  0  0  0  0
    7.1130   -7.8500   -3.3090 O   0  0  0  0  0  0
   10.0120   -7.5280   -2.9930 C   0  0  0  0  0  0
   11.3580   -7.4490   -2.2950 C   0  0  0  0  0  0
   12.2410   -5.9370   -2.7200 S   0  0  0  0  0  0
   10.9910   -4.7080   -2.3510 C   0  0  0  0  0  0
    7.6620   -9.7840   -4.3170 N   0  0  0  0  0  0
    6.4740   -9.8100   -5.1710 C   0  0  2  0  0  0
    5.6890  -11.1100   -5.0360 C   0  0  0  0  0  0
    4.4850  -11.1450   -5.2880 O   0  0  0  0  0  0
    6.8390   -9.5460   -6.6350 C   0  0  0  0  0  0
    7.4960   -8.2070   -6.8630 C   0  0  0  0  0  0
    6.7320   -7.0630   -7.0500 C   0  0  0  0  0  0
    8.8800   -8.0820   -6.8830 C   0  0  0  0  0  0
    7.3230   -5.8340   -7.2570 C   0  0  0  0  0  0
    9.4810   -6.8540   -7.0900 C   0  0  0  0  0  0
    8.6960   -5.7350   -7.2760 C   0  0  0  0  0  0
    9.2780   -4.5070   -7.4830 O   0  0  0  0  0  0
    6.3900  -12.1800   -4.6700 N   0  0  0  0  0  0
    5.7800  -13.4950   -4.4870 C   0  0  2  0  0  0
    4.7120  -13.4810   -3.3950 C   0  0  0  0  0  0
    4.3460  -14.5260   -2.8560 O   0  0  0  0  0  0
    6.8520  -14.5320   -4.1470 C   0  0  0  0  0  0
    4.1988  -12.3860   -3.0411 O   0  5  0  0  0  0
    9.6432  -13.3250   -3.6875 H   0  0  0  0  0  0
   11.3588  -13.6949   -4.0705 H   0  0  0  0  0  0
   10.5925  -12.2084   -4.7262 H   0  0  0  0  0  0
   11.1009  -12.9021   -1.8803 H   0  0  0  0  0  0
   12.6289  -11.4095   -3.9734 H   0  0  0  0  0  0
   12.4860  -10.5497   -2.4027 H   0  0  0  0  0  0
   10.6603   -9.9685   -3.9860 H   0  0  0  0  0  0
    9.0265   -8.9472   -1.6562 H   0  0  0  0  0  0
   10.2061   -7.4312   -4.0714 H   0  0  0  0  0  0
    9.4229   -6.6656   -2.6477 H   0  0  0  0  0  0
   11.2077   -7.4676   -1.2055 H   0  0  0  0  0  0
   11.9773   -8.3074   -2.5944 H   0  0  0  0  0  0
   11.3887   -3.7049   -2.5647 H   0  0  0  0  0  0
   10.7143   -4.7741   -1.2884 H   0  0  0  0  0  0
   10.1025   -4.8904   -2.9733 H   0  0  0  0  0  0
    8.3833  -10.6137   -4.3527 H   0  0  0  0  0  0
    5.8505   -8.9900   -4.7853 H   0  0  0  0  0  0
    7.5401  -10.3188   -6.9832 H   0  0  0  0  0  0
    5.9279   -9.5733   -7.2507 H   0  0  0  0  0  0
    5.6447   -7.1374   -7.0329 H   0  0  0  0  0  0
    9.5010   -8.9652   -6.7333 H   0  0  0  0  0  0
    6.7070   -4.9470   -7.4046 H   0  0  0  0  0  0
   10.5677   -6.7707   -7.1061 H   0  0  0  0  0  0
    8.6478   -3.6176   -7.6308 H   0  0  0  0  0  0
    7.4692  -12.0464   -4.5042 H   0  0  0  0  0  0
    5.3051  -13.7209   -5.4531 H   0  0  0  0  0  0
    7.6188  -14.5388   -4.9357 H   0  0  0  0  0  0
    6.3897  -15.5276   -4.0765 H   0  0  0  0  0  0
    7.3183  -14.2752   -3.1844 H   0  0  0  0  0  0
  1  2  1  0  0  0
  1 35  1  0  0  0
  1 36  1  0  0  0
  1 37  1  0  0  0
  2  3  1  0  0  0
  2  5  1  0  0  0
  2 38  1  0  0  0
  3  4  2  0  0  0
  3  9  1  0  0  0
  5  6  1  0  0  0
  5 39  1  0  0  0
  5 40  1  0  0  0
  6  7  1  0  0  0
  6  8  2  0  0  0
  9 10  1  0  0  0
  9 41  1  0  0  0
 10 11  1  0  0  0
 10 13  1  0  0  0
 10 42  1  0  0  0
 11 12  2  0  0  0
 11 17  1  0  0  0
 13 14  1  0  0  0
 13 43  1  0  0  0
 13 44  1  0  0  0
 14 15  1  0  0  0
 14 45  1  0  0  0
 14 46  1  0  0  0
 15 16  1  0  0  0
 16 47  1  0  0  0
 16 48  1  0  0  0
 16 49  1  0  0  0
 17 18  1  0  0  0
 17 50  1  0  0  0
 18 19  1  0  0  0
 18 21  1  0  0  0
 18 51  1  0  0  0
 19 20  2  0  0  0
 19 29  1  0  0  0
 21 22  1  0  0  0
 21 52  1  0  0  0
 21 53  1  0  0  0
 22 23  2  0  0  0
 22 24  1  0  0  0
 23 25  1  0  0  0
 23 54  1  0  0  0
 24 26  2  0  0  0
 24 55  1  0  0  0
 25 27  2  0  0  0
 25 56  1  0  0  0
 26 27  1  0  0  0
 26 57  1  0  0  0
 27 28  1  0  0  0
 28 58  1  0  0  0
 29 30  1  0  0  0
 29 59  1  0  0  0
 30 31  1  0  0  0
 30 33  1  0  0  0
 30 60  1  0  0  0
 31 32  2  0  0  0
 31 34  1  0  0  0
 33 61  1  0  0  0
 33 62  1  0  0  0
 33 63  1  0  0  0
M  CHG  3   1   1   7  -1  34  -1
M  END
> <s_m_source_file>
../4p0b_ligand.sdf

> <i_m_source_file_index>
1

> <s_epik_input>
W09IXUMoPU8pW0NIMl1bQ0BIXShbTkgzK10pQyg9TylbTkhdW0NAQEhdKFtDSDJdW0NIMl1TW0NIM10pQyg9TylbTkhdW0NASF0oQyg9TylbTkhdW0NAQEhdKFtDSDNdKUMoPU8pW09IXSlbQ0gyXWMxW2NIXVtjSF1jKFtPSF0pW2NIXVtjSF0x

> <s_epik_cmdline>
J2VwaWtfYXBwJywgJy1pbWFlJywgJ2xpZ2FuZF9wcm8ubWFlJywgJy1vbWFlJywgJ2xpZ2FuZF9wcmVwLm1hZScsICctbXMnLCAnMScsICctcGgnLCAnNycsICctcGh0JywgJzAuNScsICctbnQn

> <r_lp_tautomer_probability>
0.999999999997365

> <r_epik_Ionization_Penalty>
  0.0216

> <r_epik_Ionization_Penalty_Charging>
  0.0208

> <r_epik_Ionization_Penalty_Neutral>
  0.0008

> <r_epik_State_Penalty>
  0.0165

> <r_epik_Charging_Adjusted_Penalty>
0.0372678006186494

> <i_epik_Tot_Q>
-1

> <i_epik_Tot_abs_Q>
3

$$$$
