4p0n_ligand
                    3D
 Schrodinger Suite 2020-3.
 42 46  0  0  1  0            999 V2000
   21.5690   27.0480   74.3400 C   0  0  0  0  0  0
   22.0120   26.4470   75.5140 O   0  0  0  0  0  0
   23.3170   25.9210   75.4440 C   0  0  0  0  0  0
   24.2720   26.2050   74.5550 N   0  0  0  0  0  0
   25.3860   25.4480   74.8820 C   0  0  0  0  0  0
   26.6640   25.3510   74.2900 C   0  0  0  0  0  0
   27.5910   24.4800   74.8610 C   0  0  0  0  0  0
   27.2110   23.7320   76.0090 C   0  0  0  0  0  0
   26.0030   23.8450   76.5460 N   0  0  0  0  0  0
   25.0650   24.6910   76.0120 C   0  0  0  0  0  0
   23.7780   25.0180   76.3450 N   0  0  0  0  0  0
   22.8780   24.6170   77.3030 C   0  0  2  0  0  0
   23.0020   24.8860   78.7810 C   0  0  0  0  0  0
   22.0360   23.7380   78.9360 C   0  0  2  0  0  0
   22.6780   23.1830   77.6750 C   0  0  0  0  0  0
   20.7070   23.9990   78.8120 N   0  0  0  0  0  0
   19.8540   24.4130   79.8650 C   0  0  0  0  0  0
   20.2050   24.6460   81.1340 N   0  0  0  0  0  0
   19.1830   25.0460   81.9960 C   0  0  0  0  0  0
   19.3990   25.3320   83.3880 C   0  0  0  0  0  0
   18.3470   25.7160   84.1560 C   0  0  0  0  0  0
   17.0450   25.8320   83.5850 C   0  0  0  0  0  0
   16.8420   25.5600   82.2480 C   0  0  0  0  0  0
   17.9460   25.1560   81.4560 C   0  0  0  0  0  0
   18.1410   24.7250   79.7680 S   0  0  0  0  0  0
   20.5470   27.4279   74.4856 H   0  0  0  0  0  0
   21.5728   26.3086   73.5256 H   0  0  0  0  0  0
   22.2370   27.8826   74.0807 H   0  0  0  0  0  0
   26.9192   25.9413   73.4100 H   0  0  0  0  0  0
   28.5888   24.3744   74.4351 H   0  0  0  0  0  0
   27.9305   23.0483   76.4594 H   0  0  0  0  0  0
   22.2462   25.2028   76.6191 H   0  0  0  0  0  0
   24.0512   24.7657   79.0888 H   0  0  0  0  0  0
   22.6724   25.9133   78.9957 H   0  0  0  0  0  0
   21.8639   23.2111   79.8861 H   0  0  0  0  0  0
   22.0555   22.6901   76.9137 H   0  0  0  0  0  0
   23.6543   22.6795   77.7324 H   0  0  0  0  0  0
   20.2146   23.8929   77.8341 H   0  0  0  0  0  0
   20.3949   25.2418   83.8217 H   0  0  0  0  0  0
   18.4981   25.9364   85.2127 H   0  0  0  0  0  0
   16.2052   26.1375   84.2091 H   0  0  0  0  0  0
   15.8493   25.6542   81.8079 H   0  0  0  0  0  0
  1  2  1  0  0  0
  1 26  1  0  0  0
  1 27  1  0  0  0
  1 28  1  0  0  0
  2  3  1  0  0  0
  3  4  2  0  0  0
  3 11  1  0  0  0
  4  5  1  0  0  0
  5  6  2  0  0  0
  5 10  1  0  0  0
  6  7  1  0  0  0
  6 29  1  0  0  0
  7  8  2  0  0  0
  7 30  1  0  0  0
  8  9  1  0  0  0
  8 31  1  0  0  0
  9 10  2  0  0  0
 10 11  1  0  0  0
 11 12  1  0  0  0
 12 13  1  0  0  0
 12 15  1  0  0  0
 12 32  1  0  0  0
 13 14  1  0  0  0
 13 33  1  0  0  0
 13 34  1  0  0  0
 14 15  1  0  0  0
 14 16  1  0  0  0
 14 35  1  0  0  0
 15 36  1  0  0  0
 15 37  1  0  0  0
 16 17  1  0  0  0
 16 38  1  0  0  0
 17 18  2  0  0  0
 17 25  1  0  0  0
 18 19  1  0  0  0
 19 20  2  0  0  0
 19 24  1  0  0  0
 20 21  1  0  0  0
 20 39  1  0  0  0
 21 22  2  0  0  0
 21 40  1  0  0  0
 22 23  1  0  0  0
 22 41  1  0  0  0
 23 24  2  0  0  0
 23 42  1  0  0  0
 24 25  1  0  0  0
M  END
> <s_m_source_file>
../4p0n_ligand.sdf

> <i_m_source_file_index>
1

> <s_epik_input>
W2NIXTFbY0hdW2NIXW5jKGMxMiluKGMobjIpT1tDSDNdKVtDQEBIXTNbQ0gyXVtDQEhdKFtDSDJdMylbTkhdYyhuNClzYyhjNDUpW2NIXVtjSF1bY0hdW2NIXTU=

> <s_epik_cmdline>
J2VwaWtfYXBwJywgJy1pbWFlJywgJ2xpZ2FuZF9wcm8ubWFlJywgJy1vbWFlJywgJ2xpZ2FuZF9wcmVwLm1hZScsICctbXMnLCAnMScsICctcGgnLCAnNycsICctcGh0JywgJzAuNScsICctbnQn

> <r_lp_tautomer_probability>
1

> <r_epik_Ionization_Penalty>
  0.0149

> <r_epik_Ionization_Penalty_Charging>
  0.0128

> <r_epik_Ionization_Penalty_Neutral>
  0.0021

> <r_epik_State_Penalty>
  0.0018

> <r_epik_Charging_Adjusted_Penalty>
0.0145646560070175

> <i_epik_Tot_Q>
0

> <i_epik_Tot_abs_Q>
0

$$$$
