4p0v_ligand
                    3D
 Schrodinger Suite 2020-3.
 51 53  0  0  1  0            999 V2000
   -5.7390   32.2870  -14.3490 O   0  0  0  0  0  0
   -6.5800   33.2250  -14.4610 C   0  0  0  0  0  0
   -7.2920   33.8100  -13.3740 C   0  0  1  0  0  0
   -7.0560   33.2910  -12.1420 O   0  0  0  0  0  0
   -8.1890   34.9200  -13.4790 C   0  0  0  0  0  0
   -8.9780   35.4090  -12.3750 C   0  0  1  0  0  0
  -10.0100   34.3160  -12.2450 C   0  0  0  0  0  0
   -8.4800   35.5060  -11.0730 C   0  0  0  0  0  0
   -9.7410   35.4380  -10.0770 C   0  0  0  0  0  0
  -11.0740   35.9700  -10.6200 C   0  0  0  0  0  0
  -10.6860   37.1840  -11.6100 C   0  0  0  0  0  0
  -11.8920   37.7070  -12.3410 C   0  0  0  0  0  0
  -10.0500   38.3610  -10.8160 C   0  0  0  0  0  0
   -9.6370   36.7210  -12.7420 C   0  0  2  0  0  0
  -10.0960   36.8260  -14.1410 C   0  0  0  0  0  0
  -11.1100   37.5050  -14.4760 O   0  0  0  0  0  0
   -9.2370   36.3200  -15.1220 C   0  0  0  0  0  0
   -8.3580   35.4270  -14.7500 C   0  0  0  0  0  0
   -7.7830   34.8410  -15.7680 C   0  0  0  0  0  0
   -6.8710   33.8050  -15.7060 C   0  0  0  0  0  0
   -6.2970   33.3550  -16.8970 C   0  0  0  0  0  0
   -5.8250   34.4490  -17.7450 C   0  0  0  0  0  0
   -7.3720   32.7490  -17.7740 C   0  0  0  0  0  0
   -8.1539   33.7086  -14.0500 H   0  0  0  0  0  0
   -6.3717   32.4375  -12.0266 H   0  0  0  0  0  0
   -9.5125   33.3719  -11.9783 H   0  0  0  0  0  0
  -10.5380   34.1946  -13.2023 H   0  0  0  0  0  0
  -10.7318   34.5848  -11.4596 H   0  0  0  0  0  0
   -7.7895   34.6714  -10.8814 H   0  0  0  0  0  0
   -7.9443   36.4595  -10.9554 H   0  0  0  0  0  0
   -9.9287   34.3917   -9.7940 H   0  0  0  0  0  0
   -9.5276   36.0293   -9.1743 H   0  0  0  0  0  0
  -11.5979   35.1660  -11.1578 H   0  0  0  0  0  0
  -11.6977   36.3186   -9.7836 H   0  0  0  0  0  0
  -12.6464   38.0396  -11.6128 H   0  0  0  0  0  0
  -12.3150   36.9088  -12.9686 H   0  0  0  0  0  0
  -11.5965   38.5551  -12.9761 H   0  0  0  0  0  0
  -10.7484   38.6962  -10.0350 H   0  0  0  0  0  0
   -9.8395   39.1947  -11.5020 H   0  0  0  0  0  0
   -9.1124   38.0243  -10.3495 H   0  0  0  0  0  0
   -8.8129   37.4431  -12.8391 H   0  0  0  0  0  0
   -9.8285   35.8350  -15.9125 H   0  0  0  0  0  0
   -8.6504   37.1432  -15.5558 H   0  0  0  0  0  0
   -8.0877   35.2478  -16.7435 H   0  0  0  0  0  0
   -5.4863   32.7089  -16.5292 H   0  0  0  0  0  0
   -5.0219   34.9940  -17.2272 H   0  0  0  0  0  0
   -6.6581   35.1359  -17.9548 H   0  0  0  0  0  0
   -5.4399   34.0399  -18.6907 H   0  0  0  0  0  0
   -7.8288   31.8931  -17.2556 H   0  0  0  0  0  0
   -6.9250   32.4088  -18.7198 H   0  0  0  0  0  0
   -8.1432   33.5048  -17.9839 H   0  0  0  0  0  0
  1  2  2  0  0  0
  2  3  1  0  0  0
  2 20  1  0  0  0
  3  4  1  0  0  0
  3  5  1  0  0  0
  3 24  1  0  0  0
  4 25  1  0  0  0
  5  6  1  0  0  0
  5 18  2  0  0  0
  6  7  1  0  0  0
  6  8  1  0  0  0
  6 14  1  0  0  0
  7 26  1  0  0  0
  7 27  1  0  0  0
  7 28  1  0  0  0
  8  9  1  0  0  0
  8 29  1  0  0  0
  8 30  1  0  0  0
  9 10  1  0  0  0
  9 31  1  0  0  0
  9 32  1  0  0  0
 10 11  1  0  0  0
 10 33  1  0  0  0
 10 34  1  0  0  0
 11 12  1  0  0  0
 11 13  1  0  0  0
 11 14  1  0  0  0
 12 35  1  0  0  0
 12 36  1  0  0  0
 12 37  1  0  0  0
 13 38  1  0  0  0
 13 39  1  0  0  0
 13 40  1  0  0  0
 14 15  1  0  0  0
 14 41  1  0  0  0
 15 16  2  0  0  0
 15 17  1  0  0  0
 17 18  1  0  0  0
 17 42  1  0  0  0
 17 43  1  0  0  0
 18 19  1  0  0  0
 19 20  2  0  0  0
 19 44  1  0  0  0
 20 21  1  0  0  0
 21 22  1  0  0  0
 21 23  1  0  0  0
 21 45  1  0  0  0
 22 46  1  0  0  0
 22 47  1  0  0  0
 22 48  1  0  0  0
 23 49  1  0  0  0
 23 50  1  0  0  0
 23 51  1  0  0  0
M  END
> <s_m_source_file>
../4p0v_ligand.sdf

> <i_m_source_file_index>
1

> <s_epik_input>
W09IXVtDQEBIXTFDKD1PKUMoW0NIXShbQ0gzXSlbQ0gzXSk9W0NIXUMoPUMxW0NAQF0yM1tDSDNdKVtDSDJdQyg9TylbQ0BIXTNDKFtDSDNdKShbQ0gzXSlbQ0gyXVtDSDJdW0NIMl0y

> <s_epik_cmdline>
J2VwaWtfYXBwJywgJy1pbWFlJywgJ2xpZ2FuZF9wcm8ubWFlJywgJy1vbWFlJywgJ2xpZ2FuZF9wcmVwLm1hZScsICctbXMnLCAnMScsICctcGgnLCAnNycsICctcGh0JywgJzAuNScsICctbnQn

> <r_epik_Ionization_Penalty>
  0.1572

> <r_epik_Ionization_Penalty_Charging>
  0.0000

> <r_epik_Ionization_Penalty_Neutral>
  0.1572

> <r_epik_State_Penalty>
  0.1465

> <r_epik_Charging_Adjusted_Penalty>
0.14654940358664

> <i_epik_Tot_Q>
0

> <i_epik_Tot_abs_Q>
0

$$$$
