4p0w_ligand
                    3D
 Schrodinger Suite 2020-3.
 53 55  0  0  1  0            999 V2000
   34.8500   10.3290    6.4340 C   0  0  0  0  0  0
   36.3960    8.1570    1.0430 C   0  0  0  0  0  0
   34.5430   10.5360    3.8500 C   0  0  0  0  0  0
   35.2760    6.2050    2.4370 C   0  0  0  0  0  0
   30.1230    5.2340   -2.0500 O   0  0  0  0  0  0
   32.3290    5.3860    2.5690 O   0  0  0  0  0  0
   30.1600    4.6230   -0.0420 C   0  0  0  0  0  0
   30.7680    4.6880    1.1930 C   0  0  0  0  0  0
   31.8950    6.1940   -0.8410 C   0  0  0  0  0  0
   32.0830    7.6960    5.5500 C   0  0  0  0  0  0
   33.2850    8.2960    6.4000 C   0  0  0  0  0  0
   32.6260    7.1030    4.2310 C   0  0  0  0  0  0
   36.1990    8.6140    3.0820 C   0  0  0  0  0  0
   35.6480    8.3570    4.4300 C   0  0  0  0  0  0
   33.6980    7.1320    0.6210 C   0  0  0  0  0  0
   34.1890    9.2380    5.7560 C   0  0  2  0  0  0
   32.5640    6.2570    0.4330 C   0  0  0  0  0  0
   30.7310    5.3930   -1.0080 C   0  0  0  0  0  0
   31.9070    5.4700    1.4420 C   0  0  0  0  0  0
   35.3540    8.4040    1.9320 C   0  0  2  0  0  0
   33.5670    8.0850    3.3930 C   0  0  1  0  0  0
   34.4810    9.0640    4.4060 C   0  0  1  0  0  0
   34.4640    7.4580    2.0950 C   0  0  2  0  0  0
   34.5322   10.3528    7.4868 H   0  0  0  0  0  0
   34.5816   11.2788    5.9484 H   0  0  0  0  0  0
   35.9395   10.1861    6.3830 H   0  0  0  0  0  0
   37.0622    9.0316    1.0068 H   0  0  0  0  0  0
   35.9853    7.9671    0.0404 H   0  0  0  0  0  0
   36.9640    7.2771    1.3792 H   0  0  0  0  0  0
   35.1454   11.1588    4.5276 H   0  0  0  0  0  0
   33.5244   10.9460    3.7834 H   0  0  0  0  0  0
   35.0025   10.5314    2.8506 H   0  0  0  0  0  0
   35.8233    5.8679    1.5444 H   0  0  0  0  0  0
   34.5963    5.4081    2.7731 H   0  0  0  0  0  0
   35.9914    6.4393    3.2391 H   0  0  0  0  0  0
   29.2790    3.9808   -0.1882 H   0  0  0  0  0  0
   30.3620    4.1110    2.0370 H   0  0  0  0  0  0
   32.2833    6.7681   -1.6951 H   0  0  0  0  0  0
   31.5841    6.9045    6.1284 H   0  0  0  0  0  0
   31.3610    8.4939    5.3220 H   0  0  0  0  0  0
   32.8845    8.8400    7.2681 H   0  0  0  0  0  0
   33.9330    7.4777    6.7472 H   0  0  0  0  0  0
   33.2210    6.2042    4.4506 H   0  0  0  0  0  0
   31.7843    6.8344    3.5758 H   0  0  0  0  0  0
   36.5109    9.6662    3.0079 H   0  0  0  0  0  0
   37.0675    7.9612    2.9103 H   0  0  0  0  0  0
   35.4919    7.2762    4.5623 H   0  0  0  0  0  0
   36.3544    8.7212    5.1905 H   0  0  0  0  0  0
   34.5466    6.7658    0.0245 H   0  0  0  0  0  0
   33.4339    8.1494    0.2967 H   0  0  0  0  0  0
   33.3158    9.6835    6.2550 H   0  0  0  0  0  0
   34.6043    9.1431    1.6132 H   0  0  0  0  0  0
   32.7749    8.6586    2.8895 H   0  0  0  0  0  0
  1 16  1  0  0  0
  1 24  1  0  0  0
  1 25  1  0  0  0
  1 26  1  0  0  0
  2 20  1  0  0  0
  2 27  1  0  0  0
  2 28  1  0  0  0
  2 29  1  0  0  0
  3 22  1  0  0  0
  3 30  1  0  0  0
  3 31  1  0  0  0
  3 32  1  0  0  0
  4 23  1  0  0  0
  4 33  1  0  0  0
  4 34  1  0  0  0
  4 35  1  0  0  0
  5 18  2  0  0  0
  6 19  2  0  0  0
  7  8  2  0  0  0
  7 18  1  0  0  0
  7 36  1  0  0  0
  8 19  1  0  0  0
  8 37  1  0  0  0
  9 17  2  0  0  0
  9 18  1  0  0  0
  9 38  1  0  0  0
 10 11  1  0  0  0
 10 12  1  0  0  0
 10 39  1  0  0  0
 10 40  1  0  0  0
 11 16  1  0  0  0
 11 41  1  0  0  0
 11 42  1  0  0  0
 12 21  1  0  0  0
 12 43  1  0  0  0
 12 44  1  0  0  0
 13 14  1  0  0  0
 13 20  1  0  0  0
 13 45  1  0  0  0
 13 46  1  0  0  0
 14 22  1  0  0  0
 14 47  1  0  0  0
 14 48  1  0  0  0
 15 17  1  0  0  0
 15 23  1  0  0  0
 15 49  1  0  0  0
 15 50  1  0  0  0
 16 22  1  0  0  0
 16 51  1  0  0  0
 17 19  1  0  0  0
 20 23  1  0  0  0
 20 52  1  0  0  0
 21 22  1  0  0  0
 21 23  1  0  0  0
 21 53  1  0  0  0
M  END
> <s_m_source_file>
../4p0w_ligand.sdf

> <i_m_source_file_index>
1

> <s_epik_input>
W0NIM11bQ0BASF0xW0NIMl1bQ0gyXVtDSDJdW0NAQEhdKFtDQEBdMTJbQ0gzXSlbQ0BdKFtDSDNdKShbQ0BIXShbQ0gzXSlbQ0gyXVtDSDJdMilbQ0gyXUMzPVtDSF1DKD1PKVtDSF09W0NIXUMzPU8=

> <s_epik_cmdline>
J2VwaWtfYXBwJywgJy1pbWFlJywgJ2xpZ2FuZF9wcm8ubWFlJywgJy1vbWFlJywgJ2xpZ2FuZF9wcmVwLm1hZScsICctbXMnLCAnMScsICctcGgnLCAnNycsICctcGh0JywgJzAuNScsICctbnQn

> <r_lp_tautomer_probability>
1

> <r_epik_Ionization_Penalty>
  0.0000

> <r_epik_Ionization_Penalty_Charging>
  0.0000

> <r_epik_Ionization_Penalty_Neutral>
  0.0000

> <r_epik_State_Penalty>
 -0.0000

> <r_epik_Charging_Adjusted_Penalty>
0

> <i_epik_Tot_Q>
0

> <i_epik_Tot_abs_Q>
0

$$$$
