4p0x_ligand
                    3D
 Schrodinger Suite 2020-3.
 49 51  0  0  1  0            999 V2000
   -8.1760   35.9860  -17.3480 O   0  0  0  0  0  0
   -8.7460   36.2080  -16.2650 C   0  0  0  0  0  0
   -8.0240   36.0440  -15.0600 C   0  0  0  0  0  0
   -6.6360   35.6260  -15.0480 O   0  0  0  0  0  0
   -8.7150   36.2590  -13.8500 C   0  0  0  0  0  0
   -8.1390   36.1630  -12.5020 C   0  0  1  0  0  0
   -8.5770   34.8510  -11.8980 C   0  0  0  0  0  0
   -6.5970   36.2210  -12.3340 C   0  0  0  0  0  0
   -6.1220   37.6290  -12.0120 C   0  0  0  0  0  0
   -6.7940   38.4840  -10.9500 C   0  0  0  0  0  0
   -8.1180   37.9040  -10.5290 C   0  0  0  0  0  0
   -7.8140   36.7710   -9.6090 C   0  0  0  0  0  0
   -8.9490   39.0340   -9.8030 C   0  0  0  0  0  0
   -8.8440   37.3170  -11.7470 C   0  0  2  0  0  0
  -10.1740   36.8740  -11.5220 C   0  0  0  0  0  0
  -10.7060   36.6540  -10.4060 O   0  0  0  0  0  0
  -10.8310   36.7530  -12.7490 C   0  0  0  0  0  0
  -10.0780   36.6600  -13.9270 C   0  0  0  0  0  0
  -10.7190   36.7740  -15.1220 C   0  0  0  0  0  0
  -10.0840   36.5390  -16.2630 C   0  0  0  0  0  0
  -10.8110   36.7530  -17.4580 C   0  0  0  0  0  0
  -11.9110   37.8050  -17.1040 C   0  0  0  0  0  0
  -11.2810   35.5380  -18.4170 C   0  0  0  0  0  0
   -6.1033   35.4602  -15.9960 H   0  0  0  0  0  0
   -8.0832   34.0216  -12.4254 H   0  0  0  0  0  0
   -9.6680   34.7491  -11.9944 H   0  0  0  0  0  0
   -8.2990   34.8262  -10.8340 H   0  0  0  0  0  0
   -6.2923   35.5554  -11.5129 H   0  0  0  0  0  0
   -6.1140   35.8965  -13.2675 H   0  0  0  0  0  0
   -5.0761   37.5946  -11.6730 H   0  0  0  0  0  0
   -6.1949   38.2556  -12.9131 H   0  0  0  0  0  0
   -6.1445   38.5463  -10.0644 H   0  0  0  0  0  0
   -6.9682   39.4943  -11.3487 H   0  0  0  0  0  0
   -7.2911   37.1514   -8.7191 H   0  0  0  0  0  0
   -7.1743   36.0405  -10.1259 H   0  0  0  0  0  0
   -8.7523   36.2851   -9.3032 H   0  0  0  0  0  0
   -8.3784   39.4132   -8.9424 H   0  0  0  0  0  0
   -9.9060   38.6186   -9.4542 H   0  0  0  0  0  0
   -9.1414   39.8572  -10.5068 H   0  0  0  0  0  0
   -8.9346   38.2230  -12.3642 H   0  0  0  0  0  0
  -11.9298   36.7304  -12.7954 H   0  0  0  0  0  0
  -11.7795   37.0659  -15.1328 H   0  0  0  0  0  0
   -9.9648   37.1314  -18.0502 H   0  0  0  0  0  0
  -11.4813   38.5794  -16.4516 H   0  0  0  0  0  0
  -12.7414   37.3060  -16.5830 H   0  0  0  0  0  0
  -12.2846   38.2700  -18.0282 H   0  0  0  0  0  0
  -10.4309   34.8638  -18.5980 H   0  0  0  0  0  0
  -11.6374   35.9440  -19.3752 H   0  0  0  0  0  0
  -12.0943   34.9800  -17.9299 H   0  0  0  0  0  0
  1  2  2  0  0  0
  2  3  1  0  0  0
  2 20  1  0  0  0
  3  4  1  0  0  0
  3  5  2  0  0  0
  4 24  1  0  0  0
  5  6  1  0  0  0
  5 18  1  0  0  0
  6  7  1  0  0  0
  6  8  1  0  0  0
  6 14  1  0  0  0
  7 25  1  0  0  0
  7 26  1  0  0  0
  7 27  1  0  0  0
  8  9  1  0  0  0
  8 28  1  0  0  0
  8 29  1  0  0  0
  9 10  1  0  0  0
  9 30  1  0  0  0
  9 31  1  0  0  0
 10 11  1  0  0  0
 10 32  1  0  0  0
 10 33  1  0  0  0
 11 12  1  0  0  0
 11 13  1  0  0  0
 11 14  1  0  0  0
 12 34  1  0  0  0
 12 35  1  0  0  0
 12 36  1  0  0  0
 13 37  1  0  0  0
 13 38  1  0  0  0
 13 39  1  0  0  0
 14 15  1  0  0  0
 14 40  1  0  0  0
 15 16  2  0  0  0
 15 17  1  0  0  0
 17 18  2  0  0  0
 17 41  1  0  0  0
 18 19  1  0  0  0
 19 20  2  0  0  0
 19 42  1  0  0  0
 20 21  1  0  0  0
 21 22  1  0  0  0
 21 23  1  0  0  0
 21 43  1  0  0  0
 22 44  1  0  0  0
 22 45  1  0  0  0
 22 46  1  0  0  0
 23 47  1  0  0  0
 23 48  1  0  0  0
 23 49  1  0  0  0
M  END
> <s_m_source_file>
../4p0x_ligand.sdf

> <i_m_source_file_index>
1

> <s_epik_input>
W09IXUM9MUMoPU8pQyhbQ0hdKFtDSDNdKVtDSDNdKT1bQ0hdQyhDMVtDQEBdMjNbQ0gzXSk9W0NIXUMoPU8pW0NASF0zQyhbQ0gzXSkoW0NIM10pW0NIMl1bQ0gyXVtDSDJdMg==

> <s_epik_cmdline>
J2VwaWtfYXBwJywgJy1pbWFlJywgJ2xpZ2FuZF9wcm8ubWFlJywgJy1vbWFlJywgJ2xpZ2FuZF9wcmVwLm1hZScsICctbXMnLCAnMScsICctcGgnLCAnNycsICctcGh0JywgJzAuNScsICctbnQn

> <r_epik_Ionization_Penalty>
  0.1580

> <r_epik_Ionization_Penalty_Charging>
  0.0000

> <r_epik_Ionization_Penalty_Neutral>
  0.1580

> <r_epik_State_Penalty>
  0.1473

> <r_epik_Charging_Adjusted_Penalty>
0.147263863246152

> <i_epik_Tot_Q>
0

> <i_epik_Tot_abs_Q>
0

$$$$
