4p1u_ligand
                    3D
 Schrodinger Suite 2020-3.
 46 50  0  0  1  0            999 V2000
  -47.4340   -4.7490    1.6290 C   0  0  0  0  0  0
  -46.1210   -4.9130    1.2190 C   0  0  0  0  0  0
  -45.7020   -4.3800    0.0040 C   0  0  0  0  0  0
  -47.8600   -3.5780   -0.4420 C   0  0  0  0  0  0
  -48.3300   -4.0810    0.7850 C   0  0  0  0  0  0
  -49.7640   -3.7490    0.8590 C   0  0  3  0  0  0
  -46.5680   -3.7510   -0.7790 N   0  0  0  0  0  0
  -50.0870   -3.1210   -0.3030 C   0  0  0  0  0  0
  -48.9470   -2.9700   -1.0520 N   0  0  0  0  0  0
  -50.6430   -4.0340    2.0080 C   0  0  0  0  0  0
  -51.9060   -3.6110    2.0530 N   0  0  0  0  0  0
  -52.6790   -3.8400    3.1240 C   0  0  0  0  0  0
  -52.1480   -4.5210    4.2070 C   0  0  0  0  0  0
  -50.8270   -4.9640    4.1250 C   0  0  0  0  0  0
  -50.1150   -4.6870    3.0350 N   0  0  0  0  0  0
  -50.2860   -5.6600    5.1910 N   0  0  0  0  0  0
  -48.8830   -6.0770    5.2650 C   0  0  2  0  0  0
  -48.8900   -7.3240    6.1930 C   0  0  2  0  0  0
  -47.7630   -7.2080    7.2380 C   0  0  1  0  0  0
  -46.4370   -6.8570    6.5170 C   0  0  0  0  0  0
  -46.5300   -5.4490    5.8620 C   0  0  0  0  0  0
  -47.9960   -4.9700    5.8960 C   0  0  2  0  0  0
  -48.3590   -4.7600    7.3880 C   0  0  0  0  0  0
  -48.1690   -6.0650    8.1930 C   0  0  0  0  0  0
  -48.9160   -8.6450    5.4530 C   0  0  0  0  0  0
  -49.0880   -9.6520    6.0970 O   0  0  0  0  0  0
  -48.7910   -8.7100    4.1130 O   0  5  0  0  0  0
  -52.8640   -4.7880    5.3230 F   0  0  0  0  0  0
  -45.2730   -5.5620    2.0340 F   0  0  0  0  0  0
  -47.7647   -5.1339    2.5937 H   0  0  0  0  0  0
  -44.6613   -4.4795   -0.3045 H   0  0  0  0  0  0
  -51.0499   -2.7525   -0.6865 H   0  0  0  0  0  0
  -53.7127   -3.4946    3.1424 H   0  0  0  0  0  0
  -50.9749   -5.8989    6.0146 H   0  0  0  0  0  0
  -48.5231   -6.2676    4.2432 H   0  0  0  0  0  0
  -49.8483   -7.3603    6.7318 H   0  0  0  0  0  0
  -47.6218   -8.1482    7.7913 H   0  0  0  0  0  0
  -45.6122   -6.8590    7.2448 H   0  0  0  0  0  0
  -46.2368   -7.6031    5.7339 H   0  0  0  0  0  0
  -45.8977   -4.7426    6.4198 H   0  0  0  0  0  0
  -46.1842   -5.5061    4.8193 H   0  0  0  0  0  0
  -48.1427   -4.0356    5.3344 H   0  0  0  0  0  0
  -47.7096   -3.9829    7.8175 H   0  0  0  0  0  0
  -49.4100   -4.4455    7.4689 H   0  0  0  0  0  0
  -49.1122   -6.3249    8.6958 H   0  0  0  0  0  0
  -47.3804   -5.9186    8.9458 H   0  0  0  0  0  0
  1  2  2  0  0  0
  1  5  1  0  0  0
  1 30  1  0  0  0
  2  3  1  0  0  0
  2 29  1  0  0  0
  3  7  2  0  0  0
  3 31  1  0  0  0
  4  5  2  0  0  0
  4  7  1  0  0  0
  4  9  1  0  0  0
  5  6  1  0  0  0
  6  8  1  0  0  0
  6 10  1  0  0  0
  8  9  2  0  0  0
  8 32  1  0  0  0
 10 11  2  0  0  0
 10 15  1  0  0  0
 11 12  1  0  0  0
 12 13  2  0  0  0
 12 33  1  0  0  0
 13 14  1  0  0  0
 13 28  1  0  0  0
 14 15  2  0  0  0
 14 16  1  0  0  0
 16 17  1  0  0  0
 16 34  1  0  0  0
 17 18  1  0  0  0
 17 22  1  0  0  0
 17 35  1  0  0  0
 18 19  1  0  0  0
 18 25  1  0  0  0
 18 36  1  0  0  0
 19 20  1  0  0  0
 19 24  1  0  0  0
 19 37  1  0  0  0
 20 21  1  0  0  0
 20 38  1  0  0  0
 20 39  1  0  0  0
 21 22  1  0  0  0
 21 40  1  0  0  0
 21 41  1  0  0  0
 22 23  1  0  0  0
 22 42  1  0  0  0
 23 24  1  0  0  0
 23 43  1  0  0  0
 23 44  1  0  0  0
 24 45  1  0  0  0
 24 46  1  0  0  0
 25 26  2  0  0  0
 25 27  1  0  0  0
M  CHG  1  27  -1
M  END
> <s_m_source_file>
../4p1u_ligand.sdf

> <i_m_source_file_index>
1

> <s_epik_input>
bjFbY0hdYyhGKVtjSF1jKGMxMilbQ0hdKFtDSF09TjIpYzNuW2NIXWMoRiljKG4zKVtOSF1bQ0BIXShbQ0BIXShbQ0BASF00NSlDKD1PKVtPSF0pW0NASF0oW0NIMl1bQ0gyXTQpW0NIMl1bQ0gyXTU=

> <s_epik_cmdline>
J2VwaWtfYXBwJywgJy1pbWFlJywgJ2xpZ2FuZF9wcm8ubWFlJywgJy1vbWFlJywgJ2xpZ2FuZF9wcmVwLm1hZScsICctbXMnLCAnMScsICctcGgnLCAnNycsICctcGh0JywgJzAuNScsICctbnQn

> <r_lp_tautomer_probability>
1

> <r_epik_Ionization_Penalty>
  0.0064

> <r_epik_Ionization_Penalty_Charging>
  0.0039

> <r_epik_Ionization_Penalty_Neutral>
  0.0025

> <r_epik_State_Penalty>
 -0.0000

> <r_epik_Charging_Adjusted_Penalty>
0.00393854933942248

> <i_epik_Tot_Q>
-1

> <i_epik_Tot_abs_Q>
1

> <s_epik_Chemistry_Notes>
This compound has an imine and may undergo hydrolysis.

$$$$
