4p2t_ligand
                    3D
 Schrodinger Suite 2020-3.
 66 69  0  0  1  0            999 V2000
  -29.5080  -14.8020  -42.2630 C   0  0  0  0  0  0
  -29.2600  -20.9860  -42.7220 C   0  0  0  0  0  0
  -30.6110  -22.9090  -42.2250 C   0  0  0  0  0  0
  -29.7130  -23.7150  -42.9050 C   0  0  0  0  0  0
  -28.5900  -23.1600  -43.4940 C   0  0  0  0  0  0
  -25.9960  -20.8970  -43.0660 C   0  0  0  0  0  0
  -26.2190  -20.7590  -41.7020 C   0  0  0  0  0  0
  -23.6540  -20.4630  -42.7050 C   0  0  0  0  0  0
  -25.5170  -16.7800  -46.1810 C   0  0  0  0  0  0
  -26.2180  -16.3910  -44.8890 C   0  0  0  0  0  0
  -25.2130  -16.0570  -43.8010 C   0  0  0  0  0  0
  -24.2970  -17.2440  -43.6080 C   0  0  0  0  0  0
  -23.5550  -17.5750  -44.8870 C   0  0  0  0  0  0
  -24.0100  -16.7290  -46.0540 C   0  0  0  0  0  0
  -25.8470  -15.7140  -42.4590 C   0  0  0  0  0  0
  -27.3580  -15.8260  -42.4120 C   0  0  0  0  0  0
  -28.1460  -14.6890  -42.3160 C   0  0  0  0  0  0
  -30.0970  -16.0340  -42.2980 C   0  0  0  0  0  0
  -29.3030  -17.1650  -42.3910 C   0  0  0  0  0  0
  -27.9480  -17.0480  -42.4400 N   0  0  0  0  0  0
  -29.8910  -18.5550  -42.4290 C   0  0  0  0  0  0
  -31.0810  -18.7340  -42.2620 O   0  0  0  0  0  0
  -28.9560  -19.6010  -42.6490 N   0  0  0  0  0  0
  -28.3550  -21.7990  -43.3920 C   0  0  0  0  0  0
  -30.3820  -21.5440  -42.1260 C   0  0  0  0  0  0
  -27.1190  -21.2040  -44.0450 C   0  0  0  0  0  0
  -25.1660  -20.4750  -40.8450 C   0  0  0  0  0  0
  -24.7080  -20.7470  -43.5600 C   0  0  0  0  0  0
  -23.8830  -20.3270  -41.3450 C   0  0  0  0  0  0
  -29.9650  -25.2010  -43.0230 C   0  0  0  0  0  0
  -30.8680  -25.7160  -42.3930 O   0  5  0  0  0  0
  -29.1540  -25.9830  -43.8880 N   0  0  0  0  0  0
  -29.4220  -27.5950  -44.0480 S   0  0  0  0  0  0
  -30.7110  -27.8250  -44.6430 O   0  0  0  0  0  0
  -29.5800  -28.2580  -42.7820 O   0  0  0  0  0  0
  -28.1570  -28.3480  -45.0300 C   0  0  0  0  0  0
  -30.1253  -13.9064  -42.1926 H   0  0  0  0  0  0
  -31.4980  -23.3472  -41.7674 H   0  0  0  0  0  0
  -27.8904  -23.7944  -44.0383 H   0  0  0  0  0  0
  -27.2267  -20.8745  -41.3030 H   0  0  0  0  0  0
  -22.6457  -20.3468  -43.1024 H   0  0  0  0  0  0
  -25.8011  -17.8060  -46.4578 H   0  0  0  0  0  0
  -25.8151  -16.0881  -46.9826 H   0  0  0  0  0  0
  -26.8506  -15.5088  -45.0664 H   0  0  0  0  0  0
  -26.8438  -17.2277  -44.5450 H   0  0  0  0  0  0
  -24.6655  -15.1650  -44.1395 H   0  0  0  0  0  0
  -23.5606  -17.0151  -42.8236 H   0  0  0  0  0  0
  -24.8906  -18.1205  -43.3091 H   0  0  0  0  0  0
  -22.4785  -17.4016  -44.7417 H   0  0  0  0  0  0
  -23.7246  -18.6304  -45.1467 H   0  0  0  0  0  0
  -23.5511  -17.1127  -46.9771 H   0  0  0  0  0  0
  -23.6908  -15.6891  -45.8906 H   0  0  0  0  0  0
  -25.4584  -16.3929  -41.6857 H   0  0  0  0  0  0
  -25.6014  -14.6755  -42.1922 H   0  0  0  0  0  0
  -27.6796  -13.7044  -42.2828 H   0  0  0  0  0  0
  -31.1822  -16.1262  -42.2531 H   0  0  0  0  0  0
  -27.9173  -19.2589  -42.7674 H   0  0  0  0  0  0
  -31.0823  -20.9111  -41.5809 H   0  0  0  0  0  0
  -27.4298  -20.2769  -44.5489 H   0  0  0  0  0  0
  -26.7648  -21.9274  -44.7941 H   0  0  0  0  0  0
  -25.3487  -20.3681  -39.7758 H   0  0  0  0  0  0
  -24.5233  -20.8533  -44.6290 H   0  0  0  0  0  0
  -23.0559  -20.1042  -40.6709 H   0  0  0  0  0  0
  -28.0683  -27.8128  -45.9869 H   0  0  0  0  0  0
  -28.4180  -29.3994  -45.2208 H   0  0  0  0  0  0
  -27.1984  -28.2999  -44.4927 H   0  0  0  0  0  0
  1 17  2  0  0  0
  1 18  1  0  0  0
  1 37  1  0  0  0
  2 23  1  0  0  0
  2 24  2  0  0  0
  2 25  1  0  0  0
  3  4  1  0  0  0
  3 25  2  0  0  0
  3 38  1  0  0  0
  4  5  2  0  0  0
  4 30  1  0  0  0
  5 24  1  0  0  0
  5 39  1  0  0  0
  6  7  2  0  0  0
  6 26  1  0  0  0
  6 28  1  0  0  0
  7 27  1  0  0  0
  7 40  1  0  0  0
  8 28  2  0  0  0
  8 29  1  0  0  0
  8 41  1  0  0  0
  9 10  1  0  0  0
  9 14  1  0  0  0
  9 42  1  0  0  0
  9 43  1  0  0  0
 10 11  1  0  0  0
 10 44  1  0  0  0
 10 45  1  0  0  0
 11 12  1  0  0  0
 11 15  1  0  0  0
 11 46  1  0  0  0
 12 13  1  0  0  0
 12 47  1  0  0  0
 12 48  1  0  0  0
 13 14  1  0  0  0
 13 49  1  0  0  0
 13 50  1  0  0  0
 14 51  1  0  0  0
 14 52  1  0  0  0
 15 16  1  0  0  0
 15 53  1  0  0  0
 15 54  1  0  0  0
 16 17  1  0  0  0
 16 20  2  0  0  0
 17 55  1  0  0  0
 18 19  2  0  0  0
 18 56  1  0  0  0
 19 20  1  0  0  0
 19 21  1  0  0  0
 21 22  2  0  0  0
 21 23  1  0  0  0
 23 57  1  0  0  0
 24 26  1  0  0  0
 25 58  1  0  0  0
 26 59  1  0  0  0
 26 60  1  0  0  0
 27 29  2  0  0  0
 27 61  1  0  0  0
 28 62  1  0  0  0
 29 63  1  0  0  0
 30 31  1  0  0  0
 30 32  2  0  0  0
 32 33  1  0  0  0
 33 34  2  0  0  0
 33 35  2  0  0  0
 33 36  1  0  0  0
 36 64  1  0  0  0
 36 65  1  0  0  0
 36 66  1  0  0  0
M  CHG  1  31  -1
M  END
> <s_m_source_file>
../4p2t_ligand.sdf

> <i_m_source_file_index>
1

> <s_epik_input>
W0NIMl0xW0NIMl1bQ0gyXVtDSDJdW0NIMl1bQ0hdMVtDSDJdYzJbY0hdW2NIXVtjSF1jKG4yKUMoPU8pW05IXWMzYyhbY0hdYyhbY0hdW2NIXTMpQyg9TylbTkhdUyg9TykoPU8pW0NIM10pW0NIMl1jNFtjSF1bY0hdW2NIXVtjSF1bY0hdNA==

> <s_epik_cmdline>
J2VwaWtfYXBwJywgJy1pbWFlJywgJ2xpZ2FuZF9wcm8ubWFlJywgJy1vbWFlJywgJ2xpZ2FuZF9wcmVwLm1hZScsICctbXMnLCAnMScsICctcGgnLCAnNycsICctcGh0JywgJzAuNScsICctbnQn

> <r_lp_tautomer_probability>
1

> <r_epik_Ionization_Penalty>
  0.0054

> <r_epik_Ionization_Penalty_Charging>
  0.0054

> <r_epik_Ionization_Penalty_Neutral>
  0.0000

> <r_epik_State_Penalty>
 -0.0000

> <r_epik_Charging_Adjusted_Penalty>
0.00536124351185839

> <i_epik_Tot_Q>
-1

> <i_epik_Tot_abs_Q>
1

$$$$
