4p44_ligand
                    3D
 Schrodinger Suite 2020-3.
 62 62  0  0  1  0            999 V2000
   13.0140   46.9490   39.5930 O   0  5  0  0  0  0
   13.8250   47.5910   40.3140 C   0  0  0  0  0  0
   13.7790   48.8150   40.5060 O   0  0  0  0  0  0
   15.0110   46.8430   40.9840 C   0  0  0  0  0  0
   14.7270   45.3140   41.0270 C   0  0  0  0  0  0
   16.0000   44.5500   41.5270 C   0  0  1  0  0  0
   17.0980   44.6940   40.4660 C   0  0  0  0  0  0
   16.9630   43.9040   39.4840 O   0  5  0  0  0  0
   17.9970   45.5410   40.6190 O   0  0  0  0  0  0
   16.4760   45.0240   42.8800 N   0  0  1  0  0  0
   17.6570   44.1320   43.7070 P   0  0  2  0  0  0
   18.1930   43.0000   42.7010 O   0  5  0  0  0  0
   17.0420   43.5550   44.8630 O   0  0  0  0  0  0
   18.8260   45.0970   44.2050 O   0  0  0  0  0  0
   19.1770   46.1340   43.3690 C   0  0  0  0  0  0
   20.1410   47.0980   44.0560 C   0  0  1  0  0  0
   19.9100   47.3190   45.5490 C   0  0  0  0  0  0
   20.3010   46.4680   46.3720 O   0  5  0  0  0  0
   19.3790   48.3650   45.8420 O   0  0  0  0  0  0
   21.3460   46.3920   43.8040 N   0  0  0  0  0  0
   22.2870   46.1150   44.6510 C   0  0  0  0  0  0
   22.3210   46.3540   45.8620 O   0  0  0  0  0  0
   23.2290   45.2920   43.8630 C   0  0  2  0  0  0
   23.8640   44.0470   44.5290 C   0  0  2  0  0  0
   24.1690   44.2150   46.0430 C   0  0  0  0  0  0
   25.0880   43.5870   43.7200 C   0  0  0  0  0  0
   24.7320   43.5000   42.2390 C   0  0  0  0  0  0
   23.9240   46.1440   42.8520 N   0  0  0  0  0  0
   24.5150   47.3540   42.8330 C   0  0  0  0  0  0
   24.9320   48.0260   43.7870 O   0  0  0  0  0  0
   24.7430   47.6820   41.4840 C   0  0  0  0  0  0
   24.4630   46.6390   40.5850 C   0  0  0  0  0  0
   24.6040   46.7770   39.2140 C   0  0  0  0  0  0
   25.0210   48.0150   38.7400 C   0  0  0  0  0  0
   25.1320   48.1290   37.4650 F   0  0  0  0  0  0
   25.2930   49.0860   39.6130 C   0  0  0  0  0  0
   25.1440   48.9360   41.0040 C   0  0  0  0  0  0
   15.9303   47.0222   40.4071 H   0  0  0  0  0  0
   15.1447   47.2132   42.0112 H   0  0  0  0  0  0
   13.8912   45.1155   41.7140 H   0  0  0  0  0  0
   14.4645   44.9613   40.0187 H   0  0  0  0  0  0
   15.7684   43.4866   41.6870 H   0  0  0  0  0  0
   16.9128   46.0290   42.7836 H   0  0  0  0  0  0
   19.6665   45.7308   42.4702 H   0  0  0  0  0  0
   18.2745   46.6907   43.0765 H   0  0  0  0  0  0
   20.1339   48.1254   43.6632 H   0  0  0  0  0  0
   21.5603   46.0128   42.7939 H   0  0  0  0  0  0
   22.6437   44.6433   43.1947 H   0  0  0  0  0  0
   23.1117   43.2451   44.4962 H   0  0  0  0  0  0
   23.2590   44.5441   46.5660 H   0  0  0  0  0  0
   24.9607   44.9669   46.1763 H   0  0  0  0  0  0
   24.5032   43.2530   46.4586 H   0  0  0  0  0  0
   25.9078   44.3082   43.8534 H   0  0  0  0  0  0
   25.4100   42.5964   44.0736 H   0  0  0  0  0  0
   25.6131   43.1704   41.6689 H   0  0  0  0  0  0
   24.4120   44.4893   41.8801 H   0  0  0  0  0  0
   23.9142   42.7775   42.1003 H   0  0  0  0  0  0
   24.0401   45.7867   41.8181 H   0  0  0  0  0  0
   24.1212   45.6833   40.9823 H   0  0  0  0  0  0
   24.3966   45.9495   38.5355 H   0  0  0  0  0  0
   25.6227   50.0421   39.2065 H   0  0  0  0  0  0
   25.3338   49.7661   41.6844 H   0  0  0  0  0  0
  1  2  1  0  0  0
  2  3  2  0  0  0
  2  4  1  0  0  0
  4  5  1  0  0  0
  4 38  1  0  0  0
  4 39  1  0  0  0
  5  6  1  0  0  0
  5 40  1  0  0  0
  5 41  1  0  0  0
  6  7  1  0  0  0
  6 10  1  0  0  0
  6 42  1  0  0  0
  7  8  1  0  0  0
  7  9  2  0  0  0
 10 11  1  0  0  0
 10 43  1  0  0  0
 11 12  1  0  0  0
 11 13  2  0  0  0
 11 14  1  0  0  0
 14 15  1  0  0  0
 15 16  1  0  0  0
 15 44  1  0  0  0
 15 45  1  0  0  0
 16 17  1  0  0  0
 16 20  1  0  0  0
 16 46  1  0  0  0
 17 18  1  0  0  0
 17 19  2  0  0  0
 20 21  1  0  0  0
 20 47  1  0  0  0
 21 22  2  0  0  0
 21 23  1  0  0  0
 23 24  1  0  0  0
 23 28  1  0  0  0
 23 48  1  0  0  0
 24 25  1  0  0  0
 24 26  1  0  0  0
 24 49  1  0  0  0
 25 50  1  0  0  0
 25 51  1  0  0  0
 25 52  1  0  0  0
 26 27  1  0  0  0
 26 53  1  0  0  0
 26 54  1  0  0  0
 27 55  1  0  0  0
 27 56  1  0  0  0
 27 57  1  0  0  0
 28 29  1  0  0  0
 28 58  1  0  0  0
 29 30  2  0  0  0
 29 31  1  0  0  0
 31 32  2  0  0  0
 31 37  1  0  0  0
 32 33  1  0  0  0
 32 59  1  0  0  0
 33 34  2  0  0  0
 33 60  1  0  0  0
 34 35  1  0  0  0
 34 36  1  0  0  0
 36 37  2  0  0  0
 36 61  1  0  0  0
 37 62  1  0  0  0
M  CHG  4   1  -1   8  -1  12  -1  18  -1
M  END
> <s_m_source_file>
../4p44_ligand.sdf

> <i_m_source_file_index>
1

> <s_epik_input>
W09IXUMoPU8pW0NIMl1bQ0gyXVtDQEBIXShDKD1PKVtPSF0pW05IXVtQQEBdKD1PKShbT0hdKU9bQ0gyXVtDQEBIXShDKD1PKVtPSF0pW05IXUMoPU8pW0NASF0oW0NASF0oW0NIM10pW0NIMl1bQ0gzXSlbTkhdQyg9TyljMVtjSF1bY0hdYyhGKVtjSF1bY0hdMQ==

> <s_epik_cmdline>
J2VwaWtfYXBwJywgJy1pbWFlJywgJ2xpZ2FuZF9wcm8ubWFlJywgJy1vbWFlJywgJ2xpZ2FuZF9wcmVwLm1hZScsICctbXMnLCAnMScsICctcGgnLCAnNycsICctcGh0JywgJzAuNScsICctbnQn

> <r_lp_tautomer_probability>
1

> <r_epik_Ionization_Penalty>
  0.0061

> <r_epik_Ionization_Penalty_Charging>
  0.0061

> <r_epik_Ionization_Penalty_Neutral>
  0.0000

> <r_epik_State_Penalty>
 -0.0000

> <r_epik_Charging_Adjusted_Penalty>
0.00611199776096253

> <i_epik_Tot_Q>
-4

> <i_epik_Tot_abs_Q>
4

$$$$
