4p45_ligand
                    3D
 Schrodinger Suite 2020-3.
 59 59  0  0  1  0            999 V2000
   13.7540   48.7200   40.4140 O   0  0  0  0  0  0
   13.8190   47.4990   40.2340 C   0  0  0  0  0  0
   12.9850   46.9070   39.4930 O   0  5  0  0  0  0
   14.9700   46.7530   40.9200 C   0  0  0  0  0  0
   14.7130   45.2130   41.0650 C   0  0  0  0  0  0
   16.0040   44.4630   41.5410 C   0  0  1  0  0  0
   17.0630   44.6020   40.4290 C   0  0  0  0  0  0
   17.9760   45.4790   40.4690 O   0  0  0  0  0  0
   16.8730   43.8030   39.4370 O   0  5  0  0  0  0
   16.4880   44.9000   42.8990 N   0  0  1  0  0  0
   17.5640   44.0130   43.6520 P   0  0  2  0  0  0
   18.1920   42.9230   42.6830 O   0  5  0  0  0  0
   16.9420   43.4190   44.8690 O   0  0  0  0  0  0
   18.6520   44.9500   44.2250 O   0  0  0  0  0  0
   19.4130   45.7410   43.2970 C   0  0  0  0  0  0
   20.2100   46.8240   43.9660 C   0  0  1  0  0  0
   20.4750   46.5290   45.3930 C   0  0  0  0  0  0
   21.4280   45.7670   45.6650 O   0  5  0  0  0  0
   19.9090   47.2770   46.1410 O   0  0  0  0  0  0
   21.5330   46.9720   43.3100 N   0  0  0  0  0  0
   22.1570   48.2000   43.2110 C   0  0  0  0  0  0
   21.7740   49.2370   43.7840 O   0  0  0  0  0  0
   23.4960   48.2220   42.4510 C   0  0  2  0  0  0
   24.4520   47.2800   43.2100 C   0  0  0  0  0  0
   24.9620   47.9870   44.5130 C   0  0  0  0  0  0
   25.6260   46.8990   42.2600 C   0  0  0  0  0  0
   23.9870   49.6540   42.3700 N   0  0  0  0  0  0
   24.5780   50.2220   41.2660 C   0  0  0  0  0  0
   24.8960   49.5560   40.2660 O   0  0  0  0  0  0
   24.9430   51.6020   41.3700 C   0  0  0  0  0  0
   24.6530   52.3570   42.5250 C   0  0  0  0  0  0
   25.0440   53.7010   42.6540 C   0  0  0  0  0  0
   25.7360   54.3070   41.6030 C   0  0  0  0  0  0
   26.1930   55.7790   41.7500 F   0  0  0  0  0  0
   26.0470   53.5720   40.4570 C   0  0  0  0  0  0
   25.6150   52.2320   40.3280 C   0  0  0  0  0  0
   15.8914   46.8809   40.3328 H   0  0  0  0  0  0
   15.1199   47.1601   41.9308 H   0  0  0  0  0  0
   13.9164   45.0422   41.8041 H   0  0  0  0  0  0
   14.4062   44.7993   40.0930 H   0  0  0  0  0  0
   15.8015   43.3977   41.7258 H   0  0  0  0  0  0
   16.9550   45.8928   42.8198 H   0  0  0  0  0  0
   20.1179   45.0933   42.7551 H   0  0  0  0  0  0
   18.7314   46.2219   42.5799 H   0  0  0  0  0  0
   19.6165   47.7470   43.8895 H   0  0  0  0  0  0
   22.0395   46.0912   42.8885 H   0  0  0  0  0  0
   23.4176   47.8824   41.4077 H   0  0  0  0  0  0
   23.9243   46.3608   43.5043 H   0  0  0  0  0  0
   24.1039   48.2382   45.1537 H   0  0  0  0  0  0
   25.5005   48.9076   44.2438 H   0  0  0  0  0  0
   25.6394   47.3112   45.0557 H   0  0  0  0  0  0
   25.2256   46.4071   41.3613 H   0  0  0  0  0  0
   26.3102   46.2122   42.7798 H   0  0  0  0  0  0
   26.1713   47.8086   41.9680 H   0  0  0  0  0  0
   23.8812   50.3216   43.2378 H   0  0  0  0  0  0
   24.1091   51.8841   43.3427 H   0  0  0  0  0  0
   24.8109   54.2612   43.5595 H   0  0  0  0  0  0
   26.6261   54.0340   39.6574 H   0  0  0  0  0  0
   25.8103   51.6880   39.4039 H   0  0  0  0  0  0
  1  2  2  0  0  0
  2  3  1  0  0  0
  2  4  1  0  0  0
  4  5  1  0  0  0
  4 37  1  0  0  0
  4 38  1  0  0  0
  5  6  1  0  0  0
  5 39  1  0  0  0
  5 40  1  0  0  0
  6  7  1  0  0  0
  6 10  1  0  0  0
  6 41  1  0  0  0
  7  8  2  0  0  0
  7  9  1  0  0  0
 10 11  1  0  0  0
 10 42  1  0  0  0
 11 12  1  0  0  0
 11 13  2  0  0  0
 11 14  1  0  0  0
 14 15  1  0  0  0
 15 16  1  0  0  0
 15 43  1  0  0  0
 15 44  1  0  0  0
 16 17  1  0  0  0
 16 20  1  0  0  0
 16 45  1  0  0  0
 17 18  1  0  0  0
 17 19  2  0  0  0
 20 21  1  0  0  0
 20 46  1  0  0  0
 21 22  2  0  0  0
 21 23  1  0  0  0
 23 24  1  0  0  0
 23 27  1  0  0  0
 23 47  1  0  0  0
 24 25  1  0  0  0
 24 26  1  0  0  0
 24 48  1  0  0  0
 25 49  1  0  0  0
 25 50  1  0  0  0
 25 51  1  0  0  0
 26 52  1  0  0  0
 26 53  1  0  0  0
 26 54  1  0  0  0
 27 28  1  0  0  0
 27 55  1  0  0  0
 28 29  2  0  0  0
 28 30  1  0  0  0
 30 31  2  0  0  0
 30 36  1  0  0  0
 31 32  1  0  0  0
 31 56  1  0  0  0
 32 33  2  0  0  0
 32 57  1  0  0  0
 33 34  1  0  0  0
 33 35  1  0  0  0
 35 36  2  0  0  0
 35 58  1  0  0  0
 36 59  1  0  0  0
M  CHG  4   3  -1   9  -1  12  -1  18  -1
M  END
> <s_m_source_file>
../4p45_ligand.sdf

> <i_m_source_file_index>
1

> <s_epik_input>
Tz1DKFtPSF0pW0NIMl1bQ0gyXVtDQEBIXShDKD1PKVtPSF0pW05IXVtQQEBdKD1PKShbT0hdKU9bQ0gyXVtDQEBIXShDKD1PKVtPSF0pW05IXUMoPU8pW0NASF0oW0NIXShbQ0gzXSlbQ0gzXSlbTkhdQyg9TyljMVtjSF1bY0hdYyhGKVtjSF1bY0hdMQ==

> <s_epik_cmdline>
J2VwaWtfYXBwJywgJy1pbWFlJywgJ2xpZ2FuZF9wcm8ubWFlJywgJy1vbWFlJywgJ2xpZ2FuZF9wcmVwLm1hZScsICctbXMnLCAnMScsICctcGgnLCAnNycsICctcGh0JywgJzAuNScsICctbnQn

> <r_lp_tautomer_probability>
1

> <r_epik_Ionization_Penalty>
  0.0061

> <r_epik_Ionization_Penalty_Charging>
  0.0061

> <r_epik_Ionization_Penalty_Neutral>
  0.0000

> <r_epik_State_Penalty>
 -0.0000

> <r_epik_Charging_Adjusted_Penalty>
0.00611234609028806

> <i_epik_Tot_Q>
-4

> <i_epik_Tot_abs_Q>
4

$$$$
