4p4b_ligand
                    3D
 Schrodinger Suite 2020-3.
 47 46  0  0  1  0            999 V2000
   27.2440   44.2430   39.9390 O   0  0  0  0  0  0
   26.1180   43.7230   39.8240 C   0  0  0  0  0  0
   25.5180   43.6430   38.7310 O   0  5  0  0  0  0
   25.4110   43.2430   41.1440 C   0  0  1  0  0  0
   26.3710   42.7420   42.1530 N   0  3  0  0  0  0
   24.5160   44.3910   41.7550 C   0  0  0  0  0  0
   23.7950   44.0640   43.0880 C   0  0  0  0  0  0
   22.9030   45.3050   43.4650 C   0  0  0  0  0  0
   23.4200   46.4160   43.5600 O   0  0  0  0  0  0
   21.5880   45.1210   43.6130 N   0  0  0  0  0  0
   20.6110   46.2580   43.8650 C   0  0  2  0  0  0
   20.4570   46.4980   45.4000 C   0  0  0  0  0  0
   20.9710   45.6750   46.1750 O   0  5  0  0  0  0
   19.7680   47.4540   45.7470 O   0  0  0  0  0  0
   19.2580   45.8520   43.3070 C   0  0  0  0  0  0
   18.7120   44.8590   44.1440 O   0  0  0  0  0  0
   17.5810   43.9320   43.5750 P   0  0  2  0  0  0
   16.8550   43.2940   44.7740 O   0  5  0  0  0  0
   18.1450   42.9590   42.5820 O   0  0  0  0  0  0
   16.5250   44.8880   42.7850 N   0  0  1  0  0  0
   15.9950   44.3870   41.4810 C   0  0  2  0  0  0
   17.0080   44.5280   40.3390 C   0  0  0  0  0  0
   16.8470   43.7610   39.3350 O   0  5  0  0  0  0
   17.8930   45.4120   40.4210 O   0  0  0  0  0  0
   14.6660   45.1570   41.0010 C   0  0  0  0  0  0
   14.9290   46.6750   40.9190 C   0  0  0  0  0  0
   13.8060   47.4570   40.1870 C   0  0  0  0  0  0
   12.9940   46.8230   39.4360 O   0  5  0  0  0  0
   13.7460   48.6970   40.4330 O   0  0  0  0  0  0
   24.8038   42.3566   40.9081 H   0  0  0  0  0  0
   26.9851   41.9440   41.7103 H   0  0  0  0  0  0
   25.8197   42.3436   43.0175 H   0  0  0  0  0  0
   27.0216   43.5661   42.4810 H   0  0  0  0  0  0
   25.1400   45.2740   41.9574 H   0  0  0  0  0  0
   23.7237   44.6580   41.0402 H   0  0  0  0  0  0
   23.1697   43.1686   42.9566 H   0  0  0  0  0  0
   24.5426   43.8771   43.8730 H   0  0  0  0  0  0
   21.2217   44.0861   43.5445 H   0  0  0  0  0  0
   20.9794   47.1637   43.3611 H   0  0  0  0  0  0
   18.5942   46.7288   43.2806 H   0  0  0  0  0  0
   19.3850   45.4574   42.2881 H   0  0  0  0  0  0
   15.6403   45.0573   43.4164 H   0  0  0  0  0  0
   15.8341   43.3254   41.7201 H   0  0  0  0  0  0
   14.3677   44.7894   40.0081 H   0  0  0  0  0  0
   13.8545   44.9708   41.7199 H   0  0  0  0  0  0
   15.0107   47.0884   41.9351 H   0  0  0  0  0  0
   15.8668   46.8557   40.3732 H   0  0  0  0  0  0
  1  2  2  0  0  0
  2  3  1  0  0  0
  2  4  1  0  0  0
  4  5  1  0  0  0
  4  6  1  0  0  0
  4 30  1  0  0  0
  5 31  1  0  0  0
  5 32  1  0  0  0
  5 33  1  0  0  0
  6  7  1  0  0  0
  6 34  1  0  0  0
  6 35  1  0  0  0
  7  8  1  0  0  0
  7 36  1  0  0  0
  7 37  1  0  0  0
  8  9  2  0  0  0
  8 10  1  0  0  0
 10 11  1  0  0  0
 10 38  1  0  0  0
 11 12  1  0  0  0
 11 15  1  0  0  0
 11 39  1  0  0  0
 12 13  1  0  0  0
 12 14  2  0  0  0
 15 16  1  0  0  0
 15 40  1  0  0  0
 15 41  1  0  0  0
 16 17  1  0  0  0
 17 18  1  0  0  0
 17 19  2  0  0  0
 17 20  1  0  0  0
 20 21  1  0  0  0
 20 42  1  0  0  0
 21 22  1  0  0  0
 21 25  1  0  0  0
 21 43  1  0  0  0
 22 23  1  0  0  0
 22 24  2  0  0  0
 25 26  1  0  0  0
 25 44  1  0  0  0
 25 45  1  0  0  0
 26 27  1  0  0  0
 26 46  1  0  0  0
 26 47  1  0  0  0
 27 28  1  0  0  0
 27 29  2  0  0  0
M  CHG  6   3  -1   5   1  13  -1  18  -1  23  -1  28  -1
M  END
> <s_m_source_file>
../4p4b_ligand.sdf

> <i_m_source_file_index>
1

> <s_epik_input>
Tz1DKFtPSF0pW0NAQEhdKFtOSDMrXSlbQ0gyXVtDSDJdQyg9TylbTkhdW0NASF0oQyg9TylbT0hdKVtDSDJdT1tQQEBdKD1PKShbT0hdKVtOSF1bQ0BIXShDKD1PKVtPSF0pW0NIMl1bQ0gyXUMoPU8pW09IXQ==

> <s_epik_cmdline>
J2VwaWtfYXBwJywgJy1pbWFlJywgJ2xpZ2FuZF9wcm8ubWFlJywgJy1vbWFlJywgJ2xpZ2FuZF9wcmVwLm1hZScsICctbXMnLCAnMScsICctcGgnLCAnNycsICctcGh0JywgJzAuNScsICctbnQn

> <r_lp_tautomer_probability>
1

> <r_epik_Ionization_Penalty>
  0.0082

> <r_epik_Ionization_Penalty_Charging>
  0.0082

> <r_epik_Ionization_Penalty_Neutral>
  0.0000

> <r_epik_State_Penalty>
 -0.0000

> <r_epik_Charging_Adjusted_Penalty>
0.00815286788504637

> <i_epik_Tot_Q>
-4

> <i_epik_Tot_abs_Q>
6

$$$$
