4p4d_ligand
                    3D
 Schrodinger Suite 2020-3.
 41 41  0  0  1  0            999 V2000
   23.4920   49.0820   45.3590 C   0  0  0  0  0  0
   24.2740   50.2450   45.3090 C   0  0  0  0  0  0
   23.6670   51.5100   45.2860 C   0  0  0  0  0  0
   22.2690   51.6110   45.3090 C   0  0  0  0  0  0
   21.5000   50.4400   45.3470 C   0  0  0  0  0  0
   22.0930   49.1630   45.3730 C   0  0  0  0  0  0
   21.2300   47.8580   45.4260 C   0  0  0  0  0  0
   20.2610   47.7350   46.2120 O   0  0  0  0  0  0
   21.6050   46.8930   44.5530 N   0  0  0  0  0  0
   20.9160   45.5540   44.5200 C   0  0  0  0  0  0
   19.4940   45.6000   43.9030 C   0  0  0  0  0  0
   18.6250   44.7550   44.7010 O   0  0  0  0  0  0
   17.5470   43.8240   44.0370 P   0  0  2  0  0  0
   16.8760   43.0170   45.1030 O   0  0  0  0  0  0
   18.2510   42.9210   43.0180 O   0  5  0  0  0  0
   16.4320   44.8060   43.2780 N   0  0  1  0  0  0
   16.0230   44.2930   41.9290 C   0  0  2  0  0  0
   17.0800   44.4750   40.8220 C   0  0  0  0  0  0
   17.9860   45.3570   40.9490 O   0  5  0  0  0  0
   16.9480   43.6820   39.8390 O   0  0  0  0  0  0
   14.7130   45.0410   41.4810 C   0  0  0  0  0  0
   14.9360   46.5510   41.4260 C   0  0  0  0  0  0
   13.8190   47.3510   40.6960 C   0  0  0  0  0  0
   13.0490   46.7640   39.8770 O   0  5  0  0  0  0
   13.8130   48.5850   40.8930 O   0  0  0  0  0  0
   23.9767   48.1061   45.3872 H   0  0  0  0  0  0
   25.3609   50.1658   45.2879 H   0  0  0  0  0  0
   24.2801   52.4105   45.2504 H   0  0  0  0  0  0
   21.7861   52.5881   45.2975 H   0  0  0  0  0  0
   20.4130   50.5199   45.3567 H   0  0  0  0  0  0
   22.4315   47.1035   43.8584 H   0  0  0  0  0  0
   21.5110   44.8502   43.9195 H   0  0  0  0  0  0
   20.8159   45.1678   45.5451 H   0  0  0  0  0  0
   19.1244   46.6360   43.9106 H   0  0  0  0  0  0
   19.5316   45.2317   42.8672 H   0  0  0  0  0  0
   15.5257   44.8784   43.8972 H   0  0  0  0  0  0
   15.9059   43.2102   42.0836 H   0  0  0  0  0  0
   14.4152   44.6920   40.4813 H   0  0  0  0  0  0
   13.9065   44.8296   42.1985 H   0  0  0  0  0  0
   14.9941   46.9506   42.4492 H   0  0  0  0  0  0
   15.8758   46.7638   40.8954 H   0  0  0  0  0  0
  1  2  2  0  0  0
  1  6  1  0  0  0
  1 26  1  0  0  0
  2  3  1  0  0  0
  2 27  1  0  0  0
  3  4  2  0  0  0
  3 28  1  0  0  0
  4  5  1  0  0  0
  4 29  1  0  0  0
  5  6  2  0  0  0
  5 30  1  0  0  0
  6  7  1  0  0  0
  7  8  2  0  0  0
  7  9  1  0  0  0
  9 10  1  0  0  0
  9 31  1  0  0  0
 10 11  1  0  0  0
 10 32  1  0  0  0
 10 33  1  0  0  0
 11 12  1  0  0  0
 11 34  1  0  0  0
 11 35  1  0  0  0
 12 13  1  0  0  0
 13 14  2  0  0  0
 13 15  1  0  0  0
 13 16  1  0  0  0
 16 17  1  0  0  0
 16 36  1  0  0  0
 17 18  1  0  0  0
 17 21  1  0  0  0
 17 37  1  0  0  0
 18 19  1  0  0  0
 18 20  2  0  0  0
 21 22  1  0  0  0
 21 38  1  0  0  0
 21 39  1  0  0  0
 22 23  1  0  0  0
 22 40  1  0  0  0
 22 41  1  0  0  0
 23 24  1  0  0  0
 23 25  2  0  0  0
M  CHG  3  15  -1  19  -1  24  -1
M  END
> <s_m_source_file>
../4p4d_ligand.sdf

> <i_m_source_file_index>
1

> <s_epik_input>
W2NIXTFbY0hdW2NIXVtjSF1bY0hdYzFDKD1PKVtOSF1bQ0gyXVtDSDJdT1tQQF0oPU8pKFtPSF0pW05IXVtDQEhdKEMoPU8pW09IXSlbQ0gyXVtDSDJdQyg9TylbT0hd

> <s_epik_cmdline>
J2VwaWtfYXBwJywgJy1pbWFlJywgJ2xpZ2FuZF9wcm8ubWFlJywgJy1vbWFlJywgJ2xpZ2FuZF9wcmVwLm1hZScsICctbXMnLCAnMScsICctcGgnLCAnNycsICctcGh0JywgJzAuNScsICctbnQn

> <r_lp_tautomer_probability>
1

> <r_epik_Ionization_Penalty>
  0.0060

> <r_epik_Ionization_Penalty_Charging>
  0.0060

> <r_epik_Ionization_Penalty_Neutral>
  0.0000

> <r_epik_State_Penalty>
 -0.0000

> <r_epik_Charging_Adjusted_Penalty>
0.00603936743933914

> <i_epik_Tot_Q>
-3

> <i_epik_Tot_abs_Q>
3

$$$$
