4p4e_ligand
                    3D
 Schrodinger Suite 2020-3.
 43 43  0  0  1  0            999 V2000
   23.7870   44.1940   44.2490 C   0  0  0  0  0  0
   24.7010   44.0060   45.2930 C   0  0  0  0  0  0
   25.6930   44.9540   45.5170 C   0  0  0  0  0  0
   25.8100   46.1080   44.7210 C   0  0  0  0  0  0
   24.8980   46.3060   43.6730 C   0  0  0  0  0  0
   23.8950   45.3500   43.4510 C   0  0  0  0  0  0
   22.9280   45.5750   42.2920 C   0  0  0  0  0  0
   21.7490   46.3270   42.8330 C   0  0  0  0  0  0
   20.9380   45.4550   43.8030 C   0  0  0  0  0  0
   19.4510   45.8550   43.6590 C   0  0  0  0  0  0
   18.7390   45.0330   44.5560 O   0  0  0  0  0  0
   17.6190   44.1150   43.9950 P   0  0  2  0  0  0
   16.9500   43.4530   45.1570 O   0  0  0  0  0  0
   18.2040   43.0450   43.0280 O   0  5  0  0  0  0
   16.5450   45.0930   43.2010 N   0  0  1  0  0  0
   16.0130   44.5850   41.8990 C   0  0  2  0  0  0
   17.0480   44.7220   40.7410 C   0  0  0  0  0  0
   17.9110   45.6240   40.8400 O   0  0  0  0  0  0
   16.9550   43.9080   39.7800 O   0  5  0  0  0  0
   14.6970   45.3120   41.4250 C   0  0  0  0  0  0
   14.9570   46.8160   41.3660 C   0  0  0  0  0  0
   13.8300   47.6030   40.6410 C   0  0  0  0  0  0
   13.0990   46.9980   39.8170 O   0  0  0  0  0  0
   13.7940   48.8590   40.8310 O   0  5  0  0  0  0
   23.0055   43.4588   44.0571 H   0  0  0  0  0  0
   24.6351   43.1214   45.9265 H   0  0  0  0  0  0
   26.3998   44.7988   46.3321 H   0  0  0  0  0  0
   26.5968   46.8370   44.9152 H   0  0  0  0  0  0
   24.9678   47.1905   43.0399 H   0  0  0  0  0  0
   23.4287   46.1575   41.5046 H   0  0  0  0  0  0
   22.6118   44.6035   41.8844 H   0  0  0  0  0  0
   22.0993   47.2205   43.3706 H   0  0  0  0  0  0
   21.0957   46.6316   42.0021 H   0  0  0  0  0  0
   21.0766   44.3945   43.5460 H   0  0  0  0  0  0
   21.2847   45.6312   44.8319 H   0  0  0  0  0  0
   19.3311   46.9184   43.9136 H   0  0  0  0  0  0
   19.1249   45.6873   42.6219 H   0  0  0  0  0  0
   15.6647   45.2640   43.8380 H   0  0  0  0  0  0
   15.8204   43.5320   42.1523 H   0  0  0  0  0  0
   14.4137   44.9441   40.4278 H   0  0  0  0  0  0
   13.8854   45.1024   42.1373 H   0  0  0  0  0  0
   15.0365   47.2147   42.3881 H   0  0  0  0  0  0
   15.8958   47.0049   40.8247 H   0  0  0  0  0  0
  1  2  2  0  0  0
  1  6  1  0  0  0
  1 25  1  0  0  0
  2  3  1  0  0  0
  2 26  1  0  0  0
  3  4  2  0  0  0
  3 27  1  0  0  0
  4  5  1  0  0  0
  4 28  1  0  0  0
  5  6  2  0  0  0
  5 29  1  0  0  0
  6  7  1  0  0  0
  7  8  1  0  0  0
  7 30  1  0  0  0
  7 31  1  0  0  0
  8  9  1  0  0  0
  8 32  1  0  0  0
  8 33  1  0  0  0
  9 10  1  0  0  0
  9 34  1  0  0  0
  9 35  1  0  0  0
 10 11  1  0  0  0
 10 36  1  0  0  0
 10 37  1  0  0  0
 11 12  1  0  0  0
 12 13  2  0  0  0
 12 14  1  0  0  0
 12 15  1  0  0  0
 15 16  1  0  0  0
 15 38  1  0  0  0
 16 17  1  0  0  0
 16 20  1  0  0  0
 16 39  1  0  0  0
 17 18  2  0  0  0
 17 19  1  0  0  0
 20 21  1  0  0  0
 20 40  1  0  0  0
 20 41  1  0  0  0
 21 22  1  0  0  0
 21 42  1  0  0  0
 21 43  1  0  0  0
 22 23  2  0  0  0
 22 24  1  0  0  0
M  CHG  3  14  -1  19  -1  24  -1
M  END
> <s_m_source_file>
../4p4e_ligand.sdf

> <i_m_source_file_index>
1

> <s_epik_input>
W2NIXTFbY0hdW2NIXVtjSF1bY0hdYzFbQ0gyXVtDSDJdW0NIMl1bQ0gyXU9bUEBdKD1PKShbT0hdKVtOSF1bQ0BIXShDKD1PKVtPSF0pW0NIMl1bQ0gyXUMoPU8pW09IXQ==

> <s_epik_cmdline>
J2VwaWtfYXBwJywgJy1pbWFlJywgJ2xpZ2FuZF9wcm8ubWFlJywgJy1vbWFlJywgJ2xpZ2FuZF9wcmVwLm1hZScsICctbXMnLCAnMScsICctcGgnLCAnNycsICctcGh0JywgJzAuNScsICctbnQn

> <r_lp_tautomer_probability>
1

> <r_epik_Ionization_Penalty>
  0.0061

> <r_epik_Ionization_Penalty_Charging>
  0.0061

> <r_epik_Ionization_Penalty_Neutral>
  0.0000

> <r_epik_State_Penalty>
 -0.0000

> <r_epik_Charging_Adjusted_Penalty>
0.00605841216356824

> <i_epik_Tot_Q>
-3

> <i_epik_Tot_abs_Q>
3

$$$$
