4p4j_ligand
                    3D
 Schrodinger Suite 2020-3.
 43 43  0  0  1  0            999 V2000
   25.2190   47.4710   44.4140 C   0  0  0  0  0  0
   26.2170   48.0970   43.6410 C   0  0  0  0  0  0
   25.8860   48.6900   42.4100 C   0  0  0  0  0  0
   24.5700   48.6750   41.9040 C   0  0  0  0  0  0
   23.5680   48.0360   42.6660 C   0  0  0  0  0  0
   23.9010   47.4540   43.8980 C   0  0  0  0  0  0
   22.8240   46.7820   44.7450 C   0  0  0  0  0  0
   22.9870   46.6770   45.9570 O   0  0  0  0  0  0
   21.7650   46.3130   44.0900 N   0  0  0  0  0  0
   20.7180   45.5240   44.7790 C   0  0  1  0  0  0
   20.3110   46.0150   46.1990 C   0  0  0  0  0  0
   19.9090   47.1960   46.2730 O   0  0  0  0  0  0
   20.3760   45.1850   47.1360 O   0  5  0  0  0  0
   19.4400   45.4840   43.9070 C   0  0  0  0  0  0
   18.5480   44.6440   44.6880 O   0  0  0  0  0  0
   17.4970   43.7480   44.0060 P   0  0  2  0  0  0
   16.8320   42.9850   45.0900 O   0  0  0  0  0  0
   18.1710   42.7830   43.0030 O   0  5  0  0  0  0
   16.4080   44.7490   43.2450 N   0  0  1  0  0  0
   15.9790   44.2150   41.9010 C   0  0  2  0  0  0
   17.0550   44.3760   40.8000 C   0  0  0  0  0  0
   17.9230   45.2520   40.9630 O   0  0  0  0  0  0
   16.9210   43.6010   39.8050 O   0  5  0  0  0  0
   14.6780   44.9410   41.3890 C   0  0  0  0  0  0
   14.8940   46.4710   41.3640 C   0  0  0  0  0  0
   13.7560   47.2530   40.6590 C   0  0  0  0  0  0
   13.7030   48.4930   40.8800 O   0  5  0  0  0  0
   13.0030   46.6540   39.8510 O   0  0  0  0  0  0
   25.4538   47.0156   45.3761 H   0  0  0  0  0  0
   27.2467   48.1215   43.9978 H   0  0  0  0  0  0
   26.6702   49.1759   41.8294 H   0  0  0  0  0  0
   24.3325   49.1445   40.9494 H   0  0  0  0  0  0
   22.5423   47.9952   42.2994 H   0  0  0  0  0  0
   21.6768   46.5226   43.0138 H   0  0  0  0  0  0
   21.2187   44.5508   44.8897 H   0  0  0  0  0  0
   19.0548   46.5057   43.7740 H   0  0  0  0  0  0
   19.6800   45.0518   42.9243 H   0  0  0  0  0  0
   15.5096   44.8565   43.8706 H   0  0  0  0  0  0
   15.8254   43.1448   42.1036 H   0  0  0  0  0  0
   14.4409   44.5946   40.3722 H   0  0  0  0  0  0
   13.8391   44.7072   42.0610 H   0  0  0  0  0  0
   14.9593   46.8490   42.3950 H   0  0  0  0  0  0
   15.8275   46.7009   40.8294 H   0  0  0  0  0  0
  1  2  2  0  0  0
  1  6  1  0  0  0
  1 29  1  0  0  0
  2  3  1  0  0  0
  2 30  1  0  0  0
  3  4  2  0  0  0
  3 31  1  0  0  0
  4  5  1  0  0  0
  4 32  1  0  0  0
  5  6  2  0  0  0
  5 33  1  0  0  0
  6  7  1  0  0  0
  7  8  2  0  0  0
  7  9  1  0  0  0
  9 10  1  0  0  0
  9 34  1  0  0  0
 10 11  1  0  0  0
 10 14  1  0  0  0
 10 35  1  0  0  0
 11 12  2  0  0  0
 11 13  1  0  0  0
 14 15  1  0  0  0
 14 36  1  0  0  0
 14 37  1  0  0  0
 15 16  1  0  0  0
 16 17  2  0  0  0
 16 18  1  0  0  0
 16 19  1  0  0  0
 19 20  1  0  0  0
 19 38  1  0  0  0
 20 21  1  0  0  0
 20 24  1  0  0  0
 20 39  1  0  0  0
 21 22  2  0  0  0
 21 23  1  0  0  0
 24 25  1  0  0  0
 24 40  1  0  0  0
 24 41  1  0  0  0
 25 26  1  0  0  0
 25 42  1  0  0  0
 25 43  1  0  0  0
 26 27  1  0  0  0
 26 28  2  0  0  0
M  CHG  4  13  -1  18  -1  23  -1  27  -1
M  END
> <s_m_source_file>
../4p4j_ligand.sdf

> <i_m_source_file_index>
1

> <s_epik_input>
W2NIXTFbY0hdW2NIXVtjSF1bY0hdYzFDKD1PKVtOSF1bQ0BASF0oQyg9TylbT0hdKVtDSDJdT1tQQF0oPU8pKFtPSF0pW05IXVtDQEhdKEMoPU8pW09IXSlbQ0gyXVtDSDJdQyg9TylbT0hd

> <s_epik_cmdline>
J2VwaWtfYXBwJywgJy1pbWFlJywgJ2xpZ2FuZF9wcm8ubWFlJywgJy1vbWFlJywgJ2xpZ2FuZF9wcmVwLm1hZScsICctbXMnLCAnMScsICctcGgnLCAnNycsICctcGh0JywgJzAuNScsICctbnQn

> <r_lp_tautomer_probability>
1

> <r_epik_Ionization_Penalty>
  0.0061

> <r_epik_Ionization_Penalty_Charging>
  0.0061

> <r_epik_Ionization_Penalty_Neutral>
  0.0000

> <r_epik_State_Penalty>
 -0.0000

> <r_epik_Charging_Adjusted_Penalty>
0.00614119392672398

> <i_epik_Tot_Q>
-4

> <i_epik_Tot_abs_Q>
4

$$$$
