4p4s_ligand
                    3D
 Schrodinger Suite 2020-3.
 47 49  0  0  1  0            999 V2000
   31.2620   -2.2650   -0.8250 P   0  0  0  0  0  0
   31.3860   -2.1310   -2.4320 O   0  5  0  0  0  0
   31.1040   -0.9040   -0.2930 O   0  0  0  0  0  0
   32.6540   -2.8820   -0.3260 O   0  0  0  0  0  0
   29.8940   -3.3940   -0.2780 C   0  0  0  0  0  0
   28.2560   -2.9360   -0.9230 P   0  0  2  0  0  0
   28.2300   -3.0110   -2.4340 O   0  0  0  0  0  0
   27.8300   -1.4370   -0.4440 O   0  5  0  0  0  0
   27.1860   -3.9730   -0.3960 O   0  0  0  0  0  0
   27.2430   -5.4850   -0.8950 P   0  0  1  0  0  0
   26.5160   -5.5210   -2.2160 O   0  0  0  0  0  0
   28.6590   -5.9360   -0.5770 O   0  5  0  0  0  0
   26.3870   -6.2610    0.2200 O   0  0  0  0  0  0
   26.6760   -5.8900    1.5840 C   0  0  0  0  0  0
   26.5050   -7.0060    2.5750 C   0  0  1  0  0  0
   25.2850   -6.8210    3.2830 O   0  0  0  0  0  0
   26.4010   -8.3710    1.9860 C   0  0  1  0  0  0
   27.0190   -9.2760    2.8960 O   0  0  0  0  0  0
   24.9080   -8.6800    1.8890 C   0  0  1  0  0  0
   24.5150  -10.0570    2.1110 O   0  0  0  0  0  0
   24.2970   -7.7930    2.9510 C   0  0  2  0  0  0
   23.0200   -7.2450    2.4250 N   0  0  0  0  0  0
   22.8170   -6.5640    1.3010 C   0  0  0  0  0  0
   21.5110   -6.2620    1.1880 N   0  0  0  0  0  0
   20.8490   -6.7920    2.2360 C   0  0  0  0  0  0
   19.4350   -6.8930    2.7380 C   0  0  0  0  0  0
   18.5010   -6.3530    2.0760 O   0  0  0  0  0  0
   19.2350   -7.5480    3.9120 N   0  3  0  0  0  0
   20.2510   -8.0990    4.5890 C   0  0  0  0  0  0
   20.0760   -8.7510    5.7330 N   0  0  0  0  0  0
   21.5180   -8.0480    4.1800 N   0  0  0  0  0  0
   21.8730   -7.4220    3.0460 C   0  0  0  0  0  0
   33.5974   -2.3620   -0.5487 H   0  0  0  0  0  0
   30.1040   -4.4177   -0.6215 H   0  0  0  0  0  0
   29.8259   -3.3824    0.8198 H   0  0  0  0  0  0
   27.7194   -5.5496    1.6582 H   0  0  0  0  0  0
   26.0023   -5.0774    1.8936 H   0  0  0  0  0  0
   27.3815   -6.9573    3.2379 H   0  0  0  0  0  0
   26.9287   -8.4744    1.0264 H   0  0  0  0  0  0
   28.0986   -9.2049    3.0944 H   0  0  0  0  0  0
   24.5436   -8.5451    0.8599 H   0  0  0  0  0  0
   24.8685  -10.8463    1.4312 H   0  0  0  0  0  0
   24.0515   -8.2756    3.9085 H   0  0  0  0  0  0
   23.5898   -6.2923    0.5820 H   0  0  0  0  0  0
   19.0672   -8.8517    6.1599 H   0  0  0  0  0  0
   20.9398   -9.1902    6.2534 H   0  0  0  0  0  0
   18.2201   -7.6351    4.3273 H   0  0  0  0  0  0
  1  2  1  0  0  0
  1  3  2  0  0  0
  1  4  1  0  0  0
  1  5  1  0  0  0
  4 33  1  0  0  0
  5  6  1  0  0  0
  5 34  1  0  0  0
  5 35  1  0  0  0
  6  7  2  0  0  0
  6  8  1  0  0  0
  6  9  1  0  0  0
  9 10  1  0  0  0
 10 11  2  0  0  0
 10 12  1  0  0  0
 10 13  1  0  0  0
 13 14  1  0  0  0
 14 15  1  0  0  0
 14 36  1  0  0  0
 14 37  1  0  0  0
 15 16  1  0  0  0
 15 17  1  0  0  0
 15 38  1  0  0  0
 16 21  1  0  0  0
 17 18  1  0  0  0
 17 19  1  0  0  0
 17 39  1  0  0  0
 18 40  1  0  0  0
 19 20  1  0  0  0
 19 21  1  0  0  0
 19 41  1  0  0  0
 20 42  1  0  0  0
 21 22  1  0  0  0
 21 43  1  0  0  0
 22 23  1  0  0  0
 22 32  1  0  0  0
 23 24  2  0  0  0
 23 44  1  0  0  0
 24 25  1  0  0  0
 25 26  1  0  0  0
 25 32  2  0  0  0
 26 27  2  0  0  0
 26 28  1  0  0  0
 28 29  1  0  0  0
 28 47  1  0  0  0
 29 30  1  0  0  0
 29 31  2  0  0  0
 30 45  1  0  0  0
 30 46  1  0  0  0
 31 32  1  0  0  0
M  CHG  4   2  -1   8  -1  12  -1  28   1
M  END
> <s_m_source_file>
../4p4s_ligand.sdf

> <i_m_source_file_index>
1

> <s_epik_input>
W09IXVAoPU8pKFtPSF0pW0NIMl1bUEBdKD1PKShbT0hdKU9bUEBAXSg9TykoW09IXSlPW0NIMl1bQ0BIXTFPW0NASF0oW0NASF0oW09IXSlbQ0BASF0xW09IXSluKFtjSF1uMiljKGMyMylbbkhdYyg9TlxbSF0pXFtuSF1jMz1P

> <s_epik_cmdline>
J2VwaWtfYXBwJywgJy1pbWFlJywgJ2xpZ2FuZF9wcm8ubWFlJywgJy1vbWFlJywgJ2xpZ2FuZF9wcmVwLm1hZScsICctbXMnLCAnMScsICctcGgnLCAnNycsICctcGh0JywgJzAuNScsICctbnQn

> <r_lp_tautomer_probability>
1

> <r_epik_Ionization_Penalty>
  2.5588

> <r_epik_Ionization_Penalty_Charging>
  2.3888

> <r_epik_Ionization_Penalty_Neutral>
  0.1700

> <r_epik_State_Penalty>
 -0.0000

> <r_epik_Charging_Adjusted_Penalty>
2.3888014777589

> <i_epik_Tot_Q>
-2

> <i_epik_Tot_abs_Q>
4

> <s_epik_Chemistry_Notes>
This compound has an imine and may undergo hydrolysis. This compound contains an acetal/aminal-like group ( X-CH(R)-Y where X, Y are N, S, or O) that may be acid/base labile, releasing an aldehyde.

$$$$
