4p4t_ligand
                    3D
 Schrodinger Suite 2020-3.
 40 42  0  0  1  0            999 V2000
    9.2350   11.4800   85.5980 P   0  0  0  0  0  0
    7.8290   11.3000   85.0650 O   0  5  0  0  0  0
   10.0470   10.2110   85.5730 O   0  5  0  0  0  0
    9.9370   12.7180   85.1150 O   0  0  0  0  0  0
    8.9130   11.8400   87.1290 O   0  0  0  0  0  0
    9.6450   11.2670   88.4530 P   0  0  2  0  0  0
   11.0600   11.7850   88.4190 O   0  0  0  0  0  0
    9.3990    9.7980   88.6870 O   0  5  0  0  0  0
    8.7390   12.0980   89.4960 O   0  0  0  0  0  0
    8.6430   13.5260   89.4820 C   0  0  0  0  0  0
    8.6840   14.0060   90.9320 C   0  0  1  0  0  0
    7.4520   13.7020   91.6000 O   0  0  0  0  0  0
    9.7990   13.3440   91.7390 C   0  0  1  0  0  0
   10.4590   14.3980   92.4270 O   0  0  0  0  0  0
    9.1150   12.4200   92.7330 C   0  0  1  0  0  0
    9.7270   12.4410   94.0400 O   0  0  0  0  0  0
    7.7080   12.9960   92.8100 C   0  0  2  0  0  0
    6.6650   11.9700   93.0190 N   0  0  0  0  0  0
    6.4020   10.8900   92.2470 C   0  0  0  0  0  0
    5.3580   10.1740   92.7500 N   0  0  0  0  0  0
    4.9410   10.8120   93.8690 C   0  0  0  0  0  0
    3.8850   10.6060   94.8960 C   0  0  0  0  0  0
    3.1050    9.6270   94.8240 O   0  0  0  0  0  0
    3.7900   11.5020   95.8970 N   0  3  0  0  0  0
    4.6140   12.5660   96.0020 C   0  0  0  0  0  0
    4.4500   13.4130   97.0430 N   0  0  0  0  0  0
    5.5990   12.8250   95.0980 N   0  0  0  0  0  0
    5.8020   11.9970   94.0370 C   0  0  0  0  0  0
    9.4878   13.9447   88.9155 H   0  0  0  0  0  0
    7.6978   13.8253   89.0056 H   0  0  0  0  0  0
    8.8035   15.0993   90.9131 H   0  0  0  0  0  0
   10.5629   12.8128   91.1522 H   0  0  0  0  0  0
   11.0092   15.1643   91.8613 H   0  0  0  0  0  0
    9.1926   11.3571   92.4605 H   0  0  0  0  0  0
   10.7504   12.0606   94.1743 H   0  0  0  0  0  0
    7.6235   13.6970   93.6534 H   0  0  0  0  0  0
    6.9522   10.6280   91.3433 H   0  0  0  0  0  0
    3.6612   13.2248   97.7862 H   0  0  0  0  0  0
    5.1054   14.2903   97.1468 H   0  0  0  0  0  0
    3.0177   11.3820   96.6711 H   0  0  0  0  0  0
  1  2  1  0  0  0
  1  3  1  0  0  0
  1  4  2  0  0  0
  1  5  1  0  0  0
  5  6  1  0  0  0
  6  7  2  0  0  0
  6  8  1  0  0  0
  6  9  1  0  0  0
  9 10  1  0  0  0
 10 11  1  0  0  0
 10 29  1  0  0  0
 10 30  1  0  0  0
 11 12  1  0  0  0
 11 13  1  0  0  0
 11 31  1  0  0  0
 12 17  1  0  0  0
 13 14  1  0  0  0
 13 15  1  0  0  0
 13 32  1  0  0  0
 14 33  1  0  0  0
 15 16  1  0  0  0
 15 17  1  0  0  0
 15 34  1  0  0  0
 16 35  1  0  0  0
 17 18  1  0  0  0
 17 36  1  0  0  0
 18 19  1  0  0  0
 18 28  1  0  0  0
 19 20  2  0  0  0
 19 37  1  0  0  0
 20 21  1  0  0  0
 21 22  1  0  0  0
 21 28  2  0  0  0
 22 23  2  0  0  0
 22 24  1  0  0  0
 24 25  1  0  0  0
 24 40  1  0  0  0
 25 26  1  0  0  0
 25 27  2  0  0  0
 26 38  1  0  0  0
 26 39  1  0  0  0
 27 28  1  0  0  0
M  CHG  4   2  -1   3  -1   8  -1  24   1
M  END
> <s_m_source_file>
../4p4t_ligand.sdf

> <i_m_source_file_index>
1

> <s_epik_input>
W09IXVAoPU8pKFtPSF0pT1tQQF0oPU8pKFtPSF0pT1tDSDJdW0NASF0xT1tDQEhdKFtDQEhdKFtPSF0pW0NAQEhdMVtPSF0pbihbY0hdbjIpYyhjMjMpW25IXWMoPU5cW0hdKVxbbkhdYzM9Tw==

> <s_epik_cmdline>
J2VwaWtfYXBwJywgJy1pbWFlJywgJ2xpZ2FuZF9wcm8ubWFlJywgJy1vbWFlJywgJ2xpZ2FuZF9wcmVwLm1hZScsICctbXMnLCAnMScsICctcGgnLCAnNycsICctcGh0JywgJzAuNScsICctbnQn

> <r_epik_Ionization_Penalty>
  2.4918

> <r_epik_Ionization_Penalty_Charging>
  2.4918

> <r_epik_Ionization_Penalty_Neutral>
  0.0000

> <r_epik_State_Penalty>
  0.1302

> <r_epik_Charging_Adjusted_Penalty>
2.62193179535438

> <i_epik_Tot_Q>
-2

> <i_epik_Tot_abs_Q>
4

> <s_epik_Chemistry_Notes>
This compound has an imine and may undergo hydrolysis. This compound contains an acetal/aminal-like group ( X-CH(R)-Y where X, Y are N, S, or O) that may be acid/base labile, releasing an aldehyde.

$$$$
