4p5e_ligand
                    3D
 Schrodinger Suite 2020-3.
 49 53  0  0  1  0            999 V2000
  -39.1060   14.7530   25.9640 C   0  0  0  0  0  0
  -39.9470   14.5000   27.0410 C   0  0  0  0  0  0
  -40.6620   15.5580   27.6150 C   0  0  0  0  0  0
  -41.4930   15.3190   28.7040 C   0  0  0  0  0  0
  -41.6230   14.0300   29.2170 C   0  0  0  0  0  0
  -40.9140   12.9740   28.6440 C   0  0  0  0  0  0
  -40.0750   13.2080   27.5500 C   0  0  0  0  0  0
  -39.3770   12.1490   26.9760 C   0  0  0  0  0  0
  -38.5560   12.3960   25.8900 C   0  0  0  0  0  0
  -38.4500   13.6980   25.3580 C   0  0  0  0  0  0
  -37.5200   13.9540   24.1970 C   0  0  0  0  0  0
  -36.9120   15.1600   24.0680 N   0  0  0  0  0  0
  -36.0680   15.4300   23.0860 C   0  0  0  0  0  0
  -35.7360   14.5440   22.1390 N   0  0  0  0  0  0
  -36.2800   13.3130   22.2140 C   0  0  0  0  0  0
  -37.2060   12.9640   23.2210 C   0  0  0  0  0  0
  -37.5880   11.6760   22.9940 N   0  0  0  0  0  0
  -36.9210   11.2730   21.8840 C   0  0  0  0  0  0
  -36.1240   12.2400   21.3750 N   0  0  0  0  0  0
  -35.1870   12.1950   20.3160 C   0  0  2  0  0  0
  -35.2760   10.7330   19.7280 O   0  0  0  0  0  0
  -33.9100   12.2080   20.8530 C   0  0  2  0  0  0
  -33.0020   13.1980   20.2270 O   0  0  0  0  0  0
  -33.1610   10.8200   20.7630 C   0  0  2  0  0  0
  -31.9460   10.7770   20.0780 O   0  0  0  0  0  0
  -34.2510    9.9220   20.1290 C   0  0  1  0  0  0
  -34.7220    8.9230   21.1760 C   0  0  0  0  0  0
  -35.8340    8.1790   20.5970 O   0  0  0  0  0  0
  -36.6600    7.1440   21.4810 P   0  0  0  0  0  0
  -37.6180    6.5400   20.4780 O   0  5  0  0  0  0
  -35.6780    6.1180   22.0160 O   0  5  0  0  0  0
  -37.3250    7.8850   22.6160 O   0  0  0  0  0  0
  -38.9653   15.7713   25.6014 H   0  0  0  0  0  0
  -40.5676   16.5654   27.2097 H   0  0  0  0  0  0
  -42.0444   16.1425   29.1577 H   0  0  0  0  0  0
  -42.2797   13.8465   30.0674 H   0  0  0  0  0  0
  -41.0140   11.9669   29.0489 H   0  0  0  0  0  0
  -39.4758   11.1400   27.3763 H   0  0  0  0  0  0
  -37.9881   11.5800   25.4432 H   0  0  0  0  0  0
  -35.6206   16.4232   23.0459 H   0  0  0  0  0  0
  -37.0168   10.2780   21.4494 H   0  0  0  0  0  0
  -35.3451   13.0793   19.6811 H   0  0  0  0  0  0
  -34.2146   12.5374   21.8573 H   0  0  0  0  0  0
  -33.2997   14.2551   20.1650 H   0  0  0  0  0  0
  -32.6873   10.4807   21.6960 H   0  0  0  0  0  0
  -31.0930   11.3739   20.4331 H   0  0  0  0  0  0
  -33.9570    9.4078   19.2021 H   0  0  0  0  0  0
  -33.8956    8.2440   21.4328 H   0  0  0  0  0  0
  -35.0468    9.4627   22.0778 H   0  0  0  0  0  0
  1  2  2  0  0  0
  1 10  1  0  0  0
  1 33  1  0  0  0
  2  3  1  0  0  0
  2  7  1  0  0  0
  3  4  2  0  0  0
  3 34  1  0  0  0
  4  5  1  0  0  0
  4 35  1  0  0  0
  5  6  2  0  0  0
  5 36  1  0  0  0
  6  7  1  0  0  0
  6 37  1  0  0  0
  7  8  2  0  0  0
  8  9  1  0  0  0
  8 38  1  0  0  0
  9 10  2  0  0  0
  9 39  1  0  0  0
 10 11  1  0  0  0
 11 12  1  0  0  0
 11 16  2  0  0  0
 12 13  2  0  0  0
 13 14  1  0  0  0
 13 40  1  0  0  0
 14 15  2  0  0  0
 15 16  1  0  0  0
 15 19  1  0  0  0
 16 17  1  0  0  0
 17 18  2  0  0  0
 18 19  1  0  0  0
 18 41  1  0  0  0
 19 20  1  0  0  0
 20 21  1  0  0  0
 20 22  1  0  0  0
 20 42  1  0  0  0
 21 26  1  0  0  0
 22 23  1  0  0  0
 22 24  1  0  0  0
 22 43  1  0  0  0
 23 44  1  0  0  0
 24 25  1  0  0  0
 24 26  1  0  0  0
 24 45  1  0  0  0
 25 46  1  0  0  0
 26 27  1  0  0  0
 26 47  1  0  0  0
 27 28  1  0  0  0
 27 48  1  0  0  0
 27 49  1  0  0  0
 28 29  1  0  0  0
 29 30  1  0  0  0
 29 31  1  0  0  0
 29 32  2  0  0  0
M  CHG  2  30  -1  31  -1
M  END
> <s_m_source_file>
../4p5e_ligand.sdf

> <i_m_source_file_index>
1

> <s_epik_input>
W2NIXTFbY0hdW2NIXVtjSF1jKGMxMilbY0hdW2NIXWMoW2NIXTIpLWMobltjSF1uMyljKGMzNCluW2NIXW40W0NAQEhdNU9bQ0BASF0oW0NAQEhdKFtPSF0pW0NASF01W09IXSlbQ0gyXU9QKD1PKShbT0hdKVtPSF0=

> <s_epik_cmdline>
J2VwaWtfYXBwJywgJy1pbWFlJywgJ2xpZ2FuZF9wcm8ubWFlJywgJy1vbWFlJywgJ2xpZ2FuZF9wcmVwLm1hZScsICctbXMnLCAnMScsICctcGgnLCAnNycsICctcGh0JywgJzAuNScsICctbnQn

> <r_lp_tautomer_probability>
1

> <r_epik_Ionization_Penalty>
  0.1020

> <r_epik_Ionization_Penalty_Charging>
  0.1020

> <r_epik_Ionization_Penalty_Neutral>
  0.0000

> <r_epik_State_Penalty>
  0.0920

> <r_epik_Charging_Adjusted_Penalty>
0.194024004396068

> <i_epik_Tot_Q>
-2

> <i_epik_Tot_abs_Q>
2

> <s_epik_Chemistry_Notes>
This compound contains an acetal/aminal-like group ( X-CH(R)-Y where X, Y are N, S, or O) that may be acid/base labile, releasing an aldehyde.

$$$$
