4p5z_ligand
                    3D
 Schrodinger Suite 2020-3.
 56 60  0  0  1  0            999 V2000
   -4.7520    0.0410  -15.4620 F   0  0  0  0  0  0
   -3.7870   -0.5410  -14.8830 C   0  0  0  0  0  0
   -3.5300    0.2640  -13.9820 F   0  0  0  0  0  0
   -4.1260   -1.5210  -14.1640 F   0  0  0  0  0  0
   -2.5870   -0.7300  -15.7290 C   0  0  0  0  0  0
   -1.6610   -1.7390  -15.5800 C   0  0  0  0  0  0
   -2.3870    0.2130  -16.6780 C   0  0  0  0  0  0
   -1.3100    0.1530  -17.5140 C   0  0  0  0  0  0
   -0.3960   -0.8330  -17.3960 C   0  0  0  0  0  0
   -0.5340   -1.8130  -16.4450 C   0  0  0  0  0  0
    0.4190   -2.7980  -16.5040 N   0  0  0  0  0  0
    0.2900   -4.0070  -15.9690 C   0  0  0  0  0  0
   -0.7330   -4.3550  -15.4800 O   0  0  0  0  0  0
    1.3600   -4.7930  -16.0040 N   0  0  0  0  0  0
    1.4430   -6.0970  -15.6120 C   0  0  0  0  0  0
    0.3830   -6.9220  -15.3930 C   0  0  0  0  0  0
    0.5450   -8.1980  -14.9490 C   0  0  0  0  0  0
    2.6840   -6.6550  -15.3610 C   0  0  0  0  0  0
    2.8260   -7.9640  -14.8960 C   0  0  0  0  0  0
    1.7440   -8.7960  -14.6740 C   0  0  0  0  0  0
    1.6550  -10.0410  -14.2440 N   0  0  0  0  0  0
    1.2850  -10.4460  -13.0210 C   0  0  0  0  0  0
    1.1400   -9.6430  -11.9630 N   0  0  0  0  0  0
    1.6810  -11.0000  -15.1390 C   0  0  0  0  0  0
    1.4230  -12.2610  -14.4130 C   0  0  0  0  0  0
    1.1620  -11.9220  -12.9960 C   0  0  0  0  0  0
    0.8170  -12.9360  -11.9390 C   0  0  0  0  0  0
    0.5580  -14.1840  -12.2410 N   0  0  0  0  0  0
    0.7230  -12.6540  -10.7710 O   0  0  0  0  0  0
    1.9630  -11.0420  -16.4400 N   0  0  0  0  0  0
    1.9910  -12.2380  -17.0560 C   0  0  0  0  0  0
    1.7000  -13.4870  -16.3140 C   0  0  0  0  0  0
    1.4410  -13.4460  -15.0170 N   0  3  0  0  0  0
    2.2610  -12.3290  -18.4000 C   0  0  0  0  0  0
    2.2800  -13.5600  -19.0200 C   0  0  0  0  0  0
    2.0280  -14.7210  -18.3210 C   0  0  0  0  0  0
    1.7320  -14.6950  -16.9730 C   0  0  0  0  0  0
   -1.7925   -2.4843  -14.7955 H   0  0  0  0  0  0
   -3.0974    1.0338  -16.7765 H   0  0  0  0  0  0
   -1.1863    0.9113  -18.2871 H   0  0  0  0  0  0
    0.4640   -0.8513  -18.0655 H   0  0  0  0  0  0
    1.3711   -2.6118  -17.0224 H   0  0  0  0  0  0
    2.3166   -4.4033  -16.3822 H   0  0  0  0  0  0
   -0.6246   -6.5500  -15.5786 H   0  0  0  0  0  0
   -0.3559   -8.7932  -14.8001 H   0  0  0  0  0  0
    3.5777   -6.0547  -15.5314 H   0  0  0  0  0  0
    3.8285   -8.3447  -14.7005 H   0  0  0  0  0  0
    1.2500   -8.5547  -12.0793 H   0  0  0  0  0  0
    0.9106  -10.0702  -10.9756 H   0  0  0  0  0  0
    0.6215  -14.5216  -13.2860 H   0  0  0  0  0  0
    0.2770  -14.8945  -11.4496 H   0  0  0  0  0  0
    2.4606  -11.4261  -18.9771 H   0  0  0  0  0  0
    2.4991  -13.6166  -20.0863 H   0  0  0  0  0  0
    2.0631  -15.6775  -18.8425 H   0  0  0  0  0  0
    1.5258  -15.6210  -16.4363 H   0  0  0  0  0  0
    1.2435  -14.3609  -14.4391 H   0  0  0  0  0  0
  1  2  1  0  0  0
  2  3  1  0  0  0
  2  4  1  0  0  0
  2  5  1  0  0  0
  5  6  2  0  0  0
  5  7  1  0  0  0
  6 10  1  0  0  0
  6 38  1  0  0  0
  7  8  2  0  0  0
  7 39  1  0  0  0
  8  9  1  0  0  0
  8 40  1  0  0  0
  9 10  2  0  0  0
  9 41  1  0  0  0
 10 11  1  0  0  0
 11 12  1  0  0  0
 11 42  1  0  0  0
 12 13  2  0  0  0
 12 14  1  0  0  0
 14 15  1  0  0  0
 14 43  1  0  0  0
 15 16  2  0  0  0
 15 18  1  0  0  0
 16 17  1  0  0  0
 16 44  1  0  0  0
 17 20  2  0  0  0
 17 45  1  0  0  0
 18 19  2  0  0  0
 18 46  1  0  0  0
 19 20  1  0  0  0
 19 47  1  0  0  0
 20 21  1  0  0  0
 21 22  1  0  0  0
 21 24  1  0  0  0
 22 23  1  0  0  0
 22 26  2  0  0  0
 23 48  1  0  0  0
 23 49  1  0  0  0
 24 25  2  0  0  0
 24 30  1  0  0  0
 25 26  1  0  0  0
 25 33  1  0  0  0
 26 27  1  0  0  0
 27 28  1  0  0  0
 27 29  2  0  0  0
 28 50  1  0  0  0
 28 51  1  0  0  0
 30 31  2  0  0  0
 31 32  1  0  0  0
 31 34  1  0  0  0
 32 33  2  0  0  0
 32 37  1  0  0  0
 33 56  1  0  0  0
 34 35  2  0  0  0
 34 52  1  0  0  0
 35 36  1  0  0  0
 35 53  1  0  0  0
 36 37  2  0  0  0
 36 54  1  0  0  0
 37 55  1  0  0  0
M  CHG  1  33   1
M  END
> <s_m_source_file>
../4p5z_ligand.sdf

> <i_m_source_file_index>
1

> <s_epik_input>
RkMoRikoRiljMVtjSF1jKFtjSF1bY0hdW2NIXTEpW05IXUMoPU8pW05IXWMyW2NIXVtjSF1jKFtjSF1bY0hdMiktbjNjKFtOSDJdKWMoQyg9TylbTkgyXSljKGMzNCluYzVjKG40KVtjSF1bY0hdW2NIXVtjSF01

> <s_epik_cmdline>
J2VwaWtfYXBwJywgJy1pbWFlJywgJ2xpZ2FuZF9wcm8ubWFlJywgJy1vbWFlJywgJ2xpZ2FuZF9wcmVwLm1hZScsICctbXMnLCAnMScsICctcGgnLCAnNycsICctcGh0JywgJzAuNScsICctbnQn

> <r_epik_Ionization_Penalty>
  0.0624

> <r_epik_Ionization_Penalty_Charging>
  0.0588

> <r_epik_Ionization_Penalty_Neutral>
  0.0036

> <r_epik_State_Penalty>
  0.0509

> <r_epik_Charging_Adjusted_Penalty>
0.109689499518506

> <i_epik_Tot_Q>
1

> <i_epik_Tot_abs_Q>
1

$$$$
