4p6e_ligand
                    3D
 Schrodinger Suite 2020-3.
 58 61  0  0  1  0            999 V2000
   25.4220   37.3760   13.7720 C   0  0  0  0  0  0
   24.9280   35.9080   15.5740 C   0  0  0  0  0  0
   20.6190   30.8600   14.1810 C   0  0  0  0  0  0
   21.4930   30.0520   14.8700 C   0  0  0  0  0  0
   23.2890   31.4450   14.1650 C   0  0  0  0  0  0
   21.0640   31.9630   13.4910 C   0  0  0  0  0  0
   24.4680   35.1810   13.2720 C   0  0  0  0  0  0
   20.0660   32.7980   12.7800 C   0  0  0  0  0  0
   21.9480   33.9720   11.7940 C   0  0  0  0  0  0
   26.4080   26.9270   17.2950 C   0  0  0  0  0  0
   25.3600   27.2290   19.3350 C   0  0  0  0  0  0
   22.9650   33.4280   12.7610 C   0  0  2  0  0  0
   25.8720   38.0630   16.0040 C   0  0  0  0  0  0
   25.8820   38.3230   14.6540 C   0  0  0  0  0  0
   25.3890   36.8570   16.4540 C   0  0  0  0  0  0
   24.9480   36.1760   14.2350 C   0  0  0  0  0  0
   22.4130   32.2560   13.4830 C   0  0  0  0  0  0
   22.8330   30.3490   14.8580 C   0  0  0  0  0  0
   23.4650   29.0490   16.8060 C   0  0  0  0  0  0
   20.6250   34.1580   12.4820 C   0  0  0  0  0  0
   25.7410   28.1220   16.6540 C   0  0  0  0  0  0
   24.6820   28.4960   18.8560 C   0  0  0  0  0  0
   27.3880   26.0560   19.2710 C   0  0  0  0  0  0
   24.5740   28.4970   17.4090 N   0  0  0  0  0  0
   26.6620   27.1850   18.7000 N   0  3  0  0  0  0
   23.7460   29.5440   15.5470 N   0  0  0  0  0  0
   23.3790   34.4670   13.6660 N   0  0  0  0  0  0
   25.0400   35.0250   12.1940 O   0  0  0  0  0  0
   22.3670   29.0620   17.3530 O   0  0  0  0  0  0
   25.4339   37.5791   12.7012 H   0  0  0  0  0  0
   24.5510   34.9530   15.9400 H   0  0  0  0  0  0
   19.5553   30.6219   14.1819 H   0  0  0  0  0  0
   21.1256   29.1853   15.4195 H   0  0  0  0  0  0
   24.3548   31.6732   14.1561 H   0  0  0  0  0  0
   19.7902   32.3125   11.8323 H   0  0  0  0  0  0
   19.1699   32.9126   13.4076 H   0  0  0  0  0  0
   22.2922   34.9426   11.4073 H   0  0  0  0  0  0
   21.8232   33.2677   10.9583 H   0  0  0  0  0  0
   25.7521   26.0486   17.2043 H   0  0  0  0  0  0
   27.3635   26.7250   16.7888 H   0  0  0  0  0  0
   25.4604   27.2584   20.4300 H   0  0  0  0  0  0
   24.7547   26.3573   19.0456 H   0  0  0  0  0  0
   23.8775   33.1033   12.2396 H   0  0  0  0  0  0
   26.2432   38.8055   16.7104 H   0  0  0  0  0  0
   26.2542   39.2785   14.2845 H   0  0  0  0  0  0
   25.3716   36.6508   17.5242 H   0  0  0  0  0  0
   19.9294   34.7052   11.8288 H   0  0  0  0  0  0
   20.7591   34.7134   13.4220 H   0  0  0  0  0  0
   26.4451   28.9668   16.6319 H   0  0  0  0  0  0
   25.4414   27.8674   15.6266 H   0  0  0  0  0  0
   23.6733   28.5587   19.2902 H   0  0  0  0  0  0
   25.2718   29.3693   19.1714 H   0  0  0  0  0  0
   28.3851   25.9908   18.8111 H   0  0  0  0  0  0
   26.8328   25.1266   19.0760 H   0  0  0  0  0  0
   27.4936   26.1992   20.3565 H   0  0  0  0  0  0
   27.2358   28.1134   18.8376 H   0  0  0  0  0  0
   24.7131   29.2919   15.0874 H   0  0  0  0  0  0
   22.8234   34.6363   14.6002 H   0  0  0  0  0  0
  1 14  2  0  0  0
  1 16  1  0  0  0
  1 30  1  0  0  0
  2 15  1  0  0  0
  2 16  2  0  0  0
  2 31  1  0  0  0
  3  4  2  0  0  0
  3  6  1  0  0  0
  3 32  1  0  0  0
  4 18  1  0  0  0
  4 33  1  0  0  0
  5 17  1  0  0  0
  5 18  2  0  0  0
  5 34  1  0  0  0
  6  8  1  0  0  0
  6 17  2  0  0  0
  7 16  1  0  0  0
  7 27  1  0  0  0
  7 28  2  0  0  0
  8 20  1  0  0  0
  8 35  1  0  0  0
  8 36  1  0  0  0
  9 12  1  0  0  0
  9 20  1  0  0  0
  9 37  1  0  0  0
  9 38  1  0  0  0
 10 21  1  0  0  0
 10 25  1  0  0  0
 10 39  1  0  0  0
 10 40  1  0  0  0
 11 22  1  0  0  0
 11 25  1  0  0  0
 11 41  1  0  0  0
 11 42  1  0  0  0
 12 17  1  0  0  0
 12 27  1  0  0  0
 12 43  1  0  0  0
 13 14  1  0  0  0
 13 15  2  0  0  0
 13 44  1  0  0  0
 14 45  1  0  0  0
 15 46  1  0  0  0
 18 26  1  0  0  0
 19 24  1  0  0  0
 19 26  1  0  0  0
 19 29  2  0  0  0
 20 47  1  0  0  0
 20 48  1  0  0  0
 21 24  1  0  0  0
 21 49  1  0  0  0
 21 50  1  0  0  0
 22 24  1  0  0  0
 22 51  1  0  0  0
 22 52  1  0  0  0
 23 25  1  0  0  0
 23 53  1  0  0  0
 23 54  1  0  0  0
 23 55  1  0  0  0
 25 56  1  0  0  0
 26 57  1  0  0  0
 27 58  1  0  0  0
M  CHG  1  25   1
M  END
> <s_m_source_file>
../4p6e_ligand.sdf

> <i_m_source_file_index>
1

> <s_epik_input>
W2NIXTFbY0hdW2NIXVtjSF1bY0hdYzFDKD1PKVtOSF1bQ0BIXShbQ0gyXVtDSDJdW0NIMl0yKWMoYzIzKVtjSF1jKFtjSF1bY0hdMylbTkhdQyg9TylONFtDSDJdW0NIMl1bTkgrXShbQ0gzXSlbQ0gyXVtDSDJdNA==

> <s_epik_cmdline>
J2VwaWtfYXBwJywgJy1pbWFlJywgJ2xpZ2FuZF9wcm8ubWFlJywgJy1vbWFlJywgJ2xpZ2FuZF9wcmVwLm1hZScsICctbXMnLCAnMScsICctcGgnLCAnNycsICctcGh0JywgJzAuNScsICctbnQn

> <r_epik_Ionization_Penalty>
  0.1655

> <r_epik_Ionization_Penalty_Charging>
  0.1654

> <r_epik_Ionization_Penalty_Neutral>
  0.0000

> <r_epik_State_Penalty>
  0.1548

> <r_epik_Charging_Adjusted_Penalty>
0.320217191059207

> <i_epik_Tot_Q>
1

> <i_epik_Tot_abs_Q>
1

$$$$
