4p6g_ligand
                    3D
 Schrodinger Suite 2020-3.
 65 69  0  0  1  0            999 V2000
   30.1910  -21.1030   16.7500 C   0  0  0  0  0  0
   27.7010  -15.9610   19.6570 C   0  0  0  0  0  0
   26.5050  -16.1290   17.1230 C   0  0  0  0  0  0
   26.3400  -14.9740   17.9230 C   0  0  0  0  0  0
   30.0150  -23.7790   17.5740 C   0  0  0  0  0  0
   31.2650  -23.2180   17.3410 C   0  0  0  0  0  0
   27.8780  -17.0950   18.8660 C   0  0  0  0  0  0
   27.3000  -17.1700   17.5900 C   0  0  0  0  0  0
   28.9150  -21.6610   16.9940 C   0  0  0  0  0  0
   31.3480  -21.8750   16.9530 C   0  0  0  0  0  0
   28.8430  -23.0150   17.3720 C   0  0  0  0  0  0
   26.9510  -14.9000   19.1750 C   0  0  0  0  0  0
   27.4410  -18.4130   16.7530 C   0  0  0  0  0  0
   24.4970  -20.1800   16.9690 C   0  0  0  0  0  0
   32.7550  -20.1040   15.9580 C   0  0  0  0  0  0
   33.6130  -21.5290   17.7850 C   0  0  0  0  0  0
   34.1970  -19.9170   15.4970 C   0  0  0  0  0  0
   35.0370  -21.3640   17.2350 C   0  0  0  0  0  0
   37.5800  -19.7320   17.1060 C   0  0  0  0  0  0
   36.8520  -18.4590   15.6210 C   0  0  0  0  0  0
   26.5350  -23.0690   16.8910 C   0  0  0  0  0  0
   27.6560  -20.8490   16.7880 C   0  0  1  0  0  0
   36.5290  -19.9090   15.9990 C   0  0  0  0  0  0
   26.3720  -21.6030   17.2150 C   0  0  1  0  0  0
   22.5490  -18.7980   16.4450 C   0  0  0  0  0  0
   32.6300  -21.3460   16.7050 N   0  0  0  0  0  0
   35.1780  -20.0420   16.5910 N   0  3  0  0  0  0
   27.6300  -19.5640   17.4680 N   0  0  0  0  0  0
   23.5890  -19.7180   16.0510 N   0  0  0  0  0  0
   27.3780  -18.3900   15.5280 O   0  0  0  0  0  0
   24.5260  -19.8690   18.1570 O   0  0  0  0  0  0
   27.6470  -23.6430   17.6270 O   0  0  0  0  0  0
   37.8830  -18.3850   16.6570 O   0  0  0  0  0  0
   25.3340  -21.0920   16.3690 O   0  0  0  0  0  0
   26.7780  -13.8130   19.9480 F   0  0  0  0  0  0
   30.2776  -20.0730   16.4041 H   0  0  0  0  0  0
   28.1499  -15.9090   20.6489 H   0  0  0  0  0  0
   26.0149  -16.2021   16.1522 H   0  0  0  0  0  0
   25.7357  -14.1421   17.5613 H   0  0  0  0  0  0
   29.9381  -24.8118   17.9137 H   0  0  0  0  0  0
   32.1690  -23.8156   17.4587 H   0  0  0  0  0  0
   28.4699  -17.9296   19.2417 H   0  0  0  0  0  0
   32.4643  -19.2621   16.6035 H   0  0  0  0  0  0
   32.0915  -20.1400   15.0814 H   0  0  0  0  0  0
   33.4988  -22.5370   18.2104 H   0  0  0  0  0  0
   33.4331  -20.7779   18.5683 H   0  0  0  0  0  0
   34.4424  -20.6788   14.7424 H   0  0  0  0  0  0
   34.3147  -18.9151   15.0584 H   0  0  0  0  0  0
   35.7602  -21.4444   18.0599 H   0  0  0  0  0  0
   35.2373  -22.1516   16.4937 H   0  0  0  0  0  0
   37.0995  -19.8443   18.0891 H   0  0  0  0  0  0
   38.3645  -20.4946   16.9921 H   0  0  0  0  0  0
   37.1790  -18.4178   14.5715 H   0  0  0  0  0  0
   35.9535  -17.8376   15.7497 H   0  0  0  0  0  0
   25.6158  -23.6089   17.1623 H   0  0  0  0  0  0
   26.7256  -23.1876   15.8141 H   0  0  0  0  0  0
   27.6977  -20.6190   15.7131 H   0  0  0  0  0  0
   36.5163  -20.7330   15.2704 H   0  0  0  0  0  0
   26.1011  -21.4699   18.2728 H   0  0  0  0  0  0
   21.9290  -18.5494   15.5710 H   0  0  0  0  0  0
   23.0039  -17.8798   16.8450 H   0  0  0  0  0  0
   21.9215  -19.2637   17.2192 H   0  0  0  0  0  0
   35.0108  -19.2652   17.3517 H   0  0  0  0  0  0
   27.7624  -19.5163   18.5590 H   0  0  0  0  0  0
   23.6585  -20.0549   15.0062 H   0  0  0  0  0  0
  1  9  2  0  0  0
  1 10  1  0  0  0
  1 36  1  0  0  0
  2  7  2  0  0  0
  2 12  1  0  0  0
  2 37  1  0  0  0
  3  4  1  0  0  0
  3  8  2  0  0  0
  3 38  1  0  0  0
  4 12  2  0  0  0
  4 39  1  0  0  0
  5  6  1  0  0  0
  5 11  2  0  0  0
  5 40  1  0  0  0
  6 10  2  0  0  0
  6 41  1  0  0  0
  7  8  1  0  0  0
  7 42  1  0  0  0
  8 13  1  0  0  0
  9 11  1  0  0  0
  9 22  1  0  0  0
 10 26  1  0  0  0
 11 32  1  0  0  0
 12 35  1  0  0  0
 13 28  1  0  0  0
 13 30  2  0  0  0
 14 29  1  0  0  0
 14 31  2  0  0  0
 14 34  1  0  0  0
 15 17  1  0  0  0
 15 26  1  0  0  0
 15 43  1  0  0  0
 15 44  1  0  0  0
 16 18  1  0  0  0
 16 26  1  0  0  0
 16 45  1  0  0  0
 16 46  1  0  0  0
 17 27  1  0  0  0
 17 47  1  0  0  0
 17 48  1  0  0  0
 18 27  1  0  0  0
 18 49  1  0  0  0
 18 50  1  0  0  0
 19 23  1  0  0  0
 19 33  1  0  0  0
 19 51  1  0  0  0
 19 52  1  0  0  0
 20 23  1  0  0  0
 20 33  1  0  0  0
 20 53  1  0  0  0
 20 54  1  0  0  0
 21 24  1  0  0  0
 21 32  1  0  0  0
 21 55  1  0  0  0
 21 56  1  0  0  0
 22 24  1  0  0  0
 22 28  1  0  0  0
 22 57  1  0  0  0
 23 27  1  0  0  0
 23 58  1  0  0  0
 24 34  1  0  0  0
 24 59  1  0  0  0
 25 29  1  0  0  0
 25 60  1  0  0  0
 25 61  1  0  0  0
 25 62  1  0  0  0
 27 63  1  0  0  0
 28 64  1  0  0  0
 29 65  1  0  0  0
M  CHG  1  27   1
M  END
> <s_m_source_file>
../4p6g_ligand.sdf

> <i_m_source_file_index>
1

> <s_epik_input>
W0NIMl0xT1tDSDJdW0NIXTFbTkgrXShbQ0gyXVtDSDJdMilbQ0gyXVtDSDJdTjJjKFtjSF0zKVtjSF1bY0hdYyhjMzQpT1tDSDJdW0NASF0oT0MoPU8pW05IXVtDSDNdKVtDQEhdNFtOSF1DKD1PKWM1W2NIXVtjSF1jKEYpW2NIXVtjSF01

> <s_epik_cmdline>
J2VwaWtfYXBwJywgJy1pbWFlJywgJ2xpZ2FuZF9wcm8ubWFlJywgJy1vbWFlJywgJ2xpZ2FuZF9wcmVwLm1hZScsICctbXMnLCAnMScsICctcGgnLCAnNycsICctcGh0JywgJzAuNScsICctbnQn

> <r_lp_tautomer_probability>
1

> <r_epik_Ionization_Penalty>
  0.0636

> <r_epik_Ionization_Penalty_Charging>
  0.0607

> <r_epik_Ionization_Penalty_Neutral>
  0.0029

> <r_epik_State_Penalty>
 -0.0000

> <r_epik_Charging_Adjusted_Penalty>
0.0606643864626011

> <i_epik_Tot_Q>
1

> <i_epik_Tot_abs_Q>
1

> <s_epik_Chemistry_Notes>
This compound has an ester and may undergo hydrolysis at high or low pH.

$$$$
