4p6w_ligand
                    3D
 Schrodinger Suite 2020-3.
 67 71  0  0  1  0            999 V2000
   27.7810  -56.1620  -42.1150 O   0  0  0  0  0  0
   27.3110  -55.1350  -41.5820 C   0  0  0  0  0  0
   28.0430  -53.9490  -41.5800 C   0  0  0  0  0  0
   26.1440  -55.2530  -40.8530 C   0  0  0  0  0  0
   25.6110  -54.1600  -40.2020 C   0  0  0  0  0  0
   24.3320  -54.3510  -39.4150 C   0  0  0  0  0  0
   26.3030  -52.8240  -40.1800 C   0  0  1  0  0  0
   27.5680  -52.8300  -40.9100 C   0  0  0  0  0  0
   25.3550  -51.8680  -40.9250 C   0  0  0  0  0  0
   26.6120  -52.5510  -38.6890 C   0  0  1  0  0  0
   27.6440  -53.9090  -38.0680 Cl  0  0  0  0  0  0
   27.5150  -51.3330  -38.4140 C   0  0  1  0  0  0
   27.1190  -50.1310  -39.0860 O   0  0  0  0  0  0
   25.2970  -52.5640  -37.8770 C   0  0  1  0  0  0
   24.5770  -53.9060  -37.9780 C   0  0  0  0  0  0
   25.5960  -52.3060  -36.4060 C   0  0  2  0  0  0
   24.4490  -52.3130  -35.4070 C   0  0  0  0  0  0
   25.0530  -51.5950  -34.2050 C   0  0  1  0  0  0
   24.8040  -52.5060  -33.0070 C   0  0  0  0  0  0
   26.3470  -51.0120  -36.1420 C   0  0  1  0  0  0
   27.6710  -51.0570  -36.9170 C   0  0  0  0  0  0
   25.5320  -49.7410  -36.4600 C   0  0  0  0  0  0
   26.4900  -51.1550  -34.6200 C   0  0  1  0  0  0
   26.9710  -49.8350  -34.0450 C   0  0  3  0  0  0
   26.0960  -49.0300  -33.4680 O   0  0  0  0  0  0
   28.3950  -49.3150  -34.0740 C   0  0  0  0  0  0
   28.5190  -47.5560  -34.6420 Cl  0  0  0  0  0  0
   27.4720  -52.1920  -34.3780 O   0  0  0  0  0  0
   28.2140  -52.5770  -33.1610 C   0  0  0  0  0  0
   28.2420  -51.9330  -32.1120 O   0  0  0  0  0  0
   28.9810  -53.8210  -33.1680 C   0  0  0  0  0  0
   29.2080  -54.7700  -34.1220 C   0  0  0  0  0  0
   30.0290  -55.6740  -33.4900 C   0  0  0  0  0  0
   30.2510  -55.2580  -32.1950 C   0  0  0  0  0  0
   29.5940  -54.0780  -31.9870 O   0  0  0  0  0  0
   29.0034  -53.9036  -42.1144 H   0  0  0  0  0  0
   25.6391  -56.2285  -40.7939 H   0  0  0  0  0  0
   23.5312  -53.7452  -39.8641 H   0  0  0  0  0  0
   24.0440  -55.4124  -39.4353 H   0  0  0  0  0  0
   28.1511  -51.8973  -40.9149 H   0  0  0  0  0  0
   25.2426  -52.2015  -41.9672 H   0  0  0  0  0  0
   25.7729  -50.8506  -40.9086 H   0  0  0  0  0  0
   24.3718  -51.8685  -40.4318 H   0  0  0  0  0  0
   28.4860  -51.5539  -38.8812 H   0  0  0  0  0  0
   26.9577  -50.1368  -40.1741 H   0  0  0  0  0  0
   24.6425  -51.7799  -38.2855 H   0  0  0  0  0  0
   23.6140  -53.8057  -37.4560 H   0  0  0  0  0  0
   25.1970  -54.6545  -37.4630 H   0  0  0  0  0  0
   26.2032  -53.2050  -36.2243 H   0  0  0  0  0  0
   23.5874  -51.7791  -35.8343 H   0  0  0  0  0  0
   24.1631  -53.3516  -35.1843 H   0  0  0  0  0  0
   24.5906  -50.6536  -33.8733 H   0  0  0  0  0  0
   23.7238  -52.6845  -32.9004 H   0  0  0  0  0  0
   25.1880  -52.0256  -32.0950 H   0  0  0  0  0  0
   25.3206  -53.4647  -33.1618 H   0  0  0  0  0  0
   28.2845  -51.8477  -36.4604 H   0  0  0  0  0  0
   28.1615  -50.0830  -36.7729 H   0  0  0  0  0  0
   25.4276  -49.6355  -37.5499 H   0  0  0  0  0  0
   26.0524  -48.8608  -36.0546 H   0  0  0  0  0  0
   24.5350  -49.8207  -36.0022 H   0  0  0  0  0  0
   26.7837  -49.3455  -35.0121 H   0  0  0  0  0  0
   25.0383  -49.3247  -33.4010 H   0  0  0  0  0  0
   28.8255  -49.3685  -33.0632 H   0  0  0  0  0  0
   28.9956  -49.9289  -34.7613 H   0  0  0  0  0  0
   28.8284  -54.8035  -35.1432 H   0  0  0  0  0  0
   30.4394  -56.5770  -33.9419 H   0  0  0  0  0  0
   30.8537  -55.7854  -31.4556 H   0  0  0  0  0  0
  1  2  2  0  0  0
  2  3  1  0  0  0
  2  4  1  0  0  0
  3  8  2  0  0  0
  3 36  1  0  0  0
  4  5  2  0  0  0
  4 37  1  0  0  0
  5  6  1  0  0  0
  5  7  1  0  0  0
  6 15  1  0  0  0
  6 38  1  0  0  0
  6 39  1  0  0  0
  7  8  1  0  0  0
  7  9  1  0  0  0
  7 10  1  0  0  0
  8 40  1  0  0  0
  9 41  1  0  0  0
  9 42  1  0  0  0
  9 43  1  0  0  0
 10 11  1  0  0  0
 10 12  1  0  0  0
 10 14  1  0  0  0
 12 13  1  0  0  0
 12 21  1  0  0  0
 12 44  1  0  0  0
 13 45  1  0  0  0
 14 15  1  0  0  0
 14 16  1  0  0  0
 14 46  1  0  0  0
 15 47  1  0  0  0
 15 48  1  0  0  0
 16 17  1  0  0  0
 16 20  1  0  0  0
 16 49  1  0  0  0
 17 18  1  0  0  0
 17 50  1  0  0  0
 17 51  1  0  0  0
 18 19  1  0  0  0
 18 23  1  0  0  0
 18 52  1  0  0  0
 19 53  1  0  0  0
 19 54  1  0  0  0
 19 55  1  0  0  0
 20 21  1  0  0  0
 20 22  1  0  0  0
 20 23  1  0  0  0
 21 56  1  0  0  0
 21 57  1  0  0  0
 22 58  1  0  0  0
 22 59  1  0  0  0
 22 60  1  0  0  0
 23 24  1  0  0  0
 23 28  1  0  0  0
 24 25  1  0  0  0
 24 26  1  0  0  0
 24 61  1  0  0  0
 25 62  1  0  0  0
 26 27  1  0  0  0
 26 63  1  0  0  0
 26 64  1  0  0  0
 28 29  1  0  0  0
 29 30  2  0  0  0
 29 31  1  0  0  0
 31 32  2  0  0  0
 31 35  1  0  0  0
 32 33  1  0  0  0
 32 65  1  0  0  0
 33 34  2  0  0  0
 33 66  1  0  0  0
 34 35  1  0  0  0
 34 67  1  0  0  0
M  END
> <s_m_source_file>
../4p6w_ligand.sdf

> <i_m_source_file_index>
1

> <s_epik_input>
W0NIXTE9W0NIXUMoPU8pW0NIXT1DKFtDQF0xMltDSDNdKVtDSDJdW0NIMl1bQ0BASF0zW0NAXTIoQ2wpW0NAQEhdKFtPSF0pW0NIMl1bQ0BAXTQoW0NIM10pW0NASF0zW0NIMl1bQ0BASF0oW0NIM10pW0NAQF00KFtDSF0oW09IXSlbQ0gyXUNsKU9DKD1PKWM1W2NIXVtjSF1bY0hdbzU=

> <s_epik_cmdline>
J2VwaWtfYXBwJywgJy1pbWFlJywgJ2xpZ2FuZF9wcm8ubWFlJywgJy1vbWFlJywgJ2xpZ2FuZF9wcmVwLm1hZScsICctbXMnLCAnMScsICctcGgnLCAnNycsICctcGh0JywgJzAuNScsICctbnQn

> <r_lp_tautomer_probability>
1

> <r_epik_Ionization_Penalty>
  0.0000

> <r_epik_Ionization_Penalty_Charging>
  0.0000

> <r_epik_Ionization_Penalty_Neutral>
  0.0000

> <r_epik_State_Penalty>
 -0.0000

> <r_epik_Charging_Adjusted_Penalty>
0

> <i_epik_Tot_Q>
0

> <i_epik_Tot_abs_Q>
0

> <s_epik_Chemistry_Notes>
This compound has an ester and may undergo hydrolysis at high or low pH.

$$$$
