4p6x_ligand
                    3D
 Schrodinger Suite 2020-3.
 56 59  0  0  1  0            999 V2000
    3.7200   32.2140   -3.7650 C   0  0  0  0  0  0
    3.9320   32.6580   -2.3200 C   0  0  0  0  0  0
    5.0250   33.7010   -2.2190 C   0  0  0  0  0  0
    5.3930   34.5200   -3.3780 C   0  0  0  0  0  0
    4.8210   34.3510   -4.5760 C   0  0  0  0  0  0
    5.1970   35.3250   -5.6560 C   0  0  0  0  0  0
    5.5140   34.6160   -6.9530 C   0  0  0  0  0  0
    4.5070   33.5230   -7.2940 C   0  0  2  0  0  0
    4.2310   32.5540   -6.1390 C   0  0  1  0  0  0
    3.7760   33.2740   -4.8480 C   0  0  1  0  0  0
    3.9040   30.6620   -7.8200 C   0  0  0  0  0  0
    3.3700   31.3200   -6.5360 C   0  0  2  0  0  0
    4.1930   31.6290   -8.9690 C   0  0  1  0  0  0
    5.0990   32.7340   -8.4430 C   0  0  1  0  0  0
    5.4640   33.5060   -9.6810 C   0  0  0  0  0  0
    5.4920   32.4750  -10.8010 C   0  0  0  0  0  0
    5.0350   31.1780  -10.1900 C   0  0  2  0  0  0
    2.8700   32.1950   -9.4900 C   0  0  0  0  0  0
    2.4320   33.9920   -5.0180 C   0  0  0  0  0  0
    4.3440   30.3240  -11.2360 C   0  0  0  0  0  0
    3.9710   28.9290  -10.8580 C   0  0  0  0  0  0
    5.6260   33.8680   -1.1720 O   0  0  0  0  0  0
    1.9550   31.5780   -6.6700 O   0  0  0  0  0  0
    6.2270   30.4770   -9.7820 O   0  0  0  0  0  0
    4.0740   30.7530  -12.3530 O   0  0  0  0  0  0
    3.2460   28.3180  -11.9170 O   0  0  0  0  0  0
    4.4927   31.4812   -4.0405 H   0  0  0  0  0  0
    2.7259   31.7538   -3.8651 H   0  0  0  0  0  0
    2.9992   33.0900   -1.9286 H   0  0  0  0  0  0
    4.2192   31.7902   -1.7081 H   0  0  0  0  0  0
    6.1644   35.2921   -3.2408 H   0  0  0  0  0  0
    4.3609   36.0176   -5.8324 H   0  0  0  0  0  0
    6.0849   35.8942   -5.3436 H   0  0  0  0  0  0
    5.5113   35.3431   -7.7785 H   0  0  0  0  0  0
    6.5062   34.1465   -6.8812 H   0  0  0  0  0  0
    3.5501   34.0040   -7.5450 H   0  0  0  0  0  0
    5.2131   32.1243   -5.8925 H   0  0  0  0  0  0
    4.8483   30.1423   -7.6003 H   0  0  0  0  0  0
    3.1658   29.9380   -8.1954 H   0  0  0  0  0  0
    3.3867   30.6242   -5.6842 H   0  0  0  0  0  0
    6.0104   32.3672   -7.9483 H   0  0  0  0  0  0
    4.7070   34.2826   -9.8653 H   0  0  0  0  0  0
    6.4476   33.9784   -9.5419 H   0  0  0  0  0  0
    4.8153   32.7920  -11.6082 H   0  0  0  0  0  0
    6.5158   32.3880  -11.1938 H   0  0  0  0  0  0
    2.2521   32.5232   -8.6412 H   0  0  0  0  0  0
    2.3349   31.4167  -10.0538 H   0  0  0  0  0  0
    3.0722   33.0519  -10.1494 H   0  0  0  0  0  0
    2.1576   34.4849   -4.0737 H   0  0  0  0  0  0
    1.6568   33.2599   -5.2883 H   0  0  0  0  0  0
    2.5174   34.7464   -5.8140 H   0  0  0  0  0  0
    4.8829   28.3467  -10.6594 H   0  0  0  0  0  0
    3.3447   28.9491   -9.9540 H   0  0  0  0  0  0
    1.4010   32.0480   -5.8441 H   0  0  0  0  0  0
    6.8904   30.9161   -9.0223 H   0  0  0  0  0  0
    2.8883   27.2830  -11.8132 H   0  0  0  0  0  0
  1  2  1  0  0  0
  1 10  1  0  0  0
  1 27  1  0  0  0
  1 28  1  0  0  0
  2  3  1  0  0  0
  2 29  1  0  0  0
  2 30  1  0  0  0
  3  4  1  0  0  0
  3 22  2  0  0  0
  4  5  2  0  0  0
  4 31  1  0  0  0
  5  6  1  0  0  0
  5 10  1  0  0  0
  6  7  1  0  0  0
  6 32  1  0  0  0
  6 33  1  0  0  0
  7  8  1  0  0  0
  7 34  1  0  0  0
  7 35  1  0  0  0
  8  9  1  0  0  0
  8 14  1  0  0  0
  8 36  1  0  0  0
  9 10  1  0  0  0
  9 12  1  0  0  0
  9 37  1  0  0  0
 10 19  1  0  0  0
 11 12  1  0  0  0
 11 13  1  0  0  0
 11 38  1  0  0  0
 11 39  1  0  0  0
 12 23  1  0  0  0
 12 40  1  0  0  0
 13 14  1  0  0  0
 13 17  1  0  0  0
 13 18  1  0  0  0
 14 15  1  0  0  0
 14 41  1  0  0  0
 15 16  1  0  0  0
 15 42  1  0  0  0
 15 43  1  0  0  0
 16 17  1  0  0  0
 16 44  1  0  0  0
 16 45  1  0  0  0
 17 20  1  0  0  0
 17 24  1  0  0  0
 18 46  1  0  0  0
 18 47  1  0  0  0
 18 48  1  0  0  0
 19 49  1  0  0  0
 19 50  1  0  0  0
 19 51  1  0  0  0
 20 21  1  0  0  0
 20 25  2  0  0  0
 21 26  1  0  0  0
 21 52  1  0  0  0
 21 53  1  0  0  0
 23 54  1  0  0  0
 24 55  1  0  0  0
 26 56  1  0  0  0
M  END
> <s_m_source_file>
../4p6x_ligand.sdf

> <i_m_source_file_index>
1

> <s_epik_input>
W0NIMl0xW0NIMl1DKD1PKVtDSF09QyhbQ0BdMTJbQ0gzXSlbQ0gyXVtDSDJdW0NAQEhdM1tDQEBIXTJbQ0BASF0oW09IXSlbQ0gyXVtDQEBdNChbQ0gzXSlbQ0BIXTNbQ0gyXVtDSDJdW0NAXTQoW09IXSlDKD1PKVtDSDJdW09IXQ==

> <s_epik_cmdline>
J2VwaWtfYXBwJywgJy1pbWFlJywgJ2xpZ2FuZF9wcm8ubWFlJywgJy1vbWFlJywgJ2xpZ2FuZF9wcmVwLm1hZScsICctbXMnLCAnMScsICctcGgnLCAnNycsICctcGh0JywgJzAuNScsICctbnQn

> <r_lp_tautomer_probability>
1

> <r_epik_Ionization_Penalty>
  0.0000

> <r_epik_Ionization_Penalty_Charging>
  0.0000

> <r_epik_Ionization_Penalty_Neutral>
  0.0000

> <r_epik_State_Penalty>
 -0.0000

> <r_epik_Charging_Adjusted_Penalty>
0

> <i_epik_Tot_Q>
0

> <i_epik_Tot_abs_Q>
0

$$$$
