4p72_ligand
                    3D
 Schrodinger Suite 2020-3.
 34 35  0  0  1  0            999 V2000
   46.9850   24.3830   26.3720 C   0  0  0  0  0  0
   46.5100   23.9750   24.9940 C   0  0  0  0  0  0
   44.4650   23.6100   23.7430 C   0  0  0  0  0  0
   44.1850   22.6980   21.5400 C   0  0  0  0  0  0
   45.0180   23.1850   22.5450 C   0  0  0  0  0  0
   44.1680   22.1760   19.0520 C   0  0  0  0  0  0
   44.9410   21.7270   17.9810 C   0  0  0  0  0  0
   44.3200   21.6830   16.7500 C   0  0  0  0  0  0
   43.0100   22.0600   16.5930 C   0  0  0  0  0  0
   42.3280   22.4870   17.7040 C   0  0  0  0  0  0
   45.2170   21.1360   15.3690 Cl  0  0  0  0  0  0
   42.8780   22.5530   18.9230 N   0  0  0  0  0  0
   44.7350   22.2470   20.3160 N   0  0  0  0  0  0
   42.8110   22.6610   21.7380 C   0  0  0  0  0  0
   42.2730   23.1080   22.9280 C   0  0  0  0  0  0
   43.0920   23.5940   23.9310 C   0  0  0  0  0  0
   45.1000   23.9540   24.9110 O   0  0  0  0  0  0
   46.1710   24.6500   27.2640 O   0  0  0  0  0  0
   48.3030   24.4310   26.5470 N   0  0  0  0  0  0
   48.9160   24.8050   27.8100 C   0  0  0  0  0  0
   46.8895   24.6897   24.2489 H   0  0  0  0  0  0
   46.8851   22.9677   24.7602 H   0  0  0  0  0  0
   46.0960   23.2315   22.3905 H   0  0  0  0  0  0
   45.9809   21.4268   18.1101 H   0  0  0  0  0  0
   42.5268   22.0214   15.6167 H   0  0  0  0  0  0
   41.2866   22.7875   17.5887 H   0  0  0  0  0  0
   45.7711   21.8792   20.2810 H   0  0  0  0  0  0
   42.1574   22.2790   20.9538 H   0  0  0  0  0  0
   41.1939   23.0777   23.0785 H   0  0  0  0  0  0
   42.6609   23.9616   24.8622 H   0  0  0  0  0  0
   48.9346   24.1723   25.6844 H   0  0  0  0  0  0
   50.0110   24.7719   27.7101 H   0  0  0  0  0  0
   48.5979   24.1023   28.5942 H   0  0  0  0  0  0
   48.6032   25.8240   28.0818 H   0  0  0  0  0  0
  1  2  1  0  0  0
  1 18  2  0  0  0
  1 19  1  0  0  0
  2 17  1  0  0  0
  2 21  1  0  0  0
  2 22  1  0  0  0
  3  5  2  0  0  0
  3 16  1  0  0  0
  3 17  1  0  0  0
  4  5  1  0  0  0
  4 13  1  0  0  0
  4 14  2  0  0  0
  5 23  1  0  0  0
  6  7  2  0  0  0
  6 12  1  0  0  0
  6 13  1  0  0  0
  7  8  1  0  0  0
  7 24  1  0  0  0
  8  9  2  0  0  0
  8 11  1  0  0  0
  9 10  1  0  0  0
  9 25  1  0  0  0
 10 12  2  0  0  0
 10 26  1  0  0  0
 13 27  1  0  0  0
 14 15  1  0  0  0
 14 28  1  0  0  0
 15 16  2  0  0  0
 15 29  1  0  0  0
 16 30  1  0  0  0
 19 20  1  0  0  0
 19 31  1  0  0  0
 20 32  1  0  0  0
 20 33  1  0  0  0
 20 34  1  0  0  0
M  END
> <s_m_source_file>
../4p72_ligand.sdf

> <i_m_source_file_index>
1

> <s_epik_input>
W0NIM11bTkhdQyg9TylbQ0gyXU9jMVtjSF1jKFtjSF1bY0hdW2NIXTEpW05IXWMyW2NIXWMoQ2wpW2NIXVtjSF1uMg==

> <s_epik_cmdline>
J2VwaWtfYXBwJywgJy1pbWFlJywgJ2xpZ2FuZF9wcm8ubWFlJywgJy1vbWFlJywgJ2xpZ2FuZF9wcmVwLm1hZScsICctbXMnLCAnMScsICctcGgnLCAnNycsICctcGh0JywgJzAuNScsICctbnQn

> <r_lp_tautomer_probability>
1

> <r_epik_Ionization_Penalty>
  0.0025

> <r_epik_Ionization_Penalty_Charging>
  0.0000

> <r_epik_Ionization_Penalty_Neutral>
  0.0025

> <r_epik_State_Penalty>
 -0.0000

> <r_epik_Charging_Adjusted_Penalty>
0

> <i_epik_Tot_Q>
0

> <i_epik_Tot_abs_Q>
0

$$$$
