4p73_ligand
                    3D
 Schrodinger Suite 2020-3.
 50 53  0  0  1  0            999 V2000
   47.9350   30.0940   22.3880 N   0  0  0  0  0  0
   45.6620   22.6290   21.3040 N   0  0  0  0  0  0
   45.1170   23.0950   22.5270 C   0  0  0  0  0  0
   45.8490   22.1600   19.0360 N   0  0  0  0  0  0
   46.2210   21.3450   16.8760 N   0  0  0  0  0  0
   45.5330   24.0950   24.6690 C   0  0  0  0  0  0
   46.9000   26.3690   25.3990 N   0  0  0  0  0  0
   44.1730   24.1130   24.9460 C   0  0  0  0  0  0
   43.2860   23.6190   24.0010 C   0  0  0  0  0  0
   47.9310   24.1360   25.6540 O   0  0  0  0  0  0
   46.0440   24.7930   27.1050 O   0  0  0  0  0  0
   43.8290   22.7380   19.9200 O   0  0  0  0  0  0
   45.0280   22.5250   20.0910 C   0  0  0  0  0  0
   45.4070   21.8360   17.7700 C   0  0  0  0  0  0
   45.5330   21.1060   15.7050 C   0  0  0  0  0  0
   44.2210   21.4070   15.7110 C   0  0  0  0  0  0
   43.7640   22.0350   17.2460 S   0  0  0  0  0  0
   46.0100   23.5810   23.4730 C   0  0  0  0  0  0
   43.7490   23.1110   22.7970 C   0  0  0  0  0  0
   46.6700   24.7900   25.8200 S   0  0  0  0  0  0
   47.8540   26.6370   24.3000 C   0  0  0  0  0  0
   48.2670   28.1030   24.3280 C   0  0  0  0  0  0
   47.0860   28.9670   24.2410 N   0  0  0  0  0  0
   46.1630   28.7180   25.3530 C   0  0  0  0  0  0
   45.7160   27.2580   25.3640 C   0  0  0  0  0  0
   46.9450   29.9880   23.2980 C   0  0  0  0  0  0
   45.8240   30.8400   23.3000 C   0  0  0  0  0  0
   45.7470   31.8110   22.3110 C   0  0  0  0  0  0
   46.7500   31.9290   21.3770 C   0  0  0  0  0  0
   47.8190   31.0570   21.4540 C   0  0  0  0  0  0
   46.7102   22.2984   21.2595 H   0  0  0  0  0  0
   46.9388   22.1132   19.1779 H   0  0  0  0  0  0
   43.8072   24.5098   25.8930 H   0  0  0  0  0  0
   42.2157   23.6303   24.2068 H   0  0  0  0  0  0
   46.0247   20.6958   14.8229 H   0  0  0  0  0  0
   43.5460   21.2723   14.8658 H   0  0  0  0  0  0
   47.0818   23.5584   23.2760 H   0  0  0  0  0  0
   43.0437   22.7241   22.0615 H   0  0  0  0  0  0
   48.7448   26.0038   24.4252 H   0  0  0  0  0  0
   47.3756   26.4104   23.3357 H   0  0  0  0  0  0
   48.7990   28.3162   25.2669 H   0  0  0  0  0  0
   48.9292   28.3137   23.4753 H   0  0  0  0  0  0
   46.6662   28.9437   26.3047 H   0  0  0  0  0  0
   45.2771   29.3610   25.2452 H   0  0  0  0  0  0
   45.1290   27.0513   24.4570 H   0  0  0  0  0  0
   45.0940   27.0755   26.2527 H   0  0  0  0  0  0
   45.0425   30.7404   24.0533 H   0  0  0  0  0  0
   44.8889   32.4822   22.2744 H   0  0  0  0  0  0
   46.7027   32.6895   20.5976 H   0  0  0  0  0  0
   48.6149   31.1543   20.7156 H   0  0  0  0  0  0
  1 26  2  0  0  0
  1 30  1  0  0  0
  2  3  1  0  0  0
  2 13  1  0  0  0
  2 31  1  0  0  0
  3 18  2  0  0  0
  3 19  1  0  0  0
  4 13  1  0  0  0
  4 14  1  0  0  0
  4 32  1  0  0  0
  5 14  2  0  0  0
  5 15  1  0  0  0
  6  8  2  0  0  0
  6 18  1  0  0  0
  6 20  1  0  0  0
  7 20  1  0  0  0
  7 21  1  0  0  0
  7 25  1  0  0  0
  8  9  1  0  0  0
  8 33  1  0  0  0
  9 19  2  0  0  0
  9 34  1  0  0  0
 10 20  2  0  0  0
 11 20  2  0  0  0
 12 13  2  0  0  0
 14 17  1  0  0  0
 15 16  2  0  0  0
 15 35  1  0  0  0
 16 17  1  0  0  0
 16 36  1  0  0  0
 18 37  1  0  0  0
 19 38  1  0  0  0
 21 22  1  0  0  0
 21 39  1  0  0  0
 21 40  1  0  0  0
 22 23  1  0  0  0
 22 41  1  0  0  0
 22 42  1  0  0  0
 23 24  1  0  0  0
 23 26  1  0  0  0
 24 25  1  0  0  0
 24 43  1  0  0  0
 24 44  1  0  0  0
 25 45  1  0  0  0
 25 46  1  0  0  0
 26 27  1  0  0  0
 27 28  2  0  0  0
 27 47  1  0  0  0
 28 29  1  0  0  0
 28 48  1  0  0  0
 29 30  2  0  0  0
 29 49  1  0  0  0
 30 50  1  0  0  0
M  END
> <s_m_source_file>
../4p73_ligand.sdf

> <i_m_source_file_index>
1

> <s_epik_input>
W2NIXTFbY0hdW2NIXVtjSF1uYzFOKFtDSDJdW0NIMl0yKVtDSDJdW0NIMl1OMlMoPU8pKD1PKWMoW2NIXVtjSF1bY0hdMylbY0hdYzNbTkhdQyg9TylbTkhdYzRuW2NIXVtjSF1zNA==

> <s_epik_cmdline>
J2VwaWtfYXBwJywgJy1pbWFlJywgJ2xpZ2FuZF9wcm8ubWFlJywgJy1vbWFlJywgJ2xpZ2FuZF9wcmVwLm1hZScsICctbXMnLCAnMScsICctcGgnLCAnNycsICctcGh0JywgJzAuNScsICctbnQn

> <r_lp_tautomer_probability>
0.999000488399163

> <r_epik_Ionization_Penalty>
  0.0378

> <r_epik_Ionization_Penalty_Charging>
  0.0000

> <r_epik_Ionization_Penalty_Neutral>
  0.0378

> <r_epik_State_Penalty>
  0.0315

> <r_epik_Charging_Adjusted_Penalty>
0.031495890346704

> <i_epik_Tot_Q>
0

> <i_epik_Tot_abs_Q>
0

$$$$
