4p74_ligand
                    3D
 Schrodinger Suite 2020-3.
 42 44  0  0  1  0            999 V2000
   44.2050   21.6310   15.9050 C   0  0  0  0  0  0
   42.9650   21.9480   16.4550 C   0  0  0  0  0  0
   42.8250   22.2690   17.7950 C   0  0  0  0  0  0
   44.8920   22.5050   20.8780 C   0  0  0  0  0  0
   44.4380   23.0120   22.2170 C   0  0  0  0  0  0
   44.4840   23.9180   24.2220 C   0  0  0  0  0  0
   43.1580   23.6300   24.1700 C   0  0  0  0  0  0
   45.1390   24.5670   25.3890 C   0  0  0  0  0  0
   47.1660   25.3270   26.1880 C   0  0  1  0  0  0
   47.0070   24.6640   27.5890 C   0  0  0  0  0  0
   48.1830   24.9190   28.5190 C   0  0  0  0  0  0
   48.6530   25.1250   25.9080 C   0  0  0  0  0  0
   50.6670   24.7330   27.5980 O   0  0  0  0  0  0
   49.4690   25.5160   27.4490 S   0  0  0  0  0  0
   49.5770   26.9430   27.5880 O   0  0  0  0  0  0
   46.4620   24.7810   25.2780 N   0  0  0  0  0  0
   44.4840   24.8820   26.3840 O   0  0  0  0  0  0
   45.2150   23.5620   23.1030 N   0  0  0  0  0  0
   42.7740   22.8840   22.6690 S   0  0  0  0  0  0
   43.7710   22.5940   19.9560 O   0  0  0  0  0  0
   43.9400   22.2710   18.6180 C   0  0  0  0  0  0
   45.1900   21.9540   18.0840 C   0  0  0  0  0  0
   45.3070   21.6410   16.7420 C   0  0  0  0  0  0
   44.3450   21.2860   14.4430 C   0  0  0  0  0  0
   42.0829   21.9433   15.8148 H   0  0  0  0  0  0
   41.8441   22.5185   18.1997 H   0  0  0  0  0  0
   45.7287   23.1211   20.5171 H   0  0  0  0  0  0
   45.2211   21.4598   20.9740 H   0  0  0  0  0  0
   42.4415   23.8409   24.9639 H   0  0  0  0  0  0
   46.7252   26.3237   26.0389 H   0  0  0  0  0  0
   46.1064   25.0593   28.0816 H   0  0  0  0  0  0
   46.9117   23.5746   27.4704 H   0  0  0  0  0  0
   47.8974   25.6651   29.2751 H   0  0  0  0  0  0
   48.4658   23.9806   29.0184 H   0  0  0  0  0  0
   48.8310   24.0821   25.6069 H   0  0  0  0  0  0
   48.9686   25.7994   25.0983 H   0  0  0  0  0  0
   46.9333   24.4560   24.3387 H   0  0  0  0  0  0
   46.0726   21.9531   18.7237 H   0  0  0  0  0  0
   46.2882   21.3970   16.3348 H   0  0  0  0  0  0
   43.3587   21.3355   13.9585 H   0  0  0  0  0  0
   44.7517   20.2688   14.3436 H   0  0  0  0  0  0
   45.0267   22.0022   13.9609 H   0  0  0  0  0  0
  1  2  2  0  0  0
  1 23  1  0  0  0
  1 24  1  0  0  0
  2  3  1  0  0  0
  2 25  1  0  0  0
  3 21  2  0  0  0
  3 26  1  0  0  0
  4  5  1  0  0  0
  4 20  1  0  0  0
  4 27  1  0  0  0
  4 28  1  0  0  0
  5 18  2  0  0  0
  5 19  1  0  0  0
  6  7  2  0  0  0
  6  8  1  0  0  0
  6 18  1  0  0  0
  7 19  1  0  0  0
  7 29  1  0  0  0
  8 16  1  0  0  0
  8 17  2  0  0  0
  9 10  1  0  0  0
  9 12  1  0  0  0
  9 16  1  0  0  0
  9 30  1  0  0  0
 10 11  1  0  0  0
 10 31  1  0  0  0
 10 32  1  0  0  0
 11 14  1  0  0  0
 11 33  1  0  0  0
 11 34  1  0  0  0
 12 14  1  0  0  0
 12 35  1  0  0  0
 12 36  1  0  0  0
 13 14  2  0  0  0
 14 15  2  0  0  0
 16 37  1  0  0  0
 20 21  1  0  0  0
 21 22  1  0  0  0
 22 23  2  0  0  0
 22 38  1  0  0  0
 23 39  1  0  0  0
 24 40  1  0  0  0
 24 41  1  0  0  0
 24 42  1  0  0  0
M  END
> <s_m_source_file>
../4p74_ligand.sdf

> <i_m_source_file_index>
1

> <s_epik_input>
W0NIM11jMVtjSF1bY0hdYyhbY0hdW2NIXTEpT1tDSDJdYzJuYyhbY0hdczIpQyg9TylbTkhdW0NASF0oW0NIMl0zKVtDSDJdW0NIMl1TMyg9Tyk9Tw==

> <s_epik_cmdline>
J2VwaWtfYXBwJywgJy1pbWFlJywgJ2xpZ2FuZF9wcm8ubWFlJywgJy1vbWFlJywgJ2xpZ2FuZF9wcmVwLm1hZScsICctbXMnLCAnMScsICctcGgnLCAnNycsICctcGh0JywgJzAuNScsICctbnQn

> <r_lp_tautomer_probability>
1

> <r_epik_Ionization_Penalty>
  0.0000

> <r_epik_Ionization_Penalty_Charging>
  0.0000

> <r_epik_Ionization_Penalty_Neutral>
  0.0000

> <r_epik_State_Penalty>
 -0.0000

> <r_epik_Charging_Adjusted_Penalty>
0

> <i_epik_Tot_Q>
0

> <i_epik_Tot_abs_Q>
0

$$$$
