4p7e_ligand
                    3D
 Schrodinger Suite 2020-3.
 54 58  0  0  1  0            999 V2000
    0.4180   47.4290    7.5400 C   0  0  0  0  0  0
   -0.6420   49.3650    9.9710 C   0  0  0  0  0  0
   -0.4330   51.7770    8.4600 C   0  0  0  0  0  0
    0.5760   50.1820   10.3120 C   0  0  0  0  0  0
   -0.3480   50.4810    7.6970 C   0  0  0  0  0  0
   -0.9650   48.0440    7.8140 C   0  0  0  0  0  0
    1.0430   46.6490    8.5190 C   0  0  0  0  0  0
    2.3010   46.0850    8.2820 C   0  0  0  0  0  0
    2.9550   46.2680    7.0570 C   0  0  0  0  0  0
    2.3020   47.0040    6.0600 C   0  0  0  0  0  0
    1.0700   47.6160    6.3160 C   0  0  0  0  0  0
    4.2360   45.7290    6.8630 C   0  0  0  0  0  0
    5.2050   45.8470    7.8760 C   0  0  0  0  0  0
    6.4740   45.2660    7.7450 C   0  0  0  0  0  0
    6.7840   44.5560    6.5830 C   0  0  0  0  0  0
    5.8080   44.5230    5.5870 C   0  0  0  0  0  0
    4.7070   44.1900    3.7850 C   0  0  0  0  0  0
    3.2090   44.0200    1.8850 C   0  0  0  0  0  0
    2.9480   43.4610    0.5010 C   0  0  0  0  0  0
    1.4660   43.2140    0.1400 C   0  0  0  0  0  0
    2.2280   44.3870   -0.5030 C   0  0  0  0  0  0
    1.8690   52.3700    9.6100 O   0  0  0  0  0  0
    0.5320   51.9200    9.9460 S   0  0  0  0  0  0
   -0.2480   52.6140   10.9530 O   0  0  0  0  0  0
   -0.8770   49.3540    8.5040 N   0  0  0  0  0  0
    4.5930   45.0920    5.7210 N   0  0  0  0  0  0
    3.8810   44.8700    4.6100 N   0  0  0  0  0  0
    4.4030   43.7560    2.4660 N   0  0  0  0  0  0
    2.3450   44.6840    2.4350 O   0  0  0  0  0  0
    5.8890   43.9610    4.3760 N   0  3  0  0  0  0
   -0.4972   48.3301   10.3144 H   0  0  0  0  0  0
   -1.5236   49.7962   10.4678 H   0  0  0  0  0  0
   -0.0992   52.6041    7.8162 H   0  0  0  0  0  0
   -1.4735   51.9516    8.7714 H   0  0  0  0  0  0
    0.7689   50.1190   11.3931 H   0  0  0  0  0  0
    1.4448   49.7924    9.7612 H   0  0  0  0  0  0
   -0.9383   50.5606    6.7722 H   0  0  0  0  0  0
    0.7021   50.2722    7.4448 H   0  0  0  0  0  0
   -1.4932   48.1976    6.8614 H   0  0  0  0  0  0
   -1.5490   47.3639    8.4515 H   0  0  0  0  0  0
    0.5457   46.4794    9.4740 H   0  0  0  0  0  0
    2.7797   45.4939    9.0628 H   0  0  0  0  0  0
    2.7582   47.1010    5.0748 H   0  0  0  0  0  0
    0.6127   48.2459    5.5530 H   0  0  0  0  0  0
    4.9638   46.4023    8.7824 H   0  0  0  0  0  0
    7.2110   45.3673    8.5417 H   0  0  0  0  0  0
    7.7426   44.0519    6.4603 H   0  0  0  0  0  0
    3.8754   42.8695    0.4919 H   0  0  0  0  0  0
    1.3582   42.2122   -0.3014 H   0  0  0  0  0  0
    0.8508   43.2822    1.0493 H   0  0  0  0  0  0
    2.2381   45.4190   -0.1223 H   0  0  0  0  0  0
    2.7454   44.3490   -1.4730 H   0  0  0  0  0  0
    5.1477   43.1889    1.8882 H   0  0  0  0  0  0
    6.8117   43.4468    4.0689 H   0  0  0  0  0  0
  1  6  1  0  0  0
  1  7  2  0  0  0
  1 11  1  0  0  0
  2  4  1  0  0  0
  2 25  1  0  0  0
  2 31  1  0  0  0
  2 32  1  0  0  0
  3  5  1  0  0  0
  3 23  1  0  0  0
  3 33  1  0  0  0
  3 34  1  0  0  0
  4 23  1  0  0  0
  4 35  1  0  0  0
  4 36  1  0  0  0
  5 25  1  0  0  0
  5 37  1  0  0  0
  5 38  1  0  0  0
  6 25  1  0  0  0
  6 39  1  0  0  0
  6 40  1  0  0  0
  7  8  1  0  0  0
  7 41  1  0  0  0
  8  9  2  0  0  0
  8 42  1  0  0  0
  9 10  1  0  0  0
  9 12  1  0  0  0
 10 11  2  0  0  0
 10 43  1  0  0  0
 11 44  1  0  0  0
 12 13  2  0  0  0
 12 26  1  0  0  0
 13 14  1  0  0  0
 13 45  1  0  0  0
 14 15  2  0  0  0
 14 46  1  0  0  0
 15 16  1  0  0  0
 15 47  1  0  0  0
 16 26  1  0  0  0
 16 30  2  0  0  0
 17 27  2  0  0  0
 17 28  1  0  0  0
 17 30  1  0  0  0
 18 19  1  0  0  0
 18 28  1  0  0  0
 18 29  2  0  0  0
 19 20  1  0  0  0
 19 21  1  0  0  0
 19 48  1  0  0  0
 20 21  1  0  0  0
 20 49  1  0  0  0
 20 50  1  0  0  0
 21 51  1  0  0  0
 21 52  1  0  0  0
 22 23  2  0  0  0
 23 24  2  0  0  0
 26 27  1  0  0  0
 28 53  1  0  0  0
 30 54  1  0  0  0
M  CHG  1  30   1
M  END
> <s_m_source_file>
../4p7e_ligand.sdf

> <i_m_source_file_index>
1

> <s_epik_input>
Tz1TMSg9TylbQ0gyXVtDSDJdW05IK10oW0NIMl1bQ0gyXTEpW0NIMl1jMltjSF1bY0hdYyhbY0hdW2NIXTIpLWMoW2NIXVtjSF1bY0hdMyluKGMzNCluYyhuNClbTkhdQyg9TylbQ0hdNVtDSDJdW0NIMl01

> <s_epik_cmdline>
J2VwaWtfYXBwJywgJy1pbWFlJywgJ2xpZ2FuZF9wcm8ubWFlJywgJy1vbWFlJywgJ2xpZ2FuZF9wcmVwLm1hZScsICctbXMnLCAnMScsICctcGgnLCAnNycsICctcGh0JywgJzAuNScsICctbnQn

> <r_lp_tautomer_probability>
1

> <r_epik_Ionization_Penalty>
  0.3061

> <r_epik_Ionization_Penalty_Charging>
  0.2275

> <r_epik_Ionization_Penalty_Neutral>
  0.0786

> <r_epik_State_Penalty>
 -0.0000

> <r_epik_Charging_Adjusted_Penalty>
0.227465076148821

> <i_epik_Tot_Q>
1

> <i_epik_Tot_abs_Q>
1

$$$$
