4p7m_ligand
                    3D
 Schrodinger Suite 2020-3.
 36 38  0  0  1  0            999 V2000
   -1.6580  -30.3430  -18.0600 C   0  0  0  0  0  0
   -2.4360  -30.7140  -19.1360 C   0  0  0  0  0  0
   -1.9120  -30.9650  -20.3370 O   0  0  0  0  0  0
   -3.7850  -30.8080  -18.9390 C   0  0  0  0  0  0
   -4.3230  -30.5350  -17.6760 C   0  0  0  0  0  0
   -3.5450  -30.1610  -16.5820 C   0  0  0  0  0  0
   -2.1910  -30.0760  -16.8000 C   0  0  0  0  0  0
   -1.3840  -29.7100  -15.8110 O   0  0  0  0  0  0
   -1.2530  -30.6730  -14.8870 C   0  0  0  0  0  0
   -2.1870  -30.7970  -13.8930 C   0  0  0  0  0  0
   -0.1710  -31.5240  -14.8690 C   0  0  0  0  0  0
   -0.0620  -32.4680  -13.8790 C   0  0  0  0  0  0
    1.0260  -33.3090  -13.8990 C   0  0  0  0  0  0
   -0.9910  -32.5800  -12.9310 N   0  0  0  0  0  0
   -2.0440  -31.7740  -12.9190 C   0  0  0  0  0  0
   -3.0120  -31.8320  -11.9390 C   0  0  0  0  0  0
   -4.3350  -31.9510  -12.2880 C   0  0  0  0  0  0
   -5.3170  -31.9800  -11.3310 C   0  0  0  0  0  0
   -4.9450  -31.8620  -10.0140 C   0  0  0  0  0  0
   -3.6230  -31.7210   -9.6510 C   0  0  0  0  0  0
   -2.6530  -31.6990  -10.6240 C   0  0  0  0  0  0
   -0.5807  -30.2547  -18.2005 H   0  0  0  0  0  0
   -0.8254  -30.8878  -20.4900 H   0  0  0  0  0  0
   -4.4395  -31.0945  -19.7622 H   0  0  0  0  0  0
   -5.4014  -30.6189  -17.5418 H   0  0  0  0  0  0
   -3.9858  -29.9479  -15.6081 H   0  0  0  0  0  0
   -3.0454  -30.1258  -13.8673 H   0  0  0  0  0  0
    0.5969  -31.4482  -15.6389 H   0  0  0  0  0  0
    1.6700  -33.0551  -14.7539 H   0  0  0  0  0  0
    0.6832  -34.3498  -13.9946 H   0  0  0  0  0  0
    1.5950  -33.1947  -12.9646 H   0  0  0  0  0  0
   -4.6085  -32.0234  -13.3407 H   0  0  0  0  0  0
   -6.3650  -32.0937  -11.6082 H   0  0  0  0  0  0
   -5.7117  -31.8803   -9.2395 H   0  0  0  0  0  0
   -3.3490  -31.6277   -8.6001 H   0  0  0  0  0  0
   -1.6048  -31.5765  -10.3511 H   0  0  0  0  0  0
  1  2  2  0  0  0
  1  7  1  0  0  0
  1 22  1  0  0  0
  2  3  1  0  0  0
  2  4  1  0  0  0
  3 23  1  0  0  0
  4  5  2  0  0  0
  4 24  1  0  0  0
  5  6  1  0  0  0
  5 25  1  0  0  0
  6  7  2  0  0  0
  6 26  1  0  0  0
  7  8  1  0  0  0
  8  9  1  0  0  0
  9 10  2  0  0  0
  9 11  1  0  0  0
 10 15  1  0  0  0
 10 27  1  0  0  0
 11 12  2  0  0  0
 11 28  1  0  0  0
 12 13  1  0  0  0
 12 14  1  0  0  0
 13 29  1  0  0  0
 13 30  1  0  0  0
 13 31  1  0  0  0
 14 15  2  0  0  0
 15 16  1  0  0  0
 16 17  2  0  0  0
 16 21  1  0  0  0
 17 18  1  0  0  0
 17 32  1  0  0  0
 18 19  2  0  0  0
 18 33  1  0  0  0
 19 20  1  0  0  0
 19 34  1  0  0  0
 20 21  2  0  0  0
 20 35  1  0  0  0
 21 36  1  0  0  0
M  END
> <s_m_source_file>
../4p7m_ligand.sdf

> <i_m_source_file_index>
1

> <s_epik_input>
W09IXWMxW2NIXWMoW2NIXVtjSF1bY0hdMSlPYzJbY0hdYyhuYyhbY0hdMilbQ0gzXSktYzNbY0hdW2NIXVtjSF1bY0hdW2NIXTM=

> <s_epik_cmdline>
J2VwaWtfYXBwJywgJy1pbWFlJywgJ2xpZ2FuZF9wcm8ubWFlJywgJy1vbWFlJywgJ2xpZ2FuZF9wcmVwLm1hZScsICctbXMnLCAnMScsICctcGgnLCAnNycsICctcGh0JywgJzAuNScsICctbnQn

> <r_lp_tautomer_probability>
0.9999999999415

> <r_epik_Ionization_Penalty>
  0.2295

> <r_epik_Ionization_Penalty_Charging>
  0.0000

> <r_epik_Ionization_Penalty_Neutral>
  0.2295

> <r_epik_State_Penalty>
  0.2184

> <r_epik_Charging_Adjusted_Penalty>
0.218369895027329

> <i_epik_Tot_Q>
0

> <i_epik_Tot_abs_Q>
0

$$$$
