4p7s_ligand
                    3D
 Schrodinger Suite 2020-3.
 46 48  0  0  1  0            999 V2000
  -30.3010  -29.8840   -2.8220 C   0  0  0  0  0  0
  -28.8680  -29.8820   -3.0430 O   0  0  0  0  0  0
  -28.4680  -28.7630   -3.6950 C   0  0  0  0  0  0
  -28.7310  -27.5620   -3.0740 C   0  0  0  0  0  0
  -27.8250  -28.7810   -4.9450 C   0  0  0  0  0  0
  -27.4460  -27.5780   -5.5670 C   0  0  0  0  0  0
  -26.8170  -27.6700   -6.7940 C   0  0  0  0  0  0
  -27.7340  -26.3440   -4.9300 C   0  0  0  0  0  0
  -28.4060  -26.3450   -3.6720 C   0  0  0  0  0  0
  -28.7040  -25.2140   -2.9300 O   0  0  0  0  0  0
  -30.0170  -24.9090   -2.6190 C   0  0  0  0  0  0
  -30.4950  -23.7640   -3.1980 C   0  0  0  0  0  0
  -30.9130  -25.6190   -1.7700 C   0  0  0  0  0  0
  -32.2460  -25.1760   -1.5380 C   0  0  0  0  0  0
  -33.1640  -25.8460   -0.6980 C   0  0  0  0  0  0
  -32.6380  -24.0470   -2.1370 N   0  0  0  0  0  0
  -31.8010  -23.3730   -2.9570 C   0  0  0  0  0  0
  -32.2690  -22.2230   -3.5340 C   0  0  0  0  0  0
  -33.4860  -22.2380   -4.2200 C   0  0  0  0  0  0
  -34.0010  -21.0830   -4.7660 C   0  0  0  0  0  0
  -33.2610  -19.9230   -4.6150 C   0  0  0  0  0  0
  -33.7500  -18.7680   -5.1520 O   0  0  0  0  0  0
  -33.3290  -17.5650   -4.4760 C   0  0  0  0  0  0
  -32.0310  -19.9200   -3.9270 C   0  0  0  0  0  0
  -31.5340  -21.0720   -3.3760 C   0  0  0  0  0  0
  -30.5890  -30.8040   -2.2922 H   0  0  0  0  0  0
  -30.8214  -29.8402   -3.7902 H   0  0  0  0  0  0
  -30.5797  -29.0093   -2.2160 H   0  0  0  0  0  0
  -29.2043  -27.5629   -2.0921 H   0  0  0  0  0  0
  -27.6190  -29.7327   -5.4348 H   0  0  0  0  0  0
  -26.7083  -28.7288   -7.0718 H   0  0  0  0  0  0
  -25.8229  -27.2032   -6.7323 H   0  0  0  0  0  0
  -27.4191  -27.1513   -7.5545 H   0  0  0  0  0  0
  -27.4443  -25.4031   -5.3978 H   0  0  0  0  0  0
  -29.8524  -23.1652   -3.8435 H   0  0  0  0  0  0
  -30.5674  -26.5305   -1.2823 H   0  0  0  0  0  0
  -32.6915  -26.7496   -0.2855 H   0  0  0  0  0  0
  -34.0533  -26.1303   -1.2797 H   0  0  0  0  0  0
  -33.4618  -25.1796    0.1250 H   0  0  0  0  0  0
  -34.0342  -23.1743   -4.3243 H   0  0  0  0  0  0
  -34.9535  -21.0825   -5.2960 H   0  0  0  0  0  0
  -33.7697  -16.6900   -4.9761 H   0  0  0  0  0  0
  -32.2319  -17.4915   -4.5076 H   0  0  0  0  0  0
  -33.6644  -17.5964   -3.4288 H   0  0  0  0  0  0
  -31.4688  -18.9910   -3.8321 H   0  0  0  0  0  0
  -30.5896  -21.0756   -2.8318 H   0  0  0  0  0  0
  1  2  1  0  0  0
  1 26  1  0  0  0
  1 27  1  0  0  0
  1 28  1  0  0  0
  2  3  1  0  0  0
  3  4  2  0  0  0
  3  5  1  0  0  0
  4  9  1  0  0  0
  4 29  1  0  0  0
  5  6  2  0  0  0
  5 30  1  0  0  0
  6  7  1  0  0  0
  6  8  1  0  0  0
  7 31  1  0  0  0
  7 32  1  0  0  0
  7 33  1  0  0  0
  8  9  2  0  0  0
  8 34  1  0  0  0
  9 10  1  0  0  0
 10 11  1  0  0  0
 11 12  2  0  0  0
 11 13  1  0  0  0
 12 17  1  0  0  0
 12 35  1  0  0  0
 13 14  2  0  0  0
 13 36  1  0  0  0
 14 15  1  0  0  0
 14 16  1  0  0  0
 15 37  1  0  0  0
 15 38  1  0  0  0
 15 39  1  0  0  0
 16 17  2  0  0  0
 17 18  1  0  0  0
 18 19  2  0  0  0
 18 25  1  0  0  0
 19 20  1  0  0  0
 19 40  1  0  0  0
 20 21  2  0  0  0
 20 41  1  0  0  0
 21 22  1  0  0  0
 21 24  1  0  0  0
 22 23  1  0  0  0
 23 42  1  0  0  0
 23 43  1  0  0  0
 23 44  1  0  0  0
 24 25  2  0  0  0
 24 45  1  0  0  0
 25 46  1  0  0  0
M  END
> <s_m_source_file>
../4p7s_ligand.sdf

> <i_m_source_file_index>
1

> <s_epik_input>
W0NIM11PYzFbY0hdYyhbY0hdYyhbY0hdMSlbQ0gzXSlPYzJbY0hdYyhuYyhbY0hdMilbQ0gzXSktYzNbY0hdW2NIXWMoT1tDSDNdKVtjSF1bY0hdMw==

> <s_epik_cmdline>
J2VwaWtfYXBwJywgJy1pbWFlJywgJ2xpZ2FuZF9wcm8ubWFlJywgJy1vbWFlJywgJ2xpZ2FuZF9wcmVwLm1hZScsICctbXMnLCAnMScsICctcGgnLCAnNycsICctcGh0JywgJzAuNScsICctbnQn

> <r_lp_tautomer_probability>
1

> <r_epik_Ionization_Penalty>
  0.0490

> <r_epik_Ionization_Penalty_Charging>
  0.0000

> <r_epik_Ionization_Penalty_Neutral>
  0.0490

> <r_epik_State_Penalty>
  0.0419

> <r_epik_Charging_Adjusted_Penalty>
0.0418668059242056

> <i_epik_Tot_Q>
0

> <i_epik_Tot_abs_Q>
0

$$$$
