4pax_ligand
                    3D
 Schrodinger Suite 2020-3.
 21 22  0  0  1  0            999 V2000
   39.8440   22.5140   21.9820 C   0  0  0  0  0  0
   38.4950   22.3890   21.5850 O   0  0  0  0  0  0
   40.8640   23.0640   21.1180 C   0  0  0  0  0  0
   40.5810   23.5140   19.8540 N   0  0  0  0  0  0
   41.4750   24.0120   19.0810 C   0  0  0  0  0  0
   41.0660   24.4710   17.7210 C   0  0  0  0  0  0
   42.7650   24.1310   19.4150 N   0  0  0  0  0  0
   43.2080   23.7340   20.6200 C   0  0  0  0  0  0
   44.3880   23.8360   20.9660 O   0  0  0  0  0  0
   42.2000   23.1530   21.5860 C   0  0  0  0  0  0
   42.5440   22.7080   22.8850 C   0  0  0  0  0  0
   41.5410   22.1690   23.7240 C   0  0  0  0  0  0
   40.2080   22.0680   23.2730 C   0  0  0  0  0  0
   38.1820   22.7274   20.5862 H   0  0  0  0  0  0
   39.9854   24.3124   17.5901 H   0  0  0  0  0  0
   41.6156   23.8978   16.9599 H   0  0  0  0  0  0
   41.2955   25.5411   17.6108 H   0  0  0  0  0  0
   43.4814   24.5593   18.6985 H   0  0  0  0  0  0
   43.5735   22.7801   23.2358 H   0  0  0  0  0  0
   41.7999   21.8290   24.7267 H   0  0  0  0  0  0
   39.4492   21.6406   23.9284 H   0  0  0  0  0  0
  1  2  1  0  0  0
  1  3  2  0  0  0
  1 13  1  0  0  0
  2 14  1  0  0  0
  3  4  1  0  0  0
  3 10  1  0  0  0
  4  5  2  0  0  0
  5  6  1  0  0  0
  5  7  1  0  0  0
  6 15  1  0  0  0
  6 16  1  0  0  0
  6 17  1  0  0  0
  7  8  1  0  0  0
  7 18  1  0  0  0
  8  9  2  0  0  0
  8 10  1  0  0  0
 10 11  2  0  0  0
 11 12  1  0  0  0
 11 19  1  0  0  0
 12 13  2  0  0  0
 12 20  1  0  0  0
 13 21  1  0  0  0
M  END
> <s_m_source_file>
../4pax_ligand.sdf

> <i_m_source_file_index>
1

> <s_epik_input>
W09IXWMxW2NIXVtjSF1bY0hdYyhjMTIpYyg9TylbbkhdYyhuMilbQ0gzXQ==

> <s_epik_cmdline>
J2VwaWtfYXBwJywgJy1pbWFlJywgJ2xpZ2FuZF9wcm8ubWFlJywgJy1vbWFlJywgJ2xpZ2FuZF9wcmVwLm1hZScsICctbXMnLCAnMScsICctcGgnLCAnNycsICctcGh0JywgJzAuNScsICctbnQn

> <r_epik_Ionization_Penalty>
  0.0729

> <r_epik_Ionization_Penalty_Charging>
  0.0010

> <r_epik_Ionization_Penalty_Neutral>
  0.0719

> <r_epik_State_Penalty>
  0.0631

> <r_epik_Charging_Adjusted_Penalty>
0.0641533477785786

> <i_epik_Tot_Q>
0

> <i_epik_Tot_abs_Q>
0

$$$$
