4pb2_ligand
                    3D
 Schrodinger Suite 2020-3.
 29 30  0  0  1  0            999 V2000
   49.3120  -22.1150   -5.4020 F   0  0  0  0  0  0
   49.7840  -21.6070   -6.5180 C   0  0  0  0  0  0
   49.1780  -21.9580   -7.7730 C   0  0  0  0  0  0
   48.2220  -22.7290   -7.8050 O   0  0  0  0  0  0
   49.6850  -21.4160   -8.9370 N   0  0  0  0  0  0
   50.7510  -20.5560   -8.8810 C   0  0  0  0  0  0
   51.2000  -20.0770   -9.9070 O   0  0  0  0  0  0
   50.8260  -20.7650   -6.4950 C   0  0  0  0  0  0
   51.3110  -20.2380   -7.6780 N   0  0  0  0  0  0
   52.4700  -19.3000   -7.6430 C   0  0  1  0  0  0
   52.0460  -17.8390   -7.7350 C   0  0  2  0  0  0
   52.9790  -17.1330   -8.5280 O   0  0  0  0  0  0
   52.1290  -17.3580   -6.3000 C   0  0  2  0  0  0
   52.4150  -15.9660   -6.2630 O   0  0  0  0  0  0
   53.3090  -18.1610   -5.7810 C   0  0  2  0  0  0
   53.2130  -19.4510   -6.4420 O   0  0  0  0  0  0
   53.1770  -18.3620   -4.2840 C   0  0  0  0  0  0
   51.9310  -18.8510   -3.8010 O   0  0  0  0  0  0
   49.2337  -21.6745   -9.9063 H   0  0  0  0  0  0
   51.2903  -20.4961   -5.5462 H   0  0  0  0  0  0
   53.1238  -19.5895   -8.4789 H   0  0  0  0  0  0
   51.0798  -17.6551   -8.2275 H   0  0  0  0  0  0
   53.0619  -17.3493   -9.6033 H   0  0  0  0  0  0
   51.2026  -17.4303   -5.7112 H   0  0  0  0  0  0
   51.6625  -15.2406   -6.6059 H   0  0  0  0  0  0
   54.2777  -17.6877   -5.9991 H   0  0  0  0  0  0
   53.9295  -19.0887   -3.9439 H   0  0  0  0  0  0
   53.3352  -17.4025   -3.7698 H   0  0  0  0  0  0
   51.7846  -19.0138   -2.7230 H   0  0  0  0  0  0
  1  2  1  0  0  0
  2  3  1  0  0  0
  2  8  2  0  0  0
  3  4  2  0  0  0
  3  5  1  0  0  0
  5  6  1  0  0  0
  5 19  1  0  0  0
  6  7  2  0  0  0
  6  9  1  0  0  0
  8  9  1  0  0  0
  8 20  1  0  0  0
  9 10  1  0  0  0
 10 11  1  0  0  0
 10 16  1  0  0  0
 10 21  1  0  0  0
 11 12  1  0  0  0
 11 13  1  0  0  0
 11 22  1  0  0  0
 12 23  1  0  0  0
 13 14  1  0  0  0
 13 15  1  0  0  0
 13 24  1  0  0  0
 14 25  1  0  0  0
 15 16  1  0  0  0
 15 17  1  0  0  0
 15 26  1  0  0  0
 17 18  1  0  0  0
 17 27  1  0  0  0
 17 28  1  0  0  0
 18 29  1  0  0  0
M  END
> <s_m_source_file>
../4pb2_ligand.sdf

> <i_m_source_file_index>
1

> <s_epik_input>
RmMxYyg9TylbbkhdYyg9TyluKFtjSF0xKVtDQEhdMltDQEhdKFtPSF0pW0NASF0oW09IXSlbQ0BIXShPMilbQ0gyXVtPSF0=

> <s_epik_cmdline>
J2VwaWtfYXBwJywgJy1pbWFlJywgJ2xpZ2FuZF9wcm8ubWFlJywgJy1vbWFlJywgJ2xpZ2FuZF9wcmVwLm1hZScsICctbXMnLCAnMScsICctcGgnLCAnNycsICctcGh0JywgJzAuNScsICctbnQn

> <r_lp_tautomer_probability>
0.999537046341301

> <r_epik_Ionization_Penalty>
  0.0459

> <r_epik_Ionization_Penalty_Charging>
  0.0459

> <r_epik_Ionization_Penalty_Neutral>
  0.0000

> <r_epik_State_Penalty>
  0.0390

> <r_epik_Charging_Adjusted_Penalty>
0.084903520617128

> <i_epik_Tot_Q>
0

> <i_epik_Tot_abs_Q>
0

> <s_epik_Chemistry_Notes>
This compound contains an acetal/aminal-like group ( X-CH(R)-Y where X, Y are N, S, or O) that may be acid/base labile, releasing an aldehyde.

$$$$
