4pce_ligand
                    3D
 Schrodinger Suite 2020-3.
 38 40  0  0  1  0            999 V2000
   15.3310    4.3600    0.0240 O   0  0  0  0  0  0
   14.1950    4.8160   -0.0120 C   0  0  0  0  0  0
   13.7380    5.8370    0.9620 C   0  0  0  0  0  0
   14.4140    6.5550    1.9340 C   0  0  0  0  0  0
   13.1680    4.2780   -0.9880 C   0  0  0  0  0  0
   11.9740    5.2170   -1.1680 C   0  0  0  0  0  0
   11.3140    5.5930    0.1520 C   0  0  0  0  0  0
   12.3980    6.1650    1.0230 C   0  0  0  0  0  0
   12.2440    7.0720    1.9860 N   0  0  0  0  0  0
   13.4370    7.3300    2.5580 C   0  0  0  0  0  0
   13.6380    8.3180    3.6910 C   0  0  0  0  0  0
   15.0870    8.4210    4.1120 C   0  0  0  0  0  0
   10.9540    7.6550    2.3730 C   0  0  0  0  0  0
   10.1930    6.6340    3.2110 C   0  0  0  0  0  0
   10.7510    6.1500    4.3930 C   0  0  0  0  0  0
   10.0710    5.2140    5.1720 C   0  0  0  0  0  0
    8.8250    4.7550    4.7670 C   0  0  0  0  0  0
    8.2650    5.2340    3.5880 C   0  0  0  0  0  0
    8.9410    6.1710    2.8090 C   0  0  0  0  0  0
   15.4794    6.5216    2.1621 H   0  0  0  0  0  0
   13.6368    4.1374   -1.9731 H   0  0  0  0  0  0
   12.7853    3.3135   -0.6230 H   0  0  0  0  0  0
   12.3081    6.1461   -1.6530 H   0  0  0  0  0  0
   11.2145    4.7282   -1.7959 H   0  0  0  0  0  0
   10.5240    6.3360   -0.0317 H   0  0  0  0  0  0
   10.8736    4.6953    0.6106 H   0  0  0  0  0  0
   13.3045    9.3161    3.3706 H   0  0  0  0  0  0
   13.0512    7.9983    4.5648 H   0  0  0  0  0  0
   15.1795    9.1472    4.9330 H   0  0  0  0  0  0
   15.6943    8.7543    3.2575 H   0  0  0  0  0  0
   15.4410    7.4365    4.4516 H   0  0  0  0  0  0
   11.1262    8.5690    2.9604 H   0  0  0  0  0  0
   10.3778    7.9030    1.4694 H   0  0  0  0  0  0
   11.7301    6.5071    4.7123 H   0  0  0  0  0  0
   10.5164    4.8442    6.0956 H   0  0  0  0  0  0
    8.2884    4.0227    5.3703 H   0  0  0  0  0  0
    7.2871    4.8728    3.2697 H   0  0  0  0  0  0
    8.4919    6.5411    1.8874 H   0  0  0  0  0  0
  1  2  2  0  0  0
  2  3  1  0  0  0
  2  5  1  0  0  0
  3  4  1  0  0  0
  3  8  2  0  0  0
  4 10  2  0  0  0
  4 20  1  0  0  0
  5  6  1  0  0  0
  5 21  1  0  0  0
  5 22  1  0  0  0
  6  7  1  0  0  0
  6 23  1  0  0  0
  6 24  1  0  0  0
  7  8  1  0  0  0
  7 25  1  0  0  0
  7 26  1  0  0  0
  8  9  1  0  0  0
  9 10  1  0  0  0
  9 13  1  0  0  0
 10 11  1  0  0  0
 11 12  1  0  0  0
 11 27  1  0  0  0
 11 28  1  0  0  0
 12 29  1  0  0  0
 12 30  1  0  0  0
 12 31  1  0  0  0
 13 14  1  0  0  0
 13 32  1  0  0  0
 13 33  1  0  0  0
 14 15  2  0  0  0
 14 19  1  0  0  0
 15 16  1  0  0  0
 15 34  1  0  0  0
 16 17  2  0  0  0
 16 35  1  0  0  0
 17 18  1  0  0  0
 17 36  1  0  0  0
 18 19  2  0  0  0
 18 37  1  0  0  0
 19 38  1  0  0  0
M  END
> <s_m_source_file>
../4pce_ligand.sdf

> <i_m_source_file_index>
1

> <s_epik_input>
Tz1DMVtDSDJdW0NIMl1bQ0gyXWMoYzEyKW4oYyhbY0hdMilbQ0gyXVtDSDNdKVtDSDJdYzNbY0hdW2NIXVtjSF1bY0hdW2NIXTM=

> <s_epik_cmdline>
J2VwaWtfYXBwJywgJy1pbWFlJywgJ2xpZ2FuZF9wcm8ubWFlJywgJy1vbWFlJywgJ2xpZ2FuZF9wcmVwLm1hZScsICctbXMnLCAnMScsICctcGgnLCAnNycsICctcGh0JywgJzAuNScsICctbnQn

> <r_lp_tautomer_probability>
1

> <r_epik_Ionization_Penalty>
  0.0000

> <r_epik_Ionization_Penalty_Charging>
  0.0000

> <r_epik_Ionization_Penalty_Neutral>
  0.0000

> <r_epik_State_Penalty>
 -0.0000

> <r_epik_Charging_Adjusted_Penalty>
0

> <i_epik_Tot_Q>
0

> <i_epik_Tot_abs_Q>
0

$$$$
