4pci_ligand
                    3D
 Schrodinger Suite 2020-3.
 35 37  0  0  1  0            999 V2000
   14.7690    4.6140    0.0960 O   0  0  0  0  0  0
   13.7690    5.3220    0.2010 C   0  0  0  0  0  0
   12.6000    4.9480   -0.3040 N   0  0  0  0  0  0
   12.4730    3.7170   -1.0850 C   0  0  0  0  0  0
   13.8060    6.6440    0.9320 C   0  0  0  0  0  0
   13.2710    6.4620    2.3530 C   0  0  1  0  0  0
   13.3210    7.7720    3.0740 C   0  0  0  0  0  0
   12.3520    8.7630    2.8910 C   0  0  0  0  0  0
   12.4340    9.9800    3.5740 C   0  0  0  0  0  0
   13.4910   10.2010    4.4470 C   0  0  0  0  0  0
   14.4680    9.2270    4.6250 C   0  0  0  0  0  0
   14.3830    8.0210    3.9360 C   0  0  0  0  0  0
   11.9340    5.8750    2.3090 N   0  0  0  0  0  0
   11.0830    6.0590    1.2550 C   0  0  0  0  0  0
   11.4010    5.6400   -0.0340 C   0  0  0  0  0  0
    9.8570    6.6830    1.4740 C   0  0  0  0  0  0
    8.9490    6.8770    0.4350 C   0  0  0  0  0  0
    9.2700    6.4600   -0.8480 C   0  0  0  0  0  0
   10.4940    5.8420   -1.0770 C   0  0  0  0  0  0
   13.4678    3.2704   -1.2298 H   0  0  0  0  0  0
   12.0288    3.9483   -2.0644 H   0  0  0  0  0  0
   11.8270    3.0070   -0.5478 H   0  0  0  0  0  0
   14.8426    7.0095    0.9765 H   0  0  0  0  0  0
   13.1819    7.3758    0.3982 H   0  0  0  0  0  0
   13.8652    5.7469    2.9409 H   0  0  0  0  0  0
   11.5222    8.5845    2.2072 H   0  0  0  0  0  0
   11.6755   10.7481    3.4227 H   0  0  0  0  0  0
   13.5554   11.1411    4.9948 H   0  0  0  0  0  0
   15.3007    9.4085    5.3046 H   0  0  0  0  0  0
   15.1559    7.2648    4.0733 H   0  0  0  0  0  0
   11.5769    5.2569    3.1459 H   0  0  0  0  0  0
    9.6032    7.0260    2.4770 H   0  0  0  0  0  0
    7.9891    7.3552    0.6302 H   0  0  0  0  0  0
    8.5696    6.6152   -1.6687 H   0  0  0  0  0  0
   10.7493    5.5107   -2.0836 H   0  0  0  0  0  0
  1  2  2  0  0  0
  2  3  1  0  0  0
  2  5  1  0  0  0
  3  4  1  0  0  0
  3 15  1  0  0  0
  4 20  1  0  0  0
  4 21  1  0  0  0
  4 22  1  0  0  0
  5  6  1  0  0  0
  5 23  1  0  0  0
  5 24  1  0  0  0
  6  7  1  0  0  0
  6 13  1  0  0  0
  6 25  1  0  0  0
  7  8  2  0  0  0
  7 12  1  0  0  0
  8  9  1  0  0  0
  8 26  1  0  0  0
  9 10  2  0  0  0
  9 27  1  0  0  0
 10 11  1  0  0  0
 10 28  1  0  0  0
 11 12  2  0  0  0
 11 29  1  0  0  0
 12 30  1  0  0  0
 13 14  1  0  0  0
 13 31  1  0  0  0
 14 15  2  0  0  0
 14 16  1  0  0  0
 15 19  1  0  0  0
 16 17  2  0  0  0
 16 32  1  0  0  0
 17 18  1  0  0  0
 17 33  1  0  0  0
 18 19  2  0  0  0
 18 34  1  0  0  0
 19 35  1  0  0  0
M  END
> <s_m_source_file>
../4pci_ligand.sdf

> <i_m_source_file_index>
1

> <s_epik_input>
W2NIXTFbY0hdW2NIXVtjSF1jKGMxMilOKFtDSDNdKUMoPU8pW0NIMl1bQ0BIXShbTkhdMiljM1tjSF1bY0hdW2NIXVtjSF1bY0hdMw==

> <s_epik_cmdline>
J2VwaWtfYXBwJywgJy1pbWFlJywgJ2xpZ2FuZF9wcm8ubWFlJywgJy1vbWFlJywgJ2xpZ2FuZF9wcmVwLm1hZScsICctbXMnLCAnMScsICctcGgnLCAnNycsICctcGh0JywgJzAuNScsICctbnQn

> <r_lp_tautomer_probability>
1

> <r_epik_Ionization_Penalty>
  0.0001

> <r_epik_Ionization_Penalty_Charging>
  0.0000

> <r_epik_Ionization_Penalty_Neutral>
  0.0001

> <r_epik_State_Penalty>
 -0.0000

> <r_epik_Charging_Adjusted_Penalty>
0

> <i_epik_Tot_Q>
0

> <i_epik_Tot_abs_Q>
0

$$$$
