4pct_ligand
                    3D
 Schrodinger Suite 2020-3.
 21 21  0  0  1  0            999 V2000
   33.1810    6.9870   57.6240 C   0  0  0  0  0  0
   32.5850    6.5070   56.9430 C   0  0  0  0  0  0
   31.7110    5.8440   55.8920 C   0  0  2  0  0  0
   30.2850    6.1160   56.1850 N   0  3  0  0  0  0
   29.6350    4.7890   56.2470 C   0  0  1  0  0  0
   28.1630    4.7670   55.7720 C   0  0  0  0  0  0
   30.5170    3.9360   55.3640 C   0  0  1  0  0  0
   30.4200    4.3690   53.9940 O   0  0  0  0  0  0
   31.8400    4.2850   55.9550 C   0  0  1  0  0  0
   32.9110    3.6980   55.2110 O   0  0  0  0  0  0
   32.0025    6.2740   54.9224 H   0  0  0  0  0  0
   30.2029    6.6490   57.1437 H   0  0  0  0  0  0
   29.8576    6.7359   55.3831 H   0  0  0  0  0  0
   29.5907    4.4556   57.2943 H   0  0  0  0  0  0
   27.5538    5.3969   56.4368 H   0  0  0  0  0  0
   27.7850    3.7343   55.7973 H   0  0  0  0  0  0
   28.1036    5.1541   54.7441 H   0  0  0  0  0  0
   30.2910    2.8616   55.2957 H   0  0  0  0  0  0
   29.4993    4.1817   53.4219 H   0  0  0  0  0  0
   32.1057    3.8505   56.9300 H   0  0  0  0  0  0
   33.9528    3.8636   55.5228 H   0  0  0  0  0  0
  1  2  3  0  0  0
  2  3  1  0  0  0
  3  4  1  0  0  0
  3  9  1  0  0  0
  3 11  1  0  0  0
  4  5  1  0  0  0
  4 12  1  0  0  0
  4 13  1  0  0  0
  5  6  1  0  0  0
  5  7  1  0  0  0
  5 14  1  0  0  0
  6 15  1  0  0  0
  6 16  1  0  0  0
  6 17  1  0  0  0
  7  8  1  0  0  0
  7  9  1  0  0  0
  7 18  1  0  0  0
  8 19  1  0  0  0
  9 10  1  0  0  0
  9 20  1  0  0  0
 10 21  1  0  0  0
M  CHG  1   4   1
M  END
> <s_m_source_file>
../4pct_ligand.sdf

> <i_m_source_file_index>
1

> <s_epik_input>
W0NIXSNDW0NAQEhdMVtOSDIrXVtDQEBIXShbQ0gzXSlbQ0BASF0oW09IXSlbQ0BIXTFbT0hd

> <s_epik_cmdline>
J2VwaWtfYXBwJywgJy1pbWFlJywgJ2xpZ2FuZF9wcm8ubWFlJywgJy1vbWFlJywgJ2xpZ2FuZF9wcmVwLm1hZScsICctbXMnLCAnMScsICctcGgnLCAnNycsICctcGh0JywgJzAuNScsICctbnQn

> <r_lp_tautomer_probability>
1

> <r_epik_Ionization_Penalty>
  0.0010

> <r_epik_Ionization_Penalty_Charging>
  0.0010

> <r_epik_Ionization_Penalty_Neutral>
  0.0000

> <r_epik_State_Penalty>
 -0.0000

> <r_epik_Charging_Adjusted_Penalty>
0.0010311692110114

> <i_epik_Tot_Q>
1

> <i_epik_Tot_abs_Q>
1

$$$$
