4pd6_ligand
                    3D
 Schrodinger Suite 2020-3.
 29 30  0  0  1  0            999 V2000
   51.3240  -20.2550   -8.9720 N   0  0  0  0  0  0
   50.6500  -20.5480  -10.1420 C   0  0  0  0  0  0
   49.5860  -21.4020   -9.9980 N   0  0  0  0  0  0
   49.1360  -21.9800   -8.8280 C   0  0  0  0  0  0
   49.8840  -21.6290   -7.6610 C   0  0  0  0  0  0
   50.9270  -20.7990   -7.7710 C   0  0  0  0  0  0
   50.9660  -20.0930  -11.2260 O   0  0  0  0  0  0
   48.1610  -22.7280   -8.8620 O   0  0  0  0  0  0
   52.4890  -19.3420   -9.0550 C   0  0  1  0  0  0
   52.0690  -17.8900   -9.2610 C   0  0  1  0  0  0
   52.0480  -17.3790   -7.8250 C   0  0  1  0  0  0
   53.2150  -18.1170   -7.1930 C   0  0  2  0  0  0
   53.0810  -17.2340  -10.0080 O   0  0  0  0  0  0
   52.1570  -15.9710   -7.7290 O   0  0  0  0  0  0
   53.2100  -19.4170   -7.8410 O   0  0  0  0  0  0
   53.1510  -18.2980   -5.6940 C   0  0  0  0  0  0
   51.9010  -18.8360   -5.2900 O   0  0  0  0  0  0
   48.9909  -21.6922  -10.8764 H   0  0  0  0  0  0
   49.6061  -22.0351   -6.6884 H   0  0  0  0  0  0
   51.4866  -20.5423   -6.8715 H   0  0  0  0  0  0
   53.1369  -19.6899   -9.8731 H   0  0  0  0  0  0
   51.1533  -17.7050   -9.8418 H   0  0  0  0  0  0
   51.0880  -17.4967   -7.3010 H   0  0  0  0  0  0
   54.1471  -17.5567   -7.3582 H   0  0  0  0  0  0
   53.2327  -17.4857  -11.0680 H   0  0  0  0  0  0
   51.3704  -15.3284   -8.1513 H   0  0  0  0  0  0
   53.9471  -18.9861   -5.3735 H   0  0  0  0  0  0
   53.2876  -17.3242   -5.2009 H   0  0  0  0  0  0
   51.7022  -19.0255   -4.2248 H   0  0  0  0  0  0
  1  2  1  0  0  0
  1  6  1  0  0  0
  1  9  1  0  0  0
  2  3  1  0  0  0
  2  7  2  0  0  0
  3  4  1  0  0  0
  3 18  1  0  0  0
  4  5  1  0  0  0
  4  8  2  0  0  0
  5  6  2  0  0  0
  5 19  1  0  0  0
  6 20  1  0  0  0
  9 10  1  0  0  0
  9 15  1  0  0  0
  9 21  1  0  0  0
 10 11  1  0  0  0
 10 13  1  0  0  0
 10 22  1  0  0  0
 11 12  1  0  0  0
 11 14  1  0  0  0
 11 23  1  0  0  0
 12 15  1  0  0  0
 12 16  1  0  0  0
 12 24  1  0  0  0
 13 25  1  0  0  0
 14 26  1  0  0  0
 16 17  1  0  0  0
 16 27  1  0  0  0
 16 28  1  0  0  0
 17 29  1  0  0  0
M  END
> <s_m_source_file>
../4pd6_ligand.sdf

> <i_m_source_file_index>
1

> <s_epik_input>
W2NIXTFbY0hdYyg9TylbbkhdYyg9TyluMVtDQEhdMltDQEhdKFtPSF0pW0NASF0oW09IXSlbQ0BIXShPMilbQ0gyXVtPSF0=

> <s_epik_cmdline>
J2VwaWtfYXBwJywgJy1pbWFlJywgJ2xpZ2FuZF9wcm8ubWFlJywgJy1vbWFlJywgJ2xpZ2FuZF9wcmVwLm1hZScsICctbXMnLCAnMScsICctcGgnLCAnNycsICctcGh0JywgJzAuNScsICctbnQn

> <r_lp_tautomer_probability>
1

> <r_epik_Ionization_Penalty>
  0.0026

> <r_epik_Ionization_Penalty_Charging>
  0.0026

> <r_epik_Ionization_Penalty_Neutral>
  0.0000

> <r_epik_State_Penalty>
 -0.0000

> <r_epik_Charging_Adjusted_Penalty>
0.00262925139162556

> <i_epik_Tot_Q>
0

> <i_epik_Tot_abs_Q>
0

> <s_epik_Chemistry_Notes>
This compound contains an acetal/aminal-like group ( X-CH(R)-Y where X, Y are N, S, or O) that may be acid/base labile, releasing an aldehyde.

$$$$
