4pd7_ligand
                    3D
 Schrodinger Suite 2020-3.
 28 29  0  0  1  0            999 V2000
   51.2010  -20.3080   -8.6090 N   0  0  0  0  0  0
   50.5480  -20.6020   -9.7900 C   0  0  0  0  0  0
   50.8870  -20.0590  -10.8270 O   0  0  0  0  0  0
   49.5090  -21.5030   -9.8040 N   0  0  0  0  0  0
   49.1220  -22.1200   -8.6310 C   0  0  0  0  0  0
   49.8150  -21.8030   -7.4100 C   0  0  0  0  0  0
   50.8220  -20.9180   -7.4270 C   0  0  0  0  0  0
   52.3250  -19.3270   -8.5990 C   0  0  1  0  0  0
   51.8630  -17.8760   -8.6040 C   0  0  2  0  0  0
   52.7350  -17.1250   -9.4230 O   0  0  0  0  0  0
   51.9000  -17.4870   -7.1380 C   0  0  2  0  0  0
   52.2240  -16.1140   -6.9690 O   0  0  0  0  0  0
   52.9880  -18.3750   -6.5550 C   0  0  2  0  0  0
   53.1590  -19.4960   -7.4640 O   0  0  0  0  0  0
   52.9060  -18.6560   -5.0680 C   0  0  0  0  0  0
   51.6440  -19.0700   -4.5610 O   0  0  0  0  0  0
   48.3020  -22.8381   -8.6297 H   0  0  0  0  0  0
   49.5222  -22.2806   -6.4750 H   0  0  0  0  0  0
   51.3461  -20.6774   -6.5021 H   0  0  0  0  0  0
   52.9235  -19.5665   -9.4903 H   0  0  0  0  0  0
   50.8898  -17.6552   -9.0668 H   0  0  0  0  0  0
   52.7856  -17.3272  -10.5031 H   0  0  0  0  0  0
   50.9256  -17.5550   -6.6320 H   0  0  0  0  0  0
   51.5375  -15.3375   -7.3375 H   0  0  0  0  0  0
   53.9661  -17.8717   -6.5501 H   0  0  0  0  0  0
   53.6091  -19.4609   -4.8077 H   0  0  0  0  0  0
   53.1669  -17.7459   -4.5079 H   0  0  0  0  0  0
   51.5264  -19.2876   -3.4892 H   0  0  0  0  0  0
  1  2  1  0  0  0
  1  7  1  0  0  0
  1  8  1  0  0  0
  2  3  2  0  0  0
  2  4  1  0  0  0
  4  5  2  0  0  0
  5  6  1  0  0  0
  5 17  1  0  0  0
  6  7  2  0  0  0
  6 18  1  0  0  0
  7 19  1  0  0  0
  8  9  1  0  0  0
  8 14  1  0  0  0
  8 20  1  0  0  0
  9 10  1  0  0  0
  9 11  1  0  0  0
  9 21  1  0  0  0
 10 22  1  0  0  0
 11 12  1  0  0  0
 11 13  1  0  0  0
 11 23  1  0  0  0
 12 24  1  0  0  0
 13 14  1  0  0  0
 13 15  1  0  0  0
 13 25  1  0  0  0
 15 16  1  0  0  0
 15 26  1  0  0  0
 15 27  1  0  0  0
 16 28  1  0  0  0
M  END
> <s_m_source_file>
../4pd7_ligand.sdf

> <i_m_source_file_index>
1

> <s_epik_input>
W2NIXTFbY0hdW2NIXW5jKD1PKW4xW0NASF0yW0NASF0oW09IXSlbQ0BIXShbT0hdKVtDQEhdKE8yKVtDSDJdW09IXQ==

> <s_epik_cmdline>
J2VwaWtfYXBwJywgJy1pbWFlJywgJ2xpZ2FuZF9wcm8ubWFlJywgJy1vbWFlJywgJ2xpZ2FuZF9wcmVwLm1hZScsICctbXMnLCAnMScsICctcGgnLCAnNycsICctcGh0JywgJzAuNScsICctbnQn

> <r_lp_tautomer_probability>
1

> <r_epik_Ionization_Penalty>
  0.0000

> <r_epik_Ionization_Penalty_Charging>
  0.0000

> <r_epik_Ionization_Penalty_Neutral>
  0.0000

> <r_epik_State_Penalty>
 -0.0000

> <r_epik_Charging_Adjusted_Penalty>
4.06632460445842e-07

> <i_epik_Tot_Q>
0

> <i_epik_Tot_abs_Q>
0

> <s_epik_Chemistry_Notes>
This compound contains an acetal/aminal-like group ( X-CH(R)-Y where X, Y are N, S, or O) that may be acid/base labile, releasing an aldehyde.

$$$$
