4pd8_ligand
                    3D
 Schrodinger Suite 2020-3.
 37 39  0  0  1  0            999 V2000
  -16.2110  135.9030   -7.0620 C   0  0  0  0  0  0
  -15.7820  133.7150   -6.6180 C   0  0  0  0  0  0
  -15.4590  132.4200   -5.8870 C   0  0  0  0  0  0
  -19.8590  140.8620   -6.7320 O   0  0  0  0  0  0
  -18.7790  139.9440   -6.8420 C   0  0  2  0  0  0
  -17.4760  140.4940   -6.2830 C   0  0  1  0  0  0
  -17.2640  140.2320   -4.8130 C   0  0  0  0  0  0
  -17.6700  138.9450   -4.3130 O   0  0  0  0  0  0
  -16.4060  139.9230   -7.0930 O   0  0  0  0  0  0
  -16.9600  139.3120   -8.2500 C   0  0  2  0  0  0
  -18.4370  139.6940   -8.2960 C   0  0  2  0  0  0
  -18.6890  140.8600   -9.0510 O   0  0  0  0  0  0
  -16.7170  137.8610   -8.2550 N   0  0  0  0  0  0
  -16.7800  137.1230   -9.4400 C   0  0  0  0  0  0
  -16.5580  135.7880   -9.4190 N   0  0  0  0  0  0
  -16.2760  135.1630   -8.2730 C   0  0  0  0  0  0
  -15.9010  134.9880   -6.0360 C   0  0  0  0  0  0
  -16.0100  133.8510   -7.9670 N   0  3  0  0  0  0
  -16.4310  137.2240   -7.0760 C   0  0  0  0  0  0
  -17.0390  137.6750  -10.5190 O   0  0  0  0  0  0
  -15.3292  132.6270   -4.8145 H   0  0  0  0  0  0
  -14.5306  131.9916   -6.2928 H   0  0  0  0  0  0
  -16.2837  131.7054   -6.0254 H   0  0  0  0  0  0
  -20.2342  141.1535   -5.7399 H   0  0  0  0  0  0
  -19.1786  139.0826   -6.2868 H   0  0  0  0  0  0
  -17.4593  141.5910   -6.3631 H   0  0  0  0  0  0
  -16.1931  140.3164   -4.5762 H   0  0  0  0  0  0
  -17.8290  140.9694   -4.2239 H   0  0  0  0  0  0
  -17.5378  138.7019   -3.2484 H   0  0  0  0  0  0
  -16.4167  139.6779   -9.1337 H   0  0  0  0  0  0
  -19.0635  138.9604   -8.8246 H   0  0  0  0  0  0
  -19.7177  141.2350   -9.1570 H   0  0  0  0  0  0
  -16.6090  135.2072  -10.3518 H   0  0  0  0  0  0
  -15.7534  135.1137   -4.9532 H   0  0  0  0  0  0
  -17.2917  137.4592   -6.4327 H   0  0  0  0  0  0
  -15.5394  137.7482   -6.7016 H   0  0  0  0  0  0
  -15.9627  132.9703   -8.6243 H   0  0  0  0  0  0
  1 16  2  0  0  0
  1 17  1  0  0  0
  1 19  1  0  0  0
  2  3  1  0  0  0
  2 17  2  0  0  0
  2 18  1  0  0  0
  3 21  1  0  0  0
  3 22  1  0  0  0
  3 23  1  0  0  0
  4  5  1  0  0  0
  4 24  1  0  0  0
  5  6  1  0  0  0
  5 11  1  0  0  0
  5 25  1  0  0  0
  6  7  1  0  0  0
  6  9  1  0  0  0
  6 26  1  0  0  0
  7  8  1  0  0  0
  7 27  1  0  0  0
  7 28  1  0  0  0
  8 29  1  0  0  0
  9 10  1  0  0  0
 10 11  1  0  0  0
 10 13  1  0  0  0
 10 30  1  0  0  0
 11 12  1  0  0  0
 11 31  1  0  0  0
 12 32  1  0  0  0
 13 14  1  0  0  0
 13 19  1  0  0  0
 14 15  1  0  0  0
 14 20  2  0  0  0
 15 16  1  0  0  0
 15 33  1  0  0  0
 16 18  1  0  0  0
 17 34  1  0  0  0
 18 37  1  0  0  0
 19 35  1  0  0  0
 19 36  1  0  0  0
M  CHG  1  18   1
M  END
> <s_m_source_file>
../4pd8_ligand.sdf

> <i_m_source_file_index>
1

> <s_epik_input>
W0NIM11jKFtjSF0xKVtuSF1jKGMxMilbTkhdQyg9TylOKFtDSDJdMilbQ0BASF0oW0NAQEhdM1tPSF0pT1tDQEBIXShbQ0BIXTNbT0hdKVtDSDJdW09IXQ==

> <s_epik_cmdline>
J2VwaWtfYXBwJywgJy1pbWFlJywgJ2xpZ2FuZF9wcm8ubWFlJywgJy1vbWFlJywgJ2xpZ2FuZF9wcmVwLm1hZScsICctbXMnLCAnMScsICctcGgnLCAnNycsICctcGh0JywgJzAuNScsICctbnQn

> <r_lp_tautomer_probability>
1

> <r_epik_Ionization_Penalty>
  0.0000

> <r_epik_Ionization_Penalty_Charging>
  0.0000

> <r_epik_Ionization_Penalty_Neutral>
  0.0000

> <r_epik_State_Penalty>
 -0.0000

> <r_epik_Charging_Adjusted_Penalty>
0

> <i_epik_Tot_Q>
1

> <i_epik_Tot_abs_Q>
1

> <s_epik_Chemistry_Notes>
This compound contains an acetal/aminal-like group ( X-CH(R)-Y where X, Y are N, S, or O) that may be acid/base labile, releasing an aldehyde.

$$$$
