4pda_ligand
                    3D
 Schrodinger Suite 2020-3.
 30 31  0  0  1  0            999 V2000
   52.0290  -19.1730   -4.0200 O   0  0  0  0  0  0
   53.2460  -18.6110   -4.4880 C   0  0  0  0  0  0
   53.2110  -18.3750   -5.9770 C   0  0  1  0  0  0
   53.1310  -19.6440   -6.6750 O   0  0  0  0  0  0
   52.3650  -19.4990   -7.8530 C   0  0  1  0  0  0
   51.2060  -20.4190   -7.7850 N   0  3  0  0  0  0
   50.7990  -20.9530   -6.5930 C   0  0  0  0  0  0
   49.7530  -21.7880   -6.5280 C   0  0  0  0  0  0
   49.0860  -22.0990   -7.7490 C   0  0  0  0  0  0
   49.4750  -21.5870   -8.9170 N   0  0  0  0  0  0
   50.5330  -20.7450   -8.9680 C   0  0  0  0  0  0
   50.9200  -20.2520  -10.0390 O   0  0  0  0  0  0
   48.0370  -22.9250   -7.7490 N   0  0  0  0  0  0
   51.9400  -18.0320   -7.9550 C   0  0  2  0  0  0
   52.9010  -17.3400   -8.7390 O   0  0  0  0  0  0
   52.0180  -17.5920   -6.5000 C   0  0  2  0  0  0
   52.1660  -16.1920   -6.3420 O   0  0  0  0  0  0
   51.9040  -19.4020   -2.9514 H   0  0  0  0  0  0
   53.4212  -17.6473   -3.9874 H   0  0  0  0  0  0
   54.0765  -19.2967   -4.2643 H   0  0  0  0  0  0
   54.1450  -17.8303   -6.1792 H   0  0  0  0  0  0
   52.9802  -19.8013   -8.7133 H   0  0  0  0  0  0
   51.3352  -20.6946   -5.6798 H   0  0  0  0  0  0
   49.4251  -22.2126   -5.5792 H   0  0  0  0  0  0
   47.6857  -23.3678   -6.8054 H   0  0  0  0  0  0
   50.9866  -17.8138   -8.4584 H   0  0  0  0  0  0
   52.9785  -17.5409   -9.8177 H   0  0  0  0  0  0
   51.0867  -17.7225   -5.9293 H   0  0  0  0  0  0
   52.2335  -15.7563   -5.3342 H   0  0  0  0  0  0
   47.5241  -23.1627   -8.6926 H   0  0  0  0  0  0
  1  2  1  0  0  0
  1 18  1  0  0  0
  2  3  1  0  0  0
  2 19  1  0  0  0
  2 20  1  0  0  0
  3  4  1  0  0  0
  3 16  1  0  0  0
  3 21  1  0  0  0
  4  5  1  0  0  0
  5  6  1  0  0  0
  5 14  1  0  0  0
  5 22  1  0  0  0
  6  7  2  0  0  0
  6 11  1  0  0  0
  7  8  1  0  0  0
  7 23  1  0  0  0
  8  9  2  0  0  0
  8 24  1  0  0  0
  9 10  1  0  0  0
  9 13  1  0  0  0
 10 11  1  0  0  0
 11 12  2  0  0  0
 13 25  1  0  0  0
 13 30  1  0  0  0
 14 15  1  0  0  0
 14 16  1  0  0  0
 14 26  1  0  0  0
 15 27  1  0  0  0
 16 17  1  0  0  0
 16 28  1  0  0  0
 17 29  1  0  0  0
M  CHG  1   6   1
M  END
> <s_m_source_file>
../4pda_ligand.sdf

> <i_m_source_file_index>
1

> <s_epik_input>
W09IXVtDSDJdW0NASF0xT1tDQEhdKFtDQEhdKFtPSF0pW0NAQEhdMVtPSF0pbjJbY0hdW2NIXS9jKD1OL1tIXSlbbkhdYzI9Tw==

> <s_epik_cmdline>
J2VwaWtfYXBwJywgJy1pbWFlJywgJ2xpZ2FuZF9wcm8ubWFlJywgJy1vbWFlJywgJ2xpZ2FuZF9wcmVwLm1hZScsICctbXMnLCAnMScsICctcGgnLCAnNycsICctcGh0JywgJzAuNScsICctbnQn

> <r_lp_tautomer_probability>
1

> <r_epik_Ionization_Penalty>
  0.0007

> <r_epik_Ionization_Penalty_Charging>
  0.0000

> <r_epik_Ionization_Penalty_Neutral>
  0.0007

> <r_epik_State_Penalty>
 -0.0000

> <r_epik_Charging_Adjusted_Penalty>
2.45224844442545e-07

> <i_epik_Tot_Q>
1

> <i_epik_Tot_abs_Q>
1

> <s_epik_Chemistry_Notes>
This compound has an imine and may undergo hydrolysis. This compound contains an acetal/aminal-like group ( X-CH(R)-Y where X, Y are N, S, or O) that may be acid/base labile, releasing an aldehyde.

$$$$
