4pde_ligand
                    3D
 Schrodinger Suite 2020-3.
 40 42  0  0  1  0            999 V2000
  -26.7420   43.3840    7.8150 P   0  0  0  0  0  0
  -27.2190   42.0930    7.1800 O   0  5  0  0  0  0
  -26.5000   43.2070    9.2940 O   0  0  0  0  0  0
  -27.8130   44.4330    7.6340 O   0  5  0  0  0  0
  -25.3700   43.8810    7.1240 O   0  0  0  0  0  0
  -25.3800   44.1000    5.5350 P   0  0  1  0  0  0
  -24.0030   43.9410    4.9380 O   0  0  0  0  0  0
  -26.3890   43.1750    4.8940 O   0  5  0  0  0  0
  -25.8770   45.6150    5.3960 O   0  0  0  0  0  0
  -26.7930   45.8990    4.3550 C   0  0  0  0  0  0
  -27.7010   47.0380    4.7600 C   0  0  1  0  0  0
  -27.7400   47.9230    3.6500 O   0  0  0  0  0  0
  -29.1130   46.5410    5.0080 C   0  0  1  0  0  0
  -29.5240   46.9170    6.3270 O   0  0  0  0  0  0
  -29.9860   47.2190    3.9700 C   0  0  1  0  0  0
  -30.8810   48.1530    4.5800 O   0  0  0  0  0  0
  -29.0380   47.9820    3.0650 C   0  0  2  0  0  0
  -28.9840   47.3370    1.7290 N   0  0  0  0  0  0
  -28.9130   46.0090    1.4920 C   0  0  0  0  0  0
  -28.8730   45.7430    0.1640 N   0  0  0  0  0  0
  -28.9080   46.9290   -0.4690 C   0  0  0  0  0  0
  -28.8850   47.3730   -1.8740 C   0  0  0  0  0  0
  -28.8240   46.5510   -2.8130 O   0  0  0  0  0  0
  -28.9350   48.6920   -2.0960 N   0  3  0  0  0  0
  -28.9980   49.6130   -1.1170 C   0  0  0  0  0  0
  -29.0400   50.9180   -1.4740 N   0  0  0  0  0  0
  -29.0220   49.2840    0.1970 N   0  0  0  0  0  0
  -28.9780   47.9800    0.5640 C   0  0  0  0  0  0
  -26.2401   46.1827    3.4474 H   0  0  0  0  0  0
  -27.4024   45.0066    4.1492 H   0  0  0  0  0  0
  -27.3205   47.5643    5.6478 H   0  0  0  0  0  0
  -29.2035   45.4450    4.9847 H   0  0  0  0  0  0
  -28.9954   46.5143    7.2036 H   0  0  0  0  0  0
  -30.6370   46.5026    3.4476 H   0  0  0  0  0  0
  -31.6537   47.7988    5.2781 H   0  0  0  0  0  0
  -29.3286   49.0371    2.9542 H   0  0  0  0  0  0
  -28.8907   45.2471    2.2712 H   0  0  0  0  0  0
  -29.0211   51.1981   -2.5376 H   0  0  0  0  0  0
  -29.0930   51.6984   -0.7006 H   0  0  0  0  0  0
  -28.9257   49.0771   -3.1264 H   0  0  0  0  0  0
  1  2  1  0  0  0
  1  3  2  0  0  0
  1  4  1  0  0  0
  1  5  1  0  0  0
  5  6  1  0  0  0
  6  7  2  0  0  0
  6  8  1  0  0  0
  6  9  1  0  0  0
  9 10  1  0  0  0
 10 11  1  0  0  0
 10 29  1  0  0  0
 10 30  1  0  0  0
 11 12  1  0  0  0
 11 13  1  0  0  0
 11 31  1  0  0  0
 12 17  1  0  0  0
 13 14  1  0  0  0
 13 15  1  0  0  0
 13 32  1  0  0  0
 14 33  1  0  0  0
 15 16  1  0  0  0
 15 17  1  0  0  0
 15 34  1  0  0  0
 16 35  1  0  0  0
 17 18  1  0  0  0
 17 36  1  0  0  0
 18 19  1  0  0  0
 18 28  1  0  0  0
 19 20  2  0  0  0
 19 37  1  0  0  0
 20 21  1  0  0  0
 21 22  1  0  0  0
 21 28  2  0  0  0
 22 23  2  0  0  0
 22 24  1  0  0  0
 24 25  1  0  0  0
 24 40  1  0  0  0
 25 26  1  0  0  0
 25 27  2  0  0  0
 26 38  1  0  0  0
 26 39  1  0  0  0
 27 28  1  0  0  0
M  CHG  4   2  -1   4  -1   8  -1  24   1
M  END
> <s_m_source_file>
../4pde_ligand.sdf

> <i_m_source_file_index>
1

> <s_epik_input>
W09IXVAoPU8pKFtPSF0pT1tQQEBdKD1PKShbT0hdKU9bQ0gyXVtDQEhdMU9bQ0BIXShbQ0BIXShbT0hdKVtDQEBIXTFbT0hdKW4oW2NIXW4yKWMoYzIzKVtuSF1jKD1OXFtIXSlcW25IXWMzPU8=

> <s_epik_cmdline>
J2VwaWtfYXBwJywgJy1pbWFlJywgJ2xpZ2FuZF9wcm8ubWFlJywgJy1vbWFlJywgJ2xpZ2FuZF9wcmVwLm1hZScsICctbXMnLCAnMScsICctcGgnLCAnNycsICctcGh0JywgJzAuNScsICctbnQn

> <r_epik_Ionization_Penalty>
  2.4918

> <r_epik_Ionization_Penalty_Charging>
  2.4918

> <r_epik_Ionization_Penalty_Neutral>
  0.0000

> <r_epik_State_Penalty>
  0.1302

> <r_epik_Charging_Adjusted_Penalty>
2.62193179535438

> <i_epik_Tot_Q>
-2

> <i_epik_Tot_abs_Q>
4

> <s_epik_Chemistry_Notes>
This compound has an imine and may undergo hydrolysis. This compound contains an acetal/aminal-like group ( X-CH(R)-Y where X, Y are N, S, or O) that may be acid/base labile, releasing an aldehyde.

$$$$
