4pdk_ligand
                    3D
 Schrodinger Suite 2020-3.
131133  0  0  1  0            999 V2000
   15.2000   -9.8560   -6.1810 C   0  0  0  0  0  0
   16.5640   -7.0540   -4.5320 C   0  0  0  0  0  0
   18.2460   -5.1920   -4.8410 C   0  0  0  0  0  0
   18.8020   -2.7880   -4.2340 C   0  0  0  0  0  0
   20.6870   -4.3040   -0.5310 C   0  0  0  0  0  0
   20.2640   -4.6720    0.9050 C   0  0  0  0  0  0
   20.7790   -6.7990    2.2130 C   0  0  0  0  0  0
   21.8290   -7.7790    2.7320 C   0  0  0  0  0  0
   26.4690  -14.0620    6.6870 P   0  0  1  0  0  0
   26.5840  -13.9630    9.5790 P   0  0  2  0  0  0
   30.3040  -17.9600   12.5550 P   0  0  0  0  0  0
   20.2160  -18.5260   -5.9310 C   0  0  0  0  0  0
   19.0990  -17.4860   -5.8630 C   0  0  0  0  0  0
   19.6020  -16.0880   -6.2340 C   0  0  0  0  0  0
   18.5610  -14.9820   -5.9790 C   0  0  0  0  0  0
   19.1860  -13.5660   -6.1930 C   0  0  0  0  0  0
   18.1190  -12.4290   -6.1130 C   0  0  0  0  0  0
   18.7500  -11.0200   -6.4280 C   0  0  0  0  0  0
   17.7360   -9.8580   -6.1660 C   0  0  0  0  0  0
   16.3470  -10.1760   -6.8190 C   0  0  0  0  0  0
   15.2420   -9.2000   -4.8000 C   0  0  0  0  0  0
   15.2090   -7.6630   -4.9170 C   0  0  0  0  0  0
   16.7560   -5.5840   -4.9290 C   0  0  0  0  0  0
   18.5270   -3.7840   -5.3900 C   0  0  0  0  0  0
   19.7950   -3.3670   -3.2000 C   0  0  0  0  0  0
   20.9390   -3.4980   -3.4800 O   0  0  0  0  0  0
   19.2050   -3.8600   -1.5250 S   0  0  0  0  0  0
   21.2250   -5.6440    1.4370 N   0  0  0  0  0  0
   19.6340   -6.9810    2.4480 O   0  0  0  0  0  0
   21.4660   -9.2270    2.3650 C   0  0  0  0  0  0
   22.0020  -10.1110    3.4000 N   0  0  0  0  0  0
   23.4190  -10.4640    3.3180 C   0  0  0  0  0  0
   24.0730  -10.0400    2.4310 O   0  0  0  0  0  0
   24.0220  -11.3900    4.3850 C   0  0  2  0  0  0
   23.0240  -11.7220    5.2880 O   0  0  0  0  0  0
   25.1560  -10.7030    5.1620 C   0  0  0  0  0  0
   24.6740   -9.3670    5.7460 C   0  0  0  0  0  0
   26.4100  -10.4810    4.2930 C   0  0  0  0  0  0
   25.5360  -11.6550    6.2980 C   0  0  0  0  0  0
   25.9890  -12.8330    5.6910 O   0  0  0  0  0  0
   25.2690  -14.9250    7.0060 O   0  5  0  0  0  0
   27.5300  -14.8900    5.9990 O   0  0  0  0  0  0
   27.0590  -13.4140    8.0890 O   0  0  0  0  0  0
   25.5080  -15.0140    9.4080 O   0  5  0  0  0  0
   26.0440  -12.8140   10.4000 O   0  0  0  0  0  0
   27.8940  -14.6410   10.3530 O   0  0  0  0  0  0
   29.1420  -14.6370    9.6870 C   0  0  0  0  0  0
   30.2570  -15.0590   10.6560 C   0  0  1  0  0  0
   31.1210  -14.1150   10.7770 O   0  0  0  0  0  0
   30.9550  -13.5390   12.1690 C   0  0  2  0  0  0
   29.7070  -14.2720   12.7670 C   0  0  2  0  0  0
   29.8730  -14.5040   14.2620 O   0  0  0  0  0  0
   29.6620  -15.3620   12.1590 C   0  0  2  0  0  0
   30.5090  -16.3610   12.8610 O   0  0  0  0  0  0
   31.1910  -18.7670   13.4770 O   0  5  0  0  0  0
   30.6780  -18.2500   11.1220 O   0  5  0  0  0  0
   28.8630  -18.3410   12.7850 O   0  0  0  0  0  0
   30.7530  -12.2080   12.0950 N   0  0  0  0  0  0
   29.6310  -11.6170   11.7160 C   0  0  0  0  0  0
   29.7850  -10.3000   11.7560 N   0  0  0  0  0  0
   31.0380  -10.0390   12.1680 C   0  0  0  0  0  0
   31.7780   -8.8620   12.4030 C   0  0  0  0  0  0
   31.1620   -7.5570   12.1880 N   0  0  0  0  0  0
   33.0330   -8.9480   12.8190 N   0  0  0  0  0  0
   33.5950  -10.1390   13.0180 C   0  0  0  0  0  0
   32.9360  -11.2700   12.8060 N   0  0  0  0  0  0
   31.6580  -11.2490   12.3840 C   0  0  0  0  0  0
   14.2299  -10.0671   -6.6546 H   0  0  0  0  0  0
   16.6910   -7.1027   -3.4404 H   0  0  0  0  0  0
   17.3718   -7.6184   -5.0207 H   0  0  0  0  0  0
   18.5690   -5.2125   -3.7897 H   0  0  0  0  0  0
   18.8478   -5.9051   -5.4235 H   0  0  0  0  0  0
   19.2309   -1.8612   -4.6428 H   0  0  0  0  0  0
   17.8593   -2.5583   -3.7158 H   0  0  0  0  0  0
   21.3750   -3.4462   -0.5021 H   0  0  0  0  0  0
   21.1919   -5.1635   -0.9962 H   0  0  0  0  0  0
   20.2603   -3.7665    1.5296 H   0  0  0  0  0  0
   19.2553   -5.1106    0.8891 H   0  0  0  0  0  0
   22.8062   -7.5385    2.2879 H   0  0  0  0  0  0
   21.8946   -7.7001    3.8272 H   0  0  0  0  0  0
   19.8148  -19.5133   -5.6584 H   0  0  0  0  0  0
   21.0175  -18.2496   -5.2301 H   0  0  0  0  0  0
   20.6199  -18.5639   -6.9535 H   0  0  0  0  0  0
   18.2975  -17.7624   -6.5639 H   0  0  0  0  0  0
   18.6950  -17.4481   -4.8406 H   0  0  0  0  0  0
   20.4942  -15.8489   -5.6367 H   0  0  0  0  0  0
   19.8590  -16.0626   -7.3033 H   0  0  0  0  0  0
   17.7179  -15.1046   -6.6748 H   0  0  0  0  0  0
   18.1956  -15.0539   -4.9439 H   0  0  0  0  0  0
   19.9427  -13.3781   -5.4170 H   0  0  0  0  0  0
   19.6589  -13.5200   -7.1851 H   0  0  0  0  0  0
   17.3204  -12.6235   -6.8440 H   0  0  0  0  0  0
   17.6900  -12.3993   -5.1005 H   0  0  0  0  0  0
   19.6303  -10.8611   -5.7879 H   0  0  0  0  0  0
   19.0534  -10.9820   -7.4847 H   0  0  0  0  0  0
   17.5979   -9.7293   -5.0823 H   0  0  0  0  0  0
   18.1270   -8.9255   -6.5991 H   0  0  0  0  0  0
   16.3107  -10.6635   -7.8044 H   0  0  0  0  0  0
   14.3721   -9.5277   -4.2118 H   0  0  0  0  0  0
   16.1667   -9.4945   -4.2821 H   0  0  0  0  0  0
   14.4285   -7.2745   -4.2462 H   0  0  0  0  0  0
   14.9675   -7.3930   -5.9556 H   0  0  0  0  0  0
   16.4071   -5.4345   -5.9614 H   0  0  0  0  0  0
   16.1764   -4.9419   -4.2494 H   0  0  0  0  0  0
   19.4080   -3.8161   -6.0479 H   0  0  0  0  0  0
   17.6553   -3.4325   -5.9614 H   0  0  0  0  0  0
   22.3014   -5.5099    1.2541 H   0  0  0  0  0  0
   20.3720   -9.3285    2.3116 H   0  0  0  0  0  0
   21.9057   -9.4791    1.3887 H   0  0  0  0  0  0
   21.3448  -10.4834    4.1996 H   0  0  0  0  0  0
   24.3656  -12.3326    3.9339 H   0  0  0  0  0  0
   22.1117  -12.2274    4.9383 H   0  0  0  0  0  0
   24.4018   -8.6855    4.9265 H   0  0  0  0  0  0
   25.4793   -8.9169    6.3451 H   0  0  0  0  0  0
   23.7956   -9.5417    6.3847 H   0  0  0  0  0  0
   26.1665   -9.7984    3.4655 H   0  0  0  0  0  0
   26.7491  -11.4449    3.8856 H   0  0  0  0  0  0
   27.2091  -10.0413    4.9079 H   0  0  0  0  0  0
   26.3271  -11.1977    6.9104 H   0  0  0  0  0  0
   24.6531  -11.8489    6.9248 H   0  0  0  0  0  0
   29.1098  -15.3424    8.8436 H   0  0  0  0  0  0
   29.3536  -13.6252    9.3108 H   0  0  0  0  0  0
   30.8740  -15.8343   10.1783 H   0  0  0  0  0  0
   31.8662  -13.5546   12.7850 H   0  0  0  0  0  0
   28.7150  -13.8452   12.5576 H   0  0  0  0  0  0
   29.9309  -13.6465   14.9486 H   0  0  0  0  0  0
   28.6070  -15.6415   12.2959 H   0  0  0  0  0  0
   28.7192  -12.1338   11.4166 H   0  0  0  0  0  0
   30.1197   -7.4910   11.8426 H   0  0  0  0  0  0
   31.7398   -6.6391   12.3713 H   0  0  0  0  0  0
   34.6271  -10.1854   13.3654 H   0  0  0  0  0  0
  1 20  2  0  0  0
  1 21  1  0  0  0
  1 68  1  0  0  0
  2 22  1  0  0  0
  2 23  1  0  0  0
  2 69  1  0  0  0
  2 70  1  0  0  0
  3 23  1  0  0  0
  3 24  1  0  0  0
  3 71  1  0  0  0
  3 72  1  0  0  0
  4 24  1  0  0  0
  4 25  1  0  0  0
  4 73  1  0  0  0
  4 74  1  0  0  0
  5  6  1  0  0  0
  5 27  1  0  0  0
  5 75  1  0  0  0
  5 76  1  0  0  0
  6 28  1  0  0  0
  6 77  1  0  0  0
  6 78  1  0  0  0
  7  8  1  0  0  0
  7 28  1  0  0  0
  7 29  2  0  0  0
  8 30  1  0  0  0
  8 79  1  0  0  0
  8 80  1  0  0  0
  9 40  1  0  0  0
  9 41  1  0  0  0
  9 42  2  0  0  0
  9 43  1  0  0  0
 10 43  1  0  0  0
 10 44  1  0  0  0
 10 45  2  0  0  0
 10 46  1  0  0  0
 11 54  1  0  0  0
 11 55  1  0  0  0
 11 56  1  0  0  0
 11 57  2  0  0  0
 12 13  1  0  0  0
 12 81  1  0  0  0
 12 82  1  0  0  0
 12 83  1  0  0  0
 13 14  1  0  0  0
 13 84  1  0  0  0
 13 85  1  0  0  0
 14 15  1  0  0  0
 14 86  1  0  0  0
 14 87  1  0  0  0
 15 16  1  0  0  0
 15 88  1  0  0  0
 15 89  1  0  0  0
 16 17  1  0  0  0
 16 90  1  0  0  0
 16 91  1  0  0  0
 17 18  1  0  0  0
 17 92  1  0  0  0
 17 93  1  0  0  0
 18 19  1  0  0  0
 18 94  1  0  0  0
 18 95  1  0  0  0
 19 20  1  0  0  0
 19 96  1  0  0  0
 19 97  1  0  0  0
 20 98  1  0  0  0
 21 22  1  0  0  0
 21 99  1  0  0  0
 21100  1  0  0  0
 22101  1  0  0  0
 22102  1  0  0  0
 23103  1  0  0  0
 23104  1  0  0  0
 24105  1  0  0  0
 24106  1  0  0  0
 25 26  2  0  0  0
 25 27  1  0  0  0
 28107  1  0  0  0
 30 31  1  0  0  0
 30108  1  0  0  0
 30109  1  0  0  0
 31 32  1  0  0  0
 31110  1  0  0  0
 32 33  2  0  0  0
 32 34  1  0  0  0
 34 35  1  0  0  0
 34 36  1  0  0  0
 34111  1  0  0  0
 35112  1  0  0  0
 36 37  1  0  0  0
 36 38  1  0  0  0
 36 39  1  0  0  0
 37113  1  0  0  0
 37114  1  0  0  0
 37115  1  0  0  0
 38116  1  0  0  0
 38117  1  0  0  0
 38118  1  0  0  0
 39 40  1  0  0  0
 39119  1  0  0  0
 39120  1  0  0  0
 46 47  1  0  0  0
 47 48  1  0  0  0
 47121  1  0  0  0
 47122  1  0  0  0
 48 49  1  0  0  0
 48 53  1  0  0  0
 48123  1  0  0  0
 49 50  1  0  0  0
 50 51  1  0  0  0
 50 58  1  0  0  0
 50124  1  0  0  0
 51 52  1  0  0  0
 51 53  1  0  0  0
 51125  1  0  0  0
 52126  1  0  0  0
 53 54  1  0  0  0
 53127  1  0  0  0
 58 59  1  0  0  0
 58 67  1  0  0  0
 59 60  2  0  0  0
 59128  1  0  0  0
 60 61  1  0  0  0
 61 62  2  0  0  0
 61 67  1  0  0  0
 62 63  1  0  0  0
 62 64  1  0  0  0
 63129  1  0  0  0
 63130  1  0  0  0
 64 65  2  0  0  0
 65 66  1  0  0  0
 65131  1  0  0  0
 66 67  2  0  0  0
M  CHG  4  41  -1  44  -1  55  -1  56  -1
M  END
> <s_m_source_file>
../4pdk_ligand.sdf

> <i_m_source_file_index>
1

> <s_epik_input>
W0NIM11bQ0gyXVtDSDJdW0NIMl1bQ0gyXVtDSDJdW0NIMl1bQ0gyXS9bQ0hdPVtDSF1cW0NIMl1bQ0gyXVtDSDJdW0NIMl1bQ0gyXVtDSDJdW0NIMl1DKD1PKVNbQ0gyXVtDSDJdW05IXUMoPU8pW0NIMl1bQ0gyXVtOSF1DKD1PKVtDQEhdKFtPSF0pQyhbQ0gzXSkoW0NIM10pW0NIMl1PW1BAXSg9TykoW09IXSlPW1BAQF0oPU8pKFtPSF0pT1tDSDJdW0NASF0xT1tDQEhdKFtDQEhdKFtPSF0pW0NAQEhdMU9QKD1PKShbT0hdKVtPSF0pbihbY0hdbjIpYyhjMjMpbltjSF1uYzNbTkgyXQ==

> <s_epik_cmdline>
J2VwaWtfYXBwJywgJy1pbWFlJywgJ2xpZ2FuZF9wcm8ubWFlJywgJy1vbWFlJywgJ2xpZ2FuZF9wcmVwLm1hZScsICctbXMnLCAnMScsICctcGgnLCAnNycsICctcGh0JywgJzAuNScsICctbnQn

> <r_lp_tautomer_probability>
0.999997216410988

> <r_epik_Ionization_Penalty>
  0.0763

> <r_epik_Ionization_Penalty_Charging>
  0.0759

> <r_epik_Ionization_Penalty_Neutral>
  0.0005

> <r_epik_State_Penalty>
  0.0664

> <r_epik_Charging_Adjusted_Penalty>
0.142237236529457

> <i_epik_Tot_Q>
-4

> <i_epik_Tot_abs_Q>
4

> <s_epik_Chemistry_Notes>
This compound contains an acetal/aminal-like group ( X-CH(R)-Y where X, Y are N, S, or O) that may be acid/base labile, releasing an aldehyde.

$$$$
