4pee_ligand
                    3D
 Schrodinger Suite 2020-3.
 36 38  0  0  1  0            999 V2000
   34.4200    9.4790   58.9590 C   0  0  0  0  0  0
   34.9520   10.5960   59.6060 C   0  0  0  0  0  0
   34.1010   11.6240   60.0280 C   0  0  0  0  0  0
   32.7230   11.5300   59.8020 C   0  0  0  0  0  0
   32.1930   10.4040   59.1500 C   0  0  0  0  0  0
   33.0290    9.3510   58.7270 C   0  0  0  0  0  0
   32.5630    8.2640   58.0480 N   0  0  0  0  0  0
   31.4890    8.1310   57.2470 C   0  0  0  0  0  0
   33.1740    7.1490   58.0000 N   0  0  0  0  0  0
   32.6000    6.3060   57.2820 N   0  0  0  0  0  0
   31.5130    6.8730   56.7970 C   0  0  0  0  0  0
   30.5160    6.1500   55.7880 C   0  0  2  0  0  0
   29.0640    6.3120   56.0150 N   0  3  0  0  0  0
   28.4920    4.9440   56.0290 C   0  0  1  0  0  0
   27.0340    4.9470   55.5930 C   0  0  0  0  0  0
   29.4180    4.1960   55.0580 C   0  0  1  0  0  0
   29.1440    4.7360   53.6790 O   0  0  0  0  0  0
   30.7180    4.6210   55.7130 C   0  0  1  0  0  0
   31.9130    4.1510   54.9620 O   0  0  0  0  0  0
   35.0907    8.6874   58.6248 H   0  0  0  0  0  0
   36.0254   10.6672   59.7817 H   0  0  0  0  0  0
   34.5117   12.4983   60.5330 H   0  0  0  0  0  0
   32.0609   12.3305   60.1319 H   0  0  0  0  0  0
   31.1199   10.3439   58.9687 H   0  0  0  0  0  0
   30.7486    8.8959   57.0127 H   0  0  0  0  0  0
   30.7219    6.6741   54.8431 H   0  0  0  0  0  0
   28.8976    6.8202   56.9763 H   0  0  0  0  0  0
   28.6307    6.9136   55.2024 H   0  0  0  0  0  0
   28.4637    4.5025   57.0361 H   0  0  0  0  0  0
   26.4318    5.4971   56.3310 H   0  0  0  0  0  0
   26.6705    3.9113   55.5219 H   0  0  0  0  0  0
   26.9460    5.4348   54.6110 H   0  0  0  0  0  0
   29.3545    3.1091   54.9013 H   0  0  0  0  0  0
   28.2165    4.4615   53.1551 H   0  0  0  0  0  0
   30.9423    4.1579   56.6852 H   0  0  0  0  0  0
   32.9221    4.3906   55.3284 H   0  0  0  0  0  0
  1  2  2  0  0  0
  1  6  1  0  0  0
  1 20  1  0  0  0
  2  3  1  0  0  0
  2 21  1  0  0  0
  3  4  2  0  0  0
  3 22  1  0  0  0
  4  5  1  0  0  0
  4 23  1  0  0  0
  5  6  2  0  0  0
  5 24  1  0  0  0
  6  7  1  0  0  0
  7  8  1  0  0  0
  7  9  1  0  0  0
  8 11  2  0  0  0
  8 25  1  0  0  0
  9 10  2  0  0  0
 10 11  1  0  0  0
 11 12  1  0  0  0
 12 13  1  0  0  0
 12 18  1  0  0  0
 12 26  1  0  0  0
 13 14  1  0  0  0
 13 27  1  0  0  0
 13 28  1  0  0  0
 14 15  1  0  0  0
 14 16  1  0  0  0
 14 29  1  0  0  0
 15 30  1  0  0  0
 15 31  1  0  0  0
 15 32  1  0  0  0
 16 17  1  0  0  0
 16 18  1  0  0  0
 16 33  1  0  0  0
 17 34  1  0  0  0
 18 19  1  0  0  0
 18 35  1  0  0  0
 19 36  1  0  0  0
M  CHG  1  13   1
M  END
> <s_m_source_file>
../4pee_ligand.sdf

> <i_m_source_file_index>
1

> <s_epik_input>
W2NIXTFbY0hdW2NIXVtjSF1bY0hdYzEtbjJbY0hdYyhubjIpW0NAQEhdM1tOSDIrXVtDQEBIXShbQ0gzXSlbQ0BASF0oW09IXSlbQ0BIXTNbT0hd

> <s_epik_cmdline>
J2VwaWtfYXBwJywgJy1pbWFlJywgJ2xpZ2FuZF9wcm8ubWFlJywgJy1vbWFlJywgJ2xpZ2FuZF9wcmVwLm1hZScsICctbXMnLCAnMScsICctcGgnLCAnNycsICctcGh0JywgJzAuNScsICctbnQn

> <r_lp_tautomer_probability>
1

> <r_epik_Ionization_Penalty>
  0.1567

> <r_epik_Ionization_Penalty_Charging>
  0.1567

> <r_epik_Ionization_Penalty_Neutral>
  0.0000

> <r_epik_State_Penalty>
  0.1460

> <r_epik_Charging_Adjusted_Penalty>
0.302662518297208

> <i_epik_Tot_Q>
1

> <i_epik_Tot_abs_Q>
1

$$$$
