4pf5_ligand
                    3D
 Schrodinger Suite 2020-3.
 33 34  0  0  1  0            999 V2000
  -16.3440  -14.6490  -32.0560 C   0  0  2  0  0  0
  -14.8740  -14.8960  -31.7900 C   0  0  1  0  0  0
  -14.6840  -16.2730  -31.5280 O   0  0  0  0  0  0
  -14.0210  -14.4810  -32.9540 C   0  0  1  0  0  0
  -12.7010  -14.8990  -32.7310 O   0  0  0  0  0  0
  -14.5390  -15.0280  -34.2690 C   0  0  2  0  0  0
  -13.8100  -14.4330  -35.3330 O   0  0  0  0  0  0
  -15.9950  -14.6600  -34.4680 C   0  0  2  0  0  0
  -16.7720  -15.0200  -33.3750 O   0  0  0  0  0  0
  -16.5280  -15.4570  -35.6880 C   0  0  0  0  0  0
  -16.6390  -16.8490  -35.3030 O   0  0  0  0  0  0
  -18.0120  -11.4500  -31.6300 C   0  0  0  0  0  0
  -17.6070  -12.5140  -32.4270 C   0  0  0  0  0  0
  -16.9000  -13.3800  -31.6620 N   0  0  0  0  0  0
  -16.9110  -12.8810  -30.3970 N   0  0  0  0  0  0
  -17.5860  -11.6850  -30.3910 N   0  0  0  0  0  0
  -18.8300  -10.2360  -32.0920 C   0  0  0  0  0  0
  -19.7340  -10.7550  -33.0590 O   0  0  0  0  0  0
  -16.8551  -15.3336  -31.3630 H   0  0  0  0  0  0
  -14.5466  -14.3477  -30.8944 H   0  0  0  0  0  0
  -15.2305  -16.7568  -30.7050 H   0  0  0  0  0  0
  -13.9804  -13.3832  -33.0113 H   0  0  0  0  0  0
  -12.1727  -14.5888  -31.8174 H   0  0  0  0  0  0
  -14.3883  -16.1170  -34.3065 H   0  0  0  0  0  0
  -12.7200  -14.5670  -35.3953 H   0  0  0  0  0  0
  -16.0997  -13.5662  -34.5196 H   0  0  0  0  0  0
  -17.5134  -15.0649  -35.9799 H   0  0  0  0  0  0
  -15.8274  -15.3514  -36.5295 H   0  0  0  0  0  0
  -17.0016  -17.5929  -36.0277 H   0  0  0  0  0  0
  -17.8221  -12.6319  -33.4891 H   0  0  0  0  0  0
  -19.3589   -9.8011  -31.2311 H   0  0  0  0  0  0
  -18.1557   -9.4833  -32.5264 H   0  0  0  0  0  0
  -20.4491  -10.0850  -33.5588 H   0  0  0  0  0  0
  1  2  1  0  0  0
  1  9  1  0  0  0
  1 14  1  0  0  0
  1 19  1  0  0  0
  2  3  1  0  0  0
  2  4  1  0  0  0
  2 20  1  0  0  0
  3 21  1  0  0  0
  4  5  1  0  0  0
  4  6  1  0  0  0
  4 22  1  0  0  0
  5 23  1  0  0  0
  6  7  1  0  0  0
  6  8  1  0  0  0
  6 24  1  0  0  0
  7 25  1  0  0  0
  8  9  1  0  0  0
  8 10  1  0  0  0
  8 26  1  0  0  0
 10 11  1  0  0  0
 10 27  1  0  0  0
 10 28  1  0  0  0
 11 29  1  0  0  0
 12 13  2  0  0  0
 12 16  1  0  0  0
 12 17  1  0  0  0
 13 14  1  0  0  0
 13 30  1  0  0  0
 14 15  1  0  0  0
 15 16  2  0  0  0
 17 18  1  0  0  0
 17 31  1  0  0  0
 17 32  1  0  0  0
 18 33  1  0  0  0
M  END
> <s_m_source_file>
../4pf5_ligand.sdf

> <i_m_source_file_index>
1

> <s_epik_input>
W09IXVtDSDJdYzFbY0hdbihubjEpW0NAQEhdMltDQEBIXShbT0hdKVtDQEBIXShbT0hdKVtDQEhdKFtPSF0pW0NASF0oTzIpW0NIMl1bT0hd

> <s_epik_cmdline>
J2VwaWtfYXBwJywgJy1pbWFlJywgJ2xpZ2FuZF9wcm8ubWFlJywgJy1vbWFlJywgJ2xpZ2FuZF9wcmVwLm1hZScsICctbXMnLCAnMScsICctcGgnLCAnNycsICctcGh0JywgJzAuNScsICctbnQn

> <r_lp_tautomer_probability>
1

> <r_epik_Ionization_Penalty>
  0.0001

> <r_epik_Ionization_Penalty_Charging>
  0.0000

> <r_epik_Ionization_Penalty_Neutral>
  0.0001

> <r_epik_State_Penalty>
 -0.0000

> <r_epik_Charging_Adjusted_Penalty>
0

> <i_epik_Tot_Q>
0

> <i_epik_Tot_abs_Q>
0

> <s_epik_Chemistry_Notes>
This compound contains an acetal/aminal-like group ( X-CH(R)-Y where X, Y are N, S, or O) that may be acid/base labile, releasing an aldehyde.

$$$$
