4pg3_ligand
                    3D
 Schrodinger Suite 2020-3.
 41 43  0  0  1  0            999 V2000
  -45.2090   34.3780   -6.8770 O   0  0  0  0  0  0
  -45.5640   35.3240   -7.5500 C   0  0  0  0  0  0
  -44.7760   36.5160   -7.7110 C   0  0  0  0  0  0
  -45.2550   37.5700   -8.4710 C   0  0  0  0  0  0
  -44.4880   38.6970   -8.6140 C   0  0  0  0  0  0
  -43.2500   38.7590   -8.0020 C   0  0  0  0  0  0
  -42.5200   39.8860   -8.1660 O   0  0  0  0  0  0
  -42.7680   37.7290   -7.2570 C   0  0  0  0  0  0
  -43.5200   36.6180   -7.1120 C   0  0  0  0  0  0
  -43.0080   35.6070   -6.3610 O   0  0  0  0  0  0
  -46.7960   35.2850   -8.0450 O   0  0  0  0  0  0
  -47.1410   36.0640   -9.2330 C   0  0  2  0  0  0
  -46.6070   37.4670   -9.1190 C   0  0  0  0  0  0
  -48.6380   36.0110   -9.3520 C   0  0  0  0  0  0
  -49.1850   34.6570   -9.6890 C   0  0  2  0  0  0
  -48.5590   34.1100  -10.8410 O   0  0  0  0  0  0
  -48.9050   34.7560  -12.0630 C   0  0  1  0  0  0
  -48.1370   34.0620  -13.1380 C   0  0  0  0  0  0
  -50.3910   34.7000  -12.2770 C   0  0  0  0  0  0
  -51.1240   35.3150  -11.1240 C   0  0  0  0  0  0
  -50.7020   34.6560   -9.8430 C   0  0  0  0  0  0
  -44.8513   39.5374   -9.2054 H   0  0  0  0  0  0
  -42.9167   40.7152   -8.7702 H   0  0  0  0  0  0
  -41.7886   37.7996   -6.7838 H   0  0  0  0  0  0
  -43.5861   34.6825   -6.2157 H   0  0  0  0  0  0
  -46.6727   35.6313  -10.1294 H   0  0  0  0  0  0
  -47.3395   38.0407   -8.5322 H   0  0  0  0  0  0
  -46.5562   37.8732  -10.1400 H   0  0  0  0  0  0
  -49.0926   36.3118   -8.3966 H   0  0  0  0  0  0
  -48.9672   36.6967  -10.1466 H   0  0  0  0  0  0
  -48.8954   33.9784   -8.8732 H   0  0  0  0  0  0
  -48.6221   35.8178  -12.0120 H   0  0  0  0  0  0
  -47.0602   34.1372  -12.9262 H   0  0  0  0  0  0
  -48.3540   34.5348  -14.1072 H   0  0  0  0  0  0
  -48.4308   33.0025  -13.1729 H   0  0  0  0  0  0
  -50.6505   35.2504  -13.1934 H   0  0  0  0  0  0
  -50.7078   33.6514  -12.3770 H   0  0  0  0  0  0
  -50.8928   36.3892  -11.0736 H   0  0  0  0  0  0
  -52.2067   35.1791  -11.2633 H   0  0  0  0  0  0
  -51.0695   33.6192   -9.8468 H   0  0  0  0  0  0
  -51.1562   35.2029   -9.0035 H   0  0  0  0  0  0
  1  2  2  0  0  0
  2  3  1  0  0  0
  2 11  1  0  0  0
  3  4  2  0  0  0
  3  9  1  0  0  0
  4  5  1  0  0  0
  4 13  1  0  0  0
  5  6  2  0  0  0
  5 22  1  0  0  0
  6  7  1  0  0  0
  6  8  1  0  0  0
  7 23  1  0  0  0
  8  9  2  0  0  0
  8 24  1  0  0  0
  9 10  1  0  0  0
 10 25  1  0  0  0
 11 12  1  0  0  0
 12 13  1  0  0  0
 12 14  1  0  0  0
 12 26  1  0  0  0
 13 27  1  0  0  0
 13 28  1  0  0  0
 14 15  1  0  0  0
 14 29  1  0  0  0
 14 30  1  0  0  0
 15 16  1  0  0  0
 15 21  1  0  0  0
 15 31  1  0  0  0
 16 17  1  0  0  0
 17 18  1  0  0  0
 17 19  1  0  0  0
 17 32  1  0  0  0
 18 33  1  0  0  0
 18 34  1  0  0  0
 18 35  1  0  0  0
 19 20  1  0  0  0
 19 36  1  0  0  0
 19 37  1  0  0  0
 20 21  1  0  0  0
 20 38  1  0  0  0
 20 39  1  0  0  0
 21 40  1  0  0  0
 21 41  1  0  0  0
M  END
> <s_m_source_file>
../4pg3_ligand.sdf

> <i_m_source_file_index>
1

> <s_epik_input>
W0NIMl0xW0NIMl1bQ0gyXVtDQEhdKFtDSDNdKU9bQ0BIXTFbQ0gyXVtDQEhdKE9DMj1PKVtDSDJdYyhjMjMpW2NIXWMoW09IXSlbY0hdYzNbT0hd

> <s_epik_cmdline>
J2VwaWtfYXBwJywgJy1pbWFlJywgJ2xpZ2FuZF9wcm8ubWFlJywgJy1vbWFlJywgJ2xpZ2FuZF9wcmVwLm1hZScsICctbXMnLCAnMScsICctcGgnLCAnNycsICctcGh0JywgJzAuNScsICctbnQn

> <r_epik_Ionization_Penalty>
  0.0528

> <r_epik_Ionization_Penalty_Charging>
  0.0000

> <r_epik_Ionization_Penalty_Neutral>
  0.0528

> <r_epik_State_Penalty>
  0.0410

> <r_epik_Charging_Adjusted_Penalty>
0.0409598162868501

> <i_epik_Tot_Q>
0

> <i_epik_Tot_abs_Q>
0

> <s_epik_Chemistry_Notes>
This compound has an ester and may undergo hydrolysis at high or low pH.

$$$$
