4pg9_ligand
                    3D
 Schrodinger Suite 2020-3.
132135  0  0  1  0            999 V2000
   56.7660   18.5390    5.0820 N   0  3  0  0  0  0
   57.9610   19.3120    4.6290 C   0  0  2  0  0  0
   57.6920   19.8370    3.2220 C   0  0  0  0  0  0
   57.7350   19.0880    2.2420 O   0  0  0  0  0  0
   59.2020   18.4220    4.6760 C   0  0  0  0  0  0
   60.5130   19.1580    4.5580 C   0  0  0  0  0  0
   61.1670   19.6330    5.6910 C   0  0  0  0  0  0
   61.1300   19.3210    3.3210 C   0  0  0  0  0  0
   62.3940   20.2800    5.5920 C   0  0  0  0  0  0
   62.3590   19.9680    3.2160 C   0  0  0  0  0  0
   62.9880   20.4490    4.3540 C   0  0  0  0  0  0
   57.4000   21.1300    3.1420 N   0  0  0  0  0  0
   56.9120   21.7420    1.9150 C   0  0  2  0  0  0
   57.9900   21.8210    0.8430 C   0  0  0  0  0  0
   59.1790   21.7920    1.1520 O   0  0  0  0  0  0
   56.3780   23.1360    2.2110 C   0  0  0  0  0  0
   57.5750   21.9110   -0.4310 N   0  0  0  0  0  0
   58.5310   22.2370   -1.4880 C   0  0  2  0  0  0
   59.1870   23.5870   -1.2090 C   0  0  0  0  0  0
   58.4890   24.5440   -0.8590 O   0  0  0  0  0  0
   57.6630   22.3270   -2.7450 C   0  0  0  0  0  0
   56.4280   21.5580   -2.4280 C   0  0  0  0  0  0
   56.2150   21.6980   -0.9550 C   0  0  0  0  0  0
   60.5090   23.6460   -1.3450 N   0  0  0  0  0  0
   61.2720   24.8730   -1.1030 C   0  0  0  0  0  0
   61.5620   25.6950   -2.3380 C   0  0  0  0  0  0
   62.1430   26.7740   -2.2360 O   0  0  0  0  0  0
   61.1620   25.1970   -3.5020 N   0  0  0  0  0  0
   61.3600   25.9220   -4.7480 C   0  0  2  0  0  0
   60.2280   25.6420   -5.7300 C   0  0  0  0  0  0
   59.9770   24.4910   -6.0900 O   0  0  0  0  0  0
   62.7040   25.5460   -5.3840 C   0  0  0  0  0  0
   62.9330   26.2300   -6.7260 C   0  0  0  0  0  0
   62.3540   27.2770   -7.0130 O   0  0  0  0  0  0
   63.7810   25.6360   -7.5570 N   0  0  0  0  0  0
   59.5320   26.7030   -6.1270 N   0  0  0  0  0  0
   58.6460   26.6630   -7.2750 C   0  0  2  0  0  0
   59.3060   27.5160   -8.3480 C   0  0  0  0  0  0
   59.2810   28.7420   -8.2580 O   0  0  0  0  0  0
   57.2730   27.2350   -6.9420 C   0  0  0  0  0  0
   56.5030   26.4520   -5.9100 C   0  0  0  0  0  0
   56.5410   26.8160   -4.5720 C   0  0  0  0  0  0
   55.7230   25.3570   -6.2690 C   0  0  0  0  0  0
   55.8330   26.1090   -3.6160 C   0  0  0  0  0  0
   55.0090   24.6440   -5.3190 C   0  0  0  0  0  0
   55.0720   25.0270   -3.9950 C   0  0  0  0  0  0
   54.3690   24.3360   -3.0410 O   0  0  0  0  0  0
   59.9240   26.8750   -9.3580 N   0  0  0  0  0  0
   60.5850   27.6690  -10.3990 C   0  0  2  0  0  0
   59.6250   28.6410  -11.0740 C   0  0  0  0  0  0
   58.4210   28.4020  -11.0990 O   0  0  0  0  0  0
   61.0860   26.6140  -11.3970 C   0  0  0  0  0  0
   60.3540   25.3560  -11.0630 C   0  0  0  0  0  0
   60.0510   25.4260   -9.6020 C   0  0  0  0  0  0
   60.1650   29.7260  -11.6140 N   0  0  0  0  0  0
   59.3530   30.7790  -12.2070 C   0  0  2  0  0  0
   58.6770   30.3030  -13.4850 C   0  0  0  0  0  0
   59.2490   29.5240  -14.2450 O   0  0  0  0  0  0
   60.2090   32.0040  -12.4920 C   0  0  0  0  0  0
   57.4590   30.7860  -13.7160 N   0  0  0  0  0  0
   56.7130   30.4470  -14.9260 C   0  0  2  0  0  0
   57.3070   31.1390  -16.1480 C   0  0  0  0  0  0
   58.0170   32.1460  -16.0360 O   0  5  0  0  0  0
   55.2360   30.8340  -14.7870 C   0  0  0  0  0  0
   54.4640   30.2340  -13.6050 C   0  0  0  0  0  0
   53.0270   30.7300  -13.5910 C   0  0  0  0  0  0
   54.5000   28.7180  -13.6220 C   0  0  0  0  0  0
   57.0780   30.6940  -17.2750 O   0  0  0  0  0  0
   55.8763   19.1849    5.0459 H   0  0  0  0  0  0
   56.9243   18.1901    6.1131 H   0  0  0  0  0  0
   56.6174   17.6727    4.4206 H   0  0  0  0  0  0
   58.1276   20.1623    5.3067 H   0  0  0  0  0  0
   59.2281   17.8794    5.6325 H   0  0  0  0  0  0
   59.1676   17.7007    3.8462 H   0  0  0  0  0  0
   60.7104   19.4958    6.6712 H   0  0  0  0  0  0
   60.6453   18.9375    2.4232 H   0  0  0  0  0  0
   62.8874   20.6537    6.4892 H   0  0  0  0  0  0
   62.8260   20.0961    2.2395 H   0  0  0  0  0  0
   63.9480   20.9590    4.2736 H   0  0  0  0  0  0
   57.5384   21.7428    4.0450 H   0  0  0  0  0  0
   56.1112   21.0739    1.5651 H   0  0  0  0  0  0
   55.5997   23.0736    2.9858 H   0  0  0  0  0  0
   55.9490   23.5666    1.2942 H   0  0  0  0  0  0
   57.1993   23.7753    2.5669 H   0  0  0  0  0  0
   59.3260   21.4787   -1.5418 H   0  0  0  0  0  0
   57.4367   23.3819   -2.9595 H   0  0  0  0  0  0
   58.2037   21.8876   -3.5962 H   0  0  0  0  0  0
   55.5809   21.9762   -2.9915 H   0  0  0  0  0  0
   56.5703   20.5039   -2.7085 H   0  0  0  0  0  0
   55.7869   20.7900   -0.5053 H   0  0  0  0  0  0
   55.5852   22.5639   -0.7031 H   0  0  0  0  0  0
   61.0290   22.7265   -1.6518 H   0  0  0  0  0  0
   60.7122   25.5231   -0.4145 H   0  0  0  0  0  0
   62.2447   24.6180   -0.6571 H   0  0  0  0  0  0
   60.6710   24.2127   -3.5104 H   0  0  0  0  0  0
   61.3492   26.9841   -4.4619 H   0  0  0  0  0  0
   63.5231   25.8414   -4.7119 H   0  0  0  0  0  0
   62.7398   24.4592   -5.5500 H   0  0  0  0  0  0
   64.2774   24.7003   -7.2603 H   0  0  0  0  0  0
   63.9872   26.0795   -8.5423 H   0  0  0  0  0  0
   59.6456   27.6339   -5.5521 H   0  0  0  0  0  0
   58.5217   25.6101   -7.5682 H   0  0  0  0  0  0
   57.3867   28.2562   -6.5492 H   0  0  0  0  0  0
   56.6552   27.2588   -7.8518 H   0  0  0  0  0  0
   57.1396   27.6747   -4.2680 H   0  0  0  0  0  0
   55.6727   25.0549   -7.3151 H   0  0  0  0  0  0
   55.8779   26.4075   -2.5686 H   0  0  0  0  0  0
   54.4028   23.7879   -5.6153 H   0  0  0  0  0  0
   54.4225   24.6453   -1.9867 H   0  0  0  0  0  0
   61.3765   28.2888   -9.9524 H   0  0  0  0  0  0
   60.8635   26.9444  -12.4223 H   0  0  0  0  0  0
   62.1723   26.4859  -11.2807 H   0  0  0  0  0  0
   59.4296   25.3010  -11.6567 H   0  0  0  0  0  0
   60.9904   24.4891  -11.2942 H   0  0  0  0  0  0
   60.8636   25.0196   -8.9819 H   0  0  0  0  0  0
   59.1063   24.9262   -9.3419 H   0  0  0  0  0  0
   61.2613   29.8162  -11.6046 H   0  0  0  0  0  0
   58.5847   31.0144  -11.4558 H   0  0  0  0  0  0
   60.6918   32.3383  -11.5619 H   0  0  0  0  0  0
   59.5742   32.8112  -12.8863 H   0  0  0  0  0  0
   60.9798   31.7481  -13.2339 H   0  0  0  0  0  0
   57.0152   31.4575  -12.9662 H   0  0  0  0  0  0
   56.8184   29.3564  -15.0237 H   0  0  0  0  0  0
   55.1522   31.9246  -14.6702 H   0  0  0  0  0  0
   54.6880   30.5185  -15.6871 H   0  0  0  0  0  0
   54.9562   30.5626  -12.6778 H   0  0  0  0  0  0
   53.0189   31.8299  -13.5788 H   0  0  0  0  0  0
   52.5165   30.3495  -12.6940 H   0  0  0  0  0  0
   52.5059   30.3694  -14.4901 H   0  0  0  0  0  0
   55.5455   28.3762  -13.6320 H   0  0  0  0  0  0
   53.9850   28.3491  -14.5213 H   0  0  0  0  0  0
   53.9956   28.3292  -12.7251 H   0  0  0  0  0  0
  1  2  1  0  0  0
  1 69  1  0  0  0
  1 70  1  0  0  0
  1 71  1  0  0  0
  2  3  1  0  0  0
  2  5  1  0  0  0
  2 72  1  0  0  0
  3  4  2  0  0  0
  3 12  1  0  0  0
  5  6  1  0  0  0
  5 73  1  0  0  0
  5 74  1  0  0  0
  6  7  2  0  0  0
  6  8  1  0  0  0
  7  9  1  0  0  0
  7 75  1  0  0  0
  8 10  2  0  0  0
  8 76  1  0  0  0
  9 11  2  0  0  0
  9 77  1  0  0  0
 10 11  1  0  0  0
 10 78  1  0  0  0
 11 79  1  0  0  0
 12 13  1  0  0  0
 12 80  1  0  0  0
 13 14  1  0  0  0
 13 16  1  0  0  0
 13 81  1  0  0  0
 14 15  2  0  0  0
 14 17  1  0  0  0
 16 82  1  0  0  0
 16 83  1  0  0  0
 16 84  1  0  0  0
 17 18  1  0  0  0
 17 23  1  0  0  0
 18 19  1  0  0  0
 18 21  1  0  0  0
 18 85  1  0  0  0
 19 20  2  0  0  0
 19 24  1  0  0  0
 21 22  1  0  0  0
 21 86  1  0  0  0
 21 87  1  0  0  0
 22 23  1  0  0  0
 22 88  1  0  0  0
 22 89  1  0  0  0
 23 90  1  0  0  0
 23 91  1  0  0  0
 24 25  1  0  0  0
 24 92  1  0  0  0
 25 26  1  0  0  0
 25 93  1  0  0  0
 25 94  1  0  0  0
 26 27  2  0  0  0
 26 28  1  0  0  0
 28 29  1  0  0  0
 28 95  1  0  0  0
 29 30  1  0  0  0
 29 32  1  0  0  0
 29 96  1  0  0  0
 30 31  2  0  0  0
 30 36  1  0  0  0
 32 33  1  0  0  0
 32 97  1  0  0  0
 32 98  1  0  0  0
 33 34  2  0  0  0
 33 35  1  0  0  0
 35 99  1  0  0  0
 35100  1  0  0  0
 36 37  1  0  0  0
 36101  1  0  0  0
 37 38  1  0  0  0
 37 40  1  0  0  0
 37102  1  0  0  0
 38 39  2  0  0  0
 38 48  1  0  0  0
 40 41  1  0  0  0
 40103  1  0  0  0
 40104  1  0  0  0
 41 42  2  0  0  0
 41 43  1  0  0  0
 42 44  1  0  0  0
 42105  1  0  0  0
 43 45  2  0  0  0
 43106  1  0  0  0
 44 46  2  0  0  0
 44107  1  0  0  0
 45 46  1  0  0  0
 45108  1  0  0  0
 46 47  1  0  0  0
 47109  1  0  0  0
 48 49  1  0  0  0
 48 54  1  0  0  0
 49 50  1  0  0  0
 49 52  1  0  0  0
 49110  1  0  0  0
 50 51  2  0  0  0
 50 55  1  0  0  0
 52 53  1  0  0  0
 52111  1  0  0  0
 52112  1  0  0  0
 53 54  1  0  0  0
 53113  1  0  0  0
 53114  1  0  0  0
 54115  1  0  0  0
 54116  1  0  0  0
 55 56  1  0  0  0
 55117  1  0  0  0
 56 57  1  0  0  0
 56 59  1  0  0  0
 56118  1  0  0  0
 57 58  2  0  0  0
 57 60  1  0  0  0
 59119  1  0  0  0
 59120  1  0  0  0
 59121  1  0  0  0
 60 61  1  0  0  0
 60122  1  0  0  0
 61 62  1  0  0  0
 61 64  1  0  0  0
 61123  1  0  0  0
 62 63  1  0  0  0
 62 68  2  0  0  0
 64 65  1  0  0  0
 64124  1  0  0  0
 64125  1  0  0  0
 65 66  1  0  0  0
 65 67  1  0  0  0
 65126  1  0  0  0
 66127  1  0  0  0
 66128  1  0  0  0
 66129  1  0  0  0
 67130  1  0  0  0
 67131  1  0  0  0
 67132  1  0  0  0
M  CHG  2   1   1  63  -1
M  END
> <s_m_source_file>
../4pg9_ligand.sdf

> <i_m_source_file_index>
1

> <s_epik_input>
W2NIXTFbY0hdW2NIXVtjSF1bY0hdYzFbQ0gyXVtDQEhdKFtOSDMrXSlDKD1PKVtOSF1bQ0BASF0oW0NIM10pQyg9TylOMltDQEBIXShbQ0gyXVtDSDJdW0NIMl0yKUMoPU8pW05IXVtDSDJdQyg9TylbTkhdW0NAQEhdKFtDSDJdQyg9TylbTkgyXSlDKD1PKVtOSF1bQ0BASF0oW0NIMl1jM1tjSF1bY0hdYyhbT0hdKVtjSF1bY0hdMylDKD1PKU40W0NAQEhdKFtDSDJdW0NIMl1bQ0gyXTQpQyg9TylbTkhdW0NAQEhdKFtDSDNdKUMoPU8pW05IXVtDQEhdKEMoPU8pW09IXSlbQ0gyXVtDSF0oW0NIM10pW0NIM10=

> <s_epik_cmdline>
J2VwaWtfYXBwJywgJy1pbWFlJywgJ2xpZ2FuZF9wcm8ubWFlJywgJy1vbWFlJywgJ2xpZ2FuZF9wcmVwLm1hZScsICctbXMnLCAnMScsICctcGgnLCAnNycsICctcGh0JywgJzAuNScsICctbnQn

> <r_lp_tautomer_probability>
0.999999999997365

> <r_epik_Ionization_Penalty>
  0.1943

> <r_epik_Ionization_Penalty_Charging>
  0.1932

> <r_epik_Ionization_Penalty_Neutral>
  0.0011

> <r_epik_State_Penalty>
  0.1827

> <r_epik_Charging_Adjusted_Penalty>
0.375966859526837

> <i_epik_Tot_Q>
0

> <i_epik_Tot_abs_Q>
2

$$$$
