4pgb_ligand
                    3D
 Schrodinger Suite 2020-3.
135139  0  0  1  0            999 V2000
  -12.9640   -2.7730   35.3080 N   0  3  0  0  0  0
  -14.2610   -2.0830   35.5370 C   0  0  2  0  0  0
  -14.1470   -0.6440   35.0510 C   0  0  0  0  0  0
  -13.7100    0.2410   35.7880 O   0  0  0  0  0  0
  -14.6330   -2.1360   37.0210 C   0  0  0  0  0  0
  -16.0600   -1.7660   37.3060 C   0  0  0  0  0  0
  -17.0490   -2.7420   37.3400 C   0  0  0  0  0  0
  -16.4170   -0.4470   37.5510 C   0  0  0  0  0  0
  -18.3660   -2.4090   37.6070 C   0  0  0  0  0  0
  -17.7330   -0.1070   37.8190 C   0  0  0  0  0  0
  -18.7090   -1.0890   37.8470 C   0  0  0  0  0  0
  -14.5360   -0.4250   33.7980 N   0  0  0  0  0  0
  -14.3950    0.8800   33.1610 C   0  0  2  0  0  0
  -15.2820    1.9240   33.8350 C   0  0  0  0  0  0
  -16.2790    1.5710   34.4660 O   0  0  0  0  0  0
  -14.7280    0.7860   31.6790 C   0  0  0  0  0  0
  -14.9220    3.2140   33.7090 N   0  0  0  0  0  0
  -15.7560    4.2470   34.3200 C   0  0  2  0  0  0
  -17.0980    4.3970   33.6050 C   0  0  0  0  0  0
  -17.1340    4.5290   32.3820 O   0  0  0  0  0  0
  -14.9140    5.5270   34.1710 C   0  0  0  0  0  0
  -13.5470    5.0770   33.7810 C   0  0  0  0  0  0
  -13.7440    3.7930   33.0430 C   0  0  0  0  0  0
  -18.1850    4.3520   34.3700 N   0  0  0  0  0  0
  -19.5250    4.6000   33.8440 C   0  0  0  0  0  0
  -19.9770    6.0020   34.2000 C   0  0  0  0  0  0
  -19.3390    6.6750   35.0100 O   0  0  0  0  0  0
  -21.0780    6.4400   33.5950 N   0  0  0  0  0  0
  -21.6370    7.7710   33.8430 C   0  0  2  0  0  0
  -20.5850    8.8740   33.7300 C   0  0  0  0  0  0
  -20.2450    9.5300   34.7180 O   0  0  0  0  0  0
  -22.3190    7.8240   35.2180 C   0  0  0  0  0  0
  -23.4670    6.8400   35.3450 C   0  0  0  0  0  0
  -23.6230    6.1850   36.3760 O   0  0  0  0  0  0
  -24.2780    6.7310   34.2990 N   0  0  0  0  0  0
  -20.0720    9.0600   32.5150 N   0  0  0  0  0  0
  -19.0670   10.0830   32.2380 C   0  0  2  0  0  0
  -19.7270   11.4670   32.2820 C   0  0  0  0  0  0
  -20.7590   11.6770   31.6450 O   0  0  0  0  0  0
  -18.4290    9.8440   30.8610 C   0  0  0  0  0  0
  -16.9350    9.8310   30.8790 C   0  0  0  0  0  0
  -16.1050   10.9090   30.9440 C   0  0  0  0  0  0
  -16.0880    8.6760   30.8180 C   0  0  0  0  0  0
  -14.7940   10.5000   30.9350 N   0  3  0  0  0  0
  -14.7560    9.1330   30.8590 C   0  0  0  0  0  0
  -16.3260    7.3010   30.7380 C   0  0  0  0  0  0
  -13.6680    8.2650   30.8190 C   0  0  0  0  0  0
  -15.2430    6.4400   30.6980 C   0  0  0  0  0  0
  -13.9310    6.9260   30.7400 C   0  0  0  0  0  0
  -19.1360   12.4190   33.0300 N   0  0  0  0  0  0
  -19.7700   13.7330   33.1020 C   0  0  2  0  0  0
  -19.6420   14.5140   31.8010 C   0  0  0  0  0  0
  -18.6090   14.4390   31.1370 O   0  0  0  0  0  0
  -19.0000   14.4300   34.2210 C   0  0  0  0  0  0
  -17.6550   13.8020   34.1960 C   0  0  0  0  0  0
  -17.8900   12.3700   33.8180 C   0  0  0  0  0  0
  -20.6910   15.2520   31.4500 N   0  0  0  0  0  0
  -20.7090   16.0350   30.2190 C   0  0  2  0  0  0
  -19.7760   17.2340   30.3290 C   0  0  0  0  0  0
  -19.6270   17.8150   31.4040 O   0  0  0  0  0  0
  -22.1240   16.4990   29.9110 C   0  0  0  0  0  0
  -19.1560   17.6000   29.2100 N   0  0  0  0  0  0
  -18.2180   18.7210   29.1750 C   0  0  2  0  0  0
  -18.9520   20.0540   29.3000 C   0  0  0  0  0  0
  -18.3740   21.0620   29.6990 O   0  0  0  0  0  0
  -17.4030   18.6990   27.8780 C   0  0  0  0  0  0
  -16.5450   17.4570   27.6170 C   0  0  0  0  0  0
  -15.9580   17.5110   26.2180 C   0  0  0  0  0  0
  -15.4380   17.3120   28.6500 C   0  0  0  0  0  0
  -20.1430   20.1580   29.0090 O   0  5  0  0  0  0
  -12.7084   -2.7279   34.2391 H   0  0  0  0  0  0
  -13.0477   -3.8242   35.6209 H   0  0  0  0  0  0
  -12.1764   -2.2774   35.8946 H   0  0  0  0  0  0
  -15.0395   -2.6045   34.9608 H   0  0  0  0  0  0
  -14.4800   -3.1568   37.4011 H   0  0  0  0  0  0
  -13.9975   -1.4363   37.5836 H   0  0  0  0  0  0
  -16.7843   -3.7829   37.1541 H   0  0  0  0  0  0
  -15.6530    0.3302   37.5323 H   0  0  0  0  0  0
  -19.1316   -3.1845   37.6283 H   0  0  0  0  0  0
  -18.0000    0.9328   38.0077 H   0  0  0  0  0  0
  -19.7450   -0.8235   38.0575 H   0  0  0  0  0  0
  -14.9753   -1.2649   33.2398 H   0  0  0  0  0  0
  -13.3384    1.1556   33.2938 H   0  0  0  0  0  0
  -14.0829    0.0313   31.2054 H   0  0  0  0  0  0
  -14.5598    1.7632   31.2027 H   0  0  0  0  0  0
  -15.7820    0.4956   31.5577 H   0  0  0  0  0  0
  -15.9910    3.9677   35.3577 H   0  0  0  0  0  0
  -15.3572    6.1692   33.3956 H   0  0  0  0  0  0
  -14.8961    6.0677   35.1288 H   0  0  0  0  0  0
  -13.0784    5.8397   33.1417 H   0  0  0  0  0  0
  -12.9372    4.9311   34.6848 H   0  0  0  0  0  0
  -12.8901    3.1075   33.1471 H   0  0  0  0  0  0
  -13.9639    3.9453   31.9760 H   0  0  0  0  0  0
  -18.0472    4.1175   35.4358 H   0  0  0  0  0  0
  -19.5149    4.4925   32.7493 H   0  0  0  0  0  0
  -20.2291    3.8743   34.2772 H   0  0  0  0  0  0
  -21.5713    5.7598   32.8850 H   0  0  0  0  0  0
  -22.3741    7.9099   33.0384 H   0  0  0  0  0  0
  -21.5844    7.5851   36.0011 H   0  0  0  0  0  0
  -22.7219    8.8332   35.3888 H   0  0  0  0  0  0
  -24.0989    7.3371   33.3987 H   0  0  0  0  0  0
  -25.1288    6.0346   34.3329 H   0  0  0  0  0  0
  -20.4319    8.4089   31.7047 H   0  0  0  0  0  0
  -18.3027    9.9922   33.0239 H   0  0  0  0  0  0
  -18.7579    8.8705   30.4685 H   0  0  0  0  0  0
  -18.7389   10.6417   30.1698 H   0  0  0  0  0  0
  -16.5251   11.9244   30.9936 H   0  0  0  0  0  0
  -17.3446    6.9143   30.7077 H   0  0  0  0  0  0
  -12.6447    8.6393   30.8495 H   0  0  0  0  0  0
  -15.4147    5.3656   30.6327 H   0  0  0  0  0  0
  -13.1004    6.2208   30.7090 H   0  0  0  0  0  0
  -20.8492   13.6175   33.2809 H   0  0  0  0  0  0
  -18.9519   15.5096   34.0157 H   0  0  0  0  0  0
  -19.5131   14.2615   35.1793 H   0  0  0  0  0  0
  -17.0244   14.3153   33.4551 H   0  0  0  0  0  0
  -17.1931   13.8848   35.1909 H   0  0  0  0  0  0
  -18.0370   11.7248   34.6967 H   0  0  0  0  0  0
  -17.0787   11.9635   33.1963 H   0  0  0  0  0  0
  -21.5632   15.2607   32.1202 H   0  0  0  0  0  0
  -20.3531   15.3600   29.4267 H   0  0  0  0  0  0
  -22.7878   15.6252   29.8340 H   0  0  0  0  0  0
  -22.1303   17.0493   28.9586 H   0  0  0  0  0  0
  -22.4775   17.1581   30.7176 H   0  0  0  0  0  0
  -19.3674   17.0309   28.2927 H   0  0  0  0  0  0
  -17.5617   18.5755   30.0457 H   0  0  0  0  0  0
  -18.0827   18.7752   27.0165 H   0  0  0  0  0  0
  -16.7040   19.5483   27.8697 H   0  0  0  0  0  0
  -17.1897   16.5694   27.6980 H   0  0  0  0  0  0
  -16.7701   17.6158   25.4835 H   0  0  0  0  0  0
  -15.4003   16.5841   26.0184 H   0  0  0  0  0  0
  -15.2783   18.3722   26.1386 H   0  0  0  0  0  0
  -15.8789   17.2744   29.6571 H   0  0  0  0  0  0
  -14.7563   18.1724   28.5801 H   0  0  0  0  0  0
  -14.8783   16.3843   28.4599 H   0  0  0  0  0  0
  -13.9854   11.2440   30.9851 H   0  0  0  0  0  0
  1  2  1  0  0  0
  1 71  1  0  0  0
  1 72  1  0  0  0
  1 73  1  0  0  0
  2  3  1  0  0  0
  2  5  1  0  0  0
  2 74  1  0  0  0
  3  4  2  0  0  0
  3 12  1  0  0  0
  5  6  1  0  0  0
  5 75  1  0  0  0
  5 76  1  0  0  0
  6  7  2  0  0  0
  6  8  1  0  0  0
  7  9  1  0  0  0
  7 77  1  0  0  0
  8 10  2  0  0  0
  8 78  1  0  0  0
  9 11  2  0  0  0
  9 79  1  0  0  0
 10 11  1  0  0  0
 10 80  1  0  0  0
 11 81  1  0  0  0
 12 13  1  0  0  0
 12 82  1  0  0  0
 13 14  1  0  0  0
 13 16  1  0  0  0
 13 83  1  0  0  0
 14 15  2  0  0  0
 14 17  1  0  0  0
 16 84  1  0  0  0
 16 85  1  0  0  0
 16 86  1  0  0  0
 17 18  1  0  0  0
 17 23  1  0  0  0
 18 19  1  0  0  0
 18 21  1  0  0  0
 18 87  1  0  0  0
 19 20  2  0  0  0
 19 24  1  0  0  0
 21 22  1  0  0  0
 21 88  1  0  0  0
 21 89  1  0  0  0
 22 23  1  0  0  0
 22 90  1  0  0  0
 22 91  1  0  0  0
 23 92  1  0  0  0
 23 93  1  0  0  0
 24 25  1  0  0  0
 24 94  1  0  0  0
 25 26  1  0  0  0
 25 95  1  0  0  0
 25 96  1  0  0  0
 26 27  2  0  0  0
 26 28  1  0  0  0
 28 29  1  0  0  0
 28 97  1  0  0  0
 29 30  1  0  0  0
 29 32  1  0  0  0
 29 98  1  0  0  0
 30 31  2  0  0  0
 30 36  1  0  0  0
 32 33  1  0  0  0
 32 99  1  0  0  0
 32100  1  0  0  0
 33 34  2  0  0  0
 33 35  1  0  0  0
 35101  1  0  0  0
 35102  1  0  0  0
 36 37  1  0  0  0
 36103  1  0  0  0
 37 38  1  0  0  0
 37 40  1  0  0  0
 37104  1  0  0  0
 38 39  2  0  0  0
 38 50  1  0  0  0
 40 41  1  0  0  0
 40105  1  0  0  0
 40106  1  0  0  0
 41 42  2  0  0  0
 41 43  1  0  0  0
 42 44  1  0  0  0
 42107  1  0  0  0
 43 45  2  0  0  0
 43 46  1  0  0  0
 44 45  1  0  0  0
 44135  1  0  0  0
 45 47  1  0  0  0
 46 48  2  0  0  0
 46108  1  0  0  0
 47 49  2  0  0  0
 47109  1  0  0  0
 48 49  1  0  0  0
 48110  1  0  0  0
 49111  1  0  0  0
 50 51  1  0  0  0
 50 56  1  0  0  0
 51 52  1  0  0  0
 51 54  1  0  0  0
 51112  1  0  0  0
 52 53  2  0  0  0
 52 57  1  0  0  0
 54 55  1  0  0  0
 54113  1  0  0  0
 54114  1  0  0  0
 55 56  1  0  0  0
 55115  1  0  0  0
 55116  1  0  0  0
 56117  1  0  0  0
 56118  1  0  0  0
 57 58  1  0  0  0
 57119  1  0  0  0
 58 59  1  0  0  0
 58 61  1  0  0  0
 58120  1  0  0  0
 59 60  2  0  0  0
 59 62  1  0  0  0
 61121  1  0  0  0
 61122  1  0  0  0
 61123  1  0  0  0
 62 63  1  0  0  0
 62124  1  0  0  0
 63 64  1  0  0  0
 63 66  1  0  0  0
 63125  1  0  0  0
 64 65  2  0  0  0
 64 70  1  0  0  0
 66 67  1  0  0  0
 66126  1  0  0  0
 66127  1  0  0  0
 67 68  1  0  0  0
 67 69  1  0  0  0
 67128  1  0  0  0
 68129  1  0  0  0
 68130  1  0  0  0
 68131  1  0  0  0
 69132  1  0  0  0
 69133  1  0  0  0
 69134  1  0  0  0
M  CHG  3   1   1  44   1  70  -1
M  END
> <s_m_source_file>
../4pgb_ligand.sdf

> <i_m_source_file_index>
1

> <s_epik_input>
W2NIXTFbY0hdW2NIXVtjSF1bY0hdYzFbQ0gyXVtDQEhdKFtOSDMrXSlDKD1PKVtOSF1bQ0BASF0oW0NIM10pQyg9TylOMltDQEBIXShbQ0gyXVtDSDJdW0NIMl0yKUMoPU8pW05IXVtDSDJdQyg9TylbTkhdW0NAQEhdKFtDSDJdQyg9TylbTkgyXSlDKD1PKVtOSF1bQ0BASF0oW0NIMl1jM1tjSF1bbkhdYyhjMzQpW2NIXVtjSF1bY0hdW2NIXTQpQyg9TylONVtDQEBIXShbQ0gyXVtDSDJdW0NIMl01KUMoPU8pW05IXVtDQEBIXShbQ0gzXSlDKD1PKVtOSF1bQ0BIXShDKD1PKVtPSF0pW0NIMl1bQ0hdKFtDSDNdKVtDSDNd

> <s_epik_cmdline>
J2VwaWtfYXBwJywgJy1pbWFlJywgJ2xpZ2FuZF9wcm8ubWFlJywgJy1vbWFlJywgJ2xpZ2FuZF9wcmVwLm1hZScsICctbXMnLCAnMScsICctcGgnLCAnNycsICctcGh0JywgJzAuNScsICctbnQn

> <r_epik_Ionization_Penalty>
  0.1932

> <r_epik_Ionization_Penalty_Charging>
  0.1932

> <r_epik_Ionization_Penalty_Neutral>
  0.0000

> <r_epik_State_Penalty>
  0.1827

> <r_epik_Charging_Adjusted_Penalty>
0.375966859526837

> <i_epik_Tot_Q>
1

> <i_epik_Tot_abs_Q>
3

$$$$
