4ph4_ligand
                    3D
 Schrodinger Suite 2020-3.
 42 45  0  0  1  0            999 V2000
    2.2840    6.5480  -13.6430 C   0  0  0  0  0  0
    1.2660    5.6310  -13.3650 C   0  0  0  0  0  0
    0.8130    4.7170  -14.4500 C   0  0  0  0  0  0
   -1.1500   -0.5540  -13.5680 C   0  0  0  0  0  0
    0.6990    5.7340  -12.0710 C   0  0  0  0  0  0
   -0.2390    4.7190  -11.4580 C   0  0  0  0  0  0
   -1.6710    5.1860  -11.1720 C   0  0  0  0  0  0
   -2.1770    4.9440   -9.7920 C   0  0  0  0  0  0
   -1.9040    6.3390  -10.2440 C   0  0  0  0  0  0
    2.3340    8.5840  -10.8150 N   0  0  0  0  0  0
    2.0370    7.5710  -11.6340 C   0  0  0  0  0  0
    1.0760    6.7120  -11.2270 N   0  0  0  0  0  0
    2.6850    7.5190  -12.8180 N   0  0  0  0  0  0
    0.3640    3.5030  -14.0780 N   0  0  0  0  0  0
    0.0640    2.6450  -15.0710 C   0  0  0  0  0  0
    0.1580    2.8890  -16.3880 N   0  0  0  0  0  0
    0.5970    4.1110  -16.7150 C   0  0  0  0  0  0
    0.9350    5.0680  -15.7880 C   0  0  0  0  0  0
   -0.3610    1.3920  -14.7520 N   0  0  0  0  0  0
   -0.5820    0.7160  -13.5360 C   0  0  0  0  0  0
   -1.3680   -1.2040  -12.3630 C   0  0  0  0  0  0
   -1.0530   -0.6880  -11.1710 N   0  3  0  0  0  0
   -0.4950    0.5280  -11.1620 C   0  0  0  0  0  0
   -0.2480    1.2720  -12.3040 C   0  0  0  0  0  0
    2.7885    6.4643  -14.6056 H   0  0  0  0  0  0
   -1.4162   -1.0247  -14.5144 H   0  0  0  0  0  0
   -0.3366    3.8556  -12.1326 H   0  0  0  0  0  0
    0.1639    4.3847  -10.4906 H   0  0  0  0  0  0
   -2.0202    4.9623  -12.1908 H   0  0  0  0  0  0
   -3.1551    4.4432   -9.8427 H   0  0  0  0  0  0
   -1.4659    4.3054   -9.2474 H   0  0  0  0  0  0
   -0.9596    6.8810  -10.0884 H   0  0  0  0  0  0
   -2.6488    7.0188  -10.6836 H   0  0  0  0  0  0
    1.8319    8.6683   -9.8399 H   0  0  0  0  0  0
    3.0806    9.3337  -11.1158 H   0  0  0  0  0  0
    0.6913    4.3600  -17.7720 H   0  0  0  0  0  0
    1.2826    6.0563  -16.0891 H   0  0  0  0  0  0
   -0.6114    0.6766  -15.5492 H   0  0  0  0  0  0
   -1.8231   -2.1941  -12.3893 H   0  0  0  0  0  0
   -0.2185    0.9585  -10.1995 H   0  0  0  0  0  0
    0.1957    2.2655  -12.2399 H   0  0  0  0  0  0
   -1.2548   -1.2600  -10.2534 H   0  0  0  0  0  0
  1  2  2  0  0  0
  1 13  1  0  0  0
  1 25  1  0  0  0
  2  3  1  0  0  0
  2  5  1  0  0  0
  3 14  2  0  0  0
  3 18  1  0  0  0
  4 20  2  0  0  0
  4 21  1  0  0  0
  4 26  1  0  0  0
  5  6  1  0  0  0
  5 12  2  0  0  0
  6  7  1  0  0  0
  6 27  1  0  0  0
  6 28  1  0  0  0
  7  8  1  0  0  0
  7  9  1  0  0  0
  7 29  1  0  0  0
  8  9  1  0  0  0
  8 30  1  0  0  0
  8 31  1  0  0  0
  9 32  1  0  0  0
  9 33  1  0  0  0
 10 11  1  0  0  0
 10 34  1  0  0  0
 10 35  1  0  0  0
 11 12  1  0  0  0
 11 13  2  0  0  0
 14 15  1  0  0  0
 15 16  2  0  0  0
 15 19  1  0  0  0
 16 17  1  0  0  0
 17 18  2  0  0  0
 17 36  1  0  0  0
 18 37  1  0  0  0
 19 20  1  0  0  0
 19 38  1  0  0  0
 20 24  1  0  0  0
 21 22  2  0  0  0
 21 39  1  0  0  0
 22 23  1  0  0  0
 22 42  1  0  0  0
 23 24  2  0  0  0
 23 40  1  0  0  0
 24 41  1  0  0  0
M  CHG  1  22   1
M  END
> <s_m_source_file>
../4ph4_ligand.sdf

> <i_m_source_file_index>
1

> <s_epik_input>
W0NIMl0xW0NIMl1bQ0hdMVtDSDJdYzJuYyhbTkgyXSluW2NIXWMyLWMzbmMobltjSF1bY0hdMylbTkhdYzRbY0hdW2NIXW5bY0hdW2NIXTQ=

> <s_epik_cmdline>
J2VwaWtfYXBwJywgJy1pbWFlJywgJ2xpZ2FuZF9wcm8ubWFlJywgJy1vbWFlJywgJ2xpZ2FuZF9wcmVwLm1hZScsICctbXMnLCAnMScsICctcGgnLCAnNycsICctcGh0JywgJzAuNScsICctbnQn

> <r_lp_tautomer_probability>
0.999999975208801

> <r_epik_Ionization_Penalty>
  0.2873

> <r_epik_Ionization_Penalty_Charging>
  0.2872

> <r_epik_Ionization_Penalty_Neutral>
  0.0001

> <r_epik_State_Penalty>
  0.2801

> <r_epik_Charging_Adjusted_Penalty>
0.567253547794473

> <i_epik_Tot_Q>
1

> <i_epik_Tot_abs_Q>
1

$$$$
