4phu_ligand
                    3D
 Schrodinger Suite 2020-3.
 68 71  0  0  1  0            999 V2000
  -54.9970   -0.8710   59.6860 C   0  0  0  0  0  0
  -56.3440    0.8570   60.7020 C   0  0  0  0  0  0
  -57.7790    1.0020   61.2050 C   0  0  0  0  0  0
  -57.7360    1.0580   62.7320 C   0  0  0  0  0  0
  -60.5810    1.2750   62.7050 C   0  0  0  0  0  0
  -54.6330   -2.2070   59.5990 C   0  0  0  0  0  0
  -53.1780   -4.0550   58.8160 C   0  0  0  0  0  0
  -51.5760   -2.0010   57.3990 C   0  0  0  0  0  0
  -49.2720   -2.7140   56.0140 C   0  0  0  0  0  0
  -49.1550   -2.0820   57.2450 C   0  0  0  0  0  0
  -47.7840   -1.7910   57.8180 C   0  0  0  0  0  0
  -46.1080   -2.9890   59.1470 C   0  0  0  0  0  0
  -44.0330   -1.9850   59.8090 C   0  0  0  0  0  0
  -42.2460   -3.6120   60.8170 C   0  0  2  0  0  0
  -52.3910    0.8440   57.5560 C   0  0  0  0  0  0
  -53.1530   -0.2560   58.2620 C   0  0  0  0  0  0
  -54.2530    0.0970   59.0140 C   0  0  0  0  0  0
  -56.0900   -0.5310   60.4250 O   0  0  0  0  0  0
  -59.2290    0.3370   63.4850 S   0  0  0  0  0  0
  -59.3430   -1.0340   63.1080 O   0  0  0  0  0  0
  -59.1770    0.6650   64.8730 O   0  0  0  0  0  0
  -53.5300   -2.5820   58.8620 C   0  0  0  0  0  0
  -52.7790   -1.6080   58.1840 C   0  0  0  0  0  0
  -51.6860   -2.6290   56.1520 C   0  0  0  0  0  0
  -50.5300   -2.9790   55.4760 C   0  0  0  0  0  0
  -47.3600   -2.9080   58.6180 O   0  0  0  0  0  0
  -45.3080   -1.8550   59.2730 C   0  0  0  0  0  0
  -43.5690   -3.2140   60.2190 C   0  0  0  0  0  0
  -41.2210   -3.3910   59.7090 C   0  0  0  0  0  0
  -39.8020   -3.3040   60.1950 C   0  0  0  0  0  0
  -39.4350   -3.0020   61.4670 O   0  5  0  0  0  0
  -38.9740   -3.5320   59.3430 O   0  0  0  0  0  0
  -42.4310   -5.1170   61.1530 C   0  0  0  0  0  0
  -43.6980   -5.4660   60.5480 O   0  0  0  0  0  0
  -44.3480   -4.3550   60.0980 C   0  0  0  0  0  0
  -45.6330   -4.2310   59.5640 C   0  0  0  0  0  0
  -50.3040   -1.7330   57.9500 C   0  0  0  0  0  0
  -56.2152    1.4505   59.7848 H   0  0  0  0  0  0
  -55.6470    1.2176   61.4729 H   0  0  0  0  0  0
  -58.2173    1.9267   60.8015 H   0  0  0  0  0  0
  -58.3735    0.1386   60.8715 H   0  0  0  0  0  0
  -56.8631    0.4957   63.0951 H   0  0  0  0  0  0
  -57.6590    2.1056   63.0585 H   0  0  0  0  0  0
  -60.6283    1.0281   61.6341 H   0  0  0  0  0  0
  -60.3963    2.3527   62.8250 H   0  0  0  0  0  0
  -61.5349    1.0108   63.1848 H   0  0  0  0  0  0
  -55.2223   -2.9642   60.1162 H   0  0  0  0  0  0
  -53.9021   -4.6240   59.4176 H   0  0  0  0  0  0
  -52.1667   -4.2032   59.2226 H   0  0  0  0  0  0
  -53.2096   -4.4072   57.7744 H   0  0  0  0  0  0
  -48.3756   -3.0042   55.4659 H   0  0  0  0  0  0
  -47.0695   -1.6323   56.9968 H   0  0  0  0  0  0
  -47.8319   -0.8865   58.4422 H   0  0  0  0  0  0
  -43.3950   -1.1065   59.9056 H   0  0  0  0  0  0
  -41.9338   -3.0392   61.7027 H   0  0  0  0  0  0
  -52.8691    1.8127   57.7635 H   0  0  0  0  0  0
  -52.3971    0.6568   56.4721 H   0  0  0  0  0  0
  -51.3528    0.8622   57.9191 H   0  0  0  0  0  0
  -54.5442    1.1451   59.0838 H   0  0  0  0  0  0
  -52.6651   -2.8385   55.7213 H   0  0  0  0  0  0
  -50.6049   -3.4705   54.5060 H   0  0  0  0  0  0
  -45.6774   -0.8799   58.9555 H   0  0  0  0  0  0
  -41.2679   -4.2259   58.9943 H   0  0  0  0  0  0
  -41.4428   -2.4485   59.1869 H   0  0  0  0  0  0
  -41.5977   -5.6934   60.7248 H   0  0  0  0  0  0
  -42.4458   -5.2498   62.2448 H   0  0  0  0  0  0
  -46.2685   -5.1119   59.4729 H   0  0  0  0  0  0
  -50.2215   -1.2538   58.9255 H   0  0  0  0  0  0
  1  6  2  0  0  0
  1 17  1  0  0  0
  1 18  1  0  0  0
  2  3  1  0  0  0
  2 18  1  0  0  0
  2 38  1  0  0  0
  2 39  1  0  0  0
  3  4  1  0  0  0
  3 40  1  0  0  0
  3 41  1  0  0  0
  4 19  1  0  0  0
  4 42  1  0  0  0
  4 43  1  0  0  0
  5 19  1  0  0  0
  5 44  1  0  0  0
  5 45  1  0  0  0
  5 46  1  0  0  0
  6 22  1  0  0  0
  6 47  1  0  0  0
  7 22  1  0  0  0
  7 48  1  0  0  0
  7 49  1  0  0  0
  7 50  1  0  0  0
  8 23  1  0  0  0
  8 24  2  0  0  0
  8 37  1  0  0  0
  9 10  1  0  0  0
  9 25  2  0  0  0
  9 51  1  0  0  0
 10 11  1  0  0  0
 10 37  2  0  0  0
 11 26  1  0  0  0
 11 52  1  0  0  0
 11 53  1  0  0  0
 12 26  1  0  0  0
 12 27  2  0  0  0
 12 36  1  0  0  0
 13 27  1  0  0  0
 13 28  2  0  0  0
 13 54  1  0  0  0
 14 28  1  0  0  0
 14 29  1  0  0  0
 14 33  1  0  0  0
 14 55  1  0  0  0
 15 16  1  0  0  0
 15 56  1  0  0  0
 15 57  1  0  0  0
 15 58  1  0  0  0
 16 17  2  0  0  0
 16 23  1  0  0  0
 17 59  1  0  0  0
 19 20  2  0  0  0
 19 21  2  0  0  0
 22 23  2  0  0  0
 24 25  1  0  0  0
 24 60  1  0  0  0
 25 61  1  0  0  0
 27 62  1  0  0  0
 28 35  1  0  0  0
 29 30  1  0  0  0
 29 63  1  0  0  0
 29 64  1  0  0  0
 30 31  1  0  0  0
 30 32  2  0  0  0
 33 34  1  0  0  0
 33 65  1  0  0  0
 33 66  1  0  0  0
 34 35  1  0  0  0
 35 36  2  0  0  0
 36 67  1  0  0  0
 37 68  1  0  0  0
M  CHG  1  31  -1
M  END
> <s_m_source_file>
../4phu_ligand.sdf

> <i_m_source_file_index>
1

> <s_epik_input>
W0NIM11TKD1PKSg9TylbQ0gyXVtDSDJdW0NIMl1PYzFbY0hdYyhbQ0gzXSljKGMoW0NIM10pW2NIXTEpLWMyW2NIXVtjSF1bY0hdYyhbY0hdMilbQ0gyXU9jKFtjSF1bY0hdMylbY0hdYyhjMzQpT1tDSDJdW0NASF00W0NIMl1DKD1PKVtPSF0=

> <s_epik_cmdline>
J2VwaWtfYXBwJywgJy1pbWFlJywgJ2xpZ2FuZF9wcm8ubWFlJywgJy1vbWFlJywgJ2xpZ2FuZF9wcmVwLm1hZScsICctbXMnLCAnMScsICctcGgnLCAnNycsICctcGh0JywgJzAuNScsICctbnQn

> <r_lp_tautomer_probability>
1

> <r_epik_Ionization_Penalty>
  0.0022

> <r_epik_Ionization_Penalty_Charging>
  0.0022

> <r_epik_Ionization_Penalty_Neutral>
  0.0000

> <r_epik_State_Penalty>
 -0.0000

> <r_epik_Charging_Adjusted_Penalty>
0.00217362028592874

> <i_epik_Tot_Q>
-1

> <i_epik_Tot_abs_Q>
1

$$$$
