4phw_ligand
                    3D
 Schrodinger Suite 2020-3.
 50 54  0  0  1  0            999 V2000
   23.9520   77.7000   18.5680 O   0  0  0  0  0  0
   24.5100   78.5000   19.2990 C   0  0  0  0  0  0
   24.7610   79.8850   18.7890 C   0  0  0  0  0  0
   24.9200   80.9890   19.5170 N   0  0  0  0  0  0
   25.1410   82.0540   18.6420 C   0  0  0  0  0  0
   25.3900   83.4570   18.8430 C   0  0  0  0  0  0
   25.5770   84.3120   17.7180 C   0  0  0  0  0  0
   25.5330   83.7960   16.4340 C   0  0  0  0  0  0
   25.2960   82.4100   16.2400 C   0  0  0  0  0  0
   25.0990   81.5500   17.3710 C   0  0  0  0  0  0
   24.8610   80.1960   17.4760 N   0  0  0  0  0  0
   24.9740   78.0240   20.7080 C   0  0  0  0  0  0
   25.8330   78.7960   21.5310 C   0  0  0  0  0  0
   26.2070   78.3140   22.7830 C   0  0  0  0  0  0
   25.7440   77.0730   23.2210 C   0  0  0  0  0  0
   26.1680   76.5830   24.4910 O   0  0  0  0  0  0
   25.1340   76.1280   25.3770 C   0  0  0  0  0  0
   24.0270   76.8730   25.5130 N   0  0  0  0  0  0
   23.0250   76.5100   26.3530 C   0  0  0  0  0  0
   23.1390   75.3150   27.1190 C   0  0  0  0  0  0
   24.2800   74.5380   26.9920 C   0  0  0  0  0  0
   25.3180   74.9170   26.1280 C   0  0  0  0  0  0
   26.5710   74.0020   26.0190 C   0  0  0  0  0  0
   27.7530   74.7680   26.4390 C   0  0  0  0  0  0
   28.9960   73.8930   26.4800 C   0  0  0  0  0  0
   29.2390   73.1450   25.2490 O   0  0  0  0  0  0
   28.0200   72.5080   24.7130 C   0  0  0  0  0  0
   26.8070   73.4300   24.7020 C   0  0  0  0  0  0
   24.8880   76.2830   22.3810 C   0  0  0  0  0  0
   24.5150   76.7660   21.1530 C   0  0  0  0  0  0
   25.4356   83.8669   19.8627 H   0  0  0  0  0  0
   25.7569   85.3860   17.8733 H   0  0  0  0  0  0
   25.6814   84.4595   15.5692 H   0  0  0  0  0  0
   25.2637   81.9989   15.2310 H   0  0  0  0  0  0
   26.1990   79.7627   21.1851 H   0  0  0  0  0  0
   26.8621   78.9069   23.4213 H   0  0  0  0  0  0
   22.1343   77.1321   26.4413 H   0  0  0  0  0  0
   22.3395   75.0151   27.7964 H   0  0  0  0  0  0
   24.3719   73.6195   27.5717 H   0  0  0  0  0  0
   26.4386   73.1118   26.6515 H   0  0  0  0  0  0
   27.9283   75.5900   25.7294 H   0  0  0  0  0  0
   27.5840   75.1812   27.4443 H   0  0  0  0  0  0
   29.8812   74.5216   26.6572 H   0  0  0  0  0  0
   28.9001   73.1575   27.2923 H   0  0  0  0  0  0
   28.1994   72.1875   23.6761 H   0  0  0  0  0  0
   27.7628   71.6329   25.3279 H   0  0  0  0  0  0
   25.9263   72.8486   24.3916 H   0  0  0  0  0  0
   26.9865   74.2384   23.9779 H   0  0  0  0  0  0
   24.5375   75.3071   22.7169 H   0  0  0  0  0  0
   23.8587   76.1735   20.5155 H   0  0  0  0  0  0
  1  2  2  0  0  0
  2  3  1  0  0  0
  2 12  1  0  0  0
  3  4  2  0  0  0
  3 11  1  0  0  0
  4  5  1  0  0  0
  5  6  2  0  0  0
  5 10  1  0  0  0
  6  7  1  0  0  0
  6 31  1  0  0  0
  7  8  2  0  0  0
  7 32  1  0  0  0
  8  9  1  0  0  0
  8 33  1  0  0  0
  9 10  1  0  0  0
  9 34  1  0  0  0
 10 11  2  0  0  0
 12 13  2  0  0  0
 12 30  1  0  0  0
 13 14  1  0  0  0
 13 35  1  0  0  0
 14 15  2  0  0  0
 14 36  1  0  0  0
 15 16  1  0  0  0
 15 29  1  0  0  0
 16 17  1  0  0  0
 17 18  2  0  0  0
 17 22  1  0  0  0
 18 19  1  0  0  0
 19 20  2  0  0  0
 19 37  1  0  0  0
 20 21  1  0  0  0
 20 38  1  0  0  0
 21 22  2  0  0  0
 21 39  1  0  0  0
 22 23  1  0  0  0
 23 24  1  0  0  0
 23 28  1  0  0  0
 23 40  1  0  0  0
 24 25  1  0  0  0
 24 41  1  0  0  0
 24 42  1  0  0  0
 25 26  1  0  0  0
 25 43  1  0  0  0
 25 44  1  0  0  0
 26 27  1  0  0  0
 27 28  1  0  0  0
 27 45  1  0  0  0
 27 46  1  0  0  0
 28 47  1  0  0  0
 28 48  1  0  0  0
 29 30  2  0  0  0
 29 49  1  0  0  0
 30 50  1  0  0  0
M  END
> <s_m_source_file>
../4phw_ligand.sdf

> <i_m_source_file_index>
1

> <s_epik_input>
W0NIXTFbQ0hdPVtDSF1bQ0gyXUMoQz0xMik9TkMoPU4yKUMoPU8pYzNbY0hdW2NIXWMoW2NIXVtjSF0zKU9jNG5bY0hdW2NIXVtjSF1jNFtDSF01W0NIMl1bQ0gyXU9bQ0gyXVtDSDJdNQ==

> <s_epik_cmdline>
J2VwaWtfYXBwJywgJy1pbWFlJywgJ2xpZ2FuZF9wcm8ubWFlJywgJy1vbWFlJywgJ2xpZ2FuZF9wcmVwLm1hZScsICctbXMnLCAnMScsICctcGgnLCAnNycsICctcGh0JywgJzAuNScsICctbnQn

> <r_lp_tautomer_probability>
1

> <r_epik_Ionization_Penalty>
  0.0017

> <r_epik_Ionization_Penalty_Charging>
  0.0000

> <r_epik_Ionization_Penalty_Neutral>
  0.0017

> <r_epik_State_Penalty>
 -0.0000

> <r_epik_Charging_Adjusted_Penalty>
0

> <i_epik_Tot_Q>
0

> <i_epik_Tot_abs_Q>
0

> <s_epik_Chemistry_Notes>
This compound has an imine and may undergo hydrolysis.

$$$$
