4pid_ligand
                    3D
 Schrodinger Suite 2020-3.
 30 31  0  0  1  0            999 V2000
  -24.6560   50.4500   39.0120 C   0  0  0  0  0  0
  -23.7850   50.6510   40.1100 C   0  0  0  0  0  0
  -27.0950   46.4310   38.3930 C   0  0  0  0  0  0
  -21.1570   52.7170   38.6040 C   0  0  0  0  0  0
  -25.9150   46.0740   39.1230 C   0  0  0  0  0  0
  -25.4810   44.7260   39.2230 C   0  0  0  0  0  0
  -26.2410   43.6900   38.6110 C   0  0  0  0  0  0
  -27.4250   44.0120   37.8760 C   0  0  0  0  0  0
  -27.8480   45.3740   37.7690 C   0  0  0  0  0  0
  -22.6090   51.3750   39.9730 N   0  0  0  0  0  0
  -22.3210   51.8700   38.7080 C   0  0  0  0  0  0
  -23.1700   51.7210   37.6190 N   0  0  0  0  0  0
  -24.3390   51.0230   37.7370 C   0  0  0  0  0  0
  -25.8930   49.5480   39.2650 C   0  0  0  0  0  0
  -26.2410   49.3660   40.4700 O   0  0  0  0  0  0
  -26.4370   48.8810   38.1720 N   0  0  0  0  0  0
  -27.5680   47.9250   38.2690 C   0  0  0  0  0  0
  -20.3690   52.7620   39.5820 N   0  0  0  0  0  0
  -24.0430   50.2291   41.0813 H   0  0  0  0  0  0
  -20.9497   53.3127   37.7028 H   0  0  0  0  0  0
  -25.3363   46.8566   39.6136 H   0  0  0  0  0  0
  -24.5678   44.4851   39.7672 H   0  0  0  0  0  0
  -25.9210   42.6520   38.7023 H   0  0  0  0  0  0
  -28.0036   43.2212   37.3985 H   0  0  0  0  0  0
  -28.7512   45.6148   37.2084 H   0  0  0  0  0  0
  -25.0106   50.9055   36.8865 H   0  0  0  0  0  0
  -25.9808   49.0960   37.1944 H   0  0  0  0  0  0
  -28.1838   48.0408   37.3649 H   0  0  0  0  0  0
  -28.1618   48.1963   39.1543 H   0  0  0  0  0  0
  -20.5763   52.1663   40.4832 H   0  0  0  0  0  0
  1  2  2  0  0  0
  1 13  1  0  0  0
  1 14  1  0  0  0
  2 10  1  0  0  0
  2 19  1  0  0  0
  3  5  2  0  0  0
  3  9  1  0  0  0
  3 17  1  0  0  0
  4 11  1  0  0  0
  4 18  2  0  0  0
  4 20  1  0  0  0
  5  6  1  0  0  0
  5 21  1  0  0  0
  6  7  2  0  0  0
  6 22  1  0  0  0
  7  8  1  0  0  0
  7 23  1  0  0  0
  8  9  2  0  0  0
  8 24  1  0  0  0
  9 25  1  0  0  0
 10 11  2  0  0  0
 11 12  1  0  0  0
 12 13  2  0  0  0
 13 26  1  0  0  0
 14 15  2  0  0  0
 14 16  1  0  0  0
 16 17  1  0  0  0
 16 27  1  0  0  0
 17 28  1  0  0  0
 17 29  1  0  0  0
 18 30  1  0  0  0
M  END
> <s_m_source_file>
../4pid_ligand.sdf

> <i_m_source_file_index>
1

> <s_epik_input>
W0hdL049W0NIXVxjKG5bY0hdMSluW2NIXWMxQyg9TylbTkhdW0NIMl1jMltjSF1bY0hdW2NIXVtjSF1bY0hdMg==

> <s_epik_cmdline>
J2VwaWtfYXBwJywgJy1pbWFlJywgJ2xpZ2FuZF9wcm8ubWFlJywgJy1vbWFlJywgJ2xpZ2FuZF9wcmVwLm1hZScsICctbXMnLCAnMScsICctcGgnLCAnNycsICctcGh0JywgJzAuNScsICctbnQn

> <r_lp_tautomer_probability>
1

> <r_epik_Ionization_Penalty>
  0.0000

> <r_epik_Ionization_Penalty_Charging>
  0.0000

> <r_epik_Ionization_Penalty_Neutral>
  0.0000

> <r_epik_State_Penalty>
 -0.0000

> <r_epik_Charging_Adjusted_Penalty>
0

> <i_epik_Tot_Q>
0

> <i_epik_Tot_abs_Q>
0

> <s_epik_Chemistry_Notes>
This compound contains an electron-poor aromatic ring that is susceptible to covalent hydrolysis at low pH, typically resulting in measured values for nitrogen ring protonation that are around two units higher than predicted values. This compound has an imine and may undergo hydrolysis.

$$$$
