4piq_ligand
                    3D
 Schrodinger Suite 2020-3.
 46 46  0  0  1  0            999 V2000
   34.3500  -27.1790   15.4860 C   0  0  0  0  0  0
   35.6020  -27.0420   14.6420 C   0  0  0  0  0  0
   35.5460  -25.6490   13.9940 C   0  0  0  0  0  0
   36.2430  -24.5590   14.5610 C   0  0  0  0  0  0
   36.1380  -23.2650   14.0050 C   0  0  0  0  0  0
   35.3090  -23.0470   12.8930 C   0  0  0  0  0  0
   34.6010  -24.1250   12.3330 C   0  0  0  0  0  0
   34.7180  -25.4160   12.8770 C   0  0  0  0  0  0
   33.3320  -27.5990   14.9400 O   0  0  0  0  0  0
   33.5740  -23.8640   10.9470 Cl  0  0  0  0  0  0
   37.0170  -21.9220   14.7170 Cl  0  0  0  0  0  0
   34.4410  -26.7760   16.7920 N   0  0  0  0  0  0
   33.3330  -26.7810   17.7740 C   0  0  2  0  0  0
   33.1870  -25.4280   18.4880 C   0  0  0  0  0  0
   33.8600  -24.4710   18.1160 O   0  0  0  0  0  0
   33.4940  -27.9090   18.8530 C   0  0  2  0  0  0
   34.6020  -27.6040   19.7210 O   0  0  0  0  0  0
   33.5800  -29.3630   18.3040 C   0  0  0  0  0  0
   32.3230  -25.3550   19.5460 N   0  0  0  0  0  0
   32.0810  -24.1740   20.3720 C   0  0  0  0  0  0
   30.8860  -24.3650   21.2850 C   0  0  0  0  0  0
   29.9560  -25.0630   20.8920 O   0  0  0  0  0  0
   28.7740  -22.7700   23.1980 C   0  0  0  0  0  0
   28.4010  -22.1240   24.1560 N   0  0  0  0  0  0
   29.8150  -23.7830   23.4650 C   0  0  0  0  0  0
   30.9100  -23.7270   22.4890 N   0  0  0  0  0  0
   36.4897  -27.1400   15.2842 H   0  0  0  0  0  0
   35.6154  -27.8306   13.8752 H   0  0  0  0  0  0
   36.8696  -24.7186   15.4385 H   0  0  0  0  0  0
   35.2149  -22.0483   12.4665 H   0  0  0  0  0  0
   34.1645  -26.2429   12.4319 H   0  0  0  0  0  0
   35.4402  -26.4273   17.0920 H   0  0  0  0  0  0
   32.4533  -26.9612   17.1387 H   0  0  0  0  0  0
   32.6081  -27.8910   19.5048 H   0  0  0  0  0  0
   34.6786  -26.6104   20.1867 H   0  0  0  0  0  0
   32.7195  -29.5584   17.6472 H   0  0  0  0  0  0
   33.5690  -30.0733   19.1439 H   0  0  0  0  0  0
   34.5123  -29.4848   17.7330 H   0  0  0  0  0  0
   31.7860  -26.2919   19.7552 H   0  0  0  0  0  0
   32.9652  -23.9752   20.9954 H   0  0  0  0  0  0
   31.8868  -23.3067   19.7238 H   0  0  0  0  0  0
   28.3841  -22.6377   22.1780 H   0  0  0  0  0  0
   28.8364  -22.3110   25.1487 H   0  0  0  0  0  0
   29.7100  -24.4675   24.3197 H   0  0  0  0  0  0
   31.7862  -23.1271   22.7762 H   0  0  0  0  0  0
   27.6277  -21.3517   24.0312 H   0  0  0  0  0  0
  1  2  1  0  0  0
  1  9  2  0  0  0
  1 12  1  0  0  0
  2  3  1  0  0  0
  2 27  1  0  0  0
  2 28  1  0  0  0
  3  4  2  0  0  0
  3  8  1  0  0  0
  4  5  1  0  0  0
  4 29  1  0  0  0
  5  6  2  0  0  0
  5 11  1  0  0  0
  6  7  1  0  0  0
  6 30  1  0  0  0
  7  8  2  0  0  0
  7 10  1  0  0  0
  8 31  1  0  0  0
 12 13  1  0  0  0
 12 32  1  0  0  0
 13 14  1  0  0  0
 13 16  1  0  0  0
 13 33  1  0  0  0
 14 15  2  0  0  0
 14 19  1  0  0  0
 16 17  1  0  0  0
 16 18  1  0  0  0
 16 34  1  0  0  0
 17 35  1  0  0  0
 18 36  1  0  0  0
 18 37  1  0  0  0
 18 38  1  0  0  0
 19 20  1  0  0  0
 19 39  1  0  0  0
 20 21  1  0  0  0
 20 40  1  0  0  0
 20 41  1  0  0  0
 21 22  2  0  0  0
 21 26  1  0  0  0
 23 24  1  0  0  0
 23 25  2  0  0  0
 23 42  1  0  0  0
 24 43  1  0  0  0
 24 46  1  0  0  0
 25 26  1  0  0  0
 25 44  1  0  0  0
 26 45  1  0  0  0
M  END
> <s_m_source_file>
../4piq_ligand.sdf

> <i_m_source_file_index>
1

> <s_epik_input>
W2NIXTFjKENsKVtjSF1jKENsKVtjSF1jMVtDSDJdQyg9TylbTkhdW0NAQEhdKFtDQEhdKFtPSF0pW0NIM10pQyg9TylbTkhdW0NIMl1DKD1PKVtOSF1bQ0gyXS9bQ0hdPU5cW0hd

> <s_epik_cmdline>
J2VwaWtfYXBwJywgJy1pbWFlJywgJ2xpZ2FuZF9wcm8ubWFlJywgJy1vbWFlJywgJ2xpZ2FuZF9wcmVwLm1hZScsICctbXMnLCAnMScsICctcGgnLCAnNycsICctcGh0JywgJzAuNScsICctbnQn

> <r_lp_tautomer_probability>
1

> <r_epik_Ionization_Penalty>
  0.0002

> <r_epik_Ionization_Penalty_Charging>
  0.0002

> <r_epik_Ionization_Penalty_Neutral>
  0.0000

> <r_epik_State_Penalty>
 -0.0000

> <r_epik_Charging_Adjusted_Penalty>
0.000185462576978999

> <i_epik_Tot_Q>
0

> <i_epik_Tot_abs_Q>
0

> <s_epik_Chemistry_Notes>
This compound has an imine and may undergo hydrolysis.

$$$$
