4pis_ligand
                    3D
 Schrodinger Suite 2020-3.
 60 61  0  0  1  0            999 V2000
  -38.0910   17.5900  -12.4920 C   0  0  0  0  0  0
  -37.4670   18.7020  -13.0960 C   0  0  0  0  0  0
  -37.9840   19.2180  -14.3020 C   0  0  0  0  0  0
  -39.1160   18.6090  -14.8970 C   0  0  0  0  0  0
  -43.2780   16.8850  -15.7290 C   0  0  0  0  0  0
  -42.4080   18.8160  -14.5470 C   0  0  0  0  0  0
  -40.3600   15.7410  -15.7710 C   0  0  0  0  0  0
  -40.9720   16.7410  -14.8030 C   0  0  1  0  0  0
  -39.7340   17.4900  -14.2790 C   0  0  0  0  0  0
  -39.2050   16.9950  -13.0830 C   0  0  0  0  0  0
  -37.4850   16.8420  -11.0370 Cl  0  0  0  0  0  0
  -37.2410   20.6350  -15.0290 Cl  0  0  0  0  0  0
  -40.0890   14.6410  -15.2980 O   0  0  0  0  0  0
  -42.0310   17.6350  -15.3860 N   0  0  0  0  0  0
  -40.1440   16.0970  -17.0730 N   0  0  0  0  0  0
  -39.5370   15.2220  -18.1040 C   0  0  2  0  0  0
  -38.2490   15.8370  -18.6610 C   0  0  0  0  0  0
  -37.7630   16.8130  -18.0940 O   0  0  0  0  0  0
  -40.5530   14.8320  -19.2450 C   0  0  2  0  0  0
  -41.3900   16.0130  -19.8410 C   0  0  0  0  0  0
  -41.4800   13.6890  -18.7480 C   0  0  0  0  0  0
  -40.7120   16.8220  -20.9820 C   0  0  0  0  0  0
  -36.4480   15.8870  -20.3070 C   0  0  0  0  0  0
  -36.1410   15.2790  -21.6770 C   0  0  0  0  0  0
  -34.6130   14.0670  -23.0340 C   0  0  0  0  0  0
  -36.6550   14.8180  -23.9880 C   0  0  0  0  0  0
  -37.0250   15.4080  -22.7650 C   0  0  0  0  0  0
  -37.6640   15.2970  -19.7620 N   0  0  0  0  0  0
  -34.9570   14.6430  -21.8430 N   0  0  0  0  0  0
  -35.4710   14.1520  -24.0930 N   0  0  0  0  0  0
  -33.3310   13.3910  -23.1800 C   0  0  0  0  0  0
  -32.6360   13.4330  -24.2880 N   0  0  0  0  0  0
  -36.5919   19.1587  -12.6338 H   0  0  0  0  0  0
  -39.5142   19.0009  -15.8329 H   0  0  0  0  0  0
  -44.0195   17.5797  -16.1503 H   0  0  0  0  0  0
  -43.6870   16.4187  -14.8205 H   0  0  0  0  0  0
  -43.0449   16.1047  -16.4685 H   0  0  0  0  0  0
  -43.1850   19.3992  -15.0629 H   0  0  0  0  0  0
  -41.5224   19.4479  -14.3845 H   0  0  0  0  0  0
  -42.7936   18.4686  -13.5771 H   0  0  0  0  0  0
  -41.5733   16.2522  -14.0223 H   0  0  0  0  0  0
  -39.6699   16.1321  -12.6061 H   0  0  0  0  0  0
  -40.4586   17.1182  -17.3342 H   0  0  0  0  0  0
  -39.2598   14.3118  -17.5521 H   0  0  0  0  0  0
  -39.9445   14.4838  -20.0927 H   0  0  0  0  0  0
  -42.3287   15.6220  -20.2605 H   0  0  0  0  0  0
  -41.6178   16.7387  -19.0463 H   0  0  0  0  0  0
  -40.8678   12.8738  -18.3350 H   0  0  0  0  0  0
  -42.0770   13.3088  -19.5900 H   0  0  0  0  0  0
  -42.1516   14.0750  -17.9670 H   0  0  0  0  0  0
  -41.3902   17.6199  -21.3187 H   0  0  0  0  0  0
  -40.4885   16.1510  -21.8245 H   0  0  0  0  0  0
  -39.7775   17.2676  -20.6103 H   0  0  0  0  0  0
  -35.6106   15.6887  -19.6219 H   0  0  0  0  0  0
  -36.5874   16.9732  -20.4108 H   0  0  0  0  0  0
  -37.3159   14.8939  -24.8515 H   0  0  0  0  0  0
  -37.9664   15.9479  -22.6634 H   0  0  0  0  0  0
  -38.1095   14.4132  -20.2421 H   0  0  0  0  0  0
  -32.9513   12.8296  -22.3136 H   0  0  0  0  0  0
  -33.0157   13.9944  -25.1544 H   0  0  0  0  0  0
  1  2  2  0  0  0
  1 10  1  0  0  0
  1 11  1  0  0  0
  2  3  1  0  0  0
  2 33  1  0  0  0
  3  4  2  0  0  0
  3 12  1  0  0  0
  4  9  1  0  0  0
  4 34  1  0  0  0
  5 14  1  0  0  0
  5 35  1  0  0  0
  5 36  1  0  0  0
  5 37  1  0  0  0
  6 14  1  0  0  0
  6 38  1  0  0  0
  6 39  1  0  0  0
  6 40  1  0  0  0
  7  8  1  0  0  0
  7 13  2  0  0  0
  7 15  1  0  0  0
  8  9  1  0  0  0
  8 14  1  0  0  0
  8 41  1  0  0  0
  9 10  2  0  0  0
 10 42  1  0  0  0
 15 16  1  0  0  0
 15 43  1  0  0  0
 16 17  1  0  0  0
 16 19  1  0  0  0
 16 44  1  0  0  0
 17 18  2  0  0  0
 17 28  1  0  0  0
 19 20  1  0  0  0
 19 21  1  0  0  0
 19 45  1  0  0  0
 20 22  1  0  0  0
 20 46  1  0  0  0
 20 47  1  0  0  0
 21 48  1  0  0  0
 21 49  1  0  0  0
 21 50  1  0  0  0
 22 51  1  0  0  0
 22 52  1  0  0  0
 22 53  1  0  0  0
 23 24  1  0  0  0
 23 28  1  0  0  0
 23 54  1  0  0  0
 23 55  1  0  0  0
 24 27  2  0  0  0
 24 29  1  0  0  0
 25 29  2  0  0  0
 25 30  1  0  0  0
 25 31  1  0  0  0
 26 27  1  0  0  0
 26 30  2  0  0  0
 26 56  1  0  0  0
 27 57  1  0  0  0
 28 58  1  0  0  0
 31 32  2  0  0  0
 31 59  1  0  0  0
 32 60  1  0  0  0
M  END
> <s_m_source_file>
../4pis_ligand.sdf

> <i_m_source_file_index>
1

> <s_epik_input>
Q2xjMVtjSF1jKENsKVtjSF1jKFtjSF0xKVtDQEBIXShbTkgrXShbQ0gzXSlbQ0gzXSlDKD1PKVtOSF1bQ0BASF0oW0NAQEhdKFtDSDNdKVtDSDJdW0NIM10pQyg9TylbTkhdW0NIMl1jMltjSF1bY0hdbmMobjIpL1tDSF09TlxbSF0=

> <s_epik_cmdline>
J2VwaWtfYXBwJywgJy1pbWFlJywgJ2xpZ2FuZF9wcm8ubWFlJywgJy1vbWFlJywgJ2xpZ2FuZF9wcmVwLm1hZScsICctbXMnLCAnMScsICctcGgnLCAnNycsICctcGh0JywgJzAuNScsICctbnQn

> <r_epik_Ionization_Penalty>
  0.1626

> <r_epik_Ionization_Penalty_Charging>
  0.0000

> <r_epik_Ionization_Penalty_Neutral>
  0.1626

> <r_epik_State_Penalty>
  0.1519

> <r_epik_Charging_Adjusted_Penalty>
0.151888819576155

> <i_epik_Tot_Q>
0

> <i_epik_Tot_abs_Q>
0

> <s_epik_Chemistry_Notes>
This compound contains an electron-poor aromatic ring that is susceptible to covalent hydrolysis at low pH, typically resulting in measured values for nitrogen ring protonation that are around two units higher than predicted values. This compound has an imine and may undergo hydrolysis.

$$$$
