4pji_ligand
                    3D
 Schrodinger Suite 2020-3.
 24 25  0  0  1  0            999 V2000
  217.0140   67.0110  165.4770 C   0  0  0  0  0  0
  215.9170   70.1610  164.0780 C   0  0  0  0  0  0
  222.2890   65.3190  167.2850 C   0  0  0  0  0  0
  217.0700   70.9200  164.2110 C   0  0  0  0  0  0
  214.6750   70.7050  163.4470 C   0  0  0  0  0  0
  220.8900   65.5520  166.8030 C   0  0  0  0  0  0
  219.3640   68.6090  165.6430 N   0  0  0  0  0  0
  220.5760   66.8740  166.5530 N   0  0  0  0  0  0
  218.2070   66.5770  166.0090 N   0  0  0  0  0  0
  220.1220   64.6210  166.6000 O   0  0  0  0  0  0
  219.3730   67.2790  166.1240 C   0  0  0  0  0  0
  218.2230   69.1440  165.0930 C   0  0  0  0  0  0
  218.2190   70.4300  164.6970 N   0  0  0  0  0  0
  215.8910   68.8750  164.4660 N   0  0  0  0  0  0
  217.0200   68.3600  164.9810 C   0  0  0  0  0  0
  216.0280   66.2800  165.4780 O   0  0  0  0  0  0
  222.8025   66.2849  167.4008 H   0  0  0  0  0  0
  222.8306   64.7011  166.5537 H   0  0  0  0  0  0
  222.2611   64.8000  168.2545 H   0  0  0  0  0  0
  217.0404   71.9659  163.9055 H   0  0  0  0  0  0
  214.8318   71.7603  163.1791 H   0  0  0  0  0  0
  213.8387   70.6274  164.1573 H   0  0  0  0  0  0
  214.4411   70.1274  162.5405 H   0  0  0  0  0  0
  221.3331   67.6574  166.7052 H   0  0  0  0  0  0
  1  9  1  0  0  0
  1 15  1  0  0  0
  1 16  2  0  0  0
  2  4  1  0  0  0
  2  5  1  0  0  0
  2 14  2  0  0  0
  3  6  1  0  0  0
  3 17  1  0  0  0
  3 18  1  0  0  0
  3 19  1  0  0  0
  4 13  2  0  0  0
  4 20  1  0  0  0
  5 21  1  0  0  0
  5 22  1  0  0  0
  5 23  1  0  0  0
  6  8  1  0  0  0
  6 10  2  0  0  0
  7 11  2  0  0  0
  7 12  1  0  0  0
  8 11  1  0  0  0
  8 24  1  0  0  0
  9 11  1  0  0  0
 12 13  1  0  0  0
 12 15  2  0  0  0
 14 15  1  0  0  0
M  END
> <s_m_source_file>
../4pji_ligand.sdf

> <i_m_source_file_index>
1

> <s_epik_input>
bjFbY0hdYyhbQ0gzXSluYyhjMTIpYyg9TylbbkhdYygvW25IXTIpPU5cQyg9TylbQ0gzXQ==

> <s_epik_cmdline>
J2VwaWtfYXBwJywgJy1pbWFlJywgJ2xpZ2FuZF9wcm8ubWFlJywgJy1vbWFlJywgJ2xpZ2FuZF9wcmVwLm1hZScsICctbXMnLCAnMScsICctcGgnLCAnNycsICctcGh0JywgJzAuNScsICctbnQn

> <r_lp_tautomer_probability>
1

> <r_epik_Ionization_Penalty>
  0.0000

> <r_epik_Ionization_Penalty_Charging>
  0.0000

> <r_epik_Ionization_Penalty_Neutral>
  0.0000

> <r_epik_State_Penalty>
 -0.0000

> <r_epik_Charging_Adjusted_Penalty>
0

> <i_epik_Tot_Q>
0

> <i_epik_Tot_abs_Q>
0

$$$$
