4pjt_ligand
                    3D
 Schrodinger Suite 2020-3.
 42 46  0  0  1  0            999 V2000
  -40.4220    6.0250  -10.0010 N   0  0  0  0  0  0
  -37.9180    8.7860   -8.2690 N   0  0  0  0  0  0
  -41.6760    7.7080  -11.0760 C   0  0  0  0  0  0
  -38.4930    6.4420   -8.5600 C   0  0  1  0  0  0
  -38.0060    7.5030   -7.5590 C   0  0  1  0  0  0
  -38.9230    9.1610   -9.0810 C   0  0  0  0  0  0
  -39.1290   10.5150   -9.3240 C   0  0  0  0  0  0
  -41.0290   10.0250  -10.7270 C   0  0  0  0  0  0
  -34.2870    6.6360   -7.4600 C   0  0  0  0  0  0
  -35.3780    5.7760   -5.5060 C   0  0  0  0  0  0
  -38.7690    5.1990   -7.8650 C   0  0  0  0  0  0
  -33.0980    5.3820   -5.8270 F   0  0  0  0  0  0
  -34.2290    5.9450   -6.2620 C   0  0  0  0  0  0
  -35.5190    7.1610   -7.8660 C   0  0  0  0  0  0
  -36.5920    6.3140   -5.9120 C   0  0  0  0  0  0
  -36.6760    6.9950   -7.1030 C   0  0  0  0  0  0
  -39.6950    4.9420   -6.9230 N   0  0  0  0  0  0
  -39.5230    3.6600   -6.5080 C   0  0  0  0  0  0
  -38.4950    3.0980   -7.1600 N   0  0  0  0  0  0
  -38.0210    4.0920   -7.9840 N   0  0  0  0  0  0
  -36.8600    3.7330   -8.8370 C   0  0  0  0  0  0
  -39.6140    6.9070   -9.4140 C   0  0  0  0  0  0
  -39.7910    8.2500   -9.6550 C   0  0  0  0  0  0
  -40.1570   10.9310  -10.1200 C   0  0  0  0  0  0
  -40.3190   12.2290  -10.2750 F   0  0  0  0  0  0
  -40.8500    8.6650  -10.4760 C   0  0  0  0  0  0
  -42.6010    8.0090  -11.8350 O   0  0  0  0  0  0
  -41.4670    6.4270  -10.8460 N   0  0  0  0  0  0
  -37.0364    9.4299   -8.1342 H   0  0  0  0  0  0
  -37.7058    6.1972   -9.2883 H   0  0  0  0  0  0
  -38.6507    7.7010   -6.6900 H   0  0  0  0  0  0
  -38.4629   11.2513   -8.8743 H   0  0  0  0  0  0
  -41.8294   10.3720  -11.3805 H   0  0  0  0  0  0
  -33.3949    6.7680   -8.0722 H   0  0  0  0  0  0
  -35.3279    5.2104   -4.5756 H   0  0  0  0  0  0
  -35.5767    7.7144   -8.8033 H   0  0  0  0  0  0
  -37.4773    6.1964   -5.2870 H   0  0  0  0  0  0
  -40.1322    3.1608   -5.7545 H   0  0  0  0  0  0
  -36.5717    4.6010   -9.4481 H   0  0  0  0  0  0
  -37.1339    2.8956   -9.4956 H   0  0  0  0  0  0
  -36.0143    3.4364   -8.1992 H   0  0  0  0  0  0
  -42.1138    5.6727  -11.3180 H   0  0  0  0  0  0
  1 22  2  0  0  0
  1 28  1  0  0  0
  2  5  1  0  0  0
  2  6  1  0  0  0
  2 29  1  0  0  0
  3 26  1  0  0  0
  3 27  2  0  0  0
  3 28  1  0  0  0
  4  5  1  0  0  0
  4 11  1  0  0  0
  4 22  1  0  0  0
  4 30  1  0  0  0
  5 16  1  0  0  0
  5 31  1  0  0  0
  6  7  2  0  0  0
  6 23  1  0  0  0
  7 24  1  0  0  0
  7 32  1  0  0  0
  8 24  2  0  0  0
  8 26  1  0  0  0
  8 33  1  0  0  0
  9 13  2  0  0  0
  9 14  1  0  0  0
  9 34  1  0  0  0
 10 13  1  0  0  0
 10 15  2  0  0  0
 10 35  1  0  0  0
 11 17  2  0  0  0
 11 20  1  0  0  0
 12 13  1  0  0  0
 14 16  2  0  0  0
 14 36  1  0  0  0
 15 16  1  0  0  0
 15 37  1  0  0  0
 17 18  1  0  0  0
 18 19  2  0  0  0
 18 38  1  0  0  0
 19 20  1  0  0  0
 20 21  1  0  0  0
 21 39  1  0  0  0
 21 40  1  0  0  0
 21 41  1  0  0  0
 22 23  1  0  0  0
 23 26  2  0  0  0
 24 25  1  0  0  0
 28 42  1  0  0  0
M  END
> <s_m_source_file>
../4pjt_ligand.sdf

> <i_m_source_file_index>
1

> <s_epik_input>
W2NIXTFjKEYpW2NIXWMyYyg9TylbbkhdbmMoYzJjMTMpW0NAQEhdKFtDQEhdKFtOSF0zKWMoW2NIXVtjSF00KVtjSF1bY0hdYzRGKWM1bltjSF1ubjVbQ0gzXQ==

> <s_epik_cmdline>
J2VwaWtfYXBwJywgJy1pbWFlJywgJ2xpZ2FuZF9wcm8ubWFlJywgJy1vbWFlJywgJ2xpZ2FuZF9wcmVwLm1hZScsICctbXMnLCAnMScsICctcGgnLCAnNycsICctcGh0JywgJzAuNScsICctbnQn

> <r_lp_tautomer_probability>
1

> <r_epik_Ionization_Penalty>
  0.0025

> <r_epik_Ionization_Penalty_Charging>
  0.0003

> <r_epik_Ionization_Penalty_Neutral>
  0.0023

> <r_epik_State_Penalty>
 -0.0000

> <r_epik_Charging_Adjusted_Penalty>
0.000266911033937577

> <i_epik_Tot_Q>
0

> <i_epik_Tot_abs_Q>
0

$$$$
