4pkb_ligand
                    3D
 Schrodinger Suite 2020-3.
 14 13  0  0  1  0            999 V2000
   13.9670  -31.3260  -10.3090 C   0  0  0  0  0  0
   14.0580  -29.0620  -11.5870 O   0  0  0  0  0  0
   14.0740  -30.5420  -11.7610 P   0  0  0  0  0  0
   15.0510  -30.9110   -9.4320 C   0  0  0  0  0  0
   12.8300  -31.2940  -12.7560 O   0  0  0  0  0  0
   12.4200  -32.6980  -12.5630 C   0  0  0  0  0  0
   13.0057  -31.0845   -9.8319 H   0  0  0  0  0  0
   14.0324  -32.4118  -10.4728 H   0  0  0  0  0  0
   14.9678  -31.4395   -8.4709 H   0  0  0  0  0  0
   14.9890  -29.8262   -9.2605 H   0  0  0  0  0  0
   16.0158  -31.1535   -9.9015 H   0  0  0  0  0  0
   11.6348  -32.9539  -13.2896 H   0  0  0  0  0  0
   12.0319  -32.8296  -11.5422 H   0  0  0  0  0  0
   13.2876  -33.3573  -12.7133 H   0  0  0  0  0  0
  1  3  1  0  0  0
  1  4  1  0  0  0
  1  7  1  0  0  0
  1  8  1  0  0  0
  2  3  2  0  0  0
  3  5  1  0  0  0
  4  9  1  0  0  0
  4 10  1  0  0  0
  4 11  1  0  0  0
  5  6  1  0  0  0
  6 12  1  0  0  0
  6 13  1  0  0  0
  6 14  1  0  0  0
M  END
> <s_m_source_file>
../4pkb_ligand.sdf

> <i_m_source_file_index>
1

> <s_epik_input>
W0NIM11bQ0gyXVtQSF0oPU8pT1tDSDNd

> <s_epik_cmdline>
J2VwaWtfYXBwJywgJy1pbWFlJywgJ2xpZ2FuZF9wcm8ubWFlJywgJy1vbWFlJywgJ2xpZ2FuZF9wcmVwLm1hZScsICctbXMnLCAnMScsICctcGgnLCAnNycsICctcGh0JywgJzAuNScsICctbnQn

> <r_lp_tautomer_probability>
1

> <r_epik_Ionization_Penalty>
  0.0000

> <r_epik_Ionization_Penalty_Charging>
  0.0000

> <r_epik_Ionization_Penalty_Neutral>
  0.0000

> <r_epik_State_Penalty>
 -0.0000

> <r_epik_Charging_Adjusted_Penalty>
0

> <i_epik_Tot_Q>
0

> <i_epik_Tot_abs_Q>
0

$$$$
