4pks_ligand
                    3D
 Schrodinger Suite 2020-3.
 43 44  0  0  1  0            999 V2000
   11.5560   18.9890   28.5850 O   0  0  0  0  0  0
   11.0780   18.4050   25.7920 C   0  0  0  0  0  0
    8.6940   18.7410   27.2980 C   0  0  0  0  0  0
    7.6010   18.1020   26.4700 C   0  0  0  0  0  0
    7.6850   17.9970   25.0880 C   0  0  0  0  0  0
    6.6360   17.3910   24.4060 C   0  0  0  0  0  0
    5.5420   16.9030   25.1130 C   0  0  0  0  0  0
    6.4860   17.5920   27.1270 C   0  0  0  0  0  0
    8.3930   21.9020   27.9020 C   0  0  0  0  0  0
    7.2910   21.5290   28.6630 C   0  0  0  0  0  0
    7.0850   22.0920   29.9160 C   0  0  0  0  0  0
   11.6020   19.8500   27.7210 C   0  0  0  0  0  0
   10.7800   19.7410   26.4610 C   0  0  2  0  0  0
   12.3790   20.9220   27.8430 N   0  0  0  0  0  0
   13.4380   20.8950   28.7460 O   0  0  0  0  0  0
    9.3450   19.9110   26.7110 N   0  0  3  0  0  0
    8.6200   21.2390   26.4660 S   0  0  0  0  0  0
    7.3530   21.0400   25.8160 O   0  0  0  0  0  0
    9.4340   22.1010   25.6520 O   0  0  0  0  0  0
    5.4900   17.0130   26.4460 N   0  0  0  0  0  0
    7.9760   23.0290   30.4060 C   0  0  0  0  0  0
    9.0800   23.4080   29.6490 C   0  0  0  0  0  0
    9.2870   22.8470   28.3930 C   0  0  0  0  0  0
    7.7670   23.5720   31.6180 F   0  0  0  0  0  0
    5.8920   21.6860   30.7410 C   0  0  0  0  0  0
   12.1608   18.3140   25.6210 H   0  0  0  0  0  0
   10.5489   18.3510   24.8291 H   0  0  0  0  0  0
   10.7394   17.5854   26.4429 H   0  0  0  0  0  0
    8.2776   19.0750   28.2598 H   0  0  0  0  0  0
    9.4931   18.0072   27.4795 H   0  0  0  0  0  0
    8.5525   18.3804   24.5508 H   0  0  0  0  0  0
    6.6707   17.2986   23.3205 H   0  0  0  0  0  0
    4.7206   16.4272   24.5773 H   0  0  0  0  0  0
    6.4226   17.6650   28.2127 H   0  0  0  0  0  0
    6.5868   20.7928   28.2754 H   0  0  0  0  0  0
   11.0298   20.5793   25.7940 H   0  0  0  0  0  0
   12.1929   21.8233   27.2404 H   0  0  0  0  0  0
   14.0887   21.7749   28.8570 H   0  0  0  0  0  0
    9.7824   24.1442   30.0399 H   0  0  0  0  0  0
   10.1477   23.1474   27.7954 H   0  0  0  0  0  0
    5.3034   20.9372   30.1907 H   0  0  0  0  0  0
    5.2671   22.5688   30.9411 H   0  0  0  0  0  0
    6.2344   21.2555   31.6936 H   0  0  0  0  0  0
  1 12  2  0  0  0
  2 13  1  0  0  0
  2 26  1  0  0  0
  2 27  1  0  0  0
  2 28  1  0  0  0
  3  4  1  0  0  0
  3 16  1  0  0  0
  3 29  1  0  0  0
  3 30  1  0  0  0
  4  5  2  0  0  0
  4  8  1  0  0  0
  5  6  1  0  0  0
  5 31  1  0  0  0
  6  7  2  0  0  0
  6 32  1  0  0  0
  7 20  1  0  0  0
  7 33  1  0  0  0
  8 20  2  0  0  0
  8 34  1  0  0  0
  9 10  2  0  0  0
  9 17  1  0  0  0
  9 23  1  0  0  0
 10 11  1  0  0  0
 10 35  1  0  0  0
 11 21  2  0  0  0
 11 25  1  0  0  0
 12 13  1  0  0  0
 12 14  1  0  0  0
 13 16  1  0  0  0
 13 36  1  0  0  0
 14 15  1  0  0  0
 14 37  1  0  0  0
 15 38  1  0  0  0
 16 17  1  0  0  0
 17 18  2  0  0  0
 17 19  2  0  0  0
 21 22  1  0  0  0
 21 24  1  0  0  0
 22 23  2  0  0  0
 22 39  1  0  0  0
 23 40  1  0  0  0
 25 41  1  0  0  0
 25 42  1  0  0  0
 25 43  1  0  0  0
M  END
> <s_m_source_file>
../4pks_ligand.sdf

> <i_m_source_file_index>
1

> <s_epik_input>
W2NIXTFbY0hdYyhGKWMoW0NIM10pW2NIXWMxUyg9TykoPU8pTihbQ0BIXShbQ0gzXSlDKD1PKVtOSF1bT0hdKVtDSDJdYzJbY0hdW2NIXVtjSF1uW2NIXTI=

> <s_epik_cmdline>
J2VwaWtfYXBwJywgJy1pbWFlJywgJ2xpZ2FuZF9wcm8ubWFlJywgJy1vbWFlJywgJ2xpZ2FuZF9wcmVwLm1hZScsICctbXMnLCAnMScsICctcGgnLCAnNycsICctcGh0JywgJzAuNScsICctbnQn

> <r_epik_Ionization_Penalty>
  0.0251

> <r_epik_Ionization_Penalty_Charging>
  0.0000

> <r_epik_Ionization_Penalty_Neutral>
  0.0251

> <r_epik_State_Penalty>
  0.0134

> <r_epik_Charging_Adjusted_Penalty>
0.0133922562047659

> <i_epik_Tot_Q>
0

> <i_epik_Tot_abs_Q>
0

> <s_epik_Chemistry_Notes>
This compound has a N-S or N-O group and may undergo hydrolysis at high or low pH.

$$$$
