4pkt_ligand
                    3D
 Schrodinger Suite 2020-3.
 46 47  0  0  1  0            999 V2000
    5.9630   15.7190   27.4400 C   0  0  0  0  0  0
    7.0310   16.4490   27.9430 C   0  0  0  0  0  0
    5.8890   15.4330   26.0770 C   0  0  0  0  0  0
    6.9040   15.8930   25.2260 C   0  0  0  0  0  0
    7.9890   16.6230   25.7220 C   0  0  0  0  0  0
    8.0380   16.9010   27.0890 C   0  0  0  0  0  0
    9.1740   17.6750   27.7200 C   0  0  0  0  0  0
    9.6840   18.8580   27.0340 N   0  0  3  0  0  0
   11.1490   18.7400   26.8280 C   0  0  2  0  0  0
   11.5010   17.3840   26.2260 C   0  0  0  0  0  0
   12.0270   18.9190   28.0730 C   0  0  0  0  0  0
   13.1040   19.6920   27.9430 N   0  0  0  0  0  0
   13.8550   20.0050   29.0710 O   0  0  0  0  0  0
   11.8130   18.3710   29.1550 O   0  0  0  0  0  0
    8.7900   20.1060   26.7320 S   0  0  0  0  0  0
    7.5030   19.8240   26.1270 O   0  0  0  0  0  0
    9.5170   21.0460   25.9230 O   0  0  0  0  0  0
    8.5960   20.6980   28.2020 C   0  0  0  0  0  0
    9.5890   21.5410   28.7130 C   0  0  0  0  0  0
    9.4510   22.0330   29.9980 C   0  0  0  0  0  0
    8.3480   21.6730   30.7720 C   0  0  0  0  0  0
    8.2430   22.1780   32.0100 F   0  0  0  0  0  0
    7.3650   20.8200   30.2750 C   0  0  0  0  0  0
    7.4920   20.3220   28.9810 C   0  0  0  0  0  0
    6.1760   20.4320   31.1240 C   0  0  0  0  0  0
    4.7880   14.6920   25.5950 N   0  3  0  0  0  0
    4.6690   14.3790   24.2400 O   0  0  0  0  0  0
    3.8040   14.2620   26.4940 O   0  5  0  0  0  0
    5.1799   15.3683   28.1122 H   0  0  0  0  0  0
    7.0834   16.6701   29.0091 H   0  0  0  0  0  0
    6.8464   15.6779   24.1590 H   0  0  0  0  0  0
    8.7795   16.9675   25.0553 H   0  0  0  0  0  0
    8.8636   18.0398   28.7102 H   0  0  0  0  0  0
   10.0493   17.0178   27.8293 H   0  0  0  0  0  0
   11.3367   19.5857   26.1500 H   0  0  0  0  0  0
   10.8918   17.2131   25.3262 H   0  0  0  0  0  0
   11.2980   16.5922   26.9621 H   0  0  0  0  0  0
   12.5671   17.3686   25.9555 H   0  0  0  0  0  0
   13.4018   20.0817   26.9584 H   0  0  0  0  0  0
   14.7468   20.6423   28.9786 H   0  0  0  0  0  0
   10.4566   21.8054   28.1085 H   0  0  0  0  0  0
   10.2063   22.7040   30.4071 H   0  0  0  0  0  0
    6.7393   19.6452   28.5766 H   0  0  0  0  0  0
    6.2516   20.9212   32.1063 H   0  0  0  0  0  0
    6.1619   19.3403   31.2582 H   0  0  0  0  0  0
    5.2493   20.7521   30.6253 H   0  0  0  0  0  0
  1  2  2  0  0  0
  1  3  1  0  0  0
  1 29  1  0  0  0
  2  6  1  0  0  0
  2 30  1  0  0  0
  3  4  2  0  0  0
  3 26  1  0  0  0
  4  5  1  0  0  0
  4 31  1  0  0  0
  5  6  2  0  0  0
  5 32  1  0  0  0
  6  7  1  0  0  0
  7  8  1  0  0  0
  7 33  1  0  0  0
  7 34  1  0  0  0
  8  9  1  0  0  0
  8 15  1  0  0  0
  9 10  1  0  0  0
  9 11  1  0  0  0
  9 35  1  0  0  0
 10 36  1  0  0  0
 10 37  1  0  0  0
 10 38  1  0  0  0
 11 12  1  0  0  0
 11 14  2  0  0  0
 12 13  1  0  0  0
 12 39  1  0  0  0
 13 40  1  0  0  0
 15 16  2  0  0  0
 15 17  2  0  0  0
 15 18  1  0  0  0
 18 19  2  0  0  0
 18 24  1  0  0  0
 19 20  1  0  0  0
 19 41  1  0  0  0
 20 21  2  0  0  0
 20 42  1  0  0  0
 21 22  1  0  0  0
 21 23  1  0  0  0
 23 24  2  0  0  0
 23 25  1  0  0  0
 24 43  1  0  0  0
 25 44  1  0  0  0
 25 45  1  0  0  0
 25 46  1  0  0  0
 26 27  2  0  0  0
 26 28  1  0  0  0
M  CHG  2  26   1  28  -1
M  END
> <s_m_source_file>
../4pkt_ligand.sdf

> <i_m_source_file_index>
1

> <s_epik_input>
Tz1bTitdKFtPLV0pYzFbY0hdW2NIXWMoW2NIXVtjSF0xKVtDSDJdTihbQ0BIXShbQ0gzXSlDKD1PKVtOSF1bT0hdKVMoPU8pKD1PKWMyW2NIXVtjSF1jKEYpYyhbY0hdMilbQ0gzXQ==

> <s_epik_cmdline>
J2VwaWtfYXBwJywgJy1pbWFlJywgJ2xpZ2FuZF9wcm8ubWFlJywgJy1vbWFlJywgJ2xpZ2FuZF9wcmVwLm1hZScsICctbXMnLCAnMScsICctcGgnLCAnNycsICctcGh0JywgJzAuNScsICctbnQn

> <r_epik_Ionization_Penalty>
  0.0176

> <r_epik_Ionization_Penalty_Charging>
  0.0000

> <r_epik_Ionization_Penalty_Neutral>
  0.0176

> <r_epik_State_Penalty>
  0.0140

> <r_epik_Charging_Adjusted_Penalty>
0.0139512083230912

> <i_epik_Tot_Q>
0

> <i_epik_Tot_abs_Q>
2

> <s_epik_Chemistry_Notes>
This compound has a N-S or N-O group and may undergo hydrolysis at high or low pH.

$$$$
