4pku_ligand
                    3D
 Schrodinger Suite 2020-3.
 46 47  0  0  1  0            999 V2000
    7.8790   15.3600   23.7160 C   0  0  0  0  0  0
    8.5540   16.1190   24.6670 C   0  0  0  0  0  0
    7.0110   14.3520   24.1190 C   0  0  0  0  0  0
    6.8200   14.1030   25.4720 C   0  0  0  0  0  0
    7.4980   14.8600   26.4210 C   0  0  0  0  0  0
    8.3630   15.8750   26.0260 C   0  0  0  0  0  0
    9.0880   16.6640   27.1040 C   0  0  0  0  0  0
    9.6320   17.9530   26.6850 N   0  0  3  0  0  0
   11.0800   18.0170   26.4680 C   0  0  2  0  0  0
   11.6330   16.7410   25.8390 C   0  0  0  0  0  0
   11.8620   18.2820   27.7240 C   0  0  0  0  0  0
   12.7340   19.2920   27.7560 N   0  0  0  0  0  0
   13.6340   19.2970   28.7510 O   0  0  0  0  0  0
   11.7550   17.4750   28.9290 O   0  0  0  0  0  0
    8.7490   19.1810   26.5210 S   0  0  0  0  0  0
    7.4860   18.7790   25.9690 O   0  0  0  0  0  0
    9.3930   20.1220   25.6510 O   0  0  0  0  0  0
    8.5230   19.8740   27.9430 C   0  0  0  0  0  0
    9.2340   21.0240   28.2680 C   0  0  0  0  0  0
    9.0470   21.6340   29.5020 C   0  0  0  0  0  0
    8.1490   21.0920   30.4150 C   0  0  0  0  0  0
    7.9630   21.6810   31.6090 F   0  0  0  0  0  0
    7.4400   19.9470   30.0940 C   0  0  0  0  0  0
    7.6270   19.3350   28.8590 C   0  0  0  0  0  0
    6.4680   19.3640   31.0850 C   0  0  0  0  0  0
    8.0780   15.6210   22.2640 N   0  0  0  0  0  0
    9.2351   16.9079   24.3478 H   0  0  0  0  0  0
    6.4811   13.7579   23.3745 H   0  0  0  0  0  0
    6.1385   13.3140   25.7899 H   0  0  0  0  0  0
    7.3506   14.6566   27.4817 H   0  0  0  0  0  0
    8.3954   16.8753   27.9321 H   0  0  0  0  0  0
    9.9391   16.0764   27.4787 H   0  0  0  0  0  0
   11.1706   18.8793   25.7910 H   0  0  0  0  0  0
   11.0800   16.5185   24.9145 H   0  0  0  0  0  0
   11.5188   15.9050   26.5448 H   0  0  0  0  0  0
   12.6987   16.8799   25.6045 H   0  0  0  0  0  0
   12.7355   20.0994   27.0090 H   0  0  0  0  0  0
   14.3734   20.1085   28.8197 H   0  0  0  0  0  0
    9.9394   21.4476   27.5531 H   0  0  0  0  0  0
    9.6036   22.5366   29.7543 H   0  0  0  0  0  0
    7.0704   18.4318   28.6092 H   0  0  0  0  0  0
    6.4576   19.9816   31.9952 H   0  0  0  0  0  0
    6.7754   18.3392   31.3407 H   0  0  0  0  0  0
    5.4608   19.3452   30.6431 H   0  0  0  0  0  0
    8.7633   16.4170   21.9371 H   0  0  0  0  0  0
    7.5398   15.0179   21.5180 H   0  0  0  0  0  0
  1  2  2  0  0  0
  1  3  1  0  0  0
  1 26  1  0  0  0
  2  6  1  0  0  0
  2 27  1  0  0  0
  3  4  2  0  0  0
  3 28  1  0  0  0
  4  5  1  0  0  0
  4 29  1  0  0  0
  5  6  2  0  0  0
  5 30  1  0  0  0
  6  7  1  0  0  0
  7  8  1  0  0  0
  7 31  1  0  0  0
  7 32  1  0  0  0
  8  9  1  0  0  0
  8 15  1  0  0  0
  9 10  1  0  0  0
  9 11  1  0  0  0
  9 33  1  0  0  0
 10 34  1  0  0  0
 10 35  1  0  0  0
 10 36  1  0  0  0
 11 12  1  0  0  0
 11 14  2  0  0  0
 12 13  1  0  0  0
 12 37  1  0  0  0
 13 38  1  0  0  0
 15 16  2  0  0  0
 15 17  2  0  0  0
 15 18  1  0  0  0
 18 19  2  0  0  0
 18 24  1  0  0  0
 19 20  1  0  0  0
 19 39  1  0  0  0
 20 21  2  0  0  0
 20 40  1  0  0  0
 21 22  1  0  0  0
 21 23  1  0  0  0
 23 24  2  0  0  0
 23 25  1  0  0  0
 24 41  1  0  0  0
 25 42  1  0  0  0
 25 43  1  0  0  0
 25 44  1  0  0  0
 26 45  1  0  0  0
 26 46  1  0  0  0
M  END
> <s_m_source_file>
../4pku_ligand.sdf

> <i_m_source_file_index>
1

> <s_epik_input>
W2NIXTFbY0hdW2NIXWMoW2NIXWMxW05IMl0pW0NIMl1OKFtDQEhdKFtDSDNdKUMoPU8pW05IXVtPSF0pUyg9TykoPU8pYzJbY0hdW2NIXWMoRiljKFtjSF0yKVtDSDNd

> <s_epik_cmdline>
J2VwaWtfYXBwJywgJy1pbWFlJywgJ2xpZ2FuZF9wcm8ubWFlJywgJy1vbWFlJywgJ2xpZ2FuZF9wcmVwLm1hZScsICctbXMnLCAnMScsICctcGgnLCAnNycsICctcGh0JywgJzAuNScsICctbnQn

> <r_epik_Ionization_Penalty>
  0.0192

> <r_epik_Ionization_Penalty_Charging>
  0.0000

> <r_epik_Ionization_Penalty_Neutral>
  0.0192

> <r_epik_State_Penalty>
  0.0132

> <r_epik_Charging_Adjusted_Penalty>
0.0132476070747628

> <i_epik_Tot_Q>
0

> <i_epik_Tot_abs_Q>
0

> <s_epik_Chemistry_Notes>
This compound has a N-S or N-O group and may undergo hydrolysis at high or low pH.

$$$$
