4pkv_ligand
                    3D
 Schrodinger Suite 2020-3.
 50 51  0  0  1  0            999 V2000
   11.5840   19.1180   26.6790 C   0  0  1  0  0  0
   12.3510   19.2000   28.0010 C   0  0  0  0  0  0
    4.5450   15.4200   25.5120 C   0  0  0  0  0  0
   12.3190   18.2100   29.0790 O   0  0  0  0  0  0
   13.1660   20.2450   28.2310 N   0  0  0  0  0  0
    3.8120   15.0860   26.7680 N   0  3  0  0  0  0
    8.6140   20.8100   27.9240 C   0  0  0  0  0  0
    7.5180   20.1310   28.4660 C   0  0  0  0  0  0
    7.0620   20.4400   29.7390 C   0  0  0  0  0  0
    7.7070   21.4230   30.4730 C   0  0  0  0  0  0
    8.8090   22.1040   29.9480 C   0  0  0  0  0  0
    9.2670   21.7980   28.6680 C   0  0  0  0  0  0
    5.8790   19.7090   30.3290 C   0  0  0  0  0  0
    9.6310   17.7960   27.0810 C   0  0  0  0  0  0
    8.3170   17.2060   26.5920 C   0  0  0  0  0  0
    8.0480   16.9450   25.2450 C   0  0  0  0  0  0
    6.8200   16.3700   24.8880 C   0  0  0  0  0  0
    5.8750   16.0450   25.8730 C   0  0  0  0  0  0
    6.1550   16.2950   27.2150 C   0  0  0  0  0  0
    7.3730   16.8650   27.5690 C   0  0  0  0  0  0
   12.1040   17.8550   25.9790 C   0  0  0  0  0  0
   10.0830   19.1440   26.7000 N   0  0  3  0  0  0
   13.9370   20.2750   29.3380 O   0  0  0  0  0  0
    9.1360   20.4000   26.4570 S   0  0  0  0  0  0
    7.9670   20.1980   25.6030 O   0  0  0  0  0  0
    9.8680   21.4950   25.8600 O   0  0  0  0  0  0
    7.2520   21.7210   31.7050 F   0  0  0  0  0  0
   11.7598   20.0667   26.1508 H   0  0  0  0  0  0
    4.7112   14.5019   24.9293 H   0  0  0  0  0  0
    3.9499   16.1289   24.9176 H   0  0  0  0  0  0
   13.2025   21.0772   27.5126 H   0  0  0  0  0  0
    2.8427   14.6306   26.5168 H   0  0  0  0  0  0
    3.6458   16.0041   27.3507 H   0  0  0  0  0  0
    4.4071   14.3771   27.3624 H   0  0  0  0  0  0
    7.0196   19.3550   27.8851 H   0  0  0  0  0  0
    9.3087   22.8722   30.5381 H   0  0  0  0  0  0
   10.1259   22.3236   28.2506 H   0  0  0  0  0  0
    5.5042   18.9722   29.6033 H   0  0  0  0  0  0
    5.0824   20.4302   30.5640 H   0  0  0  0  0  0
    6.1890   19.1923   31.2493 H   0  0  0  0  0  0
    9.6238   17.8465   28.1798 H   0  0  0  0  0  0
   10.4647   17.1601   26.7486 H   0  0  0  0  0  0
    8.7858   17.1862   24.4798 H   0  0  0  0  0  0
    6.5981   16.1743   23.8389 H   0  0  0  0  0  0
    5.4232   16.0451   27.9832 H   0  0  0  0  0  0
    7.5959   17.0487   28.6200 H   0  0  0  0  0  0
   13.2040   17.8627   25.9784 H   0  0  0  0  0  0
   11.7369   17.8329   24.9423 H   0  0  0  0  0  0
   11.7438   16.9643   26.5146 H   0  0  0  0  0  0
   14.6020   21.1317   29.5220 H   0  0  0  0  0  0
  1  2  1  0  0  0
  1 21  1  0  0  0
  1 22  1  0  0  0
  1 28  1  0  0  0
  2  4  2  0  0  0
  2  5  1  0  0  0
  3  6  1  0  0  0
  3 18  1  0  0  0
  3 29  1  0  0  0
  3 30  1  0  0  0
  5 23  1  0  0  0
  5 31  1  0  0  0
  6 32  1  0  0  0
  6 33  1  0  0  0
  6 34  1  0  0  0
  7  8  2  0  0  0
  7 12  1  0  0  0
  7 24  1  0  0  0
  8  9  1  0  0  0
  8 35  1  0  0  0
  9 10  2  0  0  0
  9 13  1  0  0  0
 10 11  1  0  0  0
 10 27  1  0  0  0
 11 12  2  0  0  0
 11 36  1  0  0  0
 12 37  1  0  0  0
 13 38  1  0  0  0
 13 39  1  0  0  0
 13 40  1  0  0  0
 14 15  1  0  0  0
 14 22  1  0  0  0
 14 41  1  0  0  0
 14 42  1  0  0  0
 15 16  2  0  0  0
 15 20  1  0  0  0
 16 17  1  0  0  0
 16 43  1  0  0  0
 17 18  2  0  0  0
 17 44  1  0  0  0
 18 19  1  0  0  0
 19 20  2  0  0  0
 19 45  1  0  0  0
 20 46  1  0  0  0
 21 47  1  0  0  0
 21 48  1  0  0  0
 21 49  1  0  0  0
 22 24  1  0  0  0
 23 50  1  0  0  0
 24 25  2  0  0  0
 24 26  2  0  0  0
M  CHG  1   6   1
M  END
> <s_m_source_file>
../4pkv_ligand.sdf

> <i_m_source_file_index>
1

> <s_epik_input>
W2NIXTFbY0hdYyhGKWMoW0NIM10pW2NIXWMxUyg9TykoPU8pTihbQ0BIXShbQ0gzXSlDKD1PKVtOSF1bT0hdKVtDSDJdYzJbY0hdW2NIXWMoW0NIMl1bTkgzK10pW2NIXVtjSF0y

> <s_epik_cmdline>
J2VwaWtfYXBwJywgJy1pbWFlJywgJ2xpZ2FuZF9wcm8ubWFlJywgJy1vbWFlJywgJ2xpZ2FuZF9wcmVwLm1hZScsICctbXMnLCAnMScsICctcGgnLCAnNycsICctcGh0JywgJzAuNScsICctbnQn

> <r_lp_tautomer_probability>
1

> <r_epik_Ionization_Penalty>
  0.0440

> <r_epik_Ionization_Penalty_Charging>
  0.0263

> <r_epik_Ionization_Penalty_Neutral>
  0.0177

> <r_epik_State_Penalty>
 -0.0000

> <r_epik_Charging_Adjusted_Penalty>
0.0262860408285094

> <i_epik_Tot_Q>
1

> <i_epik_Tot_abs_Q>
1

> <s_epik_Chemistry_Notes>
This compound has a N-S or N-O group and may undergo hydrolysis at high or low pH.

$$$$
