4pkw_ligand
                    3D
 Schrodinger Suite 2020-3.
 56 57  0  0  1  0            999 V2000
   14.8940   19.1830   29.0150 O   0  0  0  0  0  0
   14.0660   19.1910   27.9010 N   0  0  0  0  0  0
   13.0360   18.3490   27.8540 C   0  0  0  0  0  0
   12.8130   17.5380   28.7370 O   0  0  0  0  0  0
   12.1370   18.4070   26.6410 C   0  0  0  0  0  0
   10.7530   18.9180   27.0360 C   0  0  2  0  0  0
    9.9600   19.1100   25.7720 C   0  0  0  0  0  0
   10.1470   20.0940   25.0790 O   0  0  0  0  0  0
    9.0810   18.1660   25.4300 N   0  0  0  0  0  0
    8.3330   18.2500   24.1820 C   0  0  2  0  0  0
    7.2310   19.2740   24.2570 C   0  0  0  0  0  0
    6.8340   19.6740   25.3440 O   0  0  0  0  0  0
    6.7020   19.6820   23.1050 N   0  0  0  0  0  0
    7.3980   20.5550   22.1770 C   0  0  0  0  0  0
    7.6830   16.9170   23.8290 C   0  0  0  0  0  0
    8.6200   15.7540   24.0590 C   0  0  0  0  0  0
    8.4540   14.7380   24.9870 C   0  0  0  0  0  0
    9.4730   13.8370   24.9280 N   0  3  0  0  0  0
   10.3680   14.1820   23.9890 C   0  0  0  0  0  0
   11.5570   13.6330   23.5320 C   0  0  0  0  0  0
   12.2380   14.2780   22.5030 C   0  0  0  0  0  0
   11.7610   15.4530   21.9180 C   0  0  0  0  0  0
   10.5790   16.0490   22.3420 C   0  0  0  0  0  0
    9.8810   15.4260   23.3640 C   0  0  0  0  0  0
   10.9660   20.2370   27.7790 C   0  0  0  0  0  0
    9.7140   20.8770   28.3660 C   0  0  0  0  0  0
    9.2520   20.1460   29.6200 C   0  0  0  0  0  0
    9.9940   22.3380   28.7040 C   0  0  0  0  0  0
   15.7494   19.8724   29.0695 H   0  0  0  0  0  0
   14.2652   19.8868   27.0726 H   0  0  0  0  0  0
   12.5727   19.0868   25.8939 H   0  0  0  0  0  0
   12.0397   17.4004   26.2082 H   0  0  0  0  0  0
   10.1920   18.2203   27.6751 H   0  0  0  0  0  0
    8.9254   17.3140   26.1082 H   0  0  0  0  0  0
    9.0945   18.5481   23.4463 H   0  0  0  0  0  0
    5.6882   19.3258   22.8700 H   0  0  0  0  0  0
    6.7571   20.7477   21.3040 H   0  0  0  0  0  0
    8.3300   20.0721   21.8482 H   0  0  0  0  0  0
    7.6342   21.5066   22.6757 H   0  0  0  0  0  0
    6.7897   16.7679   24.4533 H   0  0  0  0  0  0
    7.3924   16.9203   22.7681 H   0  0  0  0  0  0
    7.5769   14.7374   25.6508 H   0  0  0  0  0  0
   11.9502   12.7154   23.9695 H   0  0  0  0  0  0
   13.1741   13.8519   22.1422 H   0  0  0  0  0  0
   12.3291   15.9136   21.1098 H   0  0  0  0  0  0
   10.2153   16.9708   21.8881 H   0  0  0  0  0  0
   11.6532   20.0757   28.6227 H   0  0  0  0  0  0
   11.3973   20.9796   27.0916 H   0  0  0  0  0  0
    8.9137   20.8097   27.6143 H   0  0  0  0  0  0
    9.0500   19.0924   29.3768 H   0  0  0  0  0  0
    8.3340   20.6168   30.0016 H   0  0  0  0  0  0
   10.0384   20.2009   30.3871 H   0  0  0  0  0  0
   10.3277   22.8663   27.7987 H   0  0  0  0  0  0
   10.7803   22.3926   29.4713 H   0  0  0  0  0  0
    9.0759   22.8085   29.0857 H   0  0  0  0  0  0
    9.4785   12.9680   25.6024 H   0  0  0  0  0  0
  1  2  1  0  0  0
  1 29  1  0  0  0
  2  3  1  0  0  0
  2 30  1  0  0  0
  3  4  2  0  0  0
  3  5  1  0  0  0
  5  6  1  0  0  0
  5 31  1  0  0  0
  5 32  1  0  0  0
  6  7  1  0  0  0
  6 25  1  0  0  0
  6 33  1  0  0  0
  7  8  2  0  0  0
  7  9  1  0  0  0
  9 10  1  0  0  0
  9 34  1  0  0  0
 10 11  1  0  0  0
 10 15  1  0  0  0
 10 35  1  0  0  0
 11 12  2  0  0  0
 11 13  1  0  0  0
 13 14  1  0  0  0
 13 36  1  0  0  0
 14 37  1  0  0  0
 14 38  1  0  0  0
 14 39  1  0  0  0
 15 16  1  0  0  0
 15 40  1  0  0  0
 15 41  1  0  0  0
 16 17  2  0  0  0
 16 24  1  0  0  0
 17 18  1  0  0  0
 17 42  1  0  0  0
 18 19  1  0  0  0
 18 56  1  0  0  0
 19 20  1  0  0  0
 19 24  2  0  0  0
 20 21  2  0  0  0
 20 43  1  0  0  0
 21 22  1  0  0  0
 21 44  1  0  0  0
 22 23  2  0  0  0
 22 45  1  0  0  0
 23 24  1  0  0  0
 23 46  1  0  0  0
 25 26  1  0  0  0
 25 47  1  0  0  0
 25 48  1  0  0  0
 26 27  1  0  0  0
 26 28  1  0  0  0
 26 49  1  0  0  0
 27 50  1  0  0  0
 27 51  1  0  0  0
 27 52  1  0  0  0
 28 53  1  0  0  0
 28 54  1  0  0  0
 28 55  1  0  0  0
M  CHG  1  18   1
M  END
> <s_m_source_file>
../4pkw_ligand.sdf

> <i_m_source_file_index>
1

> <s_epik_input>
W09IXVtOSF1DKD1PKVtDSDJdW0NAQEhdKFtDSDJdW0NIXShbQ0gzXSlbQ0gzXSlDKD1PKVtOSF1bQ0BIXShDKD1PKVtOSF1bQ0gzXSlbQ0gyXWMoW2NIXVtuSF0xKWMoYzEyKVtjSF1bY0hdW2NIXVtjSF0y

> <s_epik_cmdline>
J2VwaWtfYXBwJywgJy1pbWFlJywgJ2xpZ2FuZF9wcm8ubWFlJywgJy1vbWFlJywgJ2xpZ2FuZF9wcmVwLm1hZScsICctbXMnLCAnMScsICctcGgnLCAnNycsICctcGh0JywgJzAuNScsICctbnQn

> <r_lp_tautomer_probability>
1

> <r_epik_Ionization_Penalty>
  0.0054

> <r_epik_Ionization_Penalty_Charging>
  0.0000

> <r_epik_Ionization_Penalty_Neutral>
  0.0054

> <r_epik_State_Penalty>
 -0.0000

> <r_epik_Charging_Adjusted_Penalty>
0

> <i_epik_Tot_Q>
1

> <i_epik_Tot_abs_Q>
1

> <s_epik_Chemistry_Notes>
This compound has a N-S or N-O group and may undergo hydrolysis at high or low pH.

$$$$
