4pl0_ligand
                    3D
 Schrodinger Suite 2020-3.
 44 46  0  0  1  0            999 V2000
  -29.5350  -24.7030   11.1780 P   0  0  0  0  0  0
  -29.8540  -24.0840    9.7670 O   0  5  0  0  0  0
  -30.0150  -23.4750   12.0240 O   0  5  0  0  0  0
  -28.0850  -25.0840   11.2310 O   0  0  0  0  0  0
  -30.2650  -27.4770   11.8650 P   0  0  1  0  0  0
  -31.3260  -28.3420   11.0760 O   0  5  0  0  0  0
  -28.8590  -27.8920   11.6970 O   0  0  0  0  0  0
  -30.5980  -25.9060   11.5300 N   0  0  1  0  0  0
  -30.4420  -28.2350   14.7470 P   0  0  1  0  0  0
  -29.6900  -29.5790   14.6800 O   0  5  0  0  0  0
  -29.7160  -27.1060   15.3820 O   0  0  0  0  0  0
  -30.7450  -27.8570   13.2770 O   0  0  0  0  0  0
  -31.8530  -28.6440   15.4150 O   0  0  0  0  0  0
  -32.7970  -29.5710   14.8470 C   0  0  0  0  0  0
  -34.0830  -29.5480   15.6450 C   0  0  1  0  0  0
  -33.8200  -29.8250   17.0370 O   0  0  0  0  0  0
  -34.9130  -28.2640   15.6160 C   0  0  1  0  0  0
  -36.3070  -28.5550   15.5860 O   0  0  0  0  0  0
  -34.5040  -27.5610   16.9130 C   0  0  1  0  0  0
  -35.5200  -26.7100   17.4270 O   0  0  0  0  0  0
  -34.2470  -28.7440   17.8490 C   0  0  2  0  0  0
  -33.2190  -28.4880   18.8560 N   0  0  0  0  0  0
  -31.9130  -28.1290   18.6360 C   0  0  0  0  0  0
  -31.2110  -27.9670   19.7320 N   0  0  0  0  0  0
  -32.1190  -28.2320   20.7460 C   0  0  0  0  0  0
  -32.0070  -28.2100   22.1500 C   0  0  0  0  0  0
  -30.8630  -27.9620   22.7950 N   0  0  0  0  0  0
  -33.1160  -28.4890   22.8780 N   0  0  0  0  0  0
  -34.2520  -28.7860   22.2320 C   0  0  0  0  0  0
  -34.4750  -28.8500   20.9150 N   0  0  0  0  0  0
  -33.3610  -28.5550   20.2210 C   0  0  0  0  0  0
  -31.1657  -25.6408   12.4341 H   0  0  0  0  0  0
  -33.0100  -29.2858   13.8062 H   0  0  0  0  0  0
  -32.3733  -30.5859   14.8697 H   0  0  0  0  0  0
  -34.6718  -30.3538   15.1823 H   0  0  0  0  0  0
  -34.8044  -27.6529   14.7078 H   0  0  0  0  0  0
  -36.7446  -29.0606   14.7126 H   0  0  0  0  0  0
  -33.6847  -26.8349   16.8057 H   0  0  0  0  0  0
  -35.8206  -25.8120   16.8672 H   0  0  0  0  0  0
  -35.1537  -29.0149   18.4098 H   0  0  0  0  0  0
  -31.4958  -27.9907   17.6385 H   0  0  0  0  0  0
  -29.9495  -27.7331   22.2265 H   0  0  0  0  0  0
  -30.8349  -27.9868   23.8944 H   0  0  0  0  0  0
  -35.1109  -29.0052   22.8663 H   0  0  0  0  0  0
  1  2  1  0  0  0
  1  3  1  0  0  0
  1  4  2  0  0  0
  1  8  1  0  0  0
  5  6  1  0  0  0
  5  7  2  0  0  0
  5  8  1  0  0  0
  5 12  1  0  0  0
  8 32  1  0  0  0
  9 10  1  0  0  0
  9 11  2  0  0  0
  9 12  1  0  0  0
  9 13  1  0  0  0
 13 14  1  0  0  0
 14 15  1  0  0  0
 14 33  1  0  0  0
 14 34  1  0  0  0
 15 16  1  0  0  0
 15 17  1  0  0  0
 15 35  1  0  0  0
 16 21  1  0  0  0
 17 18  1  0  0  0
 17 19  1  0  0  0
 17 36  1  0  0  0
 18 37  1  0  0  0
 19 20  1  0  0  0
 19 21  1  0  0  0
 19 38  1  0  0  0
 20 39  1  0  0  0
 21 22  1  0  0  0
 21 40  1  0  0  0
 22 23  1  0  0  0
 22 31  1  0  0  0
 23 24  2  0  0  0
 23 41  1  0  0  0
 24 25  1  0  0  0
 25 26  2  0  0  0
 25 31  1  0  0  0
 26 27  1  0  0  0
 26 28  1  0  0  0
 27 42  1  0  0  0
 27 43  1  0  0  0
 28 29  2  0  0  0
 29 30  1  0  0  0
 29 44  1  0  0  0
 30 31  2  0  0  0
M  CHG  4   2  -1   3  -1   6  -1  10  -1
M  END
> <s_m_source_file>
../4pl0_ligand.sdf

> <i_m_source_file_index>
1

> <s_epik_input>
W09IXVAoPU8pKFtPSF0pW05IXVtQQF0oPU8pKFtPSF0pT1tQQF0oPU8pKFtPSF0pT1tDSDJdW0NASF0xT1tDQEhdKFtDQEhdKFtPSF0pW0NAQEhdMVtPSF0pbihbY0hdbjIpYyhjMjMpbltjSF1uYzNbTkgyXQ==

> <s_epik_cmdline>
J2VwaWtfYXBwJywgJy1pbWFlJywgJ2xpZ2FuZF9wcm8ubWFlJywgJy1vbWFlJywgJ2xpZ2FuZF9wcmVwLm1hZScsICctbXMnLCAnMScsICctcGgnLCAnNycsICctcGh0JywgJzAuNScsICctbnQn

> <r_lp_tautomer_probability>
0.999997216410988

> <r_epik_Ionization_Penalty>
  0.3578

> <r_epik_Ionization_Penalty_Charging>
  0.3346

> <r_epik_Ionization_Penalty_Neutral>
  0.0232

> <r_epik_State_Penalty>
  0.3402

> <r_epik_Charging_Adjusted_Penalty>
0.674771962662822

> <i_epik_Tot_Q>
-4

> <i_epik_Tot_abs_Q>
4

> <s_epik_Chemistry_Notes>
This compound contains an acetal/aminal-like group ( X-CH(R)-Y where X, Y are N, S, or O) that may be acid/base labile, releasing an aldehyde.

$$$$
