4pl3_ligand
                    3D
 Schrodinger Suite 2020-3.
 45 46  0  0  1  0            999 V2000
   62.7290   43.1220    1.3370 C   0  0  0  0  0  0
   61.8450   42.5150   -0.8110 C   0  0  0  0  0  0
   67.8430   45.6450   -3.8790 C   0  0  0  0  0  0
   66.5060   45.3700   -3.4650 O   0  0  0  0  0  0
   65.5310   45.5730   -4.4840 C   0  0  0  0  0  0
   64.3900   44.5850   -4.3160 C   0  0  0  0  0  0
   63.2810   45.1110   -3.5830 O   0  0  0  0  0  0
   62.2030   44.1620   -3.6130 C   0  0  0  0  0  0
   61.1340   44.3710   -2.5360 C   0  0  0  0  0  0
   61.6730   43.9370   -1.1950 C   0  0  0  0  0  0
   62.0770   44.9590   -0.2190 C   0  0  0  0  0  0
   61.9440   46.4220   -0.5440 C   0  0  0  0  0  0
   62.6150   44.4890    1.0790 C   0  0  0  0  0  0
   62.9990   45.4260    2.0250 C   0  0  0  0  0  0
   63.5050   45.0020    3.2450 C   0  0  0  0  0  0
   63.8750   45.9580    4.1640 O   0  0  0  0  0  0
   63.4360   47.3110    3.9900 C   0  0  0  0  0  0
   63.6270   43.6390    3.5060 C   0  0  0  0  0  0
   64.1170   43.1720    4.6890 O   0  0  0  0  0  0
   63.2410   42.7100    2.5620 C   0  0  0  0  0  0
   63.3820   41.2780    2.9170 C   0  0  0  0  0  0
   62.3540   42.1760    0.4140 O   0  0  0  0  0  0
   61.5180   41.6210   -1.6060 O   0  0  0  0  0  0
   68.5310   45.4651   -3.0398 H   0  0  0  0  0  0
   67.9196   46.6952   -4.1973 H   0  0  0  0  0  0
   68.1094   44.9868   -4.7192 H   0  0  0  0  0  0
   65.1358   46.5972   -4.4145 H   0  0  0  0  0  0
   65.9951   45.4252   -5.4703 H   0  0  0  0  0  0
   64.0165   44.2844   -5.3060 H   0  0  0  0  0  0
   64.7501   43.6975   -3.7750 H   0  0  0  0  0  0
   61.6903   44.2201   -4.5845 H   0  0  0  0  0  0
   62.6035   43.1475   -3.4699 H   0  0  0  0  0  0
   60.8607   45.4356   -2.4924 H   0  0  0  0  0  0
   60.2437   43.7737   -2.7822 H   0  0  0  0  0  0
   61.5248   46.5365   -1.5545 H   0  0  0  0  0  0
   62.9345   46.8985   -0.5018 H   0  0  0  0  0  0
   61.2754   46.9006    0.1867 H   0  0  0  0  0  0
   62.9039   46.4907    1.8116 H   0  0  0  0  0  0
   63.8235   47.9308    4.8120 H   0  0  0  0  0  0
   62.3365   47.3430    3.9935 H   0  0  0  0  0  0
   63.8110   47.6977    3.0309 H   0  0  0  0  0  0
   64.4363   43.8785    5.4693 H   0  0  0  0  0  0
   63.0389   40.6565    2.0768 H   0  0  0  0  0  0
   62.7739   41.0593    3.8071 H   0  0  0  0  0  0
   64.4379   41.0554    3.1306 H   0  0  0  0  0  0
  1 13  2  0  0  0
  1 20  1  0  0  0
  1 22  1  0  0  0
  2 10  1  0  0  0
  2 22  1  0  0  0
  2 23  2  0  0  0
  3  4  1  0  0  0
  3 24  1  0  0  0
  3 25  1  0  0  0
  3 26  1  0  0  0
  4  5  1  0  0  0
  5  6  1  0  0  0
  5 27  1  0  0  0
  5 28  1  0  0  0
  6  7  1  0  0  0
  6 29  1  0  0  0
  6 30  1  0  0  0
  7  8  1  0  0  0
  8  9  1  0  0  0
  8 31  1  0  0  0
  8 32  1  0  0  0
  9 10  1  0  0  0
  9 33  1  0  0  0
  9 34  1  0  0  0
 10 11  2  0  0  0
 11 12  1  0  0  0
 11 13  1  0  0  0
 12 35  1  0  0  0
 12 36  1  0  0  0
 12 37  1  0  0  0
 13 14  1  0  0  0
 14 15  2  0  0  0
 14 38  1  0  0  0
 15 16  1  0  0  0
 15 18  1  0  0  0
 16 17  1  0  0  0
 17 39  1  0  0  0
 17 40  1  0  0  0
 17 41  1  0  0  0
 18 19  1  0  0  0
 18 20  2  0  0  0
 19 42  1  0  0  0
 20 21  1  0  0  0
 21 43  1  0  0  0
 21 44  1  0  0  0
 21 45  1  0  0  0
M  END
> <s_m_source_file>
../4pl3_ligand.sdf

> <i_m_source_file_index>
1

> <s_epik_input>
W0NIM11jMWMoW09IXSljKE9bQ0gzXSlbY0hdYyhjMTIpYyhbQ0gzXSljKGMobzIpPU8pW0NIMl1bQ0gyXU9bQ0gyXVtDSDJdT1tDSDNd

> <s_epik_cmdline>
J2VwaWtfYXBwJywgJy1pbWFlJywgJ2xpZ2FuZF9wcm8ubWFlJywgJy1vbWFlJywgJ2xpZ2FuZF9wcmVwLm1hZScsICctbXMnLCAnMScsICctcGgnLCAnNycsICctcGh0JywgJzAuNScsICctbnQn

> <r_lp_tautomer_probability>
1

> <r_epik_Ionization_Penalty>
  0.0027

> <r_epik_Ionization_Penalty_Charging>
  0.0000

> <r_epik_Ionization_Penalty_Neutral>
  0.0027

> <r_epik_State_Penalty>
 -0.0000

> <r_epik_Charging_Adjusted_Penalty>
0

> <i_epik_Tot_Q>
0

> <i_epik_Tot_abs_Q>
0

$$$$
