4pl4_ligand
                    3D
 Schrodinger Suite 2020-3.
 40 42  0  0  1  0            999 V2000
   88.1350  -11.7830   70.0880 C   0  0  0  0  0  0
   89.3450  -10.7380   66.7970 C   0  0  0  0  0  0
   90.0090   -9.3850   67.1160 C   0  0  0  0  0  0
   87.0980  -11.8670   72.3950 C   0  0  0  0  0  0
   88.5610  -10.0170   71.6730 C   0  0  0  0  0  0
   85.2690  -15.0580   73.3630 C   0  0  0  0  0  0
   85.8180  -13.6790   73.4010 C   0  0  0  0  0  0
   85.5180  -12.8390   74.4860 C   0  0  0  0  0  0
   84.7550  -13.3250   75.4770 O   0  0  0  0  0  0
   86.0010  -11.5400   74.5280 C   0  0  0  0  0  0
   85.7300  -10.7080   75.5790 O   0  0  0  0  0  0
   84.9940   -9.4960   75.4170 C   0  0  0  0  0  0
   86.7950  -11.0780   73.4880 C   0  0  0  0  0  0
   86.6120  -13.1760   72.3320 C   0  0  0  0  0  0
   87.9440  -11.2330   71.3550 C   0  0  0  0  0  0
   89.3720   -9.3500   70.7440 C   0  0  0  0  0  0
   89.5480   -9.9200   69.4940 C   0  0  0  0  0  0
   90.3460   -9.3000   68.5380 N   0  0  0  0  0  0
   91.5280   -8.5600   68.9540 C   0  0  0  0  0  0
   89.1810  -11.6150   67.9150 O   0  0  0  0  0  0
   88.9500  -11.1160   69.1670 C   0  0  0  0  0  0
   87.6542  -12.7232   69.8178 H   0  0  0  0  0  0
   88.3399  -10.5650   66.3849 H   0  0  0  0  0  0
   89.9549  -11.2811   66.0601 H   0  0  0  0  0  0
   90.9303   -9.2802   66.5242 H   0  0  0  0  0  0
   89.3165   -8.5683   66.8641 H   0  0  0  0  0  0
   88.4081   -9.5812   72.6603 H   0  0  0  0  0  0
   84.6890  -15.2471   74.2783 H   0  0  0  0  0  0
   86.0961  -15.7802   73.2972 H   0  0  0  0  0  0
   84.6152  -15.1683   72.4853 H   0  0  0  0  0  0
   84.3806  -14.3581   75.4268 H   0  0  0  0  0  0
   84.8980   -8.9925   76.3903 H   0  0  0  0  0  0
   83.9931   -9.7248   75.0222 H   0  0  0  0  0  0
   85.5237   -8.8366   74.7137 H   0  0  0  0  0  0
   87.1910  -10.0636   73.5347 H   0  0  0  0  0  0
   86.8390  -13.8060   71.4720 H   0  0  0  0  0  0
   89.8525   -8.4055   70.9993 H   0  0  0  0  0  0
   92.0297   -8.1425   68.0685 H   0  0  0  0  0  0
   92.2171   -9.2361   69.4812 H   0  0  0  0  0  0
   91.2306   -7.7420   69.6267 H   0  0  0  0  0  0
  1 15  2  0  0  0
  1 21  1  0  0  0
  1 22  1  0  0  0
  2  3  1  0  0  0
  2 20  1  0  0  0
  2 23  1  0  0  0
  2 24  1  0  0  0
  3 18  1  0  0  0
  3 25  1  0  0  0
  3 26  1  0  0  0
  4 13  2  0  0  0
  4 14  1  0  0  0
  4 15  1  0  0  0
  5 15  1  0  0  0
  5 16  2  0  0  0
  5 27  1  0  0  0
  6  7  1  0  0  0
  6 28  1  0  0  0
  6 29  1  0  0  0
  6 30  1  0  0  0
  7  8  1  0  0  0
  7 14  2  0  0  0
  8  9  1  0  0  0
  8 10  2  0  0  0
  9 31  1  0  0  0
 10 11  1  0  0  0
 10 13  1  0  0  0
 11 12  1  0  0  0
 12 32  1  0  0  0
 12 33  1  0  0  0
 12 34  1  0  0  0
 13 35  1  0  0  0
 14 36  1  0  0  0
 16 17  1  0  0  0
 16 37  1  0  0  0
 17 18  1  0  0  0
 17 21  2  0  0  0
 18 19  1  0  0  0
 19 38  1  0  0  0
 19 39  1  0  0  0
 19 40  1  0  0  0
 20 21  1  0  0  0
M  END
> <s_m_source_file>
../4pl4_ligand.sdf

> <i_m_source_file_index>
1

> <s_epik_input>
W0NIM11OMVtDSDJdW0NIMl1PYyhjMTIpW2NIXWMoW2NIXVtjSF0yKS1jM1tjSF1jKE9bQ0gzXSljKFtPSF0pYyhbQ0gzXSlbY0hdMw==

> <s_epik_cmdline>
J2VwaWtfYXBwJywgJy1pbWFlJywgJ2xpZ2FuZF9wcm8ubWFlJywgJy1vbWFlJywgJ2xpZ2FuZF9wcmVwLm1hZScsICctbXMnLCAnMScsICctcGgnLCAnNycsICctcGh0JywgJzAuNScsICctbnQn

> <r_lp_tautomer_probability>
1

> <r_epik_Ionization_Penalty>
  0.0030

> <r_epik_Ionization_Penalty_Charging>
  0.0000

> <r_epik_Ionization_Penalty_Neutral>
  0.0030

> <r_epik_State_Penalty>
 -0.0000

> <r_epik_Charging_Adjusted_Penalty>
0

> <i_epik_Tot_Q>
0

> <i_epik_Tot_abs_Q>
0

$$$$
