4pm0_ligand
                    3D
 Schrodinger Suite 2020-3.
 41 43  0  0  1  0            999 V2000
  -44.5470   27.1740    0.4480 C   0  0  0  0  0  0
  -44.9700   24.6020    1.2970 C   0  0  1  0  0  0
  -43.7860   24.8990    0.5620 N   0  0  3  0  0  0
  -45.9510   25.5610    1.5850 N   0  0  0  0  0  0
  -45.7260   26.8630    1.1210 C   0  0  0  0  0  0
  -43.5590   26.1870    0.1720 C   0  0  1  0  0  0
  -44.5550   28.8640   -0.0220 S   0  0  0  0  0  0
  -46.5570   27.9450    1.3190 C   0  0  0  0  0  0
  -46.0460   29.1170    0.7520 C   0  0  0  0  0  0
  -45.1730   23.2480    1.7230 N   0  3  2  0  0  0
  -47.8600   27.8540    2.0800 C   0  0  0  0  0  0
  -48.9550   27.8320    2.6950 C   0  0  0  0  0  0
  -42.4160   26.4410   -0.5120 O   0  0  0  0  0  0
  -42.8060   23.8300    0.3100 C   0  0  0  0  0  0
  -46.4690   22.9270    2.3500 C   0  0  0  0  0  0
  -47.4530   22.4790    1.3130 C   0  0  0  0  0  0
  -46.3400   21.7800    3.3090 C   0  0  0  0  0  0
  -41.9320   23.6900    1.5210 C   0  0  0  0  0  0
  -47.7020   21.1330    3.2770 C   0  0  0  0  0  0
  -48.4790   21.7810    2.1800 C   0  0  0  0  0  0
  -44.9700   25.6776    1.5275 H   0  0  0  0  0  0
  -46.8490   25.2759    2.1527 H   0  0  0  0  0  0
  -42.6574   26.7755    0.3974 H   0  0  0  0  0  0
  -46.5477   30.0834    0.8012 H   0  0  0  0  0  0
  -45.0904   22.5749    0.8569 H   0  0  0  0  0  0
  -42.1911   27.4645   -0.8465 H   0  0  0  0  0  0
  -43.3354   22.8851    0.1180 H   0  0  0  0  0  0
  -42.1945   24.0922   -0.5659 H   0  0  0  0  0  0
  -46.7879   23.8481    2.8597 H   0  0  0  0  0  0
  -47.8492   23.3561    0.7803 H   0  0  0  0  0  0
  -46.9524   21.8105    0.5971 H   0  0  0  0  0  0
  -45.5472   21.1003    2.9632 H   0  0  0  0  0  0
  -46.0840   22.1639    4.3075 H   0  0  0  0  0  0
  -41.1925   22.8939    1.3494 H   0  0  0  0  0  0
  -42.5518   23.4331    2.3927 H   0  0  0  0  0  0
  -41.4108   24.6403    1.7089 H   0  0  0  0  0  0
  -47.5916   20.0554    3.0859 H   0  0  0  0  0  0
  -48.2027   21.2843    4.2447 H   0  0  0  0  0  0
  -49.1898   22.5216    2.5752 H   0  0  0  0  0  0
  -49.0216   21.0365    1.5788 H   0  0  0  0  0  0
  -44.4107   22.9802    2.4695 H   0  0  0  0  0  0
  1  5  2  0  0  0
  1  6  1  0  0  0
  1  7  1  0  0  0
  2  3  1  0  0  0
  2  4  1  0  0  0
  2 10  1  0  0  0
  2 21  1  0  0  0
  3  6  1  0  0  0
  3 14  1  0  0  0
  4  5  1  0  0  0
  4 22  1  0  0  0
  5  8  1  0  0  0
  6 13  1  0  0  0
  6 23  1  0  0  0
  7  9  1  0  0  0
  8  9  2  0  0  0
  8 11  1  0  0  0
  9 24  1  0  0  0
 10 15  1  0  0  0
 10 25  1  0  0  0
 10 41  1  0  0  0
 11 12  3  0  0  0
 13 26  1  0  0  0
 14 18  1  0  0  0
 14 27  1  0  0  0
 14 28  1  0  0  0
 15 16  1  0  0  0
 15 17  1  0  0  0
 15 29  1  0  0  0
 16 20  1  0  0  0
 16 30  1  0  0  0
 16 31  1  0  0  0
 17 19  1  0  0  0
 17 32  1  0  0  0
 17 33  1  0  0  0
 18 34  1  0  0  0
 18 35  1  0  0  0
 18 36  1  0  0  0
 19 20  1  0  0  0
 19 37  1  0  0  0
 19 38  1  0  0  0
 20 39  1  0  0  0
 20 40  1  0  0  0
M  CHG  1  10   1
M  END
> <s_m_source_file>
../4pm0_ligand.sdf

> <i_m_source_file_index>
1

> <s_epik_input>
czFbY0hdYyhDI1tDSF0pYyhjMTIpW05IXVtDQEhdKE4oW0NASF0yW09IXSlbQ0gyXVtDSDNdKVtOSF1bQ0hdM1tDSDJdW0NIMl1bQ0gyXVtDSDJdMw==

> <s_epik_cmdline>
J2VwaWtfYXBwJywgJy1pbWFlJywgJ2xpZ2FuZF9wcm8ubWFlJywgJy1vbWFlJywgJ2xpZ2FuZF9wcmVwLm1hZScsICctbXMnLCAnMScsICctcGgnLCAnNycsICctcGh0JywgJzAuNScsICctbnQn

> <r_lp_tautomer_probability>
1

> <r_epik_Ionization_Penalty>
  0.0064

> <r_epik_Ionization_Penalty_Charging>
  0.0058

> <r_epik_Ionization_Penalty_Neutral>
  0.0006

> <r_epik_State_Penalty>
 -0.0000

> <r_epik_Charging_Adjusted_Penalty>
0.00580838503657703

> <i_epik_Tot_Q>
1

> <i_epik_Tot_abs_Q>
1

> <s_epik_Chemistry_Notes>
This compound contains an acetal/aminal-like group ( X-CH(R)-Y where X, Y are N, S, or O) that may be acid/base labile, releasing an aldehyde.

$$$$
