4pmp_ligand
                    3D
 Schrodinger Suite 2020-3.
 48 51  0  0  1  0            999 V2000
   31.4220  -34.6560   -9.8740 C   0  0  0  0  0  0
   31.8120  -35.6160   -8.7920 C   0  0  0  0  0  0
   31.5450  -33.6880   -5.9170 C   0  0  0  0  0  0
   30.3420  -34.2180   -3.8780 C   0  0  0  0  0  0
   27.6920  -34.4090   -1.4210 C   0  0  0  0  0  0
   26.8320  -33.8820   -2.3030 C   0  0  0  0  0  0
   31.5030  -34.7790   -3.3450 C   0  0  0  0  0  0
   32.6630  -34.8230   -4.1010 C   0  0  0  0  0  0
   32.6810  -34.2840   -5.3790 C   0  0  0  0  0  0
   36.9150  -32.1350   -7.7330 C   0  0  0  0  0  0
   39.8260  -28.9360   -8.8450 C   0  0  0  0  0  0
   36.7290  -31.8530  -10.1100 C   0  0  0  0  0  0
   33.9240  -31.5130   -7.3880 O   0  0  0  0  0  0
   33.8690  -32.5170   -8.0850 C   0  0  0  0  0  0
   34.9160  -32.9310   -8.8540 N   0  0  0  0  0  0
   36.1970  -32.3180   -8.9110 C   0  0  0  0  0  0
   37.9430  -31.1840  -10.1260 C   0  0  0  0  0  0
   38.6390  -30.9830   -8.9380 C   0  0  0  0  0  0
   39.8630  -30.2800   -8.8800 O   0  0  0  0  0  0
   39.3550  -28.4120   -9.9590 F   0  0  0  0  0  0
   39.0920  -28.4780   -7.8450 F   0  0  0  0  0  0
   41.0260  -28.4220   -8.6860 F   0  0  0  0  0  0
   38.1300  -31.4700   -7.7440 C   0  0  0  0  0  0
   32.7100  -33.3020   -8.1190 N   0  0  0  0  0  0
   32.6660  -34.4290   -9.0830 C   0  0  0  0  0  0
   31.5850  -32.9560   -7.2410 C   0  0  0  0  0  0
   30.3710  -33.6840   -5.1650 C   0  0  0  0  0  0
   29.0900  -34.1850   -3.0980 C   0  0  0  0  0  0
   27.6200  -33.5720   -3.7790 S   0  0  0  0  0  0
   28.9840  -34.5880   -1.8630 N   0  0  0  0  0  0
   31.3720  -35.1879  -10.8356 H   0  0  0  0  0  0
   30.4375  -34.2231   -9.6428 H   0  0  0  0  0  0
   31.0184  -35.6530   -8.0312 H   0  0  0  0  0  0
   31.9529  -36.6178   -9.2239 H   0  0  0  0  0  0
   27.3863  -34.6807   -0.4106 H   0  0  0  0  0  0
   25.7794  -33.6809   -2.1038 H   0  0  0  0  0  0
   31.4973  -35.1831   -2.3327 H   0  0  0  0  0  0
   33.5628  -35.2818   -3.6911 H   0  0  0  0  0  0
   33.5965  -34.3280   -5.9689 H   0  0  0  0  0  0
   36.5177  -32.5184   -6.7932 H   0  0  0  0  0  0
   36.1879  -32.0158  -11.0421 H   0  0  0  0  0  0
   34.8068  -33.8121   -9.5035 H   0  0  0  0  0  0
   38.3515  -30.8162  -11.0672 H   0  0  0  0  0  0
   38.6846  -31.3299   -6.8161 H   0  0  0  0  0  0
   33.7291  -34.2805   -9.3232 H   0  0  0  0  0  0
   30.6687  -33.1750   -7.8088 H   0  0  0  0  0  0
   31.6539  -31.8733   -7.0595 H   0  0  0  0  0  0
   29.4626  -33.2570   -5.5898 H   0  0  0  0  0  0
  1  2  1  0  0  0
  1 25  1  0  0  0
  1 31  1  0  0  0
  1 32  1  0  0  0
  2 25  1  0  0  0
  2 33  1  0  0  0
  2 34  1  0  0  0
  3  9  2  0  0  0
  3 26  1  0  0  0
  3 27  1  0  0  0
  4  7  1  0  0  0
  4 27  2  0  0  0
  4 28  1  0  0  0
  5  6  2  0  0  0
  5 30  1  0  0  0
  5 35  1  0  0  0
  6 29  1  0  0  0
  6 36  1  0  0  0
  7  8  2  0  0  0
  7 37  1  0  0  0
  8  9  1  0  0  0
  8 38  1  0  0  0
  9 39  1  0  0  0
 10 16  2  0  0  0
 10 23  1  0  0  0
 10 40  1  0  0  0
 11 19  1  0  0  0
 11 20  1  0  0  0
 11 21  1  0  0  0
 11 22  1  0  0  0
 12 16  1  0  0  0
 12 17  2  0  0  0
 12 41  1  0  0  0
 13 14  2  0  0  0
 14 15  1  0  0  0
 14 24  1  0  0  0
 15 16  1  0  0  0
 15 42  1  0  0  0
 17 18  1  0  0  0
 17 43  1  0  0  0
 18 19  1  0  0  0
 18 23  2  0  0  0
 23 44  1  0  0  0
 24 25  1  0  0  0
 24 26  1  0  0  0
 25 45  1  0  0  0
 26 46  1  0  0  0
 26 47  1  0  0  0
 27 48  1  0  0  0
 28 29  1  0  0  0
 28 30  2  0  0  0
M  END
> <s_m_source_file>
../4pmp_ligand.sdf

> <i_m_source_file_index>
1

> <s_epik_input>
RkMoRikoRilPYyhbY0hdW2NIXTEpW2NIXVtjSF1jMVtOSF1DKD1PKU4oW0NIXTJbQ0gyXVtDSDJdMilbQ0gyXWMzW2NIXVtjSF1bY0hdYyhbY0hdMyktYzRzW2NIXVtjSF1uNA==

> <s_epik_cmdline>
J2VwaWtfYXBwJywgJy1pbWFlJywgJ2xpZ2FuZF9wcm8ubWFlJywgJy1vbWFlJywgJ2xpZ2FuZF9wcmVwLm1hZScsICctbXMnLCAnMScsICctcGgnLCAnNycsICctcGh0JywgJzAuNScsICctbnQn

> <r_lp_tautomer_probability>
1

> <r_epik_Ionization_Penalty>
  0.0001

> <r_epik_Ionization_Penalty_Charging>
  0.0000

> <r_epik_Ionization_Penalty_Neutral>
  0.0001

> <r_epik_State_Penalty>
 -0.0000

> <r_epik_Charging_Adjusted_Penalty>
0

> <i_epik_Tot_Q>
0

> <i_epik_Tot_abs_Q>
0

$$$$
