4pmt_ligand
                    3D
 Schrodinger Suite 2020-3.
 54 58  0  0  1  0            999 V2000
   30.0910  -34.9750   -2.6050 C   0  0  0  0  0  0
   28.4050  -34.9330   -1.0690 C   0  0  0  0  0  0
   31.0240  -29.7350   -6.4340 N   0  0  0  0  0  0
   31.8220  -35.0360   -4.2750 C   0  0  0  0  0  0
   21.9240  -31.2300   -3.7960 N   0  0  0  0  0  0
   30.4100  -33.3610   -7.3410 C   0  0  0  0  0  0
   31.1880  -31.0180   -6.8010 C   0  0  0  0  0  0
   29.7710  -29.3110   -6.2160 C   0  0  0  0  0  0
   28.6650  -30.1280   -6.3530 C   0  0  0  0  0  0
   28.8630  -31.4470   -6.7320 C   0  0  0  0  0  0
   25.8270  -32.7640   -3.8390 C   0  0  0  0  0  0
   23.5860  -32.7920   -2.9590 C   0  0  0  0  0  0
   25.4930  -31.6670   -4.6240 C   0  0  0  0  0  0
   20.2840  -29.8460   -2.6630 C   0  0  0  0  0  0
   20.4130  -29.7730   -5.0150 C   0  0  0  0  0  0
   21.2040  -31.0580   -5.0620 C   0  0  0  0  0  0
   19.5420  -29.7370   -3.8820 O   0  0  0  0  0  0
   21.0790  -31.1290   -2.6030 C   0  0  0  0  0  0
   23.2380  -31.7010   -3.7590 C   0  0  0  0  0  0
   24.8660  -33.3150   -2.9980 C   0  0  0  0  0  0
   24.2180  -31.1330   -4.5770 C   0  0  0  0  0  0
   27.1700  -33.1700   -3.8780 N   0  0  0  0  0  0
   27.9400  -33.9630   -3.0860 C   0  0  0  0  0  0
   27.5290  -34.2870   -1.8500 N   0  0  0  0  0  0
   29.6600  -35.2920   -1.3440 N   0  0  0  0  0  0
   29.2600  -34.3230   -3.5330 C   0  0  0  0  0  0
   29.6900  -34.0400   -4.7940 N   0  0  0  0  0  0
   30.9180  -34.3810   -5.1430 C   0  0  0  0  0  0
   31.4030  -35.3190   -3.0090 C   0  0  0  0  0  0
   31.2910  -34.0580   -6.4140 N   0  0  0  0  0  0
   30.1490  -31.9190   -6.9630 C   0  0  0  0  0  0
   28.0440  -35.2011   -0.0761 H   0  0  0  0  0  0
   32.8239  -35.3065   -4.6082 H   0  0  0  0  0  0
   30.8603  -33.3605   -8.3446 H   0  0  0  0  0  0
   29.4365  -33.8720   -7.3762 H   0  0  0  0  0  0
   32.2031  -31.3713   -6.9825 H   0  0  0  0  0  0
   29.6176  -28.2741   -5.9169 H   0  0  0  0  0  0
   27.6615  -29.7449   -6.1677 H   0  0  0  0  0  0
   28.0089  -32.1141   -6.8488 H   0  0  0  0  0  0
   22.8417  -33.2355   -2.2976 H   0  0  0  0  0  0
   26.2412  -31.2242   -5.2815 H   0  0  0  0  0  0
   20.9845  -29.0017   -2.5834 H   0  0  0  0  0  0
   19.5908  -29.8290   -1.8090 H   0  0  0  0  0  0
   21.1038  -28.9194   -4.9511 H   0  0  0  0  0  0
   19.8035  -29.6840   -5.9264 H   0  0  0  0  0  0
   21.9254  -31.0164   -5.8914 H   0  0  0  0  0  0
   20.5202  -31.9062   -5.2131 H   0  0  0  0  0  0
   20.3918  -31.9872   -2.5667 H   0  0  0  0  0  0
   21.7126  -31.1284   -1.7038 H   0  0  0  0  0  0
   25.1232  -34.1646   -2.3654 H   0  0  0  0  0  0
   23.9754  -30.2607   -5.1839 H   0  0  0  0  0  0
   27.8261  -32.8230   -4.6898 H   0  0  0  0  0  0
   32.0782  -35.8100   -2.3082 H   0  0  0  0  0  0
   32.3045  -34.3462   -6.7298 H   0  0  0  0  0  0
  1 25  2  0  0  0
  1 26  1  0  0  0
  1 29  1  0  0  0
  2 24  2  0  0  0
  2 25  1  0  0  0
  2 32  1  0  0  0
  3  7  2  0  0  0
  3  8  1  0  0  0
  4 28  1  0  0  0
  4 29  2  0  0  0
  4 33  1  0  0  0
  5 16  1  0  0  0
  5 18  1  0  0  0
  5 19  1  0  0  0
  6 30  1  0  0  0
  6 31  1  0  0  0
  6 34  1  0  0  0
  6 35  1  0  0  0
  7 31  1  0  0  0
  7 36  1  0  0  0
  8  9  2  0  0  0
  8 37  1  0  0  0
  9 10  1  0  0  0
  9 38  1  0  0  0
 10 31  2  0  0  0
 10 39  1  0  0  0
 11 13  2  0  0  0
 11 20  1  0  0  0
 11 22  1  0  0  0
 12 19  1  0  0  0
 12 20  2  0  0  0
 12 40  1  0  0  0
 13 21  1  0  0  0
 13 41  1  0  0  0
 14 17  1  0  0  0
 14 18  1  0  0  0
 14 42  1  0  0  0
 14 43  1  0  0  0
 15 16  1  0  0  0
 15 17  1  0  0  0
 15 44  1  0  0  0
 15 45  1  0  0  0
 16 46  1  0  0  0
 16 47  1  0  0  0
 18 48  1  0  0  0
 18 49  1  0  0  0
 19 21  2  0  0  0
 20 50  1  0  0  0
 21 51  1  0  0  0
 22 23  1  0  0  0
 22 52  1  0  0  0
 23 24  1  0  0  0
 23 26  2  0  0  0
 26 27  1  0  0  0
 27 28  2  0  0  0
 28 30  1  0  0  0
 29 53  1  0  0  0
 30 54  1  0  0  0
M  END
> <s_m_source_file>
../4pmt_ligand.sdf

> <i_m_source_file_index>
1

> <s_epik_input>
W2NIXTFbY0hdW2NIXW5bY0hdYzFbQ0gyXVtOSF1jKFtjSF1bY0hdMiluYyhjMjMpYyhuW2NIXW4zKVtOSF1jNFtjSF1bY0hdYyhbY0hdW2NIXTQpTjVbQ0gyXVtDSDJdT1tDSDJdW0NIMl01

> <s_epik_cmdline>
J2VwaWtfYXBwJywgJy1pbWFlJywgJ2xpZ2FuZF9wcm8ubWFlJywgJy1vbWFlJywgJ2xpZ2FuZF9wcmVwLm1hZScsICctbXMnLCAnMScsICctcGgnLCAnNycsICctcGh0JywgJzAuNScsICctbnQn

> <r_epik_Ionization_Penalty>
  0.0139

> <r_epik_Ionization_Penalty_Charging>
  0.0000

> <r_epik_Ionization_Penalty_Neutral>
  0.0139

> <r_epik_State_Penalty>
  0.0108

> <r_epik_Charging_Adjusted_Penalty>
0.010752866137016

> <i_epik_Tot_Q>
0

> <i_epik_Tot_abs_Q>
0

$$$$
