4pn1_ligand
                    3D
 Schrodinger Suite 2020-3.
 89 91  0  0  1  0            999 V2000
  106.0030   62.9390  180.7940 N   0  3  0  0  0  0
  106.0420   62.5760  179.3820 C   0  0  2  0  0  0
  106.6020   61.1700  179.1780 C   0  0  0  0  0  0
  107.3290   60.6480  180.0230 O   0  0  0  0  0  0
  106.8570   63.5960  178.5940 C   0  0  0  0  0  0
  106.2540   60.5610  178.0510 N   0  0  0  0  0  0
  106.7550   59.2360  177.7130 C   0  0  2  0  0  0
  106.9550   59.1140  176.2060 C   0  0  0  0  0  0
  106.1450   59.6170  175.4280 O   0  0  0  0  0  0
  105.8050   58.1220  178.2130 C   0  0  2  0  0  0
  106.2590   56.8490  177.7370 O   0  0  0  0  0  0
  104.3820   58.3630  177.7250 C   0  0  0  0  0  0
  108.0480   58.4580  175.7880 N   0  0  0  0  0  0
  108.2850   58.2210  174.3600 C   0  0  2  0  0  0
  107.1740   57.3670  173.7560 C   0  0  0  0  0  0
  106.4460   56.7000  174.4920 O   0  0  0  0  0  0
  109.6200   57.4660  174.3430 C   0  0  0  0  0  0
  109.7680   56.9060  175.7200 C   0  0  0  0  0  0
  109.1270   57.9060  176.6250 C   0  0  0  0  0  0
  107.0460   57.3950  172.4330 N   0  0  0  0  0  0
  105.9600   56.6960  171.7540 C   0  0  2  0  0  0
  106.0190   55.1830  171.9530 C   0  0  0  0  0  0
  104.9890   54.5300  172.1220 O   0  0  0  0  0  0
  105.9580   57.0360  170.2690 C   0  0  0  0  0  0
  107.2280   54.6330  171.9470 N   0  0  0  0  0  0
  107.4110   53.1850  171.9840 C   0  0  2  0  0  0
  107.2120   52.5560  173.3630 C   0  0  0  0  0  0
  107.2820   51.3360  173.5060 O   0  0  0  0  0  0
  108.7870   52.8070  171.4330 C   0  0  0  0  0  0
  109.9090   53.6620  171.9390 C   0  0  0  0  0  0
  110.4700   54.7340  171.3080 C   0  0  0  0  0  0
  110.6130   53.5150  173.1790 C   0  0  0  0  0  0
  111.4770   55.2650  172.0770 N   0  3  0  0  0  0
  111.5840   54.5350  173.2320 C   0  0  0  0  0  0
  110.5150   52.6210  174.2500 C   0  0  0  0  0  0
  112.4510   54.6870  174.3120 C   0  0  0  0  0  0
  111.3760   52.7730  175.3220 C   0  0  0  0  0  0
  112.3320   53.7980  175.3440 C   0  0  0  0  0  0
  106.9640   53.3820  174.3720 N   0  0  0  0  0  0
  106.7870   52.8710  175.7260 C   0  0  2  0  0  0
  105.4330   53.2400  176.3210 C   0  0  0  0  0  0
  104.8250   52.4470  177.0420 O   0  0  0  0  0  0
  107.9180   53.3560  176.6340 C   0  0  0  0  0  0
  107.9260   52.6550  177.9780 C   0  0  0  0  0  0
  108.2910   51.4830  178.0750 O   0  0  0  0  0  0
  107.5310   53.3710  179.0240 N   0  0  0  0  0  0
  104.9300   54.3683  176.0729 O   0  5  0  0  0  0
  105.4123   62.1945  181.3478 H   0  0  0  0  0  0
  105.5400   63.9306  180.9050 H   0  0  0  0  0  0
  107.0273   62.9657  181.1941 H   0  0  0  0  0  0
  104.9928   62.5941  179.0522 H   0  0  0  0  0  0
  106.4392   64.6010  178.7532 H   0  0  0  0  0  0
  106.8178   63.3481  177.5230 H   0  0  0  0  0  0
  107.9018   63.5746  178.9374 H   0  0  0  0  0  0
  105.5698   61.0818  177.3650 H   0  0  0  0  0  0
  107.7231   59.1671  178.2307 H   0  0  0  0  0  0
  105.8193   58.0605  179.3112 H   0  0  0  0  0  0
  107.2703   56.4967  177.9882 H   0  0  0  0  0  0
  104.0301   59.3397  178.0887 H   0  0  0  0  0  0
  103.7235   57.5699  178.1088 H   0  0  0  0  0  0
  104.3650   58.3534  176.6252 H   0  0  0  0  0  0
  108.2940   59.1691  173.8023 H   0  0  0  0  0  0
  109.5817   56.6706  173.5841 H   0  0  0  0  0  0
  110.4337   58.1653  174.1004 H   0  0  0  0  0  0
  109.2627   55.9305  175.7754 H   0  0  0  0  0  0
  110.8359   56.7794  175.9516 H   0  0  0  0  0  0
  109.8131   58.7141  176.9187 H   0  0  0  0  0  0
  108.6939   57.4471  177.5260 H   0  0  0  0  0  0
  107.7846   57.9633  171.8486 H   0  0  0  0  0  0
  105.0478   57.0743  172.2385 H   0  0  0  0  0  0
  105.9153   58.1279  170.1429 H   0  0  0  0  0  0
  105.0812   56.5769  169.7889 H   0  0  0  0  0  0
  106.8760   56.6487  169.8030 H   0  0  0  0  0  0
  108.1040   55.2974  171.9131 H   0  0  0  0  0  0
  106.5979   52.8242  171.3369 H   0  0  0  0  0  0
  109.0215   51.7693  171.7126 H   0  0  0  0  0  0
  108.7810   52.8990  170.3369 H   0  0  0  0  0  0
  110.0963   55.0497  170.3228 H   0  0  0  0  0  0
  109.7751   51.8206  174.2402 H   0  0  0  0  0  0
  113.1949   55.4834  174.3334 H   0  0  0  0  0  0
  111.3099   52.0840  176.1640 H   0  0  0  0  0  0
  112.9959   53.8884  176.2038 H   0  0  0  0  0  0
  106.8924   54.4624  174.1781 H   0  0  0  0  0  0
  106.8238   51.7781  175.6067 H   0  0  0  0  0  0
  108.8860   53.1656  176.1475 H   0  0  0  0  0  0
  107.8051   54.4349  176.8160 H   0  0  0  0  0  0
  107.2136   54.4153  178.8874 H   0  0  0  0  0  0
  107.5212   52.9199  180.0272 H   0  0  0  0  0  0
  112.0399   56.1394  171.7186 H   0  0  0  0  0  0
  1  2  1  0  0  0
  1 48  1  0  0  0
  1 49  1  0  0  0
  1 50  1  0  0  0
  2  3  1  0  0  0
  2  5  1  0  0  0
  2 51  1  0  0  0
  3  4  2  0  0  0
  3  6  1  0  0  0
  5 52  1  0  0  0
  5 53  1  0  0  0
  5 54  1  0  0  0
  6  7  1  0  0  0
  6 55  1  0  0  0
  7  8  1  0  0  0
  7 10  1  0  0  0
  7 56  1  0  0  0
  8  9  2  0  0  0
  8 13  1  0  0  0
 10 11  1  0  0  0
 10 12  1  0  0  0
 10 57  1  0  0  0
 11 58  1  0  0  0
 12 59  1  0  0  0
 12 60  1  0  0  0
 12 61  1  0  0  0
 13 14  1  0  0  0
 13 19  1  0  0  0
 14 15  1  0  0  0
 14 17  1  0  0  0
 14 62  1  0  0  0
 15 16  2  0  0  0
 15 20  1  0  0  0
 17 18  1  0  0  0
 17 63  1  0  0  0
 17 64  1  0  0  0
 18 19  1  0  0  0
 18 65  1  0  0  0
 18 66  1  0  0  0
 19 67  1  0  0  0
 19 68  1  0  0  0
 20 21  1  0  0  0
 20 69  1  0  0  0
 21 22  1  0  0  0
 21 24  1  0  0  0
 21 70  1  0  0  0
 22 23  2  0  0  0
 22 25  1  0  0  0
 24 71  1  0  0  0
 24 72  1  0  0  0
 24 73  1  0  0  0
 25 26  1  0  0  0
 25 74  1  0  0  0
 26 27  1  0  0  0
 26 29  1  0  0  0
 26 75  1  0  0  0
 27 28  2  0  0  0
 27 39  1  0  0  0
 29 30  1  0  0  0
 29 76  1  0  0  0
 29 77  1  0  0  0
 30 31  2  0  0  0
 30 32  1  0  0  0
 31 33  1  0  0  0
 31 78  1  0  0  0
 32 34  2  0  0  0
 32 35  1  0  0  0
 33 34  1  0  0  0
 33 89  1  0  0  0
 34 36  1  0  0  0
 35 37  2  0  0  0
 35 79  1  0  0  0
 36 38  2  0  0  0
 36 80  1  0  0  0
 37 38  1  0  0  0
 37 81  1  0  0  0
 38 82  1  0  0  0
 39 40  1  0  0  0
 39 83  1  0  0  0
 40 41  1  0  0  0
 40 43  1  0  0  0
 40 84  1  0  0  0
 41 42  2  0  0  0
 41 47  1  0  0  0
 43 44  1  0  0  0
 43 85  1  0  0  0
 43 86  1  0  0  0
 44 45  2  0  0  0
 44 46  1  0  0  0
 46 87  1  0  0  0
 46 88  1  0  0  0
M  CHG  3   1   1  33   1  47  -1
M  END
> <s_m_source_file>
../4pn1_ligand.sdf

> <i_m_source_file_index>
1

> <s_epik_input>
W05IMytdW0NAQEhdKFtDSDNdKUMoPU8pW05IXVtDQEBIXShbQ0BIXShbT0hdKVtDSDNdKUMoPU8pTjFbQ0BASF0oW0NIMl1bQ0gyXVtDSDJdMSlDKD1PKVtOSF1bQ0BASF0oW0NIM10pQyg9TylbTkhdW0NASF0oQyg9TylbTkhdW0NASF0oQyg9TylbT0hdKVtDSDJdQyg9TylbTkgyXSlbQ0gyXWMyW2NIXVtuSF1jKGMyMylbY0hdW2NIXVtjSF1bY0hdMw==

> <s_epik_cmdline>
J2VwaWtfYXBwJywgJy1pbWFlJywgJ2xpZ2FuZF9wcm8ubWFlJywgJy1vbWFlJywgJ2xpZ2FuZF9wcmVwLm1hZScsICctbXMnLCAnMScsICctcGgnLCAnNycsICctcGh0JywgJzAuNScsICctbnQn

> <r_epik_Ionization_Penalty>
  0.1260

> <r_epik_Ionization_Penalty_Charging>
  0.1260

> <r_epik_Ionization_Penalty_Neutral>
  0.0000

> <r_epik_State_Penalty>
  0.1153

> <r_epik_Charging_Adjusted_Penalty>
0.241378723429463

> <i_epik_Tot_Q>
1

> <i_epik_Tot_abs_Q>
3

$$$$
