4pnc_ligand
                    3D
 Schrodinger Suite 2020-3.
 28 29  0  0  1  0            999 V2000
   23.2090   -0.8300    7.9330 O   0  0  0  0  0  0
   24.1680   -0.3070    8.4670 C   0  0  0  0  0  0
   24.6690    0.9180    7.8750 C   0  0  0  0  0  0
   24.7110   -0.9410    9.6620 C   0  0  1  0  0  0
   24.5070   -2.4020    9.3880 C   0  0  0  0  0  0
   26.1230   -0.4840    9.8430 C   0  0  0  0  0  0
   26.2250    1.0050    9.8570 C   0  0  0  0  0  0
   25.7020    1.6090    8.5660 C   0  0  0  0  0  0
   26.2130    2.8140    8.0610 C   0  0  0  0  0  0
   25.7040    3.3350    6.8920 C   0  0  0  0  0  0
   24.6680    2.6400    6.2130 C   0  0  0  0  0  0
   24.1260    1.4340    6.6970 C   0  0  0  0  0  0
   24.2350    3.2650    5.0520 O   0  0  0  0  0  0
   23.2730    2.6010    4.2930 C   0  0  0  0  0  0
   24.2220   -0.6689   10.6090 H   0  0  0  0  0  0
   23.4322   -2.6074    9.2755 H   0  0  0  0  0  0
   24.9073   -2.9916   10.2260 H   0  0  0  0  0  0
   25.0320   -2.6781    8.4616 H   0  0  0  0  0  0
   26.5125   -0.8662   10.7981 H   0  0  0  0  0  0
   26.7406   -0.8651    9.0163 H   0  0  0  0  0  0
   25.6338    1.4052   10.6939 H   0  0  0  0  0  0
   27.2779    1.2993    9.9782 H   0  0  0  0  0  0
   27.0095    3.3357    8.5915 H   0  0  0  0  0  0
   26.0925    4.2715    6.4919 H   0  0  0  0  0  0
   23.3166    0.9247    6.1740 H   0  0  0  0  0  0
   23.0234    3.2047    3.4080 H   0  0  0  0  0  0
   22.3683    2.4485    4.8998 H   0  0  0  0  0  0
   23.6680    1.6258    3.9722 H   0  0  0  0  0  0
  1  2  2  0  0  0
  2  3  1  0  0  0
  2  4  1  0  0  0
  3  8  2  0  0  0
  3 12  1  0  0  0
  4  5  1  0  0  0
  4  6  1  0  0  0
  4 15  1  0  0  0
  5 16  1  0  0  0
  5 17  1  0  0  0
  5 18  1  0  0  0
  6  7  1  0  0  0
  6 19  1  0  0  0
  6 20  1  0  0  0
  7  8  1  0  0  0
  7 21  1  0  0  0
  7 22  1  0  0  0
  8  9  1  0  0  0
  9 10  2  0  0  0
  9 23  1  0  0  0
 10 11  1  0  0  0
 10 24  1  0  0  0
 11 12  2  0  0  0
 11 13  1  0  0  0
 12 25  1  0  0  0
 13 14  1  0  0  0
 14 26  1  0  0  0
 14 27  1  0  0  0
 14 28  1  0  0  0
M  END
> <s_m_source_file>
../4pnc_ligand.sdf

> <i_m_source_file_index>
1

> <s_epik_input>
Tz1DMVtDQEBIXShbQ0gzXSlbQ0gyXVtDSDJdYyhjMTIpW2NIXVtjSF1jKFtjSF0yKU9bQ0gzXQ==

> <s_epik_cmdline>
J2VwaWtfYXBwJywgJy1pbWFlJywgJ2xpZ2FuZF9wcm8ubWFlJywgJy1vbWFlJywgJ2xpZ2FuZF9wcmVwLm1hZScsICctbXMnLCAnMScsICctcGgnLCAnNycsICctcGh0JywgJzAuNScsICctbnQn

> <r_lp_tautomer_probability>
1

> <r_epik_Ionization_Penalty>
  0.0000

> <r_epik_Ionization_Penalty_Charging>
  0.0000

> <r_epik_Ionization_Penalty_Neutral>
  0.0000

> <r_epik_State_Penalty>
 -0.0000

> <r_epik_Charging_Adjusted_Penalty>
0

> <i_epik_Tot_Q>
0

> <i_epik_Tot_abs_Q>
0

$$$$
