4pni_ligand
                    3D
 Schrodinger Suite 2020-3.
 71 75  0  0  1  0            999 V2000
  -11.4040   -0.2520  -26.2330 O   0  0  0  0  0  0
  -12.0250   -1.2870  -26.3320 C   0  0  0  0  0  0
  -11.5240   -2.3450  -26.9510 N   0  0  0  0  0  0
  -13.3390   -1.4810  -25.7200 C   0  0  0  0  0  0
  -14.1170   -3.0570  -25.8670 S   0  0  0  0  0  0
  -15.4580   -2.5420  -24.9770 C   0  0  0  0  0  0
  -15.3240   -1.1960  -24.5620 C   0  0  0  0  0  0
  -14.1480   -0.5920  -25.0150 C   0  0  0  0  0  0
  -13.6270    0.7130  -24.9200 N   0  5  0  0  0  0
  -14.2440    1.7520  -24.3280 C   0  0  0  0  0  0
  -15.5550    1.7120  -24.0770 N   0  0  0  0  0  0
  -13.5750    3.0300  -24.1310 C   0  0  0  0  0  0
  -12.2120    3.4940  -24.2600 C   0  0  0  0  0  0
  -12.2490    4.7800  -23.8340 C   0  0  0  0  0  0
  -13.5150    5.0800  -23.3770 N   0  3  0  0  0  0
  -14.3710    4.0700  -23.5320 C   0  0  0  0  0  0
  -15.7080    3.9280  -23.2780 N   0  0  0  0  0  0
  -16.2810    2.7250  -23.5370 C   0  0  0  0  0  0
  -17.6030    2.6320  -23.2560 N   0  0  0  0  0  0
  -18.4390    1.5820  -23.5420 C   0  0  0  0  0  0
  -19.5470    1.4660  -22.6880 C   0  0  0  0  0  0
  -19.6830    2.4040  -21.7080 O   0  0  0  0  0  0
  -20.7190    2.4300  -20.7230 C   0  0  0  0  0  0
  -18.3010    0.6510  -24.5460 C   0  0  0  0  0  0
  -19.1940   -0.4450  -24.6750 C   0  0  0  0  0  0
  -20.2480   -0.5570  -23.7830 C   0  0  0  0  0  0
  -20.4150    0.3720  -22.8070 C   0  0  0  0  0  0
  -18.9430   -1.3950  -25.6270 N   0  0  0  0  0  0
  -18.4790   -1.1370  -26.8580 C   0  0  0  0  0  0
  -18.1340   -2.3290  -27.7340 C   0  0  0  0  0  0
  -17.4110   -1.8010  -28.8960 N   0  3  0  0  0  0
  -16.1470   -1.0500  -28.6340 C   0  0  0  0  0  0
  -17.0910   -2.8910  -29.8780 C   0  0  0  0  0  0
  -18.3620    0.0400  -27.3250 O   0  0  0  0  0  0
  -19.2190   -2.7330  -25.1140 C   0  0  0  0  0  0
  -20.7090   -2.6220  -25.0020 C   0  0  0  0  0  0
  -21.1620   -1.7550  -23.8390 C   0  0  0  0  0  0
  -22.6270   -1.3350  -23.9180 C   0  0  0  0  0  0
  -20.9310   -2.4800  -22.5080 C   0  0  0  0  0  0
  -10.5395   -2.2824  -27.4377 H   0  0  0  0  0  0
  -12.0923   -3.2864  -26.9785 H   0  0  0  0  0  0
  -16.3200   -3.1695  -24.7505 H   0  0  0  0  0  0
  -16.0645   -0.6813  -23.9498 H   0  0  0  0  0  0
  -11.4339    2.8159  -24.6404 H   0  0  0  0  0  0
  -11.4067    5.4716  -23.8501 H   0  0  0  0  0  0
  -18.1158    3.4591  -22.7432 H   0  0  0  0  0  0
  -20.5766    3.2992  -20.0640 H   0  0  0  0  0  0
  -20.6805    1.5069  -20.1260 H   0  0  0  0  0  0
  -21.6969    2.5039  -21.2213 H   0  0  0  0  0  0
  -17.4849    0.7579  -25.2607 H   0  0  0  0  0  0
  -21.2399    0.2650  -22.1026 H   0  0  0  0  0  0
  -17.5050   -3.0309  -27.1669 H   0  0  0  0  0  0
  -19.0596   -2.8354  -28.0453 H   0  0  0  0  0  0
  -18.1399   -1.0670  -29.2702 H   0  0  0  0  0  0
  -16.3437   -0.2403  -27.9159 H   0  0  0  0  0  0
  -15.7728   -0.6221  -29.5758 H   0  0  0  0  0  0
  -15.3935   -1.7345  -28.2173 H   0  0  0  0  0  0
  -18.0022   -3.4675  -30.0956 H   0  0  0  0  0  0
  -16.3285   -3.5582  -29.4496 H   0  0  0  0  0  0
  -16.7079   -2.4457  -30.8080 H   0  0  0  0  0  0
  -18.8674   -3.4829  -25.8379 H   0  0  0  0  0  0
  -18.6957   -2.8739  -24.1568 H   0  0  0  0  0  0
  -21.1139   -2.1779  -25.9233 H   0  0  0  0  0  0
  -21.1414   -3.6230  -24.8568 H   0  0  0  0  0  0
  -22.8079   -0.8128  -24.8691 H   0  0  0  0  0  0
  -22.8612   -0.6621  -23.0799 H   0  0  0  0  0  0
  -23.2678   -2.2273  -23.8619 H   0  0  0  0  0  0
  -19.8777   -2.7891  -22.4369 H   0  0  0  0  0  0
  -21.5781   -3.3681  -22.4571 H   0  0  0  0  0  0
  -21.1715   -1.8029  -21.6751 H   0  0  0  0  0  0
  -13.8538    6.0236  -22.9244 H   0  0  0  0  0  0
  1  2  2  0  0  0
  2  3  1  0  0  0
  2  4  1  0  0  0
  3 40  1  0  0  0
  3 41  1  0  0  0
  4  5  1  0  0  0
  4  8  2  0  0  0
  5  6  1  0  0  0
  6  7  2  0  0  0
  6 42  1  0  0  0
  7  8  1  0  0  0
  7 43  1  0  0  0
  8  9  1  0  0  0
  9 10  1  0  0  0
 10 11  2  0  0  0
 10 12  1  0  0  0
 11 18  1  0  0  0
 12 13  2  0  0  0
 12 16  1  0  0  0
 13 14  1  0  0  0
 13 44  1  0  0  0
 14 15  1  0  0  0
 14 45  1  0  0  0
 15 16  2  0  0  0
 15 71  1  0  0  0
 16 17  1  0  0  0
 17 18  2  0  0  0
 18 19  1  0  0  0
 19 20  1  0  0  0
 19 46  1  0  0  0
 20 21  2  0  0  0
 20 24  1  0  0  0
 21 22  1  0  0  0
 21 27  1  0  0  0
 22 23  1  0  0  0
 23 47  1  0  0  0
 23 48  1  0  0  0
 23 49  1  0  0  0
 24 25  2  0  0  0
 24 50  1  0  0  0
 25 26  1  0  0  0
 25 28  1  0  0  0
 26 27  2  0  0  0
 26 37  1  0  0  0
 27 51  1  0  0  0
 28 29  1  0  0  0
 28 35  1  0  0  0
 29 30  1  0  0  0
 29 34  2  0  0  0
 30 31  1  0  0  0
 30 52  1  0  0  0
 30 53  1  0  0  0
 31 32  1  0  0  0
 31 33  1  0  0  0
 31 54  1  0  0  0
 32 55  1  0  0  0
 32 56  1  0  0  0
 32 57  1  0  0  0
 33 58  1  0  0  0
 33 59  1  0  0  0
 33 60  1  0  0  0
 35 36  1  0  0  0
 35 61  1  0  0  0
 35 62  1  0  0  0
 36 37  1  0  0  0
 36 63  1  0  0  0
 36 64  1  0  0  0
 37 38  1  0  0  0
 37 39  1  0  0  0
 38 65  1  0  0  0
 38 66  1  0  0  0
 38 67  1  0  0  0
 39 68  1  0  0  0
 39 69  1  0  0  0
 39 70  1  0  0  0
M  CHG  3   9  -1  15   1  31   1
M  END
> <s_m_source_file>
../4pni_ligand.sdf

> <i_m_source_file_index>
1

> <s_epik_input>
Tz1DKFtOSDJdKWMxc1tjSF1bY0hdYzFbTkhdYzJuYyhuYyhjMj0zKT1OW0NIMl1bQ0hdMylbTkhdYyhbY0hdNCljKE9bQ0gzXSlbY0hdYyhjNDUpQyhbQ0gzXSkoW0NIM10pW0NIMl1bQ0gyXU41Qyg9TylbQ0gyXVtOSCtdKFtDSDNdKVtDSDNd

> <s_epik_cmdline>
J2VwaWtfYXBwJywgJy1pbWFlJywgJ2xpZ2FuZF9wcm8ubWFlJywgJy1vbWFlJywgJ2xpZ2FuZF9wcmVwLm1hZScsICctbXMnLCAnMScsICctcGgnLCAnNycsICctcGh0JywgJzAuNScsICctbnQn

> <r_epik_Ionization_Penalty>
  0.3731

> <r_epik_Ionization_Penalty_Charging>
  0.0489

> <r_epik_Ionization_Penalty_Neutral>
  0.3242

> <r_epik_State_Penalty>
  0.3189

> <r_epik_Charging_Adjusted_Penalty>
0.367789301118368

> <i_epik_Tot_Q>
1

> <i_epik_Tot_abs_Q>
3

> <s_epik_Chemistry_Notes>
This compound has an imine and may undergo hydrolysis.

$$$$
