4pnl_ligand
                    3D
 Schrodinger Suite 2020-3.
 22 23  0  0  1  0            999 V2000
   24.5070   44.5140   -1.0850 C   0  0  0  0  0  0
   24.3460   46.0300   -1.1040 C   0  0  0  0  0  0
   25.1900   46.8270   -0.4190 N   0  0  0  0  0  0
   25.0820   48.1850   -0.4300 C   0  0  0  0  0  0
   26.1660   48.8990    0.4080 C   0  0  0  0  0  0
   26.1690   50.4370    0.3040 C   0  0  0  0  0  0
   24.5000   51.1780    0.2950 S   0  0  0  0  0  0
   23.8270   50.3370   -1.1880 C   0  0  0  0  0  0
   24.0270   48.8070   -1.1490 C   0  0  0  0  0  0
   23.1540   47.9790   -1.8750 C   0  0  0  0  0  0
   22.2380   48.4440   -2.5610 O   0  0  0  0  0  0
   23.3120   46.5950   -1.8590 N   0  0  0  0  0  0
   25.3617   44.2440   -0.4473 H   0  0  0  0  0  0
   24.6839   44.1512   -2.1083 H   0  0  0  0  0  0
   23.5915   44.0530   -0.6857 H   0  0  0  0  0  0
   26.0252   48.6575    1.4719 H   0  0  0  0  0  0
   27.1615   48.5614    0.0840 H   0  0  0  0  0  0
   26.7101   50.8615    1.1625 H   0  0  0  0  0  0
   26.6661   50.7405   -0.6292 H   0  0  0  0  0  0
   22.7472   50.5333   -1.2625 H   0  0  0  0  0  0
   24.3320   50.7194   -2.0873 H   0  0  0  0  0  0
   22.6328   45.9474   -2.4329 H   0  0  0  0  0  0
  1  2  1  0  0  0
  1 13  1  0  0  0
  1 14  1  0  0  0
  1 15  1  0  0  0
  2  3  2  0  0  0
  2 12  1  0  0  0
  3  4  1  0  0  0
  4  5  1  0  0  0
  4  9  2  0  0  0
  5  6  1  0  0  0
  5 16  1  0  0  0
  5 17  1  0  0  0
  6  7  1  0  0  0
  6 18  1  0  0  0
  6 19  1  0  0  0
  7  8  1  0  0  0
  8  9  1  0  0  0
  8 20  1  0  0  0
  8 21  1  0  0  0
  9 10  1  0  0  0
 10 11  2  0  0  0
 10 12  1  0  0  0
 12 22  1  0  0  0
M  END
> <s_m_source_file>
../4pnl_ligand.sdf

> <i_m_source_file_index>
1

> <s_epik_input>
W0NIM11jKG4xKVtuSF1jKD1PKWMoYzEyKVtDSDJdU1tDSDJdW0NIMl0y

> <s_epik_cmdline>
J2VwaWtfYXBwJywgJy1pbWFlJywgJ2xpZ2FuZF9wcm8ubWFlJywgJy1vbWFlJywgJ2xpZ2FuZF9wcmVwLm1hZScsICctbXMnLCAnMScsICctcGgnLCAnNycsICctcGh0JywgJzAuNScsICctbnQn

> <r_lp_tautomer_probability>
1

> <r_epik_Ionization_Penalty>
  0.0003

> <r_epik_Ionization_Penalty_Charging>
  0.0002

> <r_epik_Ionization_Penalty_Neutral>
  0.0000

> <r_epik_State_Penalty>
 -0.0000

> <r_epik_Charging_Adjusted_Penalty>
0.000231468199188399

> <i_epik_Tot_Q>
0

> <i_epik_Tot_abs_Q>
0

$$$$
