4pnn_ligand
                    3D
 Schrodinger Suite 2020-3.
 17 18  0  0  1  0            999 V2000
   24.4550   51.2100   -0.1500 C   0  0  0  0  0  0
   25.6920   50.6950    0.4820 C   0  0  0  0  0  0
   23.6250   50.3730   -0.9160 C   0  0  0  0  0  0
   26.0050   49.3370    0.4020 C   0  0  0  0  0  0
   24.4760   46.2610   -0.9410 C   0  0  0  0  0  0
   23.9230   48.9760   -0.9810 C   0  0  0  0  0  0
   25.0820   48.4430   -0.3020 C   0  0  0  0  0  0
   23.0840   47.9590   -1.6840 C   0  0  0  0  0  0
   25.3670   47.0650   -0.3320 N   0  0  0  0  0  0
   23.3530   46.6440   -1.7050 N   0  0  0  0  0  0
   22.0400   48.3930   -2.3640 O   0  0  0  0  0  0
   24.1834   52.2574   -0.0186 H   0  0  0  0  0  0
   26.3583   51.3772    1.0100 H   0  0  0  0  0  0
   22.7684   50.7822   -1.4516 H   0  0  0  0  0  0
   26.9179   48.9494    0.8542 H   0  0  0  0  0  0
   24.6410   45.1891   -0.8314 H   0  0  0  0  0  0
   22.7777   45.8852   -2.2557 H   0  0  0  0  0  0
  1  2  2  0  0  0
  1  3  1  0  0  0
  1 12  1  0  0  0
  2  4  1  0  0  0
  2 13  1  0  0  0
  3  6  2  0  0  0
  3 14  1  0  0  0
  4  7  2  0  0  0
  4 15  1  0  0  0
  5  9  2  0  0  0
  5 10  1  0  0  0
  5 16  1  0  0  0
  6  7  1  0  0  0
  6  8  1  0  0  0
  7  9  1  0  0  0
  8 10  1  0  0  0
  8 11  2  0  0  0
 10 17  1  0  0  0
M  END
> <s_m_source_file>
../4pnn_ligand.sdf

> <i_m_source_file_index>
1

> <s_epik_input>
W2NIXTFbY0hdW2NIXVtjSF1jKGMxMiluW2NIXVtuSF1jMj1P

> <s_epik_cmdline>
J2VwaWtfYXBwJywgJy1pbWFlJywgJ2xpZ2FuZF9wcm8ubWFlJywgJy1vbWFlJywgJ2xpZ2FuZF9wcmVwLm1hZScsICctbXMnLCAnMScsICctcGgnLCAnNycsICctcGh0JywgJzAuNScsICctbnQn

> <r_lp_tautomer_probability>
1

> <r_epik_Ionization_Penalty>
  0.0024

> <r_epik_Ionization_Penalty_Charging>
  0.0024

> <r_epik_Ionization_Penalty_Neutral>
  0.0000

> <r_epik_State_Penalty>
 -0.0000

> <r_epik_Charging_Adjusted_Penalty>
0.00244220815712683

> <i_epik_Tot_Q>
0

> <i_epik_Tot_abs_Q>
0

$$$$
