4pnr_ligand
                    3D
 Schrodinger Suite 2020-3.
 21 23  0  0  1  0            999 V2000
   24.8800   47.9260   -0.3760 C   0  0  0  0  0  0
   23.7760   48.5900   -1.0390 C   0  0  0  0  0  0
   23.5920   49.9940   -0.9320 C   0  0  0  0  0  0
   24.4610   50.7950   -0.1880 C   0  0  0  0  0  0
   25.6630   50.1670    0.4240 C   0  0  0  0  0  0
   25.8320   48.7860    0.2780 C   0  0  0  0  0  0
   25.7010   44.2570   -0.1200 C   0  0  0  0  0  0
   25.8470   45.5430    0.1600 C   0  0  0  0  0  0
   24.8710   46.4580   -0.3820 C   0  0  0  0  0  0
   23.9250   45.7490   -1.1200 C   0  0  0  0  0  0
   22.9610   46.4170   -1.8280 N   0  0  0  0  0  0
   24.2750   44.0050   -1.1300 S   0  0  0  0  0  0
   22.7480   47.7690   -1.7740 C   0  0  0  0  0  0
   21.8780   48.2280   -2.4570 O   0  0  0  0  0  0
   22.7498   50.4590   -1.4444 H   0  0  0  0  0  0
   24.2627   51.8589   -0.0583 H   0  0  0  0  0  0
   26.3913   50.7660    0.9707 H   0  0  0  0  0  0
   26.7376   48.3344    0.6831 H   0  0  0  0  0  0
   26.3670   43.4659    0.2244 H   0  0  0  0  0  0
   26.6731   45.8973    0.7766 H   0  0  0  0  0  0
   22.2889   45.8630   -2.4998 H   0  0  0  0  0  0
  1  2  2  0  0  0
  1  6  1  0  0  0
  1  9  1  0  0  0
  2  3  1  0  0  0
  2 13  1  0  0  0
  3  4  2  0  0  0
  3 15  1  0  0  0
  4  5  1  0  0  0
  4 16  1  0  0  0
  5  6  2  0  0  0
  5 17  1  0  0  0
  6 18  1  0  0  0
  7  8  2  0  0  0
  7 12  1  0  0  0
  7 19  1  0  0  0
  8  9  1  0  0  0
  8 20  1  0  0  0
  9 10  2  0  0  0
 10 11  1  0  0  0
 10 12  1  0  0  0
 11 13  1  0  0  0
 11 21  1  0  0  0
 13 14  2  0  0  0
M  END
> <s_m_source_file>
../4pnr_ligand.sdf

> <i_m_source_file_index>
1

> <s_epik_input>
W2NIXTFbY0hdW2NIXVtjSF1jKGMxMiljKD1PKVtuSF1jM2MyW2NIXVtjSF1zMw==

> <s_epik_cmdline>
J2VwaWtfYXBwJywgJy1pbWFlJywgJ2xpZ2FuZF9wcm8ubWFlJywgJy1vbWFlJywgJ2xpZ2FuZF9wcmVwLm1hZScsICctbXMnLCAnMScsICctcGgnLCAnNycsICctcGh0JywgJzAuNScsICctbnQn

> <r_lp_tautomer_probability>
1

> <r_epik_Ionization_Penalty>
  0.0000

> <r_epik_Ionization_Penalty_Charging>
  0.0000

> <r_epik_Ionization_Penalty_Neutral>
  0.0000

> <r_epik_State_Penalty>
 -0.0000

> <r_epik_Charging_Adjusted_Penalty>
1.77789389456905e-05

> <i_epik_Tot_Q>
0

> <i_epik_Tot_abs_Q>
0

$$$$
