4pnu_ligand
                    3D
 Schrodinger Suite 2020-3.
 53 56  0  0  1  0            999 V2000
   10.9330   -5.1970   -8.9980 C   0  0  0  0  0  0
   11.4650   -6.5630   -8.6380 C   0  0  0  0  0  0
   11.9830   -7.2640   -9.8680 C   0  0  1  0  0  0
   12.7330   -8.5780   -9.4650 C   0  0  0  0  0  0
   13.9170   -8.4360   -9.0840 O   0  0  0  0  0  0
   12.1510   -9.6930   -9.5570 O   0  5  0  0  0  0
   10.8420   -7.5340  -10.8040 C   0  0  0  0  0  0
    9.9290   -6.4350  -10.8300 C   0  0  0  0  0  0
    9.9610   -5.3550  -10.0130 C   0  0  0  0  0  0
    8.9400   -4.5340  -10.3610 C   0  0  0  0  0  0
    8.5110   -3.3480   -9.8650 C   0  0  0  0  0  0
    7.4050   -2.6940  -10.4210 C   0  0  0  0  0  0
    6.7200   -1.0590   -9.7910 Br  0  0  0  0  0  0
    6.7500   -3.2930  -11.4890 C   0  0  0  0  0  0
    7.2150   -4.5120  -11.9630 C   0  0  0  0  0  0
    8.2900   -5.1010  -11.3980 C   0  0  0  0  0  0
    8.8980   -6.2540  -11.6690 N   0  0  0  0  0  0
    8.5020   -7.2000  -12.7510 C   0  0  0  0  0  0
    7.4970   -8.2870  -12.2930 C   0  0  0  0  0  0
    7.2780   -9.2400  -13.0310 O   0  0  0  0  0  0
    6.8650   -8.1570  -11.1090 N   0  0  0  0  0  0
    5.8950   -9.1850  -10.6640 C   0  0  1  0  0  0
    6.2760   -9.7770   -9.2940 C   0  0  0  0  0  0
    7.2400   -9.2760   -8.6760 O   0  5  0  0  0  0
    5.5710  -10.7230   -8.8870 O   0  0  0  0  0  0
    4.4930   -8.5660  -10.5780 C   0  0  0  0  0  0
    4.1850   -8.2070  -11.9050 C   0  0  0  0  0  0
    3.6900   -9.1780  -12.7810 C   0  0  0  0  0  0
    3.3920   -8.8510  -14.1030 C   0  0  0  0  0  0
    3.5820   -7.5480  -14.5600 C   0  0  0  0  0  0
    4.0780   -6.5780  -13.6950 C   0  0  0  0  0  0
    4.3780   -6.9000  -12.3640 C   0  0  0  0  0  0
   10.4796   -4.7341   -8.1091 H   0  0  0  0  0  0
   11.7581   -4.5657   -9.3596 H   0  0  0  0  0  0
   12.2853   -6.4576   -7.9127 H   0  0  0  0  0  0
   10.6585   -7.1654   -8.1944 H   0  0  0  0  0  0
   12.6744   -6.5924  -10.3981 H   0  0  0  0  0  0
   11.2313   -7.6929  -11.8205 H   0  0  0  0  0  0
   10.3016   -8.4334  -10.4736 H   0  0  0  0  0  0
    9.0342   -2.8971   -9.0217 H   0  0  0  0  0  0
    5.8850   -2.8138  -11.9475 H   0  0  0  0  0  0
    6.7084   -4.9970  -12.7974 H   0  0  0  0  0  0
    8.0278   -6.6411  -13.5712 H   0  0  0  0  0  0
    9.3950   -7.7190  -13.1293 H   0  0  0  0  0  0
    7.0717   -7.2839  -10.4727 H   0  0  0  0  0  0
    5.9334   -9.9787  -11.4246 H   0  0  0  0  0  0
    3.7875   -9.3100  -10.1797 H   0  0  0  0  0  0
    4.5186   -7.6913   -9.9114 H   0  0  0  0  0  0
    3.5361  -10.1976  -12.4278 H   0  0  0  0  0  0
    3.0100   -9.6151  -14.7800 H   0  0  0  0  0  0
    3.3428   -7.2900  -15.5916 H   0  0  0  0  0  0
    4.2344   -5.5609  -14.0545 H   0  0  0  0  0  0
    4.7604   -6.1343  -11.6890 H   0  0  0  0  0  0
  1  2  1  0  0  0
  1  9  1  0  0  0
  1 33  1  0  0  0
  1 34  1  0  0  0
  2  3  1  0  0  0
  2 35  1  0  0  0
  2 36  1  0  0  0
  3  4  1  0  0  0
  3  7  1  0  0  0
  3 37  1  0  0  0
  4  5  2  0  0  0
  4  6  1  0  0  0
  7  8  1  0  0  0
  7 38  1  0  0  0
  7 39  1  0  0  0
  8  9  2  0  0  0
  8 17  1  0  0  0
  9 10  1  0  0  0
 10 11  2  0  0  0
 10 16  1  0  0  0
 11 12  1  0  0  0
 11 40  1  0  0  0
 12 13  1  0  0  0
 12 14  2  0  0  0
 14 15  1  0  0  0
 14 41  1  0  0  0
 15 16  2  0  0  0
 15 42  1  0  0  0
 16 17  1  0  0  0
 17 18  1  0  0  0
 18 19  1  0  0  0
 18 43  1  0  0  0
 18 44  1  0  0  0
 19 20  2  0  0  0
 19 21  1  0  0  0
 21 22  1  0  0  0
 21 45  1  0  0  0
 22 23  1  0  0  0
 22 26  1  0  0  0
 22 46  1  0  0  0
 23 24  1  0  0  0
 23 25  2  0  0  0
 26 27  1  0  0  0
 26 47  1  0  0  0
 26 48  1  0  0  0
 27 28  2  0  0  0
 27 32  1  0  0  0
 28 29  1  0  0  0
 28 49  1  0  0  0
 29 30  2  0  0  0
 29 50  1  0  0  0
 30 31  1  0  0  0
 30 51  1  0  0  0
 31 32  2  0  0  0
 31 52  1  0  0  0
 32 53  1  0  0  0
M  CHG  2   6  -1  24  -1
M  END
> <s_m_source_file>
../4pnu_ligand.sdf

> <i_m_source_file_index>
1

> <s_epik_input>
Tz1DKFtPSF0pW0NAQEhdKFtDSDJdMSlbQ0gyXVtDSDJdYyhjMTIpYzNjKFtjSF1bY0hdYyhCcilbY0hdMyluMltDSDJdQyg9TylbTkhdW0NAQEhdKEMoPU8pW09IXSlbQ0gyXWM0W2NIXVtjSF1bY0hdW2NIXVtjSF00

> <s_epik_cmdline>
J2VwaWtfYXBwJywgJy1pbWFlJywgJ2xpZ2FuZF9wcm8ubWFlJywgJy1vbWFlJywgJ2xpZ2FuZF9wcmVwLm1hZScsICctbXMnLCAnMScsICctcGgnLCAnNycsICctcGh0JywgJzAuNScsICctbnQn

> <r_lp_tautomer_probability>
1

> <r_epik_Ionization_Penalty>
  0.0015

> <r_epik_Ionization_Penalty_Charging>
  0.0015

> <r_epik_Ionization_Penalty_Neutral>
  0.0000

> <r_epik_State_Penalty>
 -0.0000

> <r_epik_Charging_Adjusted_Penalty>
0.00147386810291992

> <i_epik_Tot_Q>
-2

> <i_epik_Tot_abs_Q>
2

$$$$
