4pnw_ligand
                    3D
 Schrodinger Suite 2020-3.
 53 56  0  0  1  0            999 V2000
   39.7770   11.9910   45.6490 C   0  0  0  0  0  0
   40.2510   13.3390   45.0850 C   0  0  0  0  0  0
   40.9220   14.0980   46.2220 C   0  0  1  0  0  0
   41.7640   15.2710   45.6620 C   0  0  0  0  0  0
   42.6790   14.9790   44.8560 O   0  5  0  0  0  0
   41.5100   16.4280   46.0670 O   0  0  0  0  0  0
   39.8440   14.5660   47.1600 C   0  0  0  0  0  0
   38.9690   13.4810   47.4490 C   0  0  0  0  0  0
   38.9230   12.3030   46.7580 C   0  0  0  0  0  0
   37.9710   11.5390   47.3230 C   0  0  0  0  0  0
   37.5370   10.2980   47.0280 C   0  0  0  0  0  0
   36.5160    9.7060   47.7680 C   0  0  0  0  0  0
   35.8170    7.9630   47.4370 Br  0  0  0  0  0  0
   35.9790   10.4270   48.8160 C   0  0  0  0  0  0
   36.4540   11.6970   49.0920 C   0  0  0  0  0  0
   37.4330   12.2280   48.3430 C   0  0  0  0  0  0
   38.0350   13.4170   48.4170 N   0  0  0  0  0  0
   37.6960   14.4810   49.4580 C   0  0  0  0  0  0
   36.9450   15.6790   48.8380 C   0  0  0  0  0  0
   37.1710   16.8200   49.2230 O   0  0  0  0  0  0
   36.0380   15.3900   47.8960 N   0  0  0  0  0  0
   35.2490   16.4140   47.1580 C   0  0  2  0  0  0
   33.9310   16.6400   47.8850 C   0  0  0  0  0  0
   33.2750   15.6290   48.2090 O   0  5  0  0  0  0
   33.6270   17.8230   48.1230 O   0  0  0  0  0  0
   35.0380   15.8210   45.7870 C   0  0  0  0  0  0
   35.9380   16.1820   44.7770 C   0  0  0  0  0  0
   37.2490   16.5760   45.0790 C   0  0  0  0  0  0
   38.1570   16.8640   44.0680 C   0  0  0  0  0  0
   37.7650   16.7300   42.7440 C   0  0  0  0  0  0
   36.4740   16.3100   42.4330 C   0  0  0  0  0  0
   35.5650   16.0210   43.4470 C   0  0  0  0  0  0
   39.2302   11.4395   44.8700 H   0  0  0  0  0  0
   40.6480   11.4021   45.9723 H   0  0  0  0  0  0
   40.9638   13.1634   44.2658 H   0  0  0  0  0  0
   39.3860   13.9017   44.7041 H   0  0  0  0  0  0
   41.5982   13.4404   46.7879 H   0  0  0  0  0  0
   40.3013   14.9289   48.0923 H   0  0  0  0  0  0
   39.2763   15.3816   46.6884 H   0  0  0  0  0  0
   37.9899    9.7511   46.2010 H   0  0  0  0  0  0
   35.1832    9.9970   49.4242 H   0  0  0  0  0  0
   36.0322   12.2674   49.9195 H   0  0  0  0  0  0
   37.0563   14.0409   50.2372 H   0  0  0  0  0  0
   38.6239   14.8564   49.9142 H   0  0  0  0  0  0
   35.8919   14.3216   47.6790 H   0  0  0  0  0  0
   35.7647   17.3834   47.0925 H   0  0  0  0  0  0
   35.0975   14.7243   45.8487 H   0  0  0  0  0  0
   34.0472   16.1137   45.4094 H   0  0  0  0  0  0
   37.5599   16.6574   46.1206 H   0  0  0  0  0  0
   39.1673   17.1920   44.3125 H   0  0  0  0  0  0
   38.4703   16.9543   41.9438 H   0  0  0  0  0  0
   36.1738   16.2070   41.3902 H   0  0  0  0  0  0
   34.5635   15.6694   43.1991 H   0  0  0  0  0  0
  1  2  1  0  0  0
  1  9  1  0  0  0
  1 33  1  0  0  0
  1 34  1  0  0  0
  2  3  1  0  0  0
  2 35  1  0  0  0
  2 36  1  0  0  0
  3  4  1  0  0  0
  3  7  1  0  0  0
  3 37  1  0  0  0
  4  5  1  0  0  0
  4  6  2  0  0  0
  7  8  1  0  0  0
  7 38  1  0  0  0
  7 39  1  0  0  0
  8  9  2  0  0  0
  8 17  1  0  0  0
  9 10  1  0  0  0
 10 11  2  0  0  0
 10 16  1  0  0  0
 11 12  1  0  0  0
 11 40  1  0  0  0
 12 13  1  0  0  0
 12 14  2  0  0  0
 14 15  1  0  0  0
 14 41  1  0  0  0
 15 16  2  0  0  0
 15 42  1  0  0  0
 16 17  1  0  0  0
 17 18  1  0  0  0
 18 19  1  0  0  0
 18 43  1  0  0  0
 18 44  1  0  0  0
 19 20  2  0  0  0
 19 21  1  0  0  0
 21 22  1  0  0  0
 21 45  1  0  0  0
 22 23  1  0  0  0
 22 26  1  0  0  0
 22 46  1  0  0  0
 23 24  1  0  0  0
 23 25  2  0  0  0
 26 27  1  0  0  0
 26 47  1  0  0  0
 26 48  1  0  0  0
 27 28  2  0  0  0
 27 32  1  0  0  0
 28 29  1  0  0  0
 28 49  1  0  0  0
 29 30  2  0  0  0
 29 50  1  0  0  0
 30 31  1  0  0  0
 30 51  1  0  0  0
 31 32  2  0  0  0
 31 52  1  0  0  0
 32 53  1  0  0  0
M  CHG  2   5  -1  24  -1
M  END
> <s_m_source_file>
../4pnw_ligand.sdf

> <i_m_source_file_index>
1

> <s_epik_input>
W09IXUMoPU8pW0NAQEhdKFtDSDJdMSlbQ0gyXVtDSDJdYyhjMTIpYzNjKFtjSF1bY0hdYyhCcilbY0hdMyluMltDSDJdQyg9TylbTkhdW0NASF0oQyg9TylbT0hdKVtDSDJdYzRbY0hdW2NIXVtjSF1bY0hdW2NIXTQ=

> <s_epik_cmdline>
J2VwaWtfYXBwJywgJy1pbWFlJywgJ2xpZ2FuZF9wcm8ubWFlJywgJy1vbWFlJywgJ2xpZ2FuZF9wcmVwLm1hZScsICctbXMnLCAnMScsICctcGgnLCAnNycsICctcGh0JywgJzAuNScsICctbnQn

> <r_lp_tautomer_probability>
1

> <r_epik_Ionization_Penalty>
  0.0015

> <r_epik_Ionization_Penalty_Charging>
  0.0015

> <r_epik_Ionization_Penalty_Neutral>
  0.0000

> <r_epik_State_Penalty>
 -0.0000

> <r_epik_Charging_Adjusted_Penalty>
0.00147386810291992

> <i_epik_Tot_Q>
-2

> <i_epik_Tot_abs_Q>
2

$$$$
