4po0_ligand
                    3D
 Schrodinger Suite 2020-3.
 30 31  0  0  1  0            999 V2000
   61.6280   26.6520   51.0440 C   0  0  0  0  0  0
   62.9660   26.2820   51.3310 O   0  0  0  0  0  0
   60.8690   25.9210   50.0920 C   0  0  0  0  0  0
   55.6450   29.2330   50.7720 C   0  0  2  0  0  0
   59.5240   26.2780   49.8410 C   0  0  0  0  0  0
   58.9520   27.3840   50.5380 C   0  0  0  0  0  0
   59.7120   28.0870   51.4520 C   0  0  0  0  0  0
   61.0560   27.7170   51.7160 C   0  0  0  0  0  0
   57.6120   27.7810   50.2790 C   0  0  0  0  0  0
   57.0800   28.8570   50.9530 C   0  0  0  0  0  0
   54.8050   28.0450   50.7340 C   0  0  0  0  0  0
   59.1760   29.1480   52.1090 C   0  0  0  0  0  0
   57.8480   29.5290   51.8760 C   0  0  0  0  0  0
   63.3600   24.9320   51.1660 C   0  0  0  0  0  0
   56.3660   30.1440   48.6510 O   0  0  0  0  0  0
   54.3590   30.7350   49.3900 O   0  5  0  0  0  0
   55.4480   30.0690   49.5280 C   0  0  0  0  0  0
   61.3221   25.0869   49.5562 H   0  0  0  0  0  0
   55.3274   29.8139   51.6505 H   0  0  0  0  0  0
   58.9299   25.7138   49.1221 H   0  0  0  0  0  0
   61.6390   28.2733   52.4500 H   0  0  0  0  0  0
   57.0096   27.2370   49.5515 H   0  0  0  0  0  0
   54.9650   27.4534   51.6475 H   0  0  0  0  0  0
   55.0667   27.4389   49.8541 H   0  0  0  0  0  0
   53.7485   28.3448   50.6717 H   0  0  0  0  0  0
   59.7827   29.7065   52.8219 H   0  0  0  0  0  0
   57.4199   30.3643   52.4302 H   0  0  0  0  0  0
   64.4221   24.8250   51.4314 H   0  0  0  0  0  0
   63.2119   24.6323   50.1180 H   0  0  0  0  0  0
   62.7521   24.2900   51.8204 H   0  0  0  0  0  0
  1  2  1  0  0  0
  1  3  2  0  0  0
  1  8  1  0  0  0
  2 14  1  0  0  0
  3  5  1  0  0  0
  3 18  1  0  0  0
  4 10  1  0  0  0
  4 11  1  0  0  0
  4 17  1  0  0  0
  4 19  1  0  0  0
  5  6  2  0  0  0
  5 20  1  0  0  0
  6  7  1  0  0  0
  6  9  1  0  0  0
  7  8  2  0  0  0
  7 12  1  0  0  0
  8 21  1  0  0  0
  9 10  2  0  0  0
  9 22  1  0  0  0
 10 13  1  0  0  0
 11 23  1  0  0  0
 11 24  1  0  0  0
 11 25  1  0  0  0
 12 13  2  0  0  0
 12 26  1  0  0  0
 13 27  1  0  0  0
 14 28  1  0  0  0
 14 29  1  0  0  0
 14 30  1  0  0  0
 15 17  2  0  0  0
 16 17  1  0  0  0
M  CHG  1  16  -1
M  END
> <s_m_source_file>
../4po0_ligand.sdf

> <i_m_source_file_index>
1

> <s_epik_input>
W2NIXTFbY0hdYyhPW0NIM10pW2NIXWMoYzEyKVtjSF1bY0hdYyhbY0hdMilbQ0BIXShbQ0gzXSlDKD1PKVtPSF0=

> <s_epik_cmdline>
J2VwaWtfYXBwJywgJy1pbWFlJywgJ2xpZ2FuZF9wcm8ubWFlJywgJy1vbWFlJywgJ2xpZ2FuZF9wcmVwLm1hZScsICctbXMnLCAnMScsICctcGgnLCAnNycsICctcGh0JywgJzAuNScsICctbnQn

> <r_lp_tautomer_probability>
1

> <r_epik_Ionization_Penalty>
  0.0013

> <r_epik_Ionization_Penalty_Charging>
  0.0013

> <r_epik_Ionization_Penalty_Neutral>
  0.0000

> <r_epik_State_Penalty>
 -0.0000

> <r_epik_Charging_Adjusted_Penalty>
0.00132655585401113

> <i_epik_Tot_Q>
-1

> <i_epik_Tot_abs_Q>
1

$$$$
