4po7_ligand
                    3D
 Schrodinger Suite 2020-3.
162164  0  0  1  0            999 V2000
  -28.8340   -7.3890   41.0390 N   0  0  0  0  0  0
  -28.6840   -6.5540   39.8500 C   0  0  1  0  0  0
  -29.9560   -5.7490   39.5990 C   0  0  0  0  0  0
  -30.7830   -5.8360   40.8690 C   0  0  0  0  0  0
  -30.0930   -6.9330   41.6340 C   0  0  0  0  0  0
  -30.5740   -7.4020   42.6660 O   0  0  0  0  0  0
  -27.5230   -5.5790   39.9860 C   0  0  0  0  0  0
  -27.4340   -4.8490   40.9740 O   0  0  0  0  0  0
  -26.6330   -5.5700   38.9990 N   0  0  0  0  0  0
  -25.5400   -4.6070   38.9780 C   0  0  2  0  0  0
  -25.4580   -3.8800   37.6420 C   0  0  0  0  0  0
  -26.0320   -4.3210   36.6510 O   0  0  0  0  0  0
  -24.2030   -5.2860   39.2890 C   0  0  0  0  0  0
  -23.8710   -6.7040   38.8140 C   0  0  0  0  0  0
  -24.1270   -6.9190   37.3290 C   0  0  0  0  0  0
  -22.4160   -6.9880   39.1380 C   0  0  0  0  0  0
  -24.7380   -2.7640   37.6290 N   0  0  0  0  0  0
  -24.5280   -1.9920   36.4100 C   0  0  2  0  0  0
  -23.0390   -1.8500   36.1040 C   0  0  0  0  0  0
  -22.3890   -0.9180   36.5760 O   0  0  0  0  0  0
  -25.1570   -0.6000   36.5290 C   0  0  0  0  0  0
  -26.6560   -0.5860   36.7310 C   0  0  0  0  0  0
  -27.4740   -1.5120   36.0950 C   0  0  0  0  0  0
  -27.2540    0.3600   37.5560 C   0  0  0  0  0  0
  -28.8480   -1.4950   36.2750 C   0  0  0  0  0  0
  -28.6250    0.3830   37.7450 C   0  0  0  0  0  0
  -29.4170   -0.5470   37.1020 C   0  0  0  0  0  0
  -30.7810   -0.5270   37.2880 O   0  0  0  0  0  0
  -22.4940   -2.7720   35.3190 N   0  0  0  0  0  0
  -21.1010   -2.6620   34.9030 C   0  0  2  0  0  0
  -20.9720   -1.5750   33.8330 C   0  0  0  0  0  0
  -21.1670   -1.8340   32.6430 O   0  0  0  0  0  0
  -20.5850   -4.0100   34.3970 C   0  0  0  0  0  0
  -20.5100   -5.0670   35.4910 C   0  0  0  0  0  0
  -20.7290   -6.4770   34.9750 C   0  0  0  0  0  0
  -20.7340   -6.6690   33.7410 O   0  0  0  0  0  0
  -20.9050   -7.3930   35.8090 O   0  0  0  0  0  0
  -20.6510   -0.3600   34.2810 N   0  0  0  0  0  0
  -20.6050    0.8290   33.4270 C   0  0  2  0  0  0
  -21.8630    0.9940   32.5780 C   0  0  0  0  0  0
  -21.7890    1.0820   31.3530 O   0  0  0  0  0  0
  -19.3700    0.8010   32.5220 C   0  0  0  0  0  0
  -18.0850    1.1020   33.2740 C   0  0  0  0  0  0
  -17.3520    0.1910   33.6630 O   0  0  0  0  0  0
  -17.8040    2.3860   33.4820 N   0  0  0  0  0  0
  -26.7100    3.6400   19.0660 N   0  3  0  0  0  0
  -26.9390    4.3430   17.8010 C   0  0  2  0  0  0
  -27.5880    5.7160   17.9790 C   0  0  0  0  0  0
  -28.5780    5.8440   18.7010 O   0  0  0  0  0  0
  -27.8740    3.3930   17.0500 C   0  0  0  0  0  0
  -27.4760    2.0470   17.5300 C   0  0  0  0  0  0
  -27.1140    2.2250   18.9850 C   0  0  0  0  0  0
  -27.0170    6.7280   17.3300 N   0  0  0  0  0  0
  -27.5980    8.0660   17.3090 C   0  0  2  0  0  0
  -28.9260    8.0630   16.5730 C   0  0  0  0  0  0
  -29.0430    7.4780   15.4960 O   0  0  0  0  0  0
  -26.6530    9.0640   16.6380 C   0  0  0  0  0  0
  -25.7050    9.7660   17.5770 C   0  0  0  0  0  0
  -26.0690   10.0440   18.8860 C   0  0  0  0  0  0
  -24.4430   10.1590   17.1480 C   0  0  0  0  0  0
  -25.1970   10.6930   19.7450 C   0  0  0  0  0  0
  -23.5650   10.8070   17.9970 C   0  0  0  0  0  0
  -23.9450   11.0720   19.2930 C   0  0  0  0  0  0
  -23.0670   11.7160   20.1380 O   0  0  0  0  0  0
  -29.9190    8.7270   17.1530 N   0  0  0  0  0  0
  -31.2240    8.8590   16.5260 C   0  0  2  0  0  0
  -31.4080   10.2740   15.9940 C   0  0  0  0  0  0
  -31.1870   11.2510   16.7110 O   0  0  0  0  0  0
  -32.3580    8.5200   17.5100 C   0  0  2  0  0  0
  -32.1680    7.1100   18.0650 C   0  0  0  0  0  0
  -33.7140    8.6360   16.8380 C   0  0  0  0  0  0
  -32.2320    6.0310   17.0170 C   0  0  0  0  0  0
  -31.8020   10.3690   14.7290 N   0  0  0  0  0  0
  -32.0360   11.6500   14.0720 C   0  0  2  0  0  0
  -33.4580   11.7580   13.5340 C   0  0  0  0  0  0
  -33.9320   12.8510   13.2230 O   0  0  0  0  0  0
  -31.0430   11.8490   12.9280 C   0  0  0  0  0  0
  -29.5800   11.8570   13.3460 C   0  0  0  0  0  0
  -28.7180   12.2270   12.1730 C   0  0  0  0  0  0
  -29.3940   12.8380   14.4780 C   0  0  0  0  0  0
  -34.1570   10.7560   13.3840 O   0  0  0  0  0  0
  -28.0714   -8.1440   41.2806 H   0  0  0  0  0  0
  -28.4866   -7.2688   39.0376 H   0  0  0  0  0  0
  -29.6911   -4.7052   39.3746 H   0  0  0  0  0  0
  -30.5007   -6.1805   38.7463 H   0  0  0  0  0  0
  -30.7549   -4.8686   41.3918 H   0  0  0  0  0  0
  -31.8236   -6.0841   40.6127 H   0  0  0  0  0  0
  -26.7324   -6.3069   38.1884 H   0  0  0  0  0  0
  -25.7967   -3.8865   39.7686 H   0  0  0  0  0  0
  -23.3817   -4.6909   38.8631 H   0  0  0  0  0  0
  -24.0745   -5.3609   40.3789 H   0  0  0  0  0  0
  -24.5344   -7.4072   39.3389 H   0  0  0  0  0  0
  -25.1836   -6.7106   37.1052 H   0  0  0  0  0  0
  -23.8946   -7.9610   37.0640 H   0  0  0  0  0  0
  -23.4877   -6.2407   36.7448 H   0  0  0  0  0  0
  -22.2420   -6.8298   40.2126 H   0  0  0  0  0  0
  -21.7722   -6.3099   38.5585 H   0  0  0  0  0  0
  -22.1791   -8.0302   38.8777 H   0  0  0  0  0  0
  -24.2937   -2.4267   38.5771 H   0  0  0  0  0  0
  -25.0252   -2.5748   35.6206 H   0  0  0  0  0  0
  -24.7201   -0.0726   37.3898 H   0  0  0  0  0  0
  -24.9595   -0.0286   35.6101 H   0  0  0  0  0  0
  -27.0277   -2.2638   35.4441 H   0  0  0  0  0  0
  -26.6317    1.0972   38.0633 H   0  0  0  0  0  0
  -29.4762   -2.2262   35.7663 H   0  0  0  0  0  0
  -29.0763    1.1306   38.3973 H   0  0  0  0  0  0
  -31.4165   -1.2659   36.7779 H   0  0  0  0  0  0
  -23.1029   -3.6241   34.9824 H   0  0  0  0  0  0
  -20.5253   -2.3765   35.7958 H   0  0  0  0  0  0
  -21.2565   -4.3885   33.6122 H   0  0  0  0  0  0
  -19.5732   -3.8838   33.9843 H   0  0  0  0  0  0
  -19.5169   -5.0363   35.9631 H   0  0  0  0  0  0
  -21.2823   -4.8664   36.2482 H   0  0  0  0  0  0
  -21.0664   -8.4256   35.4660 H   0  0  0  0  0  0
  -20.4134   -0.2776   35.3519 H   0  0  0  0  0  0
  -20.5502    1.6638   34.1412 H   0  0  0  0  0  0
  -22.8440    1.0339   33.0740 H   0  0  0  0  0  0
  -19.2696   -0.1966   32.0694 H   0  0  0  0  0  0
  -19.4800    1.5544   31.7281 H   0  0  0  0  0  0
  -18.4888    3.1652   33.1160 H   0  0  0  0  0  0
  -16.8869    2.6682   34.0199 H   0  0  0  0  0  0
  -25.6404    3.6803   19.3195 H   0  0  0  0  0  0
  -27.2943    4.1214   19.8640 H   0  0  0  0  0  0
  -25.9755    4.5421   17.3090 H   0  0  0  0  0  0
  -28.9180    3.6314   17.3013 H   0  0  0  0  0  0
  -27.7220    3.5091   15.9668 H   0  0  0  0  0  0
  -28.3188    1.3506   17.4091 H   0  0  0  0  0  0
  -26.6169    1.6881   16.9443 H   0  0  0  0  0  0
  -26.2723    1.5854   19.2891 H   0  0  0  0  0  0
  -27.9689    2.0488   19.6545 H   0  0  0  0  0  0
  -26.0754    6.5288   16.7973 H   0  0  0  0  0  0
  -27.7491    8.3277   18.3667 H   0  0  0  0  0  0
  -26.0336    8.5400   15.8952 H   0  0  0  0  0  0
  -27.2417    9.8470   16.1377 H   0  0  0  0  0  0
  -27.0550    9.7477   19.2440 H   0  0  0  0  0  0
  -24.1393    9.9523   16.1218 H   0  0  0  0  0  0
  -25.4956   10.9041   20.7718 H   0  0  0  0  0  0
  -22.5786   11.1059   17.6424 H   0  0  0  0  0  0
  -23.3610   11.9325   21.1756 H   0  0  0  0  0  0
  -29.7323    9.1843   18.1359 H   0  0  0  0  0  0
  -31.2140    8.1347   15.6982 H   0  0  0  0  0  0
  -32.3339    9.2406   18.3408 H   0  0  0  0  0  0
  -31.1833    7.0364   18.5498 H   0  0  0  0  0  0
  -32.9563    6.8967   18.8019 H   0  0  0  0  0  0
  -33.8410    9.6543   16.4419 H   0  0  0  0  0  0
  -34.5061    8.4266   17.5720 H   0  0  0  0  0  0
  -33.7776    7.9111   16.0131 H   0  0  0  0  0  0
  -32.0871    5.0495   17.4920 H   0  0  0  0  0  0
  -31.4413    6.1975   16.2706 H   0  0  0  0  0  0
  -33.2143    6.0578   16.5227 H   0  0  0  0  0  0
  -31.9514    9.4310   14.1743 H   0  0  0  0  0  0
  -31.8857   12.4006   14.8619 H   0  0  0  0  0  0
  -34.9597   12.9148   12.8360 H   0  0  0  0  0  0
  -31.1588   11.0358   12.1963 H   0  0  0  0  0  0
  -31.2374   12.8141   12.4374 H   0  0  0  0  0  0
  -29.2713   10.8579   13.6874 H   0  0  0  0  0  0
  -28.8702   11.4994   11.3622 H   0  0  0  0  0  0
  -27.6612   12.2203   12.4781 H   0  0  0  0  0  0
  -28.9914   13.2322   11.8197 H   0  0  0  0  0  0
  -30.0340   12.5472   15.3241 H   0  0  0  0  0  0
  -29.6713   13.8468   14.1382 H   0  0  0  0  0  0
  -28.3411   12.8349   14.7966 H   0  0  0  0  0  0
  1  2  1  0  0  0
  1  5  1  0  0  0
  1 82  1  0  0  0
  2  3  1  0  0  0
  2  7  1  0  0  0
  2 83  1  0  0  0
  3  4  1  0  0  0
  3 84  1  0  0  0
  3 85  1  0  0  0
  4  5  1  0  0  0
  4 86  1  0  0  0
  4 87  1  0  0  0
  5  6  2  0  0  0
  7  8  2  0  0  0
  7  9  1  0  0  0
  9 10  1  0  0  0
  9 88  1  0  0  0
 10 11  1  0  0  0
 10 13  1  0  0  0
 10 89  1  0  0  0
 11 12  2  0  0  0
 11 17  1  0  0  0
 13 14  1  0  0  0
 13 90  1  0  0  0
 13 91  1  0  0  0
 14 15  1  0  0  0
 14 16  1  0  0  0
 14 92  1  0  0  0
 15 93  1  0  0  0
 15 94  1  0  0  0
 15 95  1  0  0  0
 16 96  1  0  0  0
 16 97  1  0  0  0
 16 98  1  0  0  0
 17 18  1  0  0  0
 17 99  1  0  0  0
 18 19  1  0  0  0
 18 21  1  0  0  0
 18100  1  0  0  0
 19 20  2  0  0  0
 19 29  1  0  0  0
 21 22  1  0  0  0
 21101  1  0  0  0
 21102  1  0  0  0
 22 23  2  0  0  0
 22 24  1  0  0  0
 23 25  1  0  0  0
 23103  1  0  0  0
 24 26  2  0  0  0
 24104  1  0  0  0
 25 27  2  0  0  0
 25105  1  0  0  0
 26 27  1  0  0  0
 26106  1  0  0  0
 27 28  1  0  0  0
 28107  1  0  0  0
 29 30  1  0  0  0
 29108  1  0  0  0
 30 31  1  0  0  0
 30 33  1  0  0  0
 30109  1  0  0  0
 31 32  2  0  0  0
 31 38  1  0  0  0
 33 34  1  0  0  0
 33110  1  0  0  0
 33111  1  0  0  0
 34 35  1  0  0  0
 34112  1  0  0  0
 34113  1  0  0  0
 35 36  2  0  0  0
 35 37  1  0  0  0
 37114  1  0  0  0
 38 39  1  0  0  0
 38115  1  0  0  0
 39 40  1  0  0  0
 39 42  1  0  0  0
 39116  1  0  0  0
 40 41  2  0  0  0
 40117  1  0  0  0
 42 43  1  0  0  0
 42118  1  0  0  0
 42119  1  0  0  0
 43 44  2  0  0  0
 43 45  1  0  0  0
 45120  1  0  0  0
 45121  1  0  0  0
 46 47  1  0  0  0
 46 52  1  0  0  0
 46122  1  0  0  0
 46123  1  0  0  0
 47 48  1  0  0  0
 47 50  1  0  0  0
 47124  1  0  0  0
 48 49  2  0  0  0
 48 53  1  0  0  0
 50 51  1  0  0  0
 50125  1  0  0  0
 50126  1  0  0  0
 51 52  1  0  0  0
 51127  1  0  0  0
 51128  1  0  0  0
 52129  1  0  0  0
 52130  1  0  0  0
 53 54  1  0  0  0
 53131  1  0  0  0
 54 55  1  0  0  0
 54 57  1  0  0  0
 54132  1  0  0  0
 55 56  2  0  0  0
 55 65  1  0  0  0
 57 58  1  0  0  0
 57133  1  0  0  0
 57134  1  0  0  0
 58 59  2  0  0  0
 58 60  1  0  0  0
 59 61  1  0  0  0
 59135  1  0  0  0
 60 62  2  0  0  0
 60136  1  0  0  0
 61 63  2  0  0  0
 61137  1  0  0  0
 62 63  1  0  0  0
 62138  1  0  0  0
 63 64  1  0  0  0
 64139  1  0  0  0
 65 66  1  0  0  0
 65140  1  0  0  0
 66 67  1  0  0  0
 66 69  1  0  0  0
 66141  1  0  0  0
 67 68  2  0  0  0
 67 73  1  0  0  0
 69 70  1  0  0  0
 69 71  1  0  0  0
 69142  1  0  0  0
 70 72  1  0  0  0
 70143  1  0  0  0
 70144  1  0  0  0
 71145  1  0  0  0
 71146  1  0  0  0
 71147  1  0  0  0
 72148  1  0  0  0
 72149  1  0  0  0
 72150  1  0  0  0
 73 74  1  0  0  0
 73151  1  0  0  0
 74 75  1  0  0  0
 74 77  1  0  0  0
 74152  1  0  0  0
 75 76  1  0  0  0
 75 81  2  0  0  0
 76153  1  0  0  0
 77 78  1  0  0  0
 77154  1  0  0  0
 77155  1  0  0  0
 78 79  1  0  0  0
 78 80  1  0  0  0
 78156  1  0  0  0
 79157  1  0  0  0
 79158  1  0  0  0
 79159  1  0  0  0
 80160  1  0  0  0
 80161  1  0  0  0
 80162  1  0  0  0
M  CHG  1  46   1
M  END
> <s_m_source_file>
../4po7_ligand.sdf

> <i_m_source_file_index>
1

> <s_epik_input>
W0NIMl0xW0NIMl1DKD1PKVtOSF1bQ0BASF0xQyg9TylbTkhdW0NAQEhdKFtDSDJdW0NIXShbQ0gzXSlbQ0gzXSlDKD1PKVtOSF1bQ0BASF0oW0NIMl1jMltjSF1bY0hdYyhbT0hdKVtjSF1bY0hdMilDKD1PKVtOSF1bQ0BASF0oW0NIMl1bQ0gyXUMoPU8pW09IXSlDKD1PKVtOSF1bQ0BIXShbQ0hdPU8pW0NIMl1DKD1PKVtOSDJdLltDSDJdM1tDSDJdW0NIMl1bTkgyK11bQ0BASF0zQyg9TylbTkhdW0NAQEhdKFtDSDJdYzRbY0hdW2NIXWMoW09IXSlbY0hdW2NIXTQpQyg9TylbTkhdW0NAQEhdKFtDQEBIXShbQ0gzXSlbQ0gyXVtDSDNdKUMoPU8pW05IXVtDQEhdKEMoPU8pW09IXSlbQ0gyXVtDSF0oW0NIM10pW0NIM10=

> <s_epik_cmdline>
J2VwaWtfYXBwJywgJy1pbWFlJywgJ2xpZ2FuZF9wcm8ubWFlJywgJy1vbWFlJywgJ2xpZ2FuZF9wcmVwLm1hZScsICctbXMnLCAnMScsICctcGgnLCAnNycsICctcGh0JywgJzAuNScsICctbnQn

> <s_epik_pKa_notes>
Molecule size exceeds maximum supported for generating protonation states

$$$$
