4poh_ligand
                    3D
 Schrodinger Suite 2020-3.
 46 47  0  0  1  0            999 V2000
   65.6000   46.0890   28.9640 C   0  0  0  0  0  0
   66.9550   45.4080   29.1700 C   0  0  0  0  0  0
   67.8950   46.1100   30.1570 C   0  0  0  0  0  0
   67.1700   46.6420   31.3990 C   0  0  0  0  0  0
   67.7870   46.5470   32.6400 C   0  0  0  0  0  0
   67.1260   46.9830   33.7910 C   0  0  0  0  0  0
   65.8360   47.4840   33.7070 C   0  0  0  0  0  0
   65.2070   47.5990   32.4650 C   0  0  0  0  0  0
   63.8130   48.1940   32.3730 C   0  0  0  0  0  0
   65.8890   47.1820   31.3150 C   0  0  0  0  0  0
   65.3380   47.2280   29.9690 C   0  0  0  0  0  0
   64.6650   48.3600   29.5330 C   0  0  0  0  0  0
   64.2350   48.4540   28.1290 C   0  0  0  0  0  0
   65.2830   48.7870   27.0660 C   0  0  0  0  0  0
   62.9200   48.2230   27.7460 C   0  0  0  0  0  0
   61.8280   47.8780   28.6690 C   0  0  0  0  0  0
   60.7480   47.1270   28.2220 C   0  0  0  0  0  0
   59.6290   46.7840   29.1080 C   0  0  0  0  0  0
   59.8870   46.1360   30.4670 C   0  0  0  0  0  0
   58.3370   47.0700   28.6540 C   0  0  0  0  0  0
   57.1000   46.8220   29.3910 C   0  0  0  0  0  0
   56.1350   47.5820   29.1520 O   0  0  0  0  0  0
   57.0580   45.8910   30.2320 O   0  5  0  0  0  0
   65.5561   46.5197   27.9528 H   0  0  0  0  0  0
   64.7955   45.3482   29.0822 H   0  0  0  0  0  0
   66.7988   44.3900   29.5565 H   0  0  0  0  0  0
   67.4898   45.3577   28.2101 H   0  0  0  0  0  0
   68.6648   45.4017   30.4971 H   0  0  0  0  0  0
   68.3771   46.9646   29.6597 H   0  0  0  0  0  0
   68.7914   46.1304   32.7161 H   0  0  0  0  0  0
   67.6260   46.9291   34.7580 H   0  0  0  0  0  0
   65.3112   47.7889   34.6124 H   0  0  0  0  0  0
   63.4581   48.4542   33.3812 H   0  0  0  0  0  0
   63.1298   47.4593   31.9220 H   0  0  0  0  0  0
   63.8413   49.0996   31.7492 H   0  0  0  0  0  0
   64.4559   49.1803   30.2355 H   0  0  0  0  0  0
   66.2600   48.9371   27.5487 H   0  0  0  0  0  0
   64.9900   49.7062   26.5376 H   0  0  0  0  0  0
   65.3527   47.9572   26.3472 H   0  0  0  0  0  0
   62.6354   48.2936   26.6858 H   0  0  0  0  0  0
   61.8676   48.2159   29.7151 H   0  0  0  0  0  0
   60.7171   46.7738   27.1807 H   0  0  0  0  0  0
   60.9697   46.0062   30.6117 H   0  0  0  0  0  0
   59.3917   45.1546   30.5052 H   0  0  0  0  0  0
   59.4854   46.7806   31.2627 H   0  0  0  0  0  0
   58.1901   47.5215   27.6617 H   0  0  0  0  0  0
  1  2  1  0  0  0
  1 11  1  0  0  0
  1 24  1  0  0  0
  1 25  1  0  0  0
  2  3  1  0  0  0
  2 26  1  0  0  0
  2 27  1  0  0  0
  3  4  1  0  0  0
  3 28  1  0  0  0
  3 29  1  0  0  0
  4  5  2  0  0  0
  4 10  1  0  0  0
  5  6  1  0  0  0
  5 30  1  0  0  0
  6  7  2  0  0  0
  6 31  1  0  0  0
  7  8  1  0  0  0
  7 32  1  0  0  0
  8  9  1  0  0  0
  8 10  2  0  0  0
  9 33  1  0  0  0
  9 34  1  0  0  0
  9 35  1  0  0  0
 10 11  1  0  0  0
 11 12  2  0  0  0
 12 13  1  0  0  0
 12 36  1  0  0  0
 13 14  1  0  0  0
 13 15  2  0  0  0
 14 37  1  0  0  0
 14 38  1  0  0  0
 14 39  1  0  0  0
 15 16  1  0  0  0
 15 40  1  0  0  0
 16 17  2  0  0  0
 16 41  1  0  0  0
 17 18  1  0  0  0
 17 42  1  0  0  0
 18 19  1  0  0  0
 18 20  2  0  0  0
 19 43  1  0  0  0
 19 44  1  0  0  0
 19 45  1  0  0  0
 20 21  1  0  0  0
 20 46  1  0  0  0
 21 22  2  0  0  0
 21 23  1  0  0  0
M  CHG  1  23  -1
M  END
> <s_m_source_file>
../4poh_ligand.sdf

> <i_m_source_file_index>
1

> <s_epik_input>
W2NIXTFbY0hdW2NIXWMoW0NIM10pYyhjMTIpQyhcW0NIMl1bQ0gyXVtDSDJdMik9W0NIXVxDKFtDSDNdKT1bQ0hdL1tDSF09W0NIXS9DKFtDSDNdKT1bQ0hdL0MoPU8pW09IXQ==

> <s_epik_cmdline>
J2VwaWtfYXBwJywgJy1pbWFlJywgJ2xpZ2FuZF9wcm8ubWFlJywgJy1vbWFlJywgJ2xpZ2FuZF9wcmVwLm1hZScsICctbXMnLCAnMScsICctcGgnLCAnNycsICctcGh0JywgJzAuNScsICctbnQn

> <r_lp_tautomer_probability>
1

> <r_epik_Ionization_Penalty>
  0.0055

> <r_epik_Ionization_Penalty_Charging>
  0.0055

> <r_epik_Ionization_Penalty_Neutral>
  0.0000

> <r_epik_State_Penalty>
 -0.0000

> <r_epik_Charging_Adjusted_Penalty>
0.00552613917023357

> <i_epik_Tot_Q>
-1

> <i_epik_Tot_abs_Q>
1

$$$$
