4poj_ligand
                    3D
 Schrodinger Suite 2020-3.
 44 45  0  0  1  0            999 V2000
   65.9450   46.3490   29.7670 C   0  0  0  0  0  0
   66.7690   45.2920   30.5090 C   0  0  0  0  0  0
   67.4350   45.8210   31.7810 C   0  0  0  0  0  0
   66.4700   46.6030   32.6610 C   0  0  0  0  0  0
   66.7260   46.6670   34.0180 C   0  0  0  0  0  0
   65.9010   47.3970   34.8720 C   0  0  0  0  0  0
   64.7940   48.0530   34.3680 C   0  0  0  0  0  0
   63.8750   48.8530   35.2930 C   0  0  0  0  0  0
   64.5150   47.9760   32.9980 C   0  0  0  0  0  0
   65.3380   47.2740   32.1460 C   0  0  0  0  0  0
   65.0740   47.1850   30.7180 C   0  0  0  0  0  0
   64.0150   47.9020   30.1890 C   0  0  0  0  0  0
   63.6760   47.9040   28.7440 C   0  0  0  0  0  0
   64.7380   48.3340   27.7350 C   0  0  0  0  0  0
   62.4210   47.5600   28.2950 C   0  0  0  0  0  0
   61.3210   47.1760   29.1890 C   0  0  0  0  0  0
   60.1290   46.6860   28.6550 C   0  0  0  0  0  0
   59.0150   46.3160   29.5150 C   0  0  0  0  0  0
   59.2570   45.5120   30.7940 C   0  0  0  0  0  0
   57.7230   46.7010   29.1200 C   0  0  0  0  0  0
   56.5050   46.4010   29.8610 C   0  0  0  0  0  0
   55.5530   47.2040   29.7230 O   0  0  0  0  0  0
   56.4690   45.4000   30.6140 O   0  5  0  0  0  0
   65.9733   46.4920   28.6868 H   0  0  0  0  0  0
   66.8710   44.2630   30.1643 H   0  0  0  0  0  0
   68.4835   45.6562   32.0293 H   0  0  0  0  0  0
   67.5869   46.1380   34.4267 H   0  0  0  0  0  0
   66.1288   47.4504   35.9366 H   0  0  0  0  0  0
   64.2538   48.7969   36.3242 H   0  0  0  0  0  0
   62.8588   48.4338   35.2523 H   0  0  0  0  0  0
   63.8516   49.9035   34.9676 H   0  0  0  0  0  0
   63.6336   48.4790   32.6002 H   0  0  0  0  0  0
   63.0755   47.5610   30.6484 H   0  0  0  0  0  0
   64.1571   48.9728   30.3966 H   0  0  0  0  0  0
   65.6726   48.5706   28.2647 H   0  0  0  0  0  0
   64.3886   49.2246   27.1921 H   0  0  0  0  0  0
   64.9179   47.5166   27.0213 H   0  0  0  0  0  0
   62.2023   47.5641   27.2170 H   0  0  0  0  0  0
   61.4362   47.2744   30.2785 H   0  0  0  0  0  0
   60.0192   46.5736   27.5663 H   0  0  0  0  0  0
   60.3342   45.3213   30.9089 H   0  0  0  0  0  0
   58.7196   44.5542   30.7322 H   0  0  0  0  0  0
   58.8912   46.0825   31.6604 H   0  0  0  0  0  0
   57.5791   47.2712   28.1904 H   0  0  0  0  0  0
  1  2  2  0  0  0
  1 11  1  0  0  0
  1 24  1  0  0  0
  2  3  1  0  0  0
  2 25  1  0  0  0
  3  4  2  0  0  0
  3 26  1  0  0  0
  4  5  1  0  0  0
  4 10  1  0  0  0
  5  6  2  0  0  0
  5 27  1  0  0  0
  6  7  1  0  0  0
  6 28  1  0  0  0
  7  8  1  0  0  0
  7  9  2  0  0  0
  8 29  1  0  0  0
  8 30  1  0  0  0
  8 31  1  0  0  0
  9 10  1  0  0  0
  9 32  1  0  0  0
 10 11  2  0  0  0
 11 12  1  0  0  0
 12 13  1  0  0  0
 12 33  1  0  0  0
 12 34  1  0  0  0
 13 14  1  0  0  0
 13 15  2  0  0  0
 14 35  1  0  0  0
 14 36  1  0  0  0
 14 37  1  0  0  0
 15 16  1  0  0  0
 15 38  1  0  0  0
 16 17  2  0  0  0
 16 39  1  0  0  0
 17 18  1  0  0  0
 17 40  1  0  0  0
 18 19  1  0  0  0
 18 20  2  0  0  0
 19 41  1  0  0  0
 19 42  1  0  0  0
 19 43  1  0  0  0
 20 21  1  0  0  0
 20 44  1  0  0  0
 21 22  2  0  0  0
 21 23  1  0  0  0
M  CHG  1  23  -1
M  END
> <s_m_source_file>
../4poj_ligand.sdf

> <i_m_source_file_index>
1

> <s_epik_input>
W2NIXTFbY0hdYyhbQ0gzXSlbY0hdYyhjMTIpYyhbY0hdW2NIXVtjSF0yKVtDSDJdL0MoW0NIM10pPVtDSF1cW0NIXT1bQ0hdXEMoW0NIM10pPVtDSF1cQyg9TylbT0hd

> <s_epik_cmdline>
J2VwaWtfYXBwJywgJy1pbWFlJywgJ2xpZ2FuZF9wcm8ubWFlJywgJy1vbWFlJywgJ2xpZ2FuZF9wcmVwLm1hZScsICctbXMnLCAnMScsICctcGgnLCAnNycsICctcGh0JywgJzAuNScsICctbnQn

> <r_lp_tautomer_probability>
1

> <r_epik_Ionization_Penalty>
  0.0077

> <r_epik_Ionization_Penalty_Charging>
  0.0077

> <r_epik_Ionization_Penalty_Neutral>
  0.0000

> <r_epik_State_Penalty>
 -0.0000

> <r_epik_Charging_Adjusted_Penalty>
0.00770913711843496

> <i_epik_Tot_Q>
-1

> <i_epik_Tot_abs_Q>
1

$$$$
