4pop_ligand
                    3D
 Schrodinger Suite 2020-3.
 32 33  0  0  1  0            999 V2000
   14.6840   11.6360   41.8380 C   0  0  0  0  0  0
   15.0970    7.6280   44.4680 N   0  0  0  0  0  0
   18.3120    7.1970   48.3860 C   0  0  0  0  0  0
   20.8260    5.5380   48.2410 O   0  0  0  0  0  0
   20.5750    5.3110   46.8890 C   0  0  0  0  0  0
   18.4150    7.8930   44.6170 C   0  0  0  0  0  0
   19.6380    6.6950   44.6760 S   0  0  0  0  0  0
   19.6530    6.3540   46.3040 C   0  0  0  0  0  0
   18.6680    7.1890   46.8880 C   0  0  0  0  0  0
   17.9880    8.0530   45.9660 C   0  0  0  0  0  0
   16.8940    9.0080   46.4360 C   0  0  0  0  0  0
   15.4560    8.9840   44.3000 C   0  0  0  0  0  0
   14.9670    9.6500   43.2520 N   0  0  0  0  0  0
   15.2560   10.9350   43.0530 C   0  0  0  0  0  0
   16.0320   11.6140   43.8740 N   0  0  0  0  0  0
   16.5560   11.0550   44.9720 C   0  0  0  0  0  0
   16.2900    9.6820   45.2100 C   0  0  0  0  0  0
   14.0643   10.9302   41.2654 H   0  0  0  0  0  0
   15.5059   12.0002   41.2041 H   0  0  0  0  0  0
   14.0665   12.4866   42.1623 H   0  0  0  0  0  0
   14.4463    7.1358   43.7302 H   0  0  0  0  0  0
   15.4682    7.0643   45.3366 H   0  0  0  0  0  0
   18.9426    6.4685   48.9166 H   0  0  0  0  0  0
   17.2533    6.9265   48.5127 H   0  0  0  0  0  0
   18.4857    8.2017   48.7988 H   0  0  0  0  0  0
   21.4830    4.8559   48.8005 H   0  0  0  0  0  0
   21.5225    5.3371   46.3308 H   0  0  0  0  0  0
   20.1029    4.3253   46.7641 H   0  0  0  0  0  0
   18.0440    8.4189   43.7373 H   0  0  0  0  0  0
   16.1203    8.4421   46.9755 H   0  0  0  0  0  0
   17.3299    9.7636   47.1061 H   0  0  0  0  0  0
   17.1679   11.6367   45.6615 H   0  0  0  0  0  0
  1 14  1  0  0  0
  1 18  1  0  0  0
  1 19  1  0  0  0
  1 20  1  0  0  0
  2 12  1  0  0  0
  2 21  1  0  0  0
  2 22  1  0  0  0
  3  9  1  0  0  0
  3 23  1  0  0  0
  3 24  1  0  0  0
  3 25  1  0  0  0
  4  5  1  0  0  0
  4 26  1  0  0  0
  5  8  1  0  0  0
  5 27  1  0  0  0
  5 28  1  0  0  0
  6  7  1  0  0  0
  6 10  2  0  0  0
  6 29  1  0  0  0
  7  8  1  0  0  0
  8  9  2  0  0  0
  9 10  1  0  0  0
 10 11  1  0  0  0
 11 17  1  0  0  0
 11 30  1  0  0  0
 11 31  1  0  0  0
 12 13  2  0  0  0
 12 17  1  0  0  0
 13 14  1  0  0  0
 14 15  2  0  0  0
 15 16  1  0  0  0
 16 17  2  0  0  0
 16 32  1  0  0  0
M  END
> <s_m_source_file>
../4pop_ligand.sdf

> <i_m_source_file_index>
1

> <s_epik_input>
W05IMl1jMW5jKFtDSDNdKW5bY0hdYzFbQ0gyXWMoYzJbQ0gzXSlbY0hdc2MyW0NIMl1bT0hd

> <s_epik_cmdline>
J2VwaWtfYXBwJywgJy1pbWFlJywgJ2xpZ2FuZF9wcm8ubWFlJywgJy1vbWFlJywgJ2xpZ2FuZF9wcmVwLm1hZScsICctbXMnLCAnMScsICctcGgnLCAnNycsICctcGh0JywgJzAuNScsICctbnQn

> <r_lp_tautomer_probability>
0.999999583200174

> <r_epik_Ionization_Penalty>
  0.2415

> <r_epik_Ionization_Penalty_Charging>
  0.0000

> <r_epik_Ionization_Penalty_Neutral>
  0.2415

> <r_epik_State_Penalty>
  0.2322

> <r_epik_Charging_Adjusted_Penalty>
0.232200753780458

> <i_epik_Tot_Q>
0

> <i_epik_Tot_abs_Q>
0

$$$$
