4pov_ligand
                    3D
 Schrodinger Suite 2020-3.
 32 33  0  0  1  0            999 V2000
   13.9450   14.5230   41.7640 C   0  0  0  0  0  0
   14.3000   10.4160   44.3050 N   0  0  0  0  0  0
   17.4620    9.8950   48.2600 C   0  0  0  0  0  0
   19.5860    8.0480   48.0880 O   0  0  0  0  0  0
   19.8030    8.1050   46.7220 C   0  0  0  0  0  0
   17.5960   10.7000   44.5490 C   0  0  0  0  0  0
   18.8550    9.5500   44.5600 S   0  0  0  0  0  0
   18.8410    9.1400   46.1650 C   0  0  0  0  0  0
   17.8290    9.9350   46.8000 C   0  0  0  0  0  0
   17.1410   10.8330   45.9000 C   0  0  0  0  0  0
   16.0170   11.7490   46.3540 C   0  0  0  0  0  0
   14.6330   11.7790   44.1820 C   0  0  0  0  0  0
   14.1790   12.4760   43.1190 N   0  0  0  0  0  0
   14.4790   13.7740   42.9780 C   0  0  0  0  0  0
   15.2290   14.4320   43.8650 N   0  0  0  0  0  0
   15.7420   13.8300   44.9440 C   0  0  0  0  0  0
   15.4440   12.4530   45.1370 C   0  0  0  0  0  0
   13.3518   13.8369   41.1416 H   0  0  0  0  0  0
   14.7874   14.9160   41.1759 H   0  0  0  0  0  0
   13.3102   15.3570   42.0978 H   0  0  0  0  0  0
   13.6699    9.9329   43.5437 H   0  0  0  0  0  0
   14.6701    9.8346   45.1623 H   0  0  0  0  0  0
   18.0917    9.1554   48.7762 H   0  0  0  0  0  0
   16.4040    9.6126   48.3645 H   0  0  0  0  0  0
   17.6222   10.8878   48.7057 H   0  0  0  0  0  0
   20.1757    7.3588   48.7103 H   0  0  0  0  0  0
   20.8454    8.3979   46.5283 H   0  0  0  0  0  0
   19.6114    7.1167   46.2787 H   0  0  0  0  0  0
   17.2110   11.2324   43.6792 H   0  0  0  0  0  0
   15.2337   11.1527   46.8449 H   0  0  0  0  0  0
   16.4123   12.4905   47.0638 H   0  0  0  0  0  0
   16.3668   14.3761   45.6507 H   0  0  0  0  0  0
  1 14  1  0  0  0
  1 18  1  0  0  0
  1 19  1  0  0  0
  1 20  1  0  0  0
  2 12  1  0  0  0
  2 21  1  0  0  0
  2 22  1  0  0  0
  3  9  1  0  0  0
  3 23  1  0  0  0
  3 24  1  0  0  0
  3 25  1  0  0  0
  4  5  1  0  0  0
  4 26  1  0  0  0
  5  8  1  0  0  0
  5 27  1  0  0  0
  5 28  1  0  0  0
  6  7  1  0  0  0
  6 10  2  0  0  0
  6 29  1  0  0  0
  7  8  1  0  0  0
  8  9  2  0  0  0
  9 10  1  0  0  0
 10 11  1  0  0  0
 11 17  1  0  0  0
 11 30  1  0  0  0
 11 31  1  0  0  0
 12 13  2  0  0  0
 12 17  1  0  0  0
 13 14  1  0  0  0
 14 15  2  0  0  0
 15 16  1  0  0  0
 16 17  2  0  0  0
 16 32  1  0  0  0
M  END
> <s_m_source_file>
../4pov_ligand.sdf

> <i_m_source_file_index>
1

> <s_epik_input>
W05IMl1jMW5jKFtDSDNdKW5bY0hdYzFbQ0gyXWMoYzJbQ0gzXSlbY0hdc2MyW0NIMl1bT0hd

> <s_epik_cmdline>
J2VwaWtfYXBwJywgJy1pbWFlJywgJ2xpZ2FuZF9wcm8ubWFlJywgJy1vbWFlJywgJ2xpZ2FuZF9wcmVwLm1hZScsICctbXMnLCAnMScsICctcGgnLCAnNycsICctcGh0JywgJzAuNScsICctbnQn

> <r_lp_tautomer_probability>
0.999999583200174

> <r_epik_Ionization_Penalty>
  0.2415

> <r_epik_Ionization_Penalty_Charging>
  0.0000

> <r_epik_Ionization_Penalty_Neutral>
  0.2415

> <r_epik_State_Penalty>
  0.2322

> <r_epik_Charging_Adjusted_Penalty>
0.232200753780458

> <i_epik_Tot_Q>
0

> <i_epik_Tot_abs_Q>
0

$$$$
