4pow_ligand
                    3D
 Schrodinger Suite 2020-3.
 39 39  0  0  1  0            999 V2000
    3.6270   18.2040    2.9130 C   0  0  2  0  0  0
    2.3030   17.5440    3.2890 C   0  0  0  0  0  0
    2.3190   16.5140    4.0120 O   0  0  0  0  0  0
    4.2630   18.8010    4.1560 C   0  0  0  0  0  0
    3.3640   19.6380    4.9860 C   0  0  0  0  0  0
    4.0440   20.1050    6.2120 C   0  0  0  0  0  0
    3.2780   21.2540    6.7290 N   0  0  0  0  0  0
    3.6790   21.8850    7.9520 C   0  0  0  0  0  0
    2.9350   22.9470    8.2860 N   0  0  0  0  0  0
    4.6850   21.4410    8.6750 N   0  3  0  0  0  0
    3.4440   19.1650    1.8200 N   0  0  3  0  0  0
    3.8300   20.5530    1.6260 C   0  0  2  0  0  0
    3.1700   20.9910    0.3660 C   0  0  0  0  0  0
    2.9710   19.7560   -0.4650 C   0  0  0  0  0  0
    2.8980   18.6940    0.5760 C   0  0  1  0  0  0
    2.8840   17.3690    0.2630 O   0  0  0  0  0  0
    5.2910   20.6450    1.4570 C   0  0  0  0  0  0
    5.9990   19.6060    1.2410 O   0  5  0  0  0  0
    5.8640   21.7570    1.4910 O   0  0  0  0  0  0
    1.2100   18.0940    2.9220 O   0  5  0  0  0  0
    4.3330   17.4761    2.4867 H   0  0  0  0  0  0
    4.6262   17.9919    4.8067 H   0  0  0  0  0  0
    5.1069   19.4432    3.8637 H   0  0  0  0  0  0
    3.0437   20.5170    4.4075 H   0  0  0  0  0  0
    2.4815   19.0499    5.2781 H   0  0  0  0  0  0
    4.0654   19.2914    6.9520 H   0  0  0  0  0  0
    5.0735   20.4061    5.9683 H   0  0  0  0  0  0
    2.4019   21.6243    6.1765 H   0  0  0  0  0  0
    2.1072   23.2652    7.6352 H   0  0  0  0  0  0
    3.1516   23.5012    9.2111 H   0  0  0  0  0  0
    5.2557   20.5615    8.3420 H   0  0  0  0  0  0
    3.5374   21.1580    2.4968 H   0  0  0  0  0  0
    2.2057   21.4644    0.6026 H   0  0  0  0  0  0
    3.8156   21.7141   -0.1540 H   0  0  0  0  0  0
    2.0439   19.8526   -1.0491 H   0  0  0  0  0  0
    3.8239   19.6327   -1.1486 H   0  0  0  0  0  0
    1.8728   18.3415    0.7624 H   0  0  0  0  0  0
    2.8293   16.6155    1.0626 H   0  0  0  0  0  0
    4.9552   21.9493    9.6123 H   0  0  0  0  0  0
  1  2  1  0  0  0
  1  4  1  0  0  0
  1 11  1  0  0  0
  1 21  1  0  0  0
  2  3  2  0  0  0
  2 20  1  0  0  0
  4  5  1  0  0  0
  4 22  1  0  0  0
  4 23  1  0  0  0
  5  6  1  0  0  0
  5 24  1  0  0  0
  5 25  1  0  0  0
  6  7  1  0  0  0
  6 26  1  0  0  0
  6 27  1  0  0  0
  7  8  1  0  0  0
  7 28  1  0  0  0
  8  9  1  0  0  0
  8 10  2  0  0  0
  9 29  1  0  0  0
  9 30  1  0  0  0
 10 31  1  0  0  0
 10 39  1  0  0  0
 11 12  1  0  0  0
 11 15  1  0  0  0
 12 13  1  0  0  0
 12 17  1  0  0  0
 12 32  1  0  0  0
 13 14  1  0  0  0
 13 33  1  0  0  0
 13 34  1  0  0  0
 14 15  1  0  0  0
 14 35  1  0  0  0
 14 36  1  0  0  0
 15 16  1  0  0  0
 15 37  1  0  0  0
 16 38  1  0  0  0
 17 18  1  0  0  0
 17 19  2  0  0  0
M  CHG  3  10   1  18  -1  20  -1
M  END
> <s_m_source_file>
../4pow_ligand.sdf

> <i_m_source_file_index>
1

> <s_epik_input>
W09IXVtDQEBIXTFbQ0gyXVtDSDJdW0NASF0oQyg9TylbT0hdKVtOSCtdMVtDQEhdKEMoPU8pW09IXSlbQ0gyXVtDSDJdW0NIMl1bTkhdL0MoW05IMl0pPU4vW0hd

> <s_epik_cmdline>
J2VwaWtfYXBwJywgJy1pbWFlJywgJ2xpZ2FuZF9wcm8ubWFlJywgJy1vbWFlJywgJ2xpZ2FuZF9wcmVwLm1hZScsICctbXMnLCAnMScsICctcGgnLCAnNycsICctcGh0JywgJzAuNScsICctbnQn

> <r_epik_Ionization_Penalty>
  0.0199

> <r_epik_Ionization_Penalty_Charging>
  0.0039

> <r_epik_Ionization_Penalty_Neutral>
  0.0161

> <r_epik_State_Penalty>
  0.0127

> <r_epik_Charging_Adjusted_Penalty>
0.0165272257728721

> <i_epik_Tot_Q>
-1

> <i_epik_Tot_abs_Q>
3

> <s_epik_Chemistry_Notes>
This compound has an imine and may undergo hydrolysis. This compound contains an acetal/aminal-like group ( X-CH(R)-Y where X, Y are N, S, or O) that may be acid/base labile, releasing an aldehyde.

$$$$
