4pox_ligand
                    3D
 Schrodinger Suite 2020-3.
 37 36  0  0  1  0            999 V2000
   16.4780   -8.0390   -1.8300 O   0  0  0  0  0  0
   18.8520   -8.1920    2.1600 C   0  0  0  0  0  0
   20.2230   -7.7250    1.7570 C   0  0  0  0  0  0
   20.6970   -7.8500    0.3400 C   0  0  0  0  0  0
   20.2080   -6.8420   -0.6800 C   0  0  2  0  0  0
   17.8570   -8.1020    1.3890 O   0  5  0  0  0  0
   18.6870   -8.6660    3.3170 O   0  0  0  0  0  0
   20.4380   -5.4360   -0.2290 C   0  0  0  0  0  0
   19.4970   -4.7840    0.2990 O   0  0  0  0  0  0
   21.5780   -4.8930   -0.3750 O   0  5  0  0  0  0
   18.8220   -7.1390   -1.0510 N   0  3  0  0  0  0
   18.0560   -6.2410   -1.9570 C   0  0  2  0  0  0
   16.6860   -6.8650   -2.2220 C   0  0  0  0  0  0
   15.7980   -6.2110   -2.8260 O   0  5  0  0  0  0
   18.7280   -5.8470   -3.2660 C   0  0  0  0  0  0
   19.4300   -6.9430   -4.0080 C   0  0  0  0  0  0
   19.3870   -6.9730   -5.4960 C   0  0  0  0  0  0
   20.1390   -8.0860   -6.0430 N   0  0  0  0  0  0
   20.9480   -7.9680   -7.2400 C   0  0  0  0  0  0
   21.6010   -9.0230   -7.6460 N   0  0  0  0  0  0
   21.0330   -6.8670   -7.9160 N   0  0  0  0  0  0
   20.3195   -6.6490    1.9644 H   0  0  0  0  0  0
   20.9819   -8.2783    2.3297 H   0  0  0  0  0  0
   21.7935   -7.7673    0.3115 H   0  0  0  0  0  0
   20.3924   -8.8268   -0.0638 H   0  0  0  0  0  0
   20.7766   -6.9281   -1.6177 H   0  0  0  0  0  0
   18.7800   -8.1114   -1.5636 H   0  0  0  0  0  0
   18.1995   -7.1750   -0.1448 H   0  0  0  0  0  0
   17.9990   -5.2958   -1.3972 H   0  0  0  0  0  0
   17.9736   -5.4472   -3.9596 H   0  0  0  0  0  0
   19.4900   -5.0782   -3.0701 H   0  0  0  0  0  0
   19.9757   -7.7236   -3.4577 H   0  0  0  0  0  0
   18.8265   -6.2025   -6.0457 H   0  0  0  0  0  0
   20.1088   -9.0671   -5.5465 H   0  0  0  0  0  0
   21.5350   -9.9629   -7.0783 H   0  0  0  0  0  0
   22.2172   -8.9721   -8.5558 H   0  0  0  0  0  0
   20.4864   -5.9728   -7.5818 H   0  0  0  0  0  0
  1 13  2  0  0  0
  2  3  1  0  0  0
  2  6  1  0  0  0
  2  7  2  0  0  0
  3  4  1  0  0  0
  3 22  1  0  0  0
  3 23  1  0  0  0
  4  5  1  0  0  0
  4 24  1  0  0  0
  4 25  1  0  0  0
  5  8  1  0  0  0
  5 11  1  0  0  0
  5 26  1  0  0  0
  8  9  2  0  0  0
  8 10  1  0  0  0
 11 12  1  0  0  0
 11 27  1  0  0  0
 11 28  1  0  0  0
 12 13  1  0  0  0
 12 15  1  0  0  0
 12 29  1  0  0  0
 13 14  1  0  0  0
 15 16  1  0  0  0
 15 30  1  0  0  0
 15 31  1  0  0  0
 16 17  2  0  0  0
 16 32  1  0  0  0
 17 18  1  0  0  0
 17 33  1  0  0  0
 18 19  1  0  0  0
 18 34  1  0  0  0
 19 20  1  0  0  0
 19 21  2  0  0  0
 20 35  1  0  0  0
 20 36  1  0  0  0
 21 37  1  0  0  0
M  CHG  4   6  -1  10  -1  11   1  14  -1
M  END
> <s_m_source_file>
../4pox_ligand.sdf

> <i_m_source_file_index>
1

> <s_epik_input>
W09IXUMoPU8pW0NIMl1bQ0gyXVtDQEhdKEMoPU8pW09IXSlbTkgyK11bQ0BIXShDKD1PKVtPSF0pW0NIMl0vW0NIXT1bQ0hdL1tOSF0vQyhbTkgyXSk9TlxbSF0=

> <s_epik_cmdline>
J2VwaWtfYXBwJywgJy1pbWFlJywgJ2xpZ2FuZF9wcm8ubWFlJywgJy1vbWFlJywgJ2xpZ2FuZF9wcmVwLm1hZScsICctbXMnLCAnMScsICctcGgnLCAnNycsICctcGh0JywgJzAuNScsICctbnQn

> <r_lp_tautomer_probability>
1

> <r_epik_Ionization_Penalty>
  0.0036

> <r_epik_Ionization_Penalty_Charging>
  0.0036

> <r_epik_Ionization_Penalty_Neutral>
  0.0000

> <r_epik_State_Penalty>
 -0.0000

> <r_epik_Charging_Adjusted_Penalty>
0.00359020345664078

> <i_epik_Tot_Q>
-2

> <i_epik_Tot_abs_Q>
4

> <s_epik_Chemistry_Notes>
This compound has an imine and may undergo hydrolysis.

$$$$
