4pp0_ligand
                    3D
 Schrodinger Suite 2020-3.
 39 39  0  0  1  0            999 V2000
   17.3520   -5.7350   -4.1970 C   0  0  2  0  0  0
   16.2260   -6.6790   -4.5640 C   0  0  0  0  0  0
   16.1710   -7.8490   -4.1220 O   0  0  0  0  0  0
   18.2320   -5.5030   -5.4170 C   0  0  0  0  0  0
   18.6640   -6.7800   -6.1080 C   0  0  0  0  0  0
   19.4090   -6.5160   -7.3810 C   0  0  0  0  0  0
   20.0420   -7.7260   -7.8790 N   0  0  0  0  0  0
   20.8370   -7.7080   -9.0770 C   0  0  0  0  0  0
   20.9490   -6.6280   -9.8300 N   0  3  0  0  0  0
   21.4140   -8.8610   -9.4340 N   0  0  0  0  0  0
   18.1000   -6.2330   -3.0330 N   0  0  3  0  0  0
   19.3530   -6.9160   -2.7800 C   0  0  2  0  0  0
   19.2660   -7.4820   -1.4120 C   0  0  0  0  0  0
   18.2200   -6.7470   -0.6590 C   0  0  0  0  0  0
   17.5110   -6.0650   -1.7550 C   0  0  2  0  0  0
   16.2470   -5.6350   -1.6340 O   0  0  0  0  0  0
   20.5200   -5.9820   -2.8650 C   0  0  0  0  0  0
   20.3950   -4.7390   -3.1340 O   0  5  0  0  0  0
   21.6880   -6.4260   -2.6070 O   0  0  0  0  0  0
   15.3360   -6.2430   -5.3320 O   0  5  0  0  0  0
   16.9509   -4.7681   -3.8590 H   0  0  0  0  0  0
   17.6831   -4.9005   -6.1558 H   0  0  0  0  0  0
   19.1451   -4.9695   -5.1144 H   0  0  0  0  0  0
   19.3243   -7.3529   -5.4403 H   0  0  0  0  0  0
   17.7770   -7.3830   -6.3521 H   0  0  0  0  0  0
   18.7097   -6.1454   -8.1450 H   0  0  0  0  0  0
   20.1882   -5.7609   -7.2000 H   0  0  0  0  0  0
   19.9165   -8.6752   -7.3375 H   0  0  0  0  0  0
   20.4674   -5.6889   -9.5199 H   0  0  0  0  0  0
   21.3096   -9.7496   -8.7940 H   0  0  0  0  0  0
   21.9928   -8.9205  -10.3675 H   0  0  0  0  0  0
   19.4814   -7.6963   -3.5447 H   0  0  0  0  0  0
   19.0032   -8.5484   -1.4725 H   0  0  0  0  0  0
   20.2370   -7.3717   -0.9071 H   0  0  0  0  0  0
   17.5923   -7.4636   -0.1090 H   0  0  0  0  0  0
   18.6970   -6.0564    0.0520 H   0  0  0  0  0  0
   17.4232   -4.9799   -1.5974 H   0  0  0  0  0  0
   15.7547   -5.1300   -2.4781 H   0  0  0  0  0  0
   21.5238   -6.6680  -10.7670 H   0  0  0  0  0  0
  1  2  1  0  0  0
  1  4  1  0  0  0
  1 11  1  0  0  0
  1 21  1  0  0  0
  2  3  2  0  0  0
  2 20  1  0  0  0
  4  5  1  0  0  0
  4 22  1  0  0  0
  4 23  1  0  0  0
  5  6  1  0  0  0
  5 24  1  0  0  0
  5 25  1  0  0  0
  6  7  1  0  0  0
  6 26  1  0  0  0
  6 27  1  0  0  0
  7  8  1  0  0  0
  7 28  1  0  0  0
  8  9  2  0  0  0
  8 10  1  0  0  0
  9 29  1  0  0  0
  9 39  1  0  0  0
 10 30  1  0  0  0
 10 31  1  0  0  0
 11 12  1  0  0  0
 11 15  1  0  0  0
 12 13  1  0  0  0
 12 17  1  0  0  0
 12 32  1  0  0  0
 13 14  1  0  0  0
 13 33  1  0  0  0
 13 34  1  0  0  0
 14 15  1  0  0  0
 14 35  1  0  0  0
 14 36  1  0  0  0
 15 16  1  0  0  0
 15 37  1  0  0  0
 16 38  1  0  0  0
 17 18  1  0  0  0
 17 19  2  0  0  0
M  CHG  3   9   1  18  -1  20  -1
M  END
> <s_m_source_file>
../4pp0_ligand.sdf

> <i_m_source_file_index>
1

> <s_epik_input>
W09IXVtDQEhdMVtDSDJdW0NIMl1bQ0BIXShDKD1PKVtPSF0pW05IK10xW0NASF0oQyg9TylbT0hdKVtDSDJdW0NIMl1bQ0gyXVtOSF0vQyg9Ti9bSF0pW05IMl0=

> <s_epik_cmdline>
J2VwaWtfYXBwJywgJy1pbWFlJywgJ2xpZ2FuZF9wcm8ubWFlJywgJy1vbWFlJywgJ2xpZ2FuZF9wcmVwLm1hZScsICctbXMnLCAnMScsICctcGgnLCAnNycsICctcGh0JywgJzAuNScsICctbnQn

> <r_epik_Ionization_Penalty>
  0.0199

> <r_epik_Ionization_Penalty_Charging>
  0.0039

> <r_epik_Ionization_Penalty_Neutral>
  0.0161

> <r_epik_State_Penalty>
  0.0127

> <r_epik_Charging_Adjusted_Penalty>
0.0165373551854169

> <i_epik_Tot_Q>
-1

> <i_epik_Tot_abs_Q>
3

> <s_epik_Chemistry_Notes>
This compound has an imine and may undergo hydrolysis. This compound contains an acetal/aminal-like group ( X-CH(R)-Y where X, Y are N, S, or O) that may be acid/base labile, releasing an aldehyde.

$$$$
