4pp5_ligand
                    3D
 Schrodinger Suite 2020-3.
 46 47  0  0  1  0            999 V2000
   68.1000   46.6250   34.3720 C   0  0  0  0  0  0
   66.9130   47.3360   33.7180 C   0  0  0  0  0  0
   66.0520   48.0660   34.5310 C   0  0  0  0  0  0
   64.9580   48.7150   33.9710 C   0  0  0  0  0  0
   64.7330   48.6220   32.6020 C   0  0  0  0  0  0
   65.5960   47.8870   31.7930 C   0  0  0  0  0  0
   66.7020   47.2390   32.3430 C   0  0  0  0  0  0
   67.6820   46.4580   31.4630 C   0  0  0  0  0  0
   66.9700   45.7960   30.2810 C   0  0  0  0  0  0
   66.1240   46.8130   29.5110 C   0  0  0  0  0  0
   65.3360   47.7520   30.4310 C   0  0  0  0  0  0
   64.3150   48.5140   29.8690 C   0  0  0  0  0  0
   63.9690   48.4540   28.5220 C   0  0  0  0  0  0
   65.0020   48.8280   27.4580 C   0  0  0  0  0  0
   62.6830   48.1110   28.1160 C   0  0  0  0  0  0
   61.6560   47.8140   29.0060 C   0  0  0  0  0  0
   60.4890   47.2200   28.5390 C   0  0  0  0  0  0
   59.4350   46.9130   29.3940 C   0  0  0  0  0  0
   59.7060   46.1960   30.7190 C   0  0  0  0  0  0
   58.1450   47.2650   29.0060 C   0  0  0  0  0  0
   57.0050   47.0240   29.7670 C   0  0  0  0  0  0
   56.0310   47.7880   29.5980 O   0  0  0  0  0  0
   57.0080   46.0660   30.5700 O   0  5  0  0  0  0
   68.0940   46.8213   35.4543 H   0  0  0  0  0  0
   69.0377   47.0006   33.9364 H   0  0  0  0  0  0
   68.0215   45.5421   34.1953 H   0  0  0  0  0  0
   66.2348   48.1288   35.6037 H   0  0  0  0  0  0
   64.2812   49.2928   34.6005 H   0  0  0  0  0  0
   63.8752   49.1279   32.1589 H   0  0  0  0  0  0
   68.4471   47.1431   31.0690 H   0  0  0  0  0  0
   68.1665   45.6726   32.0616 H   0  0  0  0  0  0
   67.7168   45.3678   29.5962 H   0  0  0  0  0  0
   66.3109   44.9968   30.6509 H   0  0  0  0  0  0
   66.7791   47.4330   28.8813 H   0  0  0  0  0  0
   65.4003   46.2817   28.8755 H   0  0  0  0  0  0
   63.7360   49.2067   30.4974 H   0  0  0  0  0  0
   65.9584   49.0700   27.9446 H   0  0  0  0  0  0
   64.6464   49.7023   26.8931 H   0  0  0  0  0  0
   65.1441   47.9807   26.7711 H   0  0  0  0  0  0
   62.4385   48.0647   27.0445 H   0  0  0  0  0  0
   61.7645   48.0473   30.0755 H   0  0  0  0  0  0
   60.3828   46.9815   27.4704 H   0  0  0  0  0  0
   60.7859   46.0151   30.8238 H   0  0  0  0  0  0
   59.1703   45.2354   30.7323 H   0  0  0  0  0  0
   59.3565   46.8223   31.5530 H   0  0  0  0  0  0
   57.9785   47.7676   28.0418 H   0  0  0  0  0  0
  1  2  1  0  0  0
  1 24  1  0  0  0
  1 25  1  0  0  0
  1 26  1  0  0  0
  2  3  2  0  0  0
  2  7  1  0  0  0
  3  4  1  0  0  0
  3 27  1  0  0  0
  4  5  2  0  0  0
  4 28  1  0  0  0
  5  6  1  0  0  0
  5 29  1  0  0  0
  6  7  2  0  0  0
  6 11  1  0  0  0
  7  8  1  0  0  0
  8  9  1  0  0  0
  8 30  1  0  0  0
  8 31  1  0  0  0
  9 10  1  0  0  0
  9 32  1  0  0  0
  9 33  1  0  0  0
 10 11  1  0  0  0
 10 34  1  0  0  0
 10 35  1  0  0  0
 11 12  2  0  0  0
 12 13  1  0  0  0
 12 36  1  0  0  0
 13 14  1  0  0  0
 13 15  2  0  0  0
 14 37  1  0  0  0
 14 38  1  0  0  0
 14 39  1  0  0  0
 15 16  1  0  0  0
 15 40  1  0  0  0
 16 17  2  0  0  0
 16 41  1  0  0  0
 17 18  1  0  0  0
 17 42  1  0  0  0
 18 19  1  0  0  0
 18 20  2  0  0  0
 19 43  1  0  0  0
 19 44  1  0  0  0
 19 45  1  0  0  0
 20 21  1  0  0  0
 20 46  1  0  0  0
 21 22  2  0  0  0
 21 23  1  0  0  0
M  CHG  1  23  -1
M  END
> <s_m_source_file>
../4pp5_ligand.sdf

> <i_m_source_file_index>
1

> <s_epik_input>
W2NIXTFbY0hdW2NIXWMoW0NIM10pYyhjMTIpW0NIMl1bQ0gyXVtDSDJdQ1wyPVtDSF0vQyhbQ0gzXSk9W0NIXVxbQ0hdPVtDSF1cQyhbQ0gzXSk9W0NIXVxDKD1PKVtPSF0=

> <s_epik_cmdline>
J2VwaWtfYXBwJywgJy1pbWFlJywgJ2xpZ2FuZF9wcm8ubWFlJywgJy1vbWFlJywgJ2xpZ2FuZF9wcmVwLm1hZScsICctbXMnLCAnMScsICctcGgnLCAnNycsICctcGh0JywgJzAuNScsICctbnQn

> <r_lp_tautomer_probability>
1

> <r_epik_Ionization_Penalty>
  0.0055

> <r_epik_Ionization_Penalty_Charging>
  0.0055

> <r_epik_Ionization_Penalty_Neutral>
  0.0000

> <r_epik_State_Penalty>
 -0.0000

> <r_epik_Charging_Adjusted_Penalty>
0.00552613917023357

> <i_epik_Tot_Q>
-1

> <i_epik_Tot_abs_Q>
1

$$$$
