4ppc_ligand
                    3D
 Schrodinger Suite 2020-3.
 60 64  0  0  1  0            999 V2000
    9.2410  -25.8620  -45.9980 C   0  0  0  0  0  0
    9.8090  -25.9570  -47.3590 N   0  3  0  0  0  0
   10.7600  -24.8750  -47.6520 C   0  0  0  0  0  0
   10.3170  -27.2770  -47.7900 C   0  0  0  0  0  0
   10.9070  -28.1230  -46.6530 C   0  0  0  0  0  0
   12.3850  -28.4540  -46.9000 C   0  0  2  0  0  0
   12.5190  -29.9470  -47.0930 C   0  0  0  0  0  0
   12.6800  -30.4390  -48.3860 C   0  0  0  0  0  0
   12.7740  -31.8100  -48.6010 C   0  0  0  0  0  0
   12.6990  -32.6820  -47.5180 C   0  0  0  0  0  0
   12.5360  -32.2030  -46.2220 C   0  0  0  0  0  0
   12.4400  -30.8330  -46.0100 C   0  0  0  0  0  0
   13.2120  -28.0140  -45.7720 N   0  0  0  0  0  0
   14.5670  -27.9060  -45.7710 C   0  0  0  0  0  0
   14.9470  -27.4970  -44.5300 C   0  0  0  0  0  0
   13.7790  -27.3710  -43.7630 C   0  0  0  0  0  0
   12.7490  -27.6830  -44.4920 N   0  0  0  0  0  0
   16.2450  -27.2220  -44.0390 N   0  0  0  0  0  0
   17.3400  -26.8930  -44.7720 C   0  0  0  0  0  0
   17.3190  -26.8220  -45.9880 O   0  0  0  0  0  0
   18.6000  -26.6140  -44.0570 C   0  0  0  0  0  0
   19.9290  -26.3750  -44.6430 C   0  0  0  0  0  0
   20.4640  -26.3370  -45.9420 C   0  0  0  0  0  0
   21.7990  -26.0600  -46.1200 C   0  0  0  0  0  0
   22.6470  -25.8290  -45.0110 C   0  0  3  0  0  0
   22.1250  -25.8760  -43.7120 C   0  0  0  0  0  0
   20.7640  -26.1380  -43.5180 C   0  0  0  0  0  0
   19.9560  -26.2410  -42.4180 N   0  0  0  0  0  0
   18.7450  -26.4970  -42.7520 N   0  0  0  0  0  0
   24.0960  -25.5410  -45.2180 C   0  0  0  0  0  0
   24.7720  -25.5500  -46.4070 C   0  0  0  0  0  0
   26.0580  -25.2310  -46.1600 N   0  3  0  0  0  0
   26.1970  -25.0150  -44.7860 N   0  0  0  0  0  0
   25.0310  -25.1920  -44.2210 C   0  0  0  0  0  0
    8.9046  -24.8313  -45.8122 H   0  0  0  0  0  0
   10.0095  -26.1355  -45.2601 H   0  0  0  0  0  0
    8.3861  -26.5485  -45.9087 H   0  0  0  0  0  0
    8.9217  -25.8146  -47.9934 H   0  0  0  0  0  0
   10.3397  -23.9161  -47.3147 H   0  0  0  0  0  0
   10.9454  -24.8332  -48.7355 H   0  0  0  0  0  0
   11.7065  -25.0661  -47.1251 H   0  0  0  0  0  0
    9.4957  -27.8588  -48.2339 H   0  0  0  0  0  0
   11.1129  -27.1377  -48.5365 H   0  0  0  0  0  0
   10.8299  -27.5691  -45.7058 H   0  0  0  0  0  0
   10.3496  -29.0678  -46.5716 H   0  0  0  0  0  0
   12.7697  -27.9168  -47.7795 H   0  0  0  0  0  0
   12.7323  -29.7500  -49.2290 H   0  0  0  0  0  0
   12.9055  -32.1992  -49.6106 H   0  0  0  0  0  0
   12.7691  -33.7563  -47.6882 H   0  0  0  0  0  0
   12.4841  -32.8952  -45.3816 H   0  0  0  0  0  0
   12.3031  -30.4469  -44.9999 H   0  0  0  0  0  0
   15.2294  -28.1101  -46.6122 H   0  0  0  0  0  0
   13.7412  -27.0601  -42.7190 H   0  0  0  0  0  0
   16.4446  -27.2647  -42.9581 H   0  0  0  0  0  0
   19.8208  -26.5274  -46.8138 H   0  0  0  0  0  0
   22.2210  -26.0156  -47.1349 H   0  0  0  0  0  0
   22.7816  -25.7077  -42.8457 H   0  0  0  0  0  0
   24.2415  -25.7929  -47.3395 H   0  0  0  0  0  0
   24.9208  -25.0612  -43.1344 H   0  0  0  0  0  0
   26.9288  -25.1270  -46.8240 H   0  0  0  0  0  0
  1  2  1  0  0  0
  1 35  1  0  0  0
  1 36  1  0  0  0
  1 37  1  0  0  0
  2  3  1  0  0  0
  2  4  1  0  0  0
  2 38  1  0  0  0
  3 39  1  0  0  0
  3 40  1  0  0  0
  3 41  1  0  0  0
  4  5  1  0  0  0
  4 42  1  0  0  0
  4 43  1  0  0  0
  5  6  1  0  0  0
  5 44  1  0  0  0
  5 45  1  0  0  0
  6  7  1  0  0  0
  6 13  1  0  0  0
  6 46  1  0  0  0
  7  8  2  0  0  0
  7 12  1  0  0  0
  8  9  1  0  0  0
  8 47  1  0  0  0
  9 10  2  0  0  0
  9 48  1  0  0  0
 10 11  1  0  0  0
 10 49  1  0  0  0
 11 12  2  0  0  0
 11 50  1  0  0  0
 12 51  1  0  0  0
 13 14  1  0  0  0
 13 17  1  0  0  0
 14 15  2  0  0  0
 14 52  1  0  0  0
 15 16  1  0  0  0
 15 18  1  0  0  0
 16 17  2  0  0  0
 16 53  1  0  0  0
 18 19  1  0  0  0
 18 54  1  0  0  0
 19 20  2  0  0  0
 19 21  1  0  0  0
 21 22  2  0  0  0
 21 29  1  0  0  0
 22 23  1  0  0  0
 22 27  1  0  0  0
 23 24  2  0  0  0
 23 55  1  0  0  0
 24 25  1  0  0  0
 24 56  1  0  0  0
 25 26  1  0  0  0
 25 30  1  0  0  0
 26 27  2  0  0  0
 26 57  1  0  0  0
 27 28  1  0  0  0
 28 29  2  0  0  0
 30 31  2  0  0  0
 30 34  1  0  0  0
 31 32  1  0  0  0
 31 58  1  0  0  0
 32 33  1  0  0  0
 32 60  1  0  0  0
 33 34  2  0  0  0
 34 59  1  0  0  0
M  CHG  2   2   1  32   1
M  END
> <s_m_source_file>
../4ppc_ligand.sdf

> <i_m_source_file_index>
1

> <s_epik_input>
W2NIXTFbY0hdW2NIXVtjSF1bY0hdYzFbQ0BASF0oW0NIMl1bQ0gyXVtOSCtdKFtDSDNdKVtDSDNdKW4yW2NIXWMoW2NIXW4yKVtOSF1DKD1PKUM9M049TkMoQzM0KT1bQ0hdW0NIXShbQ0hdPVtDSF00KWM1W2NIXVtuSF1uW2NIXTU=

> <s_epik_cmdline>
J2VwaWtfYXBwJywgJy1pbWFlJywgJ2xpZ2FuZF9wcm8ubWFlJywgJy1vbWFlJywgJ2xpZ2FuZF9wcmVwLm1hZScsICctbXMnLCAnMScsICctcGgnLCAnNycsICctcGh0JywgJzAuNScsICctbnQn

> <r_epik_Ionization_Penalty>
  0.0059

> <r_epik_Ionization_Penalty_Charging>
  0.0058

> <r_epik_Ionization_Penalty_Neutral>
  0.0000

> <r_epik_State_Penalty>
  0.4107

> <r_epik_Charging_Adjusted_Penalty>
0.41649165871041

> <i_epik_Tot_Q>
2

> <i_epik_Tot_abs_Q>
2

> <s_epik_Chemistry_Notes>
This compound has an imine and may undergo hydrolysis.

$$$$
