4pqn_ligand
                    3D
 Schrodinger Suite 2020-3.
 63 66  0  0  1  0            999 V2000
  -14.6120   22.1410   33.1690 C   0  0  0  0  0  0
  -15.0530   21.9850   31.8420 C   0  0  0  0  0  0
  -14.3850   22.5940   30.8040 C   0  0  0  0  0  0
  -13.2030   23.2800   31.0650 C   0  0  0  0  0  0
  -12.7430   23.4280   32.3770 C   0  0  0  0  0  0
  -13.4640   22.8590   33.4320 C   0  0  0  0  0  0
  -14.8360   22.4380   29.3840 C   0  0  2  0  0  0
  -15.8750   23.4840   28.9660 C   0  0  0  0  0  0
  -16.0610   23.4440   27.4260 C   0  0  0  0  0  0
  -17.1260   24.3630   26.9830 N   0  3  0  0  0  0
  -17.4490   24.1670   25.5460 C   0  0  0  0  0  0
  -16.6960   25.7590   27.2080 C   0  0  0  0  0  0
  -15.2140   21.0050   29.1760 N   0  0  0  0  0  0
  -16.4980   20.5740   29.2870 N   0  0  0  0  0  0
  -16.4820   19.2400   29.0860 C   0  0  0  0  0  0
  -15.1630   18.8190   28.8820 C   0  0  0  0  0  0
  -14.4100   19.9640   28.9400 C   0  0  0  0  0  0
  -14.6460   17.5580   28.6340 N   0  0  0  0  0  0
  -15.2980   16.4110   28.6550 C   0  0  0  0  0  0
  -16.5070   16.3140   28.8320 O   0  0  0  0  0  0
  -14.4890   15.1670   28.5370 C   0  0  0  0  0  0
  -15.0580   13.8400   28.3950 C   0  0  0  0  0  0
  -13.9300   12.9450   28.3290 C   0  0  3  0  0  0
  -12.8430   13.7120   28.4780 N   0  0  0  0  0  0
  -13.1550   15.0530   28.6060 N   0  0  0  0  0  0
  -14.0500   11.4700   28.1630 C   0  0  0  0  0  0
  -15.4730   11.0070   28.4320 C   0  0  0  0  0  0
  -16.5150   11.9290   27.7810 C   0  0  0  0  0  0
  -16.4820   13.3720   28.2450 C   0  0  0  0  0  0
  -15.6200    9.6000   27.8900 C   0  0  0  0  0  0
  -15.7600   10.9770   29.9420 C   0  0  0  0  0  0
  -15.1766   21.6952   33.9879 H   0  0  0  0  0  0
  -15.9325   21.3757   31.6339 H   0  0  0  0  0  0
  -12.6312   23.7053   30.2402 H   0  0  0  0  0  0
  -11.8270   23.9841   32.5768 H   0  0  0  0  0  0
  -13.1197   22.9826   34.4588 H   0  0  0  0  0  0
  -14.0004   22.6378   28.6971 H   0  0  0  0  0  0
  -16.8347   23.2639   29.4565 H   0  0  0  0  0  0
  -15.5301   24.4842   29.2673 H   0  0  0  0  0  0
  -15.1218   23.7393   26.9355 H   0  0  0  0  0  0
  -16.3318   22.4240   27.1157 H   0  0  0  0  0  0
  -18.0278   24.1468   27.5747 H   0  0  0  0  0  0
  -17.7688   23.1276   25.3805 H   0  0  0  0  0  0
  -16.5570   24.3775   24.9377 H   0  0  0  0  0  0
  -18.2603   24.8508   25.2560 H   0  0  0  0  0  0
  -16.4574   25.9021   28.2722 H   0  0  0  0  0  0
  -17.5070   26.4436   26.9188 H   0  0  0  0  0  0
  -15.8036   25.9702   26.6005 H   0  0  0  0  0  0
  -17.3585   18.5921   29.0830 H   0  0  0  0  0  0
  -13.3286   20.0164   28.8138 H   0  0  0  0  0  0
  -13.5806   17.4391   28.3873 H   0  0  0  0  0  0
  -13.7771   11.1934   27.1339 H   0  0  0  0  0  0
  -13.3747   10.9653   28.8696 H   0  0  0  0  0  0
  -16.3592   11.9472   26.6922 H   0  0  0  0  0  0
  -17.5252   11.5532   28.0005 H   0  0  0  0  0  0
  -16.9975   13.4498   29.2136 H   0  0  0  0  0  0
  -16.9981   13.9997   27.5036 H   0  0  0  0  0  0
  -15.4181    9.6007   26.8087 H   0  0  0  0  0  0
  -16.6442    9.2423   28.0716 H   0  0  0  0  0  0
  -14.9043    8.9355   28.3962 H   0  0  0  0  0  0
  -15.6581   11.9915   30.3548 H   0  0  0  0  0  0
  -15.0437   10.3056   30.4381 H   0  0  0  0  0  0
  -16.7836   10.6124   30.1135 H   0  0  0  0  0  0
  1  2  2  0  0  0
  1  6  1  0  0  0
  1 32  1  0  0  0
  2  3  1  0  0  0
  2 33  1  0  0  0
  3  4  2  0  0  0
  3  7  1  0  0  0
  4  5  1  0  0  0
  4 34  1  0  0  0
  5  6  2  0  0  0
  5 35  1  0  0  0
  6 36  1  0  0  0
  7  8  1  0  0  0
  7 13  1  0  0  0
  7 37  1  0  0  0
  8  9  1  0  0  0
  8 38  1  0  0  0
  8 39  1  0  0  0
  9 10  1  0  0  0
  9 40  1  0  0  0
  9 41  1  0  0  0
 10 11  1  0  0  0
 10 12  1  0  0  0
 10 42  1  0  0  0
 11 43  1  0  0  0
 11 44  1  0  0  0
 11 45  1  0  0  0
 12 46  1  0  0  0
 12 47  1  0  0  0
 12 48  1  0  0  0
 13 14  1  0  0  0
 13 17  1  0  0  0
 14 15  2  0  0  0
 15 16  1  0  0  0
 15 49  1  0  0  0
 16 17  2  0  0  0
 16 18  1  0  0  0
 17 50  1  0  0  0
 18 19  1  0  0  0
 18 51  1  0  0  0
 19 20  2  0  0  0
 19 21  1  0  0  0
 21 22  2  0  0  0
 21 25  1  0  0  0
 22 23  1  0  0  0
 22 29  1  0  0  0
 23 24  1  0  0  0
 23 26  1  0  0  0
 24 25  2  0  0  0
 26 27  1  0  0  0
 26 52  1  0  0  0
 26 53  1  0  0  0
 27 28  1  0  0  0
 27 30  1  0  0  0
 27 31  1  0  0  0
 28 29  1  0  0  0
 28 54  1  0  0  0
 28 55  1  0  0  0
 29 56  1  0  0  0
 29 57  1  0  0  0
 30 58  1  0  0  0
 30 59  1  0  0  0
 30 60  1  0  0  0
 31 61  1  0  0  0
 31 62  1  0  0  0
 31 63  1  0  0  0
M  CHG  1  10   1
M  END
> <s_m_source_file>
../4pqn_ligand.sdf

> <i_m_source_file_index>
1

> <s_epik_input>
W2NIXTFbY0hdW2NIXVtjSF1bY0hdYzFbQ0BIXShbQ0gyXVtDSDJdW05IK10oW0NIM10pW0NIM10pbjJuW2NIXWMoW2NIXTIpW05IXUMoPU8pQz0zTj1OW0NIXShDMzQpW0NIMl1DKFtDSDNdKShbQ0gzXSlbQ0gyXVtDSDJdNA==

> <s_epik_cmdline>
J2VwaWtfYXBwJywgJy1pbWFlJywgJ2xpZ2FuZF9wcm8ubWFlJywgJy1vbWFlJywgJ2xpZ2FuZF9wcmVwLm1hZScsICctbXMnLCAnMScsICctcGgnLCAnNycsICctcGh0JywgJzAuNScsICctbnQn

> <r_lp_tautomer_probability>
1

> <r_epik_Ionization_Penalty>
  0.0058

> <r_epik_Ionization_Penalty_Charging>
  0.0058

> <r_epik_Ionization_Penalty_Neutral>
  0.0000

> <r_epik_State_Penalty>
 -0.0000

> <r_epik_Charging_Adjusted_Penalty>
0.00581181975780569

> <i_epik_Tot_Q>
1

> <i_epik_Tot_abs_Q>
1

$$$$
