4pr5_ligand
                    3D
 Schrodinger Suite 2020-3.
171175  0  0  1  0            999 V2000
   13.1260  -14.1070  -36.3500 N   0  3  0  0  0  0
   12.1140  -13.4940  -37.2170 C   0  0  2  0  0  0
   10.7300  -13.8360  -36.6740 C   0  0  0  0  0  0
   10.4850  -14.9810  -36.2820 O   0  0  0  0  0  0
   12.2680  -14.0560  -38.6370 C   0  0  0  0  0  0
   11.5300  -13.2880  -39.6930 C   0  0  0  0  0  0
   10.1540  -13.2290  -39.7500 N   0  0  0  0  0  0
   11.9810  -12.5940  -40.7670 C   0  0  0  0  0  0
    9.7880  -12.5170  -40.8020 C   0  0  0  0  0  0
   10.8780  -12.1190  -41.4350 N   0  0  0  0  0  0
    9.8090  -12.8560  -36.6490 N   0  0  0  0  0  0
    8.5010  -13.1440  -36.0520 C   0  0  2  0  0  0
    7.6050  -13.9260  -37.0000 C   0  0  0  0  0  0
    7.8650  -14.0010  -38.2060 O   0  0  0  0  0  0
    7.9050  -11.7430  -35.8390 C   0  0  0  0  0  0
    8.5090  -10.9290  -36.9300 C   0  0  0  0  0  0
    9.9410  -11.4310  -37.0050 C   0  0  0  0  0  0
    6.5350  -14.4870  -36.4590 N   0  0  0  0  0  0
    5.5960  -15.2180  -37.2930 C   0  0  2  0  0  0
    4.7230  -14.2060  -38.0460 C   0  0  0  0  0  0
    4.4280  -13.1250  -37.5350 O   0  0  0  0  0  0
    4.7520  -16.2200  -36.4690 C   0  0  0  0  0  0
    3.8260  -15.4860  -35.4880 C   0  0  0  0  0  0
    3.9490  -17.1360  -37.3970 C   0  0  0  0  0  0
    4.3500  -14.5360  -39.2790 N   0  0  0  0  0  0
    3.5090  -13.6530  -40.0650 C   0  0  0  0  0  0
    2.0490  -14.0470  -39.9410 C   0  0  0  0  0  0
    1.4470  -14.4940  -40.9170 O   0  0  0  0  0  0
    1.4890  -13.8820  -38.7380 N   0  0  0  0  0  0
    0.1280  -14.3370  -38.4240 C   0  0  2  0  0  0
   -0.8580  -13.1870  -38.3470 C   0  0  0  0  0  0
   -2.0070  -13.3660  -37.9280 O   0  0  0  0  0  0
    0.0820  -15.1320  -37.1000 C   0  0  0  0  0  0
    0.5030  -14.3040  -35.8860 C   0  0  0  0  0  0
    0.5350  -14.8800  -34.7700 O   0  0  0  0  0  0
    0.8090  -13.0930  -36.0370 O   0  0  0  0  0  0
   -0.4060  -12.0080  -38.7480 N   0  0  0  0  0  0
   -1.2160  -10.8170  -38.5760 C   0  0  2  0  0  0
   -2.5900  -10.9380  -39.2470 C   0  0  0  0  0  0
   -3.5680  -10.3430  -38.7840 O   0  0  0  0  0  0
   -0.4640   -9.6030  -39.0940 C   0  0  0  0  0  0
   -2.6740  -11.7300  -40.3130 N   0  0  0  0  0  0
   -3.9230  -11.8520  -41.0670 C   0  0  2  0  0  0
   -4.8840  -12.9300  -40.5450 C   0  0  0  0  0  0
   -5.9600  -13.1230  -41.1150 O   0  0  0  0  0  0
   -3.6430  -12.0670  -42.5600 C   0  0  0  0  0  0
   -3.1550  -10.8020  -43.2570 C   0  0  0  0  0  0
   -3.4450   -9.6870  -42.7640 O   0  0  0  0  0  0
   -2.4860  -10.9230  -44.3050 O   0  0  0  0  0  0
   -4.5170  -13.6220  -39.4670 N   0  0  0  0  0  0
   -5.3950  -14.6640  -38.9130 C   0  0  2  0  0  0
   -5.4290  -14.7690  -37.3800 C   0  0  0  0  0  0
   -6.1960  -15.5620  -36.8290 O   0  0  0  0  0  0
   -5.0970  -16.0440  -39.5290 C   0  0  0  0  0  0
   -3.6880  -16.5660  -39.3310 C   0  0  0  0  0  0
   -2.7830  -16.5950  -40.3930 C   0  0  0  0  0  0
   -3.2630  -17.0480  -38.0900 C   0  0  0  0  0  0
   -1.4940  -17.0800  -40.2220 C   0  0  0  0  0  0
   -1.9720  -17.5350  -37.9130 C   0  0  0  0  0  0
   -1.0930  -17.5460  -38.9820 C   0  0  0  0  0  0
    0.1900  -18.0250  -38.8220 O   0  0  0  0  0  0
   -4.6150  -13.9690  -36.6960 N   0  0  0  0  0  0
   -4.4840  -14.1100  -35.2460 C   0  0  2  0  0  0
   -5.3580  -13.1180  -34.4750 C   0  0  0  0  0  0
   -4.9580  -12.6470  -33.4090 O   0  0  0  0  0  0
   -3.0120  -13.9820  -34.8160 C   0  0  0  0  0  0
   -2.6650  -14.7260  -33.5380 C   0  0  0  0  0  0
   -2.3380  -14.0320  -32.3740 C   0  0  0  0  0  0
   -2.6370  -16.1130  -33.5080 C   0  0  0  0  0  0
   -2.0070  -14.7000  -31.2060 C   0  0  0  0  0  0
   -2.3010  -16.8000  -32.3340 C   0  0  0  0  0  0
   -1.9790  -16.0970  -31.1860 C   0  0  0  0  0  0
   -6.5380  -12.7980  -35.0020 N   0  0  0  0  0  0
   -7.4530  -11.9010  -34.2900 C   0  0  2  0  0  0
   -8.1450  -12.6700  -33.1750 C   0  0  0  0  0  0
   -8.7100  -13.7360  -33.4180 O   0  0  0  0  0  0
   -8.4910  -11.2990  -35.2360 C   0  0  0  0  0  0
   -9.4450  -10.3380  -34.5420 C   0  0  0  0  0  0
  -10.3550   -9.5650  -35.5020 C   0  0  0  0  0  0
  -11.5370   -9.3610  -35.1550 O   0  0  0  0  0  0
   -9.8910   -9.1400  -36.5820 O   0  0  0  0  0  0
   -8.0800  -12.1540  -31.9490 N   0  0  0  0  0  0
   -8.6720  -12.8510  -30.8050 C   0  0  2  0  0  0
  -10.1920  -12.8010  -30.8490 C   0  0  0  0  0  0
  -10.8560  -13.5010  -30.0950 O   0  0  0  0  0  0
   -8.2010  -12.2520  -29.4780 C   0  0  0  0  0  0
   -6.7250  -12.4230  -29.1720 C   0  0  0  0  0  0
   -5.7520  -11.9100  -30.0220 C   0  0  0  0  0  0
   -6.3090  -13.0690  -28.0140 C   0  0  0  0  0  0
   -4.4080  -12.0450  -29.7390 C   0  0  0  0  0  0
   -4.9490  -13.2100  -27.7170 C   0  0  0  0  0  0
   -4.0130  -12.6910  -28.5870 C   0  0  0  0  0  0
   -2.6750  -12.8280  -28.3060 O   0  0  0  0  0  0
  -10.7810  -12.0630  -31.6390 O   0  0  0  0  0  0
   13.0234  -13.7100  -35.3293 H   0  0  0  0  0  0
   14.1294  -13.8729  -36.7354 H   0  0  0  0  0  0
   12.9841  -15.1977  -36.3352 H   0  0  0  0  0  0
   12.2705  -12.4052  -37.2098 H   0  0  0  0  0  0
   13.3308  -14.0495  -38.9206 H   0  0  0  0  0  0
   11.8869  -15.0875  -38.6665 H   0  0  0  0  0  0
   12.9901  -12.3755  -41.1464 H   0  0  0  0  0  0
    8.7623  -12.2958  -41.0971 H   0  0  0  0  0  0
    8.6258  -13.7591  -35.1486 H   0  0  0  0  0  0
    6.8090  -11.7950  -35.9172 H   0  0  0  0  0  0
    8.1843  -11.3735  -34.8413 H   0  0  0  0  0  0
    7.9572  -11.1028  -37.8656 H   0  0  0  0  0  0
    8.4548   -9.8628  -36.6650 H   0  0  0  0  0  0
   10.6033  -10.9323  -36.2820 H   0  0  0  0  0  0
   10.3684  -11.3434  -38.0148 H   0  0  0  0  0  0
    6.3570  -14.3994  -35.3770 H   0  0  0  0  0  0
    6.2052  -15.7982  -38.0017 H   0  0  0  0  0  0
    5.4319  -16.8500  -35.8767 H   0  0  0  0  0  0
    4.4259  -14.8360  -34.8341 H   0  0  0  0  0  0
    3.2833  -16.2215  -34.8760 H   0  0  0  0  0  0
    3.1055  -14.8748  -36.0514 H   0  0  0  0  0  0
    4.6338  -17.6490  -38.0883 H   0  0  0  0  0  0
    3.2293  -16.5352  -37.9723 H   0  0  0  0  0  0
    3.4071  -17.8818  -36.7969 H   0  0  0  0  0  0
    4.6882  -15.4937  -39.7015 H   0  0  0  0  0  0
    3.6286  -12.6193  -39.7084 H   0  0  0  0  0  0
    3.8033  -13.7122  -41.1232 H   0  0  0  0  0  0
    2.0932  -13.3814  -37.9670 H   0  0  0  0  0  0
   -0.1314  -14.9757  -39.2812 H   0  0  0  0  0  0
   -0.9437  -15.4868  -36.9208 H   0  0  0  0  0  0
    0.7619  -15.9942  -37.1662 H   0  0  0  0  0  0
    1.1130  -12.4901  -35.1686 H   0  0  0  0  0  0
    0.5881  -11.9346  -39.2131 H   0  0  0  0  0  0
   -1.3661  -10.7387  -37.4891 H   0  0  0  0  0  0
    0.5158   -9.5395  -38.5980 H   0  0  0  0  0  0
   -1.0437   -8.6933  -38.8787 H   0  0  0  0  0  0
   -0.3196   -9.6972  -40.1804 H   0  0  0  0  0  0
   -1.7854  -12.2983  -40.6251 H   0  0  0  0  0  0
   -4.3965  -10.8758  -40.8861 H   0  0  0  0  0  0
   -2.8674  -12.8377  -42.6803 H   0  0  0  0  0  0
   -4.5653  -12.3934  -43.0628 H   0  0  0  0  0  0
   -3.1017   -8.7634  -43.2529 H   0  0  0  0  0  0
   -3.5485  -13.4086  -38.9910 H   0  0  0  0  0  0
   -6.3783  -14.2826  -39.2255 H   0  0  0  0  0  0
   -5.7675  -16.7955  -39.0866 H   0  0  0  0  0  0
   -5.2589  -16.0029  -40.6162 H   0  0  0  0  0  0
   -3.0935  -16.2309  -41.3724 H   0  0  0  0  0  0
   -3.9542  -17.0423  -37.2472 H   0  0  0  0  0  0
   -0.7994  -17.0939  -41.0619 H   0  0  0  0  0  0
   -1.6546  -17.9057  -36.9383 H   0  0  0  0  0  0
    0.8849  -18.0317  -39.6747 H   0  0  0  0  0  0
   -4.0385  -13.1978  -37.2279 H   0  0  0  0  0  0
   -4.8596  -15.1243  -35.0457 H   0  0  0  0  0  0
   -2.3625  -14.3838  -35.6077 H   0  0  0  0  0  0
   -2.7704  -12.9224  -34.6461 H   0  0  0  0  0  0
   -2.3428  -12.9420  -32.3829 H   0  0  0  0  0  0
   -2.8796  -16.6755  -34.4096 H   0  0  0  0  0  0
   -1.7688  -14.1365  -30.3039 H   0  0  0  0  0  0
   -2.2932  -17.8899  -32.3247 H   0  0  0  0  0  0
   -1.7060  -16.6284  -30.2743 H   0  0  0  0  0  0
   -6.8242  -13.2126  -35.9799 H   0  0  0  0  0  0
   -6.8331  -11.0916  -33.8770 H   0  0  0  0  0  0
   -7.9796  -10.7419  -36.0348 H   0  0  0  0  0  0
   -9.0942  -12.1050  -35.6794 H   0  0  0  0  0  0
  -10.0970  -10.8996  -33.8567 H   0  0  0  0  0  0
   -8.8672   -9.5953  -33.9722 H   0  0  0  0  0  0
  -10.5371   -8.5840  -37.2773 H   0  0  0  0  0  0
   -7.5721  -11.1893  -31.8026 H   0  0  0  0  0  0
   -8.3200  -13.8877  -30.9121 H   0  0  0  0  0  0
   -8.3951  -11.1693  -29.4750 H   0  0  0  0  0  0
   -8.7468  -12.7246  -28.6481 H   0  0  0  0  0  0
   -6.0568  -11.3905  -30.9305 H   0  0  0  0  0  0
   -7.0532  -13.4718  -27.3270 H   0  0  0  0  0  0
   -3.6616  -11.6424  -30.4238 H   0  0  0  0  0  0
   -4.6330  -13.7238  -26.8091 H   0  0  0  0  0  0
   -1.9232  -12.4165  -28.9956 H   0  0  0  0  0  0
  -11.8807  -12.0409  -31.6556 H   0  0  0  0  0  0
  1  2  1  0  0  0
  1 95  1  0  0  0
  1 96  1  0  0  0
  1 97  1  0  0  0
  2  3  1  0  0  0
  2  5  1  0  0  0
  2 98  1  0  0  0
  3  4  2  0  0  0
  3 11  1  0  0  0
  5  6  1  0  0  0
  5 99  1  0  0  0
  5100  1  0  0  0
  6  7  2  0  0  0
  6  8  1  0  0  0
  7  9  1  0  0  0
  8 10  2  0  0  0
  8101  1  0  0  0
  9 10  1  0  0  0
  9102  1  0  0  0
 11 12  1  0  0  0
 11 17  1  0  0  0
 12 13  1  0  0  0
 12 15  1  0  0  0
 12103  1  0  0  0
 13 14  2  0  0  0
 13 18  1  0  0  0
 15 16  1  0  0  0
 15104  1  0  0  0
 15105  1  0  0  0
 16 17  1  0  0  0
 16106  1  0  0  0
 16107  1  0  0  0
 17108  1  0  0  0
 17109  1  0  0  0
 18 19  1  0  0  0
 18110  1  0  0  0
 19 20  1  0  0  0
 19 22  1  0  0  0
 19111  1  0  0  0
 20 21  2  0  0  0
 20 25  1  0  0  0
 22 23  1  0  0  0
 22 24  1  0  0  0
 22112  1  0  0  0
 23113  1  0  0  0
 23114  1  0  0  0
 23115  1  0  0  0
 24116  1  0  0  0
 24117  1  0  0  0
 24118  1  0  0  0
 25 26  1  0  0  0
 25119  1  0  0  0
 26 27  1  0  0  0
 26120  1  0  0  0
 26121  1  0  0  0
 27 28  2  0  0  0
 27 29  1  0  0  0
 29 30  1  0  0  0
 29122  1  0  0  0
 30 31  1  0  0  0
 30 33  1  0  0  0
 30123  1  0  0  0
 31 32  2  0  0  0
 31 37  1  0  0  0
 33 34  1  0  0  0
 33124  1  0  0  0
 33125  1  0  0  0
 34 35  2  0  0  0
 34 36  1  0  0  0
 36126  1  0  0  0
 37 38  1  0  0  0
 37127  1  0  0  0
 38 39  1  0  0  0
 38 41  1  0  0  0
 38128  1  0  0  0
 39 40  2  0  0  0
 39 42  1  0  0  0
 41129  1  0  0  0
 41130  1  0  0  0
 41131  1  0  0  0
 42 43  1  0  0  0
 42132  1  0  0  0
 43 44  1  0  0  0
 43 46  1  0  0  0
 43133  1  0  0  0
 44 45  2  0  0  0
 44 50  1  0  0  0
 46 47  1  0  0  0
 46134  1  0  0  0
 46135  1  0  0  0
 47 48  1  0  0  0
 47 49  2  0  0  0
 48136  1  0  0  0
 50 51  1  0  0  0
 50137  1  0  0  0
 51 52  1  0  0  0
 51 54  1  0  0  0
 51138  1  0  0  0
 52 53  2  0  0  0
 52 62  1  0  0  0
 54 55  1  0  0  0
 54139  1  0  0  0
 54140  1  0  0  0
 55 56  2  0  0  0
 55 57  1  0  0  0
 56 58  1  0  0  0
 56141  1  0  0  0
 57 59  2  0  0  0
 57142  1  0  0  0
 58 60  2  0  0  0
 58143  1  0  0  0
 59 60  1  0  0  0
 59144  1  0  0  0
 60 61  1  0  0  0
 61145  1  0  0  0
 62 63  1  0  0  0
 62146  1  0  0  0
 63 64  1  0  0  0
 63 66  1  0  0  0
 63147  1  0  0  0
 64 65  2  0  0  0
 64 73  1  0  0  0
 66 67  1  0  0  0
 66148  1  0  0  0
 66149  1  0  0  0
 67 68  2  0  0  0
 67 69  1  0  0  0
 68 70  1  0  0  0
 68150  1  0  0  0
 69 71  2  0  0  0
 69151  1  0  0  0
 70 72  2  0  0  0
 70152  1  0  0  0
 71 72  1  0  0  0
 71153  1  0  0  0
 72154  1  0  0  0
 73 74  1  0  0  0
 73155  1  0  0  0
 74 75  1  0  0  0
 74 77  1  0  0  0
 74156  1  0  0  0
 75 76  2  0  0  0
 75 82  1  0  0  0
 77 78  1  0  0  0
 77157  1  0  0  0
 77158  1  0  0  0
 78 79  1  0  0  0
 78159  1  0  0  0
 78160  1  0  0  0
 79 80  2  0  0  0
 79 81  1  0  0  0
 81161  1  0  0  0
 82 83  1  0  0  0
 82162  1  0  0  0
 83 84  1  0  0  0
 83 86  1  0  0  0
 83163  1  0  0  0
 84 85  2  0  0  0
 84 94  1  0  0  0
 86 87  1  0  0  0
 86164  1  0  0  0
 86165  1  0  0  0
 87 88  2  0  0  0
 87 89  1  0  0  0
 88 90  1  0  0  0
 88166  1  0  0  0
 89 91  2  0  0  0
 89167  1  0  0  0
 90 92  2  0  0  0
 90168  1  0  0  0
 91 92  1  0  0  0
 91169  1  0  0  0
 92 93  1  0  0  0
 93170  1  0  0  0
 94171  1  0  0  0
M  CHG  1   1   1
M  END
> <s_m_source_file>
../4pr5_ligand.sdf

> <i_m_source_file_index>
1

> <s_epik_input>
W0NIXTE9TltDSDJdTj1DMVtDSDJdW0NASF0oW05IMytdKUMoPU8pTjJbQ0BASF0oW0NIMl1bQ0gyXVtDSDJdMilDKD1PKVtOSF1bQ0BASF0oW0NIXShbQ0gzXSlbQ0gzXSlDKD1PKVtOSF1bQ0gyXUMoPU8pW05IXVtDQEBIXShbQ0gyXUMoPU8pW09IXSlDKD1PKVtOSF1bQ0BASF0oW0NIM10pQyg9TylbTkhdW0NAQEhdKFtDSDJdQyg9TylbT0hdKUMoPU8pW05IXVtDQEBIXShbQ0gyXWMzW2NIXVtjSF1jKFtPSF0pW2NIXVtjSF0zKUMoPU8pW05IXVtDQEBIXShbQ0gyXWM0W2NIXVtjSF1bY0hdW2NIXVtjSF00KUMoPU8pW05IXVtDQEBIXShbQ0gyXVtDSDJdQyg9TylbT0hdKUMoPU8pW05IXVtDQEhdKEMoPU8pW09IXSlbQ0gyXWM1W2NIXVtjSF1jKFtPSF0pW2NIXVtjSF01

> <s_epik_cmdline>
J2VwaWtfYXBwJywgJy1pbWFlJywgJ2xpZ2FuZF9wcm8ubWFlJywgJy1vbWFlJywgJ2xpZ2FuZF9wcmVwLm1hZScsICctbXMnLCAnMScsICctcGgnLCAnNycsICctcGh0JywgJzAuNScsICctbnQn

> <s_epik_pKa_notes>
Molecule size exceeds maximum supported for generating protonation states

> <s_epik_Chemistry_Notes>
This compound has an imine and may undergo hydrolysis.

$$$$
