4pra_ligand
                    3D
 Schrodinger Suite 2020-3.
175179  0  0  1  0            999 V2000
   13.1050  -14.3760  -36.4660 N   0  3  0  0  0  0
   12.0790  -13.7950  -37.3510 C   0  0  2  0  0  0
   10.6860  -14.1240  -36.8090 C   0  0  0  0  0  0
   10.4140  -15.2710  -36.4640 O   0  0  0  0  0  0
   12.2340  -14.3880  -38.7570 C   0  0  0  0  0  0
   11.5050  -13.6390  -39.8350 C   0  0  0  0  0  0
   10.1290  -13.6260  -39.9400 N   0  0  0  0  0  0
   11.9720  -12.9250  -40.8880 C   0  0  0  0  0  0
    9.7800  -12.9130  -40.9980 C   0  0  0  0  0  0
   10.8790  -12.4770  -41.5890 N   0  0  0  0  0  0
    9.7860  -13.1250  -36.7560 N   0  0  0  0  0  0
    8.4600  -13.3650  -36.1760 C   0  0  2  0  0  0
    7.5880  -14.2160  -37.0890 C   0  0  0  0  0  0
    7.8790  -14.3190  -38.2830 O   0  0  0  0  0  0
    7.8630  -11.9500  -36.0720 C   0  0  0  0  0  0
    8.5480  -11.1880  -37.1530 C   0  0  0  0  0  0
    9.9570  -11.7260  -37.1830 C   0  0  0  0  0  0
    6.5330  -14.8120  -36.5380 N   0  0  0  0  0  0
    5.5570  -15.5100  -37.3680 C   0  0  2  0  0  0
    4.6930  -14.4500  -38.0460 C   0  0  0  0  0  0
    4.5810  -13.3280  -37.5500 O   0  0  0  0  0  0
    4.6800  -16.4990  -36.5480 C   0  0  0  0  0  0
    3.7270  -15.7530  -35.6130 C   0  0  0  0  0  0
    3.8850  -17.4290  -37.4760 C   0  0  0  0  0  0
    4.1030  -14.7930  -39.1880 N   0  0  0  0  0  0
    3.2620  -13.8500  -39.9010 C   0  0  0  0  0  0
    1.7850  -14.1890  -39.8280 C   0  0  0  0  0  0
    1.1340  -13.9670  -38.8110 O   0  0  0  0  0  0
    1.2690  -14.7390  -40.9220 N   0  0  0  0  0  0
   -0.1660  -14.9840  -41.1040 C   0  0  2  0  0  0
   -0.9140  -15.5200  -39.8770 C   0  0  0  0  0  0
   -2.0200  -15.0640  -39.5860 O   0  0  0  0  0  0
   -0.3990  -15.9210  -42.3010 C   0  0  0  0  0  0
    0.1590  -15.4010  -43.6150 C   0  0  0  0  0  0
   -0.3100  -16.2140  -44.8060 C   0  0  0  0  0  0
   -1.3900  -16.8040  -44.7800 O   0  0  0  0  0  0
    0.5030  -16.2510  -45.8570 N   0  0  0  0  0  0
   -0.3280  -16.4950  -39.1750 N   0  0  0  0  0  0
   -0.9920  -17.1210  -38.0200 C   0  0  2  0  0  0
   -1.4790  -16.0920  -37.0000 C   0  0  0  0  0  0
   -2.5610  -16.2320  -36.4250 O   0  0  0  0  0  0
   -0.0730  -18.1380  -37.3530 C   0  0  0  0  0  0
   -0.6730  -15.0530  -36.8000 N   0  0  0  0  0  0
   -0.9750  -13.9770  -35.8590 C   0  0  2  0  0  0
   -1.9810  -12.9510  -36.3870 C   0  0  0  0  0  0
   -2.4910  -12.1240  -35.6230 O   0  0  0  0  0  0
    0.3200  -13.2650  -35.4630 C   0  0  0  0  0  0
    1.1220  -14.0460  -34.4460 C   0  0  0  0  0  0
    0.7240  -15.1910  -34.1210 O   0  0  0  0  0  0
    2.1580  -13.5220  -33.9810 O   0  0  0  0  0  0
   -2.2570  -13.0060  -37.6880 N   0  0  0  0  0  0
   -3.1790  -12.0720  -38.3290 C   0  0  2  0  0  0
   -4.6220  -12.4410  -38.0410 C   0  0  0  0  0  0
   -5.5550  -11.8270  -38.5730 O   0  0  0  0  0  0
   -2.9550  -12.0530  -39.8390 C   0  0  0  0  0  0
   -1.5840  -11.5720  -40.2390 C   0  0  0  0  0  0
   -0.6800  -11.1070  -39.2810 C   0  0  0  0  0  0
   -1.1920  -11.5720  -41.5740 C   0  0  0  0  0  0
    0.5790  -10.6590  -39.6470 C   0  0  0  0  0  0
    0.0610  -11.1250  -41.9510 C   0  0  0  0  0  0
    0.9420  -10.6700  -40.9870 C   0  0  0  0  0  0
    2.1860  -10.2260  -41.3710 O   0  0  0  0  0  0
   -4.8090  -13.4540  -37.2050 N   0  0  0  0  0  0
   -6.1540  -13.8560  -36.8400 C   0  0  2  0  0  0
   -6.5810  -13.2510  -35.5100 C   0  0  0  0  0  0
   -6.0110  -13.5410  -34.4560 O   0  0  0  0  0  0
   -6.3030  -15.3800  -36.8990 C   0  0  0  0  0  0
   -6.1890  -15.9200  -38.2960 C   0  0  0  0  0  0
   -7.2750  -15.8610  -39.1620 C   0  0  0  0  0  0
   -4.9900  -16.4350  -38.7640 C   0  0  0  0  0  0
   -7.1790  -16.3340  -40.4600 C   0  0  0  0  0  0
   -4.8820  -16.9140  -40.0660 C   0  0  0  0  0  0
   -5.9800  -16.8630  -40.9160 C   0  0  0  0  0  0
   -7.5770  -12.3760  -35.5900 N   0  0  0  0  0  0
   -8.1160  -11.7120  -34.4210 C   0  0  2  0  0  0
   -8.4830  -12.7170  -33.3520 C   0  0  0  0  0  0
   -8.8780  -13.8450  -33.6460 O   0  0  0  0  0  0
   -9.3620  -10.9160  -34.8060 C   0  0  0  0  0  0
   -9.1400   -9.9560  -35.9550 C   0  0  0  0  0  0
  -10.3790   -9.1500  -36.2780 C   0  0  0  0  0  0
  -11.4140   -9.3490  -35.5990 O   0  0  0  0  0  0
  -10.3110   -8.3180  -37.2060 O   0  0  0  0  0  0
   -8.3370  -12.2990  -32.1050 N   0  0  0  0  0  0
   -8.8250  -13.0540  -30.9730 C   0  0  2  0  0  0
  -10.3540  -13.0640  -30.9980 C   0  0  0  0  0  0
  -10.9990  -13.8250  -30.2770 O   0  0  0  0  0  0
   -8.3500  -12.4070  -29.6770 C   0  0  0  0  0  0
   -6.8660  -12.5770  -29.3830 C   0  0  0  0  0  0
   -5.9010  -12.1110  -30.2620 C   0  0  0  0  0  0
   -6.4380  -13.1880  -28.2040 C   0  0  0  0  0  0
   -4.5450  -12.2560  -29.9790 C   0  0  0  0  0  0
   -5.0780  -13.3440  -27.9170 C   0  0  0  0  0  0
   -4.1460  -12.8790  -28.8090 C   0  0  0  0  0  0
   -2.8040  -13.0250  -28.5240 O   0  0  0  0  0  0
  -10.9690  -12.3020  -31.7410 O   0  0  0  0  0  0
   12.9990  -13.9544  -35.4555 H   0  0  0  0  0  0
   14.1048  -14.1394  -36.8590 H   0  0  0  0  0  0
   12.9767  -15.4677  -36.4232 H   0  0  0  0  0  0
   12.2326  -12.7059  -37.3662 H   0  0  0  0  0  0
   13.2978  -14.3947  -39.0369 H   0  0  0  0  0  0
   11.8461  -15.4173  -38.7657 H   0  0  0  0  0  0
   12.9864  -12.6749  -41.2321 H   0  0  0  0  0  0
    8.7592  -12.7180  -41.3268 H   0  0  0  0  0  0
    8.5576  -13.9139  -35.2277 H   0  0  0  0  0  0
    6.7749  -11.9989  -36.2256 H   0  0  0  0  0  0
    8.0743  -11.5352  -35.0753 H   0  0  0  0  0  0
    8.0291  -11.3592  -38.1077 H   0  0  0  0  0  0
    8.5298  -10.1146  -36.9132 H   0  0  0  0  0  0
   10.6232  -11.2065  -36.4785 H   0  0  0  0  0  0
   10.3978  -11.7014  -38.1905 H   0  0  0  0  0  0
    6.4006  -14.7749  -35.4466 H   0  0  0  0  0  0
    6.1348  -16.0908  -38.1021 H   0  0  0  0  0  0
    5.3463  -17.1148  -35.9261 H   0  0  0  0  0  0
    4.3054  -15.0900  -34.9528 H   0  0  0  0  0  0
    3.1673  -16.4788  -35.0047 H   0  0  0  0  0  0
    3.0230  -15.1537  -36.2090 H   0  0  0  0  0  0
    4.5786  -17.9607  -38.1441 H   0  0  0  0  0  0
    3.1813  -16.8337  -38.0764 H   0  0  0  0  0  0
    3.3256  -18.1588  -36.8722 H   0  0  0  0  0  0
    4.2588  -15.8047  -39.5907 H   0  0  0  0  0  0
    3.3929  -12.8453  -39.4727 H   0  0  0  0  0  0
    3.5465  -13.8355  -40.9635 H   0  0  0  0  0  0
    1.9790  -15.0146  -41.7157 H   0  0  0  0  0  0
   -0.5425  -13.9655  -41.2798 H   0  0  0  0  0  0
    0.0824  -16.8908  -42.1066 H   0  0  0  0  0  0
   -1.4793  -16.0702  -42.4450 H   0  0  0  0  0  0
   -0.1660  -14.3609  -43.7653 H   0  0  0  0  0  0
    1.2579  -15.4416  -43.5884 H   0  0  0  0  0  0
    1.4586  -15.7068  -45.8325 H   0  0  0  0  0  0
    0.2201  -16.8258  -46.7512 H   0  0  0  0  0  0
    0.6753  -16.8276  -39.4794 H   0  0  0  0  0  0
   -1.8686  -17.6313  -38.4455 H   0  0  0  0  0  0
    0.2677  -18.8698  -38.1003 H   0  0  0  0  0  0
   -0.6208  -18.6582  -36.5535 H   0  0  0  0  0  0
    0.7973  -17.6198  -36.9240 H   0  0  0  0  0  0
    0.2588  -15.0275  -37.3840 H   0  0  0  0  0  0
   -1.4419  -14.5000  -35.0113 H   0  0  0  0  0  0
    0.9486  -13.1245  -36.3547 H   0  0  0  0  0  0
    0.0804  -12.2848  -35.0252 H   0  0  0  0  0  0
    1.2884  -15.7807  -33.3836 H   0  0  0  0  0  0
   -1.7641  -13.7884  -38.2837 H   0  0  0  0  0  0
   -2.9522  -11.0914  -37.8853 H   0  0  0  0  0  0
   -3.0766  -13.0699  -40.2405 H   0  0  0  0  0  0
   -3.6889  -11.3826  -40.3102 H   0  0  0  0  0  0
   -0.9693  -11.0964  -38.2301 H   0  0  0  0  0  0
   -1.8844  -11.9305  -42.3356 H   0  0  0  0  0  0
    1.2775  -10.3015  -38.8904 H   0  0  0  0  0  0
    0.3525  -11.1312  -43.0013 H   0  0  0  0  0  0
    2.8972   -9.8612  -40.6153 H   0  0  0  0  0  0
   -3.9429  -13.9892  -36.7886 H   0  0  0  0  0  0
   -6.8067  -13.4172  -37.6090 H   0  0  0  0  0  0
   -5.5154  -15.8492  -36.2912 H   0  0  0  0  0  0
   -7.2894  -15.6675  -36.5062 H   0  0  0  0  0  0
   -8.2164  -15.4359  -38.8140 H   0  0  0  0  0  0
   -4.1224  -16.4650  -38.1049 H   0  0  0  0  0  0
   -8.0437  -16.2908  -41.1222 H   0  0  0  0  0  0
   -3.9376  -17.3286  -40.4185 H   0  0  0  0  0  0
   -5.8998  -17.2370  -41.9367 H   0  0  0  0  0  0
   -7.9933  -12.1614  -36.5853 H   0  0  0  0  0  0
   -7.3104  -11.0572  -34.0572 H   0  0  0  0  0  0
  -10.1610  -11.6091  -35.1082 H   0  0  0  0  0  0
   -9.6987  -10.3220  -33.9435 H   0  0  0  0  0  0
   -8.3348   -9.2531  -35.6951 H   0  0  0  0  0  0
   -8.8571  -10.5210  -36.8554 H   0  0  0  0  0  0
  -12.3295   -8.7775  -35.8115 H   0  0  0  0  0  0
   -7.8228  -11.3397  -31.9459 H   0  0  0  0  0  0
   -8.4124  -14.0687  -31.0743 H   0  0  0  0  0  0
  -12.0984  -13.8153  -30.3113 H   0  0  0  0  0  0
   -8.5429  -11.3247  -29.7153 H   0  0  0  0  0  0
   -8.8931  -12.8463  -28.8273 H   0  0  0  0  0  0
   -6.2076  -11.6242  -31.1878 H   0  0  0  0  0  0
   -7.1788  -13.5513  -27.4918 H   0  0  0  0  0  0
   -3.7986  -11.8792  -30.6782 H   0  0  0  0  0  0
   -4.7622  -13.8301  -26.9939 H   0  0  0  0  0  0
   -2.0479  -12.6557  -29.2325 H   0  0  0  0  0  0
  1  2  1  0  0  0
  1 96  1  0  0  0
  1 97  1  0  0  0
  1 98  1  0  0  0
  2  3  1  0  0  0
  2  5  1  0  0  0
  2 99  1  0  0  0
  3  4  2  0  0  0
  3 11  1  0  0  0
  5  6  1  0  0  0
  5100  1  0  0  0
  5101  1  0  0  0
  6  7  2  0  0  0
  6  8  1  0  0  0
  7  9  1  0  0  0
  8 10  2  0  0  0
  8102  1  0  0  0
  9 10  1  0  0  0
  9103  1  0  0  0
 11 12  1  0  0  0
 11 17  1  0  0  0
 12 13  1  0  0  0
 12 15  1  0  0  0
 12104  1  0  0  0
 13 14  2  0  0  0
 13 18  1  0  0  0
 15 16  1  0  0  0
 15105  1  0  0  0
 15106  1  0  0  0
 16 17  1  0  0  0
 16107  1  0  0  0
 16108  1  0  0  0
 17109  1  0  0  0
 17110  1  0  0  0
 18 19  1  0  0  0
 18111  1  0  0  0
 19 20  1  0  0  0
 19 22  1  0  0  0
 19112  1  0  0  0
 20 21  2  0  0  0
 20 25  1  0  0  0
 22 23  1  0  0  0
 22 24  1  0  0  0
 22113  1  0  0  0
 23114  1  0  0  0
 23115  1  0  0  0
 23116  1  0  0  0
 24117  1  0  0  0
 24118  1  0  0  0
 24119  1  0  0  0
 25 26  1  0  0  0
 25120  1  0  0  0
 26 27  1  0  0  0
 26121  1  0  0  0
 26122  1  0  0  0
 27 28  2  0  0  0
 27 29  1  0  0  0
 29 30  1  0  0  0
 29123  1  0  0  0
 30 31  1  0  0  0
 30 33  1  0  0  0
 30124  1  0  0  0
 31 32  2  0  0  0
 31 38  1  0  0  0
 33 34  1  0  0  0
 33125  1  0  0  0
 33126  1  0  0  0
 34 35  1  0  0  0
 34127  1  0  0  0
 34128  1  0  0  0
 35 36  2  0  0  0
 35 37  1  0  0  0
 37129  1  0  0  0
 37130  1  0  0  0
 38 39  1  0  0  0
 38131  1  0  0  0
 39 40  1  0  0  0
 39 42  1  0  0  0
 39132  1  0  0  0
 40 41  2  0  0  0
 40 43  1  0  0  0
 42133  1  0  0  0
 42134  1  0  0  0
 42135  1  0  0  0
 43 44  1  0  0  0
 43136  1  0  0  0
 44 45  1  0  0  0
 44 47  1  0  0  0
 44137  1  0  0  0
 45 46  2  0  0  0
 45 51  1  0  0  0
 47 48  1  0  0  0
 47138  1  0  0  0
 47139  1  0  0  0
 48 49  1  0  0  0
 48 50  2  0  0  0
 49140  1  0  0  0
 51 52  1  0  0  0
 51141  1  0  0  0
 52 53  1  0  0  0
 52 55  1  0  0  0
 52142  1  0  0  0
 53 54  2  0  0  0
 53 63  1  0  0  0
 55 56  1  0  0  0
 55143  1  0  0  0
 55144  1  0  0  0
 56 57  2  0  0  0
 56 58  1  0  0  0
 57 59  1  0  0  0
 57145  1  0  0  0
 58 60  2  0  0  0
 58146  1  0  0  0
 59 61  2  0  0  0
 59147  1  0  0  0
 60 61  1  0  0  0
 60148  1  0  0  0
 61 62  1  0  0  0
 62149  1  0  0  0
 63 64  1  0  0  0
 63150  1  0  0  0
 64 65  1  0  0  0
 64 67  1  0  0  0
 64151  1  0  0  0
 65 66  2  0  0  0
 65 74  1  0  0  0
 67 68  1  0  0  0
 67152  1  0  0  0
 67153  1  0  0  0
 68 69  2  0  0  0
 68 70  1  0  0  0
 69 71  1  0  0  0
 69154  1  0  0  0
 70 72  2  0  0  0
 70155  1  0  0  0
 71 73  2  0  0  0
 71156  1  0  0  0
 72 73  1  0  0  0
 72157  1  0  0  0
 73158  1  0  0  0
 74 75  1  0  0  0
 74159  1  0  0  0
 75 76  1  0  0  0
 75 78  1  0  0  0
 75160  1  0  0  0
 76 77  2  0  0  0
 76 83  1  0  0  0
 78 79  1  0  0  0
 78161  1  0  0  0
 78162  1  0  0  0
 79 80  1  0  0  0
 79163  1  0  0  0
 79164  1  0  0  0
 80 81  1  0  0  0
 80 82  2  0  0  0
 81165  1  0  0  0
 83 84  1  0  0  0
 83166  1  0  0  0
 84 85  1  0  0  0
 84 87  1  0  0  0
 84167  1  0  0  0
 85 86  1  0  0  0
 85 95  2  0  0  0
 86168  1  0  0  0
 87 88  1  0  0  0
 87169  1  0  0  0
 87170  1  0  0  0
 88 89  2  0  0  0
 88 90  1  0  0  0
 89 91  1  0  0  0
 89171  1  0  0  0
 90 92  2  0  0  0
 90172  1  0  0  0
 91 93  2  0  0  0
 91173  1  0  0  0
 92 93  1  0  0  0
 92174  1  0  0  0
 93 94  1  0  0  0
 94175  1  0  0  0
M  CHG  1   1   1
M  END
> <s_m_source_file>
../4pra_ligand.sdf

> <i_m_source_file_index>
1

> <s_epik_input>
W0NIXTE9TltDSDJdTj1DMVtDSDJdW0NASF0oW05IMytdKUMoPU8pTjJbQ0BASF0oW0NIMl1bQ0gyXVtDSDJdMilDKD1PKVtOSF1bQ0BASF0oW0NIXShbQ0gzXSlbQ0gzXSlDKD1PKVtOSF1bQ0gyXUMoPU8pW05IXVtDQEBIXShbQ0gyXVtDSDJdQyg9TylbTkgyXSlDKD1PKVtOSF1bQ0BASF0oW0NIM10pQyg9TylbTkhdW0NAQEhdKFtDSDJdQyg9TylbT0hdKUMoPU8pW05IXVtDQEBIXShbQ0gyXWMzW2NIXVtjSF1jKFtPSF0pW2NIXVtjSF0zKUMoPU8pW05IXVtDQEBIXShbQ0gyXWM0W2NIXVtjSF1bY0hdW2NIXVtjSF00KUMoPU8pW05IXVtDQEBIXShbQ0gyXVtDSDJdQyg9TylbT0hdKUMoPU8pW05IXVtDQEhdKEMoPU8pW09IXSlbQ0gyXWM1W2NIXVtjSF1jKFtPSF0pW2NIXVtjSF01

> <s_epik_cmdline>
J2VwaWtfYXBwJywgJy1pbWFlJywgJ2xpZ2FuZF9wcm8ubWFlJywgJy1vbWFlJywgJ2xpZ2FuZF9wcmVwLm1hZScsICctbXMnLCAnMScsICctcGgnLCAnNycsICctcGh0JywgJzAuNScsICctbnQn

> <s_epik_pKa_notes>
Molecule size exceeds maximum supported for generating protonation states

> <s_epik_Chemistry_Notes>
This compound has an imine and may undergo hydrolysis.

$$$$
