4prb_ligand
                    3D
 Schrodinger Suite 2020-3.
177181  0  0  1  0            999 V2000
  -13.0500  -14.6930   36.6150 N   0  3  0  0  0  0
  -12.0300  -14.1830   37.5320 C   0  0  2  0  0  0
  -10.6490  -14.5080   36.9700 C   0  0  0  0  0  0
  -10.3870  -15.6390   36.5870 O   0  0  0  0  0  0
  -12.1760  -14.8410   38.9080 C   0  0  0  0  0  0
  -11.4210  -14.1450   40.0020 C   0  0  0  0  0  0
  -10.0440  -14.1310   40.0680 N   0  0  0  0  0  0
  -11.8560  -13.4510   41.0820 C   0  0  0  0  0  0
   -9.6620  -13.4540   41.1370 C   0  0  0  0  0  0
  -10.7420  -13.0340   41.7720 N   0  0  0  0  0  0
   -9.7620  -13.5100   36.9040 N   0  0  0  0  0  0
   -8.4440  -13.7720   36.3180 C   0  0  2  0  0  0
   -7.5670  -14.5950   37.2460 C   0  0  0  0  0  0
   -7.8620  -14.6990   38.4360 O   0  0  0  0  0  0
   -7.8480  -12.3630   36.1740 C   0  0  0  0  0  0
   -8.5030  -11.5850   37.2590 C   0  0  0  0  0  0
   -9.9200  -12.0990   37.3010 C   0  0  0  0  0  0
   -6.5050  -15.1740   36.6980 N   0  0  0  0  0  0
   -5.5250  -15.9000   37.4920 C   0  0  2  0  0  0
   -4.6440  -14.8950   38.2230 C   0  0  0  0  0  0
   -4.3610  -13.8140   37.7070 O   0  0  0  0  0  0
   -4.6890  -16.8640   36.6170 C   0  0  0  0  0  0
   -3.7710  -16.0950   35.6330 C   0  0  0  0  0  0
   -3.8870  -17.8600   37.4970 C   0  0  0  0  0  0
   -4.2540  -15.2330   39.4460 N   0  0  0  0  0  0
   -3.3440  -14.3930   40.2140 C   0  0  2  0  0  0
   -1.9190  -14.8530   39.9600 C   0  0  0  0  0  0
   -1.6110  -16.0420   40.0290 O   0  0  0  0  0  0
   -3.6720  -14.4560   41.6990 C   0  0  0  0  0  0
   -1.0440  -13.9150   39.6360 N   0  0  0  0  0  0
    0.3450  -14.2580   39.4270 C   0  0  2  0  0  0
    1.0570  -14.3570   40.7750 C   0  0  0  0  0  0
    0.6630  -13.6980   41.7380 O   0  0  0  0  0  0
    1.0450  -13.2110   38.5500 C   0  0  0  0  0  0
    0.3790  -12.9570   37.2020 C   0  0  0  0  0  0
    0.2760  -14.1940   36.3240 C   0  0  0  0  0  0
    1.0770  -15.1410   36.4840 O   0  0  0  0  0  0
   -0.6130  -14.2100   35.4480 O   0  0  0  0  0  0
    2.0930  -15.1870   40.8240 N   0  0  0  0  0  0
    2.9680  -15.2770   41.9870 C   0  0  2  0  0  0
    3.8140  -14.0150   42.0510 C   0  0  0  0  0  0
    4.0100  -13.3450   41.0420 O   0  0  0  0  0  0
    3.8550  -16.5010   41.8880 C   0  0  0  0  0  0
    4.3100  -13.6810   43.2350 N   0  0  0  0  0  0
    5.1770  -12.5160   43.3670 C   0  0  2  0  0  0
    6.3760  -12.6260   42.4250 C   0  0  0  0  0  0
    6.9100  -13.7160   42.2060 O   0  0  0  0  0  0
    5.6420  -12.3400   44.8160 C   0  0  0  0  0  0
    4.4930  -12.0500   45.7630 C   0  0  0  0  0  0
    3.4380  -11.5720   45.2920 O   0  0  0  0  0  0
    4.6420  -12.2980   46.9800 O   0  0  0  0  0  0
    6.7670  -11.4950   41.8460 N   0  0  0  0  0  0
    7.9710  -11.4190   41.0250 C   0  0  2  0  0  0
    7.8520  -12.2040   39.7150 C   0  0  0  0  0  0
    8.8620  -12.5740   39.1160 O   0  0  0  0  0  0
    9.1800  -11.9010   41.8320 C   0  0  0  0  0  0
    9.1320  -11.4920   43.2900 C   0  0  0  0  0  0
    8.7380  -10.2130   43.6610 C   0  0  0  0  0  0
    9.4590  -12.3940   44.2940 C   0  0  0  0  0  0
    8.6850   -9.8400   44.9900 C   0  0  0  0  0  0
    9.4090  -12.0310   45.6230 C   0  0  0  0  0  0
    9.0230  -10.7530   45.9660 C   0  0  0  0  0  0
    8.9720  -10.3890   47.2920 O   0  0  0  0  0  0
    6.6180  -12.4560   39.2790 N   0  0  0  0  0  0
    6.3710  -13.0990   37.9880 C   0  0  2  0  0  0
    6.9390  -12.2210   36.8730 C   0  0  0  0  0  0
    6.7260  -11.0110   36.8600 O   0  0  0  0  0  0
    4.8590  -13.3580   37.7940 C   0  0  0  0  0  0
    4.4670  -13.7440   36.3850 C   0  0  0  0  0  0
    3.7660  -12.8520   35.5770 C   0  0  0  0  0  0
    4.7730  -15.0010   35.8800 C   0  0  0  0  0  0
    3.3940  -13.2010   34.2840 C   0  0  0  0  0  0
    4.4090  -15.3570   34.5820 C   0  0  0  0  0  0
    3.7160  -14.4470   33.7840 C   0  0  0  0  0  0
    7.6830  -12.8360   35.9630 N   0  0  0  0  0  0
    8.2590  -12.1260   34.8340 C   0  0  2  0  0  0
    8.5630  -13.0830   33.6960 C   0  0  0  0  0  0
    8.7550  -14.2870   33.9060 O   0  0  0  0  0  0
    9.5410  -11.3900   35.2530 C   0  0  0  0  0  0
   10.7550  -12.3050   35.4550 C   0  0  0  0  0  0
   12.0390  -11.5150   35.7110 C   0  0  0  0  0  0
   11.9430  -10.2920   35.9710 O   0  0  0  0  0  0
   13.1390  -12.1110   35.6330 O   0  0  0  0  0  0
    8.5360  -12.5620   32.4900 N   0  0  0  0  0  0
    9.0110  -13.2440   31.3420 C   0  0  2  0  0  0
   10.5600  -13.2420   31.3370 C   0  0  0  0  0  0
   11.0970  -13.9500   30.5580 O   0  0  0  0  0  0
    8.4360  -12.6580   30.0240 C   0  0  0  0  0  0
    6.9270  -12.8360   29.7980 C   0  0  0  0  0  0
    6.4230  -13.3910   28.6410 C   0  0  0  0  0  0
    6.0340  -12.4080   30.7080 C   0  0  0  0  0  0
    5.0790  -13.5460   28.4310 C   0  0  0  0  0  0
    4.7000  -12.5460   30.5070 C   0  0  0  0  0  0
    4.2100  -13.1130   29.3810 C   0  0  0  0  0  0
    2.8860  -13.2190   29.2300 O   0  0  0  0  0  0
   11.1890  -12.5230   32.1190 O   0  0  0  0  0  0
  -12.9330  -14.2124   35.6325 H   0  0  0  0  0  0
  -14.0492  -14.4684   37.0164 H   0  0  0  0  0  0
  -12.9345  -15.7815   36.5068 H   0  0  0  0  0  0
  -12.1864  -13.0968   37.6069 H   0  0  0  0  0  0
  -13.2365  -14.8485   39.2002 H   0  0  0  0  0  0
  -11.8011  -15.8741   38.8621 H   0  0  0  0  0  0
  -12.8599  -13.1965   41.4528 H   0  0  0  0  0  0
   -8.6315  -13.2730   41.4427 H   0  0  0  0  0  0
   -8.5493  -14.3483   35.3870 H   0  0  0  0  0  0
   -6.7563  -12.4121   36.2993 H   0  0  0  0  0  0
   -8.0850  -11.9648   35.1764 H   0  0  0  0  0  0
   -7.9763  -11.7641   38.2079 H   0  0  0  0  0  0
   -8.4655  -10.5129   37.0155 H   0  0  0  0  0  0
  -10.5800  -11.5882   36.5844 H   0  0  0  0  0  0
  -10.3620  -12.0484   38.3070 H   0  0  0  0  0  0
   -6.3782  -15.0920   35.6084 H   0  0  0  0  0  0
   -6.0966  -16.4949   38.2195 H   0  0  0  0  0  0
   -5.3909  -17.4492   36.0048 H   0  0  0  0  0  0
   -4.3775  -15.4025   35.0308 H   0  0  0  0  0  0
   -3.2640  -16.8107   34.9691 H   0  0  0  0  0  0
   -3.0200  -15.5261   36.2007 H   0  0  0  0  0  0
   -4.5743  -18.3828   38.1784 H   0  0  0  0  0  0
   -3.1372  -17.3092   38.0839 H   0  0  0  0  0  0
   -3.3812  -18.5938   36.8523 H   0  0  0  0  0  0
   -4.6336  -16.1708   39.8779 H   0  0  0  0  0  0
   -3.4857  -13.3601   39.8631 H   0  0  0  0  0  0
   -4.7067  -14.1193   41.8606 H   0  0  0  0  0  0
   -2.9829  -13.8031   42.2547 H   0  0  0  0  0  0
   -3.5635  -15.4912   42.0549 H   0  0  0  0  0  0
   -1.3756  -12.8720   39.5257 H   0  0  0  0  0  0
    0.3277  -15.2311   38.9144 H   0  0  0  0  0  0
    1.0685  -12.2466   39.0785 H   0  0  0  0  0  0
    2.0736  -13.5384   38.3385 H   0  0  0  0  0  0
   -0.6438  -12.5853   37.3626 H   0  0  0  0  0  0
    0.9579  -12.2075   36.6424 H   0  0  0  0  0  0
    1.0037  -16.0366   35.8495 H   0  0  0  0  0  0
    2.2801  -15.8208   39.9446 H   0  0  0  0  0  0
    2.3299  -15.3722   42.8779 H   0  0  0  0  0  0
    3.2293  -17.4045   41.8426 H   0  0  0  0  0  0
    4.5093  -16.5520   42.7708 H   0  0  0  0  0  0
    4.4705  -16.4352   40.9787 H   0  0  0  0  0  0
    4.0647  -14.2871   44.1196 H   0  0  0  0  0  0
    4.5545  -11.6577   43.0741 H   0  0  0  0  0  0
    6.1375  -13.2612   45.1565 H   0  0  0  0  0  0
    6.3496  -11.4999   44.8745 H   0  0  0  0  0  0
    3.8234  -12.0964   47.6866 H   0  0  0  0  0  0
    6.1503  -10.5977   42.0022 H   0  0  0  0  0  0
    8.0616  -10.3522   40.7724 H   0  0  0  0  0  0
    9.2289  -12.9994   41.7985 H   0  0  0  0  0  0
   10.1002  -11.4797   41.4009 H   0  0  0  0  0  0
    8.4660   -9.4914   42.8906 H   0  0  0  0  0  0
    9.7605  -13.4068   44.0265 H   0  0  0  0  0  0
    8.3781   -8.8309   45.2650 H   0  0  0  0  0  0
    9.6732  -12.7504   46.3981 H   0  0  0  0  0  0
    8.6646   -9.3704   47.5713 H   0  0  0  0  0  0
    5.7722  -12.1661   39.9198 H   0  0  0  0  0  0
    6.9028  -14.0618   38.0017 H   0  0  0  0  0  0
    4.5404  -14.1798   38.4522 H   0  0  0  0  0  0
    4.2957  -12.4473   38.0456 H   0  0  0  0  0  0
    3.5056  -11.8668   35.9639 H   0  0  0  0  0  0
    5.3042  -15.7180   36.5060 H   0  0  0  0  0  0
    2.8475  -12.4902   33.6641 H   0  0  0  0  0  0
    4.6650  -16.3424   34.1926 H   0  0  0  0  0  0
    3.4293  -14.7188   32.7681 H   0  0  0  0  0  0
    7.8591  -13.9153   36.0818 H   0  0  0  0  0  0
    7.4840  -11.4116   34.5194 H   0  0  0  0  0  0
    9.8140  -10.6588   34.4779 H   0  0  0  0  0  0
    9.3692  -10.8675   36.2056 H   0  0  0  0  0  0
   10.5797  -12.9610   36.3204 H   0  0  0  0  0  0
   10.9057  -12.9185   34.5545 H   0  0  0  0  0  0
   12.8488   -9.6971   36.1598 H   0  0  0  0  0  0
    8.1204  -11.5480   32.3946 H   0  0  0  0  0  0
    8.6120  -14.2595   31.4819 H   0  0  0  0  0  0
    8.6193  -11.5738   29.9941 H   0  0  0  0  0  0
    8.9279  -13.1368   29.1645 H   0  0  0  0  0  0
    7.1180  -13.7174   27.8673 H   0  0  0  0  0  0
    6.3899  -11.9405   31.6261 H   0  0  0  0  0  0
    4.7119  -14.0098   27.5154 H   0  0  0  0  0  0
    4.0069  -12.1920   31.2702 H   0  0  0  0  0  0
    2.4712  -13.6776   28.3203 H   0  0  0  0  0  0
   12.2889  -12.5286   32.1077 H   0  0  0  0  0  0
  1  2  1  0  0  0
  1 97  1  0  0  0
  1 98  1  0  0  0
  1 99  1  0  0  0
  2  3  1  0  0  0
  2  5  1  0  0  0
  2100  1  0  0  0
  3  4  2  0  0  0
  3 11  1  0  0  0
  5  6  1  0  0  0
  5101  1  0  0  0
  5102  1  0  0  0
  6  7  2  0  0  0
  6  8  1  0  0  0
  7  9  1  0  0  0
  8 10  2  0  0  0
  8103  1  0  0  0
  9 10  1  0  0  0
  9104  1  0  0  0
 11 12  1  0  0  0
 11 17  1  0  0  0
 12 13  1  0  0  0
 12 15  1  0  0  0
 12105  1  0  0  0
 13 14  2  0  0  0
 13 18  1  0  0  0
 15 16  1  0  0  0
 15106  1  0  0  0
 15107  1  0  0  0
 16 17  1  0  0  0
 16108  1  0  0  0
 16109  1  0  0  0
 17110  1  0  0  0
 17111  1  0  0  0
 18 19  1  0  0  0
 18112  1  0  0  0
 19 20  1  0  0  0
 19 22  1  0  0  0
 19113  1  0  0  0
 20 21  2  0  0  0
 20 25  1  0  0  0
 22 23  1  0  0  0
 22 24  1  0  0  0
 22114  1  0  0  0
 23115  1  0  0  0
 23116  1  0  0  0
 23117  1  0  0  0
 24118  1  0  0  0
 24119  1  0  0  0
 24120  1  0  0  0
 25 26  1  0  0  0
 25121  1  0  0  0
 26 27  1  0  0  0
 26 29  1  0  0  0
 26122  1  0  0  0
 27 28  2  0  0  0
 27 30  1  0  0  0
 29123  1  0  0  0
 29124  1  0  0  0
 29125  1  0  0  0
 30 31  1  0  0  0
 30126  1  0  0  0
 31 32  1  0  0  0
 31 34  1  0  0  0
 31127  1  0  0  0
 32 33  2  0  0  0
 32 39  1  0  0  0
 34 35  1  0  0  0
 34128  1  0  0  0
 34129  1  0  0  0
 35 36  1  0  0  0
 35130  1  0  0  0
 35131  1  0  0  0
 36 37  1  0  0  0
 36 38  2  0  0  0
 37132  1  0  0  0
 39 40  1  0  0  0
 39133  1  0  0  0
 40 41  1  0  0  0
 40 43  1  0  0  0
 40134  1  0  0  0
 41 42  2  0  0  0
 41 44  1  0  0  0
 43135  1  0  0  0
 43136  1  0  0  0
 43137  1  0  0  0
 44 45  1  0  0  0
 44138  1  0  0  0
 45 46  1  0  0  0
 45 48  1  0  0  0
 45139  1  0  0  0
 46 47  2  0  0  0
 46 52  1  0  0  0
 48 49  1  0  0  0
 48140  1  0  0  0
 48141  1  0  0  0
 49 50  2  0  0  0
 49 51  1  0  0  0
 51142  1  0  0  0
 52 53  1  0  0  0
 52143  1  0  0  0
 53 54  1  0  0  0
 53 56  1  0  0  0
 53144  1  0  0  0
 54 55  2  0  0  0
 54 64  1  0  0  0
 56 57  1  0  0  0
 56145  1  0  0  0
 56146  1  0  0  0
 57 58  2  0  0  0
 57 59  1  0  0  0
 58 60  1  0  0  0
 58147  1  0  0  0
 59 61  2  0  0  0
 59148  1  0  0  0
 60 62  2  0  0  0
 60149  1  0  0  0
 61 62  1  0  0  0
 61150  1  0  0  0
 62 63  1  0  0  0
 63151  1  0  0  0
 64 65  1  0  0  0
 64152  1  0  0  0
 65 66  1  0  0  0
 65 68  1  0  0  0
 65153  1  0  0  0
 66 67  2  0  0  0
 66 75  1  0  0  0
 68 69  1  0  0  0
 68154  1  0  0  0
 68155  1  0  0  0
 69 70  2  0  0  0
 69 71  1  0  0  0
 70 72  1  0  0  0
 70156  1  0  0  0
 71 73  2  0  0  0
 71157  1  0  0  0
 72 74  2  0  0  0
 72158  1  0  0  0
 73 74  1  0  0  0
 73159  1  0  0  0
 74160  1  0  0  0
 75 76  1  0  0  0
 75161  1  0  0  0
 76 77  1  0  0  0
 76 79  1  0  0  0
 76162  1  0  0  0
 77 78  2  0  0  0
 77 84  1  0  0  0
 79 80  1  0  0  0
 79163  1  0  0  0
 79164  1  0  0  0
 80 81  1  0  0  0
 80165  1  0  0  0
 80166  1  0  0  0
 81 82  1  0  0  0
 81 83  2  0  0  0
 82167  1  0  0  0
 84 85  1  0  0  0
 84168  1  0  0  0
 85 86  1  0  0  0
 85 88  1  0  0  0
 85169  1  0  0  0
 86 87  2  0  0  0
 86 96  1  0  0  0
 88 89  1  0  0  0
 88170  1  0  0  0
 88171  1  0  0  0
 89 90  2  0  0  0
 89 91  1  0  0  0
 90 92  1  0  0  0
 90172  1  0  0  0
 91 93  2  0  0  0
 91173  1  0  0  0
 92 94  2  0  0  0
 92174  1  0  0  0
 93 94  1  0  0  0
 93175  1  0  0  0
 94 95  1  0  0  0
 95176  1  0  0  0
 96177  1  0  0  0
M  CHG  1   1   1
M  END
> <s_m_source_file>
../4prb_ligand.sdf

> <i_m_source_file_index>
1

> <s_epik_input>
W0NIXTE9TltDSDJdTj1DMVtDSDJdW0NASF0oW05IMytdKUMoPU8pTjJbQ0BASF0oW0NIMl1bQ0gyXVtDSDJdMilDKD1PKVtOSF1bQ0BASF0oW0NIXShbQ0gzXSlbQ0gzXSlDKD1PKVtOSF1bQ0BASF0oW0NIM10pQyg9TylbTkhdW0NAQEhdKFtDSDJdW0NIMl1DKD1PKVtPSF0pQyg9TylbTkhdW0NAQEhdKFtDSDNdKUMoPU8pW05IXVtDQEBIXShbQ0gyXUMoPU8pW09IXSlDKD1PKVtOSF1bQ0BASF0oW0NIMl1jM1tjSF1bY0hdYyhbT0hdKVtjSF1bY0hdMylDKD1PKVtOSF1bQ0BASF0oW0NIMl1jNFtjSF1bY0hdW2NIXVtjSF1bY0hdNClDKD1PKVtOSF1bQ0BASF0oW0NIMl1bQ0gyXUMoPU8pW09IXSlDKD1PKVtOSF1bQ0BIXShDKD1PKVtPSF0pW0NIMl1jNVtjSF1bY0hdYyhbT0hdKVtjSF1bY0hdNQ==

> <s_epik_cmdline>
J2VwaWtfYXBwJywgJy1pbWFlJywgJ2xpZ2FuZF9wcm8ubWFlJywgJy1vbWFlJywgJ2xpZ2FuZF9wcmVwLm1hZScsICctbXMnLCAnMScsICctcGgnLCAnNycsICctcGh0JywgJzAuNScsICctbnQn

> <s_epik_pKa_notes>
Molecule size exceeds maximum supported for generating protonation states

> <s_epik_Chemistry_Notes>
This compound has an imine and may undergo hydrolysis.

$$$$
