4prd_ligand
                    3D
 Schrodinger Suite 2020-3.
171175  0  0  1  0            999 V2000
  -13.0390  -14.6660   36.5680 N   0  3  0  0  0  0
  -12.0130  -14.1460   37.4810 C   0  0  2  0  0  0
  -10.6220  -14.4550   36.9320 C   0  0  0  0  0  0
  -10.3490  -15.5810   36.5390 O   0  0  0  0  0  0
  -12.1640  -14.8100   38.8500 C   0  0  0  0  0  0
  -11.4390  -14.1070   39.9560 C   0  0  0  0  0  0
  -10.0660  -14.1140   40.0700 N   0  0  0  0  0  0
  -11.9010  -13.3950   41.0120 C   0  0  0  0  0  0
   -9.7110  -13.4300   41.1430 C   0  0  0  0  0  0
  -10.8060  -12.9870   41.7350 N   0  0  0  0  0  0
   -9.7290  -13.4600   36.9150 N   0  0  0  0  0  0
   -8.4080  -13.6950   36.3220 C   0  0  2  0  0  0
   -7.5040  -14.5300   37.2190 C   0  0  0  0  0  0
   -7.8010  -14.7220   38.3970 O   0  0  0  0  0  0
   -7.8350  -12.2790   36.1870 C   0  0  0  0  0  0
   -8.4930  -11.5190   37.2870 C   0  0  0  0  0  0
   -9.8970  -12.0680   37.3630 C   0  0  0  0  0  0
   -6.4060  -15.0140   36.6540 N   0  0  0  0  0  0
   -5.4490  -15.8180   37.4010 C   0  0  2  0  0  0
   -4.4580  -14.9200   38.1240 C   0  0  0  0  0  0
   -4.1820  -13.8120   37.6800 O   0  0  0  0  0  0
   -4.6850  -16.7850   36.4780 C   0  0  0  0  0  0
   -3.7640  -16.0230   35.5110 C   0  0  0  0  0  0
   -3.9120  -17.8320   37.3050 C   0  0  0  0  0  0
   -3.9510  -15.3940   39.2560 N   0  0  0  0  0  0
   -2.9390  -14.6630   39.9970 C   0  0  0  0  0  0
   -1.5440  -15.1270   39.6210 C   0  0  0  0  0  0
   -1.3800  -16.0150   38.7830 O   0  0  0  0  0  0
   -0.5360  -14.5190   40.2370 N   0  0  0  0  0  0
    0.8500  -14.9230   40.0290 C   0  0  2  0  0  0
    1.5980  -14.9800   41.3550 C   0  0  0  0  0  0
    1.1740  -14.3770   42.3430 O   0  0  0  0  0  0
    1.5730  -13.9430   39.0980 C   0  0  0  0  0  0
    1.1890  -14.1240   37.6420 C   0  0  0  0  0  0
    1.5390  -15.1780   37.0670 O   0  0  0  0  0  0
    0.5610  -13.2040   37.0690 O   0  0  0  0  0  0
    2.7100  -15.7080   41.3730 N   0  0  0  0  0  0
    3.6350  -15.6170   42.4920 C   0  0  2  0  0  0
    4.2600  -14.2250   42.4620 C   0  0  0  0  0  0
    4.2330  -13.5510   41.4300 O   0  0  0  0  0  0
    4.7050  -16.6810   42.3840 C   0  0  0  0  0  0
    4.8190  -13.7890   43.5860 N   0  0  0  0  0  0
    5.4680  -12.4820   43.6370 C   0  0  2  0  0  0
    6.6340  -12.4170   42.6500 C   0  0  0  0  0  0
    7.3740  -13.3890   42.4850 O   0  0  0  0  0  0
    5.9400  -12.1610   45.0580 C   0  0  0  0  0  0
    4.7830  -11.9630   46.0260 C   0  0  0  0  0  0
    3.7370  -11.4240   45.6050 O   0  0  0  0  0  0
    4.9190  -12.3510   47.2070 O   0  0  0  0  0  0
    6.7690  -11.2770   41.9770 N   0  0  0  0  0  0
    7.8900  -11.0360   41.0690 C   0  0  2  0  0  0
    7.8770  -11.9350   39.8300 C   0  0  0  0  0  0
    8.9340  -12.2750   39.2940 O   0  0  0  0  0  0
    9.2200  -11.1880   41.8140 C   0  0  0  0  0  0
    9.3270  -10.3280   43.0530 C   0  0  0  0  0  0
    8.7680   -9.0580   43.0920 C   0  0  0  0  0  0
    9.9810  -10.7910   44.1860 C   0  0  0  0  0  0
    8.8620   -8.2710   44.2230 C   0  0  0  0  0  0
   10.0810  -10.0130   45.3220 C   0  0  0  0  0  0
    9.5200   -8.7540   45.3360 C   0  0  0  0  0  0
    9.6190   -7.9780   46.4670 O   0  0  0  0  0  0
    6.6820  -12.3210   39.3860 N   0  0  0  0  0  0
    6.5160  -13.0570   38.1330 C   0  0  2  0  0  0
    7.0450  -12.2090   36.9730 C   0  0  0  0  0  0
    6.8570  -10.9880   36.9610 O   0  0  0  0  0  0
    5.0340  -13.4080   37.9250 C   0  0  0  0  0  0
    4.6760  -13.7590   36.5030 C   0  0  0  0  0  0
    4.1120  -12.8070   35.6600 C   0  0  0  0  0  0
    4.8940  -15.0370   36.0140 C   0  0  0  0  0  0
    3.7780  -13.1180   34.3460 C   0  0  0  0  0  0
    4.5600  -15.3640   34.7000 C   0  0  0  0  0  0
    3.9970  -14.4010   33.8650 C   0  0  0  0  0  0
    7.7070  -12.8530   36.0150 N   0  0  0  0  0  0
    8.2440  -12.1540   34.8510 C   0  0  2  0  0  0
    8.5590  -13.0980   33.6950 C   0  0  0  0  0  0
    8.8310  -14.2850   33.8980 O   0  0  0  0  0  0
    9.5090  -11.3730   35.2270 C   0  0  0  0  0  0
   10.7040  -12.2550   35.5500 C   0  0  0  0  0  0
   11.9870  -11.4640   35.7120 C   0  0  0  0  0  0
   13.0700  -12.0850   35.7300 O   0  0  0  0  0  0
   11.9120  -10.2220   35.8210 O   0  0  0  0  0  0
    8.4910  -12.5620   32.4990 N   0  0  0  0  0  0
    8.9890  -13.2400   31.3430 C   0  0  2  0  0  0
   10.5520  -13.3170   31.3090 C   0  0  0  0  0  0
   11.0430  -14.0550   30.5220 O   0  0  0  0  0  0
    8.4310  -12.6590   30.0200 C   0  0  0  0  0  0
    6.9320  -12.8720   29.7240 C   0  0  0  0  0  0
    5.9700  -12.3950   30.5610 C   0  0  0  0  0  0
    6.5030  -13.4970   28.5960 C   0  0  0  0  0  0
    4.6360  -12.5470   30.2940 C   0  0  0  0  0  0
    5.1750  -13.6650   28.3180 C   0  0  0  0  0  0
    4.2280  -13.1810   29.1720 C   0  0  0  0  0  0
    2.9150  -13.3460   28.8980 O   0  0  0  0  0  0
   11.2300  -12.6380   32.0690 O   0  0  0  0  0  0
  -12.9299  -14.1880   35.5833 H   0  0  0  0  0  0
  -14.0371  -14.4452   36.9742 H   0  0  0  0  0  0
  -12.9185  -15.7543   36.4626 H   0  0  0  0  0  0
  -12.1688  -13.0592   37.5487 H   0  0  0  0  0  0
  -13.2278  -14.8386   39.1283 H   0  0  0  0  0  0
  -11.7689  -15.8356   38.8057 H   0  0  0  0  0  0
  -12.9131  -13.1216   41.3452 H   0  0  0  0  0  0
   -8.6891  -13.2601   41.4821 H   0  0  0  0  0  0
   -8.5160  -14.2597   35.3842 H   0  0  0  0  0  0
   -6.7416  -12.3133   36.3027 H   0  0  0  0  0  0
   -8.0863  -11.8748   35.1953 H   0  0  0  0  0  0
   -7.9435  -11.6830   38.2257 H   0  0  0  0  0  0
   -8.4911  -10.4462   37.0437 H   0  0  0  0  0  0
  -10.5929  -11.5473   36.6888 H   0  0  0  0  0  0
  -10.3013  -12.0583   38.3860 H   0  0  0  0  0  0
   -6.2278  -14.7932   35.5912 H   0  0  0  0  0  0
   -6.0585  -16.3794   38.1244 H   0  0  0  0  0  0
   -5.4189  -17.3232   35.8601 H   0  0  0  0  0  0
   -4.3550  -15.2891   34.9434 H   0  0  0  0  0  0
   -3.2952  -16.7337   34.8145 H   0  0  0  0  0  0
   -2.9829  -15.5010   36.0833 H   0  0  0  0  0  0
   -4.6073  -18.3515   37.9808 H   0  0  0  0  0  0
   -3.1325  -17.3293   37.8964 H   0  0  0  0  0  0
   -3.4448  -18.5620   36.6277 H   0  0  0  0  0  0
   -4.3140  -16.3627   39.6299 H   0  0  0  0  0  0
   -3.0247  -13.5894   39.7732 H   0  0  0  0  0  0
   -3.0849  -14.8256   41.0751 H   0  0  0  0  0  0
   -0.7704  -13.6892   40.9200 H   0  0  0  0  0  0
    0.7860  -15.9228   39.5747 H   0  0  0  0  0  0
    1.3226  -12.9113   39.3858 H   0  0  0  0  0  0
    2.6596  -14.0931   39.1801 H   0  0  0  0  0  0
    0.2708  -13.3107   36.0134 H   0  0  0  0  0  0
    2.9282  -16.3833   40.5326 H   0  0  0  0  0  0
    3.0677  -15.7916   43.4181 H   0  0  0  0  0  0
    4.2364  -17.6759   42.4073 H   0  0  0  0  0  0
    5.4040  -16.5850   43.2279 H   0  0  0  0  0  0
    5.2526  -16.5556   41.4383 H   0  0  0  0  0  0
    4.7893  -14.4237   44.4839 H   0  0  0  0  0  0
    4.6935  -11.7608   43.3371 H   0  0  0  0  0  0
    6.5585  -12.9890   45.4347 H   0  0  0  0  0  0
    6.5340  -11.2353   45.0467 H   0  0  0  0  0  0
    4.0978  -12.2198   47.9271 H   0  0  0  0  0  0
    6.0019  -10.5020   42.1215 H   0  0  0  0  0  0
    7.7327   -9.9992   40.7368 H   0  0  0  0  0  0
    9.3454  -12.2339   42.1307 H   0  0  0  0  0  0
   10.0481  -10.9049   41.1475 H   0  0  0  0  0  0
    8.2459   -8.6753   42.2150 H   0  0  0  0  0  0
   10.4238  -11.7870   44.1788 H   0  0  0  0  0  0
    8.4195   -7.2750   44.2366 H   0  0  0  0  0  0
   10.6003  -10.3919   46.2023 H   0  0  0  0  0  0
    9.1735   -6.9724   46.4848 H   0  0  0  0  0  0
    5.8023  -12.0684   39.9962 H   0  0  0  0  0  0
    7.1060  -13.9814   38.2192 H   0  0  0  0  0  0
    4.7720  -14.2762   38.5476 H   0  0  0  0  0  0
    4.4099  -12.5490   38.2124 H   0  0  0  0  0  0
    3.9287  -11.8003   36.0355 H   0  0  0  0  0  0
    5.3314  -15.7952   36.6635 H   0  0  0  0  0  0
    3.3458  -12.3567   33.6966 H   0  0  0  0  0  0
    4.7393  -16.3722   34.3265 H   0  0  0  0  0  0
    3.7299  -14.6543   32.8390 H   0  0  0  0  0  0
    7.8454  -13.9396   36.1163 H   0  0  0  0  0  0
    7.4283  -11.4799   34.5507 H   0  0  0  0  0  0
    9.8012  -10.7230   34.3891 H   0  0  0  0  0  0
    9.3090  -10.7572   36.1163 H   0  0  0  0  0  0
   10.5186  -12.7933   36.4912 H   0  0  0  0  0  0
   10.8552  -12.9799   34.7366 H   0  0  0  0  0  0
   12.8276   -9.6240   35.9397 H   0  0  0  0  0  0
    8.0367  -11.5652   32.3989 H   0  0  0  0  0  0
    8.5606  -14.2388   31.5128 H   0  0  0  0  0  0
    8.5774  -11.5689   30.0077 H   0  0  0  0  0  0
    8.9621  -13.1099   29.1687 H   0  0  0  0  0  0
    6.2711  -11.8764   31.4712 H   0  0  0  0  0  0
    7.2417  -13.8766   27.8901 H   0  0  0  0  0  0
    3.8968  -12.1536   30.9918 H   0  0  0  0  0  0
    4.8719  -14.1876   27.4107 H   0  0  0  0  0  0
    2.1552  -12.9538   29.5900 H   0  0  0  0  0  0
   12.3275  -12.7027   32.0335 H   0  0  0  0  0  0
  1  2  1  0  0  0
  1 95  1  0  0  0
  1 96  1  0  0  0
  1 97  1  0  0  0
  2  3  1  0  0  0
  2  5  1  0  0  0
  2 98  1  0  0  0
  3  4  2  0  0  0
  3 11  1  0  0  0
  5  6  1  0  0  0
  5 99  1  0  0  0
  5100  1  0  0  0
  6  7  2  0  0  0
  6  8  1  0  0  0
  7  9  1  0  0  0
  8 10  2  0  0  0
  8101  1  0  0  0
  9 10  1  0  0  0
  9102  1  0  0  0
 11 12  1  0  0  0
 11 17  1  0  0  0
 12 13  1  0  0  0
 12 15  1  0  0  0
 12103  1  0  0  0
 13 14  2  0  0  0
 13 18  1  0  0  0
 15 16  1  0  0  0
 15104  1  0  0  0
 15105  1  0  0  0
 16 17  1  0  0  0
 16106  1  0  0  0
 16107  1  0  0  0
 17108  1  0  0  0
 17109  1  0  0  0
 18 19  1  0  0  0
 18110  1  0  0  0
 19 20  1  0  0  0
 19 22  1  0  0  0
 19111  1  0  0  0
 20 21  2  0  0  0
 20 25  1  0  0  0
 22 23  1  0  0  0
 22 24  1  0  0  0
 22112  1  0  0  0
 23113  1  0  0  0
 23114  1  0  0  0
 23115  1  0  0  0
 24116  1  0  0  0
 24117  1  0  0  0
 24118  1  0  0  0
 25 26  1  0  0  0
 25119  1  0  0  0
 26 27  1  0  0  0
 26120  1  0  0  0
 26121  1  0  0  0
 27 28  2  0  0  0
 27 29  1  0  0  0
 29 30  1  0  0  0
 29122  1  0  0  0
 30 31  1  0  0  0
 30 33  1  0  0  0
 30123  1  0  0  0
 31 32  2  0  0  0
 31 37  1  0  0  0
 33 34  1  0  0  0
 33124  1  0  0  0
 33125  1  0  0  0
 34 35  2  0  0  0
 34 36  1  0  0  0
 36126  1  0  0  0
 37 38  1  0  0  0
 37127  1  0  0  0
 38 39  1  0  0  0
 38 41  1  0  0  0
 38128  1  0  0  0
 39 40  2  0  0  0
 39 42  1  0  0  0
 41129  1  0  0  0
 41130  1  0  0  0
 41131  1  0  0  0
 42 43  1  0  0  0
 42132  1  0  0  0
 43 44  1  0  0  0
 43 46  1  0  0  0
 43133  1  0  0  0
 44 45  2  0  0  0
 44 50  1  0  0  0
 46 47  1  0  0  0
 46134  1  0  0  0
 46135  1  0  0  0
 47 48  2  0  0  0
 47 49  1  0  0  0
 49136  1  0  0  0
 50 51  1  0  0  0
 50137  1  0  0  0
 51 52  1  0  0  0
 51 54  1  0  0  0
 51138  1  0  0  0
 52 53  2  0  0  0
 52 62  1  0  0  0
 54 55  1  0  0  0
 54139  1  0  0  0
 54140  1  0  0  0
 55 56  2  0  0  0
 55 57  1  0  0  0
 56 58  1  0  0  0
 56141  1  0  0  0
 57 59  2  0  0  0
 57142  1  0  0  0
 58 60  2  0  0  0
 58143  1  0  0  0
 59 60  1  0  0  0
 59144  1  0  0  0
 60 61  1  0  0  0
 61145  1  0  0  0
 62 63  1  0  0  0
 62146  1  0  0  0
 63 64  1  0  0  0
 63 66  1  0  0  0
 63147  1  0  0  0
 64 65  2  0  0  0
 64 73  1  0  0  0
 66 67  1  0  0  0
 66148  1  0  0  0
 66149  1  0  0  0
 67 68  2  0  0  0
 67 69  1  0  0  0
 68 70  1  0  0  0
 68150  1  0  0  0
 69 71  2  0  0  0
 69151  1  0  0  0
 70 72  2  0  0  0
 70152  1  0  0  0
 71 72  1  0  0  0
 71153  1  0  0  0
 72154  1  0  0  0
 73 74  1  0  0  0
 73155  1  0  0  0
 74 75  1  0  0  0
 74 77  1  0  0  0
 74156  1  0  0  0
 75 76  2  0  0  0
 75 82  1  0  0  0
 77 78  1  0  0  0
 77157  1  0  0  0
 77158  1  0  0  0
 78 79  1  0  0  0
 78159  1  0  0  0
 78160  1  0  0  0
 79 80  2  0  0  0
 79 81  1  0  0  0
 81161  1  0  0  0
 82 83  1  0  0  0
 82162  1  0  0  0
 83 84  1  0  0  0
 83 86  1  0  0  0
 83163  1  0  0  0
 84 85  2  0  0  0
 84 94  1  0  0  0
 86 87  1  0  0  0
 86164  1  0  0  0
 86165  1  0  0  0
 87 88  2  0  0  0
 87 89  1  0  0  0
 88 90  1  0  0  0
 88166  1  0  0  0
 89 91  2  0  0  0
 89167  1  0  0  0
 90 92  2  0  0  0
 90168  1  0  0  0
 91 92  1  0  0  0
 91169  1  0  0  0
 92 93  1  0  0  0
 93170  1  0  0  0
 94171  1  0  0  0
M  CHG  1   1   1
M  END
> <s_m_source_file>
../4prd_ligand.sdf

> <i_m_source_file_index>
1

> <s_epik_input>
W0NIXTE9TltDSDJdTj1DMVtDSDJdW0NASF0oW05IMytdKUMoPU8pTjJbQ0BASF0oW0NIMl1bQ0gyXVtDSDJdMilDKD1PKVtOSF1bQ0BASF0oW0NIXShbQ0gzXSlbQ0gzXSlDKD1PKVtOSF1bQ0gyXUMoPU8pW05IXVtDQEBIXShbQ0gyXUMoPU8pW09IXSlDKD1PKVtOSF1bQ0BASF0oW0NIM10pQyg9TylbTkhdW0NAQEhdKFtDSDJdQyg9TylbT0hdKUMoPU8pW05IXVtDQEBIXShbQ0gyXWMzW2NIXVtjSF1jKFtPSF0pW2NIXVtjSF0zKUMoPU8pW05IXVtDQEBIXShbQ0gyXWM0W2NIXVtjSF1bY0hdW2NIXVtjSF00KUMoPU8pW05IXVtDQEBIXShbQ0gyXVtDSDJdQyg9TylbT0hdKUMoPU8pW05IXVtDQEhdKEMoPU8pW09IXSlbQ0gyXWM1W2NIXVtjSF1jKFtPSF0pW2NIXVtjSF01

> <s_epik_cmdline>
J2VwaWtfYXBwJywgJy1pbWFlJywgJ2xpZ2FuZF9wcm8ubWFlJywgJy1vbWFlJywgJ2xpZ2FuZF9wcmVwLm1hZScsICctbXMnLCAnMScsICctcGgnLCAnNycsICctcGh0JywgJzAuNScsICctbnQn

> <s_epik_pKa_notes>
Molecule size exceeds maximum supported for generating protonation states

> <s_epik_Chemistry_Notes>
This compound has an imine and may undergo hydrolysis.

$$$$
