4prg_ligand
                    3D
 Schrodinger Suite 2020-3.
 89 92  0  0  1  0            999 V2000
   17.0450   61.3720    9.5360 S   0  0  0  0  0  0
   15.7050   63.5340    9.0970 C   0  0  0  0  0  0
   15.4470   62.0290    9.3860 C   0  0  2  0  0  0
   14.7380   64.2190    8.6530 O   0  0  0  0  0  0
   14.6450   61.4410   10.6070 C   0  0  0  0  0  0
   15.1760   61.4050   12.1560 C   0  0  0  0  0  0
   15.9240   62.3960   12.4020 O   0  0  0  0  0  0
   18.0200   62.8370    9.5680 C   0  0  1  0  0  0
   19.3140   62.5280    8.6420 C   0  0  0  0  0  0
   20.7210   63.2050    8.9350 C   0  0  0  0  0  0
   21.8150   62.5170    9.9040 C   0  0  0  0  0  0
   23.0330   63.1800   10.7060 C   0  0  0  0  0  0
   23.8430   64.4340   10.1730 C   0  0  0  0  0  0
   25.2850   64.9060   10.6660 C   0  0  0  0  0  0
   25.7720   66.3580   10.3200 C   0  0  0  0  0  0
   17.0270   63.9800    9.2720 N   0  0  0  0  0  0
   17.3740   65.5280    9.4060 C   0  0  0  0  0  0
   17.9660   66.3890    8.1850 C   0  0  0  0  0  0
   16.9980   67.3490    7.3670 C   0  0  0  0  0  0
   17.3930   68.2540    6.0950 C   0  0  0  0  0  0
   18.2610   69.6140    6.1620 C   0  0  0  0  0  0
   17.7350   70.8900    6.7010 C   0  0  0  0  0  0
   19.5480   69.6760    5.4740 C   0  0  0  0  0  0
   18.4360   72.1490    6.5090 C   0  0  0  0  0  0
   20.2350   70.9100    5.2810 C   0  0  0  0  0  0
   19.6840   72.1790    5.7570 C   0  0  0  0  0  0
   20.3760   73.4420    5.4510 C   0  0  0  0  0  0
   21.0540   73.5760    4.3740 O   0  5  0  0  0  0
   20.3420   74.3690    6.2940 O   0  0  0  0  0  0
   14.9190   60.4080   13.2010 N   0  0  0  0  0  0
   15.9560   60.2590   14.4260 C   0  0  0  0  0  0
   17.5710   60.3240   14.4840 C   0  0  0  0  0  0
   18.3010   60.3860   15.7750 C   0  0  0  0  0  0
   18.3720   60.1500   13.2690 C   0  0  0  0  0  0
   19.7280   60.1480   15.8290 C   0  0  0  0  0  0
   19.7970   60.0440   13.3440 C   0  0  0  0  0  0
   20.4600   59.9520   14.6060 C   0  0  0  0  0  0
   13.7400   59.3530   13.1910 C   0  0  0  0  0  0
   12.1820   59.7020   13.2590 C   0  0  0  0  0  0
   11.4090   59.8170   11.9760 C   0  0  0  0  0  0
   11.4280   59.3810   14.4740 C   0  0  0  0  0  0
   10.0020   59.4530   11.8890 C   0  0  0  0  0  0
   10.0210   59.0370   14.3800 C   0  0  0  0  0  0
    9.3160   59.0480   13.0840 C   0  0  0  0  0  0
   14.6906   61.8424    8.6095 H   0  0  0  0  0  0
   13.6969   61.9871   10.7201 H   0  0  0  0  0  0
   14.4356   60.3758   10.4294 H   0  0  0  0  0  0
   18.4961   63.2827   10.4538 H   0  0  0  0  0  0
   19.5402   61.4520    8.6754 H   0  0  0  0  0  0
   19.1021   62.8261    7.6046 H   0  0  0  0  0  0
   21.2718   63.3291    7.9910 H   0  0  0  0  0  0
   20.5645   64.1894    9.4003 H   0  0  0  0  0  0
   21.3036   62.0350   10.7503 H   0  0  0  0  0  0
   22.3814   61.7617    9.3395 H   0  0  0  0  0  0
   22.6786   63.5309   11.6864 H   0  0  0  0  0  0
   23.8276   62.4330   10.8493 H   0  0  0  0  0  0
   24.0267   64.3204    9.0944 H   0  0  0  0  0  0
   23.2602   65.3497   10.3512 H   0  0  0  0  0  0
   25.3323   64.8543   11.7638 H   0  0  0  0  0  0
   26.0536   64.2479   10.2345 H   0  0  0  0  0  0
   26.7794   66.5150   10.7329 H   0  0  0  0  0  0
   25.0782   67.0913   10.7570 H   0  0  0  0  0  0
   25.7995   66.4849    9.2277 H   0  0  0  0  0  0
   16.4647   66.0856    9.6747 H   0  0  0  0  0  0
   18.1341   65.6670   10.1889 H   0  0  0  0  0  0
   18.7594   67.0544    8.5563 H   0  0  0  0  0  0
   18.3820   65.7105    7.4257 H   0  0  0  0  0  0
   16.1716   66.7606    6.9418 H   0  0  0  0  0  0
   16.5918   68.1193    8.0390 H   0  0  0  0  0  0
   17.9861   67.6546    5.3886 H   0  0  0  0  0  0
   16.4776   68.6071    5.5978 H   0  0  0  0  0  0
   16.7972   70.8846    7.2565 H   0  0  0  0  0  0
   19.9945   68.7552    5.0986 H   0  0  0  0  0  0
   18.0286   73.0695    6.9270 H   0  0  0  0  0  0
   21.1954   70.9081    4.7656 H   0  0  0  0  0  0
   15.7548   61.0403   15.1738 H   0  0  0  0  0  0
   15.8364   59.2685   14.8893 H   0  0  0  0  0  0
   17.7570   60.6131   16.6918 H   0  0  0  0  0  0
   17.8774   60.1009   12.2989 H   0  0  0  0  0  0
   20.2438   60.1175   16.7887 H   0  0  0  0  0  0
   20.3845   60.0333   12.4259 H   0  0  0  0  0  0
   21.5269   59.7320   14.6426 H   0  0  0  0  0  0
   13.7824   58.7646   12.2626 H   0  0  0  0  0  0
   13.8419   58.6810   14.0559 H   0  0  0  0  0  0
   11.9165   60.1838   11.0838 H   0  0  0  0  0  0
   11.9223   59.4005   15.4453 H   0  0  0  0  0  0
    9.4784   59.4873   10.9336 H   0  0  0  0  0  0
    9.4752   58.7655   15.2836 H   0  0  0  0  0  0
    8.2695   58.7473   13.0332 H   0  0  0  0  0  0
  1  3  1  0  0  0
  1  8  1  0  0  0
  2  3  1  0  0  0
  2  4  2  0  0  0
  2 16  1  0  0  0
  3  5  1  0  0  0
  3 45  1  0  0  0
  5  6  1  0  0  0
  5 46  1  0  0  0
  5 47  1  0  0  0
  6  7  2  0  0  0
  6 30  1  0  0  0
  8  9  1  0  0  0
  8 16  1  0  0  0
  8 48  1  0  0  0
  9 10  1  0  0  0
  9 49  1  0  0  0
  9 50  1  0  0  0
 10 11  1  0  0  0
 10 51  1  0  0  0
 10 52  1  0  0  0
 11 12  1  0  0  0
 11 53  1  0  0  0
 11 54  1  0  0  0
 12 13  1  0  0  0
 12 55  1  0  0  0
 12 56  1  0  0  0
 13 14  1  0  0  0
 13 57  1  0  0  0
 13 58  1  0  0  0
 14 15  1  0  0  0
 14 59  1  0  0  0
 14 60  1  0  0  0
 15 61  1  0  0  0
 15 62  1  0  0  0
 15 63  1  0  0  0
 16 17  1  0  0  0
 17 18  1  0  0  0
 17 64  1  0  0  0
 17 65  1  0  0  0
 18 19  1  0  0  0
 18 66  1  0  0  0
 18 67  1  0  0  0
 19 20  1  0  0  0
 19 68  1  0  0  0
 19 69  1  0  0  0
 20 21  1  0  0  0
 20 70  1  0  0  0
 20 71  1  0  0  0
 21 22  2  0  0  0
 21 23  1  0  0  0
 22 24  1  0  0  0
 22 72  1  0  0  0
 23 25  2  0  0  0
 23 73  1  0  0  0
 24 26  2  0  0  0
 24 74  1  0  0  0
 25 26  1  0  0  0
 25 75  1  0  0  0
 26 27  1  0  0  0
 27 28  1  0  0  0
 27 29  2  0  0  0
 30 31  1  0  0  0
 30 38  1  0  0  0
 31 32  1  0  0  0
 31 76  1  0  0  0
 31 77  1  0  0  0
 32 33  2  0  0  0
 32 34  1  0  0  0
 33 35  1  0  0  0
 33 78  1  0  0  0
 34 36  2  0  0  0
 34 79  1  0  0  0
 35 37  2  0  0  0
 35 80  1  0  0  0
 36 37  1  0  0  0
 36 81  1  0  0  0
 37 82  1  0  0  0
 38 39  1  0  0  0
 38 83  1  0  0  0
 38 84  1  0  0  0
 39 40  2  0  0  0
 39 41  1  0  0  0
 40 42  1  0  0  0
 40 85  1  0  0  0
 41 43  2  0  0  0
 41 86  1  0  0  0
 42 44  2  0  0  0
 42 87  1  0  0  0
 43 44  1  0  0  0
 43 88  1  0  0  0
 44 89  1  0  0  0
M  CHG  1  28  -1
M  END
> <s_m_source_file>
../4prg_ligand.sdf

> <i_m_source_file_index>
1

> <s_epik_input>
W2NIXTFbY0hdW2NIXVtjSF1bY0hdYzFbQ0gyXU4oW0NIMl1jMltjSF1bY0hdW2NIXVtjSF1bY0hdMilDKD1PKVtDSDJdW0NAQEhdKEMzPU8pU1tDQEBIXShbQ0gyXVtDSDJdW0NIMl1bQ0gyXVtDSDJdW0NIMl1bQ0gzXSlOM1tDSDJdW0NIMl1bQ0gyXVtDSDJdYzRbY0hdW2NIXWMoW2NIXVtjSF00KUMoPU8pW09IXQ==

> <s_epik_cmdline>
J2VwaWtfYXBwJywgJy1pbWFlJywgJ2xpZ2FuZF9wcm8ubWFlJywgJy1vbWFlJywgJ2xpZ2FuZF9wcmVwLm1hZScsICctbXMnLCAnMScsICctcGgnLCAnNycsICctcGh0JywgJzAuNScsICctbnQn

> <r_lp_tautomer_probability>
1

> <r_epik_Ionization_Penalty>
  0.0012

> <r_epik_Ionization_Penalty_Charging>
  0.0012

> <r_epik_Ionization_Penalty_Neutral>
  0.0000

> <r_epik_State_Penalty>
 -0.0000

> <r_epik_Charging_Adjusted_Penalty>
0.00118303814794311

> <i_epik_Tot_Q>
-1

> <i_epik_Tot_abs_Q>
1

> <s_epik_Chemistry_Notes>
This compound contains an acetal/aminal-like group ( X-CH(R)-Y where X, Y are N, S, or O) that may be acid/base labile, releasing an aldehyde.

$$$$
