4prh_ligand
                    3D
 Schrodinger Suite 2020-3.
171175  0  0  1  0            999 V2000
  -11.5190   18.8020    2.3710 N   0  3  0  0  0  0
  -11.2480   18.3600    0.9950 C   0  0  2  0  0  0
  -12.3250   18.8990    0.0270 C   0  0  0  0  0  0
  -13.5210   18.6450    0.2240 O   0  0  0  0  0  0
  -11.1200   16.8120    0.8880 C   0  0  0  0  0  0
  -10.4380   16.3390   -0.3700 C   0  0  0  0  0  0
  -11.1250   16.2280   -1.5730 N   0  0  0  0  0  0
   -9.1520   15.9570   -0.5710 C   0  0  0  0  0  0
  -10.2380   15.8020   -2.4590 C   0  0  0  0  0  0
   -9.0400   15.6100   -1.9030 N   0  0  0  0  0  0
  -11.9140   19.6110   -1.0390 N   0  0  0  0  0  0
  -12.9060   20.1480   -1.9920 C   0  0  2  0  0  0
  -13.5660   19.0980   -2.8980 C   0  0  0  0  0  0
  -13.1340   17.9380   -2.9170 O   0  0  0  0  0  0
  -12.1100   21.1850   -2.7940 C   0  0  0  0  0  0
  -10.7160   20.8090   -2.6510 C   0  0  0  0  0  0
  -10.5400   20.0100   -1.4020 C   0  0  0  0  0  0
  -14.6620   19.5070   -3.5980 N   0  0  0  0  0  0
  -15.4090   18.6730   -4.5460 C   0  0  2  0  0  0
  -14.9600   18.9940   -5.9410 C   0  0  0  0  0  0
  -14.7900   20.1680   -6.2890 O   0  0  0  0  0  0
  -16.9540   18.7330   -4.4060 C   0  0  0  0  0  0
  -17.5250   20.1060   -4.7600 C   0  0  0  0  0  0
  -17.6410   17.6270   -5.2140 C   0  0  0  0  0  0
  -14.7370   17.9480   -6.7260 N   0  0  0  0  0  0
  -14.3400   18.1200   -8.1080 C   0  0  0  0  0  0
  -15.5450   18.5090   -8.9390 C   0  0  0  0  0  0
  -16.6960   18.1860   -8.5930 O   0  0  0  0  0  0
  -15.2920   19.2340  -10.0210 N   0  0  0  0  0  0
  -16.3470   19.5570  -10.9580 C   0  0  2  0  0  0
  -16.1860   18.5840  -12.0800 C   0  0  0  0  0  0
  -15.1120   18.5250  -12.6970 O   0  0  0  0  0  0
  -16.2560   21.0040  -11.4920 C   0  0  0  0  0  0
  -17.1140   21.9950  -10.7390 C   0  0  0  0  0  0
  -16.5430   22.9150  -10.1030 O   0  0  0  0  0  0
  -18.3490   21.8450  -10.7660 O   0  0  0  0  0  0
  -17.2480   17.8000  -12.3400 N   0  0  0  0  0  0
  -17.3000   16.8620  -13.4600 C   0  0  2  0  0  0
  -17.4680   17.6930  -14.7500 C   0  0  0  0  0  0
  -17.3730   18.9160  -14.7220 O   0  0  0  0  0  0
  -18.4790   15.8920  -13.2770 C   0  0  0  0  0  0
  -17.6940   17.0250  -15.8740 N   0  0  0  0  0  0
  -17.9220   17.6150  -17.1790 C   0  0  2  0  0  0
  -19.3770   18.1290  -17.2160 C   0  0  0  0  0  0
  -20.2500   17.5220  -16.5910 O   0  0  0  0  0  0
  -17.7350   16.5130  -18.2400 C   0  0  0  0  0  0
  -16.3100   16.2090  -18.6580 C   0  0  0  0  0  0
  -15.3730   16.8070  -18.0800 O   0  0  0  0  0  0
  -16.1320   15.4350  -19.6220 O   0  0  0  0  0  0
  -19.6290   19.2350  -17.9680 N   0  0  0  0  0  0
  -20.9540   19.8660  -18.1510 C   0  0  2  0  0  0
  -21.5510   20.4810  -16.8580 C   0  0  0  0  0  0
  -22.7660   20.6740  -16.7610 O   0  0  0  0  0  0
  -21.9590   18.8950  -18.8570 C   0  0  0  0  0  0
  -21.3850   18.1900  -20.0780 C   0  0  0  0  0  0
  -21.1420   18.8870  -21.2650 C   0  0  0  0  0  0
  -21.0530   16.8350  -20.0360 C   0  0  0  0  0  0
  -20.6100   18.2450  -22.3850 C   0  0  0  0  0  0
  -20.5100   16.1870  -21.1460 C   0  0  0  0  0  0
  -20.2930   16.8940  -22.3190 C   0  0  0  0  0  0
  -19.7480   16.2560  -23.4050 O   0  0  0  0  0  0
  -20.6850   20.8080  -15.8850 N   0  0  0  0  0  0
  -21.0530   21.3460  -14.5680 C   0  0  2  0  0  0
  -21.0800   22.9110  -14.5320 C   0  0  0  0  0  0
  -21.4310   23.4960  -13.5090 O   0  0  0  0  0  0
  -20.1040   20.7360  -13.4920 C   0  0  0  0  0  0
  -20.6110   19.5060  -12.7670 C   0  0  0  0  0  0
  -20.4690   19.3840  -11.3900 C   0  0  0  0  0  0
  -21.2250   18.4660  -13.4650 C   0  0  0  0  0  0
  -20.9830   18.2780  -10.7100 C   0  0  0  0  0  0
  -21.7630   17.3720  -12.7900 C   0  0  0  0  0  0
  -21.6230   17.2750  -11.4120 C   0  0  0  0  0  0
  -20.7550   23.5640  -15.6780 N   0  0  0  0  0  0
  -20.7270   25.0240  -15.8790 C   0  0  2  0  0  0
  -22.0580   25.7400  -15.6370 C   0  0  0  0  0  0
  -23.1210   25.1150  -15.5270 O   0  0  0  0  0  0
  -20.1690   25.3960  -17.2670 C   0  0  0  0  0  0
  -18.6870   25.1070  -17.4560 C   0  0  0  0  0  0
  -18.3270   23.7240  -17.9780 C   0  0  0  0  0  0
  -19.1460   22.7820  -17.8380 O   0  0  0  0  0  0
  -17.2030   23.5810  -18.5150 O   0  0  0  0  0  0
  -21.9730   27.0670  -15.5000 N   0  0  0  0  0  0
  -23.1270   27.9320  -15.2730 C   0  0  2  0  0  0
  -23.8230   28.1910  -16.6080 C   0  0  0  0  0  0
  -23.1130   28.5050  -17.5850 O   0  0  0  0  0  0
  -22.6960   29.2400  -14.5680 C   0  0  0  0  0  0
  -22.4370   29.0460  -13.0880 C   0  0  0  0  0  0
  -21.1790   28.6760  -12.6220 C   0  0  0  0  0  0
  -23.4720   29.1350  -12.1620 C   0  0  0  0  0  0
  -20.9520   28.4260  -11.2670 C   0  0  0  0  0  0
  -23.2560   28.8970  -10.8060 C   0  0  0  0  0  0
  -21.9920   28.5500  -10.3610 C   0  0  0  0  0  0
  -21.7760   28.3250   -9.0210 O   0  0  0  0  0  0
  -25.0500   27.9540  -16.7010 O   0  0  0  0  0  0
  -11.6006   19.8987    2.3945 H   0  0  0  0  0  0
  -10.6969   18.4813    3.0277 H   0  0  0  0  0  0
  -12.4623   18.3566    2.7201 H   0  0  0  0  0  0
  -10.2745   18.8124    0.7548 H   0  0  0  0  0  0
  -10.5331   16.4330    1.7376 H   0  0  0  0  0  0
  -12.1224   16.3592    0.9038 H   0  0  0  0  0  0
   -8.2762   15.8875    0.0910 H   0  0  0  0  0  0
  -10.4589   15.6294   -3.5123 H   0  0  0  0  0  0
  -13.7532   20.5611   -1.4249 H   0  0  0  0  0  0
  -12.4257   21.1550   -3.8473 H   0  0  0  0  0  0
  -12.2971   22.1883   -2.3836 H   0  0  0  0  0  0
  -10.4082   20.2059   -3.5179 H   0  0  0  0  0  0
  -10.0954   21.7156   -2.5961 H   0  0  0  0  0  0
  -10.1035   20.6053   -0.5865 H   0  0  0  0  0  0
   -9.9286   19.1106   -1.5673 H   0  0  0  0  0  0
  -14.9775   20.5440   -3.4105 H   0  0  0  0  0  0
  -15.1139   17.6456   -4.2864 H   0  0  0  0  0  0
  -17.1880   18.5642   -3.3445 H   0  0  0  0  0  0
  -17.0150   20.8793   -4.1668 H   0  0  0  0  0  0
  -18.6020   20.1237   -4.5371 H   0  0  0  0  0  0
  -17.3689   20.3030   -5.8309 H   0  0  0  0  0  0
  -17.2117   16.6521   -4.9399 H   0  0  0  0  0  0
  -17.4857   17.8071   -6.2880 H   0  0  0  0  0  0
  -18.7188   17.6279   -4.9942 H   0  0  0  0  0  0
  -14.8585   16.9368   -6.3104 H   0  0  0  0  0  0
  -13.5792   18.9116   -8.1751 H   0  0  0  0  0  0
  -13.9223   17.1767   -8.4897 H   0  0  0  0  0  0
  -14.2673   19.5905  -10.2022 H   0  0  0  0  0  0
  -17.3059   19.4462  -10.4305 H   0  0  0  0  0  0
  -15.2164   21.3564  -11.4209 H   0  0  0  0  0  0
  -16.5802   21.0281  -12.5429 H   0  0  0  0  0  0
  -17.1406   23.6512   -9.5454 H   0  0  0  0  0  0
  -18.1065   17.8908  -11.6583 H   0  0  0  0  0  0
  -16.3639   16.2844  -13.4694 H   0  0  0  0  0  0
  -18.3368   15.3123  -12.3530 H   0  0  0  0  0  0
  -18.5268   15.2067  -14.1362 H   0  0  0  0  0  0
  -19.4168   16.4631  -13.2109 H   0  0  0  0  0  0
  -17.6996   15.9313  -15.7563 H   0  0  0  0  0  0
  -17.2002   18.4326  -17.3227 H   0  0  0  0  0  0
  -18.1447   15.5653  -17.8605 H   0  0  0  0  0  0
  -18.2635   16.7979  -19.1617 H   0  0  0  0  0  0
  -14.3307   16.6028  -18.3663 H   0  0  0  0  0  0
  -18.7438   19.6614  -18.4625 H   0  0  0  0  0  0
  -20.7163   20.7128  -18.8116 H   0  0  0  0  0  0
  -22.2729   18.1139  -18.1490 H   0  0  0  0  0  0
  -22.8404   19.4606  -19.1934 H   0  0  0  0  0  0
  -21.3720   19.9512  -21.3173 H   0  0  0  0  0  0
  -21.2212   16.2719  -19.1180 H   0  0  0  0  0  0
  -20.4441   18.8016  -23.3074 H   0  0  0  0  0  0
  -20.2571   15.1282  -21.0912 H   0  0  0  0  0  0
  -19.5733   16.8111  -24.3385 H   0  0  0  0  0  0
  -19.6266   20.6442  -16.1360 H   0  0  0  0  0  0
  -22.0879   21.0115  -14.4035 H   0  0  0  0  0  0
  -19.1566   20.4383  -13.9651 H   0  0  0  0  0  0
  -19.9046   21.4853  -12.7118 H   0  0  0  0  0  0
  -19.9488   20.1630  -10.8326 H   0  0  0  0  0  0
  -21.2847   18.5096  -14.5525 H   0  0  0  0  0  0
  -20.8794   18.2062   -9.6273 H   0  0  0  0  0  0
  -22.2919   16.5950  -13.3419 H   0  0  0  0  0  0
  -22.0182   16.4072  -10.8840 H   0  0  0  0  0  0
  -20.4951   22.8896  -16.5072 H   0  0  0  0  0  0
  -20.0458   25.3404  -15.0753 H   0  0  0  0  0  0
  -20.7046   24.8278  -18.0418 H   0  0  0  0  0  0
  -20.3071   26.4733  -17.4410 H   0  0  0  0  0  0
  -18.2634   25.8207  -18.1780 H   0  0  0  0  0  0
  -18.1676   25.2091  -16.4917 H   0  0  0  0  0  0
  -18.8978   21.7774  -18.2110 H   0  0  0  0  0  0
  -20.9646   27.5015  -15.5668 H   0  0  0  0  0  0
  -23.8155   27.3884  -14.6093 H   0  0  0  0  0  0
  -21.7694   29.6155  -15.0266 H   0  0  0  0  0  0
  -23.4900   29.9936  -14.6759 H   0  0  0  0  0  0
  -20.3546   28.5794  -13.3285 H   0  0  0  0  0  0
  -24.4731   29.3965  -12.5047 H   0  0  0  0  0  0
  -19.9595   28.1342  -10.9236 H   0  0  0  0  0  0
  -24.0800   28.9838  -10.0978 H   0  0  0  0  0  0
  -20.7727   28.0491   -8.6644 H   0  0  0  0  0  0
  -25.5741   28.1322  -17.6516 H   0  0  0  0  0  0
  1  2  1  0  0  0
  1 95  1  0  0  0
  1 96  1  0  0  0
  1 97  1  0  0  0
  2  3  1  0  0  0
  2  5  1  0  0  0
  2 98  1  0  0  0
  3  4  2  0  0  0
  3 11  1  0  0  0
  5  6  1  0  0  0
  5 99  1  0  0  0
  5100  1  0  0  0
  6  7  2  0  0  0
  6  8  1  0  0  0
  7  9  1  0  0  0
  8 10  2  0  0  0
  8101  1  0  0  0
  9 10  1  0  0  0
  9102  1  0  0  0
 11 12  1  0  0  0
 11 17  1  0  0  0
 12 13  1  0  0  0
 12 15  1  0  0  0
 12103  1  0  0  0
 13 14  2  0  0  0
 13 18  1  0  0  0
 15 16  1  0  0  0
 15104  1  0  0  0
 15105  1  0  0  0
 16 17  1  0  0  0
 16106  1  0  0  0
 16107  1  0  0  0
 17108  1  0  0  0
 17109  1  0  0  0
 18 19  1  0  0  0
 18110  1  0  0  0
 19 20  1  0  0  0
 19 22  1  0  0  0
 19111  1  0  0  0
 20 21  2  0  0  0
 20 25  1  0  0  0
 22 23  1  0  0  0
 22 24  1  0  0  0
 22112  1  0  0  0
 23113  1  0  0  0
 23114  1  0  0  0
 23115  1  0  0  0
 24116  1  0  0  0
 24117  1  0  0  0
 24118  1  0  0  0
 25 26  1  0  0  0
 25119  1  0  0  0
 26 27  1  0  0  0
 26120  1  0  0  0
 26121  1  0  0  0
 27 28  2  0  0  0
 27 29  1  0  0  0
 29 30  1  0  0  0
 29122  1  0  0  0
 30 31  1  0  0  0
 30 33  1  0  0  0
 30123  1  0  0  0
 31 32  2  0  0  0
 31 37  1  0  0  0
 33 34  1  0  0  0
 33124  1  0  0  0
 33125  1  0  0  0
 34 35  1  0  0  0
 34 36  2  0  0  0
 35126  1  0  0  0
 37 38  1  0  0  0
 37127  1  0  0  0
 38 39  1  0  0  0
 38 41  1  0  0  0
 38128  1  0  0  0
 39 40  2  0  0  0
 39 42  1  0  0  0
 41129  1  0  0  0
 41130  1  0  0  0
 41131  1  0  0  0
 42 43  1  0  0  0
 42132  1  0  0  0
 43 44  1  0  0  0
 43 46  1  0  0  0
 43133  1  0  0  0
 44 45  2  0  0  0
 44 50  1  0  0  0
 46 47  1  0  0  0
 46134  1  0  0  0
 46135  1  0  0  0
 47 48  1  0  0  0
 47 49  2  0  0  0
 48136  1  0  0  0
 50 51  1  0  0  0
 50137  1  0  0  0
 51 52  1  0  0  0
 51 54  1  0  0  0
 51138  1  0  0  0
 52 53  2  0  0  0
 52 62  1  0  0  0
 54 55  1  0  0  0
 54139  1  0  0  0
 54140  1  0  0  0
 55 56  2  0  0  0
 55 57  1  0  0  0
 56 58  1  0  0  0
 56141  1  0  0  0
 57 59  2  0  0  0
 57142  1  0  0  0
 58 60  2  0  0  0
 58143  1  0  0  0
 59 60  1  0  0  0
 59144  1  0  0  0
 60 61  1  0  0  0
 61145  1  0  0  0
 62 63  1  0  0  0
 62146  1  0  0  0
 63 64  1  0  0  0
 63 66  1  0  0  0
 63147  1  0  0  0
 64 65  2  0  0  0
 64 73  1  0  0  0
 66 67  1  0  0  0
 66148  1  0  0  0
 66149  1  0  0  0
 67 68  2  0  0  0
 67 69  1  0  0  0
 68 70  1  0  0  0
 68150  1  0  0  0
 69 71  2  0  0  0
 69151  1  0  0  0
 70 72  2  0  0  0
 70152  1  0  0  0
 71 72  1  0  0  0
 71153  1  0  0  0
 72154  1  0  0  0
 73 74  1  0  0  0
 73155  1  0  0  0
 74 75  1  0  0  0
 74 77  1  0  0  0
 74156  1  0  0  0
 75 76  2  0  0  0
 75 82  1  0  0  0
 77 78  1  0  0  0
 77157  1  0  0  0
 77158  1  0  0  0
 78 79  1  0  0  0
 78159  1  0  0  0
 78160  1  0  0  0
 79 80  1  0  0  0
 79 81  2  0  0  0
 80161  1  0  0  0
 82 83  1  0  0  0
 82162  1  0  0  0
 83 84  1  0  0  0
 83 86  1  0  0  0
 83163  1  0  0  0
 84 85  2  0  0  0
 84 94  1  0  0  0
 86 87  1  0  0  0
 86164  1  0  0  0
 86165  1  0  0  0
 87 88  2  0  0  0
 87 89  1  0  0  0
 88 90  1  0  0  0
 88166  1  0  0  0
 89 91  2  0  0  0
 89167  1  0  0  0
 90 92  2  0  0  0
 90168  1  0  0  0
 91 92  1  0  0  0
 91169  1  0  0  0
 92 93  1  0  0  0
 93170  1  0  0  0
 94171  1  0  0  0
M  CHG  1   1   1
M  END
> <s_m_source_file>
../4prh_ligand.sdf

> <i_m_source_file_index>
1

> <s_epik_input>
W0NIXTE9TltDSDJdTj1DMVtDSDJdW0NASF0oW05IMytdKUMoPU8pTjJbQ0BASF0oW0NIMl1bQ0gyXVtDSDJdMilDKD1PKVtOSF1bQ0BASF0oW0NIXShbQ0gzXSlbQ0gzXSlDKD1PKVtOSF1bQ0gyXUMoPU8pW05IXVtDQEBIXShbQ0gyXUMoPU8pW09IXSlDKD1PKVtOSF1bQ0BASF0oW0NIM10pQyg9TylbTkhdW0NAQEhdKFtDSDJdQyg9TylbT0hdKUMoPU8pW05IXVtDQEBIXShbQ0gyXWMzW2NIXVtjSF1jKFtPSF0pW2NIXVtjSF0zKUMoPU8pW05IXVtDQEBIXShbQ0gyXWM0W2NIXVtjSF1bY0hdW2NIXVtjSF00KUMoPU8pW05IXVtDQEBIXShbQ0gyXVtDSDJdQyg9TylbT0hdKUMoPU8pW05IXVtDQEhdKEMoPU8pW09IXSlbQ0gyXWM1W2NIXVtjSF1jKFtPSF0pW2NIXVtjSF01

> <s_epik_cmdline>
J2VwaWtfYXBwJywgJy1pbWFlJywgJ2xpZ2FuZF9wcm8ubWFlJywgJy1vbWFlJywgJ2xpZ2FuZF9wcmVwLm1hZScsICctbXMnLCAnMScsICctcGgnLCAnNycsICctcGh0JywgJzAuNScsICctbnQn

> <s_epik_pKa_notes>
Molecule size exceeds maximum supported for generating protonation states

> <s_epik_Chemistry_Notes>
This compound has an imine and may undergo hydrolysis.

$$$$
