4pri_ligand
                    3D
 Schrodinger Suite 2020-3.
174178  0  0  1  0            999 V2000
   -7.8290   40.2210    2.6900 N   0  3  0  0  0  0
   -8.1560   40.5690    1.3060 C   0  0  2  0  0  0
   -7.0870   39.9930    0.3690 C   0  0  0  0  0  0
   -5.8850   40.1490    0.6400 O   0  0  0  0  0  0
   -8.2390   42.0950    1.1390 C   0  0  0  0  0  0
   -9.0190   42.5760   -0.0450 C   0  0  0  0  0  0
   -8.4440   42.6700   -1.3050 N   0  0  0  0  0  0
  -10.2820   43.0450   -0.1080 C   0  0  0  0  0  0
   -9.3830   43.1590   -2.0940 C   0  0  0  0  0  0
  -10.5010   43.4120   -1.4170 N   0  0  0  0  0  0
   -7.4730   39.3390   -0.7470 N   0  0  0  0  0  0
   -6.4490   38.7970   -1.6410 C   0  0  2  0  0  0
   -5.8450   39.8700   -2.5610 C   0  0  0  0  0  0
   -6.4480   40.9370   -2.7750 O   0  0  0  0  0  0
   -7.2310   37.7490   -2.4430 C   0  0  0  0  0  0
   -8.5730   38.3160   -2.5490 C   0  0  0  0  0  0
   -8.8280   39.0550   -1.2610 C   0  0  0  0  0  0
   -4.6580   39.5640   -3.1200 N   0  0  0  0  0  0
   -4.0030   40.4120   -4.1110 C   0  0  2  0  0  0
   -4.5970   40.0740   -5.4570 C   0  0  0  0  0  0
   -4.8560   38.9060   -5.7430 O   0  0  0  0  0  0
   -2.4320   40.3290   -4.1300 C   0  0  0  0  0  0
   -1.9080   38.9860   -4.6330 C   0  0  0  0  0  0
   -1.8230   41.4850   -4.9200 C   0  0  0  0  0  0
   -4.8060   41.1000   -6.2630 N   0  0  0  0  0  0
   -5.2240   40.9440   -7.6360 C   0  0  0  0  0  0
   -3.9950   40.6890   -8.4910 C   0  0  0  0  0  0
   -2.9090   41.2610   -8.2590 O   0  0  0  0  0  0
   -4.1580   39.8160   -9.4810 N   0  0  0  0  0  0
   -3.0850   39.5270  -10.4300 C   0  0  2  0  0  0
   -3.2000   40.5130  -11.5900 C   0  0  0  0  0  0
   -4.2760   40.6570  -12.1900 O   0  0  0  0  0  0
   -3.1010   38.0560  -10.9200 C   0  0  0  0  0  0
   -3.0080   36.9630   -9.8470 C   0  0  0  0  0  0
   -2.0450   37.0970   -8.6750 C   0  0  0  0  0  0
   -0.9120   37.5950   -8.8760 O   0  0  0  0  0  0
   -2.4220   36.6780   -7.5540 O   0  0  0  0  0  0
   -2.1110   41.2300  -11.8660 N   0  0  0  0  0  0
   -2.0790   42.1870  -12.9580 C   0  0  2  0  0  0
   -1.9480   41.4390  -14.3090 C   0  0  0  0  0  0
   -1.9210   40.2210  -14.3120 O   0  0  0  0  0  0
   -0.9330   43.1780  -12.7530 C   0  0  0  0  0  0
   -1.9080   42.1390  -15.4410 N   0  0  0  0  0  0
   -1.7650   41.4590  -16.7210 C   0  0  2  0  0  0
   -0.3750   40.7870  -16.8290 C   0  0  0  0  0  0
    0.6090   41.2580  -16.2210 O   0  0  0  0  0  0
   -1.9610   42.4390  -17.9010 C   0  0  0  0  0  0
   -3.3160   43.0710  -18.0700 C   0  0  0  0  0  0
   -4.2730   42.5850  -17.4620 O   0  0  0  0  0  0
   -3.4240   44.0310  -18.8550 O   0  0  0  0  0  0
   -0.3040   39.6880  -17.6300 N   0  0  0  0  0  0
    0.9230   38.9340  -17.9190 C   0  0  2  0  0  0
    1.5000   38.2430  -16.6570 C   0  0  0  0  0  0
    2.7000   37.9130  -16.6140 O   0  0  0  0  0  0
    1.9950   39.8410  -18.5700 C   0  0  0  0  0  0
    1.5270   40.6760  -19.7450 C   0  0  0  0  0  0
    1.0560   41.9720  -19.5610 C   0  0  0  0  0  0
    1.6810   40.2230  -21.0490 C   0  0  0  0  0  0
    0.6460   42.7560  -20.6400 C   0  0  0  0  0  0
    1.3250   41.0230  -22.1430 C   0  0  0  0  0  0
    0.8150   42.2910  -21.9330 C   0  0  0  0  0  0
    0.4640   43.0650  -23.0070 O   0  0  0  0  0  0
    0.6460   38.0620  -15.6300 N   0  0  0  0  0  0
    0.9530   37.3370  -14.4020 C   0  0  2  0  0  0
    0.5220   35.9080  -14.6980 C   0  0  0  0  0  0
   -0.6730   35.5910  -14.6310 O   0  0  0  0  0  0
    0.2380   37.9440  -13.1600 C   0  0  0  0  0  0
    0.8470   39.1790  -12.5050 C   0  0  0  0  0  0
    1.4270   40.1890  -13.2760 C   0  0  0  0  0  0
    0.7410   39.3800  -11.1270 C   0  0  0  0  0  0
    1.9850   41.3200  -12.6730 C   0  0  0  0  0  0
    1.2720   40.5220  -10.5240 C   0  0  0  0  0  0
    1.9020   41.4810  -11.2990 C   0  0  0  0  0  0
    1.4560   35.1150  -15.2070 N   0  0  0  0  0  0
    1.2980   33.7130  -15.5810 C   0  0  2  0  0  0
    2.6050   33.0410  -15.3450 C   0  0  0  0  0  0
    3.6490   33.6940  -15.3600 O   0  0  0  0  0  0
    0.8720   33.5290  -17.0600 C   0  0  0  0  0  0
   -0.5860   33.8330  -17.3910 C   0  0  0  0  0  0
   -0.8660   35.2430  -17.8900 C   0  0  0  0  0  0
   -0.0620   35.7650  -18.7010 O   0  0  0  0  0  0
   -1.9150   35.8110  -17.5010 O   0  0  0  0  0  0
    2.5710   31.7400  -15.1480 N   0  0  0  0  0  0
    3.7710   30.9460  -14.9600 C   0  0  2  0  0  0
    4.3660   30.6110  -16.3280 C   0  0  0  0  0  0
    3.6070   30.5990  -17.3230 O   0  0  0  0  0  0
    3.4150   29.6900  -14.1660 C   0  0  0  0  0  0
    3.0090   29.9650  -12.7330 C   0  0  0  0  0  0
    1.8430   30.6640  -12.4380 C   0  0  0  0  0  0
    3.7760   29.5030  -11.6720 C   0  0  0  0  0  0
    1.4550   30.9080  -11.1250 C   0  0  0  0  0  0
    3.4100   29.7670  -10.3490 C   0  0  0  0  0  0
    2.2320   30.4470  -10.0810 C   0  0  0  0  0  0
    1.8350   30.6950   -8.7890 O   0  0  0  0  0  0
    5.5980   30.4300  -16.4200 O   0  0  0  0  0  0
   -7.7741   39.1269    2.7898 H   0  0  0  0  0  0
   -8.6088   40.6116    3.3603 H   0  0  0  0  0  0
   -6.8585   40.6630    2.9597 H   0  0  0  0  0  0
   -9.1376   40.1189    1.0967 H   0  0  0  0  0  0
   -8.7199   42.5352    2.0250 H   0  0  0  0  0  0
   -7.2252   42.5075    1.0291 H   0  0  0  0  0  0
  -11.0803   43.1683    0.6387 H   0  0  0  0  0  0
   -9.2587   43.3332   -3.1628 H   0  0  0  0  0  0
   -5.6046   38.3987   -1.0593 H   0  0  0  0  0  0
   -6.7590   37.6134   -3.4273 H   0  0  0  0  0  0
   -7.2264   36.7928   -1.8993 H   0  0  0  0  0  0
   -8.6152   38.9998   -3.4096 H   0  0  0  0  0  0
   -9.3035   37.5055   -2.6885 H   0  0  0  0  0  0
   -9.3764   38.4425   -0.5302 H   0  0  0  0  0  0
   -9.3648   40.0015   -1.4224 H   0  0  0  0  0  0
   -4.1817   38.6264   -2.7974 H   0  0  0  0  0  0
   -4.2631   41.4372   -3.8089 H   0  0  0  0  0  0
   -2.0754   40.4137   -3.0928 H   0  0  0  0  0  0
   -2.3620   38.1728   -4.0477 H   0  0  0  0  0  0
   -0.8144   38.9533   -4.5193 H   0  0  0  0  0  0
   -2.1701   38.8644   -5.6944 H   0  0  0  0  0  0
   -2.2170   42.4382   -4.5376 H   0  0  0  0  0  0
   -2.0845   41.3804   -5.9833 H   0  0  0  0  0  0
   -0.7288   41.4692   -4.8082 H   0  0  0  0  0  0
   -4.6482   42.1060   -5.8470 H   0  0  0  0  0  0
   -5.9172   40.0935   -7.7138 H   0  0  0  0  0  0
   -5.7299   41.8612   -7.9718 H   0  0  0  0  0  0
   -5.1283   39.3067   -9.5761 H   0  0  0  0  0  0
   -2.1437   39.6802   -9.8819 H   0  0  0  0  0  0
   -4.0385   37.8599  -11.4610 H   0  0  0  0  0  0
   -2.2471   37.8840  -11.5918 H   0  0  0  0  0  0
   -3.9876   36.8416   -9.3615 H   0  0  0  0  0  0
   -2.7109   36.0133  -10.3158 H   0  0  0  0  0  0
   -1.7538   36.7578   -6.6839 H   0  0  0  0  0  0
   -1.2194   41.0807  -11.2392 H   0  0  0  0  0  0
   -3.0325   42.7339  -12.9166 H   0  0  0  0  0  0
   -1.0585   43.6889  -11.7870 H   0  0  0  0  0  0
   -0.9410   43.9207  -13.5644 H   0  0  0  0  0  0
    0.0249   42.6374  -12.7602 H   0  0  0  0  0  0
   -1.9835   43.2359  -15.4063 H   0  0  0  0  0  0
   -2.5665   40.7056  -16.7149 H   0  0  0  0  0  0
   -1.2612   43.2814  -17.7981 H   0  0  0  0  0  0
   -1.7674   41.9152  -18.8487 H   0  0  0  0  0  0
   -4.4010   44.5150  -19.0009 H   0  0  0  0  0  0
   -1.2600   39.3742  -18.0746 H   0  0  0  0  0  0
    0.5888   38.1658  -18.6318 H   0  0  0  0  0  0
    2.3783   40.5506  -17.8219 H   0  0  0  0  0  0
    2.8224   39.2202  -18.9442 H   0  0  0  0  0  0
    1.0062   42.3836  -18.5529 H   0  0  0  0  0  0
    2.0864   39.2265  -21.2246 H   0  0  0  0  0  0
    0.1937   43.7322  -20.4653 H   0  0  0  0  0  0
    1.4499   40.6463  -23.1582 H   0  0  0  0  0  0
    0.0576   44.0747  -22.8479 H   0  0  0  0  0  0
   -0.3482   38.5116  -15.7693 H   0  0  0  0  0  0
    2.0305   37.4089  -14.1929 H   0  0  0  0  0  0
   -0.7832   38.2457  -13.4359 H   0  0  0  0  0  0
    0.1942   37.1921  -12.3582 H   0  0  0  0  0  0
    1.4448   40.0941  -14.3617 H   0  0  0  0  0  0
    0.2362   38.6342  -10.5130 H   0  0  0  0  0  0
    2.4842   42.0736  -13.2821 H   0  0  0  0  0  0
    1.1907   40.6582   -9.4456 H   0  0  0  0  0  0
    2.3334   42.3641  -10.8276 H   0  0  0  0  0  0
    2.4274   35.6136  -15.3400 H   0  0  0  0  0  0
    0.5154   33.3017  -14.9265 H   0  0  0  0  0  0
    1.4705   34.1945  -17.6994 H   0  0  0  0  0  0
    1.0373   32.4842  -17.3619 H   0  0  0  0  0  0
   -0.9326   33.1506  -18.1810 H   0  0  0  0  0  0
   -1.2028   33.6951  -16.4907 H   0  0  0  0  0  0
   -0.2426   36.7831  -19.0762 H   0  0  0  0  0  0
    1.5831   31.2566  -15.1289 H   0  0  0  0  0  0
    4.4937   31.5454  -14.3869 H   0  0  0  0  0  0
    4.0093   30.3611  -18.3188 H   0  0  0  0  0  0
    2.5715   29.1766  -14.6507 H   0  0  0  0  0  0
    4.2847   29.0172  -14.1347 H   0  0  0  0  0  0
    1.2195   31.0287  -13.2543 H   0  0  0  0  0  0
    4.6780   28.9252  -11.8738 H   0  0  0  0  0  0
    0.5390   31.4623  -10.9205 H   0  0  0  0  0  0
    4.0496   29.4388   -9.5296 H   0  0  0  0  0  0
    0.8969   31.2362   -8.5961 H   0  0  0  0  0  0
  1  2  1  0  0  0
  1 96  1  0  0  0
  1 97  1  0  0  0
  1 98  1  0  0  0
  2  3  1  0  0  0
  2  5  1  0  0  0
  2 99  1  0  0  0
  3  4  2  0  0  0
  3 11  1  0  0  0
  5  6  1  0  0  0
  5100  1  0  0  0
  5101  1  0  0  0
  6  7  2  0  0  0
  6  8  1  0  0  0
  7  9  1  0  0  0
  8 10  2  0  0  0
  8102  1  0  0  0
  9 10  1  0  0  0
  9103  1  0  0  0
 11 12  1  0  0  0
 11 17  1  0  0  0
 12 13  1  0  0  0
 12 15  1  0  0  0
 12104  1  0  0  0
 13 14  2  0  0  0
 13 18  1  0  0  0
 15 16  1  0  0  0
 15105  1  0  0  0
 15106  1  0  0  0
 16 17  1  0  0  0
 16107  1  0  0  0
 16108  1  0  0  0
 17109  1  0  0  0
 17110  1  0  0  0
 18 19  1  0  0  0
 18111  1  0  0  0
 19 20  1  0  0  0
 19 22  1  0  0  0
 19112  1  0  0  0
 20 21  2  0  0  0
 20 25  1  0  0  0
 22 23  1  0  0  0
 22 24  1  0  0  0
 22113  1  0  0  0
 23114  1  0  0  0
 23115  1  0  0  0
 23116  1  0  0  0
 24117  1  0  0  0
 24118  1  0  0  0
 24119  1  0  0  0
 25 26  1  0  0  0
 25120  1  0  0  0
 26 27  1  0  0  0
 26121  1  0  0  0
 26122  1  0  0  0
 27 28  2  0  0  0
 27 29  1  0  0  0
 29 30  1  0  0  0
 29123  1  0  0  0
 30 31  1  0  0  0
 30 33  1  0  0  0
 30124  1  0  0  0
 31 32  2  0  0  0
 31 38  1  0  0  0
 33 34  1  0  0  0
 33125  1  0  0  0
 33126  1  0  0  0
 34 35  1  0  0  0
 34127  1  0  0  0
 34128  1  0  0  0
 35 36  2  0  0  0
 35 37  1  0  0  0
 37129  1  0  0  0
 38 39  1  0  0  0
 38130  1  0  0  0
 39 40  1  0  0  0
 39 42  1  0  0  0
 39131  1  0  0  0
 40 41  2  0  0  0
 40 43  1  0  0  0
 42132  1  0  0  0
 42133  1  0  0  0
 42134  1  0  0  0
 43 44  1  0  0  0
 43135  1  0  0  0
 44 45  1  0  0  0
 44 47  1  0  0  0
 44136  1  0  0  0
 45 46  2  0  0  0
 45 51  1  0  0  0
 47 48  1  0  0  0
 47137  1  0  0  0
 47138  1  0  0  0
 48 49  2  0  0  0
 48 50  1  0  0  0
 50139  1  0  0  0
 51 52  1  0  0  0
 51140  1  0  0  0
 52 53  1  0  0  0
 52 55  1  0  0  0
 52141  1  0  0  0
 53 54  2  0  0  0
 53 63  1  0  0  0
 55 56  1  0  0  0
 55142  1  0  0  0
 55143  1  0  0  0
 56 57  2  0  0  0
 56 58  1  0  0  0
 57 59  1  0  0  0
 57144  1  0  0  0
 58 60  2  0  0  0
 58145  1  0  0  0
 59 61  2  0  0  0
 59146  1  0  0  0
 60 61  1  0  0  0
 60147  1  0  0  0
 61 62  1  0  0  0
 62148  1  0  0  0
 63 64  1  0  0  0
 63149  1  0  0  0
 64 65  1  0  0  0
 64 67  1  0  0  0
 64150  1  0  0  0
 65 66  2  0  0  0
 65 74  1  0  0  0
 67 68  1  0  0  0
 67151  1  0  0  0
 67152  1  0  0  0
 68 69  2  0  0  0
 68 70  1  0  0  0
 69 71  1  0  0  0
 69153  1  0  0  0
 70 72  2  0  0  0
 70154  1  0  0  0
 71 73  2  0  0  0
 71155  1  0  0  0
 72 73  1  0  0  0
 72156  1  0  0  0
 73157  1  0  0  0
 74 75  1  0  0  0
 74158  1  0  0  0
 75 76  1  0  0  0
 75 78  1  0  0  0
 75159  1  0  0  0
 76 77  2  0  0  0
 76 83  1  0  0  0
 78 79  1  0  0  0
 78160  1  0  0  0
 78161  1  0  0  0
 79 80  1  0  0  0
 79162  1  0  0  0
 79163  1  0  0  0
 80 81  1  0  0  0
 80 82  2  0  0  0
 81164  1  0  0  0
 83 84  1  0  0  0
 83165  1  0  0  0
 84 85  1  0  0  0
 84 87  1  0  0  0
 84166  1  0  0  0
 85 86  1  0  0  0
 85 95  2  0  0  0
 86167  1  0  0  0
 87 88  1  0  0  0
 87168  1  0  0  0
 87169  1  0  0  0
 88 89  2  0  0  0
 88 90  1  0  0  0
 89 91  1  0  0  0
 89170  1  0  0  0
 90 92  2  0  0  0
 90171  1  0  0  0
 91 93  2  0  0  0
 91172  1  0  0  0
 92 93  1  0  0  0
 92173  1  0  0  0
 93 94  1  0  0  0
 94174  1  0  0  0
M  CHG  1   1   1
M  END
> <s_m_source_file>
../4pri_ligand.sdf

> <i_m_source_file_index>
1

> <s_epik_input>
W0NIXTE9TltDSDJdTj1DMVtDSDJdW0NASF0oW05IMytdKUMoPU8pTjJbQ0BASF0oW0NIMl1bQ0gyXVtDSDJdMilDKD1PKVtOSF1bQ0BASF0oW0NIXShbQ0gzXSlbQ0gzXSlDKD1PKVtOSF1bQ0gyXUMoPU8pW05IXVtDQEBIXShbQ0gyXVtDSDJdQyg9TylbT0hdKUMoPU8pW05IXVtDQEBIXShbQ0gzXSlDKD1PKVtOSF1bQ0BASF0oW0NIMl1DKD1PKVtPSF0pQyg9TylbTkhdW0NAQEhdKFtDSDJdYzNbY0hdW2NIXWMoW09IXSlbY0hdW2NIXTMpQyg9TylbTkhdW0NAQEhdKFtDSDJdYzRbY0hdW2NIXVtjSF1bY0hdW2NIXTQpQyg9TylbTkhdW0NAQEhdKFtDSDJdW0NIMl1DKD1PKVtPSF0pQyg9TylbTkhdW0NASF0oQyg9TylbT0hdKVtDSDJdYzVbY0hdW2NIXWMoW09IXSlbY0hdW2NIXTU=

> <s_epik_cmdline>
J2VwaWtfYXBwJywgJy1pbWFlJywgJ2xpZ2FuZF9wcm8ubWFlJywgJy1vbWFlJywgJ2xpZ2FuZF9wcmVwLm1hZScsICctbXMnLCAnMScsICctcGgnLCAnNycsICctcGh0JywgJzAuNScsICctbnQn

> <s_epik_pKa_notes>
Molecule size exceeds maximum supported for generating protonation states

> <s_epik_Chemistry_Notes>
This compound has an imine and may undergo hydrolysis.

$$$$
