4prj_ligand
                    3D
 Schrodinger Suite 2020-3.
 46 50  0  0  1  0            999 V2000
   48.3550   19.2110   25.9740 C   0  0  0  0  0  0
   48.6670   19.0550   24.6230 C   0  0  0  0  0  0
   49.9970   18.8810   24.2380 C   0  0  0  0  0  0
   51.0130   18.8700   25.1860 C   0  0  0  0  0  0
   50.7140   19.0090   26.5490 C   0  0  0  0  0  0
   49.3680   19.1970   26.9350 C   0  0  0  0  0  0
   51.7960   18.9710   27.4980 C   0  0  0  0  0  0
   52.6780   18.9370   28.2220 N   0  0  0  0  0  0
   50.3600   18.6870   22.7880 C   0  0  0  0  0  0
   50.7840   17.3100   22.5100 N   0  0  0  0  0  0
   51.0220   16.8250   21.2740 C   0  0  0  0  0  0
   51.3920   15.5290   21.3950 C   0  0  0  0  0  0
   51.3710   15.2060   22.7630 C   0  0  0  0  0  0
   51.0050   16.2620   23.4260 N   0  0  0  0  0  0
   51.7180   14.6990   20.3050 N   0  0  0  0  0  0
   52.2740   13.4710   20.3990 C   0  0  0  0  0  0
   52.5180   12.9500   21.4750 O   0  0  0  0  0  0
   52.5620   12.7310   19.1590 C   0  0  0  0  0  0
   52.9430   11.3170   19.0710 C   0  0  0  0  0  0
   53.1740   10.2870   19.9960 C   0  0  0  0  0  0
   53.4970    9.0350   19.5490 C   0  0  0  0  0  0
   53.6430    8.7820   18.1700 C   0  0  3  0  0  0
   53.4240    9.8020   17.2420 C   0  0  0  0  0  0
   53.0660   11.0810   17.6790 C   0  0  0  0  0  0
   52.7680   12.2710   17.0630 N   0  0  0  0  0  0
   52.4730   13.1740   17.9240 N   0  0  0  0  0  0
   53.9680    7.4060   17.7060 C   0  0  0  0  0  0
   53.4860    6.8060   16.5740 C   0  0  0  0  0  0
   53.9760    5.5550   16.5250 N   0  3  0  0  0  0
   54.7670    5.3650   17.6630 N   0  0  0  0  0  0
   54.7630    6.4560   18.3770 C   0  0  0  0  0  0
   47.3174   19.3442   26.2802 H   0  0  0  0  0  0
   47.8765   19.0690   23.8727 H   0  0  0  0  0  0
   52.0490   18.7526   24.8681 H   0  0  0  0  0  0
   49.1192   19.3317   27.9876 H   0  0  0  0  0  0
   49.4869   18.9125   22.1581 H   0  0  0  0  0  0
   51.1871   19.3623   22.5235 H   0  0  0  0  0  0
   50.9320   17.3803   20.3404 H   0  0  0  0  0  0
   51.6192   14.2360   23.1938 H   0  0  0  0  0  0
   51.5212   15.0382   19.2773 H   0  0  0  0  0  0
   53.0964   10.4825   21.0757 H   0  0  0  0  0  0
   53.6450    8.2156   20.2678 H   0  0  0  0  0  0
   53.5333    9.5988   16.1665 H   0  0  0  0  0  0
   52.8179    7.3612   15.8991 H   0  0  0  0  0  0
   55.3249    6.4971   19.3218 H   0  0  0  0  0  0
   53.8581    4.7407   15.7949 H   0  0  0  0  0  0
  1  2  2  0  0  0
  1  6  1  0  0  0
  1 32  1  0  0  0
  2  3  1  0  0  0
  2 33  1  0  0  0
  3  4  2  0  0  0
  3  9  1  0  0  0
  4  5  1  0  0  0
  4 34  1  0  0  0
  5  6  2  0  0  0
  5  7  1  0  0  0
  6 35  1  0  0  0
  7  8  3  0  0  0
  9 10  1  0  0  0
  9 36  1  0  0  0
  9 37  1  0  0  0
 10 11  1  0  0  0
 10 14  1  0  0  0
 11 12  2  0  0  0
 11 38  1  0  0  0
 12 13  1  0  0  0
 12 15  1  0  0  0
 13 14  2  0  0  0
 13 39  1  0  0  0
 15 16  1  0  0  0
 15 40  1  0  0  0
 16 17  2  0  0  0
 16 18  1  0  0  0
 18 19  2  0  0  0
 18 26  1  0  0  0
 19 20  1  0  0  0
 19 24  1  0  0  0
 20 21  2  0  0  0
 20 41  1  0  0  0
 21 22  1  0  0  0
 21 42  1  0  0  0
 22 23  1  0  0  0
 22 27  1  0  0  0
 23 24  2  0  0  0
 23 43  1  0  0  0
 24 25  1  0  0  0
 25 26  2  0  0  0
 27 28  2  0  0  0
 27 31  1  0  0  0
 28 29  1  0  0  0
 28 44  1  0  0  0
 29 30  1  0  0  0
 29 46  1  0  0  0
 30 31  2  0  0  0
 31 45  1  0  0  0
M  CHG  1  29   1
M  END
> <s_m_source_file>
../4prj_ligand.sdf

> <i_m_source_file_index>
1

> <s_epik_input>
TiNDYyhbY0hdMSlbY0hdW2NIXVtjSF1jMVtDSDJdbjJbY0hdYyhbY0hdbjIpW05IXUMoPU8pQz0zTj1OQyhDMzQpPVtDSF1bQ0hdKFtDSF09W0NIXTQpYzVbY0hdW25IXW5bY0hdNQ==

> <s_epik_cmdline>
J2VwaWtfYXBwJywgJy1pbWFlJywgJ2xpZ2FuZF9wcm8ubWFlJywgJy1vbWFlJywgJ2xpZ2FuZF9wcmVwLm1hZScsICctbXMnLCAnMScsICctcGgnLCAnNycsICctcGh0JywgJzAuNScsICctbnQn

> <r_epik_Ionization_Penalty>
  0.0000

> <r_epik_Ionization_Penalty_Charging>
  0.0000

> <r_epik_Ionization_Penalty_Neutral>
  0.0000

> <r_epik_State_Penalty>
  0.4107

> <r_epik_Charging_Adjusted_Penalty>
0.410679838952604

> <i_epik_Tot_Q>
1

> <i_epik_Tot_abs_Q>
1

> <s_epik_Chemistry_Notes>
This compound has an imine and may undergo hydrolysis.

$$$$
