4prp_ligand
                    3D
 Schrodinger Suite 2020-3.
175179  0  0  1  0            999 V2000
  -12.0570   19.3440    2.3510 N   0  3  0  0  0  0
  -11.7980   18.9040    0.9790 C   0  0  2  0  0  0
  -12.9030   19.4480    0.0430 C   0  0  0  0  0  0
  -14.0850   19.1610    0.2600 O   0  0  0  0  0  0
  -11.7130   17.3620    0.9030 C   0  0  0  0  0  0
  -11.0330   16.8320   -0.3260 C   0  0  0  0  0  0
  -11.5880   16.9890   -1.5950 N   0  0  0  0  0  0
   -9.8830   16.1250   -0.4420 C   0  0  0  0  0  0
  -10.7530   16.3940   -2.4320 C   0  0  0  0  0  0
   -9.7190   15.8450   -1.7870 N   0  0  0  0  0  0
  -12.5710   20.2100   -1.0140 N   0  0  0  0  0  0
  -13.6370   20.6740   -1.9250 C   0  0  2  0  0  0
  -14.2360   19.5220   -2.7690 C   0  0  0  0  0  0
  -13.7470   18.3750   -2.7340 O   0  0  0  0  0  0
  -12.9050   21.6950   -2.8130 C   0  0  0  0  0  0
  -11.5010   21.2550   -2.8190 C   0  0  0  0  0  0
  -11.2360   20.6600   -1.4650 C   0  0  0  0  0  0
  -15.2910   19.8420   -3.5360 N   0  0  0  0  0  0
  -15.9370   18.9080   -4.4360 C   0  0  2  0  0  0
  -15.3910   19.1580   -5.8260 C   0  0  0  0  0  0
  -15.1440   20.2960   -6.2100 O   0  0  0  0  0  0
  -17.5120   18.9610   -4.4020 C   0  0  0  0  0  0
  -18.0730   20.2910   -4.8870 C   0  0  0  0  0  0
  -18.1430   17.7970   -5.1860 C   0  0  0  0  0  0
  -15.2400   18.0810   -6.5770 N   0  0  0  0  0  0
  -14.8180   18.1420   -7.9550 C   0  0  0  0  0  0
  -16.0600   18.2500   -8.7930 C   0  0  0  0  0  0
  -17.0290   17.5110   -8.5870 O   0  0  0  0  0  0
  -16.0500   19.2110   -9.7030 N   0  0  0  0  0  0
  -17.1160   19.4520  -10.6500 C   0  0  2  0  0  0
  -16.8850   18.5590  -11.8440 C   0  0  0  0  0  0
  -15.7710   18.5320  -12.4100 O   0  0  0  0  0  0
  -17.1650   20.9380  -11.0690 C   0  0  0  0  0  0
  -17.2990   21.9350   -9.9030 C   0  0  0  0  0  0
  -17.7270   23.3310  -10.3100 C   0  0  0  0  0  0
  -17.8060   23.6880  -11.4970 O   0  0  0  0  0  0
  -17.9900   24.1720   -9.3180 N   0  0  0  0  0  0
  -17.9230   17.7920  -12.2240 N   0  0  0  0  0  0
  -17.8250   16.9290  -13.4140 C   0  0  2  0  0  0
  -17.9750   17.8200  -14.6360 C   0  0  0  0  0  0
  -17.8850   19.0360  -14.5040 O   0  0  0  0  0  0
  -18.8830   15.8310  -13.3810 C   0  0  0  0  0  0
  -18.1070   17.2390  -15.8160 N   0  0  0  0  0  0
  -18.2500   17.9470  -17.0710 C   0  0  2  0  0  0
  -19.6620   18.5900  -17.1360 C   0  0  0  0  0  0
  -20.6060   18.0690  -16.5100 O   0  0  0  0  0  0
  -18.0570   16.9490  -18.2260 C   0  0  0  0  0  0
  -16.6640   16.3880  -18.5560 C   0  0  0  0  0  0
  -15.6930   16.7180  -17.8390 O   0  0  0  0  0  0
  -16.5370   15.6970  -19.6020 O   0  0  0  0  0  0
  -19.8060   19.7140  -17.9110 N   0  0  0  0  0  0
  -21.0750   20.4440  -18.1030 C   0  0  2  0  0  0
  -21.6410   20.9520  -16.7670 C   0  0  0  0  0  0
  -22.8650   20.9200  -16.5590 O   0  0  0  0  0  0
  -22.1290   19.5720  -18.8250 C   0  0  0  0  0  0
  -21.6120   18.7800  -20.0090 C   0  0  0  0  0  0
  -21.1820   17.4660  -19.8610 C   0  0  0  0  0  0
  -21.5690   19.3390  -21.2820 C   0  0  0  0  0  0
  -20.7010   16.7350  -20.9420 C   0  0  0  0  0  0
  -21.1280   18.5990  -22.3820 C   0  0  0  0  0  0
  -20.7070   17.2910  -22.2080 C   0  0  0  0  0  0
  -20.2560   16.5600  -23.2820 O   0  0  0  0  0  0
  -20.7590   21.4070  -15.8550 N   0  0  0  0  0  0
  -21.2000   21.9090  -14.5450 C   0  0  2  0  0  0
  -21.2930   23.4430  -14.5380 C   0  0  0  0  0  0
  -21.6980   24.0230  -13.5230 O   0  0  0  0  0  0
  -20.2950   21.3960  -13.4130 C   0  0  0  0  0  0
  -20.8320   20.1730  -12.7130 C   0  0  0  0  0  0
  -21.3240   19.0850  -13.4450 C   0  0  0  0  0  0
  -20.8050   20.0790  -11.3290 C   0  0  0  0  0  0
  -21.8460   17.9570  -12.7980 C   0  0  0  0  0  0
  -21.3140   18.9440  -10.6780 C   0  0  0  0  0  0
  -21.8330   17.8900  -11.4170 C   0  0  0  0  0  0
  -20.9790   24.0820  -15.6910 N   0  0  0  0  0  0
  -21.0150   25.5400  -15.9180 C   0  0  2  0  0  0
  -22.4050   26.1410  -15.6510 C   0  0  0  0  0  0
  -23.3890   25.4240  -15.6420 O   0  0  0  0  0  0
  -20.5960   25.8780  -17.3770 C   0  0  0  0  0  0
  -19.1170   25.6260  -17.6760 C   0  0  0  0  0  0
  -18.7120   24.2290  -18.1280 C   0  0  0  0  0  0
  -19.6020   23.4120  -18.4700 O   0  0  0  0  0  0
  -17.4880   23.9860  -18.2320 O   0  0  0  0  0  0
  -22.4690   27.4490  -15.4210 N   0  0  0  0  0  0
  -23.7190   28.1780  -15.2370 C   0  0  2  0  0  0
  -24.3640   28.3870  -16.6290 C   0  0  0  0  0  0
  -23.6090   28.4900  -17.6270 O   0  0  0  0  0  0
  -23.4600   29.5220  -14.5260 C   0  0  0  0  0  0
  -23.0350   29.4040  -13.0780 C   0  0  0  0  0  0
  -21.7850   28.8900  -12.7350 C   0  0  0  0  0  0
  -23.8700   29.8280  -12.0480 C   0  0  0  0  0  0
  -21.4080   28.7270  -11.4030 C   0  0  0  0  0  0
  -23.5040   29.6730  -10.7080 C   0  0  0  0  0  0
  -22.2560   29.1550  -10.3930 C   0  0  0  0  0  0
  -21.8550   29.0520   -9.0850 O   0  0  0  0  0  0
  -25.6100   28.4660  -16.7250 O   0  0  0  0  0  0
  -12.1131   20.4422    2.3794 H   0  0  0  0  0  0
  -11.2423   19.0014    3.0059 H   0  0  0  0  0  0
  -13.0102   18.9190    2.6985 H   0  0  0  0  0  0
  -10.8217   19.3299    0.7042 H   0  0  0  0  0  0
  -11.1485   16.9829    1.7676 H   0  0  0  0  0  0
  -12.7279   16.9379    0.9132 H   0  0  0  0  0  0
   -9.1376   15.7753    0.2875 H   0  0  0  0  0  0
  -10.8913   16.3564   -3.5125 H   0  0  0  0  0  0
  -14.4769   21.0908   -1.3499 H   0  0  0  0  0  0
  -13.3398   21.6805   -3.8233 H   0  0  0  0  0  0
  -13.0138   22.7009   -2.3814 H   0  0  0  0  0  0
  -11.3543   20.5078   -3.6128 H   0  0  0  0  0  0
  -10.8466   22.1196   -3.0039 H   0  0  0  0  0  0
  -10.8391   21.3999   -0.7544 H   0  0  0  0  0  0
  -10.5555   19.7972   -1.5142 H   0  0  0  0  0  0
  -15.6621   20.8744   -3.4555 H   0  0  0  0  0  0
  -15.6301   17.9169   -4.0706 H   0  0  0  0  0  0
  -17.8211   18.8698   -3.3503 H   0  0  0  0  0  0
  -17.6130   21.1123   -4.3179 H   0  0  0  0  0  0
  -19.1626   20.3060   -4.7367 H   0  0  0  0  0  0
  -17.8486   20.4154   -5.9567 H   0  0  0  0  0  0
  -17.7284   16.8443   -4.8248 H   0  0  0  0  0  0
  -17.9189   17.9120   -6.2568 H   0  0  0  0  0  0
  -19.2328   17.8026   -5.0368 H   0  0  0  0  0  0
  -15.4511   17.1082   -6.1090 H   0  0  0  0  0  0
  -14.1731   19.0209   -8.1024 H   0  0  0  0  0  0
  -14.2578   17.2297   -8.2077 H   0  0  0  0  0  0
  -15.1541   19.8492   -9.7092 H   0  0  0  0  0  0
  -18.0577   19.1864  -10.1474 H   0  0  0  0  0  0
  -16.2398   21.1989  -11.6037 H   0  0  0  0  0  0
  -18.0292   21.1046  -11.7288 H   0  0  0  0  0  0
  -18.0516   21.5666   -9.1903 H   0  0  0  0  0  0
  -16.3295   22.0355   -9.3932 H   0  0  0  0  0  0
  -17.9132   23.8328   -8.2744 H   0  0  0  0  0  0
  -18.2848   25.2084   -9.5392 H   0  0  0  0  0  0
  -18.8521   17.8140  -11.6356 H   0  0  0  0  0  0
  -16.8420   16.4353  -13.4148 H   0  0  0  0  0  0
  -18.7397   15.2106  -12.4840 H   0  0  0  0  0  0
  -18.7886   15.2037  -14.2797 H   0  0  0  0  0  0
  -19.8838   16.2868  -13.3555 H   0  0  0  0  0  0
  -18.1033   16.1391  -15.8023 H   0  0  0  0  0  0
  -17.4677   18.7199  -17.0964 H   0  0  0  0  0  0
  -18.6598   16.0485  -18.0370 H   0  0  0  0  0  0
  -18.3782   17.4138  -19.1698 H   0  0  0  0  0  0
  -15.5551   15.2795  -19.8696 H   0  0  0  0  0  0
  -18.8892   20.0647  -18.4075 H   0  0  0  0  0  0
  -20.7999   21.3015  -18.7347 H   0  0  0  0  0  0
  -22.5461   18.8401  -18.1177 H   0  0  0  0  0  0
  -22.9365   20.2139  -19.2071 H   0  0  0  0  0  0
  -21.2228   16.9990  -18.8770 H   0  0  0  0  0  0
  -21.8849   20.3725  -21.4239 H   0  0  0  0  0  0
  -20.3198   15.7250  -20.7914 H   0  0  0  0  0  0
  -21.1153   19.0498  -23.3743 H   0  0  0  0  0  0
  -19.9226   15.5215  -23.1394 H   0  0  0  0  0  0
  -19.6886   21.3973  -16.1084 H   0  0  0  0  0  0
  -22.2083   21.4914  -14.4074 H   0  0  0  0  0  0
  -19.3091   21.1316  -13.8231 H   0  0  0  0  0  0
  -20.1770   22.1824  -12.6529 H   0  0  0  0  0  0
  -21.3005   19.1162  -14.5343 H   0  0  0  0  0  0
  -20.3843   20.8947  -10.7411 H   0  0  0  0  0  0
  -22.2609   17.1351  -13.3814 H   0  0  0  0  0  0
  -21.3016   18.8904   -9.5894 H   0  0  0  0  0  0
  -22.2297   17.0108  -10.9094 H   0  0  0  0  0  0
  -20.6749   23.4062  -16.5039 H   0  0  0  0  0  0
  -20.3010   25.9363  -15.1811 H   0  0  0  0  0  0
  -21.1777   25.2611  -18.0778 H   0  0  0  0  0  0
  -20.7901   26.9421  -17.5771 H   0  0  0  0  0  0
  -18.7866   26.2967  -18.4829 H   0  0  0  0  0  0
  -18.5218   25.8197  -16.7714 H   0  0  0  0  0  0
  -19.3227   22.4000  -18.7984 H   0  0  0  0  0  0
  -21.5086   27.9830  -15.3724 H   0  0  0  0  0  0
  -24.3636   27.5632  -14.5916 H   0  0  0  0  0  0
  -24.0386   28.6391  -18.6286 H   0  0  0  0  0  0
  -22.6580   30.0644  -15.0481 H   0  0  0  0  0  0
  -24.3791   30.1262  -14.5378 H   0  0  0  0  0  0
  -21.0882   28.6098  -13.5249 H   0  0  0  0  0  0
  -24.8271   30.2895  -12.2911 H   0  0  0  0  0  0
  -20.4517   28.2656  -11.1567 H   0  0  0  0  0  0
  -24.1953   29.9575   -9.9147 H   0  0  0  0  0  0
  -20.8638   28.6401   -8.8444 H   0  0  0  0  0  0
  1  2  1  0  0  0
  1 96  1  0  0  0
  1 97  1  0  0  0
  1 98  1  0  0  0
  2  3  1  0  0  0
  2  5  1  0  0  0
  2 99  1  0  0  0
  3  4  2  0  0  0
  3 11  1  0  0  0
  5  6  1  0  0  0
  5100  1  0  0  0
  5101  1  0  0  0
  6  7  2  0  0  0
  6  8  1  0  0  0
  7  9  1  0  0  0
  8 10  2  0  0  0
  8102  1  0  0  0
  9 10  1  0  0  0
  9103  1  0  0  0
 11 12  1  0  0  0
 11 17  1  0  0  0
 12 13  1  0  0  0
 12 15  1  0  0  0
 12104  1  0  0  0
 13 14  2  0  0  0
 13 18  1  0  0  0
 15 16  1  0  0  0
 15105  1  0  0  0
 15106  1  0  0  0
 16 17  1  0  0  0
 16107  1  0  0  0
 16108  1  0  0  0
 17109  1  0  0  0
 17110  1  0  0  0
 18 19  1  0  0  0
 18111  1  0  0  0
 19 20  1  0  0  0
 19 22  1  0  0  0
 19112  1  0  0  0
 20 21  2  0  0  0
 20 25  1  0  0  0
 22 23  1  0  0  0
 22 24  1  0  0  0
 22113  1  0  0  0
 23114  1  0  0  0
 23115  1  0  0  0
 23116  1  0  0  0
 24117  1  0  0  0
 24118  1  0  0  0
 24119  1  0  0  0
 25 26  1  0  0  0
 25120  1  0  0  0
 26 27  1  0  0  0
 26121  1  0  0  0
 26122  1  0  0  0
 27 28  2  0  0  0
 27 29  1  0  0  0
 29 30  1  0  0  0
 29123  1  0  0  0
 30 31  1  0  0  0
 30 33  1  0  0  0
 30124  1  0  0  0
 31 32  2  0  0  0
 31 38  1  0  0  0
 33 34  1  0  0  0
 33125  1  0  0  0
 33126  1  0  0  0
 34 35  1  0  0  0
 34127  1  0  0  0
 34128  1  0  0  0
 35 36  2  0  0  0
 35 37  1  0  0  0
 37129  1  0  0  0
 37130  1  0  0  0
 38 39  1  0  0  0
 38131  1  0  0  0
 39 40  1  0  0  0
 39 42  1  0  0  0
 39132  1  0  0  0
 40 41  2  0  0  0
 40 43  1  0  0  0
 42133  1  0  0  0
 42134  1  0  0  0
 42135  1  0  0  0
 43 44  1  0  0  0
 43136  1  0  0  0
 44 45  1  0  0  0
 44 47  1  0  0  0
 44137  1  0  0  0
 45 46  2  0  0  0
 45 51  1  0  0  0
 47 48  1  0  0  0
 47138  1  0  0  0
 47139  1  0  0  0
 48 49  2  0  0  0
 48 50  1  0  0  0
 50140  1  0  0  0
 51 52  1  0  0  0
 51141  1  0  0  0
 52 53  1  0  0  0
 52 55  1  0  0  0
 52142  1  0  0  0
 53 54  2  0  0  0
 53 63  1  0  0  0
 55 56  1  0  0  0
 55143  1  0  0  0
 55144  1  0  0  0
 56 57  2  0  0  0
 56 58  1  0  0  0
 57 59  1  0  0  0
 57145  1  0  0  0
 58 60  2  0  0  0
 58146  1  0  0  0
 59 61  2  0  0  0
 59147  1  0  0  0
 60 61  1  0  0  0
 60148  1  0  0  0
 61 62  1  0  0  0
 62149  1  0  0  0
 63 64  1  0  0  0
 63150  1  0  0  0
 64 65  1  0  0  0
 64 67  1  0  0  0
 64151  1  0  0  0
 65 66  2  0  0  0
 65 74  1  0  0  0
 67 68  1  0  0  0
 67152  1  0  0  0
 67153  1  0  0  0
 68 69  2  0  0  0
 68 70  1  0  0  0
 69 71  1  0  0  0
 69154  1  0  0  0
 70 72  2  0  0  0
 70155  1  0  0  0
 71 73  2  0  0  0
 71156  1  0  0  0
 72 73  1  0  0  0
 72157  1  0  0  0
 73158  1  0  0  0
 74 75  1  0  0  0
 74159  1  0  0  0
 75 76  1  0  0  0
 75 78  1  0  0  0
 75160  1  0  0  0
 76 77  2  0  0  0
 76 83  1  0  0  0
 78 79  1  0  0  0
 78161  1  0  0  0
 78162  1  0  0  0
 79 80  1  0  0  0
 79163  1  0  0  0
 79164  1  0  0  0
 80 81  1  0  0  0
 80 82  2  0  0  0
 81165  1  0  0  0
 83 84  1  0  0  0
 83166  1  0  0  0
 84 85  1  0  0  0
 84 87  1  0  0  0
 84167  1  0  0  0
 85 86  1  0  0  0
 85 95  2  0  0  0
 86168  1  0  0  0
 87 88  1  0  0  0
 87169  1  0  0  0
 87170  1  0  0  0
 88 89  2  0  0  0
 88 90  1  0  0  0
 89 91  1  0  0  0
 89171  1  0  0  0
 90 92  2  0  0  0
 90172  1  0  0  0
 91 93  2  0  0  0
 91173  1  0  0  0
 92 93  1  0  0  0
 92174  1  0  0  0
 93 94  1  0  0  0
 94175  1  0  0  0
M  CHG  1   1   1
M  END
> <s_m_source_file>
../4prp_ligand.sdf

> <i_m_source_file_index>
1

> <s_epik_input>
W0NIXTE9TltDSDJdTj1DMVtDSDJdW0NASF0oW05IMytdKUMoPU8pTjJbQ0BASF0oW0NIMl1bQ0gyXVtDSDJdMilDKD1PKVtOSF1bQ0BASF0oW0NIXShbQ0gzXSlbQ0gzXSlDKD1PKVtOSF1bQ0gyXUMoPU8pW05IXVtDQEBIXShbQ0gyXVtDSDJdQyg9TylbTkgyXSlDKD1PKVtOSF1bQ0BASF0oW0NIM10pQyg9TylbTkhdW0NAQEhdKFtDSDJdQyg9TylbT0hdKUMoPU8pW05IXVtDQEBIXShbQ0gyXWMzW2NIXVtjSF1jKFtPSF0pW2NIXVtjSF0zKUMoPU8pW05IXVtDQEBIXShbQ0gyXWM0W2NIXVtjSF1bY0hdW2NIXVtjSF00KUMoPU8pW05IXVtDQEBIXShbQ0gyXVtDSDJdQyg9TylbT0hdKUMoPU8pW05IXVtDQEhdKEMoPU8pW09IXSlbQ0gyXWM1W2NIXVtjSF1jKFtPSF0pW2NIXVtjSF01

> <s_epik_cmdline>
J2VwaWtfYXBwJywgJy1pbWFlJywgJ2xpZ2FuZF9wcm8ubWFlJywgJy1vbWFlJywgJ2xpZ2FuZF9wcmVwLm1hZScsICctbXMnLCAnMScsICctcGgnLCAnNycsICctcGh0JywgJzAuNScsICctbnQn

> <s_epik_pKa_notes>
Molecule size exceeds maximum supported for generating protonation states

> <s_epik_Chemistry_Notes>
This compound has an imine and may undergo hydrolysis.

$$$$
