4pry_ligand
                    3D
 Schrodinger Suite 2020-3.
 67 66  0  0  1  0            999 V2000
   41.0870   13.8200   75.4210 C   0  0  0  0  0  0
   40.2120   14.5870   75.0250 O   0  0  0  0  0  0
   41.2590   13.5850   76.9030 C   0  0  0  0  0  0
   41.6080   12.9060   74.6220 N   0  0  0  0  0  0
   41.4690   13.0150   73.1810 C   0  0  2  0  0  0
   41.0480   11.6670   72.5850 C   0  0  0  0  0  0
   41.6500   10.6340   72.8730 O   0  0  0  0  0  0
   42.7780   13.4960   72.5880 C   0  0  0  0  0  0
   42.9060   14.1320   71.2180 C   0  0  0  0  0  0
   41.8790   15.2440   70.9680 C   0  0  0  0  0  0
   44.3060   14.6830   71.1540 C   0  0  0  0  0  0
   40.0000   11.6870   71.7690 N   0  0  0  0  0  0
   39.4120   10.4800   71.1950 C   0  0  2  0  0  0
   39.1990   10.6620   69.6890 C   0  0  0  0  0  0
   39.2610   11.7770   69.1990 O   0  0  0  0  0  0
   38.0880   10.1520   71.9030 C   0  0  0  0  0  0
   38.2620    9.9880   73.4490 C   0  0  0  0  0  0
   36.9770    9.6560   74.2310 C   0  0  0  0  0  0
   35.8480    9.7130   73.6850 O   0  5  0  0  0  0
   37.1090    9.3520   75.4380 O   0  0  0  0  0  0
   38.9790    9.5620   68.9720 N   0  0  0  0  0  0
   38.6580    9.6160   67.5470 C   0  0  2  0  0  0
   37.2200    9.1880   67.3200 C   0  0  0  0  0  0
   36.6510    8.4320   68.0930 O   0  0  0  0  0  0
   39.5650    8.7200   66.6790 C   0  0  2  0  0  0
   39.5710    7.3830   67.2040 O   0  0  0  0  0  0
   40.9880    9.2510   66.6290 C   0  0  0  0  0  0
   36.6420    9.7020   66.2500 N   0  0  0  0  0  0
   35.3010    9.3200   65.8090 C   0  0  2  0  0  0
   35.3640    8.3810   64.6520 C   0  0  0  0  0  0
   34.3270    8.0030   64.0900 O   0  0  0  0  0  0
   34.6240   10.6250   65.3480 C   0  0  0  0  0  0
   33.9740   11.3200   66.5720 C   0  0  0  0  0  0
   33.7050   10.6820   67.6300 O   0  0  0  0  0  0
   33.6920   12.5540   66.5570 O   0  5  0  0  0  0
   36.4540    7.9650   64.2360 O   0  5  0  0  0  0
   40.7870   14.4066   77.4617 H   0  0  0  0  0  0
   42.3311   13.5448   77.1458 H   0  0  0  0  0  0
   40.7841   12.6325   77.1807 H   0  0  0  0  0  0
   42.1518   12.0557   75.0593 H   0  0  0  0  0  0
   40.6840   13.7611   72.9884 H   0  0  0  0  0  0
   43.2115   14.2714   73.2368 H   0  0  0  0  0  0
   43.4775   12.6507   72.5093 H   0  0  0  0  0  0
   42.7255   13.3755   70.4401 H   0  0  0  0  0  0
   40.8638   14.8236   71.0185 H   0  0  0  0  0  0
   42.0461   15.6803   69.9721 H   0  0  0  0  0  0
   41.9908   16.0254   71.7341 H   0  0  0  0  0  0
   45.0276   13.8728   71.3353 H   0  0  0  0  0  0
   44.4289   15.4619   71.9210 H   0  0  0  0  0  0
   44.4842   15.1168   70.1590 H   0  0  0  0  0  0
   39.5744   12.6730   71.5308 H   0  0  0  0  0  0
   40.1364    9.6701   71.3660 H   0  0  0  0  0  0
   37.3671   10.9640   71.7270 H   0  0  0  0  0  0
   37.6831    9.2097   71.5053 H   0  0  0  0  0  0
   38.9689    9.1705   73.6537 H   0  0  0  0  0  0
   38.6508   10.9244   73.8756 H   0  0  0  0  0  0
   39.0451    8.5909   69.4845 H   0  0  0  0  0  0
   38.8193   10.6742   67.2936 H   0  0  0  0  0  0
   39.1673    8.6514   65.6557 H   0  0  0  0  0  0
   38.6257    6.8315   67.3152 H   0  0  0  0  0  0
   40.9834   10.2749   66.2269 H   0  0  0  0  0  0
   41.5978    8.6051   65.9802 H   0  0  0  0  0  0
   41.4128    9.2574   67.6436 H   0  0  0  0  0  0
   37.2158   10.4491   65.6820 H   0  0  0  0  0  0
   34.7925    8.7968   66.6322 H   0  0  0  0  0  0
   35.3772   11.2909   64.9015 H   0  0  0  0  0  0
   33.8508   10.3929   64.6008 H   0  0  0  0  0  0
  1  2  2  0  0  0
  1  3  1  0  0  0
  1  4  1  0  0  0
  3 37  1  0  0  0
  3 38  1  0  0  0
  3 39  1  0  0  0
  4  5  1  0  0  0
  4 40  1  0  0  0
  5  6  1  0  0  0
  5  8  1  0  0  0
  5 41  1  0  0  0
  6  7  2  0  0  0
  6 12  1  0  0  0
  8  9  1  0  0  0
  8 42  1  0  0  0
  8 43  1  0  0  0
  9 10  1  0  0  0
  9 11  1  0  0  0
  9 44  1  0  0  0
 10 45  1  0  0  0
 10 46  1  0  0  0
 10 47  1  0  0  0
 11 48  1  0  0  0
 11 49  1  0  0  0
 11 50  1  0  0  0
 12 13  1  0  0  0
 12 51  1  0  0  0
 13 14  1  0  0  0
 13 16  1  0  0  0
 13 52  1  0  0  0
 14 15  2  0  0  0
 14 21  1  0  0  0
 16 17  1  0  0  0
 16 53  1  0  0  0
 16 54  1  0  0  0
 17 18  1  0  0  0
 17 55  1  0  0  0
 17 56  1  0  0  0
 18 19  1  0  0  0
 18 20  2  0  0  0
 21 22  1  0  0  0
 21 57  1  0  0  0
 22 23  1  0  0  0
 22 25  1  0  0  0
 22 58  1  0  0  0
 23 24  2  0  0  0
 23 28  1  0  0  0
 25 26  1  0  0  0
 25 27  1  0  0  0
 25 59  1  0  0  0
 26 60  1  0  0  0
 27 61  1  0  0  0
 27 62  1  0  0  0
 27 63  1  0  0  0
 28 29  1  0  0  0
 28 64  1  0  0  0
 29 30  1  0  0  0
 29 32  1  0  0  0
 29 65  1  0  0  0
 30 31  2  0  0  0
 30 36  1  0  0  0
 32 33  1  0  0  0
 32 66  1  0  0  0
 32 67  1  0  0  0
 33 34  2  0  0  0
 33 35  1  0  0  0
M  CHG  3  19  -1  35  -1  36  -1
M  END
> <s_m_source_file>
../4pry_ligand.sdf

> <i_m_source_file_index>
1

> <s_epik_input>
Tz1DKFtDSDNdKVtOSF1bQ0BASF0oW0NIMl1bQ0hdKFtDSDNdKVtDSDNdKUMoPU8pW05IXVtDQEBIXShbQ0gyXVtDSDJdQyg9TylbT0hdKUMoPU8pW05IXVtDQEBIXShbQ0BIXShbT0hdKVtDSDNdKUMoPU8pW05IXVtDQEhdKEMoPU8pW09IXSlbQ0gyXUMoPU8pW09IXQ==

> <s_epik_cmdline>
J2VwaWtfYXBwJywgJy1pbWFlJywgJ2xpZ2FuZF9wcm8ubWFlJywgJy1vbWFlJywgJ2xpZ2FuZF9wcmVwLm1hZScsICctbXMnLCAnMScsICctcGgnLCAnNycsICctcGh0JywgJzAuNScsICctbnQn

> <r_lp_tautomer_probability>
1

> <r_epik_Ionization_Penalty>
  0.0031

> <r_epik_Ionization_Penalty_Charging>
  0.0031

> <r_epik_Ionization_Penalty_Neutral>
  0.0000

> <r_epik_State_Penalty>
 -0.0000

> <r_epik_Charging_Adjusted_Penalty>
0.0031378999416159

> <i_epik_Tot_Q>
-3

> <i_epik_Tot_abs_Q>
3

$$$$
