4ps0_ligand
                    3D
 Schrodinger Suite 2020-3.
 79 79  0  0  1  0            999 V2000
  -24.8660    7.6660  -47.8890 N   0  3  0  0  0  0
  -24.2200    8.8980  -47.5720 C   0  0  0  0  0  0
  -22.8630    8.5700  -47.0360 C   0  0  0  0  0  0
  -23.0620    8.1690  -45.5860 C   0  0  0  0  0  0
  -23.1520    6.9520  -45.2900 O   0  0  0  0  0  0
  -23.4140    9.0910  -44.6960 N   0  0  0  0  0  0
  -23.3480    8.8990  -43.2320 C   0  0  2  0  0  0
  -24.5320    8.0730  -42.7090 C   0  0  0  0  0  0
  -25.6960    8.4180  -42.9890 O   0  0  0  0  0  0
  -23.3420   10.2740  -42.5710 C   0  0  0  0  0  0
  -23.1880   10.2530  -41.0570 C   0  0  0  0  0  0
  -21.6910    9.9740  -40.7070 C   0  0  0  0  0  0
  -23.7580   11.5610  -40.4740 C   0  0  0  0  0  0
  -24.2410    7.0340  -41.9120 N   0  0  0  0  0  0
  -25.2980    6.2740  -41.2420 C   0  0  2  0  0  0
  -24.8060    5.8980  -39.8530 C   0  0  0  0  0  0
  -23.6240    5.6530  -39.6930 O   0  0  0  0  0  0
  -25.6400    5.0010  -42.0220 C   0  0  0  0  0  0
  -26.1830    5.2920  -43.4270 C   0  0  0  0  0  0
  -26.7060    4.0790  -44.1430 C   0  0  0  0  0  0
  -26.6260    2.9390  -43.6560 O   0  0  0  0  0  0
  -27.3020    4.3250  -45.3140 N   0  0  0  0  0  0
  -25.6940    5.8610  -38.8670 N   0  0  0  0  0  0
  -25.3050    5.4510  -37.4120 C   0  0  2  0  0  0
  -25.4600    4.0830  -37.1490 C   0  0  0  0  0  0
  -26.3520    3.3810  -37.7590 O   0  0  0  0  0  0
  -26.3050    6.4250  -36.6760 C   0  0  0  0  0  0
  -27.4120    6.3100  -37.3950 C   0  0  2  0  0  0
  -26.9820    6.2420  -38.9150 C   0  0  0  0  0  0
  -28.3240    7.4890  -37.2120 O   0  0  0  0  0  0
  -24.6570    3.5490  -36.2150 N   0  0  0  0  0  0
  -24.8440    2.1790  -35.7630 C   0  0  2  0  0  0
  -25.4190    2.1710  -34.3610 C   0  0  0  0  0  0
  -25.3180    1.1680  -33.6630 O   0  0  0  0  0  0
  -23.4670    1.4700  -35.7290 C   0  0  0  0  0  0
  -23.1450    0.9760  -37.1170 C   0  0  0  0  0  0
  -21.9760    0.7330  -37.4710 O   0  5  0  0  0  0
  -24.0760    0.7500  -37.9010 O   0  0  0  0  0  0
  -26.0470    3.4150  -33.8380 C   0  0  0  0  0  0
  -25.8706    7.8707  -48.2875 H   0  0  0  0  0  0
  -24.9501    7.0517  -46.9804 H   0  0  0  0  0  0
  -24.2753    7.1258  -48.6435 H   0  0  0  0  0  0
  -24.1359    9.5123  -48.4806 H   0  0  0  0  0  0
  -24.8107    9.4383  -46.8175 H   0  0  0  0  0  0
  -22.4289    7.7435  -47.6178 H   0  0  0  0  0  0
  -22.2139    9.4545  -47.1151 H   0  0  0  0  0  0
  -23.7723   10.0451  -45.1100 H   0  0  0  0  0  0
  -22.4201    8.3463  -43.0232 H   0  0  0  0  0  0
  -22.5047   10.8675  -42.9668 H   0  0  0  0  0  0
  -24.2901   10.7885  -42.7863 H   0  0  0  0  0  0
  -23.7837    9.4439  -40.6093 H   0  0  0  0  0  0
  -21.3782    9.0242  -41.1652 H   0  0  0  0  0  0
  -21.5756    9.9098  -39.6150 H   0  0  0  0  0  0
  -21.0654   10.7916  -41.0944 H   0  0  0  0  0  0
  -24.8110   11.6677  -40.7736 H   0  0  0  0  0  0
  -23.1798   12.4153  -40.8559 H   0  0  0  0  0  0
  -23.6900   11.5335  -39.3764 H   0  0  0  0  0  0
  -23.1867    6.7562  -41.7658 H   0  0  0  0  0  0
  -26.1830    6.9258  -41.1973 H   0  0  0  0  0  0
  -24.7356    4.3846  -42.1325 H   0  0  0  0  0  0
  -26.4073    4.4318  -41.4767 H   0  0  0  0  0  0
  -27.0125    6.0111  -43.3578 H   0  0  0  0  0  0
  -25.3812    5.7160  -44.0494 H   0  0  0  0  0  0
  -27.3469    5.3529  -45.7030 H   0  0  0  0  0  0
  -27.7475    3.4995  -45.8885 H   0  0  0  0  0  0
  -24.2501    5.4401  -37.1004 H   0  0  0  0  0  0
  -26.4393    6.0948  -35.6354 H   0  0  0  0  0  0
  -25.8968    7.4464  -36.6868 H   0  0  0  0  0  0
  -27.8677    5.4160  -36.9444 H   0  0  0  0  0  0
  -27.0567    7.2201  -39.4128 H   0  0  0  0  0  0
  -27.5637    5.4981  -39.4792 H   0  0  0  0  0  0
  -28.7384    7.7148  -36.2184 H   0  0  0  0  0  0
  -23.8487    4.1627  -35.7906 H   0  0  0  0  0  0
  -25.5503    1.7127  -36.4657 H   0  0  0  0  0  0
  -22.6965    2.1813  -35.3968 H   0  0  0  0  0  0
  -23.5086    0.6216  -35.0301 H   0  0  0  0  0  0
  -26.0363    4.1880  -34.6205 H   0  0  0  0  0  0
  -25.4828    3.7708  -32.9633 H   0  0  0  0  0  0
  -27.0860    3.2055  -33.5437 H   0  0  0  0  0  0
  1  2  1  0  0  0
  1 40  1  0  0  0
  1 41  1  0  0  0
  1 42  1  0  0  0
  2  3  1  0  0  0
  2 43  1  0  0  0
  2 44  1  0  0  0
  3  4  1  0  0  0
  3 45  1  0  0  0
  3 46  1  0  0  0
  4  5  2  0  0  0
  4  6  1  0  0  0
  6  7  1  0  0  0
  6 47  1  0  0  0
  7  8  1  0  0  0
  7 10  1  0  0  0
  7 48  1  0  0  0
  8  9  2  0  0  0
  8 14  1  0  0  0
 10 11  1  0  0  0
 10 49  1  0  0  0
 10 50  1  0  0  0
 11 12  1  0  0  0
 11 13  1  0  0  0
 11 51  1  0  0  0
 12 52  1  0  0  0
 12 53  1  0  0  0
 12 54  1  0  0  0
 13 55  1  0  0  0
 13 56  1  0  0  0
 13 57  1  0  0  0
 14 15  1  0  0  0
 14 58  1  0  0  0
 15 16  1  0  0  0
 15 18  1  0  0  0
 15 59  1  0  0  0
 16 17  2  0  0  0
 16 23  1  0  0  0
 18 19  1  0  0  0
 18 60  1  0  0  0
 18 61  1  0  0  0
 19 20  1  0  0  0
 19 62  1  0  0  0
 19 63  1  0  0  0
 20 21  2  0  0  0
 20 22  1  0  0  0
 22 64  1  0  0  0
 22 65  1  0  0  0
 23 24  1  0  0  0
 23 29  1  0  0  0
 24 25  1  0  0  0
 24 27  1  0  0  0
 24 66  1  0  0  0
 25 26  2  0  0  0
 25 31  1  0  0  0
 27 28  1  0  0  0
 27 67  1  0  0  0
 27 68  1  0  0  0
 28 29  1  0  0  0
 28 30  1  0  0  0
 28 69  1  0  0  0
 29 70  1  0  0  0
 29 71  1  0  0  0
 30 72  1  0  0  0
 31 32  1  0  0  0
 31 73  1  0  0  0
 32 33  1  0  0  0
 32 35  1  0  0  0
 32 74  1  0  0  0
 33 34  2  0  0  0
 33 39  1  0  0  0
 35 36  1  0  0  0
 35 75  1  0  0  0
 35 76  1  0  0  0
 36 37  1  0  0  0
 36 38  2  0  0  0
 39 77  1  0  0  0
 39 78  1  0  0  0
 39 79  1  0  0  0
M  CHG  2   1   1  37  -1
M  END
> <s_m_source_file>
../4ps0_ligand.sdf

> <i_m_source_file_index>
1

> <s_epik_input>
W05IMytdW0NIMl1bQ0gyXUMoPU8pW05IXVtDQEBIXShbQ0gyXVtDSF0oW0NIM10pW0NIM10pQyg9TylbTkhdW0NAQEhdKFtDSDJdW0NIMl1DKD1PKVtOSDJdKUMoPU8pTjFbQ0BASF0oW0NIMl1bQ0BIXShbQ0gyXTEpW09IXSlDKD1PKVtOSF1bQ0BIXShDKD1PKVtDSDNdKVtDSDJdQyg9TylbT0hd

> <s_epik_cmdline>
J2VwaWtfYXBwJywgJy1pbWFlJywgJ2xpZ2FuZF9wcm8ubWFlJywgJy1vbWFlJywgJ2xpZ2FuZF9wcmVwLm1hZScsICctbXMnLCAnMScsICctcGgnLCAnNycsICctcGh0JywgJzAuNScsICctbnQn

> <r_lp_tautomer_probability>
1

> <r_epik_Ionization_Penalty>
  0.0022

> <r_epik_Ionization_Penalty_Charging>
  0.0022

> <r_epik_Ionization_Penalty_Neutral>
  0.0000

> <r_epik_State_Penalty>
 -0.0000

> <r_epik_Charging_Adjusted_Penalty>
0.00222487057380219

> <i_epik_Tot_Q>
0

> <i_epik_Tot_abs_Q>
2

$$$$
