4ps1_ligand
                    3D
 Schrodinger Suite 2020-3.
 79 79  0  0  1  0            999 V2000
  -42.6660   14.8920   26.3030 N   0  3  0  0  0  0
  -42.3210   16.2270   26.6800 C   0  0  0  0  0  0
  -43.4710   17.1710   26.3890 C   0  0  0  0  0  0
  -43.7140   17.2320   24.8830 C   0  0  0  0  0  0
  -42.7490   17.4880   24.0940 O   0  0  0  0  0  0
  -44.8980   16.8810   24.3930 N   0  0  0  0  0  0
  -45.3410   17.1060   23.0260 C   0  0  2  0  0  0
  -45.0810   18.5200   22.5680 C   0  0  0  0  0  0
  -45.2200   19.4680   23.3500 O   0  0  0  0  0  0
  -46.8340   16.8370   22.8970 C   0  0  0  0  0  0
  -47.3160   15.4080   23.0840 C   0  0  0  0  0  0
  -48.8280   15.3850   22.9450 C   0  0  0  0  0  0
  -46.6590   14.5340   22.0260 C   0  0  0  0  0  0
  -44.7440   18.6550   21.2840 N   0  0  0  0  0  0
  -44.5550   19.9340   20.6440 C   0  0  2  0  0  0
  -45.3220   19.9240   19.3540 C   0  0  0  0  0  0
  -45.3230   18.9280   18.6360 O   0  0  0  0  0  0
  -43.0800   20.1990   20.3570 C   0  0  0  0  0  0
  -42.2500   20.2290   21.6370 C   0  0  0  0  0  0
  -40.8060   20.5810   21.4040 C   0  0  0  0  0  0
  -40.4050   20.9750   20.2980 O   0  0  0  0  0  0
  -39.9970   20.4550   22.4670 N   0  0  0  0  0  0
  -45.9470   21.0450   19.0250 N   0  0  0  0  0  0
  -46.6130   21.1740   17.6190 C   0  0  2  0  0  0
  -45.6850   21.4480   16.6150 C   0  0  0  0  0  0
  -44.6350   22.1070   16.8680 O   0  0  0  0  0  0
  -47.6200   22.3820   17.8410 C   0  0  0  0  0  0
  -47.5600   22.6940   19.0950 C   0  0  2  0  0  0
  -46.2230   22.1200   19.7050 C   0  0  0  0  0  0
  -48.6700   21.9770   19.8130 O   0  0  0  0  0  0
  -45.9750   20.9850   15.3800 N   0  0  0  0  0  0
  -45.2310   21.3720   14.1650 C   0  0  2  0  0  0
  -45.9930   22.4360   13.3950 C   0  0  0  0  0  0
  -45.8260   22.6440   12.2000 O   0  0  0  0  0  0
  -45.0560   20.1170   13.3100 C   0  0  0  0  0  0
  -43.8030   19.3580   13.7070 C   0  0  0  0  0  0
  -43.7150   18.1610   13.3540 O   0  0  0  0  0  0
  -42.8760   19.9810   14.3180 O   0  5  0  0  0  0
  -46.9830   23.2900   14.1390 C   0  0  0  0  0  0
  -41.8225   14.2201   26.5201 H   0  0  0  0  0  0
  -42.8914   14.8616   25.2268 H   0  0  0  0  0  0
  -43.5495   14.5670   26.8720 H   0  0  0  0  0  0
  -42.0956   16.2574   27.7562 H   0  0  0  0  0  0
  -41.4375   16.5520   26.1110 H   0  0  0  0  0  0
  -44.3796   16.8079   26.8917 H   0  0  0  0  0  0
  -43.2232   18.1763   26.7605 H   0  0  0  0  0  0
  -45.5650   16.3836   25.1125 H   0  0  0  0  0  0
  -44.7383   16.4041   22.4309 H   0  0  0  0  0  0
  -47.3789   17.4251   23.6502 H   0  0  0  0  0  0
  -47.1730   17.1254   21.8911 H   0  0  0  0  0  0
  -47.0476   15.0252   24.0797 H   0  0  0  0  0  0
  -49.2772   16.0234   23.7200 H   0  0  0  0  0  0
  -49.1914   14.3536   23.0635 H   0  0  0  0  0  0
  -49.1106   15.7614   21.9508 H   0  0  0  0  0  0
  -45.5664   14.5683   22.1489 H   0  0  0  0  0  0
  -46.9274   14.9048   21.0258 H   0  0  0  0  0  0
  -47.0082   13.4970   22.1385 H   0  0  0  0  0  0
  -44.6102   17.7270   20.7087 H   0  0  0  0  0  0
  -44.9403   20.6941   21.3395 H   0  0  0  0  0  0
  -42.6843   19.4043   19.7075 H   0  0  0  0  0  0
  -42.9733   21.1711   19.8535 H   0  0  0  0  0  0
  -42.6659   20.9787   22.3262 H   0  0  0  0  0  0
  -42.2758   19.2382   22.1141 H   0  0  0  0  0  0
  -40.4012   20.1012   23.4269 H   0  0  0  0  0  0
  -38.9296   20.7055   22.3786 H   0  0  0  0  0  0
  -47.0162   20.2446   17.1904 H   0  0  0  0  0  0
  -47.3168   23.2323   17.2124 H   0  0  0  0  0  0
  -48.6372   22.0668   17.5656 H   0  0  0  0  0  0
  -47.6739   23.7869   19.0445 H   0  0  0  0  0  0
  -46.3514   21.8598   20.7660 H   0  0  0  0  0  0
  -45.3988   22.8411   19.6015 H   0  0  0  0  0  0
  -49.7186   22.2005   19.5671 H   0  0  0  0  0  0
  -46.8179   20.2819   15.3082 H   0  0  0  0  0  0
  -44.2600   21.7936   14.4641 H   0  0  0  0  0  0
  -45.9256   19.4570   13.4452 H   0  0  0  0  0  0
  -44.9741   20.4032   12.2511 H   0  0  0  0  0  0
  -47.0157   22.9791   15.1937 H   0  0  0  0  0  0
  -47.9803   23.1706   13.6904 H   0  0  0  0  0  0
  -46.6769   24.3447   14.0769 H   0  0  0  0  0  0
  1  2  1  0  0  0
  1 40  1  0  0  0
  1 41  1  0  0  0
  1 42  1  0  0  0
  2  3  1  0  0  0
  2 43  1  0  0  0
  2 44  1  0  0  0
  3  4  1  0  0  0
  3 45  1  0  0  0
  3 46  1  0  0  0
  4  5  2  0  0  0
  4  6  1  0  0  0
  6  7  1  0  0  0
  6 47  1  0  0  0
  7  8  1  0  0  0
  7 10  1  0  0  0
  7 48  1  0  0  0
  8  9  2  0  0  0
  8 14  1  0  0  0
 10 11  1  0  0  0
 10 49  1  0  0  0
 10 50  1  0  0  0
 11 12  1  0  0  0
 11 13  1  0  0  0
 11 51  1  0  0  0
 12 52  1  0  0  0
 12 53  1  0  0  0
 12 54  1  0  0  0
 13 55  1  0  0  0
 13 56  1  0  0  0
 13 57  1  0  0  0
 14 15  1  0  0  0
 14 58  1  0  0  0
 15 16  1  0  0  0
 15 18  1  0  0  0
 15 59  1  0  0  0
 16 17  2  0  0  0
 16 23  1  0  0  0
 18 19  1  0  0  0
 18 60  1  0  0  0
 18 61  1  0  0  0
 19 20  1  0  0  0
 19 62  1  0  0  0
 19 63  1  0  0  0
 20 21  2  0  0  0
 20 22  1  0  0  0
 22 64  1  0  0  0
 22 65  1  0  0  0
 23 24  1  0  0  0
 23 29  1  0  0  0
 24 25  1  0  0  0
 24 27  1  0  0  0
 24 66  1  0  0  0
 25 26  2  0  0  0
 25 31  1  0  0  0
 27 28  1  0  0  0
 27 67  1  0  0  0
 27 68  1  0  0  0
 28 29  1  0  0  0
 28 30  1  0  0  0
 28 69  1  0  0  0
 29 70  1  0  0  0
 29 71  1  0  0  0
 30 72  1  0  0  0
 31 32  1  0  0  0
 31 73  1  0  0  0
 32 33  1  0  0  0
 32 35  1  0  0  0
 32 74  1  0  0  0
 33 34  2  0  0  0
 33 39  1  0  0  0
 35 36  1  0  0  0
 35 75  1  0  0  0
 35 76  1  0  0  0
 36 37  2  0  0  0
 36 38  1  0  0  0
 39 77  1  0  0  0
 39 78  1  0  0  0
 39 79  1  0  0  0
M  CHG  2   1   1  38  -1
M  END
> <s_m_source_file>
../4ps1_ligand.sdf

> <i_m_source_file_index>
1

> <s_epik_input>
W05IMytdW0NIMl1bQ0gyXUMoPU8pW05IXVtDQEBIXShbQ0gyXVtDSF0oW0NIM10pW0NIM10pQyg9TylbTkhdW0NAQEhdKFtDSDJdW0NIMl1DKD1PKVtOSDJdKUMoPU8pTjFbQ0BASF0oW0NIMl1bQ0BIXShbQ0gyXTEpW09IXSlDKD1PKVtOSF1bQ0BIXShDKD1PKVtDSDNdKVtDSDJdQyg9TylbT0hd

> <s_epik_cmdline>
J2VwaWtfYXBwJywgJy1pbWFlJywgJ2xpZ2FuZF9wcm8ubWFlJywgJy1vbWFlJywgJ2xpZ2FuZF9wcmVwLm1hZScsICctbXMnLCAnMScsICctcGgnLCAnNycsICctcGh0JywgJzAuNScsICctbnQn

> <r_lp_tautomer_probability>
1

> <r_epik_Ionization_Penalty>
  0.0022

> <r_epik_Ionization_Penalty_Charging>
  0.0022

> <r_epik_Ionization_Penalty_Neutral>
  0.0000

> <r_epik_State_Penalty>
 -0.0000

> <r_epik_Charging_Adjusted_Penalty>
0.00222487057380219

> <i_epik_Tot_Q>
0

> <i_epik_Tot_abs_Q>
2

$$$$
