4ps5_ligand
                    3D
 Schrodinger Suite 2020-3.
 74 77  0  0  1  0            999 V2000
   29.9340   12.0330   29.8400 C   0  0  0  0  0  0
   29.2680   11.1820   28.7470 C   0  0  0  0  0  0
   28.0980   10.5050   29.4710 C   0  0  0  0  0  0
   27.6290   11.5970   30.4400 C   0  0  0  0  0  0
   28.8720   12.3000   30.8400 N   0  3  0  0  0  0
   28.7540   13.6970   31.3550 C   0  0  0  0  0  0
   27.6930   13.9360   32.4510 C   0  0  0  0  0  0
   27.7560   12.8700   33.4200 O   0  0  0  0  0  0
   26.6190   12.7240   34.1840 C   0  0  0  0  0  0
   26.2280   11.4390   34.6090 C   0  0  0  0  0  0
   25.0690   11.2480   35.3880 C   0  0  0  0  0  0
   25.8350   13.8330   34.5600 C   0  0  0  0  0  0
   24.6860   13.6460   35.3450 C   0  0  0  0  0  0
   24.2790   12.3570   35.7670 C   0  0  0  0  0  0
   23.1540   12.1850   36.5310 N   0  0  0  0  0  0
   22.4650   11.1200   37.0070 C   0  0  0  0  0  0
   22.7440    9.8670   36.5610 N   0  0  0  0  0  0
   21.4910   11.2700   37.9340 N   0  0  0  0  0  0
   20.7810   10.2300   38.4190 C   0  0  0  0  0  0
   21.0430    8.9180   37.9700 C   0  0  0  0  0  0
   20.2570    7.7750   38.5080 C   0  0  0  0  0  0
   22.0760    8.7690   37.0010 C   0  0  0  0  0  0
   22.3710    7.5230   36.5420 N   0  0  0  0  0  0
   23.1410    7.1280   35.4760 C   0  0  0  0  0  0
   23.5320    7.9300   34.3820 C   0  0  0  0  0  0
   23.5660    5.7790   35.5010 C   0  0  0  0  0  0
   24.3410    5.2230   34.4660 C   0  0  0  0  0  0
   24.7160    6.0290   33.3800 C   0  0  0  0  0  0
   24.3030    7.3750   33.3410 C   0  0  0  0  0  0
   24.7670    8.3900   31.9810 S   0  0  0  0  0  0
   25.9480    9.3430   32.4380 O   0  0  0  0  0  0
   25.1760    7.4570   30.7800 O   0  0  0  0  0  0
   23.4200    9.4280   31.5040 N   0  0  3  0  0  0
   22.4040    8.9850   30.5020 C   0  0  0  0  0  0
   21.2490   10.0200   30.6030 C   0  0  0  0  0  0
   21.8160    7.5730   30.8010 C   0  0  0  0  0  0
   22.9930    9.0550   29.0630 C   0  0  0  0  0  0
   30.7699   11.4719   30.2831 H   0  0  0  0  0  0
   30.3124   12.9666   29.3982 H   0  0  0  0  0  0
   28.9290   11.8352   27.9294 H   0  0  0  0  0  0
   29.9934   10.4529   28.3570 H   0  0  0  0  0  0
   27.3266   10.2246   28.7387 H   0  0  0  0  0  0
   28.4587    9.6030   29.9871 H   0  0  0  0  0  0
   26.9268   12.2682   29.9239 H   0  0  0  0  0  0
   27.1262   11.1321   31.3009 H   0  0  0  0  0  0
   29.1922   11.8427   31.7878 H   0  0  0  0  0  0
   29.7143   14.0093   31.7912 H   0  0  0  0  0  0
   28.4905   14.3719   30.5273 H   0  0  0  0  0  0
   27.8902   14.8968   32.9489 H   0  0  0  0  0  0
   26.6926   13.9583   31.9942 H   0  0  0  0  0  0
   26.8331   10.5763   34.3302 H   0  0  0  0  0  0
   24.7815   10.2435   35.6986 H   0  0  0  0  0  0
   26.1205   14.8356   34.2415 H   0  0  0  0  0  0
   24.0935   14.5132   35.6364 H   0  0  0  0  0  0
   22.5999   13.0611   36.8992 H   0  0  0  0  0  0
   20.0016   10.4041   39.1609 H   0  0  0  0  0  0
   19.5231    8.1462   39.2385 H   0  0  0  0  0  0
   20.9356    7.0625   38.9997 H   0  0  0  0  0  0
   19.7311    7.2713   37.6835 H   0  0  0  0  0  0
   21.9649    6.6380   37.0537 H   0  0  0  0  0  0
   23.2375    8.9787   34.3424 H   0  0  0  0  0  0
   23.2850    5.1516   36.3468 H   0  0  0  0  0  0
   24.6467    4.1776   34.5075 H   0  0  0  0  0  0
   25.3220    5.6167   32.5732 H   0  0  0  0  0  0
   23.4392   10.4746   31.8419 H   0  0  0  0  0  0
   20.8161    9.9888   31.6137 H   0  0  0  0  0  0
   20.4721    9.7757   29.8636 H   0  0  0  0  0  0
   21.6414   11.0280   30.4031 H   0  0  0  0  0  0
   21.4083    7.5544   31.8225 H   0  0  0  0  0  0
   22.6108    6.8180   30.7096 H   0  0  0  0  0  0
   21.0140    7.3500   30.0819 H   0  0  0  0  0  0
   23.3994   10.0610   28.8817 H   0  0  0  0  0  0
   22.1995    8.8428   28.3313 H   0  0  0  0  0  0
   23.7963    8.3107   28.9590 H   0  0  0  0  0  0
  1  2  1  0  0  0
  1  5  1  0  0  0
  1 38  1  0  0  0
  1 39  1  0  0  0
  2  3  1  0  0  0
  2 40  1  0  0  0
  2 41  1  0  0  0
  3  4  1  0  0  0
  3 42  1  0  0  0
  3 43  1  0  0  0
  4  5  1  0  0  0
  4 44  1  0  0  0
  4 45  1  0  0  0
  5  6  1  0  0  0
  5 46  1  0  0  0
  6  7  1  0  0  0
  6 47  1  0  0  0
  6 48  1  0  0  0
  7  8  1  0  0  0
  7 49  1  0  0  0
  7 50  1  0  0  0
  8  9  1  0  0  0
  9 10  2  0  0  0
  9 12  1  0  0  0
 10 11  1  0  0  0
 10 51  1  0  0  0
 11 14  2  0  0  0
 11 52  1  0  0  0
 12 13  2  0  0  0
 12 53  1  0  0  0
 13 14  1  0  0  0
 13 54  1  0  0  0
 14 15  1  0  0  0
 15 16  1  0  0  0
 15 55  1  0  0  0
 16 17  2  0  0  0
 16 18  1  0  0  0
 17 22  1  0  0  0
 18 19  2  0  0  0
 19 20  1  0  0  0
 19 56  1  0  0  0
 20 21  1  0  0  0
 20 22  2  0  0  0
 21 57  1  0  0  0
 21 58  1  0  0  0
 21 59  1  0  0  0
 22 23  1  0  0  0
 23 24  1  0  0  0
 23 60  1  0  0  0
 24 25  2  0  0  0
 24 26  1  0  0  0
 25 29  1  0  0  0
 25 61  1  0  0  0
 26 27  2  0  0  0
 26 62  1  0  0  0
 27 28  1  0  0  0
 27 63  1  0  0  0
 28 29  2  0  0  0
 28 64  1  0  0  0
 29 30  1  0  0  0
 30 31  2  0  0  0
 30 32  2  0  0  0
 30 33  1  0  0  0
 33 34  1  0  0  0
 33 65  1  0  0  0
 34 35  1  0  0  0
 34 36  1  0  0  0
 34 37  1  0  0  0
 35 66  1  0  0  0
 35 67  1  0  0  0
 35 68  1  0  0  0
 36 69  1  0  0  0
 36 70  1  0  0  0
 36 71  1  0  0  0
 37 72  1  0  0  0
 37 73  1  0  0  0
 37 74  1  0  0  0
M  CHG  1   5   1
M  END
> <s_m_source_file>
../4ps5_ligand.sdf

> <i_m_source_file_index>
1

> <s_epik_input>
W0NIMl0xW0NIMl1bQ0gyXVtDSDJdW05IK10xW0NIMl1bQ0gyXU9jMltjSF1bY0hdYyhbY0hdW2NIXTIpW05IXWMzbmMoYyhbY0hdbjMpW0NIM10pW05IXWM0W2NIXWMoW2NIXVtjSF1bY0hdNClTKD1PKSg9TylbTkhdQyhbQ0gzXSkoW0NIM10pW0NIM10=

> <s_epik_cmdline>
J2VwaWtfYXBwJywgJy1pbWFlJywgJ2xpZ2FuZF9wcm8ubWFlJywgJy1vbWFlJywgJ2xpZ2FuZF9wcmVwLm1hZScsICctbXMnLCAnMScsICctcGgnLCAnNycsICctcGh0JywgJzAuNScsICctbnQn

> <r_lp_tautomer_probability>
0.999999624730965

> <r_epik_Ionization_Penalty>
  0.0622

> <r_epik_Ionization_Penalty_Charging>
  0.0083

> <r_epik_Ionization_Penalty_Neutral>
  0.0540

> <r_epik_State_Penalty>
  0.0456

> <r_epik_Charging_Adjusted_Penalty>
0.0538819686283561

> <i_epik_Tot_Q>
1

> <i_epik_Tot_abs_Q>
1

$$$$
