4ps7_ligand
                    3D
 Schrodinger Suite 2020-3.
 30 32  0  0  1  0            999 V2000
   14.3590   62.7310   23.4250 C   0  0  0  0  0  0
   15.8190   62.7030   23.0420 C   0  0  0  0  0  0
   16.2100   63.4750   22.1950 O   0  0  0  0  0  0
   16.6580   61.8250   23.6610 N   0  0  0  0  0  0
   18.0160   61.6340   23.4120 C   0  0  0  0  0  0
   18.7410   60.7780   24.0690 N   0  0  0  0  0  0
   20.0280   60.6600   23.7270 C   0  0  0  0  0  0
   21.0090   59.8160   24.2630 C   0  0  0  0  0  0
   22.2890   59.8330   23.7650 C   0  0  0  0  0  0
   22.6370   60.6940   22.7180 C   0  0  0  0  0  0
   21.6770   61.5380   22.1850 C   0  0  0  0  0  0
   20.3880   61.5290   22.6800 C   0  0  0  0  0  0
   18.9800   62.4730   22.1900 S   0  0  0  0  0  0
   23.9970   60.7100   22.1300 C   0  0  0  0  0  0
   24.1820   61.2290   20.8230 C   0  0  0  0  0  0
   25.4580   61.2200   20.2480 C   0  0  0  0  0  0
   26.5150   60.6910   20.9660 C   0  0  0  0  0  0
   26.2900   60.1910   22.1760 N   0  0  0  0  0  0
   25.1020   60.1660   22.7740 C   0  0  0  0  0  0
   13.8380   63.4943   22.8283 H   0  0  0  0  0  0
   14.2649   62.9738   24.4937 H   0  0  0  0  0  0
   13.9103   61.7454   23.2320 H   0  0  0  0  0  0
   16.2765   61.1665   24.4552 H   0  0  0  0  0  0
   20.7550   59.1414   25.0806 H   0  0  0  0  0  0
   23.0417   59.1688   24.1898 H   0  0  0  0  0  0
   21.9403   62.2129   21.3705 H   0  0  0  0  0  0
   23.3345   61.6329   20.2691 H   0  0  0  0  0  0
   25.6165   61.6243   19.2482 H   0  0  0  0  0  0
   27.5201   60.6844   20.5443 H   0  0  0  0  0  0
   24.9958   59.7214   23.7635 H   0  0  0  0  0  0
  1  2  1  0  0  0
  1 20  1  0  0  0
  1 21  1  0  0  0
  1 22  1  0  0  0
  2  3  2  0  0  0
  2  4  1  0  0  0
  4  5  1  0  0  0
  4 23  1  0  0  0
  5  6  2  0  0  0
  5 13  1  0  0  0
  6  7  1  0  0  0
  7  8  2  0  0  0
  7 12  1  0  0  0
  8  9  1  0  0  0
  8 24  1  0  0  0
  9 10  2  0  0  0
  9 25  1  0  0  0
 10 11  1  0  0  0
 10 14  1  0  0  0
 11 12  2  0  0  0
 11 26  1  0  0  0
 12 13  1  0  0  0
 14 15  2  0  0  0
 14 19  1  0  0  0
 15 16  1  0  0  0
 15 27  1  0  0  0
 16 17  2  0  0  0
 16 28  1  0  0  0
 17 18  1  0  0  0
 17 29  1  0  0  0
 18 19  2  0  0  0
 19 30  1  0  0  0
M  END
> <s_m_source_file>
../4ps7_ligand.sdf

> <i_m_source_file_index>
1

> <s_epik_input>
W0NIM11DKD1PKVtOSF1jKG4xKXNjKGMxMilbY0hdYyhbY0hdW2NIXTIpLWMzW2NIXVtjSF1bY0hdbltjSF0z

> <s_epik_cmdline>
J2VwaWtfYXBwJywgJy1pbWFlJywgJ2xpZ2FuZF9wcm8ubWFlJywgJy1vbWFlJywgJ2xpZ2FuZF9wcmVwLm1hZScsICctbXMnLCAnMScsICctcGgnLCAnNycsICctcGh0JywgJzAuNScsICctbnQn

> <r_lp_tautomer_probability>
1

> <r_epik_Ionization_Penalty>
  0.0049

> <r_epik_Ionization_Penalty_Charging>
  0.0000

> <r_epik_Ionization_Penalty_Neutral>
  0.0049

> <r_epik_State_Penalty>
 -0.0000

> <r_epik_Charging_Adjusted_Penalty>
0

> <i_epik_Tot_Q>
0

> <i_epik_Tot_abs_Q>
0

$$$$
