4ps8_ligand
                    3D
 Schrodinger Suite 2020-3.
 38 40  0  0  1  0            999 V2000
   14.1620   62.8420   23.6670 C   0  0  0  0  0  0
   15.6100   62.8520   23.3040 C   0  0  0  0  0  0
   15.9800   63.7080   22.5170 O   0  0  0  0  0  0
   16.4130   61.9230   23.8960 N   0  0  0  0  0  0
   17.7700   61.7140   23.6550 C   0  0  0  0  0  0
   18.4850   60.7760   24.1930 N   0  0  0  0  0  0
   19.7690   60.6840   23.7820 C   0  0  0  0  0  0
   20.7790   59.7770   24.1830 C   0  0  0  0  0  0
   22.0330   59.8460   23.6590 C   0  0  0  0  0  0
   22.3790   60.8190   22.7030 C   0  0  0  0  0  0
   21.4110   61.7120   22.2750 C   0  0  0  0  0  0
   20.1270   61.6460   22.8180 C   0  0  0  0  0  0
   18.7210   62.6410   22.4930 S   0  0  0  0  0  0
   23.7290   60.8170   22.0890 C   0  0  0  0  0  0
   23.8420   61.2770   20.7660 C   0  0  0  0  0  0
   25.0830   61.2440   20.1370 C   0  0  0  0  0  0
   26.1940   60.6950   20.8270 C   0  0  0  0  0  0
   26.0370   60.2310   22.0740 N   0  0  0  0  0  0
   24.8640   60.2610   22.7030 C   0  0  0  0  0  0
   27.4320   60.6480   20.2400 O   0  0  0  0  0  0
   28.1360   59.4060   20.2550 C   0  0  0  0  0  0
   25.1750   61.7160   18.8640 O   0  0  0  0  0  0
   25.1480   63.1230   18.6240 C   0  0  0  0  0  0
   13.6407   63.6397   23.1175 H   0  0  0  0  0  0
   14.0540   63.0108   24.7486 H   0  0  0  0  0  0
   13.7244   61.8681   23.4024 H   0  0  0  0  0  0
   15.9987   61.2392   24.6515 H   0  0  0  0  0  0
   20.5486   59.0110   24.9234 H   0  0  0  0  0  0
   22.7871   59.1308   23.9875 H   0  0  0  0  0  0
   21.6500   62.4607   21.5198 H   0  0  0  0  0  0
   22.9669   61.6557   20.2380 H   0  0  0  0  0  0
   24.7829   59.8484   23.7086 H   0  0  0  0  0  0
   29.1055   59.5279   19.7498 H   0  0  0  0  0  0
   27.5429   58.6420   19.7310 H   0  0  0  0  0  0
   28.3020   59.0912   21.2958 H   0  0  0  0  0  0
   25.2332   63.3124   17.5438 H   0  0  0  0  0  0
   25.9895   63.6004   19.1475 H   0  0  0  0  0  0
   24.2006   63.5403   18.9959 H   0  0  0  0  0  0
  1  2  1  0  0  0
  1 24  1  0  0  0
  1 25  1  0  0  0
  1 26  1  0  0  0
  2  3  2  0  0  0
  2  4  1  0  0  0
  4  5  1  0  0  0
  4 27  1  0  0  0
  5  6  2  0  0  0
  5 13  1  0  0  0
  6  7  1  0  0  0
  7  8  2  0  0  0
  7 12  1  0  0  0
  8  9  1  0  0  0
  8 28  1  0  0  0
  9 10  2  0  0  0
  9 29  1  0  0  0
 10 11  1  0  0  0
 10 14  1  0  0  0
 11 12  2  0  0  0
 11 30  1  0  0  0
 12 13  1  0  0  0
 14 15  2  0  0  0
 14 19  1  0  0  0
 15 16  1  0  0  0
 15 31  1  0  0  0
 16 17  2  0  0  0
 16 22  1  0  0  0
 17 18  1  0  0  0
 17 20  1  0  0  0
 18 19  2  0  0  0
 19 32  1  0  0  0
 20 21  1  0  0  0
 21 33  1  0  0  0
 21 34  1  0  0  0
 21 35  1  0  0  0
 22 23  1  0  0  0
 23 36  1  0  0  0
 23 37  1  0  0  0
 23 38  1  0  0  0
M  END
> <s_m_source_file>
../4ps8_ligand.sdf

> <i_m_source_file_index>
1

> <s_epik_input>
W0NIM11DKD1PKVtOSF1jKG4xKXNjKGMxMilbY0hdYyhbY0hdW2NIXTIpLWMzW2NIXWMoT1tDSDNdKWMobltjSF0zKU9bQ0gzXQ==

> <s_epik_cmdline>
J2VwaWtfYXBwJywgJy1pbWFlJywgJ2xpZ2FuZF9wcm8ubWFlJywgJy1vbWFlJywgJ2xpZ2FuZF9wcmVwLm1hZScsICctbXMnLCAnMScsICctcGgnLCAnNycsICctcGh0JywgJzAuNScsICctbnQn

> <r_lp_tautomer_probability>
1

> <r_epik_Ionization_Penalty>
  0.0024

> <r_epik_Ionization_Penalty_Charging>
  0.0000

> <r_epik_Ionization_Penalty_Neutral>
  0.0024

> <r_epik_State_Penalty>
 -0.0000

> <r_epik_Charging_Adjusted_Penalty>
0

> <i_epik_Tot_Q>
0

> <i_epik_Tot_abs_Q>
0

$$$$
