4psb_ligand
                    3D
 Schrodinger Suite 2020-3.
 46 50  0  0  1  0            999 V2000
    8.3730    0.3100   20.6800 O   0  5  0  0  0  0
    9.1680    0.5860   19.7500 C   0  0  0  0  0  0
    8.8090    0.8830   18.5920 O   0  0  0  0  0  0
   10.6670    0.6050   20.0080 C   0  0  1  0  0  0
   11.5730    0.2580   18.8180 C   0  0  1  0  0  0
   11.0670    2.0580   20.3640 C   0  0  1  0  0  0
   10.1960    3.2130   19.8430 C   0  0  0  0  0  0
   10.5780    4.3280   20.7710 C   0  0  0  0  0  0
   10.4490    5.6250   20.5620 C   0  0  0  0  0  0
   11.3450    3.7790   21.9620 C   0  0  2  0  0  0
   11.0300    2.2750   21.8780 C   0  0  0  0  0  0
   11.0740    4.4120   23.2290 O   0  0  0  0  0  0
   12.8550    3.9470   21.7240 C   0  0  0  0  0  0
   13.4190    2.6910   21.0560 C   0  0  0  0  0  0
   12.5240    2.2820   19.8850 C   0  0  1  0  0  0
   12.8810    0.9480   19.2520 C   0  0  1  0  0  0
   13.3750   -0.0620   20.2330 O   0  0  0  0  0  0
   13.9170    0.9280   18.1690 C   0  0  0  0  0  0
   13.9880   -0.1540   17.3950 C   0  0  0  0  0  0
   13.0150   -1.3060   17.4570 C   0  0  2  0  0  0
   12.3110   -1.2980   16.2220 O   0  0  0  0  0  0
   12.0640   -1.2080   18.6800 C   0  0  2  0  0  0
   10.9890   -2.2950   18.6980 C   0  0  0  0  0  0
   12.9440   -1.3110   19.9060 C   0  0  0  0  0  0
   13.2400   -2.2680   20.5490 O   0  0  0  0  0  0
   10.8037   -0.1650   20.7816 H   0  0  0  0  0  0
   11.0230    0.5222   17.9028 H   0  0  0  0  0  0
   10.4495    3.4184   18.7925 H   0  0  0  0  0  0
    9.1346    2.9337   19.9162 H   0  0  0  0  0  0
    9.8867    5.9882   19.6891 H   0  0  0  0  0  0
   10.9038    6.3426   21.2607 H   0  0  0  0  0  0
   10.0334    2.0115   22.2619 H   0  0  0  0  0  0
   11.7879    1.6387   22.3583 H   0  0  0  0  0  0
   10.0492    4.4268   23.6284 H   0  0  0  0  0  0
   13.0289    4.8149   21.0709 H   0  0  0  0  0  0
   13.3626    4.1052   22.6870 H   0  0  0  0  0  0
   14.4334    2.8976   20.6841 H   0  0  0  0  0  0
   13.4569    1.8715   21.7888 H   0  0  0  0  0  0
   12.6697    3.0984   19.1624 H   0  0  0  0  0  0
   14.6057    1.7694   18.0026 H   0  0  0  0  0  0
   14.7941   -0.2471   16.6524 H   0  0  0  0  0  0
   13.5386   -2.2717   17.5138 H   0  0  0  0  0  0
   12.8640   -1.3621   15.2733 H   0  0  0  0  0  0
   10.3603   -2.2038   17.8000 H   0  0  0  0  0  0
   10.3647   -2.1784   19.5961 H   0  0  0  0  0  0
   11.4686   -3.2848   18.7108 H   0  0  0  0  0  0
  1  2  1  0  0  0
  2  3  2  0  0  0
  2  4  1  0  0  0
  4  5  1  0  0  0
  4  6  1  0  0  0
  4 26  1  0  0  0
  5 16  1  0  0  0
  5 22  1  0  0  0
  5 27  1  0  0  0
  6  7  1  0  0  0
  6 11  1  0  0  0
  6 15  1  0  0  0
  7  8  1  0  0  0
  7 28  1  0  0  0
  7 29  1  0  0  0
  8  9  2  0  0  0
  8 10  1  0  0  0
  9 30  1  0  0  0
  9 31  1  0  0  0
 10 11  1  0  0  0
 10 12  1  0  0  0
 10 13  1  0  0  0
 11 32  1  0  0  0
 11 33  1  0  0  0
 12 34  1  0  0  0
 13 14  1  0  0  0
 13 35  1  0  0  0
 13 36  1  0  0  0
 14 15  1  0  0  0
 14 37  1  0  0  0
 14 38  1  0  0  0
 15 16  1  0  0  0
 15 39  1  0  0  0
 16 17  1  0  0  0
 16 18  1  0  0  0
 17 24  1  0  0  0
 18 19  2  0  0  0
 18 40  1  0  0  0
 19 20  1  0  0  0
 19 41  1  0  0  0
 20 21  1  0  0  0
 20 22  1  0  0  0
 20 42  1  0  0  0
 21 43  1  0  0  0
 22 23  1  0  0  0
 22 24  1  0  0  0
 23 44  1  0  0  0
 23 45  1  0  0  0
 23 46  1  0  0  0
 24 25  2  0  0  0
M  CHG  1   1  -1
M  END
> <s_m_source_file>
../4psb_ligand.sdf

> <i_m_source_file_index>
1

> <s_epik_input>
W0NIXTE9W0NIXVtDQEhdKFtPSF0pW0NAQF0oW0NIM10pKEMoTzIpPU8pW0NAQEhdKFtDQEBIXTNDKD1PKVtPSF0pW0NAXTEyW0NAQEhdKFtDQF0zNDUpW0NIMl1bQ0gyXVtDQEBdKFtDSDJdNSkoW09IXSlDKFtDSDJdNCk9W0NIMl0=

> <s_epik_cmdline>
J2VwaWtfYXBwJywgJy1pbWFlJywgJ2xpZ2FuZF9wcm8ubWFlJywgJy1vbWFlJywgJ2xpZ2FuZF9wcmVwLm1hZScsICctbXMnLCAnMScsICctcGgnLCAnNycsICctcGh0JywgJzAuNScsICctbnQn

> <r_lp_tautomer_probability>
1

> <r_epik_Ionization_Penalty>
  0.0001

> <r_epik_Ionization_Penalty_Charging>
  0.0001

> <r_epik_Ionization_Penalty_Neutral>
  0.0000

> <r_epik_State_Penalty>
 -0.0000

> <r_epik_Charging_Adjusted_Penalty>
0.000149172678560146

> <i_epik_Tot_Q>
-1

> <i_epik_Tot_abs_Q>
1

> <s_epik_Chemistry_Notes>
This compound has an ester and may undergo hydrolysis at high or low pH.

$$$$
