4psq_ligand
                    3D
 Schrodinger Suite 2020-3.
 48 51  0  0  1  0            999 V2000
   30.1700    0.1160   -4.5260 Cl  0  0  0  0  0  0
   30.6710   -0.7720   -6.0080 C   0  0  0  0  0  0
   31.9980   -1.1650   -6.1510 C   0  0  0  0  0  0
   32.4080   -1.8500   -7.2890 C   0  0  0  0  0  0
   31.4830   -2.1430   -8.2860 C   0  0  0  0  0  0
   30.1540   -1.7530   -8.1410 C   0  0  0  0  0  0
   29.7360   -1.0550   -7.0000 C   0  0  0  0  0  0
   28.3920   -0.6400   -6.7920 N   0  0  0  0  0  0
   27.7000   -1.6690   -5.9940 C   0  0  0  0  0  0
   26.2570   -1.2740   -5.7000 C   0  0  0  0  0  0
   27.6270   -0.3930   -8.0330 C   0  0  0  0  0  0
   26.2640    0.1820   -7.6690 C   0  0  0  0  0  0
   25.5900   -0.8980   -6.9490 N   0  0  0  0  0  0
   24.4650   -1.5090   -7.3570 C   0  0  0  0  0  0
   23.9620   -2.3970   -6.6900 O   0  0  0  0  0  0
   23.7490   -1.1090   -8.6090 C   0  0  0  0  0  0
   23.3940   -1.8900   -9.7010 C   0  0  0  0  0  0
   23.2770    0.1320   -8.8490 N   0  0  0  0  0  0
   22.6730    0.1330  -10.0550 C   0  0  0  0  0  0
   22.7470   -1.0960  -10.5710 N   0  0  0  0  0  0
   22.1950   -1.4710  -11.8710 C   0  0  0  0  0  0
   23.1730   -1.1890  -12.9920 C   0  0  0  0  0  0
   23.1000    0.0040  -13.7100 C   0  0  0  0  0  0
   24.1480   -2.1330  -13.3170 C   0  0  0  0  0  0
   25.0520   -1.8840  -14.3490 C   0  0  0  0  0  0
   24.9830   -0.6880  -15.0610 C   0  0  0  0  0  0
   24.0070    0.2550  -14.7400 C   0  0  0  0  0  0
   32.7195   -0.9347   -5.3671 H   0  0  0  0  0  0
   33.4484   -2.1558   -7.3996 H   0  0  0  0  0  0
   31.7988   -2.6783   -9.1815 H   0  0  0  0  0  0
   29.4324   -1.9928   -8.9220 H   0  0  0  0  0  0
   27.6941   -2.6196   -6.5474 H   0  0  0  0  0  0
   28.2248   -1.8052   -5.0369 H   0  0  0  0  0  0
   25.7296   -2.1249   -5.2442 H   0  0  0  0  0  0
   26.2445   -0.4206   -5.0061 H   0  0  0  0  0  0
   28.1744    0.3217   -8.6650 H   0  0  0  0  0  0
   27.4968   -1.3396   -8.5780 H   0  0  0  0  0  0
   26.3986    1.0733   -7.0385 H   0  0  0  0  0  0
   25.7263    0.4603   -8.5874 H   0  0  0  0  0  0
   23.6020   -2.9523   -9.8290 H   0  0  0  0  0  0
   22.2026    0.9942  -10.5295 H   0  0  0  0  0  0
   21.9626   -2.5462  -11.8743 H   0  0  0  0  0  0
   21.2758   -0.8966  -12.0586 H   0  0  0  0  0  0
   22.3343    0.7406  -13.4666 H   0  0  0  0  0  0
   24.2031   -3.0693  -12.7616 H   0  0  0  0  0  0
   25.8121   -2.6243  -14.5987 H   0  0  0  0  0  0
   25.6900   -0.4901  -15.8667 H   0  0  0  0  0  0
   23.9526    1.1912  -15.2956 H   0  0  0  0  0  0
  1  2  1  0  0  0
  2  3  2  0  0  0
  2  7  1  0  0  0
  3  4  1  0  0  0
  3 28  1  0  0  0
  4  5  2  0  0  0
  4 29  1  0  0  0
  5  6  1  0  0  0
  5 30  1  0  0  0
  6  7  2  0  0  0
  6 31  1  0  0  0
  7  8  1  0  0  0
  8  9  1  0  0  0
  8 11  1  0  0  0
  9 10  1  0  0  0
  9 32  1  0  0  0
  9 33  1  0  0  0
 10 13  1  0  0  0
 10 34  1  0  0  0
 10 35  1  0  0  0
 11 12  1  0  0  0
 11 36  1  0  0  0
 11 37  1  0  0  0
 12 13  1  0  0  0
 12 38  1  0  0  0
 12 39  1  0  0  0
 13 14  1  0  0  0
 14 15  2  0  0  0
 14 16  1  0  0  0
 16 17  2  0  0  0
 16 18  1  0  0  0
 17 20  1  0  0  0
 17 40  1  0  0  0
 18 19  2  0  0  0
 19 20  1  0  0  0
 19 41  1  0  0  0
 20 21  1  0  0  0
 21 22  1  0  0  0
 21 42  1  0  0  0
 21 43  1  0  0  0
 22 23  2  0  0  0
 22 24  1  0  0  0
 23 27  1  0  0  0
 23 44  1  0  0  0
 24 25  2  0  0  0
 24 45  1  0  0  0
 25 26  1  0  0  0
 25 46  1  0  0  0
 26 27  2  0  0  0
 26 47  1  0  0  0
 27 48  1  0  0  0
M  END
> <s_m_source_file>
../4psq_ligand.sdf

> <i_m_source_file_index>
1

> <s_epik_input>
Q2xjMVtjSF1bY0hdW2NIXVtjSF1jMU4yW0NIMl1bQ0gyXU4oW0NIMl1bQ0gyXTIpQyg9TyljM1tjSF1uKFtjSF1uMylbQ0gyXWM0W2NIXVtjSF1bY0hdW2NIXVtjSF00

> <s_epik_cmdline>
J2VwaWtfYXBwJywgJy1pbWFlJywgJ2xpZ2FuZF9wcm8ubWFlJywgJy1vbWFlJywgJ2xpZ2FuZF9wcmVwLm1hZScsICctbXMnLCAnMScsICctcGgnLCAnNycsICctcGh0JywgJzAuNScsICctbnQn

> <r_lp_tautomer_probability>
1

> <r_epik_Ionization_Penalty>
  0.0010

> <r_epik_Ionization_Penalty_Charging>
  0.0010

> <r_epik_Ionization_Penalty_Neutral>
  0.0000

> <r_epik_State_Penalty>
 -0.0000

> <r_epik_Charging_Adjusted_Penalty>
0.00100663031866683

> <i_epik_Tot_Q>
0

> <i_epik_Tot_abs_Q>
0

$$$$
