4psx_ligand
                    3D
 Schrodinger Suite 2020-3.
191190  0  0  1  0            999 V2000
  -10.4770  -40.2040   31.0410 N   0  3  0  0  0  0
  -10.1820  -38.9340   30.3860 C   0  0  2  0  0  0
  -11.3750  -37.9930   30.3490 C   0  0  0  0  0  0
  -11.2980  -36.9260   29.7320 O   0  0  0  0  0  0
   -9.6970  -39.1630   28.9970 C   0  0  0  0  0  0
  -12.4840  -38.3870   30.9720 N   0  0  0  0  0  0
  -13.5800  -37.4430   31.1560 C   0  0  2  0  0  0
  -13.1480  -36.4950   32.2950 C   0  0  0  0  0  0
  -12.3550  -36.8770   33.1780 O   0  0  0  0  0  0
  -14.8730  -38.1790   31.5120 C   0  0  0  0  0  0
  -15.1490  -39.3610   30.6070 C   0  0  0  0  0  0
  -16.1800  -40.2750   31.2240 C   0  0  0  0  0  0
  -15.9280  -41.6420   30.7830 N   0  0  0  0  0  0
  -16.7010  -42.3180   29.9490 C   0  0  0  0  0  0
  -17.8050  -41.7600   29.4670 N   0  0  0  0  0  0
  -16.3790  -43.5580   29.6090 N   0  0  0  0  0  0
  -13.6830  -35.2790   32.2960 N   0  0  0  0  0  0
  -13.3570  -34.3170   33.3410 C   0  0  2  0  0  0
  -14.6140  -34.0140   34.1250 C   0  0  0  0  0  0
  -15.4730  -33.2760   33.6440 O   0  0  0  0  0  0
  -12.8290  -32.9960   32.7410 C   0  0  2  0  0  0
  -11.6500  -33.2520   31.9610 O   0  0  0  0  0  0
  -12.4960  -31.9980   33.8470 C   0  0  0  0  0  0
  -14.7290  -34.5840   35.3250 N   0  0  0  0  0  0
  -15.9470  -34.4080   36.1160 C   0  0  2  0  0  0
  -16.1500  -32.9380   36.4610 C   0  0  0  0  0  0
  -15.2170  -32.2360   36.8590 O   0  0  0  0  0  0
  -15.9570  -35.2840   37.3810 C   0  0  0  0  0  0
  -17.3450  -35.4110   38.0350 C   0  0  0  0  0  0
  -17.2880  -36.2640   39.2880 C   0  0  0  0  0  0
  -16.9880  -37.7170   38.9560 C   0  0  0  0  0  0
  -16.6730  -38.4970   40.1890 N   0  3  0  0  0  0
  -17.3890  -32.4900   36.3050 N   0  0  0  0  0  0
  -17.7220  -31.0800   36.3990 C   0  0  2  0  0  0
  -17.8640  -30.6090   37.8420 C   0  0  0  0  0  0
  -17.8840  -31.4150   38.7810 O   0  0  0  0  0  0
  -19.0310  -30.8160   35.6380 C   0  0  0  0  0  0
  -20.2040  -31.6580   36.1320 C   0  0  0  0  0  0
  -21.4750  -31.4340   35.3360 C   0  0  0  0  0  0
  -21.8460  -32.2480   34.4930 O   0  0  0  0  0  0
  -22.1580  -30.3330   35.6140 N   0  0  0  0  0  0
  -17.9620  -29.2940   38.0060 N   0  0  0  0  0  0
  -18.4110  -28.7220   39.2630 C   0  0  2  0  0  0
  -19.9070  -28.4730   39.0780 C   0  0  0  0  0  0
  -20.3510  -28.0470   38.0020 O   0  0  0  0  0  0
  -17.6690  -27.4150   39.5980 C   0  0  2  0  0  0
  -16.2540  -27.6370   39.5330 O   0  0  0  0  0  0
  -18.0170  -26.9510   40.9970 C   0  0  0  0  0  0
  -20.6810  -28.7710   40.1160 N   0  0  0  0  0  0
  -22.1320  -28.7460   40.0190 C   0  0  2  0  0  0
  -22.7080  -27.3910   40.4250 C   0  0  0  0  0  0
  -22.0950  -26.6490   41.1980 O   0  0  0  0  0  0
  -22.7260  -29.8540   40.8680 C   0  0  0  0  0  0
  -23.8790  -27.0700   39.8820 N   0  0  0  0  0  0
  -24.5720  -25.8340   40.2190 C   0  0  2  0  0  0
  -26.0730  -26.0920   40.3280 C   0  0  0  0  0  0
  -26.6040  -27.0050   39.6840 O   0  0  0  0  0  0
  -24.3020  -24.7570   39.1660 C   0  0  0  0  0  0
  -23.0910  -23.8870   39.4630 C   0  0  0  0  0  0
  -22.8090  -22.9400   38.3090 C   0  0  0  0  0  0
  -21.7020  -22.0290   38.5930 N   0  0  0  0  0  0
  -21.8570  -20.7560   38.9480 C   0  0  0  0  0  0
  -23.0780  -20.2430   39.0780 N   0  0  0  0  0  0
  -20.7930  -19.9970   39.1820 N   0  0  0  0  0  0
  -26.7500  -25.2820   41.1400 N   0  0  0  0  0  0
  -28.1790  -25.4570   41.3870 C   0  0  2  0  0  0
  -29.0130  -24.6470   40.3980 C   0  0  0  0  0  0
  -28.4680  -24.0110   39.4950 O   0  0  0  0  0  0
  -28.5200  -25.0630   42.8270 C   0  0  0  0  0  0
  -29.1390  -26.1870   43.6430 C   0  0  0  0  0  0
  -30.6280  -25.9510   43.8640 C   0  0  0  0  0  0
  -30.9490  -25.6820   45.3290 C   0  0  0  0  0  0
  -31.3420  -26.9300   46.0400 N   0  3  0  0  0  0
  -30.3300  -24.6640   40.5680 N   0  0  0  0  0  0
  -31.2050  -23.9650   39.6320 C   0  0  2  0  0  0
  -31.5680  -22.5340   40.0510 C   0  0  0  0  0  0
  -32.0110  -22.2870   41.1760 O   0  0  0  0  0  0
  -32.4660  -24.7870   39.3560 C   0  0  0  0  0  0
  -32.2210  -25.7360   38.3320 O   0  0  0  0  0  0
  -31.3780  -21.6020   39.1150 N   0  0  0  0  0  0
  -31.7530  -20.1970   39.2800 C   0  0  2  0  0  0
  -33.2750  -20.0210   39.3610 C   0  0  0  0  0  0
  -33.8600  -19.2520   38.5950 O   0  0  0  0  0  0
  -31.2130  -19.3430   38.1030 C   0  0  2  0  0  0
  -31.4960  -20.0020   36.8610 O   0  0  0  0  0  0
  -29.7040  -19.1390   38.2190 C   0  0  0  0  0  0
  -33.9070  -20.7280   40.2970 N   0  0  0  0  0  0
  -35.3570  -20.7650   40.3890 C   0  0  0  0  0  0
  -35.9300  -22.1030   39.9480 C   0  0  0  0  0  0
  -35.3050  -23.1540   40.1180 O   0  0  0  0  0  0
  -37.0635  -22.1395   39.3990 O   0  0  0  0  0  0
  -10.8333  -40.0147   32.0643 H   0  0  0  0  0  0
   -9.5651  -40.8180   31.0780 H   0  0  0  0  0  0
  -11.2550  -40.7367   30.4745 H   0  0  0  0  0  0
   -9.3841  -38.4901   30.9994 H   0  0  0  0  0  0
   -8.8332  -39.8437   29.0178 H   0  0  0  0  0  0
   -9.3971  -38.2035   28.5505 H   0  0  0  0  0  0
  -10.5025  -39.6110   28.3966 H   0  0  0  0  0  0
  -12.5765  -39.4170   31.3468 H   0  0  0  0  0  0
  -13.7501  -36.9132   30.2071 H   0  0  0  0  0  0
  -14.8083  -38.5558   32.5434 H   0  0  0  0  0  0
  -15.7240  -37.4872   31.4270 H   0  0  0  0  0  0
  -15.5267  -39.0010   29.6386 H   0  0  0  0  0  0
  -14.2194  -39.9278   30.4502 H   0  0  0  0  0  0
  -16.1094  -40.2202   32.3204 H   0  0  0  0  0  0
  -17.1852  -39.9620   30.9052 H   0  0  0  0  0  0
  -15.0424  -42.1831   31.1476 H   0  0  0  0  0  0
  -18.0700  -40.7308   29.7507 H   0  0  0  0  0  0
  -18.4547  -42.3269   28.7840 H   0  0  0  0  0  0
  -15.4637  -44.0181   30.0097 H   0  0  0  0  0  0
  -14.3814  -35.0026   31.4924 H   0  0  0  0  0  0
  -12.5906  -34.7979   33.9665 H   0  0  0  0  0  0
  -13.5653  -32.5627   32.0481 H   0  0  0  0  0  0
  -11.6929  -33.9505   31.1123 H   0  0  0  0  0  0
  -13.3972  -31.8002   34.4459 H   0  0  0  0  0  0
  -12.1404  -31.0587   33.3984 H   0  0  0  0  0  0
  -11.7105  -32.4160   34.4937 H   0  0  0  0  0  0
  -13.8999  -35.1900   35.7192 H   0  0  0  0  0  0
  -16.7586  -34.7455   35.4546 H   0  0  0  0  0  0
  -15.6210  -36.2999   37.1261 H   0  0  0  0  0  0
  -15.2796  -34.8514   38.1320 H   0  0  0  0  0  0
  -17.7142  -34.4116   38.3086 H   0  0  0  0  0  0
  -18.0434  -35.8782   37.3252 H   0  0  0  0  0  0
  -16.4966  -35.8870   39.9525 H   0  0  0  0  0  0
  -18.2563  -36.2173   39.8078 H   0  0  0  0  0  0
  -17.8635  -38.1699   38.4678 H   0  0  0  0  0  0
  -16.1233  -37.7672   38.2779 H   0  0  0  0  0  0
  -16.4608  -39.5417   39.9178 H   0  0  0  0  0  0
  -17.5331  -38.4634   40.8739 H   0  0  0  0  0  0
  -15.7929  -38.0607   40.6840 H   0  0  0  0  0  0
  -18.1773  -33.2287   36.0978 H   0  0  0  0  0  0
  -16.8633  -30.5616   35.9474 H   0  0  0  0  0  0
  -19.3141  -29.7591   35.7512 H   0  0  0  0  0  0
  -18.8878  -31.0450   34.5717 H   0  0  0  0  0  0
  -19.9473  -32.7249   36.0558 H   0  0  0  0  0  0
  -20.4196  -31.4068   37.1810 H   0  0  0  0  0  0
  -21.7864  -29.6332   36.3770 H   0  0  0  0  0  0
  -23.0965  -30.1189   35.0817 H   0  0  0  0  0  0
  -17.6951  -28.6355   37.1663 H   0  0  0  0  0  0
  -18.1891  -29.4378   40.0683 H   0  0  0  0  0  0
  -17.9080  -26.6319   38.8634 H   0  0  0  0  0  0
  -15.7937  -27.9807   38.5949 H   0  0  0  0  0  0
  -19.1007  -26.7753   41.0661 H   0  0  0  0  0  0
  -17.4793  -26.0172   41.2179 H   0  0  0  0  0  0
  -17.7238  -27.7236   41.7231 H   0  0  0  0  0  0
  -20.1979  -29.0416   41.0665 H   0  0  0  0  0  0
  -22.3530  -28.9206   38.9557 H   0  0  0  0  0  0
  -22.2993  -30.8202   40.5608 H   0  0  0  0  0  0
  -23.8173  -29.8752   40.7319 H   0  0  0  0  0  0
  -22.4921  -29.6700   41.9270 H   0  0  0  0  0  0
  -24.3231  -27.7700   39.1589 H   0  0  0  0  0  0
  -24.1640  -25.5178   41.1904 H   0  0  0  0  0  0
  -24.1261  -25.2339   38.1905 H   0  0  0  0  0  0
  -25.1717  -24.0872   39.0951 H   0  0  0  0  0  0
  -23.2794  -23.2936   40.3699 H   0  0  0  0  0  0
  -22.2097  -24.5264   39.6197 H   0  0  0  0  0  0
  -22.5484  -23.5218   37.4126 H   0  0  0  0  0  0
  -23.7039  -22.3336   38.1052 H   0  0  0  0  0  0
  -20.6638  -22.3848   38.5182 H   0  0  0  0  0  0
  -23.9612  -20.8695   38.8848 H   0  0  0  0  0  0
  -23.2040  -19.1924   39.3787 H   0  0  0  0  0  0
  -19.7826  -20.4184   39.0753 H   0  0  0  0  0  0
  -26.2033  -24.4633   41.6306 H   0  0  0  0  0  0
  -28.3762  -26.5275   41.2286 H   0  0  0  0  0  0
  -27.6035  -24.7490   43.3480 H   0  0  0  0  0  0
  -29.2403  -24.2317   42.8189 H   0  0  0  0  0  0
  -29.0099  -27.1408   43.1104 H   0  0  0  0  0  0
  -28.6433  -26.2444   44.6233 H   0  0  0  0  0  0
  -30.9527  -25.0808   43.2747 H   0  0  0  0  0  0
  -31.1915  -26.8404   43.5455 H   0  0  0  0  0  0
  -30.0629  -25.2619   45.8274 H   0  0  0  0  0  0
  -31.7815  -24.9662   45.3965 H   0  0  0  0  0  0
  -31.5657  -26.6979   47.0917 H   0  0  0  0  0  0
  -30.5160  -27.6548   45.9922 H   0  0  0  0  0  0
  -32.2346  -27.3591   45.5613 H   0  0  0  0  0  0
  -30.7605  -25.2094   41.4208 H   0  0  0  0  0  0
  -30.5792  -23.8898   38.7305 H   0  0  0  0  0  0
  -32.7660  -25.3169   40.2721 H   0  0  0  0  0  0
  -33.2781  -24.1169   39.0374 H   0  0  0  0  0  0
  -33.0241  -26.4136   38.0065 H   0  0  0  0  0  0
  -30.9112  -21.9403   38.1782 H   0  0  0  0  0  0
  -31.2922  -19.9123   40.2374 H   0  0  0  0  0  0
  -31.7233  -18.3693   38.0651 H   0  0  0  0  0  0
  -32.5349  -20.2402   36.5890 H   0  0  0  0  0  0
  -29.4743  -18.6338   39.1687 H   0  0  0  0  0  0
  -29.3521  -18.5205   37.3802 H   0  0  0  0  0  0
  -29.1988  -20.1157   38.1917 H   0  0  0  0  0  0
  -33.2957  -21.2954   41.0142 H   0  0  0  0  0  0
  -35.6628  -20.5906   41.4311 H   0  0  0  0  0  0
  -35.7853  -19.9825   39.7454 H   0  0  0  0  0  0
  -37.4875  -23.1018   39.0761 H   0  0  0  0  0  0
  1  2  1  0  0  0
  1 92  1  0  0  0
  1 93  1  0  0  0
  1 94  1  0  0  0
  2  3  1  0  0  0
  2  5  1  0  0  0
  2 95  1  0  0  0
  3  4  2  0  0  0
  3  6  1  0  0  0
  5 96  1  0  0  0
  5 97  1  0  0  0
  5 98  1  0  0  0
  6  7  1  0  0  0
  6 99  1  0  0  0
  7  8  1  0  0  0
  7 10  1  0  0  0
  7100  1  0  0  0
  8  9  2  0  0  0
  8 17  1  0  0  0
 10 11  1  0  0  0
 10101  1  0  0  0
 10102  1  0  0  0
 11 12  1  0  0  0
 11103  1  0  0  0
 11104  1  0  0  0
 12 13  1  0  0  0
 12105  1  0  0  0
 12106  1  0  0  0
 13 14  1  0  0  0
 13107  1  0  0  0
 14 15  1  0  0  0
 14 16  2  0  0  0
 15108  1  0  0  0
 15109  1  0  0  0
 16110  1  0  0  0
 17 18  1  0  0  0
 17111  1  0  0  0
 18 19  1  0  0  0
 18 21  1  0  0  0
 18112  1  0  0  0
 19 20  2  0  0  0
 19 24  1  0  0  0
 21 22  1  0  0  0
 21 23  1  0  0  0
 21113  1  0  0  0
 22114  1  0  0  0
 23115  1  0  0  0
 23116  1  0  0  0
 23117  1  0  0  0
 24 25  1  0  0  0
 24118  1  0  0  0
 25 26  1  0  0  0
 25 28  1  0  0  0
 25119  1  0  0  0
 26 27  2  0  0  0
 26 33  1  0  0  0
 28 29  1  0  0  0
 28120  1  0  0  0
 28121  1  0  0  0
 29 30  1  0  0  0
 29122  1  0  0  0
 29123  1  0  0  0
 30 31  1  0  0  0
 30124  1  0  0  0
 30125  1  0  0  0
 31 32  1  0  0  0
 31126  1  0  0  0
 31127  1  0  0  0
 32128  1  0  0  0
 32129  1  0  0  0
 32130  1  0  0  0
 33 34  1  0  0  0
 33131  1  0  0  0
 34 35  1  0  0  0
 34 37  1  0  0  0
 34132  1  0  0  0
 35 36  2  0  0  0
 35 42  1  0  0  0
 37 38  1  0  0  0
 37133  1  0  0  0
 37134  1  0  0  0
 38 39  1  0  0  0
 38135  1  0  0  0
 38136  1  0  0  0
 39 40  2  0  0  0
 39 41  1  0  0  0
 41137  1  0  0  0
 41138  1  0  0  0
 42 43  1  0  0  0
 42139  1  0  0  0
 43 44  1  0  0  0
 43 46  1  0  0  0
 43140  1  0  0  0
 44 45  2  0  0  0
 44 49  1  0  0  0
 46 47  1  0  0  0
 46 48  1  0  0  0
 46141  1  0  0  0
 47142  1  0  0  0
 48143  1  0  0  0
 48144  1  0  0  0
 48145  1  0  0  0
 49 50  1  0  0  0
 49146  1  0  0  0
 50 51  1  0  0  0
 50 53  1  0  0  0
 50147  1  0  0  0
 51 52  2  0  0  0
 51 54  1  0  0  0
 53148  1  0  0  0
 53149  1  0  0  0
 53150  1  0  0  0
 54 55  1  0  0  0
 54151  1  0  0  0
 55 56  1  0  0  0
 55 58  1  0  0  0
 55152  1  0  0  0
 56 57  2  0  0  0
 56 65  1  0  0  0
 58 59  1  0  0  0
 58153  1  0  0  0
 58154  1  0  0  0
 59 60  1  0  0  0
 59155  1  0  0  0
 59156  1  0  0  0
 60 61  1  0  0  0
 60157  1  0  0  0
 60158  1  0  0  0
 61 62  1  0  0  0
 61159  1  0  0  0
 62 63  1  0  0  0
 62 64  2  0  0  0
 63160  1  0  0  0
 63161  1  0  0  0
 64162  1  0  0  0
 65 66  1  0  0  0
 65163  1  0  0  0
 66 67  1  0  0  0
 66 69  1  0  0  0
 66164  1  0  0  0
 67 68  2  0  0  0
 67 74  1  0  0  0
 69 70  1  0  0  0
 69165  1  0  0  0
 69166  1  0  0  0
 70 71  1  0  0  0
 70167  1  0  0  0
 70168  1  0  0  0
 71 72  1  0  0  0
 71169  1  0  0  0
 71170  1  0  0  0
 72 73  1  0  0  0
 72171  1  0  0  0
 72172  1  0  0  0
 73173  1  0  0  0
 73174  1  0  0  0
 73175  1  0  0  0
 74 75  1  0  0  0
 74176  1  0  0  0
 75 76  1  0  0  0
 75 78  1  0  0  0
 75177  1  0  0  0
 76 77  2  0  0  0
 76 80  1  0  0  0
 78 79  1  0  0  0
 78178  1  0  0  0
 78179  1  0  0  0
 79180  1  0  0  0
 80 81  1  0  0  0
 80181  1  0  0  0
 81 82  1  0  0  0
 81 84  1  0  0  0
 81182  1  0  0  0
 82 83  2  0  0  0
 82 87  1  0  0  0
 84 85  1  0  0  0
 84 86  1  0  0  0
 84183  1  0  0  0
 85184  1  0  0  0
 86185  1  0  0  0
 86186  1  0  0  0
 86187  1  0  0  0
 87 88  1  0  0  0
 87188  1  0  0  0
 88 89  1  0  0  0
 88189  1  0  0  0
 88190  1  0  0  0
 89 90  2  0  0  0
 89 91  1  0  0  0
 91191  1  0  0  0
M  CHG  3   1   1  32   1  73   1
M  END
> <s_m_source_file>
../4psx_ligand.sdf

> <i_m_source_file_index>
1

> <s_epik_input>
W0hdL049QyhbTkgyXSlcW05IXVtDSDJdW0NIMl1bQ0gyXVtDQEhdKFtOSF1DKD1PKVtDQEBIXShbTkgzK10pW0NIM10pQyg9TylbTkhdW0NAQEhdKFtDQEhdKFtPSF0pW0NIM10pQyg9TylbTkhdW0NAQEhdKFtDSDJdW0NIMl1bQ0gyXVtDSDJdW05IMytdKUMoPU8pW05IXVtDQEBIXShbQ0gyXVtDSDJdQyg9TylbTkgyXSlDKD1PKVtOSF1bQ0BASF0oW0NASF0oW09IXSlbQ0gzXSlDKD1PKVtOSF1bQ0BASF0oW0NIM10pQyg9TylbTkhdW0NAQEhdKFtDSDJdW0NIMl1bQ0gyXVtOSF0vQyhbTkgyXSk9TlxbSF0pQyg9TylbTkhdW0NAQEhdKFtDSDJdW0NIMl1bQ0gyXVtDSDJdW05IMytdKUMoPU8pW05IXVtDQEBIXShbQ0gyXVtPSF0pQyg9TylbTkhdW0NAQEhdKFtDQEhdKFtPSF0pW0NIM10pQyg9TylbTkhdW0NIMl1DKD1PKVtPSF0=

> <s_epik_cmdline>
J2VwaWtfYXBwJywgJy1pbWFlJywgJ2xpZ2FuZF9wcm8ubWFlJywgJy1vbWFlJywgJ2xpZ2FuZF9wcmVwLm1hZScsICctbXMnLCAnMScsICctcGgnLCAnNycsICctcGh0JywgJzAuNScsICctbnQn

> <s_epik_pKa_notes>
Molecule size exceeds maximum supported for generating protonation states

> <s_epik_Chemistry_Notes>
This compound has an imine and may undergo hydrolysis.

$$$$
