4ptc_ligand
                    3D
 Schrodinger Suite 2020-3.
 33 35  0  0  1  0            999 V2000
   -5.4800   -1.2690  -32.2410 O   0  5  0  0  0  0
   -5.2490   -1.5970  -33.5010 C   0  0  0  0  0  0
   -5.8240   -2.7140  -34.1070 C   0  0  0  0  0  0
   -5.1820   -2.6600  -35.7120 S   0  0  0  0  0  0
   -4.2360   -1.2380  -35.5500 C   0  0  0  0  0  0
   -4.4480   -0.8710  -34.2760 N   0  3  0  0  0  0
   -3.4030   -0.5850  -36.5710 C   0  0  0  0  0  0
   -3.1260   -1.1590  -37.7980 C   0  0  0  0  0  0
   -2.3310   -0.4670  -38.6980 C   0  0  0  0  0  0
   -1.8460    0.7490  -38.3680 N   0  0  0  0  0  0
   -2.1150    1.3260  -37.1760 C   0  0  0  0  0  0
   -2.8970    0.6590  -36.2590 C   0  0  0  0  0  0
   -1.6050    2.5370  -36.8750 N   0  0  0  0  0  0
   -1.9970    3.4390  -35.9520 C   0  0  0  0  0  0
   -2.4470    3.1280  -34.8480 O   0  0  0  0  0  0
   -1.8390    4.9000  -36.2930 C   0  0  0  0  0  0
   -2.1510    5.8820  -35.1660 C   0  0  0  0  0  0
   -0.6990    5.6280  -35.5700 C   0  0  0  0  0  0
   -6.7490   -3.7570  -33.6120 C   0  0  0  0  0  0
   -6.9780   -4.7320  -34.3150 O   0  0  0  0  0  0
   -7.3270   -3.6330  -32.4130 N   0  0  0  0  0  0
   -3.5265   -2.1401  -38.0534 H   0  0  0  0  0  0
   -2.0980   -0.9032  -39.6694 H   0  0  0  0  0  0
   -3.1146    1.1122  -35.2919 H   0  0  0  0  0  0
   -0.7321    2.9184  -37.4251 H   0  0  0  0  0  0
   -2.1588    4.7812  -37.3388 H   0  0  0  0  0  0
   -2.7817    6.6959  -35.5530 H   0  0  0  0  0  0
   -2.6838    5.3572  -34.3594 H   0  0  0  0  0  0
   -0.0318    4.8898  -35.1010 H   0  0  0  0  0  0
   -0.1297    6.2286  -36.2946 H   0  0  0  0  0  0
   -7.1147   -2.7527  -31.7885 H   0  0  0  0  0  0
   -8.0149   -4.4112  -32.0509 H   0  0  0  0  0  0
   -3.9602    0.0288  -33.8729 H   0  0  0  0  0  0
  1  2  1  0  0  0
  2  3  2  0  0  0
  2  6  1  0  0  0
  3  4  1  0  0  0
  3 19  1  0  0  0
  4  5  1  0  0  0
  5  6  2  0  0  0
  5  7  1  0  0  0
  6 33  1  0  0  0
  7  8  2  0  0  0
  7 12  1  0  0  0
  8  9  1  0  0  0
  8 22  1  0  0  0
  9 10  2  0  0  0
  9 23  1  0  0  0
 10 11  1  0  0  0
 11 12  2  0  0  0
 11 13  1  0  0  0
 12 24  1  0  0  0
 13 14  1  0  0  0
 13 25  1  0  0  0
 14 15  2  0  0  0
 14 16  1  0  0  0
 16 17  1  0  0  0
 16 18  1  0  0  0
 16 26  1  0  0  0
 17 18  1  0  0  0
 17 27  1  0  0  0
 17 28  1  0  0  0
 18 29  1  0  0  0
 18 30  1  0  0  0
 19 20  2  0  0  0
 19 21  1  0  0  0
 21 31  1  0  0  0
 21 32  1  0  0  0
M  CHG  2   1  -1   6   1
M  END
> <s_m_source_file>
../4ptc_ligand.sdf

> <i_m_source_file_index>
1

> <s_epik_input>
W09IXWMxYyhDKD1PKVtOSDJdKXNjKG4xKS1jMltjSF1bY0hdbmMoW2NIXTIpW05IXUMoPU8pW0NIXTNbQ0gyXVtDSDJdMw==

> <s_epik_cmdline>
J2VwaWtfYXBwJywgJy1pbWFlJywgJ2xpZ2FuZF9wcm8ubWFlJywgJy1vbWFlJywgJ2xpZ2FuZF9wcmVwLm1hZScsICctbXMnLCAnMScsICctcGgnLCAnNycsICctcGh0JywgJzAuNScsICctbnQn

> <r_epik_Ionization_Penalty>
  0.2739

> <r_epik_Ionization_Penalty_Charging>
  0.2739

> <r_epik_Ionization_Penalty_Neutral>
  0.0000

> <r_epik_State_Penalty>
  0.2662

> <r_epik_Charging_Adjusted_Penalty>
0.540100400024355

> <i_epik_Tot_Q>
0

> <i_epik_Tot_abs_Q>
2

$$$$
