4ptg_ligand
                    3D
 Schrodinger Suite 2020-3.
 38 40  0  0  1  0            999 V2000
    5.0160    0.0620   32.4410 C   0  0  0  0  0  0
    5.6500   -1.1860   32.8400 O   0  0  0  0  0  0
    5.4060   -1.7040   34.0440 C   0  0  0  0  0  0
    5.9850   -2.9060   34.4670 C   0  0  0  0  0  0
    5.6870   -3.4020   35.7160 C   0  0  0  0  0  0
    4.8410   -2.7250   36.5050 N   0  0  0  0  0  0
    4.2750   -1.5810   36.0950 C   0  0  0  0  0  0
    4.5600   -1.0670   34.8810 N   0  0  0  0  0  0
    3.3750   -0.8610   37.0320 C   0  0  0  0  0  0
    2.9930   -1.4530   38.2320 C   0  0  0  0  0  0
    2.1730   -0.7320   39.0970 C   0  0  0  0  0  0
    1.7790    0.5270   38.7880 N   0  0  0  0  0  0
    2.1690    1.1310   37.6390 C   0  0  0  0  0  0
    2.9830    0.4390   36.7500 C   0  0  0  0  0  0
    1.7590    2.3890   37.3840 N   0  0  0  0  0  0
    1.9370    3.2270   36.3430 C   0  0  0  0  0  0
    2.4970    2.8870   35.3020 O   0  0  0  0  0  0
    1.4200    4.6470   36.4560 C   0  0  0  0  0  0
    0.9710    5.3260   35.1550 C   0  0  0  0  0  0
    2.2850    5.7440   35.8230 C   0  0  0  0  0  0
    6.9510   -3.6890   33.6500 C   0  0  0  0  0  0
    7.4530   -4.6940   34.1270 O   0  0  0  0  0  0
    7.3190   -3.2660   32.4360 N   0  0  0  0  0  0
    5.3371    0.3272   31.4229 H   0  0  0  0  0  0
    5.3089    0.8612   33.1378 H   0  0  0  0  0  0
    3.9229   -0.0593   32.4608 H   0  0  0  0  0  0
    6.1340   -4.3349   36.0596 H   0  0  0  0  0  0
    3.3278   -2.4579   38.4892 H   0  0  0  0  0  0
    1.8449   -1.1855   40.0323 H   0  0  0  0  0  0
    3.3140    0.9192   35.8291 H   0  0  0  0  0  0
    1.1453    2.9275   38.1211 H   0  0  0  0  0  0
    0.9694    4.4751   37.4446 H   0  0  0  0  0  0
    0.8777    4.5709   34.3606 H   0  0  0  0  0  0
   -0.0020    5.8141   35.3130 H   0  0  0  0  0  0
    2.3967    6.5776   36.5320 H   0  0  0  0  0  0
    3.2764    5.3344   35.5795 H   0  0  0  0  0  0
    6.8651   -2.3599   32.0083 H   0  0  0  0  0  0
    8.0757   -3.8241   31.8651 H   0  0  0  0  0  0
  1  2  1  0  0  0
  1 24  1  0  0  0
  1 25  1  0  0  0
  1 26  1  0  0  0
  2  3  1  0  0  0
  3  4  2  0  0  0
  3  8  1  0  0  0
  4  5  1  0  0  0
  4 21  1  0  0  0
  5  6  2  0  0  0
  5 27  1  0  0  0
  6  7  1  0  0  0
  7  8  2  0  0  0
  7  9  1  0  0  0
  9 10  2  0  0  0
  9 14  1  0  0  0
 10 11  1  0  0  0
 10 28  1  0  0  0
 11 12  2  0  0  0
 11 29  1  0  0  0
 12 13  1  0  0  0
 13 14  2  0  0  0
 13 15  1  0  0  0
 14 30  1  0  0  0
 15 16  1  0  0  0
 15 31  1  0  0  0
 16 17  2  0  0  0
 16 18  1  0  0  0
 18 19  1  0  0  0
 18 20  1  0  0  0
 18 32  1  0  0  0
 19 20  1  0  0  0
 19 33  1  0  0  0
 19 34  1  0  0  0
 20 35  1  0  0  0
 20 36  1  0  0  0
 21 22  2  0  0  0
 21 23  1  0  0  0
 23 37  1  0  0  0
 23 38  1  0  0  0
M  END
> <s_m_source_file>
../4ptg_ligand.sdf

> <i_m_source_file_index>
1

> <s_epik_input>
W0NIM11PYzFjKEMoPU8pW05IMl0pW2NIXW5jKG4xKS1jMltjSF1bY0hdbmMoW2NIXTIpW05IXUMoPU8pW0NIXTNbQ0gyXVtDSDJdMw==

> <s_epik_cmdline>
J2VwaWtfYXBwJywgJy1pbWFlJywgJ2xpZ2FuZF9wcm8ubWFlJywgJy1vbWFlJywgJ2xpZ2FuZF9wcmVwLm1hZScsICctbXMnLCAnMScsICctcGgnLCAnNycsICctcGh0JywgJzAuNScsICctbnQn

> <r_lp_tautomer_probability>
1

> <r_epik_Ionization_Penalty>
  0.0002

> <r_epik_Ionization_Penalty_Charging>
  0.0000

> <r_epik_Ionization_Penalty_Neutral>
  0.0002

> <r_epik_State_Penalty>
 -0.0000

> <r_epik_Charging_Adjusted_Penalty>
0

> <i_epik_Tot_Q>
0

> <i_epik_Tot_abs_Q>
0

$$$$
