4puj_ligand
                    3D
 Schrodinger Suite 2020-3.
 41 44  0  0  1  0            999 V2000
  -18.9810   18.6740  -18.4690 N   0  0  0  0  0  0
  -18.2790   18.2980  -19.5960 C   0  0  0  0  0  0
  -18.5670   18.3190  -20.9460 C   0  0  0  0  0  0
  -17.6040   17.9340  -21.8730 C   0  0  0  0  0  0
  -17.8170   18.1070  -23.3170 C   0  0  0  0  0  0
  -18.8810   18.4800  -23.8040 O   0  0  0  0  0  0
  -16.7310   17.8200  -24.1130 N   0  0  0  0  0  0
  -15.5360   17.3760  -23.6730 C   0  0  0  0  0  0
  -14.5650   17.1240  -24.5300 N   0  0  0  0  0  0
  -15.3420   17.2100  -22.3540 N   0  0  0  0  0  0
  -16.3450   17.5050  -21.4180 C   0  0  3  0  0  0
  -16.0560   17.4700  -20.0560 C   0  0  0  0  0  0
  -17.0270   17.8860  -19.1390 C   0  0  0  0  0  0
  -16.9630   18.0240  -17.7530 N   0  0  0  0  0  0
  -18.1490   18.4990  -17.4170 C   0  0  0  0  0  0
  -18.5430   18.8170  -16.1790 N   0  0  0  0  0  0
  -17.6410   18.8390  -15.0370 C   0  0  0  0  0  0
  -16.6700   20.0010  -15.0940 C   0  0  0  0  0  0
  -15.6300   19.9570  -14.0150 N   0  0  0  0  0  0
  -16.1950   20.3130  -12.6800 C   0  0  0  0  0  0
  -15.1080   20.2700  -11.6350 C   0  0  0  0  0  0
  -14.0340   21.1490  -11.9650 O   0  0  0  0  0  0
  -13.4540   20.7640  -13.2040 C   0  0  0  0  0  0
  -14.4600   20.8330  -14.3270 C   0  0  0  0  0  0
  -19.5616   18.6415  -21.2878 H   0  0  0  0  0  0
  -14.7332   17.2628  -25.6082 H   0  0  0  0  0  0
  -14.3772   16.8339  -21.9830 H   0  0  0  0  0  0
  -15.0763   17.1199  -19.6988 H   0  0  0  0  0  0
  -19.6052   19.0699  -16.0458 H   0  0  0  0  0  0
  -18.2257   18.9287  -14.1096 H   0  0  0  0  0  0
  -17.0566   17.9074  -15.0133 H   0  0  0  0  0  0
  -16.1453   19.9933  -16.0608 H   0  0  0  0  0  0
  -17.2222   20.9460  -14.9840 H   0  0  0  0  0  0
  -16.6199   21.3268  -12.7202 H   0  0  0  0  0  0
  -16.9842   19.5950  -12.4125 H   0  0  0  0  0  0
  -15.5221   20.5745  -10.6625 H   0  0  0  0  0  0
  -14.7113   19.2467  -11.5604 H   0  0  0  0  0  0
  -12.6176   21.4376  -13.4423 H   0  0  0  0  0  0
  -13.0833   19.7310  -13.1301 H   0  0  0  0  0  0
  -13.9865   20.4938  -15.2601 H   0  0  0  0  0  0
  -14.8012   21.8720  -14.4456 H   0  0  0  0  0  0
  1  2  2  0  0  0
  1 15  1  0  0  0
  2  3  1  0  0  0
  2 13  1  0  0  0
  3  4  2  0  0  0
  3 25  1  0  0  0
  4  5  1  0  0  0
  4 11  1  0  0  0
  5  6  2  0  0  0
  5  7  1  0  0  0
  7  8  1  0  0  0
  8  9  2  0  0  0
  8 10  1  0  0  0
  9 26  1  0  0  0
 10 11  1  0  0  0
 10 27  1  0  0  0
 11 12  1  0  0  0
 12 13  2  0  0  0
 12 28  1  0  0  0
 13 14  1  0  0  0
 14 15  2  0  0  0
 15 16  1  0  0  0
 16 17  1  0  0  0
 16 29  1  0  0  0
 17 18  1  0  0  0
 17 30  1  0  0  0
 17 31  1  0  0  0
 18 19  1  0  0  0
 18 32  1  0  0  0
 18 33  1  0  0  0
 19 20  1  0  0  0
 19 24  1  0  0  0
 20 21  1  0  0  0
 20 34  1  0  0  0
 20 35  1  0  0  0
 21 22  1  0  0  0
 21 36  1  0  0  0
 21 37  1  0  0  0
 22 23  1  0  0  0
 23 24  1  0  0  0
 23 38  1  0  0  0
 23 39  1  0  0  0
 24 40  1  0  0  0
 24 41  1  0  0  0
M  END
> <s_m_source_file>
../4puj_ligand.sdf

> <i_m_source_file_index>
1

> <s_epik_input>
W0NIMl0xW0NIMl1PW0NIMl1bQ0gyXVtOSCtdMVtDSDJdW0NIMl1bTkhdQyhOPTIpPU5DKEMyMyk9W0NIXVtDSF00Qyg9W0NIXTMpQyg9TylbTkhdL0MoPU5cW0hdKVtOSF00

> <s_epik_cmdline>
J2VwaWtfYXBwJywgJy1pbWFlJywgJ2xpZ2FuZF9wcm8ubWFlJywgJy1vbWFlJywgJ2xpZ2FuZF9wcmVwLm1hZScsICctbXMnLCAnMScsICctcGgnLCAnNycsICctcGh0JywgJzAuNScsICctbnQn

> <r_epik_Ionization_Penalty>
  0.0648

> <r_epik_Ionization_Penalty_Charging>
  0.0000

> <r_epik_Ionization_Penalty_Neutral>
  0.0648

> <r_epik_State_Penalty>
  0.0534

> <r_epik_Charging_Adjusted_Penalty>
0.0533778775298009

> <i_epik_Tot_Q>
0

> <i_epik_Tot_abs_Q>
0

> <s_epik_Chemistry_Notes>
This compound has an imine and may undergo hydrolysis.

$$$$
