4puk_ligand
                    3D
 Schrodinger Suite 2020-3.
 27 29  0  0  1  0            999 V2000
  -16.9220   18.0620  -17.8130 N   0  0  0  0  0  0
  -18.9750   18.6410  -18.4950 N   0  3  0  0  0  0
  -18.1170   18.5000  -17.4600 C   0  0  0  0  0  0
  -17.5360   18.7190  -15.0930 C   0  0  0  0  0  0
  -18.2740   18.2920  -19.6380 C   0  0  0  0  0  0
  -18.5840   18.3270  -20.9790 C   0  0  0  0  0  0
  -17.6240   17.9730  -21.9150 C   0  0  0  0  0  0
  -15.6250   17.4010  -23.7160 C   0  0  0  0  0  0
  -16.3590   17.5340  -21.5030 C   0  0  0  0  0  0
  -16.0420   17.4940  -20.1280 C   0  0  0  0  0  0
  -17.0050   17.9150  -19.2030 C   0  0  0  0  0  0
  -18.4570   18.8110  -16.2110 N   0  0  0  0  0  0
  -17.8970   18.1150  -23.3500 C   0  0  0  0  0  0
  -18.9790   18.4690  -23.8010 O   0  0  0  0  0  0
  -16.8420   17.8330  -24.1710 N   0  0  0  0  0  0
  -14.6810   17.1410  -24.6370 N   0  0  0  0  0  0
  -15.3590   17.2300  -22.4210 N   0  3  0  0  0  0
  -18.0481   19.0277  -14.1697 H   0  0  0  0  0  0
  -16.6743   19.3788  -15.2725 H   0  0  0  0  0  0
  -17.1876   17.6808  -14.9895 H   0  0  0  0  0  0
  -19.5791   18.6315  -21.3033 H   0  0  0  0  0  0
  -15.0663   17.1421  -19.7929 H   0  0  0  0  0  0
  -19.4901   19.1508  -16.0460 H   0  0  0  0  0  0
  -14.9013   17.2824  -25.7054 H   0  0  0  0  0  0
  -14.3725   16.8587  -22.1065 H   0  0  0  0  0  0
  -20.0061   18.9781  -18.3127 H   0  0  0  0  0  0
  -13.6883   16.7869  -24.3222 H   0  0  0  0  0  0
  1  3  2  0  0  0
  1 11  1  0  0  0
  2  3  1  0  0  0
  2  5  1  0  0  0
  2 26  1  0  0  0
  3 12  1  0  0  0
  4 12  1  0  0  0
  4 18  1  0  0  0
  4 19  1  0  0  0
  4 20  1  0  0  0
  5  6  2  0  0  0
  5 11  1  0  0  0
  6  7  1  0  0  0
  6 21  1  0  0  0
  7  9  2  0  0  0
  7 13  1  0  0  0
  8 15  1  0  0  0
  8 16  1  0  0  0
  8 17  2  0  0  0
  9 10  1  0  0  0
  9 17  1  0  0  0
 10 11  2  0  0  0
 10 22  1  0  0  0
 12 23  1  0  0  0
 13 14  2  0  0  0
 13 15  1  0  0  0
 16 24  1  0  0  0
 16 27  1  0  0  0
 17 25  1  0  0  0
M  CHG  2   2   1  17   1
M  END
> <s_m_source_file>
../4puk_ligand.sdf

> <i_m_source_file_index>
1

> <s_epik_input>
W0NIM11bTkhdYyhbbkhdMSluYyhjMTIpW2NIXWMzYyhbY0hdMiljKD1PKVtuSF0vYyg9TlxbSF0pW25IXTM=

> <s_epik_cmdline>
J2VwaWtfYXBwJywgJy1pbWFlJywgJ2xpZ2FuZF9wcm8ubWFlJywgJy1vbWFlJywgJ2xpZ2FuZF9wcmVwLm1hZScsICctbXMnLCAnMScsICctcGgnLCAnNycsICctcGh0JywgJzAuNScsICctbnQn

> <r_lp_tautomer_probability>
1

> <r_epik_Ionization_Penalty>
  0.0276

> <r_epik_Ionization_Penalty_Charging>
  0.0272

> <r_epik_Ionization_Penalty_Neutral>
  0.0004

> <r_epik_State_Penalty>
 -0.0000

> <r_epik_Charging_Adjusted_Penalty>
0.0272025488924748

> <i_epik_Tot_Q>
2

> <i_epik_Tot_abs_Q>
2

> <s_epik_Chemistry_Notes>
This compound has an imine and may undergo hydrolysis.

$$$$
