4pul_ligand
                    3D
 Schrodinger Suite 2020-3.
 27 29  0  0  1  0            999 V2000
  106.7350   18.4330   17.6340 N   0  0  0  0  0  0
  108.7790   18.8950   18.4180 N   0  3  0  0  0  0
  107.9600   18.8330   17.3440 C   0  0  0  0  0  0
  107.4990   19.1360   14.9580 C   0  0  0  0  0  0
  108.0260   18.5240   19.5150 C   0  0  0  0  0  0
  108.2880   18.4610   20.8700 C   0  0  0  0  0  0
  107.2820   18.0990   21.7610 C   0  0  0  0  0  0
  105.1820   17.4680   23.4290 C   0  0  0  0  0  0
  106.0090   17.7640   21.2700 C   0  0  0  0  0  0
  105.7500   17.8210   19.8920 C   0  0  0  0  0  0
  106.7590   18.2220   19.0150 C   0  0  0  0  0  0
  108.3620   19.1770   16.1230 N   0  0  0  0  0  0
  107.5000   18.1150   23.2150 C   0  0  0  0  0  0
  108.5620   18.4140   23.7520 O   0  0  0  0  0  0
  106.3990   17.7870   23.9620 N   0  0  0  0  0  0
  104.1870   17.2270   24.2830 N   0  0  0  0  0  0
  104.9570   17.4320   22.1180 N   0  3  0  0  0  0
  108.0623   19.4659   14.0727 H   0  0  0  0  0  0
  106.6389   19.8035   15.1152 H   0  0  0  0  0  0
  107.1413   18.1074   14.8027 H   0  0  0  0  0  0
  109.2853   18.6954   21.2422 H   0  0  0  0  0  0
  104.7655   17.5534   19.5084 H   0  0  0  0  0  0
  109.4071   19.5051   16.0220 H   0  0  0  0  0  0
  104.3730   17.2568   25.3667 H   0  0  0  0  0  0
  103.9650   17.1466   21.7378 H   0  0  0  0  0  0
  109.8282   19.2006   18.2926 H   0  0  0  0  0  0
  103.1800   16.9984   23.9039 H   0  0  0  0  0  0
  1  3  2  0  0  0
  1 11  1  0  0  0
  2  3  1  0  0  0
  2  5  1  0  0  0
  2 26  1  0  0  0
  3 12  1  0  0  0
  4 12  1  0  0  0
  4 18  1  0  0  0
  4 19  1  0  0  0
  4 20  1  0  0  0
  5  6  2  0  0  0
  5 11  1  0  0  0
  6  7  1  0  0  0
  6 21  1  0  0  0
  7  9  2  0  0  0
  7 13  1  0  0  0
  8 15  1  0  0  0
  8 16  1  0  0  0
  8 17  2  0  0  0
  9 10  1  0  0  0
  9 17  1  0  0  0
 10 11  2  0  0  0
 10 22  1  0  0  0
 12 23  1  0  0  0
 13 14  2  0  0  0
 13 15  1  0  0  0
 16 24  1  0  0  0
 16 27  1  0  0  0
 17 25  1  0  0  0
M  CHG  2   2   1  17   1
M  END
> <s_m_source_file>
../4pul_ligand.sdf

> <i_m_source_file_index>
1

> <s_epik_input>
W0NIM11bTkhdYyhbbkhdMSluYyhjMTIpW2NIXWMzYyhbY0hdMiljKD1PKVtuSF0vYyg9TlxbSF0pW25IXTM=

> <s_epik_cmdline>
J2VwaWtfYXBwJywgJy1pbWFlJywgJ2xpZ2FuZF9wcm8ubWFlJywgJy1vbWFlJywgJ2xpZ2FuZF9wcmVwLm1hZScsICctbXMnLCAnMScsICctcGgnLCAnNycsICctcGh0JywgJzAuNScsICctbnQn

> <r_lp_tautomer_probability>
1

> <r_epik_Ionization_Penalty>
  0.0276

> <r_epik_Ionization_Penalty_Charging>
  0.0272

> <r_epik_Ionization_Penalty_Neutral>
  0.0004

> <r_epik_State_Penalty>
 -0.0000

> <r_epik_Charging_Adjusted_Penalty>
0.0272025488924747

> <i_epik_Tot_Q>
2

> <i_epik_Tot_abs_Q>
2

> <s_epik_Chemistry_Notes>
This compound has an imine and may undergo hydrolysis.

$$$$
