4pum_ligand
                    3D
 Schrodinger Suite 2020-3.
 27 29  0  0  1  0            999 V2000
  106.3700   18.0110   18.1270 N   0  0  0  0  0  0
  108.3740   18.6750   18.8690 N   0  3  0  0  0  0
  107.5470   18.5190   17.8110 C   0  0  0  0  0  0
  107.1110   18.7890   15.4080 C   0  0  0  0  0  0
  107.6750   18.2560   19.9830 C   0  0  0  0  0  0
  107.9620   18.2580   21.3320 C   0  0  0  0  0  0
  106.9970   17.8670   22.2500 C   0  0  0  0  0  0
  104.9420   17.2700   23.9900 C   0  0  0  0  0  0
  105.7420   17.4260   21.8000 C   0  0  0  0  0  0
  105.4660   17.3960   20.4230 C   0  0  0  0  0  0
  106.4310   17.8370   19.5120 C   0  0  0  0  0  0
  107.9360   18.9040   16.5960 N   0  0  0  0  0  0
  107.2260   18.0050   23.6940 C   0  0  0  0  0  0
  108.2960   18.3480   24.1860 O   0  0  0  0  0  0
  106.1440   17.6990   24.4810 N   0  0  0  0  0  0
  103.9600   17.0640   24.8720 N   0  0  0  0  0  0
  104.7150   17.1060   22.6880 N   0  3  0  0  0  0
  107.6634   19.1761   14.5391 H   0  0  0  0  0  0
  106.1879   19.3714   15.5449 H   0  0  0  0  0  0
  106.8562   17.7323   15.2394 H   0  0  0  0  0  0
  108.9483   18.5672   21.6779 H   0  0  0  0  0  0
  104.5033   17.0303   20.0659 H   0  0  0  0  0  0
  108.9476   19.3299   16.5240 H   0  0  0  0  0  0
  104.1489   17.1998   25.9471 H   0  0  0  0  0  0
  103.7411   16.7286   22.3427 H   0  0  0  0  0  0
  109.3885   19.0732   18.7201 H   0  0  0  0  0  0
  102.9625   16.7585   24.5231 H   0  0  0  0  0  0
  1  3  2  0  0  0
  1 11  1  0  0  0
  2  3  1  0  0  0
  2  5  1  0  0  0
  2 26  1  0  0  0
  3 12  1  0  0  0
  4 12  1  0  0  0
  4 18  1  0  0  0
  4 19  1  0  0  0
  4 20  1  0  0  0
  5  6  2  0  0  0
  5 11  1  0  0  0
  6  7  1  0  0  0
  6 21  1  0  0  0
  7  9  2  0  0  0
  7 13  1  0  0  0
  8 15  1  0  0  0
  8 16  1  0  0  0
  8 17  2  0  0  0
  9 10  1  0  0  0
  9 17  1  0  0  0
 10 11  2  0  0  0
 10 22  1  0  0  0
 12 23  1  0  0  0
 13 14  2  0  0  0
 13 15  1  0  0  0
 16 24  1  0  0  0
 16 27  1  0  0  0
 17 25  1  0  0  0
M  CHG  2   2   1  17   1
M  END
> <s_m_source_file>
../4pum_ligand.sdf

> <i_m_source_file_index>
1

> <s_epik_input>
W0NIM11bTkhdYyhbbkhdMSluYyhjMTIpW2NIXWMzYyhbY0hdMiljKD1PKVtuSF0vYyg9TlxbSF0pW25IXTM=

> <s_epik_cmdline>
J2VwaWtfYXBwJywgJy1pbWFlJywgJ2xpZ2FuZF9wcm8ubWFlJywgJy1vbWFlJywgJ2xpZ2FuZF9wcmVwLm1hZScsICctbXMnLCAnMScsICctcGgnLCAnNycsICctcGh0JywgJzAuNScsICctbnQn

> <r_lp_tautomer_probability>
1

> <r_epik_Ionization_Penalty>
  0.0276

> <r_epik_Ionization_Penalty_Charging>
  0.0272

> <r_epik_Ionization_Penalty_Neutral>
  0.0004

> <r_epik_State_Penalty>
 -0.0000

> <r_epik_Charging_Adjusted_Penalty>
0.0272025488924748

> <i_epik_Tot_Q>
2

> <i_epik_Tot_abs_Q>
2

> <s_epik_Chemistry_Notes>
This compound has an imine and may undergo hydrolysis.

$$$$
