4puz_ligand
                    3D
 Schrodinger Suite 2020-3.
 52 57  0  0  1  0            999 V2000
  -31.6410   18.9300    4.2980 C   0  0  0  0  0  0
  -30.1510   19.0130    3.9480 C   0  0  0  0  0  0
  -29.6220   17.6540    3.7330 N   0  0  0  0  0  0
  -30.3820   16.8140    2.7950 C   0  0  0  0  0  0
  -31.8720   16.8560    3.1510 C   0  0  0  0  0  0
  -32.3610   18.1990    3.3000 O   0  0  0  0  0  0
  -28.2580   17.4240    3.9550 C   0  0  0  0  0  0
  -27.5070   16.5190    3.1870 C   0  0  0  0  0  0
  -26.1560   16.2880    3.4260 C   0  0  0  0  0  0
  -25.4970   16.9560    4.4550 C   0  0  0  0  0  0
  -24.1350   16.7140    4.6410 N   0  0  0  0  0  0
  -23.2980   17.3130    5.5550 C   0  0  0  0  0  0
  -23.8100   18.2190    6.3820 N   0  0  0  0  0  0
  -22.9770   18.8390    7.3180 C   0  0  0  0  0  0
  -21.6650   18.5530    7.4790 C   0  0  0  0  0  0
  -21.1110   17.6090    6.6310 N   0  0  0  0  0  0
  -19.8460   17.0980    6.5270 C   0  0  0  0  0  0
  -19.9390   16.1850    5.4940 C   0  0  0  0  0  0
  -21.2130   16.1100    4.9760 N   0  0  0  0  0  0
  -21.8890   16.9780    5.6880 C   0  0  0  0  0  0
  -23.5990   19.8300    8.2100 C   0  0  0  0  0  0
  -24.8050   20.4470    7.8230 C   0  0  0  0  0  0
  -25.4380   21.3760    8.6720 C   0  0  0  0  0  0
  -24.8320   21.6830    9.9010 C   0  0  0  0  0  0
  -25.1170   22.5310   10.9940 C   0  0  0  0  0  0
  -24.2050   22.4580   11.9700 N   0  3  0  0  0  0
  -23.3170   21.5640   11.4980 N   0  0  0  0  0  0
  -23.6360   21.0620   10.2600 C   0  0  0  0  0  0
  -22.9920   20.1240    9.4510 C   0  0  0  0  0  0
  -26.2230   17.8610    5.2300 C   0  0  0  0  0  0
  -27.5820   18.0940    4.9860 C   0  0  0  0  0  0
  -31.7626   18.4207    5.2654 H   0  0  0  0  0  0
  -32.0595   19.9452    4.3630 H   0  0  0  0  0  0
  -30.0223   19.6066    3.0309 H   0  0  0  0  0  0
  -29.6063   19.4926    4.7746 H   0  0  0  0  0  0
  -30.2420   17.1894    1.7706 H   0  0  0  0  0  0
  -30.0221   15.7764    2.8577 H   0  0  0  0  0  0
  -32.4532   16.3690    2.3541 H   0  0  0  0  0  0
  -32.0371   16.3267    4.1010 H   0  0  0  0  0  0
  -27.9988   15.9800    2.3772 H   0  0  0  0  0  0
  -25.6096   15.5793    2.8036 H   0  0  0  0  0  0
  -23.6179   15.9714    4.0156 H   0  0  0  0  0  0
  -21.0675   19.0460    8.2458 H   0  0  0  0  0  0
  -18.9683   17.3522    7.1213 H   0  0  0  0  0  0
  -19.0999   15.5918    5.1305 H   0  0  0  0  0  0
  -25.2518   20.2036    6.8590 H   0  0  0  0  0  0
  -26.3775   21.8461    8.3813 H   0  0  0  0  0  0
  -25.9919   23.1796   11.0378 H   0  0  0  0  0  0
  -22.0653   19.6417    9.7621 H   0  0  0  0  0  0
  -25.7242   18.3953    6.0385 H   0  0  0  0  0  0
  -28.1236   18.8075    5.6071 H   0  0  0  0  0  0
  -24.3224   23.0661   12.8791 H   0  0  0  0  0  0
  1  2  1  0  0  0
  1  6  1  0  0  0
  1 32  1  0  0  0
  1 33  1  0  0  0
  2  3  1  0  0  0
  2 34  1  0  0  0
  2 35  1  0  0  0
  3  4  1  0  0  0
  3  7  1  0  0  0
  4  5  1  0  0  0
  4 36  1  0  0  0
  4 37  1  0  0  0
  5  6  1  0  0  0
  5 38  1  0  0  0
  5 39  1  0  0  0
  7  8  2  0  0  0
  7 31  1  0  0  0
  8  9  1  0  0  0
  8 40  1  0  0  0
  9 10  2  0  0  0
  9 41  1  0  0  0
 10 11  1  0  0  0
 10 30  1  0  0  0
 11 12  1  0  0  0
 11 42  1  0  0  0
 12 13  2  0  0  0
 12 20  1  0  0  0
 13 14  1  0  0  0
 14 15  2  0  0  0
 14 21  1  0  0  0
 15 16  1  0  0  0
 15 43  1  0  0  0
 16 17  1  0  0  0
 16 20  1  0  0  0
 17 18  2  0  0  0
 17 44  1  0  0  0
 18 19  1  0  0  0
 18 45  1  0  0  0
 19 20  2  0  0  0
 21 22  2  0  0  0
 21 29  1  0  0  0
 22 23  1  0  0  0
 22 46  1  0  0  0
 23 24  2  0  0  0
 23 47  1  0  0  0
 24 25  1  0  0  0
 24 28  1  0  0  0
 25 26  2  0  0  0
 25 48  1  0  0  0
 26 27  1  0  0  0
 26 52  1  0  0  0
 27 28  1  0  0  0
 28 29  2  0  0  0
 29 49  1  0  0  0
 30 31  2  0  0  0
 30 50  1  0  0  0
 31 51  1  0  0  0
M  CHG  1  26   1
M  END
> <s_m_source_file>
../4puz_ligand.sdf

> <i_m_source_file_index>
1

> <s_epik_input>
W0NIMl0xW0NIMl1PW0NIMl1bQ0gyXU4xYzJbY0hdW2NIXWMoW2NIXVtjSF0yKVtOSF1jKGMobjM0KW5bY0hdW2NIXTQpbmMoW2NIXTMpLWMoW2NIXVtjSF01KVtjSF1jKGM1NilbbkhdbltjSF02

> <s_epik_cmdline>
J2VwaWtfYXBwJywgJy1pbWFlJywgJ2xpZ2FuZF9wcm8ubWFlJywgJy1vbWFlJywgJ2xpZ2FuZF9wcmVwLm1hZScsICctbXMnLCAnMScsICctcGgnLCAnNycsICctcGh0JywgJzAuNScsICctbnQn

> <r_epik_Ionization_Penalty>
  0.0022

> <r_epik_Ionization_Penalty_Charging>
  0.0021

> <r_epik_Ionization_Penalty_Neutral>
  0.0001

> <r_epik_State_Penalty>
  0.1908

> <r_epik_Charging_Adjusted_Penalty>
0.192973081688412

> <i_epik_Tot_Q>
1

> <i_epik_Tot_abs_Q>
1

$$$$
