4pv0_ligand
                    3D
 Schrodinger Suite 2020-3.
 60 64  0  0  1  0            999 V2000
   -6.7710    6.8090   13.4730 O   0  0  0  0  0  0
   -6.5350    5.8600   12.7290 C   0  0  0  0  0  0
   -7.5620    5.2750   12.0290 O   0  5  0  0  0  0
   -5.1470    5.3670   12.5470 C   0  0  0  0  0  0
   -4.1580    5.7820   13.4360 C   0  0  0  0  0  0
   -2.8620    5.3520   13.2820 C   0  0  0  0  0  0
   -4.8310    4.5110   11.4840 C   0  0  0  0  0  0
   -3.5200    4.0700   11.3320 C   0  0  0  0  0  0
   -2.5250    4.4950   12.2370 C   0  0  0  0  0  0
   -1.1780    4.1150   12.1520 N   0  0  0  0  0  0
   -0.5120    3.6910   10.9940 C   0  0  0  0  0  0
   -1.0300    3.5640    9.8950 O   0  0  0  0  0  0
    0.8930    3.3350   11.1120 C   0  0  0  0  0  0
    1.7690    3.8320   10.1700 C   0  0  0  0  0  0
    3.0970    3.4980   10.2470 C   0  0  0  0  0  0
    1.3210    2.5140   12.1340 C   0  0  0  0  0  0
    2.6530    2.1700   12.2010 C   0  0  0  0  0  0
    3.5390    2.6730   11.2600 C   0  0  0  0  0  0
    3.1090    1.2860   13.3080 C   0  0  0  0  0  0
    4.3940    1.3420   13.7970 C   0  0  0  0  0  0
    2.1880    0.4030   13.8570 N   0  0  0  0  0  0
    2.5010   -0.4480   14.8820 C   0  0  0  0  0  0
    3.8060   -0.3620   15.3230 C   0  0  0  0  0  0
    4.3970   -1.0370   16.3290 N   0  0  0  0  0  0
    5.6610   -0.5880   16.3800 C   0  0  0  0  0  0
    5.8300    0.3700   15.4190 C   0  0  0  0  0  0
    4.6920    0.5000   14.7710 N   0  0  0  0  0  0
    1.5850   -1.3660   15.4920 N   0  0  0  0  0  0
    0.2230   -1.6780   15.3370 C   0  0  0  0  0  0
   -0.5050   -1.0030   14.3540 C   0  0  0  0  0  0
   -1.8400   -1.2140   14.1320 C   0  0  0  0  0  0
   -2.5620   -0.5510   13.1460 O   0  0  0  0  0  0
   -2.2190    0.5890   12.3620 C   0  0  0  0  0  0
   -0.4370   -2.6320   16.1160 C   0  0  0  0  0  0
   -1.7980   -2.8680   15.8950 C   0  0  0  0  0  0
   -2.4820   -2.1640   14.9040 C   0  0  0  0  0  0
   -3.8140   -2.3790   14.7050 O   0  0  0  0  0  0
   -4.3600   -2.7250   13.4190 C   0  0  0  0  0  0
   -4.4134    6.4510   14.2577 H   0  0  0  0  0  0
   -2.0940    5.6832   13.9810 H   0  0  0  0  0  0
   -5.6037    4.1939   10.7836 H   0  0  0  0  0  0
   -3.2622    3.3968   10.5144 H   0  0  0  0  0  0
   -0.5433    4.1345   13.0502 H   0  0  0  0  0  0
    1.4099    4.4831    9.3730 H   0  0  0  0  0  0
    3.8011    3.8835    9.5096 H   0  0  0  0  0  0
    0.6157    2.1429   12.8776 H   0  0  0  0  0  0
    4.5959    2.4136   11.3217 H   0  0  0  0  0  0
    5.1279    2.0443   13.4016 H   0  0  0  0  0  0
    6.4279   -0.9312   17.0744 H   0  0  0  0  0  0
    6.7460    0.9277   15.2240 H   0  0  0  0  0  0
    1.9308   -2.0392   16.2902 H   0  0  0  0  0  0
    0.0147   -0.2729   13.7335 H   0  0  0  0  0  0
   -3.0481    0.8277   11.6797 H   0  0  0  0  0  0
   -1.3132    0.3724   11.7767 H   0  0  0  0  0  0
   -2.0310    1.4466   13.0247 H   0  0  0  0  0  0
    0.1015   -3.1849   16.8857 H   0  0  0  0  0  0
   -2.3262   -3.6051   16.4998 H   0  0  0  0  0  0
   -5.4498   -2.8478   13.5044 H   0  0  0  0  0  0
   -3.9110   -3.6671   13.0715 H   0  0  0  0  0  0
   -4.1365   -1.9245   12.6984 H   0  0  0  0  0  0
  1  2  2  0  0  0
  2  3  1  0  0  0
  2  4  1  0  0  0
  4  5  2  0  0  0
  4  7  1  0  0  0
  5  6  1  0  0  0
  5 39  1  0  0  0
  6  9  2  0  0  0
  6 40  1  0  0  0
  7  8  2  0  0  0
  7 41  1  0  0  0
  8  9  1  0  0  0
  8 42  1  0  0  0
  9 10  1  0  0  0
 10 11  1  0  0  0
 10 43  1  0  0  0
 11 12  2  0  0  0
 11 13  1  0  0  0
 13 14  2  0  0  0
 13 16  1  0  0  0
 14 15  1  0  0  0
 14 44  1  0  0  0
 15 18  2  0  0  0
 15 45  1  0  0  0
 16 17  2  0  0  0
 16 46  1  0  0  0
 17 18  1  0  0  0
 17 19  1  0  0  0
 18 47  1  0  0  0
 19 20  2  0  0  0
 19 21  1  0  0  0
 20 27  1  0  0  0
 20 48  1  0  0  0
 21 22  2  0  0  0
 22 23  1  0  0  0
 22 28  1  0  0  0
 23 24  2  0  0  0
 23 27  1  0  0  0
 24 25  1  0  0  0
 25 26  2  0  0  0
 25 49  1  0  0  0
 26 27  1  0  0  0
 26 50  1  0  0  0
 28 29  1  0  0  0
 28 51  1  0  0  0
 29 30  2  0  0  0
 29 34  1  0  0  0
 30 31  1  0  0  0
 30 52  1  0  0  0
 31 32  1  0  0  0
 31 36  2  0  0  0
 32 33  1  0  0  0
 33 53  1  0  0  0
 33 54  1  0  0  0
 33 55  1  0  0  0
 34 35  2  0  0  0
 34 56  1  0  0  0
 35 36  1  0  0  0
 35 57  1  0  0  0
 36 37  1  0  0  0
 37 38  1  0  0  0
 38 58  1  0  0  0
 38 59  1  0  0  0
 38 60  1  0  0  0
M  CHG  1   3  -1
M  END
> <s_m_source_file>
../4pv0_ligand.sdf

> <i_m_source_file_index>
1

> <s_epik_input>
Tz1DKFtPSF0pYzFbY0hdW2NIXWMoW2NIXVtjSF0xKVtOSF1DKD1PKWMyW2NIXVtjSF1bY0hdYyhbY0hdMiktYyhbY0hdbihjMzQpW2NIXVtjSF1uNCluYzNbTkhdYzVbY0hdYyhPW0NIM10pYyhbY0hdW2NIXTUpT1tDSDNd

> <s_epik_cmdline>
J2VwaWtfYXBwJywgJy1pbWFlJywgJ2xpZ2FuZF9wcm8ubWFlJywgJy1vbWFlJywgJ2xpZ2FuZF9wcmVwLm1hZScsICctbXMnLCAnMScsICctcGgnLCAnNycsICctcGh0JywgJzAuNScsICctbnQn

> <r_lp_tautomer_probability>
1

> <r_epik_Ionization_Penalty>
  0.0028

> <r_epik_Ionization_Penalty_Charging>
  0.0028

> <r_epik_Ionization_Penalty_Neutral>
  0.0000

> <r_epik_State_Penalty>
 -0.0000

> <r_epik_Charging_Adjusted_Penalty>
0.00283240004003263

> <i_epik_Tot_Q>
-1

> <i_epik_Tot_abs_Q>
1

$$$$
