4pv5_ligand
                    3D
 Schrodinger Suite 2020-3.
 79 83  0  0  1  0            999 V2000
   15.7620    3.0170   23.5270 C   0  0  0  0  0  0
   16.7300    2.6540   24.6520 C   0  0  0  0  0  0
   16.7250    1.1640   24.9150 C   0  0  1  0  0  0
   15.3500    0.6260   25.3530 C   0  0  0  0  0  0
   14.2890    1.7550   25.1290 C   0  0  2  0  0  0
   12.8600    1.3740   25.5180 C   0  0  0  0  0  0
   12.0690    2.6470   25.8190 C   0  0  0  0  0  0
   11.9860    3.6010   24.6170 C   0  0  2  0  0  0
   13.4060    3.8080   23.9900 C   0  0  1  0  0  0
   14.3190    2.5370   23.7720 C   0  0  1  0  0  0
   13.3100    4.7610   22.8020 C   0  0  0  0  0  0
   12.2860    5.8090   22.8740 C   0  0  0  0  0  0
   11.3990    5.9500   23.8660 C   0  0  0  0  0  0
   11.4570    5.0190   25.0820 C   0  0  1  0  0  0
   10.0820    4.8500   25.7600 C   0  0  0  0  0  0
    9.2360    6.1080   25.7740 C   0  0  0  0  0  0
    8.9890    6.6670   24.3690 C   0  0  2  0  0  0
   10.3510    7.0580   23.7400 C   0  0  1  0  0  0
   13.8940    1.6890   22.5590 C   0  0  0  0  0  0
   10.8820    8.4200   24.2260 C   0  0  0  0  0  0
    9.9100    9.6000   24.0110 C   0  0  2  0  0  0
    8.5230    9.0740   23.6150 C   0  0  0  0  0  0
    8.0820    7.9020   24.4710 C   0  0  0  0  0  0
   15.0670   -0.6890   24.6290 C   0  0  0  0  0  0
   15.4050    0.3150   26.8480 C   0  0  0  0  0  0
   11.0060    2.9820   23.6020 C   0  0  0  0  0  0
   12.3890    5.6790   26.0950 C   0  0  0  0  0  0
    8.2880    5.6090   23.5070 C   0  0  0  0  0  0
   10.2980   10.5240   22.8630 C   0  0  0  0  0  0
    9.8110   10.4230   25.3020 C   0  0  0  0  0  0
   17.2100    0.4730   23.7580 O   0  0  0  0  0  0
   14.0260    4.6760   21.8160 O   0  0  0  0  0  0
   11.4000   10.2120   22.2200 O   0  5  0  0  0  0
    9.5820   11.4650   22.5630 O   0  0  0  0  0  0
   15.7279    4.1104   23.4112 H   0  0  0  0  0  0
   16.1040    2.5592   22.5871 H   0  0  0  0  0  0
   17.7491    2.9583   24.3713 H   0  0  0  0  0  0
   16.4326    3.1750   25.5740 H   0  0  0  0  0  0
   17.4475    0.9509   25.7167 H   0  0  0  0  0  0
   14.6287    2.4867   25.8768 H   0  0  0  0  0  0
   12.3862    0.8310   24.6869 H   0  0  0  0  0  0
   12.8819    0.7315   26.4106 H   0  0  0  0  0  0
   11.0409    2.3807   26.1056 H   0  0  0  0  0  0
   12.5505    3.1913   26.6447 H   0  0  0  0  0  0
   14.0002    4.3253   24.7576 H   0  0  0  0  0  0
   12.2813    6.5120   22.0279 H   0  0  0  0  0  0
    9.5040    4.0788   25.2297 H   0  0  0  0  0  0
   10.2246    4.5458   26.8075 H   0  0  0  0  0  0
    8.2580    5.8871   26.2265 H   0  0  0  0  0  0
    9.7450    6.8857   26.3624 H   0  0  0  0  0  0
   10.1626    7.1769   22.6628 H   0  0  0  0  0  0
   14.5663    0.8237   22.4629 H   0  0  0  0  0  0
   13.9506    2.3004   21.6463 H   0  0  0  0  0  0
   12.8615    1.3372   22.7013 H   0  0  0  0  0  0
   11.0891    8.3689   25.3051 H   0  0  0  0  0  0
   11.8082    8.6663   23.6861 H   0  0  0  0  0  0
    7.7798    9.8768   23.7301 H   0  0  0  0  0  0
    8.5429    8.7402   22.5670 H   0  0  0  0  0  0
    7.0634    7.6362   24.1518 H   0  0  0  0  0  0
    8.0594    8.2553   25.5125 H   0  0  0  0  0  0
   15.0194   -0.5079   23.5451 H   0  0  0  0  0  0
   14.1065   -1.0986   24.9749 H   0  0  0  0  0  0
   15.8714   -1.4074   24.8457 H   0  0  0  0  0  0
   15.6078    1.2400   27.4077 H   0  0  0  0  0  0
   16.2058   -0.4138   27.0417 H   0  0  0  0  0  0
   14.4410   -0.1051   27.1708 H   0  0  0  0  0  0
   11.3805    1.9978   23.2841 H   0  0  0  0  0  0
   10.9199    3.6419   22.7262 H   0  0  0  0  0  0
   10.0180    2.8644   24.0711 H   0  0  0  0  0  0
   13.3829    5.8157   25.6440 H   0  0  0  0  0  0
   12.4752    5.0388   26.9853 H   0  0  0  0  0  0
   11.9804    6.6581   26.3855 H   0  0  0  0  0  0
    8.9287    4.7185   23.4265 H   0  0  0  0  0  0
    8.1016    6.0186   22.5033 H   0  0  0  0  0  0
    7.3312    5.3314   23.9733 H   0  0  0  0  0  0
    9.5311    9.7635   26.1367 H   0  0  0  0  0  0
    9.0471   11.2051   25.1806 H   0  0  0  0  0  0
   10.7838   10.8905   25.5143 H   0  0  0  0  0  0
   18.1833    0.7442   23.3232 H   0  0  0  0  0  0
  1  2  1  0  0  0
  1 10  1  0  0  0
  1 35  1  0  0  0
  1 36  1  0  0  0
  2  3  1  0  0  0
  2 37  1  0  0  0
  2 38  1  0  0  0
  3  4  1  0  0  0
  3 31  1  0  0  0
  3 39  1  0  0  0
  4  5  1  0  0  0
  4 24  1  0  0  0
  4 25  1  0  0  0
  5  6  1  0  0  0
  5 10  1  0  0  0
  5 40  1  0  0  0
  6  7  1  0  0  0
  6 41  1  0  0  0
  6 42  1  0  0  0
  7  8  1  0  0  0
  7 43  1  0  0  0
  7 44  1  0  0  0
  8  9  1  0  0  0
  8 14  1  0  0  0
  8 26  1  0  0  0
  9 10  1  0  0  0
  9 11  1  0  0  0
  9 45  1  0  0  0
 10 19  1  0  0  0
 11 12  1  0  0  0
 11 32  2  0  0  0
 12 13  2  0  0  0
 12 46  1  0  0  0
 13 14  1  0  0  0
 13 18  1  0  0  0
 14 15  1  0  0  0
 14 27  1  0  0  0
 15 16  1  0  0  0
 15 47  1  0  0  0
 15 48  1  0  0  0
 16 17  1  0  0  0
 16 49  1  0  0  0
 16 50  1  0  0  0
 17 18  1  0  0  0
 17 23  1  0  0  0
 17 28  1  0  0  0
 18 20  1  0  0  0
 18 51  1  0  0  0
 19 52  1  0  0  0
 19 53  1  0  0  0
 19 54  1  0  0  0
 20 21  1  0  0  0
 20 55  1  0  0  0
 20 56  1  0  0  0
 21 22  1  0  0  0
 21 29  1  0  0  0
 21 30  1  0  0  0
 22 23  1  0  0  0
 22 57  1  0  0  0
 22 58  1  0  0  0
 23 59  1  0  0  0
 23 60  1  0  0  0
 24 61  1  0  0  0
 24 62  1  0  0  0
 24 63  1  0  0  0
 25 64  1  0  0  0
 25 65  1  0  0  0
 25 66  1  0  0  0
 26 67  1  0  0  0
 26 68  1  0  0  0
 26 69  1  0  0  0
 27 70  1  0  0  0
 27 71  1  0  0  0
 27 72  1  0  0  0
 28 73  1  0  0  0
 28 74  1  0  0  0
 28 75  1  0  0  0
 29 33  1  0  0  0
 29 34  2  0  0  0
 30 76  1  0  0  0
 30 77  1  0  0  0
 30 78  1  0  0  0
 31 79  1  0  0  0
M  CHG  1  33  -1
M  END
> <s_m_source_file>
../4pv5_ligand.sdf

> <i_m_source_file_index>
1

> <s_epik_input>
W0NIMl0xW0NIMl1bQ0BIXShbT0hdKUMoW0NIM10pKFtDSDNdKVtDQEhdKFtDSDJdW0NIMl0yKVtDQEBdMShbQ0gzXSlbQ0BIXShbQ0BAXTIzW0NIM10pQyg9TylbQ0hdPUM0W0NAQF0zKFtDSDNdKVtDSDJdW0NIMl1bQ0BdNShbQ0gzXSlbQ0BIXTRbQ0gyXVtDQF0oW0NIM10pKFtDSDJdW0NIMl01KUMoPU8pW09IXQ==

> <s_epik_cmdline>
J2VwaWtfYXBwJywgJy1pbWFlJywgJ2xpZ2FuZF9wcm8ubWFlJywgJy1vbWFlJywgJ2xpZ2FuZF9wcmVwLm1hZScsICctbXMnLCAnMScsICctcGgnLCAnNycsICctcGh0JywgJzAuNScsICctbnQn

> <r_lp_tautomer_probability>
1

> <r_epik_Ionization_Penalty>
  0.0050

> <r_epik_Ionization_Penalty_Charging>
  0.0050

> <r_epik_Ionization_Penalty_Neutral>
  0.0000

> <r_epik_State_Penalty>
 -0.0000

> <r_epik_Charging_Adjusted_Penalty>
0.00499007022833885

> <i_epik_Tot_Q>
-1

> <i_epik_Tot_abs_Q>
1

$$$$
