4pv7_ligand
                    3D
 Schrodinger Suite 2020-3.
 38 40  0  0  1  0            999 V2000
   -8.6470   41.2770   29.8440 O   0  0  0  0  0  0
   -9.0800   40.0700   30.5200 S   0  0  0  0  0  0
   -8.4270   40.0670   31.8150 O   0  0  0  0  0  0
   -8.5190   38.7800   29.6060 C   0  0  0  0  0  0
  -10.7010   40.0160   30.7270 N   0  0  0  0  0  0
  -11.3580   38.8560   30.9850 C   0  0  0  0  0  0
  -11.0210   37.5110   31.1440 C   0  0  0  0  0  0
  -12.0110   36.5610   31.4050 C   0  0  0  0  0  0
  -13.3540   36.9220   31.5180 C   0  0  0  0  0  0
  -11.4910   41.1180   30.6820 C   0  0  0  0  0  0
  -12.8800   40.6760   30.9070 C   0  0  0  0  0  0
  -14.0890   41.5690   30.9180 C   0  0  0  0  0  0
  -14.4910   41.8160   32.2880 N   0  3  0  0  0  0
  -12.7920   39.2140   31.1150 C   0  0  0  0  0  0
  -13.7620   38.2520   31.3770 C   0  0  0  0  0  0
  -11.2130   42.5470   30.4310 C   0  0  0  0  0  0
  -11.2090   43.4650   31.4630 C   0  0  0  0  0  0
  -10.9680   44.8000   31.1690 C   0  0  0  0  0  0
  -10.7530   45.2070   29.8590 C   0  0  0  0  0  0
  -10.4570   46.9220   29.5080 Cl  0  0  0  0  0  0
  -10.7640   44.3300   28.7940 C   0  0  0  0  0  0
  -11.0000   42.9980   29.0490 C   0  0  0  0  0  0
  -11.0240   41.7830   27.7340 Cl  0  0  0  0  0  0
   -7.4276   38.8577   29.4933 H   0  0  0  0  0  0
   -8.9926   38.8006   28.6134 H   0  0  0  0  0  0
   -8.7690   37.8359   30.1121 H   0  0  0  0  0  0
   -9.9793   37.2002   31.0640 H   0  0  0  0  0  0
  -11.7283   35.5149   31.5230 H   0  0  0  0  0  0
  -14.0993   36.1527   31.7200 H   0  0  0  0  0  0
  -13.8444   42.5234   30.4288 H   0  0  0  0  0  0
  -14.9115   41.0794   30.3760 H   0  0  0  0  0  0
  -15.3758   42.4695   32.2983 H   0  0  0  0  0  0
  -13.6676   42.3050   32.8292 H   0  0  0  0  0  0
  -14.7347   40.8610   32.7764 H   0  0  0  0  0  0
  -14.8125   38.5277   31.4699 H   0  0  0  0  0  0
  -11.3917   43.1470   32.4894 H   0  0  0  0  0  0
  -10.9474   45.5352   31.9735 H   0  0  0  0  0  0
  -10.5904   44.6826   27.7773 H   0  0  0  0  0  0
  1  2  2  0  0  0
  2  3  2  0  0  0
  2  4  1  0  0  0
  2  5  1  0  0  0
  4 24  1  0  0  0
  4 25  1  0  0  0
  4 26  1  0  0  0
  5  6  1  0  0  0
  5 10  1  0  0  0
  6  7  1  0  0  0
  6 14  2  0  0  0
  7  8  2  0  0  0
  7 27  1  0  0  0
  8  9  1  0  0  0
  8 28  1  0  0  0
  9 15  2  0  0  0
  9 29  1  0  0  0
 10 11  2  0  0  0
 10 16  1  0  0  0
 11 12  1  0  0  0
 11 14  1  0  0  0
 12 13  1  0  0  0
 12 30  1  0  0  0
 12 31  1  0  0  0
 13 32  1  0  0  0
 13 33  1  0  0  0
 13 34  1  0  0  0
 14 15  1  0  0  0
 15 35  1  0  0  0
 16 17  2  0  0  0
 16 22  1  0  0  0
 17 18  1  0  0  0
 17 36  1  0  0  0
 18 19  2  0  0  0
 18 37  1  0  0  0
 19 20  1  0  0  0
 19 21  1  0  0  0
 21 22  2  0  0  0
 21 38  1  0  0  0
 22 23  1  0  0  0
M  CHG  1  13   1
M  END
> <s_m_source_file>
../4pv7_ligand.sdf

> <i_m_source_file_index>
1

> <s_epik_input>
W2NIXTFbY0hdW2NIXVtjSF1jKGMxMiljKFtDSDJdW05IMytdKWMobjJTKD1PKSg9TylbQ0gzXSktYzNbY0hdW2NIXWMoQ2wpW2NIXWMzQ2w=

> <s_epik_cmdline>
J2VwaWtfYXBwJywgJy1pbWFlJywgJ2xpZ2FuZF9wcm8ubWFlJywgJy1vbWFlJywgJ2xpZ2FuZF9wcmVwLm1hZScsICctbXMnLCAnMScsICctcGgnLCAnNycsICctcGh0JywgJzAuNScsICctbnQn

> <r_lp_tautomer_probability>
1

> <r_epik_Ionization_Penalty>
  0.0066

> <r_epik_Ionization_Penalty_Charging>
  0.0066

> <r_epik_Ionization_Penalty_Neutral>
  0.0000

> <r_epik_State_Penalty>
 -0.0000

> <r_epik_Charging_Adjusted_Penalty>
0.00662929372252809

> <i_epik_Tot_Q>
1

> <i_epik_Tot_abs_Q>
1

$$$$
