4pvo_ligand
                    3D
 Schrodinger Suite 2020-3.
 25 26  0  0  1  0            999 V2000
  -25.3700   -1.4860   64.4650 Cl  0  0  0  0  0  0
  -25.7660   -1.5810   62.7800 C   0  0  0  0  0  0
  -25.7210   -2.7730   62.1510 C   0  0  0  0  0  0
  -25.2730   -4.0070   62.8890 C   0  0  0  0  0  0
  -26.3050   -5.0450   63.2680 C   0  0  0  0  0  0
  -27.7960   -5.3830   62.7980 S   0  0  0  0  0  0
  -28.1500   -6.6820   63.6890 C   0  0  0  0  0  0
  -27.0630   -7.0690   64.5550 N   0  0  0  0  0  0
  -27.0450   -8.1660   65.4740 C   0  0  0  0  0  0
  -25.8950   -6.0290   64.2830 C   0  0  0  0  0  0
  -24.6790   -6.0930   64.9400 O   0  5  0  0  0  0
  -29.5790   -7.6630   63.7780 S   0  0  0  0  0  0
  -26.0430   -2.8760   60.6870 C   0  0  0  0  0  0
  -25.9530   -4.4540   59.9180 Cl  0  0  0  0  0  0
  -26.4100   -1.7370   60.0520 C   0  0  0  0  0  0
  -26.8270   -1.7050   58.3750 Cl  0  0  0  0  0  0
  -26.4850   -0.4030   60.7610 C   0  0  0  0  0  0
  -26.1800   -0.3230   62.0580 C   0  0  0  0  0  0
  -24.5406   -4.5544   62.2774 H   0  0  0  0  0  0
  -24.8093   -3.7156   63.8430 H   0  0  0  0  0  0
  -28.0068   -8.6979   65.4289 H   0  0  0  0  0  0
  -26.8830   -7.7872   66.4939 H   0  0  0  0  0  0
  -26.2314   -8.8559   65.2055 H   0  0  0  0  0  0
  -26.7872    0.4903   60.2144 H   0  0  0  0  0  0
  -26.2290    0.6305   62.5839 H   0  0  0  0  0  0
  1  2  1  0  0  0
  2  3  2  0  0  0
  2 18  1  0  0  0
  3  4  1  0  0  0
  3 13  1  0  0  0
  4  5  1  0  0  0
  4 19  1  0  0  0
  4 20  1  0  0  0
  5  6  1  0  0  0
  5 10  2  0  0  0
  6  7  1  0  0  0
  7  8  1  0  0  0
  7 12  2  0  0  0
  8  9  1  0  0  0
  8 10  1  0  0  0
  9 21  1  0  0  0
  9 22  1  0  0  0
  9 23  1  0  0  0
 10 11  1  0  0  0
 13 14  1  0  0  0
 13 15  2  0  0  0
 15 16  1  0  0  0
 15 17  1  0  0  0
 17 18  2  0  0  0
 17 24  1  0  0  0
 18 25  1  0  0  0
M  CHG  1  11  -1
M  END
> <s_m_source_file>
../4pvo_ligand.sdf

> <i_m_source_file_index>
1

> <s_epik_input>
W2NIXTFbY0hdYyhDbCljKENsKWMoYzFDbClbQ0gyXWMyc2MoPVMpbihbQ0gzXSljMltPSF0=

> <s_epik_cmdline>
J2VwaWtfYXBwJywgJy1pbWFlJywgJ2xpZ2FuZF9wcm8ubWFlJywgJy1vbWFlJywgJ2xpZ2FuZF9wcmVwLm1hZScsICctbXMnLCAnMScsICctcGgnLCAnNycsICctcGh0JywgJzAuNScsICctbnQn

> <r_lp_tautomer_probability>
1

> <r_epik_Ionization_Penalty>
  0.0002

> <r_epik_Ionization_Penalty_Charging>
  0.0002

> <r_epik_Ionization_Penalty_Neutral>
  0.0000

> <r_epik_State_Penalty>
 -0.0000

> <r_epik_Charging_Adjusted_Penalty>
0.000237735815398265

> <i_epik_Tot_Q>
-1

> <i_epik_Tot_abs_Q>
1

$$$$
