4pvt_ligand
                    3D
 Schrodinger Suite 2020-3.
 21 21  0  0  1  0            999 V2000
  -28.6320    7.3030   59.0670 C   0  0  0  0  0  0
  -30.6150    8.5660   57.6060 C   0  0  0  0  0  0
  -30.8910    6.5230   55.8410 Cl  0  0  0  0  0  0
  -30.1730    7.3010   57.2290 C   0  0  0  0  0  0
  -29.1740    6.6690   57.9600 C   0  0  0  0  0  0
  -28.6620    5.2950   57.6060 C   0  0  0  0  0  0
  -27.2650    5.2990   57.0240 C   0  0  1  0  0  0
  -26.7290    4.0110   56.4530 C   0  0  0  0  0  0
  -27.4470    2.9700   56.3470 O   0  5  0  0  0  0
  -25.5380    4.0090   56.0720 O   0  0  0  0  0  0
  -26.3770    6.7040   56.8100 S   0  0  0  0  0  0
  -27.3790    6.5350   60.0070 Cl  0  0  0  0  0  0
  -29.0680    8.5580   59.4320 C   0  0  0  0  0  0
  -28.3400    9.3090   60.8150 Cl  0  0  0  0  0  0
  -30.0610    9.1920   58.7070 C   0  0  0  0  0  0
  -31.3979    9.0629   57.0331 H   0  0  0  0  0  0
  -28.6390    4.6682   58.5097 H   0  0  0  0  0  0
  -29.3271    4.8370   56.8591 H   0  0  0  0  0  0
  -27.3920    4.7676   57.9787 H   0  0  0  0  0  0
  -26.7475    7.6562   57.2175 H   0  0  0  0  0  0
  -30.4058   10.1827   59.0031 H   0  0  0  0  0  0
  1  5  2  0  0  0
  1 12  1  0  0  0
  1 13  1  0  0  0
  2  4  2  0  0  0
  2 15  1  0  0  0
  2 16  1  0  0  0
  3  4  1  0  0  0
  4  5  1  0  0  0
  5  6  1  0  0  0
  6  7  1  0  0  0
  6 17  1  0  0  0
  6 18  1  0  0  0
  7  8  1  0  0  0
  7 11  1  0  0  0
  7 19  1  0  0  0
  8  9  1  0  0  0
  8 10  2  0  0  0
 11 20  1  0  0  0
 13 14  1  0  0  0
 13 15  2  0  0  0
 15 21  1  0  0  0
M  CHG  1   9  -1
M  END
> <s_m_source_file>
../4pvt_ligand.sdf

> <i_m_source_file_index>
1

> <s_epik_input>
W09IXUMoPU8pW0NAQEhdKFtTSF0pW0NIMl1jKGMxQ2wpYyhDbClbY0hdW2NIXWMxQ2w=

> <s_epik_cmdline>
J2VwaWtfYXBwJywgJy1pbWFlJywgJ2xpZ2FuZF9wcm8ubWFlJywgJy1vbWFlJywgJ2xpZ2FuZF9wcmVwLm1hZScsICctbXMnLCAnMScsICctcGgnLCAnNycsICctcGh0JywgJzAuNScsICctbnQn

> <r_lp_tautomer_probability>
1

> <r_epik_Ionization_Penalty>
  0.0003

> <r_epik_Ionization_Penalty_Charging>
  0.0001

> <r_epik_Ionization_Penalty_Neutral>
  0.0003

> <r_epik_State_Penalty>
 -0.0000

> <r_epik_Charging_Adjusted_Penalty>
6.26461327360135e-05

> <i_epik_Tot_Q>
-1

> <i_epik_Tot_abs_Q>
1

$$$$
