4pvv_ligand
                    3D
 Schrodinger Suite 2020-3.
 39 41  0  0  1  0            999 V2000
    9.8810   -2.8110    8.5070 C   0  0  0  0  0  0
   10.2290   -2.0650    9.7610 C   0  0  0  0  0  0
   11.4530   -1.6470   10.3310 C   0  0  0  0  0  0
   11.4870   -0.4580   10.8750 C   0  0  0  0  0  0
   12.4590   -2.4030   10.8200 C   0  0  0  0  0  0
   12.8900   -3.6520   10.6010 C   0  0  0  0  0  0
   12.2470   -4.3710    9.7490 N   0  0  0  0  0  0
   13.9520   -4.1460   11.1790 N   0  0  0  0  0  0
   14.6440   -3.3640   12.1040 C   0  0  0  0  0  0
   14.2230   -2.0510   12.3390 N   0  0  0  0  0  0
   13.1310   -1.6080   11.7030 C   0  0  0  0  0  0
   12.5190   -0.4300   11.7260 N   0  0  0  0  0  0
   12.9290    0.6750   12.5410 C   0  0  2  0  0  0
   11.9520    0.8620   13.5790 O   0  0  0  0  0  0
   12.1980    2.1340   14.0850 C   0  0  2  0  0  0
   10.9920    2.5450   14.9300 C   0  0  0  0  0  0
   10.7780    1.5060   15.9320 O   0  0  0  0  0  0
   12.3400    2.9940   12.8280 C   0  0  1  0  0  0
   13.2560    4.0260   13.0190 O   0  0  0  0  0  0
   12.8360    1.9950   11.7740 C   0  0  1  0  0  0
   14.0690    2.3870   11.1790 O   0  0  0  0  0  0
    8.7893   -2.9293    8.4417 H   0  0  0  0  0  0
   10.3568   -3.8026    8.5263 H   0  0  0  0  0  0
   10.2417   -2.2481    7.6335 H   0  0  0  0  0  0
    9.7532   -1.0734    9.7417 H   0  0  0  0  0  0
    9.8683   -2.6278   10.6346 H   0  0  0  0  0  0
   10.7986    0.3623   10.6717 H   0  0  0  0  0  0
   11.3509   -3.9680    9.2544 H   0  0  0  0  0  0
   12.5935   -5.3885    9.5153 H   0  0  0  0  0  0
   15.5028   -3.7714   12.6374 H   0  0  0  0  0  0
   13.9295    0.4033   12.9087 H   0  0  0  0  0  0
   13.0988    2.1347   14.7163 H   0  0  0  0  0  0
   11.1972    3.5098   15.4170 H   0  0  0  0  0  0
   10.1071    2.6414   14.2837 H   0  0  0  0  0  0
    9.9532    1.5995   16.6537 H   0  0  0  0  0  0
   11.4479    3.5749   12.5512 H   0  0  0  0  0  0
   13.0423    4.8235   13.7458 H   0  0  0  0  0  0
   12.2200    1.9423   10.8642 H   0  0  0  0  0  0
   14.5324    1.7554   10.4068 H   0  0  0  0  0  0
  1  2  1  0  0  0
  1 22  1  0  0  0
  1 23  1  0  0  0
  1 24  1  0  0  0
  2  3  1  0  0  0
  2 25  1  0  0  0
  2 26  1  0  0  0
  3  4  2  0  0  0
  3  5  1  0  0  0
  4 12  1  0  0  0
  4 27  1  0  0  0
  5  6  2  0  0  0
  5 11  1  0  0  0
  6  7  1  0  0  0
  6  8  1  0  0  0
  7 28  1  0  0  0
  7 29  1  0  0  0
  8  9  2  0  0  0
  9 10  1  0  0  0
  9 30  1  0  0  0
 10 11  2  0  0  0
 11 12  1  0  0  0
 12 13  1  0  0  0
 13 14  1  0  0  0
 13 20  1  0  0  0
 13 31  1  0  0  0
 14 15  1  0  0  0
 15 16  1  0  0  0
 15 18  1  0  0  0
 15 32  1  0  0  0
 16 17  1  0  0  0
 16 33  1  0  0  0
 16 34  1  0  0  0
 17 35  1  0  0  0
 18 19  1  0  0  0
 18 20  1  0  0  0
 18 36  1  0  0  0
 19 37  1  0  0  0
 20 21  1  0  0  0
 20 38  1  0  0  0
 21 39  1  0  0  0
M  END
> <s_m_source_file>
../4pvv_ligand.sdf

> <i_m_source_file_index>
1

> <s_epik_input>
W09IXVtDQEBIXTFbQ0BIXShbT0hdKVtDQEBIXShbQ0gyXVtPSF0pT1tDQEhdMW4oW2NIXWMyW0NIMl1bQ0gzXSljKGMyMyluW2NIXW5jM1tOSDJd

> <s_epik_cmdline>
J2VwaWtfYXBwJywgJy1pbWFlJywgJ2xpZ2FuZF9wcm8ubWFlJywgJy1vbWFlJywgJ2xpZ2FuZF9wcmVwLm1hZScsICctbXMnLCAnMScsICctcGgnLCAnNycsICctcGh0JywgJzAuNScsICctbnQn

> <r_lp_tautomer_probability>
1

> <r_epik_Ionization_Penalty>
  0.0021

> <r_epik_Ionization_Penalty_Charging>
  0.0000

> <r_epik_Ionization_Penalty_Neutral>
  0.0021

> <r_epik_State_Penalty>
 -0.0000

> <r_epik_Charging_Adjusted_Penalty>
0

> <i_epik_Tot_Q>
0

> <i_epik_Tot_abs_Q>
0

> <s_epik_Chemistry_Notes>
This compound contains an acetal/aminal-like group ( X-CH(R)-Y where X, Y are N, S, or O) that may be acid/base labile, releasing an aldehyde.

$$$$
