4px6_ligand
                    3D
 Schrodinger Suite 2020-3.
 53 57  0  0  1  0            999 V2000
   -0.9810    4.7510   12.4490 C   0  0  0  0  0  0
   -1.0480    5.6860   11.2470 C   0  0  0  0  0  0
   -0.1230    5.2270   10.1380 C   0  0  0  0  0  0
    6.7290    0.7840   15.3760 C   0  0  0  0  0  0
    2.7170    0.9000   14.1860 C   0  0  0  0  0  0
    0.4720   -0.2240   14.2590 C   0  0  0  0  0  0
   -0.2720    0.6600   13.5030 C   0  0  0  0  0  0
   -1.6450    0.4370   13.2580 C   0  0  0  0  0  0
   -2.3080   -0.6570   13.7530 C   0  0  0  0  0  0
   -1.5830   -1.5720   14.5240 C   0  0  0  0  0  0
   -0.2050   -1.3600   14.7760 C   0  0  0  0  0  0
   -0.8290   -3.2840   15.7980 C   0  0  0  0  0  0
   -1.9570   -2.7890   15.1760 C   0  0  0  0  0  0
    3.8660   -1.2410   15.8370 O   0  0  0  0  0  0
    4.5500   -0.2890   15.4360 C   0  0  0  0  0  0
    5.9160   -0.2660   15.8030 N   0  0  0  0  0  0
    6.3340    1.7940   14.6390 N   0  0  0  0  0  0
    4.9760    1.8230   14.2420 C   0  0  0  0  0  0
    4.5500    2.8830   13.4650 C   0  0  0  0  0  0
    4.0780    0.8010   14.6270 C   0  0  0  0  0  0
    2.2670    1.9360   13.4170 N   0  0  0  0  0  0
    3.1850    2.9040   13.0710 C   0  0  0  0  0  0
    2.7430    3.9510   12.2980 N   0  0  0  0  0  0
    1.3540    4.0790   11.8310 C   0  0  2  0  0  0
    1.3020    5.0390   10.6450 C   0  0  0  0  0  0
    0.4380    4.6100   12.9830 C   0  0  1  0  0  0
    0.9560    5.9130   13.4250 N   0  3  0  0  0  0
    1.8460   -0.1000   14.5650 N   0  0  0  0  0  0
    0.2480   -2.4220   15.5620 N   0  3  0  0  0  0
   -1.6144    5.1463   13.2568 H   0  0  0  0  0  0
   -1.3392    3.7527   12.1574 H   0  0  0  0  0  0
   -2.0763    5.7088   10.8571 H   0  0  0  0  0  0
   -0.7496    6.6994   11.5536 H   0  0  0  0  0  0
   -0.4802    4.2673    9.7363 H   0  0  0  0  0  0
   -0.1116    5.9790    9.3352 H   0  0  0  0  0  0
    7.7758    0.7632   15.6791 H   0  0  0  0  0  0
    0.2088    1.5457   13.0879 H   0  0  0  0  0  0
   -2.1964    1.1586   12.6552 H   0  0  0  0  0  0
   -3.3684   -0.8090   13.5516 H   0  0  0  0  0  0
   -0.8825   -4.2236   16.3674 H   0  0  0  0  0  0
   -2.9095   -3.3342   15.2493 H   0  0  0  0  0  0
    6.3377   -1.0714   16.4223 H   0  0  0  0  0  0
    5.2364    3.6748   13.1650 H   0  0  0  0  0  0
    3.4860    4.7166   12.0303 H   0  0  0  0  0  0
    1.0434    3.0733   11.5115 H   0  0  0  0  0  0
    1.9270    4.6286    9.8382 H   0  0  0  0  0  0
    1.7081    6.0097   10.9658 H   0  0  0  0  0  0
    0.4273    3.9592   13.8698 H   0  0  0  0  0  0
    0.3236    6.3029   14.2362 H   0  0  0  0  0  0
    0.9448    6.6176   12.5804 H   0  0  0  0  0  0
    1.9871    5.7933   13.7891 H   0  0  0  0  0  0
    2.2039   -0.9356   15.1844 H   0  0  0  0  0  0
    1.3005   -2.4615   15.8794 H   0  0  0  0  0  0
  1  2  1  0  0  0
  1 26  1  0  0  0
  1 30  1  0  0  0
  1 31  1  0  0  0
  2  3  1  0  0  0
  2 32  1  0  0  0
  2 33  1  0  0  0
  3 25  1  0  0  0
  3 34  1  0  0  0
  3 35  1  0  0  0
  4 16  1  0  0  0
  4 17  2  0  0  0
  4 36  1  0  0  0
  5 20  2  0  0  0
  5 21  1  0  0  0
  5 28  1  0  0  0
  6  7  2  0  0  0
  6 11  1  0  0  0
  6 28  1  0  0  0
  7  8  1  0  0  0
  7 37  1  0  0  0
  8  9  2  0  0  0
  8 38  1  0  0  0
  9 10  1  0  0  0
  9 39  1  0  0  0
 10 11  2  0  0  0
 10 13  1  0  0  0
 11 29  1  0  0  0
 12 13  2  0  0  0
 12 29  1  0  0  0
 12 40  1  0  0  0
 13 41  1  0  0  0
 14 15  2  0  0  0
 15 16  1  0  0  0
 15 20  1  0  0  0
 16 42  1  0  0  0
 17 18  1  0  0  0
 18 19  2  0  0  0
 18 20  1  0  0  0
 19 22  1  0  0  0
 19 43  1  0  0  0
 21 22  2  0  0  0
 22 23  1  0  0  0
 23 24  1  0  0  0
 23 44  1  0  0  0
 24 25  1  0  0  0
 24 26  1  0  0  0
 24 45  1  0  0  0
 25 46  1  0  0  0
 25 47  1  0  0  0
 26 27  1  0  0  0
 26 48  1  0  0  0
 27 49  1  0  0  0
 27 50  1  0  0  0
 27 51  1  0  0  0
 28 52  1  0  0  0
 29 53  1  0  0  0
M  CHG  2  27   1  29   1
M  END
> <s_m_source_file>
../4px6_ligand.sdf

> <i_m_source_file_index>
1

> <s_epik_input>
W05IMytdW0NASF0xW0NIMl1bQ0gyXVtDSDJdW0NIMl1bQ0BIXTFbTkhdYyhbY0hdMiluYyhjKGMyMyljKD1PKVtuSF1bY0hdbjMpW05IXWMoW2NIXVtjSF1bY0hdNCljKGM0NSlbbkhdW2NIXVtjSF01

> <s_epik_cmdline>
J2VwaWtfYXBwJywgJy1pbWFlJywgJ2xpZ2FuZF9wcm8ubWFlJywgJy1vbWFlJywgJ2xpZ2FuZF9wcmVwLm1hZScsICctbXMnLCAnMScsICctcGgnLCAnNycsICctcGh0JywgJzAuNScsICctbnQn

> <r_lp_tautomer_probability>
1

> <r_epik_Ionization_Penalty>
  0.0012

> <r_epik_Ionization_Penalty_Charging>
  0.0006

> <r_epik_Ionization_Penalty_Neutral>
  0.0006

> <r_epik_State_Penalty>
 -0.0000

> <r_epik_Charging_Adjusted_Penalty>
0.000640614630230135

> <i_epik_Tot_Q>
2

> <i_epik_Tot_abs_Q>
2

$$$$
