4pxf_ligand
                    3D
 Schrodinger Suite 2020-3.
105104  0  0  1  0            999 V2000
  122.4400  222.0030   32.9890 N   0  3  0  0  0  0
  122.3090  222.0260   34.4760 C   0  0  2  0  0  0
  122.0800  223.4590   34.9330 C   0  0  0  0  0  0
  122.8000  224.3690   34.5250 O   0  0  0  0  0  0
  123.5490  221.4330   35.1550 C   0  0  0  0  0  0
  123.3380  221.1830   36.6480 C   0  0  0  0  0  0
  122.5960  221.9570   37.2930 O   0  5  0  0  0  0
  123.9160  220.2110   37.1780 O   0  0  0  0  0  0
  121.0760  223.6410   35.7890 N   0  0  0  0  0  0
  120.4960  224.9680   36.0710 C   0  0  2  0  0  0
  120.8870  225.5520   37.4420 C   0  0  0  0  0  0
  120.9960  226.7770   37.6030 O   0  0  0  0  0  0
  118.9450  224.9190   35.9310 C   0  0  2  0  0  0
  118.5550  224.9460   34.4420 C   0  0  0  0  0  0
  118.2730  226.0550   36.7040 C   0  0  0  0  0  0
  117.0800  225.1760   34.1670 C   0  0  0  0  0  0
  121.1060  224.6830   38.4240 N   0  0  0  0  0  0
  121.3820  225.1480   39.7810 C   0  0  2  0  0  0
  122.8350  225.5850   39.9670 C   0  0  0  0  0  0
  123.1660  226.2740   40.9400 O   0  0  0  0  0  0
  121.0190  224.0750   40.8070 C   0  0  0  0  0  0
  120.4810  224.6660   42.0880 C   0  0  0  0  0  0
  119.8160  225.7200   42.0270 O   0  5  0  0  0  0
  120.7070  224.0720   43.1540 O   0  0  0  0  0  0
  123.6880  225.1920   39.0240 N   0  0  0  0  0  0
  125.1130  225.5340   39.0610 C   0  0  2  0  0  0
  125.3660  227.0240   38.7960 C   0  0  0  0  0  0
  126.5090  227.4550   38.6320 O   0  0  0  0  0  0
  125.9450  224.6320   38.1220 C   0  0  0  0  0  0
  125.8900  223.1830   38.5830 C   0  0  0  0  0  0
  125.4600  224.7400   36.6880 C   0  0  0  0  0  0
  124.2930  227.7950   38.6950 N   0  0  0  0  0  0
  124.4060  229.2240   38.4330 C   0  0  2  0  0  0
  125.3070  229.9540   39.4380 C   0  0  0  0  0  0
  125.9760  230.9180   39.0760 O   0  0  0  0  0  0
  123.0200  229.8680   38.3410 C   0  0  0  0  0  0
  122.5490  230.6310   39.5690 C   0  0  0  0  0  0
  121.0240  231.5280   39.2600 S   0  0  0  0  0  0
  121.5290  233.2230   39.4270 C   0  0  0  0  0  0
  125.3210  229.4900   40.6860 N   0  0  0  0  0  0
  126.1740  230.0320   41.7290 C   0  0  0  0  0  0
  126.0390  229.1990   42.9770 C   0  0  0  0  0  0
  126.9880  229.0410   43.7420 O   0  0  0  0  0  0
  124.8540  228.6380   43.1660 N   0  0  0  0  0  0
  124.5050  227.9510   44.3990 C   0  0  2  0  0  0
  124.8700  226.4720   44.3130 C   0  0  0  0  0  0
  124.1200  225.6050   44.7660 O   0  0  0  0  0  0
  123.0080  228.1010   44.6820 C   0  0  0  0  0  0
  122.4270  229.5130   44.5360 C   0  0  0  0  0  0
  120.9670  229.4470   44.1230 C   0  0  0  0  0  0
  122.5960  230.3200   45.8170 C   0  0  0  0  0  0
  125.9550  226.1316   43.7704 O   0  5  0  0  0  0
  121.5359  222.4343   32.5346 H   0  0  0  0  0  0
  122.5622  220.9644   32.6477 H   0  0  0  0  0  0
  123.3184  222.5933   32.6891 H   0  0  0  0  0  0
  121.4411  221.4051   34.7428 H   0  0  0  0  0  0
  123.8006  220.4715   34.6837 H   0  0  0  0  0  0
  124.3948  222.1276   35.0450 H   0  0  0  0  0  0
  120.6792  222.7485   36.2950 H   0  0  0  0  0  0
  120.9633  225.6061   35.3065 H   0  0  0  0  0  0
  118.5684  223.9855   36.3746 H   0  0  0  0  0  0
  119.0992  225.7565   33.9351 H   0  0  0  0  0  0
  118.8148  223.9834   33.9774 H   0  0  0  0  0  0
  118.5724  226.0063   37.7614 H   0  0  0  0  0  0
  117.1803  225.9545   36.6273 H   0  0  0  0  0  0
  118.5831  227.0211   36.2792 H   0  0  0  0  0  0
  116.9055  225.1781   33.0809 H   0  0  0  0  0  0
  116.7750  226.1449   34.5892 H   0  0  0  0  0  0
  116.4907  224.3717   34.6316 H   0  0  0  0  0  0
  121.0779  223.6050   38.2071 H   0  0  0  0  0  0
  120.7317  226.0276   39.8968 H   0  0  0  0  0  0
  120.2478  223.4123   40.3873 H   0  0  0  0  0  0
  121.9144  223.4855   41.0535 H   0  0  0  0  0  0
  123.2884  224.5892   38.1952 H   0  0  0  0  0  0
  125.3985  225.3274   40.1030 H   0  0  0  0  0  0
  126.9924  224.9671   38.1480 H   0  0  0  0  0  0
  126.2432  223.1153   39.6226 H   0  0  0  0  0  0
  126.5331  222.5679   37.9365 H   0  0  0  0  0  0
  124.8539  222.8183   38.5232 H   0  0  0  0  0  0
  125.5036  225.7904   36.3643 H   0  0  0  0  0  0
  124.4229  224.3791   36.6236 H   0  0  0  0  0  0
  126.1021  224.1287   36.0368 H   0  0  0  0  0  0
  123.3012  227.3343   38.8135 H   0  0  0  0  0  0
  124.9045  229.2698   37.4535 H   0  0  0  0  0  0
  123.0059  230.5908   37.5119 H   0  0  0  0  0  0
  122.2648  229.0887   38.1610 H   0  0  0  0  0  0
  122.3710  229.9249   40.3935 H   0  0  0  0  0  0
  123.3198  231.3567   39.8677 H   0  0  0  0  0  0
  120.6646  233.8816   39.2567 H   0  0  0  0  0  0
  122.3119  233.4469   38.6874 H   0  0  0  0  0  0
  121.9232  233.3900   40.4403 H   0  0  0  0  0  0
  124.6422  228.6538   40.9098 H   0  0  0  0  0  0
  127.2208  230.0169   41.3913 H   0  0  0  0  0  0
  125.8739  231.0676   41.9469 H   0  0  0  0  0  0
  124.1218  228.7057   42.3479 H   0  0  0  0  0  0
  125.0996  228.4385   45.1857 H   0  0  0  0  0  0
  122.4382  227.4662   43.9875 H   0  0  0  0  0  0
  122.7978  227.7930   45.7169 H   0  0  0  0  0  0
  122.9817  230.0372   43.7438 H   0  0  0  0  0  0
  120.8740  228.8599   43.1974 H   0  0  0  0  0  0
  120.5882  230.4653   43.9509 H   0  0  0  0  0  0
  120.3814  228.9680   44.9215 H   0  0  0  0  0  0
  123.6604  230.3516   46.0927 H   0  0  0  0  0  0
  122.0214  229.8469   46.6269 H   0  0  0  0  0  0
  122.2282  231.3442   45.6563 H   0  0  0  0  0  0
  1  2  1  0  0  0
  1 53  1  0  0  0
  1 54  1  0  0  0
  1 55  1  0  0  0
  2  3  1  0  0  0
  2  5  1  0  0  0
  2 56  1  0  0  0
  3  4  2  0  0  0
  3  9  1  0  0  0
  5  6  1  0  0  0
  5 57  1  0  0  0
  5 58  1  0  0  0
  6  7  1  0  0  0
  6  8  2  0  0  0
  9 10  1  0  0  0
  9 59  1  0  0  0
 10 11  1  0  0  0
 10 13  1  0  0  0
 10 60  1  0  0  0
 11 12  2  0  0  0
 11 17  1  0  0  0
 13 14  1  0  0  0
 13 15  1  0  0  0
 13 61  1  0  0  0
 14 16  1  0  0  0
 14 62  1  0  0  0
 14 63  1  0  0  0
 15 64  1  0  0  0
 15 65  1  0  0  0
 15 66  1  0  0  0
 16 67  1  0  0  0
 16 68  1  0  0  0
 16 69  1  0  0  0
 17 18  1  0  0  0
 17 70  1  0  0  0
 18 19  1  0  0  0
 18 21  1  0  0  0
 18 71  1  0  0  0
 19 20  2  0  0  0
 19 25  1  0  0  0
 21 22  1  0  0  0
 21 72  1  0  0  0
 21 73  1  0  0  0
 22 23  1  0  0  0
 22 24  2  0  0  0
 25 26  1  0  0  0
 25 74  1  0  0  0
 26 27  1  0  0  0
 26 29  1  0  0  0
 26 75  1  0  0  0
 27 28  2  0  0  0
 27 32  1  0  0  0
 29 30  1  0  0  0
 29 31  1  0  0  0
 29 76  1  0  0  0
 30 77  1  0  0  0
 30 78  1  0  0  0
 30 79  1  0  0  0
 31 80  1  0  0  0
 31 81  1  0  0  0
 31 82  1  0  0  0
 32 33  1  0  0  0
 32 83  1  0  0  0
 33 34  1  0  0  0
 33 36  1  0  0  0
 33 84  1  0  0  0
 34 35  2  0  0  0
 34 40  1  0  0  0
 36 37  1  0  0  0
 36 85  1  0  0  0
 36 86  1  0  0  0
 37 38  1  0  0  0
 37 87  1  0  0  0
 37 88  1  0  0  0
 38 39  1  0  0  0
 39 89  1  0  0  0
 39 90  1  0  0  0
 39 91  1  0  0  0
 40 41  1  0  0  0
 40 92  1  0  0  0
 41 42  1  0  0  0
 41 93  1  0  0  0
 41 94  1  0  0  0
 42 43  2  0  0  0
 42 44  1  0  0  0
 44 45  1  0  0  0
 44 95  1  0  0  0
 45 46  1  0  0  0
 45 48  1  0  0  0
 45 96  1  0  0  0
 46 47  2  0  0  0
 46 52  1  0  0  0
 48 49  1  0  0  0
 48 97  1  0  0  0
 48 98  1  0  0  0
 49 50  1  0  0  0
 49 51  1  0  0  0
 49 99  1  0  0  0
 50100  1  0  0  0
 50101  1  0  0  0
 50102  1  0  0  0
 51103  1  0  0  0
 51104  1  0  0  0
 51105  1  0  0  0
M  CHG  4   1   1   7  -1  23  -1  52  -1
M  END
> <s_m_source_file>
../4pxf_ligand.sdf

> <i_m_source_file_index>
1

> <s_epik_input>
W09IXUMoPU8pW0NIMl1bQ0BIXShbTkgzK10pQyg9TylbTkhdW0NAQEhdKFtDQEBIXShbQ0gzXSlbQ0gyXVtDSDNdKUMoPU8pW05IXVtDQEBIXShbQ0gyXUMoPU8pW09IXSlDKD1PKVtOSF1bQ0BASF0oW0NIXShbQ0gzXSlbQ0gzXSlDKD1PKVtOSF1bQ0BASF0oW0NIMl1bQ0gyXVNbQ0gzXSlDKD1PKVtOSF1bQ0gyXUMoPU8pW05IXVtDQEhdKEMoPU8pW09IXSlbQ0gyXVtDSF0oW0NIM10pW0NIM10=

> <s_epik_cmdline>
J2VwaWtfYXBwJywgJy1pbWFlJywgJ2xpZ2FuZF9wcm8ubWFlJywgJy1vbWFlJywgJ2xpZ2FuZF9wcmVwLm1hZScsICctbXMnLCAnMScsICctcGgnLCAnNycsICctcGh0JywgJzAuNScsICctbnQn

> <r_epik_Ionization_Penalty>
  0.0261

> <r_epik_Ionization_Penalty_Charging>
  0.0261

> <r_epik_Ionization_Penalty_Neutral>
  0.0000

> <r_epik_State_Penalty>
  0.0156

> <r_epik_Charging_Adjusted_Penalty>
0.0416810550640632

> <i_epik_Tot_Q>
-2

> <i_epik_Tot_abs_Q>
4

$$$$
