4py1_ligand
                    3D
 Schrodinger Suite 2020-3.
 42 45  0  0  1  0            999 V2000
    9.3650  -11.3980   16.2790 N   0  0  0  0  0  0
    7.2510   -9.8080   17.8420 C   0  0  0  0  0  0
    6.2390   -8.9960   18.1820 N   0  0  0  0  0  0
    9.6320   -8.6280   12.8070 C   0  0  0  0  0  0
   10.3350  -10.8180   14.3980 C   0  0  0  0  0  0
   11.0960  -10.5910   13.2140 C   0  0  0  0  0  0
    5.5160   -5.2170   14.1660 C   0  0  0  0  0  0
   10.7480   -9.5050   12.4260 C   0  0  0  0  0  0
    9.2800   -9.8760   14.6670 N   0  0  0  0  0  0
    8.9430   -5.4880   16.1500 C   0  0  0  0  0  0
    3.3430   -5.8420   11.3760 C   0  0  0  0  0  0
    3.9810   -5.4660   12.5470 O   0  0  0  0  0  0
    5.3310   -5.6790   12.8590 C   0  0  0  0  0  0
    6.4330   -6.2490   12.1250 C   0  0  0  0  0  0
    6.7390   -5.2650   14.7660 C   0  0  0  0  0  0
    7.8550   -5.8200   14.0890 C   0  0  0  0  0  0
    9.0540   -5.7630   14.7540 O   0  0  0  0  0  0
    7.7320   -6.3570   12.7470 C   0  0  0  0  0  0
    9.0850   -7.1660   11.8550 S   0  0  0  0  0  0
   10.3410  -11.7330   15.4010 N   0  0  0  0  0  0
    8.9420   -8.8410   13.8970 N   0  0  0  0  0  0
    8.7080  -10.2540   15.8680 C   0  0  0  0  0  0
    7.6530   -9.5600   16.5040 C   0  0  0  0  0  0
    6.8290   -8.4980   16.0210 C   0  0  0  0  0  0
    5.9870   -8.2170   17.0710 N   0  0  0  0  0  0
    4.8980   -7.2490   17.0970 C   0  0  0  0  0  0
    7.7004  -10.5521   18.4996 H   0  0  0  0  0  0
   11.9214  -11.2475   12.9385 H   0  0  0  0  0  0
    4.6664   -4.8110   14.7151 H   0  0  0  0  0  0
   11.3082   -9.2993   11.5139 H   0  0  0  0  0  0
    9.9467   -5.4609   16.5993 H   0  0  0  0  0  0
    8.3463   -6.2761   16.6326 H   0  0  0  0  0  0
    8.4504   -4.5150   16.2940 H   0  0  0  0  0  0
    2.2861   -5.5404   11.4212 H   0  0  0  0  0  0
    3.4081   -6.9336   11.2572 H   0  0  0  0  0  0
    3.8283   -5.3504   10.5199 H   0  0  0  0  0  0
    6.2862   -6.5977   11.1028 H   0  0  0  0  0  0
    6.8605   -4.8731   15.7758 H   0  0  0  0  0  0
    6.8605   -8.0191   15.0423 H   0  0  0  0  0  0
    4.4168   -7.2650   18.0860 H   0  0  0  0  0  0
    4.1584   -7.5083   16.3252 H   0  0  0  0  0  0
    5.2968   -6.2431   16.8994 H   0  0  0  0  0  0
  1 20  1  0  0  0
  1 22  2  0  0  0
  2  3  2  0  0  0
  2 23  1  0  0  0
  2 27  1  0  0  0
  3 25  1  0  0  0
  4  8  1  0  0  0
  4 19  1  0  0  0
  4 21  2  0  0  0
  5  6  1  0  0  0
  5  9  1  0  0  0
  5 20  2  0  0  0
  6  8  2  0  0  0
  6 28  1  0  0  0
  7 13  2  0  0  0
  7 15  1  0  0  0
  7 29  1  0  0  0
  8 30  1  0  0  0
  9 21  1  0  0  0
  9 22  1  0  0  0
 10 17  1  0  0  0
 10 31  1  0  0  0
 10 32  1  0  0  0
 10 33  1  0  0  0
 11 12  1  0  0  0
 11 34  1  0  0  0
 11 35  1  0  0  0
 11 36  1  0  0  0
 12 13  1  0  0  0
 13 14  1  0  0  0
 14 18  2  0  0  0
 14 37  1  0  0  0
 15 16  2  0  0  0
 15 38  1  0  0  0
 16 17  1  0  0  0
 16 18  1  0  0  0
 18 19  1  0  0  0
 22 23  1  0  0  0
 23 24  2  0  0  0
 24 25  1  0  0  0
 24 39  1  0  0  0
 25 26  1  0  0  0
 26 40  1  0  0  0
 26 41  1  0  0  0
 26 42  1  0  0  0
M  END
> <s_m_source_file>
../4py1_ligand.sdf

> <i_m_source_file_index>
1

> <s_epik_input>
W2NIXTFuKFtDSDNdKW5bY0hdYzEtYyhubjIpbihjMjMpbmMoW2NIXVtjSF0zKVNjKFtjSF00KWMoT1tDSDNdKVtjSF1bY0hdYzRPW0NIM10=

> <s_epik_cmdline>
J2VwaWtfYXBwJywgJy1pbWFlJywgJ2xpZ2FuZF9wcm8ubWFlJywgJy1vbWFlJywgJ2xpZ2FuZF9wcmVwLm1hZScsICctbXMnLCAnMScsICctcGgnLCAnNycsICctcGh0JywgJzAuNScsICctbnQn

> <r_lp_tautomer_probability>
1

> <r_epik_Ionization_Penalty>
  0.0000

> <r_epik_Ionization_Penalty_Charging>
  0.0000

> <r_epik_Ionization_Penalty_Neutral>
  0.0000

> <r_epik_State_Penalty>
 -0.0000

> <r_epik_Charging_Adjusted_Penalty>
0

> <i_epik_Tot_Q>
0

> <i_epik_Tot_abs_Q>
0

$$$$
