4pyn_ligand
                    3D
 Schrodinger Suite 2020-3.
 46 48  0  0  1  0            999 V2000
  -10.3550  -11.2210   15.7120 N   0  3  0  0  0  0
  -10.8820  -10.3010   14.6820 C   0  0  1  0  0  0
  -12.2070   -9.6430   15.1200 C   0  0  0  0  0  0
  -13.2660  -10.6360   15.5450 C   0  0  0  0  0  0
  -14.8390   -9.7880   15.7240 S   0  0  0  0  0  0
   -9.8470   -9.2270   14.3870 C   0  0  0  0  0  0
   -9.9000   -8.6930   13.2810 O   0  0  0  0  0  0
   -9.0190   -8.9020   15.2560 O   0  5  0  0  0  0
  -15.8040  -11.0750   16.5320 C   0  0  0  0  0  0
  -16.1070  -12.2820   15.6210 C   0  0  1  0  0  0
  -16.5710  -13.3420   16.4690 O   0  0  0  0  0  0
  -17.2010  -12.0300   14.5790 C   0  0  1  0  0  0
  -16.7820  -12.2660   13.2290 O   0  0  0  0  0  0
  -18.3220  -13.0010   15.0410 C   0  0  1  0  0  0
  -19.1340  -13.5240   13.9780 O   0  0  0  0  0  0
  -17.5480  -14.0850   15.7570 C   0  0  2  0  0  0
  -18.3090  -14.8500   16.7520 N   0  0  0  0  0  0
  -19.2100  -14.3390   17.6400 C   0  0  0  0  0  0
  -19.6190  -15.3030   18.5030 N   0  0  0  0  0  0
  -18.9560  -16.4440   18.1050 C   0  0  0  0  0  0
  -18.9450  -17.7730   18.5920 C   0  0  0  0  0  0
  -19.7040  -18.1610   19.6540 N   0  0  0  0  0  0
  -18.1670  -18.6540   17.9670 N   0  0  0  0  0  0
  -17.4360  -18.2640   16.9070 C   0  0  0  0  0  0
  -17.3680  -17.0400   16.3650 N   0  0  0  0  0  0
  -18.1360  -16.1560   16.9920 C   0  0  0  0  0  0
  -11.1030  -11.9986   15.9263 H   0  0  0  0  0  0
  -10.1386  -10.6570   16.6313 H   0  0  0  0  0  0
   -9.4313  -11.6920   15.3448 H   0  0  0  0  0  0
  -11.0623  -10.9186   13.7898 H   0  0  0  0  0  0
  -12.0203   -8.9765   15.9750 H   0  0  0  0  0  0
  -12.6207   -9.0599   14.2841 H   0  0  0  0  0  0
  -13.3573  -11.4235   14.7824 H   0  0  0  0  0  0
  -12.9802  -11.0879   16.5063 H   0  0  0  0  0  0
  -15.2526  -11.4527   17.4057 H   0  0  0  0  0  0
  -16.7686  -10.6594   16.8588 H   0  0  0  0  0  0
  -15.1863  -12.5747   15.0950 H   0  0  0  0  0  0
  -17.4850  -10.9732   14.4674 H   0  0  0  0  0  0
  -15.9925  -11.6443   12.7815 H   0  0  0  0  0  0
  -19.1194  -12.5327   15.6367 H   0  0  0  0  0  0
  -19.7514  -12.8445   13.3721 H   0  0  0  0  0  0
  -17.1535  -14.8357   15.0564 H   0  0  0  0  0  0
  -19.5524  -13.3043   17.6542 H   0  0  0  0  0  0
  -20.3456  -17.4300   20.1678 H   0  0  0  0  0  0
  -19.6755  -19.2054   19.9980 H   0  0  0  0  0  0
  -16.8274  -19.0341   16.4331 H   0  0  0  0  0  0
  1  2  1  0  0  0
  1 27  1  0  0  0
  1 28  1  0  0  0
  1 29  1  0  0  0
  2  3  1  0  0  0
  2  6  1  0  0  0
  2 30  1  0  0  0
  3  4  1  0  0  0
  3 31  1  0  0  0
  3 32  1  0  0  0
  4  5  1  0  0  0
  4 33  1  0  0  0
  4 34  1  0  0  0
  5  9  1  0  0  0
  6  7  2  0  0  0
  6  8  1  0  0  0
  9 10  1  0  0  0
  9 35  1  0  0  0
  9 36  1  0  0  0
 10 11  1  0  0  0
 10 12  1  0  0  0
 10 37  1  0  0  0
 11 16  1  0  0  0
 12 13  1  0  0  0
 12 14  1  0  0  0
 12 38  1  0  0  0
 13 39  1  0  0  0
 14 15  1  0  0  0
 14 16  1  0  0  0
 14 40  1  0  0  0
 15 41  1  0  0  0
 16 17  1  0  0  0
 16 42  1  0  0  0
 17 18  1  0  0  0
 17 26  1  0  0  0
 18 19  2  0  0  0
 18 43  1  0  0  0
 19 20  1  0  0  0
 20 21  2  0  0  0
 20 26  1  0  0  0
 21 22  1  0  0  0
 21 23  1  0  0  0
 22 44  1  0  0  0
 22 45  1  0  0  0
 23 24  2  0  0  0
 24 25  1  0  0  0
 24 46  1  0  0  0
 25 26  2  0  0  0
M  CHG  2   1   1   8  -1
M  END
> <s_m_source_file>
../4pyn_ligand.sdf

> <i_m_source_file_index>
1

> <s_epik_input>
Tz1DKFtPSF0pW0NAQEhdKFtOSDMrXSlbQ0gyXVtDSDJdU1tDSDJdW0NASF0xT1tDQEhdKFtDQEhdKFtPSF0pW0NAQEhdMVtPSF0pbihbY0hdbjIpYyhjMjMpbltjSF1uYzNbTkgyXQ==

> <s_epik_cmdline>
J2VwaWtfYXBwJywgJy1pbWFlJywgJ2xpZ2FuZF9wcm8ubWFlJywgJy1vbWFlJywgJ2xpZ2FuZF9wcmVwLm1hZScsICctbXMnLCAnMScsICctcGgnLCAnNycsICctcGh0JywgJzAuNScsICctbnQn

> <r_lp_tautomer_probability>
1

> <r_epik_Ionization_Penalty>
  0.0026

> <r_epik_Ionization_Penalty_Charging>
  0.0022

> <r_epik_Ionization_Penalty_Neutral>
  0.0004

> <r_epik_State_Penalty>
 -0.0000

> <r_epik_Charging_Adjusted_Penalty>
0.00216156469931729

> <i_epik_Tot_Q>
0

> <i_epik_Tot_abs_Q>
2

> <s_epik_Chemistry_Notes>
This compound contains an acetal/aminal-like group ( X-CH(R)-Y where X, Y are N, S, or O) that may be acid/base labile, releasing an aldehyde.

$$$$
