4pyo_ligand
                    3D
 Schrodinger Suite 2020-3.
 46 48  0  0  1  0            999 V2000
   10.5970    0.5840  -31.7590 N   0  3  0  0  0  0
   11.6500    1.3370  -32.4040 C   0  0  1  0  0  0
   11.1380    2.0200  -33.6660 C   0  0  0  0  0  0
   10.4490    1.0600  -34.6240 C   0  0  0  0  0  0
   10.2770    1.7700  -36.2250 S   0  0  0  0  0  0
   12.1450    2.3840  -31.4550 C   0  0  0  0  0  0
   11.4170    2.7160  -30.5030 O   0  5  0  0  0  0
   13.2620    2.8920  -31.6530 O   0  0  0  0  0  0
    9.5010    0.4090  -37.0190 C   0  0  0  0  0  0
   10.5440   -0.6040  -37.4700 C   0  0  1  0  0  0
    9.9310   -1.8560  -37.7260 O   0  0  0  0  0  0
   11.2470   -0.2040  -38.7490 C   0  0  1  0  0  0
   12.6390   -0.2710  -38.4940 O   0  0  0  0  0  0
   10.8510   -1.2460  -39.7740 C   0  0  1  0  0  0
   11.9470   -1.5970  -40.6030 O   0  0  0  0  0  0
   10.4400   -2.4220  -38.9170 C   0  0  2  0  0  0
    9.3780   -3.2550  -39.5080 N   0  0  0  0  0  0
    8.3300   -2.8500  -40.2230 C   0  0  0  0  0  0
    7.5610   -3.8920  -40.5830 N   0  0  0  0  0  0
    8.1210   -4.9980  -40.0890 C   0  0  0  0  0  0
    7.8310   -6.4440  -40.0900 C   0  0  0  0  0  0
    6.7570   -6.9500  -40.7120 N   0  0  0  0  0  0
    8.6830   -7.2500  -39.4500 N   0  0  0  0  0  0
    9.7600   -6.7790  -38.8260 C   0  0  0  0  0  0
   10.0770   -5.4870  -38.7800 N   0  0  0  0  0  0
    9.3170   -4.5660  -39.3820 C   0  0  0  0  0  0
   10.2248   -0.1892  -32.4472 H   0  0  0  0  0  0
    9.7738    1.2619  -31.4893 H   0  0  0  0  0  0
   10.9916    0.1066  -30.8499 H   0  0  0  0  0  0
   12.4418    0.6140  -32.6497 H   0  0  0  0  0  0
   10.4104    2.7982  -33.3923 H   0  0  0  0  0  0
   11.9815    2.4791  -34.2024 H   0  0  0  0  0  0
   11.0441    0.1390  -34.7113 H   0  0  0  0  0  0
    9.4478    0.8146  -34.2402 H   0  0  0  0  0  0
    8.8073   -0.0777  -36.3177 H   0  0  0  0  0  0
    8.9437    0.7661  -37.8976 H   0  0  0  0  0  0
   11.2658   -0.7259  -36.6490 H   0  0  0  0  0  0
   11.0480    0.8211  -39.0948 H   0  0  0  0  0  0
   13.0995    0.4183  -37.7710 H   0  0  0  0  0  0
   10.1008   -0.9094  -40.5047 H   0  0  0  0  0  0
   12.3743   -0.8548  -41.2933 H   0  0  0  0  0  0
   11.2930   -3.0904  -38.7280 H   0  0  0  0  0  0
    8.1233   -1.8116  -40.4819 H   0  0  0  0  0  0
    6.0595   -6.2809  -41.2371 H   0  0  0  0  0  0
    6.5731   -8.0344  -40.6974 H   0  0  0  0  0  0
   10.4180   -7.4895  -38.3256 H   0  0  0  0  0  0
  1  2  1  0  0  0
  1 27  1  0  0  0
  1 28  1  0  0  0
  1 29  1  0  0  0
  2  3  1  0  0  0
  2  6  1  0  0  0
  2 30  1  0  0  0
  3  4  1  0  0  0
  3 31  1  0  0  0
  3 32  1  0  0  0
  4  5  1  0  0  0
  4 33  1  0  0  0
  4 34  1  0  0  0
  5  9  1  0  0  0
  6  7  1  0  0  0
  6  8  2  0  0  0
  9 10  1  0  0  0
  9 35  1  0  0  0
  9 36  1  0  0  0
 10 11  1  0  0  0
 10 12  1  0  0  0
 10 37  1  0  0  0
 11 16  1  0  0  0
 12 13  1  0  0  0
 12 14  1  0  0  0
 12 38  1  0  0  0
 13 39  1  0  0  0
 14 15  1  0  0  0
 14 16  1  0  0  0
 14 40  1  0  0  0
 15 41  1  0  0  0
 16 17  1  0  0  0
 16 42  1  0  0  0
 17 18  1  0  0  0
 17 26  1  0  0  0
 18 19  2  0  0  0
 18 43  1  0  0  0
 19 20  1  0  0  0
 20 21  2  0  0  0
 20 26  1  0  0  0
 21 22  1  0  0  0
 21 23  1  0  0  0
 22 44  1  0  0  0
 22 45  1  0  0  0
 23 24  2  0  0  0
 24 25  1  0  0  0
 24 46  1  0  0  0
 25 26  2  0  0  0
M  CHG  2   1   1   7  -1
M  END
> <s_m_source_file>
../4pyo_ligand.sdf

> <i_m_source_file_index>
1

> <s_epik_input>
W09IXUMoPU8pW0NAQEhdKFtOSDMrXSlbQ0gyXVtDSDJdU1tDSDJdW0NASF0xT1tDQEhdKFtDQEhdKFtPSF0pW0NAQEhdMVtPSF0pbihbY0hdbjIpYyhjMjMpbltjSF1uYzNbTkgyXQ==

> <s_epik_cmdline>
J2VwaWtfYXBwJywgJy1pbWFlJywgJ2xpZ2FuZF9wcm8ubWFlJywgJy1vbWFlJywgJ2xpZ2FuZF9wcmVwLm1hZScsICctbXMnLCAnMScsICctcGgnLCAnNycsICctcGh0JywgJzAuNScsICctbnQn

> <r_lp_tautomer_probability>
1

> <r_epik_Ionization_Penalty>
  0.0026

> <r_epik_Ionization_Penalty_Charging>
  0.0022

> <r_epik_Ionization_Penalty_Neutral>
  0.0004

> <r_epik_State_Penalty>
 -0.0000

> <r_epik_Charging_Adjusted_Penalty>
0.00216156469931729

> <i_epik_Tot_Q>
0

> <i_epik_Tot_abs_Q>
2

> <s_epik_Chemistry_Notes>
This compound contains an acetal/aminal-like group ( X-CH(R)-Y where X, Y are N, S, or O) that may be acid/base labile, releasing an aldehyde.

$$$$
