4pyq_ligand
                    3D
 Schrodinger Suite 2020-3.
 40 41  0  0  1  0            999 V2000
    2.6760  -32.6790  -34.1180 C   0  0  0  0  0  0
    8.4890  -32.4080  -30.9730 C   0  0  0  0  0  0
    1.8610  -32.6590  -35.2900 N   0  0  0  0  0  0
    4.0690  -32.5760  -34.4310 N   0  0  0  0  0  0
    7.3250  -32.4800  -31.8650 C   0  0  0  0  0  0
    8.3710  -32.7870  -29.6110 N   0  0  0  0  0  0
    2.2230  -32.7590  -32.9900 O   0  0  0  0  0  0
    0.4410  -32.7720  -35.4300 C   0  0  0  0  0  0
    7.5260  -32.2950  -33.2140 C   0  0  0  0  0  0
    6.0690  -32.7020  -31.3420 C   0  0  0  0  0  0
    9.6070  -31.9500  -31.4500 N   0  3  0  0  0  0
    5.1760  -32.5470  -33.5420 C   0  0  0  0  0  0
   -0.0570  -32.6240  -36.7100 C   0  0  0  0  0  0
    6.4440  -32.3380  -34.0530 C   0  0  0  0  0  0
    4.9810  -32.7380  -32.1880 C   0  0  0  0  0  0
   -1.4090  -32.7380  -36.9600 C   0  0  0  0  0  0
   -3.3050  -32.7000  -38.4960 N   0  3  0  0  0  0
   -1.7880  -33.1690  -34.6280 C   0  0  0  0  0  0
   -0.4280  -33.0640  -34.3900 C   0  0  0  0  0  0
   -1.8810  -32.5550  -38.3680 C   0  0  0  0  0  0
   -2.2820  -33.0100  -35.9140 C   0  0  0  0  0  0
    2.3248  -32.5415  -36.2805 H   0  0  0  0  0  0
    4.3934  -32.5067  -35.4798 H   0  0  0  0  0  0
    7.4145  -33.1725  -29.2282 H   0  0  0  0  0  0
    9.2360  -32.6954  -28.9377 H   0  0  0  0  0  0
    8.5270  -32.1177  -33.6072 H   0  0  0  0  0  0
    5.9373  -32.8477  -30.2698 H   0  0  0  0  0  0
    9.6761  -31.6621  -32.5094 H   0  0  0  0  0  0
    0.6267  -32.4146  -37.5327 H   0  0  0  0  0  0
    6.5828  -32.2071  -35.1262 H   0  0  0  0  0  0
    3.9803  -32.9148  -31.7936 H   0  0  0  0  0  0
   -3.5952  -32.5561  -39.5472 H   0  0  0  0  0  0
   -3.8078  -31.9477  -37.8705 H   0  0  0  0  0  0
   -3.6019  -33.7072  -38.1682 H   0  0  0  0  0  0
   -2.4707  -33.3768  -33.8041 H   0  0  0  0  0  0
   -0.0396  -33.2113  -33.3823 H   0  0  0  0  0  0
   -1.6112  -31.5474  -38.7171 H   0  0  0  0  0  0
   -1.4052  -33.3068  -39.0149 H   0  0  0  0  0  0
   -3.3518  -33.0981  -36.1035 H   0  0  0  0  0  0
   10.4847  -31.8501  -30.7945 H   0  0  0  0  0  0
  1  3  1  0  0  0
  1  4  1  0  0  0
  1  7  2  0  0  0
  2  5  1  0  0  0
  2  6  1  0  0  0
  2 11  2  0  0  0
  3  8  1  0  0  0
  3 22  1  0  0  0
  4 12  1  0  0  0
  4 23  1  0  0  0
  5  9  2  0  0  0
  5 10  1  0  0  0
  6 24  1  0  0  0
  6 25  1  0  0  0
  8 13  2  0  0  0
  8 19  1  0  0  0
  9 14  1  0  0  0
  9 26  1  0  0  0
 10 15  2  0  0  0
 10 27  1  0  0  0
 11 28  1  0  0  0
 11 40  1  0  0  0
 12 14  2  0  0  0
 12 15  1  0  0  0
 13 16  1  0  0  0
 13 29  1  0  0  0
 14 30  1  0  0  0
 15 31  1  0  0  0
 16 20  1  0  0  0
 16 21  2  0  0  0
 17 20  1  0  0  0
 17 32  1  0  0  0
 17 33  1  0  0  0
 17 34  1  0  0  0
 18 19  2  0  0  0
 18 21  1  0  0  0
 18 35  1  0  0  0
 19 36  1  0  0  0
 20 37  1  0  0  0
 20 38  1  0  0  0
 21 39  1  0  0  0
M  CHG  2  11   1  17   1
M  END
> <s_m_source_file>
../4pyq_ligand.sdf

> <i_m_source_file_index>
1

> <s_epik_input>
W2NIXTFbY0hdW2NIXWMoW0NIMl1bTkgzK10pW2NIXWMxW05IXUMoPU8pW05IXWMoW2NIXVtjSF0yKVtjSF1bY0hdYzIvQyhbTkgyXSk9Ti9bSF0=

> <s_epik_cmdline>
J2VwaWtfYXBwJywgJy1pbWFlJywgJ2xpZ2FuZF9wcm8ubWFlJywgJy1vbWFlJywgJ2xpZ2FuZF9wcmVwLm1hZScsICctbXMnLCAnMScsICctcGgnLCAnNycsICctcGh0JywgJzAuNScsICctbnQn

> <r_epik_Ionization_Penalty>
  0.0276

> <r_epik_Ionization_Penalty_Charging>
  0.0276

> <r_epik_Ionization_Penalty_Neutral>
  0.0000

> <r_epik_State_Penalty>
  0.0223

> <r_epik_Charging_Adjusted_Penalty>
0.0498711121970375

> <i_epik_Tot_Q>
2

> <i_epik_Tot_abs_Q>
2

> <s_epik_Chemistry_Notes>
This compound has an imine and may undergo hydrolysis.

$$$$
