4pyv_ligand
                    3D
 Schrodinger Suite 2020-3.
 59 61  0  0  1  0            999 V2000
   40.5120  110.1250   10.3850 C   0  0  2  0  0  0
   40.8260  110.3470    8.8760 C   0  0  0  0  0  0
   42.2620  110.0980    8.5530 N   0  3  0  0  0  0
   42.9020  108.8560    9.0710 C   0  0  0  0  0  0
   42.7580  108.9370   10.6060 C   0  0  1  0  0  0
   41.2210  108.8390   10.9020 C   0  0  0  0  0  0
   43.5270  107.8990   11.4280 C   0  0  0  0  0  0
   44.5510  108.1630   12.3180 N   0  0  0  0  0  0
   43.1100  106.7580   11.3100 O   0  0  0  0  0  0
   39.0470  110.1600   10.6160 N   0  0  0  0  0  0
   45.0670  109.5150   12.5940 C   0  0  0  0  0  0
   44.9710  107.0670   13.2010 C   0  0  0  0  0  0
   46.6030  109.7210   12.6260 C   0  0  0  0  0  0
   45.7860  110.2870   11.4620 C   0  0  0  0  0  0
   46.1990  106.1900   12.9370 C   0  0  0  0  0  0
   46.7330  105.9510   11.6620 C   0  0  0  0  0  0
   47.8200  105.0590   11.5330 C   0  0  0  0  0  0
   48.3750  104.3980   12.6450 C   0  0  0  0  0  0
   47.8170  104.6070   13.9140 C   0  0  0  0  0  0
   46.7310  105.4900   14.0480 C   0  0  0  0  0  0
   46.0480  105.7210   15.6460 Cl  0  0  0  0  0  0
   48.4460  103.7580   15.3240 Cl  0  0  0  0  0  0
   38.5540  111.2650   11.2530 C   0  0  0  0  0  0
   39.2720  112.1720   11.6640 O   0  0  0  0  0  0
   37.2100  111.2660   11.3870 O   0  0  0  0  0  0
   36.4720  112.3970   11.9850 C   0  0  0  0  0  0
   36.9550  112.9060   13.3950 C   0  0  0  0  0  0
   36.5590  113.5710   10.9460 C   0  0  0  0  0  0
   34.9640  112.0380   12.1250 C   0  0  0  0  0  0
   40.8711  110.9610   11.0032 H   0  0  0  0  0  0
   40.2167  109.6604    8.2699 H   0  0  0  0  0  0
   40.5905  111.3858    8.6014 H   0  0  0  0  0  0
   42.3885  110.0450    7.4616 H   0  0  0  0  0  0
   42.8756  110.9183    8.9538 H   0  0  0  0  0  0
   42.3818  107.9774    8.6618 H   0  0  0  0  0  0
   43.9582  108.8325    8.7645 H   0  0  0  0  0  0
   43.2381  109.8733   10.9268 H   0  0  0  0  0  0
   41.0610  108.7427   11.9860 H   0  0  0  0  0  0
   40.8037  107.9593   10.3903 H   0  0  0  0  0  0
   38.4170  109.3234   10.2796 H   0  0  0  0  0  0
   44.2164  109.6979   13.2671 H   0  0  0  0  0  0
   45.1849  107.4655   14.2037 H   0  0  0  0  0  0
   44.1659  106.3204   13.2673 H   0  0  0  0  0  0
   46.8795  110.2775   13.5337 H   0  0  0  0  0  0
   47.1043  108.7419   12.6292 H   0  0  0  0  0  0
   45.6142  109.7760   10.5032 H   0  0  0  0  0  0
   45.3894  111.3116   11.4076 H   0  0  0  0  0  0
   46.3156  106.4459   10.7851 H   0  0  0  0  0  0
   48.2413  104.8771   10.5443 H   0  0  0  0  0  0
   49.2285  103.7315   12.5209 H   0  0  0  0  0  0
   38.0210  113.1725   13.3432 H   0  0  0  0  0  0
   36.8118  112.1102   14.1408 H   0  0  0  0  0  0
   36.3695  113.7907   13.6857 H   0  0  0  0  0  0
   37.6107  113.8636   10.8106 H   0  0  0  0  0  0
   35.9836  114.4321   11.3167 H   0  0  0  0  0  0
   36.1436  113.2397    9.9828 H   0  0  0  0  0  0
   34.8483  111.2156   12.8463 H   0  0  0  0  0  0
   34.5690  111.7262   11.1469 H   0  0  0  0  0  0
   34.4090  112.9185   12.4808 H   0  0  0  0  0  0
  1  2  1  0  0  0
  1  6  1  0  0  0
  1 10  1  0  0  0
  1 30  1  0  0  0
  2  3  1  0  0  0
  2 31  1  0  0  0
  2 32  1  0  0  0
  3  4  1  0  0  0
  3 33  1  0  0  0
  3 34  1  0  0  0
  4  5  1  0  0  0
  4 35  1  0  0  0
  4 36  1  0  0  0
  5  6  1  0  0  0
  5  7  1  0  0  0
  5 37  1  0  0  0
  6 38  1  0  0  0
  6 39  1  0  0  0
  7  8  1  0  0  0
  7  9  2  0  0  0
  8 11  1  0  0  0
  8 12  1  0  0  0
 10 23  1  0  0  0
 10 40  1  0  0  0
 11 13  1  0  0  0
 11 14  1  0  0  0
 11 41  1  0  0  0
 12 15  1  0  0  0
 12 42  1  0  0  0
 12 43  1  0  0  0
 13 14  1  0  0  0
 13 44  1  0  0  0
 13 45  1  0  0  0
 14 46  1  0  0  0
 14 47  1  0  0  0
 15 16  2  0  0  0
 15 20  1  0  0  0
 16 17  1  0  0  0
 16 48  1  0  0  0
 17 18  2  0  0  0
 17 49  1  0  0  0
 18 19  1  0  0  0
 18 50  1  0  0  0
 19 20  2  0  0  0
 19 22  1  0  0  0
 20 21  1  0  0  0
 23 24  2  0  0  0
 23 25  1  0  0  0
 25 26  1  0  0  0
 26 27  1  0  0  0
 26 28  1  0  0  0
 26 29  1  0  0  0
 27 51  1  0  0  0
 27 52  1  0  0  0
 27 53  1  0  0  0
 28 54  1  0  0  0
 28 55  1  0  0  0
 28 56  1  0  0  0
 29 57  1  0  0  0
 29 58  1  0  0  0
 29 59  1  0  0  0
M  CHG  1   3   1
M  END
> <s_m_source_file>
../4pyv_ligand.sdf

> <i_m_source_file_index>
1

> <s_epik_input>
W0NIM11DKFtDSDNdKShbQ0gzXSlPQyg9TylbTkhdW0NAQEhdMVtDSDJdW05IMitdW0NIMl1bQ0BASF0oW0NIMl0xKUMoPU8pTihbQ0hdMltDSDJdW0NIMl0yKVtDSDJdYzNbY0hdW2NIXVtjSF1jKENsKWMzQ2w=

> <s_epik_cmdline>
J2VwaWtfYXBwJywgJy1pbWFlJywgJ2xpZ2FuZF9wcm8ubWFlJywgJy1vbWFlJywgJ2xpZ2FuZF9wcmVwLm1hZScsICctbXMnLCAnMScsICctcGgnLCAnNycsICctcGh0JywgJzAuNScsICctbnQn

> <r_lp_tautomer_probability>
1

> <r_epik_Ionization_Penalty>
  0.0011

> <r_epik_Ionization_Penalty_Charging>
  0.0011

> <r_epik_Ionization_Penalty_Neutral>
  0.0000

> <r_epik_State_Penalty>
 -0.0000

> <r_epik_Charging_Adjusted_Penalty>
0.00106401303561231

> <i_epik_Tot_Q>
1

> <i_epik_Tot_abs_Q>
1

> <s_epik_Chemistry_Notes>
This compound has an ester and may undergo hydrolysis at high or low pH.

$$$$
