4pyx_ligand
                    3D
 Schrodinger Suite 2020-3.
 49 50  0  0  1  0            999 V2000
   -2.9120    3.2080   13.2420 F   0  0  0  0  0  0
   -3.8400    3.2860   14.1730 C   0  0  0  0  0  0
   -4.3510    4.5110   14.5500 C   0  0  0  0  0  0
   -3.7230    6.0230   13.8200 S   0  0  0  0  0  0
   -4.2030    5.8180   12.0490 C   0  0  0  0  0  0
   -5.6620    6.2450   11.7140 C   0  0  0  0  0  0
   -6.0260    5.8620   10.3900 O   0  0  0  0  0  0
   -5.3360    4.5630   15.5210 C   0  0  0  0  0  0
   -5.8920    5.7150   15.9040 F   0  0  0  0  0  0
   -4.3110    2.0740   14.7320 C   0  0  0  0  0  0
   -5.2360    2.1660   15.7740 C   0  0  0  0  0  0
   -5.8500    0.7560   16.6650 S   0  0  0  0  0  0
   -7.3390    0.8200   16.5660 O   0  0  0  0  0  0
   -5.1200   -0.6680   16.1100 N   0  0  0  0  0  0
   -5.4270    0.9840   18.0570 O   0  0  0  0  0  0
   -5.7790    3.3940   16.1410 C   0  0  0  0  0  0
   -6.6790    3.4560   17.0930 F   0  0  0  0  0  0
   -3.7440    0.8460   14.3020 N   0  0  0  0  0  0
   -3.6000    0.5360   12.8980 C   0  0  0  0  0  0
   -3.8160   -1.0030   12.8330 C   0  0  0  0  0  0
   -3.0320   -1.7140   11.7250 C   0  0  0  0  0  0
   -2.9750   -1.2090   10.2990 C   0  0  0  0  0  0
   -2.4920    0.2250    9.9540 C   0  0  0  0  0  0
   -3.7620    0.9820    9.6620 C   0  0  0  0  0  0
   -4.2190    1.9300   10.7630 C   0  0  0  0  0  0
   -4.7100    1.2080   12.0310 C   0  0  0  0  0  0
   -3.5412    6.4282   11.4168 H   0  0  0  0  0  0
   -4.1092    4.7598   11.7638 H   0  0  0  0  0  0
   -6.3558    5.7642   12.4193 H   0  0  0  0  0  0
   -5.7527    7.3380   11.7981 H   0  0  0  0  0  0
   -7.0301    6.0955   10.0063 H   0  0  0  0  0  0
   -5.5141   -1.5261   16.6743 H   0  0  0  0  0  0
   -4.0315   -0.6026   16.2549 H   0  0  0  0  0  0
   -3.4111    0.1235   15.0617 H   0  0  0  0  0  0
   -2.6148    0.9093   12.5817 H   0  0  0  0  0  0
   -3.5039   -1.4576   13.7848 H   0  0  0  0  0  0
   -4.8805   -1.2167   12.6562 H   0  0  0  0  0  0
   -1.9680   -1.7598   12.0003 H   0  0  0  0  0  0
   -3.4219   -2.7346   11.5969 H   0  0  0  0  0  0
   -2.2963   -1.8450    9.7117 H   0  0  0  0  0  0
   -3.9821   -1.2420    9.8578 H   0  0  0  0  0  0
   -1.9488    0.6456   10.8131 H   0  0  0  0  0  0
   -1.8240    0.1868    9.0809 H   0  0  0  0  0  0
   -3.6244    1.5942    8.7585 H   0  0  0  0  0  0
   -4.5846    0.2697    9.5005 H   0  0  0  0  0  0
   -3.3821    2.5802   11.0577 H   0  0  0  0  0  0
   -5.0506    2.5478   10.3932 H   0  0  0  0  0  0
   -5.4250    0.4432   11.6936 H   0  0  0  0  0  0
   -5.2375    1.9634   12.6319 H   0  0  0  0  0  0
  1  2  1  0  0  0
  2  3  2  0  0  0
  2 10  1  0  0  0
  3  4  1  0  0  0
  3  8  1  0  0  0
  4  5  1  0  0  0
  5  6  1  0  0  0
  5 27  1  0  0  0
  5 28  1  0  0  0
  6  7  1  0  0  0
  6 29  1  0  0  0
  6 30  1  0  0  0
  7 31  1  0  0  0
  8  9  1  0  0  0
  8 16  2  0  0  0
 10 11  2  0  0  0
 10 18  1  0  0  0
 11 12  1  0  0  0
 11 16  1  0  0  0
 12 13  2  0  0  0
 12 14  1  0  0  0
 12 15  2  0  0  0
 14 32  1  0  0  0
 14 33  1  0  0  0
 16 17  1  0  0  0
 18 19  1  0  0  0
 18 34  1  0  0  0
 19 20  1  0  0  0
 19 26  1  0  0  0
 19 35  1  0  0  0
 20 21  1  0  0  0
 20 36  1  0  0  0
 20 37  1  0  0  0
 21 22  1  0  0  0
 21 38  1  0  0  0
 21 39  1  0  0  0
 22 23  1  0  0  0
 22 40  1  0  0  0
 22 41  1  0  0  0
 23 24  1  0  0  0
 23 42  1  0  0  0
 23 43  1  0  0  0
 24 25  1  0  0  0
 24 44  1  0  0  0
 24 45  1  0  0  0
 25 26  1  0  0  0
 25 46  1  0  0  0
 25 47  1  0  0  0
 26 48  1  0  0  0
 26 49  1  0  0  0
M  END
> <s_m_source_file>
../4pyx_ligand.sdf

> <i_m_source_file_index>
1

> <s_epik_input>
W09IXVtDSDJdW0NIMl1TYyhjMUYpYyhGKWMoRiljKFMoPU8pKD1PKVtOSDJdKWMxW05IXVtDSF0yW0NIMl1bQ0gyXVtDSDJdW0NIMl1bQ0gyXVtDSDJdW0NIMl0y

> <s_epik_cmdline>
J2VwaWtfYXBwJywgJy1pbWFlJywgJ2xpZ2FuZF9wcm8ubWFlJywgJy1vbWFlJywgJ2xpZ2FuZF9wcmVwLm1hZScsICctbXMnLCAnMScsICctcGgnLCAnNycsICctcGh0JywgJzAuNScsICctbnQn

> <r_lp_tautomer_probability>
1

> <r_epik_Ionization_Penalty>
  0.0018

> <r_epik_Ionization_Penalty_Charging>
  0.0000

> <r_epik_Ionization_Penalty_Neutral>
  0.0018

> <r_epik_State_Penalty>
 -0.0000

> <r_epik_Charging_Adjusted_Penalty>
0

> <i_epik_Tot_Q>
0

> <i_epik_Tot_abs_Q>
0

$$$$
