4pyy_ligand
                    3D
 Schrodinger Suite 2020-3.
 51 52  0  0  1  0            999 V2000
   14.4120    4.9170   14.1800 F   0  0  0  0  0  0
   15.7170    5.0040   14.3980 C   0  0  0  0  0  0
   16.3200    4.0990   15.2800 C   0  0  0  0  0  0
   15.4500    2.8880   16.2730 S   0  0  0  0  0  0
   13.9140    3.0420   16.3150 O   0  0  0  0  0  0
   15.8400    1.2860   15.8370 N   0  0  0  0  0  0
   16.0160    3.1260   17.6450 O   0  0  0  0  0  0
   17.6800    4.1950   15.4560 C   0  0  0  0  0  0
   18.3170    3.3030   16.2420 F   0  0  0  0  0  0
   18.4380    5.1390   14.7910 C   0  0  0  0  0  0
   19.7860    5.1750   15.0240 F   0  0  0  0  0  0
   16.4530    5.9640   13.6980 C   0  0  0  0  0  0
   17.8430    6.0330   13.9010 C   0  0  0  0  0  0
   19.0150    7.1760   13.1430 S   0  0  0  0  0  0
   19.5210    8.0660   14.2680 O   0  0  0  0  0  0
   18.2570    8.1130   12.2040 O   0  0  0  0  0  0
   20.3090    6.3270   12.2030 C   0  0  0  0  0  0
   19.6920    5.5690   10.9980 C   0  0  0  0  0  0
   18.3360    5.1870   11.1180 O   0  0  0  0  0  0
   15.7360    6.8180   12.7850 N   0  0  0  0  0  0
   14.6930    7.6650   13.2540 C   0  0  0  0  0  0
   14.9830    8.1240   14.6810 C   0  0  0  0  0  0
   16.2290    9.0130   14.8140 C   0  0  0  0  0  0
   15.9460   10.4770   14.4380 C   0  0  0  0  0  0
   14.5040   10.9740   14.3870 C   0  0  0  0  0  0
   13.9480   11.0360   12.9750 C   0  0  0  0  0  0
   13.3450    9.6790   12.5330 C   0  0  0  0  0  0
   14.5200    8.7660   12.2200 C   0  0  0  0  0  0
   15.2807    0.5859   16.4750 H   0  0  0  0  0  0
   16.9194    1.1220   15.9710 H   0  0  0  0  0  0
   21.0344    7.0646   11.8292 H   0  0  0  0  0  0
   20.8227    5.6056   12.8554 H   0  0  0  0  0  0
   19.7467    6.2017   10.0999 H   0  0  0  0  0  0
   20.2515    4.6378   10.8251 H   0  0  0  0  0  0
   17.8420    4.6468   10.2969 H   0  0  0  0  0  0
   16.0010    6.8114   11.7174 H   0  0  0  0  0  0
   13.7573    7.0899   13.3153 H   0  0  0  0  0  0
   14.1293    8.7051   15.0599 H   0  0  0  0  0  0
   15.1426    7.2455   15.3235 H   0  0  0  0  0  0
   16.5851    8.9919   15.8546 H   0  0  0  0  0  0
   17.0200    8.6377   14.1481 H   0  0  0  0  0  0
   16.4368   11.1432   15.1628 H   0  0  0  0  0  0
   16.3381   10.6792   13.4303 H   0  0  0  0  0  0
   13.8620   10.2970   14.9697 H   0  0  0  0  0  0
   14.4500   11.9870   14.8124 H   0  0  0  0  0  0
   13.1560   11.7978   12.9259 H   0  0  0  0  0  0
   14.7542   11.2997   12.2747 H   0  0  0  0  0  0
   12.7331    9.2666   13.3488 H   0  0  0  0  0  0
   12.7162    9.8296   11.6431 H   0  0  0  0  0  0
   15.4295    9.3838   12.1866 H   0  0  0  0  0  0
   14.3456    8.3164   11.2313 H   0  0  0  0  0  0
  1  2  1  0  0  0
  2  3  2  0  0  0
  2 12  1  0  0  0
  3  4  1  0  0  0
  3  8  1  0  0  0
  4  5  2  0  0  0
  4  6  1  0  0  0
  4  7  2  0  0  0
  6 29  1  0  0  0
  6 30  1  0  0  0
  8  9  1  0  0  0
  8 10  2  0  0  0
 10 11  1  0  0  0
 10 13  1  0  0  0
 12 13  2  0  0  0
 12 20  1  0  0  0
 13 14  1  0  0  0
 14 15  2  0  0  0
 14 16  2  0  0  0
 14 17  1  0  0  0
 17 18  1  0  0  0
 17 31  1  0  0  0
 17 32  1  0  0  0
 18 19  1  0  0  0
 18 33  1  0  0  0
 18 34  1  0  0  0
 19 35  1  0  0  0
 20 21  1  0  0  0
 20 36  1  0  0  0
 21 22  1  0  0  0
 21 28  1  0  0  0
 21 37  1  0  0  0
 22 23  1  0  0  0
 22 38  1  0  0  0
 22 39  1  0  0  0
 23 24  1  0  0  0
 23 40  1  0  0  0
 23 41  1  0  0  0
 24 25  1  0  0  0
 24 42  1  0  0  0
 24 43  1  0  0  0
 25 26  1  0  0  0
 25 44  1  0  0  0
 25 45  1  0  0  0
 26 27  1  0  0  0
 26 46  1  0  0  0
 26 47  1  0  0  0
 27 28  1  0  0  0
 27 48  1  0  0  0
 27 49  1  0  0  0
 28 50  1  0  0  0
 28 51  1  0  0  0
M  END
> <s_m_source_file>
../4pyy_ligand.sdf

> <i_m_source_file_index>
1

> <s_epik_input>
RmMxYyhTKD1PKSg9TylbTkgyXSljKEYpYyhGKWMoUyg9TykoPU8pW0NIMl1bQ0gyXVtPSF0pYzFbTkhdW0NIXTJbQ0gyXVtDSDJdW0NIMl1bQ0gyXVtDSDJdW0NIMl1bQ0gyXTI=

> <s_epik_cmdline>
J2VwaWtfYXBwJywgJy1pbWFlJywgJ2xpZ2FuZF9wcm8ubWFlJywgJy1vbWFlJywgJ2xpZ2FuZF9wcmVwLm1hZScsICctbXMnLCAnMScsICctcGgnLCAnNycsICctcGh0JywgJzAuNScsICctbnQn

> <r_epik_Ionization_Penalty>
  0.0106

> <r_epik_Ionization_Penalty_Charging>
  0.0000

> <r_epik_Ionization_Penalty_Neutral>
  0.0106

> <r_epik_State_Penalty>
  0.0080

> <r_epik_Charging_Adjusted_Penalty>
0.00803150182698137

> <i_epik_Tot_Q>
0

> <i_epik_Tot_abs_Q>
0

$$$$
