4pz5_ligand
                    3D
 Schrodinger Suite 2020-3.
227228  0  0  1  0            999 V2000
  -50.7500   17.6790   64.5050 C   0  0  0  0  0  0
  -51.0370   17.4040   65.6820 O   0  0  0  0  0  0
  -50.6230   19.0980   64.0230 C   0  0  0  0  0  0
  -50.1750   16.7850   63.7120 N   0  0  0  0  0  0
  -50.2720   15.3780   64.0410 C   0  0  2  0  0  0
  -49.0900   14.5830   63.4890 C   0  0  0  0  0  0
  -48.5310   14.9220   62.4450 O   0  0  0  0  0  0
  -51.5900   14.8080   63.5100 C   0  0  0  0  0  0
  -51.7970   13.4810   63.9660 O   0  0  0  0  0  0
  -48.6940   13.5470   64.2240 N   0  0  0  0  0  0
  -47.7980   12.5200   63.7020 C   0  0  2  0  0  0
  -48.6570   11.3020   63.3770 C   0  0  0  0  0  0
  -49.0290   10.5400   64.2710 O   0  0  0  0  0  0
  -46.6800   12.1430   64.7100 C   0  0  2  0  0  0
  -45.8010   13.3560   65.0370 C   0  0  0  0  0  0
  -45.8270   11.0010   64.1630 C   0  0  0  0  0  0
  -44.9490   13.8360   63.8810 C   0  0  0  0  0  0
  -49.0130   11.1420   62.1070 N   0  0  0  0  0  0
  -49.9220   10.0740   61.7010 C   0  0  2  0  0  0
  -49.1690    8.7870   61.3570 C   0  0  0  0  0  0
  -49.7030    7.6930   61.5090 O   0  0  0  0  0  0
  -50.7700   10.5330   60.5070 C   0  0  0  0  0  0
  -51.3990   11.7800   60.7820 O   0  0  0  0  0  0
  -47.9330    8.9270   60.8830 N   0  0  0  0  0  0
  -47.0630    7.7910   60.5710 C   0  0  2  0  0  0
  -45.6590    8.1050   61.0610 C   0  0  0  0  0  0
  -45.2820    9.2750   61.1570 O   0  0  0  0  0  0
  -47.0270    7.5010   59.0560 C   0  0  0  0  0  0
  -48.3940    7.3490   58.4270 C   0  0  0  0  0  0
  -49.0060    6.0990   58.3450 C   0  0  0  0  0  0
  -49.0820    8.4560   57.9300 C   0  0  0  0  0  0
  -50.2640    5.9520   57.7800 C   0  0  0  0  0  0
  -50.3390    8.3180   57.3610 C   0  0  0  0  0  0
  -50.9230    7.0610   57.2890 C   0  0  0  0  0  0
  -52.1750    6.9170   56.7320 O   0  0  0  0  0  0
  -44.8740    7.0720   61.3530 N   0  0  0  0  0  0
  -43.5340    7.2860   61.8860 C   0  0  2  0  0  0
  -42.4290    7.0490   60.8490 C   0  0  0  0  0  0
  -41.2510    6.9550   61.2060 O   0  0  0  0  0  0
  -43.2710    6.3870   63.1280 C   0  0  2  0  0  0
  -43.6950    5.0470   62.8520 O   0  0  0  0  0  0
  -44.0440    6.9070   64.3400 C   0  0  0  0  0  0
  -42.7970    6.9480   59.5750 N   0  0  0  0  0  0
  -41.7820    6.8460   58.5370 C   0  0  2  0  0  0
  -42.2370    7.4820   57.2400 C   0  0  0  0  0  0
  -43.4050    7.8290   57.0770 O   0  0  0  0  0  0
  -41.3760    5.3820   58.2890 C   0  0  0  0  0  0
  -42.5610    4.4670   57.9860 C   0  0  0  0  0  0
  -43.5310    4.8990   57.3360 O   0  0  0  0  0  0
  -42.5070    3.2910   58.3970 O   0  0  0  0  0  0
  -41.3030    7.6480   56.3150 N   0  0  0  0  0  0
  -41.6680    8.0830   54.9870 C   0  0  2  0  0  0
  -40.6690    7.5110   54.0030 C   0  0  0  0  0  0
  -39.5770    7.0780   54.3830 O   0  0  0  0  0  0
  -41.7450    9.6150   54.8860 C   0  0  0  0  0  0
  -40.5150   10.3670   55.3540 C   0  0  0  0  0  0
  -40.6830   11.8880   55.2880 C   0  0  0  0  0  0
  -41.7700   12.3690   54.8900 O   0  0  0  0  0  0
  -39.7160   12.6070   55.6280 O   0  0  0  0  0  0
  -41.1030    7.4680   52.7500 N   0  0  0  0  0  0
  -40.2870    6.9750   51.6490 C   0  0  2  0  0  0
  -40.1150    8.0870   50.6270 C   0  0  0  0  0  0
  -41.0600    8.8100   50.3220 O   0  0  0  0  0  0
  -40.9190    5.7350   50.9660 C   0  0  2  0  0  0
  -40.7700    4.4960   51.8470 C   0  0  0  0  0  0
  -40.2900    5.4730   49.6050 C   0  0  0  0  0  0
  -41.8250    4.3760   52.9130 C   0  0  0  0  0  0
  -38.8990    8.2370   50.1180 N   0  0  0  0  0  0
  -38.6480    9.1960   49.0470 C   0  0  2  0  0  0
  -37.8920    8.5070   47.9250 C   0  0  0  0  0  0
  -37.0840    7.6140   48.1720 O   0  0  0  0  0  0
  -37.8560   10.3920   49.5610 C   0  0  0  0  0  0
  -38.5650   11.1600   50.6650 C   0  0  0  0  0  0
  -37.7330   12.3120   51.1950 C   0  0  0  0  0  0
  -36.6200   12.5360   50.6600 O   0  0  0  0  0  0
  -38.1960   12.9880   52.1440 O   0  0  0  0  0  0
  -38.1540    8.9140   46.6890 N   0  0  0  0  0  0
  -37.3290    8.4610   45.5800 C   0  0  2  0  0  0
  -37.2610    9.5530   44.5280 C   0  0  0  0  0  0
  -37.9230   10.5860   44.6700 O   0  0  0  0  0  0
  -37.8670    7.1520   44.9930 C   0  0  0  0  0  0
  -39.3280    7.1910   44.5750 C   0  0  0  0  0  0
  -39.8730    5.8050   44.2610 C   0  0  0  0  0  0
  -39.2370    4.8040   44.6600 O   0  0  0  0  0  0
  -40.9380    5.7140   43.6180 O   0  0  0  0  0  0
  -36.4550    9.3330   43.4900 N   0  0  0  0  0  0
  -36.2550   10.3430   42.4470 C   0  0  2  0  0  0
  -37.5830   10.7400   41.8060 C   0  0  0  0  0  0
  -38.4300    9.8730   41.5690 O   0  0  0  0  0  0
  -35.2860    9.8260   41.3720 C   0  0  0  0  0  0
  -33.8210    9.8180   41.8040 C   0  0  0  0  0  0
  -32.9210    9.0680   40.8390 C   0  0  0  0  0  0
  -33.3230    8.8760   39.6690 O   0  0  0  0  0  0
  -31.8090    8.6690   41.2560 O   0  0  0  0  0  0
  -37.7630   12.0440   41.5530 N   0  0  0  0  0  0
  -38.9440   12.5520   40.8430 C   0  0  2  0  0  0
  -38.9630   12.0080   39.4270 C   0  0  0  0  0  0
  -37.9020   11.7850   38.8430 O   0  0  0  0  0  0
  -38.9550   14.0820   40.7800 C   0  0  0  0  0  0
  -39.0690   14.7280   42.1380 C   0  0  0  0  0  0
  -39.5580   14.0680   43.0820 O   0  0  0  0  0  0
  -38.6810   15.9130   42.2460 O   0  0  0  0  0  0
  -40.1550   11.8310   38.8630 N   0  0  0  0  0  0
  -40.2820   11.3070   37.5010 C   0  0  2  0  0  0
  -39.5740   12.2320   36.5120 C   0  0  0  0  0  0
  -39.1270   11.8080   35.4430 O   0  0  0  0  0  0
  -41.7540   11.1350   37.1210 C   0  0  0  0  0  0
  -42.4270   12.3880   36.5860 C   0  0  0  0  0  0
  -42.9940   13.3260   37.4490 C   0  0  0  0  0  0
  -42.5090   12.6220   35.2140 C   0  0  0  0  0  0
  -43.6140   14.4780   36.9490 C   0  0  0  0  0  0
  -43.1180   13.7630   34.7070 C   0  0  0  0  0  0
  -43.6730   14.6850   35.5790 C   0  0  0  0  0  0
  -44.2880   15.8090   35.0650 O   0  0  0  0  0  0
  -39.4620   13.5030   36.8840 N   0  0  0  0  0  0
  -38.7830   14.4730   36.0360 C   0  0  2  0  0  0
  -37.5100   14.9740   36.7210 C   0  0  0  0  0  0
  -36.9630   16.0050   36.3260 O   0  0  0  0  0  0
  -39.7200   15.6420   35.6930 C   0  0  0  0  0  0
  -40.2350   16.3740   36.9380 C   0  0  0  0  0  0
  -40.0060   15.8870   38.0690 O   0  0  0  0  0  0
  -40.8800   17.4350   36.7870 O   0  0  0  0  0  0
  -37.0211   14.3324   37.6889 O   0  0  0  0  0  0
  -51.1236   19.7726   64.7331 H   0  0  0  0  0  0
  -51.0937   19.1926   63.0333 H   0  0  0  0  0  0
  -49.5588   19.3666   63.9501 H   0  0  0  0  0  0
  -49.6284   17.1030   62.8119 H   0  0  0  0  0  0
  -50.2416   15.3453   65.1401 H   0  0  0  0  0  0
  -52.4261   15.4325   63.8578 H   0  0  0  0  0  0
  -51.5700   14.8015   62.4102 H   0  0  0  0  0  0
  -52.7031   12.9325   63.6692 H   0  0  0  0  0  0
  -49.0650   13.4797   65.2574 H   0  0  0  0  0  0
  -47.3235   12.9431   62.8043 H   0  0  0  0  0  0
  -47.1477   11.8018   65.6453 H   0  0  0  0  0  0
  -46.4385   14.1998   65.3397 H   0  0  0  0  0  0
  -45.1154   13.1012   65.8586 H   0  0  0  0  0  0
  -46.4713   10.1395   63.9336 H   0  0  0  0  0  0
  -45.0789   10.7095   64.9149 H   0  0  0  0  0  0
  -45.3163   11.3313   63.2464 H   0  0  0  0  0  0
  -44.3534   14.7040   64.2001 H   0  0  0  0  0  0
  -45.5989   14.1257   63.0421 H   0  0  0  0  0  0
  -44.2758   13.0270   63.5610 H   0  0  0  0  0  0
  -48.6078   11.8350   61.3549 H   0  0  0  0  0  0
  -50.5549    9.8874   62.5811 H   0  0  0  0  0  0
  -50.1260   10.6486   59.6228 H   0  0  0  0  0  0
  -51.5470    9.7827   60.2991 H   0  0  0  0  0  0
  -52.0450   12.2489   60.0251 H   0  0  0  0  0  0
  -47.5727    9.9546   60.7275 H   0  0  0  0  0  0
  -47.4878    6.9266   61.1023 H   0  0  0  0  0  0
  -46.5203    8.3276   58.5364 H   0  0  0  0  0  0
  -46.4800    6.5640   58.8749 H   0  0  0  0  0  0
  -48.4868    5.2221   58.7316 H   0  0  0  0  0  0
  -48.6249    9.4437   57.9898 H   0  0  0  0  0  0
  -50.7290    4.9677   57.7241 H   0  0  0  0  0  0
  -50.8647    9.1905   56.9730 H   0  0  0  0  0  0
  -52.6399    5.9218   56.6738 H   0  0  0  0  0  0
  -45.2438    6.0491   61.1891 H   0  0  0  0  0  0
  -43.5562    8.3547   62.1457 H   0  0  0  0  0  0
  -42.1959    6.3288   63.3533 H   0  0  0  0  0  0
  -43.2534    4.4927   62.0107 H   0  0  0  0  0  0
  -43.7273    7.9366   64.5627 H   0  0  0  0  0  0
  -43.8391    6.2643   65.2089 H   0  0  0  0  0  0
  -45.1218    6.8943   64.1205 H   0  0  0  0  0  0
  -43.8631    6.9413   59.3043 H   0  0  0  0  0  0
  -40.9365    7.4229   58.9399 H   0  0  0  0  0  0
  -40.6917    5.3319   57.4293 H   0  0  0  0  0  0
  -40.8720    4.9849   59.1824 H   0  0  0  0  0  0
  -43.3402    2.6005   58.1994 H   0  0  0  0  0  0
  -40.2483    7.4540   56.5597 H   0  0  0  0  0  0
  -42.6713    7.6737   54.7976 H   0  0  0  0  0  0
  -41.9036    9.9058   53.8371 H   0  0  0  0  0  0
  -42.5820    9.9813   55.4986 H   0  0  0  0  0  0
  -40.2972   10.0998   56.3986 H   0  0  0  0  0  0
  -39.6573   10.0976   54.7202 H   0  0  0  0  0  0
  -41.9026   13.4597   54.8382 H   0  0  0  0  0  0
  -42.1258    7.8252   52.5595 H   0  0  0  0  0  0
  -39.3244    6.6997   52.1046 H   0  0  0  0  0  0
  -41.9899    5.9332   50.8118 H   0  0  0  0  0  0
  -40.8335    3.5925   51.2228 H   0  0  0  0  0  0
  -39.7949    4.5227   52.3554 H   0  0  0  0  0  0
  -40.3987    6.3666   48.9727 H   0  0  0  0  0  0
  -40.7946    4.6211   49.1258 H   0  0  0  0  0  0
  -39.2222    5.2420   49.7330 H   0  0  0  0  0  0
  -41.6494    3.4634   53.5015 H   0  0  0  0  0  0
  -42.8177    4.3233   52.4421 H   0  0  0  0  0  0
  -41.7791    5.2535   53.5747 H   0  0  0  0  0  0
  -38.0741    7.6265   50.5141 H   0  0  0  0  0  0
  -39.6323    9.5390   48.6956 H   0  0  0  0  0  0
  -36.8930   10.0474   49.9659 H   0  0  0  0  0  0
  -37.6757   11.0950   48.7344 H   0  0  0  0  0  0
  -39.5080   11.5727   50.2772 H   0  0  0  0  0  0
  -38.7792   10.4818   51.5042 H   0  0  0  0  0  0
  -35.9927   13.3642   51.0215 H   0  0  0  0  0  0
  -38.9975    9.5956   46.5045 H   0  0  0  0  0  0
  -36.3251    8.2781   45.9908 H   0  0  0  0  0  0
  -37.2885    6.8875   44.0956 H   0  0  0  0  0  0
  -37.7731    6.3495   45.7394 H   0  0  0  0  0  0
  -39.9311    7.6189   45.3894 H   0  0  0  0  0  0
  -39.4351    7.8126   43.6738 H   0  0  0  0  0  0
  -39.6119    3.7925   44.4447 H   0  0  0  0  0  0
  -35.9337    8.3664   43.4268 H   0  0  0  0  0  0
  -35.8247   11.2128   42.9650 H   0  0  0  0  0  0
  -35.5506    8.7918   41.1067 H   0  0  0  0  0  0
  -35.3561   10.4632   40.4781 H   0  0  0  0  0  0
  -33.4522   10.8523   41.8688 H   0  0  0  0  0  0
  -33.7315    9.3345   42.7880 H   0  0  0  0  0  0
  -31.1328    8.1223   40.5822 H   0  0  0  0  0  0
  -36.9862   12.7422   41.8981 H   0  0  0  0  0  0
  -39.8085   12.1930   41.4206 H   0  0  0  0  0  0
  -38.0213   14.4367   40.3191 H   0  0  0  0  0  0
  -39.8119   14.4180   40.1777 H   0  0  0  0  0  0
  -38.7445   16.4262   43.2169 H   0  0  0  0  0  0
  -41.0558   12.0866   39.4402 H   0  0  0  0  0  0
  -39.7910   10.3227   37.5064 H   0  0  0  0  0  0
  -41.8431   10.3689   36.3367 H   0  0  0  0  0  0
  -42.3270   10.8218   38.0062 H   0  0  0  0  0  0
  -42.9540   13.1603   38.5256 H   0  0  0  0  0  0
  -42.0855   11.8929   34.5233 H   0  0  0  0  0  0
  -44.0477   15.2077   37.6328 H   0  0  0  0  0  0
  -43.1588   13.9315   33.6309 H   0  0  0  0  0  0
  -44.7338   16.5510   35.7438 H   0  0  0  0  0  0
  -39.8905   13.8187   37.8467 H   0  0  0  0  0  0
  -38.5178   13.9317   35.1158 H   0  0  0  0  0  0
  -39.1820   16.3729   35.0714 H   0  0  0  0  0  0
  -40.5924   15.2628   35.1407 H   0  0  0  0  0  0
  -40.3685   16.3996   38.9722 H   0  0  0  0  0  0
  -36.1058   14.6927   38.1814 H   0  0  0  0  0  0
  1  2  2  0  0  0
  1  3  1  0  0  0
  1  4  1  0  0  0
  3124  1  0  0  0
  3125  1  0  0  0
  3126  1  0  0  0
  4  5  1  0  0  0
  4127  1  0  0  0
  5  6  1  0  0  0
  5  8  1  0  0  0
  5128  1  0  0  0
  6  7  2  0  0  0
  6 10  1  0  0  0
  8  9  1  0  0  0
  8129  1  0  0  0
  8130  1  0  0  0
  9131  1  0  0  0
 10 11  1  0  0  0
 10132  1  0  0  0
 11 12  1  0  0  0
 11 14  1  0  0  0
 11133  1  0  0  0
 12 13  2  0  0  0
 12 18  1  0  0  0
 14 15  1  0  0  0
 14 16  1  0  0  0
 14134  1  0  0  0
 15 17  1  0  0  0
 15135  1  0  0  0
 15136  1  0  0  0
 16137  1  0  0  0
 16138  1  0  0  0
 16139  1  0  0  0
 17140  1  0  0  0
 17141  1  0  0  0
 17142  1  0  0  0
 18 19  1  0  0  0
 18143  1  0  0  0
 19 20  1  0  0  0
 19 22  1  0  0  0
 19144  1  0  0  0
 20 21  2  0  0  0
 20 24  1  0  0  0
 22 23  1  0  0  0
 22145  1  0  0  0
 22146  1  0  0  0
 23147  1  0  0  0
 24 25  1  0  0  0
 24148  1  0  0  0
 25 26  1  0  0  0
 25 28  1  0  0  0
 25149  1  0  0  0
 26 27  2  0  0  0
 26 36  1  0  0  0
 28 29  1  0  0  0
 28150  1  0  0  0
 28151  1  0  0  0
 29 30  2  0  0  0
 29 31  1  0  0  0
 30 32  1  0  0  0
 30152  1  0  0  0
 31 33  2  0  0  0
 31153  1  0  0  0
 32 34  2  0  0  0
 32154  1  0  0  0
 33 34  1  0  0  0
 33155  1  0  0  0
 34 35  1  0  0  0
 35156  1  0  0  0
 36 37  1  0  0  0
 36157  1  0  0  0
 37 38  1  0  0  0
 37 40  1  0  0  0
 37158  1  0  0  0
 38 39  2  0  0  0
 38 43  1  0  0  0
 40 41  1  0  0  0
 40 42  1  0  0  0
 40159  1  0  0  0
 41160  1  0  0  0
 42161  1  0  0  0
 42162  1  0  0  0
 42163  1  0  0  0
 43 44  1  0  0  0
 43164  1  0  0  0
 44 45  1  0  0  0
 44 47  1  0  0  0
 44165  1  0  0  0
 45 46  2  0  0  0
 45 51  1  0  0  0
 47 48  1  0  0  0
 47166  1  0  0  0
 47167  1  0  0  0
 48 49  2  0  0  0
 48 50  1  0  0  0
 50168  1  0  0  0
 51 52  1  0  0  0
 51169  1  0  0  0
 52 53  1  0  0  0
 52 55  1  0  0  0
 52170  1  0  0  0
 53 54  2  0  0  0
 53 60  1  0  0  0
 55 56  1  0  0  0
 55171  1  0  0  0
 55172  1  0  0  0
 56 57  1  0  0  0
 56173  1  0  0  0
 56174  1  0  0  0
 57 58  1  0  0  0
 57 59  2  0  0  0
 58175  1  0  0  0
 60 61  1  0  0  0
 60176  1  0  0  0
 61 62  1  0  0  0
 61 64  1  0  0  0
 61177  1  0  0  0
 62 63  2  0  0  0
 62 68  1  0  0  0
 64 65  1  0  0  0
 64 66  1  0  0  0
 64178  1  0  0  0
 65 67  1  0  0  0
 65179  1  0  0  0
 65180  1  0  0  0
 66181  1  0  0  0
 66182  1  0  0  0
 66183  1  0  0  0
 67184  1  0  0  0
 67185  1  0  0  0
 67186  1  0  0  0
 68 69  1  0  0  0
 68187  1  0  0  0
 69 70  1  0  0  0
 69 72  1  0  0  0
 69188  1  0  0  0
 70 71  2  0  0  0
 70 77  1  0  0  0
 72 73  1  0  0  0
 72189  1  0  0  0
 72190  1  0  0  0
 73 74  1  0  0  0
 73191  1  0  0  0
 73192  1  0  0  0
 74 75  1  0  0  0
 74 76  2  0  0  0
 75193  1  0  0  0
 77 78  1  0  0  0
 77194  1  0  0  0
 78 79  1  0  0  0
 78 81  1  0  0  0
 78195  1  0  0  0
 79 80  2  0  0  0
 79 86  1  0  0  0
 81 82  1  0  0  0
 81196  1  0  0  0
 81197  1  0  0  0
 82 83  1  0  0  0
 82198  1  0  0  0
 82199  1  0  0  0
 83 84  1  0  0  0
 83 85  2  0  0  0
 84200  1  0  0  0
 86 87  1  0  0  0
 86201  1  0  0  0
 87 88  1  0  0  0
 87 90  1  0  0  0
 87202  1  0  0  0
 88 89  2  0  0  0
 88 95  1  0  0  0
 90 91  1  0  0  0
 90203  1  0  0  0
 90204  1  0  0  0
 91 92  1  0  0  0
 91205  1  0  0  0
 91206  1  0  0  0
 92 93  2  0  0  0
 92 94  1  0  0  0
 94207  1  0  0  0
 95 96  1  0  0  0
 95208  1  0  0  0
 96 97  1  0  0  0
 96 99  1  0  0  0
 96209  1  0  0  0
 97 98  2  0  0  0
 97103  1  0  0  0
 99100  1  0  0  0
 99210  1  0  0  0
 99211  1  0  0  0
100101  2  0  0  0
100102  1  0  0  0
102212  1  0  0  0
103104  1  0  0  0
103213  1  0  0  0
104105  1  0  0  0
104107  1  0  0  0
104214  1  0  0  0
105106  2  0  0  0
105115  1  0  0  0
107108  1  0  0  0
107215  1  0  0  0
107216  1  0  0  0
108109  2  0  0  0
108110  1  0  0  0
109111  1  0  0  0
109217  1  0  0  0
110112  2  0  0  0
110218  1  0  0  0
111113  2  0  0  0
111219  1  0  0  0
112113  1  0  0  0
112220  1  0  0  0
113114  1  0  0  0
114221  1  0  0  0
115116  1  0  0  0
115222  1  0  0  0
116117  1  0  0  0
116119  1  0  0  0
116223  1  0  0  0
117118  2  0  0  0
117123  1  0  0  0
119120  1  0  0  0
119224  1  0  0  0
119225  1  0  0  0
120121  1  0  0  0
120122  2  0  0  0
121226  1  0  0  0
123227  1  0  0  0
M  END
> <s_m_source_file>
../4pz5_ligand.sdf

> <i_m_source_file_index>
1

> <s_epik_input>
Tz1DKFtDSDNdKVtOSF1bQ0BASF0oW0NIMl1bT0hdKUMoPU8pW05IXVtDQEBIXShbQ0BASF0oW0NIM10pW0NIMl1bQ0gzXSlDKD1PKVtOSF1bQ0BASF0oW0NIMl1bT0hdKUMoPU8pW05IXVtDQEBIXShbQ0gyXWMxW2NIXVtjSF1jKFtPSF0pW2NIXVtjSF0xKUMoPU8pW05IXVtDQEBIXShbQ0BIXShbT0hdKVtDSDNdKUMoPU8pW05IXVtDQEBIXShbQ0gyXUMoPU8pW09IXSlDKD1PKVtOSF1bQ0BASF0oW0NIMl1bQ0gyXUMoPU8pW09IXSlDKD1PKVtOSF1bQ0BASF0oW0NAQEhdKFtDSDNdKVtDSDJdW0NIM10pQyg9TylbTkhdW0NAQEhdKFtDSDJdW0NIMl1DKD1PKVtPSF0pQyg9TylbTkhdW0NAQEhdKFtDSDJdW0NIMl1DKD1PKVtPSF0pQyg9TylbTkhdW0NAQEhdKFtDSDJdW0NIMl1DKD1PKVtPSF0pQyg9TylbTkhdW0NAQEhdKFtDSDJdQyg9TylbT0hdKUMoPU8pW05IXVtDQEhdKEMoPU8pW05IXVtDQEhdKEMoPU8pW09IXSlbQ0gyXUMoPU8pW09IXSlbQ0gyXWMyW2NIXVtjSF1jKFtPSF0pW2NIXVtjSF0y

> <s_epik_cmdline>
J2VwaWtfYXBwJywgJy1pbWFlJywgJ2xpZ2FuZF9wcm8ubWFlJywgJy1vbWFlJywgJ2xpZ2FuZF9wcmVwLm1hZScsICctbXMnLCAnMScsICctcGgnLCAnNycsICctcGh0JywgJzAuNScsICctbnQn

> <s_epik_pKa_notes>
Molecule size exceeds maximum supported for generating protonation states

$$$$
