4pz8_ligand
                    3D
 Schrodinger Suite 2020-3.
 62 63  0  0  1  0            999 V2000
   66.3030   11.9320   29.3710 N   0  3  0  0  0  0
   67.3680   12.7870   28.8590 C   0  0  2  0  0  0
   66.8020   13.9250   28.0140 C   0  0  0  0  0  0
   66.9360   13.9280   26.7890 O   0  0  0  0  0  0
   68.3640   11.9670   28.0540 C   0  0  0  0  0  0
   66.1740   14.8920   28.6770 N   0  0  0  0  0  0
   65.5650   16.0260   27.9870 C   0  0  2  0  0  0
   65.6620   17.3370   28.7710 C   0  0  0  0  0  0
   66.1640   17.3680   29.8960 O   0  0  0  0  0  0
   64.1090   15.7160   27.6150 C   0  0  0  0  0  0
   63.3020   15.0850   28.7160 C   0  0  0  0  0  0
   63.4830   15.2340   30.0610 C   0  0  0  0  0  0
   62.1890   14.1960   28.5580 C   0  0  0  0  0  0
   62.5490   14.4970   30.7490 N   0  3  0  0  0  0
   61.7440   13.8500   29.8490 C   0  0  0  0  0  0
   61.5250   13.6610   27.4500 C   0  0  0  0  0  0
   60.6650   12.9940   30.0620 C   0  0  0  0  0  0
   60.4550   12.8110   27.6640 C   0  0  0  0  0  0
   60.0370   12.4850   28.9590 C   0  0  0  0  0  0
   65.1760   18.4140   28.1600 N   0  0  0  0  0  0
   65.2500   19.7550   28.7360 C   0  0  2  0  0  0
   64.3960   19.9290   29.9910 C   0  0  0  0  0  0
   63.5190   19.1120   30.2720 O   0  0  0  0  0  0
   64.8380   20.7920   27.6890 C   0  0  0  0  0  0
   65.3860   20.4770   26.3090 C   0  0  0  0  0  0
   65.8600   19.3690   26.0550 O   0  0  0  0  0  0
   65.3150   21.4490   25.4070 N   0  0  0  0  0  0
   64.6660   21.0000   30.7370 N   0  0  0  0  0  0
   63.9170   21.3410   31.9500 C   0  0  2  0  0  0
   63.9310   20.2390   33.0100 C   0  0  0  0  0  0
   63.1910   20.3050   33.9920 O   0  0  0  0  0  0
   62.4750   21.7370   31.6090 C   0  0  0  0  0  0
   61.7440   22.0720   32.7770 O   0  0  0  0  0  0
   64.7065   19.2548   32.8775 O   0  5  0  0  0  0
   65.5918   12.5392   29.9502 H   0  0  0  0  0  0
   66.7357   11.1559   30.0195 H   0  0  0  0  0  0
   65.7784   11.4560   28.5294 H   0  0  0  0  0  0
   67.8636   13.2061   29.7471 H   0  0  0  0  0  0
   68.7597   11.1534   28.6797 H   0  0  0  0  0  0
   69.1916   12.6135   27.7267 H   0  0  0  0  0  0
   67.8612   11.5409   27.1733 H   0  0  0  0  0  0
   66.1201   14.8219   29.7734 H   0  0  0  0  0  0
   66.1808   16.1352   27.0821 H   0  0  0  0  0  0
   63.5951   16.6481   27.3372 H   0  0  0  0  0  0
   64.0883   15.0185   26.7647 H   0  0  0  0  0  0
   64.2919   15.8763   30.4393 H   0  0  0  0  0  0
   61.8442   13.9088   26.4377 H   0  0  0  0  0  0
   60.3344   12.7400   31.0691 H   0  0  0  0  0  0
   59.9281   12.3877   26.8088 H   0  0  0  0  0  0
   59.1915   11.8099   29.0916 H   0  0  0  0  0  0
   64.7023   18.2622   27.1789 H   0  0  0  0  0  0
   66.3061   19.8575   29.0260 H   0  0  0  0  0  0
   63.7408   20.8248   27.6174 H   0  0  0  0  0  0
   65.2159   21.7818   27.9847 H   0  0  0  0  0  0
   64.8829   22.4229   25.6807 H   0  0  0  0  0  0
   65.6883   21.2803   24.3861 H   0  0  0  0  0  0
   65.4952   21.6415   30.4040 H   0  0  0  0  0  0
   64.4735   22.1991   32.3549 H   0  0  0  0  0  0
   62.4830   22.6090   30.9386 H   0  0  0  0  0  0
   61.9719   20.8956   31.1101 H   0  0  0  0  0  0
   60.6905   22.3783   32.6975 H   0  0  0  0  0  0
   62.5454   14.5028   31.8490 H   0  0  0  0  0  0
  1  2  1  0  0  0
  1 35  1  0  0  0
  1 36  1  0  0  0
  1 37  1  0  0  0
  2  3  1  0  0  0
  2  5  1  0  0  0
  2 38  1  0  0  0
  3  4  2  0  0  0
  3  6  1  0  0  0
  5 39  1  0  0  0
  5 40  1  0  0  0
  5 41  1  0  0  0
  6  7  1  0  0  0
  6 42  1  0  0  0
  7  8  1  0  0  0
  7 10  1  0  0  0
  7 43  1  0  0  0
  8  9  2  0  0  0
  8 20  1  0  0  0
 10 11  1  0  0  0
 10 44  1  0  0  0
 10 45  1  0  0  0
 11 12  2  0  0  0
 11 13  1  0  0  0
 12 14  1  0  0  0
 12 46  1  0  0  0
 13 15  2  0  0  0
 13 16  1  0  0  0
 14 15  1  0  0  0
 14 62  1  0  0  0
 15 17  1  0  0  0
 16 18  2  0  0  0
 16 47  1  0  0  0
 17 19  2  0  0  0
 17 48  1  0  0  0
 18 19  1  0  0  0
 18 49  1  0  0  0
 19 50  1  0  0  0
 20 21  1  0  0  0
 20 51  1  0  0  0
 21 22  1  0  0  0
 21 24  1  0  0  0
 21 52  1  0  0  0
 22 23  2  0  0  0
 22 28  1  0  0  0
 24 25  1  0  0  0
 24 53  1  0  0  0
 24 54  1  0  0  0
 25 26  2  0  0  0
 25 27  1  0  0  0
 27 55  1  0  0  0
 27 56  1  0  0  0
 28 29  1  0  0  0
 28 57  1  0  0  0
 29 30  1  0  0  0
 29 32  1  0  0  0
 29 58  1  0  0  0
 30 31  2  0  0  0
 30 34  1  0  0  0
 32 33  1  0  0  0
 32 59  1  0  0  0
 32 60  1  0  0  0
 33 61  1  0  0  0
M  CHG  3   1   1  14   1  34  -1
M  END
> <s_m_source_file>
../4pz8_ligand.sdf

> <i_m_source_file_index>
1

> <s_epik_input>
Tz1DKFtPSF0pW0NASF0oW0NIMl1bT0hdKVtOSF1DKD1PKVtDQEhdKFtDSDJdQyg9TylbTkgyXSlbTkhdQyg9TylbQ0BASF0oW05IXUMoPU8pW0NAQEhdKFtOSDMrXSlbQ0gzXSlbQ0gyXWMxW2NIXVtuSF1jKGMxMilbY0hdW2NIXVtjSF1bY0hdMg==

> <s_epik_cmdline>
J2VwaWtfYXBwJywgJy1pbWFlJywgJ2xpZ2FuZF9wcm8ubWFlJywgJy1vbWFlJywgJ2xpZ2FuZF9wcmVwLm1hZScsICctbXMnLCAnMScsICctcGgnLCAnNycsICctcGh0JywgJzAuNScsICctbnQn

> <r_epik_Ionization_Penalty>
  0.1299

> <r_epik_Ionization_Penalty_Charging>
  0.1299

> <r_epik_Ionization_Penalty_Neutral>
  0.0000

> <r_epik_State_Penalty>
  0.1193

> <r_epik_Charging_Adjusted_Penalty>
0.249214243099946

> <i_epik_Tot_Q>
1

> <i_epik_Tot_abs_Q>
3

$$$$
