4pzv_ligand
                    3D
 Schrodinger Suite 2020-3.
 74 78  0  0  1  0            999 V2000
   -2.0630   31.4950  -12.9920 C   0  0  1  0  0  0
   -1.9750   30.3420  -13.8190 O   0  0  0  0  0  0
   -3.4460   31.4120  -12.3230 C   0  0  1  0  0  0
   -3.9050   32.7060  -12.1450 O   0  0  0  0  0  0
   -4.3070   30.6720  -13.3730 C   0  0  1  0  0  0
   -5.0010   31.5970  -14.1330 O   0  0  0  0  0  0
   -3.2540   30.0540  -14.3330 C   0  0  2  0  0  0
   -3.4090   28.6030  -14.4060 N   0  0  0  0  0  0
   -3.5610   27.8140  -15.5610 C   0  0  0  0  0  0
   -3.6690   26.5240  -15.3000 N   0  0  0  0  0  0
   -3.6100   26.4450  -13.9150 C   0  0  0  0  0  0
   -3.6700   25.3740  -13.0430 C   0  0  0  0  0  0
   -3.8370   24.1090  -13.5070 N   0  0  0  0  0  0
   -3.5530   25.6040  -11.6920 N   0  0  0  0  0  0
   -3.4090   26.8800  -11.2830 C   0  0  0  0  0  0
   -3.3330   28.0090  -11.9970 N   0  0  0  0  0  0
   -3.4370   27.7380  -13.3320 C   0  0  0  0  0  0
   -0.9660   31.4990  -11.9610 C   0  0  0  0  0  0
    0.6050   31.6870  -12.6900 S   0  0  0  0  0  0
    1.6320   32.0470  -11.6660 C   0  0  0  0  0  0
    2.3120   29.9840  -10.8350 N   0  0  0  0  0  0
    1.7080   31.2780  -10.4670 C   0  0  0  0  0  0
    3.4500   29.4730  -10.2390 C   0  0  0  0  0  0
    3.8050   28.1220  -10.8290 C   0  0  0  0  0  0
    5.0640   27.6000  -10.3430 N   0  0  0  0  0  0
    6.2440   28.2680  -10.5080 C   0  0  0  0  0  0
    6.3380   29.3620  -11.0840 O   0  0  0  0  0  0
   10.7130   25.3920   -8.6890 N   0  0  0  0  0  0
   10.4240   24.3970   -7.7890 C   0  0  0  0  0  0
   11.4340   23.5750   -7.3540 N   0  0  0  0  0  0
    9.1810   24.1200   -7.2550 N   0  0  0  0  0  0
    8.1020   24.9050   -7.6520 C   0  0  0  0  0  0
    6.9260   24.6130   -7.1180 O   0  0  0  0  0  0
    7.2330   26.7160   -8.9580 N   0  0  0  0  0  0
    7.4370   27.5710   -9.9440 C   0  0  0  0  0  0
    8.7580   28.0450  -10.4270 C   0  0  0  0  0  0
    8.9820   29.4470   -9.8960 C   0  0  0  0  0  0
    8.7970   27.9740  -11.9510 C   0  0  0  0  0  0
    9.8520   27.1660   -9.9370 N   0  0  0  0  0  0
    9.6390   26.1570   -9.0610 C   0  0  0  0  0  0
    8.3090   25.9500   -8.5660 C   0  0  0  0  0  0
    4.0830   30.0370   -9.3480 O   0  0  0  0  0  0
    0.7660   32.4480  -14.1060 O   0  0  0  0  0  0
    0.9110   30.1930  -13.2560 O   0  0  0  0  0  0
   -1.9200   32.3849  -13.6226 H   0  0  0  0  0  0
   -3.4875   30.9921  -11.3072 H   0  0  0  0  0  0
   -3.4032   33.3741  -11.4296 H   0  0  0  0  0  0
   -5.0775   30.0107  -12.9498 H   0  0  0  0  0  0
   -5.8148   32.1818  -13.6795 H   0  0  0  0  0  0
   -3.3059   30.4524  -15.3570 H   0  0  0  0  0  0
   -3.5870   28.2261  -16.5698 H   0  0  0  0  0  0
   -3.9303   23.9275  -14.5879 H   0  0  0  0  0  0
   -3.8790   23.2656  -12.8020 H   0  0  0  0  0  0
   -3.3444   27.0129  -10.2031 H   0  0  0  0  0  0
   -1.1240   32.3324  -11.2607 H   0  0  0  0  0  0
   -0.9789   30.5481  -11.4081 H   0  0  0  0  0  0
    2.6355   31.9684  -12.1097 H   0  0  0  0  0  0
    1.4624   33.0784  -11.3234 H   0  0  0  0  0  0
    1.8550   29.3682  -11.6236 H   0  0  0  0  0  0
    2.3314   31.8070   -9.7311 H   0  0  0  0  0  0
    0.6970   31.1368  -10.0572 H   0  0  0  0  0  0
    3.0223   27.3929  -10.5727 H   0  0  0  0  0  0
    3.8816   28.2083  -11.9229 H   0  0  0  0  0  0
    5.0931   26.6329   -9.8197 H   0  0  0  0  0  0
   12.4593   23.7198   -7.7251 H   0  0  0  0  0  0
   11.2179   22.7716   -6.6344 H   0  0  0  0  0  0
    9.0627   23.2966   -6.5353 H   0  0  0  0  0  0
    8.1775   30.1070  -10.2526 H   0  0  0  0  0  0
    9.9514   29.8241  -10.2539 H   0  0  0  0  0  0
    8.9796   29.4272   -8.7962 H   0  0  0  0  0  0
    8.0028   28.6106  -12.3681 H   0  0  0  0  0  0
    8.6409   26.9341  -12.2737 H   0  0  0  0  0  0
    9.7755   28.3262  -12.3095 H   0  0  0  0  0  0
   10.8828   27.3238  -10.2869 H   0  0  0  0  0  0
  1  2  1  0  0  0
  1  3  1  0  0  0
  1 18  1  0  0  0
  1 45  1  0  0  0
  2  7  1  0  0  0
  3  4  1  0  0  0
  3  5  1  0  0  0
  3 46  1  0  0  0
  4 47  1  0  0  0
  5  6  1  0  0  0
  5  7  1  0  0  0
  5 48  1  0  0  0
  6 49  1  0  0  0
  7  8  1  0  0  0
  7 50  1  0  0  0
  8  9  1  0  0  0
  8 17  1  0  0  0
  9 10  2  0  0  0
  9 51  1  0  0  0
 10 11  1  0  0  0
 11 12  2  0  0  0
 11 17  1  0  0  0
 12 13  1  0  0  0
 12 14  1  0  0  0
 13 52  1  0  0  0
 13 53  1  0  0  0
 14 15  2  0  0  0
 15 16  1  0  0  0
 15 54  1  0  0  0
 16 17  2  0  0  0
 18 19  1  0  0  0
 18 55  1  0  0  0
 18 56  1  0  0  0
 19 20  1  0  0  0
 19 43  2  0  0  0
 19 44  2  0  0  0
 20 22  1  0  0  0
 20 57  1  0  0  0
 20 58  1  0  0  0
 21 22  1  0  0  0
 21 23  1  0  0  0
 21 59  1  0  0  0
 22 60  1  0  0  0
 22 61  1  0  0  0
 23 24  1  0  0  0
 23 42  2  0  0  0
 24 25  1  0  0  0
 24 62  1  0  0  0
 24 63  1  0  0  0
 25 26  1  0  0  0
 25 64  1  0  0  0
 26 27  2  0  0  0
 26 35  1  0  0  0
 28 29  2  0  0  0
 28 40  1  0  0  0
 29 30  1  0  0  0
 29 31  1  0  0  0
 30 65  1  0  0  0
 30 66  1  0  0  0
 31 32  1  0  0  0
 31 67  1  0  0  0
 32 33  2  0  0  0
 32 41  1  0  0  0
 34 35  2  0  0  0
 34 41  1  0  0  0
 35 36  1  0  0  0
 36 37  1  0  0  0
 36 38  1  0  0  0
 36 39  1  0  0  0
 37 68  1  0  0  0
 37 69  1  0  0  0
 37 70  1  0  0  0
 38 71  1  0  0  0
 38 72  1  0  0  0
 38 73  1  0  0  0
 39 40  1  0  0  0
 39 74  1  0  0  0
 40 41  2  0  0  0
M  END
> <s_m_source_file>
../4pzv_ligand.sdf

> <i_m_source_file_index>
1

> <s_epik_input>
W05IMl1jMW5bY0hdbmMoYzEyKW4oW2NIXW4yKVtDQEBIXShbQ0BIXShbT0hdKVtDQEBIXTNbT0hdKU9bQ0BASF0zW0NIMl1TKD1PKSg9TylbQ0gyXVtDSDJdW05IXUMoPU8pW0NIMl1bTkhdQyg9TylDKEMoW0NIM10pKFtDSDNdKVtOSF00KT1OYyhjNDUpYyg9TylbbkhdYyhuNSlbTkgyXQ==

> <s_epik_cmdline>
J2VwaWtfYXBwJywgJy1pbWFlJywgJ2xpZ2FuZF9wcm8ubWFlJywgJy1vbWFlJywgJ2xpZ2FuZF9wcmVwLm1hZScsICctbXMnLCAnMScsICctcGgnLCAnNycsICctcGh0JywgJzAuNScsICctbnQn

> <r_lp_tautomer_probability>
1

> <r_epik_Ionization_Penalty>
  0.0291

> <r_epik_Ionization_Penalty_Charging>
  0.0066

> <r_epik_Ionization_Penalty_Neutral>
  0.0225

> <r_epik_State_Penalty>
 -0.0000

> <r_epik_Charging_Adjusted_Penalty>
0.00661447357215393

> <i_epik_Tot_Q>
0

> <i_epik_Tot_abs_Q>
0

> <s_epik_Chemistry_Notes>
This compound has an imine and may undergo hydrolysis. This compound contains an acetal/aminal-like group ( X-CH(R)-Y where X, Y are N, S, or O) that may be acid/base labile, releasing an aldehyde.

$$$$
