4pzx_ligand
                    3D
 Schrodinger Suite 2020-3.
 45 49  0  0  1  0            999 V2000
   20.8570   11.5030    7.6570 C   0  0  0  0  0  0
   21.7050   10.9580    6.6470 O   0  0  0  0  0  0
   23.0790   10.8550    7.0060 C   0  0  0  0  0  0
   23.6340   12.2870    7.2060 C   0  0  1  0  0  0
   22.7650   13.0690    8.2350 C   0  0  2  0  0  0
   21.2540   12.9790    7.9000 C   0  0  0  0  0  0
   24.9720   12.1650    7.6730 O   0  0  0  0  0  0
   25.6010   13.2840    8.1680 C   0  0  0  0  0  0
   24.8610   14.4170    8.6150 C   0  0  0  0  0  0
   23.3280   14.4740    8.5230 C   0  0  2  0  0  0
   27.0180   13.2790    8.2510 C   0  0  0  0  0  0
   27.7200   14.4020    8.7580 C   0  0  0  0  0  0
   26.9850   15.5320    9.2090 C   0  0  0  0  0  0
   25.5670   15.5360    9.1180 C   0  0  0  0  0  0
   22.7250   14.9790    9.7540 N   0  3  0  0  0  0
   22.0040   16.0680    9.4880 C   0  0  0  0  0  0
   22.0080   16.4200    8.1800 O   0  0  0  0  0  0
   22.9130   15.5550    7.4920 C   0  0  0  0  0  0
   27.6120   16.7100    9.6840 C   0  0  0  0  0  0
   26.9720   17.5620   10.6210 C   0  0  0  0  0  0
   27.6340   18.7590   10.9950 C   0  0  0  0  0  0
   28.8940   19.0690   10.4300 C   0  0  0  0  0  0
   29.4870   18.2610    9.5260 N   0  0  0  0  0  0
   28.8610   17.1250    9.1480 C   0  0  0  0  0  0
   21.1690   16.6930   10.3260 N   0  0  0  0  0  0
   26.9270   19.8320   12.1250 Cl  0  0  0  0  0  0
   19.8097   11.4489    7.3249 H   0  0  0  0  0  0
   20.9771   10.9272    8.5866 H   0  0  0  0  0  0
   23.1721   10.2792    7.9386 H   0  0  0  0  0  0
   23.6305   10.3440    6.2030 H   0  0  0  0  0  0
   23.6966   12.8490    6.2625 H   0  0  0  0  0  0
   22.8372   12.5818    9.2186 H   0  0  0  0  0  0
   21.0468   13.5682    6.9945 H   0  0  0  0  0  0
   20.6707   13.3819    8.7411 H   0  0  0  0  0  0
   27.5734   12.4011    7.9210 H   0  0  0  0  0  0
   28.8091   14.3987    8.8013 H   0  0  0  0  0  0
   25.0127   16.4170    9.4415 H   0  0  0  0  0  0
   22.7896   14.6004   10.7848 H   0  0  0  0  0  0
   23.8062   16.0998    7.1524 H   0  0  0  0  0  0
   22.4279   15.0730    6.6304 H   0  0  0  0  0  0
   25.9999   17.3039   11.0411 H   0  0  0  0  0  0
   29.3996   19.9858   10.7333 H   0  0  0  0  0  0
   29.3370   16.4963    8.3955 H   0  0  0  0  0  0
   21.1525   16.4198   11.3914 H   0  0  0  0  0  0
   20.4990   17.4800    9.9496 H   0  0  0  0  0  0
  1  2  1  0  0  0
  1  6  1  0  0  0
  1 27  1  0  0  0
  1 28  1  0  0  0
  2  3  1  0  0  0
  3  4  1  0  0  0
  3 29  1  0  0  0
  3 30  1  0  0  0
  4  5  1  0  0  0
  4  7  1  0  0  0
  4 31  1  0  0  0
  5  6  1  0  0  0
  5 10  1  0  0  0
  5 32  1  0  0  0
  6 33  1  0  0  0
  6 34  1  0  0  0
  7  8  1  0  0  0
  8  9  2  0  0  0
  8 11  1  0  0  0
  9 10  1  0  0  0
  9 14  1  0  0  0
 10 15  1  0  0  0
 10 18  1  0  0  0
 11 12  2  0  0  0
 11 35  1  0  0  0
 12 13  1  0  0  0
 12 36  1  0  0  0
 13 14  2  0  0  0
 13 19  1  0  0  0
 14 37  1  0  0  0
 15 16  2  0  0  0
 15 38  1  0  0  0
 16 17  1  0  0  0
 16 25  1  0  0  0
 17 18  1  0  0  0
 18 39  1  0  0  0
 18 40  1  0  0  0
 19 20  2  0  0  0
 19 24  1  0  0  0
 20 21  1  0  0  0
 20 41  1  0  0  0
 21 22  2  0  0  0
 21 26  1  0  0  0
 22 23  1  0  0  0
 22 42  1  0  0  0
 23 24  2  0  0  0
 24 43  1  0  0  0
 25 44  1  0  0  0
 25 45  1  0  0  0
M  CHG  1  15   1
M  END
> <s_m_source_file>
../4pzx_ligand.sdf

> <i_m_source_file_index>
1

> <s_epik_input>
W0NIMl0xT0MoPU5cW0hdKVxbTkhdW0NAQF0xMltDQEBIXTNbQ0BIXShbQ0gyXU9bQ0gyXVtDSDJdMylPYzRjMltjSF1jKFtjSF1bY0hdNCktYzVbY0hdYyhDbClbY0hdbltjSF01

> <s_epik_cmdline>
J2VwaWtfYXBwJywgJy1pbWFlJywgJ2xpZ2FuZF9wcm8ubWFlJywgJy1vbWFlJywgJ2xpZ2FuZF9wcmVwLm1hZScsICctbXMnLCAnMScsICctcGgnLCAnNycsICctcGh0JywgJzAuNScsICctbnQn

> <r_lp_tautomer_probability>
1

> <r_epik_Ionization_Penalty>
  0.0537

> <r_epik_Ionization_Penalty_Charging>
  0.0010

> <r_epik_Ionization_Penalty_Neutral>
  0.0527

> <r_epik_State_Penalty>
  0.0451

> <r_epik_Charging_Adjusted_Penalty>
0.0460958447294262

> <i_epik_Tot_Q>
1

> <i_epik_Tot_abs_Q>
1

> <s_epik_Chemistry_Notes>
This compound has an imine and may undergo hydrolysis.

$$$$
