4q06_ligand
                    3D
 Schrodinger Suite 2020-3.
 49 50  0  0  1  0            999 V2000
   -4.7640    2.6410   11.3680 F   0  0  0  0  0  0
   -4.5270    1.7170   12.3000 C   0  0  0  0  0  0
   -3.7580    0.5940   11.8220 C   0  0  0  0  0  0
   -3.1400    0.3410   10.1890 S   0  0  0  0  0  0
   -1.5290    1.1310   10.1310 C   0  0  0  0  0  0
   -1.2930    2.1520   11.1880 C   0  0  0  0  0  0
   -1.0200    3.3230   10.5080 O   0  0  0  0  0  0
   -3.4230   -0.3520   12.7540 C   0  0  0  0  0  0
   -2.6650   -1.4310   12.4340 F   0  0  0  0  0  0
   -4.9340    1.9250   13.5370 C   0  0  0  0  0  0
   -4.5610    0.9270   14.4450 C   0  0  0  0  0  0
   -5.1590    0.8730   16.1750 S   0  0  0  0  0  0
   -6.3850    1.7250   16.2420 O   0  0  0  0  0  0
   -5.2750   -0.6850   16.3300 N   0  0  0  0  0  0
   -4.1830    1.3780   17.0970 O   0  0  0  0  0  0
   -3.7580   -0.1130   13.9840 C   0  0  0  0  0  0
   -3.5220   -1.1370   15.0230 F   0  0  0  0  0  0
   -5.6300    3.0420   13.9010 N   0  0  0  0  0  0
   -4.9960    4.3080   14.4490 C   0  0  0  0  0  0
   -3.4430    4.3680   14.5610 C   0  0  0  0  0  0
   -2.5650    5.1660   13.6360 C   0  0  0  0  0  0
   -2.4970    6.6780   13.8860 C   0  0  0  0  0  0
   -3.4400    7.4740   12.9800 C   0  0  0  0  0  0
   -4.8410    7.7480   13.5580 C   0  0  0  0  0  0
   -5.3750    6.9110   14.7180 C   0  0  0  0  0  0
   -5.7930    5.5590   14.2080 C   0  0  0  0  0  0
   -0.7431    0.3700   10.2458 H   0  0  0  0  0  0
   -1.4059    1.6423    9.1649 H   0  0  0  0  0  0
   -2.1935    2.2482   11.8124 H   0  0  0  0  0  0
   -0.4438    1.8416   11.8146 H   0  0  0  0  0  0
   -0.8061    4.2462   11.0665 H   0  0  0  0  0  0
   -5.6331   -0.9272   17.3415 H   0  0  0  0  0  0
   -4.2880   -1.1438   16.1708 H   0  0  0  0  0  0
   -6.7212    2.9836   13.7746 H   0  0  0  0  0  0
   -5.1907    4.2362   15.5293 H   0  0  0  0  0  0
   -3.1617    4.7727   15.5444 H   0  0  0  0  0  0
   -3.0279    3.3555   14.4488 H   0  0  0  0  0  0
   -1.5290    4.8037   13.7104 H   0  0  0  0  0  0
   -2.9207    5.0496   12.6016 H   0  0  0  0  0  0
   -2.7756    6.8901   14.9288 H   0  0  0  0  0  0
   -1.4732    7.0347   13.7002 H   0  0  0  0  0  0
   -2.9966    8.4569   12.7626 H   0  0  0  0  0  0
   -3.5946    6.9253   12.0392 H   0  0  0  0  0  0
   -4.8859    8.7797   13.9370 H   0  0  0  0  0  0
   -5.5958    7.6140   12.7691 H   0  0  0  0  0  0
   -4.5871    6.7901   15.4760 H   0  0  0  0  0  0
   -6.2416    7.4179   15.1675 H   0  0  0  0  0  0
   -5.8817    5.7344   13.1257 H   0  0  0  0  0  0
   -6.7963    5.4444   14.6443 H   0  0  0  0  0  0
  1  2  1  0  0  0
  2  3  2  0  0  0
  2 10  1  0  0  0
  3  4  1  0  0  0
  3  8  1  0  0  0
  4  5  1  0  0  0
  5  6  1  0  0  0
  5 27  1  0  0  0
  5 28  1  0  0  0
  6  7  1  0  0  0
  6 29  1  0  0  0
  6 30  1  0  0  0
  7 31  1  0  0  0
  8  9  1  0  0  0
  8 16  2  0  0  0
 10 11  2  0  0  0
 10 18  1  0  0  0
 11 12  1  0  0  0
 11 16  1  0  0  0
 12 13  2  0  0  0
 12 14  1  0  0  0
 12 15  2  0  0  0
 14 32  1  0  0  0
 14 33  1  0  0  0
 16 17  1  0  0  0
 18 19  1  0  0  0
 18 34  1  0  0  0
 19 20  1  0  0  0
 19 26  1  0  0  0
 19 35  1  0  0  0
 20 21  1  0  0  0
 20 36  1  0  0  0
 20 37  1  0  0  0
 21 22  1  0  0  0
 21 38  1  0  0  0
 21 39  1  0  0  0
 22 23  1  0  0  0
 22 40  1  0  0  0
 22 41  1  0  0  0
 23 24  1  0  0  0
 23 42  1  0  0  0
 23 43  1  0  0  0
 24 25  1  0  0  0
 24 44  1  0  0  0
 24 45  1  0  0  0
 25 26  1  0  0  0
 25 46  1  0  0  0
 25 47  1  0  0  0
 26 48  1  0  0  0
 26 49  1  0  0  0
M  END
> <s_m_source_file>
../4q06_ligand.sdf

> <i_m_source_file_index>
1

> <s_epik_input>
W09IXVtDSDJdW0NIMl1TYyhjMUYpYyhGKWMoRiljKFMoPU8pKD1PKVtOSDJdKWMxW05IXVtDSF0yW0NIMl1bQ0gyXVtDSDJdW0NIMl1bQ0gyXVtDSDJdW0NIMl0y

> <s_epik_cmdline>
J2VwaWtfYXBwJywgJy1pbWFlJywgJ2xpZ2FuZF9wcm8ubWFlJywgJy1vbWFlJywgJ2xpZ2FuZF9wcmVwLm1hZScsICctbXMnLCAnMScsICctcGgnLCAnNycsICctcGh0JywgJzAuNScsICctbnQn

> <r_lp_tautomer_probability>
1

> <r_epik_Ionization_Penalty>
  0.0018

> <r_epik_Ionization_Penalty_Charging>
  0.0000

> <r_epik_Ionization_Penalty_Neutral>
  0.0018

> <r_epik_State_Penalty>
 -0.0000

> <r_epik_Charging_Adjusted_Penalty>
0

> <i_epik_Tot_Q>
0

> <i_epik_Tot_abs_Q>
0

$$$$
