4q07_ligand
                    3D
 Schrodinger Suite 2020-3.
 51 52  0  0  1  0            999 V2000
   -5.7730    3.3400   15.4860 F   0  0  0  0  0  0
   -5.1850    2.4580   14.6070 C   0  0  0  0  0  0
   -4.9840    1.1660   15.0790 C   0  0  0  0  0  0
   -5.6400    0.6900   16.6890 S   0  0  0  0  0  0
   -7.0350    1.1060   16.6540 O   0  0  0  0  0  0
   -5.5670   -0.8590   16.7040 N   0  0  0  0  0  0
   -4.7720    1.2660   17.7230 O   0  0  0  0  0  0
   -4.4190    0.3030   14.1520 C   0  0  0  0  0  0
   -4.1220   -0.9920   14.4900 F   0  0  0  0  0  0
   -4.2010    0.6320   12.8610 C   0  0  0  0  0  0
   -3.7480   -0.3180   12.0260 F   0  0  0  0  0  0
   -4.9380    2.8820   13.2980 C   0  0  0  0  0  0
   -4.4410    1.9360   12.3800 C   0  0  0  0  0  0
   -4.2030    2.1750   10.6600 S   0  0  0  0  0  0
   -4.4510    3.6240   10.3750 O   0  0  0  0  0  0
   -5.1460    1.2390    9.9650 O   0  0  0  0  0  0
   -2.5940    1.7930   10.2120 C   0  0  0  0  0  0
   -1.7200    2.5870   11.1450 C   0  0  0  0  0  0
   -0.4230    2.4140   10.7170 O   0  0  0  0  0  0
   -5.2420    4.2000   12.9500 N   0  0  0  0  0  0
   -5.0200    5.3880   13.7520 C   0  0  0  0  0  0
   -3.6510    5.3610   14.4620 C   0  0  0  0  0  0
   -2.4480    5.6920   13.6000 C   0  0  0  0  0  0
   -1.9700    7.1100   13.8530 C   0  0  0  0  0  0
   -2.7720    8.1810   13.1180 C   0  0  0  0  0  0
   -3.9720    8.6010   13.9070 C   0  0  0  0  0  0
   -5.2630    7.9670   13.4050 C   0  0  0  0  0  0
   -5.2510    6.5540   12.8150 C   0  0  0  0  0  0
   -5.9530   -1.2350   17.6630 H   0  0  0  0  0  0
   -4.5217   -1.1780   16.5791 H   0  0  0  0  0  0
   -2.4281    0.7117   10.3275 H   0  0  0  0  0  0
   -2.4276    2.0795    9.1631 H   0  0  0  0  0  0
   -2.0074    3.6480   11.1027 H   0  0  0  0  0  0
   -1.8458    2.2137   12.1720 H   0  0  0  0  0  0
    0.4029    2.9058   11.2519 H   0  0  0  0  0  0
   -5.6957    4.2872   11.9517 H   0  0  0  0  0  0
   -5.7509    5.4271   14.5731 H   0  0  0  0  0  0
   -3.6491    6.0934   15.2827 H   0  0  0  0  0  0
   -3.4682    4.3551   14.8678 H   0  0  0  0  0  0
   -1.6278    4.9969   13.8327 H   0  0  0  0  0  0
   -2.7199    5.5960   12.5385 H   0  0  0  0  0  0
   -2.0406    7.3345   14.9275 H   0  0  0  0  0  0
   -0.9244    7.2084   13.5258 H   0  0  0  0  0  0
   -2.1375    9.0638   12.9506 H   0  0  0  0  0  0
   -3.1118    7.7847   12.1497 H   0  0  0  0  0  0
   -3.8409    8.3063   14.9586 H   0  0  0  0  0  0
   -4.0884    9.6930   13.8440 H   0  0  0  0  0  0
   -5.9846    7.9002   14.2325 H   0  0  0  0  0  0
   -5.6857    8.5848   12.5990 H   0  0  0  0  0  0
   -4.4597    6.5729   12.0511 H   0  0  0  0  0  0
   -6.2301    6.4431   12.3260 H   0  0  0  0  0  0
  1  2  1  0  0  0
  2  3  2  0  0  0
  2 12  1  0  0  0
  3  4  1  0  0  0
  3  8  1  0  0  0
  4  5  2  0  0  0
  4  6  1  0  0  0
  4  7  2  0  0  0
  6 29  1  0  0  0
  6 30  1  0  0  0
  8  9  1  0  0  0
  8 10  2  0  0  0
 10 11  1  0  0  0
 10 13  1  0  0  0
 12 13  2  0  0  0
 12 20  1  0  0  0
 13 14  1  0  0  0
 14 15  2  0  0  0
 14 16  2  0  0  0
 14 17  1  0  0  0
 17 18  1  0  0  0
 17 31  1  0  0  0
 17 32  1  0  0  0
 18 19  1  0  0  0
 18 33  1  0  0  0
 18 34  1  0  0  0
 19 35  1  0  0  0
 20 21  1  0  0  0
 20 36  1  0  0  0
 21 22  1  0  0  0
 21 28  1  0  0  0
 21 37  1  0  0  0
 22 23  1  0  0  0
 22 38  1  0  0  0
 22 39  1  0  0  0
 23 24  1  0  0  0
 23 40  1  0  0  0
 23 41  1  0  0  0
 24 25  1  0  0  0
 24 42  1  0  0  0
 24 43  1  0  0  0
 25 26  1  0  0  0
 25 44  1  0  0  0
 25 45  1  0  0  0
 26 27  1  0  0  0
 26 46  1  0  0  0
 26 47  1  0  0  0
 27 28  1  0  0  0
 27 48  1  0  0  0
 27 49  1  0  0  0
 28 50  1  0  0  0
 28 51  1  0  0  0
M  END
> <s_m_source_file>
../4q07_ligand.sdf

> <i_m_source_file_index>
1

> <s_epik_input>
RmMxYyhTKD1PKSg9TylbTkgyXSljKEYpYyhGKWMoUyg9TykoPU8pW0NIMl1bQ0gyXVtPSF0pYzFbTkhdW0NIXTJbQ0gyXVtDSDJdW0NIMl1bQ0gyXVtDSDJdW0NIMl1bQ0gyXTI=

> <s_epik_cmdline>
J2VwaWtfYXBwJywgJy1pbWFlJywgJ2xpZ2FuZF9wcm8ubWFlJywgJy1vbWFlJywgJ2xpZ2FuZF9wcmVwLm1hZScsICctbXMnLCAnMScsICctcGgnLCAnNycsICctcGh0JywgJzAuNScsICctbnQn

> <r_epik_Ionization_Penalty>
  0.0106

> <r_epik_Ionization_Penalty_Charging>
  0.0000

> <r_epik_Ionization_Penalty_Neutral>
  0.0106

> <r_epik_State_Penalty>
  0.0080

> <r_epik_Charging_Adjusted_Penalty>
0.00803150182698137

> <i_epik_Tot_Q>
0

> <i_epik_Tot_abs_Q>
0

$$$$
