4q08_ligand
                    3D
 Schrodinger Suite 2020-3.
 49 50  0  0  1  0            999 V2000
   -2.8270    3.2430   12.8210 F   0  0  0  0  0  0
   -3.7020    3.2760   13.8130 C   0  0  0  0  0  0
   -4.2430    4.5600   14.0820 C   0  0  0  0  0  0
   -3.8110    5.9980   13.1800 S   0  0  0  0  0  0
   -2.4110    6.7160   14.0820 C   0  0  0  0  0  0
   -1.1810    5.9410   13.7210 C   0  0  0  0  0  0
   -0.5080    6.4750   12.6470 O   0  0  0  0  0  0
   -5.0340    4.6060   15.2870 C   0  0  0  0  0  0
   -5.5990    5.7410   15.6840 F   0  0  0  0  0  0
   -4.0750    2.1120   14.4580 C   0  0  0  0  0  0
   -4.9740    2.1890   15.5560 C   0  0  0  0  0  0
   -5.4810    0.8250   16.5570 S   0  0  0  0  0  0
   -6.9300    0.8520   16.4680 O   0  0  0  0  0  0
   -4.9230   -0.5320   15.9750 N   0  0  0  0  0  0
   -4.9160    1.0670   17.8840 O   0  0  0  0  0  0
   -5.4050    3.4160   15.9230 C   0  0  0  0  0  0
   -6.2320    3.5870   16.9730 F   0  0  0  0  0  0
   -3.5200    0.9190   13.9620 N   0  0  0  0  0  0
   -3.4750    0.5520   12.5790 C   0  0  0  0  0  0
   -3.4560   -0.9960   12.5540 C   0  0  0  0  0  0
   -2.1640   -1.3680   11.8620 C   0  0  0  0  0  0
   -2.3140   -1.3570   10.3040 C   0  0  0  0  0  0
   -2.3800    0.0620    9.7020 C   0  0  0  0  0  0
   -3.8560    0.4620    9.3760 C   0  0  0  0  0  0
   -4.2270    1.6040   10.3220 C   0  0  0  0  0  0
   -4.6210    1.1550   11.7550 C   0  0  0  0  0  0
   -2.2927    7.7714   13.7954 H   0  0  0  0  0  0
   -2.5984    6.6487   15.1638 H   0  0  0  0  0  0
   -0.4904    5.9296   14.5771 H   0  0  0  0  0  0
   -1.4606    4.9092   13.4618 H   0  0  0  0  0  0
    0.4134    5.9973   12.2825 H   0  0  0  0  0  0
   -5.2502   -1.3665   16.6126 H   0  0  0  0  0  0
   -3.8238   -0.4968   15.9525 H   0  0  0  0  0  0
   -3.1002    0.2455   14.7237 H   0  0  0  0  0  0
   -2.5618    1.0024   12.1629 H   0  0  0  0  0  0
   -3.4868   -1.3797   13.5844 H   0  0  0  0  0  0
   -4.3314   -1.3645   11.9992 H   0  0  0  0  0  0
   -1.3796   -0.6479   12.1382 H   0  0  0  0  0  0
   -1.8597   -2.3785   12.1722 H   0  0  0  0  0  0
   -1.4526   -1.8679    9.8491 H   0  0  0  0  0  0
   -3.2406   -1.8780   10.0211 H   0  0  0  0  0  0
   -1.9685    0.7851   10.4216 H   0  0  0  0  0  0
   -1.7917    0.0940    8.7731 H   0  0  0  0  0  0
   -3.9247    0.7872    8.3274 H   0  0  0  0  0  0
   -4.5144   -0.4047    9.5350 H   0  0  0  0  0  0
   -3.3708    2.2867   10.4262 H   0  0  0  0  0  0
   -5.0870    2.1544    9.9128 H   0  0  0  0  0  0
   -5.4239    0.4113   11.6445 H   0  0  0  0  0  0
   -5.0136    2.0447   12.2691 H   0  0  0  0  0  0
  1  2  1  0  0  0
  2  3  2  0  0  0
  2 10  1  0  0  0
  3  4  1  0  0  0
  3  8  1  0  0  0
  4  5  1  0  0  0
  5  6  1  0  0  0
  5 27  1  0  0  0
  5 28  1  0  0  0
  6  7  1  0  0  0
  6 29  1  0  0  0
  6 30  1  0  0  0
  7 31  1  0  0  0
  8  9  1  0  0  0
  8 16  2  0  0  0
 10 11  2  0  0  0
 10 18  1  0  0  0
 11 12  1  0  0  0
 11 16  1  0  0  0
 12 13  2  0  0  0
 12 14  1  0  0  0
 12 15  2  0  0  0
 14 32  1  0  0  0
 14 33  1  0  0  0
 16 17  1  0  0  0
 18 19  1  0  0  0
 18 34  1  0  0  0
 19 20  1  0  0  0
 19 26  1  0  0  0
 19 35  1  0  0  0
 20 21  1  0  0  0
 20 36  1  0  0  0
 20 37  1  0  0  0
 21 22  1  0  0  0
 21 38  1  0  0  0
 21 39  1  0  0  0
 22 23  1  0  0  0
 22 40  1  0  0  0
 22 41  1  0  0  0
 23 24  1  0  0  0
 23 42  1  0  0  0
 23 43  1  0  0  0
 24 25  1  0  0  0
 24 44  1  0  0  0
 24 45  1  0  0  0
 25 26  1  0  0  0
 25 46  1  0  0  0
 25 47  1  0  0  0
 26 48  1  0  0  0
 26 49  1  0  0  0
M  END
> <s_m_source_file>
../4q08_ligand.sdf

> <i_m_source_file_index>
1

> <s_epik_input>
W09IXVtDSDJdW0NIMl1TYyhjMUYpYyhGKWMoRiljKFMoPU8pKD1PKVtOSDJdKWMxW05IXVtDSF0yW0NIMl1bQ0gyXVtDSDJdW0NIMl1bQ0gyXVtDSDJdW0NIMl0y

> <s_epik_cmdline>
J2VwaWtfYXBwJywgJy1pbWFlJywgJ2xpZ2FuZF9wcm8ubWFlJywgJy1vbWFlJywgJ2xpZ2FuZF9wcmVwLm1hZScsICctbXMnLCAnMScsICctcGgnLCAnNycsICctcGh0JywgJzAuNScsICctbnQn

> <r_lp_tautomer_probability>
1

> <r_epik_Ionization_Penalty>
  0.0018

> <r_epik_Ionization_Penalty_Charging>
  0.0000

> <r_epik_Ionization_Penalty_Neutral>
  0.0018

> <r_epik_State_Penalty>
 -0.0000

> <r_epik_Charging_Adjusted_Penalty>
0

> <i_epik_Tot_Q>
0

> <i_epik_Tot_abs_Q>
0

$$$$
