4q09_ligand
                    3D
 Schrodinger Suite 2020-3.
 51 52  0  0  1  0            999 V2000
   -5.5950    3.6610   15.6080 F   0  0  0  0  0  0
   -4.8780    2.9420   14.6970 C   0  0  0  0  0  0
   -4.6050    1.5950   14.9360 C   0  0  0  0  0  0
   -5.2610    0.8870   16.4700 S   0  0  0  0  0  0
   -6.6540    1.2510   16.4520 O   0  0  0  0  0  0
   -5.0880   -0.5990   16.3240 N   0  0  0  0  0  0
   -4.4350    1.3910   17.5120 O   0  0  0  0  0  0
   -3.9380    0.9230   13.9820 C   0  0  0  0  0  0
   -3.6440   -0.4120   14.0560 F   0  0  0  0  0  0
   -3.5470    1.4570   12.7990 C   0  0  0  0  0  0
   -2.8640    0.7590   11.8990 F   0  0  0  0  0  0
   -4.4830    3.5930   13.5080 C   0  0  0  0  0  0
   -3.7770    2.8250   12.5840 C   0  0  0  0  0  0
   -3.0160    3.4890   11.0860 S   0  0  0  0  0  0
   -3.5650    4.8100   10.8680 O   0  0  0  0  0  0
   -3.2120    2.5820    9.9710 O   0  0  0  0  0  0
   -1.2000    3.4640   11.0980 C   0  0  0  0  0  0
   -0.5320    4.3140   12.1590 C   0  0  0  0  0  0
   -0.5710    3.8170   13.4940 O   0  0  0  0  0  0
   -4.8260    4.9440   13.2740 N   0  0  0  0  0  0
   -4.9520    6.0640   14.2220 C   0  0  0  0  0  0
   -3.5670    6.2710   14.7510 C   0  0  0  0  0  0
   -2.6290    7.0580   13.8730 C   0  0  0  0  0  0
   -2.5590    8.5620   14.3740 C   0  0  0  0  0  0
   -3.7840    9.5410   14.1200 C   0  0  0  0  0  0
   -5.0260    9.2480   14.9970 C   0  0  0  0  0  0
   -6.1610    8.3680   14.3840 C   0  0  0  0  0  0
   -5.6780    7.2300   13.5470 C   0  0  0  0  0  0
   -5.4673   -1.1026   17.2254 H   0  0  0  0  0  0
   -4.0210   -0.8330   16.1948 H   0  0  0  0  0  0
   -0.8486    2.4351   11.2647 H   0  0  0  0  0  0
   -0.8219    3.8285   10.1315 H   0  0  0  0  0  0
    0.5340    4.4337   11.9154 H   0  0  0  0  0  0
   -1.0134    5.3025   12.1937 H   0  0  0  0  0  0
   -0.1030    4.3899   14.3081 H   0  0  0  0  0  0
   -5.0121    5.1071   12.2022 H   0  0  0  0  0  0
   -5.5823    5.8609   15.1004 H   0  0  0  0  0  0
   -3.6167    6.8153   15.7056 H   0  0  0  0  0  0
   -3.0856    5.2948   14.9101 H   0  0  0  0  0  0
   -1.6243    6.6125   13.9179 H   0  0  0  0  0  0
   -2.9935    7.0368   12.8354 H   0  0  0  0  0  0
   -2.4269    8.5790   15.4659 H   0  0  0  0  0  0
   -1.7091    9.0692   13.8939 H   0  0  0  0  0  0
   -3.4767   10.5756   14.3326 H   0  0  0  0  0  0
   -4.1050    9.4621   13.0708 H   0  0  0  0  0  0
   -4.7139    8.7192   15.9097 H   0  0  0  0  0  0
   -5.5134   10.1954   15.2707 H   0  0  0  0  0  0
   -6.7670    7.9351   15.1935 H   0  0  0  0  0  0
   -6.8000    8.9901   13.7401 H   0  0  0  0  0  0
   -5.0121    7.6972   12.8066 H   0  0  0  0  0  0
   -6.5819    6.8569   13.0433 H   0  0  0  0  0  0
  1  2  1  0  0  0
  2  3  2  0  0  0
  2 12  1  0  0  0
  3  4  1  0  0  0
  3  8  1  0  0  0
  4  5  2  0  0  0
  4  6  1  0  0  0
  4  7  2  0  0  0
  6 29  1  0  0  0
  6 30  1  0  0  0
  8  9  1  0  0  0
  8 10  2  0  0  0
 10 11  1  0  0  0
 10 13  1  0  0  0
 12 13  2  0  0  0
 12 20  1  0  0  0
 13 14  1  0  0  0
 14 15  2  0  0  0
 14 16  2  0  0  0
 14 17  1  0  0  0
 17 18  1  0  0  0
 17 31  1  0  0  0
 17 32  1  0  0  0
 18 19  1  0  0  0
 18 33  1  0  0  0
 18 34  1  0  0  0
 19 35  1  0  0  0
 20 21  1  0  0  0
 20 36  1  0  0  0
 21 22  1  0  0  0
 21 28  1  0  0  0
 21 37  1  0  0  0
 22 23  1  0  0  0
 22 38  1  0  0  0
 22 39  1  0  0  0
 23 24  1  0  0  0
 23 40  1  0  0  0
 23 41  1  0  0  0
 24 25  1  0  0  0
 24 42  1  0  0  0
 24 43  1  0  0  0
 25 26  1  0  0  0
 25 44  1  0  0  0
 25 45  1  0  0  0
 26 27  1  0  0  0
 26 46  1  0  0  0
 26 47  1  0  0  0
 27 28  1  0  0  0
 27 48  1  0  0  0
 27 49  1  0  0  0
 28 50  1  0  0  0
 28 51  1  0  0  0
M  END
> <s_m_source_file>
../4q09_ligand.sdf

> <i_m_source_file_index>
1

> <s_epik_input>
RmMxYyhTKD1PKSg9TylbTkgyXSljKEYpYyhGKWMoUyg9TykoPU8pW0NIMl1bQ0gyXVtPSF0pYzFbTkhdW0NIXTJbQ0gyXVtDSDJdW0NIMl1bQ0gyXVtDSDJdW0NIMl1bQ0gyXTI=

> <s_epik_cmdline>
J2VwaWtfYXBwJywgJy1pbWFlJywgJ2xpZ2FuZF9wcm8ubWFlJywgJy1vbWFlJywgJ2xpZ2FuZF9wcmVwLm1hZScsICctbXMnLCAnMScsICctcGgnLCAnNycsICctcGh0JywgJzAuNScsICctbnQn

> <r_epik_Ionization_Penalty>
  0.0106

> <r_epik_Ionization_Penalty_Charging>
  0.0000

> <r_epik_Ionization_Penalty_Neutral>
  0.0106

> <r_epik_State_Penalty>
  0.0080

> <r_epik_Charging_Adjusted_Penalty>
0.00803150182698137

> <i_epik_Tot_Q>
0

> <i_epik_Tot_abs_Q>
0

$$$$
