4q0a_ligand
                    3D
 Schrodinger Suite 2020-3.
 66 69  0  0  1  0            999 V2000
   -0.0040   31.0880   35.2040 C   0  0  0  0  0  0
    0.4610   31.5340   36.6640 C   0  0  1  0  0  0
   -0.9430   33.8360   36.5830 C   0  0  0  0  0  0
   -0.9320   35.3670   36.7240 C   0  0  0  0  0  0
   -0.3410   35.8990   38.1030 C   0  0  1  0  0  0
    1.0890   35.2260   38.3400 C   0  0  1  0  0  0
    1.6100   35.8220   39.6640 C   0  0  0  0  0  0
    1.0270   37.2780   39.5510 C   0  0  0  0  0  0
    0.2020   37.3540   38.2230 C   0  0  2  0  0  0
   -1.4660   35.5600   39.2120 C   0  0  0  0  0  0
   -0.5470   30.9290   37.6980 C   0  0  0  0  0  0
    3.3510   31.7000   33.3910 O   0  0  0  0  0  0
    0.9620   31.6560   34.1030 C   0  0  0  0  0  0
   -0.9000   38.5600   38.3400 C   0  0  2  0  0  0
   -1.8280   38.7040   37.1190 C   0  0  0  0  0  0
   -0.2200   39.9590   38.4140 C   0  0  0  0  0  0
   -0.8690   41.0970   39.1760 C   0  0  0  0  0  0
   -0.0390   42.4140   39.1600 C   0  0  0  0  0  0
    2.4610   31.1690   34.3750 C   0  0  2  0  0  0
    2.9540   31.5880   35.8110 C   0  0  0  0  0  0
   -0.5180   43.3750   39.7890 O   0  0  0  0  0  0
    1.0670   42.5190   38.5600 O   0  5  0  0  0  0
    1.9600   30.9940   36.9250 C   0  0  1  0  0  0
    2.4360   31.4270   38.4130 C   0  0  0  0  0  0
    2.4610   33.0010   38.5170 C   0  0  0  0  0  0
    1.0370   33.6250   38.2760 C   0  0  2  0  0  0
    0.5050   33.1800   36.8150 C   0  0  1  0  0  0
   -0.0040   29.9899   35.1387 H   0  0  0  0  0  0
   -1.0184   31.4668   35.0106 H   0  0  0  0  0  0
   -1.6306   33.4044   37.3252 H   0  0  0  0  0  0
   -1.2775   33.5633   35.5712 H   0  0  0  0  0  0
   -0.3180   35.8046   35.9230 H   0  0  0  0  0  0
   -1.9605   35.7496   36.6481 H   0  0  0  0  0  0
    1.8219   35.4792   37.5598 H   0  0  0  0  0  0
    1.2096   35.2431   40.5093 H   0  0  0  0  0  0
    2.7091   35.7790   39.6781 H   0  0  0  0  0  0
    0.3802   37.4822   40.4170 H   0  0  0  0  0  0
    1.8536   38.0035   39.5316 H   0  0  0  0  0  0
    0.7687   37.5786   37.3073 H   0  0  0  0  0  0
   -1.8112   34.5240   39.0793 H   0  0  0  0  0  0
   -2.3163   36.2478   39.0938 H   0  0  0  0  0  0
   -1.0364   35.6774   40.2178 H   0  0  0  0  0  0
   -0.5698   29.8345   37.5905 H   0  0  0  0  0  0
   -1.5516   31.3367   37.5123 H   0  0  0  0  0  0
   -0.2277   31.1908   38.7176 H   0  0  0  0  0  0
    3.1670   31.5101   32.3233 H   0  0  0  0  0  0
    0.6418   31.2971   33.1137 H   0  0  0  0  0  0
    0.9327   32.7555   34.1213 H   0  0  0  0  0  0
   -1.5013   38.3227   39.2300 H   0  0  0  0  0  0
   -2.3741   37.7624   36.9604 H   0  0  0  0  0  0
   -1.2271   38.9341   36.2269 H   0  0  0  0  0  0
   -2.5455   39.5183   37.2978 H   0  0  0  0  0  0
    0.7681   39.8618   38.8875 H   0  0  0  0  0  0
   -0.1015   40.3633   37.3979 H   0  0  0  0  0  0
   -1.8501   41.3227   38.7326 H   0  0  0  0  0  0
   -1.0006   40.8055   40.2285 H   0  0  0  0  0  0
    2.5488   30.0810   34.2387 H   0  0  0  0  0  0
    3.9667   31.1933   35.9806 H   0  0  0  0  0  0
    2.9706   32.6852   35.8874 H   0  0  0  0  0  0
    1.9803   29.8970   36.8459 H   0  0  0  0  0  0
    1.7334   31.0206   39.1555 H   0  0  0  0  0  0
    3.4435   31.0298   38.6058 H   0  0  0  0  0  0
    2.8024   33.2968   39.5200 H   0  0  0  0  0  0
    3.1487   33.4076   37.7608 H   0  0  0  0  0  0
    0.3816   33.2557   39.0785 H   0  0  0  0  0  0
    1.1894   33.5685   36.0465 H   0  0  0  0  0  0
  1  2  1  0  0  0
  1 13  1  0  0  0
  1 28  1  0  0  0
  1 29  1  0  0  0
  2 11  1  0  0  0
  2 23  1  0  0  0
  2 27  1  0  0  0
  3  4  1  0  0  0
  3 27  1  0  0  0
  3 30  1  0  0  0
  3 31  1  0  0  0
  4  5  1  0  0  0
  4 32  1  0  0  0
  4 33  1  0  0  0
  5  6  1  0  0  0
  5  9  1  0  0  0
  5 10  1  0  0  0
  6  7  1  0  0  0
  6 26  1  0  0  0
  6 34  1  0  0  0
  7  8  1  0  0  0
  7 35  1  0  0  0
  7 36  1  0  0  0
  8  9  1  0  0  0
  8 37  1  0  0  0
  8 38  1  0  0  0
  9 14  1  0  0  0
  9 39  1  0  0  0
 10 40  1  0  0  0
 10 41  1  0  0  0
 10 42  1  0  0  0
 11 43  1  0  0  0
 11 44  1  0  0  0
 11 45  1  0  0  0
 12 19  1  0  0  0
 12 46  1  0  0  0
 13 19  1  0  0  0
 13 47  1  0  0  0
 13 48  1  0  0  0
 14 15  1  0  0  0
 14 16  1  0  0  0
 14 49  1  0  0  0
 15 50  1  0  0  0
 15 51  1  0  0  0
 15 52  1  0  0  0
 16 17  1  0  0  0
 16 53  1  0  0  0
 16 54  1  0  0  0
 17 18  1  0  0  0
 17 55  1  0  0  0
 17 56  1  0  0  0
 18 21  2  0  0  0
 18 22  1  0  0  0
 19 20  1  0  0  0
 19 57  1  0  0  0
 20 23  1  0  0  0
 20 58  1  0  0  0
 20 59  1  0  0  0
 23 24  1  0  0  0
 23 60  1  0  0  0
 24 25  1  0  0  0
 24 61  1  0  0  0
 24 62  1  0  0  0
 25 26  1  0  0  0
 25 63  1  0  0  0
 25 64  1  0  0  0
 26 27  1  0  0  0
 26 65  1  0  0  0
 27 66  1  0  0  0
M  CHG  1  22  -1
M  END
> <s_m_source_file>
../4q0a_ligand.sdf

> <i_m_source_file_index>
1

> <s_epik_input>
W0NIMl0xW0NIMl1bQ0BASF0oW09IXSlbQ0gyXVtDQEhdKFtDQF0xMltDSDNdKVtDSDJdW0NIMl1bQ0BIXTNbQ0BIXTRbQ0BdKFtDSDNdKShbQ0gyXVtDSDJdW0NASF0yMylbQ0BIXShbQ0gyXVtDSDJdNClbQ0BIXShbQ0gzXSlbQ0gyXVtDSDJdQyg9TylbT0hd

> <s_epik_cmdline>
J2VwaWtfYXBwJywgJy1pbWFlJywgJ2xpZ2FuZF9wcm8ubWFlJywgJy1vbWFlJywgJ2xpZ2FuZF9wcmVwLm1hZScsICctbXMnLCAnMScsICctcGgnLCAnNycsICctcGh0JywgJzAuNScsICctbnQn

> <r_lp_tautomer_probability>
1

> <r_epik_Ionization_Penalty>
  0.0059

> <r_epik_Ionization_Penalty_Charging>
  0.0059

> <r_epik_Ionization_Penalty_Neutral>
  0.0000

> <r_epik_State_Penalty>
 -0.0000

> <r_epik_Charging_Adjusted_Penalty>
0.00586384311406739

> <i_epik_Tot_Q>
-1

> <i_epik_Tot_abs_Q>
1

$$$$
