4q0k_ligand
                    3D
 Schrodinger Suite 2020-3.
 46 50  0  0  1  0            999 V2000
    0.8840   20.1060   34.2810 O   0  0  0  0  0  0
    1.4510   20.8740   33.4710 C   0  0  0  0  0  0
    1.5120   20.6320   32.2440 O   0  5  0  0  0  0
    2.0690   22.1480   34.0220 C   0  0  1  0  0  0
    3.3410   22.6290   33.2990 C   0  0  1  0  0  0
    1.0960   23.3550   33.9870 C   0  0  1  0  0  0
   -0.0350   23.3290   32.9440 C   0  0  0  0  0  0
   -0.8630   24.4790   33.4340 C   0  0  0  0  0  0
   -1.7660   25.1440   32.7370 C   0  0  0  0  0  0
   -0.5660   24.7590   34.8980 C   0  0  2  0  0  0
    0.2620   23.5120   35.2620 C   0  0  0  0  0  0
   -1.7820   24.9190   35.6560 O   0  0  0  0  0  0
    0.3060   26.0190   35.0630 C   0  0  0  0  0  0
    1.7840   25.7070   34.8180 C   0  0  0  0  0  0
    1.9910   24.6040   33.7730 C   0  0  1  0  0  0
    3.4270   24.1040   33.7260 C   0  0  1  0  0  0
    3.9990   23.9280   35.1000 O   0  0  0  0  0  0
    4.4740   24.8370   32.9360 C   0  0  0  0  0  0
    5.6600   24.2320   32.8460 C   0  0  0  0  0  0
    5.7950   22.7340   32.9670 C   0  0  2  0  0  0
    5.6930   22.2210   31.6490 O   0  0  0  0  0  0
    4.6880   22.0820   33.8350 C   0  0  2  0  0  0
    4.8010   20.5560   33.9160 C   0  0  0  0  0  0
    4.7360   22.7870   35.1730 C   0  0  0  0  0  0
    5.3320   22.5700   36.1840 O   0  0  0  0  0  0
    2.3180   21.8249   35.0436 H   0  0  0  0  0  0
    3.2399   22.3483   32.2402 H   0  0  0  0  0  0
    0.3888   23.4778   31.9399 H   0  0  0  0  0  0
   -0.5491   22.3574   32.9847 H   0  0  0  0  0  0
   -1.9366   24.8956   31.6791 H   0  0  0  0  0  0
   -2.3477   25.9464   33.2142 H   0  0  0  0  0  0
   -0.3430   22.6067   35.4182 H   0  0  0  0  0  0
    0.9315   23.6585   36.1224 H   0  0  0  0  0  0
   -2.5358   24.1180   35.6619 H   0  0  0  0  0  0
   -0.0149   26.7841   34.3408 H   0  0  0  0  0  0
    0.1953   26.4103   36.0851 H   0  0  0  0  0  0
    2.2950   26.6121   34.4580 H   0  0  0  0  0  0
    2.2488   25.3726   35.7572 H   0  0  0  0  0  0
    1.7311   25.1067   32.8298 H   0  0  0  0  0  0
    4.3144   25.8099   32.4482 H   0  0  0  0  0  0
    6.5699   24.8273   32.6797 H   0  0  0  0  0  0
    6.7821   22.4894   33.3864 H   0  0  0  0  0  0
    6.3934   22.5595   30.8713 H   0  0  0  0  0  0
    4.7570   20.1308   32.9025 H   0  0  0  0  0  0
    3.9700   20.1582   34.5169 H   0  0  0  0  0  0
    5.7571   20.2836   34.3867 H   0  0  0  0  0  0
  1  2  2  0  0  0
  2  3  1  0  0  0
  2  4  1  0  0  0
  4  5  1  0  0  0
  4  6  1  0  0  0
  4 26  1  0  0  0
  5 16  1  0  0  0
  5 22  1  0  0  0
  5 27  1  0  0  0
  6  7  1  0  0  0
  6 11  1  0  0  0
  6 15  1  0  0  0
  7  8  1  0  0  0
  7 28  1  0  0  0
  7 29  1  0  0  0
  8  9  2  0  0  0
  8 10  1  0  0  0
  9 30  1  0  0  0
  9 31  1  0  0  0
 10 11  1  0  0  0
 10 12  1  0  0  0
 10 13  1  0  0  0
 11 32  1  0  0  0
 11 33  1  0  0  0
 12 34  1  0  0  0
 13 14  1  0  0  0
 13 35  1  0  0  0
 13 36  1  0  0  0
 14 15  1  0  0  0
 14 37  1  0  0  0
 14 38  1  0  0  0
 15 16  1  0  0  0
 15 39  1  0  0  0
 16 17  1  0  0  0
 16 18  1  0  0  0
 17 24  1  0  0  0
 18 19  2  0  0  0
 18 40  1  0  0  0
 19 20  1  0  0  0
 19 41  1  0  0  0
 20 21  1  0  0  0
 20 22  1  0  0  0
 20 42  1  0  0  0
 21 43  1  0  0  0
 22 23  1  0  0  0
 22 24  1  0  0  0
 23 44  1  0  0  0
 23 45  1  0  0  0
 23 46  1  0  0  0
 24 25  2  0  0  0
M  CHG  1   3  -1
M  END
> <s_m_source_file>
../4q0k_ligand.sdf

> <i_m_source_file_index>
1

> <s_epik_input>
W0NIXTE9W0NIXVtDQEhdKFtPSF0pW0NAQF0oW0NIM10pKEMoTzIpPU8pW0NAQEhdKFtDQEBIXTNDKD1PKVtPSF0pW0NAXTEyW0NAQEhdKFtDQF0zNDUpW0NIMl1bQ0gyXVtDQEBdKFtDSDJdNSkoW09IXSlDKFtDSDJdNCk9W0NIMl0=

> <s_epik_cmdline>
J2VwaWtfYXBwJywgJy1pbWFlJywgJ2xpZ2FuZF9wcm8ubWFlJywgJy1vbWFlJywgJ2xpZ2FuZF9wcmVwLm1hZScsICctbXMnLCAnMScsICctcGgnLCAnNycsICctcGh0JywgJzAuNScsICctbnQn

> <r_lp_tautomer_probability>
1

> <r_epik_Ionization_Penalty>
  0.0001

> <r_epik_Ionization_Penalty_Charging>
  0.0001

> <r_epik_Ionization_Penalty_Neutral>
  0.0000

> <r_epik_State_Penalty>
 -0.0000

> <r_epik_Charging_Adjusted_Penalty>
0.000149172678560146

> <i_epik_Tot_Q>
-1

> <i_epik_Tot_abs_Q>
1

> <s_epik_Chemistry_Notes>
This compound has an ester and may undergo hydrolysis at high or low pH.

$$$$
