4q0l_ligand
                    3D
 Schrodinger Suite 2020-3.
 51 52  0  0  1  0            999 V2000
   -2.4140  -17.8860   -6.4700 F   0  0  0  0  0  0
   -1.0730  -17.7060   -6.5480 C   0  0  0  0  0  0
   -0.5530  -16.6930   -5.7520 C   0  0  0  0  0  0
   -1.6730  -15.7960   -4.7570 S   0  0  0  0  0  0
   -2.5330  -16.8000   -3.9820 O   0  0  0  0  0  0
   -1.1440  -14.8030   -3.3810 N   0  0  0  0  0  0
   -2.6510  -14.9720   -5.6140 O   0  0  0  0  0  0
    0.7910  -16.4090   -5.6690 C   0  0  0  0  0  0
    1.2270  -15.4000   -4.8720 F   0  0  0  0  0  0
    1.6500  -17.1530   -6.4590 C   0  0  0  0  0  0
    2.9470  -16.7780   -6.3370 F   0  0  0  0  0  0
   -0.2160  -18.5070   -7.3630 C   0  0  0  0  0  0
    1.1710  -18.2050   -7.3110 C   0  0  0  0  0  0
    2.3730  -19.1170   -8.2980 S   0  0  0  0  0  0
    3.5260  -19.2280   -7.3160 O   0  0  0  0  0  0
    2.9860  -18.0540   -9.2590 O   0  0  0  0  0  0
    2.3030  -20.7200   -9.1910 C   0  0  0  0  0  0
    1.2430  -21.6990   -8.6890 C   0  0  0  0  0  0
    1.7110  -23.0030   -8.4210 O   0  0  0  0  0  0
   -0.7410  -19.5350   -8.2260 N   0  0  0  0  0  0
   -1.9730  -19.3580   -9.0260 C   0  0  0  0  0  0
   -1.7700  -18.7800  -10.4530 C   0  0  0  0  0  0
   -0.8540  -19.5040  -11.4310 C   0  0  0  0  0  0
   -1.6950  -20.3960  -12.3550 C   0  0  0  0  0  0
   -1.5980  -21.8740  -11.9920 C   0  0  0  0  0  0
   -1.7960  -22.1820  -10.5100 C   0  0  0  0  0  0
   -3.1160  -21.5600  -10.0350 C   0  0  0  0  0  0
   -2.9080  -20.5900   -8.8680 C   0  0  0  0  0  0
   -2.0202  -14.3356   -2.9079 H   0  0  0  0  0  0
   -0.4578  -14.0201   -3.7362 H   0  0  0  0  0  0
    2.0833  -20.5385  -10.2534 H   0  0  0  0  0  0
    3.2715  -21.2334   -9.0994 H   0  0  0  0  0  0
    0.8105  -21.3217   -7.7506 H   0  0  0  0  0  0
    0.4495  -21.7993   -9.4442 H   0  0  0  0  0  0
    1.0153  -23.7728   -8.0556 H   0  0  0  0  0  0
   -0.1846  -20.4826   -8.2753 H   0  0  0  0  0  0
   -2.4835  -18.5095   -8.5471 H   0  0  0  0  0  0
   -2.7390  -18.7349  -10.9716 H   0  0  0  0  0  0
   -1.3449  -17.7680  -10.3817 H   0  0  0  0  0  0
   -0.3048  -18.7659  -12.0340 H   0  0  0  0  0  0
   -0.1391  -20.1258  -10.8722 H   0  0  0  0  0  0
   -2.7524  -20.1005  -12.2870 H   0  0  0  0  0  0
   -1.3479  -20.2798  -13.3923 H   0  0  0  0  0  0
   -2.3683  -22.4372  -12.5391 H   0  0  0  0  0  0
   -0.6026  -22.2541  -12.2651 H   0  0  0  0  0  0
   -1.8284  -23.2717  -10.3631 H   0  0  0  0  0  0
   -0.9607  -21.7589   -9.9328 H   0  0  0  0  0  0
   -3.5789  -21.0046  -10.8640 H   0  0  0  0  0  0
   -3.7976  -22.3564   -9.7015 H   0  0  0  0  0  0
   -2.5341  -21.2325   -8.0572 H   0  0  0  0  0  0
   -3.9256  -20.2494   -8.6263 H   0  0  0  0  0  0
  1  2  1  0  0  0
  2  3  2  0  0  0
  2 12  1  0  0  0
  3  4  1  0  0  0
  3  8  1  0  0  0
  4  5  2  0  0  0
  4  6  1  0  0  0
  4  7  2  0  0  0
  6 29  1  0  0  0
  6 30  1  0  0  0
  8  9  1  0  0  0
  8 10  2  0  0  0
 10 11  1  0  0  0
 10 13  1  0  0  0
 12 13  2  0  0  0
 12 20  1  0  0  0
 13 14  1  0  0  0
 14 15  2  0  0  0
 14 16  2  0  0  0
 14 17  1  0  0  0
 17 18  1  0  0  0
 17 31  1  0  0  0
 17 32  1  0  0  0
 18 19  1  0  0  0
 18 33  1  0  0  0
 18 34  1  0  0  0
 19 35  1  0  0  0
 20 21  1  0  0  0
 20 36  1  0  0  0
 21 22  1  0  0  0
 21 28  1  0  0  0
 21 37  1  0  0  0
 22 23  1  0  0  0
 22 38  1  0  0  0
 22 39  1  0  0  0
 23 24  1  0  0  0
 23 40  1  0  0  0
 23 41  1  0  0  0
 24 25  1  0  0  0
 24 42  1  0  0  0
 24 43  1  0  0  0
 25 26  1  0  0  0
 25 44  1  0  0  0
 25 45  1  0  0  0
 26 27  1  0  0  0
 26 46  1  0  0  0
 26 47  1  0  0  0
 27 28  1  0  0  0
 27 48  1  0  0  0
 27 49  1  0  0  0
 28 50  1  0  0  0
 28 51  1  0  0  0
M  END
> <s_m_source_file>
../4q0l_ligand.sdf

> <i_m_source_file_index>
1

> <s_epik_input>
RmMxYyhTKD1PKSg9TylbTkgyXSljKEYpYyhGKWMoUyg9TykoPU8pW0NIMl1bQ0gyXVtPSF0pYzFbTkhdW0NIXTJbQ0gyXVtDSDJdW0NIMl1bQ0gyXVtDSDJdW0NIMl1bQ0gyXTI=

> <s_epik_cmdline>
J2VwaWtfYXBwJywgJy1pbWFlJywgJ2xpZ2FuZF9wcm8ubWFlJywgJy1vbWFlJywgJ2xpZ2FuZF9wcmVwLm1hZScsICctbXMnLCAnMScsICctcGgnLCAnNycsICctcGh0JywgJzAuNScsICctbnQn

> <r_epik_Ionization_Penalty>
  0.0106

> <r_epik_Ionization_Penalty_Charging>
  0.0000

> <r_epik_Ionization_Penalty_Neutral>
  0.0106

> <r_epik_State_Penalty>
  0.0080

> <r_epik_Charging_Adjusted_Penalty>
0.00803150182698124

> <i_epik_Tot_Q>
0

> <i_epik_Tot_abs_Q>
0

$$$$
