4q18_ligand
                    3D
 Schrodinger Suite 2020-3.
 62 64  0  0  1  0            999 V2000
  -37.4260    7.9800    0.6970 C   0  0  0  0  0  0
  -37.5840    7.8320   -0.8130 C   0  0  0  0  0  0
  -39.0670    8.0580   -1.1900 C   0  0  0  0  0  0
  -37.1790    6.5010   -1.1970 O   0  0  0  0  0  0
  -36.6530    8.8160   -1.5130 C   0  0  0  0  0  0
  -37.5700    9.7590   -2.0790 O   0  0  0  0  0  0
  -37.0660   10.6620   -2.9510 C   0  0  0  0  0  0
  -35.7110   10.9480   -3.0680 C   0  0  0  0  0  0
  -38.0110   11.3040   -3.7400 C   0  0  0  0  0  0
  -39.3170   10.9410   -3.5440 O   0  0  0  0  0  0
  -40.3280   11.8480   -3.9920 C   0  0  0  0  0  0
  -37.5940   12.2660   -4.6710 C   0  0  0  0  0  0
  -36.2450   12.5530   -4.7950 C   0  0  0  0  0  0
  -35.3080   11.9080   -3.9930 C   0  0  0  0  0  0
  -34.0310   12.1830   -4.1090 C   0  0  0  0  0  0
  -33.1250   11.7780   -3.2230 N   0  0  0  0  0  0
  -33.3080   13.0430   -5.3380 S   0  0  0  0  0  0
  -31.8230   12.9140   -4.7030 C   0  0  0  0  0  0
  -30.5450   13.4320   -5.3450 C   0  0  0  0  0  0
  -30.1610   14.8240   -4.8870 C   0  0  0  0  0  0
  -30.8200   15.7840   -5.8530 C   0  0  0  0  0  0
  -31.9040   12.2020   -3.5740 C   0  0  0  0  0  0
  -30.7350   11.8730   -2.7270 C   0  0  0  0  0  0
  -29.9730   10.4540   -3.6090 S   0  0  0  0  0  0
  -28.2100   10.8870   -3.8080 C   0  0  0  0  0  0
  -27.6970   12.1610   -3.6700 C   0  0  0  0  0  0
  -27.3350    9.9050   -4.0980 N   0  0  0  0  0  0
  -26.0090   10.1190   -4.2680 C   0  0  0  0  0  0
  -25.1930    9.0900   -4.5480 N   0  0  0  0  0  0
  -25.5080   11.3480   -4.1610 N   0  3  0  0  0  0
  -26.3460   12.3720   -3.8510 C   0  0  0  0  0  0
  -25.8890   13.6260   -3.7280 N   0  0  0  0  0  0
  -38.0958    7.2720    1.2069 H   0  0  0  0  0  0
  -37.6839    9.0073    0.9937 H   0  0  0  0  0  0
  -36.3843    7.7674    0.9792 H   0  0  0  0  0  0
  -39.6954    7.3262   -0.6612 H   0  0  0  0  0  0
  -39.1925    7.9326   -2.2756 H   0  0  0  0  0  0
  -39.3677    9.0760   -0.9013 H   0  0  0  0  0  0
  -37.7193    5.6269   -0.8044 H   0  0  0  0  0  0
  -35.9758    9.2691   -0.7740 H   0  0  0  0  0  0
  -36.0626    8.2844   -2.2738 H   0  0  0  0  0  0
  -34.9783   10.4313   -2.4482 H   0  0  0  0  0  0
  -41.3207   11.4289   -3.7707 H   0  0  0  0  0  0
  -40.2283   12.0016   -5.0766 H   0  0  0  0  0  0
  -40.2126   12.8111   -3.4731 H   0  0  0  0  0  0
  -38.3254   12.7835   -5.2918 H   0  0  0  0  0  0
  -35.9142   13.2901   -5.5267 H   0  0  0  0  0  0
  -29.7105   12.7606   -5.0943 H   0  0  0  0  0  0
  -30.6716   13.4675   -6.4371 H   0  0  0  0  0  0
  -30.5228   14.9852   -3.8608 H   0  0  0  0  0  0
  -29.0663   14.9288   -4.9105 H   0  0  0  0  0  0
  -30.5743   16.8176   -5.5677 H   0  0  0  0  0  0
  -31.9107   15.6444   -5.8219 H   0  0  0  0  0  0
  -30.4541   15.5880   -6.8717 H   0  0  0  0  0  0
  -30.0662   12.7445   -2.6706 H   0  0  0  0  0  0
  -31.0777   11.6079   -1.7159 H   0  0  0  0  0  0
  -28.3544   12.9937   -3.4200 H   0  0  0  0  0  0
  -25.6016    8.0726   -4.6375 H   0  0  0  0  0  0
  -24.1160    9.2644   -4.6879 H   0  0  0  0  0  0
  -26.5825   14.4419   -3.4765 H   0  0  0  0  0  0
  -24.8204   13.8392   -3.8785 H   0  0  0  0  0  0
  -24.4336   11.5200   -4.3227 H   0  0  0  0  0  0
  1  2  1  0  0  0
  1 33  1  0  0  0
  1 34  1  0  0  0
  1 35  1  0  0  0
  2  3  1  0  0  0
  2  4  1  0  0  0
  2  5  1  0  0  0
  3 36  1  0  0  0
  3 37  1  0  0  0
  3 38  1  0  0  0
  4 39  1  0  0  0
  5  6  1  0  0  0
  5 40  1  0  0  0
  5 41  1  0  0  0
  6  7  1  0  0  0
  7  8  2  0  0  0
  7  9  1  0  0  0
  8 14  1  0  0  0
  8 42  1  0  0  0
  9 10  1  0  0  0
  9 12  2  0  0  0
 10 11  1  0  0  0
 11 43  1  0  0  0
 11 44  1  0  0  0
 11 45  1  0  0  0
 12 13  1  0  0  0
 12 46  1  0  0  0
 13 14  2  0  0  0
 13 47  1  0  0  0
 14 15  1  0  0  0
 15 16  2  0  0  0
 15 17  1  0  0  0
 16 22  1  0  0  0
 17 18  1  0  0  0
 18 19  1  0  0  0
 18 22  2  0  0  0
 19 20  1  0  0  0
 19 48  1  0  0  0
 19 49  1  0  0  0
 20 21  1  0  0  0
 20 50  1  0  0  0
 20 51  1  0  0  0
 21 52  1  0  0  0
 21 53  1  0  0  0
 21 54  1  0  0  0
 22 23  1  0  0  0
 23 24  1  0  0  0
 23 55  1  0  0  0
 23 56  1  0  0  0
 24 25  1  0  0  0
 25 26  2  0  0  0
 25 27  1  0  0  0
 26 31  1  0  0  0
 26 57  1  0  0  0
 27 28  2  0  0  0
 28 29  1  0  0  0
 28 30  1  0  0  0
 29 58  1  0  0  0
 29 59  1  0  0  0
 30 31  2  0  0  0
 30 62  1  0  0  0
 31 32  1  0  0  0
 32 60  1  0  0  0
 32 61  1  0  0  0
M  CHG  1  30   1
M  END
> <s_m_source_file>
../4q18_ligand.sdf

> <i_m_source_file_index>
1

> <s_epik_input>
W0NIM11DKFtDSDNdKShbT0hdKVtDSDJdT2MxW2NIXWMoW2NIXVtjSF1jMU9bQ0gzXSktYzJuYyhjKHMyKVtDSDJdW0NIMl1bQ0gzXSlbQ0gyXVNjM1tjSF1jKFtOSDJdKW5jKG4zKVtOSDJd

> <s_epik_cmdline>
J2VwaWtfYXBwJywgJy1pbWFlJywgJ2xpZ2FuZF9wcm8ubWFlJywgJy1vbWFlJywgJ2xpZ2FuZF9wcmVwLm1hZScsICctbXMnLCAnMScsICctcGgnLCAnNycsICctcGh0JywgJzAuNScsICctbnQn

> <r_lp_tautomer_probability>
1

> <r_epik_Ionization_Penalty>
  0.0929

> <r_epik_Ionization_Penalty_Charging>
  0.0928

> <r_epik_Ionization_Penalty_Neutral>
  0.0000

> <r_epik_State_Penalty>
 -0.0000

> <r_epik_Charging_Adjusted_Penalty>
0.0928319016214298

> <i_epik_Tot_Q>
1

> <i_epik_Tot_abs_Q>
1

$$$$
