4q1a_ligand
                    3D
 Schrodinger Suite 2020-3.
 55 57  0  0  1  0            999 V2000
  -36.0320    6.7700   -0.7080 O   0  0  0  0  0  0
  -36.5370    7.6350   -1.6700 C   0  0  0  0  0  0
  -35.5070    8.7150   -1.8180 C   0  0  0  0  0  0
  -36.3450    9.8130   -2.1030 O   0  0  0  0  0  0
  -35.9270   10.7950   -2.9270 C   0  0  0  0  0  0
  -34.5930   11.1060   -3.1800 C   0  0  0  0  0  0
  -36.9640   11.4970   -3.5020 C   0  0  0  0  0  0
  -38.2060   11.0740   -3.1370 O   0  0  0  0  0  0
  -39.2400   11.1230   -4.1390 C   0  0  0  0  0  0
  -36.6990   12.5460   -4.3730 C   0  0  0  0  0  0
  -35.3660   12.8620   -4.6380 C   0  0  0  0  0  0
  -34.3130   12.1310   -4.0730 C   0  0  0  0  0  0
  -33.0410   12.4640   -4.2910 C   0  0  0  0  0  0
  -32.0980   12.0850   -3.4590 N   0  0  0  0  0  0
  -32.4030   13.4040   -5.4590 S   0  0  0  0  0  0
  -30.8370   13.2770   -4.8250 C   0  0  0  0  0  0
  -29.5900   13.8910   -5.3880 C   0  0  0  0  0  0
  -29.8310   15.3740   -5.3710 C   0  0  0  0  0  0
  -28.7770   16.0420   -4.4590 C   0  0  0  0  0  0
  -30.8680   12.4900   -3.7580 C   0  0  0  0  0  0
  -29.6920   12.1480   -2.8530 C   0  0  0  0  0  0
  -28.7800   10.6260   -3.3120 S   0  0  0  0  0  0
  -27.1010   11.1370   -3.6900 C   0  0  0  0  0  0
  -26.2170   10.1540   -3.9090 N   0  0  0  0  0  0
  -26.7170   12.4150   -3.7680 N   0  0  0  0  0  0
  -25.4480   12.7470   -4.0660 C   0  0  0  0  0  0
  -25.0950   14.0370   -4.1130 N   0  0  0  0  0  0
  -24.5080   11.7310   -4.2730 C   0  0  0  0  0  0
  -24.9360   10.4070   -4.1820 C   0  0  0  0  0  0
  -24.1270    9.3740   -4.3810 N   0  0  0  0  0  0
  -36.6070    5.8800   -0.4124 H   0  0  0  0  0  0
  -36.6845    7.0886   -2.6132 H   0  0  0  0  0  0
  -37.4998    8.0422   -1.3278 H   0  0  0  0  0  0
  -34.9427    8.8146   -0.8791 H   0  0  0  0  0  0
  -34.8173    8.4546   -2.6344 H   0  0  0  0  0  0
  -33.7889   10.5580   -2.6888 H   0  0  0  0  0  0
  -40.1838   10.7550   -3.7102 H   0  0  0  0  0  0
  -38.9538   10.4907   -4.9924 H   0  0  0  0  0  0
  -39.3718   12.1607   -4.4794 H   0  0  0  0  0  0
  -37.5102   13.1071   -4.8369 H   0  0  0  0  0  0
  -35.1387   13.6974   -5.3003 H   0  0  0  0  0  0
  -28.7300   13.6162   -4.7596 H   0  0  0  0  0  0
  -29.4292   13.5215   -6.4115 H   0  0  0  0  0  0
  -29.7438   15.7714   -6.3930 H   0  0  0  0  0  0
  -30.8403   15.5771   -4.9835 H   0  0  0  0  0  0
  -28.9449   17.1289   -4.4397 H   0  0  0  0  0  0
  -27.7698   15.8334   -4.8489 H   0  0  0  0  0  0
  -28.8662   15.6391   -3.4394 H   0  0  0  0  0  0
  -28.9625   12.9710   -2.8731 H   0  0  0  0  0  0
  -30.0517   12.0019   -1.8238 H   0  0  0  0  0  0
  -25.8496   14.8201   -3.9474 H   0  0  0  0  0  0
  -24.0503   14.3143   -4.3172 H   0  0  0  0  0  0
  -23.4686   11.9684   -4.4994 H   0  0  0  0  0  0
  -24.5144    8.3479   -4.2973 H   0  0  0  0  0  0
  -23.0690    9.5439   -4.6296 H   0  0  0  0  0  0
  1  2  1  0  0  0
  1 31  1  0  0  0
  2  3  1  0  0  0
  2 32  1  0  0  0
  2 33  1  0  0  0
  3  4  1  0  0  0
  3 34  1  0  0  0
  3 35  1  0  0  0
  4  5  1  0  0  0
  5  6  2  0  0  0
  5  7  1  0  0  0
  6 12  1  0  0  0
  6 36  1  0  0  0
  7  8  1  0  0  0
  7 10  2  0  0  0
  8  9  1  0  0  0
  9 37  1  0  0  0
  9 38  1  0  0  0
  9 39  1  0  0  0
 10 11  1  0  0  0
 10 40  1  0  0  0
 11 12  2  0  0  0
 11 41  1  0  0  0
 12 13  1  0  0  0
 13 14  2  0  0  0
 13 15  1  0  0  0
 14 20  1  0  0  0
 15 16  1  0  0  0
 16 17  1  0  0  0
 16 20  2  0  0  0
 17 18  1  0  0  0
 17 42  1  0  0  0
 17 43  1  0  0  0
 18 19  1  0  0  0
 18 44  1  0  0  0
 18 45  1  0  0  0
 19 46  1  0  0  0
 19 47  1  0  0  0
 19 48  1  0  0  0
 20 21  1  0  0  0
 21 22  1  0  0  0
 21 49  1  0  0  0
 21 50  1  0  0  0
 22 23  1  0  0  0
 23 24  2  0  0  0
 23 25  1  0  0  0
 24 29  1  0  0  0
 25 26  2  0  0  0
 26 27  1  0  0  0
 26 28  1  0  0  0
 27 51  1  0  0  0
 27 52  1  0  0  0
 28 29  2  0  0  0
 28 53  1  0  0  0
 29 30  1  0  0  0
 30 54  1  0  0  0
 30 55  1  0  0  0
M  END
> <s_m_source_file>
../4q1a_ligand.sdf

> <i_m_source_file_index>
1

> <s_epik_input>
W09IXVtDSDJdW0NIMl1PYzFbY0hdYyhbY0hdW2NIXWMxT1tDSDNdKS1jMm5jKGMoczIpW0NIMl1bQ0gyXVtDSDNdKVtDSDJdU2MzbmMoW05IMl0pW2NIXWMobjMpW05IMl0=

> <s_epik_cmdline>
J2VwaWtfYXBwJywgJy1pbWFlJywgJ2xpZ2FuZF9wcm8ubWFlJywgJy1vbWFlJywgJ2xpZ2FuZF9wcmVwLm1hZScsICctbXMnLCAnMScsICctcGgnLCAnNycsICctcGh0JywgJzAuNScsICctbnQn

> <r_lp_tautomer_probability>
1

> <r_epik_Ionization_Penalty>
  0.0026

> <r_epik_Ionization_Penalty_Charging>
  0.0000

> <r_epik_Ionization_Penalty_Neutral>
  0.0026

> <r_epik_State_Penalty>
 -0.0000

> <r_epik_Charging_Adjusted_Penalty>
0

> <i_epik_Tot_Q>
0

> <i_epik_Tot_abs_Q>
0

$$$$
