4q1b_ligand
                    3D
 Schrodinger Suite 2020-3.
 58 60  0  0  1  0            999 V2000
  -37.7080   10.2310    3.2900 C   0  0  0  0  0  0
  -36.4460    9.0000    3.5560 S   0  0  0  0  0  0
  -37.0190    7.8890    4.4460 O   0  0  0  0  0  0
  -35.2610    9.6430    4.2770 O   0  0  0  0  0  0
  -35.8400    8.3120    2.0000 N   0  0  3  0  0  0
  -36.7360    8.5500    0.8480 C   0  0  0  0  0  0
  -36.0010    9.0080   -0.4320 C   0  0  0  0  0  0
  -36.9370    9.7030   -1.2970 O   0  0  0  0  0  0
  -36.5570   10.5160   -2.3370 C   0  0  0  0  0  0
  -35.2270   10.9250   -2.5800 C   0  0  0  0  0  0
  -37.5810   10.9690   -3.1700 C   0  0  0  0  0  0
  -37.2980   11.8200   -4.2270 C   0  0  0  0  0  0
  -35.9830   12.2210   -4.4690 C   0  0  0  0  0  0
  -34.9280   11.7850   -3.6560 C   0  0  0  0  0  0
  -33.6680   12.2200   -3.9020 C   0  0  0  0  0  0
  -32.5870   11.9650   -3.1610 N   0  0  0  0  0  0
  -33.2080   13.2110   -5.1400 S   0  0  0  0  0  0
  -31.6870   13.2800   -4.7340 C   0  0  0  0  0  0
  -30.6140   14.0470   -5.5010 C   0  0  0  0  0  0
  -30.9910   15.4990   -5.5270 C   0  0  0  0  0  0
  -29.9580   16.2390   -6.3680 C   0  0  0  0  0  0
  -31.4940   12.5570   -3.6470 C   0  0  0  0  0  0
  -30.1210   12.3820   -3.0230 C   0  0  0  0  0  0
  -29.3280   10.8930   -3.7720 S   0  0  0  0  0  0
  -27.6170   11.3580   -3.8620 C   0  0  0  0  0  0
  -27.2570   12.6300   -3.7520 N   0  0  0  0  0  0
  -26.6760   10.4160   -4.0210 N   0  0  0  0  0  0
  -25.3630   10.7240   -4.0810 C   0  0  0  0  0  0
  -24.4580    9.7600   -4.2460 N   0  0  0  0  0  0
  -24.9610   12.0510   -3.9820 C   0  0  0  0  0  0
  -25.9680   12.9970   -3.8030 C   0  0  0  0  0  0
  -25.6570   14.2820   -3.6950 N   0  0  0  0  0  0
  -38.0482   10.6228    4.2599 H   0  0  0  0  0  0
  -38.5577    9.7763    2.7597 H   0  0  0  0  0  0
  -37.2966   11.0533    2.6863 H   0  0  0  0  0  0
  -34.9880    7.6232    1.9011 H   0  0  0  0  0  0
  -37.2711    7.6210    0.6017 H   0  0  0  0  0  0
  -37.4628    9.3347    1.1047 H   0  0  0  0  0  0
  -35.1776    9.6847   -0.1597 H   0  0  0  0  0  0
  -35.5959    8.1299   -0.9563 H   0  0  0  0  0  0
  -34.4257   10.5728   -1.9304 H   0  0  0  0  0  0
  -38.6080   10.6522   -2.9886 H   0  0  0  0  0  0
  -38.1030   12.1764   -4.8697 H   0  0  0  0  0  0
  -35.7726   12.8861   -5.3065 H   0  0  0  0  0  0
  -29.6435   13.9207   -4.9989 H   0  0  0  0  0  0
  -30.5488   13.6583   -6.5280 H   0  0  0  0  0  0
  -31.9916   15.6101   -5.9702 H   0  0  0  0  0  0
  -30.9987   15.8943   -4.5005 H   0  0  0  0  0  0
  -30.2121   17.3087   -6.4032 H   0  0  0  0  0  0
  -29.9546   15.8292   -7.3888 H   0  0  0  0  0  0
  -28.9617   16.1133   -5.9191 H   0  0  0  0  0  0
  -29.5107   13.2749   -3.2234 H   0  0  0  0  0  0
  -30.2266   12.2463   -1.9365 H   0  0  0  0  0  0
  -24.7798    8.7110   -4.3239 H   0  0  0  0  0  0
  -23.3891   10.0132   -4.3043 H   0  0  0  0  0  0
  -23.9109   12.3370   -4.0414 H   0  0  0  0  0  0
  -26.4510   15.0300   -3.5536 H   0  0  0  0  0  0
  -24.6051   14.5995   -3.7468 H   0  0  0  0  0  0
  1  2  1  0  0  0
  1 33  1  0  0  0
  1 34  1  0  0  0
  1 35  1  0  0  0
  2  3  2  0  0  0
  2  4  2  0  0  0
  2  5  1  0  0  0
  5  6  1  0  0  0
  5 36  1  0  0  0
  6  7  1  0  0  0
  6 37  1  0  0  0
  6 38  1  0  0  0
  7  8  1  0  0  0
  7 39  1  0  0  0
  7 40  1  0  0  0
  8  9  1  0  0  0
  9 10  2  0  0  0
  9 11  1  0  0  0
 10 14  1  0  0  0
 10 41  1  0  0  0
 11 12  2  0  0  0
 11 42  1  0  0  0
 12 13  1  0  0  0
 12 43  1  0  0  0
 13 14  2  0  0  0
 13 44  1  0  0  0
 14 15  1  0  0  0
 15 16  2  0  0  0
 15 17  1  0  0  0
 16 22  1  0  0  0
 17 18  1  0  0  0
 18 19  1  0  0  0
 18 22  2  0  0  0
 19 20  1  0  0  0
 19 45  1  0  0  0
 19 46  1  0  0  0
 20 21  1  0  0  0
 20 47  1  0  0  0
 20 48  1  0  0  0
 21 49  1  0  0  0
 21 50  1  0  0  0
 21 51  1  0  0  0
 22 23  1  0  0  0
 23 24  1  0  0  0
 23 52  1  0  0  0
 23 53  1  0  0  0
 24 25  1  0  0  0
 25 26  2  0  0  0
 25 27  1  0  0  0
 26 31  1  0  0  0
 27 28  2  0  0  0
 28 29  1  0  0  0
 28 30  1  0  0  0
 29 54  1  0  0  0
 29 55  1  0  0  0
 30 31  2  0  0  0
 30 56  1  0  0  0
 31 32  1  0  0  0
 32 57  1  0  0  0
 32 58  1  0  0  0
M  END
> <s_m_source_file>
../4q1b_ligand.sdf

> <i_m_source_file_index>
1

> <s_epik_input>
W0NIM11TKD1PKSg9TylbTkhdW0NIMl1bQ0gyXU9jMVtjSF1jKFtjSF1bY0hdW2NIXTEpLWMybmMoYyhzMilbQ0gyXVtDSDJdW0NIM10pW0NIMl1TYzNuYyhbTkgyXSlbY0hdYyhuMylbTkgyXQ==

> <s_epik_cmdline>
J2VwaWtfYXBwJywgJy1pbWFlJywgJ2xpZ2FuZF9wcm8ubWFlJywgJy1vbWFlJywgJ2xpZ2FuZF9wcmVwLm1hZScsICctbXMnLCAnMScsICctcGgnLCAnNycsICctcGh0JywgJzAuNScsICctbnQn

> <r_lp_tautomer_probability>
1

> <r_epik_Ionization_Penalty>
  0.0026

> <r_epik_Ionization_Penalty_Charging>
  0.0000

> <r_epik_Ionization_Penalty_Neutral>
  0.0026

> <r_epik_State_Penalty>
 -0.0000

> <r_epik_Charging_Adjusted_Penalty>
0

> <i_epik_Tot_Q>
0

> <i_epik_Tot_abs_Q>
0

$$$$
