4q1c_ligand
                    3D
 Schrodinger Suite 2020-3.
 59 61  0  0  1  0            999 V2000
  -35.1420    6.9480   -0.3300 O   0  0  0  0  0  0
  -36.0670    7.6760   -1.1700 C   0  0  0  0  0  0
  -35.3310    8.8470   -1.8170 C   0  0  0  0  0  0
  -36.2750    9.9110   -2.0350 O   0  0  0  0  0  0
  -35.8510   10.8870   -2.9070 C   0  0  0  0  0  0
  -34.5110   11.2370   -3.0660 C   0  0  0  0  0  0
  -36.8360   11.5670   -3.6070 C   0  0  0  0  0  0
  -38.1180   11.1570   -3.3750 O   0  0  0  0  0  0
  -39.1690   11.9960   -3.7940 C   0  0  0  0  0  0
  -39.9930   11.0420   -4.6540 C   0  0  0  0  0  0
  -40.5260    9.9900   -3.8330 O   0  0  0  0  0  0
  -36.4910   12.5840   -4.4820 C   0  0  0  0  0  0
  -35.1460   12.9050   -4.6320 C   0  0  0  0  0  0
  -34.1480   12.2350   -3.9440 C   0  0  0  0  0  0
  -32.8530   12.5860   -4.0910 C   0  0  0  0  0  0
  -31.9130   12.1880   -3.2640 N   0  0  0  0  0  0
  -32.1930   13.5460   -5.2210 S   0  0  0  0  0  0
  -30.7050   13.4600   -4.6340 C   0  0  0  0  0  0
  -29.5500   14.1970   -5.2350 C   0  0  0  0  0  0
  -29.4630   15.3620   -4.2640 C   0  0  0  0  0  0
  -28.6160   16.4850   -4.8410 C   0  0  0  0  0  0
  -30.7000   12.6560   -3.5600 C   0  0  0  0  0  0
  -29.5100   12.2890   -2.7060 C   0  0  0  0  0  0
  -28.6580   10.7410   -3.2760 S   0  0  0  0  0  0
  -27.0050   11.1520   -3.6360 C   0  0  0  0  0  0
  -26.1360   10.1690   -3.9360 N   0  0  0  0  0  0
  -26.6260   12.4190   -3.6480 N   0  0  0  0  0  0
  -25.3450   12.7410   -3.9460 C   0  0  0  0  0  0
  -24.9830   14.0150   -3.9660 N   0  0  0  0  0  0
  -24.4210   11.7510   -4.2280 C   0  0  0  0  0  0
  -24.8580   10.4350   -4.2080 C   0  0  0  0  0  0
  -24.0220    9.4230   -4.4470 N   0  0  0  0  0  0
  -35.4841    6.0631    0.2267 H   0  0  0  0  0  0
  -36.4589    7.0065   -1.9499 H   0  0  0  0  0  0
  -36.8997    8.0527   -0.5578 H   0  0  0  0  0  0
  -34.5263    9.1883   -1.1492 H   0  0  0  0  0  0
  -34.8994    8.5241   -2.7759 H   0  0  0  0  0  0
  -33.7445   10.7172   -2.4913 H   0  0  0  0  0  0
  -39.7131   12.3694   -2.9140 H   0  0  0  0  0  0
  -38.7572   12.8457   -4.3582 H   0  0  0  0  0  0
  -40.8207   11.5937   -5.1236 H   0  0  0  0  0  0
  -39.3526   10.6067   -5.4353 H   0  0  0  0  0  0
  -41.1501    9.2038   -4.2829 H   0  0  0  0  0  0
  -37.2572   13.1212   -5.0410 H   0  0  0  0  0  0
  -34.8685   13.7097   -5.3129 H   0  0  0  0  0  0
  -28.6627   13.5469   -5.2398 H   0  0  0  0  0  0
  -29.7972   14.4875   -6.2667 H   0  0  0  0  0  0
  -30.4733   15.7479   -4.0628 H   0  0  0  0  0  0
  -29.0064   15.0217   -3.3229 H   0  0  0  0  0  0
  -28.5681   17.3152   -4.1210 H   0  0  0  0  0  0
  -29.0670   16.8392   -5.7797 H   0  0  0  0  0  0
  -27.6001   16.1130   -5.0398 H   0  0  0  0  0  0
  -28.7732   13.1054   -2.7335 H   0  0  0  0  0  0
  -29.8390   12.1268   -1.6689 H   0  0  0  0  0  0
  -25.7202   14.7998   -3.7413 H   0  0  0  0  0  0
  -23.9451   14.2881   -4.2073 H   0  0  0  0  0  0
  -23.3844   11.9969   -4.4582 H   0  0  0  0  0  0
  -24.3919    8.3873   -4.4256 H   0  0  0  0  0  0
  -22.9629    9.6244   -4.6654 H   0  0  0  0  0  0
  1  2  1  0  0  0
  1 33  1  0  0  0
  2  3  1  0  0  0
  2 34  1  0  0  0
  2 35  1  0  0  0
  3  4  1  0  0  0
  3 36  1  0  0  0
  3 37  1  0  0  0
  4  5  1  0  0  0
  5  6  2  0  0  0
  5  7  1  0  0  0
  6 14  1  0  0  0
  6 38  1  0  0  0
  7  8  1  0  0  0
  7 12  2  0  0  0
  8  9  1  0  0  0
  9 10  1  0  0  0
  9 39  1  0  0  0
  9 40  1  0  0  0
 10 11  1  0  0  0
 10 41  1  0  0  0
 10 42  1  0  0  0
 11 43  1  0  0  0
 12 13  1  0  0  0
 12 44  1  0  0  0
 13 14  2  0  0  0
 13 45  1  0  0  0
 14 15  1  0  0  0
 15 16  2  0  0  0
 15 17  1  0  0  0
 16 22  1  0  0  0
 17 18  1  0  0  0
 18 19  1  0  0  0
 18 22  2  0  0  0
 19 20  1  0  0  0
 19 46  1  0  0  0
 19 47  1  0  0  0
 20 21  1  0  0  0
 20 48  1  0  0  0
 20 49  1  0  0  0
 21 50  1  0  0  0
 21 51  1  0  0  0
 21 52  1  0  0  0
 22 23  1  0  0  0
 23 24  1  0  0  0
 23 53  1  0  0  0
 23 54  1  0  0  0
 24 25  1  0  0  0
 25 26  2  0  0  0
 25 27  1  0  0  0
 26 31  1  0  0  0
 27 28  2  0  0  0
 28 29  1  0  0  0
 28 30  1  0  0  0
 29 55  1  0  0  0
 29 56  1  0  0  0
 30 31  2  0  0  0
 30 57  1  0  0  0
 31 32  1  0  0  0
 32 58  1  0  0  0
 32 59  1  0  0  0
M  END
> <s_m_source_file>
../4q1c_ligand.sdf

> <i_m_source_file_index>
1

> <s_epik_input>
W09IXVtDSDJdW0NIMl1PYzFbY0hdW2NIXWMoW2NIXWMxT1tDSDJdW0NIMl1bT0hdKS1jMm5jKGMoczIpW0NIMl1bQ0gyXVtDSDNdKVtDSDJdU2MzbmMoW05IMl0pW2NIXWMobjMpW05IMl0=

> <s_epik_cmdline>
J2VwaWtfYXBwJywgJy1pbWFlJywgJ2xpZ2FuZF9wcm8ubWFlJywgJy1vbWFlJywgJ2xpZ2FuZF9wcmVwLm1hZScsICctbXMnLCAnMScsICctcGgnLCAnNycsICctcGh0JywgJzAuNScsICctbnQn

> <r_lp_tautomer_probability>
1

> <r_epik_Ionization_Penalty>
  0.0026

> <r_epik_Ionization_Penalty_Charging>
  0.0000

> <r_epik_Ionization_Penalty_Neutral>
  0.0026

> <r_epik_State_Penalty>
 -0.0000

> <r_epik_Charging_Adjusted_Penalty>
0

> <i_epik_Tot_Q>
0

> <i_epik_Tot_abs_Q>
0

$$$$
