4q1e_ligand
                    3D
 Schrodinger Suite 2020-3.
 51 53  0  0  1  0            999 V2000
   27.4870    0.2790  -13.8670 F   0  0  0  0  0  0
   27.3440    1.1740  -12.9220 C   0  0  0  0  0  0
   25.9030    1.1010  -12.5490 C   0  0  0  0  0  0
   25.8300    1.9160  -11.3640 O   0  0  0  0  0  0
   24.6850    1.7480  -10.6820 C   0  0  0  0  0  0
   24.2090    0.4700  -10.3770 C   0  0  0  0  0  0
   24.0120    2.9110  -10.2660 C   0  0  0  0  0  0
   24.5460    4.1070  -10.6090 O   0  0  0  0  0  0
   24.0330    5.3370  -10.0440 C   0  0  0  0  0  0
   22.8380    2.7850   -9.5480 C   0  0  0  0  0  0
   22.3680    1.5200   -9.2620 C   0  0  0  0  0  0
   23.0400    0.3660   -9.6610 C   0  0  0  0  0  0
   22.5360   -0.8250   -9.3500 C   0  0  0  0  0  0
   22.7460   -2.0110   -9.9720 N   0  0  0  0  0  0
   21.5890   -0.9940   -8.1510 S   0  0  0  0  0  0
   21.3530   -2.5440   -8.3070 C   0  0  0  0  0  0
   20.4650   -3.3680   -7.3990 C   0  0  0  0  0  0
   22.0540   -2.9990   -9.3570 C   0  0  0  0  0  0
   22.0360   -4.5010   -9.7600 C   0  0  1  0  0  0
   21.5240   -4.7030  -11.2010 C   0  0  0  0  0  0
   23.6660   -5.2460   -9.5660 S   0  0  0  0  0  0
   23.2940   -6.9640   -9.3310 C   0  0  0  0  0  0
   22.0120   -7.3890   -9.3690 N   0  0  0  0  0  0
   24.2930   -7.8380   -9.0860 N   0  0  0  0  0  0
   24.0070   -9.1570   -8.9210 C   0  0  0  0  0  0
   25.0090  -10.0020   -8.6890 N   0  0  0  0  0  0
   22.6980   -9.6190   -8.9690 C   0  0  0  0  0  0
   21.6870   -8.6770   -9.1990 C   0  0  0  0  0  0
   20.4070   -9.0240   -9.2310 N   0  0  0  0  0  0
   27.9990    0.9210  -12.0753 H   0  0  0  0  0  0
   27.6158    2.1659  -13.3122 H   0  0  0  0  0  0
   25.2906    1.4979  -13.3721 H   0  0  0  0  0  0
   25.6262    0.0536  -12.3581 H   0  0  0  0  0  0
   24.7499   -0.4202  -10.6981 H   0  0  0  0  0  0
   24.5983    6.1898  -10.4480 H   0  0  0  0  0  0
   24.1410    5.3108   -8.9496 H   0  0  0  0  0  0
   22.9699    5.4450  -10.3051 H   0  0  0  0  0  0
   22.2937    3.6684   -9.2140 H   0  0  0  0  0  0
   21.4373    1.4193   -8.7037 H   0  0  0  0  0  0
   20.0241   -2.7179   -6.6289 H   0  0  0  0  0  0
   21.0635   -4.1545   -6.9162 H   0  0  0  0  0  0
   19.6622   -3.8302   -7.9922 H   0  0  0  0  0  0
   21.2140   -4.9026   -9.1493 H   0  0  0  0  0  0
   20.5298   -4.2439  -11.3046 H   0  0  0  0  0  0
   21.4554   -5.7791  -11.4183 H   0  0  0  0  0  0
   22.2217   -4.2300  -11.9077 H   0  0  0  0  0  0
   26.0439   -9.6311   -8.6520 H   0  0  0  0  0  0
   24.8021  -11.0712   -8.5343 H   0  0  0  0  0  0
   22.4660  -10.6753   -8.8328 H   0  0  0  0  0  0
   19.6350   -8.2620   -9.4138 H   0  0  0  0  0  0
   20.1176  -10.0737   -9.0747 H   0  0  0  0  0  0
  1  2  1  0  0  0
  2  3  1  0  0  0
  2 30  1  0  0  0
  2 31  1  0  0  0
  3  4  1  0  0  0
  3 32  1  0  0  0
  3 33  1  0  0  0
  4  5  1  0  0  0
  5  6  2  0  0  0
  5  7  1  0  0  0
  6 12  1  0  0  0
  6 34  1  0  0  0
  7  8  1  0  0  0
  7 10  2  0  0  0
  8  9  1  0  0  0
  9 35  1  0  0  0
  9 36  1  0  0  0
  9 37  1  0  0  0
 10 11  1  0  0  0
 10 38  1  0  0  0
 11 12  2  0  0  0
 11 39  1  0  0  0
 12 13  1  0  0  0
 13 14  2  0  0  0
 13 15  1  0  0  0
 14 18  1  0  0  0
 15 16  1  0  0  0
 16 17  1  0  0  0
 16 18  2  0  0  0
 17 40  1  0  0  0
 17 41  1  0  0  0
 17 42  1  0  0  0
 18 19  1  0  0  0
 19 20  1  0  0  0
 19 21  1  0  0  0
 19 43  1  0  0  0
 20 44  1  0  0  0
 20 45  1  0  0  0
 20 46  1  0  0  0
 21 22  1  0  0  0
 22 23  2  0  0  0
 22 24  1  0  0  0
 23 28  1  0  0  0
 24 25  2  0  0  0
 25 26  1  0  0  0
 25 27  1  0  0  0
 26 47  1  0  0  0
 26 48  1  0  0  0
 27 28  2  0  0  0
 27 49  1  0  0  0
 28 29  1  0  0  0
 29 50  1  0  0  0
 29 51  1  0  0  0
M  END
> <s_m_source_file>
../4q1e_ligand.sdf

> <i_m_source_file_index>
1

> <s_epik_input>
RltDSDJdW0NIMl1PYzFbY0hdYyhbY0hdW2NIXWMxT1tDSDNdKS1jMm5jKGMoczIpW0NIM10pW0NAQEhdKFtDSDNdKVNjM25jKFtOSDJdKVtjSF1jKG4zKVtOSDJd

> <s_epik_cmdline>
J2VwaWtfYXBwJywgJy1pbWFlJywgJ2xpZ2FuZF9wcm8ubWFlJywgJy1vbWFlJywgJ2xpZ2FuZF9wcmVwLm1hZScsICctbXMnLCAnMScsICctcGgnLCAnNycsICctcGh0JywgJzAuNScsICctbnQn

> <r_lp_tautomer_probability>
1

> <r_epik_Ionization_Penalty>
  0.0036

> <r_epik_Ionization_Penalty_Charging>
  0.0000

> <r_epik_Ionization_Penalty_Neutral>
  0.0036

> <r_epik_State_Penalty>
 -0.0000

> <r_epik_Charging_Adjusted_Penalty>
0

> <i_epik_Tot_Q>
0

> <i_epik_Tot_abs_Q>
0

$$$$
