4q1f_ligand
                    3D
 Schrodinger Suite 2020-3.
 59 61  0  0  1  0            999 V2000
   10.1010  -37.5580  -17.1370 C   0  0  0  0  0  0
    8.9160  -36.5830  -16.2360 S   0  0  0  0  0  0
    7.6140  -37.3730  -16.0920 O   0  0  0  0  0  0
    8.6460  -35.2820  -16.9920 O   0  0  0  0  0  0
    9.5060  -36.2240  -14.7620 N   0  0  3  0  0  0
    8.5370  -35.4170  -14.0030 C   0  0  0  0  0  0
    9.1160  -35.0480  -12.6380 C   0  0  0  0  0  0
    9.4190  -36.2370  -11.9070 O   0  0  0  0  0  0
   10.2390  -36.0000  -10.8460 C   0  0  0  0  0  0
   10.6880  -34.6970  -10.5950 C   0  0  0  0  0  0
   10.6820  -37.0510  -10.0080 C   0  0  0  0  0  0
   10.2940  -38.3730  -10.1580 O   0  0  0  0  0  0
    9.4660  -38.9610  -11.1780 C   0  0  0  0  0  0
   11.5100  -36.7630   -8.9380 C   0  0  0  0  0  0
   11.9370  -35.4630   -8.6960 C   0  0  0  0  0  0
   11.5150  -34.4310   -9.5140 C   0  0  0  0  0  0
   11.9870  -33.2250   -9.2280 C   0  0  0  0  0  0
   11.8410  -32.0800   -9.9140 N   0  0  0  0  0  0
   12.9400  -32.9830   -7.9240 S   0  0  0  0  0  0
   13.1610  -31.4400   -8.1990 C   0  0  0  0  0  0
   13.9860  -30.4830   -7.3480 C   0  0  0  0  0  0
   12.5200  -31.0870   -9.3070 C   0  0  0  0  0  0
   12.5750  -29.6390   -9.7520 C   0  0  1  0  0  0
   13.0970  -29.5970  -11.1870 C   0  0  0  0  0  0
   10.9100  -29.0290   -9.6490 S   0  0  0  0  0  0
   11.1540  -27.3380   -9.4740 C   0  0  0  0  0  0
   12.3890  -26.8190   -9.4100 N   0  0  0  0  0  0
   10.0710  -26.5590   -9.3650 N   0  0  0  0  0  0
   10.1890  -25.2370   -9.2160 C   0  0  0  0  0  0
    9.1010  -24.4800   -9.1230 N   0  0  0  0  0  0
   11.4520  -24.6660   -9.1580 C   0  0  0  0  0  0
   12.5590  -25.4980   -9.2600 C   0  0  0  0  0  0
   13.7840  -24.9840   -9.2090 N   0  0  0  0  0  0
    9.6978  -37.7979  -18.1319 H   0  0  0  0  0  0
   10.3019  -38.4900  -16.5883 H   0  0  0  0  0  0
   11.0358  -36.9888  -17.2477 H   0  0  0  0  0  0
   10.5288  -36.3582  -14.3800 H   0  0  0  0  0  0
    8.3108  -34.4959  -14.5601 H   0  0  0  0  0  0
    7.6121  -35.9946  -13.8586 H   0  0  0  0  0  0
   10.0356  -34.4605  -12.7765 H   0  0  0  0  0  0
    8.3811  -34.4520  -12.0769 H   0  0  0  0  0  0
   10.3846  -33.8847  -11.2554 H   0  0  0  0  0  0
    9.3629  -40.0399  -10.9898 H   0  0  0  0  0  0
    9.9299  -38.8033  -12.1629 H   0  0  0  0  0  0
    8.4725  -38.4892  -11.1608 H   0  0  0  0  0  0
   11.8319  -37.5667   -8.2757 H   0  0  0  0  0  0
   12.6055  -35.2564   -7.8602 H   0  0  0  0  0  0
   14.4089  -31.0266   -6.4903 H   0  0  0  0  0  0
   13.3428  -29.6680   -6.9845 H   0  0  0  0  0  0
   14.8020  -30.0633   -7.9547 H   0  0  0  0  0  0
   13.3548  -29.1208   -9.1746 H   0  0  0  0  0  0
   14.1276  -29.9807  -11.2136 H   0  0  0  0  0  0
   13.0825  -28.5595  -11.5522 H   0  0  0  0  0  0
   12.4568  -30.2205  -11.8284 H   0  0  0  0  0  0
    8.1038  -24.9420   -9.1701 H   0  0  0  0  0  0
    9.1974  -23.3913   -8.9989 H   0  0  0  0  0  0
   11.5725  -23.5897   -9.0353 H   0  0  0  0  0  0
   14.6609  -25.6432   -9.2898 H   0  0  0  0  0  0
   13.9207  -23.8995   -9.0860 H   0  0  0  0  0  0
  1  2  1  0  0  0
  1 34  1  0  0  0
  1 35  1  0  0  0
  1 36  1  0  0  0
  2  3  2  0  0  0
  2  4  2  0  0  0
  2  5  1  0  0  0
  5  6  1  0  0  0
  5 37  1  0  0  0
  6  7  1  0  0  0
  6 38  1  0  0  0
  6 39  1  0  0  0
  7  8  1  0  0  0
  7 40  1  0  0  0
  7 41  1  0  0  0
  8  9  1  0  0  0
  9 10  2  0  0  0
  9 11  1  0  0  0
 10 16  1  0  0  0
 10 42  1  0  0  0
 11 12  1  0  0  0
 11 14  2  0  0  0
 12 13  1  0  0  0
 13 43  1  0  0  0
 13 44  1  0  0  0
 13 45  1  0  0  0
 14 15  1  0  0  0
 14 46  1  0  0  0
 15 16  2  0  0  0
 15 47  1  0  0  0
 16 17  1  0  0  0
 17 18  2  0  0  0
 17 19  1  0  0  0
 18 22  1  0  0  0
 19 20  1  0  0  0
 20 21  1  0  0  0
 20 22  2  0  0  0
 21 48  1  0  0  0
 21 49  1  0  0  0
 21 50  1  0  0  0
 22 23  1  0  0  0
 23 24  1  0  0  0
 23 25  1  0  0  0
 23 51  1  0  0  0
 24 52  1  0  0  0
 24 53  1  0  0  0
 24 54  1  0  0  0
 25 26  1  0  0  0
 26 27  2  0  0  0
 26 28  1  0  0  0
 27 32  1  0  0  0
 28 29  2  0  0  0
 29 30  1  0  0  0
 29 31  1  0  0  0
 30 55  1  0  0  0
 30 56  1  0  0  0
 31 32  2  0  0  0
 31 57  1  0  0  0
 32 33  1  0  0  0
 33 58  1  0  0  0
 33 59  1  0  0  0
M  END
> <s_m_source_file>
../4q1f_ligand.sdf

> <i_m_source_file_index>
1

> <s_epik_input>
W0NIM11TKD1PKSg9TylbTkhdW0NIMl1bQ0gyXU9jMVtjSF1jKFtjSF1bY0hdYzFPW0NIM10pLWMybmMoYyhzMilbQ0gzXSlbQ0BASF0oW0NIM10pU2MzbmMoW05IMl0pW2NIXWMobjMpW05IMl0=

> <s_epik_cmdline>
J2VwaWtfYXBwJywgJy1pbWFlJywgJ2xpZ2FuZF9wcm8ubWFlJywgJy1vbWFlJywgJ2xpZ2FuZF9wcmVwLm1hZScsICctbXMnLCAnMScsICctcGgnLCAnNycsICctcGh0JywgJzAuNScsICctbnQn

> <r_lp_tautomer_probability>
1

> <r_epik_Ionization_Penalty>
  0.0036

> <r_epik_Ionization_Penalty_Charging>
  0.0000

> <r_epik_Ionization_Penalty_Neutral>
  0.0036

> <r_epik_State_Penalty>
 -0.0000

> <r_epik_Charging_Adjusted_Penalty>
0

> <i_epik_Tot_Q>
0

> <i_epik_Tot_abs_Q>
0

$$$$
