4q1n_ligand
                    3D
 Schrodinger Suite 2020-3.
 77 79  0  0  1  0            999 V2000
   68.8180    7.8850   43.5760 C   0  0  0  0  0  0
   68.7540    7.8360   45.1360 C   0  0  1  0  0  0
   68.8120    6.3280   45.5480 C   0  0  1  0  0  0
   67.6140    5.5120   44.9310 C   0  0  1  0  0  0
   67.5180    5.7160   43.3820 C   0  0  0  0  0  0
   67.6480    7.1540   43.0160 N   0  3  0  0  0  0
   69.8350    8.6600   45.8390 C   0  0  0  0  0  0
   67.6310    4.0440   45.3060 C   0  0  0  0  0  0
   68.7010    3.5200   45.6180 O   0  0  0  0  0  0
   69.6520    9.4580   46.9710 N   0  0  0  0  0  0
   70.9590    8.4780   45.3900 O   0  0  0  0  0  0
   66.4180    3.4130   45.2620 N   0  0  0  0  0  0
   70.0870    5.7750   45.1690 O   0  0  0  0  0  0
   68.3580    9.8470   47.5530 C   0  0  0  0  0  0
   70.6880   10.2430   47.6000 C   0  0  0  0  0  0
   67.1020    8.9800   47.7130 C   0  0  0  0  0  0
   68.0130    9.2430   48.9330 C   0  0  0  0  0  0
   71.1850   11.3900   46.9570 C   0  0  0  0  0  0
   72.1140   12.1950   47.6290 C   0  0  0  0  0  0
   72.5430   11.8750   48.9400 C   0  0  0  0  0  0
   71.9200   10.7790   49.5850 C   0  0  0  0  0  0
   71.0300   10.0050   48.9100 N   0  0  0  0  0  0
   73.4790   12.8480   49.6820 C   0  0  0  0  0  0
   73.2050   12.8110   51.1890 C   0  0  0  0  0  0
   74.9760   12.9820   49.2670 C   0  0  0  0  0  0
   66.1630    2.0030   45.5750 C   0  0  2  0  0  0
   66.1760    1.1420   44.2610 C   0  0  0  0  0  0
   67.3830    1.3040   43.2640 C   0  0  0  0  0  0
   68.7500    0.7510   43.7770 C   0  0  0  0  0  0
   67.0580    0.6590   41.8850 C   0  0  0  0  0  0
   64.7620    1.9580   46.2530 C   0  0  0  0  0  0
   64.8210    2.5600   47.5740 O   0  0  0  0  0  0
   63.8010    2.1490   48.5270 C   0  0  0  0  0  0
   64.3150    0.9100   49.2900 C   0  0  0  0  0  0
   68.7944    8.9324   43.2408 H   0  0  0  0  0  0
   69.7491    7.4109   43.2321 H   0  0  0  0  0  0
   67.8294    8.3240   45.4780 H   0  0  0  0  0  0
   68.7972    6.2199   46.6426 H   0  0  0  0  0  0
   66.6870    5.8831   45.3924 H   0  0  0  0  0  0
   68.3247    5.1550   42.8876 H   0  0  0  0  0  0
   66.5443    5.3506   43.0237 H   0  0  0  0  0  0
   66.7186    7.6335   43.3570 H   0  0  0  0  0  0
   67.6917    7.1790   41.9172 H   0  0  0  0  0  0
   65.5880    4.0677   44.9578 H   0  0  0  0  0  0
   71.0169    6.2415   45.5263 H   0  0  0  0  0  0
   68.5177   10.8146   47.0547 H   0  0  0  0  0  0
   66.2125    9.5709   47.4492 H   0  0  0  0  0  0
   67.1723    8.1065   47.0482 H   0  0  0  0  0  0
   68.8338    8.5890   49.2626 H   0  0  0  0  0  0
   67.8740   10.0535   49.6636 H   0  0  0  0  0  0
   70.8529   11.6489   45.9516 H   0  0  0  0  0  0
   72.5127   13.0812   47.1352 H   0  0  0  0  0  0
   72.1549   10.5556   50.6257 H   0  0  0  0  0  0
   73.1588   13.8253   49.2915 H   0  0  0  0  0  0
   72.1230   12.7153   51.3627 H   0  0  0  0  0  0
   73.5697   13.7403   51.6509 H   0  0  0  0  0  0
   73.7256   11.9509   51.6353 H   0  0  0  0  0  0
   75.0523   12.9982   48.1698 H   0  0  0  0  0  0
   75.5438   12.1264   49.6614 H   0  0  0  0  0  0
   75.3880   13.9159   49.6770 H   0  0  0  0  0  0
   66.9611    1.6480   46.2435 H   0  0  0  0  0  0
   66.1717    0.0736   44.5227 H   0  0  0  0  0  0
   65.2846    1.3760   43.6604 H   0  0  0  0  0  0
   67.5149    2.3910   43.1593 H   0  0  0  0  0  0
   68.9858    1.2030   44.7517 H   0  0  0  0  0  0
   69.5412    1.0022   43.0553 H   0  0  0  0  0  0
   68.6860   -0.3418   43.8854 H   0  0  0  0  0  0
   66.0955    1.0445   41.5176 H   0  0  0  0  0  0
   66.9968   -0.4336   41.9966 H   0  0  0  0  0  0
   67.8520    0.9103   41.1664 H   0  0  0  0  0  0
   64.0388    2.5132   45.6376 H   0  0  0  0  0  0
   64.4347    0.9123   46.3495 H   0  0  0  0  0  0
   63.6061    2.9702   49.2324 H   0  0  0  0  0  0
   62.8746    1.9007   47.9883 H   0  0  0  0  0  0
   63.5551    0.5852   50.0160 H   0  0  0  0  0  0
   65.2438    1.1656   49.8210 H   0  0  0  0  0  0
   64.5124    0.0961   48.5769 H   0  0  0  0  0  0
  1  2  1  0  0  0
  1  6  1  0  0  0
  1 35  1  0  0  0
  1 36  1  0  0  0
  2  3  1  0  0  0
  2  7  1  0  0  0
  2 37  1  0  0  0
  3  4  1  0  0  0
  3 13  1  0  0  0
  3 38  1  0  0  0
  4  5  1  0  0  0
  4  8  1  0  0  0
  4 39  1  0  0  0
  5  6  1  0  0  0
  5 40  1  0  0  0
  5 41  1  0  0  0
  6 42  1  0  0  0
  6 43  1  0  0  0
  7 10  1  0  0  0
  7 11  2  0  0  0
  8  9  2  0  0  0
  8 12  1  0  0  0
 10 14  1  0  0  0
 10 15  1  0  0  0
 12 26  1  0  0  0
 12 44  1  0  0  0
 13 45  1  0  0  0
 14 16  1  0  0  0
 14 17  1  0  0  0
 14 46  1  0  0  0
 15 18  2  0  0  0
 15 22  1  0  0  0
 16 17  1  0  0  0
 16 47  1  0  0  0
 16 48  1  0  0  0
 17 49  1  0  0  0
 17 50  1  0  0  0
 18 19  1  0  0  0
 18 51  1  0  0  0
 19 20  2  0  0  0
 19 52  1  0  0  0
 20 21  1  0  0  0
 20 23  1  0  0  0
 21 22  2  0  0  0
 21 53  1  0  0  0
 23 24  1  0  0  0
 23 25  1  0  0  0
 23 54  1  0  0  0
 24 55  1  0  0  0
 24 56  1  0  0  0
 24 57  1  0  0  0
 25 58  1  0  0  0
 25 59  1  0  0  0
 25 60  1  0  0  0
 26 27  1  0  0  0
 26 31  1  0  0  0
 26 61  1  0  0  0
 27 28  1  0  0  0
 27 62  1  0  0  0
 27 63  1  0  0  0
 28 29  1  0  0  0
 28 30  1  0  0  0
 28 64  1  0  0  0
 29 65  1  0  0  0
 29 66  1  0  0  0
 29 67  1  0  0  0
 30 68  1  0  0  0
 30 69  1  0  0  0
 30 70  1  0  0  0
 31 32  1  0  0  0
 31 71  1  0  0  0
 31 72  1  0  0  0
 32 33  1  0  0  0
 33 34  1  0  0  0
 33 73  1  0  0  0
 33 74  1  0  0  0
 34 75  1  0  0  0
 34 76  1  0  0  0
 34 77  1  0  0  0
M  CHG  1   6   1
M  END
> <s_m_source_file>
../4q1n_ligand.sdf

> <i_m_source_file_index>
1

> <s_epik_input>
bjFbY0hdYyhbQ0hdKFtDSDNdKVtDSDNdKVtjSF1bY0hdYzFOKFtDSF0yW0NIMl1bQ0gyXTIpQyg9TylbQ0BIXTNbQ0gyXVtOSDIrXVtDSDJdW0NASF0oW0NASF0zW09IXSlDKD1PKVtOSF1bQ0BIXShbQ0gyXVtDSF0oW0NIM10pW0NIM10pW0NIMl1PW0NIMl1bQ0gzXQ==

> <s_epik_cmdline>
J2VwaWtfYXBwJywgJy1pbWFlJywgJ2xpZ2FuZF9wcm8ubWFlJywgJy1vbWFlJywgJ2xpZ2FuZF9wcmVwLm1hZScsICctbXMnLCAnMScsICctcGgnLCAnNycsICctcGh0JywgJzAuNScsICctbnQn

> <r_lp_tautomer_probability>
1

> <r_epik_Ionization_Penalty>
  0.0055

> <r_epik_Ionization_Penalty_Charging>
  0.0041

> <r_epik_Ionization_Penalty_Neutral>
  0.0014

> <r_epik_State_Penalty>
 -0.0000

> <r_epik_Charging_Adjusted_Penalty>
0.00405407480790948

> <i_epik_Tot_Q>
1

> <i_epik_Tot_abs_Q>
1

$$$$
