4q1s_ligand
                    3D
 Schrodinger Suite 2020-3.
 79 82  0  0  1  0            999 V2000
   75.8610 -145.5840   57.9020 O   0  0  0  0  0  0
   75.0060 -146.2050   58.7180 C   0  0  0  0  0  0
   73.7680 -146.7430   58.1200 C   0  0  0  0  0  0
   73.5460 -146.4830   56.9510 O   0  0  0  0  0  0
   75.2750 -146.3680   60.0330 C   0  0  0  0  0  0
   74.4590 -147.4050   60.7960 C   0  0  1  0  0  0
   76.5070 -145.7850   60.7150 C   0  0  1  0  0  0
   76.2820 -144.6270   61.7370 C   0  0  2  0  0  0
   75.6100 -143.3680   61.1100 C   0  0  0  0  0  0
   77.6540 -144.3360   62.4490 C   0  0  1  0  0  0
   77.4940 -143.3290   63.4750 O   0  0  0  0  0  0
   78.3360 -145.6220   63.0590 C   0  0  1  0  0  0
   77.7060 -146.1110   64.4050 C   0  0  0  0  0  0
   77.0950 -146.9190   61.3920 O   0  0  0  0  0  0
   78.3940 -146.7430   61.9640 C   0  0  2  0  0  0
   78.7520 -148.1810   62.4500 C   0  0  0  0  0  0
   78.8320 -149.1990   61.2800 C   0  0  0  0  0  0
   79.0490 -150.6810   61.7560 C   0  0  2  0  0  0
   79.3690 -151.5640   60.5080 C   0  0  0  0  0  0
   77.8710 -151.3130   62.5150 C   0  0  0  0  0  0
   77.6470 -151.5450   63.8480 C   0  0  0  0  0  0
   78.6350 -151.2440   64.9640 C   0  0  0  0  0  0
   76.3210 -152.1090   64.3990 C   0  0  0  0  0  0
   75.0310 -152.0220   63.5080 C   0  0  1  0  0  0
   73.8520 -152.7860   64.1780 C   0  0  0  0  0  0
   74.6840 -150.5130   63.2340 C   0  0  0  0  0  0
   73.7100 -150.1750   62.0650 C   0  0  2  0  0  0
   74.3320 -150.5490   60.6870 C   0  0  0  0  0  0
   73.0960 -148.7230   62.2320 C   0  0  2  0  0  0
   74.0140 -147.4470   62.2730 C   0  0  0  0  0  0
   72.2110 -148.7340   63.3770 O   0  0  0  0  0  0
   72.3160 -148.3770   61.0750 O   0  0  0  0  0  0
   73.1180 -147.7220   60.2080 C   0  0  0  0  0  0
   72.8080 -147.5310   58.9190 C   0  0  0  0  0  0
   71.4940 -148.0200   58.3600 C   0  0  0  0  0  0
   75.6164 -145.4654   56.8361 H   0  0  0  0  0  0
   75.3555 -148.0316   60.6795 H   0  0  0  0  0  0
   77.1663 -145.3609   59.9434 H   0  0  0  0  0  0
   75.5413 -144.9409   62.4873 H   0  0  0  0  0  0
   74.6610 -143.6572   60.6349 H   0  0  0  0  0  0
   76.2805 -142.9324   60.3545 H   0  0  0  0  0  0
   75.4144 -142.6260   61.8981 H   0  0  0  0  0  0
   78.3321 -143.8813   61.7119 H   0  0  0  0  0  0
   77.0335 -142.3609   63.2285 H   0  0  0  0  0  0
   79.3623 -145.3568   63.3528 H   0  0  0  0  0  0
   77.6947 -145.2814   65.1273 H   0  0  0  0  0  0
   78.3038 -146.9412   64.8094 H   0  0  0  0  0  0
   76.6766 -146.4542   64.2247 H   0  0  0  0  0  0
   79.1251 -146.3822   61.2256 H   0  0  0  0  0  0
   79.7299 -148.1650   62.9535 H   0  0  0  0  0  0
   77.9830 -148.5323   63.1537 H   0  0  0  0  0  0
   77.8949 -149.1707   60.7047 H   0  0  0  0  0  0
   79.6740 -148.9366   60.6225 H   0  0  0  0  0  0
   79.8674 -150.6559   62.4906 H   0  0  0  0  0  0
   80.2111 -151.1240   59.9537 H   0  0  0  0  0  0
   78.4848 -151.6105   59.8553 H   0  0  0  0  0  0
   79.6364 -152.5793   60.8361 H   0  0  0  0  0  0
   77.1141 -151.6032   61.7714 H   0  0  0  0  0  0
   79.5649 -150.8450   64.5327 H   0  0  0  0  0  0
   78.8549 -152.1684   65.5182 H   0  0  0  0  0  0
   78.1998 -150.5009   65.6484 H   0  0  0  0  0  0
   76.4390 -153.1819   64.6113 H   0  0  0  0  0  0
   76.0539 -151.5792   65.3253 H   0  0  0  0  0  0
   75.2083 -152.5162   62.5414 H   0  0  0  0  0  0
   74.1432 -153.8330   64.3483 H   0  0  0  0  0  0
   72.9719 -152.7527   63.5190 H   0  0  0  0  0  0
   73.6077 -152.3122   65.1402 H   0  0  0  0  0  0
   74.2129 -150.0771   64.1273 H   0  0  0  0  0  0
   75.6064 -149.9613   62.9997 H   0  0  0  0  0  0
   72.8320 -150.8366   62.1026 H   0  0  0  0  0  0
   74.7137 -151.5800   60.7247 H   0  0  0  0  0  0
   75.1586 -149.8601   60.4588 H   0  0  0  0  0  0
   73.5630 -150.4711   59.9043 H   0  0  0  0  0  0
   74.8981 -147.5484   62.9196 H   0  0  0  0  0  0
   73.4822 -146.5169   62.5223 H   0  0  0  0  0  0
   72.6055 -148.9767   64.3747 H   0  0  0  0  0  0
   71.4332 -147.7665   57.2913 H   0  0  0  0  0  0
   70.6645 -147.5387   58.8988 H   0  0  0  0  0  0
   71.4268 -149.1111   58.4825 H   0  0  0  0  0  0
  1  2  1  0  0  0
  1 36  1  0  0  0
  2  3  1  0  0  0
  2  5  2  0  0  0
  3  4  2  0  0  0
  3 34  1  0  0  0
  5  6  1  0  0  0
  5  7  1  0  0  0
  6 30  1  0  0  0
  6 33  1  0  0  0
  6 37  1  0  0  0
  7  8  1  0  0  0
  7 14  1  0  0  0
  7 38  1  0  0  0
  8  9  1  0  0  0
  8 10  1  0  0  0
  8 39  1  0  0  0
  9 40  1  0  0  0
  9 41  1  0  0  0
  9 42  1  0  0  0
 10 11  1  0  0  0
 10 12  1  0  0  0
 10 43  1  0  0  0
 11 44  1  0  0  0
 12 13  1  0  0  0
 12 15  1  0  0  0
 12 45  1  0  0  0
 13 46  1  0  0  0
 13 47  1  0  0  0
 13 48  1  0  0  0
 14 15  1  0  0  0
 15 16  1  0  0  0
 15 49  1  0  0  0
 16 17  1  0  0  0
 16 50  1  0  0  0
 16 51  1  0  0  0
 17 18  1  0  0  0
 17 52  1  0  0  0
 17 53  1  0  0  0
 18 19  1  0  0  0
 18 20  1  0  0  0
 18 54  1  0  0  0
 19 55  1  0  0  0
 19 56  1  0  0  0
 19 57  1  0  0  0
 20 21  2  0  0  0
 20 58  1  0  0  0
 21 22  1  0  0  0
 21 23  1  0  0  0
 22 59  1  0  0  0
 22 60  1  0  0  0
 22 61  1  0  0  0
 23 24  1  0  0  0
 23 62  1  0  0  0
 23 63  1  0  0  0
 24 25  1  0  0  0
 24 26  1  0  0  0
 24 64  1  0  0  0
 25 65  1  0  0  0
 25 66  1  0  0  0
 25 67  1  0  0  0
 26 27  1  0  0  0
 26 68  1  0  0  0
 26 69  1  0  0  0
 27 28  1  0  0  0
 27 29  1  0  0  0
 27 70  1  0  0  0
 28 71  1  0  0  0
 28 72  1  0  0  0
 28 73  1  0  0  0
 29 30  1  0  0  0
 29 31  1  0  0  0
 29 32  1  0  0  0
 30 74  1  0  0  0
 30 75  1  0  0  0
 31 76  1  0  0  0
 32 33  1  0  0  0
 33 34  2  0  0  0
 34 35  1  0  0  0
 35 77  1  0  0  0
 35 78  1  0  0  0
 35 79  1  0  0  0
M  END
> <s_m_source_file>
../4q1s_ligand.sdf

> <i_m_source_file_index>
1

> <s_epik_input>
W09IXUM9MUMoPU8pQyhbQ0gzXSk9QyhPMilbQ0BIXShbQ0gyXTMpQzFbQ0BIXShPNClbQ0BIXShbQ0gzXSlbQ0BASF0oW09IXSlbQ0BASF0oW0NIM10pW0NASF00W0NIMl1bQ0gyXVtDQEhdKFtDSDNdKS9bQ0hdPUMoXFtDSDNdKVtDSDJdW0NAQEhdKFtDSDNdKVtDSDJdW0NASF0oW0NIM10pW0NAXTIzW09IXQ==

> <s_epik_cmdline>
J2VwaWtfYXBwJywgJy1pbWFlJywgJ2xpZ2FuZF9wcm8ubWFlJywgJy1vbWFlJywgJ2xpZ2FuZF9wcmVwLm1hZScsICctbXMnLCAnMScsICctcGgnLCAnNycsICctcGh0JywgJzAuNScsICctbnQn

> <r_lp_tautomer_probability>
9.5799973599052e-09

> <r_epik_Ionization_Penalty>
  0.0229

> <r_epik_Ionization_Penalty_Charging>
  0.0000

> <r_epik_Ionization_Penalty_Neutral>
  0.0229

> <r_epik_State_Penalty>
  0.0184

> <r_epik_Charging_Adjusted_Penalty>
0.018402170590754

> <i_epik_Tot_Q>
0

> <i_epik_Tot_abs_Q>
0

$$$$
