4q1y_ligand
                    3D
 Schrodinger Suite 2020-3.
 75 78  0  0  1  0            999 V2000
   14.2420   34.9950   18.0240 N   0  0  0  0  0  0
   15.1890   34.4520   17.2070 C   0  0  0  0  0  0
   15.0180   33.1430   16.7880 C   0  0  0  0  0  0
   15.9820   32.5760   15.9500 C   0  0  0  0  0  0
   17.1030   33.2920   15.5100 C   0  0  0  0  0  0
   17.2580   34.6150   15.9270 C   0  0  0  0  0  0
   16.2820   35.2020   16.7770 C   0  0  0  0  0  0
   18.1920   32.5390   14.5510 S   0  0  0  0  0  0
   17.5110   31.4580   13.9340 O   0  0  0  0  0  0
   18.8450   33.4870   13.6920 O   0  0  0  0  0  0
   19.4320   31.9370   15.4220 N   0  0  1  0  0  0
   20.2190   32.9130   16.2250 C   0  0  0  0  0  0
   21.6980   32.5360   16.2890 C   0  0  0  0  0  0
   22.3930   33.5330   17.2170 C   0  0  0  0  0  0
   22.3290   32.5620   14.9000 C   0  0  0  0  0  0
   19.1180   30.6680   16.1330 C   0  0  0  0  0  0
   20.0520   29.5620   15.6240 C   0  0  1  0  0  0
   19.9790   28.4060   16.4980 O   0  0  0  0  0  0
   19.7020   29.1080   14.2090 C   0  0  1  0  0  0
   20.8050   28.2910   13.7280 N   0  0  0  0  0  0
   21.6900   28.6610   12.8270 C   0  0  0  0  0  0
   21.7760   29.6980   12.2240 O   0  0  0  0  0  0
   22.6590   27.6520   12.6160 O   0  0  0  0  0  0
   23.4950   27.8180   11.4680 C   0  0  1  0  0  0
   24.8210   27.2000   11.8460 C   0  0  0  0  0  0
   24.5770   25.8070   11.7410 O   0  0  0  0  0  0
   23.6880   25.5800   10.6590 C   0  0  1  0  0  0
   22.6770   24.6860   11.0720 O   0  0  0  0  0  0
   21.4020   25.3420   11.1580 C   0  0  0  0  0  0
   21.5220   26.5950   10.2950 C   0  0  0  0  0  0
   23.0100   26.9110   10.3570 C   0  0  1  0  0  0
   18.4180   28.3030   14.0580 C   0  0  0  0  0  0
   17.8850   28.8480   11.6300 C   0  0  0  0  0  0
   17.6750   28.4690   10.3100 C   0  0  0  0  0  0
   17.7200   27.1330    9.9540 C   0  0  0  0  0  0
   17.9970   26.1890   10.9310 C   0  0  0  0  0  0
   18.1930   26.5760   12.2600 C   0  0  0  0  0  0
   18.1690   27.9070   12.6050 C   0  0  0  0  0  0
   13.3860   34.3877   18.3533 H   0  0  0  0  0  0
   14.3340   36.0404   18.3538 H   0  0  0  0  0  0
   14.1490   32.5667   17.1055 H   0  0  0  0  0  0
   15.8576   31.5421   15.6279 H   0  0  0  0  0  0
   18.1224   35.1944   15.6027 H   0  0  0  0  0  0
   16.3884   36.2398   17.0929 H   0  0  0  0  0  0
   20.1373   33.9117   15.7711 H   0  0  0  0  0  0
   19.8265   32.9438   17.2521 H   0  0  0  0  0  0
   21.8100   31.5114   16.6732 H   0  0  0  0  0  0
   21.9231   33.4977   18.2110 H   0  0  0  0  0  0
   22.2981   34.5474   16.8023 H   0  0  0  0  0  0
   23.4577   33.2710   17.3052 H   0  0  0  0  0  0
   21.8147   31.8387   14.2501 H   0  0  0  0  0  0
   23.3934   32.2948   14.9758 H   0  0  0  0  0  0
   22.2338   33.5712   14.4729 H   0  0  0  0  0  0
   19.2649   30.8075   17.2142 H   0  0  0  0  0  0
   18.0723   30.3876   15.9382 H   0  0  0  0  0  0
   21.0829   29.9449   15.6483 H   0  0  0  0  0  0
   20.1966   28.5131   17.5709 H   0  0  0  0  0  0
   19.5707   30.0152   13.6009 H   0  0  0  0  0  0
   20.9491   27.2742   14.1223 H   0  0  0  0  0  0
   23.4918   28.8863   11.2058 H   0  0  0  0  0  0
   25.5980   27.5433   11.1472 H   0  0  0  0  0  0
   25.0883   27.5028   12.8691 H   0  0  0  0  0  0
   24.2441   25.1184    9.8297 H   0  0  0  0  0  0
   20.6176   24.6699   10.7798 H   0  0  0  0  0  0
   21.1913   25.5978   12.2069 H   0  0  0  0  0  0
   21.1791   26.3712    9.2740 H   0  0  0  0  0  0
   20.9012   27.3959   10.7230 H   0  0  0  0  0  0
   23.2371   27.4281    9.4130 H   0  0  0  0  0  0
   18.4877   27.3852   14.6604 H   0  0  0  0  0  0
   17.5649   28.9050   14.4043 H   0  0  0  0  0  0
   17.8253   29.9018   11.9020 H   0  0  0  0  0  0
   17.4742   29.2267    9.5526 H   0  0  0  0  0  0
   17.5408   26.8277    8.9231 H   0  0  0  0  0  0
   18.0626   25.1352   10.6603 H   0  0  0  0  0  0
   18.3655   25.8198   13.0258 H   0  0  0  0  0  0
  1  2  1  0  0  0
  1 39  1  0  0  0
  1 40  1  0  0  0
  2  3  2  0  0  0
  2  7  1  0  0  0
  3  4  1  0  0  0
  3 41  1  0  0  0
  4  5  2  0  0  0
  4 42  1  0  0  0
  5  6  1  0  0  0
  5  8  1  0  0  0
  6  7  2  0  0  0
  6 43  1  0  0  0
  7 44  1  0  0  0
  8  9  2  0  0  0
  8 10  2  0  0  0
  8 11  1  0  0  0
 11 12  1  0  0  0
 11 16  1  0  0  0
 12 13  1  0  0  0
 12 45  1  0  0  0
 12 46  1  0  0  0
 13 14  1  0  0  0
 13 15  1  0  0  0
 13 47  1  0  0  0
 14 48  1  0  0  0
 14 49  1  0  0  0
 14 50  1  0  0  0
 15 51  1  0  0  0
 15 52  1  0  0  0
 15 53  1  0  0  0
 16 17  1  0  0  0
 16 54  1  0  0  0
 16 55  1  0  0  0
 17 18  1  0  0  0
 17 19  1  0  0  0
 17 56  1  0  0  0
 18 57  1  0  0  0
 19 20  1  0  0  0
 19 32  1  0  0  0
 19 58  1  0  0  0
 20 21  1  0  0  0
 20 59  1  0  0  0
 21 22  2  0  0  0
 21 23  1  0  0  0
 23 24  1  0  0  0
 24 25  1  0  0  0
 24 31  1  0  0  0
 24 60  1  0  0  0
 25 26  1  0  0  0
 25 61  1  0  0  0
 25 62  1  0  0  0
 26 27  1  0  0  0
 27 28  1  0  0  0
 27 31  1  0  0  0
 27 63  1  0  0  0
 28 29  1  0  0  0
 29 30  1  0  0  0
 29 64  1  0  0  0
 29 65  1  0  0  0
 30 31  1  0  0  0
 30 66  1  0  0  0
 30 67  1  0  0  0
 31 68  1  0  0  0
 32 38  1  0  0  0
 32 69  1  0  0  0
 32 70  1  0  0  0
 33 34  2  0  0  0
 33 38  1  0  0  0
 33 71  1  0  0  0
 34 35  1  0  0  0
 34 72  1  0  0  0
 35 36  2  0  0  0
 35 73  1  0  0  0
 36 37  1  0  0  0
 36 74  1  0  0  0
 37 38  2  0  0  0
 37 75  1  0  0  0
M  END
> <s_m_source_file>
../4q1y_ligand.sdf

> <i_m_source_file_index>
1

> <s_epik_input>
W05IMl1jMVtjSF1bY0hdYyhbY0hdW2NIXTEpUyg9TykoPU8pTihbQ0gyXVtDSF0oW0NIM10pW0NIM10pW0NIMl1bQ0BASF0oW09IXSlbQ0BASF0oW05IXUMoPU8pT1tDQEBIXShbQ0gyXU8yKVtDQEBIXShbQ0BASF0yMylbQ0gyXVtDSDJdTzMpW0NIMl1jNFtjSF1bY0hdW2NIXVtjSF1bY0hdNA==

> <s_epik_cmdline>
J2VwaWtfYXBwJywgJy1pbWFlJywgJ2xpZ2FuZF9wcm8ubWFlJywgJy1vbWFlJywgJ2xpZ2FuZF9wcmVwLm1hZScsICctbXMnLCAnMScsICctcGgnLCAnNycsICctcGh0JywgJzAuNScsICctbnQn

> <r_lp_tautomer_probability>
1

> <r_epik_Ionization_Penalty>
  0.0000

> <r_epik_Ionization_Penalty_Charging>
  0.0000

> <r_epik_Ionization_Penalty_Neutral>
  0.0000

> <r_epik_State_Penalty>
 -0.0000

> <r_epik_Charging_Adjusted_Penalty>
0

> <i_epik_Tot_Q>
0

> <i_epik_Tot_abs_Q>
0

> <s_epik_Chemistry_Notes>
This compound has an ester and may undergo hydrolysis at high or low pH. This compound contains an acetal/aminal-like group ( X-CH(R)-Y where X, Y are N, S, or O) that may be acid/base labile, releasing an aldehyde.

$$$$
