4q2k_ligand
                    3D
 Schrodinger Suite 2020-3.
 81 85  0  0  1  0            999 V2000
   60.7910    6.4560   32.9440 C   0  0  0  0  0  0
   59.9140    5.3720   32.9180 C   0  0  0  0  0  0
   59.2600    5.0120   31.7460 C   0  0  0  0  0  0
   58.2950    3.8450   31.7820 C   0  0  0  0  0  0
   59.4850    5.7500   30.5830 C   0  0  0  0  0  0
   60.3690    6.8180   30.6060 C   0  0  0  0  0  0
   61.0340    7.1820   31.7750 C   0  0  0  0  0  0
   61.8820    8.2690   31.7330 O   0  0  0  0  0  0
   63.1530    8.3050   32.3610 C   0  0  0  0  0  0
   63.8360    6.9750   32.0920 C   0  0  0  0  0  0
   64.7700    7.0660   30.9070 C   0  0  0  0  0  0
   64.1310    6.5060   29.6560 C   0  0  0  0  0  0
   65.2370    5.8630   29.0590 O   0  0  0  0  0  0
   65.1310    5.0820   27.9600 C   0  0  0  0  0  0
   64.7240    5.5610   26.7110 C   0  0  0  0  0  0
   64.6710    4.6590   25.6510 C   0  0  0  0  0  0
   65.4850    3.7710   28.1680 C   0  0  0  0  0  0
   65.4460    2.8870   27.1210 C   0  0  0  0  0  0
   65.0440    3.3270   25.8830 C   0  0  0  0  0  0
   65.0230    2.2660   24.8240 C   0  0  0  0  0  0
   63.6000    1.7400   24.7630 C   0  0  0  0  0  0
   63.2180    1.0440   26.0450 C   0  0  0  0  0  0
   63.7260   -0.0080   26.4190 O   0  0  0  0  0  0
   62.1850    1.7140   26.8600 C   0  0  0  0  0  0
   61.7570    1.1890   28.0060 N   0  0  0  0  0  0
   61.5200    2.9210   26.6130 C   0  0  0  0  0  0
   60.6500    3.1220   27.6630 C   0  0  0  0  0  0
   60.8410    2.0220   28.4950 C   0  0  3  0  0  0
   60.1660    1.7440   29.7500 C   0  0  0  0  0  0
   60.5140    0.7950   30.4450 O   0  0  0  0  0  0
   59.1490    2.5880   30.0490 N   0  0  0  0  0  0
   58.9270    2.5010   31.4690 C   0  0  2  0  0  0
   57.9440    1.3880   31.6990 C   0  0  0  0  0  0
   57.2040    0.9860   30.6740 O   0  0  0  0  0  0
   57.8350    0.8750   32.8510 N   0  0  0  0  0  0
   56.8270   -0.1410   33.1150 C   0  0  2  0  0  0
   55.7140    0.5360   33.8790 C   0  0  0  0  0  0
   54.7290   -0.1250   34.1810 O   0  0  0  0  0  0
   57.3450   -1.2090   34.0610 C   0  0  0  0  0  0
   58.5450   -1.8270   33.4210 C   0  0  0  0  0  0
   58.5070   -2.1830   32.0750 C   0  0  0  0  0  0
   59.6320   -2.7330   31.4830 C   0  0  0  0  0  0
   60.7800   -2.9240   32.2500 C   0  0  0  0  0  0
   60.8040   -2.5620   33.5980 C   0  0  0  0  0  0
   59.6820   -1.9990   34.1900 C   0  0  0  0  0  0
   61.2857    6.7363   33.8739 H   0  0  0  0  0  0
   59.7392    4.7996   33.8290 H   0  0  0  0  0  0
   57.8524    3.7661   32.7859 H   0  0  0  0  0  0
   57.4977    4.0055   31.0414 H   0  0  0  0  0  0
   58.9677    5.4878   29.6601 H   0  0  0  0  0  0
   60.5472    7.3839   29.6916 H   0  0  0  0  0  0
   63.7455    9.1319   31.9424 H   0  0  0  0  0  0
   63.0234    8.4576   33.4426 H   0  0  0  0  0  0
   64.4200    6.6775   32.9754 H   0  0  0  0  0  0
   63.0759    6.2087   31.8799 H   0  0  0  0  0  0
   65.0295    8.1193   30.7247 H   0  0  0  0  0  0
   65.6857    6.4939   31.1171 H   0  0  0  0  0  0
   63.3194    5.8181   29.9353 H   0  0  0  0  0  0
   63.7220    7.3299   29.0528 H   0  0  0  0  0  0
   64.4564    6.6083   26.5711 H   0  0  0  0  0  0
   64.3464    4.9816   24.6617 H   0  0  0  0  0  0
   65.7945    3.4362   29.1581 H   0  0  0  0  0  0
   65.7311    1.8454   27.2691 H   0  0  0  0  0  0
   65.3202    2.7043   23.8599 H   0  0  0  0  0  0
   65.7257    1.4641   25.0944 H   0  0  0  0  0  0
   62.9061    2.5777   24.5994 H   0  0  0  0  0  0
   63.5097    1.0220   23.9346 H   0  0  0  0  0  0
   61.5772    3.6570   25.7975 H   0  0  0  0  0  0
   60.0102    4.0166   27.6836 H   0  0  0  0  0  0
   58.5308    3.2602   29.4358 H   0  0  0  0  0  0
   59.8410    2.2924   32.0444 H   0  0  0  0  0  0
   58.5095    1.2027   33.6557 H   0  0  0  0  0  0
   56.5480   -0.5632   32.1383 H   0  0  0  0  0  0
   55.7730    1.5968   34.1641 H   0  0  0  0  0  0
   57.6153   -0.7475   35.0222 H   0  0  0  0  0  0
   56.5627   -1.9649   34.2243 H   0  0  0  0  0  0
   57.5989   -2.0300   31.4919 H   0  0  0  0  0  0
   59.6197   -3.0132   30.4297 H   0  0  0  0  0  0
   61.6680   -3.3604   31.7927 H   0  0  0  0  0  0
   61.7068   -2.7220   34.1875 H   0  0  0  0  0  0
   59.6964   -1.6990   35.2378 H   0  0  0  0  0  0
  1  2  2  0  0  0
  1  7  1  0  0  0
  1 46  1  0  0  0
  2  3  1  0  0  0
  2 47  1  0  0  0
  3  4  1  0  0  0
  3  5  2  0  0  0
  4 32  1  0  0  0
  4 48  1  0  0  0
  4 49  1  0  0  0
  5  6  1  0  0  0
  5 50  1  0  0  0
  6  7  2  0  0  0
  6 51  1  0  0  0
  7  8  1  0  0  0
  8  9  1  0  0  0
  9 10  1  0  0  0
  9 52  1  0  0  0
  9 53  1  0  0  0
 10 11  1  0  0  0
 10 54  1  0  0  0
 10 55  1  0  0  0
 11 12  1  0  0  0
 11 56  1  0  0  0
 11 57  1  0  0  0
 12 13  1  0  0  0
 12 58  1  0  0  0
 12 59  1  0  0  0
 13 14  1  0  0  0
 14 15  2  0  0  0
 14 17  1  0  0  0
 15 16  1  0  0  0
 15 60  1  0  0  0
 16 19  2  0  0  0
 16 61  1  0  0  0
 17 18  2  0  0  0
 17 62  1  0  0  0
 18 19  1  0  0  0
 18 63  1  0  0  0
 19 20  1  0  0  0
 20 21  1  0  0  0
 20 64  1  0  0  0
 20 65  1  0  0  0
 21 22  1  0  0  0
 21 66  1  0  0  0
 21 67  1  0  0  0
 22 23  2  0  0  0
 22 24  1  0  0  0
 24 25  2  0  0  0
 24 26  1  0  0  0
 25 28  1  0  0  0
 26 27  2  0  0  0
 26 68  1  0  0  0
 27 28  1  0  0  0
 27 69  1  0  0  0
 28 29  1  0  0  0
 29 30  2  0  0  0
 29 31  1  0  0  0
 31 32  1  0  0  0
 31 70  1  0  0  0
 32 33  1  0  0  0
 32 71  1  0  0  0
 33 34  2  0  0  0
 33 35  1  0  0  0
 35 36  1  0  0  0
 35 72  1  0  0  0
 36 37  1  0  0  0
 36 39  1  0  0  0
 36 73  1  0  0  0
 37 38  2  0  0  0
 37 74  1  0  0  0
 39 40  1  0  0  0
 39 75  1  0  0  0
 39 76  1  0  0  0
 40 41  2  0  0  0
 40 45  1  0  0  0
 41 42  1  0  0  0
 41 77  1  0  0  0
 42 43  2  0  0  0
 42 78  1  0  0  0
 43 44  1  0  0  0
 43 79  1  0  0  0
 44 45  2  0  0  0
 44 80  1  0  0  0
 45 81  1  0  0  0
M  END
> <s_m_source_file>
../4q2k_ligand.sdf

> <i_m_source_file_index>
1

> <s_epik_input>
YzEyW2NIXVtjSF1jKFtjSF1bY0hdMilPW0NIMl1bQ0gyXVtDSDJdW0NIMl1PYzNbY0hdW2NIXWMoW2NIXVtjSF0zKVtDSDJdW0NIMl1DKD1PKUM0PU5bQ0hdKFtDSF09W0NIXTQpQyg9TylbTkhdW0NAQEhdKFtDSDJdMSlDKD1PKVtOSF1bQ0BIXShbQ0hdPU8pW0NIMl1jNVtjSF1bY0hdW2NIXVtjSF1bY0hdNQ==

> <s_epik_cmdline>
J2VwaWtfYXBwJywgJy1pbWFlJywgJ2xpZ2FuZF9wcm8ubWFlJywgJy1vbWFlJywgJ2xpZ2FuZF9wcmVwLm1hZScsICctbXMnLCAnMScsICctcGgnLCAnNycsICctcGh0JywgJzAuNScsICctbnQn

> <r_lp_tautomer_probability>
1

> <r_epik_Ionization_Penalty>
  0.0015

> <r_epik_Ionization_Penalty_Charging>
  0.0000

> <r_epik_Ionization_Penalty_Neutral>
  0.0015

> <r_epik_State_Penalty>
 -0.0000

> <r_epik_Charging_Adjusted_Penalty>
0

> <i_epik_Tot_Q>
0

> <i_epik_Tot_abs_Q>
0

> <s_epik_Chemistry_Notes>
This compound has an imine and may undergo hydrolysis.

$$$$
