4q3q_ligand
                    3D
 Schrodinger Suite 2020-3.
 28 27  0  0  1  0            999 V2000
  -44.4770  -17.3970   50.6980 N   0  3  0  0  0  0
  -44.8549  -16.6125   51.3701 H   0  0  0  0  0  0
  -45.3245  -17.9504   50.2673 H   0  0  0  0  0  0
  -43.8911  -16.9360   49.8892 H   0  0  0  0  0  0
  -43.6260  -18.3180   51.4530 C   0  0  2  0  0  0
  -42.5100  -17.5770   52.1640 C   0  0  0  0  0  0
  -42.3600  -16.3470   51.9550 O   0  5  0  0  0  0
  -41.7650  -18.2120   52.9480 O   0  0  0  0  0  0
  -43.0780  -19.4330   50.5390 C   0  0  0  0  0  0
  -42.0190  -18.9850   49.5270 C   0  0  0  0  0  0
  -41.7620  -20.0530   48.4470 C   0  0  0  0  0  0
  -40.4900  -19.6990   47.6680 C   0  0  0  0  0  0
  -40.4430  -20.2400   46.1690 B   0  5  0  0  0  0
  -39.1040  -20.0780   45.4710 O   0  0  0  0  0  0
  -38.7496  -19.0762   45.1867 H   0  0  0  0  0  0
  -41.6870  -20.0730   45.3300 O   0  0  0  0  0  0
  -41.9989  -19.0703   45.0023 H   0  0  0  0  0  0
  -40.4670  -21.7690   46.3400 O   0  0  0  0  0  0
  -39.6782  -22.2700   46.9203 H   0  0  0  0  0  0
  -44.2786  -18.7571   52.2220 H   0  0  0  0  0  0
  -42.6112  -20.2157   51.1550 H   0  0  0  0  0  0
  -43.9033  -19.8684   49.9565 H   0  0  0  0  0  0
  -42.3562  -18.0654   49.0263 H   0  0  0  0  0  0
  -41.0708  -18.7912   50.0499 H   0  0  0  0  0  0
  -41.6366  -21.0355   48.9255 H   0  0  0  0  0  0
  -42.6167  -20.0883   47.7555 H   0  0  0  0  0  0
  -40.3876  -18.6053   47.6107 H   0  0  0  0  0  0
  -39.6150  -20.1227   48.1826 H   0  0  0  0  0  0
  1  2  1  0  0  0
  1  3  1  0  0  0
  1  4  1  0  0  0
  1  5  1  0  0  0
  5  6  1  0  0  0
  5  9  1  0  0  0
  5 20  1  0  0  0
  6  7  1  0  0  0
  6  8  2  0  0  0
  9 10  1  0  0  0
  9 21  1  0  0  0
  9 22  1  0  0  0
 10 11  1  0  0  0
 10 23  1  0  0  0
 10 24  1  0  0  0
 11 12  1  0  0  0
 11 25  1  0  0  0
 11 26  1  0  0  0
 12 13  1  0  0  0
 12 27  1  0  0  0
 12 28  1  0  0  0
 13 14  1  0  0  0
 13 16  1  0  0  0
 13 18  1  0  0  0
 14 15  1  0  0  0
 16 17  1  0  0  0
 18 19  1  0  0  0
M  CHG  3   1   1   7  -1  13  -1
M  END
> <s_m_source_file>
../4q3q_ligand.sdf

> <i_m_source_file_index>
1

> <s_epik_input>
W08tXUMoPU8pW0NAQEhdKFtOSDMrXSlbQ0gyXVtDSDJdW0NIMl1bQ0gyXVtCLV0oW09IXSkoW09IXSlbT0hd

> <s_epik_cmdline>
J2VwaWtfYXBwJywgJy1pbWFlJywgJ2xpZ2FuZF9wcm8ubWFlJywgJy1vbWFlJywgJ2xpZ2FuZF9wcmVwLm1hZScsICctbXMnLCAnMScsICctcGgnLCAnNycsICctcGh0JywgJzAuNScsICctbnQn

> <r_lp_tautomer_probability>
1

> <r_epik_Ionization_Penalty>
  0.0010

> <r_epik_Ionization_Penalty_Charging>
  0.0010

> <r_epik_Ionization_Penalty_Neutral>
  0.0000

> <r_epik_State_Penalty>
 -0.0000

> <r_epik_Charging_Adjusted_Penalty>
0.000961080724848188

> <i_epik_Tot_Q>
-1

> <i_epik_Tot_abs_Q>
3

> <s_epik_Chemistry_Notes>
This compound contains a Lewis acid (boronic acid) which adds nucleophiles to form tetrahedral complexes, lowering the experimental pKa

$$$$
