4q3r_ligand
                    3D
 Schrodinger Suite 2020-3.
 56 57  0  0  1  0            999 V2000
  -64.3550    5.5860   -0.8130 O   0  0  0  0  0  0
  -64.7810    4.2250   -1.6260 B   0  5  0  0  0  0
  -64.3850    2.9490   -0.7210 O   0  0  0  0  0  0
  -66.4370    4.2880   -1.7940 O   0  0  0  0  0  0
  -63.9760    4.2170   -3.1390 C   0  0  0  0  0  0
  -64.5040    3.0870   -4.0120 C   0  0  0  0  0  0
  -63.3090    2.4450   -4.8100 C   0  0  0  0  0  0
  -63.8600    1.4660   -5.8950 C   0  0  0  0  0  0
  -62.7720    0.9420   -6.8880 C   0  0  1  0  0  0
  -61.8030    0.1550   -6.2090 N   0  3  0  0  0  0
  -62.2981   -0.7011   -5.7274 H   0  0  0  0  0  0
  -61.3037    0.7677   -5.4440 H   0  0  0  0  0  0
  -61.0571   -0.2108   -6.9300 H   0  0  0  0  0  0
  -63.5220    0.1000   -7.9280 C   0  0  1  0  0  0
  -62.5790   -0.3040   -8.9910 C   0  0  0  0  0  0
  -63.2670   -1.2210   -9.9740 C   0  0  0  0  0  0
  -63.8130   -2.4050   -9.2930 N   0  3  2  0  0  0
  -63.0002   -2.9320   -8.7718 H   0  0  0  0  0  0
  -64.3230   -3.3670  -10.2540 C   0  0  0  0  0  0
  -63.2390   -3.7200  -11.2840 C   0  0  0  0  0  0
  -62.1570   -4.4930  -10.9160 C   0  0  0  0  0  0
  -61.1770   -4.8060  -11.8510 C   0  0  0  0  0  0
  -61.2840   -4.3530  -13.1470 C   0  0  0  0  0  0
  -60.0620   -4.7350  -14.3500 Cl  0  0  0  0  0  0
  -62.3680   -3.5780  -13.5220 C   0  0  0  0  0  0
  -62.4780   -3.0130  -15.1790 Cl  0  0  0  0  0  0
  -63.3470   -3.2660  -12.5970 C   0  0  0  0  0  0
  -64.8190   -1.9980   -8.2730 C   0  0  0  0  0  0
  -64.1890   -1.0630   -7.2700 C   0  0  0  0  0  0
  -62.0590    2.1240   -7.5480 C   0  0  0  0  0  0
  -62.6810    2.9830   -8.2060 O   0  5  0  0  0  0
  -60.8170    2.2160   -7.4230 O   0  0  0  0  0  0
  -64.8279    2.8247    0.2782 H   0  0  0  0  0  0
  -67.0803    4.2989   -0.9018 H   0  0  0  0  0  0
  -64.1469    5.1758   -3.6503 H   0  0  0  0  0  0
  -62.8971    4.0737   -2.9796 H   0  0  0  0  0  0
  -64.9757    2.3227   -3.3769 H   0  0  0  0  0  0
  -65.2467    3.4859   -4.7186 H   0  0  0  0  0  0
  -62.7266    3.2392   -5.2999 H   0  0  0  0  0  0
  -62.6608    1.8900   -4.1159 H   0  0  0  0  0  0
  -64.3030    0.5867   -5.4044 H   0  0  0  0  0  0
  -64.6279    1.9772   -6.4942 H   0  0  0  0  0  0
  -64.3238    0.6665   -8.4242 H   0  0  0  0  0  0
  -62.2199    0.5900   -9.5218 H   0  0  0  0  0  0
  -61.7246   -0.8318   -8.5421 H   0  0  0  0  0  0
  -64.0921   -0.6820  -10.4626 H   0  0  0  0  0  0
  -62.5443   -1.5521  -10.7343 H   0  0  0  0  0  0
  -64.6298   -4.2831   -9.7281 H   0  0  0  0  0  0
  -65.1894   -2.9375  -10.7783 H   0  0  0  0  0  0
  -62.0706   -4.8581   -9.8926 H   0  0  0  0  0  0
  -60.3204   -5.4125  -11.5570 H   0  0  0  0  0  0
  -64.2051   -2.6637  -12.8954 H   0  0  0  0  0  0
  -65.6568   -1.4856   -8.7684 H   0  0  0  0  0  0
  -65.1928   -2.8907   -7.7501 H   0  0  0  0  0  0
  -63.4468   -1.6317   -6.6906 H   0  0  0  0  0  0
  -64.9794   -0.6997   -6.5968 H   0  0  0  0  0  0
  1  2  1  0  0  0
  2  3  1  0  0  0
  2  4  1  0  0  0
  2  5  1  0  0  0
  3 33  1  0  0  0
  4 34  1  0  0  0
  5  6  1  0  0  0
  5 35  1  0  0  0
  5 36  1  0  0  0
  6  7  1  0  0  0
  6 37  1  0  0  0
  6 38  1  0  0  0
  7  8  1  0  0  0
  7 39  1  0  0  0
  7 40  1  0  0  0
  8  9  1  0  0  0
  8 41  1  0  0  0
  8 42  1  0  0  0
  9 10  1  0  0  0
  9 14  1  0  0  0
  9 30  1  0  0  0
 10 11  1  0  0  0
 10 12  1  0  0  0
 10 13  1  0  0  0
 14 15  1  0  0  0
 14 29  1  0  0  0
 14 43  1  0  0  0
 15 16  1  0  0  0
 15 44  1  0  0  0
 15 45  1  0  0  0
 16 17  1  0  0  0
 16 46  1  0  0  0
 16 47  1  0  0  0
 17 18  1  0  0  0
 17 19  1  0  0  0
 17 28  1  0  0  0
 19 20  1  0  0  0
 19 48  1  0  0  0
 19 49  1  0  0  0
 20 21  1  0  0  0
 20 27  2  0  0  0
 21 22  2  0  0  0
 21 50  1  0  0  0
 22 23  1  0  0  0
 22 51  1  0  0  0
 23 24  1  0  0  0
 23 25  2  0  0  0
 25 26  1  0  0  0
 25 27  1  0  0  0
 27 52  1  0  0  0
 28 29  1  0  0  0
 28 53  1  0  0  0
 28 54  1  0  0  0
 29 55  1  0  0  0
 29 56  1  0  0  0
 30 31  1  0  0  0
 30 32  2  0  0  0
M  CHG  4   2  -1  10   1  17   1  31  -1
M  END
> <s_m_source_file>
../4q3r_ligand.sdf

> <i_m_source_file_index>
1

> <s_epik_input>
W09IXVtCLV0oW09IXSkoW09IXSlbQ0gyXVtDSDJdW0NIMl1bQ0gyXVtDQF0oW05IMytdKShDKFtPLV0pPU8pW0NASF0xW0NIMl1bQ0gyXVtOQEBIK10oW0NIMl1bQ0gyXTEpW0NIMl1jMltjSF1bY0hdYyhDbCljKENsKVtjSF0y

> <s_epik_cmdline>
J2VwaWtfYXBwJywgJy1pbWFlJywgJ2xpZ2FuZF9wcm8ubWFlJywgJy1vbWFlJywgJ2xpZ2FuZF9wcmVwLm1hZScsICctbXMnLCAnMScsICctcGgnLCAnNycsICctcGh0JywgJzAuNScsICctbnQn

> <r_lp_tautomer_probability>
1

> <r_epik_Ionization_Penalty>
  0.0122

> <r_epik_Ionization_Penalty_Charging>
  0.0122

> <r_epik_Ionization_Penalty_Neutral>
  0.0000

> <r_epik_State_Penalty>
 -0.0000

> <r_epik_Charging_Adjusted_Penalty>
0.0121907163886842

> <i_epik_Tot_Q>
0

> <i_epik_Tot_abs_Q>
4

> <s_epik_Chemistry_Notes>
This compound contains a Lewis acid (boronic acid) which adds nucleophiles to form tetrahedral complexes, lowering the experimental pKa

$$$$
