4q3s_ligand
                    3D
 Schrodinger Suite 2020-3.
 50 50  0  0  1  0            999 V2000
  -42.4870   16.3720   37.1680 O   0  5  0  0  0  0
  -42.6350   17.6200   37.0240 C   0  0  0  0  0  0
  -41.8240   18.2840   36.2920 O   0  0  0  0  0  0
  -43.8150   18.3370   37.7460 C   0  0  1  0  0  0
  -44.4920   17.4070   38.5570 N   0  3  0  0  0  0
  -43.7999   17.0074   39.3128 H   0  0  0  0  0  0
  -44.8695   16.5832   37.9335 H   0  0  0  0  0  0
  -45.3357   17.9036   39.0585 H   0  0  0  0  0  0
  -43.2690   19.4510   38.6220 C   0  0  0  0  0  0
  -42.0310   19.0310   39.4450 C   0  0  0  0  0  0
  -41.6600   20.0850   40.5420 C   0  0  0  0  0  0
  -40.5930   19.5150   41.5510 C   0  0  0  0  0  0
  -40.5710   20.4000   42.9690 B   0  5  0  0  0  0
  -40.6470   22.0240   42.6540 O   0  0  0  0  0  0
  -39.9028   22.4913   41.9923 H   0  0  0  0  0  0
  -39.1340   20.0740   43.7890 O   0  0  0  0  0  0
  -38.1668   20.2609   43.2994 H   0  0  0  0  0  0
  -41.8200   20.0070   43.9900 O   0  0  0  0  0  0
  -42.8614   20.1396   43.6615 H   0  0  0  0  0  0
  -44.7790   18.9100   36.6740 C   0  0  0  0  0  0
  -46.1170   19.5130   37.2650 C   0  0  0  0  0  0
  -47.0680   19.4630   36.4580 N   0  3  0  0  0  0
  -48.2630   19.9380   37.0750 C   0  0  0  0  0  0
  -49.4740   19.9930   36.1320 C   0  0  0  0  0  0
  -49.2300   20.6020   34.8770 C   0  0  0  0  0  0
  -47.9290   20.3740   34.2830 C   0  0  0  0  0  0
  -46.7560   20.1130   35.2280 C   0  0  0  0  0  0
  -42.9737   20.3023   37.9910 H   0  0  0  0  0  0
  -44.0450   19.7728   39.3322 H   0  0  0  0  0  0
  -42.2324   18.0734   39.9475 H   0  0  0  0  0  0
  -41.1660   18.9186   38.7748 H   0  0  0  0  0  0
  -41.2416   20.9820   40.0620 H   0  0  0  0  0  0
  -42.5629   20.3591   41.1074 H   0  0  0  0  0  0
  -40.8383   18.4703   41.7926 H   0  0  0  0  0  0
  -39.5940   19.5606   41.0928 H   0  0  0  0  0  0
  -44.2757   19.7178   36.1226 H   0  0  0  0  0  0
  -45.0654   18.1113   35.9739 H   0  0  0  0  0  0
  -46.4084   18.9484   38.1630 H   0  0  0  0  0  0
  -45.9574   20.5683   37.5312 H   0  0  0  0  0  0
  -47.1307   18.3795   36.2791 H   0  0  0  0  0  0
  -48.5324   19.2755   37.9108 H   0  0  0  0  0  0
  -48.0999   20.9579   37.4534 H   0  0  0  0  0  0
  -49.8226   18.9709   35.9230 H   0  0  0  0  0  0
  -50.2834   20.5664   36.6076 H   0  0  0  0  0  0
  -49.9613   20.2338   34.1424 H   0  0  0  0  0  0
  -49.3257   21.6935   34.9743 H   0  0  0  0  0  0
  -47.9749   19.4921   33.6271 H   0  0  0  0  0  0
  -47.6358   21.2549   33.6930 H   0  0  0  0  0  0
  -46.3106   21.0970   35.4360 H   0  0  0  0  0  0
  -46.0410   19.4996   34.6601 H   0  0  0  0  0  0
  1  2  1  0  0  0
  2  3  2  0  0  0
  2  4  1  0  0  0
  4  5  1  0  0  0
  4  9  1  0  0  0
  4 20  1  0  0  0
  5  6  1  0  0  0
  5  7  1  0  0  0
  5  8  1  0  0  0
  9 10  1  0  0  0
  9 28  1  0  0  0
  9 29  1  0  0  0
 10 11  1  0  0  0
 10 30  1  0  0  0
 10 31  1  0  0  0
 11 12  1  0  0  0
 11 32  1  0  0  0
 11 33  1  0  0  0
 12 13  1  0  0  0
 12 34  1  0  0  0
 12 35  1  0  0  0
 13 14  1  0  0  0
 13 16  1  0  0  0
 13 18  1  0  0  0
 14 15  1  0  0  0
 16 17  1  0  0  0
 18 19  1  0  0  0
 20 21  1  0  0  0
 20 36  1  0  0  0
 20 37  1  0  0  0
 21 22  1  0  0  0
 21 38  1  0  0  0
 21 39  1  0  0  0
 22 23  1  0  0  0
 22 27  1  0  0  0
 22 40  1  0  0  0
 23 24  1  0  0  0
 23 41  1  0  0  0
 23 42  1  0  0  0
 24 25  1  0  0  0
 24 43  1  0  0  0
 24 44  1  0  0  0
 25 26  1  0  0  0
 25 45  1  0  0  0
 25 46  1  0  0  0
 26 27  1  0  0  0
 26 47  1  0  0  0
 26 48  1  0  0  0
 27 49  1  0  0  0
 27 50  1  0  0  0
M  CHG  4   1  -1   5   1  13  -1  22   1
M  END
> <s_m_source_file>
../4q3s_ligand.sdf

> <i_m_source_file_index>
1

> <s_epik_input>
W09IXVtCLV0oW09IXSkoW09IXSlbQ0gyXVtDSDJdW0NIMl1bQ0gyXVtDQEBdKEMoW08tXSk9TykoW05IMytdKVtDSDJdW0NIMl1bTkgrXTFbQ0gyXVtDSDJdW0NIMl1bQ0gyXVtDSDJdMQ==

> <s_epik_cmdline>
J2VwaWtfYXBwJywgJy1pbWFlJywgJ2xpZ2FuZF9wcm8ubWFlJywgJy1vbWFlJywgJ2xpZ2FuZF9wcmVwLm1hZScsICctbXMnLCAnMScsICctcGgnLCAnNycsICctcGh0JywgJzAuNScsICctbnQn

> <r_lp_tautomer_probability>
1

> <r_epik_Ionization_Penalty>
  0.0086

> <r_epik_Ionization_Penalty_Charging>
  0.0086

> <r_epik_Ionization_Penalty_Neutral>
  0.0000

> <r_epik_State_Penalty>
 -0.0000

> <r_epik_Charging_Adjusted_Penalty>
0.00856621660580165

> <i_epik_Tot_Q>
0

> <i_epik_Tot_abs_Q>
4

> <s_epik_Chemistry_Notes>
This compound contains a Lewis acid (boronic acid) which adds nucleophiles to form tetrahedral complexes, lowering the experimental pKa

$$$$
