4q4e_ligand
                    3D
 Schrodinger Suite 2020-3.
 62 62  0  0  1  0            999 V2000
   42.7600  -38.3760  -35.3410 C   0  0  0  0  0  0
   43.8580  -39.3820  -35.5320 C   0  0  0  0  0  0
   43.6130  -40.4710  -36.0210 O   0  0  0  0  0  0
   45.0820  -39.1990  -35.0660 N   0  0  0  0  0  0
   45.9540  -40.2620  -35.2240 O   0  0  0  0  0  0
   41.7020  -38.8560  -34.3230 C   0  0  2  0  0  0
   40.5100  -37.9050  -34.3370 C   0  0  0  0  0  0
   40.6570  -36.6880  -34.2680 O   0  0  0  0  0  0
   42.3030  -38.8360  -32.9310 C   0  0  0  0  0  0
   41.4520  -39.0890  -31.6590 C   0  0  0  0  0  0
   40.7540  -40.3820  -31.8500 C   0  0  0  0  0  0
   41.6390  -41.5830  -31.5830 C   0  0  0  0  0  0
   41.3560  -42.1620  -30.2230 C   0  0  0  0  0  0
   39.3160  -38.4720  -34.4900 N   0  0  0  0  0  0
   38.0850  -37.6650  -34.6150 C   0  0  1  0  0  0
   36.9780  -38.5780  -35.0960 C   0  0  0  0  0  0
   35.6670  -37.8100  -35.2190 C   0  0  0  0  0  0
   37.3960  -39.2270  -36.4320 C   0  0  0  0  0  0
   37.7990  -37.0130  -33.2910 C   0  0  0  0  0  0
   37.9340  -37.7570  -32.2880 O   0  0  0  0  0  0
   37.6570  -35.6840  -33.1650 N   0  0  0  0  0  0
   37.7040  -35.0440  -31.8210 C   0  0  1  0  0  0
   37.6150  -34.6880  -34.2180 C   0  0  0  0  0  0
   37.3760  -33.3750  -33.4930 C   0  0  0  0  0  0
   37.8810  -33.5520  -32.0880 C   0  0  0  0  0  0
   36.3990  -35.2710  -31.0350 C   0  0  0  0  0  0
   35.3160  -35.0730  -31.9220 O   0  0  0  0  0  0
   43.1876  -37.4324  -34.9712 H   0  0  0  0  0  0
   42.2547  -38.1979  -36.3017 H   0  0  0  0  0  0
   45.4242  -38.2749  -34.5773 H   0  0  0  0  0  0
   46.9893  -40.1828  -34.8609 H   0  0  0  0  0  0
   41.3740  -39.8751  -34.5758 H   0  0  0  0  0  0
   43.0846  -39.6066  -32.8580 H   0  0  0  0  0  0
   42.7437  -37.8472  -32.7360 H   0  0  0  0  0  0
   42.1111  -39.1309  -30.7793 H   0  0  0  0  0  0
   40.7263  -38.2718  -31.5348 H   0  0  0  0  0  0
   39.8972  -40.4412  -31.1627 H   0  0  0  0  0  0
   40.3972  -40.4563  -32.8879 H   0  0  0  0  0  0
   41.4494  -42.3545  -32.3438 H   0  0  0  0  0  0
   42.6948  -41.2773  -31.6260 H   0  0  0  0  0  0
   42.0085  -43.0307  -30.0513 H   0  0  0  0  0  0
   40.3036  -42.4779  -30.1707 H   0  0  0  0  0  0
   41.5490  -41.4006  -29.4529 H   0  0  0  0  0  0
   39.2595  -39.5701  -34.5224 H   0  0  0  0  0  0
   38.2079  -36.8551  -35.3491 H   0  0  0  0  0  0
   36.8143  -39.3675  -34.3478 H   0  0  0  0  0  0
   35.4094  -37.3661  -34.2461 H   0  0  0  0  0  0
   34.8673  -38.4975  -35.5316 H   0  0  0  0  0  0
   35.7783  -37.0122  -35.9681 H   0  0  0  0  0  0
   38.3438  -39.7684  -36.2959 H   0  0  0  0  0  0
   37.5266  -38.4450  -37.1945 H   0  0  0  0  0  0
   36.6155  -39.9303  -36.7580 H   0  0  0  0  0  0
   38.5294  -35.4831  -31.2414 H   0  0  0  0  0  0
   38.5717  -34.6878  -34.7609 H   0  0  0  0  0  0
   36.7979  -34.9256  -34.9151 H   0  0  0  0  0  0
   37.9227  -32.5690  -34.0044 H   0  0  0  0  0  0
   36.3001  -33.1462  -33.4939 H   0  0  0  0  0  0
   37.2916  -32.9766  -31.3590 H   0  0  0  0  0  0
   38.9440  -33.2859  -31.9918 H   0  0  0  0  0  0
   36.3834  -36.2970  -30.6388 H   0  0  0  0  0  0
   36.3437  -34.5553  -30.2015 H   0  0  0  0  0  0
   34.2827  -35.1868  -31.5624 H   0  0  0  0  0  0
  1  2  1  0  0  0
  1  6  1  0  0  0
  1 28  1  0  0  0
  1 29  1  0  0  0
  2  3  2  0  0  0
  2  4  1  0  0  0
  4  5  1  0  0  0
  4 30  1  0  0  0
  5 31  1  0  0  0
  6  7  1  0  0  0
  6  9  1  0  0  0
  6 32  1  0  0  0
  7  8  2  0  0  0
  7 14  1  0  0  0
  9 10  1  0  0  0
  9 33  1  0  0  0
  9 34  1  0  0  0
 10 11  1  0  0  0
 10 35  1  0  0  0
 10 36  1  0  0  0
 11 12  1  0  0  0
 11 37  1  0  0  0
 11 38  1  0  0  0
 12 13  1  0  0  0
 12 39  1  0  0  0
 12 40  1  0  0  0
 13 41  1  0  0  0
 13 42  1  0  0  0
 13 43  1  0  0  0
 14 15  1  0  0  0
 14 44  1  0  0  0
 15 16  1  0  0  0
 15 19  1  0  0  0
 15 45  1  0  0  0
 16 17  1  0  0  0
 16 18  1  0  0  0
 16 46  1  0  0  0
 17 47  1  0  0  0
 17 48  1  0  0  0
 17 49  1  0  0  0
 18 50  1  0  0  0
 18 51  1  0  0  0
 18 52  1  0  0  0
 19 20  2  0  0  0
 19 21  1  0  0  0
 21 22  1  0  0  0
 21 23  1  0  0  0
 22 25  1  0  0  0
 22 26  1  0  0  0
 22 53  1  0  0  0
 23 24  1  0  0  0
 23 54  1  0  0  0
 23 55  1  0  0  0
 24 25  1  0  0  0
 24 56  1  0  0  0
 24 57  1  0  0  0
 25 58  1  0  0  0
 25 59  1  0  0  0
 26 27  1  0  0  0
 26 60  1  0  0  0
 26 61  1  0  0  0
 27 62  1  0  0  0
M  END
> <s_m_source_file>
../4q4e_ligand.sdf

> <i_m_source_file_index>
1

> <s_epik_input>
W0NIM11bQ0gyXVtDSDJdW0NIMl1bQ0gyXVtDQEhdKFtDSDJdQyg9TylbTkhdW09IXSlDKD1PKVtOSF1bQ0BASF0oW0NIXShbQ0gzXSlbQ0gzXSlDKD1PKU4xW0NASF0oW0NIMl1bT0hdKVtDSDJdW0NIMl1bQ0gyXTE=

> <s_epik_cmdline>
J2VwaWtfYXBwJywgJy1pbWFlJywgJ2xpZ2FuZF9wcm8ubWFlJywgJy1vbWFlJywgJ2xpZ2FuZF9wcmVwLm1hZScsICctbXMnLCAnMScsICctcGgnLCAnNycsICctcGh0JywgJzAuNScsICctbnQn

> <r_lp_tautomer_probability>
1

> <r_epik_Ionization_Penalty>
  0.0055

> <r_epik_Ionization_Penalty_Charging>
  0.0000

> <r_epik_Ionization_Penalty_Neutral>
  0.0055

> <r_epik_State_Penalty>
 -0.0000

> <r_epik_Charging_Adjusted_Penalty>
0

> <i_epik_Tot_Q>
0

> <i_epik_Tot_abs_Q>
0

> <s_epik_Chemistry_Notes>
This compound has a N-S or N-O group and may undergo hydrolysis at high or low pH.

$$$$
