4q4i_ligand
                    3D
 Schrodinger Suite 2020-3.
 70 69  0  0  1  0            999 V2000
   56.2360  -19.7120   37.5560 N   0  3  0  0  0  0
   55.2230  -19.0470   36.7670 C   0  0  2  0  0  0
   53.8700  -19.6930   37.0090 C   0  0  0  0  0  0
   53.0910  -19.0420   38.1760 C   0  0  0  0  0  0
   52.0960  -20.0520   38.7420 C   0  0  0  0  0  0
   52.2820  -17.7650   37.8090 C   0  0  0  0  0  0
   55.5730  -19.0090   35.2790 C   0  0  2  0  0  0
   56.9760  -19.0730   35.0810 O   0  0  0  0  0  0
   55.1260  -17.7080   34.6980 C   0  0  0  0  0  0
   55.7350  -16.6800   34.9610 O   0  0  0  0  0  0
   54.0340  -17.7250   33.9360 N   0  0  0  0  0  0
   53.4570  -16.5130   33.3410 C   0  0  2  0  0  0
   52.0380  -16.5690   33.8160 C   0  0  0  0  0  0
   51.4080  -17.6390   33.8090 O   0  0  0  0  0  0
   53.6810  -16.6110   31.8360 C   0  0  0  0  0  0
   52.6660  -15.8270   31.0200 C   0  0  0  0  0  0
   55.1070  -16.1450   31.4880 C   0  0  0  0  0  0
   51.5290  -15.4460   34.3160 N   0  0  0  0  0  0
   50.1820  -15.4620   34.8880 C   0  0  2  0  0  0
   49.0410  -15.3590   33.9360 C   0  0  0  0  0  0
   48.0970  -16.1150   34.0880 O   0  0  0  0  0  0
   50.0200  -14.3110   35.9020 C   0  0  0  0  0  0
   48.8500  -14.6600   36.8120 C   0  0  0  0  0  0
   51.2230  -13.9490   36.7550 C   0  0  0  0  0  0
   49.0980  -14.4060   33.0130 N   0  0  0  0  0  0
   47.9960  -14.2080   32.0530 C   0  0  2  0  0  0
   48.3400  -14.4390   30.6150 C   0  0  0  0  0  0
   47.3910  -14.8110   29.8790 O   0  0  0  0  0  0
   47.6350  -12.7240   32.1320 C   0  0  0  0  0  0
   46.6670  -12.5560   33.2740 C   0  0  0  0  0  0
   46.7550  -11.4770   33.9090 O   0  0  0  0  0  0
   45.8480  -13.4870   33.5490 O   0  5  0  0  0  0
   49.5360  -14.2170   30.2520 O   0  5  0  0  0  0
   55.9356  -19.7113   38.6142 H   0  0  0  0  0  0
   57.1932  -19.1813   37.4462 H   0  0  0  0  0  0
   56.3497  -20.7492   37.2078 H   0  0  0  0  0  0
   55.2149  -18.0117   37.1387 H   0  0  0  0  0  0
   53.2530  -19.6020   36.1029 H   0  0  0  0  0  0
   54.0097  -20.7566   37.2522 H   0  0  0  0  0  0
   53.8626  -18.7529   38.9047 H   0  0  0  0  0  0
   52.6270  -20.9754   39.0165 H   0  0  0  0  0  0
   51.3328  -20.2796   37.9832 H   0  0  0  0  0  0
   51.6113  -19.6287   39.6341 H   0  0  0  0  0  0
   52.9624  -17.0062   37.3951 H   0  0  0  0  0  0
   51.7950  -17.3675   38.7117 H   0  0  0  0  0  0
   51.5165  -18.0183   37.0607 H   0  0  0  0  0  0
   55.1342  -19.8772   34.7656 H   0  0  0  0  0  0
   57.5412  -19.9500   35.4294 H   0  0  0  0  0  0
   53.5619  -18.7027   33.7595 H   0  0  0  0  0  0
   53.8925  -15.5505   33.6475 H   0  0  0  0  0  0
   53.5344  -17.6679   31.5686 H   0  0  0  0  0  0
   51.6508  -16.1657   31.2743 H   0  0  0  0  0  0
   52.8502  -15.9930   29.9483 H   0  0  0  0  0  0
   52.7625  -14.7550   31.2469 H   0  0  0  0  0  0
   55.8349  -16.7168   32.0823 H   0  0  0  0  0  0
   55.2085  -15.0736   31.7158 H   0  0  0  0  0  0
   55.2961  -16.3117   30.4173 H   0  0  0  0  0  0
   52.1097  -14.5119   34.3025 H   0  0  0  0  0  0
   50.1467  -16.4822   35.2977 H   0  0  0  0  0  0
   49.8641  -13.4014   35.3033 H   0  0  0  0  0  0
   47.9750  -14.9233   36.1996 H   0  0  0  0  0  0
   48.6071  -13.7941   37.4454 H   0  0  0  0  0  0
   49.1227  -15.5148   37.4484 H   0  0  0  0  0  0
   52.0719  -13.6958   36.1030 H   0  0  0  0  0  0
   51.4920  -14.8049   37.3915 H   0  0  0  0  0  0
   50.9764  -13.0842   37.3884 H   0  0  0  0  0  0
   49.9863  -13.7585   32.9718 H   0  0  0  0  0  0
   47.2334  -14.9495   32.3334 H   0  0  0  0  0  0
   48.5462  -12.1339   32.3095 H   0  0  0  0  0  0
   47.1723  -12.4083   31.1853 H   0  0  0  0  0  0
  1  2  1  0  0  0
  1 34  1  0  0  0
  1 35  1  0  0  0
  1 36  1  0  0  0
  2  3  1  0  0  0
  2  7  1  0  0  0
  2 37  1  0  0  0
  3  4  1  0  0  0
  3 38  1  0  0  0
  3 39  1  0  0  0
  4  5  1  0  0  0
  4  6  1  0  0  0
  4 40  1  0  0  0
  5 41  1  0  0  0
  5 42  1  0  0  0
  5 43  1  0  0  0
  6 44  1  0  0  0
  6 45  1  0  0  0
  6 46  1  0  0  0
  7  8  1  0  0  0
  7  9  1  0  0  0
  7 47  1  0  0  0
  8 48  1  0  0  0
  9 10  2  0  0  0
  9 11  1  0  0  0
 11 12  1  0  0  0
 11 49  1  0  0  0
 12 13  1  0  0  0
 12 15  1  0  0  0
 12 50  1  0  0  0
 13 14  2  0  0  0
 13 18  1  0  0  0
 15 16  1  0  0  0
 15 17  1  0  0  0
 15 51  1  0  0  0
 16 52  1  0  0  0
 16 53  1  0  0  0
 16 54  1  0  0  0
 17 55  1  0  0  0
 17 56  1  0  0  0
 17 57  1  0  0  0
 18 19  1  0  0  0
 18 58  1  0  0  0
 19 20  1  0  0  0
 19 22  1  0  0  0
 19 59  1  0  0  0
 20 21  2  0  0  0
 20 25  1  0  0  0
 22 23  1  0  0  0
 22 24  1  0  0  0
 22 60  1  0  0  0
 23 61  1  0  0  0
 23 62  1  0  0  0
 23 63  1  0  0  0
 24 64  1  0  0  0
 24 65  1  0  0  0
 24 66  1  0  0  0
 25 26  1  0  0  0
 25 67  1  0  0  0
 26 27  1  0  0  0
 26 29  1  0  0  0
 26 68  1  0  0  0
 27 28  2  0  0  0
 27 33  1  0  0  0
 29 30  1  0  0  0
 29 69  1  0  0  0
 29 70  1  0  0  0
 30 31  2  0  0  0
 30 32  1  0  0  0
M  CHG  3   1   1  32  -1  33  -1
M  END
> <s_m_source_file>
../4q4i_ligand.sdf

> <i_m_source_file_index>
1

> <s_epik_input>
W0NIM11bQ0hdKFtDSDNdKVtDSDJdW0NAQEhdKFtOSDMrXSlbQ0BIXShbT0hdKUMoPU8pW05IXVtDQEBIXShbQ0hdKFtDSDNdKVtDSDNdKUMoPU8pW05IXVtDQEBIXShbQ0hdKFtDSDNdKVtDSDNdKUMoPU8pW05IXVtDQEhdKEMoPU8pW09IXSlbQ0gyXUMoPU8pW09IXQ==

> <s_epik_cmdline>
J2VwaWtfYXBwJywgJy1pbWFlJywgJ2xpZ2FuZF9wcm8ubWFlJywgJy1vbWFlJywgJ2xpZ2FuZF9wcmVwLm1hZScsICctbXMnLCAnMScsICctcGgnLCAnNycsICctcGh0JywgJzAuNScsICctbnQn

> <r_epik_Ionization_Penalty>
  0.0160

> <r_epik_Ionization_Penalty_Charging>
  0.0159

> <r_epik_Ionization_Penalty_Neutral>
  0.0000

> <r_epik_State_Penalty>
  0.0113

> <r_epik_Charging_Adjusted_Penalty>
0.0272798451781628

> <i_epik_Tot_Q>
-1

> <i_epik_Tot_abs_Q>
3

$$$$
