4q4o_ligand
                    3D
 Schrodinger Suite 2020-3.
 46 49  0  0  1  0            999 V2000
  108.3850   18.3520   24.1940 O   0  0  0  0  0  0
  107.3190   17.9750   23.7150 C   0  0  0  0  0  0
  106.2200   17.6520   24.4990 N   0  0  0  0  0  0
  107.1090   17.8460   22.2710 C   0  0  0  0  0  0
  105.8470   17.4260   21.7980 C   0  0  0  0  0  0
  104.8480   17.0920   22.7080 N   0  3  0  0  0  0
  105.0350   17.2140   24.0360 C   0  0  0  0  0  0
  104.0700   16.8860   24.8740 N   0  0  0  0  0  0
  105.5760   17.4410   20.4230 C   0  0  0  0  0  0
  106.5520   17.8870   19.5310 C   0  0  0  0  0  0
  107.8020   18.2780   20.0130 C   0  0  0  0  0  0
  108.0780   18.2580   21.3630 C   0  0  0  0  0  0
  106.5000   18.0790   18.1510 N   0  0  0  0  0  0
  107.6880   18.5650   17.8400 C   0  0  0  0  0  0
  108.5180   18.6870   18.9020 N   0  3  0  0  0  0
  108.0870   18.9510   16.6280 N   0  0  0  0  0  0
  107.2250   18.8700   15.4590 C   0  0  0  0  0  0
  107.9780   19.0830   14.1640 C   0  0  0  0  0  0
  107.0810   19.1080   12.9630 N   0  3  0  0  0  0
  107.8210   18.7130   11.7270 C   0  0  0  0  0  0
  106.8910   18.6580   10.5390 C   0  0  0  0  0  0
  106.1980   19.9880   10.3230 C   0  0  0  0  0  0
  105.5040   20.4450   11.5940 C   0  0  0  0  0  0
  106.4510   20.4510   12.7740 C   0  0  0  0  0  0
  103.8782   16.7184   22.3476 H   0  0  0  0  0  0
  104.2254   16.9866   25.9583 H   0  0  0  0  0  0
  104.6074   17.1058   20.0521 H   0  0  0  0  0  0
  109.0604   18.5666   21.7206 H   0  0  0  0  0  0
  109.1104   19.3424   16.5307 H   0  0  0  0  0  0
  106.7564   17.8757   15.4172 H   0  0  0  0  0  0
  106.4434   19.6412   15.5256 H   0  0  0  0  0  0
  108.5107   20.0446   14.2035 H   0  0  0  0  0  0
  108.7029   18.2678   14.0230 H   0  0  0  0  0  0
  106.2808   18.3745   13.1410 H   0  0  0  0  0  0
  108.6131   19.4485   11.5231 H   0  0  0  0  0  0
  108.2712   17.7197   11.8708 H   0  0  0  0  0  0
  107.4660   18.4112    9.6343 H   0  0  0  0  0  0
  106.1250   17.8869   10.7083 H   0  0  0  0  0  0
  106.9407   20.7454   10.0318 H   0  0  0  0  0  0
  105.4472   19.8851    9.5256 H   0  0  0  0  0  0
  105.1171   21.4652   11.4540 H   0  0  0  0  0  0
  104.6701   19.7646   11.8214 H   0  0  0  0  0  0
  105.8859   20.7214   13.6782 H   0  0  0  0  0  0
  107.2347   21.2015   12.5933 H   0  0  0  0  0  0
  109.5595   19.0233   19.0121 H   0  0  0  0  0  0
  103.1102   16.5119   24.4883 H   0  0  0  0  0  0
  1  2  2  0  0  0
  2  3  1  0  0  0
  2  4  1  0  0  0
  3  7  1  0  0  0
  4  5  2  0  0  0
  4 12  1  0  0  0
  5  6  1  0  0  0
  5  9  1  0  0  0
  6  7  2  0  0  0
  6 25  1  0  0  0
  7  8  1  0  0  0
  8 26  1  0  0  0
  8 46  1  0  0  0
  9 10  2  0  0  0
  9 27  1  0  0  0
 10 11  1  0  0  0
 10 13  1  0  0  0
 11 12  2  0  0  0
 11 15  1  0  0  0
 12 28  1  0  0  0
 13 14  2  0  0  0
 14 15  1  0  0  0
 14 16  1  0  0  0
 15 45  1  0  0  0
 16 17  1  0  0  0
 16 29  1  0  0  0
 17 18  1  0  0  0
 17 30  1  0  0  0
 17 31  1  0  0  0
 18 19  1  0  0  0
 18 32  1  0  0  0
 18 33  1  0  0  0
 19 20  1  0  0  0
 19 24  1  0  0  0
 19 34  1  0  0  0
 20 21  1  0  0  0
 20 35  1  0  0  0
 20 36  1  0  0  0
 21 22  1  0  0  0
 21 37  1  0  0  0
 21 38  1  0  0  0
 22 23  1  0  0  0
 22 39  1  0  0  0
 22 40  1  0  0  0
 23 24  1  0  0  0
 23 41  1  0  0  0
 23 42  1  0  0  0
 24 43  1  0  0  0
 24 44  1  0  0  0
M  CHG  3   6   1  15   1  19   1
M  END
> <s_m_source_file>
../4q4o_ligand.sdf

> <i_m_source_file_index>
1

> <s_epik_input>
Tz1jMVtuSF0vYyg9TlxbSF0pW25IXWMoYzEyKVtjSF1jM2MoW2NIXTIpW25IXWMobjMpW05IXVtDSDJdW0NIMl1bTkgrXTRbQ0gyXVtDSDJdW0NIMl1bQ0gyXVtDSDJdNA==

> <s_epik_cmdline>
J2VwaWtfYXBwJywgJy1pbWFlJywgJ2xpZ2FuZF9wcm8ubWFlJywgJy1vbWFlJywgJ2xpZ2FuZF9wcmVwLm1hZScsICctbXMnLCAnMScsICctcGgnLCAnNycsICctcGh0JywgJzAuNScsICctbnQn

> <r_lp_tautomer_probability>
1

> <r_epik_Ionization_Penalty>
  0.0407

> <r_epik_Ionization_Penalty_Charging>
  0.0405

> <r_epik_Ionization_Penalty_Neutral>
  0.0003

> <r_epik_State_Penalty>
 -0.0000

> <r_epik_Charging_Adjusted_Penalty>
0.0404562986394326

> <i_epik_Tot_Q>
3

> <i_epik_Tot_abs_Q>
3

> <s_epik_Chemistry_Notes>
This compound has an imine and may undergo hydrolysis.

$$$$
