4q4p_ligand
                    3D
 Schrodinger Suite 2020-3.
 44 47  0  0  1  0            999 V2000
  109.0460   18.4540   24.1300 O   0  0  0  0  0  0
  107.9630   18.1050   23.6670 C   0  0  0  0  0  0
  106.8830   17.7850   24.4800 N   0  0  0  0  0  0
  107.6990   18.0350   22.2280 C   0  0  0  0  0  0
  106.4020   17.7000   21.7870 C   0  0  0  0  0  0
  105.4170   17.3910   22.7210 N   0  0  0  0  0  0
  105.6600   17.4370   24.0430 C   0  0  0  0  0  0
  106.0950   17.7450   20.4230 C   0  0  0  0  0  0
  107.0750   18.1250   19.5020 C   0  0  0  0  0  0
  108.3610   18.4240   19.9500 C   0  0  0  0  0  0
  108.6710   18.3810   21.2920 C   0  0  0  0  0  0
  106.9990   18.3160   18.1240 N   0  0  0  0  0  0
  108.2150   18.7070   17.7820 C   0  0  0  0  0  0
  109.0750   18.7800   18.8220 N   0  3  0  0  0  0
  108.6210   19.0120   16.5470 N   0  0  0  0  0  0
  107.7210   18.9920   15.4080 C   0  0  0  0  0  0
  108.4550   19.1210   14.0920 C   0  0  0  0  0  0
  107.5390   19.0940   12.9080 N   0  3  0  0  0  0
  108.2860   18.7640   11.6580 C   0  0  0  0  0  0
  107.3440   18.6610   10.4830 C   0  0  0  0  0  0
  106.5570   19.9420   10.2960 C   0  0  0  0  0  0
  105.8540   20.3320   11.5810 C   0  0  0  0  0  0
  106.8180   20.3930   12.7450 C   0  0  0  0  0  0
  104.8712   17.1939   24.7549 H   0  0  0  0  0  0
  105.0940   17.4843   20.0794 H   0  0  0  0  0  0
  109.6820   18.6189   21.6228 H   0  0  0  0  0  0
  107.1659   18.0424   15.3960 H   0  0  0  0  0  0
  107.0126   19.8299   15.4857 H   0  0  0  0  0  0
  109.0028   20.0746   14.0697 H   0  0  0  0  0  0
  109.1650   18.2877   13.9849 H   0  0  0  0  0  0
  106.7935   18.3057   13.0892 H   0  0  0  0  0  0
  109.0243   19.5532   11.4529 H   0  0  0  0  0  0
  108.8035   17.8015   11.7834 H   0  0  0  0  0  0
  107.9207   18.4672    9.5666 H   0  0  0  0  0  0
  106.6359   17.8363   10.6519 H   0  0  0  0  0  0
  107.2406   20.7531   10.0047 H   0  0  0  0  0  0
  105.8029   19.7974    9.5083 H   0  0  0  0  0  0
  105.3919   21.3229   11.4599 H   0  0  0  0  0  0
  105.0755   19.5902   11.8128 H   0  0  0  0  0  0
  106.2523   20.6159   13.6617 H   0  0  0  0  0  0
  107.5465   21.1960   12.5594 H   0  0  0  0  0  0
  106.0519   18.1339   17.5949 H   0  0  0  0  0  0
  106.9933   17.8052   25.5743 H   0  0  0  0  0  0
  110.1384   19.0485   18.9062 H   0  0  0  0  0  0
  1  2  2  0  0  0
  2  3  1  0  0  0
  2  4  1  0  0  0
  3  7  1  0  0  0
  3 43  1  0  0  0
  4  5  1  0  0  0
  4 11  2  0  0  0
  5  6  1  0  0  0
  5  8  2  0  0  0
  6  7  2  0  0  0
  7 24  1  0  0  0
  8  9  1  0  0  0
  8 25  1  0  0  0
  9 10  2  0  0  0
  9 12  1  0  0  0
 10 11  1  0  0  0
 10 14  1  0  0  0
 11 26  1  0  0  0
 12 13  1  0  0  0
 12 42  1  0  0  0
 13 14  1  0  0  0
 13 15  2  0  0  0
 14 44  1  0  0  0
 15 16  1  0  0  0
 16 17  1  0  0  0
 16 27  1  0  0  0
 16 28  1  0  0  0
 17 18  1  0  0  0
 17 29  1  0  0  0
 17 30  1  0  0  0
 18 19  1  0  0  0
 18 23  1  0  0  0
 18 31  1  0  0  0
 19 20  1  0  0  0
 19 32  1  0  0  0
 19 33  1  0  0  0
 20 21  1  0  0  0
 20 34  1  0  0  0
 20 35  1  0  0  0
 21 22  1  0  0  0
 21 36  1  0  0  0
 21 37  1  0  0  0
 22 23  1  0  0  0
 22 38  1  0  0  0
 22 39  1  0  0  0
 23 40  1  0  0  0
 23 41  1  0  0  0
M  CHG  2  14   1  18   1
M  END
> <s_m_source_file>
../4q4p_ligand.sdf

> <i_m_source_file_index>
1

> <s_epik_input>
Tz1jMW5bY0hdW25IXWMoYzEyKVtjSF1jM2MoW2NIXTIpW25IXWMobjMpW05IXVtDSDJdW0NIMl1bTkgrXTRbQ0gyXVtDSDJdW0NIMl1bQ0gyXVtDSDJdNA==

> <s_epik_cmdline>
J2VwaWtfYXBwJywgJy1pbWFlJywgJ2xpZ2FuZF9wcm8ubWFlJywgJy1vbWFlJywgJ2xpZ2FuZF9wcmVwLm1hZScsICctbXMnLCAnMScsICctcGgnLCAnNycsICctcGh0JywgJzAuNScsICctbnQn

> <r_lp_tautomer_probability>
1

> <r_epik_Ionization_Penalty>
  0.0066

> <r_epik_Ionization_Penalty_Charging>
  0.0066

> <r_epik_Ionization_Penalty_Neutral>
  0.0000

> <r_epik_State_Penalty>
 -0.0000

> <r_epik_Charging_Adjusted_Penalty>
0.00663743185130808

> <i_epik_Tot_Q>
2

> <i_epik_Tot_abs_Q>
2

> <s_epik_Chemistry_Notes>
This compound has an imine and may undergo hydrolysis.

$$$$
