4q4r_ligand
                    3D
 Schrodinger Suite 2020-3.
 41 44  0  0  1  0            999 V2000
  106.9150   17.7540   24.4610 N   0  0  0  0  0  0
  105.3960   17.3400   22.6940 N   0  0  0  0  0  0
  106.4020   17.6830   21.7930 C   0  0  0  0  0  0
  107.6910   18.0460   22.2190 C   0  0  0  0  0  0
  107.9710   18.0990   23.6560 C   0  0  0  0  0  0
  108.6590   18.3950   21.2830 C   0  0  0  0  0  0
  108.3410   18.4280   19.9420 C   0  0  0  0  0  0
  106.0870   17.7100   20.4270 C   0  0  0  0  0  0
  109.0400   18.8010   18.8110 N   0  0  0  0  0  0
  108.1750   18.7150   17.7770 C   0  0  0  0  0  0
  105.6840   17.3860   23.9930 C   0  0  0  0  0  0
  107.0580   18.1040   19.5020 C   0  0  0  0  0  0
  106.9690   18.2990   18.1240 N   0  3  0  0  0  0
  108.5620   19.0390   16.5380 N   0  0  0  0  0  0
  109.0420   18.4630   24.1310 O   0  0  0  0  0  0
  107.6540   18.9930   15.4030 C   0  0  0  0  0  0
  108.3730   19.2130   14.1000 C   0  0  0  0  0  0
  107.4350   19.2530   12.9740 N   0  0  0  0  0  0
  108.0830   18.8720   11.7190 C   0  0  0  0  0  0
  107.0850   18.9080   10.5920 C   0  0  0  0  0  0
  106.5050   20.2000   10.4490 O   0  0  0  0  0  0
  105.8700   20.5850   11.6660 C   0  0  0  0  0  0
  106.8390   20.5830   12.8210 C   0  0  0  0  0  0
  107.0312   17.7632   25.5548 H   0  0  0  0  0  0
  109.6690   18.6424   21.6098 H   0  0  0  0  0  0
  105.0908   17.4254   20.0884 H   0  0  0  0  0  0
  104.9085   17.1200   24.7113 H   0  0  0  0  0  0
  109.6077   19.3484   16.3936 H   0  0  0  0  0  0
  107.1648   18.0085   15.3645 H   0  0  0  0  0  0
  106.8908   19.7776   15.5119 H   0  0  0  0  0  0
  108.9155   20.1692   14.1375 H   0  0  0  0  0  0
  109.0866   18.3929   13.9319 H   0  0  0  0  0  0
  108.9008   19.5745   11.5006 H   0  0  0  0  0  0
  108.4890   17.8537   11.8103 H   0  0  0  0  0  0
  107.5872   18.6458    9.6491 H   0  0  0  0  0  0
  106.2800   18.1855   10.7919 H   0  0  0  0  0  0
  105.4580   21.5994   11.5596 H   0  0  0  0  0  0
  105.0562   19.8808   11.8937 H   0  0  0  0  0  0
  106.3032   20.8529   13.7430 H   0  0  0  0  0  0
  107.6323   21.3204   12.6287 H   0  0  0  0  0  0
  106.1849   18.1875   17.3606 H   0  0  0  0  0  0
  1  5  1  0  0  0
  1 11  1  0  0  0
  1 24  1  0  0  0
  2  3  1  0  0  0
  2 11  2  0  0  0
  3  4  2  0  0  0
  3  8  1  0  0  0
  4  5  1  0  0  0
  4  6  1  0  0  0
  5 15  2  0  0  0
  6  7  2  0  0  0
  6 25  1  0  0  0
  7  9  1  0  0  0
  7 12  1  0  0  0
  8 12  2  0  0  0
  8 26  1  0  0  0
  9 10  2  0  0  0
 10 13  1  0  0  0
 10 14  1  0  0  0
 11 27  1  0  0  0
 12 13  1  0  0  0
 13 41  1  0  0  0
 14 16  1  0  0  0
 14 28  1  0  0  0
 16 17  1  0  0  0
 16 29  1  0  0  0
 16 30  1  0  0  0
 17 18  1  0  0  0
 17 31  1  0  0  0
 17 32  1  0  0  0
 18 19  1  0  0  0
 18 23  1  0  0  0
 19 20  1  0  0  0
 19 33  1  0  0  0
 19 34  1  0  0  0
 20 21  1  0  0  0
 20 35  1  0  0  0
 20 36  1  0  0  0
 21 22  1  0  0  0
 22 23  1  0  0  0
 22 37  1  0  0  0
 22 38  1  0  0  0
 23 39  1  0  0  0
 23 40  1  0  0  0
M  CHG  1  13   1
M  END
> <s_m_source_file>
../4q4r_ligand.sdf

> <i_m_source_file_index>
1

> <s_epik_input>
bjFbY0hdW25IXWMoPU8pYyhjMTIpW2NIXWMzYyhbY0hdMilbbkhdYyhuMylbTkhdW0NIMl1bQ0gyXVtOSCtdNFtDSDJdW0NIMl1PW0NIMl1bQ0gyXTQ=

> <s_epik_cmdline>
J2VwaWtfYXBwJywgJy1pbWFlJywgJ2xpZ2FuZF9wcm8ubWFlJywgJy1vbWFlJywgJ2xpZ2FuZF9wcmVwLm1hZScsICctbXMnLCAnMScsICctcGgnLCAnNycsICctcGh0JywgJzAuNScsICctbnQn

> <r_lp_tautomer_probability>
1

> <r_epik_Ionization_Penalty>
  0.1447

> <r_epik_Ionization_Penalty_Charging>
  0.0001

> <r_epik_Ionization_Penalty_Neutral>
  0.1446

> <r_epik_State_Penalty>
 -0.0000

> <r_epik_Charging_Adjusted_Penalty>
9.68804917723674e-05

> <i_epik_Tot_Q>
1

> <i_epik_Tot_abs_Q>
1

> <s_epik_Chemistry_Notes>
This compound has an imine and may undergo hydrolysis.

$$$$
