4q6d_ligand
                    3D
 Schrodinger Suite 2020-3.
 37 38  0  0  1  0            999 V2000
   -7.3840    0.8530   16.6770 O   0  0  0  0  0  0
   -5.9560    0.8100   16.7890 S   0  0  0  0  0  0
   -5.3930    0.8940   18.1220 O   0  0  0  0  0  0
   -5.3840   -0.4970   16.0340 N   0  0  0  0  0  0
   -5.4080    2.2380   15.9480 C   0  0  0  0  0  0
   -6.2840    3.2410   15.5430 C   0  0  0  0  0  0
   -4.0160    2.3900   15.6600 C   0  0  0  0  0  0
   -3.5800    3.5380   14.9560 C   0  0  0  0  0  0
   -4.5060    4.4950   14.5600 C   0  0  0  0  0  0
   -5.8320    4.3490   14.8510 C   0  0  0  0  0  0
   -4.1190    5.6210   13.8120 N   0  0  0  0  0  0
   -2.8920    5.8960   13.8480 N   0  0  0  0  0  0
   -2.3920    7.0110   13.2950 N   0  0  0  0  0  0
   -1.3260    7.4550   14.1650 C   0  0  0  0  0  0
   -0.3130    8.5280   13.8420 C   0  0  0  0  0  0
   -1.0930    9.7850   14.1500 C   0  0  0  0  0  0
   -2.1350   10.0250   13.0600 C   0  0  0  0  0  0
   -2.3820    9.0030   11.9310 C   0  0  0  0  0  0
   -3.1360    7.7530   12.3340 C   0  0  0  0  0  0
   -5.7251   -1.4019   16.5582 H   0  0  0  0  0  0
   -4.2844   -0.4672   16.0316 H   0  0  0  0  0  0
   -7.3451    3.1512   15.7756 H   0  0  0  0  0  0
   -3.3001    1.6322   15.9782 H   0  0  0  0  0  0
   -2.5229    3.6705   14.7257 H   0  0  0  0  0  0
   -6.5412    5.1138   14.5345 H   0  0  0  0  0  0
   -1.7546    7.8493   15.0982 H   0  0  0  0  0  0
   -0.6635    6.6076   14.3951 H   0  0  0  0  0  0
    0.5734    8.3996   14.4806 H   0  0  0  0  0  0
   -0.0183    8.4479   12.7853 H   0  0  0  0  0  0
   -1.5995    9.6738   15.1201 H   0  0  0  0  0  0
   -0.4052   10.6424   14.1917 H   0  0  0  0  0  0
   -3.1288   10.1304   13.5196 H   0  0  0  0  0  0
   -1.8857   10.9448   12.5105 H   0  0  0  0  0  0
   -2.9712    9.4754   11.1312 H   0  0  0  0  0  0
   -1.4172    8.6650   11.5248 H   0  0  0  0  0  0
   -3.3031    7.1326   11.4411 H   0  0  0  0  0  0
   -4.1053    8.0434   12.7654 H   0  0  0  0  0  0
  1  2  2  0  0  0
  2  3  2  0  0  0
  2  4  1  0  0  0
  2  5  1  0  0  0
  4 20  1  0  0  0
  4 21  1  0  0  0
  5  6  2  0  0  0
  5  7  1  0  0  0
  6 10  1  0  0  0
  6 22  1  0  0  0
  7  8  2  0  0  0
  7 23  1  0  0  0
  8  9  1  0  0  0
  8 24  1  0  0  0
  9 10  2  0  0  0
  9 11  1  0  0  0
 10 25  1  0  0  0
 11 12  2  0  0  0
 12 13  1  0  0  0
 13 14  1  0  0  0
 13 19  1  0  0  0
 14 15  1  0  0  0
 14 26  1  0  0  0
 14 27  1  0  0  0
 15 16  1  0  0  0
 15 28  1  0  0  0
 15 29  1  0  0  0
 16 17  1  0  0  0
 16 30  1  0  0  0
 16 31  1  0  0  0
 17 18  1  0  0  0
 17 32  1  0  0  0
 17 33  1  0  0  0
 18 19  1  0  0  0
 18 34  1  0  0  0
 18 35  1  0  0  0
 19 36  1  0  0  0
 19 37  1  0  0  0
M  END
> <s_m_source_file>
../4q6d_ligand.sdf

> <i_m_source_file_index>
1

> <s_epik_input>
Tz1TKD1PKShbTkgyXSljMVtjSF1bY0hdYyhbY0hdW2NIXTEpL049Ti9OMltDSDJdW0NIMl1bQ0gyXVtDSDJdW0NIMl1bQ0gyXTI=

> <s_epik_cmdline>
J2VwaWtfYXBwJywgJy1pbWFlJywgJ2xpZ2FuZF9wcm8ubWFlJywgJy1vbWFlJywgJ2xpZ2FuZF9wcmVwLm1hZScsICctbXMnLCAnMScsICctcGgnLCAnNycsICctcGh0JywgJzAuNScsICctbnQn

> <r_lp_tautomer_probability>
1

> <r_epik_Ionization_Penalty>
  0.0010

> <r_epik_Ionization_Penalty_Charging>
  0.0000

> <r_epik_Ionization_Penalty_Neutral>
  0.0010

> <r_epik_State_Penalty>
 -0.0000

> <r_epik_Charging_Adjusted_Penalty>
0

> <i_epik_Tot_Q>
0

> <i_epik_Tot_abs_Q>
0

$$$$
