4q6f_ligand
                    3D
 Schrodinger Suite 2020-3.
 90 89  0  0  1  0            999 V2000
    2.2520  -13.8430  -16.8000 N   0  3  0  0  0  0
    1.0590  -14.7180  -16.5790 C   0  0  2  0  0  0
    1.0350  -15.1760  -15.1410 C   0  0  0  0  0  0
    2.0560  -15.1840  -14.4690 O   0  0  0  0  0  0
    1.0680  -15.9200  -17.5180 C   0  0  0  0  0  0
   -0.1380  -15.5360  -14.6520 N   0  0  0  0  0  0
   -0.2370  -16.0110  -13.2790 C   0  0  2  0  0  0
   -0.8550  -17.3930  -13.1940 C   0  0  0  0  0  0
   -1.3410  -17.9440  -14.1840 O   0  0  0  0  0  0
   -0.9730  -14.9950  -12.3860 C   0  0  0  0  0  0
   -2.4120  -14.7140  -12.7440 C   0  0  0  0  0  0
   -2.5930  -13.5320  -13.6970 C   0  0  0  0  0  0
   -4.0320  -13.2570  -13.8700 N   0  0  0  0  0  0
   -4.8540  -13.8850  -14.7250 C   0  0  0  0  0  0
   -6.1380  -13.5690  -14.7590 N   0  3  0  0  0  0
   -4.4170  -14.8250  -15.5560 N   0  0  0  0  0  0
   -0.7650  -17.9580  -11.9910 N   0  0  0  0  0  0
   -1.2380  -19.2890  -11.6800 C   0  0  2  0  0  0
   -2.4450  -19.1920  -10.7390 C   0  0  0  0  0  0
   -2.7370  -18.1280  -10.1590 O   0  0  0  0  0  0
   -0.1180  -20.1460  -11.0350 C   0  0  2  0  0  0
    0.1810  -19.6570   -9.7010 O   0  0  0  0  0  0
    1.1330  -20.0840  -11.8840 C   0  0  0  0  0  0
   -3.1400  -20.3130  -10.6050 N   0  0  0  0  0  0
   -4.2640  -20.4380   -9.6920 C   0  0  2  0  0  0
   -3.8140  -20.2180   -8.2390 C   0  0  0  0  0  0
   -4.5900  -19.7530   -7.4440 O   0  0  0  0  0  0
   -4.8800  -21.8200   -9.8340 C   0  0  0  0  0  0
   -6.0310  -22.1230   -8.8910 C   0  0  0  0  0  0
   -6.5170  -23.5290   -9.1710 C   0  0  0  0  0  0
   -7.7910  -23.8540   -8.4180 C   0  0  0  0  0  0
   -8.3500  -25.1060   -8.9880 N   0  3  0  0  0  0
   -2.5610  -20.5250   -7.9050 N   0  0  0  0  0  0
   -2.0560  -20.2220   -6.5670 C   0  0  2  0  0  0
   -2.0420  -18.7090   -6.2480 C   0  0  0  0  0  0
   -1.4360  -17.8970   -6.9770 O   0  5  0  0  0  0
   -0.6650  -20.7950   -6.4080 C   0  0  0  0  0  0
   -0.1570  -20.7710   -4.9770 C   0  0  0  0  0  0
    1.3510  -20.8920   -4.9240 C   0  0  0  0  0  0
    2.0690  -20.2550   -5.7020 O   0  0  0  0  0  0
    1.8440  -21.7120   -4.0150 N   0  0  0  0  0  0
   -2.6360  -18.2500   -5.2510 O   0  0  0  0  0  0
    2.2133  -12.9886  -16.1082 H   0  0  0  0  0  0
    2.2502  -13.4756  -17.8368 H   0  0  0  0  0  0
    3.1697  -14.4213  -16.6175 H   0  0  0  0  0  0
    0.1608  -14.1194  -16.7910 H   0  0  0  0  0  0
    1.0855  -15.5705  -18.5608 H   0  0  0  0  0  0
    0.1645  -16.5242  -17.3489 H   0  0  0  0  0  0
    1.9605  -16.5321  -17.3214 H   0  0  0  0  0  0
   -1.0392  -15.4775  -15.2801 H   0  0  0  0  0  0
    0.8087  -16.1018  -12.9499 H   0  0  0  0  0  0
   -0.9838  -15.3593  -11.3481 H   0  0  0  0  0  0
   -0.4545  -14.0258  -12.4290 H   0  0  0  0  0  0
   -2.8471  -15.5974  -13.2342 H   0  0  0  0  0  0
   -2.9794  -14.4853  -11.8298 H   0  0  0  0  0  0
   -2.0974  -12.6439  -13.2779 H   0  0  0  0  0  0
   -2.1460  -13.7754  -14.6722 H   0  0  0  0  0  0
   -4.5193  -12.4768  -13.2668 H   0  0  0  0  0  0
   -6.5320  -12.7949  -14.0840 H   0  0  0  0  0  0
   -3.3549  -15.1112  -15.5530 H   0  0  0  0  0  0
   -5.1173  -15.3170  -16.2470 H   0  0  0  0  0  0
   -0.2954  -17.3443  -11.2082 H   0  0  0  0  0  0
   -1.5310  -19.7224  -12.6477 H   0  0  0  0  0  0
   -0.4374  -21.1919  -10.9162 H   0  0  0  0  0  0
   -0.6094  -19.6258   -8.9366 H   0  0  0  0  0  0
    0.9085  -20.4541  -12.8952 H   0  0  0  0  0  0
    1.9156  -20.7095  -11.4299 H   0  0  0  0  0  0
    1.4842  -19.0433  -11.9440 H   0  0  0  0  0  0
   -2.8341  -21.1711  -11.2215 H   0  0  0  0  0  0
   -4.9824  -19.6603   -9.9905 H   0  0  0  0  0  0
   -5.2740  -21.9428  -10.8537 H   0  0  0  0  0  0
   -4.1129  -22.5848   -9.6427 H   0  0  0  0  0  0
   -5.6829  -22.0443   -7.8505 H   0  0  0  0  0  0
   -6.8440  -21.4019   -9.0612 H   0  0  0  0  0  0
   -6.7179  -23.6401  -10.2468 H   0  0  0  0  0  0
   -5.7456  -24.2513   -8.8656 H   0  0  0  0  0  0
   -7.5616  -23.9902   -7.3509 H   0  0  0  0  0  0
   -8.5078  -23.0280   -8.5364 H   0  0  0  0  0  0
   -9.2784  -25.3672   -8.4590 H   0  0  0  0  0  0
   -7.6197  -25.9202   -8.8708 H   0  0  0  0  0  0
   -8.5659  -24.9580  -10.0564 H   0  0  0  0  0  0
   -1.9055  -21.0095   -8.6436 H   0  0  0  0  0  0
   -2.7640  -20.7231   -5.8905 H   0  0  0  0  0  0
   -0.6602  -21.8435   -6.7405 H   0  0  0  0  0  0
    0.0428  -20.2139   -7.0174 H   0  0  0  0  0  0
   -0.4480  -19.8232   -4.5005 H   0  0  0  0  0  0
   -0.5944  -21.6117   -4.4185 H   0  0  0  0  0  0
    1.1667  -22.2592   -3.3428 H   0  0  0  0  0  0
    2.9322  -21.8483   -3.9296 H   0  0  0  0  0  0
   -6.8118  -14.0803  -15.4622 H   0  0  0  0  0  0
  1  2  1  0  0  0
  1 43  1  0  0  0
  1 44  1  0  0  0
  1 45  1  0  0  0
  2  3  1  0  0  0
  2  5  1  0  0  0
  2 46  1  0  0  0
  3  4  2  0  0  0
  3  6  1  0  0  0
  5 47  1  0  0  0
  5 48  1  0  0  0
  5 49  1  0  0  0
  6  7  1  0  0  0
  6 50  1  0  0  0
  7  8  1  0  0  0
  7 10  1  0  0  0
  7 51  1  0  0  0
  8  9  2  0  0  0
  8 17  1  0  0  0
 10 11  1  0  0  0
 10 52  1  0  0  0
 10 53  1  0  0  0
 11 12  1  0  0  0
 11 54  1  0  0  0
 11 55  1  0  0  0
 12 13  1  0  0  0
 12 56  1  0  0  0
 12 57  1  0  0  0
 13 14  1  0  0  0
 13 58  1  0  0  0
 14 15  2  0  0  0
 14 16  1  0  0  0
 15 59  1  0  0  0
 15 90  1  0  0  0
 16 60  1  0  0  0
 16 61  1  0  0  0
 17 18  1  0  0  0
 17 62  1  0  0  0
 18 19  1  0  0  0
 18 21  1  0  0  0
 18 63  1  0  0  0
 19 20  2  0  0  0
 19 24  1  0  0  0
 21 22  1  0  0  0
 21 23  1  0  0  0
 21 64  1  0  0  0
 22 65  1  0  0  0
 23 66  1  0  0  0
 23 67  1  0  0  0
 23 68  1  0  0  0
 24 25  1  0  0  0
 24 69  1  0  0  0
 25 26  1  0  0  0
 25 28  1  0  0  0
 25 70  1  0  0  0
 26 27  2  0  0  0
 26 33  1  0  0  0
 28 29  1  0  0  0
 28 71  1  0  0  0
 28 72  1  0  0  0
 29 30  1  0  0  0
 29 73  1  0  0  0
 29 74  1  0  0  0
 30 31  1  0  0  0
 30 75  1  0  0  0
 30 76  1  0  0  0
 31 32  1  0  0  0
 31 77  1  0  0  0
 31 78  1  0  0  0
 32 79  1  0  0  0
 32 80  1  0  0  0
 32 81  1  0  0  0
 33 34  1  0  0  0
 33 82  1  0  0  0
 34 35  1  0  0  0
 34 37  1  0  0  0
 34 83  1  0  0  0
 35 36  1  0  0  0
 35 42  2  0  0  0
 37 38  1  0  0  0
 37 84  1  0  0  0
 37 85  1  0  0  0
 38 39  1  0  0  0
 38 86  1  0  0  0
 38 87  1  0  0  0
 39 40  2  0  0  0
 39 41  1  0  0  0
 41 88  1  0  0  0
 41 89  1  0  0  0
M  CHG  4   1   1  15   1  32   1  36  -1
M  END
> <s_m_source_file>
../4q6f_ligand.sdf

> <i_m_source_file_index>
1

> <s_epik_input>
W0hdL049QyhbTkgyXSlcW05IXVtDSDJdW0NIMl1bQ0gyXVtDQEhdKFtOSF1DKD1PKVtDQEBIXShbTkgzK10pW0NIM10pQyg9TylbTkhdW0NAQEhdKFtDQEhdKFtPSF0pW0NIM10pQyg9TylbTkhdW0NAQEhdKFtDSDJdW0NIMl1bQ0gyXVtDSDJdW05IMytdKUMoPU8pW05IXVtDQEhdKEMoPU8pW09IXSlbQ0gyXVtDSDJdQyg9TylbTkgyXQ==

> <s_epik_cmdline>
J2VwaWtfYXBwJywgJy1pbWFlJywgJ2xpZ2FuZF9wcm8ubWFlJywgJy1vbWFlJywgJ2xpZ2FuZF9wcmVwLm1hZScsICctbXMnLCAnMScsICctcGgnLCAnNycsICctcGh0JywgJzAuNScsICctbnQn

> <r_epik_Ionization_Penalty>
  0.1256

> <r_epik_Ionization_Penalty_Charging>
  0.1256

> <r_epik_Ionization_Penalty_Neutral>
  0.0000

> <r_epik_State_Penalty>
  0.1145

> <r_epik_Charging_Adjusted_Penalty>
0.240170803420975

> <i_epik_Tot_Q>
2

> <i_epik_Tot_abs_Q>
4

> <s_epik_Chemistry_Notes>
This compound has an imine and may undergo hydrolysis.

$$$$
