4q6r_ligand
                    3D
 Schrodinger Suite 2020-3.
 57 61  0  0  1  0            999 V2000
   34.9880   15.8700   24.2160 C   0  0  0  0  0  0
   34.4020   14.7010   23.7770 C   0  0  0  0  0  0
   31.6340    9.1690   24.3870 C   0  0  0  0  0  0
   30.5100    7.2330   23.7880 C   0  0  0  0  0  0
   30.9480    6.5970   24.9350 C   0  0  0  0  0  0
   31.7510    7.2690   25.8310 C   0  0  0  0  0  0
   32.0870    8.5740   25.5490 C   0  0  0  0  0  0
   30.5830    5.2410   25.1630 C   0  0  0  0  0  0
   32.1520   11.9790   25.9070 C   0  0  0  0  0  0
   36.0290   16.2450   22.1220 C   0  0  0  0  0  0
   35.7860   16.6380   23.4060 C   0  0  0  0  0  0
   36.5760   15.4510   19.4350 C   0  0  0  0  0  0
   37.9830   14.9030   19.6500 C   0  0  0  0  0  0
   39.0750   15.7440   19.6600 C   0  0  0  0  0  0
   40.3460   15.2420   19.8690 C   0  0  0  0  0  0
   40.5370   13.8840   20.0710 C   0  0  0  0  0  0
   39.4520   13.0350   20.0770 C   0  0  0  0  0  0
   38.1860   13.5490   19.8670 C   0  0  0  0  0  0
   33.7790   12.0370   23.9870 C   0  0  0  0  0  0
   34.7210   16.4460   25.8090 Cl  0  0  0  0  0  0
   34.6360   14.3050   22.4820 C   0  0  0  0  0  0
   34.0840   13.1530   21.9480 C   0  0  0  0  0  0
   34.3670   12.8200   20.7060 N   0  3  0  0  0  0
   35.1420   13.5660   19.9570 N   0  0  0  0  0  0
   35.6780   14.6800   20.3820 C   0  0  0  0  0  0
   35.4450   15.0830   21.6680 C   0  0  0  0  0  0
   33.3360   12.2980   22.6360 N   0  0  0  0  0  0
   32.9110   11.1360   24.8710 C   0  0  2  0  0  0
   31.9350   10.4320   24.0900 N   0  0  0  0  0  0
   31.2540   11.0980   23.0050 C   0  0  0  0  0  0
   32.2570   11.6150   21.9820 C   0  0  0  0  0  0
   30.8630    8.4920   23.5500 N   0  0  0  0  0  0
   30.3230    4.1380   25.3240 N   0  0  0  0  0  0
   33.7709   14.1078   24.4388 H   0  0  0  0  0  0
   29.8751    6.7017   23.0789 H   0  0  0  0  0  0
   32.1099    6.7811   26.7372 H   0  0  0  0  0  0
   32.7106    9.1381   26.2426 H   0  0  0  0  0  0
   32.8719   12.5346   26.5260 H   0  0  0  0  0  0
   31.5507   11.3177   26.5482 H   0  0  0  0  0  0
   31.4900   12.6883   25.3886 H   0  0  0  0  0  0
   36.6710   16.8374   21.4701 H   0  0  0  0  0  0
   36.2249   17.5600   23.7873 H   0  0  0  0  0  0
   36.5629   16.5271   19.6626 H   0  0  0  0  0  0
   36.2774   15.2941   18.3880 H   0  0  0  0  0  0
   38.9353   16.8134   19.5019 H   0  0  0  0  0  0
   41.2018   15.9171   19.8750 H   0  0  0  0  0  0
   41.5414   13.4895   20.2245 H   0  0  0  0  0  0
   39.5906   11.9671   20.2459 H   0  0  0  0  0  0
   37.3292   12.8753   19.8722 H   0  0  0  0  0  0
   34.7635   11.5470   23.9618 H   0  0  0  0  0  0
   33.8559   12.9862   24.5375 H   0  0  0  0  0  0
   33.5498   10.3697   25.3344 H   0  0  0  0  0  0
   30.5723   10.3903   22.5106 H   0  0  0  0  0  0
   30.6773   11.9472   23.4003 H   0  0  0  0  0  0
   31.7448   12.3083   21.2986 H   0  0  0  0  0  0
   32.6549   10.7636   21.4102 H   0  0  0  0  0  0
   33.9502   11.8977   20.2753 H   0  0  0  0  0  0
  1  2  2  0  0  0
  1 11  1  0  0  0
  1 20  1  0  0  0
  2 21  1  0  0  0
  2 34  1  0  0  0
  3  7  2  0  0  0
  3 29  1  0  0  0
  3 32  1  0  0  0
  4  5  1  0  0  0
  4 32  2  0  0  0
  4 35  1  0  0  0
  5  6  2  0  0  0
  5  8  1  0  0  0
  6  7  1  0  0  0
  6 36  1  0  0  0
  7 37  1  0  0  0
  8 33  3  0  0  0
  9 28  1  0  0  0
  9 38  1  0  0  0
  9 39  1  0  0  0
  9 40  1  0  0  0
 10 11  2  0  0  0
 10 26  1  0  0  0
 10 41  1  0  0  0
 11 42  1  0  0  0
 12 13  1  0  0  0
 12 25  1  0  0  0
 12 43  1  0  0  0
 12 44  1  0  0  0
 13 14  2  0  0  0
 13 18  1  0  0  0
 14 15  1  0  0  0
 14 45  1  0  0  0
 15 16  2  0  0  0
 15 46  1  0  0  0
 16 17  1  0  0  0
 16 47  1  0  0  0
 17 18  2  0  0  0
 17 48  1  0  0  0
 18 49  1  0  0  0
 19 27  1  0  0  0
 19 28  1  0  0  0
 19 50  1  0  0  0
 19 51  1  0  0  0
 21 22  2  0  0  0
 21 26  1  0  0  0
 22 23  1  0  0  0
 22 27  1  0  0  0
 23 24  2  0  0  0
 23 57  1  0  0  0
 24 25  1  0  0  0
 25 26  2  0  0  0
 27 31  1  0  0  0
 28 29  1  0  0  0
 28 52  1  0  0  0
 29 30  1  0  0  0
 30 31  1  0  0  0
 30 53  1  0  0  0
 30 54  1  0  0  0
 31 55  1  0  0  0
 31 56  1  0  0  0
M  CHG  1  23   1
M  END
> <s_m_source_file>
../4q6r_ligand.sdf

> <i_m_source_file_index>
1

> <s_epik_input>
W2NIXTFbY0hdW2NIXVtjSF1bY0hdYzFbQ0gyXWMoYyhjMjMpW2NIXVtjSF1jKENsKVtjSF0yKW5uYzNONFtDSDJdW0NAQEhdKFtDSDNdKU4oW0NIMl1bQ0gyXTQpYzVbY0hdW2NIXWMoW2NIXW41KUMjTg==

> <s_epik_cmdline>
J2VwaWtfYXBwJywgJy1pbWFlJywgJ2xpZ2FuZF9wcm8ubWFlJywgJy1vbWFlJywgJ2xpZ2FuZF9wcmVwLm1hZScsICctbXMnLCAnMScsICctcGgnLCAnNycsICctcGh0JywgJzAuNScsICctbnQn

> <r_lp_tautomer_probability>
1

> <r_epik_Ionization_Penalty>
  0.0763

> <r_epik_Ionization_Penalty_Charging>
  0.0763

> <r_epik_Ionization_Penalty_Neutral>
  0.0000

> <r_epik_State_Penalty>
 -0.0000

> <r_epik_Charging_Adjusted_Penalty>
0.0762555658891406

> <i_epik_Tot_Q>
1

> <i_epik_Tot_abs_Q>
1

$$$$
