4q7p_ligand
                    3D
 Schrodinger Suite 2020-3.
 15 15  0  0  1  0            999 V2000
   14.9530    0.1600   16.9840 S   0  0  0  0  0  0
   15.4520    1.3640   15.8250 C   0  0  0  0  0  0
   15.0340    2.7110   15.9760 C   0  0  0  0  0  0
   14.2420    3.1260   17.1990 C   0  0  0  0  0  0
   15.3750    3.6280   15.0510 C   0  0  0  0  0  0
   16.1540    3.2590   13.9590 C   0  0  0  0  0  0
   16.5240    1.9430   13.7910 C   0  0  0  0  0  0
   16.2010    1.0040   14.7560 N   0  0  0  0  0  0
   16.5560   -0.2740   14.5890 O   0  5  0  0  0  0
   14.0603    2.2464   17.8340 H   0  0  0  0  0  0
   13.2797    3.5560   16.8841 H   0  0  0  0  0  0
   14.8109    3.8770   17.7668 H   0  0  0  0  0  0
   15.0406    4.6599   15.1578 H   0  0  0  0  0  0
   16.4714    4.0111   13.2367 H   0  0  0  0  0  0
   17.0712    1.6406   12.8981 H   0  0  0  0  0  0
  1  2  2  0  0  0
  2  3  1  0  0  0
  2  8  1  0  0  0
  3  4  1  0  0  0
  3  5  2  0  0  0
  4 10  1  0  0  0
  4 11  1  0  0  0
  4 12  1  0  0  0
  5  6  1  0  0  0
  5 13  1  0  0  0
  6  7  2  0  0  0
  6 14  1  0  0  0
  7  8  1  0  0  0
  7 15  1  0  0  0
  8  9  1  0  0  0
M  CHG  1   9  -1
M  END
> <s_m_source_file>
../4q7p_ligand.sdf

> <i_m_source_file_index>
1

> <s_epik_input>
Uz1jMWMoW0NIM10pW2NIXVtjSF1bY0hdbjFbT0hd

> <s_epik_cmdline>
J2VwaWtfYXBwJywgJy1pbWFlJywgJ2xpZ2FuZF9wcm8ubWFlJywgJy1vbWFlJywgJ2xpZ2FuZF9wcmVwLm1hZScsICctbXMnLCAnMScsICctcGgnLCAnNycsICctcGh0JywgJzAuNScsICctbnQn

> <r_lp_tautomer_probability>
1

> <r_epik_Ionization_Penalty>
  0.0002

> <r_epik_Ionization_Penalty_Charging>
  0.0002

> <r_epik_Ionization_Penalty_Neutral>
  0.0000

> <r_epik_State_Penalty>
 -0.0000

> <r_epik_Charging_Adjusted_Penalty>
0.000193867530668538

> <i_epik_Tot_Q>
-1

> <i_epik_Tot_abs_Q>
1

$$$$
