4q90_ligand
                    3D
 Schrodinger Suite 2020-3.
 15 15  0  0  1  0            999 V2000
   14.9650    5.1160   15.3870 C   0  0  0  0  0  0
   15.4050    3.6850   15.0980 C   0  0  0  0  0  0
   15.0420    2.6320   15.9920 C   0  0  0  0  0  0
   15.4480    1.3690   15.7460 C   0  0  0  0  0  0
   15.0110    0.0610   16.8650 S   0  0  0  0  0  0
   16.2230    1.0920   14.6150 N   0  0  0  0  0  0
   16.5300    2.0980   13.7300 C   0  0  0  0  0  0
   16.1180    3.4100   13.9910 C   0  0  0  0  0  0
   14.3973    5.1419   16.3288 H   0  0  0  0  0  0
   14.3289    5.4770   14.5654 H   0  0  0  0  0  0
   15.8514    5.7614   15.4753 H   0  0  0  0  0  0
   14.4373    2.8486   16.8726 H   0  0  0  0  0  0
   17.0944    1.8740   12.8248 H   0  0  0  0  0  0
   16.3752    4.2097   13.2965 H   0  0  0  0  0  0
   16.5864    0.0696   14.4342 H   0  0  0  0  0  0
  1  2  1  0  0  0
  1  9  1  0  0  0
  1 10  1  0  0  0
  1 11  1  0  0  0
  2  3  2  0  0  0
  2  8  1  0  0  0
  3  4  1  0  0  0
  3 12  1  0  0  0
  4  5  2  0  0  0
  4  6  1  0  0  0
  6  7  1  0  0  0
  6 15  1  0  0  0
  7  8  2  0  0  0
  7 13  1  0  0  0
  8 14  1  0  0  0
M  END
> <s_m_source_file>
../4q90_ligand.sdf

> <i_m_source_file_index>
1

> <s_epik_input>
W0NIM11jMVtjSF1jKFtTSF0pbltjSF1bY0hdMQ==

> <s_epik_cmdline>
J2VwaWtfYXBwJywgJy1pbWFlJywgJ2xpZ2FuZF9wcm8ubWFlJywgJy1vbWFlJywgJ2xpZ2FuZF9wcmVwLm1hZScsICctbXMnLCAnMScsICctcGgnLCAnNycsICctcGh0JywgJzAuNScsICctbnQn

> <r_lp_tautomer_probability>
1

> <r_epik_Ionization_Penalty>
  0.0002

> <r_epik_Ionization_Penalty_Charging>
  0.0002

> <r_epik_Ionization_Penalty_Neutral>
  0.0000

> <r_epik_State_Penalty>
 -0.0000

> <r_epik_Charging_Adjusted_Penalty>
0.000156607305734729

> <i_epik_Tot_Q>
0

> <i_epik_Tot_abs_Q>
0

$$$$
