4q9m_ligand
                    3D
 Schrodinger Suite 2020-3.
 44 46  0  0  1  0            999 V2000
   88.0550   39.6630   57.7340 C   0  0  0  0  0  0
   89.2570   40.1500   56.9230 C   0  0  0  0  0  0
   90.3790   39.1100   56.9730 C   0  0  0  0  0  0
   89.6990   41.5430   57.3670 C   0  0  0  0  0  0
   89.1780   42.6740   56.7420 C   0  0  0  0  0  0
   89.5920   43.9480   57.1000 C   0  0  0  0  0  0
   90.6230   41.7250   58.3920 C   0  0  0  0  0  0
   91.0310   42.9940   58.7710 C   0  0  0  0  0  0
   90.5230   44.1200   58.1210 C   0  0  0  0  0  0
   91.0240   45.3840   58.5280 N   0  0  0  0  0  0
   90.4520   46.6410   58.4240 C   0  0  0  0  0  0
   89.2880   46.8330   58.0750 O   0  0  0  0  0  0
   91.3110   47.7820   58.8400 C   0  0  0  0  0  0
   90.8760   49.0410   59.0840 C   0  0  0  0  0  0
   89.6360   49.7960   58.7770 C   0  0  0  0  0  0
   91.8050   49.6870   59.8100 O   0  0  0  0  0  0
   92.8890   48.7910   60.0450 N   0  0  0  0  0  0
   92.5820   47.6660   59.4190 C   0  0  0  0  0  0
   93.7460   46.7800   59.2140 C   0  0  0  0  0  0
   94.2880   46.4570   57.9690 C   0  0  0  0  0  0
   93.7030   47.2150   56.5180 Cl  0  0  0  0  0  0
   95.3820   45.6090   57.8580 C   0  0  0  0  0  0
   95.9400   45.0640   59.0020 C   0  0  0  0  0  0
   95.4440   45.4070   60.2450 C   0  0  0  0  0  0
   94.4010   46.3140   60.3540 C   0  0  0  0  0  0
   87.7629   38.6598   57.3901 H   0  0  0  0  0  0
   87.2134   40.3577   57.5954 H   0  0  0  0  0  0
   88.3243   39.6213   58.7997 H   0  0  0  0  0  0
   88.9644   40.2583   55.8682 H   0  0  0  0  0  0
   89.9908   38.1356   56.6416 H   0  0  0  0  0  0
   90.7537   39.0242   58.0036 H   0  0  0  0  0  0
   91.1988   39.4229   56.3096 H   0  0  0  0  0  0
   88.4311   42.5551   55.9571 H   0  0  0  0  0  0
   89.1876   44.8170   56.5809 H   0  0  0  0  0  0
   91.0325   40.8549   58.9051 H   0  0  0  0  0  0
   91.7516   43.1134   59.5801 H   0  0  0  0  0  0
   92.0116   45.4559   59.0071 H   0  0  0  0  0  0
   88.9598   49.1642   58.1824 H   0  0  0  0  0  0
   89.8897   50.7009   58.2053 H   0  0  0  0  0  0
   89.1393   50.0826   59.7157 H   0  0  0  0  0  0
   95.7981   45.3743   56.8783 H   0  0  0  0  0  0
   96.7714   44.3637   58.9218 H   0  0  0  0  0  0
   95.8740   44.9631   61.1429 H   0  0  0  0  0  0
   94.0905   46.6656   61.3379 H   0  0  0  0  0  0
  1  2  1  0  0  0
  1 26  1  0  0  0
  1 27  1  0  0  0
  1 28  1  0  0  0
  2  3  1  0  0  0
  2  4  1  0  0  0
  2 29  1  0  0  0
  3 30  1  0  0  0
  3 31  1  0  0  0
  3 32  1  0  0  0
  4  5  2  0  0  0
  4  7  1  0  0  0
  5  6  1  0  0  0
  5 33  1  0  0  0
  6  9  2  0  0  0
  6 34  1  0  0  0
  7  8  2  0  0  0
  7 35  1  0  0  0
  8  9  1  0  0  0
  8 36  1  0  0  0
  9 10  1  0  0  0
 10 11  1  0  0  0
 10 37  1  0  0  0
 11 12  2  0  0  0
 11 13  1  0  0  0
 13 14  2  0  0  0
 13 18  1  0  0  0
 14 15  1  0  0  0
 14 16  1  0  0  0
 15 38  1  0  0  0
 15 39  1  0  0  0
 15 40  1  0  0  0
 16 17  1  0  0  0
 17 18  2  0  0  0
 18 19  1  0  0  0
 19 20  2  0  0  0
 19 25  1  0  0  0
 20 21  1  0  0  0
 20 22  1  0  0  0
 22 23  2  0  0  0
 22 41  1  0  0  0
 23 24  1  0  0  0
 23 42  1  0  0  0
 24 25  2  0  0  0
 24 43  1  0  0  0
 25 44  1  0  0  0
M  END
> <s_m_source_file>
../4q9m_ligand.sdf

> <i_m_source_file_index>
1

> <s_epik_input>
W0NIM11bQ0hdKFtDSDNdKWMxW2NIXVtjSF1jKFtjSF1bY0hdMSlbTkhdQyg9TyljMmMoW0NIM10pb25jMi1jM2MoQ2wpW2NIXVtjSF1bY0hdW2NIXTM=

> <s_epik_cmdline>
J2VwaWtfYXBwJywgJy1pbWFlJywgJ2xpZ2FuZF9wcm8ubWFlJywgJy1vbWFlJywgJ2xpZ2FuZF9wcmVwLm1hZScsICctbXMnLCAnMScsICctcGgnLCAnNycsICctcGh0JywgJzAuNScsICctbnQn

> <r_lp_tautomer_probability>
1

> <r_epik_Ionization_Penalty>
  0.0000

> <r_epik_Ionization_Penalty_Charging>
  0.0000

> <r_epik_Ionization_Penalty_Neutral>
  0.0000

> <r_epik_State_Penalty>
 -0.0000

> <r_epik_Charging_Adjusted_Penalty>
0

> <i_epik_Tot_Q>
0

> <i_epik_Tot_abs_Q>
0

$$$$
