4q9o_ligand
                    3D
 Schrodinger Suite 2020-3.
 44 46  0  0  1  0            999 V2000
   21.5460  -11.4100    6.4150 C   0  0  0  0  0  0
   21.1370  -12.5750    5.5180 C   0  0  0  0  0  0
   19.6160  -12.6600    5.4140 C   0  0  0  0  0  0
   21.7820  -13.8770    5.9710 C   0  0  0  0  0  0
   21.2170  -14.6560    6.9740 C   0  0  0  0  0  0
   21.8250  -15.8230    7.4030 C   0  0  0  0  0  0
   22.9820  -14.2970    5.4110 C   0  0  0  0  0  0
   23.6000  -15.4620    5.8330 C   0  0  0  0  0  0
   23.0220  -16.2410    6.8300 C   0  0  0  0  0  0
   23.5420  -17.4910    7.2510 N   0  0  0  0  0  0
   24.8480  -17.9260    7.2780 C   0  0  0  0  0  0
   25.8030  -17.2460    6.9030 O   0  0  0  0  0  0
   25.0660  -19.2950    7.7940 C   0  0  0  0  0  0
   26.2840  -19.8180    8.1500 C   0  0  0  0  0  0
   27.6880  -19.3430    8.0850 C   0  0  0  0  0  0
   26.1230  -21.1060    8.5030 O   0  0  0  0  0  0
   24.7590  -21.4600    8.3340 N   0  0  0  0  0  0
   24.1390  -20.3780    7.9040 C   0  0  0  0  0  0
   22.6880  -20.5570    7.7970 C   0  0  0  0  0  0
   22.1390  -20.8630    6.5470 C   0  0  0  0  0  0
   23.1440  -20.9390    5.1300 Cl  0  0  0  0  0  0
   20.7680  -21.0040    6.3760 C   0  0  0  0  0  0
   19.9220  -20.7800    7.4490 C   0  0  0  0  0  0
   20.4420  -20.4130    8.6770 C   0  0  0  0  0  0
   21.8130  -20.2980    8.8510 C   0  0  0  0  0  0
   21.0635  -10.4873    6.0604 H   0  0  0  0  0  0
   22.6388  -11.2882    6.3824 H   0  0  0  0  0  0
   21.2305  -11.6149    7.4487 H   0  0  0  0  0  0
   21.5178  -12.3940    4.5020 H   0  0  0  0  0  0
   19.2163  -11.6900    5.0834 H   0  0  0  0  0  0
   19.1948  -12.9140    6.3979 H   0  0  0  0  0  0
   19.3412  -13.4372    4.6857 H   0  0  0  0  0  0
   20.2784  -14.3422    7.4308 H   0  0  0  0  0  0
   21.3644  -16.4167    8.1926 H   0  0  0  0  0  0
   23.4450  -13.6992    4.6259 H   0  0  0  0  0  0
   24.5434  -15.7700    5.3821 H   0  0  0  0  0  0
   22.8625  -18.2729    7.6211 H   0  0  0  0  0  0
   27.7033  -18.2837    7.7890 H   0  0  0  0  0  0
   28.2427  -19.9386    7.3450 H   0  0  0  0  0  0
   28.1589  -19.4546    9.0728 H   0  0  0  0  0  0
   20.3615  -21.2885    5.4055 H   0  0  0  0  0  0
   18.8449  -20.8930    7.3258 H   0  0  0  0  0  0
   19.7708  -20.2132    9.5122 H   0  0  0  0  0  0
   22.2106  -20.0021    9.8218 H   0  0  0  0  0  0
  1  2  1  0  0  0
  1 26  1  0  0  0
  1 27  1  0  0  0
  1 28  1  0  0  0
  2  3  1  0  0  0
  2  4  1  0  0  0
  2 29  1  0  0  0
  3 30  1  0  0  0
  3 31  1  0  0  0
  3 32  1  0  0  0
  4  5  2  0  0  0
  4  7  1  0  0  0
  5  6  1  0  0  0
  5 33  1  0  0  0
  6  9  2  0  0  0
  6 34  1  0  0  0
  7  8  2  0  0  0
  7 35  1  0  0  0
  8  9  1  0  0  0
  8 36  1  0  0  0
  9 10  1  0  0  0
 10 11  1  0  0  0
 10 37  1  0  0  0
 11 12  2  0  0  0
 11 13  1  0  0  0
 13 14  2  0  0  0
 13 18  1  0  0  0
 14 15  1  0  0  0
 14 16  1  0  0  0
 15 38  1  0  0  0
 15 39  1  0  0  0
 15 40  1  0  0  0
 16 17  1  0  0  0
 17 18  2  0  0  0
 18 19  1  0  0  0
 19 20  2  0  0  0
 19 25  1  0  0  0
 20 21  1  0  0  0
 20 22  1  0  0  0
 22 23  2  0  0  0
 22 41  1  0  0  0
 23 24  1  0  0  0
 23 42  1  0  0  0
 24 25  2  0  0  0
 24 43  1  0  0  0
 25 44  1  0  0  0
M  END
> <s_m_source_file>
../4q9o_ligand.sdf

> <i_m_source_file_index>
1

> <s_epik_input>
W0NIM11bQ0hdKFtDSDNdKWMxW2NIXVtjSF1jKFtjSF1bY0hdMSlbTkhdQyg9TyljMmMoW0NIM10pb25jMi1jM2MoQ2wpW2NIXVtjSF1bY0hdW2NIXTM=

> <s_epik_cmdline>
J2VwaWtfYXBwJywgJy1pbWFlJywgJ2xpZ2FuZF9wcm8ubWFlJywgJy1vbWFlJywgJ2xpZ2FuZF9wcmVwLm1hZScsICctbXMnLCAnMScsICctcGgnLCAnNycsICctcGh0JywgJzAuNScsICctbnQn

> <r_lp_tautomer_probability>
1

> <r_epik_Ionization_Penalty>
  0.0000

> <r_epik_Ionization_Penalty_Charging>
  0.0000

> <r_epik_Ionization_Penalty_Neutral>
  0.0000

> <r_epik_State_Penalty>
 -0.0000

> <r_epik_Charging_Adjusted_Penalty>
0

> <i_epik_Tot_Q>
0

> <i_epik_Tot_abs_Q>
0

$$$$
