4q9s_ligand
                    3D
 Schrodinger Suite 2020-3.
 24 26  0  0  1  0            999 V2000
    8.9800    2.5430   26.2910 C   0  0  0  0  0  0
    8.7430    1.2690   26.7600 C   0  0  0  0  0  0
    7.9610    3.2870   25.7220 C   0  0  0  0  0  0
    7.4820    0.7310   26.6500 C   0  0  0  0  0  0
    6.6790    2.7650   25.6090 C   0  0  0  0  0  0
    6.4720    1.4780   26.0850 C   0  0  0  0  0  0
    4.3880    3.0130   25.2950 C   0  0  0  0  0  0
    4.5980    5.2410   23.7040 C   0  0  0  0  0  0
    4.1940    1.8130   26.1080 C   0  0  0  0  0  0
    5.8450    4.7310   24.3670 C   0  0  0  0  0  0
    3.4390    4.5540   23.9420 N   0  0  0  0  0  0
    5.6220    3.4610   25.0580 N   0  0  0  0  0  0
    3.3560    3.4620   24.7350 N   0  0  0  0  0  0
    4.6210    6.2290   22.9880 O   0  0  0  0  0  0
    5.2380    0.8520   25.9960 O   0  0  0  0  0  0
    9.9802    2.9691   26.3690 H   0  0  0  0  0  0
    9.5485    0.6923   27.2145 H   0  0  0  0  0  0
    8.1670    4.2938   25.3586 H   0  0  0  0  0  0
    7.2833   -0.2794   27.0074 H   0  0  0  0  0  0
    4.1304    2.0954   27.1692 H   0  0  0  0  0  0
    3.2627    1.3118   25.8055 H   0  0  0  0  0  0
    6.6261    4.5752   23.6083 H   0  0  0  0  0  0
    6.1939    5.4664   25.1069 H   0  0  0  0  0  0
    2.5386    4.9405   23.4422 H   0  0  0  0  0  0
  1  2  2  0  0  0
  1  3  1  0  0  0
  1 16  1  0  0  0
  2  4  1  0  0  0
  2 17  1  0  0  0
  3  5  2  0  0  0
  3 18  1  0  0  0
  4  6  2  0  0  0
  4 19  1  0  0  0
  5  6  1  0  0  0
  5 12  1  0  0  0
  6 15  1  0  0  0
  7  9  1  0  0  0
  7 12  1  0  0  0
  7 13  2  0  0  0
  8 10  1  0  0  0
  8 11  1  0  0  0
  8 14  2  0  0  0
  9 15  1  0  0  0
  9 20  1  0  0  0
  9 21  1  0  0  0
 10 12  1  0  0  0
 10 22  1  0  0  0
 10 23  1  0  0  0
 11 13  1  0  0  0
 11 24  1  0  0  0
M  END
> <s_m_source_file>
../4q9s_ligand.sdf

> <i_m_source_file_index>
1

> <s_epik_input>
W2NIXTFbY0hdW2NIXVtjSF1jKGMxMilPW0NIMl1DPTNOMltDSDJdQyg9TylbTkhdTjM=

> <s_epik_cmdline>
J2VwaWtfYXBwJywgJy1pbWFlJywgJ2xpZ2FuZF9wcm8ubWFlJywgJy1vbWFlJywgJ2xpZ2FuZF9wcmVwLm1hZScsICctbXMnLCAnMScsICctcGgnLCAnNycsICctcGh0JywgJzAuNScsICctbnQn

> <r_lp_tautomer_probability>
1

> <r_epik_Ionization_Penalty>
  0.0020

> <r_epik_Ionization_Penalty_Charging>
  0.0000

> <r_epik_Ionization_Penalty_Neutral>
  0.0020

> <r_epik_State_Penalty>
 -0.0000

> <r_epik_Charging_Adjusted_Penalty>
0

> <i_epik_Tot_Q>
0

> <i_epik_Tot_abs_Q>
0

> <s_epik_Chemistry_Notes>
This compound has an imine and may undergo hydrolysis.

$$$$
