4q9z_ligand
                    3D
 Schrodinger Suite 2020-3.
 42 45  0  0  1  0            999 V2000
   25.0540   -7.4390  -10.4730 C   0  0  0  0  0  0
   23.9890   -7.1070   -9.4570 C   0  0  0  0  0  0
   24.2660   -6.2110   -8.4360 C   0  0  0  0  0  0
   23.2870   -5.8900   -7.4900 C   0  0  0  0  0  0
   23.5870   -5.0390   -6.5000 O   0  0  0  0  0  0
   22.9400   -5.1520   -5.2350 C   0  0  0  0  0  0
   21.4680   -5.5280   -5.4020 C   0  0  0  0  0  0
   20.6260   -5.2330   -4.4770 N   0  0  0  0  0  0
   19.2810   -5.5790   -4.5610 N   0  0  0  0  0  0
   18.7490   -6.0690   -5.7040 C   0  0  0  0  0  0
   17.5750   -6.3640   -5.7440 O   0  0  0  0  0  0
   19.6070   -6.2110   -6.9530 C   0  0  1  0  0  0
   19.2720   -5.0830   -7.9290 C   0  0  0  0  0  0
   21.0470   -6.1420   -6.5980 N   0  0  0  0  0  0
   22.0420   -6.4890   -7.5600 C   0  0  0  0  0  0
   21.7480   -7.3850   -8.5970 C   0  0  0  0  0  0
   22.7370   -7.7060   -9.5420 C   0  0  0  0  0  0
   22.4540   -8.6100  -10.5950 N   0  0  0  0  0  0
   21.3540   -9.5460  -10.4750 C   0  0  0  0  0  0
   21.4010  -10.7490  -11.5350 C   0  0  0  0  0  0
   21.3170  -11.5510  -10.4100 N   0  3  0  0  0  0
   21.5770  -10.6820   -9.3650 C   0  0  0  0  0  0
   25.9686   -6.8724  -10.2440 H   0  0  0  0  0  0
   24.6981   -7.1700  -11.4785 H   0  0  0  0  0  0
   25.2717   -8.5167  -10.4372 H   0  0  0  0  0  0
   25.2532   -5.7537   -8.3700 H   0  0  0  0  0  0
   23.4366   -5.9307   -4.6375 H   0  0  0  0  0  0
   22.9996   -4.1897   -4.7054 H   0  0  0  0  0  0
   18.6258   -5.4561   -3.6860 H   0  0  0  0  0  0
   19.4258   -7.1933   -7.4137 H   0  0  0  0  0  0
   18.2054   -5.1319   -8.1937 H   0  0  0  0  0  0
   19.8809   -5.1922   -8.8386 H   0  0  0  0  0  0
   19.4886   -4.1133   -7.4570 H   0  0  0  0  0  0
   20.7561   -7.8310   -8.6700 H   0  0  0  0  0  0
   23.0713   -8.6006  -11.5054 H   0  0  0  0  0  0
   20.5860   -8.7595  -10.4358 H   0  0  0  0  0  0
   20.5455  -10.6664  -12.2215 H   0  0  0  0  0  0
   22.3380  -10.6958  -12.1087 H   0  0  0  0  0  0
   20.3099  -11.9889  -10.3463 H   0  0  0  0  0  0
   22.0634  -12.3562  -10.4771 H   0  0  0  0  0  0
   22.5939  -10.5985   -8.9541 H   0  0  0  0  0  0
   20.8429  -10.5533   -8.5560 H   0  0  0  0  0  0
  1  2  1  0  0  0
  1 23  1  0  0  0
  1 24  1  0  0  0
  1 25  1  0  0  0
  2  3  2  0  0  0
  2 17  1  0  0  0
  3  4  1  0  0  0
  3 26  1  0  0  0
  4  5  1  0  0  0
  4 15  2  0  0  0
  5  6  1  0  0  0
  6  7  1  0  0  0
  6 27  1  0  0  0
  6 28  1  0  0  0
  7  8  2  0  0  0
  7 14  1  0  0  0
  8  9  1  0  0  0
  9 10  1  0  0  0
  9 29  1  0  0  0
 10 11  2  0  0  0
 10 12  1  0  0  0
 12 13  1  0  0  0
 12 14  1  0  0  0
 12 30  1  0  0  0
 13 31  1  0  0  0
 13 32  1  0  0  0
 13 33  1  0  0  0
 14 15  1  0  0  0
 15 16  1  0  0  0
 16 17  2  0  0  0
 16 34  1  0  0  0
 17 18  1  0  0  0
 18 19  1  0  0  0
 18 35  1  0  0  0
 19 20  1  0  0  0
 19 22  1  0  0  0
 19 36  1  0  0  0
 20 21  1  0  0  0
 20 37  1  0  0  0
 20 38  1  0  0  0
 21 22  1  0  0  0
 21 39  1  0  0  0
 21 40  1  0  0  0
 22 41  1  0  0  0
 22 42  1  0  0  0
M  CHG  1  21   1
M  END
> <s_m_source_file>
../4q9z_ligand.sdf

> <i_m_source_file_index>
1

> <s_epik_input>
W0NIMl0xW05IMitdW0NIMl1bQ0hdMVtOSF1jKGMoW0NIM10pW2NIXTIpW2NIXWMoYzIzKU40QyhbQ0gyXU8zKT1OW05IXUMoPU8pW0NASF00W0NIM10=

> <s_epik_cmdline>
J2VwaWtfYXBwJywgJy1pbWFlJywgJ2xpZ2FuZF9wcm8ubWFlJywgJy1vbWFlJywgJ2xpZ2FuZF9wcmVwLm1hZScsICctbXMnLCAnMScsICctcGgnLCAnNycsICctcGh0JywgJzAuNScsICctbnQn

> <r_lp_tautomer_probability>
1

> <r_epik_Ionization_Penalty>
  0.0033

> <r_epik_Ionization_Penalty_Charging>
  0.0000

> <r_epik_Ionization_Penalty_Neutral>
  0.0032

> <r_epik_State_Penalty>
 -0.0000

> <r_epik_Charging_Adjusted_Penalty>
2.73966761895305e-05

> <i_epik_Tot_Q>
1

> <i_epik_Tot_abs_Q>
1

> <s_epik_Chemistry_Notes>
This compound has an imine and may undergo hydrolysis.

$$$$
