4qab_ligand
                    3D
 Schrodinger Suite 2020-3.
 38 40  0  0  1  0            999 V2000
  -31.4430   -5.4130  -11.1710 C   0  0  0  0  0  0
  -30.6890   -5.9420   -9.9590 C   0  0  0  0  0  0
  -29.4520   -5.3130   -9.8860 O   0  0  0  0  0  0
  -29.5590   -3.9380   -9.6810 C   0  0  0  0  0  0
  -30.4250   -3.2670  -10.7930 C   0  0  0  0  0  0
  -31.6700   -3.9960  -11.0630 N   0  0  0  0  0  0
  -33.0350   -3.5560  -10.9430 C   0  0  0  0  0  0
  -34.1410   -4.4450  -10.7800 C   0  0  0  0  0  0
  -33.2270   -2.1970  -10.9910 N   0  0  0  0  0  0
  -34.5410   -1.7860  -10.8690 C   0  0  0  0  0  0
  -34.7590   -0.4490  -10.8950 N   0  0  0  0  0  0
  -35.6190   -2.5570  -10.7250 N   0  0  0  0  0  0
  -35.4200   -3.8870  -10.6870 C   0  0  0  0  0  0
  -36.6650   -4.6220  -10.5060 C   0  0  0  0  0  0
  -37.2170   -4.8510   -9.2400 C   0  0  0  0  0  0
  -38.4370   -5.5140   -9.0690 C   0  0  0  0  0  0
  -39.1580   -5.9480  -10.1730 C   0  0  0  0  0  0
  -40.4710   -6.6570   -9.9650 C   0  0  0  0  0  0
  -41.2210   -6.1170   -8.9800 F   0  0  0  0  0  0
  -40.3570   -7.9610   -9.6280 F   0  0  0  0  0  0
  -41.2570   -6.7020  -11.0760 F   0  0  0  0  0  0
  -38.6460   -5.7130  -11.4500 C   0  0  0  0  0  0
  -37.4270   -5.0480  -11.6120 C   0  0  0  0  0  0
  -30.8562   -5.6066  -12.0811 H   0  0  0  0  0  0
  -32.4162   -5.9200  -11.2474 H   0  0  0  0  0  0
  -31.2668   -5.7312   -9.0470 H   0  0  0  0  0  0
  -30.5475   -7.0281  -10.0605 H   0  0  0  0  0  0
  -30.0317   -3.7484   -8.7060 H   0  0  0  0  0  0
  -28.5564   -3.4858   -9.6965 H   0  0  0  0  0  0
  -30.6942   -2.2467  -10.4824 H   0  0  0  0  0  0
  -29.8505   -3.2254  -11.7301 H   0  0  0  0  0  0
  -33.9929   -5.5237  -10.7297 H   0  0  0  0  0  0
  -33.9128    0.2441  -11.0113 H   0  0  0  0  0  0
  -35.7822   -0.0566  -10.7998 H   0  0  0  0  0  0
  -36.6788   -4.5014   -8.3590 H   0  0  0  0  0  0
  -38.8229   -5.6905   -8.0650 H   0  0  0  0  0  0
  -39.1999   -6.0500  -12.3262 H   0  0  0  0  0  0
  -37.0569   -4.8543  -12.6188 H   0  0  0  0  0  0
  1  2  1  0  0  0
  1  6  1  0  0  0
  1 24  1  0  0  0
  1 25  1  0  0  0
  2  3  1  0  0  0
  2 26  1  0  0  0
  2 27  1  0  0  0
  3  4  1  0  0  0
  4  5  1  0  0  0
  4 28  1  0  0  0
  4 29  1  0  0  0
  5  6  1  0  0  0
  5 30  1  0  0  0
  5 31  1  0  0  0
  6  7  1  0  0  0
  7  8  2  0  0  0
  7  9  1  0  0  0
  8 13  1  0  0  0
  8 32  1  0  0  0
  9 10  2  0  0  0
 10 11  1  0  0  0
 10 12  1  0  0  0
 11 33  1  0  0  0
 11 34  1  0  0  0
 12 13  2  0  0  0
 13 14  1  0  0  0
 14 15  2  0  0  0
 14 23  1  0  0  0
 15 16  1  0  0  0
 15 35  1  0  0  0
 16 17  2  0  0  0
 16 36  1  0  0  0
 17 18  1  0  0  0
 17 22  1  0  0  0
 18 19  1  0  0  0
 18 20  1  0  0  0
 18 21  1  0  0  0
 22 23  2  0  0  0
 22 37  1  0  0  0
 23 38  1  0  0  0
M  END
> <s_m_source_file>
../4qab_ligand.sdf

> <i_m_source_file_index>
1

> <s_epik_input>
W0NIMl0xW0NIMl1PW0NIMl1bQ0gyXU4xYzJbY0hdYyhuYyhuMilbTkgyXSktYzNbY0hdW2NIXWMoQyhGKShGKUYpW2NIXVtjSF0z

> <s_epik_cmdline>
J2VwaWtfYXBwJywgJy1pbWFlJywgJ2xpZ2FuZF9wcm8ubWFlJywgJy1vbWFlJywgJ2xpZ2FuZF9wcmVwLm1hZScsICctbXMnLCAnMScsICctcGgnLCAnNycsICctcGh0JywgJzAuNScsICctbnQn

> <r_lp_tautomer_probability>
0.999999648617923

> <r_epik_Ionization_Penalty>
  0.0282

> <r_epik_Ionization_Penalty_Charging>
  0.0000

> <r_epik_Ionization_Penalty_Neutral>
  0.0282

> <r_epik_State_Penalty>
  0.0223

> <r_epik_Charging_Adjusted_Penalty>
0.0223383737470781

> <i_epik_Tot_Q>
0

> <i_epik_Tot_abs_Q>
0

$$$$
