4qbm_ligand
                    3D
 Schrodinger Suite 2020-3.
170170  0  0  1  0            999 V2000
   27.9290   -7.1910  -47.8260 N   0  3  0  0  0  0
   28.9880   -6.6060  -48.7000 C   0  0  0  0  0  0
   28.4410   -5.4430  -49.4930 C   0  0  0  0  0  0
   27.2430   -5.3870  -49.7710 O   0  0  0  0  0  0
   29.3250   -4.5240  -49.8690 N   0  0  0  0  0  0
   28.9260   -3.2520  -50.4430 C   0  0  2  0  0  0
   28.2380   -3.3810  -51.8150 C   0  0  0  0  0  0
   28.4960   -4.2900  -52.6060 O   0  0  0  0  0  0
   30.1160   -2.3220  -50.5510 C   0  0  0  0  0  0
   21.1970    0.3240  -57.6510 O   0  0  0  0  0  0
   20.9540    0.8770  -56.5720 C   0  0  0  0  0  0
   19.6720    1.5300  -56.2010 C   0  0  0  0  0  0
   21.8720    0.9310  -55.6130 N   0  0  0  0  0  0
   23.1860    0.3260  -55.7870 C   0  0  0  0  0  0
   23.7870    0.0150  -54.4070 C   0  0  0  0  0  0
   24.8770   -1.0380  -54.5210 C   0  0  0  0  0  0
   25.6500   -1.2030  -53.2160 C   0  0  0  0  0  0
   26.6570   -2.3430  -53.3330 C   0  0  2  0  0  0
   27.3160   -2.4710  -52.0450 N   0  0  0  0  0  0
   27.7230   -2.0110  -54.3330 C   0  0  0  0  0  0
   28.5670   -1.1340  -54.1000 O   0  0  0  0  0  0
   27.7150   -2.7210  -55.4670 N   0  0  0  0  0  0
   28.6760   -2.4370  -56.5180 C   0  0  2  0  0  0
   28.1330   -2.8710  -57.8650 C   0  0  0  0  0  0
   27.2230   -3.6960  -57.9240 O   0  0  0  0  0  0
   29.9940   -3.1630  -56.2370 C   0  0  0  0  0  0
   29.8430   -4.6480  -56.1050 C   0  0  0  0  0  0
   31.1660   -5.3040  -55.7160 C   0  0  0  0  0  0
   31.0160   -6.7560  -55.5860 N   0  0  0  0  0  0
   32.0150   -7.6110  -55.3650 C   0  0  0  0  0  0
   33.2720   -7.1790  -55.2350 N   0  0  0  0  0  0
   31.7550   -8.9140  -55.2720 N   0  0  0  0  0  0
   28.6750   -2.2850  -58.9170 N   0  0  0  0  0  0
   28.2550   -2.6320  -60.2720 C   0  0  2  0  0  0
   28.5760   -4.0810  -60.6130 C   0  0  0  0  0  0
   29.5330   -4.6660  -60.1070 O   0  0  0  0  0  0
   28.8270   -1.6870  -61.3450 C   0  0  0  0  0  0
   30.3240   -1.6140  -61.4150 C   0  0  0  0  0  0
   31.1170   -2.6420  -61.9020 N   0  0  0  0  0  0
   31.1710   -0.5950  -61.1330 C   0  0  0  0  0  0
   32.3840   -2.2600  -61.8990 C   0  0  0  0  0  0
   32.4450   -1.0250  -61.4200 N   0  0  0  0  0  0
   27.7380   -4.6580  -61.4810 N   0  0  0  0  0  0
   28.0740   -5.9480  -62.1040 C   0  0  2  0  0  0
   29.5500   -5.9250  -62.5460 C   0  0  0  0  0  0
   30.0460   -4.9280  -63.1400 O   0  0  0  0  0  0
   27.1980   -6.1420  -63.3500 C   0  0  0  0  0  0
   25.7440   -6.4590  -63.0850 C   0  0  0  0  0  0
   24.9450   -6.3600  -64.3730 C   0  0  0  0  0  0
   23.5210   -6.5840  -64.1540 N   0  0  0  0  0  0
   22.9640   -7.7750  -64.0060 C   0  0  0  0  0  0
   23.7300   -8.8610  -64.0060 N   0  0  0  0  0  0
   21.6730   -7.8930  -63.8060 N   0  0  0  0  0  0
   38.3960  -10.7710  -62.7100 O   0  0  0  0  0  0
   37.5860  -11.5630  -62.2330 C   0  0  0  0  0  0
   37.9630  -12.9610  -61.8710 C   0  0  0  0  0  0
   36.2820  -11.2800  -62.0150 N   0  0  0  0  0  0
   35.7350   -9.9570  -62.3180 C   0  0  0  0  0  0
   34.2180   -9.9400  -62.1820 C   0  0  0  0  0  0
   33.7020   -8.5830  -62.6320 C   0  0  0  0  0  0
   32.2080   -8.4870  -62.3660 C   0  0  0  0  0  0
   31.6590   -7.1010  -62.7230 C   0  0  2  0  0  0
   30.2490   -7.0440  -62.3450 N   0  0  0  0  0  0
   31.9140   -6.7660  -64.1740 C   0  0  0  0  0  0
   32.8700   -6.0630  -64.5040 O   0  0  0  0  0  0
   31.0520   -7.2530  -65.0840 N   0  0  0  0  0  0
   31.2100   -6.9750  -66.5060 C   0  0  2  0  0  0
   31.0780   -5.4810  -66.8850 C   0  0  0  0  0  0
   31.4400   -5.0950  -68.0100 O   0  0  0  0  0  0
   30.2380   -7.8260  -67.3610 C   0  0  0  0  0  0
   30.4860   -9.3120  -67.1320 C   0  0  0  0  0  0
   28.7880   -7.4980  -67.0090 C   0  0  0  0  0  0
   30.5590   -4.6330  -65.9780 N   0  0  0  0  0  0
   30.4100   -3.2220  -66.2730 C   0  0  2  0  0  0
   31.6100   -2.4250  -65.7610 C   0  0  0  0  0  0
   32.5510   -3.0050  -65.2130 O   0  0  0  0  0  0
   29.1210   -2.6750  -65.6620 C   0  0  0  0  0  0
   27.8750   -3.3310  -66.2470 C   0  0  0  0  0  0
   26.6460   -2.7470  -65.5590 C   0  0  0  0  0  0
   27.8030   -3.1850  -67.7480 C   0  0  0  0  0  0
   31.6110   -1.1900  -65.8780 O   0  0  0  0  0  0
   28.3473   -8.0351  -47.2580 H   0  0  0  0  0  0
   27.0944   -7.5457  -48.4486 H   0  0  0  0  0  0
   27.5649   -6.4234  -47.1273 H   0  0  0  0  0  0
   29.8226   -6.2513  -48.0774 H   0  0  0  0  0  0
   29.3521   -7.3736  -49.3987 H   0  0  0  0  0  0
   30.3917   -4.7551  -49.7319 H   0  0  0  0  0  0
   28.1982   -2.8715  -49.7112 H   0  0  0  0  0  0
   30.6029   -2.2340  -49.5686 H   0  0  0  0  0  0
   29.7768   -1.3295  -50.8824 H   0  0  0  0  0  0
   30.8328   -2.7270  -51.2805 H   0  0  0  0  0  0
   18.9628    1.4474  -57.0378 H   0  0  0  0  0  0
   19.8527    2.5917  -55.9769 H   0  0  0  0  0  0
   19.2514    1.0343  -55.3136 H   0  0  0  0  0  0
   21.6235    1.4455  -54.6731 H   0  0  0  0  0  0
   23.0874   -0.6049  -56.3646 H   0  0  0  0  0  0
   23.8427    1.0244  -56.3264 H   0  0  0  0  0  0
   24.2212    0.9316  -53.9812 H   0  0  0  0  0  0
   22.9976   -0.3611  -53.7396 H   0  0  0  0  0  0
   24.4249   -2.0074  -54.7776 H   0  0  0  0  0  0
   25.5885   -0.7456  -55.3073 H   0  0  0  0  0  0
   26.1892   -0.2715  -52.9889 H   0  0  0  0  0  0
   24.9478   -1.4285  -52.3999 H   0  0  0  0  0  0
   26.1561   -3.2807  -53.6156 H   0  0  0  0  0  0
   27.0490   -1.7932  -51.2208 H   0  0  0  0  0  0
   26.9749   -3.5237  -55.6007 H   0  0  0  0  0  0
   28.8165   -1.3461  -56.5067 H   0  0  0  0  0  0
   30.6985   -2.9759  -57.0608 H   0  0  0  0  0  0
   30.4240   -2.7911  -55.2953 H   0  0  0  0  0  0
   29.0975   -4.8731  -55.3281 H   0  0  0  0  0  0
   29.5108   -5.0696  -57.0652 H   0  0  0  0  0  0
   31.9199   -5.0958  -56.4895 H   0  0  0  0  0  0
   31.5074   -4.8977  -54.7525 H   0  0  0  0  0  0
   30.0203   -7.2158  -55.6708 H   0  0  0  0  0  0
   33.4949   -6.1045  -55.3105 H   0  0  0  0  0  0
   34.0845   -7.8977  -55.0524 H   0  0  0  0  0  0
   30.7223   -9.2777  -55.3779 H   0  0  0  0  0  0
   29.4544   -1.5247  -58.7605 H   0  0  0  0  0  0
   27.1639   -2.5015  -60.2230 H   0  0  0  0  0  0
   28.4870   -2.0126  -62.3392 H   0  0  0  0  0  0
   28.4765   -0.6618  -61.1552 H   0  0  0  0  0  0
   31.0076    0.4222  -60.7476 H   0  0  0  0  0  0
   33.2320   -2.8579  -62.2330 H   0  0  0  0  0  0
   26.7895   -4.1585  -61.7278 H   0  0  0  0  0  0
   27.8887   -6.7334  -61.3565 H   0  0  0  0  0  0
   27.2084   -5.2217  -63.9524 H   0  0  0  0  0  0
   27.5917   -6.9766  -63.9487 H   0  0  0  0  0  0
   25.6584   -7.4800  -62.6847 H   0  0  0  0  0  0
   25.3401   -5.7434  -62.3537 H   0  0  0  0  0  0
   25.0712   -5.3569  -64.8065 H   0  0  0  0  0  0
   25.3047   -7.1158  -65.0867 H   0  0  0  0  0  0
   22.8312   -5.7287  -64.1024 H   0  0  0  0  0  0
   24.8134   -8.7699  -64.1730 H   0  0  0  0  0  0
   23.2806   -9.8510  -63.8390 H   0  0  0  0  0  0
   21.0326   -6.9986  -63.8046 H   0  0  0  0  0  0
   39.0327  -13.1167  -62.0745 H   0  0  0  0  0  0
   37.3692  -13.6675  -62.4695 H   0  0  0  0  0  0
   37.7649  -13.1291  -60.8021 H   0  0  0  0  0  0
   35.6294  -12.0637  -61.6028 H   0  0  0  0  0  0
   36.1567   -9.2175  -61.6213 H   0  0  0  0  0  0
   35.9966   -9.6796  -63.3498 H   0  0  0  0  0  0
   33.7846  -10.7313  -62.8112 H   0  0  0  0  0  0
   33.9420  -10.1145  -61.1316 H   0  0  0  0  0  0
   34.2226   -7.7898  -62.0754 H   0  0  0  0  0  0
   33.8888   -8.4584  -63.7088 H   0  0  0  0  0  0
   31.6787   -9.2367  -62.9724 H   0  0  0  0  0  0
   32.0127   -8.6736  -61.2997 H   0  0  0  0  0  0
   32.1467   -6.3010  -62.1467 H   0  0  0  0  0  0
   29.7642   -7.9230  -61.8951 H   0  0  0  0  0  0
   30.2135   -7.8734  -64.7347 H   0  0  0  0  0  0
   32.2560   -7.2775  -66.6618 H   0  0  0  0  0  0
   30.4082   -7.5988  -68.4237 H   0  0  0  0  0  0
   31.5293   -9.5528  -67.3843 H   0  0  0  0  0  0
   29.8095   -9.8993  -67.7703 H   0  0  0  0  0  0
   30.2983   -9.5566  -66.0761 H   0  0  0  0  0  0
   28.6044   -6.4259  -67.1729 H   0  0  0  0  0  0
   28.6022   -7.7447  -65.9532 H   0  0  0  0  0  0
   28.1134   -8.0873  -67.6475 H   0  0  0  0  0  0
   30.2457   -5.0264  -64.9997 H   0  0  0  0  0  0
   30.3635   -3.1701  -67.3708 H   0  0  0  0  0  0
   29.1230   -2.8578  -64.5773 H   0  0  0  0  0  0
   29.0556   -1.5934  -65.8514 H   0  0  0  0  0  0
   27.9180   -4.4156  -66.0686 H   0  0  0  0  0  0
   26.7400   -2.8744  -64.4705 H   0  0  0  0  0  0
   25.7449   -3.2692  -65.9129 H   0  0  0  0  0  0
   26.5666   -1.6761  -65.7973 H   0  0  0  0  0  0
   28.7064   -3.6180  -68.2022 H   0  0  0  0  0  0
   27.7359   -2.1187  -68.0099 H   0  0  0  0  0  0
   26.9142   -3.7119  -68.1254 H   0  0  0  0  0  0
   32.4677   -0.6038  -65.5141 H   0  0  0  0  0  0
  1  2  1  0  0  0
  1 82  1  0  0  0
  1 83  1  0  0  0
  1 84  1  0  0  0
  2  3  1  0  0  0
  2 85  1  0  0  0
  2 86  1  0  0  0
  3  4  2  0  0  0
  3  5  1  0  0  0
  5  6  1  0  0  0
  5 87  1  0  0  0
  6  7  1  0  0  0
  6  9  1  0  0  0
  6 88  1  0  0  0
  7  8  2  0  0  0
  7 19  1  0  0  0
  9 89  1  0  0  0
  9 90  1  0  0  0
  9 91  1  0  0  0
 10 11  2  0  0  0
 11 12  1  0  0  0
 11 13  1  0  0  0
 12 92  1  0  0  0
 12 93  1  0  0  0
 12 94  1  0  0  0
 13 14  1  0  0  0
 13 95  1  0  0  0
 14 15  1  0  0  0
 14 96  1  0  0  0
 14 97  1  0  0  0
 15 16  1  0  0  0
 15 98  1  0  0  0
 15 99  1  0  0  0
 16 17  1  0  0  0
 16100  1  0  0  0
 16101  1  0  0  0
 17 18  1  0  0  0
 17102  1  0  0  0
 17103  1  0  0  0
 18 19  1  0  0  0
 18 20  1  0  0  0
 18104  1  0  0  0
 19105  1  0  0  0
 20 21  2  0  0  0
 20 22  1  0  0  0
 22 23  1  0  0  0
 22106  1  0  0  0
 23 24  1  0  0  0
 23 26  1  0  0  0
 23107  1  0  0  0
 24 25  2  0  0  0
 24 33  1  0  0  0
 26 27  1  0  0  0
 26108  1  0  0  0
 26109  1  0  0  0
 27 28  1  0  0  0
 27110  1  0  0  0
 27111  1  0  0  0
 28 29  1  0  0  0
 28112  1  0  0  0
 28113  1  0  0  0
 29 30  1  0  0  0
 29114  1  0  0  0
 30 31  1  0  0  0
 30 32  2  0  0  0
 31115  1  0  0  0
 31116  1  0  0  0
 32117  1  0  0  0
 33 34  1  0  0  0
 33118  1  0  0  0
 34 35  1  0  0  0
 34 37  1  0  0  0
 34119  1  0  0  0
 35 36  2  0  0  0
 35 43  1  0  0  0
 37 38  1  0  0  0
 37120  1  0  0  0
 37121  1  0  0  0
 38 39  2  0  0  0
 38 40  1  0  0  0
 39 41  1  0  0  0
 40 42  2  0  0  0
 40122  1  0  0  0
 41 42  1  0  0  0
 41123  1  0  0  0
 43 44  1  0  0  0
 43124  1  0  0  0
 44 45  1  0  0  0
 44 47  1  0  0  0
 44125  1  0  0  0
 45 46  2  0  0  0
 45 63  1  0  0  0
 47 48  1  0  0  0
 47126  1  0  0  0
 47127  1  0  0  0
 48 49  1  0  0  0
 48128  1  0  0  0
 48129  1  0  0  0
 49 50  1  0  0  0
 49130  1  0  0  0
 49131  1  0  0  0
 50 51  1  0  0  0
 50132  1  0  0  0
 51 52  1  0  0  0
 51 53  2  0  0  0
 52133  1  0  0  0
 52134  1  0  0  0
 53135  1  0  0  0
 54 55  2  0  0  0
 55 56  1  0  0  0
 55 57  1  0  0  0
 56136  1  0  0  0
 56137  1  0  0  0
 56138  1  0  0  0
 57 58  1  0  0  0
 57139  1  0  0  0
 58 59  1  0  0  0
 58140  1  0  0  0
 58141  1  0  0  0
 59 60  1  0  0  0
 59142  1  0  0  0
 59143  1  0  0  0
 60 61  1  0  0  0
 60144  1  0  0  0
 60145  1  0  0  0
 61 62  1  0  0  0
 61146  1  0  0  0
 61147  1  0  0  0
 62 63  1  0  0  0
 62 64  1  0  0  0
 62148  1  0  0  0
 63149  1  0  0  0
 64 65  2  0  0  0
 64 66  1  0  0  0
 66 67  1  0  0  0
 66150  1  0  0  0
 67 68  1  0  0  0
 67 70  1  0  0  0
 67151  1  0  0  0
 68 69  2  0  0  0
 68 73  1  0  0  0
 70 71  1  0  0  0
 70 72  1  0  0  0
 70152  1  0  0  0
 71153  1  0  0  0
 71154  1  0  0  0
 71155  1  0  0  0
 72156  1  0  0  0
 72157  1  0  0  0
 72158  1  0  0  0
 73 74  1  0  0  0
 73159  1  0  0  0
 74 75  1  0  0  0
 74 77  1  0  0  0
 74160  1  0  0  0
 75 76  2  0  0  0
 75 81  1  0  0  0
 77 78  1  0  0  0
 77161  1  0  0  0
 77162  1  0  0  0
 78 79  1  0  0  0
 78 80  1  0  0  0
 78163  1  0  0  0
 79164  1  0  0  0
 79165  1  0  0  0
 79166  1  0  0  0
 80167  1  0  0  0
 80168  1  0  0  0
 80169  1  0  0  0
 81170  1  0  0  0
M  CHG  1   1   1
M  END
> <s_m_source_file>
../4qbm_ligand.sdf

> <i_m_source_file_index>
1

> <s_epik_input>
W05IMytdW0NIMl1DKD1PKVtOSF1bQ0BASF0oW0NIM10pQyg9TylbTkhdW0NAQEhdKFtDSDJdW0NIMl1bQ0gyXVtDSDJdW05IXUMoPU8pW0NIM10pQyg9TylbTkhdW0NAQEhdKFtDSDJdW0NIMl1bQ0gyXVtOSF0vQyhbTkgyXSk9TlxbSF0pQyg9TylbTkhdW0NAQEhdKFtDSDJdQzE9TltDSDJdTj1bQ0hdMSlDKD1PKVtOSF1bQ0BASF0oW0NIMl1bQ0gyXVtDSDJdW05IXS9DKFtOSDJdKT1OXFtIXSlDKD1PKVtOSF1bQ0BASF0oW0NIMl1bQ0gyXVtDSDJdW0NIMl1bTkhdQyg9TylbQ0gzXSlDKD1PKVtOSF1bQ0BASF0oW0NIXShbQ0gzXSlbQ0gzXSlDKD1PKVtOSF1bQ0BIXShDKD1PKVtPSF0pW0NIMl1bQ0hdKFtDSDNdKVtDSDNd

> <s_epik_cmdline>
J2VwaWtfYXBwJywgJy1pbWFlJywgJ2xpZ2FuZF9wcm8ubWFlJywgJy1vbWFlJywgJ2xpZ2FuZF9wcmVwLm1hZScsICctbXMnLCAnMScsICctcGgnLCAnNycsICctcGh0JywgJzAuNScsICctbnQn

> <s_epik_pKa_notes>
Molecule size exceeds maximum supported for generating protonation states

> <s_epik_Chemistry_Notes>
This compound has an imine and may undergo hydrolysis.

$$$$
