4qc1_ligand
                    3D
 Schrodinger Suite 2020-3.
130130  0  0  1  0            999 V2000
   10.6820   16.6720  -10.7880 N   0  3  0  0  0  0
   11.6320   16.9850   -9.6760 C   0  0  0  0  0  0
   12.3520   15.7680   -9.1230 C   0  0  0  0  0  0
   11.8820   15.1320   -8.1890 O   0  0  0  0  0  0
   13.5060   15.4400   -9.6990 N   0  0  0  0  0  0
   14.1020   14.1120   -9.5200 C   0  0  0  0  0  0
   13.4940   13.0050  -10.4130 C   0  0  0  0  0  0
   14.0700   11.9160  -10.5090 O   0  0  0  0  0  0
    7.6810    9.4130   -8.6000 O   0  0  0  0  0  0
    8.0740   10.1810   -7.7080 C   0  0  0  0  0  0
    8.3050    9.7370   -6.2960 C   0  0  0  0  0  0
    8.2760   11.4900   -7.9170 N   0  0  0  0  0  0
    8.1070   12.1030   -9.2110 C   0  0  0  0  0  0
    9.4160   12.0960   -9.9650 C   0  0  0  0  0  0
    9.4170   13.1630  -11.0550 C   0  0  0  0  0  0
   10.2850   12.8180  -12.2760 C   0  0  0  0  0  0
   11.6730   12.3070  -11.9130 C   0  0  2  0  0  0
   12.3720   13.2870  -11.0930 N   0  0  0  0  0  0
   12.3980   11.9390  -13.1820 C   0  0  0  0  0  0
   13.1020   12.7400  -13.7790 O   0  0  0  0  0  0
   12.1990   10.7010  -13.6240 N   0  0  0  0  0  0
   12.7950   10.1930  -14.8610 C   0  0  2  0  0  0
   11.6970    9.3760  -15.5550 C   0  0  0  0  0  0
   11.7230    8.1610  -15.5700 O   0  0  0  0  0  0
   14.0040    9.3160  -14.5320 C   0  0  0  0  0  0
   10.6860   10.0580  -16.0560 N   0  0  0  0  0  0
    9.4940    9.3570  -16.5010 C   0  0  2  0  0  0
    9.8030    8.4050  -17.6160 C   0  0  0  0  0  0
   10.6130    8.7150  -18.5260 O   0  0  0  0  0  0
    8.5660   10.4770  -17.0400 C   0  0  0  0  0  0
    9.4300   11.6750  -17.1800 C   0  0  0  0  0  0
   10.6160   11.5130  -16.2790 C   0  0  0  0  0  0
    9.1510    7.2520  -17.5570 N   0  0  0  0  0  0
    9.2550    6.3080  -18.6710 C   0  0  2  0  0  0
    8.5540    6.8780  -19.9110 C   0  0  0  0  0  0
    8.9630    6.6130  -21.0210 O   0  0  0  0  0  0
    8.6190    4.9640  -18.3340 C   0  0  0  0  0  0
    9.1330    4.2670  -17.0990 C   0  0  0  0  0  0
    8.4420    2.9110  -16.9140 C   0  0  0  0  0  0
    8.8950    2.2910  -15.6770 N   0  0  0  0  0  0
   10.0620    1.6580  -15.5280 C   0  0  0  0  0  0
   10.8960    1.5200  -16.5900 N   0  3  0  0  0  0
   10.3690    1.1080  -14.3180 N   0  0  0  0  0  0
    7.4710    7.6120  -19.6950 N   0  0  0  0  0  0
    6.6760    8.1750  -20.7940 C   0  0  2  0  0  0
    7.0110    9.6780  -20.8720 C   0  0  0  0  0  0
    6.8160   10.4010  -19.9130 O   0  0  0  0  0  0
    5.1770    7.9250  -20.5300 C   0  0  0  0  0  0
    4.2580    8.2530  -21.7090 C   0  0  0  0  0  0
    2.8260    8.4990  -21.2500 C   0  0  0  0  0  0
    1.9320    9.0360  -22.3650 C   0  0  0  0  0  0
    2.2780   10.4180  -22.8020 N   0  3  0  0  0  0
    7.5520   10.1390  -21.9970 N   0  0  0  0  0  0
    7.8720   11.5630  -22.1700 C   0  0  2  0  0  0
    9.1840   11.9200  -21.4720 C   0  0  0  0  0  0
   10.1420   11.1510  -21.5200 O   0  5  0  0  0  0
    6.7330   12.4510  -21.6340 C   0  0  0  0  0  0
    6.6920   13.8410  -22.2330 C   0  0  0  0  0  0
    6.4080   13.8160  -23.7240 C   0  0  0  0  0  0
    6.1140   12.7620  -24.2970 O   0  0  0  0  0  0
    6.4890   14.9840  -24.3620 N   0  0  0  0  0  0
    9.2920   12.9790  -20.8570 O   0  0  0  0  0  0
   10.2026   17.6000  -11.1328 H   0  0  0  0  0  0
    9.9124   15.9738  -10.4271 H   0  0  0  0  0  0
   11.2324   16.2119  -11.6219 H   0  0  0  0  0  0
   12.4016   17.6832  -10.0369 H   0  0  0  0  0  0
   11.0816   17.4451   -8.8421 H   0  0  0  0  0  0
   14.0141   16.1916  -10.3211 H   0  0  0  0  0  0
   15.1754   14.1570   -9.7560 H   0  0  0  0  0  0
   13.9692   13.7880   -8.4772 H   0  0  0  0  0  0
    8.1175    8.6560   -6.2162 H   0  0  0  0  0  0
    7.6217   10.2782   -5.6250 H   0  0  0  0  0  0
    9.3454    9.9507   -6.0100 H   0  0  0  0  0  0
    8.5818   12.1008   -7.0548 H   0  0  0  0  0  0
    7.3561   11.5423   -9.7870 H   0  0  0  0  0  0
    7.7701   13.1423   -9.0832 H   0  0  0  0  0  0
   10.2419   12.2999   -9.2676 H   0  0  0  0  0  0
    9.5650   11.1112  -10.4319 H   0  0  0  0  0  0
    8.3909   13.3136  -11.4215 H   0  0  0  0  0  0
    9.8016   14.1077  -10.6430 H   0  0  0  0  0  0
    9.7906   12.0333  -12.8674 H   0  0  0  0  0  0
   10.4179   13.7162  -12.8970 H   0  0  0  0  0  0
   11.6444   11.4159  -11.2687 H   0  0  0  0  0  0
   11.9832   14.3127  -11.0104 H   0  0  0  0  0  0
   11.5545   10.0492  -13.0159 H   0  0  0  0  0  0
   13.1392   11.0347  -15.4799 H   0  0  0  0  0  0
   14.7745    9.9248  -14.0363 H   0  0  0  0  0  0
   14.4131    8.8921  -15.4609 H   0  0  0  0  0  0
   13.6939    8.5004  -13.8621 H   0  0  0  0  0  0
    9.0989    8.7578  -15.6674 H   0  0  0  0  0  0
    8.1452   10.1699  -18.0088 H   0  0  0  0  0  0
    7.7491   10.6524  -16.3245 H   0  0  0  0  0  0
    9.7618   11.7677  -18.2247 H   0  0  0  0  0  0
    8.8615   12.5725  -16.8949 H   0  0  0  0  0  0
   10.4814   12.0256  -15.3151 H   0  0  0  0  0  0
   11.5486   11.8570  -16.7501 H   0  0  0  0  0  0
    8.5356    7.0023  -16.6801 H   0  0  0  0  0  0
   10.3361    6.1805  -18.8293 H   0  0  0  0  0  0
    7.5389    5.0990  -18.1753 H   0  0  0  0  0  0
    8.7826    4.2622  -19.1651 H   0  0  0  0  0  0
   10.2166    4.1034  -17.1945 H   0  0  0  0  0  0
    8.9329    4.8911  -16.2156 H   0  0  0  0  0  0
    7.3527    3.0576  -16.8696 H   0  0  0  0  0  0
    8.6893    2.2548  -17.7614 H   0  0  0  0  0  0
    8.2595    2.3252  -14.7798 H   0  0  0  0  0  0
   10.6325    1.9702  -17.5584 H   0  0  0  0  0  0
    9.6814    1.2298  -13.4681 H   0  0  0  0  0  0
   11.3042    0.5427  -14.1922 H   0  0  0  0  0  0
    7.1739    7.7944  -18.6517 H   0  0  0  0  0  0
    6.9458    7.6705  -21.7335 H   0  0  0  0  0  0
    5.0192    6.8634  -20.2890 H   0  0  0  0  0  0
    4.8449    8.5461  -19.6850 H   0  0  0  0  0  0
    4.6213    9.1590  -22.2160 H   0  0  0  0  0  0
    4.2565    7.4118  -22.4178 H   0  0  0  0  0  0
    2.3881    7.5551  -20.8931 H   0  0  0  0  0  0
    2.8242    9.2359  -20.4333 H   0  0  0  0  0  0
    2.0152    8.3846  -23.2475 H   0  0  0  0  0  0
    0.8875    9.0549  -22.0205 H   0  0  0  0  0  0
    1.5926   10.7316  -23.6032 H   0  0  0  0  0  0
    3.3122   10.4361  -23.1762 H   0  0  0  0  0  0
    2.1845   11.1064  -21.9492 H   0  0  0  0  0  0
    7.7594    9.4261  -22.8087 H   0  0  0  0  0  0
    7.9854   11.7011  -23.2554 H   0  0  0  0  0  0
    5.7647   11.9775  -21.8534 H   0  0  0  0  0  0
    6.8436   12.5725  -20.5463 H   0  0  0  0  0  0
    5.8999   14.4275  -21.7446 H   0  0  0  0  0  0
    7.6624   14.3355  -22.0788 H   0  0  0  0  0  0
    6.7547   15.8962  -23.8077 H   0  0  0  0  0  0
    6.2901   15.0354  -25.4427 H   0  0  0  0  0  0
   11.8354    0.9579  -16.4822 H   0  0  0  0  0  0
  1  2  1  0  0  0
  1 63  1  0  0  0
  1 64  1  0  0  0
  1 65  1  0  0  0
  2  3  1  0  0  0
  2 66  1  0  0  0
  2 67  1  0  0  0
  3  4  2  0  0  0
  3  5  1  0  0  0
  5  6  1  0  0  0
  5 68  1  0  0  0
  6  7  1  0  0  0
  6 69  1  0  0  0
  6 70  1  0  0  0
  7  8  2  0  0  0
  7 18  1  0  0  0
  9 10  2  0  0  0
 10 11  1  0  0  0
 10 12  1  0  0  0
 11 71  1  0  0  0
 11 72  1  0  0  0
 11 73  1  0  0  0
 12 13  1  0  0  0
 12 74  1  0  0  0
 13 14  1  0  0  0
 13 75  1  0  0  0
 13 76  1  0  0  0
 14 15  1  0  0  0
 14 77  1  0  0  0
 14 78  1  0  0  0
 15 16  1  0  0  0
 15 79  1  0  0  0
 15 80  1  0  0  0
 16 17  1  0  0  0
 16 81  1  0  0  0
 16 82  1  0  0  0
 17 18  1  0  0  0
 17 19  1  0  0  0
 17 83  1  0  0  0
 18 84  1  0  0  0
 19 20  2  0  0  0
 19 21  1  0  0  0
 21 22  1  0  0  0
 21 85  1  0  0  0
 22 23  1  0  0  0
 22 25  1  0  0  0
 22 86  1  0  0  0
 23 24  2  0  0  0
 23 26  1  0  0  0
 25 87  1  0  0  0
 25 88  1  0  0  0
 25 89  1  0  0  0
 26 27  1  0  0  0
 26 32  1  0  0  0
 27 28  1  0  0  0
 27 30  1  0  0  0
 27 90  1  0  0  0
 28 29  2  0  0  0
 28 33  1  0  0  0
 30 31  1  0  0  0
 30 91  1  0  0  0
 30 92  1  0  0  0
 31 32  1  0  0  0
 31 93  1  0  0  0
 31 94  1  0  0  0
 32 95  1  0  0  0
 32 96  1  0  0  0
 33 34  1  0  0  0
 33 97  1  0  0  0
 34 35  1  0  0  0
 34 37  1  0  0  0
 34 98  1  0  0  0
 35 36  2  0  0  0
 35 44  1  0  0  0
 37 38  1  0  0  0
 37 99  1  0  0  0
 37100  1  0  0  0
 38 39  1  0  0  0
 38101  1  0  0  0
 38102  1  0  0  0
 39 40  1  0  0  0
 39103  1  0  0  0
 39104  1  0  0  0
 40 41  1  0  0  0
 40105  1  0  0  0
 41 42  2  0  0  0
 41 43  1  0  0  0
 42106  1  0  0  0
 42130  1  0  0  0
 43107  1  0  0  0
 43108  1  0  0  0
 44 45  1  0  0  0
 44109  1  0  0  0
 45 46  1  0  0  0
 45 48  1  0  0  0
 45110  1  0  0  0
 46 47  2  0  0  0
 46 53  1  0  0  0
 48 49  1  0  0  0
 48111  1  0  0  0
 48112  1  0  0  0
 49 50  1  0  0  0
 49113  1  0  0  0
 49114  1  0  0  0
 50 51  1  0  0  0
 50115  1  0  0  0
 50116  1  0  0  0
 51 52  1  0  0  0
 51117  1  0  0  0
 51118  1  0  0  0
 52119  1  0  0  0
 52120  1  0  0  0
 52121  1  0  0  0
 53 54  1  0  0  0
 53122  1  0  0  0
 54 55  1  0  0  0
 54 57  1  0  0  0
 54123  1  0  0  0
 55 56  1  0  0  0
 55 62  2  0  0  0
 57 58  1  0  0  0
 57124  1  0  0  0
 57125  1  0  0  0
 58 59  1  0  0  0
 58126  1  0  0  0
 58127  1  0  0  0
 59 60  2  0  0  0
 59 61  1  0  0  0
 61128  1  0  0  0
 61129  1  0  0  0
M  CHG  4   1   1  42   1  52   1  56  -1
M  END
> <s_m_source_file>
../4qc1_ligand.sdf

> <i_m_source_file_index>
1

> <s_epik_input>
W05IMytdW0NIMl1DKD1PKVtOSF1bQ0gyXUMoPU8pW05IXVtDQEBIXShbQ0gyXVtDSDJdW0NIMl1bQ0gyXVtOSF1DKD1PKVtDSDNdKUMoPU8pW05IXVtDQEBIXShbQ0gzXSlDKD1PKU4xW0NAQEhdKFtDSDJdW0NIMl1bQ0gyXTEpQyg9TylbTkhdW0NAQEhdKFtDSDJdW0NIMl1bQ0gyXVtOSF0vQyg9TlxbSF0pW05IMl0pQyg9TylbTkhdW0NAQEhdKFtDSDJdW0NIMl1bQ0gyXVtDSDJdW05IMytdKUMoPU8pW05IXVtDQEhdKEMoPU8pW09IXSlbQ0gyXVtDSDJdQyg9TylbTkgyXQ==

> <s_epik_cmdline>
J2VwaWtfYXBwJywgJy1pbWFlJywgJ2xpZ2FuZF9wcm8ubWFlJywgJy1vbWFlJywgJ2xpZ2FuZF9wcmVwLm1hZScsICctbXMnLCAnMScsICctcGgnLCAnNycsICctcGh0JywgJzAuNScsICctbnQn

> <r_epik_Ionization_Penalty>
  0.1245

> <r_epik_Ionization_Penalty_Charging>
  0.1245

> <r_epik_Ionization_Penalty_Neutral>
  0.0000

> <r_epik_State_Penalty>
  0.1134

> <r_epik_Charging_Adjusted_Penalty>
0.23792821500185

> <i_epik_Tot_Q>
2

> <i_epik_Tot_abs_Q>
4

> <s_epik_Chemistry_Notes>
This compound has an imine and may undergo hydrolysis.

$$$$
