4qdk_ligand
                    3D
 Schrodinger Suite 2020-3.
 46 48  0  0  1  0            999 V2000
   21.6290    2.5200   15.5870 N   0  3  0  0  0  0
   22.6840    3.5180   15.7340 C   0  0  1  0  0  0
   22.5260    4.6500   14.7250 C   0  0  0  0  0  0
   21.1720    5.3510   14.7360 C   0  0  0  0  0  0
   21.1490    6.8040   13.6510 S   0  0  0  0  0  0
   22.6790    4.0860   17.1440 C   0  0  0  0  0  0
   23.6970    4.5820   17.6280 O   0  5  0  0  0  0
   21.6550    4.0580   17.8270 O   0  0  0  0  0  0
   20.1710    5.9130   12.4180 C   0  0  0  0  0  0
   21.0460    5.1930   11.3990 C   0  0  1  0  0  0
   20.2540    4.3140   10.6250 O   0  0  0  0  0  0
   21.7330    6.1370   10.4190 C   0  0  1  0  0  0
   23.1250    5.9310   10.5000 O   0  0  0  0  0  0
   21.2350    5.7080    9.0510 C   0  0  1  0  0  0
   22.2500    5.7500    8.0750 O   0  0  0  0  0  0
   20.7690    4.2860    9.3130 C   0  0  2  0  0  0
   19.7490    3.8100    8.3640 N   0  0  0  0  0  0
   18.6550    4.4920    7.9020 C   0  0  0  0  0  0
   17.9810    3.6840    7.0510 N   0  0  0  0  0  0
   18.6300    2.4990    6.9690 C   0  0  0  0  0  0
   18.3780    1.3350    6.2540 C   0  0  0  0  0  0
   17.3160    1.2500    5.4570 N   0  0  0  0  0  0
   19.2420    0.2670    6.3690 N   0  0  0  0  0  0
   20.3450    0.3540    7.1970 C   0  0  0  0  0  0
   20.5890    1.5140    7.9020 N   0  0  0  0  0  0
   19.7440    2.5680    7.7890 C   0  0  0  0  0  0
   21.6445    2.1181   14.5632 H   0  0  0  0  0  0
   20.6526    2.9871   15.7828 H   0  0  0  0  0  0
   21.7949    1.7027   16.3043 H   0  0  0  0  0  0
   23.6219    2.9775   15.5384 H   0  0  0  0  0  0
   23.2800    5.4260   14.9235 H   0  0  0  0  0  0
   22.6644    4.2561   13.7073 H   0  0  0  0  0  0
   20.3949    4.6530   14.3911 H   0  0  0  0  0  0
   20.9391    5.6828   15.7586 H   0  0  0  0  0  0
   19.5437    5.1620   12.9205 H   0  0  0  0  0  0
   19.5294    6.6232   11.8758 H   0  0  0  0  0  0
   21.7869    4.5995   11.9547 H   0  0  0  0  0  0
   21.5926    7.2079   10.6272 H   0  0  0  0  0  0
   23.6659    6.1858   11.4233 H   0  0  0  0  0  0
   20.4959    6.3793    8.5893 H   0  0  0  0  0  0
   22.6886    6.7143    7.7788 H   0  0  0  0  0  0
   21.5801    3.5470    9.2364 H   0  0  0  0  0  0
   18.3753    5.5101    8.1730 H   0  0  0  0  0  0
   16.6271    2.1027    5.3658 H   0  0  0  0  0  0
   17.1269    0.3270    4.8892 H   0  0  0  0  0  0
   21.0224   -0.4945    7.2929 H   0  0  0  0  0  0
  1  2  1  0  0  0
  1 27  1  0  0  0
  1 28  1  0  0  0
  1 29  1  0  0  0
  2  3  1  0  0  0
  2  6  1  0  0  0
  2 30  1  0  0  0
  3  4  1  0  0  0
  3 31  1  0  0  0
  3 32  1  0  0  0
  4  5  1  0  0  0
  4 33  1  0  0  0
  4 34  1  0  0  0
  5  9  1  0  0  0
  6  7  1  0  0  0
  6  8  2  0  0  0
  9 10  1  0  0  0
  9 35  1  0  0  0
  9 36  1  0  0  0
 10 11  1  0  0  0
 10 12  1  0  0  0
 10 37  1  0  0  0
 11 16  1  0  0  0
 12 13  1  0  0  0
 12 14  1  0  0  0
 12 38  1  0  0  0
 13 39  1  0  0  0
 14 15  1  0  0  0
 14 16  1  0  0  0
 14 40  1  0  0  0
 15 41  1  0  0  0
 16 17  1  0  0  0
 16 42  1  0  0  0
 17 18  1  0  0  0
 17 26  1  0  0  0
 18 19  2  0  0  0
 18 43  1  0  0  0
 19 20  1  0  0  0
 20 21  2  0  0  0
 20 26  1  0  0  0
 21 22  1  0  0  0
 21 23  1  0  0  0
 22 44  1  0  0  0
 22 45  1  0  0  0
 23 24  2  0  0  0
 24 25  1  0  0  0
 24 46  1  0  0  0
 25 26  2  0  0  0
M  CHG  2   1   1   7  -1
M  END
> <s_m_source_file>
../4qdk_ligand.sdf

> <i_m_source_file_index>
1

> <s_epik_input>
W09IXUMoPU8pW0NAQEhdKFtOSDMrXSlbQ0gyXVtDSDJdU1tDSDJdW0NASF0xT1tDQEhdKFtDQEhdKFtPSF0pW0NAQEhdMVtPSF0pbihbY0hdbjIpYyhjMjMpbltjSF1uYzNbTkgyXQ==

> <s_epik_cmdline>
J2VwaWtfYXBwJywgJy1pbWFlJywgJ2xpZ2FuZF9wcm8ubWFlJywgJy1vbWFlJywgJ2xpZ2FuZF9wcmVwLm1hZScsICctbXMnLCAnMScsICctcGgnLCAnNycsICctcGh0JywgJzAuNScsICctbnQn

> <r_lp_tautomer_probability>
1

> <r_epik_Ionization_Penalty>
  0.0026

> <r_epik_Ionization_Penalty_Charging>
  0.0022

> <r_epik_Ionization_Penalty_Neutral>
  0.0004

> <r_epik_State_Penalty>
 -0.0000

> <r_epik_Charging_Adjusted_Penalty>
0.00216156469931729

> <i_epik_Tot_Q>
0

> <i_epik_Tot_abs_Q>
2

> <s_epik_Chemistry_Notes>
This compound contains an acetal/aminal-like group ( X-CH(R)-Y where X, Y are N, S, or O) that may be acid/base labile, releasing an aldehyde.

$$$$
