4qer_ligand
                    3D
 Schrodinger Suite 2020-3.
 29 30  0  0  1  0            999 V2000
   -4.5980   18.2780    5.4820 C   0  0  0  0  0  0
   -4.3900   18.0560    6.8360 C   0  0  0  0  0  0
   -4.6300   19.0940    7.7660 C   0  0  0  0  0  0
   -5.0760   20.3890    7.3310 C   0  0  0  0  0  0
   -5.3050   20.5970    5.9520 C   0  0  0  0  0  0
   -5.0810   19.5450    5.0190 C   0  0  0  0  0  0
   -5.8240   21.8800    5.4580 C   0  0  0  0  0  0
   -5.2640   22.8390    4.7460 C   0  0  0  0  0  0
   -6.1490   23.9810    4.3660 C   0  0  0  0  0  0
   -6.2180   24.3560    3.0060 C   0  0  0  0  0  0
   -7.0990   25.4390    2.6610 C   0  0  0  0  0  0
   -7.8090   26.1660    3.6570 C   0  0  0  0  0  0
   -7.7100   25.8110    5.0170 C   0  0  0  0  0  0
   -6.8970   24.6870    5.3350 C   0  0  0  0  0  0
   -8.6400   27.1750    3.2440 O   0  0  0  0  0  0
   -4.3770   18.8210    9.0940 O   0  0  0  0  0  0
   -4.3410   17.2190    4.6740 O   0  0  0  0  0  0
   -4.0421   17.0828    7.1823 H   0  0  0  0  0  0
   -5.2343   21.1935    8.0492 H   0  0  0  0  0  0
   -5.2759   19.7027    3.9582 H   0  0  0  0  0  0
   -6.8699   21.9768    5.7848 H   0  0  0  0  0  0
   -4.2026   22.7680    4.4662 H   0  0  0  0  0  0
   -5.6262   23.8442    2.2471 H   0  0  0  0  0  0
   -7.2258   25.7091    1.6126 H   0  0  0  0  0  0
   -8.2329   26.3724    5.7912 H   0  0  0  0  0  0
   -6.8492   24.3559    6.3724 H   0  0  0  0  0  0
   -8.7012   27.4350    2.1769 H   0  0  0  0  0  0
   -4.0366   17.8191    9.3944 H   0  0  0  0  0  0
   -3.9712   16.2763    5.1037 H   0  0  0  0  0  0
  1  2  2  0  0  0
  1  6  1  0  0  0
  1 17  1  0  0  0
  2  3  1  0  0  0
  2 18  1  0  0  0
  3  4  2  0  0  0
  3 16  1  0  0  0
  4  5  1  0  0  0
  4 19  1  0  0  0
  5  6  2  0  0  0
  5  7  1  0  0  0
  6 20  1  0  0  0
  7  8  2  0  0  0
  7 21  1  0  0  0
  8  9  1  0  0  0
  8 22  1  0  0  0
  9 10  2  0  0  0
  9 14  1  0  0  0
 10 11  1  0  0  0
 10 23  1  0  0  0
 11 12  2  0  0  0
 11 24  1  0  0  0
 12 13  1  0  0  0
 12 15  1  0  0  0
 13 14  2  0  0  0
 13 25  1  0  0  0
 14 26  1  0  0  0
 15 27  1  0  0  0
 16 28  1  0  0  0
 17 29  1  0  0  0
M  END
> <s_m_source_file>
../4qer_ligand.sdf

> <i_m_source_file_index>
1

> <s_epik_input>
W09IXWMxW2NIXWMoW09IXSlbY0hdYyhbY0hdMSkvW0NIXT1bQ0hdL2MyW2NIXVtjSF1jKFtPSF0pW2NIXVtjSF0y

> <s_epik_cmdline>
J2VwaWtfYXBwJywgJy1pbWFlJywgJ2xpZ2FuZF9wcm8ubWFlJywgJy1vbWFlJywgJ2xpZ2FuZF9wcmVwLm1hZScsICctbXMnLCAnMScsICctcGgnLCAnNycsICctcGh0JywgJzAuNScsICctbnQn

> <r_lp_tautomer_probability>
1

> <r_epik_Ionization_Penalty>
  0.0064

> <r_epik_Ionization_Penalty_Charging>
  0.0000

> <r_epik_Ionization_Penalty_Neutral>
  0.0064

> <r_epik_State_Penalty>
 -0.0000

> <r_epik_Charging_Adjusted_Penalty>
0

> <i_epik_Tot_Q>
0

> <i_epik_Tot_abs_Q>
0

$$$$
