4qev_ligand
                    3D
 Schrodinger Suite 2020-3.
 51 54  0  0  1  0            999 V2000
   71.9580  -11.2650   73.1070 C   0  0  0  0  0  0
   70.7470  -10.6150   72.7180 O   0  0  0  0  0  0
   70.8330   -9.2590   72.6760 C   0  0  0  0  0  0
   71.6550   -8.6200   73.3410 O   0  0  0  0  0  0
   69.8010   -8.5650   71.7410 C   0  0  2  0  0  0
   70.0780   -8.9290   70.2700 C   0  0  0  0  0  0
   69.9270   -7.0560   71.8690 C   0  0  2  0  0  0
   69.8480   -6.5290   73.2740 N   0  0  0  0  0  0
   68.9870   -6.3040   71.1270 C   0  0  0  0  0  0
   67.8340   -6.7550   70.6030 N   0  0  0  0  0  0
   67.2600   -5.8250   70.0550 N   0  0  0  0  0  0
   68.0100   -4.7160   70.1870 C   0  0  0  0  0  0
   67.6340   -3.3490   69.6230 C   0  0  0  0  0  0
   69.1120   -4.9970   70.8800 N   0  0  0  0  0  0
   70.2050   -4.3170   71.3170 C   0  0  0  0  0  0
   70.8230   -3.4660   70.3940 C   0  0  0  0  0  0
   71.9790   -2.7590   70.7480 C   0  0  0  0  0  0
   72.5560   -2.9080   72.0140 C   0  0  0  0  0  0
   73.6900   -2.2490   72.4330 O   0  0  0  0  0  0
   74.4850   -1.5120   71.4870 C   0  0  0  0  0  0
   71.9530   -3.7660   72.9280 C   0  0  0  0  0  0
   70.7940   -4.4630   72.5870 C   0  0  0  0  0  0
   70.3010   -5.2980   73.5940 C   0  0  0  0  0  0
   70.1740   -4.8380   74.9160 C   0  0  0  0  0  0
   70.3000   -5.7260   75.9930 C   0  0  0  0  0  0
   70.1630   -5.2680   77.3040 C   0  0  0  0  0  0
   69.8950   -3.9220   77.5550 C   0  0  0  0  0  0
   69.7210   -3.3560   79.1880 Cl  0  0  0  0  0  0
   69.7680   -3.0360   76.4950 C   0  0  0  0  0  0
   69.9060   -3.4910   75.1850 C   0  0  0  0  0  0
   71.8032  -12.3540   73.1155 H   0  0  0  0  0  0
   72.2482  -10.9280   74.1131 H   0  0  0  0  0  0
   72.7552  -11.0135   72.3920 H   0  0  0  0  0  0
   68.7882   -8.8833   72.0290 H   0  0  0  0  0  0
   69.9951  -10.0181   70.1399 H   0  0  0  0  0  0
   71.0924   -8.6032   69.9964 H   0  0  0  0  0  0
   69.3443   -8.4256   69.6233 H   0  0  0  0  0  0
   70.9075   -6.8590   71.4109 H   0  0  0  0  0  0
   66.6697   -3.4213   69.0986 H   0  0  0  0  0  0
   68.4106   -3.0169   68.9183 H   0  0  0  0  0  0
   67.5506   -2.6234   70.4455 H   0  0  0  0  0  0
   70.4027   -3.3528   69.3947 H   0  0  0  0  0  0
   72.4363   -2.0823   70.0262 H   0  0  0  0  0  0
   75.3430   -1.0578   72.0043 H   0  0  0  0  0  0
   73.8718   -0.7213   71.0300 H   0  0  0  0  0  0
   74.8480   -2.1935   70.7035 H   0  0  0  0  0  0
   72.3897   -3.8946   73.9184 H   0  0  0  0  0  0
   70.5061   -6.7798   75.8056 H   0  0  0  0  0  0
   70.2658   -5.9650   78.1357 H   0  0  0  0  0  0
   69.5602   -1.9834   76.6869 H   0  0  0  0  0  0
   69.8038   -2.7879   74.3584 H   0  0  0  0  0  0
  1  2  1  0  0  0
  1 31  1  0  0  0
  1 32  1  0  0  0
  1 33  1  0  0  0
  2  3  1  0  0  0
  3  4  2  0  0  0
  3  5  1  0  0  0
  5  6  1  0  0  0
  5  7  1  0  0  0
  5 34  1  0  0  0
  6 35  1  0  0  0
  6 36  1  0  0  0
  6 37  1  0  0  0
  7  8  1  0  0  0
  7  9  1  0  0  0
  7 38  1  0  0  0
  8 23  2  0  0  0
  9 10  2  0  0  0
  9 14  1  0  0  0
 10 11  1  0  0  0
 11 12  2  0  0  0
 12 13  1  0  0  0
 12 14  1  0  0  0
 13 39  1  0  0  0
 13 40  1  0  0  0
 13 41  1  0  0  0
 14 15  1  0  0  0
 15 16  2  0  0  0
 15 22  1  0  0  0
 16 17  1  0  0  0
 16 42  1  0  0  0
 17 18  2  0  0  0
 17 43  1  0  0  0
 18 19  1  0  0  0
 18 21  1  0  0  0
 19 20  1  0  0  0
 20 44  1  0  0  0
 20 45  1  0  0  0
 20 46  1  0  0  0
 21 22  2  0  0  0
 21 47  1  0  0  0
 22 23  1  0  0  0
 23 24  1  0  0  0
 24 25  2  0  0  0
 24 30  1  0  0  0
 25 26  1  0  0  0
 25 48  1  0  0  0
 26 27  2  0  0  0
 26 49  1  0  0  0
 27 28  1  0  0  0
 27 29  1  0  0  0
 29 30  2  0  0  0
 29 50  1  0  0  0
 30 51  1  0  0  0
M  END
> <s_m_source_file>
../4qev_ligand.sdf

> <i_m_source_file_index>
1

> <s_epik_input>
W0NIM11PQyg9TylbQ0BIXShbQ0gzXSlbQ0BASF0xTj1DKGMoYzJuKGMxMyljKG5uMylbQ0gzXSlbY0hdYyhbY0hdW2NIXTIpT1tDSDNdKWM0W2NIXVtjSF1jKENsKVtjSF1bY0hdNA==

> <s_epik_cmdline>
J2VwaWtfYXBwJywgJy1pbWFlJywgJ2xpZ2FuZF9wcm8ubWFlJywgJy1vbWFlJywgJ2xpZ2FuZF9wcmVwLm1hZScsICctbXMnLCAnMScsICctcGgnLCAnNycsICctcGh0JywgJzAuNScsICctbnQn

> <r_lp_tautomer_probability>
1

> <r_epik_Ionization_Penalty>
  0.0031

> <r_epik_Ionization_Penalty_Charging>
  0.0000

> <r_epik_Ionization_Penalty_Neutral>
  0.0031

> <r_epik_State_Penalty>
 -0.0000

> <r_epik_Charging_Adjusted_Penalty>
0

> <i_epik_Tot_Q>
0

> <i_epik_Tot_abs_Q>
0

> <s_epik_Chemistry_Notes>
This compound has an ester and may undergo hydrolysis at high or low pH. This compound has an imine and may undergo hydrolysis.

$$$$
