4qf8_ligand
                    3D
 Schrodinger Suite 2020-3.
 32 31  0  0  1  0            999 V2000
   17.0230   -0.6970   -3.4050 N   0  3  0  0  0  0
   18.0180   -0.7420   -4.4850 C   0  0  0  0  0  0
   18.5310    0.6510   -4.8440 C   0  0  0  0  0  0
   19.9110    0.8490   -4.2850 C   0  0  0  0  0  0
   19.9440    1.9430   -3.2340 C   0  0  0  0  0  0
   20.9630    2.9100   -3.5200 N   0  3  0  0  0  0
   20.8760    3.8420   -4.6370 C   0  0  0  0  0  0
   21.9090    4.9120   -4.2950 C   0  0  0  0  0  0
   21.5680    6.2860   -4.8620 C   0  0  0  0  0  0
   20.7090    6.9760   -3.9080 N   0  3  0  0  0  0
   16.6811   -1.7177   -3.1787 H   0  0  0  0  0  0
   16.1656   -0.0849   -3.7216 H   0  0  0  0  0  0
   17.4773   -0.2547   -2.5061 H   0  0  0  0  0  0
   18.8754   -1.3541   -4.1684 H   0  0  0  0  0  0
   17.5638   -1.1843   -5.3839 H   0  0  0  0  0  0
   18.5645    0.7586   -5.9382 H   0  0  0  0  0  0
   17.8566    1.4103   -4.4214 H   0  0  0  0  0  0
   20.2558   -0.0862   -3.8197 H   0  0  0  0  0  0
   20.5985    1.1300   -5.0964 H   0  0  0  0  0  0
   18.9716    2.4566   -3.2088 H   0  0  0  0  0  0
   20.1498    1.4990   -2.2489 H   0  0  0  0  0  0
   21.0819    3.5831   -2.6582 H   0  0  0  0  0  0
   21.9142    2.3934   -3.7157 H   0  0  0  0  0  0
   21.1145    3.3158   -5.5730 H   0  0  0  0  0  0
   19.8562    4.2501   -4.6955 H   0  0  0  0  0  0
   21.9827    5.0145   -3.2023 H   0  0  0  0  0  0
   22.8881    4.6201   -4.7027 H   0  0  0  0  0  0
   22.4942    6.8586   -5.0176 H   0  0  0  0  0  0
   21.0449    6.1669   -5.8223 H   0  0  0  0  0  0
   20.4514    7.9712   -4.2996 H   0  0  0  0  0  0
   21.2383    7.0847   -2.9499 H   0  0  0  0  0  0
   19.7890    6.3929   -3.7546 H   0  0  0  0  0  0
  1  2  1  0  0  0
  1 11  1  0  0  0
  1 12  1  0  0  0
  1 13  1  0  0  0
  2  3  1  0  0  0
  2 14  1  0  0  0
  2 15  1  0  0  0
  3  4  1  0  0  0
  3 16  1  0  0  0
  3 17  1  0  0  0
  4  5  1  0  0  0
  4 18  1  0  0  0
  4 19  1  0  0  0
  5  6  1  0  0  0
  5 20  1  0  0  0
  5 21  1  0  0  0
  6  7  1  0  0  0
  6 22  1  0  0  0
  6 23  1  0  0  0
  7  8  1  0  0  0
  7 24  1  0  0  0
  7 25  1  0  0  0
  8  9  1  0  0  0
  8 26  1  0  0  0
  8 27  1  0  0  0
  9 10  1  0  0  0
  9 28  1  0  0  0
  9 29  1  0  0  0
 10 30  1  0  0  0
 10 31  1  0  0  0
 10 32  1  0  0  0
M  CHG  3   1   1   6   1  10   1
M  END
> <s_m_source_file>
../4qf8_ligand.sdf

> <i_m_source_file_index>
1

> <s_epik_input>
W05IMytdW0NIMl1bQ0gyXVtDSDJdW0NIMl1bTkgyK11bQ0gyXVtDSDJdW0NIMl1bTkgzK10=

> <s_epik_cmdline>
J2VwaWtfYXBwJywgJy1pbWFlJywgJ2xpZ2FuZF9wcm8ubWFlJywgJy1vbWFlJywgJ2xpZ2FuZF9wcmVwLm1hZScsICctbXMnLCAnMScsICctcGgnLCAnNycsICctcGh0JywgJzAuNScsICctbnQn

> <r_lp_tautomer_probability>
1

> <r_epik_Ionization_Penalty>
  0.0057

> <r_epik_Ionization_Penalty_Charging>
  0.0057

> <r_epik_Ionization_Penalty_Neutral>
  0.0000

> <r_epik_State_Penalty>
 -0.0000

> <r_epik_Charging_Adjusted_Penalty>
0.00565241797034212

> <i_epik_Tot_Q>
3

> <i_epik_Tot_abs_Q>
3

$$$$
