4qfg_ligand
                    3D
 Schrodinger Suite 2020-3.
 35 37  0  0  1  0            999 V2000
   28.9230  -36.0160   20.3270 P   0  0  0  0  0  0
   28.6800  -36.7030   21.6660 O   0  5  0  0  0  0
   27.6980  -35.1330   19.9950 O   0  5  0  0  0  0
   29.2740  -36.9730   19.2410 O   0  0  0  0  0  0
   30.1300  -35.0350   20.6000 O   0  0  0  0  0  0
   30.4410  -33.7420   20.0390 C   0  0  0  0  0  0
   30.8170  -32.7770   21.1390 C   0  0  1  0  0  0
   29.7680  -32.7260   22.1370 O   0  0  0  0  0  0
   32.1190  -33.0790   21.8860 C   0  0  1  0  0  0
   32.9560  -31.9280   21.9830 O   0  0  0  0  0  0
   31.6280  -33.6110   23.2380 C   0  0  1  0  0  0
   32.5660  -33.4270   24.2910 O   0  0  0  0  0  0
   30.3560  -32.7880   23.4200 C   0  0  2  0  0  0
   29.3770  -33.3110   24.3740 N   0  0  0  0  0  0
   28.8700  -34.5830   24.4530 C   0  0  0  0  0  0
   28.0430  -34.7680   25.4530 N   0  0  0  0  0  0
   28.0000  -33.5300   26.0780 C   0  0  0  0  0  0
   27.3110  -33.0590   27.2180 C   0  0  0  0  0  0
   26.5490  -33.8310   27.9990 N   0  0  0  0  0  0
   27.4660  -31.7570   27.5550 N   0  0  0  0  0  0
   28.2660  -30.9870   26.8070 C   0  0  0  0  0  0
   28.9780  -31.3220   25.7270 N   0  0  0  0  0  0
   28.8050  -32.6180   25.4140 C   0  0  0  0  0  0
   31.2843  -33.8391   19.3395 H   0  0  0  0  0  0
   29.5625  -33.3541   19.5026 H   0  0  0  0  0  0
   30.9149  -31.8091   20.6256 H   0  0  0  0  0  0
   32.8193  -33.7537   21.3718 H   0  0  0  0  0  0
   33.3631  -31.4656   21.0717 H   0  0  0  0  0  0
   31.5167  -34.7022   23.3210 H   0  0  0  0  0  0
   33.5243  -33.9667   24.2744 H   0  0  0  0  0  0
   30.5856  -31.7885   23.8178 H   0  0  0  0  0  0
   29.1317  -35.3706   23.7464 H   0  0  0  0  0  0
   26.4049  -34.8927   27.7502 H   0  0  0  0  0  0
   26.0660  -33.4046   28.8906 H   0  0  0  0  0  0
   28.3475  -29.9465   27.1214 H   0  0  0  0  0  0
  1  2  1  0  0  0
  1  3  1  0  0  0
  1  4  2  0  0  0
  1  5  1  0  0  0
  5  6  1  0  0  0
  6  7  1  0  0  0
  6 24  1  0  0  0
  6 25  1  0  0  0
  7  8  1  0  0  0
  7  9  1  0  0  0
  7 26  1  0  0  0
  8 13  1  0  0  0
  9 10  1  0  0  0
  9 11  1  0  0  0
  9 27  1  0  0  0
 10 28  1  0  0  0
 11 12  1  0  0  0
 11 13  1  0  0  0
 11 29  1  0  0  0
 12 30  1  0  0  0
 13 14  1  0  0  0
 13 31  1  0  0  0
 14 15  1  0  0  0
 14 23  1  0  0  0
 15 16  2  0  0  0
 15 32  1  0  0  0
 16 17  1  0  0  0
 17 18  2  0  0  0
 17 23  1  0  0  0
 18 19  1  0  0  0
 18 20  1  0  0  0
 19 33  1  0  0  0
 19 34  1  0  0  0
 20 21  2  0  0  0
 21 22  1  0  0  0
 21 35  1  0  0  0
 22 23  2  0  0  0
M  CHG  2   2  -1   3  -1
M  END
> <s_m_source_file>
../4qfg_ligand.sdf

> <i_m_source_file_index>
1

> <s_epik_input>
W09IXVAoPU8pKFtPSF0pT1tDSDJdW0NASF0xT1tDQEhdKFtDQEhdKFtPSF0pW0NAQEhdMVtPSF0pbihbY0hdbjIpYyhjMjMpbltjSF1uYzNbTkgyXQ==

> <s_epik_cmdline>
J2VwaWtfYXBwJywgJy1pbWFlJywgJ2xpZ2FuZF9wcm8ubWFlJywgJy1vbWFlJywgJ2xpZ2FuZF9wcmVwLm1hZScsICctbXMnLCAnMScsICctcGgnLCAnNycsICctcGh0JywgJzAuNScsICctbnQn

> <r_lp_tautomer_probability>
0.999997216410988

> <r_epik_Ionization_Penalty>
  0.1025

> <r_epik_Ionization_Penalty_Charging>
  0.1020

> <r_epik_Ionization_Penalty_Neutral>
  0.0004

> <r_epik_State_Penalty>
  0.0920

> <r_epik_Charging_Adjusted_Penalty>
0.194024004396068

> <i_epik_Tot_Q>
-2

> <i_epik_Tot_abs_Q>
2

> <s_epik_Chemistry_Notes>
This compound contains an acetal/aminal-like group ( X-CH(R)-Y where X, Y are N, S, or O) that may be acid/base labile, releasing an aldehyde.

$$$$
