4qfl_ligand
                    3D
 Schrodinger Suite 2020-3.
 33 33  0  0  1  0            999 V2000
   14.0680   -9.1800   12.4220 N   0  3  0  0  0  0
   13.3870   -7.8950   12.2910 C   0  0  2  0  0  0
   12.6140   -7.8220   10.9760 C   0  0  0  0  0  0
   13.0010   -8.4450    9.9880 O   0  0  0  0  0  0
   14.3920   -6.7440   12.3910 C   0  0  0  0  0  0
   11.5140   -7.0710   10.9700 N   0  0  0  0  0  0
   10.7420   -6.8330    9.7560 C   0  0  2  0  0  0
   11.5000   -5.9000    8.8400 C   0  0  0  0  0  0
   11.4300   -6.0250    7.6220 O   0  0  0  0  0  0
    9.4030   -6.1890   10.0980 C   0  0  0  0  0  0
    8.4400   -7.1100   10.7620 C   0  0  0  0  0  0
    8.1970   -8.3720   10.2450 C   0  0  0  0  0  0
    7.7700   -6.7160   11.8980 C   0  0  0  0  0  0
    7.3040   -9.2180   10.8420 C   0  0  0  0  0  0
    6.8730   -7.5560   12.5030 C   0  0  0  0  0  0
    6.6390   -8.8120   11.9800 C   0  0  0  0  0  0
   12.1930   -4.9940    9.3050 O   0  5  0  0  0  0
   13.3321   -9.9942   12.3479 H   0  0  0  0  0  0
   14.5727   -9.2296   13.3981 H   0  0  0  0  0  0
   14.8122   -9.2841   11.6187 H   0  0  0  0  0  0
   12.6790   -7.8477   13.1316 H   0  0  0  0  0  0
   14.9372   -6.8150   13.3437 H   0  0  0  0  0  0
   13.8561   -5.7844   12.3458 H   0  0  0  0  0  0
   15.1046   -6.8058   11.5553 H   0  0  0  0  0  0
   11.1930   -6.6239   11.9224 H   0  0  0  0  0  0
   10.6016   -7.8173    9.2855 H   0  0  0  0  0  0
    9.5670   -5.3430   10.7816 H   0  0  0  0  0  0
    8.9237   -5.8278    9.1761 H   0  0  0  0  0  0
    8.7258   -8.6956    9.3485 H   0  0  0  0  0  0
    7.9547   -5.7279   12.3194 H   0  0  0  0  0  0
    7.1190  -10.2064   10.4214 H   0  0  0  0  0  0
    6.3431   -7.2322   13.3988 H   0  0  0  0  0  0
    5.9296   -9.4819   12.4658 H   0  0  0  0  0  0
  1  2  1  0  0  0
  1 18  1  0  0  0
  1 19  1  0  0  0
  1 20  1  0  0  0
  2  3  1  0  0  0
  2  5  1  0  0  0
  2 21  1  0  0  0
  3  4  2  0  0  0
  3  6  1  0  0  0
  5 22  1  0  0  0
  5 23  1  0  0  0
  5 24  1  0  0  0
  6  7  1  0  0  0
  6 25  1  0  0  0
  7  8  1  0  0  0
  7 10  1  0  0  0
  7 26  1  0  0  0
  8  9  2  0  0  0
  8 17  1  0  0  0
 10 11  1  0  0  0
 10 27  1  0  0  0
 10 28  1  0  0  0
 11 12  2  0  0  0
 11 13  1  0  0  0
 12 14  1  0  0  0
 12 29  1  0  0  0
 13 15  2  0  0  0
 13 30  1  0  0  0
 14 16  2  0  0  0
 14 31  1  0  0  0
 15 16  1  0  0  0
 15 32  1  0  0  0
 16 33  1  0  0  0
M  CHG  2   1   1  17  -1
M  END
> <s_m_source_file>
../4qfl_ligand.sdf

> <i_m_source_file_index>
1

> <s_epik_input>
W05IMytdW0NAQEhdKFtDSDNdKUMoPU8pW05IXVtDQEhdKEMoPU8pW09IXSlbQ0gyXWMxW2NIXVtjSF1bY0hdW2NIXVtjSF0x

> <s_epik_cmdline>
J2VwaWtfYXBwJywgJy1pbWFlJywgJ2xpZ2FuZF9wcm8ubWFlJywgJy1vbWFlJywgJ2xpZ2FuZF9wcmVwLm1hZScsICctbXMnLCAnMScsICctcGgnLCAnNycsICctcGh0JywgJzAuNScsICctbnQn

> <r_epik_Ionization_Penalty>
  0.1096

> <r_epik_Ionization_Penalty_Charging>
  0.1096

> <r_epik_Ionization_Penalty_Neutral>
  0.0000

> <r_epik_State_Penalty>
  0.0993

> <r_epik_Charging_Adjusted_Penalty>
0.208891309447452

> <i_epik_Tot_Q>
0

> <i_epik_Tot_abs_Q>
2

$$$$
