4qfn_ligand
                    3D
 Schrodinger Suite 2020-3.
 25 24  0  0  1  0            999 V2000
   14.5650    8.3960   12.3020 N   0  3  0  0  0  0
   13.6400    7.2790   12.2750 C   0  0  0  0  0  0
   13.1000    6.9480   10.8900 C   0  0  0  0  0  0
   13.7520    7.2140    9.8760 O   0  0  0  0  0  0
   11.9050    6.3590   10.8460 N   0  0  0  0  0  0
   11.3220    5.8870    9.5920 C   0  0  2  0  0  0
   10.7870    7.0170    8.7230 C   0  0  0  0  0  0
   10.3980    8.0810    9.2040 O   0  5  0  0  0  0
   10.2210    4.8540    9.8490 C   0  0  0  0  0  0
   10.7000    3.6180   10.5870 C   0  0  0  0  0  0
   10.4640    3.6930   12.0970 C   0  0  0  0  0  0
   10.5620    2.6390   12.7700 O   0  0  0  0  0  0
   10.1610    4.7990   12.6100 O   0  5  0  0  0  0
   10.7290    6.8750    7.5030 O   0  0  0  0  0  0
   14.9044    8.5661   13.3344 H   0  0  0  0  0  0
   14.0602    9.2991   11.9285 H   0  0  0  0  0  0
   15.4318    8.1698   11.6636 H   0  0  0  0  0  0
   14.1448    6.3758   12.6485 H   0  0  0  0  0  0
   12.7732    7.5052   12.9134 H   0  0  0  0  0  0
   11.3551    6.2324   11.7902 H   0  0  0  0  0  0
   12.1748    5.4262    9.0721 H   0  0  0  0  0  0
    9.4258    5.3094   10.4574 H   0  0  0  0  0  0
    9.8016    4.5186    8.8890 H   0  0  0  0  0  0
   10.1644    2.7347   10.2090 H   0  0  0  0  0  0
   11.7802    3.4893   10.4241 H   0  0  0  0  0  0
  1  2  1  0  0  0
  1 15  1  0  0  0
  1 16  1  0  0  0
  1 17  1  0  0  0
  2  3  1  0  0  0
  2 18  1  0  0  0
  2 19  1  0  0  0
  3  4  2  0  0  0
  3  5  1  0  0  0
  5  6  1  0  0  0
  5 20  1  0  0  0
  6  7  1  0  0  0
  6  9  1  0  0  0
  6 21  1  0  0  0
  7  8  1  0  0  0
  7 14  2  0  0  0
  9 10  1  0  0  0
  9 22  1  0  0  0
  9 23  1  0  0  0
 10 11  1  0  0  0
 10 24  1  0  0  0
 10 25  1  0  0  0
 11 12  2  0  0  0
 11 13  1  0  0  0
M  CHG  3   1   1   8  -1  13  -1
M  END
> <s_m_source_file>
../4qfn_ligand.sdf

> <i_m_source_file_index>
1

> <s_epik_input>
W05IMytdW0NIMl1DKD1PKVtOSF1bQ0BIXShDKD1PKVtPSF0pW0NIMl1bQ0gyXUMoPU8pW09IXQ==

> <s_epik_cmdline>
J2VwaWtfYXBwJywgJy1pbWFlJywgJ2xpZ2FuZF9wcm8ubWFlJywgJy1vbWFlJywgJ2xpZ2FuZF9wcmVwLm1hZScsICctbXMnLCAnMScsICctcGgnLCAnNycsICctcGh0JywgJzAuNScsICctbnQn

> <r_epik_Ionization_Penalty>
  0.1029

> <r_epik_Ionization_Penalty_Charging>
  0.1029

> <r_epik_Ionization_Penalty_Neutral>
  0.0000

> <r_epik_State_Penalty>
  0.0895

> <r_epik_Charging_Adjusted_Penalty>
0.192364514471879

> <i_epik_Tot_Q>
-1

> <i_epik_Tot_abs_Q>
3

$$$$
