4qfo_ligand
                    3D
 Schrodinger Suite 2020-3.
 39 38  0  0  1  0            999 V2000
   13.7890   -7.4530   13.0750 N   0  3  0  0  0  0
   13.1970   -6.2170   12.5750 C   0  0  2  0  0  0
   12.2500   -6.4470   11.4120 C   0  0  0  0  0  0
   12.5300   -7.2340   10.5100 O   0  0  0  0  0  0
   14.2920   -5.2450   12.1290 C   0  0  0  0  0  0
   14.8400   -4.4140   13.2730 C   0  0  0  0  0  0
   16.4230   -3.6130   12.8950 S   0  0  0  0  0  0
   16.3530   -3.4720   11.1130 C   0  0  0  0  0  0
   11.1330   -5.7360   11.4280 N   0  0  0  0  0  0
   10.2220   -5.7260   10.3000 C   0  0  2  0  0  0
   10.8400   -4.8400    9.2320 C   0  0  0  0  0  0
   11.5030   -3.8530    9.5750 O   0  0  0  0  0  0
    8.8770   -5.1440   10.7280 C   0  0  0  0  0  0
    7.7250   -6.0530   11.1570 C   0  0  0  0  0  0
    8.2130   -7.3620   11.7290 C   0  0  0  0  0  0
    6.7950   -5.3160   12.1270 C   0  0  0  0  0  0
   10.6950   -5.0720    8.0220 O   0  5  0  0  0  0
   12.9905   -8.1403   13.3912 H   0  0  0  0  0  0
   14.4394   -7.2272   13.9329 H   0  0  0  0  0  0
   14.3834   -7.9235   12.2779 H   0  0  0  0  0  0
   12.6245   -5.8348   13.4330 H   0  0  0  0  0  0
   15.1288   -5.8104   11.6929 H   0  0  0  0  0  0
   13.8846   -4.5540   11.3763 H   0  0  0  0  0  0
   14.1221   -3.6199   13.5260 H   0  0  0  0  0  0
   14.9989   -5.0578   14.1506 H   0  0  0  0  0  0
   17.2726   -2.9923   10.7468 H   0  0  0  0  0  0
   15.4828   -2.8628   10.8273 H   0  0  0  0  0  0
   16.2605   -4.4743   10.6693 H   0  0  0  0  0  0
   10.9034   -5.1432   12.3257 H   0  0  0  0  0  0
   10.0913   -6.7617    9.9533 H   0  0  0  0  0  0
    9.0219   -4.4876   11.5987 H   0  0  0  0  0  0
    8.4481   -4.5630    9.8982 H   0  0  0  0  0  0
    7.1518   -6.3251   10.2584 H   0  0  0  0  0  0
    8.8750   -7.8556   11.0023 H   0  0  0  0  0  0
    7.3521   -8.0128   11.9418 H   0  0  0  0  0  0
    8.7675   -7.1714   12.6597 H   0  0  0  0  0  0
    6.4644   -4.3710   11.6713 H   0  0  0  0  0  0
    7.3343   -5.1034   13.0618 H   0  0  0  0  0  0
    5.9189   -5.9447   12.3440 H   0  0  0  0  0  0
  1  2  1  0  0  0
  1 18  1  0  0  0
  1 19  1  0  0  0
  1 20  1  0  0  0
  2  3  1  0  0  0
  2  5  1  0  0  0
  2 21  1  0  0  0
  3  4  2  0  0  0
  3  9  1  0  0  0
  5  6  1  0  0  0
  5 22  1  0  0  0
  5 23  1  0  0  0
  6  7  1  0  0  0
  6 24  1  0  0  0
  6 25  1  0  0  0
  7  8  1  0  0  0
  8 26  1  0  0  0
  8 27  1  0  0  0
  8 28  1  0  0  0
  9 10  1  0  0  0
  9 29  1  0  0  0
 10 11  1  0  0  0
 10 13  1  0  0  0
 10 30  1  0  0  0
 11 12  2  0  0  0
 11 17  1  0  0  0
 13 14  1  0  0  0
 13 31  1  0  0  0
 13 32  1  0  0  0
 14 15  1  0  0  0
 14 16  1  0  0  0
 14 33  1  0  0  0
 15 34  1  0  0  0
 15 35  1  0  0  0
 15 36  1  0  0  0
 16 37  1  0  0  0
 16 38  1  0  0  0
 16 39  1  0  0  0
M  CHG  2   1   1  17  -1
M  END
> <s_m_source_file>
../4qfo_ligand.sdf

> <i_m_source_file_index>
1

> <s_epik_input>
W0NIM11TW0NIMl1bQ0gyXVtDQEhdKFtOSDMrXSlDKD1PKVtOSF1bQ0BIXShDKD1PKVtPSF0pW0NIMl1bQ0hdKFtDSDNdKVtDSDNd

> <s_epik_cmdline>
J2VwaWtfYXBwJywgJy1pbWFlJywgJ2xpZ2FuZF9wcm8ubWFlJywgJy1vbWFlJywgJ2xpZ2FuZF9wcmVwLm1hZScsICctbXMnLCAnMScsICctcGgnLCAnNycsICctcGh0JywgJzAuNScsICctbnQn

> <r_epik_Ionization_Penalty>
  0.1335

> <r_epik_Ionization_Penalty_Charging>
  0.1335

> <r_epik_Ionization_Penalty_Neutral>
  0.0000

> <r_epik_State_Penalty>
  0.1227

> <r_epik_Charging_Adjusted_Penalty>
0.256191503437401

> <i_epik_Tot_Q>
0

> <i_epik_Tot_abs_Q>
2

$$$$
