4qfs_ligand
                    3D
 Schrodinger Suite 2020-3.
 26 28  0  0  1  0            999 V2000
   47.2020  -82.2910  -40.4890 C   0  0  0  0  0  0
   40.0410  -82.3320  -39.2970 N   0  0  0  0  0  0
   45.2450  -79.2200  -39.5190 C   0  0  0  0  0  0
   46.2570  -80.3040  -39.5040 C   0  0  0  0  0  0
   42.9200  -80.4810  -39.4610 C   0  0  0  0  0  0
   45.6070  -77.9360  -39.5890 C   0  0  0  0  0  0
   43.7990  -79.3360  -39.5110 C   0  0  0  0  0  0
   47.3090  -80.2820  -38.5930 C   0  0  0  0  0  0
   48.3080  -81.2370  -38.6400 C   0  0  0  0  0  0
   48.2450  -82.2240  -39.5950 C   0  0  0  0  0  0
   46.2090  -81.3300  -40.4400 C   0  0  0  0  0  0
   41.5560  -80.2540  -39.4590 C   0  0  0  0  0  0
   40.9440  -78.9330  -39.5180 C   0  0  0  0  0  0
   39.7400  -78.6940  -39.4880 O   0  0  0  0  0  0
   41.8400  -77.8880  -39.5820 N   0  0  0  0  0  0
   43.1920  -78.0910  -39.5750 C   0  0  0  0  0  0
   44.3240  -76.8080  -39.6550 S   0  0  0  0  0  0
   47.3280  -77.2250  -39.6230 Br  0  0  0  0  0  0
   40.6820  -81.3850  -39.3710 C   0  0  0  0  0  0
   43.4700  -81.7090  -39.4310 O   0  5  0  0  0  0
   49.6390  -83.5020  -39.7020 Br  0  0  0  0  0  0
   47.1587  -83.0919  -41.2271 H   0  0  0  0  0  0
   47.3459  -79.5019  -37.8326 H   0  0  0  0  0  0
   49.1342  -81.2076  -37.9296 H   0  0  0  0  0  0
   45.3784  -81.3778  -41.1442 H   0  0  0  0  0  0
   41.4739  -76.8524  -39.6410 H   0  0  0  0  0  0
  1 10  2  0  0  0
  1 11  1  0  0  0
  1 22  1  0  0  0
  2 19  3  0  0  0
  3  4  1  0  0  0
  3  6  2  0  0  0
  3  7  1  0  0  0
  4  8  1  0  0  0
  4 11  2  0  0  0
  5  7  1  0  0  0
  5 12  2  0  0  0
  5 20  1  0  0  0
  6 17  1  0  0  0
  6 18  1  0  0  0
  7 16  2  0  0  0
  8  9  2  0  0  0
  8 23  1  0  0  0
  9 10  1  0  0  0
  9 24  1  0  0  0
 10 21  1  0  0  0
 11 25  1  0  0  0
 12 13  1  0  0  0
 12 19  1  0  0  0
 13 14  2  0  0  0
 13 15  1  0  0  0
 15 16  1  0  0  0
 15 26  1  0  0  0
 16 17  1  0  0  0
M  CHG  1  20  -1
M  END
> <s_m_source_file>
../4qfs_ligand.sdf

> <i_m_source_file_index>
1

> <s_epik_input>
W2NIXTFbY0hdYyhCcilbY0hdW2NIXWMxLWMyYyhCcilzYyhjMjMpW25IXWMoPU8pYyhDI04pYzNbT0hd

> <s_epik_cmdline>
J2VwaWtfYXBwJywgJy1pbWFlJywgJ2xpZ2FuZF9wcm8ubWFlJywgJy1vbWFlJywgJ2xpZ2FuZF9wcmVwLm1hZScsICctbXMnLCAnMScsICctcGgnLCAnNycsICctcGh0JywgJzAuNScsICctbnQn

> <r_lp_tautomer_probability>
1

> <r_epik_Ionization_Penalty>
  0.0001

> <r_epik_Ionization_Penalty_Charging>
  0.0001

> <r_epik_Ionization_Penalty_Neutral>
  0.0000

> <r_epik_State_Penalty>
 -0.0000

> <r_epik_Charging_Adjusted_Penalty>
0.00013400295304724

> <i_epik_Tot_Q>
-1

> <i_epik_Tot_abs_Q>
1

$$$$
