4qg7_ligand
                    3D
 Schrodinger Suite 2020-3.
 61 64  0  0  1  0            999 V2000
   12.5830   -3.1460    0.9450 C   0  0  0  0  0  0
   11.9980   -1.7760    0.8430 C   0  0  0  0  0  0
   11.5450   -1.0620    1.8890 C   0  0  0  0  0  0
   10.9870    0.1960    1.7830 N   0  0  0  0  0  0
   10.9060    0.8450    0.5710 C   0  0  0  0  0  0
   10.4830    1.9880    0.4400 O   0  0  0  0  0  0
   11.3500    0.1070   -0.5080 N   0  0  0  0  0  0
   11.8940   -1.1580   -0.4950 C   0  0  0  0  0  0
   12.2770   -1.7400   -1.5110 O   0  0  0  0  0  0
   10.4350    0.8740    2.9410 C   0  0  1  0  0  0
    9.5780   -0.0170    3.8390 C   0  0  0  0  0  0
    9.0060    0.7870    4.9940 C   0  0  0  0  0  0
   10.1600    1.3970    5.7790 C   0  0  0  0  0  0
   10.9320    2.2800    4.8520 N   0  3  2  0  0  0
   11.5370    1.5370    3.7150 C   0  0  0  0  0  0
   11.9240    3.2130    5.4590 C   0  0  0  0  0  0
   13.1390    2.5400    6.0310 C   0  0  0  0  0  0
   13.0840    2.1400    7.3530 C   0  0  0  0  0  0
   14.1560    1.5020    7.9270 C   0  0  0  0  0  0
   15.3090    1.2720    7.2020 C   0  0  0  0  0  0
   15.3850    1.6940    5.8830 C   0  0  0  0  0  0
   14.3040    2.3370    5.2970 C   0  0  0  0  0  0
   14.3860    2.7700    3.9680 O   0  0  0  0  0  0
   15.0840    4.0310    3.9470 C   0  0  0  0  0  0
   16.5590    1.5200    5.1670 O   0  0  0  0  0  0
   16.6540    0.4670    4.2760 C   0  0  0  0  0  0
   15.8770   -0.6790    4.3480 C   0  0  0  0  0  0
   16.0580   -1.6990    3.4270 C   0  0  0  0  0  0
   17.0090   -1.5530    2.4360 C   0  0  0  0  0  0
   17.7830   -0.4090    2.3830 C   0  0  0  0  0  0
   17.6220    0.6060    3.3040 C   0  0  0  0  0  0
   18.9660   -0.1980    1.1470 Cl  0  0  0  0  0  0
   16.4250    0.5900    7.8690 C   0  0  0  0  0  0
   16.8930    1.1270    8.9040 O   0  5  0  0  0  0
   16.8280   -0.4820    7.3640 O   0  0  0  0  0  0
   12.5913   -3.4637    1.9981 H   0  0  0  0  0  0
   13.6123   -3.1349    0.5573 H   0  0  0  0  0  0
   11.9764   -3.8486    0.3548 H   0  0  0  0  0  0
   11.6234   -1.5043    2.8821 H   0  0  0  0  0  0
   11.2879    0.5254   -1.5234 H   0  0  0  0  0  0
    9.7666    1.6338    2.5099 H   0  0  0  0  0  0
    8.7491   -0.4398    3.2523 H   0  0  0  0  0  0
   10.1954   -0.8332    4.2424 H   0  0  0  0  0  0
    8.3578    1.5839    4.6005 H   0  0  0  0  0  0
    8.4179    0.1246    5.6462 H   0  0  0  0  0  0
    9.7618    1.9840    6.6198 H   0  0  0  0  0  0
   10.8054    0.5944    6.1653 H   0  0  0  0  0  0
   10.1417    2.9439    4.4717 H   0  0  0  0  0  0
   12.2314    0.7720    4.0927 H   0  0  0  0  0  0
   12.0797    2.2323    3.0578 H   0  0  0  0  0  0
   12.2787    3.9195    4.6941 H   0  0  0  0  0  0
   11.4490    3.7697    6.2802 H   0  0  0  0  0  0
   12.1869    2.3316    7.9417 H   0  0  0  0  0  0
   14.0965    1.1739    8.9647 H   0  0  0  0  0  0
   15.1601    4.3907    2.9103 H   0  0  0  0  0  0
   16.0931    3.8985    4.3642 H   0  0  0  0  0  0
   14.5313    4.7661    4.5505 H   0  0  0  0  0  0
   15.1234   -0.7779    5.1293 H   0  0  0  0  0  0
   15.4565   -2.6062    3.4842 H   0  0  0  0  0  0
   17.1492   -2.3403    1.6954 H   0  0  0  0  0  0
   18.2466    1.4984    3.2639 H   0  0  0  0  0  0
  1  2  1  0  0  0
  1 36  1  0  0  0
  1 37  1  0  0  0
  1 38  1  0  0  0
  2  3  2  0  0  0
  2  8  1  0  0  0
  3  4  1  0  0  0
  3 39  1  0  0  0
  4  5  1  0  0  0
  4 10  1  0  0  0
  5  6  2  0  0  0
  5  7  1  0  0  0
  7  8  1  0  0  0
  7 40  1  0  0  0
  8  9  2  0  0  0
 10 11  1  0  0  0
 10 15  1  0  0  0
 10 41  1  0  0  0
 11 12  1  0  0  0
 11 42  1  0  0  0
 11 43  1  0  0  0
 12 13  1  0  0  0
 12 44  1  0  0  0
 12 45  1  0  0  0
 13 14  1  0  0  0
 13 46  1  0  0  0
 13 47  1  0  0  0
 14 15  1  0  0  0
 14 16  1  0  0  0
 14 48  1  0  0  0
 15 49  1  0  0  0
 15 50  1  0  0  0
 16 17  1  0  0  0
 16 51  1  0  0  0
 16 52  1  0  0  0
 17 18  2  0  0  0
 17 22  1  0  0  0
 18 19  1  0  0  0
 18 53  1  0  0  0
 19 20  2  0  0  0
 19 54  1  0  0  0
 20 21  1  0  0  0
 20 33  1  0  0  0
 21 22  2  0  0  0
 21 25  1  0  0  0
 22 23  1  0  0  0
 23 24  1  0  0  0
 24 55  1  0  0  0
 24 56  1  0  0  0
 24 57  1  0  0  0
 25 26  1  0  0  0
 26 27  2  0  0  0
 26 31  1  0  0  0
 27 28  1  0  0  0
 27 58  1  0  0  0
 28 29  2  0  0  0
 28 59  1  0  0  0
 29 30  1  0  0  0
 29 60  1  0  0  0
 30 31  2  0  0  0
 30 32  1  0  0  0
 31 61  1  0  0  0
 33 34  1  0  0  0
 33 35  2  0  0  0
M  CHG  2  14   1  34  -1
M  END
> <s_m_source_file>
../4qg7_ligand.sdf

> <i_m_source_file_index>
1

> <s_epik_input>
Tz1jMVtuSF1jKD1PKW4oW2NIXWMxW0NIM10pW0NASF0yW0NIMl1bQ0gyXVtDSDJdW05ASCtdKFtDSDJdMilbQ0gyXWMzW2NIXVtjSF1jKEMoPU8pW09IXSljKGMzT1tDSDNdKU9jNFtjSF1bY0hdW2NIXWMoQ2wpW2NIXTQ=

> <s_epik_cmdline>
J2VwaWtfYXBwJywgJy1pbWFlJywgJ2xpZ2FuZF9wcm8ubWFlJywgJy1vbWFlJywgJ2xpZ2FuZF9wcmVwLm1hZScsICctbXMnLCAnMScsICctcGgnLCAnNycsICctcGh0JywgJzAuNScsICctbnQn

> <r_lp_tautomer_probability>
0.999537046341301

> <r_epik_Ionization_Penalty>
  0.1119

> <r_epik_Ionization_Penalty_Charging>
  0.1119

> <r_epik_Ionization_Penalty_Neutral>
  0.0000

> <r_epik_State_Penalty>
  0.0941

> <r_epik_Charging_Adjusted_Penalty>
0.206042524152311

> <i_epik_Tot_Q>
0

> <i_epik_Tot_abs_Q>
2

$$$$
