4qgd_ligand
                    3D
 Schrodinger Suite 2020-3.
 36 37  0  0  1  0            999 V2000
  -21.9300    6.6380    8.1490 C   0  0  0  0  0  0
  -21.7210    7.7050    7.2110 C   0  0  0  0  0  0
  -21.7500    5.4150    7.4890 N   0  0  0  0  0  0
  -21.1020    7.6690    4.7110 C   0  0  0  0  0  0
  -20.8130    6.8040    3.6610 C   0  0  0  0  0  0
  -20.8440    5.4100    3.7720 C   0  0  0  0  0  0
  -21.1360    4.7640    4.9550 C   0  0  3  0  0  0
  -21.4030    7.0700    5.9250 C   0  0  0  0  0  0
  -21.4500    5.6110    6.1420 C   0  0  0  0  0  0
  -21.7790    9.2270    7.2710 C   0  0  0  0  0  0
  -21.4800    9.9160    8.5330 N   0  0  0  0  0  0
  -21.5830   11.3490    8.2010 C   0  0  0  0  0  0
  -22.3880    9.6390    9.6770 C   0  0  0  0  0  0
  -21.0930    3.2340    5.0400 C   0  0  0  0  0  0
  -20.9820    2.5180    3.6780 C   0  0  0  0  0  0
  -19.6100    1.8560    3.4440 C   0  0  0  0  0  0
  -19.1270    0.9240    4.4870 O   0  0  0  0  0  0
  -22.1865    6.8667    9.1940 H   0  0  0  0  0  0
  -21.1022    8.7655    4.6237 H   0  0  0  0  0  0
  -20.5487    7.2736    2.7021 H   0  0  0  0  0  0
  -20.6302    4.7834    2.8936 H   0  0  0  0  0  0
  -21.0581    9.6499    6.5558 H   0  0  0  0  0  0
  -22.7932    9.5658    7.0129 H   0  0  0  0  0  0
  -20.9182   11.5781    7.3551 H   0  0  0  0  0  0
  -21.2866   11.9497    9.0735 H   0  0  0  0  0  0
  -22.6211   11.5881    7.9267 H   0  0  0  0  0  0
  -22.3279    8.5734    9.9431 H   0  0  0  0  0  0
  -23.4212    9.8885    9.3938 H   0  0  0  0  0  0
  -22.0867   10.2501   10.5406 H   0  0  0  0  0  0
  -20.2213    2.9242    5.6351 H   0  0  0  0  0  0
  -22.0129    2.8674    5.5189 H   0  0  0  0  0  0
  -21.7447    1.7278    3.6160 H   0  0  0  0  0  0
  -21.1403    3.2448    2.8677 H   0  0  0  0  0  0
  -19.6399    1.2691    2.5141 H   0  0  0  0  0  0
  -18.8367    2.6340    3.3618 H   0  0  0  0  0  0
  -18.1541    0.4241    4.3701 H   0  0  0  0  0  0
  1  2  2  0  0  0
  1  3  1  0  0  0
  1 18  1  0  0  0
  2  8  1  0  0  0
  2 10  1  0  0  0
  3  9  2  0  0  0
  4  5  1  0  0  0
  4  8  2  0  0  0
  4 19  1  0  0  0
  5  6  2  0  0  0
  5 20  1  0  0  0
  6  7  1  0  0  0
  6 21  1  0  0  0
  7  9  1  0  0  0
  7 14  1  0  0  0
  8  9  1  0  0  0
 10 11  1  0  0  0
 10 22  1  0  0  0
 10 23  1  0  0  0
 11 12  1  0  0  0
 11 13  1  0  0  0
 12 24  1  0  0  0
 12 25  1  0  0  0
 12 26  1  0  0  0
 13 27  1  0  0  0
 13 28  1  0  0  0
 13 29  1  0  0  0
 14 15  1  0  0  0
 14 30  1  0  0  0
 14 31  1  0  0  0
 15 16  1  0  0  0
 15 32  1  0  0  0
 15 33  1  0  0  0
 16 17  1  0  0  0
 16 34  1  0  0  0
 16 35  1  0  0  0
 17 36  1  0  0  0
M  END
> <s_m_source_file>
../4qgd_ligand.sdf

> <i_m_source_file_index>
1

> <s_epik_input>
W0NIM11bTkgrXShbQ0gzXSlbQ0gyXUMxPVtDSF1OPUMoQzEyKVtDSF0oW0NIXT1bQ0hdW0NIXT0yKVtDSDJdW0NIMl1bQ0gyXVtPSF0=

> <s_epik_cmdline>
J2VwaWtfYXBwJywgJy1pbWFlJywgJ2xpZ2FuZF9wcm8ubWFlJywgJy1vbWFlJywgJ2xpZ2FuZF9wcmVwLm1hZScsICctbXMnLCAnMScsICctcGgnLCAnNycsICctcGh0JywgJzAuNScsICctbnQn

> <r_lp_tautomer_probability>
1

> <r_epik_Ionization_Penalty>
  0.0064

> <r_epik_Ionization_Penalty_Charging>
  0.0000

> <r_epik_Ionization_Penalty_Neutral>
  0.0064

> <r_epik_State_Penalty>
 -0.0000

> <r_epik_Charging_Adjusted_Penalty>
0

> <i_epik_Tot_Q>
0

> <i_epik_Tot_abs_Q>
0

> <s_epik_Chemistry_Notes>
This compound has an imine and may undergo hydrolysis.

$$$$
