4qge_ligand
                    3D
 Schrodinger Suite 2020-3.
 53 56  0  0  1  0            999 V2000
   78.7560   49.2720   40.1010 C   0  0  0  0  0  0
   79.6020   49.4750   38.8560 C   0  0  0  0  0  0
   80.8530   50.0410   39.5060 C   0  0  0  0  0  0
   80.2960   51.0850   40.4650 C   0  0  0  0  0  0
   78.8440   50.6760   40.6740 C   0  0  0  0  0  0
   78.4010   50.7780   42.0820 N   0  0  0  0  0  0
   77.3230   51.4570   42.4690 C   0  0  0  0  0  0
   76.3960   52.1640   41.8080 N   0  0  0  0  0  0
   78.9370   50.3240   42.9720 N   0  0  0  0  0  0
   78.3250   50.6240   44.1170 C   0  0  0  0  0  0
   77.2670   51.3610   43.7920 C   0  0  0  0  0  0
   76.2940   51.9670   44.4650 C   0  0  0  0  0  0
   76.4440   52.0520   45.8150 O   0  0  0  0  0  0
   75.3550   52.6750   43.8170 N   0  0  0  0  0  0
   75.4090   52.7730   42.4810 C   0  0  0  0  0  0
   74.5580   53.5660   41.8340 N   0  0  0  0  0  0
   74.6610   53.8040   40.3870 C   0  0  2  0  0  0
   73.7390   54.9540   39.9740 C   0  0  0  0  0  0
   74.2790   52.5340   39.6230 C   0  0  0  0  0  0
   73.1090   52.1530   39.6020 O   0  0  0  0  0  0
   75.2670   52.0470   38.8570 N   0  0  0  0  0  0
   75.0960   50.9380   38.1380 C   0  0  0  0  0  0
   76.1610   50.4660   37.3780 C   0  0  0  0  0  0
   76.0420   49.2860   36.6530 C   0  0  0  0  0  0
   74.8540   48.5630   36.6800 C   0  0  0  0  0  0
   74.7510   47.4210   35.9470 O   0  0  0  0  0  0
   73.4740   46.7970   36.1090 C   0  0  0  0  0  0
   73.7810   49.0430   37.4250 C   0  0  0  0  0  0
   73.9000   50.2270   38.1450 C   0  0  0  0  0  0
   77.7421   48.9613   39.8087 H   0  0  0  0  0  0
   79.2109   48.4930   40.7305 H   0  0  0  0  0  0
   79.7497   48.5087   38.3515 H   0  0  0  0  0  0
   79.0902   50.1701   38.1742 H   0  0  0  0  0  0
   81.3934   49.2353   40.0245 H   0  0  0  0  0  0
   81.5016   50.4792   38.7331 H   0  0  0  0  0  0
   80.8677   51.0619   41.4045 H   0  0  0  0  0  0
   80.3793   52.0828   40.0095 H   0  0  0  0  0  0
   78.1343   51.3642   40.1916 H   0  0  0  0  0  0
   78.6306   50.3250   45.1197 H   0  0  0  0  0  0
   74.5505   53.1684   44.3822 H   0  0  0  0  0  0
   73.7594   54.0499   42.4155 H   0  0  0  0  0  0
   75.7091   54.0707   40.1859 H   0  0  0  0  0  0
   74.0179   55.8638   40.5258 H   0  0  0  0  0  0
   72.6967   54.6896   40.2057 H   0  0  0  0  0  0
   73.8399   55.1350   38.8937 H   0  0  0  0  0  0
   76.2368   52.5645   38.8155 H   0  0  0  0  0  0
   77.0960   51.0256   37.3507 H   0  0  0  0  0  0
   76.8832   48.9257   36.0608 H   0  0  0  0  0  0
   73.4339   45.8809   35.5014 H   0  0  0  0  0  0
   72.6838   47.4888   35.7820 H   0  0  0  0  0  0
   73.3225   46.5415   37.1681 H   0  0  0  0  0  0
   72.8428   48.4884   37.4443 H   0  0  0  0  0  0
   73.0513   50.6001   38.7182 H   0  0  0  0  0  0
  1  2  1  0  0  0
  1  5  1  0  0  0
  1 30  1  0  0  0
  1 31  1  0  0  0
  2  3  1  0  0  0
  2 32  1  0  0  0
  2 33  1  0  0  0
  3  4  1  0  0  0
  3 34  1  0  0  0
  3 35  1  0  0  0
  4  5  1  0  0  0
  4 36  1  0  0  0
  4 37  1  0  0  0
  5  6  1  0  0  0
  5 38  1  0  0  0
  6  7  1  0  0  0
  6  9  1  0  0  0
  7  8  1  0  0  0
  7 11  2  0  0  0
  8 15  2  0  0  0
  9 10  2  0  0  0
 10 11  1  0  0  0
 10 39  1  0  0  0
 11 12  1  0  0  0
 12 13  2  0  0  0
 12 14  1  0  0  0
 14 15  1  0  0  0
 14 40  1  0  0  0
 15 16  1  0  0  0
 16 17  1  0  0  0
 16 41  1  0  0  0
 17 18  1  0  0  0
 17 19  1  0  0  0
 17 42  1  0  0  0
 18 43  1  0  0  0
 18 44  1  0  0  0
 18 45  1  0  0  0
 19 20  2  0  0  0
 19 21  1  0  0  0
 21 22  1  0  0  0
 21 46  1  0  0  0
 22 23  2  0  0  0
 22 29  1  0  0  0
 23 24  1  0  0  0
 23 47  1  0  0  0
 24 25  2  0  0  0
 24 48  1  0  0  0
 25 26  1  0  0  0
 25 28  1  0  0  0
 26 27  1  0  0  0
 27 49  1  0  0  0
 27 50  1  0  0  0
 27 51  1  0  0  0
 28 29  2  0  0  0
 28 52  1  0  0  0
 29 53  1  0  0  0
M  END
> <s_m_source_file>
../4qge_ligand.sdf

> <i_m_source_file_index>
1

> <s_epik_input>
W0NIMl0xW0NIMl1bQ0gyXVtDSDJdW0NIXTFuMm5bY0hdYyhjMjMpYyg9TylbbkhdYyhuMylbTkhdW0NASF0oW0NIM10pQyg9TylbTkhdYzRbY0hdW2NIXWMoT1tDSDNdKVtjSF1bY0hdNA==

> <s_epik_cmdline>
J2VwaWtfYXBwJywgJy1pbWFlJywgJ2xpZ2FuZF9wcm8ubWFlJywgJy1vbWFlJywgJ2xpZ2FuZF9wcmVwLm1hZScsICctbXMnLCAnMScsICctcGgnLCAnNycsICctcGh0JywgJzAuNScsICctbnQn

> <r_lp_tautomer_probability>
1

> <r_epik_Ionization_Penalty>
  0.0010

> <r_epik_Ionization_Penalty_Charging>
  0.0008

> <r_epik_Ionization_Penalty_Neutral>
  0.0001

> <r_epik_State_Penalty>
 -0.0000

> <r_epik_Charging_Adjusted_Penalty>
0.000849127829614485

> <i_epik_Tot_Q>
0

> <i_epik_Tot_abs_Q>
0

$$$$
