4qgg_ligand
                    3D
 Schrodinger Suite 2020-3.
 69 72  0  0  1  0            999 V2000
   13.3220   -3.2130    1.2540 C   0  0  0  0  0  0
   12.7760   -1.8340    1.0680 C   0  0  0  0  0  0
   12.3460   -1.0720    2.0860 C   0  0  0  0  0  0
   11.8420    0.2070    1.9560 N   0  0  0  0  0  0
   11.7590    0.8120    0.7060 C   0  0  0  0  0  0
   11.3710    1.9670    0.5520 O   0  0  0  0  0  0
   12.1750    0.0290   -0.3620 N   0  0  0  0  0  0
   12.6740   -1.2700   -0.2890 C   0  0  0  0  0  0
   13.0480   -1.9020   -1.2640 O   0  0  0  0  0  0
   11.4590    0.9710    3.1450 C   0  0  1  0  0  0
   10.5560    0.1750    4.0980 C   0  0  0  0  0  0
   10.2130    1.0270    5.3150 C   0  0  0  0  0  0
   11.4900    1.4920    6.0070 C   0  0  0  0  0  0
   12.2580    2.3070    5.0050 N   0  3  2  0  0  0
   12.7170    1.4340    3.8780 C   0  0  0  0  0  0
   13.3370    3.1470    5.6550 C   0  0  2  0  0  0
   13.7580    4.3010    4.7240 C   0  0  0  0  0  0
   14.9070    5.2130    5.1420 C   0  0  0  0  0  0
   14.6420    6.0000    6.4120 C   0  0  0  0  0  0
   15.3080    6.1370    4.0070 C   0  0  0  0  0  0
   14.5200    2.3670    6.1820 C   0  0  0  0  0  0
   14.4270    2.0780    7.5300 C   0  0  0  0  0  0
   15.4210    1.3950    8.1860 C   0  0  0  0  0  0
   16.5370    0.9840    7.4980 C   0  0  0  0  0  0
   16.6630    1.2870    6.1500 C   0  0  0  0  0  0
   15.6670    1.9730    5.4960 C   0  0  0  0  0  0
   15.8550    2.2620    4.1960 F   0  0  0  0  0  0
   17.8330    0.9530    5.4960 O   0  0  0  0  0  0
   17.7990    0.0470    4.4380 C   0  0  0  0  0  0
   16.9240   -1.0200    4.4050 C   0  0  0  0  0  0
   16.9420   -1.9020    3.3360 C   0  0  0  0  0  0
   17.8540   -1.7100    2.3160 C   0  0  0  0  0  0
   18.7180   -0.6270    2.3520 C   0  0  0  0  0  0
   18.6990    0.2630    3.4150 C   0  0  0  0  0  0
   17.5610    0.2470    8.2340 C   0  0  0  0  0  0
   17.9090   -0.8560    7.7270 O   0  0  0  0  0  0
   17.9900    0.7750    9.3010 O   0  5  0  0  0  0
   19.8390   -0.3650    1.0660 Cl  0  0  0  0  0  0
   13.3237   -3.4653    2.3247 H   0  0  0  0  0  0
   14.3502   -3.2557    0.8655 H   0  0  0  0  0  0
   12.6938   -3.9327    0.7087 H   0  0  0  0  0  0
   12.3986   -1.4941    3.0896 H   0  0  0  0  0  0
   12.1264    0.4259   -1.3867 H   0  0  0  0  0  0
   10.8843    1.8253    2.7579 H   0  0  0  0  0  0
    9.6288   -0.1048    3.5764 H   0  0  0  0  0  0
   11.0807   -0.7343    4.4264 H   0  0  0  0  0  0
    9.6350    1.9067    4.9956 H   0  0  0  0  0  0
    9.6155    0.4327    6.0220 H   0  0  0  0  0  0
   11.2301    2.0997    6.8863 H   0  0  0  0  0  0
   12.0739    0.6161    6.3263 H   0  0  0  0  0  0
   11.5858    3.0473    4.5467 H   0  0  0  0  0  0
   13.2635    0.5581    4.2576 H   0  0  0  0  0  0
   13.3602    1.9949    3.1840 H   0  0  0  0  0  0
   12.8810    3.5518    6.5705 H   0  0  0  0  0  0
   14.0725    3.8922    3.7524 H   0  0  0  0  0  0
   12.9072    4.9825    4.5769 H   0  0  0  0  0  0
   15.7506    4.5476    5.3777 H   0  0  0  0  0  0
   14.3537    5.3092    7.2180 H   0  0  0  0  0  0
   13.8273    6.7177    6.2353 H   0  0  0  0  0  0
   15.5529    6.5436    6.7033 H   0  0  0  0  0  0
   15.4942    5.5437    3.0996 H   0  0  0  0  0  0
   16.2230    6.6815    4.2833 H   0  0  0  0  0  0
   14.4975    6.8555    3.8154 H   0  0  0  0  0  0
   13.5453    2.3993    8.0846 H   0  0  0  0  0  0
   15.3250    1.1793    9.2501 H   0  0  0  0  0  0
   16.2174   -1.1693    5.2214 H   0  0  0  0  0  0
   16.2439   -2.7384    3.3004 H   0  0  0  0  0  0
   17.8940   -2.4110    1.4822 H   0  0  0  0  0  0
   19.3796    1.1139    3.4418 H   0  0  0  0  0  0
  1  2  1  0  0  0
  1 39  1  0  0  0
  1 40  1  0  0  0
  1 41  1  0  0  0
  2  3  2  0  0  0
  2  8  1  0  0  0
  3  4  1  0  0  0
  3 42  1  0  0  0
  4  5  1  0  0  0
  4 10  1  0  0  0
  5  6  2  0  0  0
  5  7  1  0  0  0
  7  8  1  0  0  0
  7 43  1  0  0  0
  8  9  2  0  0  0
 10 11  1  0  0  0
 10 15  1  0  0  0
 10 44  1  0  0  0
 11 12  1  0  0  0
 11 45  1  0  0  0
 11 46  1  0  0  0
 12 13  1  0  0  0
 12 47  1  0  0  0
 12 48  1  0  0  0
 13 14  1  0  0  0
 13 49  1  0  0  0
 13 50  1  0  0  0
 14 15  1  0  0  0
 14 16  1  0  0  0
 14 51  1  0  0  0
 15 52  1  0  0  0
 15 53  1  0  0  0
 16 17  1  0  0  0
 16 21  1  0  0  0
 16 54  1  0  0  0
 17 18  1  0  0  0
 17 55  1  0  0  0
 17 56  1  0  0  0
 18 19  1  0  0  0
 18 20  1  0  0  0
 18 57  1  0  0  0
 19 58  1  0  0  0
 19 59  1  0  0  0
 19 60  1  0  0  0
 20 61  1  0  0  0
 20 62  1  0  0  0
 20 63  1  0  0  0
 21 22  2  0  0  0
 21 26  1  0  0  0
 22 23  1  0  0  0
 22 64  1  0  0  0
 23 24  2  0  0  0
 23 65  1  0  0  0
 24 25  1  0  0  0
 24 35  1  0  0  0
 25 26  2  0  0  0
 25 28  1  0  0  0
 26 27  1  0  0  0
 28 29  1  0  0  0
 29 30  2  0  0  0
 29 34  1  0  0  0
 30 31  1  0  0  0
 30 66  1  0  0  0
 31 32  2  0  0  0
 31 67  1  0  0  0
 32 33  1  0  0  0
 32 68  1  0  0  0
 33 34  2  0  0  0
 33 38  1  0  0  0
 34 69  1  0  0  0
 35 36  2  0  0  0
 35 37  1  0  0  0
M  CHG  2  14   1  37  -1
M  END
> <s_m_source_file>
../4qgg_ligand.sdf

> <i_m_source_file_index>
1

> <s_epik_input>
Tz1jMVtuSF1jKD1PKW4oW2NIXWMxW0NIM10pW0NASF0yW0NIMl1bQ0gyXVtDSDJdW05ASCtdKFtDSDJdMilbQ0BIXShbQ0gyXVtDSF0oW0NIM10pW0NIM10pYzNbY0hdW2NIXWMoQyg9TylbT0hdKWMoYzNGKU9jNFtjSF1bY0hdW2NIXWMoQ2wpW2NIXTQ=

> <s_epik_cmdline>
J2VwaWtfYXBwJywgJy1pbWFlJywgJ2xpZ2FuZF9wcm8ubWFlJywgJy1vbWFlJywgJ2xpZ2FuZF9wcmVwLm1hZScsICctbXMnLCAnMScsICctcGgnLCAnNycsICctcGh0JywgJzAuNScsICctbnQn

> <r_lp_tautomer_probability>
0.999537046341301

> <r_epik_Ionization_Penalty>
  0.1006

> <r_epik_Ionization_Penalty_Charging>
  0.1006

> <r_epik_Ionization_Penalty_Neutral>
  0.0000

> <r_epik_State_Penalty>
  0.0833

> <r_epik_Charging_Adjusted_Penalty>
0.183886709116508

> <i_epik_Tot_Q>
0

> <i_epik_Tot_abs_Q>
2

$$$$
