4qgh_ligand
                    3D
 Schrodinger Suite 2020-3.
 69 72  0  0  1  0            999 V2000
   15.9880   -2.0650    3.1700 C   0  0  0  0  0  0
   14.4520    0.9130    8.1210 C   0  0  0  0  0  0
   13.4400    1.6810    7.5640 C   0  0  0  0  0  0
   15.9240   -1.1540    4.2120 C   0  0  0  0  0  0
   16.9300   -1.8830    2.1680 C   0  0  0  0  0  0
   17.7050    0.1350    3.2640 C   0  0  0  0  0  0
   15.5810    0.6340    7.3740 C   0  0  0  0  0  0
   13.5180    2.1530    6.2540 C   0  0  0  0  0  0
   16.7820   -0.0750    4.2680 C   0  0  0  0  0  0
   15.6620    1.0740    6.0640 C   0  0  0  0  0  0
   14.6480    1.8390    5.5220 C   0  0  0  0  0  0
   17.7520   -0.7730    2.2230 C   0  0  0  0  0  0
   11.4530   -1.1250    2.1470 C   0  0  0  0  0  0
   11.8380   -1.8750    1.0970 C   0  0  0  0  0  0
   11.6200   -1.2910   -0.2490 C   0  0  0  0  0  0
   10.7320    0.7630    0.8240 C   0  0  0  0  0  0
   16.6700   -0.1790    7.9520 C   0  0  0  0  0  0
    9.2760    0.8880    5.4350 C   0  0  0  0  0  0
    9.6520    0.0570    4.2160 C   0  0  0  0  0  0
   10.5610    1.4200    6.0440 C   0  0  0  0  0  0
   11.7010    1.4900    3.9190 C   0  0  0  0  0  0
   10.4820    0.8870    3.2300 C   0  0  1  0  0  0
   12.4410   -3.2430    1.2310 C   0  0  0  0  0  0
   13.7670    5.7860    5.6120 C   0  0  0  0  0  0
   12.5230    6.2930    7.6950 C   0  0  0  0  0  0
   12.0180    4.1740    6.5160 C   0  0  0  0  0  0
   12.4480    3.0180    5.5960 C   0  0  2  0  0  0
   13.1070    5.1850    6.8390 C   0  0  0  0  0  0
   11.0880   -0.0030   -0.2680 N   0  0  0  0  0  0
   10.8910    0.1360    2.0440 N   0  0  0  0  0  0
   11.2670    2.2820    5.0730 N   0  3  2  0  0  0
   11.8990   -1.8990   -1.2820 O   0  0  0  0  0  0
   10.3320    1.9200    0.7080 O   0  0  0  0  0  0
   17.1640   -1.1550    7.4100 O   0  0  0  0  0  0
   17.0350    0.3170    9.1620 O   0  5  0  0  0  0
   16.7900    0.8660    5.3030 O   0  0  0  0  0  0
   14.8020    2.2760    4.2480 F   0  0  0  0  0  0
   18.8980   -0.4940    0.9790 Cl  0  0  0  0  0  0
   15.3061   -2.9148    3.1379 H   0  0  0  0  0  0
   14.3578    0.5331    9.1383 H   0  0  0  0  0  0
   12.5627    1.9214    8.1646 H   0  0  0  0  0  0
   15.1839   -1.2920    5.0002 H   0  0  0  0  0  0
   17.0202   -2.6013    1.3532 H   0  0  0  0  0  0
   18.3777    0.9923    3.2911 H   0  0  0  0  0  0
   11.5933   -1.5387    3.1456 H   0  0  0  0  0  0
    8.6260    1.7197    5.1255 H   0  0  0  0  0  0
    8.7421    0.2555    6.1595 H   0  0  0  0  0  0
   10.2440   -0.8138    4.5343 H   0  0  0  0  0  0
    8.7376   -0.2864    3.7101 H   0  0  0  0  0  0
   10.3246    2.0085    6.9428 H   0  0  0  0  0  0
   11.2130    0.5776    6.3184 H   0  0  0  0  0  0
   12.3674    0.6830    4.2575 H   0  0  0  0  0  0
   12.2394    2.1374    3.2112 H   0  0  0  0  0  0
    9.8335    1.6817    2.8326 H   0  0  0  0  0  0
   12.5243   -3.5042    2.2963 H   0  0  0  0  0  0
   13.4409   -3.2495    0.7726 H   0  0  0  0  0  0
   11.7996   -3.9778    0.7224 H   0  0  0  0  0  0
   14.5394    6.5037    5.9256 H   0  0  0  0  0  0
   13.0098    6.3040    5.0050 H   0  0  0  0  0  0
   14.2302    4.9860    5.0159 H   0  0  0  0  0  0
   13.3080    7.0266    7.9308 H   0  0  0  0  0  0
   12.1281    5.8657    8.6285 H   0  0  0  0  0  0
   11.7095    6.7901    7.1463 H   0  0  0  0  0  0
   11.2004    4.7360    6.0409 H   0  0  0  0  0  0
   11.6729    3.7679    7.4783 H   0  0  0  0  0  0
   12.9179    3.4045    4.6796 H   0  0  0  0  0  0
   13.8959    4.6414    7.3795 H   0  0  0  0  0  0
   10.9122    0.5054   -1.2275 H   0  0  0  0  0  0
   10.5185    3.0379    4.7930 H   0  0  0  0  0  0
  1  4  2  0  0  0
  1  5  1  0  0  0
  1 39  1  0  0  0
  2  3  2  0  0  0
  2  7  1  0  0  0
  2 40  1  0  0  0
  3  8  1  0  0  0
  3 41  1  0  0  0
  4  9  1  0  0  0
  4 42  1  0  0  0
  5 12  2  0  0  0
  5 43  1  0  0  0
  6  9  2  0  0  0
  6 12  1  0  0  0
  6 44  1  0  0  0
  7 10  2  0  0  0
  7 17  1  0  0  0
  8 11  2  0  0  0
  8 27  1  0  0  0
  9 36  1  0  0  0
 10 11  1  0  0  0
 10 36  1  0  0  0
 11 37  1  0  0  0
 12 38  1  0  0  0
 13 14  2  0  0  0
 13 30  1  0  0  0
 13 45  1  0  0  0
 14 15  1  0  0  0
 14 23  1  0  0  0
 15 29  1  0  0  0
 15 32  2  0  0  0
 16 29  1  0  0  0
 16 30  1  0  0  0
 16 33  2  0  0  0
 17 34  2  0  0  0
 17 35  1  0  0  0
 18 19  1  0  0  0
 18 20  1  0  0  0
 18 46  1  0  0  0
 18 47  1  0  0  0
 19 22  1  0  0  0
 19 48  1  0  0  0
 19 49  1  0  0  0
 20 31  1  0  0  0
 20 50  1  0  0  0
 20 51  1  0  0  0
 21 22  1  0  0  0
 21 31  1  0  0  0
 21 52  1  0  0  0
 21 53  1  0  0  0
 22 30  1  0  0  0
 22 54  1  0  0  0
 23 55  1  0  0  0
 23 56  1  0  0  0
 23 57  1  0  0  0
 24 28  1  0  0  0
 24 58  1  0  0  0
 24 59  1  0  0  0
 24 60  1  0  0  0
 25 28  1  0  0  0
 25 61  1  0  0  0
 25 62  1  0  0  0
 25 63  1  0  0  0
 26 27  1  0  0  0
 26 28  1  0  0  0
 26 64  1  0  0  0
 26 65  1  0  0  0
 27 31  1  0  0  0
 27 66  1  0  0  0
 28 67  1  0  0  0
 29 68  1  0  0  0
 31 69  1  0  0  0
M  CHG  2  31   1  35  -1
M  END
> <s_m_source_file>
../4qgh_ligand.sdf

> <i_m_source_file_index>
1

> <s_epik_input>
W2NIXTFjKENsKVtjSF1bY0hdW2NIXWMxT2MyYyhGKWMoW2NIXVtjSF1jMkMoPU8pW09IXSlbQ0BIXShbQ0gyXVtDSF0oW0NIM10pW0NIM10pW05AQEgrXShbQ0gyXTMpW0NIMl1bQ0gyXVtDSDJdW0NAQEhdM24oW2NIXWM0W0NIM10pYyg9TylbbkhdYzQ9Tw==

> <s_epik_cmdline>
J2VwaWtfYXBwJywgJy1pbWFlJywgJ2xpZ2FuZF9wcm8ubWFlJywgJy1vbWFlJywgJ2xpZ2FuZF9wcmVwLm1hZScsICctbXMnLCAnMScsICctcGgnLCAnNycsICctcGh0JywgJzAuNScsICctbnQn

> <r_lp_tautomer_probability>
0.999537046341301

> <r_epik_Ionization_Penalty>
  0.1006

> <r_epik_Ionization_Penalty_Charging>
  0.1006

> <r_epik_Ionization_Penalty_Neutral>
  0.0000

> <r_epik_State_Penalty>
  0.0833

> <r_epik_Charging_Adjusted_Penalty>
0.183886709116508

> <i_epik_Tot_Q>
0

> <i_epik_Tot_abs_Q>
2

$$$$
