4qgi_ligand
                    3D
 Schrodinger Suite 2020-3.
105109  0  0  1  0            999 V2000
   18.0540   -7.6480  -12.8680 C   0  0  0  0  0  0
   18.0980   -6.7230  -13.6860 O   0  0  0  0  0  0
   19.6820   -9.7140  -11.8010 N   0  5  0  0  0  0
   19.1700   -8.6420  -12.4450 C   0  0  0  0  0  0
   20.3880   -8.0130  -12.6400 C   0  0  0  0  0  0
   21.6420   -8.6630  -12.6740 C   0  0  0  0  0  0
   22.9080  -10.2820  -11.5540 C   0  0  0  0  0  0
   23.1490  -11.2970  -10.6620 C   0  0  0  0  0  0
   21.8430  -11.7360  -10.4170 C   0  0  0  0  0  0
   20.5050  -11.7380  -10.7940 C   0  0  0  0  0  0
   21.6950   -9.9560  -12.1700 C   0  0  0  0  0  0
   20.6060  -10.7150  -11.7310 C   0  0  0  0  0  0
   16.9130   -8.5150  -12.5710 N   0  0  0  0  0  0
   15.5740   -8.0410  -12.9510 C   0  0  2  0  0  0
   14.9790   -8.0250  -11.5500 C   0  0  0  0  0  0
   14.5340   -9.1160  -11.2300 O   0  0  0  0  0  0
   14.9080   -9.0950  -13.7930 C   0  0  0  0  0  0
   15.4000   -8.5090  -15.0970 C   0  0  0  0  0  0
   15.6660   -7.4100  -15.5490 O   0  0  0  0  0  0
   16.1320   -9.3010  -16.0660 N   0  0  0  0  0  0
   13.5950   -5.8570   -9.3840 C   0  0  1  0  0  0
   13.8760   -4.5050   -9.4820 O   0  0  0  0  0  0
   14.6960   -6.9110   -9.3730 C   0  0  1  0  0  0
   15.3610   -6.8670  -10.6910 N   0  0  0  0  0  0
   15.7830   -6.3360   -8.4850 C   0  0  0  0  0  0
   17.1550   -6.9260   -8.6260 C   0  0  2  0  0  0
   17.1000   -8.1260   -7.9340 C   0  0  0  0  0  0
   18.4560   -6.5330   -8.9200 C   0  0  0  0  0  0
   18.0400   -9.1600   -8.0720 C   0  0  0  0  0  0
   19.2360   -7.6480   -9.2320 C   0  0  0  0  0  0
   19.2960   -8.8490   -8.5450 C   0  0  0  0  0  0
   11.7540   -6.9490   -8.6480 N   0  3  1  0  0  0
   12.7170   -5.8960   -8.1480 C   0  0  0  0  0  0
   10.9310   -7.3020   -7.4550 C   0  0  2  0  0  0
   12.0210   -7.8020   -6.4830 C   0  0  0  0  0  0
   12.5780   -8.8450   -6.7780 O   0  0  0  0  0  0
    9.7640   -8.2880   -7.6990 C   0  0  0  0  0  0
    8.4910   -7.9420   -8.5150 C   0  0  2  0  0  0
    7.6780   -9.0590   -9.1460 C   0  0  0  0  0  0
    8.4100  -10.2250   -9.7930 C   0  0  0  0  0  0
    9.1110   -9.5060  -10.9240 C   0  0  0  0  0  0
   10.0420   -8.4350  -10.3830 C   0  0  0  0  0  0
    9.1580   -7.3890   -9.7400 C   0  0  2  0  0  0
   10.4940   -6.6810   -9.4180 C   0  0  0  0  0  0
   11.5420   -7.4610   -5.1210 N   0  0  0  0  0  0
   12.2130   -8.0490   -3.9190 C   0  0  0  0  0  0
   13.6020   -7.4140   -3.9640 C   0  0  0  0  0  0
   12.5450   -9.5270   -3.8700 C   0  0  0  0  0  0
   11.5800   -7.4290   -2.7150 C   0  0  0  0  0  0
   20.4274   -6.9231  -12.7838 H   0  0  0  0  0  0
   21.9886   -8.7369  -13.7154 H   0  0  0  0  0  0
   22.3703   -8.0859  -12.0853 H   0  0  0  0  0  0
   23.7622   -9.6564  -11.8129 H   0  0  0  0  0  0
   24.0939  -11.6598  -10.2574 H   0  0  0  0  0  0
   21.9015  -12.3600   -9.5252 H   0  0  0  0  0  0
   19.6585  -12.3406  -10.4649 H   0  0  0  0  0  0
   17.0318   -9.4924  -12.0804 H   0  0  0  0  0  0
   15.5258   -7.1074  -13.5308 H   0  0  0  0  0  0
   15.3003  -10.0854  -13.5187 H   0  0  0  0  0  0
   13.8219   -9.0702  -13.6202 H   0  0  0  0  0  0
   16.1343  -10.3984  -15.9902 H   0  0  0  0  0  0
   16.6850   -8.8045  -16.8770 H   0  0  0  0  0  0
   13.1623   -6.0794  -10.3705 H   0  0  0  0  0  0
   14.5110   -4.1331  -10.2996 H   0  0  0  0  0  0
   14.3086   -7.9065   -9.1106 H   0  0  0  0  0  0
   16.0457   -6.0411  -10.9343 H   0  0  0  0  0  0
   15.8981   -5.2624   -8.6948 H   0  0  0  0  0  0
   15.5064   -6.4757   -7.4296 H   0  0  0  0  0  0
   17.3881   -6.5245   -9.6232 H   0  0  0  0  0  0
   16.2531   -8.2414   -7.2416 H   0  0  0  0  0  0
   18.4464   -5.8475   -9.7802 H   0  0  0  0  0  0
   18.8904   -6.0215   -8.0484 H   0  0  0  0  0  0
   17.7664  -10.1913   -7.8047 H   0  0  0  0  0  0
   18.9672   -8.0149  -10.2336 H   0  0  0  0  0  0
   20.2995   -7.3672   -9.2176 H   0  0  0  0  0  0
   19.9939   -8.7577   -7.6997 H   0  0  0  0  0  0
   19.6409   -9.6454   -9.2208 H   0  0  0  0  0  0
   12.4602   -7.5594   -9.2300 H   0  0  0  0  0  0
   13.3229   -6.1859   -7.2769 H   0  0  0  0  0  0
   12.2809   -4.9008   -7.9764 H   0  0  0  0  0  0
   10.3588   -6.4329   -7.0983 H   0  0  0  0  0  0
   10.1383   -9.1744   -8.2322 H   0  0  0  0  0  0
    9.3352   -8.5948   -6.7336 H   0  0  0  0  0  0
    7.7958   -7.3807   -7.8735 H   0  0  0  0  0  0
    7.0380   -9.5236   -8.3815 H   0  0  0  0  0  0
    7.0495   -8.6465   -9.9490 H   0  0  0  0  0  0
    9.0946  -10.6794   -9.0616 H   0  0  0  0  0  0
    7.6795  -10.9764  -10.1275 H   0  0  0  0  0  0
    9.7006  -10.2281  -11.5079 H   0  0  0  0  0  0
    8.3631   -9.0310  -11.5759 H   0  0  0  0  0  0
   10.7254   -8.8816   -9.6458 H   0  0  0  0  0  0
   10.6255   -8.0044  -11.2101 H   0  0  0  0  0  0
    8.3063   -6.9003  -10.2358 H   0  0  0  0  0  0
    9.9998   -5.7858   -9.0124 H   0  0  0  0  0  0
   10.7398   -6.5159  -10.4774 H   0  0  0  0  0  0
   10.6918   -6.7744   -4.9955 H   0  0  0  0  0  0
   14.1580   -7.8091   -4.8270 H   0  0  0  0  0  0
   14.1447   -7.6531   -3.0375 H   0  0  0  0  0  0
   13.5033   -6.3226   -4.0599 H   0  0  0  0  0  0
   13.0018   -9.8320   -4.8230 H   0  0  0  0  0  0
   11.6236  -10.1044   -3.7037 H   0  0  0  0  0  0
   13.2505   -9.7172   -3.0477 H   0  0  0  0  0  0
   11.4018   -6.3601   -2.9039 H   0  0  0  0  0  0
   12.2496   -7.5418   -1.8496 H   0  0  0  0  0  0
   10.6228   -7.9289   -2.5056 H   0  0  0  0  0  0
  1  2  2  0  0  0
  1  4  1  0  0  0
  1 13  1  0  0  0
  3  4  1  0  0  0
  3 12  1  0  0  0
  4  5  2  0  0  0
  5  6  1  0  0  0
  5 50  1  0  0  0
  6 11  1  0  0  0
  6 51  1  0  0  0
  6 52  1  0  0  0
  7  8  2  0  0  0
  7 11  1  0  0  0
  7 53  1  0  0  0
  8  9  1  0  0  0
  8 54  1  0  0  0
  9 10  2  0  0  0
  9 55  1  0  0  0
 10 12  1  0  0  0
 10 56  1  0  0  0
 11 12  2  0  0  0
 13 14  1  0  0  0
 13 57  1  0  0  0
 14 15  1  0  0  0
 14 17  1  0  0  0
 14 58  1  0  0  0
 15 16  2  0  0  0
 15 24  1  0  0  0
 17 18  1  0  0  0
 17 59  1  0  0  0
 17 60  1  0  0  0
 18 19  2  0  0  0
 18 20  1  0  0  0
 20 61  1  0  0  0
 20 62  1  0  0  0
 21 22  1  0  0  0
 21 23  1  0  0  0
 21 33  1  0  0  0
 21 63  1  0  0  0
 22 64  1  0  0  0
 23 24  1  0  0  0
 23 25  1  0  0  0
 23 65  1  0  0  0
 24 66  1  0  0  0
 25 26  1  0  0  0
 25 67  1  0  0  0
 25 68  1  0  0  0
 26 27  1  0  0  0
 26 28  1  0  0  0
 26 69  1  0  0  0
 27 29  2  0  0  0
 27 70  1  0  0  0
 28 30  1  0  0  0
 28 71  1  0  0  0
 28 72  1  0  0  0
 29 31  1  0  0  0
 29 73  1  0  0  0
 30 31  1  0  0  0
 30 74  1  0  0  0
 30 75  1  0  0  0
 31 76  1  0  0  0
 31 77  1  0  0  0
 32 33  1  0  0  0
 32 34  1  0  0  0
 32 44  1  0  0  0
 32 78  1  0  0  0
 33 79  1  0  0  0
 33 80  1  0  0  0
 34 35  1  0  0  0
 34 37  1  0  0  0
 34 81  1  0  0  0
 35 36  2  0  0  0
 35 45  1  0  0  0
 37 38  1  0  0  0
 37 82  1  0  0  0
 37 83  1  0  0  0
 38 39  1  0  0  0
 38 43  1  0  0  0
 38 84  1  0  0  0
 39 40  1  0  0  0
 39 85  1  0  0  0
 39 86  1  0  0  0
 40 41  1  0  0  0
 40 87  1  0  0  0
 40 88  1  0  0  0
 41 42  1  0  0  0
 41 89  1  0  0  0
 41 90  1  0  0  0
 42 43  1  0  0  0
 42 91  1  0  0  0
 42 92  1  0  0  0
 43 44  1  0  0  0
 43 93  1  0  0  0
 44 94  1  0  0  0
 44 95  1  0  0  0
 45 46  1  0  0  0
 45 96  1  0  0  0
 46 47  1  0  0  0
 46 48  1  0  0  0
 46 49  1  0  0  0
 47 97  1  0  0  0
 47 98  1  0  0  0
 47 99  1  0  0  0
 48100  1  0  0  0
 48101  1  0  0  0
 48102  1  0  0  0
 49103  1  0  0  0
 49104  1  0  0  0
 49105  1  0  0  0
M  CHG  2   3  -1  32   1
M  END
> <s_m_source_file>
../4qgi_ligand.sdf

> <i_m_source_file_index>
1

> <s_epik_input>
W2NIXTFbY0hdW2NIXVtjSF1jKGMxMilbTkhdQyg9W0NIXVtDSDJdMilDKD1PKVtOSF1bQ0BASF0oW0NIMl1DKD1PKVtOSDJdKUMoPU8pW05IXVtDQEBIXShbQ0gyXVtDQEBIXTNbQ0hdPVtDSF1bQ0gyXVtDSDJdW0NIMl0zKVtDQEhdKFtPSF0pW0NIMl1bTkBASCtdKFtDQEBIXShbQ0gyXTQpQyg9TylbTkhdQyhbQ0gzXSkoW0NIM10pW0NIM10pW0NIMl1bQ0BIXShbQ0BIXTQ1KVtDSDJdW0NIMl1bQ0gyXVtDSDJdNQ==

> <s_epik_cmdline>
J2VwaWtfYXBwJywgJy1pbWFlJywgJ2xpZ2FuZF9wcm8ubWFlJywgJy1vbWFlJywgJ2xpZ2FuZF9wcmVwLm1hZScsICctbXMnLCAnMScsICctcGgnLCAnNycsICctcGh0JywgJzAuNScsICctbnQn

> <r_lp_tautomer_probability>
1

> <r_epik_Ionization_Penalty>
  0.0413

> <r_epik_Ionization_Penalty_Charging>
  0.0150

> <r_epik_Ionization_Penalty_Neutral>
  0.0263

> <r_epik_State_Penalty>
 -0.0000

> <r_epik_Charging_Adjusted_Penalty>
0.0150053119477834

> <i_epik_Tot_Q>
0

> <i_epik_Tot_abs_Q>
2

> <s_epik_Chemistry_Notes>
This compound has an imine and may undergo hydrolysis.

$$$$
