4qh7_ligand
                    3D
 Schrodinger Suite 2020-3.
168169  0  0  1  0            999 V2000
  -26.1200  -25.2110   10.0410 N   0  3  0  0  0  0
  -26.8090  -23.9550   10.3250 C   0  0  2  0  0  0
  -25.8110  -22.8500   10.6790 C   0  0  0  0  0  0
  -25.1520  -22.9130   11.7200 O   0  0  0  0  0  0
  -27.8180  -24.1490   11.4550 C   0  0  0  0  0  0
  -25.7000  -21.8480    9.8040 N   0  0  0  0  0  0
  -24.7430  -20.7600    9.9860 C   0  0  2  0  0  0
  -25.4270  -19.4050   10.0640 C   0  0  0  0  0  0
  -24.8110  -18.3840    9.7350 O   0  0  0  0  0  0
  -23.7510  -20.7050    8.8220 C   0  0  0  0  0  0
  -23.0640  -22.0060    8.5180 C   0  0  0  0  0  0
  -22.3160  -22.6540    9.4860 C   0  0  0  0  0  0
  -23.1380  -22.5740    7.2460 C   0  0  0  0  0  0
  -21.6750  -23.8370    9.2140 C   0  0  0  0  0  0
  -22.4960  -23.7610    6.9600 C   0  0  0  0  0  0
  -21.7670  -24.3880    7.9500 C   0  0  0  0  0  0
  -21.1180  -25.5750    7.6970 O   0  0  0  0  0  0
  -26.6840  -19.3780   10.4970 N   0  0  0  0  0  0
  -27.4340  -18.1190   10.4730 C   0  0  2  0  0  0
  -27.8800  -17.6230   11.8480 C   0  0  0  0  0  0
  -28.0490  -18.4010   12.7870 O   0  0  0  0  0  0
  -28.6410  -18.1760    9.5030 C   0  0  2  0  0  0
  -29.5850  -19.1520    9.9500 O   0  0  0  0  0  0
  -28.1760  -18.5220    8.0810 C   0  0  0  0  0  0
  -28.0570  -16.3090   11.9480 N   0  0  0  0  0  0
  -28.5270  -15.6640   13.1780 C   0  0  2  0  0  0
  -29.3030  -14.4180   12.7700 C   0  0  0  0  0  0
  -29.1170  -13.9070   11.6730 O   0  0  0  0  0  0
  -27.3460  -15.3000   14.1230 C   0  0  2  0  0  0
  -27.8390  -14.9220   15.5250 C   0  0  0  0  0  0
  -26.4810  -14.1800   13.5440 C   0  0  0  0  0  0
  -28.4530  -16.0890   16.2670 C   0  0  0  0  0  0
  -30.1880  -13.9430   13.6370 N   0  0  0  0  0  0
  -30.9440  -12.7300   13.3530 C   0  0  2  0  0  0
  -30.2540  -11.5070   13.9510 C   0  0  0  0  0  0
  -29.5920  -11.6010   14.9880 O   0  0  0  0  0  0
  -32.3540  -12.8520   13.9300 C   0  0  0  0  0  0
  -33.3320  -14.1610   13.1900 S   0  0  0  0  0  0
  -30.4000  -10.3630   13.2900 N   0  0  0  0  0  0
  -29.8870   -9.0960   13.8210 C   0  0  2  0  0  0
  -30.7990   -7.9660   13.3970 C   0  0  0  0  0  0
  -31.4440   -8.0500   12.3520 O   0  0  0  0  0  0
  -28.4640   -8.8230   13.3350 C   0  0  0  0  0  0
  -30.8380   -6.9080   14.2020 N   0  0  0  0  0  0
  -31.6130   -5.7260   13.8610 C   0  0  0  0  0  0
  -30.7670   -4.4670   13.8020 C   0  0  0  0  0  0
  -29.7260   -4.3990   14.4520 O   0  0  0  0  0  0
  -31.1970   -3.4710   13.0240 N   0  0  0  0  0  0
  -30.4910   -2.1850   12.9700 C   0  0  2  0  0  0
  -31.4710   -1.0290   13.0970 C   0  0  0  0  0  0
  -32.6540   -1.1740   12.7770 O   0  0  0  0  0  0
  -29.6710   -1.9880   11.6740 C   0  0  2  0  0  0
  -30.5520   -1.8570   10.5520 O   0  0  0  0  0  0
  -28.7130   -3.1510   11.4380 C   0  0  0  0  0  0
  -30.9720    0.1150   13.5590 N   0  0  0  0  0  0
  -31.7720    1.3250   13.6650 C   0  0  2  0  0  0
  -30.8680    2.5010   13.3140 C   0  0  0  0  0  0
  -29.7390    2.5700   13.8020 O   0  0  0  0  0  0
  -32.2990    1.4650   15.1030 C   0  0  0  0  0  0
  -33.1040    2.7360   15.3780 C   0  0  0  0  0  0
  -34.4540    2.7680   14.6790 C   0  0  0  0  0  0
  -34.9920    1.7340   14.2690 O   0  0  0  0  0  0
  -35.0150    3.9700   14.5420 N   0  0  0  0  0  0
  -31.3400    3.4140   12.4660 N   0  0  0  0  0  0
  -30.5700    4.6180   12.1450 C   0  0  2  0  0  0
  -30.6100    5.5890   13.3250 C   0  0  0  0  0  0
  -31.5480    5.5560   14.1270 O   0  0  0  0  0  0
  -31.0860    5.3320   10.8610 C   0  0  2  0  0  0
  -32.5200    5.3750   10.8790 O   0  0  0  0  0  0
  -30.6150    4.5940    9.5730 C   0  0  0  0  0  0
  -29.5850    6.4330   13.4270 N   0  0  0  0  0  0
  -29.4950    7.4300   14.4920 C   0  0  2  0  0  0
  -30.5790    8.4880   14.3070 C   0  0  0  0  0  0
  -31.0600    8.6860   13.1900 O   0  0  0  0  0  0
  -28.1090    8.0870   14.4580 C   0  0  0  0  0  0
  -27.0180    7.1620   14.9400 C   0  0  0  0  0  0
  -27.3490    6.1750   15.6250 O   0  0  0  0  0  0
  -25.8350    7.4350   14.6430 O   0  0  0  0  0  0
  -30.9670    9.1720   15.4030 N   0  0  0  0  0  0
  -32.0550   10.1620   15.3740 C   0  0  2  0  0  0
  -31.8220   11.2770   14.3550 C   0  0  0  0  0  0
  -30.6840   11.6920   14.1140 O   0  0  0  0  0  0
  -32.0380   10.7540   16.7900 C   0  0  0  0  0  0
  -31.4030    9.7300   17.6400 C   0  0  0  0  0  0
  -30.4210    8.9860   16.7600 C   0  0  0  0  0  0
  -32.7680   11.7880   13.7460 O   0  0  0  0  0  0
  -25.3973  -25.0566    9.2262 H   0  0  0  0  0  0
  -26.8547  -25.9723    9.7401 H   0  0  0  0  0  0
  -25.5891  -25.5500   10.9428 H   0  0  0  0  0  0
  -27.3339  -23.6879    9.3960 H   0  0  0  0  0  0
  -28.5254  -24.9459   11.1821 H   0  0  0  0  0  0
  -28.3683  -23.2110   11.6202 H   0  0  0  0  0  0
  -27.2870  -24.4298   12.3765 H   0  0  0  0  0  0
  -26.3591  -21.8592    8.9234 H   0  0  0  0  0  0
  -24.2542  -21.0025   10.9411 H   0  0  0  0  0  0
  -24.2781  -20.4029    7.9050 H   0  0  0  0  0  0
  -22.9605  -19.9743    9.0481 H   0  0  0  0  0  0
  -22.2346  -22.2173   10.4814 H   0  0  0  0  0  0
  -23.7116  -22.0725    6.4666 H   0  0  0  0  0  0
  -21.0970  -24.3386    9.9902 H   0  0  0  0  0  0
  -22.5637  -24.1985    5.9640 H   0  0  0  0  0  0
  -20.5397  -26.0663    8.4934 H   0  0  0  0  0  0
  -27.1612  -20.2954   10.8721 H   0  0  0  0  0  0
  -26.6658  -17.4214   10.1080 H   0  0  0  0  0  0
  -29.1897  -17.2226    9.5068 H   0  0  0  0  0  0
  -30.0303  -19.0679   10.9523 H   0  0  0  0  0  0
  -27.4498  -17.7696    7.7395 H   0  0  0  0  0  0
  -29.0426  -18.5293    7.4035 H   0  0  0  0  0  0
  -27.7025  -19.5149    8.0815 H   0  0  0  0  0  0
  -27.8353  -15.7012   11.0584 H   0  0  0  0  0  0
  -29.1793  -16.3834   13.6946 H   0  0  0  0  0  0
  -26.7096  -16.1921   14.2190 H   0  0  0  0  0  0
  -26.9936  -14.5516   16.1234 H   0  0  0  0  0  0
  -28.6040  -14.1356   15.4451 H   0  0  0  0  0  0
  -26.1354  -14.4656   12.5395 H   0  0  0  0  0  0
  -25.6118  -14.0131   14.1971 H   0  0  0  0  0  0
  -27.0735  -13.2555   13.4788 H   0  0  0  0  0  0
  -28.7861  -15.7569   17.2614 H   0  0  0  0  0  0
  -27.7044  -16.8872   16.3787 H   0  0  0  0  0  0
  -29.3148  -16.4713   15.7003 H   0  0  0  0  0  0
  -30.3466  -14.4810   14.5833 H   0  0  0  0  0  0
  -30.9711  -12.6458   12.2566 H   0  0  0  0  0  0
  -32.2921  -13.0619   15.0080 H   0  0  0  0  0  0
  -32.8983  -11.9095   13.7706 H   0  0  0  0  0  0
  -34.3629  -14.3372   13.5309 H   0  0  0  0  0  0
  -30.9210  -10.3827   12.3214 H   0  0  0  0  0  0
  -29.8855   -9.1994   14.9161 H   0  0  0  0  0  0
  -27.8058   -9.6476   13.6461 H   0  0  0  0  0  0
  -28.1021   -7.8803   13.7713 H   0  0  0  0  0  0
  -28.4600   -8.7446   12.2378 H   0  0  0  0  0  0
  -30.2681   -6.9396   15.1423 H   0  0  0  0  0  0
  -32.0789   -5.8651   12.8743 H   0  0  0  0  0  0
  -32.3962   -5.5702   14.6175 H   0  0  0  0  0  0
  -32.0997   -3.6288   12.4156 H   0  0  0  0  0  0
  -29.8170   -2.2371   13.8378 H   0  0  0  0  0  0
  -29.1024   -1.0475   11.7214 H   0  0  0  0  0  0
  -31.3171   -1.0667   10.5428 H   0  0  0  0  0  0
  -28.0373   -3.2502   12.3003 H   0  0  0  0  0  0
  -28.1226   -2.9611   10.5295 H   0  0  0  0  0  0
  -29.2882   -4.0804   11.3140 H   0  0  0  0  0  0
  -29.9158    0.1253   13.8662 H   0  0  0  0  0  0
  -32.6150    1.2491   12.9624 H   0  0  0  0  0  0
  -32.9609    0.6176   15.3350 H   0  0  0  0  0  0
  -31.4521    1.4716   15.8049 H   0  0  0  0  0  0
  -33.2925    2.8241   16.4581 H   0  0  0  0  0  0
  -32.5356    3.6120   15.0324 H   0  0  0  0  0  0
  -34.4995    4.8641   14.9225 H   0  0  0  0  0  0
  -35.9932    4.0674   14.0485 H   0  0  0  0  0  0
  -32.3252    3.2519   12.0044 H   0  0  0  0  0  0
  -29.5480    4.2473   11.9777 H   0  0  0  0  0  0
  -30.7534    6.3805   10.8506 H   0  0  0  0  0  0
  -33.0453    5.8593   11.7154 H   0  0  0  0  0  0
  -29.5158    4.5573    9.5526 H   0  0  0  0  0  0
  -30.9804    5.1337    8.6868 H   0  0  0  0  0  0
  -31.0162    3.5698    9.5698 H   0  0  0  0  0  0
  -28.7878    6.3607   12.6725 H   0  0  0  0  0  0
  -29.6519    6.8986   15.4423 H   0  0  0  0  0  0
  -27.8693    8.3842   13.4264 H   0  0  0  0  0  0
  -28.1088    8.9765   15.1052 H   0  0  0  0  0  0
  -25.0181    6.7798   14.9799 H   0  0  0  0  0  0
  -32.9885    9.6618   15.0768 H   0  0  0  0  0  0
  -31.4595   11.6896   16.7893 H   0  0  0  0  0  0
  -33.0689   10.9606   17.1135 H   0  0  0  0  0  0
  -30.8858   10.2190   18.4787 H   0  0  0  0  0  0
  -32.1732    9.0490   18.0311 H   0  0  0  0  0  0
  -30.3788    7.9121   16.9942 H   0  0  0  0  0  0
  -29.4081    9.4121   16.8093 H   0  0  0  0  0  0
  -32.5833   12.5896   13.0157 H   0  0  0  0  0  0
  1  2  1  0  0  0
  1 87  1  0  0  0
  1 88  1  0  0  0
  1 89  1  0  0  0
  2  3  1  0  0  0
  2  5  1  0  0  0
  2 90  1  0  0  0
  3  4  2  0  0  0
  3  6  1  0  0  0
  5 91  1  0  0  0
  5 92  1  0  0  0
  5 93  1  0  0  0
  6  7  1  0  0  0
  6 94  1  0  0  0
  7  8  1  0  0  0
  7 10  1  0  0  0
  7 95  1  0  0  0
  8  9  2  0  0  0
  8 18  1  0  0  0
 10 11  1  0  0  0
 10 96  1  0  0  0
 10 97  1  0  0  0
 11 12  2  0  0  0
 11 13  1  0  0  0
 12 14  1  0  0  0
 12 98  1  0  0  0
 13 15  2  0  0  0
 13 99  1  0  0  0
 14 16  2  0  0  0
 14100  1  0  0  0
 15 16  1  0  0  0
 15101  1  0  0  0
 16 17  1  0  0  0
 17102  1  0  0  0
 18 19  1  0  0  0
 18103  1  0  0  0
 19 20  1  0  0  0
 19 22  1  0  0  0
 19104  1  0  0  0
 20 21  2  0  0  0
 20 25  1  0  0  0
 22 23  1  0  0  0
 22 24  1  0  0  0
 22105  1  0  0  0
 23106  1  0  0  0
 24107  1  0  0  0
 24108  1  0  0  0
 24109  1  0  0  0
 25 26  1  0  0  0
 25110  1  0  0  0
 26 27  1  0  0  0
 26 29  1  0  0  0
 26111  1  0  0  0
 27 28  2  0  0  0
 27 33  1  0  0  0
 29 30  1  0  0  0
 29 31  1  0  0  0
 29112  1  0  0  0
 30 32  1  0  0  0
 30113  1  0  0  0
 30114  1  0  0  0
 31115  1  0  0  0
 31116  1  0  0  0
 31117  1  0  0  0
 32118  1  0  0  0
 32119  1  0  0  0
 32120  1  0  0  0
 33 34  1  0  0  0
 33121  1  0  0  0
 34 35  1  0  0  0
 34 37  1  0  0  0
 34122  1  0  0  0
 35 36  2  0  0  0
 35 39  1  0  0  0
 37 38  1  0  0  0
 37123  1  0  0  0
 37124  1  0  0  0
 38125  1  0  0  0
 39 40  1  0  0  0
 39126  1  0  0  0
 40 41  1  0  0  0
 40 43  1  0  0  0
 40127  1  0  0  0
 41 42  2  0  0  0
 41 44  1  0  0  0
 43128  1  0  0  0
 43129  1  0  0  0
 43130  1  0  0  0
 44 45  1  0  0  0
 44131  1  0  0  0
 45 46  1  0  0  0
 45132  1  0  0  0
 45133  1  0  0  0
 46 47  2  0  0  0
 46 48  1  0  0  0
 48 49  1  0  0  0
 48134  1  0  0  0
 49 50  1  0  0  0
 49 52  1  0  0  0
 49135  1  0  0  0
 50 51  2  0  0  0
 50 55  1  0  0  0
 52 53  1  0  0  0
 52 54  1  0  0  0
 52136  1  0  0  0
 53137  1  0  0  0
 54138  1  0  0  0
 54139  1  0  0  0
 54140  1  0  0  0
 55 56  1  0  0  0
 55141  1  0  0  0
 56 57  1  0  0  0
 56 59  1  0  0  0
 56142  1  0  0  0
 57 58  2  0  0  0
 57 64  1  0  0  0
 59 60  1  0  0  0
 59143  1  0  0  0
 59144  1  0  0  0
 60 61  1  0  0  0
 60145  1  0  0  0
 60146  1  0  0  0
 61 62  2  0  0  0
 61 63  1  0  0  0
 63147  1  0  0  0
 63148  1  0  0  0
 64 65  1  0  0  0
 64149  1  0  0  0
 65 66  1  0  0  0
 65 68  1  0  0  0
 65150  1  0  0  0
 66 67  2  0  0  0
 66 71  1  0  0  0
 68 69  1  0  0  0
 68 70  1  0  0  0
 68151  1  0  0  0
 69152  1  0  0  0
 70153  1  0  0  0
 70154  1  0  0  0
 70155  1  0  0  0
 71 72  1  0  0  0
 71156  1  0  0  0
 72 73  1  0  0  0
 72 75  1  0  0  0
 72157  1  0  0  0
 73 74  2  0  0  0
 73 79  1  0  0  0
 75 76  1  0  0  0
 75158  1  0  0  0
 75159  1  0  0  0
 76 77  2  0  0  0
 76 78  1  0  0  0
 78160  1  0  0  0
 79 80  1  0  0  0
 79 85  1  0  0  0
 80 81  1  0  0  0
 80 83  1  0  0  0
 80161  1  0  0  0
 81 82  2  0  0  0
 81 86  1  0  0  0
 83 84  1  0  0  0
 83162  1  0  0  0
 83163  1  0  0  0
 84 85  1  0  0  0
 84164  1  0  0  0
 84165  1  0  0  0
 85166  1  0  0  0
 85167  1  0  0  0
 86168  1  0  0  0
M  CHG  1   1   1
M  END
> <s_m_source_file>
../4qh7_ligand.sdf

> <i_m_source_file_index>
1

> <s_epik_input>
W2NIXTFbY0hdYyhbT0hdKVtjSF1bY0hdYzFbQ0gyXVtDQEhdKFtOSF1DKD1PKVtDQEBIXShbTkgzK10pW0NIM10pQyg9TylbTkhdW0NAQEhdKFtDQEhdKFtPSF0pW0NIM10pQyg9TylbTkhdW0NAQEhdKFtDQEBIXShbQ0gzXSlbQ0gyXVtDSDNdKUMoPU8pW05IXVtDQEBIXShbQ0gyXVtTSF0pQyg9TylbTkhdW0NAQEhdKFtDSDNdKUMoPU8pW05IXVtDSDJdQyg9TylbTkhdW0NAQEhdKFtDQEhdKFtPSF0pW0NIM10pQyg9TylbTkhdW0NAQEhdKFtDSDJdW0NIMl1DKD1PKVtOSDJdKUMoPU8pW05IXVtDQEBIXShbQ0BIXShbT0hdKVtDSDNdKUMoPU8pW05IXVtDQEBIXShbQ0gyXUMoPU8pW09IXSlDKD1PKU4yW0NASF0oQyg9TylbT0hdKVtDSDJdW0NIMl1bQ0gyXTI=

> <s_epik_cmdline>
J2VwaWtfYXBwJywgJy1pbWFlJywgJ2xpZ2FuZF9wcm8ubWFlJywgJy1vbWFlJywgJ2xpZ2FuZF9wcmVwLm1hZScsICctbXMnLCAnMScsICctcGgnLCAnNycsICctcGh0JywgJzAuNScsICctbnQn

> <s_epik_pKa_notes>
Molecule size exceeds maximum supported for generating protonation states

$$$$
