4qh8_ligand
                    3D
 Schrodinger Suite 2020-3.
145144  0  0  1  0            999 V2000
  -28.5410   40.0280   65.5880 N   0  3  0  0  0  0
  -27.6000   41.0420   65.1150 C   0  0  2  0  0  0
  -26.1620   40.5280   65.1540 C   0  0  0  0  0  0
  -25.5490   40.4570   66.2200 O   0  0  0  0  0  0
  -27.7300   42.3230   65.9350 C   0  0  0  0  0  0
  -25.6300   40.1790   63.9840 N   0  0  0  0  0  0
  -24.2910   39.6050   63.8810 C   0  0  2  0  0  0
  -23.3180   40.5390   63.1680 C   0  0  0  0  0  0
  -23.7040   41.2850   62.2660 O   0  0  0  0  0  0
  -24.3380   38.2550   63.1560 C   0  0  0  0  0  0
  -24.6720   38.4170   61.7870 O   0  0  0  0  0  0
  -22.0540   40.4840   63.5780 N   0  0  0  0  0  0
  -21.0040   41.2750   62.9450 C   0  0  2  0  0  0
  -19.8210   40.3970   62.5290 C   0  0  0  0  0  0
  -19.5850   39.3320   63.1030 O   0  0  0  0  0  0
  -20.5370   42.3960   63.8760 C   0  0  0  0  0  0
  -19.6790   43.3000   63.1990 O   0  0  0  0  0  0
  -19.0800   40.8560   61.5270 N   0  0  0  0  0  0
  -17.9790   40.0820   60.9580 C   0  0  2  0  0  0
  -16.6320   40.8020   61.0890 C   0  0  0  0  0  0
  -16.4830   41.9360   60.6380 O   0  0  0  0  0  0
  -18.2560   39.7700   59.4780 C   0  0  2  0  0  0
  -19.1720   38.6720   59.3810 O   0  0  0  0  0  0
  -16.9800   39.4080   58.7730 C   0  0  0  0  0  0
  -15.6490   40.1400   61.6960 N   0  0  0  0  0  0
  -14.3520   40.7710   61.9350 C   0  0  2  0  0  0
  -13.1660   39.7940   61.8640 C   0  0  0  0  0  0
  -13.2770   38.6050   62.2090 O   0  0  0  0  0  0
  -14.3320   41.5370   63.2880 C   0  0  2  0  0  0
  -13.0710   42.1980   63.4560 O   0  0  0  0  0  0
  -14.5490   40.5840   64.4420 C   0  0  0  0  0  0
  -12.0310   40.3110   61.4060 N   0  0  0  0  0  0
  -10.8230   39.5170   61.2850 C   0  0  0  0  0  0
   -9.8010   39.8640   62.3530 C   0  0  0  0  0  0
   -9.7630   40.9940   62.8380 O   0  0  0  0  0  0
   -8.9790   38.8890   62.7270 N   0  0  0  0  0  0
   -7.9140   39.1180   63.6990 C   0  0  2  0  0  0
   -6.6210   38.5720   63.1300 C   0  0  0  0  0  0
   -6.6440   37.6420   62.3340 O   0  0  0  0  0  0
   -8.1970   38.4240   65.0640 C   0  0  2  0  0  0
   -8.1980   36.9990   64.9020 O   0  0  0  0  0  0
   -9.5380   38.8800   65.6460 C   0  0  0  0  0  0
   -5.4980   39.1570   63.5230 N   0  0  0  0  0  0
   -4.1950   38.6640   63.0950 C   0  0  2  0  0  0
   -3.1970   38.7980   64.2320 C   0  0  0  0  0  0
   -3.1360   39.8390   64.8710 O   0  0  0  0  0  0
   -3.7000   39.4490   61.8740 C   0  0  0  0  0  0
   -2.3090   39.0360   61.3910 C   0  0  0  0  0  0
   -2.2940   37.6300   60.8140 C   0  0  0  0  0  0
   -3.1930   37.2500   60.0700 O   0  0  0  0  0  0
   -1.2800   36.8510   61.1670 N   0  0  0  0  0  0
   -2.4320   37.7390   64.5020 N   0  0  0  0  0  0
   -1.3620   37.8200   65.4980 C   0  0  2  0  0  0
   -0.1180   37.0800   65.0340 C   0  0  0  0  0  0
   -0.2050   36.1210   64.2680 O   0  0  0  0  0  0
   -1.8080   37.3040   66.8780 C   0  0  0  0  0  0
   -2.0450   35.5090   67.0450 S   0  0  0  0  0  0
    1.0370   37.5490   65.4930 N   0  0  0  0  0  0
    2.3010   36.8730   65.2510 C   0  0  2  0  0  0
    3.2770   37.2960   66.3380 C   0  0  0  0  0  0
    4.2200   38.0650   66.1150 O   0  0  0  0  0  0
    2.8540   37.1890   63.8610 C   0  0  0  0  0  0
    4.0060   36.2810   63.4790 C   0  0  0  0  0  0
    4.2330   35.2680   64.1880 O   0  5  0  0  0  0
    4.6840   36.5800   62.4730 O   0  0  0  0  0  0
    3.0200   36.7880   67.5330 N   0  0  0  0  0  0
    3.7810   37.1640   68.6990 C   0  0  2  0  0  0
    3.6500   36.0370   69.7180 C   0  0  0  0  0  0
    2.5870   35.8250   70.3160 O   0  0  0  0  0  0
    3.3410   38.5740   69.2390 C   0  0  2  0  0  0
    4.3460   39.1200   70.2690 C   0  0  0  0  0  0
    1.8640   38.5920   69.7120 C   0  0  0  0  0  0
    5.6120   39.7090   69.6390 C   0  0  0  0  0  0
    4.7280   35.2720   69.8570 N   0  0  0  0  0  0
  -28.4304   39.1151   64.9843 H   0  0  0  0  0  0
  -29.5687   40.4085   65.4925 H   0  0  0  0  0  0
  -28.3319   39.7975   66.6431 H   0  0  0  0  0  0
  -27.8876   41.2356   64.0711 H   0  0  0  0  0  0
  -28.7700   42.6791   65.8964 H   0  0  0  0  0  0
  -27.0631   43.0931   65.5202 H   0  0  0  0  0  0
  -27.4506   42.1198   66.9793 H   0  0  0  0  0  0
  -26.2327   40.3352   63.0772 H   0  0  0  0  0  0
  -23.9680   39.4814   64.9252 H   0  0  0  0  0  0
  -23.3531   37.7695   63.2209 H   0  0  0  0  0  0
  -25.0957   37.6118   63.6274 H   0  0  0  0  0  0
  -24.7454   37.5371   61.1309 H   0  0  0  0  0  0
  -21.8099   39.8185   64.4192 H   0  0  0  0  0  0
  -21.4733   41.7036   62.0472 H   0  0  0  0  0  0
  -21.4105   42.9521   64.2472 H   0  0  0  0  0  0
  -19.9899   41.9625   64.7262 H   0  0  0  0  0  0
  -19.2577   44.1638   63.7341 H   0  0  0  0  0  0
  -19.3171   41.8523   61.1254 H   0  0  0  0  0  0
  -17.9549   39.1641   61.5637 H   0  0  0  0  0  0
  -18.7302   40.6246   58.9733 H   0  0  0  0  0  0
  -20.1694   38.7457   59.8391 H   0  0  0  0  0  0
  -16.2716   40.2466   58.8433 H   0  0  0  0  0  0
  -17.1932   39.1958   57.7149 H   0  0  0  0  0  0
  -16.5408   38.5165   59.2445 H   0  0  0  0  0  0
  -15.8241   39.1032   62.0191 H   0  0  0  0  0  0
  -14.2775   41.4604   61.0811 H   0  0  0  0  0  0
  -15.0968   42.3272   63.3112 H   0  0  0  0  0  0
  -12.7328   42.9347   62.7125 H   0  0  0  0  0  0
  -15.5155   40.0733   64.3190 H   0  0  0  0  0  0
  -14.5493   41.1467   65.3872 H   0  0  0  0  0  0
  -13.7401   39.8388   64.4592 H   0  0  0  0  0  0
  -12.0235   41.3717   61.1147 H   0  0  0  0  0  0
  -11.0736   38.4506   61.3848 H   0  0  0  0  0  0
  -10.3640   39.6953   60.3014 H   0  0  0  0  0  0
   -9.1156   37.8907   62.2858 H   0  0  0  0  0  0
   -7.8731   40.2094   63.8298 H   0  0  0  0  0  0
   -7.3912   38.6332   65.7830 H   0  0  0  0  0  0
   -7.3117   36.4912   64.4938 H   0  0  0  0  0  0
   -9.5319   39.9732   65.7682 H   0  0  0  0  0  0
   -9.6943   38.4025   66.6246 H   0  0  0  0  0  0
  -10.3510   38.5918   64.9633 H   0  0  0  0  0  0
   -5.5642   40.0322   64.1861 H   0  0  0  0  0  0
   -4.3376   37.6043   62.8368 H   0  0  0  0  0  0
   -4.3938   39.2964   61.0341 H   0  0  0  0  0  0
   -3.6531   40.5199   62.1209 H   0  0  0  0  0  0
   -1.9721   39.7301   60.6069 H   0  0  0  0  0  0
   -1.6040   39.0659   62.2348 H   0  0  0  0  0  0
   -0.4973   37.2367   61.8368 H   0  0  0  0  0  0
   -1.2218   35.8193   60.7899 H   0  0  0  0  0  0
   -2.6136   36.7962   63.9653 H   0  0  0  0  0  0
   -1.1431   38.8961   65.5624 H   0  0  0  0  0  0
   -1.0548   37.5760   67.6321 H   0  0  0  0  0  0
   -2.7740   37.7576   67.1444 H   0  0  0  0  0  0
   -2.3632   35.0835   68.0082 H   0  0  0  0  0  0
    1.0151   38.4827   66.0742 H   0  0  0  0  0  0
    2.0987   35.7928   65.2976 H   0  0  0  0  0  0
    2.0582   37.0622   63.1123 H   0  0  0  0  0  0
    3.2170   38.2271   63.8381 H   0  0  0  0  0  0
    2.2001   36.0602   67.6225 H   0  0  0  0  0  0
    4.8337   37.2375   68.3884 H   0  0  0  0  0  0
    3.3685   39.2998   68.4129 H   0  0  0  0  0  0
    3.8705   39.9183   70.8577 H   0  0  0  0  0  0
    4.6610   38.3075   70.9403 H   0  0  0  0  0  0
    1.2197   38.1867   68.9179 H   0  0  0  0  0  0
    1.5633   39.6261   69.9361 H   0  0  0  0  0  0
    1.7615   37.9759   70.6175 H   0  0  0  0  0  0
    6.2792   40.0771   70.4323 H   0  0  0  0  0  0
    5.3377   40.5419   68.9749 H   0  0  0  0  0  0
    6.1282   38.9310   69.0574 H   0  0  0  0  0  0
    5.6462   35.5090   69.2995 H   0  0  0  0  0  0
    4.7020   34.4019   70.5295 H   0  0  0  0  0  0
  1  2  1  0  0  0
  1 75  1  0  0  0
  1 76  1  0  0  0
  1 77  1  0  0  0
  2  3  1  0  0  0
  2  5  1  0  0  0
  2 78  1  0  0  0
  3  4  2  0  0  0
  3  6  1  0  0  0
  5 79  1  0  0  0
  5 80  1  0  0  0
  5 81  1  0  0  0
  6  7  1  0  0  0
  6 82  1  0  0  0
  7  8  1  0  0  0
  7 10  1  0  0  0
  7 83  1  0  0  0
  8  9  2  0  0  0
  8 12  1  0  0  0
 10 11  1  0  0  0
 10 84  1  0  0  0
 10 85  1  0  0  0
 11 86  1  0  0  0
 12 13  1  0  0  0
 12 87  1  0  0  0
 13 14  1  0  0  0
 13 16  1  0  0  0
 13 88  1  0  0  0
 14 15  2  0  0  0
 14 18  1  0  0  0
 16 17  1  0  0  0
 16 89  1  0  0  0
 16 90  1  0  0  0
 17 91  1  0  0  0
 18 19  1  0  0  0
 18 92  1  0  0  0
 19 20  1  0  0  0
 19 22  1  0  0  0
 19 93  1  0  0  0
 20 21  2  0  0  0
 20 25  1  0  0  0
 22 23  1  0  0  0
 22 24  1  0  0  0
 22 94  1  0  0  0
 23 95  1  0  0  0
 24 96  1  0  0  0
 24 97  1  0  0  0
 24 98  1  0  0  0
 25 26  1  0  0  0
 25 99  1  0  0  0
 26 27  1  0  0  0
 26 29  1  0  0  0
 26100  1  0  0  0
 27 28  2  0  0  0
 27 32  1  0  0  0
 29 30  1  0  0  0
 29 31  1  0  0  0
 29101  1  0  0  0
 30102  1  0  0  0
 31103  1  0  0  0
 31104  1  0  0  0
 31105  1  0  0  0
 32 33  1  0  0  0
 32106  1  0  0  0
 33 34  1  0  0  0
 33107  1  0  0  0
 33108  1  0  0  0
 34 35  2  0  0  0
 34 36  1  0  0  0
 36 37  1  0  0  0
 36109  1  0  0  0
 37 38  1  0  0  0
 37 40  1  0  0  0
 37110  1  0  0  0
 38 39  2  0  0  0
 38 43  1  0  0  0
 40 41  1  0  0  0
 40 42  1  0  0  0
 40111  1  0  0  0
 41112  1  0  0  0
 42113  1  0  0  0
 42114  1  0  0  0
 42115  1  0  0  0
 43 44  1  0  0  0
 43116  1  0  0  0
 44 45  1  0  0  0
 44 47  1  0  0  0
 44117  1  0  0  0
 45 46  2  0  0  0
 45 52  1  0  0  0
 47 48  1  0  0  0
 47118  1  0  0  0
 47119  1  0  0  0
 48 49  1  0  0  0
 48120  1  0  0  0
 48121  1  0  0  0
 49 50  2  0  0  0
 49 51  1  0  0  0
 51122  1  0  0  0
 51123  1  0  0  0
 52 53  1  0  0  0
 52124  1  0  0  0
 53 54  1  0  0  0
 53 56  1  0  0  0
 53125  1  0  0  0
 54 55  2  0  0  0
 54 58  1  0  0  0
 56 57  1  0  0  0
 56126  1  0  0  0
 56127  1  0  0  0
 57128  1  0  0  0
 58 59  1  0  0  0
 58129  1  0  0  0
 59 60  1  0  0  0
 59 62  1  0  0  0
 59130  1  0  0  0
 60 61  2  0  0  0
 60 66  1  0  0  0
 62 63  1  0  0  0
 62131  1  0  0  0
 62132  1  0  0  0
 63 64  1  0  0  0
 63 65  2  0  0  0
 66 67  1  0  0  0
 66133  1  0  0  0
 67 68  1  0  0  0
 67 70  1  0  0  0
 67134  1  0  0  0
 68 69  2  0  0  0
 68 74  1  0  0  0
 70 71  1  0  0  0
 70 72  1  0  0  0
 70135  1  0  0  0
 71 73  1  0  0  0
 71136  1  0  0  0
 71137  1  0  0  0
 72138  1  0  0  0
 72139  1  0  0  0
 72140  1  0  0  0
 73141  1  0  0  0
 73142  1  0  0  0
 73143  1  0  0  0
 74144  1  0  0  0
 74145  1  0  0  0
M  CHG  2   1   1  64  -1
M  END
> <s_m_source_file>
../4qh8_ligand.sdf

> <i_m_source_file_index>
1

> <s_epik_input>
W05IMytdW0NAQEhdKFtDSDNdKUMoPU8pW05IXVtDQEBIXShbQ0gyXVtPSF0pQyg9TylbTkhdW0NAQEhdKFtDSDJdW09IXSlDKD1PKVtOSF1bQ0BASF0oW0NASF0oW09IXSlbQ0gzXSlDKD1PKVtOSF1bQ0BASF0oW0NASF0oW09IXSlbQ0gzXSlDKD1PKVtOSF1bQ0gyXUMoPU8pW05IXVtDQEBIXShbQ0BIXShbT0hdKVtDSDNdKUMoPU8pW05IXVtDQEBIXShbQ0gyXVtDSDJdQyg9TylbTkgyXSlDKD1PKVtOSF1bQ0BASF0oW0NIMl1bU0hdKUMoPU8pW05IXVtDQEBIXShbQ0gyXUMoPU8pW09IXSlDKD1PKVtOSF1bQ0BIXShDKD1PKVtOSDJdKVtDQEBIXShbQ0gzXSlbQ0gyXVtDSDNd

> <s_epik_cmdline>
J2VwaWtfYXBwJywgJy1pbWFlJywgJ2xpZ2FuZF9wcm8ubWFlJywgJy1vbWFlJywgJ2xpZ2FuZF9wcmVwLm1hZScsICctbXMnLCAnMScsICctcGgnLCAnNycsICctcGh0JywgJzAuNScsICctbnQn

> <r_lp_tautomer_probability>
1

> <r_epik_Ionization_Penalty>
  0.1484

> <r_epik_Ionization_Penalty_Charging>
  0.1382

> <r_epik_Ionization_Penalty_Neutral>
  0.0102

> <r_epik_State_Penalty>
 -0.0000

> <r_epik_Charging_Adjusted_Penalty>
0.138248336567661

> <i_epik_Tot_Q>
0

> <i_epik_Tot_abs_Q>
2

$$$$
