4qhp_ligand
                    3D
 Schrodinger Suite 2020-3.
 54 55  0  0  1  0            999 V2000
    9.5130   44.0830   -4.2180 P   0  0  2  0  0  0
   12.0150   43.7110   -3.1070 C   0  0  0  0  0  0
   11.2550   44.4260   -4.2150 C   0  0  2  0  0  0
   13.5400   43.9440   -3.1020 C   0  0  0  0  0  0
   14.4690   42.7690   -3.0460 C   0  0  0  0  0  0
   11.4100   45.9550   -4.1390 N   0  3  0  0  0  0
    9.2580   42.3180   -4.3730 C   0  0  0  0  0  0
    8.9030   44.9290   -5.3160 O   0  5  0  0  0  0
    8.0320   41.7310   -3.6440 C   0  0  2  0  0  0
    8.9630   44.5330   -2.9180 O   0  0  0  0  0  0
    8.1520   40.1680   -3.4450 C   0  0  0  0  0  0
    6.7910   41.9440   -4.4280 C   0  0  0  0  0  0
   14.4610   41.7510   -4.0150 C   0  0  0  0  0  0
    5.4630   41.8740   -3.7260 C   0  0  0  0  0  0
   15.3670   40.6450   -3.9890 C   0  0  0  0  0  0
   16.3080   40.5580   -2.9620 C   0  0  0  0  0  0
   16.3440   41.5690   -1.9860 C   0  0  0  0  0  0
   15.4340   42.6530   -2.0290 C   0  0  0  0  0  0
    1.5570   41.7570   -1.6650 C   0  0  0  0  0  0
    7.1790   39.4310   -3.7550 O   0  5  0  0  0  0
    9.2560   39.7870   -2.9990 O   0  0  0  0  0  0
    0.3780   41.6370   -2.4970 N   0  3  0  0  0  0
    5.3400   42.0040   -2.3370 C   0  0  0  0  0  0
    4.0880   41.9650   -1.7080 C   0  0  0  0  0  0
    2.8940   41.7920   -2.4350 C   0  0  0  0  0  0
    3.0220   41.6630   -3.8090 C   0  0  0  0  0  0
    4.2740   41.7040   -4.4240 C   0  0  0  0  0  0
   11.6428   44.0503   -2.1291 H   0  0  0  0  0  0
   11.8640   42.6254   -3.2002 H   0  0  0  0  0  0
   11.8548   44.0844   -5.0715 H   0  0  0  0  0  0
   13.8327   44.4755   -4.0195 H   0  0  0  0  0  0
   13.8158   44.5477   -2.2248 H   0  0  0  0  0  0
   10.8439   46.4221   -4.9584 H   0  0  0  0  0  0
   12.4735   46.2207   -4.2300 H   0  0  0  0  0  0
   11.0233   46.3152   -3.1743 H   0  0  0  0  0  0
    9.1286   42.0580   -5.4340 H   0  0  0  0  0  0
   10.1308   41.7845   -3.9686 H   0  0  0  0  0  0
    7.9562   42.2821   -2.6950 H   0  0  0  0  0  0
    6.8107   42.9464   -4.8806 H   0  0  0  0  0  0
    6.7235   41.1849   -5.2212 H   0  0  0  0  0  0
   13.7313   41.8071   -4.8227 H   0  0  0  0  0  0
   15.3232   39.8784   -4.7627 H   0  0  0  0  0  0
   17.0035   39.7199   -2.9174 H   0  0  0  0  0  0
   17.0821   41.5178   -1.1856 H   0  0  0  0  0  0
   15.4825   43.4177   -1.2537 H   0  0  0  0  0  0
    1.5023   42.6893   -1.0838 H   0  0  0  0  0  0
    1.6100   40.8994   -0.9782 H   0  0  0  0  0  0
   -0.5194   41.6205   -1.8611 H   0  0  0  0  0  0
    0.4327   40.7047   -3.0782 H   0  0  0  0  0  0
    0.3251   42.4946   -3.1838 H   0  0  0  0  0  0
    6.2369   42.1384   -1.7323 H   0  0  0  0  0  0
    4.0368   42.0717   -0.6244 H   0  0  0  0  0  0
    2.1294   41.5272   -4.4197 H   0  0  0  0  0  0
    4.3214   41.5971   -5.5077 H   0  0  0  0  0  0
  1  3  1  0  0  0
  1  7  1  0  0  0
  1  8  1  0  0  0
  1 10  2  0  0  0
  2  3  1  0  0  0
  2  4  1  0  0  0
  2 28  1  0  0  0
  2 29  1  0  0  0
  3  6  1  0  0  0
  3 30  1  0  0  0
  4  5  1  0  0  0
  4 31  1  0  0  0
  4 32  1  0  0  0
  5 13  2  0  0  0
  5 18  1  0  0  0
  6 33  1  0  0  0
  6 34  1  0  0  0
  6 35  1  0  0  0
  7  9  1  0  0  0
  7 36  1  0  0  0
  7 37  1  0  0  0
  9 11  1  0  0  0
  9 12  1  0  0  0
  9 38  1  0  0  0
 11 20  1  0  0  0
 11 21  2  0  0  0
 12 14  1  0  0  0
 12 39  1  0  0  0
 12 40  1  0  0  0
 13 15  1  0  0  0
 13 41  1  0  0  0
 14 23  2  0  0  0
 14 27  1  0  0  0
 15 16  2  0  0  0
 15 42  1  0  0  0
 16 17  1  0  0  0
 16 43  1  0  0  0
 17 18  2  0  0  0
 17 44  1  0  0  0
 18 45  1  0  0  0
 19 22  1  0  0  0
 19 25  1  0  0  0
 19 46  1  0  0  0
 19 47  1  0  0  0
 22 48  1  0  0  0
 22 49  1  0  0  0
 22 50  1  0  0  0
 23 24  1  0  0  0
 23 51  1  0  0  0
 24 25  2  0  0  0
 24 52  1  0  0  0
 25 26  1  0  0  0
 26 27  2  0  0  0
 26 53  1  0  0  0
 27 54  1  0  0  0
M  CHG  4   6   1   8  -1  20  -1  22   1
M  END
> <s_m_source_file>
../4qhp_ligand.sdf

> <i_m_source_file_index>
1

> <s_epik_input>
W05IMytdW0NIMl1jKFtjSF1bY0hdMSlbY0hdW2NIXWMxW0NIMl1bQ0BASF0oQyg9TylbT0hdKVtDSDJdW1BAXSg9TykoW09IXSlbQ0BASF0oW05IMytdKVtDSDJdW0NIMl1jMltjSF1bY0hdW2NIXVtjSF1bY0hdMg==

> <s_epik_cmdline>
J2VwaWtfYXBwJywgJy1pbWFlJywgJ2xpZ2FuZF9wcm8ubWFlJywgJy1vbWFlJywgJ2xpZ2FuZF9wcmVwLm1hZScsICctbXMnLCAnMScsICctcGgnLCAnNycsICctcGh0JywgJzAuNScsICctbnQn

> <r_epik_Ionization_Penalty>
  0.0272

> <r_epik_Ionization_Penalty_Charging>
  0.0272

> <r_epik_Ionization_Penalty_Neutral>
  0.0000

> <r_epik_State_Penalty>
  0.0208

> <r_epik_Charging_Adjusted_Penalty>
0.048014432399794

> <i_epik_Tot_Q>
0

> <i_epik_Tot_abs_Q>
4

$$$$
