4qht_ligand
                    3D
 Schrodinger Suite 2020-3.
 44 46  0  0  1  0            999 V2000
  -24.6710   43.7710   36.0210 P   0  0  0  0  0  0
  -23.8390   42.5310   35.8830 O   0  0  0  0  0  0
  -24.1840   44.7940   34.9260 O   0  5  0  0  0  0
  -26.1900   43.4300   35.7530 O   0  5  0  0  0  0
  -24.5440   43.4280   38.8410 P   0  0  2  0  0  0
  -23.4550   42.4080   38.8040 O   0  0  0  0  0  0
  -25.9010   42.6960   38.8900 O   0  5  0  0  0  0
  -24.4780   44.4940   37.5420 N   0  0  1  0  0  0
  -23.2010   44.8550   40.7910 P   0  0  2  0  0  0
  -22.3050   45.4830   39.7960 O   0  0  0  0  0  0
  -22.5770   43.7400   41.6560 O   0  5  0  0  0  0
  -24.5040   44.2500   40.1570 O   0  0  0  0  0  0
  -23.7850   45.9960   41.6820 O   0  0  0  0  0  0
  -24.1610   47.2840   41.1900 C   0  0  0  0  0  0
  -23.7130   48.3150   42.1980 C   0  0  1  0  0  0
  -24.4320   48.1570   43.4410 O   0  0  0  0  0  0
  -22.2400   48.2520   42.5680 C   0  0  1  0  0  0
  -21.7990   49.5740   42.8370 O   0  0  0  0  0  0
  -22.2450   47.3750   43.8190 C   0  0  1  0  0  0
  -21.1010   47.6270   44.6200 O   0  0  0  0  0  0
  -23.5420   47.8140   44.4890 C   0  0  2  0  0  0
  -24.1910   46.7730   45.2840 N   0  0  0  0  0  0
  -25.1260   45.8950   44.8190 C   0  0  0  0  0  0
  -25.5690   45.0590   45.7270 N   0  0  0  0  0  0
  -24.8870   45.4240   46.8690 C   0  0  0  0  0  0
  -24.9070   44.9200   48.1810 C   0  0  0  0  0  0
  -25.6850   43.9080   48.5690 N   0  0  0  0  0  0
  -24.0930   45.5000   49.0870 N   0  0  0  0  0  0
  -23.3220   46.5190   48.7000 C   0  0  0  0  0  0
  -23.2180   47.0790   47.4940 N   0  0  0  0  0  0
  -24.0310   46.4840   46.6190 C   0  0  0  0  0  0
  -23.4985   44.9923   37.5895 H   0  0  0  0  0  0
  -23.6734   47.4627   40.2203 H   0  0  0  0  0  0
  -25.2531   47.3240   41.0642 H   0  0  0  0  0  0
  -23.9494   49.2823   41.7306 H   0  0  0  0  0  0
  -21.5401   47.9091   41.7918 H   0  0  0  0  0  0
  -21.7465   50.3125   42.0235 H   0  0  0  0  0  0
  -22.1426   46.2904   43.6668 H   0  0  0  0  0  0
  -20.1007   47.3563   44.2510 H   0  0  0  0  0  0
  -23.3627   48.6566   45.1730 H   0  0  0  0  0  0
  -25.4735   45.8890   43.7859 H   0  0  0  0  0  0
  -26.3559   43.4214   47.8457 H   0  0  0  0  0  0
  -25.6556   43.5602   49.6122 H   0  0  0  0  0  0
  -22.6911   46.9526   49.4759 H   0  0  0  0  0  0
  1  2  2  0  0  0
  1  3  1  0  0  0
  1  4  1  0  0  0
  1  8  1  0  0  0
  5  6  2  0  0  0
  5  7  1  0  0  0
  5  8  1  0  0  0
  5 12  1  0  0  0
  8 32  1  0  0  0
  9 10  2  0  0  0
  9 11  1  0  0  0
  9 12  1  0  0  0
  9 13  1  0  0  0
 13 14  1  0  0  0
 14 15  1  0  0  0
 14 33  1  0  0  0
 14 34  1  0  0  0
 15 16  1  0  0  0
 15 17  1  0  0  0
 15 35  1  0  0  0
 16 21  1  0  0  0
 17 18  1  0  0  0
 17 19  1  0  0  0
 17 36  1  0  0  0
 18 37  1  0  0  0
 19 20  1  0  0  0
 19 21  1  0  0  0
 19 38  1  0  0  0
 20 39  1  0  0  0
 21 22  1  0  0  0
 21 40  1  0  0  0
 22 23  1  0  0  0
 22 31  1  0  0  0
 23 24  2  0  0  0
 23 41  1  0  0  0
 24 25  1  0  0  0
 25 26  2  0  0  0
 25 31  1  0  0  0
 26 27  1  0  0  0
 26 28  1  0  0  0
 27 42  1  0  0  0
 27 43  1  0  0  0
 28 29  2  0  0  0
 29 30  1  0  0  0
 29 44  1  0  0  0
 30 31  2  0  0  0
M  CHG  4   3  -1   4  -1   7  -1  11  -1
M  END
> <s_m_source_file>
../4qht_ligand.sdf

> <i_m_source_file_index>
1

> <s_epik_input>
Tz1QKFtPSF0pKFtPSF0pW05IXVtQQF0oPU8pKFtPSF0pT1tQQF0oPU8pKFtPSF0pT1tDSDJdW0NASF0xT1tDQEhdKFtDQEhdKFtPSF0pW0NAQEhdMVtPSF0pbihbY0hdbjIpYyhjMjMpbltjSF1uYzNbTkgyXQ==

> <s_epik_cmdline>
J2VwaWtfYXBwJywgJy1pbWFlJywgJ2xpZ2FuZF9wcm8ubWFlJywgJy1vbWFlJywgJ2xpZ2FuZF9wcmVwLm1hZScsICctbXMnLCAnMScsICctcGgnLCAnNycsICctcGh0JywgJzAuNScsICctbnQn

> <r_lp_tautomer_probability>
0.999997216410988

> <r_epik_Ionization_Penalty>
  0.3578

> <r_epik_Ionization_Penalty_Charging>
  0.3346

> <r_epik_Ionization_Penalty_Neutral>
  0.0232

> <r_epik_State_Penalty>
  0.3402

> <r_epik_Charging_Adjusted_Penalty>
0.674771962662822

> <i_epik_Tot_Q>
-4

> <i_epik_Tot_abs_Q>
4

> <s_epik_Chemistry_Notes>
This compound contains an acetal/aminal-like group ( X-CH(R)-Y where X, Y are N, S, or O) that may be acid/base labile, releasing an aldehyde.

$$$$
