4qij_ligand
                    3D
 Schrodinger Suite 2020-3.
 99103  0  0  1  0            999 V2000
   34.6130  -14.1480  184.4720 O   0  0  0  0  0  0
   33.4090  -13.4250  184.4960 C   0  0  0  0  0  0
   32.9960  -12.9560  183.2430 C   0  0  0  0  0  0
   33.7930  -13.2350  182.0930 C   0  0  0  0  0  0
   33.3930  -12.7810  180.8700 C   0  0  0  0  0  0
   32.2100  -12.0510  180.7640 C   0  0  0  0  0  0
   31.4250  -11.7770  181.8930 C   0  0  0  0  0  0
   31.8320  -12.2380  183.1440 C   0  0  0  0  0  0
   31.0470  -11.9660  184.2940 C   0  0  0  0  0  0
   31.4640  -12.4320  185.5440 C   0  0  0  0  0  0
   32.6280  -13.1490  185.6410 C   0  0  0  0  0  0
   33.2040  -13.7390  186.9020 C   0  0  0  0  0  0
   33.0530  -13.0940  187.9150 O   0  0  0  0  0  0
   33.2790  -15.5480  187.0200 S   0  0  0  0  0  0
   33.8480  -15.9710  188.6360 C   0  0  0  0  0  0
   32.6070  -15.6890  189.6200 C   0  0  0  0  0  0
   32.9900  -15.2980  190.9380 N   0  0  0  0  0  0
   33.8510  -16.1080  191.7310 C   0  0  0  0  0  0
   34.3080  -17.2020  191.3110 O   0  0  0  0  0  0
   34.1950  -15.6330  193.1830 C   0  0  0  0  0  0
   33.2110  -16.4210  194.0000 C   0  0  0  0  0  0
   33.2530  -16.0370  195.3950 N   0  0  0  0  0  0
   34.3850  -16.5600  196.2340 C   0  0  0  0  0  0
   35.2000  -17.2650  195.7430 O   0  0  0  0  0  0
   34.4310  -16.1900  197.7200 C   0  0  2  0  0  0
   33.1480  -15.9400  198.1260 O   0  0  0  0  0  0
   35.3420  -14.9710  197.9790 C   0  0  0  0  0  0
   36.8090  -15.3510  197.6440 C   0  0  0  0  0  0
   34.9240  -13.7680  197.1540 C   0  0  0  0  0  0
   35.2420  -14.6010  199.4430 C   0  0  0  0  0  0
   35.0380  -15.8440  200.2010 O   0  0  0  0  0  0
   34.7770  -15.7650  201.8280 P   0  0  2  0  0  0
   35.2390  -14.4820  202.3860 O   0  0  0  0  0  0
   35.4990  -16.9270  202.4520 O   0  5  0  0  0  0
   33.2390  -15.8030  202.1800 O   0  0  0  0  0  0
   32.0450  -16.6420  201.4440 P   0  0  1  0  0  0
   32.5310  -17.5270  200.2960 O   0  0  0  0  0  0
   31.3490  -17.5290  202.5000 O   0  5  0  0  0  0
   31.0190  -15.5520  200.8780 O   0  0  0  0  0  0
   30.0500  -14.9050  201.7770 C   0  0  0  0  0  0
   28.6860  -14.8990  201.0550 C   0  0  1  0  0  0
   28.7870  -14.2810  199.9100 O   0  0  0  0  0  0
   28.2870  -16.3800  200.7180 C   0  0  1  0  0  0
   26.9370  -16.5360  200.7810 O   0  0  0  0  0  0
   26.1410  -17.1830  202.0680 P   0  0  0  0  0  0
   26.2790  -16.2570  203.2380 O   0  0  0  0  0  0
   24.6210  -17.3270  201.6960 O   0  5  0  0  0  0
   26.7200  -18.6000  202.3720 O   0  5  0  0  0  0
   28.7220  -16.4860  199.2670 C   0  0  1  0  0  0
   28.0820  -17.6770  198.5690 O   0  0  0  0  0  0
   28.3670  -15.2970  198.7650 C   0  0  2  0  0  0
   29.1030  -14.9920  197.5620 N   0  0  0  0  0  0
   30.4090  -14.6000  197.5030 C   0  0  0  0  0  0
   30.7370  -14.4160  196.1860 N   0  0  0  0  0  0
   29.6230  -14.7020  195.4300 C   0  0  0  0  0  0
   28.6200  -15.0560  196.2660 C   0  0  0  0  0  0
   27.3910  -15.3910  195.7510 N   0  0  0  0  0  0
   27.1800  -15.3610  194.4000 C   0  0  0  0  0  0
   28.1990  -15.0020  193.5460 N   0  0  0  0  0  0
   29.4090  -14.6810  194.0480 C   0  0  0  0  0  0
   30.3380  -14.3320  193.0480 N   0  0  0  0  0  0
   35.1416  -14.3046  183.5201 H   0  0  0  0  0  0
   34.7156  -13.8072  182.1908 H   0  0  0  0  0  0
   33.9931  -12.9873  179.9837 H   0  0  0  0  0  0
   31.8901  -11.6873  179.7875 H   0  0  0  0  0  0
   30.5015  -11.2066  181.7930 H   0  0  0  0  0  0
   30.1224  -11.3959  184.2031 H   0  0  0  0  0  0
   30.8687  -12.2270  186.4338 H   0  0  0  0  0  0
   34.1419  -17.0308  188.6555 H   0  0  0  0  0  0
   34.7148  -15.3453  188.8950 H   0  0  0  0  0  0
   31.9886  -14.8783  189.2072 H   0  0  0  0  0  0
   31.9998  -16.6013  189.7151 H   0  0  0  0  0  0
   32.6186  -14.3530  191.3611 H   0  0  0  0  0  0
   35.2429  -15.8782  193.4104 H   0  0  0  0  0  0
   34.0485  -14.5453  193.2574 H   0  0  0  0  0  0
   32.1940  -16.2436  193.6203 H   0  0  0  0  0  0
   33.4482  -17.4926  193.9263 H   0  0  0  0  0  0
   32.4719  -15.3824  195.8090 H   0  0  0  0  0  0
   34.7516  -17.0330  198.3497 H   0  0  0  0  0  0
   32.3737  -16.7126  198.0091 H   0  0  0  0  0  0
   36.8842  -15.6204  196.5801 H   0  0  0  0  0  0
   37.1160  -16.2078  198.2618 H   0  0  0  0  0  0
   37.4665  -14.4942  197.8526 H   0  0  0  0  0  0
   34.9896  -14.0162  196.0844 H   0  0  0  0  0  0
   35.5909  -12.9218  197.3756 H   0  0  0  0  0  0
   33.8884  -13.4939  197.4040 H   0  0  0  0  0  0
   36.1716  -14.1059  199.7604 H   0  0  0  0  0  0
   34.3933  -13.9171  199.5912 H   0  0  0  0  0  0
   29.9864  -15.4726  202.7171 H   0  0  0  0  0  0
   30.3779  -13.8770  201.9908 H   0  0  0  0  0  0
   27.9398  -14.2907  201.5870 H   0  0  0  0  0  0
   28.6228  -17.1733  201.4020 H   0  0  0  0  0  0
   29.8027  -16.5646  199.0773 H   0  0  0  0  0  0
   28.3089  -18.6992  198.9061 H   0  0  0  0  0  0
   27.3153  -15.3889  198.4560 H   0  0  0  0  0  0
   31.0743  -14.4582  198.3547 H   0  0  0  0  0  0
   26.2013  -15.6223  193.9976 H   0  0  0  0  0  0
   31.3641  -14.0488  193.3252 H   0  0  0  0  0  0
   30.0372  -14.3427  191.9900 H   0  0  0  0  0  0
  1  2  1  0  0  0
  1 62  1  0  0  0
  2  3  2  0  0  0
  2 11  1  0  0  0
  3  4  1  0  0  0
  3  8  1  0  0  0
  4  5  2  0  0  0
  4 63  1  0  0  0
  5  6  1  0  0  0
  5 64  1  0  0  0
  6  7  2  0  0  0
  6 65  1  0  0  0
  7  8  1  0  0  0
  7 66  1  0  0  0
  8  9  2  0  0  0
  9 10  1  0  0  0
  9 67  1  0  0  0
 10 11  2  0  0  0
 10 68  1  0  0  0
 11 12  1  0  0  0
 12 13  2  0  0  0
 12 14  1  0  0  0
 14 15  1  0  0  0
 15 16  1  0  0  0
 15 69  1  0  0  0
 15 70  1  0  0  0
 16 17  1  0  0  0
 16 71  1  0  0  0
 16 72  1  0  0  0
 17 18  1  0  0  0
 17 73  1  0  0  0
 18 19  2  0  0  0
 18 20  1  0  0  0
 20 21  1  0  0  0
 20 74  1  0  0  0
 20 75  1  0  0  0
 21 22  1  0  0  0
 21 76  1  0  0  0
 21 77  1  0  0  0
 22 23  1  0  0  0
 22 78  1  0  0  0
 23 24  2  0  0  0
 23 25  1  0  0  0
 25 26  1  0  0  0
 25 27  1  0  0  0
 25 79  1  0  0  0
 26 80  1  0  0  0
 27 28  1  0  0  0
 27 29  1  0  0  0
 27 30  1  0  0  0
 28 81  1  0  0  0
 28 82  1  0  0  0
 28 83  1  0  0  0
 29 84  1  0  0  0
 29 85  1  0  0  0
 29 86  1  0  0  0
 30 31  1  0  0  0
 30 87  1  0  0  0
 30 88  1  0  0  0
 31 32  1  0  0  0
 32 33  2  0  0  0
 32 34  1  0  0  0
 32 35  1  0  0  0
 35 36  1  0  0  0
 36 37  2  0  0  0
 36 38  1  0  0  0
 36 39  1  0  0  0
 39 40  1  0  0  0
 40 41  1  0  0  0
 40 89  1  0  0  0
 40 90  1  0  0  0
 41 42  1  0  0  0
 41 43  1  0  0  0
 41 91  1  0  0  0
 42 51  1  0  0  0
 43 44  1  0  0  0
 43 49  1  0  0  0
 43 92  1  0  0  0
 44 45  1  0  0  0
 45 46  2  0  0  0
 45 47  1  0  0  0
 45 48  1  0  0  0
 49 50  1  0  0  0
 49 51  1  0  0  0
 49 93  1  0  0  0
 50 94  1  0  0  0
 51 52  1  0  0  0
 51 95  1  0  0  0
 52 53  1  0  0  0
 52 56  1  0  0  0
 53 54  2  0  0  0
 53 96  1  0  0  0
 54 55  1  0  0  0
 55 56  2  0  0  0
 55 60  1  0  0  0
 56 57  1  0  0  0
 57 58  2  0  0  0
 58 59  1  0  0  0
 58 97  1  0  0  0
 59 60  2  0  0  0
 60 61  1  0  0  0
 61 98  1  0  0  0
 61 99  1  0  0  0
M  CHG  4  34  -1  38  -1  47  -1  48  -1
M  END
> <s_m_source_file>
../4qij_ligand.sdf

> <i_m_source_file_index>
1

> <s_epik_input>
W2NIXTFbY0hdW2NIXVtjSF1jKGMxMilbY0hdW2NIXWMoYzJbT0hdKUMoPU8pU1tDSDJdW0NIMl1bTkhdQyg9TylbQ0gyXVtDSDJdW05IXUMoPU8pW0NASF0oW09IXSlDKFtDSDNdKShbQ0gzXSlbQ0gyXU9bUEBdKD1PKShbT0hdKU9bUEBAXSg9TykoW09IXSlPW0NIMl1bQ0BIXTNPW0NASF0oW0NASF0oW09IXSlbQ0BASF0zT1AoPU8pKFtPSF0pW09IXSluKFtjSF1uNCljKGM0NSluW2NIXW5jNVtOSDJd

> <s_epik_cmdline>
J2VwaWtfYXBwJywgJy1pbWFlJywgJ2xpZ2FuZF9wcm8ubWFlJywgJy1vbWFlJywgJ2xpZ2FuZF9wcmVwLm1hZScsICctbXMnLCAnMScsICctcGgnLCAnNycsICctcGh0JywgJzAuNScsICctbnQn

> <r_lp_tautomer_probability>
0.999997216410988

> <r_epik_Ionization_Penalty>
  0.2034

> <r_epik_Ionization_Penalty_Charging>
  0.0759

> <r_epik_Ionization_Penalty_Neutral>
  0.1276

> <r_epik_State_Penalty>
  0.1716

> <r_epik_Charging_Adjusted_Penalty>
0.247478110817611

> <i_epik_Tot_Q>
-4

> <i_epik_Tot_abs_Q>
4

> <s_epik_Chemistry_Notes>
This compound contains an acetal/aminal-like group ( X-CH(R)-Y where X, Y are N, S, or O) that may be acid/base labile, releasing an aldehyde.

$$$$
