4qip_ligand
                    3D
 Schrodinger Suite 2020-3.
 42 41  0  0  1  0            999 V2000
   14.5680   14.9820   16.0620 S   0  0  0  0  0  0
   14.0470   16.0840   15.1670 O   0  0  0  0  0  0
   13.4030   14.2010   16.6290 O   0  0  0  0  0  0
   15.4690   15.5210   17.1450 O   0  0  0  0  0  0
   15.5180   14.0760   15.3000 O   0  5  0  0  0  0
   13.5970   13.5780   17.8820 C   0  0  0  0  0  0
   10.1940    5.3830   22.0660 C   0  0  0  0  0  0
    9.4160    5.2330   20.7710 C   0  0  0  0  0  0
    8.4370    6.3790   20.6180 C   0  0  0  0  0  0
    9.2030    7.6310   20.2530 C   0  0  0  0  0  0
    8.2610    8.7370   19.8350 C   0  0  0  0  0  0
    9.1150    9.8830   19.3470 C   0  0  0  0  0  0
    8.3310   10.7840   18.4180 C   0  0  0  0  0  0
    9.2160   11.9320   17.9860 C   0  0  0  0  0  0
   10.5410   11.4070   17.4690 C   0  0  0  0  0  0
   11.4580   12.5610   17.1360 C   0  0  0  0  0  0
   12.3200   12.9050   18.3330 C   0  0  0  0  0  0
   14.3918   12.8224   17.7966 H   0  0  0  0  0  0
   13.8882   14.3339   18.6262 H   0  0  0  0  0  0
   10.9014    4.5468   22.1677 H   0  0  0  0  0  0
    9.4957    5.3779   22.9159 H   0  0  0  0  0  0
   10.7485    6.3329   22.0527 H   0  0  0  0  0  0
   10.1143    5.2381   19.9211 H   0  0  0  0  0  0
    8.8615    4.2831   20.7843 H   0  0  0  0  0  0
    7.7142    6.1402   19.8240 H   0  0  0  0  0  0
    7.9019    6.5333   21.5666 H   0  0  0  0  0  0
    9.7846    7.9716   21.1224 H   0  0  0  0  0  0
    9.8852    7.4132   19.4181 H   0  0  0  0  0  0
    7.6023    8.3738   19.0324 H   0  0  0  0  0  0
    7.6522    9.0456   20.6976 H   0  0  0  0  0  0
    9.4592   10.4760   20.2072 H   0  0  0  0  0  0
    9.9852    9.4863   18.8034 H   0  0  0  0  0  0
    8.0092   10.2105   17.5362 H   0  0  0  0  0  0
    7.4473   11.1737   18.9445 H   0  0  0  0  0  0
    8.7169   12.4988   17.1862 H   0  0  0  0  0  0
    9.4018   12.5948   18.8440 H   0  0  0  0  0  0
   11.0128   10.7799   18.2398 H   0  0  0  0  0  0
   10.3694   10.8073   16.5629 H   0  0  0  0  0  0
   12.1070   12.2821   16.2928 H   0  0  0  0  0  0
   10.8564   13.4398   16.8606 H   0  0  0  0  0  0
   12.5650   11.9810   18.8773 H   0  0  0  0  0  0
   11.7620   13.5835   18.9950 H   0  0  0  0  0  0
  1  2  2  0  0  0
  1  3  1  0  0  0
  1  4  2  0  0  0
  1  5  1  0  0  0
  3  6  1  0  0  0
  6 17  1  0  0  0
  6 18  1  0  0  0
  6 19  1  0  0  0
  7  8  1  0  0  0
  7 20  1  0  0  0
  7 21  1  0  0  0
  7 22  1  0  0  0
  8  9  1  0  0  0
  8 23  1  0  0  0
  8 24  1  0  0  0
  9 10  1  0  0  0
  9 25  1  0  0  0
  9 26  1  0  0  0
 10 11  1  0  0  0
 10 27  1  0  0  0
 10 28  1  0  0  0
 11 12  1  0  0  0
 11 29  1  0  0  0
 11 30  1  0  0  0
 12 13  1  0  0  0
 12 31  1  0  0  0
 12 32  1  0  0  0
 13 14  1  0  0  0
 13 33  1  0  0  0
 13 34  1  0  0  0
 14 15  1  0  0  0
 14 35  1  0  0  0
 14 36  1  0  0  0
 15 16  1  0  0  0
 15 37  1  0  0  0
 15 38  1  0  0  0
 16 17  1  0  0  0
 16 39  1  0  0  0
 16 40  1  0  0  0
 17 41  1  0  0  0
 17 42  1  0  0  0
M  CHG  1   5  -1
M  END
> <s_m_source_file>
../4qip_ligand.sdf

> <i_m_source_file_index>
1

> <s_epik_input>
Tz1TKD1PKShbT0hdKU9bQ0gyXVtDSDJdW0NIMl1bQ0gyXVtDSDJdW0NIMl1bQ0gyXVtDSDJdW0NIMl1bQ0gyXVtDSDJdW0NIM10=

> <s_epik_cmdline>
J2VwaWtfYXBwJywgJy1pbWFlJywgJ2xpZ2FuZF9wcm8ubWFlJywgJy1vbWFlJywgJ2xpZ2FuZF9wcmVwLm1hZScsICctbXMnLCAnMScsICctcGgnLCAnNycsICctcGh0JywgJzAuNScsICctbnQn

> <r_lp_tautomer_probability>
1

> <r_epik_Ionization_Penalty>
  0.0000

> <r_epik_Ionization_Penalty_Charging>
  0.0000

> <r_epik_Ionization_Penalty_Neutral>
  0.0000

> <r_epik_State_Penalty>
 -0.0000

> <r_epik_Charging_Adjusted_Penalty>
1.63762416486134e-10

> <i_epik_Tot_Q>
-1

> <i_epik_Tot_abs_Q>
1

$$$$
