4qir_ligand
                    3D
 Schrodinger Suite 2020-3.
 47 48  0  0  1  0            999 V2000
    9.2640   44.3260   15.0850 P   0  0  2  0  0  0
   11.6930   43.7780   16.2940 C   0  0  0  0  0  0
   11.0670   44.5300   15.1310 C   0  0  2  0  0  0
   13.2010   43.6870   16.2360 C   0  0  0  0  0  0
   13.7490   42.9350   17.4540 C   0  0  0  0  0  0
   11.3700   45.9640   15.1980 N   0  3  0  0  0  0
    8.7530   42.5920   14.8880 C   0  0  0  0  0  0
    8.7020   45.1070   13.9290 O   0  5  0  0  0  0
    8.3580   41.8690   16.1670 C   0  0  2  0  0  0
    8.7040   44.7280   16.3580 O   0  0  0  0  0  0
    9.4610   40.9640   16.6460 C   0  0  0  0  0  0
    7.2560   40.8920   15.8750 C   0  0  0  0  0  0
   15.0270   43.2060   17.9030 C   0  0  0  0  0  0
    5.8770   41.4400   16.1810 C   0  0  0  0  0  0
   15.5340   42.5460   18.9800 N   0  0  0  0  0  0
   14.7810   41.6030   19.6320 C   0  0  0  0  0  0
   13.4940   41.2890   19.1810 C   0  0  0  0  0  0
   12.9970   41.9680   18.1080 C   0  0  0  0  0  0
    9.7030   40.7780   17.8680 O   0  5  0  0  0  0
   10.1560   40.4030   15.7950 O   0  0  0  0  0  0
    5.0510   41.7850   15.1200 C   0  0  0  0  0  0
    3.7740   42.2660   15.3520 C   0  0  0  0  0  0
    3.3110   42.4070   16.6560 C   0  0  0  0  0  0
    4.1270   42.0620   17.7250 C   0  0  0  0  0  0
    5.4120   41.5750   17.4890 C   0  0  0  0  0  0
   11.4370   44.2827   17.2373 H   0  0  0  0  0  0
   11.3089   42.7474   16.3136 H   0  0  0  0  0  0
   11.6883   44.1902   14.2893 H   0  0  0  0  0  0
   13.5011   43.1504   15.3239 H   0  0  0  0  0  0
   13.6293   44.7001   16.2230 H   0  0  0  0  0  0
   10.9036   46.4776   14.3444 H   0  0  0  0  0  0
   12.4596   46.1105   15.1633 H   0  0  0  0  0  0
   10.9739   46.3790   16.1366 H   0  0  0  0  0  0
    7.8781   42.5409   14.2232 H   0  0  0  0  0  0
    9.5800   42.0134   14.4507 H   0  0  0  0  0  0
    8.0925   42.6459   16.8990 H   0  0  0  0  0  0
    7.2777   40.6228   14.8087 H   0  0  0  0  0  0
    7.3970   39.9872   16.4845 H   0  0  0  0  0  0
   15.6334   43.9534   17.3914 H   0  0  0  0  0  0
   15.1875   41.0952   20.5066 H   0  0  0  0  0  0
   12.9023   40.5191   19.6762 H   0  0  0  0  0  0
   11.9891   41.7473   17.7565 H   0  0  0  0  0  0
    5.4106   41.6763   14.0968 H   0  0  0  0  0  0
    3.1316   42.5341   14.5133 H   0  0  0  0  0  0
    2.3065   42.7887   16.8388 H   0  0  0  0  0  0
    3.7638   42.1717   18.7468 H   0  0  0  0  0  0
    6.0530   41.2998   18.3265 H   0  0  0  0  0  0
  1  3  1  0  0  0
  1  7  1  0  0  0
  1  8  1  0  0  0
  1 10  2  0  0  0
  2  3  1  0  0  0
  2  4  1  0  0  0
  2 26  1  0  0  0
  2 27  1  0  0  0
  3  6  1  0  0  0
  3 28  1  0  0  0
  4  5  1  0  0  0
  4 29  1  0  0  0
  4 30  1  0  0  0
  5 13  2  0  0  0
  5 18  1  0  0  0
  6 31  1  0  0  0
  6 32  1  0  0  0
  6 33  1  0  0  0
  7  9  1  0  0  0
  7 34  1  0  0  0
  7 35  1  0  0  0
  9 11  1  0  0  0
  9 12  1  0  0  0
  9 36  1  0  0  0
 11 19  1  0  0  0
 11 20  2  0  0  0
 12 14  1  0  0  0
 12 37  1  0  0  0
 12 38  1  0  0  0
 13 15  1  0  0  0
 13 39  1  0  0  0
 14 21  2  0  0  0
 14 25  1  0  0  0
 15 16  2  0  0  0
 16 17  1  0  0  0
 16 40  1  0  0  0
 17 18  2  0  0  0
 17 41  1  0  0  0
 18 42  1  0  0  0
 21 22  1  0  0  0
 21 43  1  0  0  0
 22 23  2  0  0  0
 22 44  1  0  0  0
 23 24  1  0  0  0
 23 45  1  0  0  0
 24 25  2  0  0  0
 24 46  1  0  0  0
 25 47  1  0  0  0
M  CHG  3   6   1   8  -1  19  -1
M  END
> <s_m_source_file>
../4qir_ligand.sdf

> <i_m_source_file_index>
1

> <s_epik_input>
W2NIXTFbY0hdW2NIXVtjSF1bY0hdYzFbQ0gyXVtDQEBIXShDKD1PKVtPSF0pW0NIMl1bUEBdKD1PKShbT0hdKVtDQEBIXShbTkgzK10pW0NIMl1bQ0gyXWMyW2NIXW5bY0hdW2NIXVtjSF0y

> <s_epik_cmdline>
J2VwaWtfYXBwJywgJy1pbWFlJywgJ2xpZ2FuZF9wcm8ubWFlJywgJy1vbWFlJywgJ2xpZ2FuZF9wcmVwLm1hZScsICctbXMnLCAnMScsICctcGgnLCAnNycsICctcGh0JywgJzAuNScsICctbnQn

> <r_epik_Ionization_Penalty>
  0.0119

> <r_epik_Ionization_Penalty_Charging>
  0.0024

> <r_epik_Ionization_Penalty_Neutral>
  0.0095

> <r_epik_State_Penalty>
  0.0072

> <r_epik_Charging_Adjusted_Penalty>
0.00960913782809842

> <i_epik_Tot_Q>
-1

> <i_epik_Tot_abs_Q>
3

$$$$
