4qiy_ligand
                    3D
 Schrodinger Suite 2020-3.
 56 58  0  0  1  0            999 V2000
    4.0670    3.0700    6.9020 O   0  0  0  0  0  0
    3.0490    3.9840    7.6530 S   0  0  0  0  0  0
    3.5570    5.4380    7.5670 O   0  0  0  0  0  0
    1.5770    3.6850    9.9530 C   0  0  0  0  0  0
    1.3220    5.0360    9.9960 O   0  0  0  0  0  0
    2.9500    3.3520    9.3450 C   0  0  0  0  0  0
    1.4550    3.8710    6.8300 C   0  0  0  0  0  0
    0.9810    2.5410    6.7590 C   0  0  0  0  0  0
    1.6930    1.5300    7.4110 F   0  0  0  0  0  0
   -0.1860    2.2530    6.1380 C   0  0  0  0  0  0
   -0.5740    0.9370    6.2350 F   0  0  0  0  0  0
    0.6860    4.8610    6.2170 C   0  0  0  0  0  0
   -0.4160    4.5000    5.4380 C   0  0  0  0  0  0
   -1.0660    5.4940    4.7880 F   0  0  0  0  0  0
   -0.9530    3.2100    5.3990 C   0  0  0  0  0  0
   -2.2910    2.7750    4.1690 S   0  0  0  0  0  0
   -3.6050    3.2500    4.6050 O   0  0  0  0  0  0
   -2.2490    1.1940    4.3250 N   0  0  0  0  0  0
   -1.8310    3.1260    2.8930 O   0  0  0  0  0  0
    1.1960    6.2210    6.2710 N   0  0  0  0  0  0
    0.3000    7.3670    6.4350 C   0  0  2  0  0  0
    0.4350    8.3330    5.3310 C   0  0  0  0  0  0
    1.6780    8.6050    4.7290 C   0  0  0  0  0  0
    1.7470    9.5720    3.6940 C   0  0  0  0  0  0
    0.5770   10.3540    3.3050 C   0  0  0  0  0  0
   -0.6170   10.0880    3.9630 C   0  0  0  0  0  0
   -0.7400    9.0650    4.9740 C   0  0  0  0  0  0
    0.6180    8.0340    7.8120 C   0  0  1  0  0  0
    2.0070    8.3670    7.8490 O   0  0  0  0  0  0
   -0.2400    9.2230    8.1530 C   0  0  0  0  0  0
    0.1930   10.5430    7.9570 C   0  0  0  0  0  0
   -0.6890   11.6170    8.3090 C   0  0  0  0  0  0
   -1.9390   11.3380    8.8140 C   0  0  0  0  0  0
   -2.3480   10.0280    9.0080 C   0  0  0  0  0  0
   -1.4960    8.9960    8.6400 C   0  0  0  0  0  0
    1.5551    3.2751   10.9735 H   0  0  0  0  0  0
    0.8108    3.1865    9.3411 H   0  0  0  0  0  0
    0.3712    5.4034   10.4096 H   0  0  0  0  0  0
    3.0867    2.2605    9.3373 H   0  0  0  0  0  0
    3.7380    3.8159    9.9564 H   0  0  0  0  0  0
   -2.9942    0.7396    3.6555 H   0  0  0  0  0  0
   -2.4772    0.9221    5.3661 H   0  0  0  0  0  0
    2.2812    6.3791    6.1856 H   0  0  0  0  0  0
   -0.7317    6.9946    6.3516 H   0  0  0  0  0  0
    2.5758    8.0792    5.0541 H   0  0  0  0  0  0
    2.6933    9.7349    3.1781 H   0  0  0  0  0  0
    0.6381   11.1167    2.5287 H   0  0  0  0  0  0
   -1.4977   10.6762    3.7052 H   0  0  0  0  0  0
   -1.6983    8.8572    5.4501 H   0  0  0  0  0  0
    0.4421    7.3280    8.6370 H   0  0  0  0  0  0
    2.7626    7.6005    7.6219 H   0  0  0  0  0  0
    1.1811   10.7480    7.5450 H   0  0  0  0  0  0
   -0.3709   12.6512    8.1772 H   0  0  0  0  0  0
   -2.6144   12.1562    9.0640 H   0  0  0  0  0  0
   -3.3238    9.8116    9.4429 H   0  0  0  0  0  0
   -1.8415    7.9674    8.7433 H   0  0  0  0  0  0
  1  2  2  0  0  0
  2  3  2  0  0  0
  2  6  1  0  0  0
  2  7  1  0  0  0
  4  5  1  0  0  0
  4  6  1  0  0  0
  4 36  1  0  0  0
  4 37  1  0  0  0
  5 38  1  0  0  0
  6 39  1  0  0  0
  6 40  1  0  0  0
  7  8  2  0  0  0
  7 12  1  0  0  0
  8  9  1  0  0  0
  8 10  1  0  0  0
 10 11  1  0  0  0
 10 15  2  0  0  0
 12 13  2  0  0  0
 12 20  1  0  0  0
 13 14  1  0  0  0
 13 15  1  0  0  0
 15 16  1  0  0  0
 16 17  2  0  0  0
 16 18  1  0  0  0
 16 19  2  0  0  0
 18 41  1  0  0  0
 18 42  1  0  0  0
 20 21  1  0  0  0
 20 43  1  0  0  0
 21 22  1  0  0  0
 21 28  1  0  0  0
 21 44  1  0  0  0
 22 23  2  0  0  0
 22 27  1  0  0  0
 23 24  1  0  0  0
 23 45  1  0  0  0
 24 25  2  0  0  0
 24 46  1  0  0  0
 25 26  1  0  0  0
 25 47  1  0  0  0
 26 27  2  0  0  0
 26 48  1  0  0  0
 27 49  1  0  0  0
 28 29  1  0  0  0
 28 30  1  0  0  0
 28 50  1  0  0  0
 29 51  1  0  0  0
 30 31  2  0  0  0
 30 35  1  0  0  0
 31 32  1  0  0  0
 31 52  1  0  0  0
 32 33  2  0  0  0
 32 53  1  0  0  0
 33 34  1  0  0  0
 33 54  1  0  0  0
 34 35  2  0  0  0
 34 55  1  0  0  0
 35 56  1  0  0  0
M  END
> <s_m_source_file>
../4qiy_ligand.sdf

> <i_m_source_file_index>
1

> <s_epik_input>
W09IXVtDSDJdW0NIMl1TKD1PKSg9TyljMWMoRiljKEYpYyhTKD1PKSg9TylbTkgyXSljKEYpYzFbTkhdW0NASF0oYzJbY0hdW2NIXVtjSF1bY0hdW2NIXTIpW0NAQEhdKFtPSF0pYzNbY0hdW2NIXVtjSF1bY0hdW2NIXTM=

> <s_epik_cmdline>
J2VwaWtfYXBwJywgJy1pbWFlJywgJ2xpZ2FuZF9wcm8ubWFlJywgJy1vbWFlJywgJ2xpZ2FuZF9wcmVwLm1hZScsICctbXMnLCAnMScsICctcGgnLCAnNycsICctcGh0JywgJzAuNScsICctbnQn

> <r_epik_Ionization_Penalty>
  0.0168

> <r_epik_Ionization_Penalty_Charging>
  0.0000

> <r_epik_Ionization_Penalty_Neutral>
  0.0168

> <r_epik_State_Penalty>
  0.0122

> <r_epik_Charging_Adjusted_Penalty>
0.0122182769276764

> <i_epik_Tot_Q>
0

> <i_epik_Tot_abs_Q>
0

$$$$
