4qiz_ligand
                    3D
 Schrodinger Suite 2020-3.
 56 58  0  0  1  0            999 V2000
    3.6710  -25.2900  -13.5270 O   0  0  0  0  0  0
    4.6410  -24.1940  -14.1330 S   0  0  0  0  0  0
    3.7810  -22.9340  -14.4500 O   0  0  0  0  0  0
    6.8870  -24.4360  -15.7820 C   0  0  0  0  0  0
    6.7740  -23.0440  -15.7910 O   0  0  0  0  0  0
    5.4150  -24.8770  -15.6260 C   0  0  0  0  0  0
    5.5700  -23.8580  -12.6010 C   0  0  0  0  0  0
    6.0890  -25.0680  -12.0710 C   0  0  0  0  0  0
    5.9530  -26.3750  -12.7820 F   0  0  0  0  0  0
    6.8620  -24.9590  -10.8330 C   0  0  0  0  0  0
    7.3050  -26.1550  -10.4240 F   0  0  0  0  0  0
    5.7170  -22.5270  -11.9910 C   0  0  0  0  0  0
    6.4280  -22.6000  -10.7860 C   0  0  0  0  0  0
    6.6140  -21.4820  -10.0030 F   0  0  0  0  0  0
    7.0100  -23.7370  -10.1340 C   0  0  0  0  0  0
    7.8740  -23.7330   -8.4150 S   0  0  0  0  0  0
    9.1550  -22.9800   -8.1190 O   0  0  0  0  0  0
    8.2010  -25.3730   -8.1690 N   0  0  0  0  0  0
    6.9740  -23.3610   -7.2890 O   0  0  0  0  0  0
    5.0760  -21.2360  -12.6140 N   0  0  0  0  0  0
    5.4130  -20.0420  -13.4120 C   0  0  2  0  0  0
    5.1270  -20.0440  -14.9160 C   0  0  0  0  0  0
    3.8230  -20.2960  -15.4390 C   0  0  0  0  0  0
    3.5770  -20.3280  -16.8470 C   0  0  0  0  0  0
    4.6280  -20.1220  -17.7780 C   0  0  0  0  0  0
    5.9370  -19.8760  -17.3190 C   0  0  0  0  0  0
    6.1560  -19.8550  -15.9180 C   0  0  0  0  0  0
    6.8690  -19.8020  -13.4040 C   0  0  1  0  0  0
    7.5110  -20.8510  -14.0730 O   0  0  0  0  0  0
    7.2560  -18.3980  -13.8520 C   0  0  0  0  0  0
    8.6320  -18.1430  -14.0650 C   0  0  0  0  0  0
    9.1010  -16.8580  -14.3570 C   0  0  0  0  0  0
    8.2390  -15.8140  -14.5210 C   0  0  0  0  0  0
    6.8670  -16.0620  -14.3710 C   0  0  0  0  0  0
    6.3320  -17.3150  -14.0250 C   0  0  0  0  0  0
    7.3401  -24.7732  -16.7259 H   0  0  0  0  0  0
    7.5216  -24.7469  -14.9390 H   0  0  0  0  0  0
    7.6741  -22.4198  -15.8916 H   0  0  0  0  0  0
    5.3932  -25.9758  -15.5804 H   0  0  0  0  0  0
    4.8628  -24.5359  -16.5141 H   0  0  0  0  0  0
    8.7047  -25.5051   -7.2001 H   0  0  0  0  0  0
    8.8531  -25.7417   -8.9745 H   0  0  0  0  0  0
    4.0428  -21.3952  -12.2718 H   0  0  0  0  0  0
    4.7799  -19.3155  -12.8815 H   0  0  0  0  0  0
    2.9964  -20.4679  -14.7496 H   0  0  0  0  0  0
    2.5665  -20.5135  -17.2110 H   0  0  0  0  0  0
    4.4225  -20.1541  -18.8480 H   0  0  0  0  0  0
    6.7556  -19.7071  -18.0186 H   0  0  0  0  0  0
    7.1744  -19.6839  -15.5692 H   0  0  0  0  0  0
    7.2576  -19.9066  -12.3803 H   0  0  0  0  0  0
    7.2846  -21.8938  -13.8061 H   0  0  0  0  0  0
    9.3425  -18.9671  -14.0000 H   0  0  0  0  0  0
   10.1732  -16.6882  -14.4551 H   0  0  0  0  0  0
    8.6057  -14.8161  -14.7616 H   0  0  0  0  0  0
    6.1752  -15.2352  -14.5320 H   0  0  0  0  0  0
    5.2594  -17.4575  -13.8936 H   0  0  0  0  0  0
  1  2  2  0  0  0
  2  3  2  0  0  0
  2  6  1  0  0  0
  2  7  1  0  0  0
  4  5  1  0  0  0
  4  6  1  0  0  0
  4 36  1  0  0  0
  4 37  1  0  0  0
  5 38  1  0  0  0
  6 39  1  0  0  0
  6 40  1  0  0  0
  7  8  2  0  0  0
  7 12  1  0  0  0
  8  9  1  0  0  0
  8 10  1  0  0  0
 10 11  1  0  0  0
 10 15  2  0  0  0
 12 13  2  0  0  0
 12 20  1  0  0  0
 13 14  1  0  0  0
 13 15  1  0  0  0
 15 16  1  0  0  0
 16 17  2  0  0  0
 16 18  1  0  0  0
 16 19  2  0  0  0
 18 41  1  0  0  0
 18 42  1  0  0  0
 20 21  1  0  0  0
 20 43  1  0  0  0
 21 22  1  0  0  0
 21 28  1  0  0  0
 21 44  1  0  0  0
 22 23  2  0  0  0
 22 27  1  0  0  0
 23 24  1  0  0  0
 23 45  1  0  0  0
 24 25  2  0  0  0
 24 46  1  0  0  0
 25 26  1  0  0  0
 25 47  1  0  0  0
 26 27  2  0  0  0
 26 48  1  0  0  0
 27 49  1  0  0  0
 28 29  1  0  0  0
 28 30  1  0  0  0
 28 50  1  0  0  0
 29 51  1  0  0  0
 30 31  2  0  0  0
 30 35  1  0  0  0
 31 32  1  0  0  0
 31 52  1  0  0  0
 32 33  2  0  0  0
 32 53  1  0  0  0
 33 34  1  0  0  0
 33 54  1  0  0  0
 34 35  2  0  0  0
 34 55  1  0  0  0
 35 56  1  0  0  0
M  END
> <s_m_source_file>
../4qiz_ligand.sdf

> <i_m_source_file_index>
1

> <s_epik_input>
W09IXVtDSDJdW0NIMl1TKD1PKSg9TyljMWMoRiljKEYpYyhTKD1PKSg9TylbTkgyXSljKEYpYzFbTkhdW0NASF0oYzJbY0hdW2NIXVtjSF1bY0hdW2NIXTIpW0NAQEhdKFtPSF0pYzNbY0hdW2NIXVtjSF1bY0hdW2NIXTM=

> <s_epik_cmdline>
J2VwaWtfYXBwJywgJy1pbWFlJywgJ2xpZ2FuZF9wcm8ubWFlJywgJy1vbWFlJywgJ2xpZ2FuZF9wcmVwLm1hZScsICctbXMnLCAnMScsICctcGgnLCAnNycsICctcGh0JywgJzAuNScsICctbnQn

> <r_epik_Ionization_Penalty>
  0.0168

> <r_epik_Ionization_Penalty_Charging>
  0.0000

> <r_epik_Ionization_Penalty_Neutral>
  0.0168

> <r_epik_State_Penalty>
  0.0122

> <r_epik_Charging_Adjusted_Penalty>
0.0122182769276763

> <i_epik_Tot_Q>
0

> <i_epik_Tot_abs_Q>
0

$$$$
