4qjr_ligand
                    3D
 Schrodinger Suite 2020-3.
143143  0  0  1  0            999 V2000
  -17.9820   37.0660   -4.2800 C   0  0  0  0  0  0
  -18.5670   36.6440   -5.6250 C   0  0  0  0  0  0
  -18.7330   37.8340   -6.5680 C   0  0  0  0  0  0
  -20.1530   38.4200   -6.4780 C   0  0  0  0  0  0
  -20.9920   38.0360   -7.6690 C   0  0  0  0  0  0
  -22.3030   38.8070   -7.7360 C   0  0  0  0  0  0
  -23.4730   37.9830   -7.1920 C   0  0  0  0  0  0
  -24.5510   37.7280   -8.2630 C   0  0  0  0  0  0
  -24.0320   36.8200   -9.4080 C   0  0  0  0  0  0
  -25.0750   36.6560  -10.5310 C   0  0  0  0  0  0
  -24.4590   36.9360  -11.9290 C   0  0  0  0  0  0
  -24.8980   38.2690  -12.5090 C   0  0  0  0  0  0
  -23.6700   39.0500  -13.0470 C   0  0  0  0  0  0
  -23.8960   40.5550  -13.1790 C   0  0  0  0  0  0
  -22.6180   41.2270  -13.7240 C   0  0  0  0  0  0
  -22.8830   42.5050  -14.5640 C   0  0  0  0  0  0
  -23.8230   42.4760  -15.3500 O   0  0  0  0  0  0
  -21.7300   43.2790  -14.9140 O   0  0  0  0  0  0
  -21.6530   44.6580  -14.4030 C   0  0  2  0  0  0
  -23.0540   45.3040  -14.4120 C   0  0  0  0  0  0
  -23.0240   46.3750  -13.4740 O   0  0  0  0  0  0
  -23.8380   46.2150  -12.1310 P   0  0  1  0  0  0
  -24.2610   44.7720  -11.9620 O   0  5  0  0  0  0
  -22.9920   46.6540  -10.9660 O   0  0  0  0  0  0
  -25.1790   47.1560  -12.2280 O   0  0  0  0  0  0
  -24.9820   48.6020  -12.3210 C   0  0  2  0  0  0
  -25.4440   49.2290  -11.0280 C   0  0  2  0  0  0
  -26.6880   48.6470  -10.6790 O   0  0  0  0  0  0
  -25.6090   50.7510  -11.1100 C   0  0  2  0  0  0
  -26.2270   51.1780   -9.8990 O   0  0  0  0  0  0
  -25.4100   52.2610   -9.0410 P   0  0  0  0  0  0
  -26.2890   52.8010   -7.9400 O   0  5  0  0  0  0
  -24.1840   51.6120   -8.4580 O   0  0  0  0  0  0
  -24.9750   53.3930   -9.9490 O   0  5  0  0  0  0
  -26.4140   51.2400  -12.3230 C   0  0  1  0  0  0
  -26.2090   52.6570  -12.4700 O   0  0  0  0  0  0
  -27.4800   53.5760  -12.3690 P   0  0  0  0  0  0
  -28.0290   53.5230  -10.9650 O   0  5  0  0  0  0
  -27.0990   55.0000  -12.7110 O   0  5  0  0  0  0
  -28.5270   53.0890  -13.3310 O   0  0  0  0  0  0
  -26.0170   50.5800  -13.6440 C   0  0  2  0  0  0
  -27.0610   50.8050  -14.6020 O   0  0  0  0  0  0
  -26.6510   51.4870  -16.0060 P   0  0  0  0  0  0
  -27.8920   52.0180  -16.6840 O   0  0  0  0  0  0
  -25.6870   52.6280  -15.7580 O   0  5  0  0  0  0
  -25.9830   50.4510  -16.8920 O   0  0  0  0  0  0
  -25.7650   49.0750  -13.5630 C   0  0  1  0  0  0
  -25.1020   48.6510  -14.7120 O   0  0  0  0  0  0
  -20.6470   45.4210  -15.2700 C   0  0  0  0  0  0
  -19.8220   44.4330  -15.9300 O   0  0  0  0  0  0
  -18.4900   44.3550  -15.4830 C   0  0  0  0  0  0
  -18.0810   45.1190  -14.6170 O   0  0  0  0  0  0
  -17.6080   43.2020  -15.9770 C   0  0  0  0  0  0
  -18.3530   41.8410  -15.8880 C   0  0  0  0  0  0
  -18.0160   41.0500  -14.5510 C   0  0  0  0  0  0
  -19.0310   39.9470  -14.2740 C   0  0  0  0  0  0
  -18.8800   39.3430  -12.8640 C   0  0  0  0  0  0
  -19.6430   37.9950  -12.7240 C   0  0  0  0  0  0
  -19.3300   37.2880  -11.3910 C   0  0  0  0  0  0
  -19.5350   35.7690  -11.4850 C   0  0  0  0  0  0
  -19.5080   35.0760  -10.0940 C   0  0  0  0  0  0
  -20.2860   33.7560  -10.0920 C   0  0  0  0  0  0
  -20.6720   33.3140   -8.6440 C   0  0  0  0  0  0
  -21.6030   34.3830   -7.9440 C   0  0  0  0  0  0
  -22.7140   33.7320   -7.1330 C   0  0  0  0  0  0
  -23.0450   34.5110   -5.8670 C   0  0  0  0  0  0
  -24.3020   33.9980   -5.2100 C   0  0  0  0  0  0
  -17.8786   36.1832   -3.6319 H   0  0  0  0  0  0
  -18.6518   37.7957   -3.8016 H   0  0  0  0  0  0
  -16.9940   37.5233   -4.4372 H   0  0  0  0  0  0
  -17.8972   35.9143   -6.1034 H   0  0  0  0  0  0
  -19.5550   36.1867   -5.4679 H   0  0  0  0  0  0
  -18.0113   38.6191   -6.2982 H   0  0  0  0  0  0
  -18.5519   37.5095   -7.6033 H   0  0  0  0  0  0
  -20.6481   38.0438   -5.5706 H   0  0  0  0  0  0
  -20.0947   39.5176   -6.4356 H   0  0  0  0  0  0
  -20.4323   38.2415   -8.5934 H   0  0  0  0  0  0
  -21.2334   36.9641   -7.6172 H   0  0  0  0  0  0
  -22.2189   39.7260   -7.1373 H   0  0  0  0  0  0
  -22.5211   39.0694   -8.7818 H   0  0  0  0  0  0
  -23.1030   37.0087   -6.8401 H   0  0  0  0  0  0
  -23.9425   38.5208   -6.3552 H   0  0  0  0  0  0
  -25.4180   37.2340   -7.8002 H   0  0  0  0  0  0
  -24.8660   38.6863   -8.7017 H   0  0  0  0  0  0
  -23.1240   37.2624   -9.8438 H   0  0  0  0  0  0
  -23.7980   35.8225   -9.0076 H   0  0  0  0  0  0
  -25.4639   35.6271  -10.5228 H   0  0  0  0  0  0
  -25.9027   37.3621  -10.3687 H   0  0  0  0  0  0
  -23.3619   36.9487  -11.8504 H   0  0  0  0  0  0
  -24.7672   36.1466  -12.6303 H   0  0  0  0  0  0
  -25.6038   38.0950  -13.3346 H   0  0  0  0  0  0
  -25.3892   38.8656  -11.7262 H   0  0  0  0  0  0
  -22.8185   38.9095  -12.3649 H   0  0  0  0  0  0
  -23.4053   38.6739  -14.0462 H   0  0  0  0  0  0
  -24.7298   40.7412  -13.8719 H   0  0  0  0  0  0
  -24.1378   40.9774  -12.1925 H   0  0  0  0  0  0
  -21.9711   41.5201  -12.8840 H   0  0  0  0  0  0
  -22.0796   40.5197  -14.3719 H   0  0  0  0  0  0
  -21.2987   44.6355  -13.3619 H   0  0  0  0  0  0
  -23.2790   45.6776  -15.4218 H   0  0  0  0  0  0
  -23.8053   44.5545  -14.1226 H   0  0  0  0  0  0
  -23.9174   48.8575  -12.4273 H   0  0  0  0  0  0
  -24.7160   48.9884  -10.2393 H   0  0  0  0  0  0
  -26.7736   47.5557  -10.5707 H   0  0  0  0  0  0
  -24.6196   51.2276  -11.1729 H   0  0  0  0  0  0
  -27.4778   51.0374  -12.1302 H   0  0  0  0  0  0
  -25.0911   51.0628  -13.9898 H   0  0  0  0  0  0
  -26.5298   49.5423  -17.1841 H   0  0  0  0  0  0
  -26.7452   48.5759  -13.5729 H   0  0  0  0  0  0
  -24.8345   47.5909  -14.8331 H   0  0  0  0  0  0
  -21.1879   46.0313  -16.0082 H   0  0  0  0  0  0
  -20.0346   46.0749  -14.6317 H   0  0  0  0  0  0
  -17.3271   43.3786  -17.0258 H   0  0  0  0  0  0
  -16.6999   43.1442  -15.3590 H   0  0  0  0  0  0
  -19.4388   42.0150  -15.9144 H   0  0  0  0  0  0
  -18.0624   41.2075  -16.7390 H   0  0  0  0  0  0
  -17.0210   40.5893  -14.6385 H   0  0  0  0  0  0
  -18.0236   41.7475  -13.7005 H   0  0  0  0  0  0
  -20.0488   40.3555  -14.3591 H   0  0  0  0  0  0
  -18.8993   39.1355  -15.0048 H   0  0  0  0  0  0
  -17.8156   39.1588  -12.6561 H   0  0  0  0  0  0
  -19.2829   40.0451  -12.1192 H   0  0  0  0  0  0
  -20.7263   38.1807  -12.7673 H   0  0  0  0  0  0
  -19.3531   37.3226  -13.5449 H   0  0  0  0  0  0
  -18.2827   37.4771  -11.1127 H   0  0  0  0  0  0
  -19.9942   37.6767  -10.6050 H   0  0  0  0  0  0
  -20.5101   35.5586  -11.9486 H   0  0  0  0  0  0
  -18.7349   35.3282  -12.0978 H   0  0  0  0  0  0
  -18.4669   34.8602   -9.8120 H   0  0  0  0  0  0
  -19.9606   35.7413   -9.3440 H   0  0  0  0  0  0
  -21.2109   33.8746  -10.6755 H   0  0  0  0  0  0
  -19.6676   32.9652  -10.5417 H   0  0  0  0  0  0
  -21.2100   32.3554   -8.6844 H   0  0  0  0  0  0
  -19.7596   33.1972   -8.0408 H   0  0  0  0  0  0
  -21.0014   35.0038   -7.2638 H   0  0  0  0  0  0
  -22.0674   35.0221   -8.7094 H   0  0  0  0  0  0
  -23.6274   33.6735   -7.7432 H   0  0  0  0  0  0
  -22.4058   32.7186   -6.8362 H   0  0  0  0  0  0
  -22.2158   34.4156   -5.1505 H   0  0  0  0  0  0
  -23.1930   35.5718   -6.1174 H   0  0  0  0  0  0
  -24.5067   34.5843   -4.3021 H   0  0  0  0  0  0
  -24.1694   32.9397   -4.9409 H   0  0  0  0  0  0
  -25.1466   34.0959   -5.9079 H   0  0  0  0  0  0
  1  2  1  0  0  0
  1 68  1  0  0  0
  1 69  1  0  0  0
  1 70  1  0  0  0
  2  3  1  0  0  0
  2 71  1  0  0  0
  2 72  1  0  0  0
  3  4  1  0  0  0
  3 73  1  0  0  0
  3 74  1  0  0  0
  4  5  1  0  0  0
  4 75  1  0  0  0
  4 76  1  0  0  0
  5  6  1  0  0  0
  5 77  1  0  0  0
  5 78  1  0  0  0
  6  7  1  0  0  0
  6 79  1  0  0  0
  6 80  1  0  0  0
  7  8  1  0  0  0
  7 81  1  0  0  0
  7 82  1  0  0  0
  8  9  1  0  0  0
  8 83  1  0  0  0
  8 84  1  0  0  0
  9 10  1  0  0  0
  9 85  1  0  0  0
  9 86  1  0  0  0
 10 11  1  0  0  0
 10 87  1  0  0  0
 10 88  1  0  0  0
 11 12  1  0  0  0
 11 89  1  0  0  0
 11 90  1  0  0  0
 12 13  1  0  0  0
 12 91  1  0  0  0
 12 92  1  0  0  0
 13 14  1  0  0  0
 13 93  1  0  0  0
 13 94  1  0  0  0
 14 15  1  0  0  0
 14 95  1  0  0  0
 14 96  1  0  0  0
 15 16  1  0  0  0
 15 97  1  0  0  0
 15 98  1  0  0  0
 16 17  2  0  0  0
 16 18  1  0  0  0
 18 19  1  0  0  0
 19 20  1  0  0  0
 19 49  1  0  0  0
 19 99  1  0  0  0
 20 21  1  0  0  0
 20100  1  0  0  0
 20101  1  0  0  0
 21 22  1  0  0  0
 22 23  1  0  0  0
 22 24  2  0  0  0
 22 25  1  0  0  0
 25 26  1  0  0  0
 26 27  1  0  0  0
 26 47  1  0  0  0
 26102  1  0  0  0
 27 28  1  0  0  0
 27 29  1  0  0  0
 27103  1  0  0  0
 28104  1  0  0  0
 29 30  1  0  0  0
 29 35  1  0  0  0
 29105  1  0  0  0
 30 31  1  0  0  0
 31 32  1  0  0  0
 31 33  2  0  0  0
 31 34  1  0  0  0
 35 36  1  0  0  0
 35 41  1  0  0  0
 35106  1  0  0  0
 36 37  1  0  0  0
 37 38  1  0  0  0
 37 39  1  0  0  0
 37 40  2  0  0  0
 41 42  1  0  0  0
 41 47  1  0  0  0
 41107  1  0  0  0
 42 43  1  0  0  0
 43 44  2  0  0  0
 43 45  1  0  0  0
 43 46  1  0  0  0
 46108  1  0  0  0
 47 48  1  0  0  0
 47109  1  0  0  0
 48110  1  0  0  0
 49 50  1  0  0  0
 49111  1  0  0  0
 49112  1  0  0  0
 50 51  1  0  0  0
 51 52  2  0  0  0
 51 53  1  0  0  0
 53 54  1  0  0  0
 53113  1  0  0  0
 53114  1  0  0  0
 54 55  1  0  0  0
 54115  1  0  0  0
 54116  1  0  0  0
 55 56  1  0  0  0
 55117  1  0  0  0
 55118  1  0  0  0
 56 57  1  0  0  0
 56119  1  0  0  0
 56120  1  0  0  0
 57 58  1  0  0  0
 57121  1  0  0  0
 57122  1  0  0  0
 58 59  1  0  0  0
 58123  1  0  0  0
 58124  1  0  0  0
 59 60  1  0  0  0
 59125  1  0  0  0
 59126  1  0  0  0
 60 61  1  0  0  0
 60127  1  0  0  0
 60128  1  0  0  0
 61 62  1  0  0  0
 61129  1  0  0  0
 61130  1  0  0  0
 62 63  1  0  0  0
 62131  1  0  0  0
 62132  1  0  0  0
 63 64  1  0  0  0
 63133  1  0  0  0
 63134  1  0  0  0
 64 65  1  0  0  0
 64135  1  0  0  0
 64136  1  0  0  0
 65 66  1  0  0  0
 65137  1  0  0  0
 65138  1  0  0  0
 66 67  1  0  0  0
 66139  1  0  0  0
 66140  1  0  0  0
 67141  1  0  0  0
 67142  1  0  0  0
 67143  1  0  0  0
M  CHG  6  23  -1  32  -1  34  -1  38  -1  39  -1  45  -1
M  END
> <s_m_source_file>
../4qjr_ligand.sdf

> <i_m_source_file_index>
1

> <s_epik_input>
W0NIM11bQ0gyXVtDSDJdW0NIMl1bQ0gyXVtDSDJdW0NIMl1bQ0gyXVtDSDJdW0NIMl1bQ0gyXVtDSDJdW0NIMl1bQ0gyXVtDSDJdQyg9TylPW0NASF0oW0NIMl1PW1BAXSg9TykoW09IXSlPW0NAQEhdMVtDQEhdKFtPSF0pW0NASF0oT1AoPU8pKFtPSF0pW09IXSlbQ0BASF0oT1AoPU8pKFtPSF0pW09IXSlbQ0BASF0oW0NASF0xW09IXSlPUCg9TykoW09IXSlbT0hdKVtDSDJdT0MoPU8pW0NIMl1bQ0gyXVtDSDJdW0NIMl1bQ0gyXVtDSDJdW0NIMl1bQ0gyXVtDSDJdW0NIMl1bQ0gyXVtDSDJdW0NIMl1bQ0gyXVtDSDNd

> <s_epik_cmdline>
J2VwaWtfYXBwJywgJy1pbWFlJywgJ2xpZ2FuZF9wcm8ubWFlJywgJy1vbWFlJywgJ2xpZ2FuZF9wcmVwLm1hZScsICctbXMnLCAnMScsICctcGgnLCAnNycsICctcGh0JywgJzAuNScsICctbnQn

> <r_epik_Ionization_Penalty>
  0.8777

> <r_epik_Ionization_Penalty_Charging>
  0.1768

> <r_epik_Ionization_Penalty_Neutral>
  0.7009

> <r_epik_State_Penalty>
  0.3329

> <r_epik_Charging_Adjusted_Penalty>
0.509747525913791

> <i_epik_Tot_Q>
-6

> <i_epik_Tot_abs_Q>
6

> <s_epik_Chemistry_Notes>
This compound has an ester and may undergo hydrolysis at high or low pH.

$$$$
