4qjw_ligand
                    3D
 Schrodinger Suite 2020-3.
 42 43  0  0  1  0            999 V2000
   -5.8860   17.6870   -5.8290 F   0  0  0  0  0  0
   -4.6250   17.8400   -5.3510 C   0  0  0  0  0  0
   -3.7640   16.7350   -5.3570 C   0  0  0  0  0  0
   -4.3520   15.1570   -5.9950 S   0  0  0  0  0  0
   -4.7330   15.1810   -7.4840 O   0  0  0  0  0  0
   -3.2680   13.7760   -5.8290 N   0  0  0  0  0  0
   -5.6650   14.7080   -5.3370 O   0  0  0  0  0  0
   -2.4570   16.8670   -4.8690 C   0  0  0  0  0  0
   -1.6100   15.8090   -4.8680 F   0  0  0  0  0  0
   -2.0110   18.0960   -4.3770 C   0  0  0  0  0  0
   -0.7420   18.2020   -3.9090 F   0  0  0  0  0  0
   -4.1840   19.0890   -4.8540 C   0  0  0  0  0  0
   -2.8660   19.2100   -4.3650 C   0  0  0  0  0  0
   -2.2560   20.7790   -3.7210 S   0  0  0  0  0  0
   -3.2790   21.8490   -4.1320 O   0  0  0  0  0  0
   -1.0830   21.2390   -4.6000 O   0  0  0  0  0  0
   -1.8350   21.1420   -1.9880 C   0  0  0  0  0  0
   -2.2000   19.9620   -1.1080 C   0  0  0  0  0  0
   -3.5710   19.7300   -1.1870 O   0  0  0  0  0  0
   -5.0380   20.2310   -4.8350 N   0  0  0  0  0  0
   -6.3540   20.2600   -5.4300 C   0  0  0  0  0  0
   -7.0680   21.5260   -5.1050 C   0  0  0  0  0  0
   -7.8300   21.6070   -3.9340 C   0  0  0  0  0  0
   -8.5060   22.7890   -3.6170 C   0  0  0  0  0  0
   -8.4220   23.8930   -4.4690 C   0  0  0  0  0  0
   -7.6610   23.8150   -5.6410 C   0  0  0  0  0  0
   -6.9840   22.6320   -5.9590 C   0  0  0  0  0  0
   -3.7455   12.8817   -6.2559 H   0  0  0  0  0  0
   -3.0536   13.6041   -4.7639 H   0  0  0  0  0  0
   -0.7552   21.3347   -1.9057 H   0  0  0  0  0  0
   -2.3924   22.0293   -1.6534 H   0  0  0  0  0  0
   -1.6568   19.0684   -1.4491 H   0  0  0  0  0  0
   -1.9251   20.1827   -0.0660 H   0  0  0  0  0  0
   -4.0238   18.9083   -0.6127 H   0  0  0  0  0  0
   -4.6426   21.1250   -4.3306 H   0  0  0  0  0  0
   -6.2639   20.1803   -6.5234 H   0  0  0  0  0  0
   -6.9476   19.4161   -5.0486 H   0  0  0  0  0  0
   -7.8966   20.7469   -3.2678 H   0  0  0  0  0  0
   -9.0990   22.8492   -2.7044 H   0  0  0  0  0  0
   -8.9488   24.8145   -4.2211 H   0  0  0  0  0  0
   -7.5955   24.6759   -6.3064 H   0  0  0  0  0  0
   -6.3913   22.5719   -6.8718 H   0  0  0  0  0  0
  1  2  1  0  0  0
  2  3  2  0  0  0
  2 12  1  0  0  0
  3  4  1  0  0  0
  3  8  1  0  0  0
  4  5  2  0  0  0
  4  6  1  0  0  0
  4  7  2  0  0  0
  6 28  1  0  0  0
  6 29  1  0  0  0
  8  9  1  0  0  0
  8 10  2  0  0  0
 10 11  1  0  0  0
 10 13  1  0  0  0
 12 13  2  0  0  0
 12 20  1  0  0  0
 13 14  1  0  0  0
 14 15  2  0  0  0
 14 16  2  0  0  0
 14 17  1  0  0  0
 17 18  1  0  0  0
 17 30  1  0  0  0
 17 31  1  0  0  0
 18 19  1  0  0  0
 18 32  1  0  0  0
 18 33  1  0  0  0
 19 34  1  0  0  0
 20 21  1  0  0  0
 20 35  1  0  0  0
 21 22  1  0  0  0
 21 36  1  0  0  0
 21 37  1  0  0  0
 22 23  2  0  0  0
 22 27  1  0  0  0
 23 24  1  0  0  0
 23 38  1  0  0  0
 24 25  2  0  0  0
 24 39  1  0  0  0
 25 26  1  0  0  0
 25 40  1  0  0  0
 26 27  2  0  0  0
 26 41  1  0  0  0
 27 42  1  0  0  0
M  END
> <s_m_source_file>
../4qjw_ligand.sdf

> <i_m_source_file_index>
1

> <s_epik_input>
RmMxYyhTKD1PKSg9TylbTkgyXSljKEYpYyhGKWMoUyg9TykoPU8pW0NIMl1bQ0gyXVtPSF0pYzFbTkhdW0NIMl1jMltjSF1bY0hdW2NIXVtjSF1bY0hdMg==

> <s_epik_cmdline>
J2VwaWtfYXBwJywgJy1pbWFlJywgJ2xpZ2FuZF9wcm8ubWFlJywgJy1vbWFlJywgJ2xpZ2FuZF9wcmVwLm1hZScsICctbXMnLCAnMScsICctcGgnLCAnNycsICctcGh0JywgJzAuNScsICctbnQn

> <r_epik_Ionization_Penalty>
  0.0155

> <r_epik_Ionization_Penalty_Charging>
  0.0000

> <r_epik_Ionization_Penalty_Neutral>
  0.0155

> <r_epik_State_Penalty>
  0.0117

> <r_epik_Charging_Adjusted_Penalty>
0.0117061970195284

> <i_epik_Tot_Q>
0

> <i_epik_Tot_abs_Q>
0

$$$$
