4qjx_ligand
                    3D
 Schrodinger Suite 2020-3.
 42 43  0  0  1  0            999 V2000
   21.3210   -3.3800    1.5820 F   0  0  0  0  0  0
   21.6280   -2.7810    2.7310 C   0  0  0  0  0  0
   21.4360   -3.5300    3.9280 C   0  0  0  0  0  0
   20.7670   -5.2440    3.8850 S   0  0  0  0  0  0
   21.6440   -6.3220    3.2680 O   0  0  0  0  0  0
   20.5240   -5.7020    5.5960 N   0  0  0  0  0  0
   19.4330   -5.4050    3.1940 O   0  0  0  0  0  0
   21.7660   -2.8790    5.1400 C   0  0  0  0  0  0
   21.6630   -3.4120    6.3700 F   0  0  0  0  0  0
   22.2670   -1.5720    5.1410 C   0  0  0  0  0  0
   22.5580   -1.0310    6.3490 F   0  0  0  0  0  0
   22.1230   -1.4540    2.7060 C   0  0  0  0  0  0
   22.4610   -0.8600    3.9320 C   0  0  0  0  0  0
   23.0160    0.8650    3.9940 S   0  0  0  0  0  0
   22.1910    1.4910    5.1410 O   0  0  0  0  0  0
   22.2200    1.5330    2.8220 O   0  0  0  0  0  0
   24.7280    1.4150    3.9010 C   0  0  0  0  0  0
   24.7640    2.7070    3.0680 C   0  0  0  0  0  0
   26.0380    2.8840    2.5200 O   0  0  0  0  0  0
   22.2450   -0.7370    1.4450 N   0  0  0  0  0  0
   20.9550   -0.5130    0.8240 C   0  0  0  0  0  0
   20.8720   -0.3780   -0.6580 C   0  0  0  0  0  0
   21.2330   -1.4300   -1.5140 C   0  0  0  0  0  0
   21.1070   -1.2870   -2.9160 C   0  0  0  0  0  0
   20.6170   -0.0780   -3.4310 C   0  0  0  0  0  0
   20.2610    0.9830   -2.5780 C   0  0  0  0  0  0
   20.3950    0.8360   -1.1950 C   0  0  0  0  0  0
   20.1220   -6.7246    5.6483 H   0  0  0  0  0  0
   19.8144   -5.0046    6.0650 H   0  0  0  0  0  0
   25.1076    1.6052    4.9157 H   0  0  0  0  0  0
   25.3381    0.6354    3.4215 H   0  0  0  0  0  0
   24.0255    2.6401    2.2555 H   0  0  0  0  0  0
   24.5235    3.5655    3.7123 H   0  0  0  0  0  0
   26.2490    3.7612    1.8907 H   0  0  0  0  0  0
   23.1613   -0.3755    0.9554 H   0  0  0  0  0  0
   20.2841   -1.3524    1.0592 H   0  0  0  0  0  0
   20.5208    0.4220    1.2076 H   0  0  0  0  0  0
   21.6126   -2.3625   -1.0964 H   0  0  0  0  0  0
   21.3858   -2.1020   -3.5840 H   0  0  0  0  0  0
   20.5102    0.0416   -4.5091 H   0  0  0  0  0  0
   19.8821    1.9162   -2.9947 H   0  0  0  0  0  0
   20.1310    1.6593   -0.5312 H   0  0  0  0  0  0
  1  2  1  0  0  0
  2  3  2  0  0  0
  2 12  1  0  0  0
  3  4  1  0  0  0
  3  8  1  0  0  0
  4  5  2  0  0  0
  4  6  1  0  0  0
  4  7  2  0  0  0
  6 28  1  0  0  0
  6 29  1  0  0  0
  8  9  1  0  0  0
  8 10  2  0  0  0
 10 11  1  0  0  0
 10 13  1  0  0  0
 12 13  2  0  0  0
 12 20  1  0  0  0
 13 14  1  0  0  0
 14 15  2  0  0  0
 14 16  2  0  0  0
 14 17  1  0  0  0
 17 18  1  0  0  0
 17 30  1  0  0  0
 17 31  1  0  0  0
 18 19  1  0  0  0
 18 32  1  0  0  0
 18 33  1  0  0  0
 19 34  1  0  0  0
 20 21  1  0  0  0
 20 35  1  0  0  0
 21 22  1  0  0  0
 21 36  1  0  0  0
 21 37  1  0  0  0
 22 23  2  0  0  0
 22 27  1  0  0  0
 23 24  1  0  0  0
 23 38  1  0  0  0
 24 25  2  0  0  0
 24 39  1  0  0  0
 25 26  1  0  0  0
 25 40  1  0  0  0
 26 27  2  0  0  0
 26 41  1  0  0  0
 27 42  1  0  0  0
M  END
> <s_m_source_file>
../4qjx_ligand.sdf

> <i_m_source_file_index>
1

> <s_epik_input>
RmMxYyhTKD1PKSg9TylbTkgyXSljKEYpYyhGKWMoUyg9TykoPU8pW0NIMl1bQ0gyXVtPSF0pYzFbTkhdW0NIMl1jMltjSF1bY0hdW2NIXVtjSF1bY0hdMg==

> <s_epik_cmdline>
J2VwaWtfYXBwJywgJy1pbWFlJywgJ2xpZ2FuZF9wcm8ubWFlJywgJy1vbWFlJywgJ2xpZ2FuZF9wcmVwLm1hZScsICctbXMnLCAnMScsICctcGgnLCAnNycsICctcGh0JywgJzAuNScsICctbnQn

> <r_epik_Ionization_Penalty>
  0.0155

> <r_epik_Ionization_Penalty_Charging>
  0.0000

> <r_epik_Ionization_Penalty_Neutral>
  0.0155

> <r_epik_State_Penalty>
  0.0117

> <r_epik_Charging_Adjusted_Penalty>
0.0117061970195284

> <i_epik_Tot_Q>
0

> <i_epik_Tot_abs_Q>
0

$$$$
