4qk4_ligand
                    3D
 Schrodinger Suite 2020-3.
139139  0  0  1  0            999 V2000
  -24.0350   46.5740  -12.0170 P   0  0  1  0  0  0
  -25.4230   46.0680  -12.3060 O   0  5  0  0  0  0
  -23.5910   46.0710  -10.6700 O   0  0  0  0  0  0
  -23.0430   46.0440  -13.1440 O   0  0  0  0  0  0
  -18.7310   37.0300   -3.9890 C   0  0  0  0  0  0
  -18.2260   38.0480   -4.9800 C   0  0  0  0  0  0
  -18.5310   37.6150   -6.4440 C   0  0  0  0  0  0
  -19.4380   38.6210   -7.1590 C   0  0  0  0  0  0
  -20.7880   37.9550   -7.6280 C   0  0  0  0  0  0
  -22.0080   38.8520   -7.3720 C   0  0  0  0  0  0
  -23.2400   38.0530   -6.9180 C   0  0  0  0  0  0
  -24.3760   38.0780   -7.9420 C   0  0  0  0  0  0
  -23.8930   37.8280   -9.3820 C   0  0  0  0  0  0
  -25.0150   37.3090  -10.2940 C   0  0  0  0  0  0
  -24.5040   36.9540  -11.7230 C   0  0  0  0  0  0
  -24.9920   37.9450  -12.7940 C   0  0  0  0  0  0
  -24.7800   39.4360  -12.3930 C   0  0  0  0  0  0
  -24.5240   40.3500  -13.6240 C   0  0  0  0  0  0
  -23.1200   41.0090  -13.5930 C   0  0  0  0  0  0
  -23.0340   42.2460  -14.5060 C   0  0  0  0  0  0
  -23.8980   42.4210  -15.3520 O   0  0  0  0  0  0
  -21.7480   42.9340  -14.6360 O   0  0  0  0  0  0
  -21.6520   44.2620  -14.0380 C   0  0  2  0  0  0
  -22.9780   44.6240  -13.3450 C   0  0  0  0  0  0
  -25.2820   48.7930  -12.3370 C   0  0  2  0  0  0
  -25.2480   49.3430  -13.7530 C   0  0  1  0  0  0
  -26.6120   49.8980  -14.0910 C   0  0  1  0  0  0
  -27.0000   50.9910  -13.0990 C   0  0  2  0  0  0
  -26.9990   50.4470  -11.6810 C   0  0  1  0  0  0
  -25.6230   49.9010  -11.3540 C   0  0  1  0  0  0
  -24.0520   48.1580  -12.0210 O   0  0  0  0  0  0
  -24.3130   50.3860  -13.8080 O   0  0  0  0  0  0
  -26.6330   50.3890  -15.4290 O   0  0  0  0  0  0
  -28.2650   51.5400  -13.4430 O   0  0  0  0  0  0
  -27.3550   51.4310  -10.7830 O   0  0  0  0  0  0
  -25.5730   49.4210   -9.9970 O   0  0  0  0  0  0
  -28.3320   53.0380  -13.8530 P   0  0  0  0  0  0
  -27.7990   53.1930  -15.2530 O   0  0  0  0  0  0
  -29.7630   53.5090  -13.8050 O   0  5  0  0  0  0
  -27.4960   53.8600  -12.8990 O   0  5  0  0  0  0
  -28.3270   51.0520   -9.5930 P   0  0  0  0  0  0
  -27.5230   50.8130   -8.3440 O   0  0  0  0  0  0
  -29.3010   52.1880   -9.3540 O   0  5  0  0  0  0
  -29.0920   49.7960   -9.9470 O   0  5  0  0  0  0
  -21.2080   45.2750  -15.1150 C   0  0  0  0  0  0
  -20.1820   44.6590  -15.9420 O   0  0  0  0  0  0
  -18.9460   44.3120  -15.2660 C   0  0  0  0  0  0
  -18.5950   44.9260  -14.2620 O   0  0  0  0  0  0
  -17.9230   43.3730  -15.9750 C   0  0  0  0  0  0
  -18.3040   41.8930  -15.8530 C   0  0  0  0  0  0
  -18.6140   41.4660  -14.4200 C   0  0  0  0  0  0
  -18.9910   39.9850  -14.3460 C   0  0  0  0  0  0
  -18.6560   39.3510  -13.0080 C   0  0  0  0  0  0
  -19.6810   38.2560  -12.6150 C   0  0  0  0  0  0
  -19.2220   37.4330  -11.4020 C   0  0  0  0  0  0
  -19.8240   36.0080  -11.4040 C   0  0  0  0  0  0
  -19.8190   35.3620  -10.0190 C   0  0  0  0  0  0
  -20.5400   34.0160  -10.0200 C   0  0  0  0  0  0
  -20.9350   33.5610   -8.6030 C   0  0  0  0  0  0
  -21.9630   34.4920   -7.9800 C   0  0  0  0  0  0
  -22.8890   33.7670   -6.9890 C   0  0  0  0  0  0
  -23.3570   34.6670   -5.8520 C   0  0  0  0  0  0
  -24.3060   33.9530   -4.9000 C   0  0  0  0  0  0
  -18.4996   37.3664   -2.9676 H   0  0  0  0  0  0
  -18.2422   36.0625   -4.1760 H   0  0  0  0  0  0
  -19.8196   36.9185   -4.1005 H   0  0  0  0  0  0
  -18.7148   39.0155   -4.7930 H   0  0  0  0  0  0
  -17.1374   38.1596   -4.8685 H   0  0  0  0  0  0
  -17.5894   37.5386   -7.0075 H   0  0  0  0  0  0
  -19.0360   36.6378   -6.4397 H   0  0  0  0  0  0
  -19.6785   39.4484   -6.4752 H   0  0  0  0  0  0
  -18.9200   39.0165   -8.0452 H   0  0  0  0  0  0
  -20.7399   37.7497   -8.7076 H   0  0  0  0  0  0
  -20.9409   37.0124   -7.0820 H   0  0  0  0  0  0
  -21.7680   39.5814   -6.5844 H   0  0  0  0  0  0
  -22.2718   39.3851   -8.2973 H   0  0  0  0  0  0
  -22.9568   37.0023   -6.7574 H   0  0  0  0  0  0
  -23.6260   38.4764   -5.9790 H   0  0  0  0  0  0
  -25.1094   37.2963   -7.6951 H   0  0  0  0  0  0
  -24.8675   39.0619   -7.9205 H   0  0  0  0  0  0
  -23.5146   38.7679   -9.8102 H   0  0  0  0  0  0
  -23.0879   37.0785   -9.3738 H   0  0  0  0  0  0
  -25.4536   36.4007   -9.8551 H   0  0  0  0  0  0
  -25.7928   38.0804  -10.3937 H   0  0  0  0  0  0
  -23.4041   36.9642  -11.7321 H   0  0  0  0  0  0
  -24.8637   35.9529  -12.0029 H   0  0  0  0  0  0
  -24.4428   37.7718  -13.7312 H   0  0  0  0  0  0
  -26.0682   37.7974  -12.9670 H   0  0  0  0  0  0
  -25.6764   39.8073  -11.8748 H   0  0  0  0  0  0
  -23.9104   39.5157  -11.7241 H   0  0  0  0  0  0
  -24.5977   39.7535  -14.5452 H   0  0  0  0  0  0
  -25.2748   41.1536  -13.6465 H   0  0  0  0  0  0
  -22.8868   41.3270  -12.5661 H   0  0  0  0  0  0
  -22.3665   40.2828  -13.9319 H   0  0  0  0  0  0
  -20.8762   44.2247  -13.2590 H   0  0  0  0  0  0
  -23.0340   44.1131  -12.3725 H   0  0  0  0  0  0
  -23.8201   44.3041  -13.9763 H   0  0  0  0  0  0
  -26.0162   47.9792  -12.2439 H   0  0  0  0  0  0
  -24.9164   48.5925  -14.4856 H   0  0  0  0  0  0
  -27.3603   49.0917  -14.0847 H   0  0  0  0  0  0
  -26.3113   51.8463  -13.1635 H   0  0  0  0  0  0
  -27.7838   49.6907  -11.5324 H   0  0  0  0  0  0
  -24.8678   50.6999  -11.3900 H   0  0  0  0  0  0
  -23.2530   50.1864  -13.5920 H   0  0  0  0  0  0
  -26.3761   49.7208  -16.2642 H   0  0  0  0  0  0
  -24.6417   48.9912   -9.5996 H   0  0  0  0  0  0
  -22.0722   45.5514  -15.7368 H   0  0  0  0  0  0
  -20.8041   46.1747  -14.6278 H   0  0  0  0  0  0
  -17.8755   43.6238  -17.0450 H   0  0  0  0  0  0
  -16.9290   43.5056  -15.5229 H   0  0  0  0  0  0
  -19.1999   41.6938  -16.4594 H   0  0  0  0  0  0
  -17.4721   41.2694  -16.2121 H   0  0  0  0  0  0
  -17.7289   41.6321  -13.7883 H   0  0  0  0  0  0
  -19.4561   42.0595  -14.0346 H   0  0  0  0  0  0
  -20.0737   39.8739  -14.5054 H   0  0  0  0  0  0
  -18.4469   39.4288  -15.1236 H   0  0  0  0  0  0
  -17.6598   38.8875  -13.0611 H   0  0  0  0  0  0
  -18.6597   40.1236  -12.2250 H   0  0  0  0  0  0
  -20.6421   38.7274  -12.3617 H   0  0  0  0  0  0
  -19.8224   37.5659  -13.4599 H   0  0  0  0  0  0
  -18.1259   37.3417  -11.4144 H   0  0  0  0  0  0
  -19.5375   37.9368  -10.4765 H   0  0  0  0  0  0
  -20.8669   36.0510  -11.7512 H   0  0  0  0  0  0
  -19.2396   35.3640  -12.0776 H   0  0  0  0  0  0
  -18.7808   35.1979   -9.6947 H   0  0  0  0  0  0
  -20.3262   36.0255   -9.3031 H   0  0  0  0  0  0
  -21.4584   34.0924  -10.6206 H   0  0  0  0  0  0
  -19.8820   33.2479  -10.4524 H   0  0  0  0  0  0
  -21.3664   32.5502   -8.6494 H   0  0  0  0  0  0
  -20.0430   33.5498   -7.9595 H   0  0  0  0  0  0
  -21.4468   35.2962   -7.4352 H   0  0  0  0  0  0
  -22.5894   34.9289   -8.7716 H   0  0  0  0  0  0
  -23.7816   33.4041   -7.5196 H   0  0  0  0  0  0
  -22.3548   32.9143   -6.5445 H   0  0  0  0  0  0
  -22.4866   35.0076   -5.2720 H   0  0  0  0  0  0
  -23.8845   35.5383   -6.2674 H   0  0  0  0  0  0
  -24.6126   34.6441   -4.1010 H   0  0  0  0  0  0
  -23.7967   33.0841   -4.4578 H   0  0  0  0  0  0
  -25.1946   33.6148   -5.4532 H   0  0  0  0  0  0
  1  2  1  0  0  0
  1  3  2  0  0  0
  1  4  1  0  0  0
  1 31  1  0  0  0
  4 24  1  0  0  0
  5  6  1  0  0  0
  5 64  1  0  0  0
  5 65  1  0  0  0
  5 66  1  0  0  0
  6  7  1  0  0  0
  6 67  1  0  0  0
  6 68  1  0  0  0
  7  8  1  0  0  0
  7 69  1  0  0  0
  7 70  1  0  0  0
  8  9  1  0  0  0
  8 71  1  0  0  0
  8 72  1  0  0  0
  9 10  1  0  0  0
  9 73  1  0  0  0
  9 74  1  0  0  0
 10 11  1  0  0  0
 10 75  1  0  0  0
 10 76  1  0  0  0
 11 12  1  0  0  0
 11 77  1  0  0  0
 11 78  1  0  0  0
 12 13  1  0  0  0
 12 79  1  0  0  0
 12 80  1  0  0  0
 13 14  1  0  0  0
 13 81  1  0  0  0
 13 82  1  0  0  0
 14 15  1  0  0  0
 14 83  1  0  0  0
 14 84  1  0  0  0
 15 16  1  0  0  0
 15 85  1  0  0  0
 15 86  1  0  0  0
 16 17  1  0  0  0
 16 87  1  0  0  0
 16 88  1  0  0  0
 17 18  1  0  0  0
 17 89  1  0  0  0
 17 90  1  0  0  0
 18 19  1  0  0  0
 18 91  1  0  0  0
 18 92  1  0  0  0
 19 20  1  0  0  0
 19 93  1  0  0  0
 19 94  1  0  0  0
 20 21  2  0  0  0
 20 22  1  0  0  0
 22 23  1  0  0  0
 23 24  1  0  0  0
 23 45  1  0  0  0
 23 95  1  0  0  0
 24 96  1  0  0  0
 24 97  1  0  0  0
 25 26  1  0  0  0
 25 30  1  0  0  0
 25 31  1  0  0  0
 25 98  1  0  0  0
 26 27  1  0  0  0
 26 32  1  0  0  0
 26 99  1  0  0  0
 27 28  1  0  0  0
 27 33  1  0  0  0
 27100  1  0  0  0
 28 29  1  0  0  0
 28 34  1  0  0  0
 28101  1  0  0  0
 29 30  1  0  0  0
 29 35  1  0  0  0
 29102  1  0  0  0
 30 36  1  0  0  0
 30103  1  0  0  0
 32104  1  0  0  0
 33105  1  0  0  0
 34 37  1  0  0  0
 35 41  1  0  0  0
 36106  1  0  0  0
 37 38  2  0  0  0
 37 39  1  0  0  0
 37 40  1  0  0  0
 41 42  2  0  0  0
 41 43  1  0  0  0
 41 44  1  0  0  0
 45 46  1  0  0  0
 45107  1  0  0  0
 45108  1  0  0  0
 46 47  1  0  0  0
 47 48  2  0  0  0
 47 49  1  0  0  0
 49 50  1  0  0  0
 49109  1  0  0  0
 49110  1  0  0  0
 50 51  1  0  0  0
 50111  1  0  0  0
 50112  1  0  0  0
 51 52  1  0  0  0
 51113  1  0  0  0
 51114  1  0  0  0
 52 53  1  0  0  0
 52115  1  0  0  0
 52116  1  0  0  0
 53 54  1  0  0  0
 53117  1  0  0  0
 53118  1  0  0  0
 54 55  1  0  0  0
 54119  1  0  0  0
 54120  1  0  0  0
 55 56  1  0  0  0
 55121  1  0  0  0
 55122  1  0  0  0
 56 57  1  0  0  0
 56123  1  0  0  0
 56124  1  0  0  0
 57 58  1  0  0  0
 57125  1  0  0  0
 57126  1  0  0  0
 58 59  1  0  0  0
 58127  1  0  0  0
 58128  1  0  0  0
 59 60  1  0  0  0
 59129  1  0  0  0
 59130  1  0  0  0
 60 61  1  0  0  0
 60131  1  0  0  0
 60132  1  0  0  0
 61 62  1  0  0  0
 61133  1  0  0  0
 61134  1  0  0  0
 62 63  1  0  0  0
 62135  1  0  0  0
 62136  1  0  0  0
 63137  1  0  0  0
 63138  1  0  0  0
 63139  1  0  0  0
M  CHG  5   2  -1  39  -1  40  -1  43  -1  44  -1
M  END
> <s_m_source_file>
../4qk4_ligand.sdf

> <i_m_source_file_index>
1

> <s_epik_input>
W0NIM11bQ0gyXVtDSDJdW0NIMl1bQ0gyXVtDSDJdW0NIMl1bQ0gyXVtDSDJdW0NIMl1bQ0gyXVtDSDJdW0NIMl1bQ0gyXVtDSDJdQyg9TylPW0NASF0oW0NIMl1PW1BAXSg9TykoW09IXSlPW0NAQEhdMVtDQEhdKFtPSF0pW0NASF0oW09IXSlbQ0BASF0oT1AoPU8pKFtPSF0pW09IXSlbQ0BASF0oW0NASF0xW09IXSlPUCg9TykoW09IXSlbT0hdKVtDSDJdT0MoPU8pW0NIMl1bQ0gyXVtDSDJdW0NIMl1bQ0gyXVtDSDJdW0NIMl1bQ0gyXVtDSDJdW0NIMl1bQ0gyXVtDSDJdW0NIMl1bQ0gyXVtDSDNd

> <s_epik_cmdline>
J2VwaWtfYXBwJywgJy1pbWFlJywgJ2xpZ2FuZF9wcm8ubWFlJywgJy1vbWFlJywgJ2xpZ2FuZF9wcmVwLm1hZScsICctbXMnLCAnMScsICctcGgnLCAnNycsICctcGh0JywgJzAuNScsICctbnQn

> <r_epik_Ionization_Penalty>
  0.2341

> <r_epik_Ionization_Penalty_Charging>
  0.2341

> <r_epik_Ionization_Penalty_Neutral>
  0.0000

> <r_epik_State_Penalty>
  0.1968

> <r_epik_Charging_Adjusted_Penalty>
0.430900777509683

> <i_epik_Tot_Q>
-5

> <i_epik_Tot_abs_Q>
5

> <s_epik_Chemistry_Notes>
This compound has an ester and may undergo hydrolysis at high or low pH.

$$$$
