4qkd_ligand
                    3D
 Schrodinger Suite 2020-3.
 14 13  0  0  1  0            999 V2000
    0.6150    0.1650    7.3680 C   0  0  0  0  0  0
    1.1910    1.2740    7.3030 O   0  0  0  0  0  0
    1.1360   -0.9060    6.8900 O   0  5  0  0  0  0
   -0.6650    0.0380    8.1030 C   0  0  0  0  0  0
   -1.3230   -1.0250    8.0050 O   0  0  0  0  0  0
   -1.1560    1.1450    9.0070 C   0  0  0  0  0  0
   -1.9890    0.5520   10.1260 C   0  0  0  0  0  0
   -2.6370    1.5960   11.0150 C   0  0  0  0  0  0
   -2.8130    2.7550   10.5850 O   0  0  0  0  0  0
   -2.9910    1.2820   12.1720 O   0  5  0  0  0  0
   -0.2943    1.6785    9.4346 H   0  0  0  0  0  0
   -1.7706    1.8479    8.4254 H   0  0  0  0  0  0
   -2.7948   -0.0621    9.6974 H   0  0  0  0  0  0
   -1.3506   -0.0752   10.7656 H   0  0  0  0  0  0
  1  2  2  0  0  0
  1  3  1  0  0  0
  1  4  1  0  0  0
  4  5  2  0  0  0
  4  6  1  0  0  0
  6  7  1  0  0  0
  6 11  1  0  0  0
  6 12  1  0  0  0
  7  8  1  0  0  0
  7 13  1  0  0  0
  7 14  1  0  0  0
  8  9  2  0  0  0
  8 10  1  0  0  0
M  CHG  2   3  -1  10  -1
M  END
> <s_m_source_file>
../4qkd_ligand.sdf

> <i_m_source_file_index>
1

> <s_epik_input>
Tz1DKFtPSF0pQyg9TylbQ0gyXVtDSDJdQyg9TylbT0hd

> <s_epik_cmdline>
J2VwaWtfYXBwJywgJy1pbWFlJywgJ2xpZ2FuZF9wcm8ubWFlJywgJy1vbWFlJywgJ2xpZ2FuZF9wcmVwLm1hZScsICctbXMnLCAnMScsICctcGgnLCAnNycsICctcGh0JywgJzAuNScsICctbnQn

> <r_lp_tautomer_probability>
1

> <r_epik_Ionization_Penalty>
  0.0013

> <r_epik_Ionization_Penalty_Charging>
  0.0013

> <r_epik_Ionization_Penalty_Neutral>
  0.0000

> <r_epik_State_Penalty>
 -0.0000

> <r_epik_Charging_Adjusted_Penalty>
0.00129329390835398

> <i_epik_Tot_Q>
-2

> <i_epik_Tot_abs_Q>
2

$$$$
