4qkx_ligand
                    3D
 Schrodinger Suite 2020-3.
 52 53  0  0  1  0            999 V2000
    0.5780  -21.6680  -48.7310 C   0  0  0  0  0  0
   -0.6380  -22.1000  -48.2160 C   0  0  0  0  0  0
   -1.8080  -21.9430  -48.8930 O   0  0  0  0  0  0
   -0.7100  -22.7180  -46.9720 C   0  0  0  0  0  0
   -1.9390  -23.1080  -46.5420 O   0  0  0  0  0  0
    0.4310  -22.9200  -46.2130 C   0  0  0  0  0  0
    1.6470  -22.4900  -46.7280 C   0  0  0  0  0  0
    1.7240  -21.8820  -47.9770 C   0  0  0  0  0  0
    2.9650  -21.4610  -48.4410 C   0  0  1  0  0  0
    3.9410  -21.3690  -47.3910 O   0  0  0  0  0  0
    3.5300  -22.3030  -49.5950 C   0  0  0  0  0  0
    4.8300  -21.6600  -49.7810 N   0  3  0  0  0  0
    5.8110  -21.9220  -50.8440 C   0  0  0  0  0  0
    5.2770  -21.6450  -52.2570 C   0  0  0  0  0  0
    6.3590  -21.7330  -53.1380 C   0  0  0  0  0  0
    7.5840  -21.2580  -52.6780 C   0  0  0  0  0  0
    8.6930  -21.2740  -53.5010 C   0  0  0  0  0  0
    9.9210  -20.8530  -53.0970 O   0  0  0  0  0  0
    9.9250  -20.4050  -51.7350 C   0  0  0  0  0  0
    6.2480  -22.2190  -54.4420 C   0  0  0  0  0  0
    7.3690  -22.2420  -55.2670 C   0  0  0  0  0  0
    8.5870  -21.7750  -54.7910 C   0  0  0  0  0  0
    9.7290  -21.7700  -55.5310 O   0  0  0  0  0  0
    9.4850  -22.3090  -56.8330 C   0  0  0  0  0  0
   10.7450  -23.0220  -57.3390 C   0  0  0  0  0  0
   12.1790  -21.8920  -57.4270 S   0  0  0  0  0  0
    0.6308  -21.1742  -49.7013 H   0  0  0  0  0  0
   -1.8109  -21.4608  -49.8817 H   0  0  0  0  0  0
   -2.8236  -22.9314  -47.1715 H   0  0  0  0  0  0
    0.3759  -23.4035  -45.2377 H   0  0  0  0  0  0
    2.5563  -22.6312  -46.1438 H   0  0  0  0  0  0
    2.7034  -20.4397  -48.7550 H   0  0  0  0  0  0
    3.7133  -20.8014  -46.4767 H   0  0  0  0  0  0
    3.5966  -23.3556  -49.2825 H   0  0  0  0  0  0
    2.8659  -22.2211  -50.4681 H   0  0  0  0  0  0
    4.6876  -20.5778  -49.9169 H   0  0  0  0  0  0
    5.4576  -21.8389  -48.8955 H   0  0  0  0  0  0
    6.6927  -21.2814  -50.6952 H   0  0  0  0  0  0
    6.1154  -22.9785  -50.8098 H   0  0  0  0  0  0
    4.5108  -22.3919  -52.5124 H   0  0  0  0  0  0
    4.8338  -20.6388  -52.2908 H   0  0  0  0  0  0
    7.6684  -20.8712  -51.6624 H   0  0  0  0  0  0
   10.9382  -20.0768  -51.4600 H   0  0  0  0  0  0
    9.6155  -21.2301  -51.0767 H   0  0  0  0  0  0
    9.2243  -19.5644  -51.6235 H   0  0  0  0  0  0
    5.2881  -22.5788  -54.8124 H   0  0  0  0  0  0
    7.2909  -22.6257  -56.2842 H   0  0  0  0  0  0
    8.6537  -23.0276  -56.7824 H   0  0  0  0  0  0
    9.2237  -21.4941  -57.5241 H   0  0  0  0  0  0
   10.9982  -23.8472  -56.6571 H   0  0  0  0  0  0
   10.5600  -23.4227  -58.3466 H   0  0  0  0  0  0
   13.1536  -22.2661  -57.7738 H   0  0  0  0  0  0
  1  2  2  0  0  0
  1  8  1  0  0  0
  1 27  1  0  0  0
  2  3  1  0  0  0
  2  4  1  0  0  0
  3 28  1  0  0  0
  4  5  1  0  0  0
  4  6  2  0  0  0
  5 29  1  0  0  0
  6  7  1  0  0  0
  6 30  1  0  0  0
  7  8  2  0  0  0
  7 31  1  0  0  0
  8  9  1  0  0  0
  9 10  1  0  0  0
  9 11  1  0  0  0
  9 32  1  0  0  0
 10 33  1  0  0  0
 11 12  1  0  0  0
 11 34  1  0  0  0
 11 35  1  0  0  0
 12 13  1  0  0  0
 12 36  1  0  0  0
 12 37  1  0  0  0
 13 14  1  0  0  0
 13 38  1  0  0  0
 13 39  1  0  0  0
 14 15  1  0  0  0
 14 40  1  0  0  0
 14 41  1  0  0  0
 15 16  2  0  0  0
 15 20  1  0  0  0
 16 17  1  0  0  0
 16 42  1  0  0  0
 17 18  1  0  0  0
 17 22  2  0  0  0
 18 19  1  0  0  0
 19 43  1  0  0  0
 19 44  1  0  0  0
 19 45  1  0  0  0
 20 21  2  0  0  0
 20 46  1  0  0  0
 21 22  1  0  0  0
 21 47  1  0  0  0
 22 23  1  0  0  0
 23 24  1  0  0  0
 24 25  1  0  0  0
 24 48  1  0  0  0
 24 49  1  0  0  0
 25 26  1  0  0  0
 25 50  1  0  0  0
 25 51  1  0  0  0
 26 52  1  0  0  0
M  CHG  1  12   1
M  END
> <s_m_source_file>
../4qkx_ligand.sdf

> <i_m_source_file_index>
1

> <s_epik_input>
W09IXWMxW2NIXVtjSF1jKFtjSF1jMVtPSF0pW0NAQEhdKFtPSF0pW0NIMl1bTkgyK11bQ0gyXVtDSDJdYzJbY0hdYyhPW0NIM10pYyhbY0hdW2NIXTIpT1tDSDJdW0NIMl1bU0hd

> <s_epik_cmdline>
J2VwaWtfYXBwJywgJy1pbWFlJywgJ2xpZ2FuZF9wcm8ubWFlJywgJy1vbWFlJywgJ2xpZ2FuZF9wcmVwLm1hZScsICctbXMnLCAnMScsICctcGgnLCAnNycsICctcGh0JywgJzAuNScsICctbnQn

> <r_lp_tautomer_probability>
0.999999999999776

> <r_epik_Ionization_Penalty>
  0.0275

> <r_epik_Ionization_Penalty_Charging>
  0.0155

> <r_epik_Ionization_Penalty_Neutral>
  0.0120

> <r_epik_State_Penalty>
  0.0122

> <r_epik_Charging_Adjusted_Penalty>
0.0276634358614763

> <i_epik_Tot_Q>
1

> <i_epik_Tot_abs_Q>
1

$$$$
