4ql1_ligand
                    3D
 Schrodinger Suite 2020-3.
 66 69  0  0  1  0            999 V2000
   -5.8380  -26.1890    3.5510 F   0  0  0  0  0  0
   -7.0350  -26.2520    2.9040 C   0  0  0  0  0  0
   -6.8220  -25.6520    1.6530 F   0  0  0  0  0  0
   -7.8610  -25.6120    3.5820 F   0  0  0  0  0  0
   -7.4850  -27.5690    2.7200 C   0  0  0  0  0  0
   -6.6490  -28.6260    3.0970 C   0  0  0  0  0  0
   -7.0290  -29.9560    2.9490 C   0  0  0  0  0  0
   -6.2850  -30.8920    3.2660 O   0  0  0  0  0  0
   -8.2970  -30.2270    2.4240 N   0  0  0  0  0  0
   -9.1130  -29.2280    2.0950 C   0  0  0  0  0  0
   -8.7820  -27.8760    2.2240 C   0  0  2  0  0  0
   -9.7520  -26.9360    1.7700 C   0  0  0  0  0  0
   -9.4580  -26.0450    0.9640 O   0  0  0  0  0  0
  -11.0000  -27.1000    2.2290 N   0  0  0  0  0  0
  -12.0790  -26.4350    1.7060 C   0  0  0  0  0  0
  -12.4290  -26.6720    0.3740 C   0  0  0  0  0  0
  -12.9150  -25.6380    2.5190 C   0  0  0  0  0  0
  -12.6320  -25.3300    3.8080 N   0  0  0  0  0  0
  -13.6850  -24.9960    4.7670 C   0  0  0  0  0  0
  -13.1630  -24.9010    6.1760 C   0  0  0  0  0  0
  -11.9840  -24.0620    6.3580 N   0  3  0  0  0  0
  -11.5470  -24.0630    7.7730 C   0  0  0  0  0  0
  -10.8920  -24.5710    5.5470 C   0  0  0  0  0  0
  -11.3410  -24.6700    4.0860 C   0  0  0  0  0  0
  -14.0830  -25.0790    1.9350 C   0  0  0  0  0  0
  -14.3820  -25.3080    0.5930 C   0  0  0  0  0  0
  -13.5690  -26.1000   -0.2120 C   0  0  0  0  0  0
  -13.8430  -26.3100   -1.5890 C   0  0  0  0  0  0
  -12.7500  -26.4690   -2.4740 C   0  0  0  0  0  0
  -15.1290  -26.2990   -2.1140 C   0  0  0  0  0  0
  -15.3150  -26.4950   -3.4850 C   0  0  0  0  0  0
  -14.2410  -26.6730   -4.3360 C   0  0  0  0  0  0
  -12.9490  -26.6760   -3.8440 C   0  0  0  0  0  0
  -11.8920  -26.8240   -4.7300 C   0  0  0  0  0  0
  -11.3090  -28.1630   -4.6050 N   0  3  0  0  0  0
  -10.1900  -28.3480   -5.5500 C   0  0  0  0  0  0
   -5.6575  -28.4172    3.5252 H   0  0  0  0  0  0
  -10.1144  -29.4449    1.6949 H   0  0  0  0  0  0
   -8.7497  -27.0293    2.9255 H   0  0  0  0  0  0
  -11.1933  -27.7929    3.0612 H   0  0  0  0  0  0
  -11.7960  -27.3224   -0.2297 H   0  0  0  0  0  0
  -14.1285  -24.0251    4.5012 H   0  0  0  0  0  0
  -14.4629  -25.7733    4.7429 H   0  0  0  0  0  0
  -13.9432  -24.4823    6.8286 H   0  0  0  0  0  0
  -12.8859  -25.9040    6.5328 H   0  0  0  0  0  0
  -12.2484  -23.0429    6.0392 H   0  0  0  0  0  0
  -12.3597  -23.6805    8.4080 H   0  0  0  0  0  0
  -10.6615  -23.4199    7.8837 H   0  0  0  0  0  0
  -11.2952  -25.0894    8.0782 H   0  0  0  0  0  0
  -10.0322  -23.8888    5.6200 H   0  0  0  0  0  0
  -10.6006  -25.5682    5.9085 H   0  0  0  0  0  0
  -10.5338  -25.2124    3.5720 H   0  0  0  0  0  0
  -11.3742  -23.6321    3.7232 H   0  0  0  0  0  0
  -14.7505  -24.4663    2.5409 H   0  0  0  0  0  0
  -15.2755  -24.8551    0.1632 H   0  0  0  0  0  0
  -11.7340  -26.4295   -2.0813 H   0  0  0  0  0  0
  -15.9870  -26.1386   -1.4611 H   0  0  0  0  0  0
  -16.3265  -26.5077   -3.8909 H   0  0  0  0  0  0
  -14.4137  -26.8121   -5.4032 H   0  0  0  0  0  0
  -12.2540  -26.6840   -5.7593 H   0  0  0  0  0  0
  -11.1194  -26.0732   -4.5078 H   0  0  0  0  0  0
  -10.9312  -28.3043   -3.5816 H   0  0  0  0  0  0
  -12.0783  -28.9194   -4.8195 H   0  0  0  0  0  0
   -9.7744  -29.3597   -5.4325 H   0  0  0  0  0  0
   -9.4074  -27.6036   -5.3418 H   0  0  0  0  0  0
  -10.5545  -28.2186   -6.5797 H   0  0  0  0  0  0
  1  2  1  0  0  0
  2  3  1  0  0  0
  2  4  1  0  0  0
  2  5  1  0  0  0
  5  6  2  0  0  0
  5 11  1  0  0  0
  6  7  1  0  0  0
  6 37  1  0  0  0
  7  8  2  0  0  0
  7  9  1  0  0  0
  9 10  2  0  0  0
 10 11  1  0  0  0
 10 38  1  0  0  0
 11 12  1  0  0  0
 11 39  1  0  0  0
 12 13  2  0  0  0
 12 14  1  0  0  0
 14 15  1  0  0  0
 14 40  1  0  0  0
 15 16  2  0  0  0
 15 17  1  0  0  0
 16 27  1  0  0  0
 16 41  1  0  0  0
 17 18  1  0  0  0
 17 25  2  0  0  0
 18 19  1  0  0  0
 18 24  1  0  0  0
 19 20  1  0  0  0
 19 42  1  0  0  0
 19 43  1  0  0  0
 20 21  1  0  0  0
 20 44  1  0  0  0
 20 45  1  0  0  0
 21 22  1  0  0  0
 21 23  1  0  0  0
 21 46  1  0  0  0
 22 47  1  0  0  0
 22 48  1  0  0  0
 22 49  1  0  0  0
 23 24  1  0  0  0
 23 50  1  0  0  0
 23 51  1  0  0  0
 24 52  1  0  0  0
 24 53  1  0  0  0
 25 26  1  0  0  0
 25 54  1  0  0  0
 26 27  2  0  0  0
 26 55  1  0  0  0
 27 28  1  0  0  0
 28 29  2  0  0  0
 28 30  1  0  0  0
 29 33  1  0  0  0
 29 56  1  0  0  0
 30 31  2  0  0  0
 30 57  1  0  0  0
 31 32  1  0  0  0
 31 58  1  0  0  0
 32 33  2  0  0  0
 32 59  1  0  0  0
 33 34  1  0  0  0
 34 35  1  0  0  0
 34 60  1  0  0  0
 34 61  1  0  0  0
 35 36  1  0  0  0
 35 62  1  0  0  0
 35 63  1  0  0  0
 36 64  1  0  0  0
 36 65  1  0  0  0
 36 66  1  0  0  0
M  CHG  2  21   1  35   1
M  END
> <s_m_source_file>
../4ql1_ligand.sdf

> <i_m_source_file_index>
1

> <s_epik_input>
RkMoRikoRilDMT1bQ0hdQyg9TylOPVtDSF1bQ0BASF0xQyg9TylbTkhdYzJbY0hdYygtYzNbY0hdYyhbY0hdW2NIXVtjSF0zKVtDSDJdW05IMitdW0NIM10pW2NIXVtjSF1jMk40W0NIMl1bQ0gyXVtOSCtdKFtDSDNdKVtDSDJdW0NIMl00

> <s_epik_cmdline>
J2VwaWtfYXBwJywgJy1pbWFlJywgJ2xpZ2FuZF9wcm8ubWFlJywgJy1vbWFlJywgJ2xpZ2FuZF9wcmVwLm1hZScsICctbXMnLCAnMScsICctcGgnLCAnNycsICctcGh0JywgJzAuNScsICctbnQn

> <r_lp_tautomer_probability>
1

> <r_epik_Ionization_Penalty>
  0.0841

> <r_epik_Ionization_Penalty_Charging>
  0.0841

> <r_epik_Ionization_Penalty_Neutral>
  0.0000

> <r_epik_State_Penalty>
 -0.0000

> <r_epik_Charging_Adjusted_Penalty>
0.0840950458237996

> <i_epik_Tot_Q>
2

> <i_epik_Tot_abs_Q>
2

> <s_epik_Chemistry_Notes>
This compound has an imine and may undergo hydrolysis.

$$$$
