4qlk_ligand
                    3D
 Schrodinger Suite 2020-3.
 87 90  0  0  1  0            999 V2000
  -13.2430   -2.0460   57.4290 O   0  0  0  0  0  0
  -12.1500   -2.6270   56.7050 C   0  0  1  0  0  0
  -12.3960   -2.5250   55.2010 C   0  0  2  0  0  0
  -13.6720   -3.0900   54.8820 O   0  0  0  0  0  0
  -11.2390   -3.2250   54.4780 C   0  0  1  0  0  0
  -11.4530   -3.3050   53.0550 O   0  0  0  0  0  0
  -10.9180   -1.9560   56.9960 O   0  0  0  0  0  0
   -9.7740   -2.5340   56.3470 C   0  0  2  0  0  0
   -8.5250   -1.8040   56.8570 C   0  0  0  0  0  0
   -8.6810   -0.3960   56.6370 O   0  0  0  0  0  0
   -9.9560   -2.4690   54.8240 C   0  0  1  0  0  0
   -8.8470   -3.0370   54.1180 O   0  0  0  0  0  0
   -7.9720   -2.1500   53.3990 C   0  0  1  0  0  0
   -6.6810   -2.9530   53.2280 C   0  0  2  0  0  0
   -6.0240   -3.0620   54.4960 O   0  0  0  0  0  0
   -5.7220   -2.3840   52.1820 C   0  0  1  0  0  0
   -4.6620   -3.3130   51.9650 O   0  0  0  0  0  0
   -8.5220   -1.7940   52.1170 O   0  0  0  0  0  0
   -7.6120   -1.1950   51.1760 C   0  0  2  0  0  0
   -8.3860   -0.8370   49.9140 C   0  0  0  0  0  0
   -9.4170    0.0840   50.2700 O   0  0  0  0  0  0
   -6.4380   -2.1180   50.8650 C   0  0  1  0  0  0
   -5.5320   -1.5310   49.9140 O   0  0  0  0  0  0
   -5.0290   -2.3840   48.8680 C   0  0  1  0  0  0
   -4.3160   -1.5560   47.8020 C   0  0  2  0  0  0
   -5.2550   -0.6140   47.2860 O   0  0  0  0  0  0
   -3.7470   -2.4250   46.6840 C   0  0  1  0  0  0
   -2.9140   -1.6480   45.8080 O   0  0  0  0  0  0
   -4.0560   -3.3230   49.3170 O   0  0  0  0  0  0
   -3.7340   -4.2930   48.3040 C   0  0  2  0  0  0
   -3.0280   -5.4530   48.9900 C   0  0  0  0  0  0
   -3.8120   -5.8220   50.1450 O   0  0  0  0  0  0
   -2.9430   -3.6390   47.1630 C   0  0  1  0  0  0
   -2.7800   -4.4930   46.0080 O   0  0  0  0  0  0
   -1.5530   -5.2410   45.7100 C   0  0  1  0  0  0
   -1.4480   -5.5450   44.1730 C   0  0  2  0  0  0
   -1.4290   -6.9520   43.8570 O   0  0  0  0  0  0
   -0.2060   -5.0140   43.4700 C   0  0  1  0  0  0
   -0.4160   -4.9730   42.0360 O   0  0  0  0  0  0
    0.0970   -3.6580   44.0770 C   0  0  2  0  0  0
    1.0890   -2.9730   43.3080 O   0  0  0  0  0  0
   -0.4050   -4.5920   46.3020 O   0  0  0  0  0  0
    0.5790   -3.9260   45.4980 C   0  0  2  0  0  0
    0.9590   -2.6450   46.2390 C   0  0  0  0  0  0
   -0.1770   -1.7650   46.3320 O   0  0  0  0  0  0
  -14.2584   -2.4524   57.3116 H   0  0  0  0  0  0
  -12.0685   -3.6587   57.0776 H   0  0  0  0  0  0
  -12.4924   -1.4869   54.8502 H   0  0  0  0  0  0
  -14.5852   -2.6774   55.3358 H   0  0  0  0  0  0
  -11.1710   -4.2883   54.7515 H   0  0  0  0  0  0
  -12.3399   -3.8224   52.6604 H   0  0  0  0  0  0
   -9.7145   -3.5957   56.6285 H   0  0  0  0  0  0
   -8.4001   -1.9986   57.9324 H   0  0  0  0  0  0
   -7.6404   -2.1674   56.3135 H   0  0  0  0  0  0
   -7.8839    0.2994   56.9386 H   0  0  0  0  0  0
   -9.9620   -1.4273   54.4708 H   0  0  0  0  0  0
   -7.8756   -1.1900   53.9272 H   0  0  0  0  0  0
   -6.9435   -3.9730   52.9106 H   0  0  0  0  0  0
   -6.5699   -3.4550   55.3663 H   0  0  0  0  0  0
   -5.2589   -1.4563   52.5494 H   0  0  0  0  0  0
   -4.0273   -3.6295   52.8058 H   0  0  0  0  0  0
   -7.2167   -0.2929   51.6658 H   0  0  0  0  0  0
   -7.7039   -0.3774   49.1835 H   0  0  0  0  0  0
   -8.8254   -1.7484   49.4824 H   0  0  0  0  0  0
  -10.0978    0.4727   49.4983 H   0  0  0  0  0  0
   -6.7698   -3.0392   50.3637 H   0  0  0  0  0  0
   -5.9198   -2.9427   48.5450 H   0  0  0  0  0  0
   -3.4871   -0.9781   48.2367 H   0  0  0  0  0  0
   -5.7580    0.0898   47.9655 H   0  0  0  0  0  0
   -4.6114   -2.7746   46.1004 H   0  0  0  0  0  0
   -3.3047   -0.7265   45.3516 H   0  0  0  0  0  0
   -4.6699   -4.6626   47.8596 H   0  0  0  0  0  0
   -2.9520   -6.3001   48.2924 H   0  0  0  0  0  0
   -2.0194   -5.1388   49.2965 H   0  0  0  0  0  0
   -3.4819   -6.6473   50.7930 H   0  0  0  0  0  0
   -1.9220   -3.4294   47.5145 H   0  0  0  0  0  0
   -1.5755   -6.1874   46.2702 H   0  0  0  0  0  0
   -2.3629   -5.0923   43.7630 H   0  0  0  0  0  0
   -2.2228   -7.6118   44.2372 H   0  0  0  0  0  0
    0.6692   -5.6736   43.5645 H   0  0  0  0  0  0
   -0.6432   -5.8986   41.4867 H   0  0  0  0  0  0
   -0.7608   -2.9702   44.0440 H   0  0  0  0  0  0
    0.8867   -2.7091   42.2594 H   0  0  0  0  0  0
    1.4292   -4.6172   45.4009 H   0  0  0  0  0  0
    1.3022   -2.8963   47.2534 H   0  0  0  0  0  0
    1.7663   -2.1326   45.6952 H   0  0  0  0  0  0
   -0.0797   -0.7929   46.8374 H   0  0  0  0  0  0
  1  2  1  0  0  0
  1 46  1  0  0  0
  2  3  1  0  0  0
  2  7  1  0  0  0
  2 47  1  0  0  0
  3  4  1  0  0  0
  3  5  1  0  0  0
  3 48  1  0  0  0
  4 49  1  0  0  0
  5  6  1  0  0  0
  5 11  1  0  0  0
  5 50  1  0  0  0
  6 51  1  0  0  0
  7  8  1  0  0  0
  8  9  1  0  0  0
  8 11  1  0  0  0
  8 52  1  0  0  0
  9 10  1  0  0  0
  9 53  1  0  0  0
  9 54  1  0  0  0
 10 55  1  0  0  0
 11 12  1  0  0  0
 11 56  1  0  0  0
 12 13  1  0  0  0
 13 14  1  0  0  0
 13 18  1  0  0  0
 13 57  1  0  0  0
 14 15  1  0  0  0
 14 16  1  0  0  0
 14 58  1  0  0  0
 15 59  1  0  0  0
 16 17  1  0  0  0
 16 22  1  0  0  0
 16 60  1  0  0  0
 17 61  1  0  0  0
 18 19  1  0  0  0
 19 20  1  0  0  0
 19 22  1  0  0  0
 19 62  1  0  0  0
 20 21  1  0  0  0
 20 63  1  0  0  0
 20 64  1  0  0  0
 21 65  1  0  0  0
 22 23  1  0  0  0
 22 66  1  0  0  0
 23 24  1  0  0  0
 24 25  1  0  0  0
 24 29  1  0  0  0
 24 67  1  0  0  0
 25 26  1  0  0  0
 25 27  1  0  0  0
 25 68  1  0  0  0
 26 69  1  0  0  0
 27 28  1  0  0  0
 27 33  1  0  0  0
 27 70  1  0  0  0
 28 71  1  0  0  0
 29 30  1  0  0  0
 30 31  1  0  0  0
 30 33  1  0  0  0
 30 72  1  0  0  0
 31 32  1  0  0  0
 31 73  1  0  0  0
 31 74  1  0  0  0
 32 75  1  0  0  0
 33 34  1  0  0  0
 33 76  1  0  0  0
 34 35  1  0  0  0
 35 36  1  0  0  0
 35 42  1  0  0  0
 35 77  1  0  0  0
 36 37  1  0  0  0
 36 38  1  0  0  0
 36 78  1  0  0  0
 37 79  1  0  0  0
 38 39  1  0  0  0
 38 40  1  0  0  0
 38 80  1  0  0  0
 39 81  1  0  0  0
 40 41  1  0  0  0
 40 43  1  0  0  0
 40 82  1  0  0  0
 41 83  1  0  0  0
 42 43  1  0  0  0
 43 44  1  0  0  0
 43 84  1  0  0  0
 44 45  1  0  0  0
 44 85  1  0  0  0
 44 86  1  0  0  0
 45 87  1  0  0  0
M  END
> <s_m_source_file>
../4qlk_ligand.sdf

> <i_m_source_file_index>
1

> <s_epik_input>
W09IXVtDQEhdMVtDQEhdKFtPSF0pW0NAQEhdKFtPSF0pW0NAQEhdKFtDQEhdKE8xKVtDSDJdW09IXSlPW0NASF0yW0NASF0oW09IXSlbQ0BASF0oW09IXSlbQ0BASF0oW0NASF0oTzIpW0NIMl1bT0hdKU9bQ0BIXTNbQ0BIXShbT0hdKVtDQEBIXShbT0hdKVtDQEBIXShbQ0BIXShPMylbQ0gyXVtPSF0pT1tDQEhdNFtDQEhdKFtPSF0pW0NAQEhdKFtPSF0pW0NASF0oW09IXSlbQ0BIXShPNClbQ0gyXVtPSF0=

> <s_epik_cmdline>
J2VwaWtfYXBwJywgJy1pbWFlJywgJ2xpZ2FuZF9wcm8ubWFlJywgJy1vbWFlJywgJ2xpZ2FuZF9wcmVwLm1hZScsICctbXMnLCAnMScsICctcGgnLCAnNycsICctcGh0JywgJzAuNScsICctbnQn

> <r_lp_tautomer_probability>
1

> <r_epik_Ionization_Penalty>
  0.0000

> <r_epik_Ionization_Penalty_Charging>
  0.0000

> <r_epik_Ionization_Penalty_Neutral>
  0.0000

> <r_epik_State_Penalty>
 -0.0000

> <r_epik_Charging_Adjusted_Penalty>
0

> <i_epik_Tot_Q>
0

> <i_epik_Tot_abs_Q>
0

> <s_epik_Chemistry_Notes>
This compound contains an acetal/aminal-like group ( X-CH(R)-Y where X, Y are N, S, or O) that may be acid/base labile, releasing an aldehyde.

$$$$
