4qll_ligand
                    3D
 Schrodinger Suite 2020-3.
 87 90  0  0  1  0            999 V2000
    2.1130   -1.0090   53.5450 O   0  0  0  0  0  0
    2.7080   -0.5790   52.3100 C   0  0  1  0  0  0
    2.6140   -1.6800   51.2560 C   0  0  2  0  0  0
    3.2150   -2.8850   51.7320 O   0  0  0  0  0  0
    3.3120   -1.1960   49.9840 C   0  0  1  0  0  0
    3.4160   -2.2420   48.9990 O   0  0  0  0  0  0
    2.0410    0.5910   51.8070 O   0  0  0  0  0  0
    2.5960    1.0990   50.5810 C   0  0  2  0  0  0
    1.8340    2.3760   50.2240 C   0  0  0  0  0  0
    0.4330    2.0860   50.1180 O   0  0  0  0  0  0
    2.5500    0.0320   49.4840 C   0  0  1  0  0  0
    3.1440    0.4950   48.2690 O   0  0  0  0  0  0
    2.2590    0.7690   47.1740 C   0  0  1  0  0  0
    3.0470    1.7070   46.2670 C   0  0  2  0  0  0
    3.1800    2.9920   46.8900 O   0  0  0  0  0  0
    2.4650    1.8550   44.8620 C   0  0  1  0  0  0
    3.4220    2.5910   44.0850 O   0  0  0  0  0  0
    1.9160   -0.4380   46.4730 O   0  0  0  0  0  0
    1.2610   -0.2700   45.2070 C   0  0  2  0  0  0
    0.8590   -1.6530   44.7050 C   0  0  0  0  0  0
    0.0900   -2.3300   45.7160 O   0  0  0  0  0  0
    2.1740    0.4860   44.2380 C   0  0  1  0  0  0
    1.5830    0.6330   42.9290 O   0  0  0  0  0  0
    2.4460    0.3860   41.7980 C   0  0  1  0  0  0
    1.6140    0.3150   40.5230 C   0  0  2  0  0  0
    0.7110   -0.7750   40.6970 O   0  0  0  0  0  0
    2.4700    0.1040   39.2790 C   0  0  1  0  0  0
    1.6770    0.2490   38.0870 O   0  0  0  0  0  0
    3.4150    1.4080   41.5640 O   0  0  0  0  0  0
    4.3650    1.0580   40.5440 C   0  0  2  0  0  0
    5.4940    2.0610   40.6410 C   0  0  0  0  0  0
    5.9570    2.0340   42.0110 O   0  0  0  0  0  0
    3.6980    1.0130   39.1660 C   0  0  1  0  0  0
    4.5210    0.4390   38.1260 O   0  0  0  0  0  0
    5.3690    1.1760   37.1840 C   0  0  1  0  0  0
    5.7100    0.3300   35.8980 C   0  0  2  0  0  0
    7.1180    0.1720   35.6370 O   0  0  0  0  0  0
    5.1600    0.8790   34.5830 C   0  0  1  0  0  0
    5.0910   -0.1620   33.5690 O   0  0  0  0  0  0
    3.8010    1.4780   34.9090 C   0  0  2  0  0  0
    3.1130    1.7920   33.7000 O   0  0  0  0  0  0
    4.7970    2.4720   36.9280 O   0  0  0  0  0  0
    4.0870    2.7410   35.7090 C   0  0  2  0  0  0
    2.8350    3.5360   36.0690 C   0  0  0  0  0  0
    1.8950    2.7510   36.8350 O   0  0  0  0  0  0
    2.5059   -1.8947   54.0658 H   0  0  0  0  0  0
    3.7440   -0.3032   52.5560 H   0  0  0  0  0  0
    1.5693   -1.9650   51.0625 H   0  0  0  0  0  0
    2.8312   -3.3687   52.6423 H   0  0  0  0  0  0
    4.3733   -0.9596   50.1507 H   0  0  0  0  0  0
    3.9429   -3.1764   49.2425 H   0  0  0  0  0  0
    3.6565    1.3309   50.7584 H   0  0  0  0  0  0
    1.9931    3.1296   51.0094 H   0  0  0  0  0  0
    2.2007    2.7652   49.2627 H   0  0  0  0  0  0
   -0.2771    2.8875   49.8664 H   0  0  0  0  0  0
    1.5109   -0.1918   49.2009 H   0  0  0  0  0  0
    1.2999    1.1606   47.5439 H   0  0  0  0  0  0
    4.0638    1.3001   46.1643 H   0  0  0  0  0  0
    3.5853    3.0696   47.9097 H   0  0  0  0  0  0
    1.5325    2.4385   44.8590 H   0  0  0  0  0  0
    3.7346    3.5958   44.4055 H   0  0  0  0  0  0
    0.3616    0.3432   45.3651 H   0  0  0  0  0  0
    0.2527   -1.5501   43.7929 H   0  0  0  0  0  0
    1.7627   -2.2386   44.4804 H   0  0  0  0  0  0
   -0.2888   -3.3459   45.5306 H   0  0  0  0  0  0
    3.0883   -0.0869   44.0239 H   0  0  0  0  0  0
    2.9964   -0.5223   42.0846 H   0  0  0  0  0  0
    1.0280    1.2332   40.3700 H   0  0  0  0  0  0
    0.0168   -0.7833   41.5503 H   0  0  0  0  0  0
    2.8170   -0.9386   39.3293 H   0  0  0  0  0  0
    0.7455   -0.3249   37.9729 H   0  0  0  0  0  0
    4.7430    0.0449   40.7461 H   0  0  0  0  0  0
    6.3000    1.7738   39.9497 H   0  0  0  0  0  0
    5.1205    3.0605   40.3737 H   0  0  0  0  0  0
    6.7836    2.6882   42.3252 H   0  0  0  0  0  0
    3.5096    2.0471   38.8417 H   0  0  0  0  0  0
    6.3054    1.4251   37.7047 H   0  0  0  0  0  0
    5.2954   -0.6620   36.1306 H   0  0  0  0  0  0
    7.7830   -0.2153   36.4230 H   0  0  0  0  0  0
    5.8193    1.6231   34.1122 H   0  0  0  0  0  0
    6.0082   -0.6751   33.2443 H   0  0  0  0  0  0
    3.1233    0.7854   35.4295 H   0  0  0  0  0  0
    2.8300    0.9888   33.0037 H   0  0  0  0  0  0
    4.7593    3.3394   35.0765 H   0  0  0  0  0  0
    3.1178    4.4135   36.6690 H   0  0  0  0  0  0
    2.3338    3.8678   35.1477 H   0  0  0  0  0  0
    0.9452    3.1976   37.1643 H   0  0  0  0  0  0
  1  2  1  0  0  0
  1 46  1  0  0  0
  2  3  1  0  0  0
  2  7  1  0  0  0
  2 47  1  0  0  0
  3  4  1  0  0  0
  3  5  1  0  0  0
  3 48  1  0  0  0
  4 49  1  0  0  0
  5  6  1  0  0  0
  5 11  1  0  0  0
  5 50  1  0  0  0
  6 51  1  0  0  0
  7  8  1  0  0  0
  8  9  1  0  0  0
  8 11  1  0  0  0
  8 52  1  0  0  0
  9 10  1  0  0  0
  9 53  1  0  0  0
  9 54  1  0  0  0
 10 55  1  0  0  0
 11 12  1  0  0  0
 11 56  1  0  0  0
 12 13  1  0  0  0
 13 14  1  0  0  0
 13 18  1  0  0  0
 13 57  1  0  0  0
 14 15  1  0  0  0
 14 16  1  0  0  0
 14 58  1  0  0  0
 15 59  1  0  0  0
 16 17  1  0  0  0
 16 22  1  0  0  0
 16 60  1  0  0  0
 17 61  1  0  0  0
 18 19  1  0  0  0
 19 20  1  0  0  0
 19 22  1  0  0  0
 19 62  1  0  0  0
 20 21  1  0  0  0
 20 63  1  0  0  0
 20 64  1  0  0  0
 21 65  1  0  0  0
 22 23  1  0  0  0
 22 66  1  0  0  0
 23 24  1  0  0  0
 24 25  1  0  0  0
 24 29  1  0  0  0
 24 67  1  0  0  0
 25 26  1  0  0  0
 25 27  1  0  0  0
 25 68  1  0  0  0
 26 69  1  0  0  0
 27 28  1  0  0  0
 27 33  1  0  0  0
 27 70  1  0  0  0
 28 71  1  0  0  0
 29 30  1  0  0  0
 30 31  1  0  0  0
 30 33  1  0  0  0
 30 72  1  0  0  0
 31 32  1  0  0  0
 31 73  1  0  0  0
 31 74  1  0  0  0
 32 75  1  0  0  0
 33 34  1  0  0  0
 33 76  1  0  0  0
 34 35  1  0  0  0
 35 36  1  0  0  0
 35 42  1  0  0  0
 35 77  1  0  0  0
 36 37  1  0  0  0
 36 38  1  0  0  0
 36 78  1  0  0  0
 37 79  1  0  0  0
 38 39  1  0  0  0
 38 40  1  0  0  0
 38 80  1  0  0  0
 39 81  1  0  0  0
 40 41  1  0  0  0
 40 43  1  0  0  0
 40 82  1  0  0  0
 41 83  1  0  0  0
 42 43  1  0  0  0
 43 44  1  0  0  0
 43 84  1  0  0  0
 44 45  1  0  0  0
 44 85  1  0  0  0
 44 86  1  0  0  0
 45 87  1  0  0  0
M  END
> <s_m_source_file>
../4qll_ligand.sdf

> <i_m_source_file_index>
1

> <s_epik_input>
W09IXVtDQEhdMVtDQEhdKFtPSF0pW0NAQEhdKFtPSF0pW0NAQEhdKFtDQEhdKE8xKVtDSDJdW09IXSlPW0NASF0yW0NASF0oW09IXSlbQ0BASF0oW09IXSlbQ0BASF0oW0NASF0oTzIpW0NIMl1bT0hdKU9bQ0BIXTNbQ0BIXShbT0hdKVtDQEBIXShbT0hdKVtDQEBIXShbQ0BIXShPMylbQ0gyXVtPSF0pT1tDQEhdNFtDQEhdKFtPSF0pW0NAQEhdKFtPSF0pW0NASF0oW09IXSlbQ0BIXShPNClbQ0gyXVtPSF0=

> <s_epik_cmdline>
J2VwaWtfYXBwJywgJy1pbWFlJywgJ2xpZ2FuZF9wcm8ubWFlJywgJy1vbWFlJywgJ2xpZ2FuZF9wcmVwLm1hZScsICctbXMnLCAnMScsICctcGgnLCAnNycsICctcGh0JywgJzAuNScsICctbnQn

> <r_lp_tautomer_probability>
1

> <r_epik_Ionization_Penalty>
  0.0000

> <r_epik_Ionization_Penalty_Charging>
  0.0000

> <r_epik_Ionization_Penalty_Neutral>
  0.0000

> <r_epik_State_Penalty>
 -0.0000

> <r_epik_Charging_Adjusted_Penalty>
0

> <i_epik_Tot_Q>
0

> <i_epik_Tot_abs_Q>
0

> <s_epik_Chemistry_Notes>
This compound contains an acetal/aminal-like group ( X-CH(R)-Y where X, Y are N, S, or O) that may be acid/base labile, releasing an aldehyde.

$$$$
