4qlq_ligand
                    3D
 Schrodinger Suite 2020-3.
 92 94  0  0  1  0            999 V2000
   59.6660 -135.0780   34.4700 C   0  0  0  0  0  0
   59.6370 -136.2640   34.7970 O   0  0  0  0  0  0
   58.5720 -134.4910   33.5560 C   0  0  0  0  0  0
   57.3190 -134.6320   34.2890 N   0  0  0  0  0  0
   54.7370 -133.9320   35.0670 O   0  0  0  0  0  0
   57.0210 -133.4520   35.1220 C   0  0  0  0  0  0
   56.2170 -134.8060   33.3190 C   0  0  0  0  0  0
   55.8720 -133.8620   35.9370 C   0  0  0  0  0  0
   54.8410 -134.8660   33.9410 C   0  0  0  0  0  0
   60.6240 -134.2220   34.8610 N   0  0  0  0  0  0
   61.7390 -134.6630   35.7160 C   0  0  2  0  0  0
   61.3000 -134.7270   37.1870 C   0  0  0  0  0  0
   60.4970 -133.9130   37.6380 O   0  0  0  0  0  0
   62.9250 -133.6970   35.5590 C   0  0  0  0  0  0
   61.8540 -135.7230   37.9020 N   0  0  0  0  0  0
   61.5860 -135.9100   39.3390 C   0  0  1  0  0  0
   60.9510 -137.2470   39.6220 C   0  0  0  0  0  0
   59.6110 -137.2160   39.2190 C   0  0  0  0  0  0
   59.2340 -137.6130   37.9380 C   0  0  0  0  0  0
   57.8910 -137.5900   37.5590 C   0  0  0  0  0  0
   56.9020 -137.1790   38.4540 C   0  0  0  0  0  0
   55.6020 -137.1830   38.0070 O   0  0  0  0  0  0
   54.5100 -136.7510   38.8510 C   0  0  0  0  0  0
   57.2890 -136.7900   39.7430 C   0  0  0  0  0  0
   58.6270 -136.8130   40.1180 C   0  0  0  0  0  0
   62.9230 -135.9080   40.0990 C   0  0  0  0  0  0
   63.9780 -136.1550   39.5120 O   0  0  0  0  0  0
   62.8320 -135.6780   41.4240 N   0  0  0  0  0  0
   64.0190 -135.6860   42.3000 C   0  0  1  0  0  0
   64.2510 -134.3210   42.9420 C   0  0  0  0  0  0
   64.4040 -133.1870   41.8980 C   0  0  0  0  0  0
   65.6890 -133.3660   41.1440 C   0  0  0  0  0  0
   65.9060 -132.1350   40.2500 C   0  0  0  0  0  0
   66.0760 -130.8910   41.1220 C   0  0  0  0  0  0
   64.7620 -130.6330   41.8370 C   0  0  0  0  0  0
   64.3810 -131.8520   42.6880 C   0  0  0  0  0  0
   63.8430 -136.7140   43.4690 C   0  0  1  0  0  0
   62.5550 -136.4870   44.0400 O   0  0  0  0  0  0
   64.0700 -138.3040   43.1620 C   0  0  2  0  0  0
   65.0880 -138.4690   41.9920 C   0  0  0  0  0  0
   62.7840 -138.9200   42.5810 C   0  0  0  0  0  0
   61.7840 -137.9120   42.6290 O   0  0  0  0  0  0
   58.7952 -133.4339   33.3493 H   0  0  0  0  0  0
   58.5447 -135.0517   32.6100 H   0  0  0  0  0  0
   57.8977 -133.2087   35.7402 H   0  0  0  0  0  0
   56.7809 -132.5966   34.4735 H   0  0  0  0  0  0
   56.2133 -133.9624   32.6131 H   0  0  0  0  0  0
   56.3602 -135.7461   32.7661 H   0  0  0  0  0  0
   55.6799 -133.1262   36.7318 H   0  0  0  0  0  0
   56.0505 -134.8497   36.3871 H   0  0  0  0  0  0
   54.6570 -135.8906   34.2964 H   0  0  0  0  0  0
   54.0947 -134.6035   33.1767 H   0  0  0  0  0  0
   60.5651 -133.1744   34.5308 H   0  0  0  0  0  0
   62.0151 -135.6706   35.3716 H   0  0  0  0  0  0
   63.2301 -133.6596   34.5028 H   0  0  0  0  0  0
   63.7680 -134.0487   36.1719 H   0  0  0  0  0  0
   62.6253 -132.6917   35.8900 H   0  0  0  0  0  0
   62.5295 -136.4124   37.3742 H   0  0  0  0  0  0
   60.8993 -135.0972   39.6179 H   0  0  0  0  0  0
   61.4851 -138.0316   39.0660 H   0  0  0  0  0  0
   61.0070 -137.4587   40.7000 H   0  0  0  0  0  0
   59.9920 -137.9434   37.2278 H   0  0  0  0  0  0
   57.6109 -137.8969   36.5513 H   0  0  0  0  0  0
   53.5632 -136.8353   38.2974 H   0  0  0  0  0  0
   54.6687 -135.7040   39.1487 H   0  0  0  0  0  0
   54.4675 -137.3851   39.7488 H   0  0  0  0  0  0
   56.5334 -136.4662   40.4587 H   0  0  0  0  0  0
   58.9092 -136.5123   41.1270 H   0  0  0  0  0  0
   61.8366 -135.4803   41.8484 H   0  0  0  0  0  0
   64.8443 -135.9377   41.6177 H   0  0  0  0  0  0
   63.3974 -134.0702   43.5888 H   0  0  0  0  0  0
   65.1711 -134.3506   43.5442 H   0  0  0  0  0  0
   63.6160 -133.2026   41.1306 H   0  0  0  0  0  0
   66.5215 -133.4639   41.8563 H   0  0  0  0  0  0
   65.6276 -134.2732   40.5249 H   0  0  0  0  0  0
   66.8097 -132.2797   39.6398 H   0  0  0  0  0  0
   65.0356 -132.0027   39.5905 H   0  0  0  0  0  0
   66.8784 -131.0635   41.8544 H   0  0  0  0  0  0
   66.3373 -130.0313   40.4874 H   0  0  0  0  0  0
   64.8662 -129.7537   42.4896 H   0  0  0  0  0  0
   63.9712 -130.4474   41.0953 H   0  0  0  0  0  0
   63.3690 -131.6764   43.0818 H   0  0  0  0  0  0
   65.0948 -131.9077   43.5231 H   0  0  0  0  0  0
   64.5865 -136.4326   44.2293 H   0  0  0  0  0  0
   62.2437 -135.4662   44.3066 H   0  0  0  0  0  0
   64.3852 -138.8191   44.0814 H   0  0  0  0  0  0
   66.0627 -138.0578   42.2933 H   0  0  0  0  0  0
   64.7201 -137.9292   41.1070 H   0  0  0  0  0  0
   65.1992 -139.5364   41.7505 H   0  0  0  0  0  0
   62.9661 -139.2386   41.5440 H   0  0  0  0  0  0
   62.4888 -139.7903   43.1855 H   0  0  0  0  0  0
   60.7693 -138.1260   42.2620 H   0  0  0  0  0  0
  1  2  2  0  0  0
  1  3  1  0  0  0
  1 10  1  0  0  0
  3  4  1  0  0  0
  3 43  1  0  0  0
  3 44  1  0  0  0
  4  6  1  0  0  0
  4  7  1  0  0  0
  5  8  1  0  0  0
  5  9  1  0  0  0
  6  8  1  0  0  0
  6 45  1  0  0  0
  6 46  1  0  0  0
  7  9  1  0  0  0
  7 47  1  0  0  0
  7 48  1  0  0  0
  8 49  1  0  0  0
  8 50  1  0  0  0
  9 51  1  0  0  0
  9 52  1  0  0  0
 10 11  1  0  0  0
 10 53  1  0  0  0
 11 12  1  0  0  0
 11 14  1  0  0  0
 11 54  1  0  0  0
 12 13  2  0  0  0
 12 15  1  0  0  0
 14 55  1  0  0  0
 14 56  1  0  0  0
 14 57  1  0  0  0
 15 16  1  0  0  0
 15 58  1  0  0  0
 16 17  1  0  0  0
 16 26  1  0  0  0
 16 59  1  0  0  0
 17 18  1  0  0  0
 17 60  1  0  0  0
 17 61  1  0  0  0
 18 19  2  0  0  0
 18 25  1  0  0  0
 19 20  1  0  0  0
 19 62  1  0  0  0
 20 21  2  0  0  0
 20 63  1  0  0  0
 21 22  1  0  0  0
 21 24  1  0  0  0
 22 23  1  0  0  0
 23 64  1  0  0  0
 23 65  1  0  0  0
 23 66  1  0  0  0
 24 25  2  0  0  0
 24 67  1  0  0  0
 25 68  1  0  0  0
 26 27  2  0  0  0
 26 28  1  0  0  0
 28 29  1  0  0  0
 28 69  1  0  0  0
 29 30  1  0  0  0
 29 37  1  0  0  0
 29 70  1  0  0  0
 30 31  1  0  0  0
 30 71  1  0  0  0
 30 72  1  0  0  0
 31 32  1  0  0  0
 31 36  1  0  0  0
 31 73  1  0  0  0
 32 33  1  0  0  0
 32 74  1  0  0  0
 32 75  1  0  0  0
 33 34  1  0  0  0
 33 76  1  0  0  0
 33 77  1  0  0  0
 34 35  1  0  0  0
 34 78  1  0  0  0
 34 79  1  0  0  0
 35 36  1  0  0  0
 35 80  1  0  0  0
 35 81  1  0  0  0
 36 82  1  0  0  0
 36 83  1  0  0  0
 37 38  1  0  0  0
 37 39  1  0  0  0
 37 84  1  0  0  0
 38 85  1  0  0  0
 39 40  1  0  0  0
 39 41  1  0  0  0
 39 86  1  0  0  0
 40 87  1  0  0  0
 40 88  1  0  0  0
 40 89  1  0  0  0
 41 42  1  0  0  0
 41 90  1  0  0  0
 41 91  1  0  0  0
 42 92  1  0  0  0
M  END
> <s_m_source_file>
../4qlq_ligand.sdf

> <i_m_source_file_index>
1

> <s_epik_input>
W0NIMl0xW0NIMl1PW0NIMl1bQ0gyXVtOSCtdMVtDSDJdQyg9TylbTkhdW0NAQEhdKFtDSDNdKUMoPU8pW05IXVtDQEBIXShbQ0gyXWMyW2NIXVtjSF1jKE9bQ0gzXSlbY0hdW2NIXTIpQyg9TylbTkhdW0NASF0oW0NAQEhdKFtPSF0pW0NASF0oW0NIM10pW0NIMl1bT0hdKVtDSDJdW0NIXTNbQ0gyXVtDSDJdW0NIMl1bQ0gyXVtDSDJdMw==

> <s_epik_cmdline>
J2VwaWtfYXBwJywgJy1pbWFlJywgJ2xpZ2FuZF9wcm8ubWFlJywgJy1vbWFlJywgJ2xpZ2FuZF9wcmVwLm1hZScsICctbXMnLCAnMScsICctcGgnLCAnNycsICctcGh0JywgJzAuNScsICctbnQn

> <r_lp_tautomer_probability>
1

> <r_epik_Ionization_Penalty>
  0.0035

> <r_epik_Ionization_Penalty_Charging>
  0.0000

> <r_epik_Ionization_Penalty_Neutral>
  0.0035

> <r_epik_State_Penalty>
 -0.0000

> <r_epik_Charging_Adjusted_Penalty>
0

> <i_epik_Tot_Q>
0

> <i_epik_Tot_abs_Q>
0

$$$$
