4qls_ligand
                    3D
 Schrodinger Suite 2020-3.
 92 94  0  0  1  0            999 V2000
    7.7580 -136.0950   19.5040 C   0  0  0  0  0  0
    7.2800 -136.9750   18.7910 O   0  0  0  0  0  0
    6.9900 -134.8510   19.9560 C   0  0  0  0  0  0
    5.6430 -134.7360   19.4340 N   0  0  0  0  0  0
    3.2230 -134.6790   18.2430 O   0  0  0  0  0  0
    5.5630 -134.3850   18.0110 C   0  0  0  0  0  0
    4.6750 -135.7910   19.7980 C   0  0  0  0  0  0
    4.2420 -133.7260   17.7820 C   0  0  0  0  0  0
    3.3630 -135.1030   19.6370 C   0  0  0  0  0  0
    9.0010 -136.0990   20.0120 N   0  0  0  0  0  0
    9.9800 -137.1560   19.7720 C   0  0  2  0  0  0
   10.8560 -137.2810   21.0230 C   0  0  0  0  0  0
   10.8710 -136.7640   18.5970 C   0  0  0  0  0  0
   11.4300 -135.6680   18.5870 O   0  0  0  0  0  0
   11.0210 -137.6980   17.6470 N   0  0  0  0  0  0
   11.8900 -137.4750   16.4790 C   0  0  1  0  0  0
   12.9500 -138.5640   16.4130 C   0  0  0  0  0  0
   13.8800 -138.3260   17.4530 C   0  0  0  0  0  0
   15.1320 -137.7620   17.1870 C   0  0  0  0  0  0
   16.0450 -137.5360   18.2180 C   0  0  0  0  0  0
   15.7310 -137.8790   19.5350 C   0  0  0  0  0  0
   16.6570 -137.6300   20.5200 O   0  0  0  0  0  0
   16.7870 -138.5560   21.6210 C   0  0  0  0  0  0
   14.4790 -138.4390   19.8040 C   0  0  0  0  0  0
   13.5720 -138.6680   18.7720 C   0  0  0  0  0  0
   11.0260 -137.4970   15.2100 C   0  0  0  0  0  0
    9.8830 -137.9470   15.2400 O   0  0  0  0  0  0
   11.6110 -136.9780   14.1170 N   0  0  0  0  0  0
   10.9260 -136.9050   12.8190 C   0  0  1  0  0  0
   10.8740 -135.4700   12.3180 C   0  0  0  0  0  0
   10.0620 -134.5070   13.2210 C   0  0  0  0  0  0
    9.9500 -133.2560   12.4220 C   0  0  0  0  0  0
    9.3590 -132.1810   13.3160 C   0  0  0  0  0  0
    7.9350 -132.5290   13.6810 C   0  0  0  0  0  0
    7.8690 -133.9150   14.3370 C   0  0  0  0  0  0
    8.6360 -134.9850   13.5270 C   0  0  0  0  0  0
   11.7000 -137.6960   11.7300 C   0  0  1  0  0  0
   13.0900 -137.3260   11.8020 O   0  0  0  0  0  0
   11.5630 -139.2930   11.7480 C   0  0  2  0  0  0
   10.1340 -139.7050   12.1990 C   0  0  0  0  0  0
   12.4730 -139.7880   12.8960 C   0  0  0  0  0  0
   13.5330 -140.5300   12.2770 O   0  0  0  0  0  0
    6.9026 -134.8524   21.0525 H   0  0  0  0  0  0
    7.5300 -133.9490   19.6324 H   0  0  0  0  0  0
    6.3835 -133.6981   17.7561 H   0  0  0  0  0  0
    5.6467 -135.2978   17.4029 H   0  0  0  0  0  0
    4.7923 -136.6470   19.1171 H   0  0  0  0  0  0
    4.8597 -136.1171   20.8322 H   0  0  0  0  0  0
    4.0868 -133.5112   16.7144 H   0  0  0  0  0  0
    4.1597 -132.7933   18.3594 H   0  0  0  0  0  0
    3.3201 -134.2220   20.2943 H   0  0  0  0  0  0
    2.5456 -135.7926   19.8944 H   0  0  0  0  0  0
    9.2650 -135.2379   20.6435 H   0  0  0  0  0  0
    9.4289 -138.0820   19.5510 H   0  0  0  0  0  0
   10.2300 -137.5636   21.8822 H   0  0  0  0  0  0
   11.3443 -136.3166   21.2265 H   0  0  0  0  0  0
   11.6225 -138.0526   20.8583 H   0  0  0  0  0  0
   10.4770 -138.6480   17.7544 H   0  0  0  0  0  0
   12.3824 -136.4990   16.6012 H   0  0  0  0  0  0
   12.4743 -139.5471   16.5440 H   0  0  0  0  0  0
   13.4530 -138.5274   15.4354 H   0  0  0  0  0  0
   15.3974 -137.4962   16.1637 H   0  0  0  0  0  0
   17.0126 -137.0874   17.9932 H   0  0  0  0  0  0
   17.5692 -138.2011   22.3082 H   0  0  0  0  0  0
   17.0612 -139.5488   21.2347 H   0  0  0  0  0  0
   15.8296 -138.6233   22.1585 H   0  0  0  0  0  0
   14.2106 -138.6982   20.8281 H   0  0  0  0  0  0
   12.6066 -139.1212   18.9971 H   0  0  0  0  0  0
   12.6390 -136.5999   14.2184 H   0  0  0  0  0  0
    9.9251 -137.3112   13.0267 H   0  0  0  0  0  0
   11.8954 -135.0665   12.2547 H   0  0  0  0  0  0
   10.4079 -135.4460   11.3219 H   0  0  0  0  0  0
   10.5659 -134.3751   14.1899 H   0  0  0  0  0  0
   10.9482 -132.9535   12.0726 H   0  0  0  0  0  0
    9.2958 -133.4318   11.5553 H   0  0  0  0  0  0
    9.9565 -132.0999   14.2360 H   0  0  0  0  0  0
    9.3691 -131.2171   12.7862 H   0  0  0  0  0  0
    7.5444 -131.7815   14.3872 H   0  0  0  0  0  0
    7.3146 -132.5347   12.7727 H   0  0  0  0  0  0
    8.3126 -133.8663   15.3424 H   0  0  0  0  0  0
    6.8192 -134.2344   14.4145 H   0  0  0  0  0  0
    8.1013 -135.1707   12.5838 H   0  0  0  0  0  0
    8.6788 -135.9147   14.1134 H   0  0  0  0  0  0
   11.3083 -137.3395   10.7659 H   0  0  0  0  0  0
   13.3773 -136.2642   11.8010 H   0  0  0  0  0  0
   11.8008 -139.7226   10.7637 H   0  0  0  0  0  0
    9.4046 -139.3919   11.4374 H   0  0  0  0  0  0
    9.8968 -139.2176   13.1562 H   0  0  0  0  0  0
   10.0891 -140.7971   12.3226 H   0  0  0  0  0  0
   12.8672 -138.9234   13.4502 H   0  0  0  0  0  0
   11.8901 -140.4253   13.5772 H   0  0  0  0  0  0
   14.3180 -140.9884   12.8964 H   0  0  0  0  0  0
  1  2  2  0  0  0
  1  3  1  0  0  0
  1 10  1  0  0  0
  3  4  1  0  0  0
  3 43  1  0  0  0
  3 44  1  0  0  0
  4  6  1  0  0  0
  4  7  1  0  0  0
  5  8  1  0  0  0
  5  9  1  0  0  0
  6  8  1  0  0  0
  6 45  1  0  0  0
  6 46  1  0  0  0
  7  9  1  0  0  0
  7 47  1  0  0  0
  7 48  1  0  0  0
  8 49  1  0  0  0
  8 50  1  0  0  0
  9 51  1  0  0  0
  9 52  1  0  0  0
 10 11  1  0  0  0
 10 53  1  0  0  0
 11 12  1  0  0  0
 11 13  1  0  0  0
 11 54  1  0  0  0
 12 55  1  0  0  0
 12 56  1  0  0  0
 12 57  1  0  0  0
 13 14  2  0  0  0
 13 15  1  0  0  0
 15 16  1  0  0  0
 15 58  1  0  0  0
 16 17  1  0  0  0
 16 26  1  0  0  0
 16 59  1  0  0  0
 17 18  1  0  0  0
 17 60  1  0  0  0
 17 61  1  0  0  0
 18 19  2  0  0  0
 18 25  1  0  0  0
 19 20  1  0  0  0
 19 62  1  0  0  0
 20 21  2  0  0  0
 20 63  1  0  0  0
 21 22  1  0  0  0
 21 24  1  0  0  0
 22 23  1  0  0  0
 23 64  1  0  0  0
 23 65  1  0  0  0
 23 66  1  0  0  0
 24 25  2  0  0  0
 24 67  1  0  0  0
 25 68  1  0  0  0
 26 27  2  0  0  0
 26 28  1  0  0  0
 28 29  1  0  0  0
 28 69  1  0  0  0
 29 30  1  0  0  0
 29 37  1  0  0  0
 29 70  1  0  0  0
 30 31  1  0  0  0
 30 71  1  0  0  0
 30 72  1  0  0  0
 31 32  1  0  0  0
 31 36  1  0  0  0
 31 73  1  0  0  0
 32 33  1  0  0  0
 32 74  1  0  0  0
 32 75  1  0  0  0
 33 34  1  0  0  0
 33 76  1  0  0  0
 33 77  1  0  0  0
 34 35  1  0  0  0
 34 78  1  0  0  0
 34 79  1  0  0  0
 35 36  1  0  0  0
 35 80  1  0  0  0
 35 81  1  0  0  0
 36 82  1  0  0  0
 36 83  1  0  0  0
 37 38  1  0  0  0
 37 39  1  0  0  0
 37 84  1  0  0  0
 38 85  1  0  0  0
 39 40  1  0  0  0
 39 41  1  0  0  0
 39 86  1  0  0  0
 40 87  1  0  0  0
 40 88  1  0  0  0
 40 89  1  0  0  0
 41 42  1  0  0  0
 41 90  1  0  0  0
 41 91  1  0  0  0
 42 92  1  0  0  0
M  END
> <s_m_source_file>
../4qls_ligand.sdf

> <i_m_source_file_index>
1

> <s_epik_input>
W0NIMl0xW0NIMl1PW0NIMl1bQ0gyXVtOSCtdMVtDSDJdQyg9TylbTkhdW0NASF0oW0NIM10pQyg9TylbTkhdW0NAQEhdKFtDSDJdYzJbY0hdW2NIXWMoT1tDSDNdKVtjSF1bY0hdMilDKD1PKVtOSF1bQ0BIXShbQ0BASF0oW09IXSlbQ0BIXShbQ0gzXSlbQ0gyXVtPSF0pW0NIMl1bQ0hdM1tDSDJdW0NIMl1bQ0gyXVtDSDJdW0NIMl0z

> <s_epik_cmdline>
J2VwaWtfYXBwJywgJy1pbWFlJywgJ2xpZ2FuZF9wcm8ubWFlJywgJy1vbWFlJywgJ2xpZ2FuZF9wcmVwLm1hZScsICctbXMnLCAnMScsICctcGgnLCAnNycsICctcGh0JywgJzAuNScsICctbnQn

> <r_lp_tautomer_probability>
1

> <r_epik_Ionization_Penalty>
  0.0035

> <r_epik_Ionization_Penalty_Charging>
  0.0000

> <r_epik_Ionization_Penalty_Neutral>
  0.0035

> <r_epik_State_Penalty>
 -0.0000

> <r_epik_Charging_Adjusted_Penalty>
0

> <i_epik_Tot_Q>
0

> <i_epik_Tot_abs_Q>
0

$$$$
