4qlt_ligand
                    3D
 Schrodinger Suite 2020-3.
 88 92  0  0  1  0            999 V2000
   11.4490 -138.6240   23.8950 C   0  0  0  0  0  0
   11.6390 -137.1260   23.9650 C   0  0  0  0  0  0
   12.1720 -136.5350   25.0060 C   0  0  0  0  0  0
   12.5740 -137.0060   26.1680 C   0  0  0  0  0  0
   13.1100 -136.2060   27.1440 C   0  0  0  0  0  0
   13.2100 -134.8810   26.8690 C   0  0  0  0  0  0
   12.7620 -134.4500   25.6420 C   0  0  0  0  0  0
   12.2520 -135.2610   24.7380 C   0  0  0  0  0  0
   11.7360 -135.0330   23.4790 C   0  0  0  0  0  0
   11.3460 -136.2560   23.0280 C   0  0  0  0  0  0
   10.7980 -136.5270   21.8520 C   0  0  0  0  0  0
   10.5770 -137.6590   21.5300 O   0  0  0  0  0  0
   10.5450 -135.5210   21.0590 N   0  0  0  0  0  0
    9.9160 -135.6060   19.7450 C   0  0  2  0  0  0
    8.8570 -136.6640   19.7040 C   0  0  0  0  0  0
   10.9210 -135.7580   18.6450 C   0  0  0  0  0  0
   11.8750 -135.0250   18.6490 O   0  0  0  0  0  0
   10.6880 -136.6280   17.6800 N   0  0  0  0  0  0
   11.6060 -136.7770   16.5660 C   0  0  2  0  0  0
   10.7810 -136.8410   15.3290 C   0  0  0  0  0  0
    9.6630 -137.2740   15.4030 O   0  0  0  0  0  0
   12.4820 -138.0190   16.7050 C   0  0  0  0  0  0
   13.5260 -137.6960   17.7520 C   0  0  0  0  0  0
   13.2880 -137.7470   19.0300 C   0  0  0  0  0  0
   14.7470 -137.2860   17.5720 C   0  0  0  0  0  0
   14.3820 -137.3790   19.6440 N   0  3  0  0  0  0
   15.2750 -137.0940   18.7440 C   0  0  0  0  0  0
   15.4310 -137.0760   16.5000 C   0  0  0  0  0  0
   16.4990 -136.6940   18.9190 C   0  0  0  0  0  0
   16.7280 -136.6510   16.6140 C   0  0  0  0  0  0
   17.2820 -136.4570   17.8460 C   0  0  0  0  0  0
   11.3700 -136.4230   14.2150 N   0  0  0  0  0  0
   10.7460 -136.3230   12.9070 C   0  0  2  0  0  0
   11.5710 -137.0480   11.8240 C   0  0  1  0  0  0
   12.8100 -136.6870   12.0470 O   0  0  0  0  0  0
   11.4860 -138.6130   11.7460 C   0  0  2  0  0  0
   10.0890 -139.0910   12.0050 C   0  0  0  0  0  0
   12.3750 -139.2530   12.7730 C   0  0  0  0  0  0
   12.4330 -138.4720   13.9440 O   0  0  0  0  0  0
   10.7590 -134.8150   12.6210 C   0  0  0  0  0  0
    9.8350 -133.9960   13.2500 C   0  0  0  0  0  0
    8.8830 -134.4580   14.1140 C   0  0  0  0  0  0
    8.0100 -133.5790   14.7060 C   0  0  0  0  0  0
    8.0770 -132.2400   14.4310 C   0  0  0  0  0  0
    9.0240 -131.7660   13.5640 C   0  0  0  0  0  0
    9.8950 -132.6500   12.9880 C   0  0  0  0  0  0
   11.7882 -139.0810   24.8363 H   0  0  0  0  0  0
   12.0365 -139.0294   23.0580 H   0  0  0  0  0  0
   10.3841 -138.8517   23.7397 H   0  0  0  0  0  0
   12.4768 -138.0742   26.3617 H   0  0  0  0  0  0
   13.4410 -136.6160   28.0982 H   0  0  0  0  0  0
   13.6300 -134.1837   27.5939 H   0  0  0  0  0  0
   12.8323 -133.3880   25.4068 H   0  0  0  0  0  0
   10.8862 -134.3383   23.5513 H   0  0  0  0  0  0
   12.5145 -134.5944   22.8375 H   0  0  0  0  0  0
   10.8509 -134.5435   21.4601 H   0  0  0  0  0  0
    9.4200 -134.6356   19.5958 H   0  0  0  0  0  0
    8.1483 -136.5056   20.5302 H   0  0  0  0  0  0
    9.3242 -137.6546   19.8065 H   0  0  0  0  0  0
    8.3207 -136.6090   18.7452 H   0  0  0  0  0  0
    9.7794 -137.2460   17.7304 H   0  0  0  0  0  0
   12.2656 -135.8968   16.5538 H   0  0  0  0  0  0
   11.8620 -138.8717   17.0190 H   0  0  0  0  0  0
   12.9536 -138.2453   15.7373 H   0  0  0  0  0  0
   12.2983 -138.0610   19.3930 H   0  0  0  0  0  0
   14.9844 -137.2341   15.5183 H   0  0  0  0  0  0
   16.8906 -136.5509   19.9261 H   0  0  0  0  0  0
   17.3199 -136.4670   15.7174 H   0  0  0  0  0  0
   18.3139 -136.1245   17.9585 H   0  0  0  0  0  0
   12.4245 -136.1380   14.3445 H   0  0  0  0  0  0
    9.7501 -136.7883   12.9486 H   0  0  0  0  0  0
   11.3046 -136.6602   10.8297 H   0  0  0  0  0  0
   13.0651 -135.6205   12.1333 H   0  0  0  0  0  0
   11.7969 -138.9416   10.7433 H   0  0  0  0  0  0
    9.4055 -138.6418   11.2695 H   0  0  0  0  0  0
    9.7823 -138.7951   13.0191 H   0  0  0  0  0  0
   10.0541 -140.1869   11.9165 H   0  0  0  0  0  0
   11.9813 -140.2474   13.0302 H   0  0  0  0  0  0
   13.3916 -139.3553   12.3654 H   0  0  0  0  0  0
   13.0444 -138.8033   14.7963 H   0  0  0  0  0  0
   11.7344 -134.3957   12.9085 H   0  0  0  0  0  0
   10.5883 -134.6438   11.5479 H   0  0  0  0  0  0
    8.8165 -135.5236   14.3333 H   0  0  0  0  0  0
    7.2571 -133.9508   15.4010 H   0  0  0  0  0  0
    7.3762 -131.5511   14.9025 H   0  0  0  0  0  0
    9.0833 -130.7017   13.3362 H   0  0  0  0  0  0
   10.6562 -132.2757   12.3034 H   0  0  0  0  0  0
   14.4146 -137.3562   20.7433 H   0  0  0  0  0  0
  1  2  1  0  0  0
  1 47  1  0  0  0
  1 48  1  0  0  0
  1 49  1  0  0  0
  2  3  1  0  0  0
  2 10  2  0  0  0
  3  4  2  0  0  0
  3  8  1  0  0  0
  4  5  1  0  0  0
  4 50  1  0  0  0
  5  6  2  0  0  0
  5 51  1  0  0  0
  6  7  1  0  0  0
  6 52  1  0  0  0
  7  8  2  0  0  0
  7 53  1  0  0  0
  8  9  1  0  0  0
  9 10  1  0  0  0
  9 54  1  0  0  0
  9 55  1  0  0  0
 10 11  1  0  0  0
 11 12  2  0  0  0
 11 13  1  0  0  0
 13 14  1  0  0  0
 13 56  1  0  0  0
 14 15  1  0  0  0
 14 16  1  0  0  0
 14 57  1  0  0  0
 15 58  1  0  0  0
 15 59  1  0  0  0
 15 60  1  0  0  0
 16 17  2  0  0  0
 16 18  1  0  0  0
 18 19  1  0  0  0
 18 61  1  0  0  0
 19 20  1  0  0  0
 19 22  1  0  0  0
 19 62  1  0  0  0
 20 21  2  0  0  0
 20 32  1  0  0  0
 22 23  1  0  0  0
 22 63  1  0  0  0
 22 64  1  0  0  0
 23 24  2  0  0  0
 23 25  1  0  0  0
 24 26  1  0  0  0
 24 65  1  0  0  0
 25 27  2  0  0  0
 25 28  1  0  0  0
 26 27  1  0  0  0
 26 88  1  0  0  0
 27 29  1  0  0  0
 28 30  2  0  0  0
 28 66  1  0  0  0
 29 31  2  0  0  0
 29 67  1  0  0  0
 30 31  1  0  0  0
 30 68  1  0  0  0
 31 69  1  0  0  0
 32 33  1  0  0  0
 32 70  1  0  0  0
 33 34  1  0  0  0
 33 40  1  0  0  0
 33 71  1  0  0  0
 34 35  1  0  0  0
 34 36  1  0  0  0
 34 72  1  0  0  0
 35 73  1  0  0  0
 36 37  1  0  0  0
 36 38  1  0  0  0
 36 74  1  0  0  0
 37 75  1  0  0  0
 37 76  1  0  0  0
 37 77  1  0  0  0
 38 39  1  0  0  0
 38 78  1  0  0  0
 38 79  1  0  0  0
 39 80  1  0  0  0
 40 41  1  0  0  0
 40 81  1  0  0  0
 40 82  1  0  0  0
 41 42  2  0  0  0
 41 46  1  0  0  0
 42 43  1  0  0  0
 42 83  1  0  0  0
 43 44  2  0  0  0
 43 84  1  0  0  0
 44 45  1  0  0  0
 44 85  1  0  0  0
 45 46  2  0  0  0
 45 86  1  0  0  0
 46 87  1  0  0  0
M  CHG  1  26   1
M  END
> <s_m_source_file>
../4qlt_ligand.sdf

> <i_m_source_file_index>
1

> <s_epik_input>
W2NIXTFbY0hdW2NIXVtjSF1jKGMxMilbQ0gyXUMoPUMyW0NIM10pQyg9TylbTkhdW0NASF0oW0NIM10pQyg9TylbTkhdW0NAQEhdKFtDSDJdYzNbY0hdW25IXWMoYzM0KVtjSF1bY0hdW2NIXVtjSF00KUMoPU8pW05IXVtDQEhdKFtDQEBIXShbT0hdKVtDQEhdKFtDSDNdKVtDSDJdW09IXSlbQ0gyXWM1W2NIXVtjSF1bY0hdW2NIXVtjSF01

> <s_epik_cmdline>
J2VwaWtfYXBwJywgJy1pbWFlJywgJ2xpZ2FuZF9wcm8ubWFlJywgJy1vbWFlJywgJ2xpZ2FuZF9wcmVwLm1hZScsICctbXMnLCAnMScsICctcGgnLCAnNycsICctcGh0JywgJzAuNScsICctbnQn

> <r_lp_tautomer_probability>
1

> <r_epik_Ionization_Penalty>
  0.0000

> <r_epik_Ionization_Penalty_Charging>
  0.0000

> <r_epik_Ionization_Penalty_Neutral>
  0.0000

> <r_epik_State_Penalty>
 -0.0000

> <r_epik_Charging_Adjusted_Penalty>
0

> <i_epik_Tot_Q>
1

> <i_epik_Tot_abs_Q>
1

$$$$
