4qlu_ligand
                    3D
 Schrodinger Suite 2020-3.
 94 98  0  0  1  0            999 V2000
   11.4050 -139.2310   23.7430 C   0  0  0  0  0  0
   11.4510 -137.7240   23.8770 C   0  0  0  0  0  0
   11.9110 -137.0900   24.9470 C   0  0  0  0  0  0
   12.3340 -137.5080   26.1250 C   0  0  0  0  0  0
   12.7670 -136.6650   27.1080 C   0  0  0  0  0  0
   12.7400 -135.3330   26.8470 C   0  0  0  0  0  0
   12.2600 -134.9480   25.6270 C   0  0  0  0  0  0
   11.8570 -135.8080   24.7090 C   0  0  0  0  0  0
   11.3460 -135.6220   23.4410 C   0  0  0  0  0  0
   11.0910 -136.8650   22.9550 C   0  0  0  0  0  0
   10.5680 -137.1450   21.7650 C   0  0  0  0  0  0
   10.4520 -138.2850   21.3980 O   0  0  0  0  0  0
   10.2340 -136.1310   21.0030 N   0  0  0  0  0  0
    9.6000 -136.2260   19.6990 C   0  0  2  0  0  0
    8.6180 -137.3740   19.6380 C   0  0  0  0  0  0
   10.6170 -136.2720   18.6450 C   0  0  0  0  0  0
   11.4930 -135.4510   18.7000 O   0  0  0  0  0  0
   10.4760 -137.1400   17.6620 N   0  0  0  0  0  0
   11.4500 -137.2150   16.5920 C   0  0  2  0  0  0
   10.6680 -137.3030   15.3040 C   0  0  0  0  0  0
    9.5200 -137.6490   15.3340 O   0  0  0  0  0  0
   12.4910 -138.3290   16.9070 C   0  0  0  0  0  0
   13.8660 -137.7180   17.2750 C   0  0  0  0  0  0
   14.1510 -136.4740   17.0960 C   0  0  0  0  0  0
   14.9280 -138.2670   17.8040 C   0  0  0  0  0  0
   15.3600 -136.2620   17.4890 N   0  3  0  0  0  0
   15.8530 -137.3510   17.9150 C   0  0  0  0  0  0
   15.2180 -139.4900   18.2000 C   0  0  0  0  0  0
   17.0540 -137.5510   18.3990 C   0  0  0  0  0  0
   16.4750 -139.7880   18.7190 C   0  0  0  0  0  0
   17.4250 -138.7940   18.8270 C   0  0  0  0  0  0
   11.2570 -136.8930   14.2050 N   0  0  0  0  0  0
   10.5930 -136.7620   12.9130 C   0  0  1  0  0  0
   10.6630 -135.2430   12.7260 C   0  0  0  0  0  0
    9.3980 -134.4010   12.7360 C   0  0  0  0  0  0
    9.8820 -132.9690   12.6950 C   0  0  0  0  0  0
    9.1260 -131.9260   13.4340 C   0  0  0  0  0  0
    7.7390 -132.2870   13.6630 C   0  0  0  0  0  0
    7.7150 -133.5180   14.4710 C   0  0  0  0  0  0
    8.5530 -134.6750   13.9360 C   0  0  0  0  0  0
   11.3460 -137.4670   11.7470 C   0  0  1  0  0  0
   12.6630 -137.3630   12.0180 O   0  0  0  0  0  0
   11.0510 -138.9960   11.5500 C   0  0  2  0  0  0
    9.5790 -139.2790   11.6710 C   0  0  0  0  0  0
   11.6630 -139.7860   12.6760 C   0  0  0  0  0  0
   12.8910 -139.2350   13.0610 O   0  0  0  0  0  0
   11.7667 -139.6930   24.6734 H   0  0  0  0  0  0
   12.0451 -139.5443   22.9051 H   0  0  0  0  0  0
   10.3698 -139.5508   23.5531 H   0  0  0  0  0  0
   12.3379 -138.5798   26.3232 H   0  0  0  0  0  0
   13.1208 -137.0469   28.0656 H   0  0  0  0  0  0
   13.0860 -134.6028   27.5785 H   0  0  0  0  0  0
   12.2073 -133.8830   25.4011 H   0  0  0  0  0  0
   10.4261 -135.0218   23.5008 H   0  0  0  0  0  0
   12.0869 -135.0966   22.8205 H   0  0  0  0  0  0
   10.4731 -135.1449   21.4278 H   0  0  0  0  0  0
    9.0341 -135.2964   19.5391 H   0  0  0  0  0  0
    7.8875 -137.2754   20.4545 H   0  0  0  0  0  0
    9.1595 -138.3257   19.7434 H   0  0  0  0  0  0
    8.0926 -137.3561   18.6717 H   0  0  0  0  0  0
    9.6053 -137.8122   17.6613 H   0  0  0  0  0  0
   12.0377 -136.2886   16.5123 H   0  0  0  0  0  0
   12.1360 -138.9334   17.7547 H   0  0  0  0  0  0
   12.6168 -138.9734   16.0245 H   0  0  0  0  0  0
   13.4002 -135.7939   16.6673 H   0  0  0  0  0  0
   14.4666 -140.2756   18.1204 H   0  0  0  0  0  0
   17.7597 -136.7225   18.4603 H   0  0  0  0  0  0
   16.7076 -140.8037   19.0390 H   0  0  0  0  0  0
   18.4179 -138.9897   19.2319 H   0  0  0  0  0  0
   12.3230 -136.6403   14.3037 H   0  0  0  0  0  0
    9.5941 -137.2208   12.9540 H   0  0  0  0  0  0
   11.2733 -134.8026   13.5282 H   0  0  0  0  0  0
   11.1184 -135.0141   11.7512 H   0  0  0  0  0  0
    8.7332 -134.6334   11.8910 H   0  0  0  0  0  0
   10.8996 -132.9139   13.1091 H   0  0  0  0  0  0
    9.8902 -132.6144   11.6538 H   0  0  0  0  0  0
    9.5945 -131.7596   14.4152 H   0  0  0  0  0  0
    9.1368 -130.9885   12.8588 H   0  0  0  0  0  0
    7.2316 -131.4714   14.1991 H   0  0  0  0  0  0
    7.2402 -132.4572   12.6975 H   0  0  0  0  0  0
    8.0956 -133.3017   15.4801 H   0  0  0  0  0  0
    6.6825 -133.8908   14.5407 H   0  0  0  0  0  0
    7.8365 -135.4769   13.7046 H   0  0  0  0  0  0
    9.1949 -134.9871   14.7730 H   0  0  0  0  0  0
   11.1432 -136.9241   10.8120 H   0  0  0  0  0  0
   13.1114 -136.3745   12.1965 H   0  0  0  0  0  0
   11.4355 -139.3063   10.5672 H   0  0  0  0  0  0
    9.0358 -138.7395   10.8811 H   0  0  0  0  0  0
    9.2212 -138.9448   12.6560 H   0  0  0  0  0  0
    9.4034 -140.3596   11.5643 H   0  0  0  0  0  0
   10.9840 -139.7773   13.5414 H   0  0  0  0  0  0
   11.8272 -140.8234   12.3492 H   0  0  0  0  0  0
   13.4697 -139.6961   13.8749 H   0  0  0  0  0  0
   15.7923 -135.2530   17.4185 H   0  0  0  0  0  0
  1  2  1  0  0  0
  1 47  1  0  0  0
  1 48  1  0  0  0
  1 49  1  0  0  0
  2  3  1  0  0  0
  2 10  2  0  0  0
  3  4  2  0  0  0
  3  8  1  0  0  0
  4  5  1  0  0  0
  4 50  1  0  0  0
  5  6  2  0  0  0
  5 51  1  0  0  0
  6  7  1  0  0  0
  6 52  1  0  0  0
  7  8  2  0  0  0
  7 53  1  0  0  0
  8  9  1  0  0  0
  9 10  1  0  0  0
  9 54  1  0  0  0
  9 55  1  0  0  0
 10 11  1  0  0  0
 11 12  2  0  0  0
 11 13  1  0  0  0
 13 14  1  0  0  0
 13 56  1  0  0  0
 14 15  1  0  0  0
 14 16  1  0  0  0
 14 57  1  0  0  0
 15 58  1  0  0  0
 15 59  1  0  0  0
 15 60  1  0  0  0
 16 17  2  0  0  0
 16 18  1  0  0  0
 18 19  1  0  0  0
 18 61  1  0  0  0
 19 20  1  0  0  0
 19 22  1  0  0  0
 19 62  1  0  0  0
 20 21  2  0  0  0
 20 32  1  0  0  0
 22 23  1  0  0  0
 22 63  1  0  0  0
 22 64  1  0  0  0
 23 24  2  0  0  0
 23 25  1  0  0  0
 24 26  1  0  0  0
 24 65  1  0  0  0
 25 27  2  0  0  0
 25 28  1  0  0  0
 26 27  1  0  0  0
 26 94  1  0  0  0
 27 29  1  0  0  0
 28 30  2  0  0  0
 28 66  1  0  0  0
 29 31  2  0  0  0
 29 67  1  0  0  0
 30 31  1  0  0  0
 30 68  1  0  0  0
 31 69  1  0  0  0
 32 33  1  0  0  0
 32 70  1  0  0  0
 33 34  1  0  0  0
 33 41  1  0  0  0
 33 71  1  0  0  0
 34 35  1  0  0  0
 34 72  1  0  0  0
 34 73  1  0  0  0
 35 36  1  0  0  0
 35 40  1  0  0  0
 35 74  1  0  0  0
 36 37  1  0  0  0
 36 75  1  0  0  0
 36 76  1  0  0  0
 37 38  1  0  0  0
 37 77  1  0  0  0
 37 78  1  0  0  0
 38 39  1  0  0  0
 38 79  1  0  0  0
 38 80  1  0  0  0
 39 40  1  0  0  0
 39 81  1  0  0  0
 39 82  1  0  0  0
 40 83  1  0  0  0
 40 84  1  0  0  0
 41 42  1  0  0  0
 41 43  1  0  0  0
 41 85  1  0  0  0
 42 86  1  0  0  0
 43 44  1  0  0  0
 43 45  1  0  0  0
 43 87  1  0  0  0
 44 88  1  0  0  0
 44 89  1  0  0  0
 44 90  1  0  0  0
 45 46  1  0  0  0
 45 91  1  0  0  0
 45 92  1  0  0  0
 46 93  1  0  0  0
M  CHG  1  26   1
M  END
> <s_m_source_file>
../4qlu_ligand.sdf

> <i_m_source_file_index>
1

> <s_epik_input>
W2NIXTFbY0hdW2NIXVtjSF1jKGMxMilbQ0gyXUMoPUMyW0NIM10pQyg9TylbTkhdW0NASF0oW0NIM10pQyg9TylbTkhdW0NAQEhdKFtDSDJdYzNbY0hdW25IXWMoYzM0KVtjSF1bY0hdW2NIXVtjSF00KUMoPU8pW05IXVtDQEhdKFtDQEBIXShbT0hdKVtDQEhdKFtDSDNdKVtDSDJdW09IXSlbQ0gyXVtDSF01W0NIMl1bQ0gyXVtDSDJdW0NIMl1bQ0gyXTU=

> <s_epik_cmdline>
J2VwaWtfYXBwJywgJy1pbWFlJywgJ2xpZ2FuZF9wcm8ubWFlJywgJy1vbWFlJywgJ2xpZ2FuZF9wcmVwLm1hZScsICctbXMnLCAnMScsICctcGgnLCAnNycsICctcGh0JywgJzAuNScsICctbnQn

> <r_lp_tautomer_probability>
1

> <r_epik_Ionization_Penalty>
  0.0000

> <r_epik_Ionization_Penalty_Charging>
  0.0000

> <r_epik_Ionization_Penalty_Neutral>
  0.0000

> <r_epik_State_Penalty>
 -0.0000

> <r_epik_Charging_Adjusted_Penalty>
0

> <i_epik_Tot_Q>
1

> <i_epik_Tot_abs_Q>
1

$$$$
