4qlv_ligand
                    3D
 Schrodinger Suite 2020-3.
 86 88  0  0  1  0            999 V2000
    7.7130 -136.2370   19.7840 C   0  0  0  0  0  0
    7.2110 -137.0930   19.0870 O   0  0  0  0  0  0
    6.9620 -134.9890   20.1430 C   0  0  0  0  0  0
    5.6670 -135.0080   19.4890 N   0  0  0  0  0  0
    3.0290 -134.6800   20.0390 O   0  0  0  0  0  0
    4.8700 -136.1200   20.0210 C   0  0  0  0  0  0
    5.1030 -133.6740   19.7090 C   0  0  0  0  0  0
    3.4320 -135.9720   19.6030 C   0  0  0  0  0  0
    3.6530 -133.6490   19.3140 C   0  0  0  0  0  0
    8.9260 -136.3190   20.2680 N   0  0  0  0  0  0
    9.7340 -137.4580   19.9830 C   0  0  2  0  0  0
   10.5760 -137.6530   21.2220 C   0  0  0  0  0  0
   10.5910 -137.0550   18.8340 C   0  0  0  0  0  0
   11.0770 -135.9490   18.8350 O   0  0  0  0  0  0
   10.7340 -137.9200   17.8550 N   0  0  0  0  0  0
   11.5690 -137.6360   16.7050 C   0  0  1  0  0  0
   12.6630 -138.6740   16.7190 C   0  0  0  0  0  0
   13.4810 -138.4890   17.8090 C   0  0  0  0  0  0
   13.1050 -138.8930   19.0590 C   0  0  0  0  0  0
   13.9410 -138.7050   20.1430 C   0  0  0  0  0  0
   15.1710 -138.1180   19.9710 C   0  0  0  0  0  0
   16.0240 -137.9010   20.9970 O   0  0  0  0  0  0
   16.2250 -139.0370   21.8200 C   0  0  0  0  0  0
   15.5420 -137.7200   18.7150 C   0  0  0  0  0  0
   14.7070 -137.9110   17.6460 C   0  0  0  0  0  0
   10.7530 -137.7020   15.4170 C   0  0  0  0  0  0
    9.6190 -138.1180   15.4440 O   0  0  0  0  0  0
   11.3370 -137.2750   14.2990 N   0  0  0  0  0  0
   10.6400 -137.1850   13.0100 C   0  0  2  0  0  0
   11.4060 -137.9120   11.8900 C   0  0  1  0  0  0
   12.6890 -137.4860   12.0190 O   0  0  0  0  0  0
   11.3570 -139.4360   11.9220 C   0  0  2  0  0  0
    9.9700 -139.8620   12.2760 C   0  0  0  0  0  0
   12.2720 -139.9600   13.0060 C   0  0  0  0  0  0
   13.4890 -139.1880   13.0300 O   0  0  0  0  0  0
   10.6230 -135.6920   12.6470 C   0  0  0  0  0  0
    9.6630 -134.8730   13.2260 C   0  0  0  0  0  0
    8.7200 -135.3150   14.1160 C   0  0  0  0  0  0
    7.8050 -134.4380   14.6570 C   0  0  0  0  0  0
    7.8100 -133.1150   14.3180 C   0  0  0  0  0  0
    8.7470 -132.6670   13.4310 C   0  0  0  0  0  0
    9.6610 -133.5410   12.8940 C   0  0  0  0  0  0
    6.8247 -134.9446   21.2335 H   0  0  0  0  0  0
    7.5318 -134.1093   19.8091 H   0  0  0  0  0  0
    5.2627 -137.0713   19.6326 H   0  0  0  0  0  0
    4.9284 -136.1204   21.1194 H   0  0  0  0  0  0
    5.1898 -133.4102   20.7734 H   0  0  0  0  0  0
    5.6529 -132.9389   19.1030 H   0  0  0  0  0  0
    2.7986 -136.7342   20.0804 H   0  0  0  0  0  0
    3.3265 -136.0397   18.5102 H   0  0  0  0  0  0
    3.5340 -133.8346   18.2363 H   0  0  0  0  0  0
    3.1895 -132.6858   19.5735 H   0  0  0  0  0  0
    9.3218 -135.5070   20.8957 H   0  0  0  0  0  0
    9.1429 -138.3517   19.7342 H   0  0  0  0  0  0
    9.9300 -137.9501   22.0613 H   0  0  0  0  0  0
   11.0883 -136.7115   21.4690 H   0  0  0  0  0  0
   11.3227 -138.4394   21.0378 H   0  0  0  0  0  0
   10.2005 -138.8795   17.9238 H   0  0  0  0  0  0
   11.9773 -136.6186   16.7959 H   0  0  0  0  0  0
   12.2156 -139.6775   16.7714 H   0  0  0  0  0  0
   13.2625 -138.5873   15.8008 H   0  0  0  0  0  0
   12.1349 -139.3688   19.2026 H   0  0  0  0  0  0
   13.6240 -139.0230   21.1362 H   0  0  0  0  0  0
   16.9271 -138.7846   22.6283 H   0  0  0  0  0  0
   16.6401 -139.8579   21.2168 H   0  0  0  0  0  0
   15.2638 -139.3503   22.2537 H   0  0  0  0  0  0
   16.5119 -137.2462   18.5639 H   0  0  0  0  0  0
   15.0257 -137.5973   16.6520 H   0  0  0  0  0  0
   12.3945 -136.9817   14.3741 H   0  0  0  0  0  0
    9.6508 -137.6474   13.1427 H   0  0  0  0  0  0
   11.0418 -137.6233   10.8930 H   0  0  0  0  0  0
   12.9138 -136.4092   12.0171 H   0  0  0  0  0  0
   11.6522 -139.8365   10.9409 H   0  0  0  0  0  0
    9.2685 -139.5000   11.5099 H   0  0  0  0  0  0
    9.6951 -139.4398   13.2538 H   0  0  0  0  0  0
    9.9249 -140.9600   12.3249 H   0  0  0  0  0  0
   11.7694 -139.8786   13.9811 H   0  0  0  0  0  0
   12.5130 -141.0142   12.8046 H   0  0  0  0  0  0
   14.2775 -139.4268   13.7588 H   0  0  0  0  0  0
   11.5834 -135.2353   12.9282 H   0  0  0  0  0  0
   10.4668 -135.5797   11.5640 H   0  0  0  0  0  0
    8.6932 -136.3675   14.3981 H   0  0  0  0  0  0
    7.0649 -134.8064   15.3674 H   0  0  0  0  0  0
    7.0796 -132.4293   14.7474 H   0  0  0  0  0  0
    8.7697 -131.6144   13.1487 H   0  0  0  0  0  0
   10.4023 -133.1678   12.1874 H   0  0  0  0  0  0
  1  2  2  0  0  0
  1  3  1  0  0  0
  1 10  1  0  0  0
  3  4  1  0  0  0
  3 43  1  0  0  0
  3 44  1  0  0  0
  4  6  1  0  0  0
  4  7  1  0  0  0
  5  8  1  0  0  0
  5  9  1  0  0  0
  6  8  1  0  0  0
  6 45  1  0  0  0
  6 46  1  0  0  0
  7  9  1  0  0  0
  7 47  1  0  0  0
  7 48  1  0  0  0
  8 49  1  0  0  0
  8 50  1  0  0  0
  9 51  1  0  0  0
  9 52  1  0  0  0
 10 11  1  0  0  0
 10 53  1  0  0  0
 11 12  1  0  0  0
 11 13  1  0  0  0
 11 54  1  0  0  0
 12 55  1  0  0  0
 12 56  1  0  0  0
 12 57  1  0  0  0
 13 14  2  0  0  0
 13 15  1  0  0  0
 15 16  1  0  0  0
 15 58  1  0  0  0
 16 17  1  0  0  0
 16 26  1  0  0  0
 16 59  1  0  0  0
 17 18  1  0  0  0
 17 60  1  0  0  0
 17 61  1  0  0  0
 18 19  2  0  0  0
 18 25  1  0  0  0
 19 20  1  0  0  0
 19 62  1  0  0  0
 20 21  2  0  0  0
 20 63  1  0  0  0
 21 22  1  0  0  0
 21 24  1  0  0  0
 22 23  1  0  0  0
 23 64  1  0  0  0
 23 65  1  0  0  0
 23 66  1  0  0  0
 24 25  2  0  0  0
 24 67  1  0  0  0
 25 68  1  0  0  0
 26 27  2  0  0  0
 26 28  1  0  0  0
 28 29  1  0  0  0
 28 69  1  0  0  0
 29 30  1  0  0  0
 29 36  1  0  0  0
 29 70  1  0  0  0
 30 31  1  0  0  0
 30 32  1  0  0  0
 30 71  1  0  0  0
 31 72  1  0  0  0
 32 33  1  0  0  0
 32 34  1  0  0  0
 32 73  1  0  0  0
 33 74  1  0  0  0
 33 75  1  0  0  0
 33 76  1  0  0  0
 34 35  1  0  0  0
 34 77  1  0  0  0
 34 78  1  0  0  0
 35 79  1  0  0  0
 36 37  1  0  0  0
 36 80  1  0  0  0
 36 81  1  0  0  0
 37 38  2  0  0  0
 37 42  1  0  0  0
 38 39  1  0  0  0
 38 82  1  0  0  0
 39 40  2  0  0  0
 39 83  1  0  0  0
 40 41  1  0  0  0
 40 84  1  0  0  0
 41 42  2  0  0  0
 41 85  1  0  0  0
 42 86  1  0  0  0
M  END
> <s_m_source_file>
../4qlv_ligand.sdf

> <i_m_source_file_index>
1

> <s_epik_input>
W0NIMl0xW0NIMl1PW0NIMl1bQ0gyXVtOSCtdMVtDSDJdQyg9TylbTkhdW0NASF0oW0NIM10pQyg9TylbTkhdW0NAQEhdKFtDSDJdYzJbY0hdW2NIXWMoT1tDSDNdKVtjSF1bY0hdMilDKD1PKVtOSF1bQ0BIXShbQ0BASF0oW09IXSlbQ0BIXShbQ0gzXSlbQ0gyXVtPSF0pW0NIMl1jM1tjSF1bY0hdW2NIXVtjSF1bY0hdMw==

> <s_epik_cmdline>
J2VwaWtfYXBwJywgJy1pbWFlJywgJ2xpZ2FuZF9wcm8ubWFlJywgJy1vbWFlJywgJ2xpZ2FuZF9wcmVwLm1hZScsICctbXMnLCAnMScsICctcGgnLCAnNycsICctcGh0JywgJzAuNScsICctbnQn

> <r_lp_tautomer_probability>
1

> <r_epik_Ionization_Penalty>
  0.0035

> <r_epik_Ionization_Penalty_Charging>
  0.0000

> <r_epik_Ionization_Penalty_Neutral>
  0.0035

> <r_epik_State_Penalty>
 -0.0000

> <r_epik_Charging_Adjusted_Penalty>
0

> <i_epik_Tot_Q>
0

> <i_epik_Tot_abs_Q>
0

$$$$
