4qme_ligand
                    3D
 Schrodinger Suite 2020-3.
 51 52  0  0  1  0            999 V2000
    8.0690   41.8320  -22.8690 C   0  0  1  0  0  0
    8.1810   40.4540  -22.2430 C   0  0  0  0  0  0
    9.4530   39.9200  -22.3890 O   0  0  0  0  0  0
    7.8730   40.6020  -20.8650 O   0  0  0  0  0  0
    9.2640   42.2900  -23.7280 C   0  0  0  0  0  0
    9.5030   44.0940  -23.5580 P   0  0  1  0  0  0
    8.9760   44.9770  -24.7690 O   0  5  0  0  0  0
    8.9060   44.6000  -22.3080 O   0  0  0  0  0  0
   11.2560   44.4620  -23.5750 C   0  0  1  0  0  0
   11.3590   45.9320  -23.4310 N   0  3  0  0  0  0
   12.0020   43.6700  -22.5360 C   0  0  0  0  0  0
   13.5060   43.9120  -22.5620 C   0  0  0  0  0  0
   14.5310   42.7410  -22.4200 C   0  0  0  0  0  0
   14.5850   41.7010  -23.4030 C   0  0  0  0  0  0
   15.5260   40.6550  -23.2740 C   0  0  0  0  0  0
   16.4110   40.6540  -22.1800 C   0  0  0  0  0  0
   16.3730   41.6980  -21.2010 C   0  0  0  0  0  0
   15.4220   42.7520  -21.3250 C   0  0  0  0  0  0
    6.8470   41.8680  -23.7400 C   0  0  0  0  0  0
    5.4960   41.8430  -22.9420 C   0  0  0  0  0  0
    5.4330   42.0870  -21.5790 C   0  0  0  0  0  0
    4.2110   42.0550  -20.9170 C   0  0  0  0  0  0
    3.0560   41.7880  -21.6180 C   0  0  0  0  0  0
    3.1170   41.5470  -22.9740 C   0  0  0  0  0  0
    4.3330   41.5840  -23.6310 C   0  0  0  0  0  0
    8.0030   42.5183  -22.0119 H   0  0  0  0  0  0
    7.5307   39.6969  -22.7055 H   0  0  0  0  0  0
    9.8601   39.7357  -23.3941 H   0  0  0  0  0  0
    6.8994   41.0134  -20.5601 H   0  0  0  0  0  0
   10.1752   41.7717  -23.3946 H   0  0  0  0  0  0
    9.0705   42.0490  -24.7837 H   0  0  0  0  0  0
   11.9042   44.2397  -24.4355 H   0  0  0  0  0  0
   10.7841   46.4200  -24.2318 H   0  0  0  0  0  0
   12.4144   46.2342  -23.5009 H   0  0  0  0  0  0
   10.9551   46.2338  -22.4534 H   0  0  0  0  0  0
   11.6387   43.9448  -21.5348 H   0  0  0  0  0  0
   11.8355   42.5958  -22.7044 H   0  0  0  0  0  0
   13.7868   44.3719  -23.5210 H   0  0  0  0  0  0
   13.7834   44.5851  -21.7374 H   0  0  0  0  0  0
   13.9001   41.7164  -24.2508 H   0  0  0  0  0  0
   15.5660   39.8565  -24.0148 H   0  0  0  0  0  0
   17.1360   39.8467  -22.0764 H   0  0  0  0  0  0
   17.0698   41.6866  -20.3629 H   0  0  0  0  0  0
   15.3832   43.5531  -20.5869 H   0  0  0  0  0  0
    6.8526   42.7889  -24.3416 H   0  0  0  0  0  0
    6.8467   40.9938  -24.4077 H   0  0  0  0  0  0
    6.3454   42.3049  -21.0239 H   0  0  0  0  0  0
    4.1670   42.2411  -19.8439 H   0  0  0  0  0  0
    2.0961   41.7673  -21.1020 H   0  0  0  0  0  0
    2.2051   41.3269  -23.5291 H   0  0  0  0  0  0
    4.3710   41.4062  -24.7057 H   0  0  0  0  0  0
  1  2  1  0  0  0
  1  5  1  0  0  0
  1 19  1  0  0  0
  1 26  1  0  0  0
  2  3  1  0  0  0
  2  4  1  0  0  0
  2 27  1  0  0  0
  3 28  1  0  0  0
  4 29  1  0  0  0
  5  6  1  0  0  0
  5 30  1  0  0  0
  5 31  1  0  0  0
  6  7  1  0  0  0
  6  8  2  0  0  0
  6  9  1  0  0  0
  9 10  1  0  0  0
  9 11  1  0  0  0
  9 32  1  0  0  0
 10 33  1  0  0  0
 10 34  1  0  0  0
 10 35  1  0  0  0
 11 12  1  0  0  0
 11 36  1  0  0  0
 11 37  1  0  0  0
 12 13  1  0  0  0
 12 38  1  0  0  0
 12 39  1  0  0  0
 13 14  2  0  0  0
 13 18  1  0  0  0
 14 15  1  0  0  0
 14 40  1  0  0  0
 15 16  2  0  0  0
 15 41  1  0  0  0
 16 17  1  0  0  0
 16 42  1  0  0  0
 17 18  2  0  0  0
 17 43  1  0  0  0
 18 44  1  0  0  0
 19 20  1  0  0  0
 19 45  1  0  0  0
 19 46  1  0  0  0
 20 21  2  0  0  0
 20 25  1  0  0  0
 21 22  1  0  0  0
 21 47  1  0  0  0
 22 23  2  0  0  0
 22 48  1  0  0  0
 23 24  1  0  0  0
 23 49  1  0  0  0
 24 25  2  0  0  0
 24 50  1  0  0  0
 25 51  1  0  0  0
M  CHG  2   7  -1  10   1
M  END
> <s_m_source_file>
../4qme_ligand.sdf

> <i_m_source_file_index>
1

> <s_epik_input>
W2NIXTFbY0hdW2NIXVtjSF1bY0hdYzFbQ0gyXVtDQEBIXShbQ0hdKFtPSF0pW09IXSlbQ0gyXVtQQF0oPU8pKFtPSF0pW0NAQEhdKFtOSDMrXSlbQ0gyXVtDSDJdYzJbY0hdW2NIXVtjSF1bY0hdW2NIXTI=

> <s_epik_cmdline>
J2VwaWtfYXBwJywgJy1pbWFlJywgJ2xpZ2FuZF9wcm8ubWFlJywgJy1vbWFlJywgJ2xpZ2FuZF9wcmVwLm1hZScsICctbXMnLCAnMScsICctcGgnLCAnNycsICctcGh0JywgJzAuNScsICctbnQn

> <r_lp_tautomer_probability>
1

> <r_epik_Ionization_Penalty>
  0.0006

> <r_epik_Ionization_Penalty_Charging>
  0.0006

> <r_epik_Ionization_Penalty_Neutral>
  0.0000

> <r_epik_State_Penalty>
 -0.0000

> <r_epik_Charging_Adjusted_Penalty>
0.000551156099137934

> <i_epik_Tot_Q>
0

> <i_epik_Tot_abs_Q>
2

> <s_epik_Chemistry_Notes>
This compound contains an acetal/aminal-like group ( X-CH(R)-Y where X, Y are N, S, or O) that may be acid/base labile, releasing an aldehyde.

$$$$
