4qn7_ligand
                    3D
 Schrodinger Suite 2020-3.
 46 46  0  0  1  0            999 V2000
    1.6790   88.9300  130.3660 C   0  0  0  0  0  0
    2.2360   87.8760  129.9010 O   0  5  0  0  0  0
    2.1170   90.0780  130.1750 O   0  0  0  0  0  0
    0.4020   88.7680  131.2470 C   0  0  2  0  0  0
   -0.4200   87.5140  130.9720 C   0  0  0  0  0  0
   -1.3520   87.3080  132.1810 C   0  0  1  0  0  0
   -2.2820   88.4960  132.3510 C   0  0  1  0  0  0
   -3.0770   88.2870  133.5230 N   0  0  0  0  0  0
   -4.4880   87.9530  133.3630 C   0  0  0  0  0  0
   -4.9720   87.8510  132.2450 O   0  0  0  0  0  0
   -5.3620   87.7310  134.6040 C   0  0  0  0  0  0
   -1.5320   89.8350  132.4420 C   0  0  1  0  0  0
   -0.5200   90.0000  131.3100 C   0  0  0  0  0  0
   -2.4410   90.8880  132.3190 O   0  0  0  0  0  0
   -2.7800   91.5690  133.5300 C   0  0  0  0  0  0
   -3.9050   92.5350  133.1900 C   0  0  0  0  0  0
   -1.5720   92.2460  134.1040 C   0  0  0  0  0  0
   -1.0050   93.3290  133.1740 C   0  0  0  0  0  0
   -5.1930   91.7960  132.8520 C   0  0  0  0  0  0
   -2.1250   86.1130  132.0110 N   0  3  0  0  0  0
    0.8312   88.6393  132.2516 H   0  0  0  0  0  0
   -1.0051   87.6538  130.0511 H   0  0  0  0  0  0
    0.2539   86.6530  130.8511 H   0  0  0  0  0  0
   -0.7662   87.1568  133.0997 H   0  0  0  0  0  0
   -2.9736   88.5413  131.4968 H   0  0  0  0  0  0
   -2.6217   88.3792  134.5201 H   0  0  0  0  0  0
   -4.7530   87.8652  135.5101 H   0  0  0  0  0  0
   -5.7723   86.7105  134.5857 H   0  0  0  0  0  0
   -6.1874   88.4581  134.6060 H   0  0  0  0  0  0
   -1.0570   89.9238  133.4302 H   0  0  0  0  0  0
    0.0841   90.9011  131.4920 H   0  0  0  0  0  0
   -1.0571   90.1052  130.3558 H   0  0  0  0  0  0
   -3.1036   90.8314  134.2791 H   0  0  0  0  0  0
   -4.0967   93.1922  134.0510 H   0  0  0  0  0  0
   -3.6152   93.1442  132.3211 H   0  0  0  0  0  0
   -1.8387   92.7251  135.0576 H   0  0  0  0  0  0
   -0.7814   91.5009  134.2765 H   0  0  0  0  0  0
   -0.1237   93.7906  133.6433 H   0  0  0  0  0  0
   -1.7712   94.0981  132.9969 H   0  0  0  0  0  0
   -0.7140   92.8738  132.2158 H   0  0  0  0  0  0
   -5.9816   92.5245  132.6122 H   0  0  0  0  0  0
   -5.5046   91.1889  133.7148 H   0  0  0  0  0  0
   -5.0231   91.1409  131.9849 H   0  0  0  0  0  0
   -1.4494   85.2537  131.8880 H   0  0  0  0  0  0
   -2.7599   86.2110  131.1181 H   0  0  0  0  0  0
   -2.7589   85.9573  132.8964 H   0  0  0  0  0  0
  1  2  1  0  0  0
  1  3  2  0  0  0
  1  4  1  0  0  0
  4  5  1  0  0  0
  4 13  1  0  0  0
  4 21  1  0  0  0
  5  6  1  0  0  0
  5 22  1  0  0  0
  5 23  1  0  0  0
  6  7  1  0  0  0
  6 20  1  0  0  0
  6 24  1  0  0  0
  7  8  1  0  0  0
  7 12  1  0  0  0
  7 25  1  0  0  0
  8  9  1  0  0  0
  8 26  1  0  0  0
  9 10  2  0  0  0
  9 11  1  0  0  0
 11 27  1  0  0  0
 11 28  1  0  0  0
 11 29  1  0  0  0
 12 13  1  0  0  0
 12 14  1  0  0  0
 12 30  1  0  0  0
 13 31  1  0  0  0
 13 32  1  0  0  0
 14 15  1  0  0  0
 15 16  1  0  0  0
 15 17  1  0  0  0
 15 33  1  0  0  0
 16 19  1  0  0  0
 16 34  1  0  0  0
 16 35  1  0  0  0
 17 18  1  0  0  0
 17 36  1  0  0  0
 17 37  1  0  0  0
 18 38  1  0  0  0
 18 39  1  0  0  0
 18 40  1  0  0  0
 19 41  1  0  0  0
 19 42  1  0  0  0
 19 43  1  0  0  0
 20 44  1  0  0  0
 20 45  1  0  0  0
 20 46  1  0  0  0
M  CHG  2   2  -1  20   1
M  END
> <s_m_source_file>
../4qn7_ligand.sdf

> <i_m_source_file_index>
1

> <s_epik_input>
W09IXUMoPU8pW0NAQEhdMVtDSDJdW0NASF0oW05IMytdKVtDQEBIXShbTkhdQyg9TylbQ0gzXSlbQ0BASF0oW0NIMl0xKU9bQ0hdKFtDSDJdW0NIM10pW0NIMl1bQ0gzXQ==

> <s_epik_cmdline>
J2VwaWtfYXBwJywgJy1pbWFlJywgJ2xpZ2FuZF9wcm8ubWFlJywgJy1vbWFlJywgJ2xpZ2FuZF9wcmVwLm1hZScsICctbXMnLCAnMScsICctcGgnLCAnNycsICctcGh0JywgJzAuNScsICctbnQn

> <r_lp_tautomer_probability>
1

> <r_epik_Ionization_Penalty>
  0.0019

> <r_epik_Ionization_Penalty_Charging>
  0.0019

> <r_epik_Ionization_Penalty_Neutral>
  0.0000

> <r_epik_State_Penalty>
 -0.0000

> <r_epik_Charging_Adjusted_Penalty>
0.00188816947072547

> <i_epik_Tot_Q>
0

> <i_epik_Tot_abs_Q>
2

$$$$
