4qn9_ligand
                    3D
 Schrodinger Suite 2020-3.
 67 70  0  0  1  0            999 V2000
   17.4710   19.7750  186.1190 C   0  0  1  0  0  0
   17.0440   21.0490  185.4210 C   0  0  0  0  0  0
   15.6130   21.3660  185.8810 C   0  0  2  0  0  0
   14.6240   20.2750  185.4730 C   0  0  2  0  0  0
   15.1520   18.9870  186.1120 C   0  0  0  0  0  0
   16.5800   18.6560  185.6530 C   0  0  0  0  0  0
   15.1370   22.7360  185.4140 C   0  0  0  0  0  0
   15.0080   22.7350  183.9120 C   0  0  0  0  0  0
   14.0420   21.6440  183.4450 C   0  0  2  0  0  0
   14.4740   20.2660  183.9410 C   0  0  2  0  0  0
   13.9540   21.6180  181.8980 C   0  0  1  0  0  0
   12.9650   20.6220  181.3360 C   0  0  2  0  0  0
   13.3280   19.2180  181.8290 C   0  0  2  0  0  0
   13.5020   19.2070  183.3860 C   0  0  0  0  0  0
   13.6500   22.9130  181.1680 C   0  0  0  0  0  0
   13.2270   22.4530  179.7830 C   0  0  0  0  0  0
   13.1490   20.9230  179.8460 C   0  0  2  0  0  0
   13.2710   20.5030  186.1560 C   0  0  0  0  0  0
   12.1190   20.3120  178.8850 C   0  0  1  0  0  0
   14.4790   18.7330  181.1020 O   0  0  0  0  0  0
   18.7870   19.3990  185.8240 O   0  0  0  0  0  0
   11.5390   20.9400  181.7650 C   0  0  0  0  0  0
   12.4280   20.7180  177.4480 C   0  0  0  0  0  0
   11.2240   20.5260  176.5350 C   0  0  0  0  0  0
   11.5450   20.8740  175.0950 C   0  0  0  0  0  0
   12.6120   20.4720  174.5450 O   0  5  0  0  0  0
   10.6840   21.5480  174.4960 O   0  0  0  0  0  0
   12.1380   18.7950  178.9770 C   0  0  0  0  0  0
   17.4725   19.9397  187.2066 H   0  0  0  0  0  0
   17.7276   21.8653  185.6974 H   0  0  0  0  0  0
   17.0744   20.8982  184.3318 H   0  0  0  0  0  0
   15.6410   21.3973  186.9802 H   0  0  0  0  0  0
   15.1615   19.0978  187.2064 H   0  0  0  0  0  0
   14.4998   18.1458  185.8343 H   0  0  0  0  0  0
   16.6257   18.5834  184.5564 H   0  0  0  0  0  0
   16.9183   17.7085  186.0976 H   0  0  0  0  0  0
   14.1595   22.9585  185.8668 H   0  0  0  0  0  0
   15.8656   23.5012  185.7200 H   0  0  0  0  0  0
   14.6270   23.7107  183.5761 H   0  0  0  0  0  0
   15.9935   22.5507  183.4594 H   0  0  0  0  0  0
   13.0604   21.8785  183.8826 H   0  0  0  0  0  0
   15.4717   20.0050  183.5583 H   0  0  0  0  0  0
   14.9946   21.3374  181.6778 H   0  0  0  0  0  0
   12.5528   18.4863  181.5574 H   0  0  0  0  0  0
   13.8611   18.2028  183.6554 H   0  0  0  0  0  0
   12.5019   19.3663  183.8155 H   0  0  0  0  0  0
   12.8463   23.4499  181.6931 H   0  0  0  0  0  0
   14.5535   23.5400  181.1418 H   0  0  0  0  0  0
   12.2482   22.8893  179.5348 H   0  0  0  0  0  0
   13.9727   22.7812  179.0440 H   0  0  0  0  0  0
   14.0581   20.4285  179.4731 H   0  0  0  0  0  0
   13.4070   20.5048  187.2476 H   0  0  0  0  0  0
   12.5776   19.6969  185.8742 H   0  0  0  0  0  0
   12.8574   21.4709  185.8364 H   0  0  0  0  0  0
   11.1213   20.6794  179.1671 H   0  0  0  0  0  0
   14.4609   18.6991  180.0027 H   0  0  0  0  0  0
   19.6208   20.0701  186.0778 H   0  0  0  0  0  0
   11.4206   20.7195  182.8362 H   0  0  0  0  0  0
   10.8357   20.3253  181.1841 H   0  0  0  0  0  0
   11.3307   22.0049  181.5846 H   0  0  0  0  0  0
   12.7165   21.7792  177.4208 H   0  0  0  0  0  0
   13.2550   20.1033  177.0630 H   0  0  0  0  0  0
   10.9001   19.4754  176.5714 H   0  0  0  0  0  0
   10.4018   21.1750  176.8710 H   0  0  0  0  0  0
   11.9164   18.4875  180.0096 H   0  0  0  0  0  0
   13.1321   18.4226  178.6889 H   0  0  0  0  0  0
   11.3792   18.3770  178.2991 H   0  0  0  0  0  0
  1  2  1  0  0  0
  1  6  1  0  0  0
  1 21  1  0  0  0
  1 29  1  0  0  0
  2  3  1  0  0  0
  2 30  1  0  0  0
  2 31  1  0  0  0
  3  4  1  0  0  0
  3  7  1  0  0  0
  3 32  1  0  0  0
  4  5  1  0  0  0
  4 10  1  0  0  0
  4 18  1  0  0  0
  5  6  1  0  0  0
  5 33  1  0  0  0
  5 34  1  0  0  0
  6 35  1  0  0  0
  6 36  1  0  0  0
  7  8  1  0  0  0
  7 37  1  0  0  0
  7 38  1  0  0  0
  8  9  1  0  0  0
  8 39  1  0  0  0
  8 40  1  0  0  0
  9 10  1  0  0  0
  9 11  1  0  0  0
  9 41  1  0  0  0
 10 14  1  0  0  0
 10 42  1  0  0  0
 11 12  1  0  0  0
 11 15  1  0  0  0
 11 43  1  0  0  0
 12 13  1  0  0  0
 12 17  1  0  0  0
 12 22  1  0  0  0
 13 14  1  0  0  0
 13 20  1  0  0  0
 13 44  1  0  0  0
 14 45  1  0  0  0
 14 46  1  0  0  0
 15 16  1  0  0  0
 15 47  1  0  0  0
 15 48  1  0  0  0
 16 17  1  0  0  0
 16 49  1  0  0  0
 16 50  1  0  0  0
 17 19  1  0  0  0
 17 51  1  0  0  0
 18 52  1  0  0  0
 18 53  1  0  0  0
 18 54  1  0  0  0
 19 23  1  0  0  0
 19 28  1  0  0  0
 19 55  1  0  0  0
 20 56  1  0  0  0
 21 57  1  0  0  0
 22 58  1  0  0  0
 22 59  1  0  0  0
 22 60  1  0  0  0
 23 24  1  0  0  0
 23 61  1  0  0  0
 23 62  1  0  0  0
 24 25  1  0  0  0
 24 63  1  0  0  0
 24 64  1  0  0  0
 25 26  1  0  0  0
 25 27  2  0  0  0
 28 65  1  0  0  0
 28 66  1  0  0  0
 28 67  1  0  0  0
M  CHG  1  26  -1
M  END
> <s_m_source_file>
../4qn9_ligand.sdf

> <i_m_source_file_index>
1

> <s_epik_input>
W0NIMl0xW0NIMl1bQ0BASF0oW09IXSlbQ0gyXVtDQEhdKFtDQF0xMltDSDNdKVtDSDJdW0NIMl1bQ0BASF0zW0NAQEhdMltDSDJdW0NASF0oW09IXSlbQ0BAXTQoW0NIM10pW0NASF0zW0NIMl1bQ0gyXVtDQEBIXTRbQ0BIXShbQ0gzXSlbQ0gyXVtDSDJdQyg9TylbT0hd

> <s_epik_cmdline>
J2VwaWtfYXBwJywgJy1pbWFlJywgJ2xpZ2FuZF9wcm8ubWFlJywgJy1vbWFlJywgJ2xpZ2FuZF9wcmVwLm1hZScsICctbXMnLCAnMScsICctcGgnLCAnNycsICctcGh0JywgJzAuNScsICctbnQn

> <r_lp_tautomer_probability>
1

> <r_epik_Ionization_Penalty>
  0.0058

> <r_epik_Ionization_Penalty_Charging>
  0.0058

> <r_epik_Ionization_Penalty_Neutral>
  0.0000

> <r_epik_State_Penalty>
 -0.0000

> <r_epik_Charging_Adjusted_Penalty>
0.00577931387309457

> <i_epik_Tot_Q>
-1

> <i_epik_Tot_abs_Q>
1

$$$$
