4qnu_ligand
                    3D
 Schrodinger Suite 2020-3.
 52 54  0  0  1  0            999 V2000
   37.7910   72.6840    9.9840 C   0  0  0  0  0  0
   36.5350   70.7190    9.0190 N   0  3  0  0  0  0
   37.9800   73.5060   10.8850 O   0  0  0  0  0  0
   34.3350   61.3120   10.1680 N   0  0  0  0  0  0
   33.9370   62.6900    9.8340 C   0  0  0  0  0  0
   34.2920   63.6350   10.9030 N   0  0  0  0  0  0
   34.9110   63.2990   12.0260 C   0  0  0  0  0  0
   35.1520   62.0080   12.2740 C   0  0  0  0  0  0
   34.8430   61.0510   11.3710 C   0  0  0  0  0  0
   34.9860   59.7890   11.7190 N   0  0  0  0  0  0
   35.6010   61.9620   13.5190 N   0  0  0  0  0  0
   35.7430   63.2110   13.9820 C   0  0  0  0  0  0
   35.3340   64.0580   13.0380 N   0  0  0  0  0  0
   36.5790   71.7270   10.1150 C   0  0  1  0  0  0
   36.6170   71.0690   11.5130 C   0  0  0  0  0  0
   37.9580   69.6820   13.5510 S   0  0  1  0  0  0
   39.6980   69.5030   14.1440 C   0  0  0  0  0  0
   37.8710   70.1770   11.7750 C   0  0  0  0  0  0
   40.5460   70.7550   13.9700 C   0  0  0  0  0  0
   35.1460   65.5540   13.1370 C   0  0  1  0  0  0
   35.0430   66.1030   14.5460 C   0  0  2  0  0  0
   33.7340   65.8540   15.0940 O   0  0  0  0  0  0
   35.2000   67.5800   14.2910 C   0  0  2  0  0  0
   34.0390   68.2420   13.8530 O   0  0  0  0  0  0
   36.1280   67.6430   13.1770 C   0  0  2  0  0  0
   36.1960   66.3160   12.5710 O   0  0  0  0  0  0
   37.4430   67.9670   13.8590 C   0  0  0  0  0  0
   38.5710   72.5560    9.0230 O   0  5  0  0  0  0
   39.9350   71.8370   14.1740 O   0  0  0  0  0  0
   41.7790   70.5790   13.6870 O   0  5  0  0  0  0
   36.5091   71.2345    8.0476 H   0  0  0  0  0  0
   35.6340   70.0975    9.1284 H   0  0  0  0  0  0
   37.4294   70.0808    9.0717 H   0  0  0  0  0  0
   33.4396   62.9748    8.9068 H   0  0  0  0  0  0
   34.7417   58.9901   11.0034 H   0  0  0  0  0  0
   36.1276   63.4874   14.9637 H   0  0  0  0  0  0
   35.6377   72.2804    9.9815 H   0  0  0  0  0  0
   36.6137   71.8511   12.2865 H   0  0  0  0  0  0
   35.7344   70.4248   11.6392 H   0  0  0  0  0  0
   39.6966   69.2597   15.2167 H   0  0  0  0  0  0
   40.1945   68.6957   13.5856 H   0  0  0  0  0  0
   37.8119   69.2702   11.1552 H   0  0  0  0  0  0
   38.7809   70.7387   11.5170 H   0  0  0  0  0  0
   34.2345   65.7026   12.5395 H   0  0  0  0  0  0
   35.7317   65.6572   15.2787 H   0  0  0  0  0  0
   33.4301   64.8277   15.3479 H   0  0  0  0  0  0
   35.4769   68.1140   15.2120 H   0  0  0  0  0  0
   33.1717   68.3330   14.5235 H   0  0  0  0  0  0
   35.8267   68.3489   12.3890 H   0  0  0  0  0  0
   38.2103   67.2791   13.4743 H   0  0  0  0  0  0
   37.3190   67.8100   14.9407 H   0  0  0  0  0  0
   35.3497   59.5338   12.7253 H   0  0  0  0  0  0
  1  3  2  0  0  0
  1 14  1  0  0  0
  1 28  1  0  0  0
  2 14  1  0  0  0
  2 31  1  0  0  0
  2 32  1  0  0  0
  2 33  1  0  0  0
  4  5  1  0  0  0
  4  9  2  0  0  0
  5  6  2  0  0  0
  5 34  1  0  0  0
  6  7  1  0  0  0
  7  8  2  0  0  0
  7 13  1  0  0  0
  8  9  1  0  0  0
  8 11  1  0  0  0
  9 10  1  0  0  0
 10 35  1  0  0  0
 10 52  1  0  0  0
 11 12  2  0  0  0
 12 13  1  0  0  0
 12 36  1  0  0  0
 13 20  1  0  0  0
 14 15  1  0  0  0
 14 37  1  0  0  0
 15 18  1  0  0  0
 15 38  1  0  0  0
 15 39  1  0  0  0
 16 17  1  0  0  0
 16 18  1  0  0  0
 16 27  1  0  0  0
 17 19  1  0  0  0
 17 40  1  0  0  0
 17 41  1  0  0  0
 18 42  1  0  0  0
 18 43  1  0  0  0
 19 29  2  0  0  0
 19 30  1  0  0  0
 20 21  1  0  0  0
 20 26  1  0  0  0
 20 44  1  0  0  0
 21 22  1  0  0  0
 21 23  1  0  0  0
 21 45  1  0  0  0
 22 46  1  0  0  0
 23 24  1  0  0  0
 23 25  1  0  0  0
 23 47  1  0  0  0
 24 48  1  0  0  0
 25 26  1  0  0  0
 25 27  1  0  0  0
 25 49  1  0  0  0
 27 50  1  0  0  0
 27 51  1  0  0  0
M  CHG  3   2   1  28  -1  30  -1
M  END
> <s_m_source_file>
../4qnu_ligand.sdf

> <i_m_source_file_index>
1

> <s_epik_input>
Tz1DKFtPSF0pW0NAQEhdKFtOSDMrXSlbQ0gyXVtDSDJdW1NASF0oW0NIMl1DKD1PKVtPSF0pW0NIMl1bQ0BASF0oTzEpW0NAQEhdKFtPSF0pW0NAQEhdKFtPSF0pW0NAQEhdMW4yW2NIXW5jKGMyMyljKD1OL1tIXSlcW25IXVtjSF1uMw==

> <s_epik_cmdline>
J2VwaWtfYXBwJywgJy1pbWFlJywgJ2xpZ2FuZF9wcm8ubWFlJywgJy1vbWFlJywgJ2xpZ2FuZF9wcmVwLm1hZScsICctbXMnLCAnMScsICctcGgnLCAnNycsICctcGh0JywgJzAuNScsICctbnQn

> <r_lp_tautomer_probability>
1

> <r_epik_Ionization_Penalty>
  0.0049

> <r_epik_Ionization_Penalty_Charging>
  0.0043

> <r_epik_Ionization_Penalty_Neutral>
  0.0006

> <r_epik_State_Penalty>
 -0.0000

> <r_epik_Charging_Adjusted_Penalty>
0.00429448485662925

> <i_epik_Tot_Q>
-1

> <i_epik_Tot_abs_Q>
3

> <s_epik_Chemistry_Notes>
This compound contains an acetal/aminal-like group ( X-CH(R)-Y where X, Y are N, S, or O) that may be acid/base labile, releasing an aldehyde.

$$$$
