4qo4_ligand
                    3D
 Schrodinger Suite 2020-3.
 67 71  0  0  1  0            999 V2000
   13.7440  -10.9270   17.2960 Cl  0  0  0  0  0  0
   12.0590  -11.0270   17.3480 C   0  0  0  0  0  0
   11.4660  -11.9100   18.2470 C   0  0  0  0  0  0
   10.0650  -11.9640   18.2920 C   0  0  0  0  0  0
   11.3320  -10.1970   16.4860 C   0  0  0  0  0  0
    9.9260  -10.2660   16.5440 C   0  0  0  0  0  0
    9.2980  -11.1460   17.4480 C   0  0  0  0  0  0
    7.8010  -11.1880   17.5400 C   0  0  1  0  0  0
    7.1050  -12.4230   17.0360 N   0  0  0  0  0  0
    7.6330  -13.1030   15.8450 C   0  0  1  0  0  0
    5.9560  -12.9110   17.6040 C   0  0  0  0  0  0
    5.3230  -13.8140   17.0750 O   0  0  0  0  0  0
    5.4050  -12.3260   18.9080 C   0  0  1  0  0  0
    5.8940  -13.1640   20.1070 C   0  0  0  0  0  0
    5.1750  -12.7970   21.3800 C   0  0  0  0  0  0
    5.3640  -11.8580   22.1150 O   0  0  0  0  0  0
    4.2330  -13.7610   21.5540 O   0  5  0  0  0  0
    5.7870  -10.8830   19.1160 C   0  0  0  0  0  0
    7.2560  -10.6140   18.8790 C   0  0  2  0  0  0
    7.6190   -9.1620   19.1140 C   0  0  0  0  0  0
    6.8660   -8.1170   18.5380 C   0  0  0  0  0  0
    7.2350   -6.7590   18.7130 C   0  0  0  0  0  0
    8.3630   -6.4270   19.4690 C   0  0  0  0  0  0
    9.1060   -7.4680   20.0420 C   0  0  0  0  0  0
   10.5020   -7.1120   20.9640 Cl  0  0  0  0  0  0
    8.7540   -8.8200   19.8820 C   0  0  0  0  0  0
    7.7140  -14.6310   15.9090 C   0  0  0  0  0  0
    8.7820  -15.1270   16.8790 C   0  0  0  0  0  0
    3.8660  -12.2720   18.7670 C   0  0  0  0  0  0
    5.9070  -10.6870   13.5820 C   0  0  0  0  0  0
    5.5720  -11.4290   12.4410 C   0  0  0  0  0  0
    5.9090  -12.7860   12.3950 C   0  0  0  0  0  0
    6.5740  -13.4000   13.4710 C   0  0  0  0  0  0
    6.8890  -12.5960   14.5960 C   0  0  0  0  0  0
    6.5520  -11.2830   14.6210 N   0  0  0  0  0  0
    5.3330   -8.6170   14.9700 C   0  0  0  0  0  0
    6.5290   -8.2720   14.1540 C   0  0  0  0  0  0
    5.5210   -9.2220   13.6220 C   0  0  0  0  0  0
   12.0728  -12.5407   18.8967 H   0  0  0  0  0  0
    9.5700  -12.6440   18.9853 H   0  0  0  0  0  0
   11.8359   -9.5215   15.7947 H   0  0  0  0  0  0
    9.3229   -9.6377   15.8885 H   0  0  0  0  0  0
    7.5195  -10.5074   16.7230 H   0  0  0  0  0  0
    8.6905  -12.8002   15.8397 H   0  0  0  0  0  0
    5.7155  -14.2306   19.9059 H   0  0  0  0  0  0
    6.9703  -12.9945   20.2582 H   0  0  0  0  0  0
    5.2174  -10.2490   18.4206 H   0  0  0  0  0  0
    5.5588  -10.5888   20.1511 H   0  0  0  0  0  0
    7.7707  -11.1728   19.6745 H   0  0  0  0  0  0
    5.9828   -8.3584   17.9466 H   0  0  0  0  0  0
    6.6366   -5.9708   18.2561 H   0  0  0  0  0  0
    8.6567   -5.3867   19.6090 H   0  0  0  0  0  0
    9.3545   -9.6008   20.3487 H   0  0  0  0  0  0
    6.7462  -15.0359   16.2396 H   0  0  0  0  0  0
    7.9560  -15.0275   14.9119 H   0  0  0  0  0  0
    8.7926  -16.2269   16.8816 H   0  0  0  0  0  0
    8.5568  -14.7601   17.8913 H   0  0  0  0  0  0
    9.7666  -14.7516   16.5635 H   0  0  0  0  0  0
    3.4764  -13.2885   18.6089 H   0  0  0  0  0  0
    3.5985  -11.6391   17.9080 H   0  0  0  0  0  0
    3.4284  -11.8500   19.6838 H   0  0  0  0  0  0
    5.0577  -10.9568   11.6039 H   0  0  0  0  0  0
    5.6529  -13.3746   11.5141 H   0  0  0  0  0  0
    6.8382  -14.4571   13.4415 H   0  0  0  0  0  0
    5.1979   -8.1680   15.9651 H   0  0  0  0  0  0
    7.2778   -7.5680   14.5460 H   0  0  0  0  0  0
    4.9185   -9.2670   12.7028 H   0  0  0  0  0  0
  1  2  1  0  0  0
  2  3  2  0  0  0
  2  5  1  0  0  0
  3  4  1  0  0  0
  3 39  1  0  0  0
  4  7  2  0  0  0
  4 40  1  0  0  0
  5  6  2  0  0  0
  5 41  1  0  0  0
  6  7  1  0  0  0
  6 42  1  0  0  0
  7  8  1  0  0  0
  8  9  1  0  0  0
  8 19  1  0  0  0
  8 43  1  0  0  0
  9 10  1  0  0  0
  9 11  1  0  0  0
 10 27  1  0  0  0
 10 34  1  0  0  0
 10 44  1  0  0  0
 11 12  2  0  0  0
 11 13  1  0  0  0
 13 14  1  0  0  0
 13 18  1  0  0  0
 13 29  1  0  0  0
 14 15  1  0  0  0
 14 45  1  0  0  0
 14 46  1  0  0  0
 15 16  2  0  0  0
 15 17  1  0  0  0
 18 19  1  0  0  0
 18 47  1  0  0  0
 18 48  1  0  0  0
 19 20  1  0  0  0
 19 49  1  0  0  0
 20 21  2  0  0  0
 20 26  1  0  0  0
 21 22  1  0  0  0
 21 50  1  0  0  0
 22 23  2  0  0  0
 22 51  1  0  0  0
 23 24  1  0  0  0
 23 52  1  0  0  0
 24 25  1  0  0  0
 24 26  2  0  0  0
 26 53  1  0  0  0
 27 28  1  0  0  0
 27 54  1  0  0  0
 27 55  1  0  0  0
 28 56  1  0  0  0
 28 57  1  0  0  0
 28 58  1  0  0  0
 29 59  1  0  0  0
 29 60  1  0  0  0
 29 61  1  0  0  0
 30 31  2  0  0  0
 30 35  1  0  0  0
 30 38  1  0  0  0
 31 32  1  0  0  0
 31 62  1  0  0  0
 32 33  2  0  0  0
 32 63  1  0  0  0
 33 34  1  0  0  0
 33 64  1  0  0  0
 34 35  2  0  0  0
 36 37  2  0  0  0
 36 38  1  0  0  0
 36 65  1  0  0  0
 37 38  1  0  0  0
 37 66  1  0  0  0
 38 67  1  0  0  0
M  CHG  1  17  -1
M  END
> <s_m_source_file>
../4qo4_ligand.sdf

> <i_m_source_file_index>
1

> <s_epik_input>
Q2xjKFtjSF0xKVtjSF1bY0hdW2NIXWMxW0NAQEhdKFtDSDJdMilbQ0BASF0oYyhbY0hdW2NIXTMpW2NIXVtjSF1jM0NsKU4oQyg9TylbQ0BAXTIoW0NIM10pW0NIMl1DKD1PKVtPSF0pW0NAQEhdKFtDSDJdW0NIM10pYyhuNClbY0hdW2NIXVtjSF1jNFtDSF01W0NIXT1bQ0hdNQ==

> <s_epik_cmdline>
J2VwaWtfYXBwJywgJy1pbWFlJywgJ2xpZ2FuZF9wcm8ubWFlJywgJy1vbWFlJywgJ2xpZ2FuZF9wcmVwLm1hZScsICctbXMnLCAnMScsICctcGgnLCAnNycsICctcGh0JywgJzAuNScsICctbnQn

> <r_lp_tautomer_probability>
1

> <r_epik_Ionization_Penalty>
  0.0065

> <r_epik_Ionization_Penalty_Charging>
  0.0043

> <r_epik_Ionization_Penalty_Neutral>
  0.0022

> <r_epik_State_Penalty>
 -0.0000

> <r_epik_Charging_Adjusted_Penalty>
0.00433061034737179

> <i_epik_Tot_Q>
-1

> <i_epik_Tot_abs_Q>
1

$$$$
