4qoc_ligand
                    3D
 Schrodinger Suite 2020-3.
 70 74  0  0  1  0            999 V2000
   29.1540   -2.9120  -14.5380 C   0  0  0  0  0  0
   30.2030   -3.8880  -14.4540 C   0  0  0  0  0  0
   29.9860   -5.2320  -13.4180 Cl  0  0  0  0  0  0
   31.4090   -3.7440  -15.2170 C   0  0  0  0  0  0
   31.6380   -2.6330  -16.1020 C   0  0  0  0  0  0
   30.5610   -1.6520  -16.1750 C   0  0  0  0  0  0
   29.3270   -1.7740  -15.4120 C   0  0  0  0  0  0
   28.1880   -0.7830  -15.5150 C   0  0  1  0  0  0
   28.6540    0.6680  -15.3850 C   0  0  0  0  0  0
   27.4830    1.6420  -15.1790 C   0  0  1  0  0  0
   26.9610    1.7410  -13.7560 C   0  0  0  0  0  0
   27.9450    2.3450  -12.7390 C   0  0  0  0  0  0
   28.9220    1.5150  -12.3460 O   0  5  0  0  0  0
   27.8750    3.4630  -12.3010 O   0  0  0  0  0  0
   27.8660    3.0350  -15.6480 C   0  0  0  0  0  0
   26.2560    1.3230  -16.0560 C   0  0  0  0  0  0
   25.2930    2.0980  -15.9900 O   0  0  0  0  0  0
   26.3060    0.2030  -16.8660 N   0  0  0  0  0  0
   25.3460    0.0870  -17.9650 C   0  0  2  0  0  0
   25.4410    1.3320  -18.8430 C   0  0  0  0  0  0
   27.2720   -0.9410  -16.7710 C   0  0  2  0  0  0
   26.6970   -2.2890  -16.8590 C   0  0  0  0  0  0
   25.7400   -2.7030  -15.8660 C   0  0  0  0  0  0
   25.2320   -4.0280  -15.9500 C   0  0  0  0  0  0
   25.7440   -4.8150  -17.0360 C   0  0  0  0  0  0
   25.1500   -6.3890  -17.1720 Cl  0  0  0  0  0  0
   26.6950   -4.4190  -18.0280 C   0  0  0  0  0  0
   27.1960   -3.0940  -17.9430 C   0  0  0  0  0  0
   26.9020    1.3720  -19.8450 S   0  0  0  0  0  0
   27.0720    0.2300  -20.6880 O   0  0  0  0  0  0
   27.9870    1.7050  -18.9800 O   0  0  0  0  0  0
   26.7830    2.7320  -20.9420 N   0  0  0  0  0  0
   27.1490    4.0370  -20.3000 C   0  0  0  0  0  0
   26.4540    5.1280  -21.0800 C   0  0  0  0  0  0
   25.3680    4.4360  -21.8690 C   0  0  0  0  0  0
   25.6470    2.9230  -21.8640 C   0  0  0  0  0  0
   22.9160   -0.2780  -18.5860 C   0  0  0  0  0  0
   23.9340   -0.0290  -17.3970 C   0  0  0  0  0  0
   23.1900   -1.2870  -18.0050 C   0  0  0  0  0  0
   28.2420   -3.0271  -13.9523 H   0  0  0  0  0  0
   32.1824   -4.5063  -15.1226 H   0  0  0  0  0  0
   32.5564   -2.5310  -16.6802 H   0  0  0  0  0  0
   30.6855   -0.7895  -16.8297 H   0  0  0  0  0  0
   27.5911   -1.0446  -14.6288 H   0  0  0  0  0  0
   29.3291    0.7603  -14.5214 H   0  0  0  0  0  0
   29.1867    0.9654  -16.3003 H   0  0  0  0  0  0
   26.0628    2.3758  -13.7383 H   0  0  0  0  0  0
   26.7071    0.7360  -13.3878 H   0  0  0  0  0  0
   28.7461    3.3818  -15.0867 H   0  0  0  0  0  0
   27.0260    3.7239  -15.4752 H   0  0  0  0  0  0
   28.1032    3.0080  -16.7218 H   0  0  0  0  0  0
   25.6049   -0.8160  -18.5373 H   0  0  0  0  0  0
   24.5741    1.3709  -19.5190 H   0  0  0  0  0  0
   25.4505    2.2294  -18.2069 H   0  0  0  0  0  0
   27.8253   -0.9003  -17.7209 H   0  0  0  0  0  0
   25.4163   -2.0239  -15.0772 H   0  0  0  0  0  0
   24.5042   -4.4193  -15.2391 H   0  0  0  0  0  0
   27.0197   -5.1027  -18.8124 H   0  0  0  0  0  0
   27.9198   -2.7066  -18.6600 H   0  0  0  0  0  0
   26.8143    4.0368  -19.2522 H   0  0  0  0  0  0
   28.2403    4.1702  -20.3362 H   0  0  0  0  0  0
   26.0331    5.8666  -20.3819 H   0  0  0  0  0  0
   27.1783    5.6224  -21.7440 H   0  0  0  0  0  0
   24.3916    4.6386  -21.4046 H   0  0  0  0  0  0
   25.3680    4.8137  -22.9021 H   0  0  0  0  0  0
   25.9235    2.5631  -22.8660 H   0  0  0  0  0  0
   24.7782    2.3564  -21.4977 H   0  0  0  0  0  0
   22.2182   -0.3049  -19.4359 H   0  0  0  0  0  0
   24.0732    0.5242  -16.4565 H   0  0  0  0  0  0
   22.7442   -2.2418  -18.3206 H   0  0  0  0  0  0
  1  2  2  0  0  0
  1  7  1  0  0  0
  1 40  1  0  0  0
  2  3  1  0  0  0
  2  4  1  0  0  0
  4  5  2  0  0  0
  4 41  1  0  0  0
  5  6  1  0  0  0
  5 42  1  0  0  0
  6  7  2  0  0  0
  6 43  1  0  0  0
  7  8  1  0  0  0
  8  9  1  0  0  0
  8 21  1  0  0  0
  8 44  1  0  0  0
  9 10  1  0  0  0
  9 45  1  0  0  0
  9 46  1  0  0  0
 10 11  1  0  0  0
 10 15  1  0  0  0
 10 16  1  0  0  0
 11 12  1  0  0  0
 11 47  1  0  0  0
 11 48  1  0  0  0
 12 13  1  0  0  0
 12 14  2  0  0  0
 15 49  1  0  0  0
 15 50  1  0  0  0
 15 51  1  0  0  0
 16 17  2  0  0  0
 16 18  1  0  0  0
 18 19  1  0  0  0
 18 21  1  0  0  0
 19 20  1  0  0  0
 19 38  1  0  0  0
 19 52  1  0  0  0
 20 29  1  0  0  0
 20 53  1  0  0  0
 20 54  1  0  0  0
 21 22  1  0  0  0
 21 55  1  0  0  0
 22 23  2  0  0  0
 22 28  1  0  0  0
 23 24  1  0  0  0
 23 56  1  0  0  0
 24 25  2  0  0  0
 24 57  1  0  0  0
 25 26  1  0  0  0
 25 27  1  0  0  0
 27 28  2  0  0  0
 27 58  1  0  0  0
 28 59  1  0  0  0
 29 30  2  0  0  0
 29 31  2  0  0  0
 29 32  1  0  0  0
 32 33  1  0  0  0
 32 36  1  0  0  0
 33 34  1  0  0  0
 33 60  1  0  0  0
 33 61  1  0  0  0
 34 35  1  0  0  0
 34 62  1  0  0  0
 34 63  1  0  0  0
 35 36  1  0  0  0
 35 64  1  0  0  0
 35 65  1  0  0  0
 36 66  1  0  0  0
 36 67  1  0  0  0
 37 38  1  0  0  0
 37 39  2  0  0  0
 37 68  1  0  0  0
 38 39  1  0  0  0
 38 69  1  0  0  0
 39 70  1  0  0  0
M  CHG  1  13  -1
M  END
> <s_m_source_file>
../4qoc_ligand.sdf

> <i_m_source_file_index>
1

> <s_epik_input>
W09IXUMoPU8pW0NIMl1bQ0BAXTEoW0NIM10pW0NIMl1bQ0BIXShjKFtjSF1jMkNsKVtjSF1bY0hdW2NIXTIpW0NAQEhdKGMzW2NIXVtjSF1jKENsKVtjSF1bY0hdMylOKEMxPU8pW0NAQEhdKFtDSF00W0NIXT1bQ0hdNClbQ0gyXVMoPU8pKD1PKU41W0NIMl1bQ0gyXVtDSDJdW0NIMl01

> <s_epik_cmdline>
J2VwaWtfYXBwJywgJy1pbWFlJywgJ2xpZ2FuZF9wcm8ubWFlJywgJy1vbWFlJywgJ2xpZ2FuZF9wcmVwLm1hZScsICctbXMnLCAnMScsICctcGgnLCAnNycsICctcGh0JywgJzAuNScsICctbnQn

> <r_lp_tautomer_probability>
1

> <r_epik_Ionization_Penalty>
  0.0039

> <r_epik_Ionization_Penalty_Charging>
  0.0039

> <r_epik_Ionization_Penalty_Neutral>
  0.0000

> <r_epik_State_Penalty>
 -0.0000

> <r_epik_Charging_Adjusted_Penalty>
0.00387411318419166

> <i_epik_Tot_Q>
-1

> <i_epik_Tot_abs_Q>
1

$$$$
