4qok_ligand
                    3D
 Schrodinger Suite 2020-3.
139138  0  0  1  0            999 V2000
   45.5260   12.1280  -10.5630 N   0  3  0  0  0  0
   46.8050   12.7460  -10.1020 C   0  0  2  0  0  0
   47.9130   11.8220  -10.5310 C   0  0  0  0  0  0
   48.0690   10.7570   -9.9600 O   0  0  0  0  0  0
   46.7990   12.9080   -8.5770 C   0  0  0  0  0  0
   48.0610   13.5230   -7.9580 C   0  0  0  0  0  0
   48.1870   15.0210   -8.1350 C   0  0  0  0  0  0
   47.1500   15.7140   -8.2740 O   0  5  0  0  0  0
   49.3390   15.5050   -8.0820 O   0  0  0  0  0  0
   48.6570   12.2360  -11.5500 N   0  0  0  0  0  0
   49.8080   11.4910  -12.0690 C   0  0  2  0  0  0
   51.0750   11.5520  -11.1330 C   0  0  0  0  0  0
   51.1800   12.3910  -10.2630 O   0  0  0  0  0  0
   50.1460   12.0280  -13.4480 C   0  0  0  0  0  0
   52.0400   10.6670  -11.3210 N   0  0  0  0  0  0
   53.2220   10.6890  -10.4860 C   0  0  2  0  0  0
   53.9820   11.9720  -10.7020 C   0  0  0  0  0  0
   54.3270   12.3080  -11.8190 O   0  0  0  0  0  0
   54.1250    9.5160  -10.7770 C   0  0  0  0  0  0
   54.2360   12.6950   -9.6160 N   0  0  0  0  0  0
   55.0360   13.9110   -9.6420 C   0  0  0  0  0  0
   56.4770   13.6410   -9.2960 C   0  0  0  0  0  0
   57.3150   14.5220   -9.4120 O   0  0  0  0  0  0
   56.7620   12.4290   -8.8460 N   0  0  0  0  0  0
   58.1210   12.0210   -8.4770 C   0  0  2  0  0  0
   58.4050   10.5780   -8.8520 C   0  0  0  0  0  0
   57.5520    9.8580   -9.3260 O   0  0  0  0  0  0
   58.4120   12.2110   -6.9570 C   0  0  2  0  0  0
   57.4210   11.4250   -6.1100 C   0  0  0  0  0  0
   58.3800   13.6840   -6.5680 C   0  0  0  0  0  0
   57.6860   11.5750   -4.6260 C   0  0  0  0  0  0
   59.6220   10.1520   -8.6460 N   0  0  0  0  0  0
   59.9780    8.7900   -8.9900 C   0  0  0  0  0  0
   59.9130    8.4280  -10.4790 C   0  0  0  0  0  0
   59.6950    7.2690  -10.8060 O   0  0  0  0  0  0
   60.1210    9.3870  -11.3720 N   0  0  0  0  0  0
   60.1110    9.1280  -12.7880 C   0  0  2  0  0  0
   61.4260    9.5780  -13.3890 C   0  0  0  0  0  0
   61.6470   10.7460  -13.6920 O   0  0  0  0  0  0
   58.9800    9.8650  -13.5050 C   0  0  2  0  0  0
   57.6220    9.5000  -12.8920 C   0  0  0  0  0  0
   59.0220    9.5520  -15.0000 C   0  0  0  0  0  0
   57.2360    8.0710  -13.0190 C   0  0  0  0  0  0
   62.3050    8.6210  -13.5930 N   0  0  0  0  0  0
   63.6060    8.9150  -14.1190 C   0  0  2  0  0  0
   63.8120    8.1970  -15.4030 C   0  0  0  0  0  0
   63.0380    7.3350  -15.7720 O   0  0  0  0  0  0
   64.6500    8.4340  -13.1400 C   0  0  0  0  0  0
   64.5050    9.0050  -11.7390 C   0  0  0  0  0  0
   65.8470    8.8310  -11.0690 C   0  0  0  0  0  0
   64.1570   10.4860  -11.7910 C   0  0  0  0  0  0
   64.8830    8.5490  -16.0850 N   0  0  0  0  0  0
   65.2140    7.8890  -17.3160 C   0  0  2  0  0  0
   65.8740    6.5760  -16.9800 C   0  0  0  0  0  0
   66.4870    6.4390  -15.9300 O   0  0  0  0  0  0
   66.2150    8.7030  -18.0990 C   0  0  2  0  0  0
   67.2020    9.1450  -17.1890 O   0  0  0  0  0  0
   65.5700    9.8850  -18.6970 C   0  0  0  0  0  0
   65.7520    5.6240  -17.9020 N   0  0  0  0  0  0
   66.2970    4.2490  -17.7340 C   0  0  2  0  0  0
   67.8470    4.2240  -17.8940 C   0  0  0  0  0  0
   68.5720    3.3140  -17.4410 O   0  5  0  0  0  0
   65.6310    3.2610  -18.7330 C   0  0  0  0  0  0
   64.1090    3.2790  -18.6120 C   0  0  0  0  0  0
   66.0040    3.6210  -20.1540 C   0  0  0  0  0  0
   68.4470    5.1260  -18.4850 O   0  0  0  0  0  0
   45.5453   12.0184  -11.6574 H   0  0  0  0  0  0
   44.6825   12.7720  -10.2738 H   0  0  0  0  0  0
   45.4082   11.1384  -10.0974 H   0  0  0  0  0  0
   46.9323   13.7386  -10.5587 H   0  0  0  0  0  0
   45.9654   13.5619   -8.2810 H   0  0  0  0  0  0
   46.6776   11.9223   -8.1040 H   0  0  0  0  0  0
   48.0702   13.3290   -6.8753 H   0  0  0  0  0  0
   48.9524   13.0724   -8.4188 H   0  0  0  0  0  0
   48.3693   13.1934  -12.0089 H   0  0  0  0  0  0
   49.4562   10.4504  -12.1279 H   0  0  0  0  0  0
   49.2536   11.9793  -14.0893 H   0  0  0  0  0  0
   50.9494   11.4212  -13.8910 H   0  0  0  0  0  0
   50.4799   13.0727  -13.3630 H   0  0  0  0  0  0
   51.9417    9.9125  -12.1154 H   0  0  0  0  0  0
   52.8516   10.6212   -9.4525 H   0  0  0  0  0  0
   53.5709    8.5789  -10.6196 H   0  0  0  0  0  0
   54.9938    9.5460  -10.1030 H   0  0  0  0  0  0
   54.4686    9.5679  -11.8207 H   0  0  0  0  0  0
   53.8108   12.3366   -8.6669 H   0  0  0  0  0  0
   54.9998   14.3522  -10.6490 H   0  0  0  0  0  0
   54.6347   14.6296   -8.9122 H   0  0  0  0  0  0
   55.9295   11.7160   -8.7535 H   0  0  0  0  0  0
   58.7416   12.6899   -9.0913 H   0  0  0  0  0  0
   59.4205   11.8296   -6.7390 H   0  0  0  0  0  0
   56.4009   11.7839   -6.3115 H   0  0  0  0  0  0
   57.4901   10.3564   -6.3617 H   0  0  0  0  0  0
   59.0991   14.2420   -7.1856 H   0  0  0  0  0  0
   58.6493   13.7889   -5.5066 H   0  0  0  0  0  0
   57.3685   14.0844   -6.7310 H   0  0  0  0  0  0
   56.9457   10.9902   -4.0604 H   0  0  0  0  0  0
   57.6077   12.6356   -4.3449 H   0  0  0  0  0  0
   58.6970   11.2081   -4.3952 H   0  0  0  0  0  0
   60.3764   10.8248   -8.2122 H   0  0  0  0  0  0
   61.0127    8.5906   -8.6744 H   0  0  0  0  0  0
   59.2979    8.0929   -8.4786 H   0  0  0  0  0  0
   60.3052   10.4059  -11.0005 H   0  0  0  0  0  0
   59.9651    8.0402  -12.8617 H   0  0  0  0  0  0
   59.1217   10.9485  -13.3787 H   0  0  0  0  0  0
   57.6324    9.7277  -11.8159 H   0  0  0  0  0  0
   56.8294   10.0839  -13.3827 H   0  0  0  0  0  0
   60.0076    9.8258  -15.4044 H   0  0  0  0  0  0
   58.2405   10.1280  -15.5173 H   0  0  0  0  0  0
   58.8481    8.4769  -15.1545 H   0  0  0  0  0  0
   56.2530    7.9137  -12.5510 H   0  0  0  0  0  0
   57.9861    7.4426  -12.5166 H   0  0  0  0  0  0
   57.1831    7.7987  -14.0835 H   0  0  0  0  0  0
   62.0300    7.5831  -13.3540 H   0  0  0  0  0  0
   63.6431   10.0025  -14.2800 H   0  0  0  0  0  0
   64.5904    7.3394  -13.0487 H   0  0  0  0  0  0
   65.6496    8.7179  -13.5009 H   0  0  0  0  0  0
   63.7049    8.4880  -11.1890 H   0  0  0  0  0  0
   66.1014    7.7615  -11.0299 H   0  0  0  0  0  0
   65.8015    9.2347  -10.0468 H   0  0  0  0  0  0
   66.6156    9.3700  -11.6423 H   0  0  0  0  0  0
   63.1796   10.6161  -12.2787 H   0  0  0  0  0  0
   64.9270   11.0237  -12.3637 H   0  0  0  0  0  0
   64.1129   10.8884  -10.7682 H   0  0  0  0  0  0
   65.5257    9.3561  -15.7036 H   0  0  0  0  0  0
   64.2715    7.7749  -17.8716 H   0  0  0  0  0  0
   66.6941    8.1141  -18.8951 H   0  0  0  0  0  0
   67.8040    8.4122  -16.6317 H   0  0  0  0  0  0
   64.7974    9.5600  -19.4094 H   0  0  0  0  0  0
   66.3247   10.4872  -19.2240 H   0  0  0  0  0  0
   65.1064   10.4902  -17.9040 H   0  0  0  0  0  0
   65.2171    5.8947  -18.8243 H   0  0  0  0  0  0
   66.0338    3.9679  -16.7036 H   0  0  0  0  0  0
   65.9900    2.2456  -18.5093 H   0  0  0  0  0  0
   63.8199    3.0189  -17.5830 H   0  0  0  0  0  0
   63.6770    2.5471  -19.3104 H   0  0  0  0  0  0
   63.7337    4.2839  -18.8555 H   0  0  0  0  0  0
   67.0990    3.6127  -20.2590 H   0  0  0  0  0  0
   65.6205    4.6244  -20.3907 H   0  0  0  0  0  0
   65.5638    2.8876  -20.8456 H   0  0  0  0  0  0
  1  2  1  0  0  0
  1 67  1  0  0  0
  1 68  1  0  0  0
  1 69  1  0  0  0
  2  3  1  0  0  0
  2  5  1  0  0  0
  2 70  1  0  0  0
  3  4  2  0  0  0
  3 10  1  0  0  0
  5  6  1  0  0  0
  5 71  1  0  0  0
  5 72  1  0  0  0
  6  7  1  0  0  0
  6 73  1  0  0  0
  6 74  1  0  0  0
  7  8  1  0  0  0
  7  9  2  0  0  0
 10 11  1  0  0  0
 10 75  1  0  0  0
 11 12  1  0  0  0
 11 14  1  0  0  0
 11 76  1  0  0  0
 12 13  2  0  0  0
 12 15  1  0  0  0
 14 77  1  0  0  0
 14 78  1  0  0  0
 14 79  1  0  0  0
 15 16  1  0  0  0
 15 80  1  0  0  0
 16 17  1  0  0  0
 16 19  1  0  0  0
 16 81  1  0  0  0
 17 18  2  0  0  0
 17 20  1  0  0  0
 19 82  1  0  0  0
 19 83  1  0  0  0
 19 84  1  0  0  0
 20 21  1  0  0  0
 20 85  1  0  0  0
 21 22  1  0  0  0
 21 86  1  0  0  0
 21 87  1  0  0  0
 22 23  2  0  0  0
 22 24  1  0  0  0
 24 25  1  0  0  0
 24 88  1  0  0  0
 25 26  1  0  0  0
 25 28  1  0  0  0
 25 89  1  0  0  0
 26 27  2  0  0  0
 26 32  1  0  0  0
 28 29  1  0  0  0
 28 30  1  0  0  0
 28 90  1  0  0  0
 29 31  1  0  0  0
 29 91  1  0  0  0
 29 92  1  0  0  0
 30 93  1  0  0  0
 30 94  1  0  0  0
 30 95  1  0  0  0
 31 96  1  0  0  0
 31 97  1  0  0  0
 31 98  1  0  0  0
 32 33  1  0  0  0
 32 99  1  0  0  0
 33 34  1  0  0  0
 33100  1  0  0  0
 33101  1  0  0  0
 34 35  2  0  0  0
 34 36  1  0  0  0
 36 37  1  0  0  0
 36102  1  0  0  0
 37 38  1  0  0  0
 37 40  1  0  0  0
 37103  1  0  0  0
 38 39  2  0  0  0
 38 44  1  0  0  0
 40 41  1  0  0  0
 40 42  1  0  0  0
 40104  1  0  0  0
 41 43  1  0  0  0
 41105  1  0  0  0
 41106  1  0  0  0
 42107  1  0  0  0
 42108  1  0  0  0
 42109  1  0  0  0
 43110  1  0  0  0
 43111  1  0  0  0
 43112  1  0  0  0
 44 45  1  0  0  0
 44113  1  0  0  0
 45 46  1  0  0  0
 45 48  1  0  0  0
 45114  1  0  0  0
 46 47  2  0  0  0
 46 52  1  0  0  0
 48 49  1  0  0  0
 48115  1  0  0  0
 48116  1  0  0  0
 49 50  1  0  0  0
 49 51  1  0  0  0
 49117  1  0  0  0
 50118  1  0  0  0
 50119  1  0  0  0
 50120  1  0  0  0
 51121  1  0  0  0
 51122  1  0  0  0
 51123  1  0  0  0
 52 53  1  0  0  0
 52124  1  0  0  0
 53 54  1  0  0  0
 53 56  1  0  0  0
 53125  1  0  0  0
 54 55  2  0  0  0
 54 59  1  0  0  0
 56 57  1  0  0  0
 56 58  1  0  0  0
 56126  1  0  0  0
 57127  1  0  0  0
 58128  1  0  0  0
 58129  1  0  0  0
 58130  1  0  0  0
 59 60  1  0  0  0
 59131  1  0  0  0
 60 61  1  0  0  0
 60 63  1  0  0  0
 60132  1  0  0  0
 61 62  1  0  0  0
 61 66  2  0  0  0
 63 64  1  0  0  0
 63 65  1  0  0  0
 63133  1  0  0  0
 64134  1  0  0  0
 64135  1  0  0  0
 64136  1  0  0  0
 65137  1  0  0  0
 65138  1  0  0  0
 65139  1  0  0  0
M  CHG  3   1   1   8  -1  62  -1
M  END
> <s_m_source_file>
../4qok_ligand.sdf

> <i_m_source_file_index>
1

> <s_epik_input>
W09IXUMoPU8pW0NIMl1bQ0gyXVtDQEhdKFtOSDMrXSlDKD1PKVtOSF1bQ0BASF0oW0NIM10pQyg9TylbTkhdW0NAQEhdKFtDSDNdKUMoPU8pW05IXVtDSDJdQyg9TylbTkhdW0NAQEhdKFtDQEBIXShbQ0gzXSlbQ0gyXVtDSDNdKUMoPU8pW05IXVtDSDJdQyg9TylbTkhdW0NAQEhdKFtDQEBIXShbQ0gzXSlbQ0gyXVtDSDNdKUMoPU8pW05IXVtDQEBIXShbQ0gyXVtDSF0oW0NIM10pW0NIM10pQyg9TylbTkhdW0NAQEhdKFtDQEhdKFtPSF0pW0NIM10pQyg9TylbTkhdW0NASF0oQyg9TylbT0hdKVtDSF0oW0NIM10pW0NIM10=

> <s_epik_cmdline>
J2VwaWtfYXBwJywgJy1pbWFlJywgJ2xpZ2FuZF9wcm8ubWFlJywgJy1vbWFlJywgJ2xpZ2FuZF9wcmVwLm1hZScsICctbXMnLCAnMScsICctcGgnLCAnNycsICctcGh0JywgJzAuNScsICctbnQn

> <r_epik_Ionization_Penalty>
  0.0776

> <r_epik_Ionization_Penalty_Charging>
  0.0776

> <r_epik_Ionization_Penalty_Neutral>
  0.0000

> <r_epik_State_Penalty>
  0.0674

> <r_epik_Charging_Adjusted_Penalty>
0.145002245995934

> <i_epik_Tot_Q>
-1

> <i_epik_Tot_abs_Q>
3

$$$$
