4qp1_ligand
                    3D
 Schrodinger Suite 2020-3.
 28 30  0  0  1  0            999 V2000
  -16.7790  -37.1570  -27.6600 N   0  0  0  0  0  0
  -17.5160  -36.8520  -28.7120 C   0  0  0  0  0  0
  -17.8420  -35.6140  -29.0090 N   0  0  0  0  0  0
  -17.4310  -34.6020  -28.2410 C   0  0  0  0  0  0
  -16.6480  -34.8830  -27.1130 C   0  0  0  0  0  0
  -16.3310  -36.2110  -26.8390 C   0  0  0  0  0  0
  -14.5480  -37.5930  -25.8440 C   0  0  0  0  0  0
  -16.3740  -33.6690  -26.5190 N   0  0  0  0  0  0
  -16.9710  -32.7180  -27.2690 C   0  0  0  0  0  0
  -17.5900  -33.2680  -28.2760 N   0  3  0  0  0  0
  -14.8680  -38.6940  -24.8680 C   0  0  0  0  0  0
  -15.7080  -39.7250  -25.2460 C   0  0  0  0  0  0
  -16.0020  -40.7370  -24.3530 C   0  0  0  0  0  0
  -15.4560  -40.7170  -23.0820 C   0  0  0  0  0  0
  -14.6150  -39.6860  -22.7040 C   0  0  0  0  0  0
  -14.3210  -38.6740  -23.5980 C   0  0  0  0  0  0
  -15.5510  -36.5300  -25.7390 N   0  0  0  0  0  0
  -17.8671  -37.6566  -29.3581 H   0  0  0  0  0  0
  -13.5543  -37.1793  -25.6172 H   0  0  0  0  0  0
  -14.5520  -37.9972  -26.8670 H   0  0  0  0  0  0
  -16.9400  -31.6481  -27.0629 H   0  0  0  0  0  0
  -16.1378  -39.7393  -26.2476 H   0  0  0  0  0  0
  -16.6637  -41.5508  -24.6495 H   0  0  0  0  0  0
  -15.6890  -41.5152  -22.3772 H   0  0  0  0  0  0
  -14.1848  -39.6717  -21.7026 H   0  0  0  0  0  0
  -13.6584  -37.8606  -23.3023 H   0  0  0  0  0  0
  -15.6821  -35.9893  -24.7901 H   0  0  0  0  0  0
  -18.1776  -32.8051  -29.0825 H   0  0  0  0  0  0
  1  2  2  0  0  0
  1  6  1  0  0  0
  2  3  1  0  0  0
  2 18  1  0  0  0
  3  4  2  0  0  0
  4  5  1  0  0  0
  4 10  1  0  0  0
  5  6  2  0  0  0
  5  8  1  0  0  0
  6 17  1  0  0  0
  7 11  1  0  0  0
  7 17  1  0  0  0
  7 19  1  0  0  0
  7 20  1  0  0  0
  8  9  1  0  0  0
  9 10  2  0  0  0
  9 21  1  0  0  0
 10 28  1  0  0  0
 11 12  2  0  0  0
 11 16  1  0  0  0
 12 13  1  0  0  0
 12 22  1  0  0  0
 13 14  2  0  0  0
 13 23  1  0  0  0
 14 15  1  0  0  0
 14 24  1  0  0  0
 15 16  2  0  0  0
 15 25  1  0  0  0
 16 26  1  0  0  0
 17 27  1  0  0  0
M  CHG  1  10   1
M  END
> <s_m_source_file>
../4qp1_ligand.sdf

> <i_m_source_file_index>
1

> <s_epik_input>
bjFbY0hdW25IXWMoYzEyKWMobltjSF1uMilbTkhdW0NIMl1jM1tjSF1bY0hdW2NIXVtjSF1bY0hdMw==

> <s_epik_cmdline>
J2VwaWtfYXBwJywgJy1pbWFlJywgJ2xpZ2FuZF9wcm8ubWFlJywgJy1vbWFlJywgJ2xpZ2FuZF9wcmVwLm1hZScsICctbXMnLCAnMScsICctcGgnLCAnNycsICctcGh0JywgJzAuNScsICctbnQn

> <r_epik_Ionization_Penalty>
  0.0073

> <r_epik_Ionization_Penalty_Charging>
  0.0000

> <r_epik_Ionization_Penalty_Neutral>
  0.0073

> <r_epik_State_Penalty>
  0.1001

> <r_epik_Charging_Adjusted_Penalty>
0.100075288247052

> <i_epik_Tot_Q>
1

> <i_epik_Tot_abs_Q>
1

$$$$
