4qp6_ligand
                    3D
 Schrodinger Suite 2020-3.
 13 14  0  0  1  0            999 V2000
  -17.4120  -33.3110  -28.4420 N   0  0  0  0  0  0
  -17.4250  -34.6790  -28.3190 C   0  0  0  0  0  0
  -16.8210  -34.9930  -27.0810 C   0  0  0  0  0  0
  -17.1490  -37.2220  -27.4880 C   0  0  0  0  0  0
  -16.4470  -33.7110  -26.4790 C   0  0  0  0  0  0
  -16.8280  -32.7510  -27.3380 C   0  0  0  0  0  0
  -16.7000  -36.2620  -26.7020 N   0  0  0  0  0  0
  -17.7440  -36.9140  -28.7050 C   0  0  0  0  0  0
  -17.8690  -35.6580  -29.0960 N   0  0  0  0  0  0
  -17.0525  -38.2633  -27.1805 H   0  0  0  0  0  0
  -15.9549  -33.4393  -25.5335 H   0  0  0  0  0  0
  -16.6502  -31.6931  -27.0947 H   0  0  0  0  0  0
  -18.1130  -37.7287  -29.3454 H   0  0  0  0  0  0
  1  2  2  0  0  0
  1  6  1  0  0  0
  2  3  1  0  0  0
  2  9  1  0  0  0
  3  5  1  0  0  0
  3  7  2  0  0  0
  4  7  1  0  0  0
  4  8  1  0  0  0
  4 10  1  0  0  0
  5  6  2  0  0  0
  5 11  1  0  0  0
  6 12  1  0  0  0
  8  9  2  0  0  0
  8 13  1  0  0  0
M  END
> <s_m_source_file>
../4qp6_ligand.sdf

> <i_m_source_file_index>
1

> <s_epik_input>
Tj0xW0NIXT1bQ0hdQyhDMTIpPU5bQ0gyXVtDSF09TjI=

> <s_epik_cmdline>
J2VwaWtfYXBwJywgJy1pbWFlJywgJ2xpZ2FuZF9wcm8ubWFlJywgJy1vbWFlJywgJ2xpZ2FuZF9wcmVwLm1hZScsICctbXMnLCAnMScsICctcGgnLCAnNycsICctcGh0JywgJzAuNScsICctbnQn

> <r_lp_tautomer_probability>
1

> <r_epik_Ionization_Penalty>
  0.0004

> <r_epik_Ionization_Penalty_Charging>
  0.0000

> <r_epik_Ionization_Penalty_Neutral>
  0.0004

> <r_epik_State_Penalty>
 -0.0000

> <r_epik_Charging_Adjusted_Penalty>
0

> <i_epik_Tot_Q>
0

> <i_epik_Tot_abs_Q>
0

> <s_epik_Chemistry_Notes>
This compound has an imine and may undergo hydrolysis.

$$$$
