4qp8_ligand
                    3D
 Schrodinger Suite 2020-3.
 30 33  0  0  1  0            999 V2000
   35.4140  -45.5110   37.6180 C   0  0  0  0  0  0
   36.0880  -45.3780   35.4180 C   0  0  0  0  0  0
   36.5340  -44.2220   39.4350 C   0  0  0  0  0  0
   37.5860  -43.5970   40.0180 C   0  0  0  0  0  0
   34.1710  -44.4580   42.7960 C   0  0  0  0  0  0
   32.2650  -45.6060   41.6440 C   0  0  0  0  0  0
   31.6030  -46.1900   40.5450 C   0  0  0  0  0  0
   37.0940  -44.4830   35.7280 C   0  0  0  0  0  0
   37.2630  -44.0860   37.0430 C   0  0  0  0  0  0
   36.4080  -44.6180   38.0130 C   0  0  0  0  0  0
   35.2910  -45.8580   36.3540 N   0  0  0  0  0  0
   37.3190  -43.3910   41.3390 N   0  3  0  0  0  0
   36.0730  -43.8770   41.6600 C   0  0  0  0  0  0
   35.5220  -44.4170   40.4830 C   0  0  0  0  0  0
   34.3100  -44.9620   40.4980 N   0  0  0  0  0  0
   33.6200  -44.9960   41.6290 C   0  0  0  0  0  0
   35.3720  -43.9160   42.7870 N   0  0  0  0  0  0
   31.4320  -45.7060   42.7220 C   0  0  0  0  0  0
   30.3060  -46.3230   42.3120 N   0  0  0  0  0  0
   30.4350  -46.6150   40.9490 N   0  3  0  0  0  0
   34.7330  -45.9255   38.3613 H   0  0  0  0  0  0
   35.9504  -45.6927   34.3835 H   0  0  0  0  0  0
   38.5043  -43.3041   39.5090 H   0  0  0  0  0  0
   33.6003  -44.4873   43.7242 H   0  0  0  0  0  0
   32.0936  -46.2219   39.5610 H   0  0  0  0  0  0
   37.7466  -44.0943   34.9463 H   0  0  0  0  0  0
   38.0436  -43.3759   37.3158 H   0  0  0  0  0  0
   31.5349  -45.3888   43.7702 H   0  0  0  0  0  0
   29.6177  -47.1222   40.4154 H   0  0  0  0  0  0
   38.0629  -42.8947   41.9796 H   0  0  0  0  0  0
  1 10  2  0  0  0
  1 11  1  0  0  0
  1 21  1  0  0  0
  2  8  1  0  0  0
  2 11  2  0  0  0
  2 22  1  0  0  0
  3  4  1  0  0  0
  3 10  1  0  0  0
  3 14  2  0  0  0
  4 12  2  0  0  0
  4 23  1  0  0  0
  5 16  2  0  0  0
  5 17  1  0  0  0
  5 24  1  0  0  0
  6  7  2  0  0  0
  6 16  1  0  0  0
  6 18  1  0  0  0
  7 20  1  0  0  0
  7 25  1  0  0  0
  8  9  2  0  0  0
  8 26  1  0  0  0
  9 10  1  0  0  0
  9 27  1  0  0  0
 12 13  1  0  0  0
 12 30  1  0  0  0
 13 14  1  0  0  0
 13 17  2  0  0  0
 14 15  1  0  0  0
 15 16  1  0  0  0
 18 19  2  0  0  0
 18 28  1  0  0  0
 19 20  1  0  0  0
 20 29  1  0  0  0
M  CHG  2  12   1  20   1
M  END
> <s_m_source_file>
../4qp8_ligand.sdf

> <i_m_source_file_index>
1

> <s_epik_input>
W2NIXTFbY0hdW2NIXW5bY0hdYzEtYyhbY0hdbjIpYyhjMjMpW25IXWMoW2NIXW4zKS1jNFtjSF1bbkhdbltjSF00

> <s_epik_cmdline>
J2VwaWtfYXBwJywgJy1pbWFlJywgJ2xpZ2FuZF9wcm8ubWFlJywgJy1vbWFlJywgJ2xpZ2FuZF9wcmVwLm1hZScsICctbXMnLCAnMScsICctcGgnLCAnNycsICctcGh0JywgJzAuNScsICctbnQn

> <r_epik_Ionization_Penalty>
  0.0002

> <r_epik_Ionization_Penalty_Charging>
  0.0000

> <r_epik_Ionization_Penalty_Neutral>
  0.0002

> <r_epik_State_Penalty>
  0.2671

> <r_epik_Charging_Adjusted_Penalty>
0.267083039736606

> <i_epik_Tot_Q>
2

> <i_epik_Tot_abs_Q>
2

> <s_epik_Chemistry_Notes>
This compound has an imine and may undergo hydrolysis.

$$$$
