4qp9_ligand
                    3D
 Schrodinger Suite 2020-3.
 38 41  0  0  1  0            999 V2000
    1.4890   10.7310   15.7910 C   0  0  0  0  0  0
    1.2730   10.1530   14.5690 C   0  0  0  0  0  0
    2.4930   10.1630   13.8670 C   0  0  0  0  0  0
   -0.2000    8.8190   12.9730 C   0  0  0  0  0  0
   -2.2170    8.9840   13.9300 C   0  0  0  0  0  0
   -3.9070    9.5380   15.3780 C   0  0  0  0  0  0
   -2.7290   11.1320   18.5050 C   0  0  0  0  0  0
   -3.2850   11.7390   19.6180 C   0  0  0  0  0  0
   -4.8720   11.3080   17.4480 C   0  0  0  0  0  0
    4.8560   11.2550   19.0140 C   0  0  0  0  0  0
    4.0200   10.6400   17.8740 C   0  0  0  0  0  0
    3.4680   11.7460   16.9640 C   0  0  0  0  0  0
    2.7930   11.0900   15.8400 N   0  0  0  0  0  0
    3.3930   10.7290   14.6260 N   0  0  0  0  0  0
   -0.0080    9.5820   14.0840 C   0  0  0  0  0  0
   -1.5180    8.4620   12.8670 N   0  0  0  0  0  0
   -1.3100    9.7020   14.7450 C   0  0  0  0  0  0
   -1.7290   10.3170   15.8440 N   0  0  0  0  0  0
   -3.0140   10.2600   16.1700 C   0  0  3  0  0  0
   -3.4890    8.9240   14.2850 N   0  0  0  0  0  0
   -3.5340   10.9150   17.3890 C   0  0  0  0  0  0
   -4.5560   12.1090   19.6270 N   0  0  0  0  0  0
   -5.3440   11.9110   18.5940 C   0  0  0  0  0  0
    0.7487   10.8752   16.5779 H   0  0  0  0  0  0
    2.6580    9.7674   12.8648 H   0  0  0  0  0  0
    0.6497    8.5791   12.3170 H   0  0  0  0  0  0
   -4.9662    9.4820   15.6693 H   0  0  0  0  0  0
   -1.6818   10.8297   18.5019 H   0  0  0  0  0  0
   -2.6678   11.9147   20.4991 H   0  0  0  0  0  0
   -5.5348   11.1403   16.5991 H   0  0  0  0  0  0
    5.2450   10.4522   19.6577 H   0  0  0  0  0  0
    4.2233   11.9290   19.6102 H   0  0  0  0  0  0
    5.6962   11.8226   18.5875 H   0  0  0  0  0  0
    4.6527    9.9660   17.2778 H   0  0  0  0  0  0
    3.1798   10.0724   18.3005 H   0  0  0  0  0  0
    2.7588   12.3672   17.5307 H   0  0  0  0  0  0
    4.2974   12.3724   16.6037 H   0  0  0  0  0  0
   -6.3856   12.2282   18.6443 H   0  0  0  0  0  0
  1  2  2  0  0  0
  1 13  1  0  0  0
  1 24  1  0  0  0
  2  3  1  0  0  0
  2 15  1  0  0  0
  3 14  2  0  0  0
  3 25  1  0  0  0
  4 15  2  0  0  0
  4 16  1  0  0  0
  4 26  1  0  0  0
  5 16  2  0  0  0
  5 17  1  0  0  0
  5 20  1  0  0  0
  6 19  1  0  0  0
  6 20  2  0  0  0
  6 27  1  0  0  0
  7  8  2  0  0  0
  7 21  1  0  0  0
  7 28  1  0  0  0
  8 22  1  0  0  0
  8 29  1  0  0  0
  9 21  2  0  0  0
  9 23  1  0  0  0
  9 30  1  0  0  0
 10 11  1  0  0  0
 10 31  1  0  0  0
 10 32  1  0  0  0
 10 33  1  0  0  0
 11 12  1  0  0  0
 11 34  1  0  0  0
 11 35  1  0  0  0
 12 13  1  0  0  0
 12 36  1  0  0  0
 12 37  1  0  0  0
 13 14  1  0  0  0
 15 17  1  0  0  0
 17 18  2  0  0  0
 18 19  1  0  0  0
 19 21  1  0  0  0
 22 23  2  0  0  0
 23 38  1  0  0  0
M  END
> <s_m_source_file>
../4qp9_ligand.sdf

> <i_m_source_file_index>
1

> <s_epik_input>
W0NIM11bQ0gyXVtDSDJdbihuW2NIXTEpW2NIXWMxQyg9W0NIXU4yKUMoQz0yMyk9TltDSF0oW0NIXT1OMyljNFtjSF1bY0hdbltjSF1bY0hdNA==

> <s_epik_cmdline>
J2VwaWtfYXBwJywgJy1pbWFlJywgJ2xpZ2FuZF9wcm8ubWFlJywgJy1vbWFlJywgJ2xpZ2FuZF9wcmVwLm1hZScsICctbXMnLCAnMScsICctcGgnLCAnNycsICctcGh0JywgJzAuNScsICctbnQn

> <r_lp_tautomer_probability>
1

> <r_epik_Ionization_Penalty>
  0.0001

> <r_epik_Ionization_Penalty_Charging>
  0.0000

> <r_epik_Ionization_Penalty_Neutral>
  0.0001

> <r_epik_State_Penalty>
 -0.0000

> <r_epik_Charging_Adjusted_Penalty>
0

> <i_epik_Tot_Q>
0

> <i_epik_Tot_abs_Q>
0

> <s_epik_Chemistry_Notes>
This compound has an imine and may undergo hydrolysis.

$$$$
