4qpl_ligand
                    3D
 Schrodinger Suite 2020-3.
 55 58  0  0  1  0            999 V2000
   52.5290   14.8710   34.4630 N   0  0  0  0  0  0
   52.9040   15.0800   33.1840 C   0  0  0  0  0  0
   53.3170   14.0750   32.3950 N   0  0  0  0  0  0
   53.3850   12.8010   32.8710 C   0  0  0  0  0  0
   53.0310   12.5130   34.1730 C   0  0  0  0  0  0
   52.5870   13.6290   35.0070 C   0  0  0  0  0  0
   52.2210   13.3930   36.2720 N   0  0  0  0  0  0
   53.1750   11.1860   34.3810 N   0  0  0  0  0  0
   53.6240   10.6580   33.2240 C   0  0  0  0  0  0
   53.7210   11.6470   32.3070 N   0  0  0  0  0  0
   55.1230    6.9310   32.3350 P   0  0  0  0  0  0
   62.4850   12.4390   32.6960 P   0  0  0  0  0  0
   57.4840   12.7200   32.0670 C   0  0  1  0  0  0
   54.2310   11.5250   30.9300 C   0  0  1  0  0  0
   55.5390    7.2870   33.7280 O   0  0  0  0  0  0
   61.9500   11.0680   33.0570 O   0  5  0  0  0  0
   57.9840   14.1640   32.1490 C   0  0  2  0  0  0
   56.9250   15.1250   32.2880 O   0  0  0  0  0  0
   55.7470   11.3500   31.0420 C   0  0  2  0  0  0
   56.4240   12.6050   31.1260 O   0  0  0  0  0  0
   53.6550    6.6420   32.2150 O   0  5  0  0  0  0
   63.6010   12.4520   31.6960 O   0  0  0  0  0  0
   58.8220   14.2890   30.8780 C   0  0  2  0  0  0
   58.0740   14.7780   29.7460 O   0  0  0  0  0  0
   56.0840   10.5430   29.8140 C   0  0  2  0  0  0
   56.3740   11.4140   28.7140 O   0  0  0  0  0  0
   56.0240    5.9270   31.6700 O   0  5  0  0  0  0
   62.7380   13.3520   33.8680 O   0  5  0  0  0  0
   59.2720   12.8500   30.5910 C   0  0  2  0  0  0
   58.6280   12.0230   31.5660 O   0  0  0  0  0  0
   54.8260    9.7300   29.5660 C   0  0  2  0  0  0
   53.7440   10.3850   30.2400 O   0  0  0  0  0  0
   60.7970   12.6920   30.6520 C   0  0  0  0  0  0
   61.2950   13.1850   31.9030 O   0  0  0  0  0  0
   54.9420    8.2980   30.0840 C   0  0  0  0  0  0
   55.3140    8.2730   31.4660 O   0  0  0  0  0  0
   52.8708   16.0919   32.7802 H   0  0  0  0  0  0
   51.8848   14.2227   36.9112 H   0  0  0  0  0  0
   52.2563   12.3693   36.6729 H   0  0  0  0  0  0
   53.8680    9.6090   33.0561 H   0  0  0  0  0  0
   57.0848   12.2880   32.9966 H   0  0  0  0  0  0
   53.8571   12.3845   30.3543 H   0  0  0  0  0  0
   58.5285   14.4343   33.0658 H   0  0  0  0  0  0
   56.2752   15.1029   33.1753 H   0  0  0  0  0  0
   56.1178   10.8898   31.9698 H   0  0  0  0  0  0
   59.6174   15.0417   30.9816 H   0  0  0  0  0  0
   57.6623   15.7980   29.7579 H   0  0  0  0  0  0
   56.9982    9.9370   29.8981 H   0  0  0  0  0  0
   57.2579   12.0679   28.7484 H   0  0  0  0  0  0
   58.9481   12.5088   29.5967 H   0  0  0  0  0  0
   54.6075    9.7031   28.4883 H   0  0  0  0  0  0
   61.0596   11.6284   30.5534 H   0  0  0  0  0  0
   61.2577   13.2611   29.8311 H   0  0  0  0  0  0
   53.9734    7.7885   29.9732 H   0  0  0  0  0  0
   55.7076    7.7598   29.5059 H   0  0  0  0  0  0
  1  2  1  0  0  0
  1  6  2  0  0  0
  2  3  2  0  0  0
  2 37  1  0  0  0
  3  4  1  0  0  0
  4  5  2  0  0  0
  4 10  1  0  0  0
  5  6  1  0  0  0
  5  8  1  0  0  0
  6  7  1  0  0  0
  7 38  1  0  0  0
  7 39  1  0  0  0
  8  9  2  0  0  0
  9 10  1  0  0  0
  9 40  1  0  0  0
 10 14  1  0  0  0
 11 15  2  0  0  0
 11 21  1  0  0  0
 11 27  1  0  0  0
 11 36  1  0  0  0
 12 16  1  0  0  0
 12 22  2  0  0  0
 12 28  1  0  0  0
 12 34  1  0  0  0
 13 17  1  0  0  0
 13 20  1  0  0  0
 13 30  1  0  0  0
 13 41  1  0  0  0
 14 19  1  0  0  0
 14 32  1  0  0  0
 14 42  1  0  0  0
 17 18  1  0  0  0
 17 23  1  0  0  0
 17 43  1  0  0  0
 18 44  1  0  0  0
 19 20  1  0  0  0
 19 25  1  0  0  0
 19 45  1  0  0  0
 23 24  1  0  0  0
 23 29  1  0  0  0
 23 46  1  0  0  0
 24 47  1  0  0  0
 25 26  1  0  0  0
 25 31  1  0  0  0
 25 48  1  0  0  0
 26 49  1  0  0  0
 29 30  1  0  0  0
 29 33  1  0  0  0
 29 50  1  0  0  0
 31 32  1  0  0  0
 31 35  1  0  0  0
 31 51  1  0  0  0
 33 34  1  0  0  0
 33 52  1  0  0  0
 33 53  1  0  0  0
 35 36  1  0  0  0
 35 54  1  0  0  0
 35 55  1  0  0  0
M  CHG  4  16  -1  21  -1  27  -1  28  -1
M  END
> <s_m_source_file>
../4qpl_ligand.sdf

> <i_m_source_file_index>
1

> <s_epik_input>
bjFbY0hdbmMoW05IMl0pYyhjMTIpbltjSF1uMltDQEhdM1tDQEBIXShbQ0BIXShbT0hdKVtDQEhdKE8zKVtDSDJdT1AoPU8pKFtPSF0pW09IXSlPW0NAQEhdNFtDQEhdKFtPSF0pW0NASF0oW09IXSlbQ0BIXShPNClbQ0gyXU9QKD1PKShbT0hdKVtPSF0=

> <s_epik_cmdline>
J2VwaWtfYXBwJywgJy1pbWFlJywgJ2xpZ2FuZF9wcm8ubWFlJywgJy1vbWFlJywgJ2xpZ2FuZF9wcmVwLm1hZScsICctbXMnLCAnMScsICctcGgnLCAnNycsICctcGh0JywgJzAuNScsICctbnQn

> <r_lp_tautomer_probability>
1

> <r_epik_Ionization_Penalty>
  0.2025

> <r_epik_Ionization_Penalty_Charging>
  0.2019

> <r_epik_Ionization_Penalty_Neutral>
  0.0006

> <r_epik_State_Penalty>
 -0.0000

> <r_epik_Charging_Adjusted_Penalty>
0.201914238226336

> <i_epik_Tot_Q>
-4

> <i_epik_Tot_abs_Q>
4

> <s_epik_Chemistry_Notes>
This compound contains an acetal/aminal-like group ( X-CH(R)-Y where X, Y are N, S, or O) that may be acid/base labile, releasing an aldehyde.

$$$$
