4qps_ligand
                    3D
 Schrodinger Suite 2020-3.
 45 48  0  0  1  0            999 V2000
  -20.1430   -7.5940   13.2670 C   0  0  0  0  0  0
  -19.1820   -8.4440   10.8020 C   0  0  0  0  0  0
  -19.8340   -6.6870   12.2770 C   0  0  0  0  0  0
  -17.1300   -3.0650   16.2790 C   0  0  0  0  0  0
  -17.4810   -1.7900   15.8930 C   0  0  0  0  0  0
  -18.8920   -4.0690    8.9830 C   0  0  0  0  0  0
  -16.5120   -7.3770   16.9770 C   0  0  0  0  0  0
  -17.1450   -4.1250   15.3970 C   0  0  0  0  0  0
  -17.8280   -2.7060   13.6960 C   0  0  0  0  0  0
  -16.4880   -5.8810   16.9740 C   0  0  0  0  0  0
  -17.4440   -7.7790   18.0830 C   0  0  0  0  0  0
  -19.9650   -8.9360   13.0050 C   0  0  0  0  0  0
  -19.4970   -9.3690   11.7800 C   0  0  0  0  0  0
  -17.4990   -3.9840   14.0790 C   0  0  0  0  0  0
  -18.5190   -2.1670   10.1240 C   0  0  0  0  0  0
  -18.4630   -0.8720   12.6780 C   0  0  0  0  0  0
  -19.3390   -7.0940   11.0470 C   0  0  0  0  0  0
  -17.8330   -1.6350   14.5620 C   0  0  0  0  0  0
  -18.8420   -4.8110   10.1460 C   0  0  0  0  0  0
  -18.4750   -2.8950   11.3000 C   0  0  0  0  0  0
  -18.7380   -2.7400    8.9380 N   0  0  0  0  0  0
  -18.2220   -0.4990   13.9120 N   0  0  0  0  0  0
  -18.6190   -4.2230   11.3280 N   0  0  0  0  0  0
  -19.0140   -6.1950   10.0120 N   0  0  0  0  0  0
  -16.8250   -5.4400   15.7390 N   0  0  0  0  0  0
  -18.2360   -2.2020   12.4930 N   0  0  0  0  0  0
  -16.1980   -5.2020   17.9490 O   0  0  0  0  0  0
  -20.5190   -7.2589   14.2337 H   0  0  0  0  0  0
  -18.8087   -8.7811    9.8350 H   0  0  0  0  0  0
  -19.9822   -5.6236   12.4650 H   0  0  0  0  0  0
  -16.8315   -3.2412   17.3124 H   0  0  0  0  0  0
  -17.4817   -0.9539   16.5923 H   0  0  0  0  0  0
  -19.0673   -4.5967    8.0455 H   0  0  0  0  0  0
  -16.8736   -7.7398   16.0035 H   0  0  0  0  0  0
  -15.4965   -7.7597   17.1568 H   0  0  0  0  0  0
  -17.5017   -8.8763   18.1331 H   0  0  0  0  0  0
  -18.4451   -7.3677   17.8865 H   0  0  0  0  0  0
  -17.0680   -7.3875   19.0398 H   0  0  0  0  0  0
  -20.1978   -9.6680   13.7784 H   0  0  0  0  0  0
  -19.3766  -10.4347   11.5852 H   0  0  0  0  0  0
  -17.5179   -4.8250   13.3858 H   0  0  0  0  0  0
  -18.3697   -1.0881   10.1674 H   0  0  0  0  0  0
  -18.8046   -0.1972   11.8931 H   0  0  0  0  0  0
  -18.8719   -6.5655    8.9861 H   0  0  0  0  0  0
  -16.8334   -6.2260   14.9695 H   0  0  0  0  0  0
  1  3  2  0  0  0
  1 12  1  0  0  0
  1 28  1  0  0  0
  2 13  1  0  0  0
  2 17  2  0  0  0
  2 29  1  0  0  0
  3 17  1  0  0  0
  3 30  1  0  0  0
  4  5  1  0  0  0
  4  8  2  0  0  0
  4 31  1  0  0  0
  5 18  2  0  0  0
  5 32  1  0  0  0
  6 19  2  0  0  0
  6 21  1  0  0  0
  6 33  1  0  0  0
  7 10  1  0  0  0
  7 11  1  0  0  0
  7 34  1  0  0  0
  7 35  1  0  0  0
  8 14  1  0  0  0
  8 25  1  0  0  0
  9 14  2  0  0  0
  9 18  1  0  0  0
  9 26  1  0  0  0
 10 25  1  0  0  0
 10 27  2  0  0  0
 11 36  1  0  0  0
 11 37  1  0  0  0
 11 38  1  0  0  0
 12 13  2  0  0  0
 12 39  1  0  0  0
 13 40  1  0  0  0
 14 41  1  0  0  0
 15 20  1  0  0  0
 15 21  2  0  0  0
 15 42  1  0  0  0
 16 22  2  0  0  0
 16 26  1  0  0  0
 16 43  1  0  0  0
 17 24  1  0  0  0
 18 22  1  0  0  0
 19 23  1  0  0  0
 19 24  1  0  0  0
 20 23  2  0  0  0
 20 26  1  0  0  0
 24 44  1  0  0  0
 25 45  1  0  0  0
M  END
> <s_m_source_file>
../4qps_ligand.sdf

> <i_m_source_file_index>
1

> <s_epik_input>
W2NIXTFbY0hdW2NIXVtjSF1bY0hdYzFbTkhdYzJbY0hdbltjSF1jKG4yKS1uM1tjSF1uYyhjMzQpW2NIXVtjSF1jKFtjSF00KVtOSF1DKD1PKVtDSDJdW0NIM10=

> <s_epik_cmdline>
J2VwaWtfYXBwJywgJy1pbWFlJywgJ2xpZ2FuZF9wcm8ubWFlJywgJy1vbWFlJywgJ2xpZ2FuZF9wcmVwLm1hZScsICctbXMnLCAnMScsICctcGgnLCAnNycsICctcGh0JywgJzAuNScsICctbnQn

> <r_epik_Ionization_Penalty>
  0.0195

> <r_epik_Ionization_Penalty_Charging>
  0.0000

> <r_epik_Ionization_Penalty_Neutral>
  0.0195

> <r_epik_State_Penalty>
  0.0156

> <r_epik_Charging_Adjusted_Penalty>
0.0155789803779009

> <i_epik_Tot_Q>
0

> <i_epik_Tot_abs_Q>
0

$$$$
