4qq5_ligand
                    3D
 Schrodinger Suite 2020-3.
 86 91  0  0  1  0            999 V2000
  -64.5250  146.1090    2.6180 C   0  0  0  0  0  0
  -64.3210  147.4300    2.6760 N   0  3  0  0  0  0
  -63.1610  147.9970    2.3730 C   0  0  0  0  0  0
  -62.1140  147.2520    1.9490 N   0  0  0  0  0  0
  -62.2290  145.9010    1.8460 C   0  0  0  0  0  0
  -63.4610  145.2870    2.1880 C   0  0  0  0  0  0
  -61.1420  145.0790    1.3850 N   0  0  0  0  0  0
  -61.1190  143.7220    1.7680 C   0  0  3  0  0  0
  -62.2980  143.1980    2.3560 N   0  0  0  0  0  0
  -63.5270  143.8650    2.0490 C   0  0  0  0  0  0
  -63.0850  149.4280    2.5000 N   0  0  0  0  0  0
  -61.9140  150.2460    2.3940 C   0  0  0  0  0  0
  -62.1540  151.7100    2.0990 C   0  0  0  0  0  0
  -61.1110  152.5570    1.9920 C   0  0  0  0  0  0
  -59.6770  152.0460    2.1750 C   0  0  0  0  0  0
  -59.4460  150.7370    2.4480 C   0  0  0  0  0  0
  -60.6300  149.7780    2.5760 C   0  0  0  0  0  0
  -58.6350  153.0150    2.0440 N   0  0  0  0  0  0
  -57.4480  152.9570    2.8210 C   0  0  0  0  0  0
  -56.4920  153.9270    2.6530 C   0  0  0  0  0  0
  -56.6890  154.9820    1.7220 N   0  0  0  0  0  0
  -57.8870  155.0380    0.9450 C   0  0  0  0  0  0
  -58.8330  154.0730    1.1120 C   0  0  0  0  0  0
  -55.6710  156.0140    1.5470 C   0  0  0  0  0  0
  -62.4010  141.7980    2.7270 C   0  0  0  0  0  0
  -62.1080  140.7970    1.7970 C   0  0  0  0  0  0
  -62.2250  139.4580    2.1780 C   0  0  0  0  0  0
  -62.6380  139.1330    3.5010 C   0  0  0  0  0  0
  -62.9320  140.1600    4.4190 C   0  0  0  0  0  0
  -62.8180  141.4960    4.0220 C   0  0  0  0  0  0
  -63.3700  139.9030    5.7640 O   0  0  0  0  0  0
  -61.9130  138.4590    1.2160 O   0  0  0  0  0  0
  -63.7330  138.5350    6.0730 C   0  0  0  0  0  0
  -62.2750  137.1460    1.5740 C   0  0  0  0  0  0
  -59.9670  142.9510    1.5790 O   0  0  0  0  0  0
  -60.0050  145.7210    0.7090 C   0  0  0  0  0  0
  -58.6940  145.8350    1.4740 C   0  0  0  0  0  0
  -57.5930  145.1800    1.0030 C   0  0  0  0  0  0
  -56.3830  145.2960    1.6780 C   0  0  0  0  0  0
  -56.3080  146.0820    2.8230 C   0  0  0  0  0  0
  -57.4180  146.7470    3.2690 C   0  0  0  0  0  0
  -58.6220  146.6330    2.6030 C   0  0  0  0  0  0
  -55.0960  146.2770    3.5640 N   0  0  0  0  0  0
  -53.8060  146.4410    2.9420 C   0  0  0  0  0  0
  -52.5870  146.6990    3.8370 C   0  0  0  0  0  0
  -51.4290  145.7240    3.5870 C   0  0  0  0  0  0
  -53.6630  146.3660    1.7380 O   0  0  0  0  0  0
  -65.4873  145.6789    2.8954 H   0  0  0  0  0  0
  -60.7501  144.0093    2.7637 H   0  0  0  0  0  0
  -64.2944  143.4654    2.7283 H   0  0  0  0  0  0
  -63.7872  143.6097    1.0112 H   0  0  0  0  0  0
  -63.9956  150.0115    2.7009 H   0  0  0  0  0  0
  -63.1714  152.0804    1.9728 H   0  0  0  0  0  0
  -61.2878  153.6103    1.7743 H   0  0  0  0  0  0
  -58.4265  150.3728    2.5748 H   0  0  0  0  0  0
  -60.4594  148.7273    2.8105 H   0  0  0  0  0  0
  -57.2892  152.1487    3.5500 H   0  0  0  0  0  0
  -55.5635  153.8919    3.2418 H   0  0  0  0  0  0
  -58.0498  155.8480    0.2188 H   0  0  0  0  0  0
  -59.7619  154.1057    0.5237 H   0  0  0  0  0  0
  -54.8252  155.8126    2.2208 H   0  0  0  0  0  0
  -56.1020  156.9980    1.7835 H   0  0  0  0  0  0
  -55.3190  156.0088    0.5049 H   0  0  0  0  0  0
  -61.7921  141.0577    0.7869 H   0  0  0  0  0  0
  -62.7267  138.0896    3.8035 H   0  0  0  0  0  0
  -63.0542  142.2974    4.7221 H   0  0  0  0  0  0
  -64.0486  138.4680    7.1246 H   0  0  0  0  0  0
  -62.8654  137.8793    5.9081 H   0  0  0  0  0  0
  -64.5606  138.2191    5.4209 H   0  0  0  0  0  0
  -61.9917  136.4546    0.7667 H   0  0  0  0  0  0
  -63.3620  137.0963    1.7348 H   0  0  0  0  0  0
  -61.7539  136.8616    2.5001 H   0  0  0  0  0  0
  -59.0745  143.3995    1.1183 H   0  0  0  0  0  0
  -59.7566  145.1597   -0.2038 H   0  0  0  0  0  0
  -60.2725  146.7542    0.4427 H   0  0  0  0  0  0
  -57.6620  144.5694    0.1027 H   0  0  0  0  0  0
  -55.4987  144.7742    1.3121 H   0  0  0  0  0  0
  -57.3508  147.3729    4.1589 H   0  0  0  0  0  0
  -59.5039  147.1641    2.9612 H   0  0  0  0  0  0
  -55.1222  146.3072    4.6633 H   0  0  0  0  0  0
  -52.2075  147.7154    3.6556 H   0  0  0  0  0  0
  -52.8797  146.5999    4.8927 H   0  0  0  0  0  0
  -50.5935  145.9668    4.2600 H   0  0  0  0  0  0
  -51.0956  145.8109    2.5423 H   0  0  0  0  0  0
  -51.7678  144.6953    3.7795 H   0  0  0  0  0  0
  -65.1368  148.0994    2.9864 H   0  0  0  0  0  0
  1  2  2  0  0  0
  1  6  1  0  0  0
  1 48  1  0  0  0
  2  3  1  0  0  0
  2 86  1  0  0  0
  3  4  2  0  0  0
  3 11  1  0  0  0
  4  5  1  0  0  0
  5  6  2  0  0  0
  5  7  1  0  0  0
  6 10  1  0  0  0
  7  8  1  0  0  0
  7 36  1  0  0  0
  8  9  1  0  0  0
  8 35  1  0  0  0
  8 49  1  0  0  0
  9 10  1  0  0  0
  9 25  1  0  0  0
 10 50  1  0  0  0
 10 51  1  0  0  0
 11 12  1  0  0  0
 11 52  1  0  0  0
 12 13  2  0  0  0
 12 17  1  0  0  0
 13 14  1  0  0  0
 13 53  1  0  0  0
 14 15  2  0  0  0
 14 54  1  0  0  0
 15 16  1  0  0  0
 15 18  1  0  0  0
 16 17  2  0  0  0
 16 55  1  0  0  0
 17 56  1  0  0  0
 18 19  1  0  0  0
 18 23  1  0  0  0
 19 20  2  0  0  0
 19 57  1  0  0  0
 20 21  1  0  0  0
 20 58  1  0  0  0
 21 22  1  0  0  0
 21 24  1  0  0  0
 22 23  2  0  0  0
 22 59  1  0  0  0
 23 60  1  0  0  0
 24 61  1  0  0  0
 24 62  1  0  0  0
 24 63  1  0  0  0
 25 26  2  0  0  0
 25 30  1  0  0  0
 26 27  1  0  0  0
 26 64  1  0  0  0
 27 28  2  0  0  0
 27 32  1  0  0  0
 28 29  1  0  0  0
 28 65  1  0  0  0
 29 30  2  0  0  0
 29 31  1  0  0  0
 30 66  1  0  0  0
 31 33  1  0  0  0
 32 34  1  0  0  0
 33 67  1  0  0  0
 33 68  1  0  0  0
 33 69  1  0  0  0
 34 70  1  0  0  0
 34 71  1  0  0  0
 34 72  1  0  0  0
 35 73  1  0  0  0
 36 37  1  0  0  0
 36 74  1  0  0  0
 36 75  1  0  0  0
 37 38  2  0  0  0
 37 42  1  0  0  0
 38 39  1  0  0  0
 38 76  1  0  0  0
 39 40  2  0  0  0
 39 77  1  0  0  0
 40 41  1  0  0  0
 40 43  1  0  0  0
 41 42  2  0  0  0
 41 78  1  0  0  0
 42 79  1  0  0  0
 43 44  1  0  0  0
 43 80  1  0  0  0
 44 45  1  0  0  0
 44 47  2  0  0  0
 45 46  1  0  0  0
 45 81  1  0  0  0
 45 82  1  0  0  0
 46 83  1  0  0  0
 46 84  1  0  0  0
 46 85  1  0  0  0
M  CHG  1   2   1
M  END
> <s_m_source_file>
../4qq5_ligand.sdf

> <i_m_source_file_index>
1

> <s_epik_input>
W0NIXTE9W0NIXU4oW0NIM10pW0NIXT1bQ0hdTjFjKFtjSF1bY0hdMilbY0hdW2NIXWMyW05IXWMobjMpbltjSF1jKGMzNClbQ0gyXU4oYzVbY0hdYyhPW0NIM10pW2NIXWMoW2NIXTUpT1tDSDNdKVtDSF0oW09IXSlONFtDSDJdYzZbY0hdW2NIXWMoW2NIXVtjSF02KVtOSF1DKD1PKVtDSDJdW0NIM10=

> <s_epik_cmdline>
J2VwaWtfYXBwJywgJy1pbWFlJywgJ2xpZ2FuZF9wcm8ubWFlJywgJy1vbWFlJywgJ2xpZ2FuZF9wcmVwLm1hZScsICctbXMnLCAnMScsICctcGgnLCAnNycsICctcGh0JywgJzAuNScsICctbnQn

> <r_lp_tautomer_probability>
1

> <r_epik_Ionization_Penalty>
  0.0058

> <r_epik_Ionization_Penalty_Charging>
  0.0058

> <r_epik_Ionization_Penalty_Neutral>
  0.0001

> <r_epik_State_Penalty>
 -0.0000

> <r_epik_Charging_Adjusted_Penalty>
0.00577269974749229

> <i_epik_Tot_Q>
1

> <i_epik_Tot_abs_Q>
1

> <s_epik_Chemistry_Notes>
This compound has an imine and may undergo hydrolysis. This compound contains an acetal/aminal-like group ( X-CH(R)-Y where X, Y are N, S, or O) that may be acid/base labile, releasing an aldehyde.

$$$$
