4qqi_ligand
                    3D
 Schrodinger Suite 2020-3.
251255  0  0  1  0            999 V2000
   21.2830   20.8500   29.9760 N   0  3  0  0  0  0
   20.7640   19.4470   29.9830 C   0  0  2  0  0  0
   21.5920   18.5520   29.0500 C   0  0  0  0  0  0
   22.0140   18.9880   27.9730 O   0  0  0  0  0  0
   19.2890   19.4220   29.5850 C   0  0  0  0  0  0
   21.8280   17.3070   29.4650 N   0  0  0  0  0  0
   22.5720   16.3380   28.6740 C   0  0  2  0  0  0
   21.6730   15.1370   28.4970 C   0  0  0  0  0  0
   20.9150   14.8010   29.3950 O   0  0  0  0  0  0
   23.8510   15.9040   29.3870 C   0  0  0  0  0  0
   24.9000   16.9780   29.4480 C   0  0  0  0  0  0
   21.7470   14.5090   27.3320 N   0  0  0  0  0  0
   21.1120   13.2200   27.0880 C   0  0  2  0  0  0
   22.2220   12.1840   26.8770 C   0  0  0  0  0  0
   23.2900   12.5170   26.4220 O   0  0  0  0  0  0
   20.1410   13.2230   25.8670 C   0  0  0  0  0  0
   18.9480   14.1210   26.1120 C   0  0  0  0  0  0
   20.8320   13.6460   24.5840 C   0  0  0  0  0  0
   21.9350   10.9390   27.2110 N   0  0  0  0  0  0
   22.8960    9.8400   27.1320 C   0  0  2  0  0  0
   22.8720    9.2120   25.7550 C   0  0  0  0  0  0
   21.8900    9.3300   25.0500 O   0  0  0  0  0  0
   22.5540    8.7910   28.2070 C   0  0  0  0  0  0
   22.8790    9.2620   29.5880 C   0  0  0  0  0  0
   21.9080    9.6080   30.5080 N   0  0  0  0  0  0
   24.0730    9.5410   30.1700 C   0  0  0  0  0  0
   22.4920   10.0420   31.6100 C   0  0  0  0  0  0
   23.8050   10.0180   31.4270 N   0  0  0  0  0  0
   23.9620    8.5810   25.3590 N   0  0  0  0  0  0
   23.9170    7.7160   24.2000 C   0  0  2  0  0  0
   23.1950    6.4220   24.5830 C   0  0  0  0  0  0
   23.5790    5.7840   25.5410 O   0  0  0  0  0  0
   25.3270    7.3730   23.7460 C   0  0  0  0  0  0
   25.3600    6.4380   22.5420 C   0  0  0  0  0  0
   24.7630    7.1990   21.0110 S   0  0  0  0  0  0
   26.1460    8.2320   20.5920 C   0  0  0  0  0  0
   22.1560    6.0240   23.8390 N   0  0  0  0  0  0
   21.6150    4.6890   24.1180 C   0  0  2  0  0  0
   22.6790    3.5950   23.9040 C   0  0  0  0  0  0
   23.5460    3.7230   23.0280 O   0  0  0  0  0  0
   20.4670    4.5550   23.0980 C   0  0  0  0  0  0
   20.0550    5.9710   22.8160 C   0  0  0  0  0  0
   21.3430    6.7460   22.8420 C   0  0  0  0  0  0
   22.6440    2.5480   24.7200 N   0  0  0  0  0  0
   23.5720    1.4370   24.5200 C   0  0  2  0  0  0
   22.9260    0.4700   23.5280 C   0  0  0  0  0  0
   21.7040    0.3990   23.4340 O   0  0  0  0  0  0
   23.9260    0.7340   25.8330 C   0  0  2  0  0  0
   22.7370    0.2140   26.4080 O   0  0  0  0  0  0
   24.5450    1.7180   26.7960 C   0  0  0  0  0  0
   23.7660   -0.2080   22.7560 N   0  0  0  0  0  0
   23.3370   -1.2350   21.8250 C   0  0  2  0  0  0
   22.8010   -2.4260   22.6420 C   0  0  0  0  0  0
   23.2750   -2.7010   23.7340 O   0  0  0  0  0  0
   24.5070   -1.6690   20.9340 C   0  0  0  0  0  0
   24.9280   -0.6920   19.8340 C   0  0  0  0  0  0
   26.1900   -1.1760   19.1540 C   0  0  0  0  0  0
   23.8380   -0.4800   18.7810 C   0  0  0  0  0  0
   21.7810   -3.1050   22.1270 N   0  0  0  0  0  0
   21.1780   -4.1400   22.9420 C   0  0  2  0  0  0
   22.0970   -5.3270   23.1470 C   0  0  0  0  0  0
   23.0630   -5.5390   22.3720 O   0  0  0  0  0  0
   19.9350   -4.5640   22.1450 C   0  0  0  0  0  0
   20.0510   -3.9520   20.7990 C   0  0  0  0  0  0
   21.0420   -2.8320   20.8800 C   0  0  0  0  0  0
   21.7870   -6.0890   24.1920 N   0  0  0  0  0  0
   22.4740   -7.3400   24.4710 C   0  0  2  0  0  0
   21.8690   -8.4200   23.5910 C   0  0  0  0  0  0
   20.7080   -8.7840   23.7510 O   0  0  0  0  0  0
   22.2860   -7.6920   25.9360 C   0  0  0  0  0  0
   23.1690   -8.8110   26.3790 C   0  0  0  0  0  0
   23.5830   -9.6470   25.5970 O   0  0  0  0  0  0
   23.4490   -8.8400   27.6600 N   0  0  0  0  0  0
   22.6410   -8.9250   22.6420 N   0  0  0  0  0  0
   22.0970   -9.9210   21.7180 C   0  0  2  0  0  0
   22.0280  -11.3250   22.3260 C   0  0  0  0  0  0
   21.4990  -12.2610   21.7030 O   0  0  0  0  0  0
   22.9230   -9.9410   20.4490 C   0  0  0  0  0  0
   22.9230   -8.6030   19.6820 C   0  0  0  0  0  0
   23.9970   -8.6580   18.6020 C   0  0  0  0  0  0
   21.5750   -8.2510   19.0790 C   0  0  0  0  0  0
   22.5740  -11.4820   23.5340 N   0  0  0  0  0  0
   22.5190  -12.7790   24.2130 C   0  0  2  0  0  0
   21.1780  -13.0150   24.8960 C   0  0  0  0  0  0
   20.9460  -14.1010   25.3940 O   0  0  0  0  0  0
   23.6810  -12.9370   25.1920 C   0  0  0  0  0  0
   25.0490  -12.8510   24.5020 C   0  0  0  0  0  0
   25.2090  -13.3010   23.3460 O   0  0  0  0  0  0
   25.9590  -12.2850   25.1140 O   0  0  0  0  0  0
   20.2830  -12.0260   24.8950 N   0  0  0  0  0  0
   19.0000  -12.1450   25.5740 C   0  0  2  0  0  0
   17.8190  -11.8200   24.6700 C   0  0  0  0  0  0
   17.9500  -11.0320   23.7220 O   0  0  0  0  0  0
   18.9710  -11.1900   26.7850 C   0  0  0  0  0  0
   19.7450  -11.6790   28.0010 C   0  0  0  0  0  0
   21.1060  -11.4580   28.1090 C   0  0  0  0  0  0
   19.0910  -12.3160   29.0620 C   0  0  0  0  0  0
   21.8230  -11.8670   29.2290 C   0  0  0  0  0  0
   19.7960  -12.7270   30.1960 C   0  0  0  0  0  0
   21.1700  -12.5000   30.2840 C   0  0  0  0  0  0
   16.6610  -12.4120   24.9690 N   0  0  0  0  0  0
   15.4000  -11.9270   24.4340 C   0  0  2  0  0  0
   15.2540  -10.4680   24.8720 C   0  0  0  0  0  0
   15.5740  -10.1280   26.0020 O   0  0  0  0  0  0
   14.1690  -12.7130   24.9360 C   0  0  0  0  0  0
   14.0860  -14.1230   24.4460 C   0  0  0  0  0  0
   13.0020  -14.5880   23.7430 N   0  0  0  0  0  0
   14.9290  -15.1750   24.5730 C   0  0  0  0  0  0
   13.1860  -15.8580   23.4380 C   0  0  0  0  0  0
   14.3440  -16.2410   23.9350 N   0  0  0  0  0  0
   14.7740   -9.6310   23.9610 N   0  0  0  0  0  0
   14.5810   -8.2050   24.1650 C   0  0  2  0  0  0
   13.6580   -7.8630   25.3340 C   0  0  0  0  0  0
   13.9730   -6.9580   26.1190 O   0  0  0  0  0  0
   13.9960   -7.6020   22.8620 C   0  0  0  0  0  0
   13.6950   -6.1160   22.8720 C   0  0  0  0  0  0
   13.1550   -5.6800   21.5210 C   0  0  0  0  0  0
   13.3110   -4.1700   21.3300 C   0  0  0  0  0  0
   12.5550   -3.6370   20.1500 N   0  3  0  0  0  0
   12.5440   -8.5830   25.4830 N   0  0  0  0  0  0
   11.5190   -8.2450   26.4980 C   0  0  2  0  0  0
   12.0680   -8.0150   27.9270 C   0  0  0  0  0  0
   12.3410   -6.8790   28.3470 O   0  0  0  0  0  0
   10.4330   -9.3360   26.5600 C   0  0  0  0  0  0
   12.2580   -8.9570   28.7130 O   0  0  0  0  0  0
   22.3445   20.8497   30.2644 H   0  0  0  0  0  0
   20.7088   21.4569   30.6915 H   0  0  0  0  0  0
   21.1773   21.2750   28.9670 H   0  0  0  0  0  0
   20.8626   19.0750   31.0135 H   0  0  0  0  0  0
   18.7148   20.0685   30.2649 H   0  0  0  0  0  0
   18.9090   18.3918   29.6504 H   0  0  0  0  0  0
   19.1814   19.7877   28.5532 H   0  0  0  0  0  0
   21.4327   17.0241   30.4518 H   0  0  0  0  0  0
   22.8339   16.8172   27.7191 H   0  0  0  0  0  0
   23.6144   15.6170   30.4222 H   0  0  0  0  0  0
   24.2912   15.0447   28.8598 H   0  0  0  0  0  0
   25.7873   16.5944   29.9729 H   0  0  0  0  0  0
   24.5019   17.8490   29.9891 H   0  0  0  0  0  0
   25.1787   17.2767   28.4267 H   0  0  0  0  0  0
   22.3174   15.0015   26.5308 H   0  0  0  0  0  0
   20.5211   13.0246   27.9950 H   0  0  0  0  0  0
   19.7753   12.1954   25.7243 H   0  0  0  0  0  0
   18.4449   13.8167   27.0417 H   0  0  0  0  0  0
   18.2455   14.0353   25.2699 H   0  0  0  0  0  0
   19.2864   15.1637   26.2025 H   0  0  0  0  0  0
   21.6999   12.9949   24.4031 H   0  0  0  0  0  0
   21.1689   14.6891   24.6757 H   0  0  0  0  0  0
   20.1280   13.5607   23.7431 H   0  0  0  0  0  0
   20.9105   10.7495   27.5638 H   0  0  0  0  0  0
   23.8927   10.2741   27.2995 H   0  0  0  0  0  0
   21.4780    8.5654   28.1699 H   0  0  0  0  0  0
   23.1280    7.8719   28.0182 H   0  0  0  0  0  0
   25.1139    9.4530   29.8255 H   0  0  0  0  0  0
   21.9810   10.3653   32.5169 H   0  0  0  0  0  0
   24.9046    8.7130   25.9105 H   0  0  0  0  0  0
   23.3873    8.2739   23.4138 H   0  0  0  0  0  0
   25.8562    8.2954   23.4647 H   0  0  0  0  0  0
   25.8659    6.8768   24.5666 H   0  0  0  0  0  0
   26.3939    6.1086   22.3618 H   0  0  0  0  0  0
   24.7254    5.5618   22.7407 H   0  0  0  0  0  0
   25.9296    8.7740   19.6596 H   0  0  0  0  0  0
   27.0413    7.6079   20.4541 H   0  0  0  0  0  0
   26.3235    8.9537   21.4029 H   0  0  0  0  0  0
   21.2977    4.6147   25.1686 H   0  0  0  0  0  0
   20.8360    4.0457   22.1955 H   0  0  0  0  0  0
   19.6490    3.9684   23.5415 H   0  0  0  0  0  0
   19.5643    6.0212   21.8328 H   0  0  0  0  0  0
   19.3545    6.3108   23.5931 H   0  0  0  0  0  0
   21.2001    7.7864   23.1694 H   0  0  0  0  0  0
   21.8590    6.7349   21.8706 H   0  0  0  0  0  0
   21.9178    2.5162   25.5456 H   0  0  0  0  0  0
   24.5042    1.8641   24.1219 H   0  0  0  0  0  0
   24.6012   -0.1187   25.6686 H   0  0  0  0  0  0
   22.1366   -0.5244   25.8564 H   0  0  0  0  0  0
   25.4680    2.1272   26.3594 H   0  0  0  0  0  0
   24.7815    1.2069   27.7409 H   0  0  0  0  0  0
   23.8365    2.5369   26.9894 H   0  0  0  0  0  0
   24.8336    0.0409   22.8467 H   0  0  0  0  0  0
   22.5526   -0.7937   21.1926 H   0  0  0  0  0  0
   25.4017   -1.8260   21.5544 H   0  0  0  0  0  0
   24.2483   -2.6064   20.4198 H   0  0  0  0  0  0
   25.1206    0.2740   20.3236 H   0  0  0  0  0  0
   26.9766   -1.3298   19.9074 H   0  0  0  0  0  0
   26.5240   -0.4247   18.4233 H   0  0  0  0  0  0
   25.9869   -2.1254   18.6369 H   0  0  0  0  0  0
   22.9183   -0.1280   19.2711 H   0  0  0  0  0  0
   23.6376   -1.4302   18.2643 H   0  0  0  0  0  0
   24.1747    0.2705   18.0507 H   0  0  0  0  0  0
   20.9795   -3.7301   23.9433 H   0  0  0  0  0  0
   19.9035   -5.6611   22.0710 H   0  0  0  0  0  0
   19.0305   -4.2050   22.6578 H   0  0  0  0  0  0
   20.3944   -4.7102   20.0798 H   0  0  0  0  0  0
   19.0694   -3.5672   20.4853 H   0  0  0  0  0  0
   20.5537   -1.8489   20.9509 H   0  0  0  0  0  0
   21.7417   -2.8335   20.0313 H   0  0  0  0  0  0
   20.9808   -5.7443   24.8562 H   0  0  0  0  0  0
   23.5436   -7.2092   24.2499 H   0  0  0  0  0  0
   22.5185   -6.8142   26.5568 H   0  0  0  0  0  0
   21.2435   -7.9976   26.1089 H   0  0  0  0  0  0
   23.0512   -8.0616   28.3277 H   0  0  0  0  0  0
   24.0816   -9.6428   28.0667 H   0  0  0  0  0  0
   23.6873   -8.5993   22.5460 H   0  0  0  0  0  0
   21.0708   -9.5834   21.5106 H   0  0  0  0  0  0
   23.9691  -10.1745   20.6961 H   0  0  0  0  0  0
   22.5277  -10.7075   19.7662 H   0  0  0  0  0  0
   23.1362   -7.7928   20.3949 H   0  0  0  0  0  0
   24.9641   -8.9141   19.0593 H   0  0  0  0  0  0
   24.0725   -7.6772   18.1097 H   0  0  0  0  0  0
   23.7295   -9.4224   17.8575 H   0  0  0  0  0  0
   20.8155   -8.2166   19.8739 H   0  0  0  0  0  0
   21.2950   -9.0133   18.3370 H   0  0  0  0  0  0
   21.6379   -7.2681   18.5891 H   0  0  0  0  0  0
   23.0682  -10.6275   24.0195 H   0  0  0  0  0  0
   22.6207  -13.5200   23.4064 H   0  0  0  0  0  0
   23.6336  -12.1402   25.9489 H   0  0  0  0  0  0
   23.6130  -13.9172   25.6867 H   0  0  0  0  0  0
   26.1941  -13.2339   22.8611 H   0  0  0  0  0  0
   20.5383  -11.0994   24.3601 H   0  0  0  0  0  0
   18.9446  -13.2067   25.8563 H   0  0  0  0  0  0
   19.4079  -10.2218   26.4990 H   0  0  0  0  0  0
   17.9306  -11.0412   27.1098 H   0  0  0  0  0  0
   21.6291  -10.9516   27.2978 H   0  0  0  0  0  0
   18.0172  -12.4938   29.0027 H   0  0  0  0  0  0
   22.8976  -11.6918   29.2809 H   0  0  0  0  0  0
   19.2726  -13.2251   31.0122 H   0  0  0  0  0  0
   21.7255  -12.8142   31.1676 H   0  0  0  0  0  0
   16.6753  -13.2860   25.6367 H   0  0  0  0  0  0
   15.4856  -12.0657   23.3461 H   0  0  0  0  0  0
   14.1864  -12.7587   26.0349 H   0  0  0  0  0  0
   13.2505  -12.2066   24.6046 H   0  0  0  0  0  0
   15.9089  -15.2947   25.0583 H   0  0  0  0  0  0
   12.4969  -16.4840   22.8711 H   0  0  0  0  0  0
   14.5153  -10.0883   22.9946 H   0  0  0  0  0  0
   15.5852   -7.8377   24.4231 H   0  0  0  0  0  0
   14.7055   -7.7565   22.0357 H   0  0  0  0  0  0
   13.0430   -8.0972   22.6244 H   0  0  0  0  0  0
   12.9444   -5.8992   23.6463 H   0  0  0  0  0  0
   14.6171   -5.5565   23.0883 H   0  0  0  0  0  0
   13.7073   -6.1957   20.7216 H   0  0  0  0  0  0
   12.0873   -5.9358   21.4529 H   0  0  0  0  0  0
   12.9394   -3.6471   22.2236 H   0  0  0  0  0  0
   14.3731   -3.9274   21.1784 H   0  0  0  0  0  0
   12.7120   -2.5509   20.0741 H   0  0  0  0  0  0
   11.4823   -3.8444   20.2777 H   0  0  0  0  0  0
   12.9161   -4.1247   19.2325 H   0  0  0  0  0  0
   12.3992   -9.4509   24.8229 H   0  0  0  0  0  0
   11.1298   -7.2888   26.1184 H   0  0  0  0  0  0
   12.7296   -6.7487   29.3678 H   0  0  0  0  0  0
   10.0319   -9.5118   25.5509 H   0  0  0  0  0  0
    9.6209   -9.0076   27.2254 H   0  0  0  0  0  0
   10.8709  -10.2675   26.9480 H   0  0  0  0  0  0
  1  2  1  0  0  0
  1126  1  0  0  0
  1127  1  0  0  0
  1128  1  0  0  0
  2  3  1  0  0  0
  2  5  1  0  0  0
  2129  1  0  0  0
  3  4  2  0  0  0
  3  6  1  0  0  0
  5130  1  0  0  0
  5131  1  0  0  0
  5132  1  0  0  0
  6  7  1  0  0  0
  6133  1  0  0  0
  7  8  1  0  0  0
  7 10  1  0  0  0
  7134  1  0  0  0
  8  9  2  0  0  0
  8 12  1  0  0  0
 10 11  1  0  0  0
 10135  1  0  0  0
 10136  1  0  0  0
 11137  1  0  0  0
 11138  1  0  0  0
 11139  1  0  0  0
 12 13  1  0  0  0
 12140  1  0  0  0
 13 14  1  0  0  0
 13 16  1  0  0  0
 13141  1  0  0  0
 14 15  2  0  0  0
 14 19  1  0  0  0
 16 17  1  0  0  0
 16 18  1  0  0  0
 16142  1  0  0  0
 17143  1  0  0  0
 17144  1  0  0  0
 17145  1  0  0  0
 18146  1  0  0  0
 18147  1  0  0  0
 18148  1  0  0  0
 19 20  1  0  0  0
 19149  1  0  0  0
 20 21  1  0  0  0
 20 23  1  0  0  0
 20150  1  0  0  0
 21 22  2  0  0  0
 21 29  1  0  0  0
 23 24  1  0  0  0
 23151  1  0  0  0
 23152  1  0  0  0
 24 25  2  0  0  0
 24 26  1  0  0  0
 25 27  1  0  0  0
 26 28  2  0  0  0
 26153  1  0  0  0
 27 28  1  0  0  0
 27154  1  0  0  0
 29 30  1  0  0  0
 29155  1  0  0  0
 30 31  1  0  0  0
 30 33  1  0  0  0
 30156  1  0  0  0
 31 32  2  0  0  0
 31 37  1  0  0  0
 33 34  1  0  0  0
 33157  1  0  0  0
 33158  1  0  0  0
 34 35  1  0  0  0
 34159  1  0  0  0
 34160  1  0  0  0
 35 36  1  0  0  0
 36161  1  0  0  0
 36162  1  0  0  0
 36163  1  0  0  0
 37 38  1  0  0  0
 37 43  1  0  0  0
 38 39  1  0  0  0
 38 41  1  0  0  0
 38164  1  0  0  0
 39 40  2  0  0  0
 39 44  1  0  0  0
 41 42  1  0  0  0
 41165  1  0  0  0
 41166  1  0  0  0
 42 43  1  0  0  0
 42167  1  0  0  0
 42168  1  0  0  0
 43169  1  0  0  0
 43170  1  0  0  0
 44 45  1  0  0  0
 44171  1  0  0  0
 45 46  1  0  0  0
 45 48  1  0  0  0
 45172  1  0  0  0
 46 47  2  0  0  0
 46 51  1  0  0  0
 48 49  1  0  0  0
 48 50  1  0  0  0
 48173  1  0  0  0
 49174  1  0  0  0
 50175  1  0  0  0
 50176  1  0  0  0
 50177  1  0  0  0
 51 52  1  0  0  0
 51178  1  0  0  0
 52 53  1  0  0  0
 52 55  1  0  0  0
 52179  1  0  0  0
 53 54  2  0  0  0
 53 59  1  0  0  0
 55 56  1  0  0  0
 55180  1  0  0  0
 55181  1  0  0  0
 56 57  1  0  0  0
 56 58  1  0  0  0
 56182  1  0  0  0
 57183  1  0  0  0
 57184  1  0  0  0
 57185  1  0  0  0
 58186  1  0  0  0
 58187  1  0  0  0
 58188  1  0  0  0
 59 60  1  0  0  0
 59 65  1  0  0  0
 60 61  1  0  0  0
 60 63  1  0  0  0
 60189  1  0  0  0
 61 62  2  0  0  0
 61 66  1  0  0  0
 63 64  1  0  0  0
 63190  1  0  0  0
 63191  1  0  0  0
 64 65  1  0  0  0
 64192  1  0  0  0
 64193  1  0  0  0
 65194  1  0  0  0
 65195  1  0  0  0
 66 67  1  0  0  0
 66196  1  0  0  0
 67 68  1  0  0  0
 67 70  1  0  0  0
 67197  1  0  0  0
 68 69  2  0  0  0
 68 74  1  0  0  0
 70 71  1  0  0  0
 70198  1  0  0  0
 70199  1  0  0  0
 71 72  2  0  0  0
 71 73  1  0  0  0
 73200  1  0  0  0
 73201  1  0  0  0
 74 75  1  0  0  0
 74202  1  0  0  0
 75 76  1  0  0  0
 75 78  1  0  0  0
 75203  1  0  0  0
 76 77  2  0  0  0
 76 82  1  0  0  0
 78 79  1  0  0  0
 78204  1  0  0  0
 78205  1  0  0  0
 79 80  1  0  0  0
 79 81  1  0  0  0
 79206  1  0  0  0
 80207  1  0  0  0
 80208  1  0  0  0
 80209  1  0  0  0
 81210  1  0  0  0
 81211  1  0  0  0
 81212  1  0  0  0
 82 83  1  0  0  0
 82213  1  0  0  0
 83 84  1  0  0  0
 83 86  1  0  0  0
 83214  1  0  0  0
 84 85  2  0  0  0
 84 90  1  0  0  0
 86 87  1  0  0  0
 86215  1  0  0  0
 86216  1  0  0  0
 87 88  1  0  0  0
 87 89  2  0  0  0
 88217  1  0  0  0
 90 91  1  0  0  0
 90218  1  0  0  0
 91 92  1  0  0  0
 91 94  1  0  0  0
 91219  1  0  0  0
 92 93  2  0  0  0
 92101  1  0  0  0
 94 95  1  0  0  0
 94220  1  0  0  0
 94221  1  0  0  0
 95 96  2  0  0  0
 95 97  1  0  0  0
 96 98  1  0  0  0
 96222  1  0  0  0
 97 99  2  0  0  0
 97223  1  0  0  0
 98100  2  0  0  0
 98224  1  0  0  0
 99100  1  0  0  0
 99225  1  0  0  0
100226  1  0  0  0
101102  1  0  0  0
101227  1  0  0  0
102103  1  0  0  0
102105  1  0  0  0
102228  1  0  0  0
103104  2  0  0  0
103111  1  0  0  0
105106  1  0  0  0
105229  1  0  0  0
105230  1  0  0  0
106107  2  0  0  0
106108  1  0  0  0
107109  1  0  0  0
108110  2  0  0  0
108231  1  0  0  0
109110  1  0  0  0
109232  1  0  0  0
111112  1  0  0  0
111233  1  0  0  0
112113  1  0  0  0
112115  1  0  0  0
112234  1  0  0  0
113114  2  0  0  0
113120  1  0  0  0
115116  1  0  0  0
115235  1  0  0  0
115236  1  0  0  0
116117  1  0  0  0
116237  1  0  0  0
116238  1  0  0  0
117118  1  0  0  0
117239  1  0  0  0
117240  1  0  0  0
118119  1  0  0  0
118241  1  0  0  0
118242  1  0  0  0
119243  1  0  0  0
119244  1  0  0  0
119245  1  0  0  0
120121  1  0  0  0
120246  1  0  0  0
121122  1  0  0  0
121124  1  0  0  0
121247  1  0  0  0
122123  1  0  0  0
122125  2  0  0  0
123248  1  0  0  0
124249  1  0  0  0
124250  1  0  0  0
124251  1  0  0  0
M  CHG  2   1   1 119   1
M  END
> <s_m_source_file>
../4qqi_ligand.sdf

> <i_m_source_file_index>
1

> <s_epik_input>
W05IMytdW0NAQEhdKFtDSDNdKUMoPU8pW05IXVtDQEBIXShbQ0gyXVtDSDNdKUMoPU8pW05IXVtDQEBIXShbQ0hdKFtDSDNdKVtDSDNdKUMoPU8pW05IXVtDQEBIXShbQ0gyXUMxPU5bQ0gyXU49W0NIXTEpQyg9TylbTkhdW0NAQEhdKFtDSDJdW0NIMl1TW0NIM10pQyg9TylOMltDQEBIXShbQ0gyXVtDSDJdW0NIMl0yKUMoPU8pW05IXVtDQEBIXShbQ0BIXShbT0hdKVtDSDNdKUMoPU8pW05IXVtDQEBIXShbQ0gyXVtDSF0oW0NIM10pW0NIM10pQyg9TylOM1tDQEBIXShbQ0gyXVtDSDJdW0NIMl0zKUMoPU8pW05IXVtDQEBIXShbQ0gyXUMoPU8pW05IMl0pQyg9TylbTkhdW0NAQEhdKFtDSDJdW0NIXShbQ0gzXSlbQ0gzXSlDKD1PKVtOSF1bQ0BASF0oW0NIMl1DKD1PKVtPSF0pQyg9TylbTkhdW0NAQEhdKFtDSDJdYzRbY0hdW2NIXVtjSF1bY0hdW2NIXTQpQyg9TylbTkhdW0NAQEhdKFtDSDJdQzU9TltDSDJdTj1bQ0hdNSlDKD1PKVtOSF1bQ0BIXShDKD1PKVtOSF1bQ0BASF0oW0NIM10pQyg9TylbT0hdKVtDSDJdW0NIMl1bQ0gyXVtDSDJdW05IMytd

> <s_epik_cmdline>
J2VwaWtfYXBwJywgJy1pbWFlJywgJ2xpZ2FuZF9wcm8ubWFlJywgJy1vbWFlJywgJ2xpZ2FuZF9wcmVwLm1hZScsICctbXMnLCAnMScsICctcGgnLCAnNycsICctcGh0JywgJzAuNScsICctbnQn

> <s_epik_pKa_notes>
Molecule size exceeds maximum supported for generating protonation states

> <s_epik_Chemistry_Notes>
This compound has an imine and may undergo hydrolysis.

$$$$
