4qr4_ligand
                    3D
 Schrodinger Suite 2020-3.
 37 39  0  0  1  0            999 V2000
    8.9430  -11.7940   -4.4530 C   0  0  0  0  0  0
    9.4190  -12.8910   -3.5290 C   0  0  0  0  0  0
    9.4430  -12.2970   -2.1800 C   0  0  0  0  0  0
    8.4850  -11.1930   -2.1970 C   0  0  0  0  0  0
    8.4710  -10.6640   -3.5730 C   0  0  0  0  0  0
    9.3600   -9.5740   -3.6440 N   0  0  3  0  0  0
    8.6860   -8.0840   -3.5910 S   0  0  0  0  0  0
    7.5210   -7.9990   -4.4780 O   0  0  0  0  0  0
    9.7410   -7.1320   -3.9560 O   0  0  0  0  0  0
    8.2100   -7.7030   -1.9230 C   0  0  0  0  0  0
    9.0950   -6.9490   -1.1590 C   0  0  0  0  0  0
    7.0070   -8.1120   -1.3310 C   0  0  0  0  0  0
    5.8180   -9.0510   -2.1760 Cl  0  0  0  0  0  0
    6.7270   -7.7590   -0.0130 C   0  0  0  0  0  0
    7.6160   -7.0060    0.7380 C   0  0  0  0  0  0
    8.8130   -6.6130    0.1610 C   0  0  0  0  0  0
    9.8050   -5.7760    0.8960 C   0  0  0  0  0  0
    9.5160   -4.9330    1.9910 C   0  0  0  0  0  0
   10.9710   -4.1730    2.4090 S   0  0  0  0  0  0
   11.9030   -4.8830    1.1920 C   0  0  0  0  0  0
   13.2300   -4.6990    0.9600 O   0  0  0  0  0  0
   11.1170   -5.7150    0.4900 N   0  0  0  0  0  0
    9.7746  -11.4695   -5.0957 H   0  0  0  0  0  0
    8.1218  -12.1727   -5.0793 H   0  0  0  0  0  0
    8.7219  -13.7405   -3.5788 H   0  0  0  0  0  0
   10.4219  -13.2211   -3.8378 H   0  0  0  0  0  0
    9.1542  -13.0573   -1.4394 H   0  0  0  0  0  0
   10.4573  -11.9345   -1.9569 H   0  0  0  0  0  0
    7.4904  -11.5662   -1.9115 H   0  0  0  0  0  0
    8.8048  -10.4190   -1.4838 H   0  0  0  0  0  0
    7.4937  -10.2596   -3.8751 H   0  0  0  0  0  0
   10.4441   -9.7423   -3.5641 H   0  0  0  0  0  0
   10.0313   -6.6137   -1.6052 H   0  0  0  0  0  0
    5.7885   -8.0819    0.4376 H   0  0  0  0  0  0
    7.3777   -6.7278    1.7646 H   0  0  0  0  0  0
    8.5475   -4.7978    2.4725 H   0  0  0  0  0  0
   11.4588   -6.3248   -0.3593 H   0  0  0  0  0  0
  1  2  1  0  0  0
  1  5  1  0  0  0
  1 23  1  0  0  0
  1 24  1  0  0  0
  2  3  1  0  0  0
  2 25  1  0  0  0
  2 26  1  0  0  0
  3  4  1  0  0  0
  3 27  1  0  0  0
  3 28  1  0  0  0
  4  5  1  0  0  0
  4 29  1  0  0  0
  4 30  1  0  0  0
  5  6  1  0  0  0
  5 31  1  0  0  0
  6  7  1  0  0  0
  6 32  1  0  0  0
  7  8  2  0  0  0
  7  9  2  0  0  0
  7 10  1  0  0  0
 10 11  2  0  0  0
 10 12  1  0  0  0
 11 16  1  0  0  0
 11 33  1  0  0  0
 12 13  1  0  0  0
 12 14  2  0  0  0
 14 15  1  0  0  0
 14 34  1  0  0  0
 15 16  2  0  0  0
 15 35  1  0  0  0
 16 17  1  0  0  0
 17 18  2  0  0  0
 17 22  1  0  0  0
 18 19  1  0  0  0
 18 36  1  0  0  0
 19 20  1  0  0  0
 20 21  2  0  0  0
 20 22  1  0  0  0
 22 37  1  0  0  0
M  END
> <s_m_source_file>
../4qr4_ligand.sdf

> <i_m_source_file_index>
1

> <s_epik_input>
W0NIMl0xW0NIMl1bQ0gyXVtDSDJdW0NIXTFbTkhdUyg9TykoPU8pYzJbY0hdYyhbY0hdW2NIXWMyQ2wpLWMzW2NIXXNjKD1PKVtuSF0z

> <s_epik_cmdline>
J2VwaWtfYXBwJywgJy1pbWFlJywgJ2xpZ2FuZF9wcm8ubWFlJywgJy1vbWFlJywgJ2xpZ2FuZF9wcmVwLm1hZScsICctbXMnLCAnMScsICctcGgnLCAnNycsICctcGh0JywgJzAuNScsICctbnQn

> <r_lp_tautomer_probability>
1

> <r_epik_Ionization_Penalty>
  0.0008

> <r_epik_Ionization_Penalty_Charging>
  0.0005

> <r_epik_Ionization_Penalty_Neutral>
  0.0002

> <r_epik_State_Penalty>
 -0.0000

> <r_epik_Charging_Adjusted_Penalty>
0.000534980226443043

> <i_epik_Tot_Q>
0

> <i_epik_Tot_abs_Q>
0

$$$$
