4qr5_ligand
                    3D
 Schrodinger Suite 2020-3.
 48 51  0  0  1  0            999 V2000
   -4.7190   -6.8130   -2.5670 O   0  0  0  0  0  0
   -4.1020   -7.5580   -1.8030 C   0  0  0  0  0  0
   -4.7010   -8.1300   -0.7110 N   0  0  0  0  0  0
   -6.1330   -7.9710   -0.2350 C   0  0  0  0  0  0
   -7.0330   -7.1620   -0.8100 C   0  0  0  0  0  0
   -8.3440   -7.0870   -0.2970 C   0  0  0  0  0  0
   -9.3280   -6.1750   -0.9230 C   0  0  0  0  0  0
   -8.9450   -5.2770   -1.9740 C   0  0  0  0  0  0
  -10.3520   -4.4000   -2.3680 S   0  0  0  0  0  0
  -11.3700   -5.2010   -1.1530 C   0  0  0  0  0  0
  -12.5110   -4.9800   -0.9610 O   0  0  0  0  0  0
  -10.6320   -6.0890   -0.5200 N   0  0  0  0  0  0
   -8.6660   -7.7700    0.7570 C   0  0  0  0  0  0
   -7.7260   -8.6180    1.3550 C   0  0  0  0  0  0
   -8.1310   -9.5980    2.8610 S   0  0  0  0  0  0
   -9.1380  -10.5040    2.6150 O   0  0  0  0  0  0
   -6.9750  -10.4590    3.2390 O   0  0  0  0  0  0
   -8.5860   -8.5450    4.0110 N   0  0  3  0  0  0
   -7.5210   -7.7120    4.5200 C   0  0  0  0  0  0
   -7.1940   -6.5420    3.6480 C   0  0  0  0  0  0
   -6.8720   -5.3130    4.5450 C   0  0  0  0  0  0
   -7.4700   -5.5920    5.8770 C   0  0  0  0  0  0
   -7.9530   -7.1220    5.8590 C   0  0  0  0  0  0
   -6.4740   -8.6960    0.8650 C   0  0  0  0  0  0
   -2.6460   -7.9060   -2.0030 C   0  0  0  0  0  0
   -2.1100   -6.7150   -2.8620 C   0  0  0  0  0  0
   -2.5430   -8.0370   -3.5560 C   0  0  0  0  0  0
   -4.1249   -8.7997   -0.0555 H   0  0  0  0  0  0
   -6.7514   -6.5615   -1.6750 H   0  0  0  0  0  0
   -7.9586   -5.1764   -2.4267 H   0  0  0  0  0  0
  -11.0025   -6.7390    0.2864 H   0  0  0  0  0  0
   -9.6680   -7.6840    1.1773 H   0  0  0  0  0  0
   -9.5649   -8.5540    4.5127 H   0  0  0  0  0  0
   -6.6592   -8.3948    4.5509 H   0  0  0  0  0  0
   -6.3213   -6.7829    3.0233 H   0  0  0  0  0  0
   -8.0550   -6.3136    3.0027 H   0  0  0  0  0  0
   -5.7815   -5.1911    4.6222 H   0  0  0  0  0  0
   -7.3114   -4.4085    4.0992 H   0  0  0  0  0  0
   -6.7137   -5.4310    6.6594 H   0  0  0  0  0  0
   -8.3215   -4.9163    6.0455 H   0  0  0  0  0  0
   -9.0473   -7.1847    5.9513 H   0  0  0  0  0  0
   -7.4830   -7.6871    6.6774 H   0  0  0  0  0  0
   -5.7366   -9.3374    1.3476 H   0  0  0  0  0  0
   -2.3188   -8.4699   -1.1171 H   0  0  0  0  0  0
   -2.7561   -5.8370   -2.7151 H   0  0  0  0  0  0
   -1.0836   -6.4711   -2.5506 H   0  0  0  0  0  0
   -1.8685   -8.8680   -3.8099 H   0  0  0  0  0  0
   -3.5411   -8.2339   -3.9744 H   0  0  0  0  0  0
  1  2  2  0  0  0
  2  3  1  0  0  0
  2 25  1  0  0  0
  3  4  1  0  0  0
  3 28  1  0  0  0
  4  5  2  0  0  0
  4 24  1  0  0  0
  5  6  1  0  0  0
  5 29  1  0  0  0
  6  7  1  0  0  0
  6 13  2  0  0  0
  7  8  2  0  0  0
  7 12  1  0  0  0
  8  9  1  0  0  0
  8 30  1  0  0  0
  9 10  1  0  0  0
 10 11  2  0  0  0
 10 12  1  0  0  0
 12 31  1  0  0  0
 13 14  1  0  0  0
 13 32  1  0  0  0
 14 15  1  0  0  0
 14 24  2  0  0  0
 15 16  2  0  0  0
 15 17  2  0  0  0
 15 18  1  0  0  0
 18 19  1  0  0  0
 18 33  1  0  0  0
 19 20  1  0  0  0
 19 23  1  0  0  0
 19 34  1  0  0  0
 20 21  1  0  0  0
 20 35  1  0  0  0
 20 36  1  0  0  0
 21 22  1  0  0  0
 21 37  1  0  0  0
 21 38  1  0  0  0
 22 23  1  0  0  0
 22 39  1  0  0  0
 22 40  1  0  0  0
 23 41  1  0  0  0
 23 42  1  0  0  0
 24 43  1  0  0  0
 25 26  1  0  0  0
 25 27  1  0  0  0
 25 44  1  0  0  0
 26 27  1  0  0  0
 26 45  1  0  0  0
 26 46  1  0  0  0
 27 47  1  0  0  0
 27 48  1  0  0  0
M  END
> <s_m_source_file>
../4qr5_ligand.sdf

> <i_m_source_file_index>
1

> <s_epik_input>
W0NIMl0xW0NIMl1bQ0hdMUMoPU8pW05IXWMyW2NIXWMoLWMzW2NIXXNjKD1PKVtuSF0zKVtjSF1jKFtjSF0yKVMoPU8pKD1PKVtOSF1bQ0hdNFtDSDJdW0NIMl1bQ0gyXVtDSDJdNA==

> <s_epik_cmdline>
J2VwaWtfYXBwJywgJy1pbWFlJywgJ2xpZ2FuZF9wcm8ubWFlJywgJy1vbWFlJywgJ2xpZ2FuZF9wcmVwLm1hZScsICctbXMnLCAnMScsICctcGgnLCAnNycsICctcGh0JywgJzAuNScsICctbnQn

> <r_lp_tautomer_probability>
1

> <r_epik_Ionization_Penalty>
  0.0005

> <r_epik_Ionization_Penalty_Charging>
  0.0004

> <r_epik_Ionization_Penalty_Neutral>
  0.0001

> <r_epik_State_Penalty>
 -0.0000

> <r_epik_Charging_Adjusted_Penalty>
0.000411377907142599

> <i_epik_Tot_Q>
0

> <i_epik_Tot_abs_Q>
0

$$$$
