4qrh_ligand
                    3D
 Schrodinger Suite 2020-3.
 51 53  0  0  1  0            999 V2000
   95.5810  -22.8190  105.1930 P   0  0  0  0  0  0
   94.1430  -22.7800  104.7690 O   0  0  0  0  0  0
   95.8020  -23.6700  106.4360 O   0  5  0  0  0  0
   96.1390  -21.4290  105.3920 O   0  0  0  0  0  0
   94.5540  -28.8150  107.1540 P   0  0  0  0  0  0
   94.6720  -30.3050  106.9530 O   0  0  0  0  0  0
   94.3470  -28.5380  108.6290 O   0  5  0  0  0  0
   95.8220  -28.1440  106.6840 O   0  5  0  0  0  0
   93.2980  -27.7280  104.8660 P   0  0  2  0  0  0
   94.3050  -26.6020  104.8160 O   0  5  0  0  0  0
   91.9090  -27.2710  104.4850 O   0  0  0  0  0  0
   93.2710  -28.2820  106.3560 O   0  0  0  0  0  0
   93.7560  -28.9290  103.9310 O   0  0  0  0  0  0
   93.9370  -29.0610  102.3510 P   0  0  2  0  0  0
   92.6690  -28.8280  101.5830 O   0  5  0  0  0  0
   94.4080  -30.4820  102.2500 O   0  0  0  0  0  0
   95.0530  -28.1130  101.7330 O   0  0  0  0  0  0
   96.3220  -28.1470  102.3500 C   0  0  0  0  0  0
   97.2160  -27.1040  101.8070 C   0  0  1  0  0  0
   97.4640  -27.4160  100.3660 O   0  0  0  0  0  0
   96.6720  -25.7280  101.8780 C   0  0  1  0  0  0
   97.7070  -24.9220  102.5000 O   0  0  0  0  0  0
   96.4260  -25.3050  100.4980 C   0  0  1  0  0  0
   96.6250  -23.8760  100.2630 O   0  0  0  0  0  0
   97.3980  -26.0810   99.7030 C   0  0  2  0  0  0
   97.0400  -26.2450   98.3570 N   0  0  0  0  0  0
   95.8310  -26.5010   97.8410 C   0  0  0  0  0  0
   95.9020  -26.5930   96.5140 N   0  0  0  0  0  0
   97.1660  -26.4010   96.1290 C   0  0  0  0  0  0
   97.8560  -26.3740   94.9090 C   0  0  0  0  0  0
   97.3170  -26.5260   93.8230 O   0  0  0  0  0  0
   99.1690  -26.1590   94.9180 N   0  0  0  0  0  0
   99.8520  -25.9620   96.0470 C   0  0  0  0  0  0
  101.2310  -25.7150   95.9840 N   0  0  0  0  0  0
   99.2330  -25.9700   97.2480 N   0  0  0  0  0  0
   97.9010  -26.1930   97.3070 C   0  0  0  0  0  0
   97.5660  -24.5680  104.0550 P   0  0  2  0  0  0
   98.8540  -23.9540  104.4640 O   0  0  0  0  0  0
   97.1680  -25.8020  104.8220 O   0  5  0  0  0  0
   96.3860  -23.5000  103.9980 O   0  0  0  0  0  0
   95.7240  -20.7765  106.1743 H   0  0  0  0  0  0
   96.2085  -27.9799  103.4313 H   0  0  0  0  0  0
   96.7874  -29.1287  102.1776 H   0  0  0  0  0  0
   98.1192  -27.1199  102.4347 H   0  0  0  0  0  0
   95.7420  -25.6254  102.4564 H   0  0  0  0  0  0
   95.3711  -25.4762  100.2374 H   0  0  0  0  0  0
   95.9869  -23.1404  100.7746 H   0  0  0  0  0  0
   98.3500  -25.5364   99.6186 H   0  0  0  0  0  0
   94.9178  -26.6176   98.4245 H   0  0  0  0  0  0
  101.7034  -25.6872   95.0804 H   0  0  0  0  0  0
   99.8125  -25.7960   98.1666 H   0  0  0  0  0  0
  1  2  2  0  0  0
  1  3  1  0  0  0
  1  4  1  0  0  0
  1 40  1  0  0  0
  4 41  1  0  0  0
  5  6  2  0  0  0
  5  7  1  0  0  0
  5  8  1  0  0  0
  5 12  1  0  0  0
  9 10  1  0  0  0
  9 11  2  0  0  0
  9 12  1  0  0  0
  9 13  1  0  0  0
 13 14  1  0  0  0
 14 15  1  0  0  0
 14 16  2  0  0  0
 14 17  1  0  0  0
 17 18  1  0  0  0
 18 19  1  0  0  0
 18 42  1  0  0  0
 18 43  1  0  0  0
 19 20  1  0  0  0
 19 21  1  0  0  0
 19 44  1  0  0  0
 20 25  1  0  0  0
 21 22  1  0  0  0
 21 23  1  0  0  0
 21 45  1  0  0  0
 22 37  1  0  0  0
 23 24  1  0  0  0
 23 25  1  0  0  0
 23 46  1  0  0  0
 24 47  1  0  0  0
 25 26  1  0  0  0
 25 48  1  0  0  0
 26 27  1  0  0  0
 26 36  1  0  0  0
 27 28  2  0  0  0
 27 49  1  0  0  0
 28 29  1  0  0  0
 29 30  1  0  0  0
 29 36  2  0  0  0
 30 31  2  0  0  0
 30 32  1  0  0  0
 32 33  1  0  0  0
 33 34  2  0  0  0
 33 35  1  0  0  0
 34 50  1  0  0  0
 35 36  1  0  0  0
 35 51  1  0  0  0
 37 38  2  0  0  0
 37 39  1  0  0  0
 37 40  1  0  0  0
M  CHG  6   3  -1   7  -1   8  -1  10  -1  15  -1  39  -1
M  END
> <s_m_source_file>
../4qrh_ligand.sdf

> <i_m_source_file_index>
1

> <s_epik_input>
Tz1QKFtPSF0pKFtPSF0pT1tQQEBdKD1PKShbT0hdKU9bQ0BIXTFbQ0BASF0oW09IXSlbQ0BIXShuKFtjSF1uMiljKGMyMylbbkhdYyg9TlxbSF0pXFtuSF1jMz1PKU9bQ0BASF0xW0NIMl1PW1BAXSg9TykoW09IXSlPW1BAXSg9TykoW09IXSlPUCg9TykoW09IXSlbT0hd

> <s_epik_cmdline>
J2VwaWtfYXBwJywgJy1pbWFlJywgJ2xpZ2FuZF9wcm8ubWFlJywgJy1vbWFlJywgJ2xpZ2FuZF9wcmVwLm1hZScsICctbXMnLCAnMScsICctcGgnLCAnNycsICctcGh0JywgJzAuNScsICctbnQn

> <r_epik_Ionization_Penalty>
  2.1503

> <r_epik_Ionization_Penalty_Charging>
  0.9260

> <r_epik_Ionization_Penalty_Neutral>
  1.2243

> <r_epik_State_Penalty>
  0.4092

> <r_epik_Charging_Adjusted_Penalty>
1.33513406899272

> <i_epik_Tot_Q>
-6

> <i_epik_Tot_abs_Q>
6

> <s_epik_Chemistry_Notes>
This compound contains an acetal/aminal-like group ( X-CH(R)-Y where X, Y are N, S, or O) that may be acid/base labile, releasing an aldehyde.

$$$$
