4qsh_ligand
                    3D
 Schrodinger Suite 2020-3.
 66 72  0  0  1  0            999 V2000
   12.9940  200.4280   49.0750 P   0  0  1  0  0  0
   12.6370  201.7220   48.5520 O   0  0  0  0  0  0
   12.5830  199.2350   48.3090 O   0  5  0  0  0  0
   14.6030  200.5680   49.3080 O   0  0  0  0  0  0
   15.2620  199.5180   49.9290 C   0  0  0  0  0  0
   16.5550  199.9470   50.5290 C   0  0  1  0  0  0
   17.3270  200.7250   49.6350 O   0  0  0  0  0  0
   16.3020  200.7930   51.7220 C   0  0  1  0  0  0
   15.9630  199.9150   52.7720 O   0  0  0  0  0  0
   17.6640  201.4310   51.8190 C   0  0  1  0  0  0
   18.5400  200.5470   52.4280 O   0  0  0  0  0  0
   18.0520  201.6440   50.3810 C   0  0  2  0  0  0
   17.5060  202.9350   49.8850 N   0  0  0  0  0  0
   16.5690  203.1430   48.9220 C   0  0  0  0  0  0
   16.3270  204.4890   48.7640 N   0  0  0  0  0  0
   17.1080  205.1210   49.6270 C   0  0  0  0  0  0
   17.4180  206.5110   50.0050 C   0  0  0  0  0  0
   16.7890  207.4920   49.4130 N   0  0  0  0  0  0
   18.3190  206.7830   50.9620 N   0  0  0  0  0  0
   18.9820  205.8090   51.6040 C   0  0  0  0  0  0
   18.7500  204.5160   51.3180 N   0  0  0  0  0  0
   17.8760  204.1160   50.3560 C   0  0  0  0  0  0
   15.5100  200.4900   54.1460 P   0  0  2  0  0  0
   15.9780  201.8640   54.3570 O   0  0  0  0  0  0
   15.7470  199.3980   55.1310 O   0  5  0  0  0  0
   13.9500  200.6970   53.6480 O   0  0  0  0  0  0
   13.1040  199.6000   53.5530 C   0  0  0  0  0  0
   11.8710  199.9910   52.7810 C   0  0  1  0  0  0
   10.9680  200.7950   53.5520 O   0  0  0  0  0  0
   12.2080  200.8140   51.5730 C   0  0  1  0  0  0
   12.6530  199.9710   50.5380 O   0  0  0  0  0  0
   10.9030  201.4880   51.2790 C   0  0  1  0  0  0
   10.1900  200.4810   50.6620 O   0  0  0  0  0  0
   10.4670  201.8110   52.6850 C   0  0  2  0  0  0
   11.0630  203.1250   53.0900 N   0  0  0  0  0  0
   12.1000  203.3870   53.9530 C   0  0  0  0  0  0
   12.3000  204.7230   54.0910 N   0  0  0  0  0  0
   11.4050  205.2670   53.2740 C   0  0  0  0  0  0
   11.0670  206.5980   52.9040 C   0  0  0  0  0  0
   11.8250  207.5030   53.4510 N   0  0  0  0  0  0
   10.0680  206.8460   52.0430 N   0  0  0  0  0  0
    9.3380  205.8560   51.4770 C   0  0  0  0  0  0
    9.5860  204.5930   51.7910 N   0  0  0  0  0  0
   10.5870  204.2690   52.6360 C   0  0  0  0  0  0
   14.6293  199.1115   50.7318 H   0  0  0  0  0  0
   15.4709  198.7289   49.1917 H   0  0  0  0  0  0
   17.1401  199.0437   50.7565 H   0  0  0  0  0  0
   15.4646  201.5057   51.7522 H   0  0  0  0  0  0
   17.7311  202.3273   52.4531 H   0  0  0  0  0  0
   18.4026  200.2774   53.4856 H   0  0  0  0  0  0
   19.1395  201.5398   50.2525 H   0  0  0  0  0  0
   16.0775  202.3533   48.3537 H   0  0  0  0  0  0
   16.0493  207.2767   48.6278 H   0  0  0  0  0  0
   16.9994  208.5329   49.7000 H   0  0  0  0  0  0
   19.7169  206.0690   52.3659 H   0  0  0  0  0  0
   13.6220  198.7816   53.0316 H   0  0  0  0  0  0
   12.8182  199.2689   54.5623 H   0  0  0  0  0  0
   11.3629  199.0494   52.5258 H   0  0  0  0  0  0
   13.0524  201.5138   51.6584 H   0  0  0  0  0  0
   10.8046  202.3446   50.5959 H   0  0  0  0  0  0
   10.4407  200.1798   49.6342 H   0  0  0  0  0  0
    9.3713  201.8289   52.7808 H   0  0  0  0  0  0
   12.6862  202.6213   54.4611 H   0  0  0  0  0  0
   12.6222  207.2048   54.1478 H   0  0  0  0  0  0
   11.6687  208.5663   53.2166 H   0  0  0  0  0  0
    8.5486  206.0974   50.7651 H   0  0  0  0  0  0
  1  2  2  0  0  0
  1  3  1  0  0  0
  1  4  1  0  0  0
  1 31  1  0  0  0
  4  5  1  0  0  0
  5  6  1  0  0  0
  5 45  1  0  0  0
  5 46  1  0  0  0
  6  7  1  0  0  0
  6  8  1  0  0  0
  6 47  1  0  0  0
  7 12  1  0  0  0
  8  9  1  0  0  0
  8 10  1  0  0  0
  8 48  1  0  0  0
  9 23  1  0  0  0
 10 11  1  0  0  0
 10 12  1  0  0  0
 10 49  1  0  0  0
 11 50  1  0  0  0
 12 13  1  0  0  0
 12 51  1  0  0  0
 13 14  1  0  0  0
 13 22  1  0  0  0
 14 15  2  0  0  0
 14 52  1  0  0  0
 15 16  1  0  0  0
 16 17  2  0  0  0
 16 22  1  0  0  0
 17 18  1  0  0  0
 17 19  1  0  0  0
 18 53  1  0  0  0
 18 54  1  0  0  0
 19 20  2  0  0  0
 20 21  1  0  0  0
 20 55  1  0  0  0
 21 22  2  0  0  0
 23 24  2  0  0  0
 23 25  1  0  0  0
 23 26  1  0  0  0
 26 27  1  0  0  0
 27 28  1  0  0  0
 27 56  1  0  0  0
 27 57  1  0  0  0
 28 29  1  0  0  0
 28 30  1  0  0  0
 28 58  1  0  0  0
 29 34  1  0  0  0
 30 31  1  0  0  0
 30 32  1  0  0  0
 30 59  1  0  0  0
 32 33  1  0  0  0
 32 34  1  0  0  0
 32 60  1  0  0  0
 33 61  1  0  0  0
 34 35  1  0  0  0
 34 62  1  0  0  0
 35 36  1  0  0  0
 35 44  1  0  0  0
 36 37  2  0  0  0
 36 63  1  0  0  0
 37 38  1  0  0  0
 38 39  2  0  0  0
 38 44  1  0  0  0
 39 40  1  0  0  0
 39 41  1  0  0  0
 40 64  1  0  0  0
 40 65  1  0  0  0
 41 42  2  0  0  0
 42 43  1  0  0  0
 42 66  1  0  0  0
 43 44  2  0  0  0
M  CHG  2   3  -1  25  -1
M  END
> <s_m_source_file>
../4qsh_ligand.sdf

> <i_m_source_file_index>
1

> <s_epik_input>
W05IMl1jMW5bY0hdbmMoYzEyKW4oW2NIXW4yKVtDQEhdKE8zKVtDQEhdKFtPSF0pW0NASF0oT1tQQF0oPU8pKFtPSF0pT1tDSDJdNClbQ0BIXTNbQ0gyXU9bUEBAXSg9TykoW09IXSlPW0NASF0oW0NAQEhdNDUpW0NAQEhdKFtPSF0pW0NAQEhdKE81KW4oW2NIXW42KWMoYzY3KW5bY0hdbmM3W05IMl0=

> <s_epik_cmdline>
J2VwaWtfYXBwJywgJy1pbWFlJywgJ2xpZ2FuZF9wcm8ubWFlJywgJy1vbWFlJywgJ2xpZ2FuZF9wcmVwLm1hZScsICctbXMnLCAnMScsICctcGgnLCAnNycsICctcGh0JywgJzAuNScsICctbnQn

> <r_lp_tautomer_probability>
1

> <r_epik_Ionization_Penalty>
  0.0014

> <r_epik_Ionization_Penalty_Charging>
  0.0004

> <r_epik_Ionization_Penalty_Neutral>
  0.0010

> <r_epik_State_Penalty>
 -0.0000

> <r_epik_Charging_Adjusted_Penalty>
0.000413092635651292

> <i_epik_Tot_Q>
-2

> <i_epik_Tot_abs_Q>
2

> <s_epik_Chemistry_Notes>
This compound contains an acetal/aminal-like group ( X-CH(R)-Y where X, Y are N, S, or O) that may be acid/base labile, releasing an aldehyde.

$$$$
