4qsk_ligand
                    3D
 Schrodinger Suite 2020-3.
 35 37  0  0  1  0            999 V2000
  207.5440   -7.6910   93.9290 P   0  0  0  0  0  0
  207.8060   -8.8160   94.8920 O   0  0  0  0  0  0
  208.7170   -6.8290   93.4800 O   0  0  0  0  0  0
  206.5200   -8.1270   92.7040 O   0  0  0  0  0  0
  205.8170   -7.0720   92.0830 C   0  0  0  0  0  0
  204.9440   -7.3030   90.8600 C   0  0  1  0  0  0
  205.5690   -7.9890   89.8040 O   0  0  0  0  0  0
  203.7140   -8.0910   91.1600 C   0  0  1  0  0  0
  202.7190   -7.2190   91.6320 O   0  0  0  0  0  0
  203.3260   -8.6880   89.8290 C   0  0  1  0  0  0
  202.5750   -7.7650   89.0230 O   0  0  0  0  0  0
  204.6760   -8.9370   89.2290 C   0  0  2  0  0  0
  205.1930  -10.2960   89.5880 N   0  0  0  0  0  0
  206.2850  -10.5640   90.3440 C   0  0  0  0  0  0
  206.4840  -11.8960   90.4480 N   0  0  0  0  0  0
  205.5310  -12.5030   89.7450 C   0  0  0  0  0  0
  205.1590  -13.8990   89.4320 C   0  0  0  0  0  0
  205.8560  -14.9340   89.9000 N   0  0  0  0  0  0
  204.0810  -14.1150   88.6730 N   0  0  0  0  0  0
  203.3480  -13.0920   88.1920 C   0  0  0  0  0  0
  203.6400  -11.7940   88.4140 N   0  0  0  0  0  0
  204.6830  -11.4510   89.1850 C   0  0  0  0  0  0
  209.4587   -6.4834   94.2151 H   0  0  0  0  0  0
  205.1192   -6.6218   92.8043 H   0  0  0  0  0  0
  206.5304   -6.3091   91.7379 H   0  0  0  0  0  0
  204.7264   -6.2936   90.4808 H   0  0  0  0  0  0
  203.8205   -8.8310   91.9669 H   0  0  0  0  0  0
  202.8520   -6.7018   92.5937 H   0  0  0  0  0  0
  202.6521   -9.5559   89.8802 H   0  0  0  0  0  0
  201.5579   -7.4734   89.3239 H   0  0  0  0  0  0
  204.6332   -8.8216   88.1359 H   0  0  0  0  0  0
  206.9179   -9.8065   90.8062 H   0  0  0  0  0  0
  206.7443  -14.7612   90.5253 H   0  0  0  0  0  0
  205.5430  -15.9611   89.6609 H   0  0  0  0  0  0
  202.4701  -13.3263   87.5899 H   0  0  0  0  0  0
  1  2  2  0  0  0
  1  3  1  0  0  0
  1  4  1  0  0  0
  3 23  1  0  0  0
  4  5  1  0  0  0
  5  6  1  0  0  0
  5 24  1  0  0  0
  5 25  1  0  0  0
  6  7  1  0  0  0
  6  8  1  0  0  0
  6 26  1  0  0  0
  7 12  1  0  0  0
  8  9  1  0  0  0
  8 10  1  0  0  0
  8 27  1  0  0  0
  9 28  1  0  0  0
 10 11  1  0  0  0
 10 12  1  0  0  0
 10 29  1  0  0  0
 11 30  1  0  0  0
 12 13  1  0  0  0
 12 31  1  0  0  0
 13 14  1  0  0  0
 13 22  1  0  0  0
 14 15  2  0  0  0
 14 32  1  0  0  0
 15 16  1  0  0  0
 16 17  2  0  0  0
 16 22  1  0  0  0
 17 18  1  0  0  0
 17 19  1  0  0  0
 18 33  1  0  0  0
 18 34  1  0  0  0
 19 20  2  0  0  0
 20 21  1  0  0  0
 20 35  1  0  0  0
 21 22  2  0  0  0
M  END
> <s_m_source_file>
../4qsk_ligand.sdf

> <i_m_source_file_index>
1

> <s_epik_input>
Tz1bUEhdKFtPSF0pT1tDSDJdW0NASF0xT1tDQEhdKFtDQEhdKFtPSF0pW0NAQEhdMVtPSF0pbihbY0hdbjIpYyhjMjMpbltjSF1uYzNbTkgyXQ==

> <s_epik_cmdline>
J2VwaWtfYXBwJywgJy1pbWFlJywgJ2xpZ2FuZF9wcm8ubWFlJywgJy1vbWFlJywgJ2xpZ2FuZF9wcmVwLm1hZScsICctbXMnLCAnMScsICctcGgnLCAnNycsICctcGh0JywgJzAuNScsICctbnQn

> <r_lp_tautomer_probability>
1

> <r_epik_Ionization_Penalty>
  0.0004

> <r_epik_Ionization_Penalty_Charging>
  0.0000

> <r_epik_Ionization_Penalty_Neutral>
  0.0004

> <r_epik_State_Penalty>
 -0.0000

> <r_epik_Charging_Adjusted_Penalty>
0

> <i_epik_Tot_Q>
0

> <i_epik_Tot_abs_Q>
0

> <s_epik_Chemistry_Notes>
This compound contains an acetal/aminal-like group ( X-CH(R)-Y where X, Y are N, S, or O) that may be acid/base labile, releasing an aldehyde.

$$$$
