4qsm_ligand
                    3D
 Schrodinger Suite 2020-3.
 52 55  0  0  1  0            999 V2000
   64.2600  -21.4980  -42.4130 O   0  0  0  0  0  0
   64.0730  -20.2020  -43.1070 S   0  0  0  0  0  0
   64.4640  -19.0010  -42.3380 O   0  0  0  0  0  0
   62.6130  -19.9140  -43.3600 N   0  0  0  0  0  0
   64.9560  -20.2000  -44.4770 C   0  0  0  0  0  0
   64.8070  -21.1490  -45.5170 C   0  0  0  0  0  0
   63.7680  -22.0520  -45.4320 N   0  0  0  0  0  0
   62.8930  -22.4150  -46.4110 C   0  0  0  0  0  0
   62.3990  -23.7260  -46.3910 C   0  0  0  0  0  0
   62.5650  -21.6250  -47.5000 C   0  0  0  0  0  0
   61.8030  -22.1500  -48.5520 C   0  0  0  0  0  0
   61.3350  -23.4620  -48.5150 C   0  0  0  0  0  0
   61.6320  -24.2470  -47.4310 C   0  0  0  0  0  0
   61.1440  -25.6510  -47.3780 C   0  0  0  0  0  0
   59.9300  -25.8930  -47.2850 O   0  0  0  0  0  0
   61.9960  -26.5570  -47.4060 O   0  5  0  0  0  0
   65.8790  -19.1500  -44.6230 C   0  0  0  0  0  0
   66.6200  -19.0180  -45.7170 N   0  0  0  0  0  0
   66.5190  -19.8910  -46.7370 C   0  0  0  0  0  0
   65.6220  -20.9680  -46.6640 C   0  0  0  0  0  0
   67.3400  -19.6860  -47.8560 C   0  0  0  0  0  0
   67.2960  -20.5320  -48.9600 C   0  0  0  0  0  0
   66.4280  -21.6100  -48.8860 C   0  0  0  0  0  0
   65.6120  -21.8280  -47.7690 C   0  0  0  0  0  0
   68.1940  -20.3020  -50.1560 C   0  0  0  0  0  0
   69.0030  -21.3260  -50.6510 C   0  0  0  0  0  0
   69.0080  -22.5840  -50.0800 O   0  0  0  0  0  0
   69.3530  -23.7560  -50.8270 C   0  0  0  0  0  0
   69.8030  -21.0960  -51.7070 N   0  0  0  0  0  0
   69.8530  -19.8860  -52.3040 C   0  0  0  0  0  0
   70.7180  -19.7210  -53.3790 O   0  0  0  0  0  0
   72.0480  -20.2940  -53.4230 C   0  0  0  0  0  0
   69.0770  -18.8660  -51.8370 N   0  0  0  0  0  0
   68.2570  -19.0540  -50.7930 C   0  0  0  0  0  0
   62.0659  -19.9274  -42.4058 H   0  0  0  0  0  0
   62.1989  -20.6810  -44.0309 H   0  0  0  0  0  0
   63.5706  -22.5757  -44.4850 H   0  0  0  0  0  0
   62.6223  -24.3598  -45.5328 H   0  0  0  0  0  0
   62.9015  -20.5890  -47.5390 H   0  0  0  0  0  0
   61.5727  -21.5223  -49.4129 H   0  0  0  0  0  0
   60.7403  -23.8592  -49.3376 H   0  0  0  0  0  0
   65.9894  -18.4248  -43.8168 H   0  0  0  0  0  0
   68.0301  -18.8423  -47.8608 H   0  0  0  0  0  0
   66.3791  -22.3084  -49.7215 H   0  0  0  0  0  0
   64.9491  -22.6932  -47.7594 H   0  0  0  0  0  0
   69.2894  -24.6389  -50.1740 H   0  0  0  0  0  0
   70.3790  -23.6572  -51.2111 H   0  0  0  0  0  0
   68.6556  -23.8722  -51.6697 H   0  0  0  0  0  0
   72.5327  -20.0231  -54.3726 H   0  0  0  0  0  0
   71.9782  -21.3891  -53.3463 H   0  0  0  0  0  0
   72.6429  -19.9048  -52.5836 H   0  0  0  0  0  0
   67.6357  -18.2321  -50.4372 H   0  0  0  0  0  0
  1  2  2  0  0  0
  2  3  2  0  0  0
  2  4  1  0  0  0
  2  5  1  0  0  0
  4 35  1  0  0  0
  4 36  1  0  0  0
  5  6  2  0  0  0
  5 17  1  0  0  0
  6  7  1  0  0  0
  6 20  1  0  0  0
  7  8  1  0  0  0
  7 37  1  0  0  0
  8  9  2  0  0  0
  8 10  1  0  0  0
  9 13  1  0  0  0
  9 38  1  0  0  0
 10 11  2  0  0  0
 10 39  1  0  0  0
 11 12  1  0  0  0
 11 40  1  0  0  0
 12 13  2  0  0  0
 12 41  1  0  0  0
 13 14  1  0  0  0
 14 15  2  0  0  0
 14 16  1  0  0  0
 17 18  2  0  0  0
 17 42  1  0  0  0
 18 19  1  0  0  0
 19 20  2  0  0  0
 19 21  1  0  0  0
 20 24  1  0  0  0
 21 22  2  0  0  0
 21 43  1  0  0  0
 22 23  1  0  0  0
 22 25  1  0  0  0
 23 24  2  0  0  0
 23 44  1  0  0  0
 24 45  1  0  0  0
 25 26  2  0  0  0
 25 34  1  0  0  0
 26 27  1  0  0  0
 26 29  1  0  0  0
 27 28  1  0  0  0
 28 46  1  0  0  0
 28 47  1  0  0  0
 28 48  1  0  0  0
 29 30  2  0  0  0
 30 31  1  0  0  0
 30 33  1  0  0  0
 31 32  1  0  0  0
 32 49  1  0  0  0
 32 50  1  0  0  0
 32 51  1  0  0  0
 33 34  2  0  0  0
 34 52  1  0  0  0
M  CHG  1  16  -1
M  END
> <s_m_source_file>
../4qsm_ligand.sdf

> <i_m_source_file_index>
1

> <s_epik_input>
W2NIXTFbY0hdW2NIXWMoQyg9TylbT0hdKVtjSF1jMVtOSF1jKGMoW2NIXW4yKVMoPU8pKD1PKVtOSDJdKWMoYzIzKVtjSF1bY0hdYyhbY0hdMyktYzRjKE9bQ0gzXSluYyhPW0NIM10pbltjSF00

> <s_epik_cmdline>
J2VwaWtfYXBwJywgJy1pbWFlJywgJ2xpZ2FuZF9wcm8ubWFlJywgJy1vbWFlJywgJ2xpZ2FuZF9wcmVwLm1hZScsICctbXMnLCAnMScsICctcGgnLCAnNycsICctcGh0JywgJzAuNScsICctbnQn

> <r_lp_tautomer_probability>
1

> <r_epik_Ionization_Penalty>
  0.0040

> <r_epik_Ionization_Penalty_Charging>
  0.0008

> <r_epik_Ionization_Penalty_Neutral>
  0.0032

> <r_epik_State_Penalty>
 -0.0000

> <r_epik_Charging_Adjusted_Penalty>
0.000836317864379419

> <i_epik_Tot_Q>
-1

> <i_epik_Tot_abs_Q>
1

$$$$
