4qsx_ligand
                    3D
 Schrodinger Suite 2020-3.
 30 31  0  0  1  0            999 V2000
   28.4180   44.2780  -12.3590 O   0  0  0  0  0  0
   27.3170   44.4440  -11.8390 C   0  0  0  0  0  0
   26.3260   43.5470  -12.1690 N   0  0  0  0  0  0
   25.0400   43.6540  -11.6270 C   0  0  0  0  0  0
   24.2580   42.7900  -11.9840 O   0  0  0  0  0  0
   24.7450   44.6540  -10.7100 C   0  0  0  0  0  0
   23.4740   44.8010  -10.1190 C   0  0  0  0  0  0
   25.7660   45.5510  -10.3800 C   0  0  0  0  0  0
   27.0560   45.4280  -10.9610 N   0  0  0  0  0  0
   28.1120   46.3960  -10.5950 C   0  0  2  0  0  0
   28.1000   46.5760   -9.1750 O   0  0  0  0  0  0
   27.7500   47.7000  -11.1860 C   0  0  0  0  0  0
   28.5760   48.5900  -10.3480 C   0  0  0  0  0  0
   28.4650   47.9440   -8.9450 C   0  0  1  0  0  0
   27.4490   48.6460   -8.0340 C   0  0  0  0  0  0
   26.2350   48.7740   -8.8130 O   0  0  0  0  0  0
   26.5379   42.7269  -12.8708 H   0  0  0  0  0  0
   22.6651   44.1001  -10.3727 H   0  0  0  0  0  0
   23.2909   45.6166   -9.4040 H   0  0  0  0  0  0
   25.4579   46.5722  -10.6488 H   0  0  0  0  0  0
   25.9636   45.5002   -9.2991 H   0  0  0  0  0  0
   29.1018   46.0388  -10.9155 H   0  0  0  0  0  0
   28.0209   47.7072  -12.2521 H   0  0  0  0  0  0
   26.6670   47.8618  -11.0818 H   0  0  0  0  0  0
   29.6076   48.5997  -10.7297 H   0  0  0  0  0  0
   28.1640   49.6094  -10.3790 H   0  0  0  0  0  0
   29.4212   47.9591   -8.4014 H   0  0  0  0  0  0
   27.2809   48.0363   -7.1340 H   0  0  0  0  0  0
   27.8389   49.6321   -7.7413 H   0  0  0  0  0  0
   25.3471   49.2518   -8.3733 H   0  0  0  0  0  0
  1  2  2  0  0  0
  2  3  1  0  0  0
  2  9  1  0  0  0
  3  4  1  0  0  0
  3 17  1  0  0  0
  4  5  2  0  0  0
  4  6  1  0  0  0
  6  7  2  0  0  0
  6  8  1  0  0  0
  7 18  1  0  0  0
  7 19  1  0  0  0
  8  9  1  0  0  0
  8 20  1  0  0  0
  8 21  1  0  0  0
  9 10  1  0  0  0
 10 11  1  0  0  0
 10 12  1  0  0  0
 10 22  1  0  0  0
 11 14  1  0  0  0
 12 13  1  0  0  0
 12 23  1  0  0  0
 12 24  1  0  0  0
 13 14  1  0  0  0
 13 25  1  0  0  0
 13 26  1  0  0  0
 14 15  1  0  0  0
 14 27  1  0  0  0
 15 16  1  0  0  0
 15 28  1  0  0  0
 15 29  1  0  0  0
 16 30  1  0  0  0
M  END
> <s_m_source_file>
../4qsx_ligand.sdf

> <i_m_source_file_index>
1

> <s_epik_input>
Tz1DMVtOSF1DKD1PKUMoPVtDSDJdKVtDSDJdTjFbQ0BASF0yT1tDQEBIXShbQ0gyXVtDSDJdMilbQ0gyXVtPSF0=

> <s_epik_cmdline>
J2VwaWtfYXBwJywgJy1pbWFlJywgJ2xpZ2FuZF9wcm8ubWFlJywgJy1vbWFlJywgJ2xpZ2FuZF9wcmVwLm1hZScsICctbXMnLCAnMScsICctcGgnLCAnNycsICctcGh0JywgJzAuNScsICctbnQn

> <r_lp_tautomer_probability>
1

> <r_epik_Ionization_Penalty>
  0.0060

> <r_epik_Ionization_Penalty_Charging>
  0.0000

> <r_epik_Ionization_Penalty_Neutral>
  0.0060

> <r_epik_State_Penalty>
 -0.0000

> <r_epik_Charging_Adjusted_Penalty>
0

> <i_epik_Tot_Q>
0

> <i_epik_Tot_abs_Q>
0

> <s_epik_Chemistry_Notes>
This compound contains an acetal/aminal-like group ( X-CH(R)-Y where X, Y are N, S, or O) that may be acid/base labile, releasing an aldehyde.

$$$$
