4qt1_ligand
                    3D
 Schrodinger Suite 2020-3.
 49 51  0  0  1  0            999 V2000
    4.6240  -15.7030   -5.5220 S   0  0  0  0  0  0
    3.4380  -16.6520   -6.2020 N   0  0  3  0  0  0
   -0.4080  -18.0550   -4.3940 C   0  0  0  0  0  0
   -1.3470  -17.3490   -3.7080 N   0  0  0  0  0  0
   -0.1790  -15.2870   -3.9880 N   0  0  0  0  0  0
   -1.3100  -13.2330   -3.4000 C   0  0  0  0  0  0
   -1.2610  -15.9620   -3.5850 C   0  0  0  0  0  0
   -0.1690  -13.9360   -3.9100 C   0  0  0  0  0  0
   -2.3910  -13.9250   -3.0020 N   0  0  0  0  0  0
    3.0850  -17.9250   -5.5140 C   0  0  0  0  0  0
   -1.0260  -11.8900   -3.4250 N   0  0  0  0  0  0
    0.8260  -12.9110   -4.2410 C   0  0  0  0  0  0
    0.6870  -17.4740   -4.9290 N   0  0  0  0  0  0
    4.3270  -14.3800   -5.9930 O   0  0  0  0  0  0
    4.5620  -15.9840   -4.1390 O   0  0  0  0  0  0
    0.2480  -11.7280   -3.9410 C   0  0  0  0  0  0
   -0.5330  -19.2570   -4.5350 O   0  0  0  0  0  0
    1.6140  -18.3040   -5.7100 C   0  0  1  0  0  0
   -2.3800  -15.2610   -3.0910 C   0  0  0  0  0  0
    6.0840  -16.4680   -6.2820 C   0  0  0  0  0  0
    2.8400  -16.2100   -7.4860 C   0  0  0  0  0  0
    1.3500  -16.5690   -7.5620 C   0  0  0  0  0  0
    1.1880  -18.0540   -7.1750 C   0  0  0  0  0  0
    7.3430  -15.6820   -5.9300 C   0  0  0  0  0  0
    7.6190  -15.8890   -4.4480 C   0  0  0  0  0  0
    8.5240  -16.2820   -6.7170 C   0  0  0  0  0  0
   -2.1933  -17.8714   -3.2381 H   0  0  0  0  0  0
    3.7032  -18.7419   -5.9146 H   0  0  0  0  0  0
    3.2689  -17.8216   -4.4344 H   0  0  0  0  0  0
    1.8254  -13.0709   -4.6455 H   0  0  0  0  0  0
    0.8920  -16.4022   -4.7901 H   0  0  0  0  0  0
    0.6685  -10.7187   -4.0612 H   0  0  0  0  0  0
    1.5299  -19.3441   -5.3621 H   0  0  0  0  0  0
   -3.2593  -15.8213   -2.7732 H   0  0  0  0  0  0
    6.1915  -17.4988   -5.9134 H   0  0  0  0  0  0
    5.9643  -16.4802   -7.3754 H   0  0  0  0  0  0
    2.9416  -15.1189   -7.5814 H   0  0  0  0  0  0
    3.3606  -16.7012   -8.3213 H   0  0  0  0  0  0
    0.7838  -15.9339   -6.8648 H   0  0  0  0  0  0
    0.9850  -16.4046   -8.5866 H   0  0  0  0  0  0
    1.8130  -18.6603   -7.8471 H   0  0  0  0  0  0
    0.1323  -18.3352   -7.3030 H   0  0  0  0  0  0
    7.2103  -14.6145   -6.1599 H   0  0  0  0  0  0
    6.7903  -15.4695   -3.8586 H   0  0  0  0  0  0
    8.5564  -15.3820   -4.1753 H   0  0  0  0  0  0
    7.7098  -16.9651   -4.2388 H   0  0  0  0  0  0
    8.3525  -16.1471   -7.7951 H   0  0  0  0  0  0
    8.6080  -17.3552   -6.4906 H   0  0  0  0  0  0
    9.4546  -15.7721   -6.4271 H   0  0  0  0  0  0
  1  2  1  0  0  0
  1 14  2  0  0  0
  1 15  2  0  0  0
  1 20  1  0  0  0
  2 10  1  0  0  0
  2 21  1  0  0  0
  3  4  1  0  0  0
  3 13  1  0  0  0
  3 17  2  0  0  0
  4  7  1  0  0  0
  4 27  1  0  0  0
  5  7  2  0  0  0
  5  8  1  0  0  0
  6  8  2  0  0  0
  6  9  1  0  0  0
  6 11  1  0  0  0
  7 19  1  0  0  0
  8 12  1  0  0  0
  9 19  2  0  0  0
 10 18  1  0  0  0
 10 28  1  0  0  0
 10 29  1  0  0  0
 11 16  2  0  0  0
 12 16  1  0  0  0
 12 30  1  0  0  0
 13 18  1  0  0  0
 13 31  1  0  0  0
 16 32  1  0  0  0
 18 23  1  0  0  0
 18 33  1  0  0  0
 19 34  1  0  0  0
 20 24  1  0  0  0
 20 35  1  0  0  0
 20 36  1  0  0  0
 21 22  1  0  0  0
 21 37  1  0  0  0
 21 38  1  0  0  0
 22 23  1  0  0  0
 22 39  1  0  0  0
 22 40  1  0  0  0
 23 41  1  0  0  0
 23 42  1  0  0  0
 24 25  1  0  0  0
 24 26  1  0  0  0
 24 43  1  0  0  0
 25 44  1  0  0  0
 25 45  1  0  0  0
 25 46  1  0  0  0
 26 47  1  0  0  0
 26 48  1  0  0  0
 26 49  1  0  0  0
M  END
> <s_m_source_file>
../4qt1_ligand.sdf

> <i_m_source_file_index>
1

> <s_epik_input>
W0NIM11bQ0hdKFtDSDNdKVtDSDJdUyg9TykoPU8pTjFbQ0gyXVtDQEhdKFtDSDJdW0NIMl1bQ0gyXTEpW05IXUMoPU8pW05IXWMoW2NIXW4yKW5jKGMyMylbQ0gyXVtDSF09TjM=

> <s_epik_cmdline>
J2VwaWtfYXBwJywgJy1pbWFlJywgJ2xpZ2FuZF9wcm8ubWFlJywgJy1vbWFlJywgJ2xpZ2FuZF9wcmVwLm1hZScsICctbXMnLCAnMScsICctcGgnLCAnNycsICctcGh0JywgJzAuNScsICctbnQn

> <r_epik_Ionization_Penalty>
  0.0377

> <r_epik_Ionization_Penalty_Charging>
  0.0000

> <r_epik_Ionization_Penalty_Neutral>
  0.0377

> <r_epik_State_Penalty>
  0.0315

> <r_epik_Charging_Adjusted_Penalty>
0.0315026631075884

> <i_epik_Tot_Q>
0

> <i_epik_Tot_abs_Q>
0

> <s_epik_Chemistry_Notes>
This compound has an imine and may undergo hydrolysis.

$$$$
