4qt2_ligand
                    3D
 Schrodinger Suite 2020-3.
148151  0  0  1  0            999 V2000
    4.6070   16.7480   15.9780 C   0  0  0  0  0  0
    3.7830   17.6570   16.6100 O   0  0  0  0  0  0
    5.6190   17.1370   15.4470 O   0  0  0  0  0  0
    4.2150   15.3130   16.0030 C   0  0  2  0  0  0
    4.2150   14.7740   14.5940 C   0  0  0  0  0  0
    3.0480   15.2820   13.7810 C   0  0  0  0  0  0
    1.7730   14.9440   14.4230 C   0  0  0  0  0  0
    1.7070   15.5300   15.8120 C   0  0  0  0  0  0
    2.8930   15.1180   16.5910 N   0  0  0  0  0  0
    2.8580   14.5600   17.8850 C   0  0  0  0  0  0
    3.8650   14.2670   18.4470 O   0  0  0  0  0  0
    1.5800   14.3500   18.5790 C   0  0  0  0  0  0
    1.0420   13.3820   18.3730 O   0  0  0  0  0  0
    0.8560   15.3290   19.2770 C   0  0  1  0  0  0
    0.1470   16.1380   18.3700 O   0  0  0  0  0  0
   -0.1610   14.6520   20.0640 O   0  0  0  0  0  0
    1.5460   16.0130   20.3710 C   0  0  1  0  0  0
    1.0870   17.3360   20.7970 C   0  0  0  0  0  0
    0.4230   18.1320   19.7310 C   0  0  0  0  0  0
   -0.5080   17.3260   18.8760 C   0  0  1  0  0  0
   -0.9690   18.0640   17.6300 C   0  0  0  0  0  0
   -2.0590   19.0920   17.9440 C   0  0  2  0  0  0
   -3.2000   18.4550   18.4510 O   0  0  0  0  0  0
   -2.4990   19.9150   16.7690 C   0  0  1  0  0  0
   -1.6320   21.0850   16.5080 C   0  0  0  0  0  0
   -1.9180   21.8710   15.2800 C   0  0  0  0  0  0
   -1.3870   23.1180   15.2930 C   0  0  0  0  0  0
   -1.2940   23.9640   14.0660 C   0  0  0  0  0  0
   -0.6500   25.1660   14.1560 C   0  0  0  0  0  0
   -0.4650   25.9820   12.9300 C   0  0  2  0  0  0
    0.9850   26.4760   12.8890 C   0  0  0  0  0  0
    2.0740   25.4420   12.6700 C   0  0  2  0  0  0
    3.4010   25.8470   13.1520 C   0  0  0  0  0  0
    4.0720   26.4340   12.3370 O   0  0  0  0  0  0
    4.0340   25.6440   14.4640 C   0  0  2  0  0  0
    5.0080   26.5540   14.7330 O   0  0  0  0  0  0
    4.3190   24.2770   14.9200 C   0  0  2  0  0  0
    5.0960   23.8140   13.8410 O   0  0  0  0  0  0
    3.0370   23.5350   15.1760 C   0  0  1  0  0  0
    2.9220   22.3510   14.3170 C   0  0  0  0  0  0
    1.9870   21.1840   14.4260 C   0  0  2  0  0  0
    2.5150   19.9750   14.9960 C   0  0  0  0  0  0
    2.6420   19.0380   14.2690 O   0  0  0  0  0  0
    2.9480   19.9020   16.4300 C   0  0  0  0  0  0
    4.1950   19.0240   16.6270 C   0  0  1  0  0  0
    4.9440   19.3500   17.9430 C   0  0  1  0  0  0
    5.5970   20.7530   17.9910 C   0  0  0  0  0  0
    6.6400   21.0770   16.8900 C   0  0  1  0  0  0
    7.2460   22.4290   17.2000 C   0  0  0  0  0  0
    8.2870   22.7960   16.1520 C   0  0  1  0  0  0
    8.9180   24.0040   16.5350 O   0  0  0  0  0  0
    9.3880   21.8010   16.0660 C   0  0  2  0  0  0
   10.2740   22.2210   15.0320 O   0  0  0  0  0  0
    8.7680   20.4600   15.7300 C   0  0  0  0  0  0
    7.7320   20.0410   16.7860 C   0  0  0  0  0  0
    2.3450   15.0830   21.3180 C   0  0  0  0  0  0
   -3.0170   19.1880   15.5890 C   0  0  0  0  0  0
   -1.3820   27.2000   12.8910 C   0  0  0  0  0  0
    1.9820   24.5830   11.4730 C   0  0  0  0  0  0
    2.5140   23.5350   16.5700 C   0  0  0  0  0  0
    0.9880   21.1250   13.3440 C   0  0  0  0  0  0
    4.0220   19.1990   19.1480 C   0  0  0  0  0  0
   -4.1130   19.3510   19.0840 C   0  0  0  0  0  0
    5.2080   27.0550   16.0530 C   0  0  0  0  0  0
    8.4820   25.0890   15.7710 C   0  0  0  0  0  0
    4.9257   14.7773   16.6495 H   0  0  0  0  0  0
    5.1411   15.0791   14.0847 H   0  0  0  0  0  0
    4.1563   13.6759   14.6215 H   0  0  0  0  0  0
    3.1159   16.3758   13.6859 H   0  0  0  0  0  0
    3.0713   14.8249   12.7808 H   0  0  0  0  0  0
    0.9429   15.3487   13.8253 H   0  0  0  0  0  0
    1.6759   13.8505   14.4923 H   0  0  0  0  0  0
    1.6808   16.6277   15.7460 H   0  0  0  0  0  0
    0.7988   15.1714   16.3185 H   0  0  0  0  0  0
   -0.9036   14.0099   19.5677 H   0  0  0  0  0  0
    2.2671   16.6126   19.7961 H   0  0  0  0  0  0
    0.3588   17.2259   21.6140 H   0  0  0  0  0  0
    1.9459   17.9265   21.1485 H   0  0  0  0  0  0
   -0.1666   18.9394   20.1898 H   0  0  0  0  0  0
    1.1862   18.5663   19.0684 H   0  0  0  0  0  0
   -1.3429   17.0618   19.5417 H   0  0  0  0  0  0
   -0.1159   18.5937   17.1809 H   0  0  0  0  0  0
   -1.3751   17.3426   16.9057 H   0  0  0  0  0  0
   -1.6686   19.7614   18.7247 H   0  0  0  0  0  0
   -3.4473   20.3717   17.0887 H   0  0  0  0  0  0
   -1.7155   21.7967   17.3426 H   0  0  0  0  0  0
   -0.5876   20.7533   16.4121 H   0  0  0  0  0  0
   -2.4984   21.5294   14.4103 H   0  0  0  0  0  0
   -1.0039   23.5429   16.2325 H   0  0  0  0  0  0
   -1.7272   23.6425   13.1073 H   0  0  0  0  0  0
   -0.2759   25.5181   15.1287 H   0  0  0  0  0  0
   -0.7209   25.3231   12.0872 H   0  0  0  0  0  0
    1.1029   27.1992   12.0686 H   0  0  0  0  0  0
    1.2342   26.9613   13.8442 H   0  0  0  0  0  0
    1.8673   24.6209   13.3722 H   0  0  0  0  0  0
    3.2646   25.9562   15.1855 H   0  0  0  0  0  0
    4.8937   24.1591   15.8505 H   0  0  0  0  0  0
    6.0469   24.3094   13.5955 H   0  0  0  0  0  0
    2.1829   24.1212   14.8060 H   0  0  0  0  0  0
    2.6806   22.6647   13.2907 H   0  0  0  0  0  0
    3.8758   21.8031   14.3182 H   0  0  0  0  0  0
    1.3341   21.3261   15.2998 H   0  0  0  0  0  0
    3.1858   20.9127   16.7931 H   0  0  0  0  0  0
    2.1356   19.4760   17.0371 H   0  0  0  0  0  0
    4.8909   19.1486   15.7843 H   0  0  0  0  0  0
    5.7569   18.6106   17.9933 H   0  0  0  0  0  0
    4.8175   21.5236   17.8983 H   0  0  0  0  0  0
    6.1253   20.8790   18.9476 H   0  0  0  0  0  0
    6.1472   21.0830   15.9066 H   0  0  0  0  0  0
    6.4550   23.1934   17.2026 H   0  0  0  0  0  0
    7.7281   22.3969   18.1882 H   0  0  0  0  0  0
    7.7869   22.9075   15.1786 H   0  0  0  0  0  0
    9.9870   21.7479   16.9871 H   0  0  0  0  0  0
   10.8084   23.1784   15.1208 H   0  0  0  0  0  0
    8.2655   20.5228   14.7535 H   0  0  0  0  0  0
    9.5547   19.6923   15.6888 H   0  0  0  0  0  0
    8.2337   19.9381   17.7595 H   0  0  0  0  0  0
    7.2942   19.0747   16.4952 H   0  0  0  0  0  0
    2.5854   14.1458   20.7946 H   0  0  0  0  0  0
    1.7402   14.8604   22.2094 H   0  0  0  0  0  0
    3.2766   15.5825   21.6223 H   0  0  0  0  0  0
   -3.6426   18.3468   15.9222 H   0  0  0  0  0  0
   -2.1740   18.8053   14.9950 H   0  0  0  0  0  0
   -3.6195   19.8715   14.9727 H   0  0  0  0  0  0
   -2.4310   26.8702   12.9195 H   0  0  0  0  0  0
   -1.2006   27.7660   11.9654 H   0  0  0  0  0  0
   -1.1758   27.8422   13.7600 H   0  0  0  0  0  0
    0.9248   24.3758   11.2507 H   0  0  0  0  0  0
    2.5098   23.6361   11.6598 H   0  0  0  0  0  0
    2.4429   25.0970   10.6166 H   0  0  0  0  0  0
    2.7025   24.5152   17.0323 H   0  0  0  0  0  0
    3.0213   22.7514   17.1519 H   0  0  0  0  0  0
    1.4318   23.3384   16.5556 H   0  0  0  0  0  0
    0.7105   22.1466   13.0450 H   0  0  0  0  0  0
    0.0941   20.5913   13.6990 H   0  0  0  0  0  0
    1.4138   20.5931   12.4804 H   0  0  0  0  0  0
    3.5506   18.2054   19.1267 H   0  0  0  0  0  0
    3.2433   19.9751   19.1134 H   0  0  0  0  0  0
    4.6070   19.3076   20.0732 H   0  0  0  0  0  0
   -4.9809   18.7873   19.4568 H   0  0  0  0  0  0
   -4.4501   20.1049   18.3574 H   0  0  0  0  0  0
   -3.6117   19.8513   19.9256 H   0  0  0  0  0  0
    6.0400   27.7745   16.0499 H   0  0  0  0  0  0
    5.4469   26.2211   16.7294 H   0  0  0  0  0  0
    4.2914   27.5558   16.3979 H   0  0  0  0  0  0
    8.9976   26.0021   16.1032 H   0  0  0  0  0  0
    7.3965   25.2141   15.8978 H   0  0  0  0  0  0
    8.7085   24.9052   14.7104 H   0  0  0  0  0  0
  1  2  1  0  0  0
  1  3  2  0  0  0
  1  4  1  0  0  0
  2 45  1  0  0  0
  4  5  1  0  0  0
  4  9  1  0  0  0
  4 66  1  0  0  0
  5  6  1  0  0  0
  5 67  1  0  0  0
  5 68  1  0  0  0
  6  7  1  0  0  0
  6 69  1  0  0  0
  6 70  1  0  0  0
  7  8  1  0  0  0
  7 71  1  0  0  0
  7 72  1  0  0  0
  8  9  1  0  0  0
  8 73  1  0  0  0
  8 74  1  0  0  0
  9 10  1  0  0  0
 10 11  2  0  0  0
 10 12  1  0  0  0
 12 13  2  0  0  0
 12 14  1  0  0  0
 14 15  1  0  0  0
 14 16  1  0  0  0
 14 17  1  0  0  0
 15 20  1  0  0  0
 16 75  1  0  0  0
 17 18  1  0  0  0
 17 56  1  0  0  0
 17 76  1  0  0  0
 18 19  1  0  0  0
 18 77  1  0  0  0
 18 78  1  0  0  0
 19 20  1  0  0  0
 19 79  1  0  0  0
 19 80  1  0  0  0
 20 21  1  0  0  0
 20 81  1  0  0  0
 21 22  1  0  0  0
 21 82  1  0  0  0
 21 83  1  0  0  0
 22 23  1  0  0  0
 22 24  1  0  0  0
 22 84  1  0  0  0
 23 63  1  0  0  0
 24 25  1  0  0  0
 24 57  1  0  0  0
 24 85  1  0  0  0
 25 26  1  0  0  0
 25 86  1  0  0  0
 25 87  1  0  0  0
 26 27  2  0  0  0
 26 88  1  0  0  0
 27 28  1  0  0  0
 27 89  1  0  0  0
 28 29  2  0  0  0
 28 90  1  0  0  0
 29 30  1  0  0  0
 29 91  1  0  0  0
 30 31  1  0  0  0
 30 58  1  0  0  0
 30 92  1  0  0  0
 31 32  1  0  0  0
 31 93  1  0  0  0
 31 94  1  0  0  0
 32 33  1  0  0  0
 32 59  1  0  0  0
 32 95  1  0  0  0
 33 34  2  0  0  0
 33 35  1  0  0  0
 35 36  1  0  0  0
 35 37  1  0  0  0
 35 96  1  0  0  0
 36 64  1  0  0  0
 37 38  1  0  0  0
 37 39  1  0  0  0
 37 97  1  0  0  0
 38 98  1  0  0  0
 39 40  1  0  0  0
 39 60  1  0  0  0
 39 99  1  0  0  0
 40 41  1  0  0  0
 40100  1  0  0  0
 40101  1  0  0  0
 41 42  1  0  0  0
 41 61  1  0  0  0
 41102  1  0  0  0
 42 43  2  0  0  0
 42 44  1  0  0  0
 44 45  1  0  0  0
 44103  1  0  0  0
 44104  1  0  0  0
 45 46  1  0  0  0
 45105  1  0  0  0
 46 47  1  0  0  0
 46 62  1  0  0  0
 46106  1  0  0  0
 47 48  1  0  0  0
 47107  1  0  0  0
 47108  1  0  0  0
 48 49  1  0  0  0
 48 55  1  0  0  0
 48109  1  0  0  0
 49 50  1  0  0  0
 49110  1  0  0  0
 49111  1  0  0  0
 50 51  1  0  0  0
 50 52  1  0  0  0
 50112  1  0  0  0
 51 65  1  0  0  0
 52 53  1  0  0  0
 52 54  1  0  0  0
 52113  1  0  0  0
 53114  1  0  0  0
 54 55  1  0  0  0
 54115  1  0  0  0
 54116  1  0  0  0
 55117  1  0  0  0
 55118  1  0  0  0
 56119  1  0  0  0
 56120  1  0  0  0
 56121  1  0  0  0
 57122  1  0  0  0
 57123  1  0  0  0
 57124  1  0  0  0
 58125  1  0  0  0
 58126  1  0  0  0
 58127  1  0  0  0
 59128  1  0  0  0
 59129  1  0  0  0
 59130  1  0  0  0
 60131  1  0  0  0
 60132  1  0  0  0
 60133  1  0  0  0
 61134  1  0  0  0
 61135  1  0  0  0
 61136  1  0  0  0
 62137  1  0  0  0
 62138  1  0  0  0
 62139  1  0  0  0
 63140  1  0  0  0
 63141  1  0  0  0
 63142  1  0  0  0
 64143  1  0  0  0
 64144  1  0  0  0
 64145  1  0  0  0
 65146  1  0  0  0
 65147  1  0  0  0
 65148  1  0  0  0
M  END
> <s_m_source_file>
../4qt2_ligand.sdf

> <i_m_source_file_index>
1

> <s_epik_input>
W09IXVtDQEBdMTJDKD1PKUMoPU8pTjNbQ0BASF0oW0NIMl1bQ0gyXVtDSDJdW0NIMl0zKUMoPU8pT1tDQEhdKFtDQEhdKFtDSDNdKVtDSDJdW0NASF00W0NIMl1bQ0BASF0oT1tDSDNdKVtDQEhdKFtPSF0pW0NIMl1bQ0gyXTQpW0NIMl1DKD1PKVtDQEhdKFtDSDNdKVtDSDJdW0NAQEhdKFtDSDNdKVtDQEBIXShbT0hdKVtDQEBIXShPW0NIM10pQyg9TylbQ0BIXShbQ0gzXSlbQ0gyXVtDQEhdKFtDSDNdKVxbQ0hdPVtDSF1cW0NIXT1bQ0hdXFtDSDJdW0NAQEhdKFtDSDNdKVtDQEBIXShPW0NIM10pW0NIMl1bQ0BASF0oTzEpW0NIMl1bQ0gyXVtDQEhdMltDSDNd

> <s_epik_cmdline>
J2VwaWtfYXBwJywgJy1pbWFlJywgJ2xpZ2FuZF9wcm8ubWFlJywgJy1vbWFlJywgJ2xpZ2FuZF9wcmVwLm1hZScsICctbXMnLCAnMScsICctcGgnLCAnNycsICctcGh0JywgJzAuNScsICctbnQn

> <r_lp_tautomer_probability>
1

> <r_epik_Ionization_Penalty>
  0.0019

> <r_epik_Ionization_Penalty_Charging>
  0.0000

> <r_epik_Ionization_Penalty_Neutral>
  0.0019

> <r_epik_State_Penalty>
 -0.0000

> <r_epik_Charging_Adjusted_Penalty>
0

> <i_epik_Tot_Q>
0

> <i_epik_Tot_abs_Q>
0

> <s_epik_Chemistry_Notes>
This compound has an ester and may undergo hydrolysis at high or low pH.

$$$$
