4qtb_ligand
                    3D
 Schrodinger Suite 2020-3.
 79 85  0  0  1  0            999 V2000
   35.2680   51.5770   47.9270 O   0  0  0  0  0  0
   34.6580   52.5780   48.3380 C   0  0  0  0  0  0
   33.6510   53.1640   47.6820 N   0  0  0  0  0  0
   33.1100   52.7810   46.4380 C   0  0  0  0  0  0
   31.8740   53.3310   46.0780 C   0  0  0  0  0  0
   31.2880   52.9510   44.8730 C   0  0  0  0  0  0
   30.0380   53.2460   44.1570 C   0  0  0  0  0  0
   28.8580   54.0510   44.5820 C   0  0  0  0  0  0
   28.6500   54.3560   45.9210 C   0  0  0  0  0  0
   27.5310   55.0790   46.2730 C   0  0  0  0  0  0
   26.6180   55.4880   45.3990 N   0  3  0  0  0  0
   26.8140   55.1750   44.1110 C   0  0  0  0  0  0
   27.9230   54.4870   43.6510 C   0  0  0  0  0  0
   30.0450   52.5800   43.0150 N   0  3  0  0  0  0
   31.2140   51.8780   42.9370 N   0  0  0  0  0  0
   32.0060   52.0970   44.0120 C   0  0  0  0  0  0
   33.2360   51.5320   44.3730 C   0  0  0  0  0  0
   33.7750   51.8820   45.5920 C   0  0  0  0  0  0
   35.0550   53.2950   49.5790 C   0  0  2  0  0  0
   35.7860   54.6280   49.3210 C   0  0  0  0  0  0
   35.9630   52.4490   50.4210 C   0  0  0  0  0  0
   37.2770   53.0450   50.2080 N   0  3  1  0  0  0
   37.0950   54.4810   50.0580 C   0  0  0  0  0  0
   38.3420   52.5550   50.9840 C   0  0  0  0  0  0
   39.7330   52.9500   50.5340 C   0  0  0  0  0  0
   39.9010   53.3850   49.4050 O   0  0  0  0  0  0
   40.7330   52.7780   51.4170 N   0  0  0  0  0  0
   40.5940   52.5570   52.8610 C   0  0  0  0  0  0
   40.7980   53.8650   53.5950 C   0  0  0  0  0  0
   42.0490   54.5260   53.1970 N   0  0  0  0  0  0
   42.3030   54.5390   51.7490 C   0  0  0  0  0  0
   42.0940   53.1940   51.1340 C   0  0  0  0  0  0
   42.2540   55.7530   53.8880 C   0  0  0  0  0  0
   41.4690   56.0470   54.9930 C   0  0  0  0  0  0
   41.6050   57.2430   55.6740 C   0  0  0  0  0  0
   42.5280   58.1850   55.2830 C   0  0  0  0  0  0
   43.3360   57.9060   54.1580 C   0  0  0  0  0  0
   43.2160   56.6900   53.4600 C   0  0  0  0  0  0
   42.5640   59.5150   55.9840 C   0  0  0  0  0  0
   42.0100   59.5790   57.2130 N   0  0  0  0  0  0
   42.0010   60.7950   57.7870 C   0  0  0  0  0  0
   42.5230   61.9120   57.1900 C   0  0  0  0  0  0
   43.1010   61.7150   55.9660 C   0  0  0  0  0  0
   43.1490   60.5160   55.3470 N   0  0  0  0  0  0
   33.1528   54.0451   48.1128 H   0  0  0  0  0  0
   31.3786   54.0532   46.7436 H   0  0  0  0  0  0
   29.3600   54.0289   46.6806 H   0  0  0  0  0  0
   27.3874   55.3285   47.3243 H   0  0  0  0  0  0
   26.0588   55.4788   43.3861 H   0  0  0  0  0  0
   28.0595   54.2923   42.5872 H   0  0  0  0  0  0
   33.7701   50.8288   43.7170 H   0  0  0  0  0  0
   34.7373   51.4550   45.9109 H   0  0  0  0  0  0
   34.0954   53.4727   50.0866 H   0  0  0  0  0  0
   35.9341   54.7616   48.2392 H   0  0  0  0  0  0
   35.1822   55.4593   49.7138 H   0  0  0  0  0  0
   35.6440   52.5030   51.4723 H   0  0  0  0  0  0
   35.9156   51.4054   50.0766 H   0  0  0  0  0  0
   37.7482   52.6623   49.2907 H   0  0  0  0  0  0
   37.9027   54.9348   49.4649 H   0  0  0  0  0  0
   37.0263   54.9875   51.0320 H   0  0  0  0  0  0
   38.2416   52.9203   52.0167 H   0  0  0  0  0  0
   38.3225   51.4552   50.9806 H   0  0  0  0  0  0
   39.5878   52.1688   53.0773 H   0  0  0  0  0  0
   41.3476   51.8285   53.1947 H   0  0  0  0  0  0
   39.9625   54.5448   53.3718 H   0  0  0  0  0  0
   40.8373   53.6756   54.6779 H   0  0  0  0  0  0
   41.6184   55.2498   51.2630 H   0  0  0  0  0  0
   43.3428   54.8452   51.5618 H   0  0  0  0  0  0
   42.7970   52.4659   51.5649 H   0  0  0  0  0  0
   42.2424   53.2469   50.0453 H   0  0  0  0  0  0
   40.7300   55.3208   55.3315 H   0  0  0  0  0  0
   40.9691   57.4429   56.5364 H   0  0  0  0  0  0
   44.0646   58.6452   53.8251 H   0  0  0  0  0  0
   43.8556   56.4765   52.6036 H   0  0  0  0  0  0
   41.5561   60.8970   58.7768 H   0  0  0  0  0  0
   42.4805   62.8945   57.6601 H   0  0  0  0  0  0
   43.5472   62.5728   55.4629 H   0  0  0  0  0  0
   29.3111   52.5187   42.1980 H   0  0  0  0  0  0
   25.7439   56.0599   45.7438 H   0  0  0  0  0  0
  1  2  2  0  0  0
  2  3  1  0  0  0
  2 19  1  0  0  0
  3  4  1  0  0  0
  3 45  1  0  0  0
  4  5  2  0  0  0
  4 18  1  0  0  0
  5  6  1  0  0  0
  5 46  1  0  0  0
  6  7  2  0  0  0
  6 16  1  0  0  0
  7  8  1  0  0  0
  7 14  1  0  0  0
  8  9  2  0  0  0
  8 13  1  0  0  0
  9 10  1  0  0  0
  9 47  1  0  0  0
 10 11  2  0  0  0
 10 48  1  0  0  0
 11 12  1  0  0  0
 11 79  1  0  0  0
 12 13  2  0  0  0
 12 49  1  0  0  0
 13 50  1  0  0  0
 14 15  1  0  0  0
 14 78  1  0  0  0
 15 16  2  0  0  0
 16 17  1  0  0  0
 17 18  2  0  0  0
 17 51  1  0  0  0
 18 52  1  0  0  0
 19 20  1  0  0  0
 19 21  1  0  0  0
 19 53  1  0  0  0
 20 23  1  0  0  0
 20 54  1  0  0  0
 20 55  1  0  0  0
 21 22  1  0  0  0
 21 56  1  0  0  0
 21 57  1  0  0  0
 22 23  1  0  0  0
 22 24  1  0  0  0
 22 58  1  0  0  0
 23 59  1  0  0  0
 23 60  1  0  0  0
 24 25  1  0  0  0
 24 61  1  0  0  0
 24 62  1  0  0  0
 25 26  2  0  0  0
 25 27  1  0  0  0
 27 28  1  0  0  0
 27 32  1  0  0  0
 28 29  1  0  0  0
 28 63  1  0  0  0
 28 64  1  0  0  0
 29 30  1  0  0  0
 29 65  1  0  0  0
 29 66  1  0  0  0
 30 31  1  0  0  0
 30 33  1  0  0  0
 31 32  1  0  0  0
 31 67  1  0  0  0
 31 68  1  0  0  0
 32 69  1  0  0  0
 32 70  1  0  0  0
 33 34  2  0  0  0
 33 38  1  0  0  0
 34 35  1  0  0  0
 34 71  1  0  0  0
 35 36  2  0  0  0
 35 72  1  0  0  0
 36 37  1  0  0  0
 36 39  1  0  0  0
 37 38  2  0  0  0
 37 73  1  0  0  0
 38 74  1  0  0  0
 39 40  2  0  0  0
 39 44  1  0  0  0
 40 41  1  0  0  0
 41 42  2  0  0  0
 41 75  1  0  0  0
 42 43  1  0  0  0
 42 76  1  0  0  0
 43 44  2  0  0  0
 43 77  1  0  0  0
M  CHG  3  11   1  14   1  22   1
M  END
> <s_m_source_file>
../4qtb_ligand.sdf

> <i_m_source_file_index>
1

> <s_epik_input>
W2NIXTFbY0hdbltjSF1bY0hdYzEtYzJbbkhdbmMoYzIzKVtjSF1bY0hdYyhbY0hdMylbTkhdQyg9TylbQ0BASF00W0NIMl1bQ0gyXVtOQEgrXShbQ0gyXTQpW0NIMl1DKD1PKU41W0NIMl1bQ0gyXU4oW0NIMl1bQ0gyXTUpYzZbY0hdW2NIXWMoW2NIXVtjSF02KS1jN25bY0hdW2NIXVtjSF1uNw==

> <s_epik_cmdline>
J2VwaWtfYXBwJywgJy1pbWFlJywgJ2xpZ2FuZF9wcm8ubWFlJywgJy1vbWFlJywgJ2xpZ2FuZF9wcmVwLm1hZScsICctbXMnLCAnMScsICctcGgnLCAnNycsICctcGh0JywgJzAuNScsICctbnQn

> <r_lp_tautomer_probability>
1

> <r_epik_Ionization_Penalty>
  0.0506

> <r_epik_Ionization_Penalty_Charging>
  0.0409

> <r_epik_Ionization_Penalty_Neutral>
  0.0097

> <r_epik_State_Penalty>
 -0.0000

> <r_epik_Charging_Adjusted_Penalty>
0.0409099750272775

> <i_epik_Tot_Q>
3

> <i_epik_Tot_abs_Q>
3

> <s_epik_Chemistry_Notes>
This compound has an imine and may undergo hydrolysis.

$$$$
