4qtc_ligand
                    3D
 Schrodinger Suite 2020-3.
 79 85  0  0  1  0            999 V2000
   60.6110   33.0280   11.2180 O   0  0  0  0  0  0
   61.1170   32.8720   12.3240 C   0  0  0  0  0  0
   62.1000   31.9700   12.6080 N   0  0  0  0  0  0
   62.9610   31.3500   11.6710 C   0  0  0  0  0  0
   63.6260   30.2200   12.1310 C   0  0  0  0  0  0
   64.6090   29.6290   11.3220 C   0  0  0  0  0  0
   65.5780   28.5170   11.4290 C   0  0  0  0  0  0
   65.8090   27.5570   12.5340 C   0  0  0  0  0  0
   65.0900   27.5910   13.7080 C   0  0  0  0  0  0
   65.4270   26.7170   14.7300 C   0  0  0  0  0  0
   66.4320   25.8130   14.6440 N   0  3  0  0  0  0
   67.0970   25.7930   13.4920 C   0  0  0  0  0  0
   66.8350   26.6230   12.4200 C   0  0  0  0  0  0
   66.3010   28.4810   10.3460 N   0  3  0  0  0  0
   65.8890   29.4640    9.5140 N   0  0  0  0  0  0
   64.8720   30.1850   10.0660 C   0  0  0  0  0  0
   64.1790   31.2920    9.5980 C   0  0  0  0  0  0
   63.2120   31.8530   10.4100 C   0  0  0  0  0  0
   60.8440   33.7990   13.4880 C   0  0  2  0  0  0
   59.6390   33.1870   14.1280 C   0  0  0  0  0  0
   60.5500   35.2880   13.1530 C   0  0  0  0  0  0
   59.0800   35.2410   13.0810 N   0  3  3  0  0  0
   58.5480   33.9180   13.4220 C   0  0  0  0  0  0
   58.1810   36.3170   12.6590 C   0  0  0  0  0  0
   56.8510   35.7950   12.1140 C   0  0  0  0  0  0
   56.7860   34.6770   11.6140 O   0  0  0  0  0  0
   55.7580   36.5710   12.2420 N   0  0  0  0  0  0
   55.7130   37.9640   12.7270 C   0  0  0  0  0  0
   55.0060   38.8550   11.7120 C   0  0  0  0  0  0
   53.6920   38.3070   11.3620 N   0  0  0  0  0  0
   53.3690   37.0610   12.0630 C   0  0  0  0  0  0
   54.4530   36.0280   11.8430 C   0  0  0  0  0  0
   52.8120   38.8370   10.3960 C   0  0  0  0  0  0
   53.2920   39.4530    9.2360 C   0  0  0  0  0  0
   52.4250   39.7900    8.2080 C   0  0  0  0  0  0
   51.0600   39.5150    8.2920 C   0  0  0  0  0  0
   50.5820   38.9750    9.4840 C   0  0  0  0  0  0
   51.4360   38.6460   10.5190 C   0  0  0  0  0  0
   50.1730   39.6190    7.0920 C   0  0  0  0  0  0
   50.7190   40.1000    5.9650 N   0  0  0  0  0  0
   49.9370   40.0650    4.8740 C   0  0  0  0  0  0
   48.6520   39.5830    4.8780 C   0  0  0  0  0  0
   48.1880   39.1370    6.0910 C   0  0  0  0  0  0
   48.9210   39.1500    7.2150 N   0  0  0  0  0  0
   62.2805   31.6626   13.6486 H   0  0  0  0  0  0
   63.3795   29.8002   13.1174 H   0  0  0  0  0  0
   64.2674   28.2953   13.8320 H   0  0  0  0  0  0
   64.8510   26.7597   15.6544 H   0  0  0  0  0  0
   67.9061   25.0702   13.3869 H   0  0  0  0  0  0
   67.4197   26.5484   11.5031 H   0  0  0  0  0  0
   64.3832   31.7237    8.6071 H   0  0  0  0  0  0
   62.6276   32.7145   10.0547 H   0  0  0  0  0  0
   61.7444   33.8357   14.1189 H   0  0  0  0  0  0
   59.6358   32.1028   13.9420 H   0  0  0  0  0  0
   59.6651   33.3730   15.2118 H   0  0  0  0  0  0
   60.9401   35.9287   13.9575 H   0  0  0  0  0  0
   61.0380   35.5535   12.2036 H   0  0  0  0  0  0
   58.8697   36.3196   13.1295 H   0  0  0  0  0  0
   58.2633   33.3648   12.5148 H   0  0  0  0  0  0
   57.6759   34.0061   14.0866 H   0  0  0  0  0  0
   57.9609   36.9687   13.5174 H   0  0  0  0  0  0
   58.6623   36.9067   11.8649 H   0  0  0  0  0  0
   55.1665   38.0026   13.6809 H   0  0  0  0  0  0
   56.7382   38.3335   12.8766 H   0  0  0  0  0  0
   54.8683   39.8594   12.1389 H   0  0  0  0  0  0
   55.6150   38.9251   10.7986 H   0  0  0  0  0  0
   53.2801   37.2594   13.1413 H   0  0  0  0  0  0
   52.4162   36.6632   11.6836 H   0  0  0  0  0  0
   54.4797   35.7548   10.7778 H   0  0  0  0  0  0
   54.2277   35.1353   12.4449 H   0  0  0  0  0  0
   54.3558   39.6698    9.1393 H   0  0  0  0  0  0
   52.8176   40.2794    7.3167 H   0  0  0  0  0  0
   49.5113   38.8085    9.6026 H   0  0  0  0  0  0
   51.0297   38.2325   11.4421 H   0  0  0  0  0  0
   50.3446   40.4394    3.9350 H   0  0  0  0  0  0
   48.0395   39.5560    3.9768 H   0  0  0  0  0  0
   47.1697   38.7518    6.1437 H   0  0  0  0  0  0
   67.1260   27.8175   10.0474 H   0  0  0  0  0  0
   66.6533   25.1539   15.4964 H   0  0  0  0  0  0
  1  2  2  0  0  0
  2  3  1  0  0  0
  2 19  1  0  0  0
  3  4  1  0  0  0
  3 45  1  0  0  0
  4  5  2  0  0  0
  4 18  1  0  0  0
  5  6  1  0  0  0
  5 46  1  0  0  0
  6  7  2  0  0  0
  6 16  1  0  0  0
  7  8  1  0  0  0
  7 14  1  0  0  0
  8  9  2  0  0  0
  8 13  1  0  0  0
  9 10  1  0  0  0
  9 47  1  0  0  0
 10 11  2  0  0  0
 10 48  1  0  0  0
 11 12  1  0  0  0
 11 79  1  0  0  0
 12 13  2  0  0  0
 12 49  1  0  0  0
 13 50  1  0  0  0
 14 15  1  0  0  0
 14 78  1  0  0  0
 15 16  2  0  0  0
 16 17  1  0  0  0
 17 18  2  0  0  0
 17 51  1  0  0  0
 18 52  1  0  0  0
 19 20  1  0  0  0
 19 21  1  0  0  0
 19 53  1  0  0  0
 20 23  1  0  0  0
 20 54  1  0  0  0
 20 55  1  0  0  0
 21 22  1  0  0  0
 21 56  1  0  0  0
 21 57  1  0  0  0
 22 23  1  0  0  0
 22 24  1  0  0  0
 22 58  1  0  0  0
 23 59  1  0  0  0
 23 60  1  0  0  0
 24 25  1  0  0  0
 24 61  1  0  0  0
 24 62  1  0  0  0
 25 26  2  0  0  0
 25 27  1  0  0  0
 27 28  1  0  0  0
 27 32  1  0  0  0
 28 29  1  0  0  0
 28 63  1  0  0  0
 28 64  1  0  0  0
 29 30  1  0  0  0
 29 65  1  0  0  0
 29 66  1  0  0  0
 30 31  1  0  0  0
 30 33  1  0  0  0
 31 32  1  0  0  0
 31 67  1  0  0  0
 31 68  1  0  0  0
 32 69  1  0  0  0
 32 70  1  0  0  0
 33 34  2  0  0  0
 33 38  1  0  0  0
 34 35  1  0  0  0
 34 71  1  0  0  0
 35 36  2  0  0  0
 35 72  1  0  0  0
 36 37  1  0  0  0
 36 39  1  0  0  0
 37 38  2  0  0  0
 37 73  1  0  0  0
 38 74  1  0  0  0
 39 40  2  0  0  0
 39 44  1  0  0  0
 40 41  1  0  0  0
 41 42  2  0  0  0
 41 75  1  0  0  0
 42 43  1  0  0  0
 42 76  1  0  0  0
 43 44  2  0  0  0
 43 77  1  0  0  0
M  CHG  3  11   1  14   1  22   1
M  END
> <s_m_source_file>
../4qtc_ligand.sdf

> <i_m_source_file_index>
1

> <s_epik_input>
W2NIXTFbY0hdbltjSF1bY0hdYzEtYzJbbkhdbmMoYzIzKVtjSF1bY0hdYyhbY0hdMylbTkhdQyg9TylbQ0BASF00W0NIMl1bQ0gyXVtOSCtdKFtDSDJdNClbQ0gyXUMoPU8pTjVbQ0gyXVtDSDJdTihbQ0gyXVtDSDJdNSljNltjSF1bY0hdYyhbY0hdW2NIXTYpLWM3bltjSF1bY0hdW2NIXW43

> <s_epik_cmdline>
J2VwaWtfYXBwJywgJy1pbWFlJywgJ2xpZ2FuZF9wcm8ubWFlJywgJy1vbWFlJywgJ2xpZ2FuZF9wcmVwLm1hZScsICctbXMnLCAnMScsICctcGgnLCAnNycsICctcGh0JywgJzAuNScsICctbnQn

> <r_lp_tautomer_probability>
1

> <r_epik_Ionization_Penalty>
  0.0506

> <r_epik_Ionization_Penalty_Charging>
  0.0409

> <r_epik_Ionization_Penalty_Neutral>
  0.0097

> <r_epik_State_Penalty>
 -0.0000

> <r_epik_Charging_Adjusted_Penalty>
0.0409099750272771

> <i_epik_Tot_Q>
3

> <i_epik_Tot_abs_Q>
3

> <s_epik_Chemistry_Notes>
This compound has an imine and may undergo hydrolysis.

$$$$
