4qtd_ligand
                    3D
 Schrodinger Suite 2020-3.
 79 85  0  0  1  0            999 V2000
   23.4260   11.1210   31.5850 O   0  0  0  0  0  0
   22.6130   12.0430   31.8140 C   0  0  0  0  0  0
   21.3980   11.8900   32.3640 N   0  0  0  0  0  0
   20.7420   10.6900   32.7010 C   0  0  0  0  0  0
   21.2340    9.4360   32.3640 C   0  0  0  0  0  0
   20.4870    8.3190   32.6590 C   0  0  0  0  0  0
   20.6450    6.8610   32.4830 C   0  0  0  0  0  0
   21.7570    6.1170   31.8430 C   0  0  0  0  0  0
   22.6560    6.7600   31.0010 C   0  0  0  0  0  0
   23.7160    6.0390   30.4850 C   0  0  0  0  0  0
   23.9330    4.7470   30.7510 N   0  3  0  0  0  0
   23.0560    4.1360   31.5470 C   0  0  0  0  0  0
   21.9770    4.7770   32.1340 C   0  0  0  0  0  0
   19.5740    6.3060   32.9980 N   0  3  0  0  0  0
   18.7490    7.2430   33.4910 N   0  0  0  0  0  0
   19.2480    8.4770   33.3170 C   0  0  0  0  0  0
   18.7620    9.7180   33.6780 C   0  0  0  0  0  0
   19.5260   10.8230   33.3620 C   0  0  0  0  0  0
   22.9490   13.4910   31.6190 C   0  0  2  0  0  0
   22.1070   14.1410   30.4870 C   0  0  0  0  0  0
   24.4120   13.6690   31.2570 C   0  0  0  0  0  0
   24.1360   13.7990   29.8120 N   0  3  2  0  0  0
   23.1470   14.8430   29.6730 C   0  0  0  0  0  0
   24.4390   12.9340   28.7070 C   0  0  0  0  0  0
   25.4870   13.5120   27.7720 C   0  0  0  0  0  0
   25.3170   14.6310   27.2780 O   0  0  0  0  0  0
   26.5160   12.7170   27.4280 N   0  0  0  0  0  0
   26.8380   11.4500   28.0900 C   0  0  0  0  0  0
   26.8480   10.3410   27.0870 C   0  0  0  0  0  0
   27.8630   10.6100   26.0730 N   0  0  0  0  0  0
   27.6100   11.8820   25.3890 C   0  0  0  0  0  0
   27.4890   13.0410   26.3780 C   0  0  0  0  0  0
   28.4010    9.5410   25.3720 C   0  0  0  0  0  0
   28.2620    8.2320   25.8340 C   0  0  0  0  0  0
   28.7950    7.1740   25.1220 C   0  0  0  0  0  0
   29.4770    7.3800   23.9270 C   0  0  0  0  0  0
   29.6260    8.6860   23.4810 C   0  0  0  0  0  0
   29.1010    9.7510   24.1850 C   0  0  0  0  0  0
   30.0290    6.2400   23.1480 C   0  0  0  0  0  0
   29.8200    5.0080   23.6330 N   0  0  0  0  0  0
   30.2820    3.9960   22.8810 C   0  0  0  0  0  0
   30.9430    4.1760   21.6900 C   0  0  0  0  0  0
   31.1200    5.4800   21.3020 C   0  0  0  0  0  0
   30.6700    6.5310   22.0070 N   0  0  0  0  0  0
   20.7884   12.7732   32.6055 H   0  0  0  0  0  0
   22.2109    9.3439   31.8668 H   0  0  0  0  0  0
   22.5276    7.8134   30.7521 H   0  0  0  0  0  0
   24.4143    6.5525   29.8241 H   0  0  0  0  0  0
   23.1952    3.0736   31.7472 H   0  0  0  0  0  0
   21.3133    4.2397   32.8114 H   0  0  0  0  0  0
   17.8019    9.8441   34.1998 H   0  0  0  0  0  0
   19.1756   11.8298   33.6334 H   0  0  0  0  0  0
   22.7353   13.9558   32.5928 H   0  0  0  0  0  0
   21.5819   13.3557   29.9235 H   0  0  0  0  0  0
   21.3716   14.8307   30.9269 H   0  0  0  0  0  0
   24.8100   14.5591   31.7662 H   0  0  0  0  0  0
   24.9788   12.7812   31.5740 H   0  0  0  0  0  0
   25.1181   13.6816   29.3306 H   0  0  0  0  0  0
   22.7625   15.0157   28.6570 H   0  0  0  0  0  0
   23.3901   15.8079   30.1419 H   0  0  0  0  0  0
   24.8217   11.9750   29.0863 H   0  0  0  0  0  0
   23.5266   12.7576   28.1184 H   0  0  0  0  0  0
   27.8298   11.5236   28.5600 H   0  0  0  0  0  0
   26.0823   11.2363   28.8602 H   0  0  0  0  0  0
   27.0778    9.3915   27.5926 H   0  0  0  0  0  0
   25.8605   10.2714   26.6074 H   0  0  0  0  0  0
   28.4399   12.0995   24.7005 H   0  0  0  0  0  0
   26.6708   11.8123   24.8207 H   0  0  0  0  0  0
   27.1593   13.9406   25.8376 H   0  0  0  0  0  0
   28.4725   13.2272   26.8342 H   0  0  0  0  0  0
   27.7281    8.0418   26.7651 H   0  0  0  0  0  0
   28.6789    6.1597   25.5037 H   0  0  0  0  0  0
   30.1692    8.8746   22.5550 H   0  0  0  0  0  0
   29.2350   10.7654   23.8093 H   0  0  0  0  0  0
   30.1242    2.9770   23.2344 H   0  0  0  0  0  0
   31.3030    3.3382   21.0929 H   0  0  0  0  0  0
   31.6544    5.6735   20.3719 H   0  0  0  0  0  0
   19.3007    5.2426   33.0644 H   0  0  0  0  0  0
   24.8054    4.2354   30.3183 H   0  0  0  0  0  0
  1  2  2  0  0  0
  2  3  1  0  0  0
  2 19  1  0  0  0
  3  4  1  0  0  0
  3 45  1  0  0  0
  4  5  2  0  0  0
  4 18  1  0  0  0
  5  6  1  0  0  0
  5 46  1  0  0  0
  6  7  2  0  0  0
  6 16  1  0  0  0
  7  8  1  0  0  0
  7 14  1  0  0  0
  8  9  2  0  0  0
  8 13  1  0  0  0
  9 10  1  0  0  0
  9 47  1  0  0  0
 10 11  2  0  0  0
 10 48  1  0  0  0
 11 12  1  0  0  0
 11 79  1  0  0  0
 12 13  2  0  0  0
 12 49  1  0  0  0
 13 50  1  0  0  0
 14 15  1  0  0  0
 14 78  1  0  0  0
 15 16  2  0  0  0
 16 17  1  0  0  0
 17 18  2  0  0  0
 17 51  1  0  0  0
 18 52  1  0  0  0
 19 20  1  0  0  0
 19 21  1  0  0  0
 19 53  1  0  0  0
 20 23  1  0  0  0
 20 54  1  0  0  0
 20 55  1  0  0  0
 21 22  1  0  0  0
 21 56  1  0  0  0
 21 57  1  0  0  0
 22 23  1  0  0  0
 22 24  1  0  0  0
 22 58  1  0  0  0
 23 59  1  0  0  0
 23 60  1  0  0  0
 24 25  1  0  0  0
 24 61  1  0  0  0
 24 62  1  0  0  0
 25 26  2  0  0  0
 25 27  1  0  0  0
 27 28  1  0  0  0
 27 32  1  0  0  0
 28 29  1  0  0  0
 28 63  1  0  0  0
 28 64  1  0  0  0
 29 30  1  0  0  0
 29 65  1  0  0  0
 29 66  1  0  0  0
 30 31  1  0  0  0
 30 33  1  0  0  0
 31 32  1  0  0  0
 31 67  1  0  0  0
 31 68  1  0  0  0
 32 69  1  0  0  0
 32 70  1  0  0  0
 33 34  2  0  0  0
 33 38  1  0  0  0
 34 35  1  0  0  0
 34 71  1  0  0  0
 35 36  2  0  0  0
 35 72  1  0  0  0
 36 37  1  0  0  0
 36 39  1  0  0  0
 37 38  2  0  0  0
 37 73  1  0  0  0
 38 74  1  0  0  0
 39 40  2  0  0  0
 39 44  1  0  0  0
 40 41  1  0  0  0
 41 42  2  0  0  0
 41 75  1  0  0  0
 42 43  1  0  0  0
 42 76  1  0  0  0
 43 44  2  0  0  0
 43 77  1  0  0  0
M  CHG  3  11   1  14   1  22   1
M  END
> <s_m_source_file>
../4qtd_ligand.sdf

> <i_m_source_file_index>
1

> <s_epik_input>
W2NIXTFbY0hdbltjSF1bY0hdYzEtYzJbbkhdbmMoYzIzKVtjSF1bY0hdYyhbY0hdMylbTkhdQyg9TylbQ0BASF00W0NIMl1bQ0gyXVtOQEBIK10oW0NIMl00KVtDSDJdQyg9TylONVtDSDJdW0NIMl1OKFtDSDJdW0NIMl01KWM2W2NIXVtjSF1jKFtjSF1bY0hdNiktYzduW2NIXVtjSF1bY0hdbjc=

> <s_epik_cmdline>
J2VwaWtfYXBwJywgJy1pbWFlJywgJ2xpZ2FuZF9wcm8ubWFlJywgJy1vbWFlJywgJ2xpZ2FuZF9wcmVwLm1hZScsICctbXMnLCAnMScsICctcGgnLCAnNycsICctcGh0JywgJzAuNScsICctbnQn

> <r_lp_tautomer_probability>
1

> <r_epik_Ionization_Penalty>
  0.0506

> <r_epik_Ionization_Penalty_Charging>
  0.0409

> <r_epik_Ionization_Penalty_Neutral>
  0.0097

> <r_epik_State_Penalty>
 -0.0000

> <r_epik_Charging_Adjusted_Penalty>
0.040909975027277

> <i_epik_Tot_Q>
3

> <i_epik_Tot_abs_Q>
3

> <s_epik_Chemistry_Notes>
This compound has an imine and may undergo hydrolysis.

$$$$
