4quo_ligand
                    3D
 Schrodinger Suite 2020-3.
 54 55  0  0  1  0            999 V2000
  -38.7410  -11.9110  -22.0660 O   0  5  0  0  0  0
  -39.2240  -13.0300  -21.7440 C   0  0  0  0  0  0
  -38.9210  -13.5410  -20.6380 O   0  0  0  0  0  0
  -40.1450  -13.8150  -22.6790 C   0  0  2  0  0  0
  -39.2800  -14.3500  -23.7990 C   0  0  0  0  0  0
  -38.2170  -15.3170  -23.3230 C   0  0  0  0  0  0
  -38.5420  -16.6600  -23.1820 C   0  0  0  0  0  0
  -37.5780  -17.5880  -22.7840 C   0  0  0  0  0  0
  -36.2750  -17.1660  -22.5300 C   0  0  0  0  0  0
  -35.9440  -15.8220  -22.6850 C   0  0  0  0  0  0
  -34.5270  -15.4040  -22.4080 C   0  0  0  0  0  0
  -34.4440  -14.7110  -21.1190 N   0  3  0  0  0  0
  -36.9130  -14.8820  -23.0880 C   0  0  0  0  0  0
  -41.2040  -13.0070  -23.4050 C   0  0  0  0  0  0
  -42.8990  -13.6910  -23.3900 P   0  0  1  0  0  0
  -43.2980  -14.5810  -24.5250 O   0  5  0  0  0  0
  -43.0840  -14.4090  -22.1180 O   0  0  0  0  0  0
  -44.0850  -12.3240  -23.4140 C   0  0  1  0  0  0
  -45.4660  -12.9280  -23.3140 N   0  3  0  0  0  0
  -43.7610  -11.3310  -22.3210 C   0  0  0  0  0  0
  -44.7350  -10.1810  -22.3590 C   0  0  0  0  0  0
  -44.2070   -8.7720  -22.3140 C   0  0  0  0  0  0
  -43.3840   -8.2990  -23.3280 C   0  0  0  0  0  0
  -44.6240   -7.9320  -21.2780 C   0  0  0  0  0  0
  -44.1650   -6.6050  -21.2830 C   0  0  0  0  0  0
  -43.2950   -6.1380  -22.2920 C   0  0  0  0  0  0
  -42.8980   -6.9850  -23.3250 C   0  0  0  0  0  0
  -40.6530  -14.5543  -22.0424 H   0  0  0  0  0  0
  -39.9103  -14.8818  -24.5270 H   0  0  0  0  0  0
  -38.7684  -13.5141  -24.2985 H   0  0  0  0  0  0
  -39.5601  -16.9928  -23.3842 H   0  0  0  0  0  0
  -37.8440  -18.6391  -22.6724 H   0  0  0  0  0  0
  -35.5187  -17.8835  -22.2117 H   0  0  0  0  0  0
  -33.8811  -16.2940  -22.3796 H   0  0  0  0  0  0
  -34.1826  -14.7262  -23.2030 H   0  0  0  0  0  0
  -33.4025  -14.4115  -20.9301 H   0  0  0  0  0  0
  -34.7828  -15.3846  -20.3181 H   0  0  0  0  0  0
  -35.0843  -13.8169  -21.1415 H   0  0  0  0  0  0
  -36.6479  -13.8323  -23.2140 H   0  0  0  0  0  0
  -41.2778  -12.0077  -22.9513 H   0  0  0  0  0  0
  -40.9276  -12.9088  -24.4652 H   0  0  0  0  0  0
  -44.1756  -11.6373  -24.2685 H   0  0  0  0  0  0
  -45.6179  -13.6349  -24.1430 H   0  0  0  0  0  0
  -46.2204  -12.1294  -23.3702 H   0  0  0  0  0  0
  -45.5652  -13.4595  -22.3560 H   0  0  0  0  0  0
  -43.8282  -11.8283  -21.3421 H   0  0  0  0  0  0
  -42.7414  -10.9449  -22.4668 H   0  0  0  0  0  0
  -45.3190  -10.2258  -23.2901 H   0  0  0  0  0  0
  -45.4145  -10.2473  -21.4965 H   0  0  0  0  0  0
  -43.1098   -8.9659  -24.1454 H   0  0  0  0  0  0
  -45.2847   -8.2954  -20.4909 H   0  0  0  0  0  0
  -44.4858   -5.9240  -20.4946 H   0  0  0  0  0  0
  -42.9322   -5.1105  -22.2629 H   0  0  0  0  0  0
  -42.2274   -6.6346  -24.1096 H   0  0  0  0  0  0
  1  2  1  0  0  0
  2  3  2  0  0  0
  2  4  1  0  0  0
  4  5  1  0  0  0
  4 14  1  0  0  0
  4 28  1  0  0  0
  5  6  1  0  0  0
  5 29  1  0  0  0
  5 30  1  0  0  0
  6  7  2  0  0  0
  6 13  1  0  0  0
  7  8  1  0  0  0
  7 31  1  0  0  0
  8  9  2  0  0  0
  8 32  1  0  0  0
  9 10  1  0  0  0
  9 33  1  0  0  0
 10 11  1  0  0  0
 10 13  2  0  0  0
 11 12  1  0  0  0
 11 34  1  0  0  0
 11 35  1  0  0  0
 12 36  1  0  0  0
 12 37  1  0  0  0
 12 38  1  0  0  0
 13 39  1  0  0  0
 14 15  1  0  0  0
 14 40  1  0  0  0
 14 41  1  0  0  0
 15 16  1  0  0  0
 15 17  2  0  0  0
 15 18  1  0  0  0
 18 19  1  0  0  0
 18 20  1  0  0  0
 18 42  1  0  0  0
 19 43  1  0  0  0
 19 44  1  0  0  0
 19 45  1  0  0  0
 20 21  1  0  0  0
 20 46  1  0  0  0
 20 47  1  0  0  0
 21 22  1  0  0  0
 21 48  1  0  0  0
 21 49  1  0  0  0
 22 23  2  0  0  0
 22 24  1  0  0  0
 23 27  1  0  0  0
 23 50  1  0  0  0
 24 25  2  0  0  0
 24 51  1  0  0  0
 25 26  1  0  0  0
 25 52  1  0  0  0
 26 27  2  0  0  0
 26 53  1  0  0  0
 27 54  1  0  0  0
M  CHG  4   1  -1  12   1  16  -1  19   1
M  END
> <s_m_source_file>
../4quo_ligand.sdf

> <i_m_source_file_index>
1

> <s_epik_input>
W05IMytdW0NIMl1jKFtjSF0xKVtjSF1bY0hdW2NIXWMxW0NIMl1bQ0BASF0oQyg9TylbT0hdKVtDSDJdW1BAXSg9TykoW09IXSlbQ0BASF0oW05IMytdKVtDSDJdW0NIMl1jMltjSF1bY0hdW2NIXVtjSF1bY0hdMg==

> <s_epik_cmdline>
J2VwaWtfYXBwJywgJy1pbWFlJywgJ2xpZ2FuZF9wcm8ubWFlJywgJy1vbWFlJywgJ2xpZ2FuZF9wcmVwLm1hZScsICctbXMnLCAnMScsICctcGgnLCAnNycsICctcGh0JywgJzAuNScsICctbnQn

> <r_epik_Ionization_Penalty>
  0.0285

> <r_epik_Ionization_Penalty_Charging>
  0.0285

> <r_epik_Ionization_Penalty_Neutral>
  0.0000

> <r_epik_State_Penalty>
  0.0219

> <r_epik_Charging_Adjusted_Penalty>
0.0503590814483886

> <i_epik_Tot_Q>
0

> <i_epik_Tot_abs_Q>
4

$$$$
