4qvl_ligand
                    3D
 Schrodinger Suite 2020-3.
 53 54  0  0  1  0            999 V2000
   62.1320 -133.0510   35.7460 N   0  0  0  0  0  0
   61.6880 -134.2810   36.0530 C   0  0  0  0  0  0
   61.7530 -135.3110   35.1140 C   0  0  0  0  0  0
   62.2880 -135.0660   33.8450 N   0  0  0  0  0  0
   62.7490 -133.7850   33.5290 C   0  0  0  0  0  0
   62.6710 -132.7730   34.4820 C   0  0  0  0  0  0
   61.1640 -134.5050   37.3200 C   0  0  0  0  0  0
   60.4080 -133.6800   37.8320 O   0  0  0  0  0  0
   61.5490 -135.6500   37.9150 N   0  0  0  0  0  0
   61.1060 -136.0010   39.2700 C   0  0  1  0  0  0
   60.4360 -137.3530   39.3160 C   0  0  0  0  0  0
   59.2450 -137.2400   38.5780 C   0  0  0  0  0  0
   59.0750 -137.9570   37.3900 C   0  0  0  0  0  0
   57.8910 -137.8460   36.6620 C   0  0  0  0  0  0
   56.8650 -137.0210   37.1150 C   0  0  0  0  0  0
   57.0260 -136.3070   38.2990 C   0  0  0  0  0  0
   58.2080 -136.4180   39.0300 C   0  0  0  0  0  0
   62.3460 -136.0390   40.1460 C   0  0  0  0  0  0
   63.4670 -136.1160   39.6420 O   0  0  0  0  0  0
   62.0980 -135.9560   41.4610 N   0  0  0  0  0  0
   63.1870 -135.9340   42.4450 C   0  0  1  0  0  0
   63.1930 -134.6140   43.1820 C   0  0  0  0  0  0
   63.2390 -133.4660   42.1510 C   0  0  0  0  0  0
   62.8430 -132.1620   42.8490 C   0  0  0  0  0  0
   64.6320 -133.3480   41.5130 C   0  0  0  0  0  0
   63.0230 -137.0550   43.4810 B   0  0  0  0  0  0
   61.7770 -136.9160   44.1860 O   0  0  0  0  0  0
   63.0660 -138.3350   42.8380 O   0  0  0  0  0  0
   61.3872 -136.3056   35.3691 H   0  0  0  0  0  0
   63.1667 -133.5797   32.5434 H   0  0  0  0  0  0
   63.0271 -131.7700   34.2466 H   0  0  0  0  0  0
   62.2122 -136.3297   37.3598 H   0  0  0  0  0  0
   60.3702 -135.2463   39.5845 H   0  0  0  0  0  0
   61.1016 -138.1074   38.8711 H   0  0  0  0  0  0
   60.2241 -137.6219   40.3614 H   0  0  0  0  0  0
   59.8729 -138.6068   37.0306 H   0  0  0  0  0  0
   57.7683 -138.4068   35.7354 H   0  0  0  0  0  0
   55.9399 -136.9346   36.5451 H   0  0  0  0  0  0
   56.2254 -135.6590   38.6558 H   0  0  0  0  0  0
   58.3245 -135.8607   39.9595 H   0  0  0  0  0  0
   61.0519 -135.9039   41.7971 H   0  0  0  0  0  0
   64.1099 -136.0650   41.8610 H   0  0  0  0  0  0
   62.2811 -134.5302   43.7914 H   0  0  0  0  0  0
   64.0765 -134.5628   43.8353 H   0  0  0  0  0  0
   62.5288 -133.6706   41.3363 H   0  0  0  0  0  0
   61.8441 -132.2740   43.2959 H   0  0  0  0  0  0
   62.8264 -131.3434   42.1145 H   0  0  0  0  0  0
   63.5740 -131.9319   43.6381 H   0  0  0  0  0  0
   64.8908 -134.2965   41.0196 H   0  0  0  0  0  0
   65.3750 -133.1258   42.2932 H   0  0  0  0  0  0
   64.6273 -132.5373   40.7695 H   0  0  0  0  0  0
   61.5609 -135.9932   44.7443 H   0  0  0  0  0  0
   63.9474 -138.6241   42.2467 H   0  0  0  0  0  0
  1  2  2  0  0  0
  1  6  1  0  0  0
  2  3  1  0  0  0
  2  7  1  0  0  0
  3  4  2  0  0  0
  3 29  1  0  0  0
  4  5  1  0  0  0
  5  6  2  0  0  0
  5 30  1  0  0  0
  6 31  1  0  0  0
  7  8  2  0  0  0
  7  9  1  0  0  0
  9 10  1  0  0  0
  9 32  1  0  0  0
 10 11  1  0  0  0
 10 18  1  0  0  0
 10 33  1  0  0  0
 11 12  1  0  0  0
 11 34  1  0  0  0
 11 35  1  0  0  0
 12 13  2  0  0  0
 12 17  1  0  0  0
 13 14  1  0  0  0
 13 36  1  0  0  0
 14 15  2  0  0  0
 14 37  1  0  0  0
 15 16  1  0  0  0
 15 38  1  0  0  0
 16 17  2  0  0  0
 16 39  1  0  0  0
 17 40  1  0  0  0
 18 19  2  0  0  0
 18 20  1  0  0  0
 20 21  1  0  0  0
 20 41  1  0  0  0
 21 22  1  0  0  0
 21 26  1  0  0  0
 21 42  1  0  0  0
 22 23  1  0  0  0
 22 43  1  0  0  0
 22 44  1  0  0  0
 23 24  1  0  0  0
 23 25  1  0  0  0
 23 45  1  0  0  0
 24 46  1  0  0  0
 24 47  1  0  0  0
 24 48  1  0  0  0
 25 49  1  0  0  0
 25 50  1  0  0  0
 25 51  1  0  0  0
 26 27  1  0  0  0
 26 28  1  0  0  0
 27 52  1  0  0  0
 28 53  1  0  0  0
M  END
> <s_m_source_file>
../4qvl_ligand.sdf

> <i_m_source_file_index>
1

> <s_epik_input>
W2NIXTFuW2NIXVtjSF1uYzFDKD1PKVtOSF1bQ0BIXShDKD1PKVtOSF1bQ0BIXShCKFtPSF0pW09IXSlbQ0gyXVtDSF0oW0NIM10pW0NIM10pW0NIMl1jMltjSF1bY0hdW2NIXVtjSF1bY0hdMg==

> <s_epik_cmdline>
J2VwaWtfYXBwJywgJy1pbWFlJywgJ2xpZ2FuZF9wcm8ubWFlJywgJy1vbWFlJywgJ2xpZ2FuZF9wcmVwLm1hZScsICctbXMnLCAnMScsICctcGgnLCAnNycsICctcGh0JywgJzAuNScsICctbnQn

> <r_lp_tautomer_probability>
1

> <r_epik_Ionization_Penalty>
  0.0000

> <r_epik_Ionization_Penalty_Charging>
  0.0000

> <r_epik_Ionization_Penalty_Neutral>
  0.0000

> <r_epik_State_Penalty>
 -0.0000

> <r_epik_Charging_Adjusted_Penalty>
0

> <i_epik_Tot_Q>
0

> <i_epik_Tot_abs_Q>
0

> <s_epik_Chemistry_Notes>
This compound contains a Lewis acid (boronic acid) which adds nucleophiles to form tetrahedral complexes, lowering the experimental pKa

$$$$
