4qvm_ligand
                    3D
 Schrodinger Suite 2020-3.
 53 54  0  0  1  0            999 V2000
   62.8590 -132.9540   36.0060 N   0  0  0  0  0  0
   62.3250 -134.1520   36.2970 C   0  0  0  0  0  0
   62.3150 -135.1640   35.3410 C   0  0  0  0  0  0
   62.8660 -134.9310   34.0780 N   0  0  0  0  0  0
   63.4200 -133.6830   33.7810 C   0  0  0  0  0  0
   63.4160 -132.6890   34.7490 C   0  0  0  0  0  0
   61.7860 -134.3510   37.5640 C   0  0  0  0  0  0
   61.1620 -133.4480   38.1180 O   0  0  0  0  0  0
   61.9940 -135.5610   38.1120 N   0  0  0  0  0  0
   61.5170 -135.8760   39.4640 C   0  0  1  0  0  0
   60.8160 -137.2060   39.5170 C   0  0  0  0  0  0
   59.6380 -137.0810   38.7640 C   0  0  0  0  0  0
   59.4790 -137.7960   37.5750 C   0  0  0  0  0  0
   58.3060 -137.6760   36.8340 C   0  0  0  0  0  0
   57.2810 -136.8420   37.2750 C   0  0  0  0  0  0
   57.4310 -136.1300   38.4610 C   0  0  0  0  0  0
   58.6030 -136.2520   39.2030 C   0  0  0  0  0  0
   62.7510 -135.9390   40.3400 C   0  0  0  0  0  0
   63.8640 -136.0290   39.8250 O   0  0  0  0  0  0
   62.5290 -135.8500   41.6590 N   0  0  0  0  0  0
   63.6510 -135.8520   42.6130 C   0  0  1  0  0  0
   63.7040 -134.5440   43.3650 C   0  0  0  0  0  0
   63.6750 -133.3700   42.3580 C   0  0  0  0  0  0
   63.0890 -132.1360   43.0550 C   0  0  0  0  0  0
   65.0790 -133.0720   41.8080 C   0  0  0  0  0  0
   63.5060 -136.9860   43.6440 B   0  0  0  0  0  0
   62.1960 -136.9490   44.2310 O   0  0  0  0  0  0
   63.7210 -138.2570   43.0170 O   0  0  0  0  0  0
   61.8789 -136.1347   35.5768 H   0  0  0  0  0  0
   63.8512 -133.4922   32.7982 H   0  0  0  0  0  0
   63.8430 -131.7097   34.5327 H   0  0  0  0  0  0
   62.5327 -136.3216   37.5277 H   0  0  0  0  0  0
   60.7940 -135.1043   39.7668 H   0  0  0  0  0  0
   61.4688 -137.9818   39.0904 H   0  0  0  0  0  0
   60.5836 -137.4566   40.5626 H   0  0  0  0  0  0
   60.2768 -138.4512   37.2253 H   0  0  0  0  0  0
   58.1896 -138.2363   35.9063 H   0  0  0  0  0  0
   56.3644 -136.7475   36.6928 H   0  0  0  0  0  0
   56.6310 -135.4767   38.8093 H   0  0  0  0  0  0
   58.7137 -135.6961   40.1340 H   0  0  0  0  0  0
   61.4949 -135.7749   42.0263 H   0  0  0  0  0  0
   64.5530 -135.9828   41.9971 H   0  0  0  0  0  0
   62.8365 -134.4723   44.0375 H   0  0  0  0  0  0
   64.6307 -134.4980   43.9558 H   0  0  0  0  0  0
   63.0436 -133.6369   41.4977 H   0  0  0  0  0  0
   62.0861 -132.3737   43.4393 H   0  0  0  0  0  0
   63.0189 -131.3071   42.3353 H   0  0  0  0  0  0
   63.7417 -131.8422   43.8903 H   0  0  0  0  0  0
   65.4774 -133.9703   41.3137 H   0  0  0  0  0  0
   65.7435 -132.7838   42.6359 H   0  0  0  0  0  0
   65.0208 -132.2487   41.0809 H   0  0  0  0  0  0
   61.8550 -136.0460   44.7586 H   0  0  0  0  0  0
   64.6757 -138.4669   42.5125 H   0  0  0  0  0  0
  1  2  2  0  0  0
  1  6  1  0  0  0
  2  3  1  0  0  0
  2  7  1  0  0  0
  3  4  2  0  0  0
  3 29  1  0  0  0
  4  5  1  0  0  0
  5  6  2  0  0  0
  5 30  1  0  0  0
  6 31  1  0  0  0
  7  8  2  0  0  0
  7  9  1  0  0  0
  9 10  1  0  0  0
  9 32  1  0  0  0
 10 11  1  0  0  0
 10 18  1  0  0  0
 10 33  1  0  0  0
 11 12  1  0  0  0
 11 34  1  0  0  0
 11 35  1  0  0  0
 12 13  2  0  0  0
 12 17  1  0  0  0
 13 14  1  0  0  0
 13 36  1  0  0  0
 14 15  2  0  0  0
 14 37  1  0  0  0
 15 16  1  0  0  0
 15 38  1  0  0  0
 16 17  2  0  0  0
 16 39  1  0  0  0
 17 40  1  0  0  0
 18 19  2  0  0  0
 18 20  1  0  0  0
 20 21  1  0  0  0
 20 41  1  0  0  0
 21 22  1  0  0  0
 21 26  1  0  0  0
 21 42  1  0  0  0
 22 23  1  0  0  0
 22 43  1  0  0  0
 22 44  1  0  0  0
 23 24  1  0  0  0
 23 25  1  0  0  0
 23 45  1  0  0  0
 24 46  1  0  0  0
 24 47  1  0  0  0
 24 48  1  0  0  0
 25 49  1  0  0  0
 25 50  1  0  0  0
 25 51  1  0  0  0
 26 27  1  0  0  0
 26 28  1  0  0  0
 27 52  1  0  0  0
 28 53  1  0  0  0
M  END
> <s_m_source_file>
../4qvm_ligand.sdf

> <i_m_source_file_index>
1

> <s_epik_input>
W2NIXTFuW2NIXVtjSF1uYzFDKD1PKVtOSF1bQ0BIXShDKD1PKVtOSF1bQ0BIXShCKFtPSF0pW09IXSlbQ0gyXVtDSF0oW0NIM10pW0NIM10pW0NIMl1jMltjSF1bY0hdW2NIXVtjSF1bY0hdMg==

> <s_epik_cmdline>
J2VwaWtfYXBwJywgJy1pbWFlJywgJ2xpZ2FuZF9wcm8ubWFlJywgJy1vbWFlJywgJ2xpZ2FuZF9wcmVwLm1hZScsICctbXMnLCAnMScsICctcGgnLCAnNycsICctcGh0JywgJzAuNScsICctbnQn

> <r_lp_tautomer_probability>
1

> <r_epik_Ionization_Penalty>
  0.0000

> <r_epik_Ionization_Penalty_Charging>
  0.0000

> <r_epik_Ionization_Penalty_Neutral>
  0.0000

> <r_epik_State_Penalty>
 -0.0000

> <r_epik_Charging_Adjusted_Penalty>
0

> <i_epik_Tot_Q>
0

> <i_epik_Tot_abs_Q>
0

> <s_epik_Chemistry_Notes>
This compound contains a Lewis acid (boronic acid) which adds nucleophiles to form tetrahedral complexes, lowering the experimental pKa

$$$$
