4qvn_ligand
                    3D
 Schrodinger Suite 2020-3.
 53 54  0  0  1  0            999 V2000
   62.0130 -133.2360   36.1080 N   0  0  0  0  0  0
   61.4910 -134.4520   36.3270 C   0  0  0  0  0  0
   61.5630 -135.4380   35.3450 C   0  0  0  0  0  0
   62.1860 -135.1560   34.1260 N   0  0  0  0  0  0
   62.7270 -133.8850   33.9020 C   0  0  0  0  0  0
   62.6390 -132.9220   34.8980 C   0  0  0  0  0  0
   60.8870 -134.7000   37.5540 C   0  0  0  0  0  0
   60.1050 -133.8830   38.0390 O   0  0  0  0  0  0
   61.2340 -135.8540   38.1470 N   0  0  0  0  0  0
   60.7270 -136.2210   39.4740 C   0  0  1  0  0  0
   60.0300 -137.5600   39.4530 C   0  0  0  0  0  0
   58.8500 -137.3820   38.7050 C   0  0  0  0  0  0
   58.6960 -137.9950   37.4580 C   0  0  0  0  0  0
   57.5230 -137.8160   36.7250 C   0  0  0  0  0  0
   56.4920 -137.0270   37.2270 C   0  0  0  0  0  0
   56.6360 -136.4160   38.4680 C   0  0  0  0  0  0
   57.8070 -136.5960   39.2050 C   0  0  0  0  0  0
   61.9570 -136.2780   40.3660 C   0  0  0  0  0  0
   63.0760 -136.3930   39.8700 O   0  0  0  0  0  0
   61.7260 -136.1450   41.6750 N   0  0  0  0  0  0
   62.8420 -136.1350   42.6320 C   0  0  1  0  0  0
   62.8940 -134.8250   43.3870 C   0  0  0  0  0  0
   62.8210 -133.6410   42.4020 C   0  0  0  0  0  0
   62.5020 -132.3670   43.2030 C   0  0  0  0  0  0
   64.1370 -133.4880   41.6210 C   0  0  0  0  0  0
   62.6810 -137.2530   43.6690 B   0  0  0  0  0  0
   61.4210 -137.1140   44.3530 O   0  0  0  0  0  0
   62.7390 -138.5320   43.0270 O   0  0  0  0  0  0
   61.1357 -136.4242   35.5266 H   0  0  0  0  0  0
   63.2130 -133.6533   32.9543 H   0  0  0  0  0  0
   63.0553 -131.9275   34.7377 H   0  0  0  0  0  0
   61.9163 -136.5312   37.6123 H   0  0  0  0  0  0
   59.9805 -135.4824   39.8013 H   0  0  0  0  0  0
   60.6858 -138.3074   38.9825 H   0  0  0  0  0  0
   59.8006 -137.8702   40.4831 H   0  0  0  0  0  0
   59.4968 -138.6160   37.0565 H   0  0  0  0  0  0
   57.4130 -138.2969   35.7530 H   0  0  0  0  0  0
   55.5771 -136.8888   36.6508 H   0  0  0  0  0  0
   55.8328 -135.7955   38.8655 H   0  0  0  0  0  0
   57.9098 -136.1194   40.1799 H   0  0  0  0  0  0
   60.6917 -136.0425   42.0352 H   0  0  0  0  0  0
   63.7442 -136.2690   42.0171 H   0  0  0  0  0  0
   62.0435 -134.7685   44.0823 H   0  0  0  0  0  0
   63.8351 -134.7653   43.9534 H   0  0  0  0  0  0
   62.0300 -133.8206   41.6590 H   0  0  0  0  0  0
   61.5578 -132.5048   43.7503 H   0  0  0  0  0  0
   62.4054 -131.5151   42.5138 H   0  0  0  0  0  0
   63.3147 -132.1701   43.9177 H   0  0  0  0  0  0
   64.3393 -134.4117   41.0590 H   0  0  0  0  0  0
   64.9611 -133.2989   42.3247 H   0  0  0  0  0  0
   64.0518 -132.6439   40.9208 H   0  0  0  0  0  0
   61.1947 -136.1909   44.9067 H   0  0  0  0  0  0
   63.6318 -138.8188   42.4520 H   0  0  0  0  0  0
  1  2  2  0  0  0
  1  6  1  0  0  0
  2  3  1  0  0  0
  2  7  1  0  0  0
  3  4  2  0  0  0
  3 29  1  0  0  0
  4  5  1  0  0  0
  5  6  2  0  0  0
  5 30  1  0  0  0
  6 31  1  0  0  0
  7  8  2  0  0  0
  7  9  1  0  0  0
  9 10  1  0  0  0
  9 32  1  0  0  0
 10 11  1  0  0  0
 10 18  1  0  0  0
 10 33  1  0  0  0
 11 12  1  0  0  0
 11 34  1  0  0  0
 11 35  1  0  0  0
 12 13  2  0  0  0
 12 17  1  0  0  0
 13 14  1  0  0  0
 13 36  1  0  0  0
 14 15  2  0  0  0
 14 37  1  0  0  0
 15 16  1  0  0  0
 15 38  1  0  0  0
 16 17  2  0  0  0
 16 39  1  0  0  0
 17 40  1  0  0  0
 18 19  2  0  0  0
 18 20  1  0  0  0
 20 21  1  0  0  0
 20 41  1  0  0  0
 21 22  1  0  0  0
 21 26  1  0  0  0
 21 42  1  0  0  0
 22 23  1  0  0  0
 22 43  1  0  0  0
 22 44  1  0  0  0
 23 24  1  0  0  0
 23 25  1  0  0  0
 23 45  1  0  0  0
 24 46  1  0  0  0
 24 47  1  0  0  0
 24 48  1  0  0  0
 25 49  1  0  0  0
 25 50  1  0  0  0
 25 51  1  0  0  0
 26 27  1  0  0  0
 26 28  1  0  0  0
 27 52  1  0  0  0
 28 53  1  0  0  0
M  END
> <s_m_source_file>
../4qvn_ligand.sdf

> <i_m_source_file_index>
1

> <s_epik_input>
W2NIXTFuW2NIXVtjSF1uYzFDKD1PKVtOSF1bQ0BIXShDKD1PKVtOSF1bQ0BIXShCKFtPSF0pW09IXSlbQ0gyXVtDSF0oW0NIM10pW0NIM10pW0NIMl1jMltjSF1bY0hdW2NIXVtjSF1bY0hdMg==

> <s_epik_cmdline>
J2VwaWtfYXBwJywgJy1pbWFlJywgJ2xpZ2FuZF9wcm8ubWFlJywgJy1vbWFlJywgJ2xpZ2FuZF9wcmVwLm1hZScsICctbXMnLCAnMScsICctcGgnLCAnNycsICctcGh0JywgJzAuNScsICctbnQn

> <r_lp_tautomer_probability>
1

> <r_epik_Ionization_Penalty>
  0.0000

> <r_epik_Ionization_Penalty_Charging>
  0.0000

> <r_epik_Ionization_Penalty_Neutral>
  0.0000

> <r_epik_State_Penalty>
 -0.0000

> <r_epik_Charging_Adjusted_Penalty>
0

> <i_epik_Tot_Q>
0

> <i_epik_Tot_abs_Q>
0

> <s_epik_Chemistry_Notes>
This compound contains a Lewis acid (boronic acid) which adds nucleophiles to form tetrahedral complexes, lowering the experimental pKa

$$$$
