4qvp_ligand
                    3D
 Schrodinger Suite 2020-3.
 53 54  0  0  1  0            999 V2000
   62.6180 -133.2940   35.8870 N   0  0  0  0  0  0
   62.1700 -134.5270   36.1760 C   0  0  0  0  0  0
   62.2780 -135.5510   35.2360 C   0  0  0  0  0  0
   62.8580 -135.2960   33.9890 N   0  0  0  0  0  0
   63.3210 -134.0080   33.6940 C   0  0  0  0  0  0
   63.2000 -133.0040   34.6470 C   0  0  0  0  0  0
   61.6030 -134.7440   37.4270 C   0  0  0  0  0  0
   60.9890 -133.8390   37.9910 O   0  0  0  0  0  0
   61.7840 -135.9700   37.9510 N   0  0  0  0  0  0
   61.2870 -136.3170   39.2860 C   0  0  1  0  0  0
   60.5410 -137.6290   39.2560 C   0  0  0  0  0  0
   59.3420 -137.4010   38.5550 C   0  0  0  0  0  0
   59.1470 -137.9340   37.2780 C   0  0  0  0  0  0
   57.9540 -137.7070   36.5940 C   0  0  0  0  0  0
   56.9420 -136.9500   37.1800 C   0  0  0  0  0  0
   57.1280 -136.4180   38.4520 C   0  0  0  0  0  0
   58.3190 -136.6460   39.1370 C   0  0  0  0  0  0
   62.5260 -136.4420   40.1700 C   0  0  0  0  0  0
   63.5880 -136.8290   39.6860 O   0  0  0  0  0  0
   62.3680 -136.0750   41.4510 N   0  0  0  0  0  0
   63.4900 -136.1200   42.4040 C   0  0  1  0  0  0
   63.6860 -134.7980   43.1160 C   0  0  0  0  0  0
   63.6050 -133.6290   42.1140 C   0  0  0  0  0  0
   63.2270 -132.3560   42.8850 C   0  0  0  0  0  0
   64.9380 -133.4260   41.3740 C   0  0  0  0  0  0
   63.2270 -137.1830   43.4840 B   0  0  0  0  0  0
   62.0000 -136.8790   44.1710 O   0  0  0  0  0  0
   63.1270 -138.4800   42.8880 O   0  0  0  0  0  0
   61.9107 -136.5496   35.4727 H   0  0  0  0  0  0
   63.7725 -133.7947   32.7251 H   0  0  0  0  0  0
   63.5560 -131.9968   34.4305 H   0  0  0  0  0  0
   62.3200 -136.7205   37.3514 H   0  0  0  0  0  0
   60.5840 -135.5430   39.6276 H   0  0  0  0  0  0
   61.1530 -138.3872   38.7455 H   0  0  0  0  0  0
   60.3344 -137.9570   40.2854 H   0  0  0  0  0  0
   59.9324 -138.5307   36.8142 H   0  0  0  0  0  0
   57.8123 -138.1234   35.5967 H   0  0  0  0  0  0
   56.0088 -136.7753   36.6445 H   0  0  0  0  0  0
   56.3405 -135.8219   38.9131 H   0  0  0  0  0  0
   58.4550 -136.2320   40.1361 H   0  0  0  0  0  0
   61.3763 -135.7355   41.7846 H   0  0  0  0  0  0
   64.3698 -136.3449   41.7832 H   0  0  0  0  0  0
   62.9019 -134.6717   43.8771 H   0  0  0  0  0  0
   64.6732 -134.7856   43.6010 H   0  0  0  0  0  0
   62.8427 -133.8549   41.3539 H   0  0  0  0  0  0
   62.2729 -132.5145   43.4091 H   0  0  0  0  0  0
   63.1235 -131.5177   42.1803 H   0  0  0  0  0  0
   64.0138 -132.1240   43.6179 H   0  0  0  0  0  0
   65.1969 -134.3442   40.8264 H   0  0  0  0  0  0
   65.7304 -133.1974   42.1020 H   0  0  0  0  0  0
   64.8400 -132.5912   40.6644 H   0  0  0  0  0  0
   61.8863 -135.9183   44.6946 H   0  0  0  0  0  0
   63.9728 -138.8891   42.3160 H   0  0  0  0  0  0
  1  2  2  0  0  0
  1  6  1  0  0  0
  2  3  1  0  0  0
  2  7  1  0  0  0
  3  4  2  0  0  0
  3 29  1  0  0  0
  4  5  1  0  0  0
  5  6  2  0  0  0
  5 30  1  0  0  0
  6 31  1  0  0  0
  7  8  2  0  0  0
  7  9  1  0  0  0
  9 10  1  0  0  0
  9 32  1  0  0  0
 10 11  1  0  0  0
 10 18  1  0  0  0
 10 33  1  0  0  0
 11 12  1  0  0  0
 11 34  1  0  0  0
 11 35  1  0  0  0
 12 13  2  0  0  0
 12 17  1  0  0  0
 13 14  1  0  0  0
 13 36  1  0  0  0
 14 15  2  0  0  0
 14 37  1  0  0  0
 15 16  1  0  0  0
 15 38  1  0  0  0
 16 17  2  0  0  0
 16 39  1  0  0  0
 17 40  1  0  0  0
 18 19  2  0  0  0
 18 20  1  0  0  0
 20 21  1  0  0  0
 20 41  1  0  0  0
 21 22  1  0  0  0
 21 26  1  0  0  0
 21 42  1  0  0  0
 22 23  1  0  0  0
 22 43  1  0  0  0
 22 44  1  0  0  0
 23 24  1  0  0  0
 23 25  1  0  0  0
 23 45  1  0  0  0
 24 46  1  0  0  0
 24 47  1  0  0  0
 24 48  1  0  0  0
 25 49  1  0  0  0
 25 50  1  0  0  0
 25 51  1  0  0  0
 26 27  1  0  0  0
 26 28  1  0  0  0
 27 52  1  0  0  0
 28 53  1  0  0  0
M  END
> <s_m_source_file>
../4qvp_ligand.sdf

> <i_m_source_file_index>
1

> <s_epik_input>
W2NIXTFuW2NIXVtjSF1uYzFDKD1PKVtOSF1bQ0BIXShDKD1PKVtOSF1bQ0BIXShCKFtPSF0pW09IXSlbQ0gyXVtDSF0oW0NIM10pW0NIM10pW0NIMl1jMltjSF1bY0hdW2NIXVtjSF1bY0hdMg==

> <s_epik_cmdline>
J2VwaWtfYXBwJywgJy1pbWFlJywgJ2xpZ2FuZF9wcm8ubWFlJywgJy1vbWFlJywgJ2xpZ2FuZF9wcmVwLm1hZScsICctbXMnLCAnMScsICctcGgnLCAnNycsICctcGh0JywgJzAuNScsICctbnQn

> <r_lp_tautomer_probability>
1

> <r_epik_Ionization_Penalty>
  0.0000

> <r_epik_Ionization_Penalty_Charging>
  0.0000

> <r_epik_Ionization_Penalty_Neutral>
  0.0000

> <r_epik_State_Penalty>
 -0.0000

> <r_epik_Charging_Adjusted_Penalty>
0

> <i_epik_Tot_Q>
0

> <i_epik_Tot_abs_Q>
0

> <s_epik_Chemistry_Notes>
This compound contains a Lewis acid (boronic acid) which adds nucleophiles to form tetrahedral complexes, lowering the experimental pKa

$$$$
