4qvq_ligand
                    3D
 Schrodinger Suite 2020-3.
 53 54  0  0  1  0            999 V2000
   62.7990 -133.1150   36.0170 N   0  0  0  0  0  0
   62.2120 -134.3070   36.2210 C   0  0  0  0  0  0
   62.2120 -135.2750   35.2170 C   0  0  0  0  0  0
   62.8270 -134.9990   33.9900 N   0  0  0  0  0  0
   63.4350 -133.7520   33.7830 C   0  0  0  0  0  0
   63.4200 -132.8060   34.8010 C   0  0  0  0  0  0
   61.6190 -134.5470   37.4560 C   0  0  0  0  0  0
   60.9000 -133.6950   37.9780 O   0  0  0  0  0  0
   61.9190 -135.7290   38.0230 N   0  0  0  0  0  0
   61.4220 -136.0940   39.3560 C   0  0  1  0  0  0
   60.7270 -137.4330   39.3360 C   0  0  0  0  0  0
   59.5120 -137.2590   38.6560 C   0  0  0  0  0  0
   59.2910 -137.8680   37.4170 C   0  0  0  0  0  0
   58.0770 -137.6960   36.7540 C   0  0  0  0  0  0
   57.0730 -136.9170   37.3250 C   0  0  0  0  0  0
   57.2860 -136.3110   38.5600 C   0  0  0  0  0  0
   58.4980 -136.4860   39.2240 C   0  0  0  0  0  0
   62.6490 -136.1850   40.2590 C   0  0  0  0  0  0
   63.7520 -136.4440   39.7800 O   0  0  0  0  0  0
   62.4300 -135.9410   41.5600 N   0  0  0  0  0  0
   63.5340 -135.9730   42.5350 C   0  0  1  0  0  0
   63.6400 -134.6750   43.3030 C   0  0  0  0  0  0
   63.5920 -133.4680   42.3350 C   0  0  0  0  0  0
   62.8830 -132.3030   43.0450 C   0  0  0  0  0  0
   64.9970 -133.0400   41.8900 C   0  0  0  0  0  0
   63.3080 -137.1000   43.5630 B   0  0  0  0  0  0
   62.0590 -136.8910   44.2410 O   0  0  0  0  0  0
   63.2840 -138.3760   42.9120 O   0  0  0  0  0  0
   61.7360 -136.2408   35.3866 H   0  0  0  0  0  0
   63.9156 -133.5266   32.8310 H   0  0  0  0  0  0
   63.8875 -131.8324   34.6540 H   0  0  0  0  0  0
   62.5541 -136.4302   37.4618 H   0  0  0  0  0  0
   60.6907 -135.3371   39.6758 H   0  0  0  0  0  0
   61.3601 -138.1670   38.8159 H   0  0  0  0  0  0
   60.5484 -137.7689   40.3681 H   0  0  0  0  0  0
   60.0723 -138.4806   36.9671 H   0  0  0  0  0  0
   57.9129 -138.1718   35.7872 H   0  0  0  0  0  0
   56.1238 -136.7825   36.8064 H   0  0  0  0  0  0
   56.5034 -135.6987   39.0080 H   0  0  0  0  0  0
   58.6558 -136.0157   40.1946 H   0  0  0  0  0  0
   61.4070 -135.7144   41.8948 H   0  0  0  0  0  0
   64.4390 -136.1231   41.9280 H   0  0  0  0  0  0
   62.8021 -134.5987   44.0116 H   0  0  0  0  0  0
   64.5908 -134.6526   43.8557 H   0  0  0  0  0  0
   63.0431 -133.7528   41.4253 H   0  0  0  0  0  0
   61.8781 -132.6219   43.3588 H   0  0  0  0  0  0
   62.7984 -131.4503   42.3553 H   0  0  0  0  0  0
   63.4653 -132.0034   43.9288 H   0  0  0  0  0  0
   65.4934 -133.8811   41.3839 H   0  0  0  0  0  0
   65.5857 -132.7426   42.7703 H   0  0  0  0  0  0
   64.9188 -132.1895   41.1968 H   0  0  0  0  0  0
   61.8867 -135.9607   44.8022 H   0  0  0  0  0  0
   64.1577 -138.7166   42.3369 H   0  0  0  0  0  0
  1  2  2  0  0  0
  1  6  1  0  0  0
  2  3  1  0  0  0
  2  7  1  0  0  0
  3  4  2  0  0  0
  3 29  1  0  0  0
  4  5  1  0  0  0
  5  6  2  0  0  0
  5 30  1  0  0  0
  6 31  1  0  0  0
  7  8  2  0  0  0
  7  9  1  0  0  0
  9 10  1  0  0  0
  9 32  1  0  0  0
 10 11  1  0  0  0
 10 18  1  0  0  0
 10 33  1  0  0  0
 11 12  1  0  0  0
 11 34  1  0  0  0
 11 35  1  0  0  0
 12 13  2  0  0  0
 12 17  1  0  0  0
 13 14  1  0  0  0
 13 36  1  0  0  0
 14 15  2  0  0  0
 14 37  1  0  0  0
 15 16  1  0  0  0
 15 38  1  0  0  0
 16 17  2  0  0  0
 16 39  1  0  0  0
 17 40  1  0  0  0
 18 19  2  0  0  0
 18 20  1  0  0  0
 20 21  1  0  0  0
 20 41  1  0  0  0
 21 22  1  0  0  0
 21 26  1  0  0  0
 21 42  1  0  0  0
 22 23  1  0  0  0
 22 43  1  0  0  0
 22 44  1  0  0  0
 23 24  1  0  0  0
 23 25  1  0  0  0
 23 45  1  0  0  0
 24 46  1  0  0  0
 24 47  1  0  0  0
 24 48  1  0  0  0
 25 49  1  0  0  0
 25 50  1  0  0  0
 25 51  1  0  0  0
 26 27  1  0  0  0
 26 28  1  0  0  0
 27 52  1  0  0  0
 28 53  1  0  0  0
M  END
> <s_m_source_file>
../4qvq_ligand.sdf

> <i_m_source_file_index>
1

> <s_epik_input>
W2NIXTFuW2NIXVtjSF1uYzFDKD1PKVtOSF1bQ0BIXShDKD1PKVtOSF1bQ0BIXShCKFtPSF0pW09IXSlbQ0gyXVtDSF0oW0NIM10pW0NIM10pW0NIMl1jMltjSF1bY0hdW2NIXVtjSF1bY0hdMg==

> <s_epik_cmdline>
J2VwaWtfYXBwJywgJy1pbWFlJywgJ2xpZ2FuZF9wcm8ubWFlJywgJy1vbWFlJywgJ2xpZ2FuZF9wcmVwLm1hZScsICctbXMnLCAnMScsICctcGgnLCAnNycsICctcGh0JywgJzAuNScsICctbnQn

> <r_lp_tautomer_probability>
1

> <r_epik_Ionization_Penalty>
  0.0000

> <r_epik_Ionization_Penalty_Charging>
  0.0000

> <r_epik_Ionization_Penalty_Neutral>
  0.0000

> <r_epik_State_Penalty>
 -0.0000

> <r_epik_Charging_Adjusted_Penalty>
0

> <i_epik_Tot_Q>
0

> <i_epik_Tot_abs_Q>
0

> <s_epik_Chemistry_Notes>
This compound contains a Lewis acid (boronic acid) which adds nucleophiles to form tetrahedral complexes, lowering the experimental pKa

$$$$
