4qvv_ligand
                    3D
 Schrodinger Suite 2020-3.
 53 54  0  0  1  0            999 V2000
   62.7740 -133.2110   36.0180 N   0  0  0  0  0  0
   62.0790 -134.3540   36.1670 C   0  0  0  0  0  0
   61.9550 -135.2470   35.1010 C   0  0  0  0  0  0
   62.5580 -134.9480   33.8690 N   0  0  0  0  0  0
   63.2800 -133.7550   33.7220 C   0  0  0  0  0  0
   63.3860 -132.8810   34.7980 C   0  0  0  0  0  0
   61.4980 -134.6290   37.4040 C   0  0  0  0  0  0
   60.6550 -133.8730   37.8850 O   0  0  0  0  0  0
   61.9460 -135.7390   38.0130 N   0  0  0  0  0  0
   61.4770 -136.1430   39.3470 C   0  0  1  0  0  0
   60.7750 -137.4790   39.3030 C   0  0  0  0  0  0
   59.5630 -137.3100   38.6120 C   0  0  0  0  0  0
   59.3450 -137.9550   37.3900 C   0  0  0  0  0  0
   58.1370 -137.7940   36.7090 C   0  0  0  0  0  0
   57.1320 -136.9910   37.2440 C   0  0  0  0  0  0
   57.3420 -136.3500   38.4630 C   0  0  0  0  0  0
   58.5480 -136.5120   39.1460 C   0  0  0  0  0  0
   62.7210 -136.2880   40.2200 C   0  0  0  0  0  0
   63.7740 -136.6800   39.7180 O   0  0  0  0  0  0
   62.5800 -135.9450   41.5150 N   0  0  0  0  0  0
   63.7210 -136.0440   42.4510 C   0  0  1  0  0  0
   64.0840 -134.7320   43.1260 C   0  0  0  0  0  0
   63.8060 -133.5310   42.1860 C   0  0  0  0  0  0
   63.0150 -132.4580   42.9570 C   0  0  0  0  0  0
   65.1150 -132.9400   41.6290 C   0  0  0  0  0  0
   63.4070 -137.0650   43.5630 B   0  0  0  0  0  0
   62.1830 -136.7140   44.2260 O   0  0  0  0  0  0
   63.2850 -138.3790   43.0030 O   0  0  0  0  0  0
   61.3924 -136.1724   35.2248 H   0  0  0  0  0  0
   63.7548 -133.5145   32.7708 H   0  0  0  0  0  0
   63.9394 -131.9476   34.6955 H   0  0  0  0  0  0
   62.6876 -136.3533   37.4813 H   0  0  0  0  0  0
   60.7646 -135.3841   39.7028 H   0  0  0  0  0  0
   61.4106 -138.2102   38.7820 H   0  0  0  0  0  0
   60.5823 -137.8259   40.3289 H   0  0  0  0  0  0
   60.1244 -138.5883   36.9662 H   0  0  0  0  0  0
   57.9796 -138.2982   35.7555 H   0  0  0  0  0  0
   56.1885 -136.8652   36.7128 H   0  0  0  0  0  0
   56.5602 -135.7187   38.8854 H   0  0  0  0  0  0
   58.6993 -136.0125   40.1029 H   0  0  0  0  0  0
   61.6034 -135.5882   41.8741 H   0  0  0  0  0  0
   64.5561 -136.3423   41.8002 H   0  0  0  0  0  0
   63.4842 -134.6118   44.0402 H   0  0  0  0  0  0
   65.1527 -134.7371   43.3866 H   0  0  0  0  0  0
   63.2129 -133.8760   41.3262 H   0  0  0  0  0  0
   62.0850 -132.8975   43.3468 H   0  0  0  0  0  0
   62.7718 -131.6252   42.2808 H   0  0  0  0  0  0
   63.6233 -132.0849   43.7941 H   0  0  0  0  0  0
   65.6658 -133.7196   41.0823 H   0  0  0  0  0  0
   65.7327 -132.5691   42.4602 H   0  0  0  0  0  0
   64.8812 -132.1094   40.9468 H   0  0  0  0  0  0
   62.0858 -135.7358   44.7197 H   0  0  0  0  0  0
   64.1278 -138.8228   42.4527 H   0  0  0  0  0  0
  1  2  2  0  0  0
  1  6  1  0  0  0
  2  3  1  0  0  0
  2  7  1  0  0  0
  3  4  2  0  0  0
  3 29  1  0  0  0
  4  5  1  0  0  0
  5  6  2  0  0  0
  5 30  1  0  0  0
  6 31  1  0  0  0
  7  8  2  0  0  0
  7  9  1  0  0  0
  9 10  1  0  0  0
  9 32  1  0  0  0
 10 11  1  0  0  0
 10 18  1  0  0  0
 10 33  1  0  0  0
 11 12  1  0  0  0
 11 34  1  0  0  0
 11 35  1  0  0  0
 12 13  2  0  0  0
 12 17  1  0  0  0
 13 14  1  0  0  0
 13 36  1  0  0  0
 14 15  2  0  0  0
 14 37  1  0  0  0
 15 16  1  0  0  0
 15 38  1  0  0  0
 16 17  2  0  0  0
 16 39  1  0  0  0
 17 40  1  0  0  0
 18 19  2  0  0  0
 18 20  1  0  0  0
 20 21  1  0  0  0
 20 41  1  0  0  0
 21 22  1  0  0  0
 21 26  1  0  0  0
 21 42  1  0  0  0
 22 23  1  0  0  0
 22 43  1  0  0  0
 22 44  1  0  0  0
 23 24  1  0  0  0
 23 25  1  0  0  0
 23 45  1  0  0  0
 24 46  1  0  0  0
 24 47  1  0  0  0
 24 48  1  0  0  0
 25 49  1  0  0  0
 25 50  1  0  0  0
 25 51  1  0  0  0
 26 27  1  0  0  0
 26 28  1  0  0  0
 27 52  1  0  0  0
 28 53  1  0  0  0
M  END
> <s_m_source_file>
../4qvv_ligand.sdf

> <i_m_source_file_index>
1

> <s_epik_input>
W2NIXTFuW2NIXVtjSF1uYzFDKD1PKVtOSF1bQ0BIXShDKD1PKVtOSF1bQ0BIXShCKFtPSF0pW09IXSlbQ0gyXVtDSF0oW0NIM10pW0NIM10pW0NIMl1jMltjSF1bY0hdW2NIXVtjSF1bY0hdMg==

> <s_epik_cmdline>
J2VwaWtfYXBwJywgJy1pbWFlJywgJ2xpZ2FuZF9wcm8ubWFlJywgJy1vbWFlJywgJ2xpZ2FuZF9wcmVwLm1hZScsICctbXMnLCAnMScsICctcGgnLCAnNycsICctcGh0JywgJzAuNScsICctbnQn

> <r_lp_tautomer_probability>
1

> <r_epik_Ionization_Penalty>
  0.0000

> <r_epik_Ionization_Penalty_Charging>
  0.0000

> <r_epik_Ionization_Penalty_Neutral>
  0.0000

> <r_epik_State_Penalty>
 -0.0000

> <r_epik_Charging_Adjusted_Penalty>
0

> <i_epik_Tot_Q>
0

> <i_epik_Tot_abs_Q>
0

> <s_epik_Chemistry_Notes>
This compound contains a Lewis acid (boronic acid) which adds nucleophiles to form tetrahedral complexes, lowering the experimental pKa

$$$$
