4qvw_ligand
                    3D
 Schrodinger Suite 2020-3.
 53 54  0  0  1  0            999 V2000
   62.3910 -133.0840   36.0090 N   0  0  0  0  0  0
   61.8510 -134.2920   36.2460 C   0  0  0  0  0  0
   61.9000 -135.2870   35.2700 C   0  0  0  0  0  0
   62.5100 -135.0200   34.0370 N   0  0  0  0  0  0
   63.0680 -133.7570   33.7940 C   0  0  0  0  0  0
   63.0060 -132.7840   34.7840 C   0  0  0  0  0  0
   61.2650 -134.5220   37.4850 C   0  0  0  0  0  0
   60.4910 -133.6980   37.9720 O   0  0  0  0  0  0
   61.6370 -135.6610   38.0930 N   0  0  0  0  0  0
   61.1770 -136.0150   39.4410 C   0  0  1  0  0  0
   60.5160 -137.3720   39.4580 C   0  0  0  0  0  0
   59.3150 -137.2430   38.7400 C   0  0  0  0  0  0
   59.1140 -137.9470   37.5500 C   0  0  0  0  0  0
   57.9180 -137.8140   36.8460 C   0  0  0  0  0  0
   56.9110 -136.9780   37.3220 C   0  0  0  0  0  0
   57.1050 -136.2780   38.5060 C   0  0  0  0  0  0
   58.2970 -136.4130   39.2130 C   0  0  0  0  0  0
   62.4320 -136.0360   40.3070 C   0  0  0  0  0  0
   63.5460 -136.0350   39.7820 O   0  0  0  0  0  0
   62.2320 -136.0080   41.6310 N   0  0  0  0  0  0
   63.3830 -135.9950   42.5540 C   0  0  1  0  0  0
   63.5520 -134.6570   43.2430 C   0  0  0  0  0  0
   63.3530 -133.4860   42.2660 C   0  0  0  0  0  0
   63.1570 -132.2140   43.1050 C   0  0  0  0  0  0
   64.5740 -133.3320   41.3440 C   0  0  0  0  0  0
   63.2280 -137.0390   43.6740 B   0  0  0  0  0  0
   61.9010 -137.0100   44.2190 O   0  0  0  0  0  0
   63.5200 -138.3450   43.1690 O   0  0  0  0  0  0
   61.4659 -136.2676   35.4653 H   0  0  0  0  0  0
   63.5455 -133.5406   32.8384 H   0  0  0  0  0  0
   63.4317 -131.7957   34.6104 H   0  0  0  0  0  0
   62.3094 -136.3381   37.5458 H   0  0  0  0  0  0
   60.4248 -135.2842   39.7729 H   0  0  0  0  0  0
   61.1798 -138.1091   38.9825 H   0  0  0  0  0  0
   60.3206 -137.6717   40.4982 H   0  0  0  0  0  0
   59.8965 -138.6038   37.1700 H   0  0  0  0  0  0
   57.7704 -138.3671   35.9184 H   0  0  0  0  0  0
   55.9773 -136.8737   36.7694 H   0  0  0  0  0  0
   56.3214 -135.6207   38.8830 H   0  0  0  0  0  0
   58.4366 -135.8652   40.1450 H   0  0  0  0  0  0
   61.2070 -135.9947   42.0299 H   0  0  0  0  0  0
   64.2346 -136.2055   41.8904 H   0  0  0  0  0  0
   62.8109 -134.5643   44.0506 H   0  0  0  0  0  0
   64.5653 -134.5875   43.6654 H   0  0  0  0  0  0
   62.4770 -133.6685   41.6262 H   0  0  0  0  0  0
   62.2814 -132.3376   43.7592 H   0  0  0  0  0  0
   62.9971 -131.3550   42.4367 H   0  0  0  0  0  0
   64.0522 -132.0387   43.7197 H   0  0  0  0  0  0
   64.7026 -134.2487   40.7497 H   0  0  0  0  0  0
   65.4739 -133.1604   41.9529 H   0  0  0  0  0  0
   64.4188 -132.4767   40.6699 H   0  0  0  0  0  0
   61.5054 -136.0805   44.6543 H   0  0  0  0  0  0
   64.4990 -138.5518   42.7120 H   0  0  0  0  0  0
  1  2  2  0  0  0
  1  6  1  0  0  0
  2  3  1  0  0  0
  2  7  1  0  0  0
  3  4  2  0  0  0
  3 29  1  0  0  0
  4  5  1  0  0  0
  5  6  2  0  0  0
  5 30  1  0  0  0
  6 31  1  0  0  0
  7  8  2  0  0  0
  7  9  1  0  0  0
  9 10  1  0  0  0
  9 32  1  0  0  0
 10 11  1  0  0  0
 10 18  1  0  0  0
 10 33  1  0  0  0
 11 12  1  0  0  0
 11 34  1  0  0  0
 11 35  1  0  0  0
 12 13  2  0  0  0
 12 17  1  0  0  0
 13 14  1  0  0  0
 13 36  1  0  0  0
 14 15  2  0  0  0
 14 37  1  0  0  0
 15 16  1  0  0  0
 15 38  1  0  0  0
 16 17  2  0  0  0
 16 39  1  0  0  0
 17 40  1  0  0  0
 18 19  2  0  0  0
 18 20  1  0  0  0
 20 21  1  0  0  0
 20 41  1  0  0  0
 21 22  1  0  0  0
 21 26  1  0  0  0
 21 42  1  0  0  0
 22 23  1  0  0  0
 22 43  1  0  0  0
 22 44  1  0  0  0
 23 24  1  0  0  0
 23 25  1  0  0  0
 23 45  1  0  0  0
 24 46  1  0  0  0
 24 47  1  0  0  0
 24 48  1  0  0  0
 25 49  1  0  0  0
 25 50  1  0  0  0
 25 51  1  0  0  0
 26 27  1  0  0  0
 26 28  1  0  0  0
 27 52  1  0  0  0
 28 53  1  0  0  0
M  END
> <s_m_source_file>
../4qvw_ligand.sdf

> <i_m_source_file_index>
1

> <s_epik_input>
W2NIXTFuW2NIXVtjSF1uYzFDKD1PKVtOSF1bQ0BIXShDKD1PKVtOSF1bQ0BIXShCKFtPSF0pW09IXSlbQ0gyXVtDSF0oW0NIM10pW0NIM10pW0NIMl1jMltjSF1bY0hdW2NIXVtjSF1bY0hdMg==

> <s_epik_cmdline>
J2VwaWtfYXBwJywgJy1pbWFlJywgJ2xpZ2FuZF9wcm8ubWFlJywgJy1vbWFlJywgJ2xpZ2FuZF9wcmVwLm1hZScsICctbXMnLCAnMScsICctcGgnLCAnNycsICctcGh0JywgJzAuNScsICctbnQn

> <r_lp_tautomer_probability>
1

> <r_epik_Ionization_Penalty>
  0.0000

> <r_epik_Ionization_Penalty_Charging>
  0.0000

> <r_epik_Ionization_Penalty_Neutral>
  0.0000

> <r_epik_State_Penalty>
 -0.0000

> <r_epik_Charging_Adjusted_Penalty>
0

> <i_epik_Tot_Q>
0

> <i_epik_Tot_abs_Q>
0

> <s_epik_Chemistry_Notes>
This compound contains a Lewis acid (boronic acid) which adds nucleophiles to form tetrahedral complexes, lowering the experimental pKa

$$$$
