4qvx_ligand
                    3D
 Schrodinger Suite 2020-3.
 79 84  0  0  1  0            999 V2000
  -16.7080    1.1290    2.6790 N   0  0  0  0  0  0
  -16.3220    2.4380    2.8090 C   0  0  0  0  0  0
  -15.1380    3.0030    2.0230 C   0  0  0  0  0  0
  -14.3370    2.1400    1.5760 O   0  5  0  0  0  0
  -15.0650    4.2580    1.9570 O   0  0  0  0  0  0
  -16.7980   12.3970    6.5520 C   0  0  0  0  0  0
  -16.6370   13.4770    7.0500 C   0  0  0  0  0  0
  -25.9670    1.1170   11.2760 C   0  0  0  0  0  0
  -24.9450    2.0060   11.5120 C   0  0  0  0  0  0
  -21.2140   -4.3080    4.7210 C   0  0  0  0  0  0
  -17.5900   10.1670    6.8700 C   0  0  0  0  0  0
  -21.5930   -3.3290    5.6110 C   0  0  0  0  0  0
  -20.2130   -4.0440    3.8130 C   0  0  0  0  0  0
  -25.8590    0.1200   10.3340 C   0  0  0  0  0  0
  -17.8090    8.8940    6.4040 C   0  0  0  0  0  0
  -23.7590    1.9530   10.8190 C   0  0  0  0  0  0
  -16.8690    9.4600    4.2780 C   0  0  0  0  0  0
  -17.0080   11.0870    6.0310 C   0  0  0  0  0  0
  -20.9630   -2.1060    5.5830 C   0  0  0  0  0  0
  -19.5900   -2.8160    3.7800 C   0  0  0  0  0  0
  -19.9610   -1.8250    4.6670 C   0  0  0  0  0  0
  -24.6780    0.0490    9.6160 C   0  0  0  0  0  0
  -17.4480    8.5400    5.1240 C   0  0  0  0  0  0
  -23.6640    0.9560    9.8720 C   0  0  0  0  0  0
  -23.2110   -0.6880    8.1300 C   0  0  0  0  0  0
  -21.4210   -1.1260    6.5780 C   0  0  0  0  0  0
  -18.5360   -2.5800    2.7550 C   0  0  0  0  0  0
  -19.2760   -0.4990    4.6450 C   0  0  0  0  0  0
  -17.5690   -1.5240    3.2410 C   0  0  0  0  0  0
  -17.0330    3.2150    3.6980 C   0  0  0  0  0  0
  -17.7190    0.8640    3.4730 C   0  0  0  0  0  0
  -15.2820   15.3620    5.6090 C   0  0  0  0  0  0
  -17.4940   16.3270    6.0900 C   0  0  0  0  0  0
  -16.4490   14.7750    7.6950 C   0  0  0  0  0  0
  -16.8690    4.6370    4.0610 C   0  0  0  0  0  0
  -17.7330    5.5320    3.1880 C   0  0  0  0  0  0
  -17.3670    6.9880    3.4130 C   0  0  0  0  0  0
  -16.6480   10.7410    4.7440 C   0  0  0  0  0  0
  -24.4050   -0.8790    8.6370 N   0  0  0  0  0  0
  -22.6370   -1.4580    7.1310 N   0  0  0  0  0  0
  -18.3410   -0.3430    3.5510 N   0  0  0  0  0  0
  -16.2300   15.8050    6.6550 N   0  3  0  0  0  0
  -20.7240   -0.1740    6.8750 O   0  0  0  0  0  0
  -17.7070    7.2330    4.7600 O   0  0  0  0  0  0
  -22.3390    0.6170    8.8300 S   0  0  0  0  0  0
  -18.2340    2.2200    4.4070 S   0  0  0  0  0  0
  -18.3730    7.9900    7.2120 F   0  0  0  0  0  0
  -26.8886    1.2045   11.8513 H   0  0  0  0  0  0
  -25.0793    2.7761   12.2716 H   0  0  0  0  0  0
  -21.7015   -5.2828    4.7347 H   0  0  0  0  0  0
  -17.8724   10.4426    7.8861 H   0  0  0  0  0  0
  -22.3867   -3.5211    6.3330 H   0  0  0  0  0  0
  -19.9089   -4.8189    3.1094 H   0  0  0  0  0  0
  -26.6712   -0.5858   10.1602 H   0  0  0  0  0  0
  -22.9459    2.6544   11.0064 H   0  0  0  0  0  0
  -16.5909    9.1825    3.2613 H   0  0  0  0  0  0
  -17.9876   -3.5156    2.5709 H   0  0  0  0  0  0
  -19.0039   -2.2392    1.8196 H   0  0  0  0  0  0
  -20.0263    0.2997    4.5498 H   0  0  0  0  0  0
  -18.7115   -0.3624    5.5792 H   0  0  0  0  0  0
  -17.0469   -1.8897    4.1374 H   0  0  0  0  0  0
  -16.8344   -1.3082    2.4512 H   0  0  0  0  0  0
  -15.1566   16.1625    4.8650 H   0  0  0  0  0  0
  -15.6753   14.4610    5.1155 H   0  0  0  0  0  0
  -14.3093   15.1332    6.0689 H   0  0  0  0  0  0
  -17.2684   17.0855    5.3259 H   0  0  0  0  0  0
  -18.0940   16.7816    6.8921 H   0  0  0  0  0  0
  -18.0592   15.5019    5.6320 H   0  0  0  0  0  0
  -17.3449   15.0260    8.2817 H   0  0  0  0  0  0
  -15.5750   14.7302    8.3614 H   0  0  0  0  0  0
  -17.1622    4.7835    5.1110 H   0  0  0  0  0  0
  -15.8169    4.9300    3.9298 H   0  0  0  0  0  0
  -17.5719    5.2781    2.1299 H   0  0  0  0  0  0
  -18.7922    5.3818    3.4439 H   0  0  0  0  0  0
  -16.2916    7.1284    3.2291 H   0  0  0  0  0  0
  -17.9428    7.6218    2.7225 H   0  0  0  0  0  0
  -16.1868   11.4829    4.0921 H   0  0  0  0  0  0
  -23.1543   -2.3564    6.7633 H   0  0  0  0  0  0
  -15.7521   16.6544    7.1650 H   0  0  0  0  0  0
  1  2  1  0  0  0
  1 31  2  0  0  0
  2  3  1  0  0  0
  2 30  2  0  0  0
  3  4  1  0  0  0
  3  5  2  0  0  0
  6  7  3  0  0  0
  6 18  1  0  0  0
  7 34  1  0  0  0
  8  9  2  0  0  0
  8 14  1  0  0  0
  8 48  1  0  0  0
  9 16  1  0  0  0
  9 49  1  0  0  0
 10 12  2  0  0  0
 10 13  1  0  0  0
 10 50  1  0  0  0
 11 15  2  0  0  0
 11 18  1  0  0  0
 11 51  1  0  0  0
 12 19  1  0  0  0
 12 52  1  0  0  0
 13 20  2  0  0  0
 13 53  1  0  0  0
 14 22  2  0  0  0
 14 54  1  0  0  0
 15 23  1  0  0  0
 15 47  1  0  0  0
 16 24  2  0  0  0
 16 55  1  0  0  0
 17 23  2  0  0  0
 17 38  1  0  0  0
 17 56  1  0  0  0
 18 38  2  0  0  0
 19 21  2  0  0  0
 19 26  1  0  0  0
 20 21  1  0  0  0
 20 27  1  0  0  0
 21 28  1  0  0  0
 22 24  1  0  0  0
 22 39  1  0  0  0
 23 44  1  0  0  0
 24 45  1  0  0  0
 25 39  2  0  0  0
 25 40  1  0  0  0
 25 45  1  0  0  0
 26 40  1  0  0  0
 26 43  2  0  0  0
 27 29  1  0  0  0
 27 57  1  0  0  0
 27 58  1  0  0  0
 28 41  1  0  0  0
 28 59  1  0  0  0
 28 60  1  0  0  0
 29 41  1  0  0  0
 29 61  1  0  0  0
 29 62  1  0  0  0
 30 35  1  0  0  0
 30 46  1  0  0  0
 31 41  1  0  0  0
 31 46  1  0  0  0
 32 42  1  0  0  0
 32 63  1  0  0  0
 32 64  1  0  0  0
 32 65  1  0  0  0
 33 42  1  0  0  0
 33 66  1  0  0  0
 33 67  1  0  0  0
 33 68  1  0  0  0
 34 42  1  0  0  0
 34 69  1  0  0  0
 34 70  1  0  0  0
 35 36  1  0  0  0
 35 71  1  0  0  0
 35 72  1  0  0  0
 36 37  1  0  0  0
 36 73  1  0  0  0
 36 74  1  0  0  0
 37 44  1  0  0  0
 37 75  1  0  0  0
 37 76  1  0  0  0
 38 77  1  0  0  0
 40 78  1  0  0  0
 42 79  1  0  0  0
M  CHG  2   4  -1  42   1
M  END
> <s_m_source_file>
../4qvx_ligand.sdf

> <i_m_source_file_index>
1

> <s_epik_input>
W2NIXTFbY0hdW2NIXVtjSF1jKGMxMilzYyhuMilbTkhdQyg9TyljKFtjSF1bY0hdW2NIXTMpYyhjMzQpW0NIMl1OKFtDSDJdW0NIMl00KWMobmM1Qyg9TylbT0hdKXNjNVtDSDJdW0NIMl1bQ0gyXU9jNltjSF1bY0hdYyhbY0hdYzZGKUMjQ1tDSDJdW05IK10oW0NIM10pW0NIM10=

> <s_epik_cmdline>
J2VwaWtfYXBwJywgJy1pbWFlJywgJ2xpZ2FuZF9wcm8ubWFlJywgJy1vbWFlJywgJ2xpZ2FuZF9wcmVwLm1hZScsICctbXMnLCAnMScsICctcGgnLCAnNycsICctcGh0JywgJzAuNScsICctbnQn

> <r_epik_Ionization_Penalty>
  0.1086

> <r_epik_Ionization_Penalty_Charging>
  0.0999

> <r_epik_Ionization_Penalty_Neutral>
  0.0087

> <r_epik_State_Penalty>
  0.0881

> <r_epik_Charging_Adjusted_Penalty>
0.188012281475665

> <i_epik_Tot_Q>
0

> <i_epik_Tot_abs_Q>
2

$$$$
