4qvy_ligand
                    3D
 Schrodinger Suite 2020-3.
 53 54  0  0  1  0            999 V2000
   62.2600 -133.2010   35.8990 N   0  0  0  0  0  0
   61.8960 -134.4670   36.1690 C   0  0  0  0  0  0
   62.1240 -135.4720   35.2290 C   0  0  0  0  0  0
   62.7240 -135.1600   34.0000 N   0  0  0  0  0  0
   63.0960 -133.8380   33.7240 C   0  0  0  0  0  0
   62.8610 -132.8550   34.6780 C   0  0  0  0  0  0
   61.3150 -134.7330   37.4060 C   0  0  0  0  0  0
   60.5610 -133.9120   37.9260 O   0  0  0  0  0  0
   61.6770 -135.8920   37.9830 N   0  0  0  0  0  0
   61.2250 -136.2710   39.3270 C   0  0  1  0  0  0
   60.5270 -137.6100   39.3260 C   0  0  0  0  0  0
   59.3170 -137.4240   38.6420 C   0  0  0  0  0  0
   59.1170 -137.9810   37.3750 C   0  0  0  0  0  0
   57.9080 -137.7920   36.7050 C   0  0  0  0  0  0
   56.8920 -137.0470   37.2970 C   0  0  0  0  0  0
   57.0860 -136.4920   38.5590 C   0  0  0  0  0  0
   58.2910 -136.6830   39.2290 C   0  0  0  0  0  0
   62.5010 -136.3850   40.1470 C   0  0  0  0  0  0
   63.5670 -136.6390   39.5860 O   0  0  0  0  0  0
   62.3830 -136.1500   41.4640 N   0  0  0  0  0  0
   63.5680 -136.2600   42.3370 C   0  0  1  0  0  0
   64.1190 -134.9330   42.8460 C   0  0  0  0  0  0
   63.5200 -133.7020   42.1180 C   0  0  0  0  0  0
   62.5540 -132.9420   43.0510 C   0  0  0  0  0  0
   64.6540 -132.7570   41.6750 C   0  0  0  0  0  0
   63.2480 -137.1440   43.5520 B   0  0  0  0  0  0
   62.0340 -136.7000   44.1830 O   0  0  0  0  0  0
   63.1190 -138.5110   43.1460 O   0  0  0  0  0  0
   61.8359 -136.4999   35.4494 H   0  0  0  0  0  0
   63.5639 -133.5835   32.7730 H   0  0  0  0  0  0
   63.1418 -131.8207   34.4794 H   0  0  0  0  0  0
   62.3341 -136.5656   37.4134 H   0  0  0  0  0  0
   60.5070 -135.5223   39.6930 H   0  0  0  0  0  0
   61.1584 -138.3522   38.8157 H   0  0  0  0  0  0
   60.3486 -137.9313   40.3628 H   0  0  0  0  0  0
   59.9098 -138.5658   36.9085 H   0  0  0  0  0  0
   57.7588 -138.2280   35.7172 H   0  0  0  0  0  0
   55.9473 -136.8986   36.7740 H   0  0  0  0  0  0
   56.2925 -135.9066   39.0234 H   0  0  0  0  0  0
   58.4340 -136.2506   40.2193 H   0  0  0  0  0  0
   61.4076 -135.8764   41.8926 H   0  0  0  0  0  0
   64.3214 -136.6967   41.6649 H   0  0  0  0  0  0
   63.8914 -134.8282   43.9171 H   0  0  0  0  0  0
   65.2088 -134.9077   42.6986 H   0  0  0  0  0  0
   62.9633 -134.0461   41.2339 H   0  0  0  0  0  0
   61.7442 -133.6157   43.3678 H   0  0  0  0  0  0
   62.1268 -132.0820   42.5145 H   0  0  0  0  0  0
   63.1025 -132.5866   43.9358 H   0  0  0  0  0  0
   65.3432 -133.2979   41.0098 H   0  0  0  0  0  0
   65.2019 -132.4016   42.5601 H   0  0  0  0  0  0
   64.2262 -131.8970   41.1389 H   0  0  0  0  0  0
   61.9548 -135.6694   44.5592 H   0  0  0  0  0  0
   63.9567 -139.0170   42.6438 H   0  0  0  0  0  0
  1  2  2  0  0  0
  1  6  1  0  0  0
  2  3  1  0  0  0
  2  7  1  0  0  0
  3  4  2  0  0  0
  3 29  1  0  0  0
  4  5  1  0  0  0
  5  6  2  0  0  0
  5 30  1  0  0  0
  6 31  1  0  0  0
  7  8  2  0  0  0
  7  9  1  0  0  0
  9 10  1  0  0  0
  9 32  1  0  0  0
 10 11  1  0  0  0
 10 18  1  0  0  0
 10 33  1  0  0  0
 11 12  1  0  0  0
 11 34  1  0  0  0
 11 35  1  0  0  0
 12 13  2  0  0  0
 12 17  1  0  0  0
 13 14  1  0  0  0
 13 36  1  0  0  0
 14 15  2  0  0  0
 14 37  1  0  0  0
 15 16  1  0  0  0
 15 38  1  0  0  0
 16 17  2  0  0  0
 16 39  1  0  0  0
 17 40  1  0  0  0
 18 19  2  0  0  0
 18 20  1  0  0  0
 20 21  1  0  0  0
 20 41  1  0  0  0
 21 22  1  0  0  0
 21 26  1  0  0  0
 21 42  1  0  0  0
 22 23  1  0  0  0
 22 43  1  0  0  0
 22 44  1  0  0  0
 23 24  1  0  0  0
 23 25  1  0  0  0
 23 45  1  0  0  0
 24 46  1  0  0  0
 24 47  1  0  0  0
 24 48  1  0  0  0
 25 49  1  0  0  0
 25 50  1  0  0  0
 25 51  1  0  0  0
 26 27  1  0  0  0
 26 28  1  0  0  0
 27 52  1  0  0  0
 28 53  1  0  0  0
M  END
> <s_m_source_file>
../4qvy_ligand.sdf

> <i_m_source_file_index>
1

> <s_epik_input>
W2NIXTFuW2NIXVtjSF1uYzFDKD1PKVtOSF1bQ0BIXShDKD1PKVtOSF1bQ0BIXShCKFtPSF0pW09IXSlbQ0gyXVtDSF0oW0NIM10pW0NIM10pW0NIMl1jMltjSF1bY0hdW2NIXVtjSF1bY0hdMg==

> <s_epik_cmdline>
J2VwaWtfYXBwJywgJy1pbWFlJywgJ2xpZ2FuZF9wcm8ubWFlJywgJy1vbWFlJywgJ2xpZ2FuZF9wcmVwLm1hZScsICctbXMnLCAnMScsICctcGgnLCAnNycsICctcGh0JywgJzAuNScsICctbnQn

> <r_lp_tautomer_probability>
1

> <r_epik_Ionization_Penalty>
  0.0000

> <r_epik_Ionization_Penalty_Charging>
  0.0000

> <r_epik_Ionization_Penalty_Neutral>
  0.0000

> <r_epik_State_Penalty>
 -0.0000

> <r_epik_Charging_Adjusted_Penalty>
0

> <i_epik_Tot_Q>
0

> <i_epik_Tot_abs_Q>
0

> <s_epik_Chemistry_Notes>
This compound contains a Lewis acid (boronic acid) which adds nucleophiles to form tetrahedral complexes, lowering the experimental pKa

$$$$
