4qw0_ligand
                    3D
 Schrodinger Suite 2020-3.
 53 54  0  0  1  0            999 V2000
   62.7190 -133.1930   35.8890 N   0  0  0  0  0  0
   62.3330 -134.4570   36.1330 C   0  0  0  0  0  0
   62.5030 -135.4430   35.1620 C   0  0  0  0  0  0
   63.0810 -135.1130   33.9310 N   0  0  0  0  0  0
   63.4800 -133.7930   33.6860 C   0  0  0  0  0  0
   63.2960 -132.8290   34.6680 C   0  0  0  0  0  0
   61.7700 -134.7350   37.3740 C   0  0  0  0  0  0
   61.0880 -133.8840   37.9420 O   0  0  0  0  0  0
   62.0430 -135.9390   37.9020 N   0  0  0  0  0  0
   61.5480 -136.3020   39.2340 C   0  0  1  0  0  0
   60.8760 -137.6500   39.2280 C   0  0  0  0  0  0
   59.6780 -137.4920   38.5090 C   0  0  0  0  0  0
   59.4900 -138.1380   37.2820 C   0  0  0  0  0  0
   58.2980 -137.9790   36.5780 C   0  0  0  0  0  0
   57.2840 -137.1770   37.0900 C   0  0  0  0  0  0
   57.4630 -136.5350   38.3110 C   0  0  0  0  0  0
   58.6520 -136.6940   39.0190 C   0  0  0  0  0  0
   62.7620 -136.3500   40.1420 C   0  0  0  0  0  0
   63.8960 -136.4180   39.6680 O   0  0  0  0  0  0
   62.4920 -136.2640   41.4500 N   0  0  0  0  0  0
   63.5760 -136.2700   42.4380 C   0  0  1  0  0  0
   63.7110 -134.9280   43.1220 C   0  0  0  0  0  0
   63.7560 -133.8030   42.0740 C   0  0  0  0  0  0
   63.4980 -132.4730   42.7950 C   0  0  0  0  0  0
   65.1120 -133.7800   41.3520 C   0  0  0  0  0  0
   63.3110 -137.3050   43.5380 B   0  0  0  0  0  0
   62.0890 -137.0020   44.2340 O   0  0  0  0  0  0
   63.2260 -138.6260   42.9890 O   0  0  0  0  0  0
   62.1869 -136.4670   35.3610 H   0  0  0  0  0  0
   63.9318 -133.5245   32.7311 H   0  0  0  0  0  0
   63.5986 -131.7973   34.4890 H   0  0  0  0  0  0
   62.6447 -136.6563   37.3245 H   0  0  0  0  0  0
   60.8003 -135.5572   39.5440 H   0  0  0  0  0  0
   61.5337 -138.3854   38.7416 H   0  0  0  0  0  0
   60.6762 -137.9647   40.2629 H   0  0  0  0  0  0
   60.2801 -138.7689   36.8748 H   0  0  0  0  0  0
   58.1600 -138.4851   35.6225 H   0  0  0  0  0  0
   56.3530 -137.0519   36.5371 H   0  0  0  0  0  0
   56.6702 -135.9054   38.7151 H   0  0  0  0  0  0
   58.7824 -136.1920   39.9777 H   0  0  0  0  0  0
   61.4459 -136.1883   41.7817 H   0  0  0  0  0  0
   64.4752 -136.5018   41.8484 H   0  0  0  0  0  0
   62.8499 -134.7674   43.7874 H   0  0  0  0  0  0
   64.6390 -134.9090   43.7122 H   0  0  0  0  0  0
   62.9850 -133.9699   41.3074 H   0  0  0  0  0  0
   62.5233 -132.5145   43.3031 H   0  0  0  0  0  0
   63.4947 -131.6531   42.0617 H   0  0  0  0  0  0
   64.2911 -132.2983   43.5369 H   0  0  0  0  0  0
   65.2733 -134.7423   40.8440 H   0  0  0  0  0  0
   65.9149 -133.6132   42.0851 H   0  0  0  0  0  0
   65.1185 -132.9680   40.6099 H   0  0  0  0  0  0
   61.9637 -136.0261   44.7259 H   0  0  0  0  0  0
   64.0700 -139.0394   42.4174 H   0  0  0  0  0  0
  1  2  2  0  0  0
  1  6  1  0  0  0
  2  3  1  0  0  0
  2  7  1  0  0  0
  3  4  2  0  0  0
  3 29  1  0  0  0
  4  5  1  0  0  0
  5  6  2  0  0  0
  5 30  1  0  0  0
  6 31  1  0  0  0
  7  8  2  0  0  0
  7  9  1  0  0  0
  9 10  1  0  0  0
  9 32  1  0  0  0
 10 11  1  0  0  0
 10 18  1  0  0  0
 10 33  1  0  0  0
 11 12  1  0  0  0
 11 34  1  0  0  0
 11 35  1  0  0  0
 12 13  2  0  0  0
 12 17  1  0  0  0
 13 14  1  0  0  0
 13 36  1  0  0  0
 14 15  2  0  0  0
 14 37  1  0  0  0
 15 16  1  0  0  0
 15 38  1  0  0  0
 16 17  2  0  0  0
 16 39  1  0  0  0
 17 40  1  0  0  0
 18 19  2  0  0  0
 18 20  1  0  0  0
 20 21  1  0  0  0
 20 41  1  0  0  0
 21 22  1  0  0  0
 21 26  1  0  0  0
 21 42  1  0  0  0
 22 23  1  0  0  0
 22 43  1  0  0  0
 22 44  1  0  0  0
 23 24  1  0  0  0
 23 25  1  0  0  0
 23 45  1  0  0  0
 24 46  1  0  0  0
 24 47  1  0  0  0
 24 48  1  0  0  0
 25 49  1  0  0  0
 25 50  1  0  0  0
 25 51  1  0  0  0
 26 27  1  0  0  0
 26 28  1  0  0  0
 27 52  1  0  0  0
 28 53  1  0  0  0
M  END
> <s_m_source_file>
../4qw0_ligand.sdf

> <i_m_source_file_index>
1

> <s_epik_input>
W2NIXTFuW2NIXVtjSF1uYzFDKD1PKVtOSF1bQ0BIXShDKD1PKVtOSF1bQ0BIXShCKFtPSF0pW09IXSlbQ0gyXVtDSF0oW0NIM10pW0NIM10pW0NIMl1jMltjSF1bY0hdW2NIXVtjSF1bY0hdMg==

> <s_epik_cmdline>
J2VwaWtfYXBwJywgJy1pbWFlJywgJ2xpZ2FuZF9wcm8ubWFlJywgJy1vbWFlJywgJ2xpZ2FuZF9wcmVwLm1hZScsICctbXMnLCAnMScsICctcGgnLCAnNycsICctcGh0JywgJzAuNScsICctbnQn

> <r_lp_tautomer_probability>
1

> <r_epik_Ionization_Penalty>
  0.0000

> <r_epik_Ionization_Penalty_Charging>
  0.0000

> <r_epik_Ionization_Penalty_Neutral>
  0.0000

> <r_epik_State_Penalty>
 -0.0000

> <r_epik_Charging_Adjusted_Penalty>
0

> <i_epik_Tot_Q>
0

> <i_epik_Tot_abs_Q>
0

> <s_epik_Chemistry_Notes>
This compound contains a Lewis acid (boronic acid) which adds nucleophiles to form tetrahedral complexes, lowering the experimental pKa

$$$$
