4qw1_ligand
                    3D
 Schrodinger Suite 2020-3.
 53 54  0  0  1  0            999 V2000
   62.3880 -132.9490   35.9420 N   0  0  0  0  0  0
   61.7320 -134.1030   36.1660 C   0  0  0  0  0  0
   61.5690 -135.0340   35.1430 C   0  0  0  0  0  0
   62.0960 -134.7680   33.8700 N   0  0  0  0  0  0
   62.7790 -133.5660   33.6360 C   0  0  0  0  0  0
   62.9240 -132.6510   34.6760 C   0  0  0  0  0  0
   61.2160 -134.3540   37.4290 C   0  0  0  0  0  0
   60.4460 -133.5510   37.9560 O   0  0  0  0  0  0
   61.6160 -135.5050   37.9920 N   0  0  0  0  0  0
   61.1890 -135.8950   39.3420 C   0  0  1  0  0  0
   60.5320 -137.2570   39.3340 C   0  0  0  0  0  0
   59.3100 -137.1180   38.6470 C   0  0  0  0  0  0
   59.1000 -137.7540   37.4200 C   0  0  0  0  0  0
   57.8840 -137.6120   36.7520 C   0  0  0  0  0  0
   56.8650 -136.8400   37.3010 C   0  0  0  0  0  0
   57.0650 -136.2070   38.5230 C   0  0  0  0  0  0
   58.2790 -136.3500   39.1940 C   0  0  0  0  0  0
   62.4480 -135.9320   40.2010 C   0  0  0  0  0  0
   63.5570 -136.0030   39.6760 O   0  0  0  0  0  0
   62.2540 -135.8300   41.5230 N   0  0  0  0  0  0
   63.3980 -135.8350   42.4520 C   0  0  1  0  0  0
   63.6150 -134.4880   43.1130 C   0  0  0  0  0  0
   63.4390 -133.3320   42.1030 C   0  0  0  0  0  0
   62.9700 -132.0870   42.8710 C   0  0  0  0  0  0
   64.7480 -133.0330   41.3520 C   0  0  0  0  0  0
   63.1700 -136.8580   43.5790 B   0  0  0  0  0  0
   61.9360 -136.5690   44.2590 O   0  0  0  0  0  0
   63.1170 -138.1860   43.0470 O   0  0  0  0  0  0
   61.0344 -135.9652   35.3304 H   0  0  0  0  0  0
   63.1921 -133.3500   32.6507 H   0  0  0  0  0  0
   63.4492 -131.7104   34.5101 H   0  0  0  0  0  0
   62.2814 -136.1631   37.4140 H   0  0  0  0  0  0
   60.4468 -135.1672   39.7019 H   0  0  0  0  0  0
   61.1872 -137.9771   38.8219 H   0  0  0  0  0  0
   60.3616 -137.5880   40.3691 H   0  0  0  0  0  0
   59.8907 -138.3640   36.9831 H   0  0  0  0  0  0
   57.7310 -138.1089   35.7940 H   0  0  0  0  0  0
   55.9156 -136.7320   36.7765 H   0  0  0  0  0  0
   56.2717 -135.5983   38.9569 H   0  0  0  0  0  0
   58.4251 -135.8575   40.1553 H   0  0  0  0  0  0
   61.2292 -135.7420   41.9129 H   0  0  0  0  0  0
   64.2585 -136.0801   41.8121 H   0  0  0  0  0  0
   62.8854 -134.3566   43.9257 H   0  0  0  0  0  0
   64.6342 -134.4412   43.5241 H   0  0  0  0  0  0
   62.6919 -133.6173   41.3478 H   0  0  0  0  0  0
   62.0343 -132.3150   43.4026 H   0  0  0  0  0  0
   62.7981 -131.2627   42.1632 H   0  0  0  0  0  0
   63.7417 -131.7919   43.5972 H   0  0  0  0  0  0
   65.0717 -133.9321   40.8072 H   0  0  0  0  0  0
   65.5259 -132.7411   42.0729 H   0  0  0  0  0  0
   64.5823 -132.2120   40.6389 H   0  0  0  0  0  0
   61.7875 -135.5892   44.7365 H   0  0  0  0  0  0
   63.9749 -138.5897   42.4893 H   0  0  0  0  0  0
  1  2  2  0  0  0
  1  6  1  0  0  0
  2  3  1  0  0  0
  2  7  1  0  0  0
  3  4  2  0  0  0
  3 29  1  0  0  0
  4  5  1  0  0  0
  5  6  2  0  0  0
  5 30  1  0  0  0
  6 31  1  0  0  0
  7  8  2  0  0  0
  7  9  1  0  0  0
  9 10  1  0  0  0
  9 32  1  0  0  0
 10 11  1  0  0  0
 10 18  1  0  0  0
 10 33  1  0  0  0
 11 12  1  0  0  0
 11 34  1  0  0  0
 11 35  1  0  0  0
 12 13  2  0  0  0
 12 17  1  0  0  0
 13 14  1  0  0  0
 13 36  1  0  0  0
 14 15  2  0  0  0
 14 37  1  0  0  0
 15 16  1  0  0  0
 15 38  1  0  0  0
 16 17  2  0  0  0
 16 39  1  0  0  0
 17 40  1  0  0  0
 18 19  2  0  0  0
 18 20  1  0  0  0
 20 21  1  0  0  0
 20 41  1  0  0  0
 21 22  1  0  0  0
 21 26  1  0  0  0
 21 42  1  0  0  0
 22 23  1  0  0  0
 22 43  1  0  0  0
 22 44  1  0  0  0
 23 24  1  0  0  0
 23 25  1  0  0  0
 23 45  1  0  0  0
 24 46  1  0  0  0
 24 47  1  0  0  0
 24 48  1  0  0  0
 25 49  1  0  0  0
 25 50  1  0  0  0
 25 51  1  0  0  0
 26 27  1  0  0  0
 26 28  1  0  0  0
 27 52  1  0  0  0
 28 53  1  0  0  0
M  END
> <s_m_source_file>
../4qw1_ligand.sdf

> <i_m_source_file_index>
1

> <s_epik_input>
W2NIXTFuW2NIXVtjSF1uYzFDKD1PKVtOSF1bQ0BIXShDKD1PKVtOSF1bQ0BIXShCKFtPSF0pW09IXSlbQ0gyXVtDSF0oW0NIM10pW0NIM10pW0NIMl1jMltjSF1bY0hdW2NIXVtjSF1bY0hdMg==

> <s_epik_cmdline>
J2VwaWtfYXBwJywgJy1pbWFlJywgJ2xpZ2FuZF9wcm8ubWFlJywgJy1vbWFlJywgJ2xpZ2FuZF9wcmVwLm1hZScsICctbXMnLCAnMScsICctcGgnLCAnNycsICctcGh0JywgJzAuNScsICctbnQn

> <r_lp_tautomer_probability>
1

> <r_epik_Ionization_Penalty>
  0.0000

> <r_epik_Ionization_Penalty_Charging>
  0.0000

> <r_epik_Ionization_Penalty_Neutral>
  0.0000

> <r_epik_State_Penalty>
 -0.0000

> <r_epik_Charging_Adjusted_Penalty>
0

> <i_epik_Tot_Q>
0

> <i_epik_Tot_abs_Q>
0

> <s_epik_Chemistry_Notes>
This compound contains a Lewis acid (boronic acid) which adds nucleophiles to form tetrahedral complexes, lowering the experimental pKa

$$$$
