4qw3_ligand
                    3D
 Schrodinger Suite 2020-3.
 53 54  0  0  1  0            999 V2000
   62.9770 -133.0020   36.1800 N   0  0  0  0  0  0
   62.4900 -134.2160   36.4910 C   0  0  0  0  0  0
   62.5010 -135.2390   35.5460 C   0  0  0  0  0  0
   63.0250 -135.0020   34.2710 N   0  0  0  0  0  0
   63.5300 -133.7370   33.9550 C   0  0  0  0  0  0
   63.5050 -132.7320   34.9130 C   0  0  0  0  0  0
   61.9830 -134.4160   37.7700 C   0  0  0  0  0  0
   61.4350 -133.4890   38.3640 O   0  0  0  0  0  0
   62.1440 -135.6450   38.2930 N   0  0  0  0  0  0
   61.6910 -135.9480   39.6570 C   0  0  1  0  0  0
   60.9790 -137.2740   39.7340 C   0  0  0  0  0  0
   59.8300 -137.1430   38.9360 C   0  0  0  0  0  0
   59.7010 -137.8680   37.7480 C   0  0  0  0  0  0
   58.5590 -137.7350   36.9620 C   0  0  0  0  0  0
   57.5340 -136.8820   37.3550 C   0  0  0  0  0  0
   57.6530 -136.1600   38.5380 C   0  0  0  0  0  0
   58.7930 -136.2910   39.3260 C   0  0  0  0  0  0
   62.9370 -135.9940   40.5240 C   0  0  0  0  0  0
   64.0460 -136.1450   40.0120 O   0  0  0  0  0  0
   62.7190 -135.8300   41.8360 N   0  0  0  0  0  0
   63.8380 -135.8190   42.7840 C   0  0  1  0  0  0
   63.9000 -134.4920   43.5080 C   0  0  0  0  0  0
   63.9550 -133.3430   42.4810 C   0  0  0  0  0  0
   63.8120 -132.0150   43.2350 C   0  0  0  0  0  0
   65.2710 -133.3670   41.6860 C   0  0  0  0  0  0
   63.6930 -136.9310   43.8330 B   0  0  0  0  0  0
   62.4230 -136.8380   44.4840 O   0  0  0  0  0  0
   63.8120 -138.2210   43.2270 O   0  0  0  0  0  0
   62.1024 -136.2214   35.7992 H   0  0  0  0  0  0
   63.9402 -133.5412   32.9643 H   0  0  0  0  0  0
   63.8937 -131.7407   34.6796 H   0  0  0  0  0  0
   62.6218 -136.4278   37.6855 H   0  0  0  0  0  0
   60.9741 -135.1715   39.9621 H   0  0  0  0  0  0
   61.6391 -138.0673   39.3533 H   0  0  0  0  0  0
   60.7143 -137.4879   40.7800 H   0  0  0  0  0  0
   60.4988 -138.5414   37.4349 H   0  0  0  0  0  0
   58.4685 -138.3018   36.0353 H   0  0  0  0  0  0
   56.6408 -136.7794   36.7387 H   0  0  0  0  0  0
   56.8515 -135.4899   38.8488 H   0  0  0  0  0  0
   58.8775 -135.7251   40.2538 H   0  0  0  0  0  0
   61.6887 -135.7029   42.1998 H   0  0  0  0  0  0
   64.7362 -135.9714   42.1675 H   0  0  0  0  0  0
   63.0058 -134.3760   44.1381 H   0  0  0  0  0  0
   64.8001 -134.4605   44.1395 H   0  0  0  0  0  0
   63.1344 -133.4568   41.7573 H   0  0  0  0  0  0
   62.8671 -132.0130   43.7981 H   0  0  0  0  0  0
   63.8118 -131.1830   42.5154 H   0  0  0  0  0  0
   64.6546 -131.8966   43.9321 H   0  0  0  0  0  0
   65.3590 -134.3243   41.1514 H   0  0  0  0  0  0
   66.1191 -133.2537   42.3773 H   0  0  0  0  0  0
   65.2763 -132.5401   40.9606 H   0  0  0  0  0  0
   62.1419 -135.9149   45.0120 H   0  0  0  0  0  0
   64.7251 -138.4869   42.6743 H   0  0  0  0  0  0
  1  2  2  0  0  0
  1  6  1  0  0  0
  2  3  1  0  0  0
  2  7  1  0  0  0
  3  4  2  0  0  0
  3 29  1  0  0  0
  4  5  1  0  0  0
  5  6  2  0  0  0
  5 30  1  0  0  0
  6 31  1  0  0  0
  7  8  2  0  0  0
  7  9  1  0  0  0
  9 10  1  0  0  0
  9 32  1  0  0  0
 10 11  1  0  0  0
 10 18  1  0  0  0
 10 33  1  0  0  0
 11 12  1  0  0  0
 11 34  1  0  0  0
 11 35  1  0  0  0
 12 13  2  0  0  0
 12 17  1  0  0  0
 13 14  1  0  0  0
 13 36  1  0  0  0
 14 15  2  0  0  0
 14 37  1  0  0  0
 15 16  1  0  0  0
 15 38  1  0  0  0
 16 17  2  0  0  0
 16 39  1  0  0  0
 17 40  1  0  0  0
 18 19  2  0  0  0
 18 20  1  0  0  0
 20 21  1  0  0  0
 20 41  1  0  0  0
 21 22  1  0  0  0
 21 26  1  0  0  0
 21 42  1  0  0  0
 22 23  1  0  0  0
 22 43  1  0  0  0
 22 44  1  0  0  0
 23 24  1  0  0  0
 23 25  1  0  0  0
 23 45  1  0  0  0
 24 46  1  0  0  0
 24 47  1  0  0  0
 24 48  1  0  0  0
 25 49  1  0  0  0
 25 50  1  0  0  0
 25 51  1  0  0  0
 26 27  1  0  0  0
 26 28  1  0  0  0
 27 52  1  0  0  0
 28 53  1  0  0  0
M  END
> <s_m_source_file>
../4qw3_ligand.sdf

> <i_m_source_file_index>
1

> <s_epik_input>
W2NIXTFuW2NIXVtjSF1uYzFDKD1PKVtOSF1bQ0BIXShDKD1PKVtOSF1bQ0BIXShCKFtPSF0pW09IXSlbQ0gyXVtDSF0oW0NIM10pW0NIM10pW0NIMl1jMltjSF1bY0hdW2NIXVtjSF1bY0hdMg==

> <s_epik_cmdline>
J2VwaWtfYXBwJywgJy1pbWFlJywgJ2xpZ2FuZF9wcm8ubWFlJywgJy1vbWFlJywgJ2xpZ2FuZF9wcmVwLm1hZScsICctbXMnLCAnMScsICctcGgnLCAnNycsICctcGh0JywgJzAuNScsICctbnQn

> <r_lp_tautomer_probability>
1

> <r_epik_Ionization_Penalty>
  0.0000

> <r_epik_Ionization_Penalty_Charging>
  0.0000

> <r_epik_Ionization_Penalty_Neutral>
  0.0000

> <r_epik_State_Penalty>
 -0.0000

> <r_epik_Charging_Adjusted_Penalty>
0

> <i_epik_Tot_Q>
0

> <i_epik_Tot_abs_Q>
0

> <s_epik_Chemistry_Notes>
This compound contains a Lewis acid (boronic acid) which adds nucleophiles to form tetrahedral complexes, lowering the experimental pKa

$$$$
