4qw4_ligand
                    3D
 Schrodinger Suite 2020-3.
113115  0  0  1  0            999 V2000
   59.0360 -134.8640   31.7080 C   0  0  0  0  0  0
   59.6910 -133.9000   31.3090 O   0  0  0  0  0  0
   58.6480 -136.0370   30.7820 C   0  0  0  0  0  0
   58.2970 -135.6520   29.3910 N   0  0  0  0  0  0
   58.2010 -134.0750   27.2120 O   0  0  0  0  0  0
   59.4890 -135.3750   28.5460 C   0  0  0  0  0  0
   57.3000 -134.5500   29.3330 C   0  0  0  0  0  0
   58.9890 -135.2480   27.1490 C   0  0  0  0  0  0
   56.9590 -134.2680   27.9460 C   0  0  0  0  0  0
   58.6140 -135.0120   32.9710 N   0  0  0  0  0  0
   58.9010 -134.0320   34.0260 C   0  0  2  0  0  0
   60.1310 -134.5050   34.7960 C   0  0  0  0  0  0
   60.4170 -135.7010   34.8440 O   0  0  0  0  0  0
   57.7550 -134.0170   35.0040 C   0  0  0  0  0  0
   56.9960 -132.7250   34.7640 C   0  0  0  0  0  0
   55.7350 -132.7830   35.4190 C   0  0  0  0  0  0
   54.6610 -132.0600   34.8920 C   0  0  0  0  0  0
   55.5170 -133.5180   36.5920 C   0  0  0  0  0  0
   53.4100 -132.0830   35.5080 C   0  0  0  0  0  0
   54.2680 -133.5460   37.2080 C   0  0  0  0  0  0
   53.2110 -132.8270   36.6670 C   0  0  0  0  0  0
   60.8100 -133.5450   35.4360 N   0  0  0  0  0  0
   61.9800 -133.8720   36.2600 C   0  0  2  0  0  0
   61.4880 -134.0530   37.6970 C   0  0  0  0  0  0
   60.7510 -133.2100   38.2110 O   0  0  0  0  0  0
   62.9740 -132.7430   36.2200 C   0  0  0  0  0  0
   63.6790 -132.8530   34.8480 C   0  0  0  0  0  0
   64.2990 -131.5020   34.4530 C   0  0  0  0  0  0
   64.7650 -133.9420   34.8750 C   0  0  0  0  0  0
   61.8910 -135.1830   38.3050 N   0  0  0  0  0  0
   61.5290 -135.4810   39.6990 C   0  0  2  0  0  0
   62.8150 -135.4590   40.5160 C   0  0  0  0  0  0
   63.9110 -135.5340   39.9610 O   0  0  0  0  0  0
   60.8660 -136.8170   39.8370 C   0  0  0  0  0  0
   59.5560 -136.6240   39.3780 C   0  0  0  0  0  0
   59.2240 -136.9080   38.0540 C   0  0  0  0  0  0
   58.5700 -136.1440   40.2440 C   0  0  0  0  0  0
   57.9210 -136.7170   37.6000 C   0  0  0  0  0  0
   57.2670 -135.9530   39.7910 C   0  0  0  0  0  0
   56.9420 -136.2430   38.4690 C   0  0  0  0  0  0
   62.6260 -135.3350   41.8390 N   0  0  0  0  0  0
   63.7280 -135.1740   42.7940 C   0  0  1  0  0  0
   63.5210 -133.7660   43.3320 C   0  0  0  0  0  0
   64.6210 -132.7750   42.8650 C   0  0  0  0  0  0
   64.1400 -131.3450   43.1800 C   0  0  0  0  0  0
   64.9670 -132.8630   41.3640 C   0  0  0  0  0  0
   63.6550 -136.1630   43.9880 C   0  0  2  0  0  0
   64.0450 -137.7100   43.7110 C   0  0  2  0  0  0
   65.1750 -137.8200   42.6530 C   0  0  0  0  0  0
   62.8550 -138.4090   43.0570 C   0  0  0  0  0  0
   61.7700 -138.2720   43.9770 O   0  0  0  0  0  0
   62.3300 -136.0800   44.5350 O   0  0  0  0  0  0
   59.4899 -136.7413   30.7100 H   0  0  0  0  0  0
   57.7704 -136.5557   31.1953 H   0  0  0  0  0  0
   59.9672 -134.4427   28.8809 H   0  0  0  0  0  0
   60.2035 -136.2065   28.6360 H   0  0  0  0  0  0
   56.3921 -134.8479   29.8780 H   0  0  0  0  0  0
   57.7249 -133.6464   29.7946 H   0  0  0  0  0  0
   58.3598 -136.0963   26.8418 H   0  0  0  0  0  0
   59.7979 -135.1075   26.4169 H   0  0  0  0  0  0
   56.3492 -133.3548   27.8813 H   0  0  0  0  0  0
   56.4032 -135.1116   27.5108 H   0  0  0  0  0  0
   58.0293 -135.9144   33.2029 H   0  0  0  0  0  0
   59.0398 -133.0490   33.5523 H   0  0  0  0  0  0
   57.1095 -134.8896   34.8258 H   0  0  0  0  0  0
   58.1484 -134.0555   36.0305 H   0  0  0  0  0  0
   57.5760 -131.8796   35.1625 H   0  0  0  0  0  0
   56.8405 -132.5863   33.6839 H   0  0  0  0  0  0
   54.8033 -131.4698   33.9867 H   0  0  0  0  0  0
   56.3417 -134.0793   37.0313 H   0  0  0  0  0  0
   52.5840 -131.5154   35.0795 H   0  0  0  0  0  0
   54.1206 -134.1325   38.1149 H   0  0  0  0  0  0
   52.2323 -132.8451   37.1465 H   0  0  0  0  0  0
   60.4808 -132.5000   35.3383 H   0  0  0  0  0  0
   62.4543 -134.7773   35.8532 H   0  0  0  0  0  0
   62.4442 -131.7843   36.3213 H   0  0  0  0  0  0
   63.6901 -132.8554   37.0474 H   0  0  0  0  0  0
   62.9278 -133.1322   34.0945 H   0  0  0  0  0  0
   63.5156 -130.7300   34.4363 H   0  0  0  0  0  0
   64.7534 -131.5850   33.4547 H   0  0  0  0  0  0
   65.0714 -131.2249   35.1855 H   0  0  0  0  0  0
   64.3127 -134.9039   35.1582 H   0  0  0  0  0  0
   65.5385 -133.6704   35.6085 H   0  0  0  0  0  0
   65.2204 -134.0305   33.8776 H   0  0  0  0  0  0
   62.5063 -135.8929   37.7328 H   0  0  0  0  0  0
   60.7977 -134.7267   40.0249 H   0  0  0  0  0  0
   61.4038 -137.5579   39.2272 H   0  0  0  0  0  0
   60.8838 -137.1280   40.8920 H   0  0  0  0  0  0
   59.9873 -137.2811   37.3712 H   0  0  0  0  0  0
   58.8221 -135.9178   41.2800 H   0  0  0  0  0  0
   57.6676 -136.9389   36.5633 H   0  0  0  0  0  0
   56.5026 -135.5769   40.4709 H   0  0  0  0  0  0
   55.9214 -136.0991   38.1143 H   0  0  0  0  0  0
   61.5864 -135.3584   42.1977 H   0  0  0  0  0  0
   64.6744 -135.3507   42.2619 H   0  0  0  0  0  0
   62.5515 -133.3795   42.9845 H   0  0  0  0  0  0
   63.5340 -133.7881   44.4317 H   0  0  0  0  0  0
   65.5442 -133.0374   43.4025 H   0  0  0  0  0  0
   63.8899 -131.2693   44.2485 H   0  0  0  0  0  0
   63.2482 -131.1171   42.5777 H   0  0  0  0  0  0
   64.9386 -130.6280   42.9386 H   0  0  0  0  0  0
   65.3120 -133.8801   41.1263 H   0  0  0  0  0  0
   65.7630 -132.1413   41.1283 H   0  0  0  0  0  0
   64.0727 -132.6304   40.7673 H   0  0  0  0  0  0
   64.3574 -135.7760   44.7409 H   0  0  0  0  0  0
   64.3405 -138.1946   44.6533 H   0  0  0  0  0  0
   66.0859 -137.3382   43.0380 H   0  0  0  0  0  0
   64.8592 -137.3193   41.7259 H   0  0  0  0  0  0
   65.3808 -138.8804   42.4453 H   0  0  0  0  0  0
   62.6275 -137.9239   42.0963 H   0  0  0  0  0  0
   63.1009 -139.4672   42.8843 H   0  0  0  0  0  0
   60.7855 -138.6982   43.7338 H   0  0  0  0  0  0
   61.8989 -135.0995   44.7856 H   0  0  0  0  0  0
  1  2  2  0  0  0
  1  3  1  0  0  0
  1 10  1  0  0  0
  3  4  1  0  0  0
  3 53  1  0  0  0
  3 54  1  0  0  0
  4  6  1  0  0  0
  4  7  1  0  0  0
  5  8  1  0  0  0
  5  9  1  0  0  0
  6  8  1  0  0  0
  6 55  1  0  0  0
  6 56  1  0  0  0
  7  9  1  0  0  0
  7 57  1  0  0  0
  7 58  1  0  0  0
  8 59  1  0  0  0
  8 60  1  0  0  0
  9 61  1  0  0  0
  9 62  1  0  0  0
 10 11  1  0  0  0
 10 63  1  0  0  0
 11 12  1  0  0  0
 11 14  1  0  0  0
 11 64  1  0  0  0
 12 13  2  0  0  0
 12 22  1  0  0  0
 14 15  1  0  0  0
 14 65  1  0  0  0
 14 66  1  0  0  0
 15 16  1  0  0  0
 15 67  1  0  0  0
 15 68  1  0  0  0
 16 17  2  0  0  0
 16 18  1  0  0  0
 17 19  1  0  0  0
 17 69  1  0  0  0
 18 20  2  0  0  0
 18 70  1  0  0  0
 19 21  2  0  0  0
 19 71  1  0  0  0
 20 21  1  0  0  0
 20 72  1  0  0  0
 21 73  1  0  0  0
 22 23  1  0  0  0
 22 74  1  0  0  0
 23 24  1  0  0  0
 23 26  1  0  0  0
 23 75  1  0  0  0
 24 25  2  0  0  0
 24 30  1  0  0  0
 26 27  1  0  0  0
 26 76  1  0  0  0
 26 77  1  0  0  0
 27 28  1  0  0  0
 27 29  1  0  0  0
 27 78  1  0  0  0
 28 79  1  0  0  0
 28 80  1  0  0  0
 28 81  1  0  0  0
 29 82  1  0  0  0
 29 83  1  0  0  0
 29 84  1  0  0  0
 30 31  1  0  0  0
 30 85  1  0  0  0
 31 32  1  0  0  0
 31 34  1  0  0  0
 31 86  1  0  0  0
 32 33  2  0  0  0
 32 41  1  0  0  0
 34 35  1  0  0  0
 34 87  1  0  0  0
 34 88  1  0  0  0
 35 36  2  0  0  0
 35 37  1  0  0  0
 36 38  1  0  0  0
 36 89  1  0  0  0
 37 39  2  0  0  0
 37 90  1  0  0  0
 38 40  2  0  0  0
 38 91  1  0  0  0
 39 40  1  0  0  0
 39 92  1  0  0  0
 40 93  1  0  0  0
 41 42  1  0  0  0
 41 94  1  0  0  0
 42 43  1  0  0  0
 42 47  1  0  0  0
 42 95  1  0  0  0
 43 44  1  0  0  0
 43 96  1  0  0  0
 43 97  1  0  0  0
 44 45  1  0  0  0
 44 46  1  0  0  0
 44 98  1  0  0  0
 45 99  1  0  0  0
 45100  1  0  0  0
 45101  1  0  0  0
 46102  1  0  0  0
 46103  1  0  0  0
 46104  1  0  0  0
 47 48  1  0  0  0
 47 52  1  0  0  0
 47105  1  0  0  0
 48 49  1  0  0  0
 48 50  1  0  0  0
 48106  1  0  0  0
 49107  1  0  0  0
 49108  1  0  0  0
 49109  1  0  0  0
 50 51  1  0  0  0
 50110  1  0  0  0
 50111  1  0  0  0
 51112  1  0  0  0
 52113  1  0  0  0
M  END
> <s_m_source_file>
../4qw4_ligand.sdf

> <i_m_source_file_index>
1

> <s_epik_input>
W0NIMl0xW0NIMl1PW0NIMl1bQ0gyXVtOSCtdMVtDSDJdQyg9TylbTkhdW0NAQEhdKFtDSDJdW0NIMl1jMltjSF1bY0hdW2NIXVtjSF1bY0hdMilDKD1PKVtOSF1bQ0BASF0oW0NIMl1bQ0hdKFtDSDNdKVtDSDNdKUMoPU8pW05IXVtDQEhdKEMoPU8pW05IXVtDQEBIXShbQ0gyXVtDSF0oW0NIM10pW0NIM10pW0NAQEhdKFtPSF0pW0NASF0oW0NIM10pW0NIMl1bT0hdKVtDSDJdYzNbY0hdW2NIXVtjSF1bY0hdW2NIXTM=

> <s_epik_cmdline>
J2VwaWtfYXBwJywgJy1pbWFlJywgJ2xpZ2FuZF9wcm8ubWFlJywgJy1vbWFlJywgJ2xpZ2FuZF9wcmVwLm1hZScsICctbXMnLCAnMScsICctcGgnLCAnNycsICctcGh0JywgJzAuNScsICctbnQn

> <r_lp_tautomer_probability>
1

> <r_epik_Ionization_Penalty>
  0.0036

> <r_epik_Ionization_Penalty_Charging>
  0.0000

> <r_epik_Ionization_Penalty_Neutral>
  0.0036

> <r_epik_State_Penalty>
 -0.0000

> <r_epik_Charging_Adjusted_Penalty>
0

> <i_epik_Tot_Q>
0

> <i_epik_Tot_abs_Q>
0

$$$$
