4qw5_ligand
                    3D
 Schrodinger Suite 2020-3.
113115  0  0  1  0            999 V2000
   58.8590 -135.3360   31.5730 C   0  0  0  0  0  0
   59.4700 -134.3520   31.1540 O   0  0  0  0  0  0
   58.5540 -136.5580   30.6950 C   0  0  0  0  0  0
   58.0650 -136.2170   29.3410 N   0  0  0  0  0  0
   57.5810 -134.5690   27.2600 O   0  0  0  0  0  0
   59.1550 -135.7150   28.4600 C   0  0  0  0  0  0
   56.8920 -135.3020   29.3720 C   0  0  0  0  0  0
   58.5920 -135.5590   27.0930 C   0  0  0  0  0  0
   56.4470 -135.0980   28.0050 C   0  0  0  0  0  0
   58.4030 -135.4560   32.8180 N   0  0  0  0  0  0
   58.6290 -134.4340   33.8300 C   0  0  2  0  0  0
   59.8290 -134.9030   34.6240 C   0  0  0  0  0  0
   60.0660 -136.1060   34.7320 O   0  0  0  0  0  0
   57.4560 -134.4140   34.7690 C   0  0  0  0  0  0
   56.6570 -133.1730   34.4270 C   0  0  0  0  0  0
   55.4000 -133.2350   35.0820 C   0  0  0  0  0  0
   55.2640 -133.6900   36.4020 C   0  0  0  0  0  0
   54.2520 -132.8070   34.4100 C   0  0  0  0  0  0
   54.0200 -133.7330   37.0230 C   0  0  0  0  0  0
   53.0070 -132.8470   35.0310 C   0  0  0  0  0  0
   52.8880 -133.3110   36.3380 C   0  0  0  0  0  0
   60.5510 -133.9480   35.2070 N   0  0  0  0  0  0
   61.6840 -134.3270   36.0440 C   0  0  2  0  0  0
   61.1490 -134.4910   37.4560 C   0  0  0  0  0  0
   60.4450 -133.6160   37.9590 O   0  0  0  0  0  0
   62.7390 -133.2580   36.0720 C   0  0  0  0  0  0
   63.3240 -133.1590   34.6550 C   0  0  0  0  0  0
   64.3140 -131.9850   34.6060 C   0  0  0  0  0  0
   64.0460 -134.4590   34.2520 C   0  0  0  0  0  0
   61.4840 -135.6440   38.0490 N   0  0  0  0  0  0
   61.0940 -135.9360   39.4290 C   0  0  2  0  0  0
   62.3720 -135.8970   40.2460 C   0  0  0  0  0  0
   63.4690 -135.8130   39.6920 O   0  0  0  0  0  0
   60.4300 -137.2700   39.5530 C   0  0  0  0  0  0
   59.1440 -137.0560   39.0670 C   0  0  0  0  0  0
   58.1610 -136.5230   39.9000 C   0  0  0  0  0  0
   58.8390 -137.3640   37.7440 C   0  0  0  0  0  0
   56.8780 -136.3050   39.4090 C   0  0  0  0  0  0
   57.5550 -137.1490   37.2550 C   0  0  0  0  0  0
   56.5740 -136.6190   38.0870 C   0  0  0  0  0  0
   62.1870 -135.9520   41.5690 N   0  0  0  0  0  0
   63.2920 -135.7650   42.4970 C   0  0  1  0  0  0
   63.0040 -134.3610   42.9990 C   0  0  0  0  0  0
   64.1320 -133.3710   42.6400 C   0  0  0  0  0  0
   63.6580 -131.9630   43.0340 C   0  0  0  0  0  0
   64.4790 -133.3730   41.1430 C   0  0  0  0  0  0
   63.2670 -136.7260   43.7060 C   0  0  2  0  0  0
   63.8050 -138.2020   43.4720 C   0  0  2  0  0  0
   65.0980 -138.1670   42.6170 C   0  0  0  0  0  0
   62.7510 -139.0730   42.7690 C   0  0  0  0  0  0
   62.2590 -138.5060   41.5800 O   0  0  0  0  0  0
   61.9340 -136.7800   44.2110 O   0  0  0  0  0  0
   59.4683 -137.1566   30.5695 H   0  0  0  0  0  0
   57.7777 -137.1708   31.1764 H   0  0  0  0  0  0
   59.5162 -134.7475   28.8387 H   0  0  0  0  0  0
   59.9835 -136.4385   28.4532 H   0  0  0  0  0  0
   56.0882 -135.7565   29.9697 H   0  0  0  0  0  0
   57.1868 -134.3430   29.8230 H   0  0  0  0  0  0
   58.1371 -136.4882   26.7193 H   0  0  0  0  0  0
   59.3403 -135.2008   26.3707 H   0  0  0  0  0  0
   55.6172 -134.3767   27.9708 H   0  0  0  0  0  0
   56.1248 -136.0491   27.5560 H   0  0  0  0  0  0
   57.8385 -136.3655   33.0713 H   0  0  0  0  0  0
   58.7616 -133.4535   33.3494 H   0  0  0  0  0  0
   56.8541 -135.3231   34.6233 H   0  0  0  0  0  0
   57.8179 -134.3764   35.8071 H   0  0  0  0  0  0
   57.2052 -132.2801   34.7620 H   0  0  0  0  0  0
   56.5051 -133.1231   33.3387 H   0  0  0  0  0  0
   56.1481 -134.0154   36.9503 H   0  0  0  0  0  0
   54.3324 -132.4376   33.3877 H   0  0  0  0  0  0
   53.9337 -134.0977   38.0466 H   0  0  0  0  0  0
   52.1208 -132.5133   34.4912 H   0  0  0  0  0  0
   51.9115 -133.3430   36.8213 H   0  0  0  0  0  0
   60.3034 -132.8857   35.0647 H   0  0  0  0  0  0
   62.1203 -135.2410   35.6148 H   0  0  0  0  0  0
   62.2843 -132.3018   36.3703 H   0  0  0  0  0  0
   63.5210 -133.5334   36.7949 H   0  0  0  0  0  0
   62.4979 -132.9941   33.9476 H   0  0  0  0  0  0
   63.7974 -131.0575   34.8939 H   0  0  0  0  0  0
   64.7105 -131.8821   33.5851 H   0  0  0  0  0  0
   65.1428 -132.1749   35.3039 H   0  0  0  0  0  0
   63.3363 -135.2987   34.2875 H   0  0  0  0  0  0
   64.8747 -134.6496   34.9498 H   0  0  0  0  0  0
   64.4425 -134.3568   33.2310 H   0  0  0  0  0  0
   62.0658 -136.3798   37.4744 H   0  0  0  0  0  0
   60.3506 -135.1933   39.7541 H   0  0  0  0  0  0
   60.9803 -138.0105   38.9540 H   0  0  0  0  0  0
   60.4266 -137.5813   40.6080 H   0  0  0  0  0  0
   58.3978 -136.2774   40.9352 H   0  0  0  0  0  0
   59.6083 -137.7746   37.0900 H   0  0  0  0  0  0
   56.1096 -135.8879   40.0599 H   0  0  0  0  0  0
   57.3173 -137.3956   36.2202 H   0  0  0  0  0  0
   55.5676 -136.4496   37.7040 H   0  0  0  0  0  0
   61.1736 -136.1433   41.9518 H   0  0  0  0  0  0
   64.2431 -135.9367   41.9718 H   0  0  0  0  0  0
   62.0707 -133.9942   42.5469 H   0  0  0  0  0  0
   62.8993 -134.3773   44.0939 H   0  0  0  0  0  0
   65.0420 -133.6726   43.1794 H   0  0  0  0  0  0
   63.4059 -131.9472   44.1046 H   0  0  0  0  0  0
   62.7686 -131.6971   42.4439 H   0  0  0  0  0  0
   64.4603 -131.2371   42.8354 H   0  0  0  0  0  0
   64.8202 -134.3760   40.8471 H   0  0  0  0  0  0
   65.2784 -132.6422   40.9510 H   0  0  0  0  0  0
   63.5867 -133.1022   40.5594 H   0  0  0  0  0  0
   63.8989 -136.2590   44.4758 H   0  0  0  0  0  0
   64.0242 -138.6711   44.4425 H   0  0  0  0  0  0
   65.8528 -137.5440   43.1191 H   0  0  0  0  0  0
   64.8719 -137.7430   41.6275 H   0  0  0  0  0  0
   65.4865 -139.1892   42.4978 H   0  0  0  0  0  0
   63.1927 -140.0470   42.5117 H   0  0  0  0  0  0
   61.8936 -139.2253   43.4411 H   0  0  0  0  0  0
   61.4993 -139.0392   40.9896 H   0  0  0  0  0  0
   61.3927 -135.8490   44.4353 H   0  0  0  0  0  0
  1  2  2  0  0  0
  1  3  1  0  0  0
  1 10  1  0  0  0
  3  4  1  0  0  0
  3 53  1  0  0  0
  3 54  1  0  0  0
  4  6  1  0  0  0
  4  7  1  0  0  0
  5  8  1  0  0  0
  5  9  1  0  0  0
  6  8  1  0  0  0
  6 55  1  0  0  0
  6 56  1  0  0  0
  7  9  1  0  0  0
  7 57  1  0  0  0
  7 58  1  0  0  0
  8 59  1  0  0  0
  8 60  1  0  0  0
  9 61  1  0  0  0
  9 62  1  0  0  0
 10 11  1  0  0  0
 10 63  1  0  0  0
 11 12  1  0  0  0
 11 14  1  0  0  0
 11 64  1  0  0  0
 12 13  2  0  0  0
 12 22  1  0  0  0
 14 15  1  0  0  0
 14 65  1  0  0  0
 14 66  1  0  0  0
 15 16  1  0  0  0
 15 67  1  0  0  0
 15 68  1  0  0  0
 16 17  2  0  0  0
 16 18  1  0  0  0
 17 19  1  0  0  0
 17 69  1  0  0  0
 18 20  2  0  0  0
 18 70  1  0  0  0
 19 21  2  0  0  0
 19 71  1  0  0  0
 20 21  1  0  0  0
 20 72  1  0  0  0
 21 73  1  0  0  0
 22 23  1  0  0  0
 22 74  1  0  0  0
 23 24  1  0  0  0
 23 26  1  0  0  0
 23 75  1  0  0  0
 24 25  2  0  0  0
 24 30  1  0  0  0
 26 27  1  0  0  0
 26 76  1  0  0  0
 26 77  1  0  0  0
 27 28  1  0  0  0
 27 29  1  0  0  0
 27 78  1  0  0  0
 28 79  1  0  0  0
 28 80  1  0  0  0
 28 81  1  0  0  0
 29 82  1  0  0  0
 29 83  1  0  0  0
 29 84  1  0  0  0
 30 31  1  0  0  0
 30 85  1  0  0  0
 31 32  1  0  0  0
 31 34  1  0  0  0
 31 86  1  0  0  0
 32 33  2  0  0  0
 32 41  1  0  0  0
 34 35  1  0  0  0
 34 87  1  0  0  0
 34 88  1  0  0  0
 35 36  2  0  0  0
 35 37  1  0  0  0
 36 38  1  0  0  0
 36 89  1  0  0  0
 37 39  2  0  0  0
 37 90  1  0  0  0
 38 40  2  0  0  0
 38 91  1  0  0  0
 39 40  1  0  0  0
 39 92  1  0  0  0
 40 93  1  0  0  0
 41 42  1  0  0  0
 41 94  1  0  0  0
 42 43  1  0  0  0
 42 47  1  0  0  0
 42 95  1  0  0  0
 43 44  1  0  0  0
 43 96  1  0  0  0
 43 97  1  0  0  0
 44 45  1  0  0  0
 44 46  1  0  0  0
 44 98  1  0  0  0
 45 99  1  0  0  0
 45100  1  0  0  0
 45101  1  0  0  0
 46102  1  0  0  0
 46103  1  0  0  0
 46104  1  0  0  0
 47 48  1  0  0  0
 47 52  1  0  0  0
 47105  1  0  0  0
 48 49  1  0  0  0
 48 50  1  0  0  0
 48106  1  0  0  0
 49107  1  0  0  0
 49108  1  0  0  0
 49109  1  0  0  0
 50 51  1  0  0  0
 50110  1  0  0  0
 50111  1  0  0  0
 51112  1  0  0  0
 52113  1  0  0  0
M  END
> <s_m_source_file>
../4qw5_ligand.sdf

> <i_m_source_file_index>
1

> <s_epik_input>
W0NIMl0xW0NIMl1PW0NIMl1bQ0gyXVtOSCtdMVtDSDJdQyg9TylbTkhdW0NAQEhdKFtDSDJdW0NIMl1jMltjSF1bY0hdW2NIXVtjSF1bY0hdMilDKD1PKVtOSF1bQ0BASF0oW0NIMl1bQ0hdKFtDSDNdKVtDSDNdKUMoPU8pW05IXVtDQEhdKEMoPU8pW05IXVtDQEBIXShbQ0gyXVtDSF0oW0NIM10pW0NIM10pW0NAQEhdKFtPSF0pW0NASF0oW0NIM10pW0NIMl1bT0hdKVtDSDJdYzNbY0hdW2NIXVtjSF1bY0hdW2NIXTM=

> <s_epik_cmdline>
J2VwaWtfYXBwJywgJy1pbWFlJywgJ2xpZ2FuZF9wcm8ubWFlJywgJy1vbWFlJywgJ2xpZ2FuZF9wcmVwLm1hZScsICctbXMnLCAnMScsICctcGgnLCAnNycsICctcGh0JywgJzAuNScsICctbnQn

> <r_lp_tautomer_probability>
1

> <r_epik_Ionization_Penalty>
  0.0036

> <r_epik_Ionization_Penalty_Charging>
  0.0000

> <r_epik_Ionization_Penalty_Neutral>
  0.0036

> <r_epik_State_Penalty>
 -0.0000

> <r_epik_Charging_Adjusted_Penalty>
0

> <i_epik_Tot_Q>
0

> <i_epik_Tot_abs_Q>
0

$$$$
