4qw6_ligand
                    3D
 Schrodinger Suite 2020-3.
113115  0  0  1  0            999 V2000
   58.9640 -135.0750   31.4080 C   0  0  0  0  0  0
   59.5010 -134.0550   30.9740 O   0  0  0  0  0  0
   58.6590 -136.3020   30.5370 C   0  0  0  0  0  0
   58.3280 -135.9870   29.1310 N   0  0  0  0  0  0
   58.1310 -134.3990   26.9710 O   0  0  0  0  0  0
   59.5280 -135.5940   28.3400 C   0  0  0  0  0  0
   57.2070 -135.0150   29.0160 C   0  0  0  0  0  0
   59.0980 -135.4450   26.9190 C   0  0  0  0  0  0
   56.9060 -134.8490   27.6100 C   0  0  0  0  0  0
   58.5950 -135.2410   32.6720 N   0  0  0  0  0  0
   58.8250 -134.2340   33.6940 C   0  0  2  0  0  0
   60.0070 -134.7280   34.4960 C   0  0  0  0  0  0
   60.2100 -135.9340   34.6340 O   0  0  0  0  0  0
   57.6520 -134.2240   34.6270 C   0  0  0  0  0  0
   56.9290 -132.9120   34.4150 C   0  0  0  0  0  0
   55.6670 -133.0000   35.0520 C   0  0  0  0  0  0
   55.5230 -133.5340   36.3380 C   0  0  0  0  0  0
   54.5250 -132.5280   34.4020 C   0  0  0  0  0  0
   54.2780 -133.6090   36.9500 C   0  0  0  0  0  0
   53.2770 -132.6010   35.0150 C   0  0  0  0  0  0
   53.1500 -133.1420   36.2890 C   0  0  0  0  0  0
   60.7420 -133.7770   35.0590 N   0  0  0  0  0  0
   61.8690 -134.1330   35.9080 C   0  0  2  0  0  0
   61.3260 -134.3370   37.3150 C   0  0  0  0  0  0
   60.5010 -133.5550   37.7860 O   0  0  0  0  0  0
   62.8500 -133.0010   35.9360 C   0  0  0  0  0  0
   63.6400 -133.0890   34.6210 C   0  0  0  0  0  0
   64.4670 -131.8090   34.4440 C   0  0  0  0  0  0
   64.5810 -134.3020   34.6370 C   0  0  0  0  0  0
   61.7970 -135.4160   37.9510 N   0  0  0  0  0  0
   61.4060 -135.7220   39.3300 C   0  0  2  0  0  0
   62.6750 -135.6830   40.1630 C   0  0  0  0  0  0
   63.7790 -135.6200   39.6230 O   0  0  0  0  0  0
   60.7470 -137.0580   39.4480 C   0  0  0  0  0  0
   59.4460 -136.8630   38.9780 C   0  0  0  0  0  0
   58.4580 -136.3490   39.8210 C   0  0  0  0  0  0
   59.1250 -137.1820   37.6610 C   0  0  0  0  0  0
   57.1620 -136.1580   39.3450 C   0  0  0  0  0  0
   57.8300 -136.9930   37.1880 C   0  0  0  0  0  0
   56.8450 -136.4820   38.0290 C   0  0  0  0  0  0
   62.4660 -135.6970   41.4820 N   0  0  0  0  0  0
   63.5460 -135.5020   42.4390 C   0  0  1  0  0  0
   63.2520 -134.0990   42.9410 C   0  0  0  0  0  0
   64.3770 -133.1010   42.5950 C   0  0  0  0  0  0
   63.8440 -131.6830   42.8580 C   0  0  0  0  0  0
   64.8540 -133.1910   41.1350 C   0  0  0  0  0  0
   63.5020 -136.4580   43.6450 C   0  0  2  0  0  0
   63.9060 -137.9660   43.3720 C   0  0  2  0  0  0
   65.1250 -138.0150   42.4090 C   0  0  0  0  0  0
   62.6600 -138.6130   42.7180 C   0  0  0  0  0  0
   63.0900 -139.6130   41.7840 O   0  0  0  0  0  0
   62.1780 -136.4150   44.1930 O   0  0  0  0  0  0
   59.5360 -136.9658   30.5187 H   0  0  0  0  0  0
   57.7978 -136.8437   30.9553 H   0  0  0  0  0  0
   59.9246 -134.6425   28.7238 H   0  0  0  0  0  0
   60.2978 -136.3747   28.4292 H   0  0  0  0  0  0
   56.3280 -135.4042   29.5506 H   0  0  0  0  0  0
   57.5085 -134.0536   29.4573 H   0  0  0  0  0  0
   58.6287 -136.3589   26.5259 H   0  0  0  0  0  0
   59.9267 -135.1459   26.2603 H   0  0  0  0  0  0
   56.1184 -134.0950   27.4648 H   0  0  0  0  0  0
   56.5879 -135.8023   27.1627 H   0  0  0  0  0  0
   58.0969 -136.1863   32.9335 H   0  0  0  0  0  0
   58.9708 -133.2504   33.2236 H   0  0  0  0  0  0
   56.9922 -135.0731   34.3955 H   0  0  0  0  0  0
   58.0079 -134.3084   35.6644 H   0  0  0  0  0  0
   57.5192 -132.0933   34.8525 H   0  0  0  0  0  0
   56.7990 -132.7349   33.3372 H   0  0  0  0  0  0
   56.4031 -133.8973   36.8685 H   0  0  0  0  0  0
   54.6114 -132.0979   33.4042 H   0  0  0  0  0  0
   54.1868 -134.0346   37.9493 H   0  0  0  0  0  0
   52.3944 -132.2317   34.4927 H   0  0  0  0  0  0
   52.1715 -133.1992   36.7658 H   0  0  0  0  0  0
   60.4985 -132.7188   34.8833 H   0  0  0  0  0  0
   62.3516 -135.0323   35.4976 H   0  0  0  0  0  0
   62.3071 -132.0471   36.0093 H   0  0  0  0  0  0
   63.5141 -133.1127   36.8058 H   0  0  0  0  0  0
   62.9325 -133.2011   33.7862 H   0  0  0  0  0  0
   63.7958 -130.9376   34.4321 H   0  0  0  0  0  0
   65.0206 -131.8585   33.4947 H   0  0  0  0  0  0
   65.1775 -131.7132   35.2783 H   0  0  0  0  0  0
   63.9913 -135.2219   34.7638 H   0  0  0  0  0  0
   65.2914 -134.2040   35.4711 H   0  0  0  0  0  0
   65.1345 -134.3492   33.6876 H   0  0  0  0  0  0
   62.4921 -136.0799   37.4162 H   0  0  0  0  0  0
   60.6581 -134.9815   39.6498 H   0  0  0  0  0  0
   61.2934 -137.7916   38.8370 H   0  0  0  0  0  0
   60.7545 -137.3789   40.5001 H   0  0  0  0  0  0
   58.7010 -136.0967   40.8532 H   0  0  0  0  0  0
   59.8918 -137.5817   36.9974 H   0  0  0  0  0  0
   56.3946 -135.7538   40.0052 H   0  0  0  0  0  0
   57.5860 -137.2457   36.1561 H   0  0  0  0  0  0
   55.8303 -136.3364   37.6585 H   0  0  0  0  0  0
   61.4386 -135.8625   41.8384 H   0  0  0  0  0  0
   64.5063 -135.6727   41.9304 H   0  0  0  0  0  0
   62.3214 -133.7331   42.4827 H   0  0  0  0  0  0
   63.1394 -134.1171   44.0351 H   0  0  0  0  0  0
   65.2474 -133.3442   43.2222 H   0  0  0  0  0  0
   63.5001 -131.6080   43.9002 H   0  0  0  0  0  0
   63.0040 -131.4752   42.1788 H   0  0  0  0  0  0
   64.6466 -130.9514   42.6832 H   0  0  0  0  0  0
   65.2376 -134.2026   40.9363 H   0  0  0  0  0  0
   65.6540 -132.4554   40.9646 H   0  0  0  0  0  0
   64.0114 -132.9793   40.4603 H   0  0  0  0  0  0
   64.2023 -136.0511   44.3893 H   0  0  0  0  0  0
   64.1972 -138.5145   44.2799 H   0  0  0  0  0  0
   65.9954 -137.5505   42.8954 H   0  0  0  0  0  0
   64.8851 -137.4672   41.4858 H   0  0  0  0  0  0
   65.3571 -139.0620   42.1643 H   0  0  0  0  0  0
   62.0360 -139.0761   43.4966 H   0  0  0  0  0  0
   62.0785 -137.8406   42.1934 H   0  0  0  0  0  0
   62.3464 -140.1890   41.2137 H   0  0  0  0  0  0
   61.7202 -135.4483   44.4498 H   0  0  0  0  0  0
  1  2  2  0  0  0
  1  3  1  0  0  0
  1 10  1  0  0  0
  3  4  1  0  0  0
  3 53  1  0  0  0
  3 54  1  0  0  0
  4  6  1  0  0  0
  4  7  1  0  0  0
  5  8  1  0  0  0
  5  9  1  0  0  0
  6  8  1  0  0  0
  6 55  1  0  0  0
  6 56  1  0  0  0
  7  9  1  0  0  0
  7 57  1  0  0  0
  7 58  1  0  0  0
  8 59  1  0  0  0
  8 60  1  0  0  0
  9 61  1  0  0  0
  9 62  1  0  0  0
 10 11  1  0  0  0
 10 63  1  0  0  0
 11 12  1  0  0  0
 11 14  1  0  0  0
 11 64  1  0  0  0
 12 13  2  0  0  0
 12 22  1  0  0  0
 14 15  1  0  0  0
 14 65  1  0  0  0
 14 66  1  0  0  0
 15 16  1  0  0  0
 15 67  1  0  0  0
 15 68  1  0  0  0
 16 17  2  0  0  0
 16 18  1  0  0  0
 17 19  1  0  0  0
 17 69  1  0  0  0
 18 20  2  0  0  0
 18 70  1  0  0  0
 19 21  2  0  0  0
 19 71  1  0  0  0
 20 21  1  0  0  0
 20 72  1  0  0  0
 21 73  1  0  0  0
 22 23  1  0  0  0
 22 74  1  0  0  0
 23 24  1  0  0  0
 23 26  1  0  0  0
 23 75  1  0  0  0
 24 25  2  0  0  0
 24 30  1  0  0  0
 26 27  1  0  0  0
 26 76  1  0  0  0
 26 77  1  0  0  0
 27 28  1  0  0  0
 27 29  1  0  0  0
 27 78  1  0  0  0
 28 79  1  0  0  0
 28 80  1  0  0  0
 28 81  1  0  0  0
 29 82  1  0  0  0
 29 83  1  0  0  0
 29 84  1  0  0  0
 30 31  1  0  0  0
 30 85  1  0  0  0
 31 32  1  0  0  0
 31 34  1  0  0  0
 31 86  1  0  0  0
 32 33  2  0  0  0
 32 41  1  0  0  0
 34 35  1  0  0  0
 34 87  1  0  0  0
 34 88  1  0  0  0
 35 36  2  0  0  0
 35 37  1  0  0  0
 36 38  1  0  0  0
 36 89  1  0  0  0
 37 39  2  0  0  0
 37 90  1  0  0  0
 38 40  2  0  0  0
 38 91  1  0  0  0
 39 40  1  0  0  0
 39 92  1  0  0  0
 40 93  1  0  0  0
 41 42  1  0  0  0
 41 94  1  0  0  0
 42 43  1  0  0  0
 42 47  1  0  0  0
 42 95  1  0  0  0
 43 44  1  0  0  0
 43 96  1  0  0  0
 43 97  1  0  0  0
 44 45  1  0  0  0
 44 46  1  0  0  0
 44 98  1  0  0  0
 45 99  1  0  0  0
 45100  1  0  0  0
 45101  1  0  0  0
 46102  1  0  0  0
 46103  1  0  0  0
 46104  1  0  0  0
 47 48  1  0  0  0
 47 52  1  0  0  0
 47105  1  0  0  0
 48 49  1  0  0  0
 48 50  1  0  0  0
 48106  1  0  0  0
 49107  1  0  0  0
 49108  1  0  0  0
 49109  1  0  0  0
 50 51  1  0  0  0
 50110  1  0  0  0
 50111  1  0  0  0
 51112  1  0  0  0
 52113  1  0  0  0
M  END
> <s_m_source_file>
../4qw6_ligand.sdf

> <i_m_source_file_index>
1

> <s_epik_input>
W0NIMl0xW0NIMl1PW0NIMl1bQ0gyXVtOSCtdMVtDSDJdQyg9TylbTkhdW0NAQEhdKFtDSDJdW0NIMl1jMltjSF1bY0hdW2NIXVtjSF1bY0hdMilDKD1PKVtOSF1bQ0BASF0oW0NIMl1bQ0hdKFtDSDNdKVtDSDNdKUMoPU8pW05IXVtDQEhdKEMoPU8pW05IXVtDQEBIXShbQ0gyXVtDSF0oW0NIM10pW0NIM10pW0NAQEhdKFtPSF0pW0NASF0oW0NIM10pW0NIMl1bT0hdKVtDSDJdYzNbY0hdW2NIXVtjSF1bY0hdW2NIXTM=

> <s_epik_cmdline>
J2VwaWtfYXBwJywgJy1pbWFlJywgJ2xpZ2FuZF9wcm8ubWFlJywgJy1vbWFlJywgJ2xpZ2FuZF9wcmVwLm1hZScsICctbXMnLCAnMScsICctcGgnLCAnNycsICctcGh0JywgJzAuNScsICctbnQn

> <r_lp_tautomer_probability>
1

> <r_epik_Ionization_Penalty>
  0.0036

> <r_epik_Ionization_Penalty_Charging>
  0.0000

> <r_epik_Ionization_Penalty_Neutral>
  0.0036

> <r_epik_State_Penalty>
 -0.0000

> <r_epik_Charging_Adjusted_Penalty>
0

> <i_epik_Tot_Q>
0

> <i_epik_Tot_abs_Q>
0

$$$$
