4qw7_ligand
                    3D
 Schrodinger Suite 2020-3.
113115  0  0  1  0            999 V2000
   59.0040 -135.4210   31.5030 C   0  0  0  0  0  0
   59.7030 -134.4990   31.0780 O   0  0  0  0  0  0
   58.6330 -136.6430   30.6420 C   0  0  0  0  0  0
   58.2640 -136.3380   29.2370 N   0  0  0  0  0  0
   58.2350 -134.9390   26.9410 O   0  0  0  0  0  0
   59.4550 -136.2530   28.3500 C   0  0  0  0  0  0
   57.3780 -135.1490   29.1090 C   0  0  0  0  0  0
   58.9390 -136.1680   26.9500 C   0  0  0  0  0  0
   57.0040 -134.9820   27.7150 C   0  0  0  0  0  0
   58.5110 -135.4830   32.7440 N   0  0  0  0  0  0
   58.7750 -134.4660   33.7620 C   0  0  2  0  0  0
   59.9980 -134.9380   34.5370 C   0  0  0  0  0  0
   60.2860 -136.1330   34.5780 O   0  0  0  0  0  0
   57.6190 -134.4340   34.7290 C   0  0  0  0  0  0
   56.8350 -133.1630   34.4570 C   0  0  0  0  0  0
   55.5840 -133.2390   35.1240 C   0  0  0  0  0  0
   54.4460 -132.7100   34.5090 C   0  0  0  0  0  0
   55.4410 -133.8090   36.3960 C   0  0  0  0  0  0
   53.2060 -132.7630   35.1380 C   0  0  0  0  0  0
   54.2020 -133.8640   37.0250 C   0  0  0  0  0  0
   53.0810 -133.3390   36.3970 C   0  0  0  0  0  0
   60.6760 -133.9900   35.1840 N   0  0  0  0  0  0
   61.8320 -134.3430   36.0100 C   0  0  2  0  0  0
   61.3340 -134.5390   37.4340 C   0  0  0  0  0  0
   60.5530 -133.7320   37.9340 O   0  0  0  0  0  0
   62.8340 -133.2230   36.0290 C   0  0  0  0  0  0
   63.5060 -133.2040   34.6440 C   0  0  0  0  0  0
   64.3720 -131.9430   34.5260 C   0  0  0  0  0  0
   64.3930 -134.4450   34.4470 C   0  0  0  0  0  0
   61.8030 -135.6250   38.0600 N   0  0  0  0  0  0
   61.4360 -135.9200   39.4500 C   0  0  2  0  0  0
   62.7140 -135.8880   40.2760 C   0  0  0  0  0  0
   63.8160 -135.9580   39.7360 O   0  0  0  0  0  0
   60.7710 -137.2600   39.5770 C   0  0  0  0  0  0
   59.4780 -137.0820   39.0700 C   0  0  0  0  0  0
   59.1670 -137.4800   37.7730 C   0  0  0  0  0  0
   58.4860 -136.5030   39.8610 C   0  0  0  0  0  0
   57.8800 -137.3050   37.2710 C   0  0  0  0  0  0
   57.2000 -136.3250   39.3600 C   0  0  0  0  0  0
   56.8940 -136.7280   38.0640 C   0  0  0  0  0  0
   62.5110 -135.7550   41.5900 N   0  0  0  0  0  0
   63.5940 -135.5960   42.5630 C   0  0  1  0  0  0
   63.3730 -134.2090   43.1350 C   0  0  0  0  0  0
   64.4160 -133.1520   42.6820 C   0  0  0  0  0  0
   63.7530 -131.7700   42.8090 C   0  0  0  0  0  0
   64.9520 -133.3170   41.2450 C   0  0  0  0  0  0
   63.4800 -136.6010   43.7280 C   0  0  2  0  0  0
   63.7920 -138.1390   43.4160 C   0  0  2  0  0  0
   64.7800 -138.2790   42.2210 C   0  0  0  0  0  0
   62.4960 -138.7810   42.9070 C   0  0  0  0  0  0
   61.8790 -139.3520   44.0780 O   0  0  0  0  0  0
   62.1650 -136.4710   44.2860 O   0  0  0  0  0  0
   59.4879 -137.3338   30.5981 H   0  0  0  0  0  0
   57.7688 -137.1570   31.0880 H   0  0  0  0  0  0
   60.0407 -135.3581   28.6073 H   0  0  0  0  0  0
   60.0775 -137.1498   28.4849 H   0  0  0  0  0  0
   56.4748 -135.2974   29.7190 H   0  0  0  0  0  0
   57.9132 -134.2536   29.4582 H   0  0  0  0  0  0
   58.2482 -136.9881   26.7045 H   0  0  0  0  0  0
   59.7467 -136.1334   26.2041 H   0  0  0  0  0  0
   56.4488 -134.0430   27.5733 H   0  0  0  0  0  0
   56.3871 -135.8274   27.3761 H   0  0  0  0  0  0
   57.8796 -136.3511   32.9845 H   0  0  0  0  0  0
   58.9072 -133.4881   33.2760 H   0  0  0  0  0  0
   56.9848 -135.3189   34.5717 H   0  0  0  0  0  0
   58.0030 -134.4366   35.7598 H   0  0  0  0  0  0
   57.4012 -132.2963   34.8288 H   0  0  0  0  0  0
   56.6719 -133.0574   33.3743 H   0  0  0  0  0  0
   54.5309 -132.2502   33.5244 H   0  0  0  0  0  0
   56.3165 -134.2166   36.9015 H   0  0  0  0  0  0
   52.3279 -132.3507   34.6409 H   0  0  0  0  0  0
   54.1111 -134.3194   38.0111 H   0  0  0  0  0  0
   52.1086 -133.3781   36.8880 H   0  0  0  0  0  0
   60.3637 -132.9390   35.0954 H   0  0  0  0  0  0
   62.2915 -135.2429   35.5752 H   0  0  0  0  0  0
   62.3172 -132.2720   36.2254 H   0  0  0  0  0  0
   63.5754 -133.4077   36.8203 H   0  0  0  0  0  0
   62.7242 -133.2047   33.8702 H   0  0  0  0  0  0
   63.7428 -131.0517   34.6661 H   0  0  0  0  0  0
   64.8380 -131.9101   33.5301 H   0  0  0  0  0  0
   65.1561 -131.9632   35.2972 H   0  0  0  0  0  0
   63.7773 -135.3527   34.5306 H   0  0  0  0  0  0
   65.1771 -134.4614   35.2183 H   0  0  0  0  0  0
   64.8589 -134.4083   33.4512 H   0  0  0  0  0  0
   62.4754 -136.3023   37.5131 H   0  0  0  0  0  0
   60.7055 -135.1649   39.7758 H   0  0  0  0  0  0
   61.3331 -138.0049   38.9946 H   0  0  0  0  0  0
   60.7511 -137.5607   40.6349 H   0  0  0  0  0  0
   59.9359 -137.9316   37.1462 H   0  0  0  0  0  0
   58.7194 -136.1879   40.8780 H   0  0  0  0  0  0
   57.6449 -137.6209   36.2546 H   0  0  0  0  0  0
   56.4312 -135.8691   39.9839 H   0  0  0  0  0  0
   55.8861 -136.5921   37.6720 H   0  0  0  0  0  0
   61.4647 -135.7694   41.9291 H   0  0  0  0  0  0
   64.5532 -135.7469   42.0462 H   0  0  0  0  0  0
   62.3854 -133.8373   42.8243 H   0  0  0  0  0  0
   63.4191 -134.2536   44.2331 H   0  0  0  0  0  0
   65.2981 -133.2726   43.3281 H   0  0  0  0  0  0
   63.3667 -131.6412   43.8308 H   0  0  0  0  0  0
   62.9231 -131.6941   42.0910 H   0  0  0  0  0  0
   64.4950 -130.9864   42.5960 H   0  0  0  0  0  0
   65.4288 -134.3030   41.1425 H   0  0  0  0  0  0
   65.6906 -132.5290   41.0365 H   0  0  0  0  0  0
   64.1187 -133.2367   40.5314 H   0  0  0  0  0  0
   64.2094 -136.2703   44.4820 H   0  0  0  0  0  0
   64.1929 -138.6279   44.3161 H   0  0  0  0  0  0
   65.7510 -137.8407   42.4948 H   0  0  0  0  0  0
   64.3735 -137.7516   41.3454 H   0  0  0  0  0  0
   64.9135 -139.3436   41.9784 H   0  0  0  0  0  0
   61.8603 -138.0095   42.4480 H   0  0  0  0  0  0
   62.7372 -139.5503   42.1587 H   0  0  0  0  0  0
   60.9190 -139.8820   43.9908 H   0  0  0  0  0  0
   61.7807 -135.4782   44.5629 H   0  0  0  0  0  0
  1  2  2  0  0  0
  1  3  1  0  0  0
  1 10  1  0  0  0
  3  4  1  0  0  0
  3 53  1  0  0  0
  3 54  1  0  0  0
  4  6  1  0  0  0
  4  7  1  0  0  0
  5  8  1  0  0  0
  5  9  1  0  0  0
  6  8  1  0  0  0
  6 55  1  0  0  0
  6 56  1  0  0  0
  7  9  1  0  0  0
  7 57  1  0  0  0
  7 58  1  0  0  0
  8 59  1  0  0  0
  8 60  1  0  0  0
  9 61  1  0  0  0
  9 62  1  0  0  0
 10 11  1  0  0  0
 10 63  1  0  0  0
 11 12  1  0  0  0
 11 14  1  0  0  0
 11 64  1  0  0  0
 12 13  2  0  0  0
 12 22  1  0  0  0
 14 15  1  0  0  0
 14 65  1  0  0  0
 14 66  1  0  0  0
 15 16  1  0  0  0
 15 67  1  0  0  0
 15 68  1  0  0  0
 16 17  2  0  0  0
 16 18  1  0  0  0
 17 19  1  0  0  0
 17 69  1  0  0  0
 18 20  2  0  0  0
 18 70  1  0  0  0
 19 21  2  0  0  0
 19 71  1  0  0  0
 20 21  1  0  0  0
 20 72  1  0  0  0
 21 73  1  0  0  0
 22 23  1  0  0  0
 22 74  1  0  0  0
 23 24  1  0  0  0
 23 26  1  0  0  0
 23 75  1  0  0  0
 24 25  2  0  0  0
 24 30  1  0  0  0
 26 27  1  0  0  0
 26 76  1  0  0  0
 26 77  1  0  0  0
 27 28  1  0  0  0
 27 29  1  0  0  0
 27 78  1  0  0  0
 28 79  1  0  0  0
 28 80  1  0  0  0
 28 81  1  0  0  0
 29 82  1  0  0  0
 29 83  1  0  0  0
 29 84  1  0  0  0
 30 31  1  0  0  0
 30 85  1  0  0  0
 31 32  1  0  0  0
 31 34  1  0  0  0
 31 86  1  0  0  0
 32 33  2  0  0  0
 32 41  1  0  0  0
 34 35  1  0  0  0
 34 87  1  0  0  0
 34 88  1  0  0  0
 35 36  2  0  0  0
 35 37  1  0  0  0
 36 38  1  0  0  0
 36 89  1  0  0  0
 37 39  2  0  0  0
 37 90  1  0  0  0
 38 40  2  0  0  0
 38 91  1  0  0  0
 39 40  1  0  0  0
 39 92  1  0  0  0
 40 93  1  0  0  0
 41 42  1  0  0  0
 41 94  1  0  0  0
 42 43  1  0  0  0
 42 47  1  0  0  0
 42 95  1  0  0  0
 43 44  1  0  0  0
 43 96  1  0  0  0
 43 97  1  0  0  0
 44 45  1  0  0  0
 44 46  1  0  0  0
 44 98  1  0  0  0
 45 99  1  0  0  0
 45100  1  0  0  0
 45101  1  0  0  0
 46102  1  0  0  0
 46103  1  0  0  0
 46104  1  0  0  0
 47 48  1  0  0  0
 47 52  1  0  0  0
 47105  1  0  0  0
 48 49  1  0  0  0
 48 50  1  0  0  0
 48106  1  0  0  0
 49107  1  0  0  0
 49108  1  0  0  0
 49109  1  0  0  0
 50 51  1  0  0  0
 50110  1  0  0  0
 50111  1  0  0  0
 51112  1  0  0  0
 52113  1  0  0  0
M  END
> <s_m_source_file>
../4qw7_ligand.sdf

> <i_m_source_file_index>
1

> <s_epik_input>
W0NIMl0xW0NIMl1PW0NIMl1bQ0gyXVtOSCtdMVtDSDJdQyg9TylbTkhdW0NAQEhdKFtDSDJdW0NIMl1jMltjSF1bY0hdW2NIXVtjSF1bY0hdMilDKD1PKVtOSF1bQ0BASF0oW0NIMl1bQ0hdKFtDSDNdKVtDSDNdKUMoPU8pW05IXVtDQEhdKEMoPU8pW05IXVtDQEBIXShbQ0gyXVtDSF0oW0NIM10pW0NIM10pW0NAQEhdKFtPSF0pW0NASF0oW0NIM10pW0NIMl1bT0hdKVtDSDJdYzNbY0hdW2NIXVtjSF1bY0hdW2NIXTM=

> <s_epik_cmdline>
J2VwaWtfYXBwJywgJy1pbWFlJywgJ2xpZ2FuZF9wcm8ubWFlJywgJy1vbWFlJywgJ2xpZ2FuZF9wcmVwLm1hZScsICctbXMnLCAnMScsICctcGgnLCAnNycsICctcGh0JywgJzAuNScsICctbnQn

> <r_lp_tautomer_probability>
1

> <r_epik_Ionization_Penalty>
  0.0036

> <r_epik_Ionization_Penalty_Charging>
  0.0000

> <r_epik_Ionization_Penalty_Neutral>
  0.0036

> <r_epik_State_Penalty>
 -0.0000

> <r_epik_Charging_Adjusted_Penalty>
0

> <i_epik_Tot_Q>
0

> <i_epik_Tot_abs_Q>
0

$$$$
