4qwf_ligand
                    3D
 Schrodinger Suite 2020-3.
113115  0  0  1  0            999 V2000
   59.2930 -135.1120   31.5970 C   0  0  0  0  0  0
   59.8510 -134.1050   31.1590 O   0  0  0  0  0  0
   58.9980 -136.3480   30.7250 C   0  0  0  0  0  0
   58.5530 -136.0620   29.3360 N   0  0  0  0  0  0
   58.4800 -134.6030   27.0670 O   0  0  0  0  0  0
   59.7100 -135.9630   28.4080 C   0  0  0  0  0  0
   57.6200 -134.9030   29.2360 C   0  0  0  0  0  0
   59.1530 -135.8440   27.0300 C   0  0  0  0  0  0
   57.2540 -134.6530   27.8460 C   0  0  0  0  0  0
   58.9100 -135.2720   32.8660 N   0  0  0  0  0  0
   59.1130 -134.2630   33.9020 C   0  0  2  0  0  0
   60.3170 -134.7030   34.7120 C   0  0  0  0  0  0
   60.5970 -135.8970   34.8040 O   0  0  0  0  0  0
   57.9310 -134.3000   34.8300 C   0  0  0  0  0  0
   57.1310 -133.0440   34.5500 C   0  0  0  0  0  0
   55.8930 -133.0950   35.2410 C   0  0  0  0  0  0
   54.8090 -132.3870   34.7190 C   0  0  0  0  0  0
   55.7020 -133.8010   36.4370 C   0  0  0  0  0  0
   53.5730 -132.3960   35.3610 C   0  0  0  0  0  0
   54.4670 -133.8130   37.0800 C   0  0  0  0  0  0
   53.3990 -133.1090   36.5420 C   0  0  0  0  0  0
   60.9860 -133.7340   35.3350 N   0  0  0  0  0  0
   62.1270 -134.0830   36.1820 C   0  0  2  0  0  0
   61.6050 -134.2540   37.5990 C   0  0  0  0  0  0
   60.8280 -133.4290   38.0820 O   0  0  0  0  0  0
   63.1490 -132.9860   36.1860 C   0  0  0  0  0  0
   63.8880 -133.0980   34.8410 C   0  0  0  0  0  0
   64.6140 -131.7780   34.5490 C   0  0  0  0  0  0
   64.8970 -134.2550   34.8760 C   0  0  0  0  0  0
   62.0520 -135.3570   38.2180 N   0  0  0  0  0  0
   61.6920 -135.6790   39.5990 C   0  0  2  0  0  0
   62.9780 -135.6640   40.4030 C   0  0  0  0  0  0
   64.0720 -135.6840   39.8380 O   0  0  0  0  0  0
   61.0530 -137.0270   39.6920 C   0  0  0  0  0  0
   59.7430 -136.8460   39.2420 C   0  0  0  0  0  0
   59.3920 -137.2020   37.9410 C   0  0  0  0  0  0
   58.7780 -136.3080   40.0930 C   0  0  0  0  0  0
   58.0860 -137.0250   37.4940 C   0  0  0  0  0  0
   57.4730 -136.1280   39.6450 C   0  0  0  0  0  0
   57.1260 -136.4890   38.3470 C   0  0  0  0  0  0
   62.7940 -135.6070   41.7260 N   0  0  0  0  0  0
   63.8970 -135.4440   42.6680 C   0  0  1  0  0  0
   63.6850 -134.0260   43.1690 C   0  0  0  0  0  0
   64.8300 -133.0800   42.7470 C   0  0  0  0  0  0
   64.4410 -131.6610   43.1970 C   0  0  0  0  0  0
   65.0760 -133.0670   41.2290 C   0  0  0  0  0  0
   63.8100 -136.3980   43.8840 C   0  0  2  0  0  0
   64.1820 -137.9240   43.6280 C   0  0  2  0  0  0
   65.3990 -138.0120   42.6620 C   0  0  0  0  0  0
   62.9260 -138.5650   42.9890 C   0  0  0  0  0  0
   63.3380 -139.4750   41.9610 O   0  0  0  0  0  0
   62.4870 -136.3120   44.4150 O   0  0  0  0  0  0
   59.9071 -136.9612   30.6386 H   0  0  0  0  0  0
   58.1977 -136.9423   31.1901 H   0  0  0  0  0  0
   60.3099 -135.0770   28.6631 H   0  0  0  0  0  0
   60.3319 -136.8657   28.4997 H   0  0  0  0  0  0
   56.7068 -135.1168   29.8108 H   0  0  0  0  0  0
   58.1069 -134.0042   29.6422 H   0  0  0  0  0  0
   58.4354 -136.6433   26.7930 H   0  0  0  0  0  0
   59.9361 -135.8136   26.2581 H   0  0  0  0  0  0
   56.7238 -133.6933   27.7572 H   0  0  0  0  0  0
   56.6123 -135.4627   27.4683 H   0  0  0  0  0  0
   58.4184 -136.2241   33.1144 H   0  0  0  0  0  0
   59.2334 -133.2744   33.4350 H   0  0  0  0  0  0
   57.3341 -135.2016   34.6277 H   0  0  0  0  0  0
   58.2833 -134.3196   35.8719 H   0  0  0  0  0  0
   57.6988 -132.1646   34.8880 H   0  0  0  0  0  0
   56.9401 -132.9641   33.4696 H   0  0  0  0  0  0
   54.9315 -131.8195   33.7965 H   0  0  0  0  0  0
   56.5364 -134.3512   36.8720 H   0  0  0  0  0  0
   52.7372 -131.8409   34.9351 H   0  0  0  0  0  0
   54.3392 -134.3749   38.0052 H   0  0  0  0  0  0
   52.4303 -133.1149   37.0418 H   0  0  0  0  0  0
   60.6893 -132.6812   35.2183 H   0  0  0  0  0  0
   62.5854 -134.9948   35.7715 H   0  0  0  0  0  0
   62.6433 -132.0141   36.2841 H   0  0  0  0  0  0
   63.8367 -133.1286   37.0326 H   0  0  0  0  0  0
   63.1578 -133.2996   34.0434 H   0  0  0  0  0  0
   63.8840 -130.9554   34.5258 H   0  0  0  0  0  0
   65.1209 -131.8460   33.5751 H   0  0  0  0  0  0
   65.3575 -131.5864   35.3368 H   0  0  0  0  0  0
   64.3682 -135.1965   35.0857 H   0  0  0  0  0  0
   65.6411 -134.0689   35.6645 H   0  0  0  0  0  0
   65.4045 -134.3285   33.9028 H   0  0  0  0  0  0
   62.7112 -136.0301   37.6502 H   0  0  0  0  0  0
   60.9569 -134.9409   39.9523 H   0  0  0  0  0  0
   61.6028 -137.7379   39.0577 H   0  0  0  0  0  0
   61.0767 -137.3728   40.7360 H   0  0  0  0  0  0
   60.1431 -137.6206   37.2712 H   0  0  0  0  0  0
   59.0467 -136.0278   41.1115 H   0  0  0  0  0  0
   57.8152 -137.3061   36.4763 H   0  0  0  0  0  0
   56.7220 -135.7038   40.3115 H   0  0  0  0  0  0
   56.1024 -136.3520   37.9983 H   0  0  0  0  0  0
   61.7616 -135.6883   42.0967 H   0  0  0  0  0  0
   64.8431 -135.6471   42.1450 H   0  0  0  0  0  0
   62.7451 -133.6287   42.7582 H   0  0  0  0  0  0
   63.6325 -134.0293   44.2677 H   0  0  0  0  0  0
   65.7617 -133.4316   43.2143 H   0  0  0  0  0  0
   64.2621 -131.6567   44.2823 H   0  0  0  0  0  0
   63.5256 -131.3483   42.6732 H   0  0  0  0  0  0
   65.2572 -130.9636   42.9571 H   0  0  0  0  0  0
   65.3552 -134.0769   40.8942 H   0  0  0  0  0  0
   65.8901 -132.3651   40.9955 H   0  0  0  0  0  0
   64.1586 -132.7497   40.7116 H   0  0  0  0  0  0
   64.5053 -136.0069   44.6413 H   0  0  0  0  0  0
   64.4611 -138.4652   44.5441 H   0  0  0  0  0  0
   66.2779 -137.5512   43.1366 H   0  0  0  0  0  0
   65.1652 -137.4797   41.7282 H   0  0  0  0  0  0
   65.6141 -139.0673   42.4385 H   0  0  0  0  0  0
   62.3591 -139.1080   43.7596 H   0  0  0  0  0  0
   62.2928 -137.7772   42.5550 H   0  0  0  0  0  0
   62.5843 -140.0330   41.3860 H   0  0  0  0  0  0
   62.0540 -135.3301   44.6565 H   0  0  0  0  0  0
  1  2  2  0  0  0
  1  3  1  0  0  0
  1 10  1  0  0  0
  3  4  1  0  0  0
  3 53  1  0  0  0
  3 54  1  0  0  0
  4  6  1  0  0  0
  4  7  1  0  0  0
  5  8  1  0  0  0
  5  9  1  0  0  0
  6  8  1  0  0  0
  6 55  1  0  0  0
  6 56  1  0  0  0
  7  9  1  0  0  0
  7 57  1  0  0  0
  7 58  1  0  0  0
  8 59  1  0  0  0
  8 60  1  0  0  0
  9 61  1  0  0  0
  9 62  1  0  0  0
 10 11  1  0  0  0
 10 63  1  0  0  0
 11 12  1  0  0  0
 11 14  1  0  0  0
 11 64  1  0  0  0
 12 13  2  0  0  0
 12 22  1  0  0  0
 14 15  1  0  0  0
 14 65  1  0  0  0
 14 66  1  0  0  0
 15 16  1  0  0  0
 15 67  1  0  0  0
 15 68  1  0  0  0
 16 17  2  0  0  0
 16 18  1  0  0  0
 17 19  1  0  0  0
 17 69  1  0  0  0
 18 20  2  0  0  0
 18 70  1  0  0  0
 19 21  2  0  0  0
 19 71  1  0  0  0
 20 21  1  0  0  0
 20 72  1  0  0  0
 21 73  1  0  0  0
 22 23  1  0  0  0
 22 74  1  0  0  0
 23 24  1  0  0  0
 23 26  1  0  0  0
 23 75  1  0  0  0
 24 25  2  0  0  0
 24 30  1  0  0  0
 26 27  1  0  0  0
 26 76  1  0  0  0
 26 77  1  0  0  0
 27 28  1  0  0  0
 27 29  1  0  0  0
 27 78  1  0  0  0
 28 79  1  0  0  0
 28 80  1  0  0  0
 28 81  1  0  0  0
 29 82  1  0  0  0
 29 83  1  0  0  0
 29 84  1  0  0  0
 30 31  1  0  0  0
 30 85  1  0  0  0
 31 32  1  0  0  0
 31 34  1  0  0  0
 31 86  1  0  0  0
 32 33  2  0  0  0
 32 41  1  0  0  0
 34 35  1  0  0  0
 34 87  1  0  0  0
 34 88  1  0  0  0
 35 36  2  0  0  0
 35 37  1  0  0  0
 36 38  1  0  0  0
 36 89  1  0  0  0
 37 39  2  0  0  0
 37 90  1  0  0  0
 38 40  2  0  0  0
 38 91  1  0  0  0
 39 40  1  0  0  0
 39 92  1  0  0  0
 40 93  1  0  0  0
 41 42  1  0  0  0
 41 94  1  0  0  0
 42 43  1  0  0  0
 42 47  1  0  0  0
 42 95  1  0  0  0
 43 44  1  0  0  0
 43 96  1  0  0  0
 43 97  1  0  0  0
 44 45  1  0  0  0
 44 46  1  0  0  0
 44 98  1  0  0  0
 45 99  1  0  0  0
 45100  1  0  0  0
 45101  1  0  0  0
 46102  1  0  0  0
 46103  1  0  0  0
 46104  1  0  0  0
 47 48  1  0  0  0
 47 52  1  0  0  0
 47105  1  0  0  0
 48 49  1  0  0  0
 48 50  1  0  0  0
 48106  1  0  0  0
 49107  1  0  0  0
 49108  1  0  0  0
 49109  1  0  0  0
 50 51  1  0  0  0
 50110  1  0  0  0
 50111  1  0  0  0
 51112  1  0  0  0
 52113  1  0  0  0
M  END
> <s_m_source_file>
../4qwf_ligand.sdf

> <i_m_source_file_index>
1

> <s_epik_input>
W0NIMl0xW0NIMl1PW0NIMl1bQ0gyXVtOSCtdMVtDSDJdQyg9TylbTkhdW0NAQEhdKFtDSDJdW0NIMl1jMltjSF1bY0hdW2NIXVtjSF1bY0hdMilDKD1PKVtOSF1bQ0BASF0oW0NIMl1bQ0hdKFtDSDNdKVtDSDNdKUMoPU8pW05IXVtDQEhdKEMoPU8pW05IXVtDQEBIXShbQ0gyXVtDSF0oW0NIM10pW0NIM10pW0NAQEhdKFtPSF0pW0NASF0oW0NIM10pW0NIMl1bT0hdKVtDSDJdYzNbY0hdW2NIXVtjSF1bY0hdW2NIXTM=

> <s_epik_cmdline>
J2VwaWtfYXBwJywgJy1pbWFlJywgJ2xpZ2FuZF9wcm8ubWFlJywgJy1vbWFlJywgJ2xpZ2FuZF9wcmVwLm1hZScsICctbXMnLCAnMScsICctcGgnLCAnNycsICctcGh0JywgJzAuNScsICctbnQn

> <r_lp_tautomer_probability>
1

> <r_epik_Ionization_Penalty>
  0.0036

> <r_epik_Ionization_Penalty_Charging>
  0.0000

> <r_epik_Ionization_Penalty_Neutral>
  0.0036

> <r_epik_State_Penalty>
 -0.0000

> <r_epik_Charging_Adjusted_Penalty>
0

> <i_epik_Tot_Q>
0

> <i_epik_Tot_abs_Q>
0

$$$$
