4qwg_ligand
                    3D
 Schrodinger Suite 2020-3.
113115  0  0  1  0            999 V2000
   59.6750 -136.4570   31.8710 C   0  0  0  0  0  0
   60.5040 -135.6230   31.5060 O   0  0  0  0  0  0
   59.2490 -137.6280   30.9670 C   0  0  0  0  0  0
   58.8720 -137.2350   29.5870 N   0  0  0  0  0  0
   58.7520 -135.7290   27.3640 O   0  0  0  0  0  0
   60.0480 -137.0560   28.6970 C   0  0  0  0  0  0
   57.9720 -136.0520   29.5480 C   0  0  0  0  0  0
   59.5090 -136.9280   27.3100 C   0  0  0  0  0  0
   57.5470 -135.8430   28.1710 C   0  0  0  0  0  0
   59.0810 -136.4500   33.0720 N   0  0  0  0  0  0
   59.4070 -135.4470   34.0880 C   0  0  2  0  0  0
   60.6120 -135.9640   34.8440 C   0  0  0  0  0  0
   60.8720 -137.1670   34.8560 O   0  0  0  0  0  0
   58.3030 -135.3430   35.1050 C   0  0  0  0  0  0
   57.3550 -134.2740   34.5940 C   0  0  0  0  0  0
   56.1410 -134.2960   35.3320 C   0  0  0  0  0  0
   55.0390 -133.6330   34.7870 C   0  0  0  0  0  0
   55.9830 -134.9200   36.5810 C   0  0  0  0  0  0
   53.8150 -133.6020   35.4520 C   0  0  0  0  0  0
   54.7600 -134.8910   37.2460 C   0  0  0  0  0  0
   53.6730 -134.2320   36.6840 C   0  0  0  0  0  0
   61.2950 -135.0340   35.5160 N   0  0  0  0  0  0
   62.4390 -135.4050   36.3460 C   0  0  2  0  0  0
   61.9180 -135.6330   37.7620 C   0  0  0  0  0  0
   61.0490 -134.8980   38.2330 O   0  0  0  0  0  0
   63.4520 -134.2940   36.3800 C   0  0  0  0  0  0
   64.1980 -134.3220   35.0340 C   0  0  0  0  0  0
   65.1600 -133.1260   34.9830 C   0  0  0  0  0  0
   64.9990 -135.6250   34.8590 C   0  0  0  0  0  0
   62.4720 -136.6780   38.3990 N   0  0  0  0  0  0
   62.1040 -137.0520   39.7720 C   0  0  2  0  0  0
   63.3880 -137.0830   40.6040 C   0  0  0  0  0  0
   64.4830 -137.2070   40.0560 O   0  0  0  0  0  0
   61.4300 -138.3960   39.7610 C   0  0  0  0  0  0
   60.1030 -138.1580   39.3660 C   0  0  0  0  0  0
   59.6500 -138.5330   38.0980 C   0  0  0  0  0  0
   59.2140 -137.5430   40.2470 C   0  0  0  0  0  0
   58.3290 -138.2920   37.7230 C   0  0  0  0  0  0
   57.8960 -137.3010   39.8700 C   0  0  0  0  0  0
   57.4500 -137.6760   38.6080 C   0  0  0  0  0  0
   63.2050 -136.9390   41.9270 N   0  0  0  0  0  0
   64.3090 -136.8010   42.8900 C   0  0  1  0  0  0
   64.1150 -135.3900   43.4260 C   0  0  0  0  0  0
   65.1700 -134.3560   42.9360 C   0  0  0  0  0  0
   64.5280 -132.9550   43.0140 C   0  0  0  0  0  0
   65.7100 -134.5720   41.5050 C   0  0  0  0  0  0
   64.2170 -137.7690   44.0990 C   0  0  2  0  0  0
   64.5550 -139.3440   43.8650 C   0  0  2  0  0  0
   65.2890 -139.5730   42.5040 C   0  0  0  0  0  0
   63.2270 -140.0820   43.6780 C   0  0  0  0  0  0
   62.7930 -140.3780   45.0180 O   0  0  0  0  0  0
   62.8950 -137.6240   44.6470 O   0  0  0  0  0  0
   60.0790 -138.3446   30.8798 H   0  0  0  0  0  0
   58.3749 -138.1311   31.4061 H   0  0  0  0  0  0
   60.5967 -136.1495   28.9924 H   0  0  0  0  0  0
   60.7101 -137.9301   28.7840 H   0  0  0  0  0  0
   57.0966 -136.2360   30.1882 H   0  0  0  0  0  0
   58.5137 -135.1670   29.9131 H   0  0  0  0  0  0
   58.8505 -137.7653   27.0358 H   0  0  0  0  0  0
   60.3047 -136.8257   26.5574 H   0  0  0  0  0  0
   56.9580 -134.9182   28.0831 H   0  0  0  0  0  0
   56.9476 -136.6945   27.8167 H   0  0  0  0  0  0
   58.3303 -137.2252   33.2854 H   0  0  0  0  0  0
   59.5597 -134.4863   33.5744 H   0  0  0  0  0  0
   57.7934 -136.3138   35.1936 H   0  0  0  0  0  0
   58.7278 -135.0616   36.0799 H   0  0  0  0  0  0
   57.8238 -133.2850   34.7043 H   0  0  0  0  0  0
   57.1327 -134.4580   33.5325 H   0  0  0  0  0  0
   55.1383 -133.1311   33.8246 H   0  0  0  0  0  0
   56.8298 -135.4340   37.0358 H   0  0  0  0  0  0
   52.9668 -133.0829   35.0058 H   0  0  0  0  0  0
   54.6547 -135.3870   38.2109 H   0  0  0  0  0  0
   52.7159 -134.2090   37.2050 H   0  0  0  0  0  0
   60.9891 -133.9801   35.4404 H   0  0  0  0  0  0
   62.9037 -136.2988   35.9041 H   0  0  0  0  0  0
   62.9367 -133.3321   36.5183 H   0  0  0  0  0  0
   64.1498 -134.4594   37.2141 H   0  0  0  0  0  0
   63.4595 -134.2646   34.2207 H   0  0  0  0  0  0
   64.5915 -132.1926   35.1077 H   0  0  0  0  0  0
   65.6778 -133.1131   34.0126 H   0  0  0  0  0  0
   65.8997 -133.2157   35.7922 H   0  0  0  0  0  0
   64.3134 -136.4845   34.8949 H   0  0  0  0  0  0
   65.7389 -135.7120   35.6683 H   0  0  0  0  0  0
   65.5170 -135.6094   33.8887 H   0  0  0  0  0  0
   63.2277 -137.2623   37.8536 H   0  0  0  0  0  0
   61.3889 -136.3201   40.1756 H   0  0  0  0  0  0
   61.9446 -139.0584   39.0494 H   0  0  0  0  0  0
   61.4728 -138.8360   40.7683 H   0  0  0  0  0  0
   60.3327 -139.0161   37.3990 H   0  0  0  0  0  0
   59.5543 -137.2491   41.2399 H   0  0  0  0  0  0
   57.9835 -138.5874   36.7323 H   0  0  0  0  0  0
   57.2118 -136.8161   40.5663 H   0  0  0  0  0  0
   56.4174 -137.4885   38.3135 H   0  0  0  0  0  0
   62.1630 -136.9273   42.2794 H   0  0  0  0  0  0
   65.2506 -137.0076   42.3602 H   0  0  0  0  0  0
   63.1306 -135.0113   43.1137 H   0  0  0  0  0  0
   64.1708 -135.4041   44.5245 H   0  0  0  0  0  0
   66.0469 -134.4705   43.5901 H   0  0  0  0  0  0
   64.1382 -132.7863   44.0287 H   0  0  0  0  0  0
   63.7036 -132.8886   42.2888 H   0  0  0  0  0  0
   65.2845 -132.1915   42.7801 H   0  0  0  0  0  0
   66.1714 -135.5680   41.4337 H   0  0  0  0  0  0
   66.4620 -133.8023   41.2768 H   0  0  0  0  0  0
   64.8811 -134.4994   40.7855 H   0  0  0  0  0  0
   64.9463 -137.3913   44.8307 H   0  0  0  0  0  0
   65.1504 -139.7324   44.7044 H   0  0  0  0  0  0
   66.2705 -139.0769   42.5287 H   0  0  0  0  0  0
   64.6856 -139.1515   41.6865 H   0  0  0  0  0  0
   65.4274 -140.6517   42.3390 H   0  0  0  0  0  0
   62.5163 -139.4297   43.1495 H   0  0  0  0  0  0
   63.3949 -140.9952   43.0882 H   0  0  0  0  0  0
   61.8475 -140.9151   45.1839 H   0  0  0  0  0  0
   62.4988 -136.6223   44.8697 H   0  0  0  0  0  0
  1  2  2  0  0  0
  1  3  1  0  0  0
  1 10  1  0  0  0
  3  4  1  0  0  0
  3 53  1  0  0  0
  3 54  1  0  0  0
  4  6  1  0  0  0
  4  7  1  0  0  0
  5  8  1  0  0  0
  5  9  1  0  0  0
  6  8  1  0  0  0
  6 55  1  0  0  0
  6 56  1  0  0  0
  7  9  1  0  0  0
  7 57  1  0  0  0
  7 58  1  0  0  0
  8 59  1  0  0  0
  8 60  1  0  0  0
  9 61  1  0  0  0
  9 62  1  0  0  0
 10 11  1  0  0  0
 10 63  1  0  0  0
 11 12  1  0  0  0
 11 14  1  0  0  0
 11 64  1  0  0  0
 12 13  2  0  0  0
 12 22  1  0  0  0
 14 15  1  0  0  0
 14 65  1  0  0  0
 14 66  1  0  0  0
 15 16  1  0  0  0
 15 67  1  0  0  0
 15 68  1  0  0  0
 16 17  2  0  0  0
 16 18  1  0  0  0
 17 19  1  0  0  0
 17 69  1  0  0  0
 18 20  2  0  0  0
 18 70  1  0  0  0
 19 21  2  0  0  0
 19 71  1  0  0  0
 20 21  1  0  0  0
 20 72  1  0  0  0
 21 73  1  0  0  0
 22 23  1  0  0  0
 22 74  1  0  0  0
 23 24  1  0  0  0
 23 26  1  0  0  0
 23 75  1  0  0  0
 24 25  2  0  0  0
 24 30  1  0  0  0
 26 27  1  0  0  0
 26 76  1  0  0  0
 26 77  1  0  0  0
 27 28  1  0  0  0
 27 29  1  0  0  0
 27 78  1  0  0  0
 28 79  1  0  0  0
 28 80  1  0  0  0
 28 81  1  0  0  0
 29 82  1  0  0  0
 29 83  1  0  0  0
 29 84  1  0  0  0
 30 31  1  0  0  0
 30 85  1  0  0  0
 31 32  1  0  0  0
 31 34  1  0  0  0
 31 86  1  0  0  0
 32 33  2  0  0  0
 32 41  1  0  0  0
 34 35  1  0  0  0
 34 87  1  0  0  0
 34 88  1  0  0  0
 35 36  2  0  0  0
 35 37  1  0  0  0
 36 38  1  0  0  0
 36 89  1  0  0  0
 37 39  2  0  0  0
 37 90  1  0  0  0
 38 40  2  0  0  0
 38 91  1  0  0  0
 39 40  1  0  0  0
 39 92  1  0  0  0
 40 93  1  0  0  0
 41 42  1  0  0  0
 41 94  1  0  0  0
 42 43  1  0  0  0
 42 47  1  0  0  0
 42 95  1  0  0  0
 43 44  1  0  0  0
 43 96  1  0  0  0
 43 97  1  0  0  0
 44 45  1  0  0  0
 44 46  1  0  0  0
 44 98  1  0  0  0
 45 99  1  0  0  0
 45100  1  0  0  0
 45101  1  0  0  0
 46102  1  0  0  0
 46103  1  0  0  0
 46104  1  0  0  0
 47 48  1  0  0  0
 47 52  1  0  0  0
 47105  1  0  0  0
 48 49  1  0  0  0
 48 50  1  0  0  0
 48106  1  0  0  0
 49107  1  0  0  0
 49108  1  0  0  0
 49109  1  0  0  0
 50 51  1  0  0  0
 50110  1  0  0  0
 50111  1  0  0  0
 51112  1  0  0  0
 52113  1  0  0  0
M  END
> <s_m_source_file>
../4qwg_ligand.sdf

> <i_m_source_file_index>
1

> <s_epik_input>
W0NIMl0xW0NIMl1PW0NIMl1bQ0gyXVtOSCtdMVtDSDJdQyg9TylbTkhdW0NAQEhdKFtDSDJdW0NIMl1jMltjSF1bY0hdW2NIXVtjSF1bY0hdMilDKD1PKVtOSF1bQ0BASF0oW0NIMl1bQ0hdKFtDSDNdKVtDSDNdKUMoPU8pW05IXVtDQEhdKEMoPU8pW05IXVtDQEBIXShbQ0gyXVtDSF0oW0NIM10pW0NIM10pW0NAQEhdKFtPSF0pW0NASF0oW0NIM10pW0NIMl1bT0hdKVtDSDJdYzNbY0hdW2NIXVtjSF1bY0hdW2NIXTM=

> <s_epik_cmdline>
J2VwaWtfYXBwJywgJy1pbWFlJywgJ2xpZ2FuZF9wcm8ubWFlJywgJy1vbWFlJywgJ2xpZ2FuZF9wcmVwLm1hZScsICctbXMnLCAnMScsICctcGgnLCAnNycsICctcGh0JywgJzAuNScsICctbnQn

> <r_lp_tautomer_probability>
1

> <r_epik_Ionization_Penalty>
  0.0036

> <r_epik_Ionization_Penalty_Charging>
  0.0000

> <r_epik_Ionization_Penalty_Neutral>
  0.0036

> <r_epik_State_Penalty>
 -0.0000

> <r_epik_Charging_Adjusted_Penalty>
0

> <i_epik_Tot_Q>
0

> <i_epik_Tot_abs_Q>
0

$$$$
