4qwi_ligand
                    3D
 Schrodinger Suite 2020-3.
113115  0  0  1  0            999 V2000
   59.1380 -135.5930   31.7000 C   0  0  0  0  0  0
   59.9450 -134.7410   31.3290 O   0  0  0  0  0  0
   58.7290 -136.7840   30.8150 C   0  0  0  0  0  0
   58.4270 -136.4320   29.4060 N   0  0  0  0  0  0
   58.4600 -135.0230   27.1190 O   0  0  0  0  0  0
   59.6520 -136.3300   28.5690 C   0  0  0  0  0  0
   57.5750 -135.2200   29.2760 C   0  0  0  0  0  0
   59.1850 -136.2430   27.1510 C   0  0  0  0  0  0
   57.2160 -135.0580   27.8740 C   0  0  0  0  0  0
   58.5550 -135.5920   32.9010 N   0  0  0  0  0  0
   58.8550 -134.5740   33.9050 C   0  0  2  0  0  0
   60.1090 -135.0290   34.6380 C   0  0  0  0  0  0
   60.4460 -136.2130   34.6270 O   0  0  0  0  0  0
   57.7310 -134.5230   34.9090 C   0  0  0  0  0  0
   56.9540 -133.2570   34.6060 C   0  0  0  0  0  0
   55.6800 -133.3280   35.2250 C   0  0  0  0  0  0
   54.5650 -132.8240   34.5510 C   0  0  0  0  0  0
   55.4930 -133.8620   36.5080 C   0  0  0  0  0  0
   53.2990 -132.8680   35.1320 C   0  0  0  0  0  0
   54.2290 -133.9080   37.0860 C   0  0  0  0  0  0
   53.1290 -133.4100   36.4010 C   0  0  0  0  0  0
   60.7660 -134.0680   35.2920 N   0  0  0  0  0  0
   61.9520 -134.3850   36.0870 C   0  0  2  0  0  0
   61.4840 -134.6280   37.5160 C   0  0  0  0  0  0
   60.6700 -133.8710   38.0430 O   0  0  0  0  0  0
   62.9040 -133.2240   36.0960 C   0  0  0  0  0  0
   63.7050 -133.2990   34.7830 C   0  0  0  0  0  0
   64.4730 -131.9830   34.5940 C   0  0  0  0  0  0
   64.6930 -134.4790   34.7990 C   0  0  0  0  0  0
   62.0070 -135.7080   38.1110 N   0  0  0  0  0  0
   61.6570 -136.0570   39.4930 C   0  0  2  0  0  0
   62.9330 -136.0190   40.3210 C   0  0  0  0  0  0
   64.0370 -136.0170   39.7790 O   0  0  0  0  0  0
   61.0080 -137.4100   39.5500 C   0  0  0  0  0  0
   59.6900 -137.1930   39.1170 C   0  0  0  0  0  0
   59.3020 -137.5210   37.8150 C   0  0  0  0  0  0
   58.7520 -136.6400   39.9900 C   0  0  0  0  0  0
   57.9900 -137.3010   37.3950 C   0  0  0  0  0  0
   57.4440 -136.4170   39.5700 C   0  0  0  0  0  0
   57.0610 -136.7490   38.2730 C   0  0  0  0  0  0
   62.7230 -135.9580   41.6400 N   0  0  0  0  0  0
   63.7950 -135.7700   42.6170 C   0  0  1  0  0  0
   63.5070 -134.3700   43.1350 C   0  0  0  0  0  0
   64.5990 -133.3310   42.7780 C   0  0  0  0  0  0
   63.9830 -131.9310   42.9610 C   0  0  0  0  0  0
   65.1560 -133.4470   41.3450 C   0  0  0  0  0  0
   63.7070 -136.7440   43.8130 C   0  0  2  0  0  0
   64.0880 -138.2980   43.5530 C   0  0  2  0  0  0
   65.1190 -138.4310   42.3930 C   0  0  0  0  0  0
   62.8490 -139.0340   43.0230 C   0  0  0  0  0  0
   61.7750 -138.7580   43.9310 O   0  0  0  0  0  0
   62.3780 -136.6420   44.3440 O   0  0  0  0  0  0
   59.5455 -137.5207   30.7914 H   0  0  0  0  0  0
   57.8236 -137.2533   31.2273 H   0  0  0  0  0  0
   60.2173 -135.4306   28.8545 H   0  0  0  0  0  0
   60.2778 -137.2212   28.7247 H   0  0  0  0  0  0
   56.6672 -135.3430   29.8849 H   0  0  0  0  0  0
   58.1342 -134.3395   29.6252 H   0  0  0  0  0  0
   58.5176 -137.0734   26.8770 H   0  0  0  0  0  0
   60.0197 -136.1924   26.4364 H   0  0  0  0  0  0
   56.6665 -134.1178   27.7191 H   0  0  0  0  0  0
   56.6016 -135.9028   27.5294 H   0  0  0  0  0  0
   57.8298 -136.3883   33.1248 H   0  0  0  0  0  0
   58.9712 -133.6017   33.4038 H   0  0  0  0  0  0
   57.0968 -135.4145   34.7949 H   0  0  0  0  0  0
   58.1488 -134.4980   35.9263 H   0  0  0  0  0  0
   57.5039 -132.3873   34.9950 H   0  0  0  0  0  0
   56.8290 -133.1550   33.5179 H   0  0  0  0  0  0
   54.6867 -132.3909   33.5582 H   0  0  0  0  0  0
   56.3506 -134.2465   37.0601 H   0  0  0  0  0  0
   52.4388 -132.4760   34.5894 H   0  0  0  0  0  0
   54.1015 -134.3365   38.0801 H   0  0  0  0  0  0
   52.1386 -133.4437   36.8550 H   0  0  0  0  0  0
   60.4076 -133.0300   35.2288 H   0  0  0  0  0  0
   62.4472 -135.2562   35.6334 H   0  0  0  0  0  0
   62.3355 -132.2841   36.1546 H   0  0  0  0  0  0
   63.5713 -133.3038   36.9668 H   0  0  0  0  0  0
   63.0056 -133.4535   33.9481 H   0  0  0  0  0  0
   63.7633 -131.1426   34.5832 H   0  0  0  0  0  0
   65.0214 -132.0122   33.6409 H   0  0  0  0  0  0
   65.1845 -131.8514   35.4225 H   0  0  0  0  0  0
   64.1388 -135.4194   34.9346 H   0  0  0  0  0  0
   65.4047 -134.3501   35.6278 H   0  0  0  0  0  0
   65.2416 -134.5108   33.8461 H   0  0  0  0  0  0
   62.7099 -136.3378   37.5459 H   0  0  0  0  0  0
   60.9214 -135.3297   39.8672 H   0  0  0  0  0  0
   61.5464 -138.1031   38.8870 H   0  0  0  0  0  0
   61.0412 -137.7895   40.5819 H   0  0  0  0  0  0
   60.0278 -137.9507   37.1246 H   0  0  0  0  0  0
   59.0457 -136.3811   41.0073 H   0  0  0  0  0  0
   57.6921 -137.5613   36.3793 H   0  0  0  0  0  0
   56.7184 -135.9819   40.2572 H   0  0  0  0  0  0
   56.0356 -136.5770   37.9457 H   0  0  0  0  0  0
   61.6812 -136.0573   41.9789 H   0  0  0  0  0  0
   64.7650 -135.9294   42.1233 H   0  0  0  0  0  0
   62.5609 -134.0079   42.7063 H   0  0  0  0  0  0
   63.4271 -134.3941   44.2318 H   0  0  0  0  0  0
   65.4561 -133.5134   43.4430 H   0  0  0  0  0  0
   63.5821 -131.8373   43.9811 H   0  0  0  0  0  0
   63.1703 -131.7900   42.2332 H   0  0  0  0  0  0
   64.7567 -131.1660   42.7994 H   0  0  0  0  0  0
   65.5987 -134.4440   41.2033 H   0  0  0  0  0  0
   65.9265 -132.6779   41.1878 H   0  0  0  0  0  0
   64.3401 -133.3019   40.6216 H   0  0  0  0  0  0
   64.4075 -136.3546   44.5665 H   0  0  0  0  0  0
   64.4710 -138.7435   44.4830 H   0  0  0  0  0  0
   66.0561 -137.9292   42.6760 H   0  0  0  0  0  0
   64.7118 -137.9623   41.4850 H   0  0  0  0  0  0
   65.3172 -139.4954   42.1989 H   0  0  0  0  0  0
   62.6082 -138.6672   42.0143 H   0  0  0  0  0  0
   63.0539 -140.1139   42.9812 H   0  0  0  0  0  0
   60.7780 -139.1861   43.7500 H   0  0  0  0  0  0
   61.9546 -135.6547   44.5807 H   0  0  0  0  0  0
  1  2  2  0  0  0
  1  3  1  0  0  0
  1 10  1  0  0  0
  3  4  1  0  0  0
  3 53  1  0  0  0
  3 54  1  0  0  0
  4  6  1  0  0  0
  4  7  1  0  0  0
  5  8  1  0  0  0
  5  9  1  0  0  0
  6  8  1  0  0  0
  6 55  1  0  0  0
  6 56  1  0  0  0
  7  9  1  0  0  0
  7 57  1  0  0  0
  7 58  1  0  0  0
  8 59  1  0  0  0
  8 60  1  0  0  0
  9 61  1  0  0  0
  9 62  1  0  0  0
 10 11  1  0  0  0
 10 63  1  0  0  0
 11 12  1  0  0  0
 11 14  1  0  0  0
 11 64  1  0  0  0
 12 13  2  0  0  0
 12 22  1  0  0  0
 14 15  1  0  0  0
 14 65  1  0  0  0
 14 66  1  0  0  0
 15 16  1  0  0  0
 15 67  1  0  0  0
 15 68  1  0  0  0
 16 17  2  0  0  0
 16 18  1  0  0  0
 17 19  1  0  0  0
 17 69  1  0  0  0
 18 20  2  0  0  0
 18 70  1  0  0  0
 19 21  2  0  0  0
 19 71  1  0  0  0
 20 21  1  0  0  0
 20 72  1  0  0  0
 21 73  1  0  0  0
 22 23  1  0  0  0
 22 74  1  0  0  0
 23 24  1  0  0  0
 23 26  1  0  0  0
 23 75  1  0  0  0
 24 25  2  0  0  0
 24 30  1  0  0  0
 26 27  1  0  0  0
 26 76  1  0  0  0
 26 77  1  0  0  0
 27 28  1  0  0  0
 27 29  1  0  0  0
 27 78  1  0  0  0
 28 79  1  0  0  0
 28 80  1  0  0  0
 28 81  1  0  0  0
 29 82  1  0  0  0
 29 83  1  0  0  0
 29 84  1  0  0  0
 30 31  1  0  0  0
 30 85  1  0  0  0
 31 32  1  0  0  0
 31 34  1  0  0  0
 31 86  1  0  0  0
 32 33  2  0  0  0
 32 41  1  0  0  0
 34 35  1  0  0  0
 34 87  1  0  0  0
 34 88  1  0  0  0
 35 36  2  0  0  0
 35 37  1  0  0  0
 36 38  1  0  0  0
 36 89  1  0  0  0
 37 39  2  0  0  0
 37 90  1  0  0  0
 38 40  2  0  0  0
 38 91  1  0  0  0
 39 40  1  0  0  0
 39 92  1  0  0  0
 40 93  1  0  0  0
 41 42  1  0  0  0
 41 94  1  0  0  0
 42 43  1  0  0  0
 42 47  1  0  0  0
 42 95  1  0  0  0
 43 44  1  0  0  0
 43 96  1  0  0  0
 43 97  1  0  0  0
 44 45  1  0  0  0
 44 46  1  0  0  0
 44 98  1  0  0  0
 45 99  1  0  0  0
 45100  1  0  0  0
 45101  1  0  0  0
 46102  1  0  0  0
 46103  1  0  0  0
 46104  1  0  0  0
 47 48  1  0  0  0
 47 52  1  0  0  0
 47105  1  0  0  0
 48 49  1  0  0  0
 48 50  1  0  0  0
 48106  1  0  0  0
 49107  1  0  0  0
 49108  1  0  0  0
 49109  1  0  0  0
 50 51  1  0  0  0
 50110  1  0  0  0
 50111  1  0  0  0
 51112  1  0  0  0
 52113  1  0  0  0
M  END
> <s_m_source_file>
../4qwi_ligand.sdf

> <i_m_source_file_index>
1

> <s_epik_input>
W0NIMl0xW0NIMl1PW0NIMl1bQ0gyXVtOSCtdMVtDSDJdQyg9TylbTkhdW0NAQEhdKFtDSDJdW0NIMl1jMltjSF1bY0hdW2NIXVtjSF1bY0hdMilDKD1PKVtOSF1bQ0BASF0oW0NIMl1bQ0hdKFtDSDNdKVtDSDNdKUMoPU8pW05IXVtDQEhdKEMoPU8pW05IXVtDQEBIXShbQ0gyXVtDSF0oW0NIM10pW0NIM10pW0NAQEhdKFtPSF0pW0NASF0oW0NIM10pW0NIMl1bT0hdKVtDSDJdYzNbY0hdW2NIXVtjSF1bY0hdW2NIXTM=

> <s_epik_cmdline>
J2VwaWtfYXBwJywgJy1pbWFlJywgJ2xpZ2FuZF9wcm8ubWFlJywgJy1vbWFlJywgJ2xpZ2FuZF9wcmVwLm1hZScsICctbXMnLCAnMScsICctcGgnLCAnNycsICctcGh0JywgJzAuNScsICctbnQn

> <r_lp_tautomer_probability>
1

> <r_epik_Ionization_Penalty>
  0.0036

> <r_epik_Ionization_Penalty_Charging>
  0.0000

> <r_epik_Ionization_Penalty_Neutral>
  0.0036

> <r_epik_State_Penalty>
 -0.0000

> <r_epik_Charging_Adjusted_Penalty>
0

> <i_epik_Tot_Q>
0

> <i_epik_Tot_abs_Q>
0

$$$$
