4qwj_ligand
                    3D
 Schrodinger Suite 2020-3.
113115  0  0  1  0            999 V2000
   59.2140 -135.6980   31.6460 C   0  0  0  0  0  0
   59.9890 -134.8400   31.2170 O   0  0  0  0  0  0
   58.6900 -136.8480   30.7670 C   0  0  0  0  0  0
   58.3880 -136.4520   29.3660 N   0  0  0  0  0  0
   58.5740 -134.9150   27.1580 O   0  0  0  0  0  0
   59.6160 -136.3950   28.5320 C   0  0  0  0  0  0
   57.5980 -135.1920   29.2820 C   0  0  0  0  0  0
   59.1570 -136.2070   27.1250 C   0  0  0  0  0  0
   57.3150 -134.8590   27.8870 C   0  0  0  0  0  0
   58.7620 -135.7240   32.9020 N   0  0  0  0  0  0
   59.1710 -134.7080   33.8720 C   0  0  2  0  0  0
   60.4270 -135.1890   34.5800 C   0  0  0  0  0  0
   60.7260 -136.3840   34.6080 O   0  0  0  0  0  0
   58.0910 -134.5560   34.9170 C   0  0  0  0  0  0
   57.2360 -133.3780   34.4790 C   0  0  0  0  0  0
   55.9330 -133.5100   35.0280 C   0  0  0  0  0  0
   54.8190 -133.1360   34.2660 C   0  0  0  0  0  0
   55.7120 -133.9800   36.3330 C   0  0  0  0  0  0
   53.5270 -133.2440   34.7810 C   0  0  0  0  0  0
   54.4190 -134.0910   36.8470 C   0  0  0  0  0  0
   53.3230 -133.7220   36.0730 C   0  0  0  0  0  0
   61.1260 -134.2150   35.1720 N   0  0  0  0  0  0
   62.3040 -134.5280   35.9740 C   0  0  2  0  0  0
   61.7680 -134.7990   37.3810 C   0  0  0  0  0  0
   60.8710 -134.0970   37.8520 O   0  0  0  0  0  0
   63.2560 -133.3530   36.0170 C   0  0  0  0  0  0
   64.0860 -133.3900   34.7160 C   0  0  0  0  0  0
   64.9840 -132.1410   34.6470 C   0  0  0  0  0  0
   64.9640 -134.6550   34.6450 C   0  0  0  0  0  0
   62.2950 -135.8660   38.0000 N   0  0  0  0  0  0
   61.9010 -136.2310   39.3720 C   0  0  2  0  0  0
   63.1750 -136.2180   40.1990 C   0  0  0  0  0  0
   64.2750 -136.2490   39.6440 O   0  0  0  0  0  0
   61.2520 -137.5840   39.4460 C   0  0  0  0  0  0
   59.9490 -137.4020   38.9610 C   0  0  0  0  0  0
   59.6140 -137.8080   37.6670 C   0  0  0  0  0  0
   58.9710 -136.8160   39.7700 C   0  0  0  0  0  0
   58.3170 -137.6280   37.1870 C   0  0  0  0  0  0
   57.6750 -136.6340   39.2900 C   0  0  0  0  0  0
   57.3460 -137.0410   37.9980 C   0  0  0  0  0  0
   62.9800 -136.1500   41.5240 N   0  0  0  0  0  0
   64.0940 -135.9830   42.4610 C   0  0  1  0  0  0
   63.8840 -134.5650   42.9800 C   0  0  0  0  0  0
   64.9790 -133.5630   42.5020 C   0  0  0  0  0  0
   64.3890 -132.1380   42.5650 C   0  0  0  0  0  0
   65.5280 -133.8050   41.0770 C   0  0  0  0  0  0
   64.0670 -136.9660   43.6610 C   0  0  2  0  0  0
   64.6460 -138.4520   43.4030 C   0  0  2  0  0  0
   65.9040 -138.4000   42.4930 C   0  0  0  0  0  0
   63.6190 -139.2930   42.6300 C   0  0  0  0  0  0
   62.4070 -139.2580   43.3900 O   0  0  0  0  0  0
   62.7180 -137.0310   44.1640 O   0  0  0  0  0  0
   59.4438 -137.6479   30.7220 H   0  0  0  0  0  0
   57.7595 -137.2450   31.1989 H   0  0  0  0  0  0
   60.2426 -135.5522   28.8592 H   0  0  0  0  0  0
   60.1780 -137.3342   28.6422 H   0  0  0  0  0  0
   56.6468 -135.3191   29.8197 H   0  0  0  0  0  0
   58.1695 -134.3698   29.7374 H   0  0  0  0  0  0
   58.3983 -136.9440   26.8229 H   0  0  0  0  0  0
   59.9860 -136.2168   26.4021 H   0  0  0  0  0  0
   56.8928 -133.8460   27.8123 H   0  0  0  0  0  0
   56.6087 -135.5834   27.4552 H   0  0  0  0  0  0
   58.0716 -136.5256   33.2032 H   0  0  0  0  0  0
   59.3339 -133.7678   33.3247 H   0  0  0  0  0  0
   57.4954 -135.4795   34.9657 H   0  0  0  0  0  0
   58.5531 -134.3656   35.8969 H   0  0  0  0  0  0
   57.6912 -132.4421   34.8351 H   0  0  0  0  0  0
   57.1716 -133.3598   33.3810 H   0  0  0  0  0  0
   54.9637 -132.7547   33.2552 H   0  0  0  0  0  0
   56.5626 -134.2622   36.9534 H   0  0  0  0  0  0
   52.6731 -132.9529   34.1692 H   0  0  0  0  0  0
   54.2672 -134.4681   37.8584 H   0  0  0  0  0  0
   52.3132 -133.8064   36.4747 H   0  0  0  0  0  0
   60.8056 -133.1698   35.0500 H   0  0  0  0  0  0
   62.8361 -135.3778   35.5215 H   0  0  0  0  0  0
   62.6811 -132.4175   36.0827 H   0  0  0  0  0  0
   63.9107 -133.4435   36.8963 H   0  0  0  0  0  0
   63.3912 -133.4054   33.8633 H   0  0  0  0  0  0
   64.3593 -131.2370   34.6975 H   0  0  0  0  0  0
   65.5465 -132.1456   33.7017 H   0  0  0  0  0  0
   65.6877 -132.1482   35.4925 H   0  0  0  0  0  0
   64.3243 -135.5485   34.6941 H   0  0  0  0  0  0
   65.6677 -134.6608   35.4905 H   0  0  0  0  0  0
   65.5265 -134.6583   33.6997 H   0  0  0  0  0  0
   63.0365 -136.4736   37.4607 H   0  0  0  0  0  0
   61.1471 -135.5097   39.7204 H   0  0  0  0  0  0
   61.8159 -138.2956   38.8250 H   0  0  0  0  0  0
   61.2471 -137.9318   40.4896 H   0  0  0  0  0  0
   60.3696 -138.2675   37.0297 H   0  0  0  0  0  0
   59.2233 -136.4995   40.7821 H   0  0  0  0  0  0
   58.0618 -137.9466   36.1763 H   0  0  0  0  0  0
   56.9185 -136.1732   39.9252 H   0  0  0  0  0  0
   56.3324 -136.9008   37.6225 H   0  0  0  0  0  0
   61.9496 -136.2232   41.9020 H   0  0  0  0  0  0
   65.0323 -136.1691   41.9179 H   0  0  0  0  0  0
   62.9130 -134.1860   42.6286 H   0  0  0  0  0  0
   63.8989 -134.5711   44.0799 H   0  0  0  0  0  0
   65.8403 -133.7002   43.1723 H   0  0  0  0  0  0
   63.9934 -131.9493   43.5739 H   0  0  0  0  0  0
   63.5767 -132.0446   41.8292 H   0  0  0  0  0  0
   65.1765 -131.4047   42.3368 H   0  0  0  0  0  0
   65.9528 -134.8177   41.0148 H   0  0  0  0  0  0
   66.3108 -133.0647   40.8550 H   0  0  0  0  0  0
   64.7109 -133.7047   40.3474 H   0  0  0  0  0  0
   64.6784 -136.4986   44.4469 H   0  0  0  0  0  0
   64.8817 -138.9241   44.3682 H   0  0  0  0  0  0
   66.6892 -137.8084   42.9864 H   0  0  0  0  0  0
   65.6423 -137.9330   41.5320 H   0  0  0  0  0  0
   66.2712 -139.4217   42.3163 H   0  0  0  0  0  0
   63.4678 -138.8594   41.6304 H   0  0  0  0  0  0
   63.9898 -140.3238   42.5302 H   0  0  0  0  0  0
   61.5170 -139.7957   43.0311 H   0  0  0  0  0  0
   62.1716 -136.1045   44.3942 H   0  0  0  0  0  0
  1  2  2  0  0  0
  1  3  1  0  0  0
  1 10  1  0  0  0
  3  4  1  0  0  0
  3 53  1  0  0  0
  3 54  1  0  0  0
  4  6  1  0  0  0
  4  7  1  0  0  0
  5  8  1  0  0  0
  5  9  1  0  0  0
  6  8  1  0  0  0
  6 55  1  0  0  0
  6 56  1  0  0  0
  7  9  1  0  0  0
  7 57  1  0  0  0
  7 58  1  0  0  0
  8 59  1  0  0  0
  8 60  1  0  0  0
  9 61  1  0  0  0
  9 62  1  0  0  0
 10 11  1  0  0  0
 10 63  1  0  0  0
 11 12  1  0  0  0
 11 14  1  0  0  0
 11 64  1  0  0  0
 12 13  2  0  0  0
 12 22  1  0  0  0
 14 15  1  0  0  0
 14 65  1  0  0  0
 14 66  1  0  0  0
 15 16  1  0  0  0
 15 67  1  0  0  0
 15 68  1  0  0  0
 16 17  2  0  0  0
 16 18  1  0  0  0
 17 19  1  0  0  0
 17 69  1  0  0  0
 18 20  2  0  0  0
 18 70  1  0  0  0
 19 21  2  0  0  0
 19 71  1  0  0  0
 20 21  1  0  0  0
 20 72  1  0  0  0
 21 73  1  0  0  0
 22 23  1  0  0  0
 22 74  1  0  0  0
 23 24  1  0  0  0
 23 26  1  0  0  0
 23 75  1  0  0  0
 24 25  2  0  0  0
 24 30  1  0  0  0
 26 27  1  0  0  0
 26 76  1  0  0  0
 26 77  1  0  0  0
 27 28  1  0  0  0
 27 29  1  0  0  0
 27 78  1  0  0  0
 28 79  1  0  0  0
 28 80  1  0  0  0
 28 81  1  0  0  0
 29 82  1  0  0  0
 29 83  1  0  0  0
 29 84  1  0  0  0
 30 31  1  0  0  0
 30 85  1  0  0  0
 31 32  1  0  0  0
 31 34  1  0  0  0
 31 86  1  0  0  0
 32 33  2  0  0  0
 32 41  1  0  0  0
 34 35  1  0  0  0
 34 87  1  0  0  0
 34 88  1  0  0  0
 35 36  2  0  0  0
 35 37  1  0  0  0
 36 38  1  0  0  0
 36 89  1  0  0  0
 37 39  2  0  0  0
 37 90  1  0  0  0
 38 40  2  0  0  0
 38 91  1  0  0  0
 39 40  1  0  0  0
 39 92  1  0  0  0
 40 93  1  0  0  0
 41 42  1  0  0  0
 41 94  1  0  0  0
 42 43  1  0  0  0
 42 47  1  0  0  0
 42 95  1  0  0  0
 43 44  1  0  0  0
 43 96  1  0  0  0
 43 97  1  0  0  0
 44 45  1  0  0  0
 44 46  1  0  0  0
 44 98  1  0  0  0
 45 99  1  0  0  0
 45100  1  0  0  0
 45101  1  0  0  0
 46102  1  0  0  0
 46103  1  0  0  0
 46104  1  0  0  0
 47 48  1  0  0  0
 47 52  1  0  0  0
 47105  1  0  0  0
 48 49  1  0  0  0
 48 50  1  0  0  0
 48106  1  0  0  0
 49107  1  0  0  0
 49108  1  0  0  0
 49109  1  0  0  0
 50 51  1  0  0  0
 50110  1  0  0  0
 50111  1  0  0  0
 51112  1  0  0  0
 52113  1  0  0  0
M  END
> <s_m_source_file>
../4qwj_ligand.sdf

> <i_m_source_file_index>
1

> <s_epik_input>
W0NIMl0xW0NIMl1PW0NIMl1bQ0gyXVtOSCtdMVtDSDJdQyg9TylbTkhdW0NAQEhdKFtDSDJdW0NIMl1jMltjSF1bY0hdW2NIXVtjSF1bY0hdMilDKD1PKVtOSF1bQ0BASF0oW0NIMl1bQ0hdKFtDSDNdKVtDSDNdKUMoPU8pW05IXVtDQEhdKEMoPU8pW05IXVtDQEBIXShbQ0gyXVtDSF0oW0NIM10pW0NIM10pW0NAQEhdKFtPSF0pW0NASF0oW0NIM10pW0NIMl1bT0hdKVtDSDJdYzNbY0hdW2NIXVtjSF1bY0hdW2NIXTM=

> <s_epik_cmdline>
J2VwaWtfYXBwJywgJy1pbWFlJywgJ2xpZ2FuZF9wcm8ubWFlJywgJy1vbWFlJywgJ2xpZ2FuZF9wcmVwLm1hZScsICctbXMnLCAnMScsICctcGgnLCAnNycsICctcGh0JywgJzAuNScsICctbnQn

> <r_lp_tautomer_probability>
1

> <r_epik_Ionization_Penalty>
  0.0036

> <r_epik_Ionization_Penalty_Charging>
  0.0000

> <r_epik_Ionization_Penalty_Neutral>
  0.0036

> <r_epik_State_Penalty>
 -0.0000

> <r_epik_Charging_Adjusted_Penalty>
0

> <i_epik_Tot_Q>
0

> <i_epik_Tot_abs_Q>
0

$$$$
