4qwk_ligand
                    3D
 Schrodinger Suite 2020-3.
113115  0  0  1  0            999 V2000
   59.4520 -135.6200   31.7160 C   0  0  0  0  0  0
   60.1850 -134.7080   31.3330 O   0  0  0  0  0  0
   59.0610 -136.7950   30.8010 C   0  0  0  0  0  0
   58.6380 -136.4040   29.4320 N   0  0  0  0  0  0
   58.5630 -134.9380   27.1710 O   0  0  0  0  0  0
   59.7850 -136.3420   28.4890 C   0  0  0  0  0  0
   57.8200 -135.1590   29.3870 C   0  0  0  0  0  0
   59.1960 -136.2030   27.1220 C   0  0  0  0  0  0
   57.3790 -134.9140   28.0190 C   0  0  0  0  0  0
   58.9380 -135.7030   32.9490 N   0  0  0  0  0  0
   59.2270 -134.7090   33.9840 C   0  0  2  0  0  0
   60.4540 -135.1950   34.7420 C   0  0  0  0  0  0
   60.7660 -136.3850   34.7380 O   0  0  0  0  0  0
   58.0860 -134.6600   34.9670 C   0  0  0  0  0  0
   57.2730 -133.4220   34.6350 C   0  0  0  0  0  0
   55.9870 -133.5180   35.2340 C   0  0  0  0  0  0
   54.9090 -132.8700   34.6230 C   0  0  0  0  0  0
   55.7430 -134.2140   36.4290 C   0  0  0  0  0  0
   53.6310 -132.9270   35.1730 C   0  0  0  0  0  0
   54.4650 -134.2730   36.9780 C   0  0  0  0  0  0
   53.4060 -133.6280   36.3530 C   0  0  0  0  0  0
   61.1080 -134.2500   35.4190 N   0  0  0  0  0  0
   62.2770 -134.5860   36.2360 C   0  0  2  0  0  0
   61.7830 -134.8090   37.6620 C   0  0  0  0  0  0
   60.9360 -134.0640   38.1560 O   0  0  0  0  0  0
   63.2490 -133.4420   36.2010 C   0  0  0  0  0  0
   64.0270 -133.6410   34.8790 C   0  0  0  0  0  0
   64.5170 -132.2880   34.3360 C   0  0  0  0  0  0
   65.2220 -134.5930   35.0940 C   0  0  0  0  0  0
   62.3090 -135.8790   38.2770 N   0  0  0  0  0  0
   61.9520 -136.2230   39.6600 C   0  0  2  0  0  0
   63.2290 -136.1710   40.4830 C   0  0  0  0  0  0
   64.3220 -136.1070   39.9220 O   0  0  0  0  0  0
   61.3220 -137.5840   39.7290 C   0  0  0  0  0  0
   59.9830 -137.3790   39.3640 C   0  0  0  0  0  0
   59.5620 -137.6080   38.0540 C   0  0  0  0  0  0
   59.0580 -136.9370   40.3110 C   0  0  0  0  0  0
   58.2300 -137.4020   37.6970 C   0  0  0  0  0  0
   57.7280 -136.7290   39.9540 C   0  0  0  0  0  0
   57.3110 -136.9620   38.6460 C   0  0  0  0  0  0
   63.0370 -136.1780   41.8120 N   0  0  0  0  0  0
   64.1270 -135.9810   42.7730 C   0  0  1  0  0  0
   63.8690 -134.5680   43.2680 C   0  0  0  0  0  0
   64.9610 -133.5460   42.8560 C   0  0  0  0  0  0
   64.3280 -132.1420   42.9210 C   0  0  0  0  0  0
   65.5640 -133.7570   41.4520 C   0  0  0  0  0  0
   64.0680 -136.9170   44.0000 C   0  0  2  0  0  0
   64.4120 -138.4750   43.7580 C   0  0  2  0  0  0
   65.4330 -138.6460   42.5980 C   0  0  0  0  0  0
   63.1450 -139.1910   43.2700 C   0  0  0  0  0  0
   62.1130 -138.9180   44.2320 O   0  0  0  0  0  0
   62.7580 -136.7900   44.5800 O   0  0  0  0  0  0
   59.9204 -137.4720   30.6861 H   0  0  0  0  0  0
   58.2192 -137.3438   31.2484 H   0  0  0  0  0  0
   60.4170 -135.4765   28.7368 H   0  0  0  0  0  0
   60.3781 -137.2647   28.5718 H   0  0  0  0  0  0
   56.9419 -135.2734   30.0396 H   0  0  0  0  0  0
   58.4263 -134.3092   29.7338 H   0  0  0  0  0  0
   58.4476 -136.9793   26.9046 H   0  0  0  0  0  0
   59.9611 -136.1998   26.3317 H   0  0  0  0  0  0
   56.8919 -133.9309   27.9408 H   0  0  0  0  0  0
   56.6787 -135.6972   27.6932 H   0  0  0  0  0  0
   58.2783 -136.5543   33.1729 H   0  0  0  0  0  0
   59.3658 -133.7304   33.5012 H   0  0  0  0  0  0
   57.4739 -135.5681   34.8638 H   0  0  0  0  0  0
   58.4857 -134.6016   35.9901 H   0  0  0  0  0  0
   57.7890 -132.5303   35.0204 H   0  0  0  0  0  0
   57.1616 -133.3382   33.5439 H   0  0  0  0  0  0
   55.0717 -132.3113   33.7013 H   0  0  0  0  0  0
   56.5676 -134.7162   36.9349 H   0  0  0  0  0  0
   52.8035 -132.4201   34.6767 H   0  0  0  0  0  0
   54.2952 -134.8271   37.9012 H   0  0  0  0  0  0
   52.4057 -133.6707   36.7840 H   0  0  0  0  0  0
   60.7602 -133.2082   35.3587 H   0  0  0  0  0  0
   62.7690 -135.4810   35.8273 H   0  0  0  0  0  0
   62.6965 -132.4909   36.2144 H   0  0  0  0  0  0
   63.9093 -133.4948   37.0792 H   0  0  0  0  0  0
   63.3498 -134.0890   34.1369 H   0  0  0  0  0  0
   63.6564 -131.6192   34.1873 H   0  0  0  0  0  0
   65.0314 -132.4427   33.3761 H   0  0  0  0  0  0
   65.2137 -131.8344   35.0564 H   0  0  0  0  0  0
   64.8584 -135.5559   35.4821 H   0  0  0  0  0  0
   65.9209 -134.1467   35.8168 H   0  0  0  0  0  0
   65.7386 -134.7550   34.1365 H   0  0  0  0  0  0
   63.0229 -136.5048   37.7214 H   0  0  0  0  0  0
   61.2041 -135.5041   40.0258 H   0  0  0  0  0  0
   61.8354 -138.2615   39.0308 H   0  0  0  0  0  0
   61.4096 -137.9771   40.7526 H   0  0  0  0  0  0
   60.2776 -137.9495   37.3060 H   0  0  0  0  0  0
   59.3785 -136.7534   41.3365 H   0  0  0  0  0  0
   57.9073 -137.5859   36.6722 H   0  0  0  0  0  0
   57.0122 -136.3832   40.6998 H   0  0  0  0  0  0
   56.2699 -136.8007   38.3663 H   0  0  0  0  0  0
   62.0099 -136.3402   42.1709 H   0  0  0  0  0  0
   65.0801 -136.1707   42.2575 H   0  0  0  0  0  0
   62.9142 -134.2051   42.8598 H   0  0  0  0  0  0
   63.8218 -134.5673   44.3670 H   0  0  0  0  0  0
   65.8032 -133.6744   43.5518 H   0  0  0  0  0  0
   63.8946 -131.9811   43.9191 H   0  0  0  0  0  0
   63.5374 -132.0607   42.1605 H   0  0  0  0  0  0
   65.1003 -131.3824   42.7298 H   0  0  0  0  0  0
   66.0188 -134.7569   41.3948 H   0  0  0  0  0  0
   66.3330 -132.9931   41.2647 H   0  0  0  0  0  0
   64.7702 -133.6714   40.6954 H   0  0  0  0  0  0
   64.7999 -136.5175   44.7174 H   0  0  0  0  0  0
   64.8016 -138.9181   44.6864 H   0  0  0  0  0  0
   66.3802 -138.1563   42.8681 H   0  0  0  0  0  0
   65.0299 -138.1857   41.6839 H   0  0  0  0  0  0
   65.6112 -139.7170   42.4213 H   0  0  0  0  0  0
   62.8648 -138.8055   42.2786 H   0  0  0  0  0  0
   63.3377 -140.2719   43.2021 H   0  0  0  0  0  0
   61.1044 -139.3331   44.0894 H   0  0  0  0  0  0
   62.3547 -135.7939   44.8149 H   0  0  0  0  0  0
  1  2  2  0  0  0
  1  3  1  0  0  0
  1 10  1  0  0  0
  3  4  1  0  0  0
  3 53  1  0  0  0
  3 54  1  0  0  0
  4  6  1  0  0  0
  4  7  1  0  0  0
  5  8  1  0  0  0
  5  9  1  0  0  0
  6  8  1  0  0  0
  6 55  1  0  0  0
  6 56  1  0  0  0
  7  9  1  0  0  0
  7 57  1  0  0  0
  7 58  1  0  0  0
  8 59  1  0  0  0
  8 60  1  0  0  0
  9 61  1  0  0  0
  9 62  1  0  0  0
 10 11  1  0  0  0
 10 63  1  0  0  0
 11 12  1  0  0  0
 11 14  1  0  0  0
 11 64  1  0  0  0
 12 13  2  0  0  0
 12 22  1  0  0  0
 14 15  1  0  0  0
 14 65  1  0  0  0
 14 66  1  0  0  0
 15 16  1  0  0  0
 15 67  1  0  0  0
 15 68  1  0  0  0
 16 17  2  0  0  0
 16 18  1  0  0  0
 17 19  1  0  0  0
 17 69  1  0  0  0
 18 20  2  0  0  0
 18 70  1  0  0  0
 19 21  2  0  0  0
 19 71  1  0  0  0
 20 21  1  0  0  0
 20 72  1  0  0  0
 21 73  1  0  0  0
 22 23  1  0  0  0
 22 74  1  0  0  0
 23 24  1  0  0  0
 23 26  1  0  0  0
 23 75  1  0  0  0
 24 25  2  0  0  0
 24 30  1  0  0  0
 26 27  1  0  0  0
 26 76  1  0  0  0
 26 77  1  0  0  0
 27 28  1  0  0  0
 27 29  1  0  0  0
 27 78  1  0  0  0
 28 79  1  0  0  0
 28 80  1  0  0  0
 28 81  1  0  0  0
 29 82  1  0  0  0
 29 83  1  0  0  0
 29 84  1  0  0  0
 30 31  1  0  0  0
 30 85  1  0  0  0
 31 32  1  0  0  0
 31 34  1  0  0  0
 31 86  1  0  0  0
 32 33  2  0  0  0
 32 41  1  0  0  0
 34 35  1  0  0  0
 34 87  1  0  0  0
 34 88  1  0  0  0
 35 36  2  0  0  0
 35 37  1  0  0  0
 36 38  1  0  0  0
 36 89  1  0  0  0
 37 39  2  0  0  0
 37 90  1  0  0  0
 38 40  2  0  0  0
 38 91  1  0  0  0
 39 40  1  0  0  0
 39 92  1  0  0  0
 40 93  1  0  0  0
 41 42  1  0  0  0
 41 94  1  0  0  0
 42 43  1  0  0  0
 42 47  1  0  0  0
 42 95  1  0  0  0
 43 44  1  0  0  0
 43 96  1  0  0  0
 43 97  1  0  0  0
 44 45  1  0  0  0
 44 46  1  0  0  0
 44 98  1  0  0  0
 45 99  1  0  0  0
 45100  1  0  0  0
 45101  1  0  0  0
 46102  1  0  0  0
 46103  1  0  0  0
 46104  1  0  0  0
 47 48  1  0  0  0
 47 52  1  0  0  0
 47105  1  0  0  0
 48 49  1  0  0  0
 48 50  1  0  0  0
 48106  1  0  0  0
 49107  1  0  0  0
 49108  1  0  0  0
 49109  1  0  0  0
 50 51  1  0  0  0
 50110  1  0  0  0
 50111  1  0  0  0
 51112  1  0  0  0
 52113  1  0  0  0
M  END
> <s_m_source_file>
../4qwk_ligand.sdf

> <i_m_source_file_index>
1

> <s_epik_input>
W0NIMl0xW0NIMl1PW0NIMl1bQ0gyXVtOSCtdMVtDSDJdQyg9TylbTkhdW0NAQEhdKFtDSDJdW0NIMl1jMltjSF1bY0hdW2NIXVtjSF1bY0hdMilDKD1PKVtOSF1bQ0BASF0oW0NIMl1bQ0hdKFtDSDNdKVtDSDNdKUMoPU8pW05IXVtDQEhdKEMoPU8pW05IXVtDQEBIXShbQ0gyXVtDSF0oW0NIM10pW0NIM10pW0NAQEhdKFtPSF0pW0NASF0oW0NIM10pW0NIMl1bT0hdKVtDSDJdYzNbY0hdW2NIXVtjSF1bY0hdW2NIXTM=

> <s_epik_cmdline>
J2VwaWtfYXBwJywgJy1pbWFlJywgJ2xpZ2FuZF9wcm8ubWFlJywgJy1vbWFlJywgJ2xpZ2FuZF9wcmVwLm1hZScsICctbXMnLCAnMScsICctcGgnLCAnNycsICctcGh0JywgJzAuNScsICctbnQn

> <r_lp_tautomer_probability>
1

> <r_epik_Ionization_Penalty>
  0.0036

> <r_epik_Ionization_Penalty_Charging>
  0.0000

> <r_epik_Ionization_Penalty_Neutral>
  0.0036

> <r_epik_State_Penalty>
 -0.0000

> <r_epik_Charging_Adjusted_Penalty>
0

> <i_epik_Tot_Q>
0

> <i_epik_Tot_abs_Q>
0

$$$$
