4qwl_ligand
                    3D
 Schrodinger Suite 2020-3.
113115  0  0  1  0            999 V2000
   58.6590 -135.5540   31.3450 C   0  0  0  0  0  0
   59.3780 -134.6440   30.9330 O   0  0  0  0  0  0
   58.2720 -136.7660   30.4820 C   0  0  0  0  0  0
   58.0430 -136.4550   29.0550 N   0  0  0  0  0  0
   58.0020 -135.1020   26.7420 O   0  0  0  0  0  0
   59.2960 -136.1940   28.2970 C   0  0  0  0  0  0
   57.0450 -135.3720   28.8500 C   0  0  0  0  0  0
   58.9210 -136.1850   26.8510 C   0  0  0  0  0  0
   56.7430 -135.3410   27.4330 C   0  0  0  0  0  0
   58.1460 -135.6100   32.5750 N   0  0  0  0  0  0
   58.4220 -134.5980   33.5910 C   0  0  2  0  0  0
   59.6800 -135.0590   34.3180 C   0  0  0  0  0  0
   60.0770 -136.2200   34.2090 O   0  0  0  0  0  0
   57.2740 -134.5990   34.5680 C   0  0  0  0  0  0
   56.6330 -133.2220   34.5080 C   0  0  0  0  0  0
   55.3220 -133.3160   35.0370 C   0  0  0  0  0  0
   54.2640 -132.6620   34.3970 C   0  0  0  0  0  0
   55.0460 -134.0360   36.2060 C   0  0  0  0  0  0
   52.9680 -132.7400   34.9080 C   0  0  0  0  0  0
   53.7530 -134.1170   36.7150 C   0  0  0  0  0  0
   52.7090 -133.4660   36.0670 C   0  0  0  0  0  0
   60.2720 -134.1330   35.0760 N   0  0  0  0  0  0
   61.4620 -134.4590   35.8670 C   0  0  2  0  0  0
   61.0270 -134.6730   37.3040 C   0  0  0  0  0  0
   60.2260 -133.9010   37.8320 O   0  0  0  0  0  0
   62.4240 -133.3100   35.8650 C   0  0  0  0  0  0
   63.4680 -133.6310   34.7770 C   0  0  0  0  0  0
   62.9410 -133.1500   33.4170 C   0  0  0  0  0  0
   64.8050 -132.9440   35.1130 C   0  0  0  0  0  0
   61.5840 -135.7310   37.9100 N   0  0  0  0  0  0
   61.2730 -136.0450   39.3090 C   0  0  2  0  0  0
   62.5740 -136.0280   40.0950 C   0  0  0  0  0  0
   63.6630 -136.1190   39.5280 O   0  0  0  0  0  0
   60.6030 -137.3790   39.4450 C   0  0  0  0  0  0
   59.3140 -137.1860   38.9330 C   0  0  0  0  0  0
   59.0320 -137.4900   37.6010 C   0  0  0  0  0  0
   58.3010 -136.6820   39.7510 C   0  0  0  0  0  0
   57.7500 -137.2960   37.0940 C   0  0  0  0  0  0
   57.0190 -136.4870   39.2430 C   0  0  0  0  0  0
   56.7430 -136.7970   37.9150 C   0  0  0  0  0  0
   62.3930 -135.8860   41.4120 N   0  0  0  0  0  0
   63.4880 -135.7160   42.3620 C   0  0  1  0  0  0
   63.3050 -134.2800   42.8290 C   0  0  0  0  0  0
   64.4170 -133.3180   42.3360 C   0  0  0  0  0  0
   63.8920 -131.8780   42.5020 C   0  0  0  0  0  0
   64.8580 -133.5240   40.8710 C   0  0  0  0  0  0
   63.3350 -136.6410   43.5860 C   0  0  2  0  0  0
   63.5490 -138.2400   43.3640 C   0  0  2  0  0  0
   64.3220 -138.5240   42.0390 C   0  0  0  0  0  0
   62.1760 -138.8960   43.1170 C   0  0  0  0  0  0
   61.3130 -138.5530   44.2190 O   0  0  0  0  0  0
   62.0190 -136.3990   44.1230 O   0  0  0  0  0  0
   59.0763 -137.5155   30.5207 H   0  0  0  0  0  0
   57.3407 -137.2074   30.8664 H   0  0  0  0  0  0
   59.7132 -135.2228   28.6015 H   0  0  0  0  0  0
   60.0256 -136.9893   28.5095 H   0  0  0  0  0  0
   56.1406 -135.5910   29.4366 H   0  0  0  0  0  0
   57.4719 -134.4130   29.1786 H   0  0  0  0  0  0
   58.4258 -137.1183   26.5448 H   0  0  0  0  0  0
   59.7869 -135.9982   26.1988 H   0  0  0  0  0  0
   56.0376 -134.5295   27.2009 H   0  0  0  0  0  0
   56.3195 -136.3008   27.1021 H   0  0  0  0  0  0
   57.4914 -136.4620   32.8109 H   0  0  0  0  0  0
   58.5337 -133.6064   33.1282 H   0  0  0  0  0  0
   56.5499 -135.3761   34.2821 H   0  0  0  0  0  0
   57.6535 -134.8058   35.5795 H   0  0  0  0  0  0
   57.2290 -132.5139   35.1025 H   0  0  0  0  0  0
   56.5937 -132.8810   33.4629 H   0  0  0  0  0  0
   54.4537 -132.0863   33.4911 H   0  0  0  0  0  0
   55.8587 -134.5423   36.7269 H   0  0  0  0  0  0
   52.1527 -132.2288   34.3960 H   0  0  0  0  0  0
   53.5589 -134.6906   37.6213 H   0  0  0  0  0  0
   51.6954 -133.5238   36.4637 H   0  0  0  0  0  0
   59.8560 -133.1150   35.1023 H   0  0  0  0  0  0
   61.9285 -135.3462   35.4139 H   0  0  0  0  0  0
   61.8837 -132.3799   35.6350 H   0  0  0  0  0  0
   62.8955 -133.2248   36.8552 H   0  0  0  0  0  0
   63.6386 -134.7167   34.7303 H   0  0  0  0  0  0
   61.9872 -133.6511   33.1953 H   0  0  0  0  0  0
   63.6736 -133.3928   32.6332 H   0  0  0  0  0  0
   62.7847 -132.0616   33.4484 H   0  0  0  0  0  0
   65.1655 -133.3010   36.0890 H   0  0  0  0  0  0
   64.6577 -131.8546   35.1526 H   0  0  0  0  0  0
   65.5466 -133.1858   34.3374 H   0  0  0  0  0  0
   62.2817 -136.3671   37.3456 H   0  0  0  0  0  0
   60.5615 -135.2874   39.6693 H   0  0  0  0  0  0
   61.1622 -138.1306   38.8685 H   0  0  0  0  0  0
   60.5809 -137.6719   40.5051 H   0  0  0  0  0  0
   59.8181 -137.8808   36.9550 H   0  0  0  0  0  0
   58.5145 -136.4400   40.7921 H   0  0  0  0  0  0
   57.5346 -137.5352   36.0526 H   0  0  0  0  0  0
   56.2322 -136.0917   39.8855 H   0  0  0  0  0  0
   55.7388 -136.6492   37.5179 H   0  0  0  0  0  0
   61.3527 -135.9022   41.7690 H   0  0  0  0  0  0
   64.4436 -135.9437   41.8671 H   0  0  0  0  0  0
   62.3463 -133.8919   42.4543 H   0  0  0  0  0  0
   63.3086 -134.2487   43.9285 H   0  0  0  0  0  0
   65.3134 -133.5219   42.9401 H   0  0  0  0  0  0
   63.5750 -131.7211   43.5436 H   0  0  0  0  0  0
   63.0353 -131.7204   41.8302 H   0  0  0  0  0  0
   64.6911 -131.1651   42.2506 H   0  0  0  0  0  0
   65.2346 -134.5495   40.7422 H   0  0  0  0  0  0
   65.6547 -132.8070   40.6237 H   0  0  0  0  0  0
   63.9989 -133.3623   40.2033 H   0  0  0  0  0  0
   64.0896 -136.2975   44.3088 H   0  0  0  0  0  0
   64.0730 -138.6643   44.2331 H   0  0  0  0  0  0
   65.3321 -138.0933   42.1043 H   0  0  0  0  0  0
   63.7830 -138.0685   41.1952 H   0  0  0  0  0  0
   64.3959 -139.6104   41.8833 H   0  0  0  0  0  0
   61.7543 -138.5197   42.1733 H   0  0  0  0  0  0
   62.2970 -139.9876   43.0551 H   0  0  0  0  0  0
   60.2771 -138.9222   44.2419 H   0  0  0  0  0  0
   61.6938 -135.3707   44.3393 H   0  0  0  0  0  0
  1  2  2  0  0  0
  1  3  1  0  0  0
  1 10  1  0  0  0
  3  4  1  0  0  0
  3 53  1  0  0  0
  3 54  1  0  0  0
  4  6  1  0  0  0
  4  7  1  0  0  0
  5  8  1  0  0  0
  5  9  1  0  0  0
  6  8  1  0  0  0
  6 55  1  0  0  0
  6 56  1  0  0  0
  7  9  1  0  0  0
  7 57  1  0  0  0
  7 58  1  0  0  0
  8 59  1  0  0  0
  8 60  1  0  0  0
  9 61  1  0  0  0
  9 62  1  0  0  0
 10 11  1  0  0  0
 10 63  1  0  0  0
 11 12  1  0  0  0
 11 14  1  0  0  0
 11 64  1  0  0  0
 12 13  2  0  0  0
 12 22  1  0  0  0
 14 15  1  0  0  0
 14 65  1  0  0  0
 14 66  1  0  0  0
 15 16  1  0  0  0
 15 67  1  0  0  0
 15 68  1  0  0  0
 16 17  2  0  0  0
 16 18  1  0  0  0
 17 19  1  0  0  0
 17 69  1  0  0  0
 18 20  2  0  0  0
 18 70  1  0  0  0
 19 21  2  0  0  0
 19 71  1  0  0  0
 20 21  1  0  0  0
 20 72  1  0  0  0
 21 73  1  0  0  0
 22 23  1  0  0  0
 22 74  1  0  0  0
 23 24  1  0  0  0
 23 26  1  0  0  0
 23 75  1  0  0  0
 24 25  2  0  0  0
 24 30  1  0  0  0
 26 27  1  0  0  0
 26 76  1  0  0  0
 26 77  1  0  0  0
 27 28  1  0  0  0
 27 29  1  0  0  0
 27 78  1  0  0  0
 28 79  1  0  0  0
 28 80  1  0  0  0
 28 81  1  0  0  0
 29 82  1  0  0  0
 29 83  1  0  0  0
 29 84  1  0  0  0
 30 31  1  0  0  0
 30 85  1  0  0  0
 31 32  1  0  0  0
 31 34  1  0  0  0
 31 86  1  0  0  0
 32 33  2  0  0  0
 32 41  1  0  0  0
 34 35  1  0  0  0
 34 87  1  0  0  0
 34 88  1  0  0  0
 35 36  2  0  0  0
 35 37  1  0  0  0
 36 38  1  0  0  0
 36 89  1  0  0  0
 37 39  2  0  0  0
 37 90  1  0  0  0
 38 40  2  0  0  0
 38 91  1  0  0  0
 39 40  1  0  0  0
 39 92  1  0  0  0
 40 93  1  0  0  0
 41 42  1  0  0  0
 41 94  1  0  0  0
 42 43  1  0  0  0
 42 47  1  0  0  0
 42 95  1  0  0  0
 43 44  1  0  0  0
 43 96  1  0  0  0
 43 97  1  0  0  0
 44 45  1  0  0  0
 44 46  1  0  0  0
 44 98  1  0  0  0
 45 99  1  0  0  0
 45100  1  0  0  0
 45101  1  0  0  0
 46102  1  0  0  0
 46103  1  0  0  0
 46104  1  0  0  0
 47 48  1  0  0  0
 47 52  1  0  0  0
 47105  1  0  0  0
 48 49  1  0  0  0
 48 50  1  0  0  0
 48106  1  0  0  0
 49107  1  0  0  0
 49108  1  0  0  0
 49109  1  0  0  0
 50 51  1  0  0  0
 50110  1  0  0  0
 50111  1  0  0  0
 51112  1  0  0  0
 52113  1  0  0  0
M  END
> <s_m_source_file>
../4qwl_ligand.sdf

> <i_m_source_file_index>
1

> <s_epik_input>
W0NIMl0xW0NIMl1PW0NIMl1bQ0gyXVtOSCtdMVtDSDJdQyg9TylbTkhdW0NAQEhdKFtDSDJdW0NIMl1jMltjSF1bY0hdW2NIXVtjSF1bY0hdMilDKD1PKVtOSF1bQ0BASF0oW0NIMl1bQ0hdKFtDSDNdKVtDSDNdKUMoPU8pW05IXVtDQEhdKEMoPU8pW05IXVtDQEBIXShbQ0gyXVtDSF0oW0NIM10pW0NIM10pW0NAQEhdKFtPSF0pW0NASF0oW0NIM10pW0NIMl1bT0hdKVtDSDJdYzNbY0hdW2NIXVtjSF1bY0hdW2NIXTM=

> <s_epik_cmdline>
J2VwaWtfYXBwJywgJy1pbWFlJywgJ2xpZ2FuZF9wcm8ubWFlJywgJy1vbWFlJywgJ2xpZ2FuZF9wcmVwLm1hZScsICctbXMnLCAnMScsICctcGgnLCAnNycsICctcGh0JywgJzAuNScsICctbnQn

> <r_lp_tautomer_probability>
1

> <r_epik_Ionization_Penalty>
  0.0036

> <r_epik_Ionization_Penalty_Charging>
  0.0000

> <r_epik_Ionization_Penalty_Neutral>
  0.0036

> <r_epik_State_Penalty>
 -0.0000

> <r_epik_Charging_Adjusted_Penalty>
0

> <i_epik_Tot_Q>
0

> <i_epik_Tot_abs_Q>
0

$$$$
