4qwr_ligand
                    3D
 Schrodinger Suite 2020-3.
113115  0  0  1  0            999 V2000
   58.8520 -135.9810   31.2730 C   0  0  0  0  0  0
   59.6620 -135.1310   30.9000 O   0  0  0  0  0  0
   58.3490 -137.1080   30.3560 C   0  0  0  0  0  0
   58.1730 -136.7100   28.9400 N   0  0  0  0  0  0
   58.4630 -135.2720   26.6920 O   0  0  0  0  0  0
   59.4600 -136.6640   28.2000 C   0  0  0  0  0  0
   57.4100 -135.4440   28.7820 C   0  0  0  0  0  0
   59.0970 -136.5430   26.7570 C   0  0  0  0  0  0
   57.1720 -135.2050   27.3630 C   0  0  0  0  0  0
   58.3320 -136.0310   32.5000 N   0  0  0  0  0  0
   58.6950 -135.0750   33.5420 C   0  0  2  0  0  0
   59.8870 -135.6320   34.2860 C   0  0  0  0  0  0
   60.0880 -136.8450   34.3190 O   0  0  0  0  0  0
   57.5900 -135.0140   34.5550 C   0  0  0  0  0  0
   56.7880 -133.7710   34.2440 C   0  0  0  0  0  0
   55.5220 -133.9020   34.8640 C   0  0  0  0  0  0
   54.3690 -133.5470   34.1630 C   0  0  0  0  0  0
   55.3890 -134.3610   36.1810 C   0  0  0  0  0  0
   53.1160 -133.6620   34.7580 C   0  0  0  0  0  0
   54.1360 -134.4790   36.7740 C   0  0  0  0  0  0
   52.9970 -134.1280   36.0630 C   0  0  0  0  0  0
   60.6150 -134.7270   34.9430 N   0  0  0  0  0  0
   61.7460 -135.1590   35.7630 C   0  0  2  0  0  0
   61.2260 -135.2880   37.1790 C   0  0  0  0  0  0
   60.4770 -134.4330   37.6520 O   0  0  0  0  0  0
   62.8260 -134.1360   35.8070 C   0  0  0  0  0  0
   63.3170 -133.9540   34.3560 C   0  0  0  0  0  0
   63.3150 -132.4530   34.0290 C   0  0  0  0  0  0
   64.7460 -134.4890   34.1620 C   0  0  0  0  0  0
   61.6570 -136.3700   37.8260 N   0  0  0  0  0  0
   61.2870 -136.6250   39.2150 C   0  0  2  0  0  0
   62.5820 -136.6080   40.0060 C   0  0  0  0  0  0
   63.6680 -136.6190   39.4250 O   0  0  0  0  0  0
   60.6000 -137.9430   39.3520 C   0  0  0  0  0  0
   59.3280 -137.7450   38.8020 C   0  0  0  0  0  0
   59.0890 -138.0340   37.4580 C   0  0  0  0  0  0
   58.2900 -137.2550   39.5950 C   0  0  0  0  0  0
   57.8240 -137.8380   36.9110 C   0  0  0  0  0  0
   57.0250 -137.0580   39.0470 C   0  0  0  0  0  0
   56.7910 -137.3510   37.7060 C   0  0  0  0  0  0
   62.4180 -136.5590   41.3320 N   0  0  0  0  0  0
   63.5370 -136.3920   42.2540 C   0  0  1  0  0  0
   63.3450 -134.9590   42.7350 C   0  0  0  0  0  0
   64.4270 -133.9670   42.2200 C   0  0  0  0  0  0
   63.8590 -132.5410   42.3410 C   0  0  0  0  0  0
   64.8790 -134.1870   40.7640 C   0  0  0  0  0  0
   63.4600 -137.3330   43.4790 C   0  0  2  0  0  0
   63.8520 -138.8800   43.2500 C   0  0  2  0  0  0
   65.0490 -138.9960   42.2700 C   0  0  0  0  0  0
   62.6870 -139.6510   42.5930 C   0  0  0  0  0  0
   61.5010 -138.8540   42.7340 O   0  0  0  0  0  0
   62.1440 -137.2370   44.0360 O   0  0  0  0  0  0
   59.0685 -137.9399   30.3690 H   0  0  0  0  0  0
   57.3714 -137.4632   30.7139 H   0  0  0  0  0  0
   60.0462 -135.7966   28.5376 H   0  0  0  0  0  0
   60.0268 -137.5869   28.3924 H   0  0  0  0  0  0
   56.4485 -135.5271   29.3099 H   0  0  0  0  0  0
   57.9901 -134.6109   29.2056 H   0  0  0  0  0  0
   58.3914 -137.3217   26.4319 H   0  0  0  0  0  0
   59.9776 -136.5477   26.0978 H   0  0  0  0  0  0
   56.7290 -134.2102   27.2073 H   0  0  0  0  0  0
   56.5029 -135.9733   26.9483 H   0  0  0  0  0  0
   57.6055 -136.8286   32.7143 H   0  0  0  0  0  0
   58.8799 -134.1022   33.0630 H   0  0  0  0  0  0
   56.9652 -135.9154   34.4708 H   0  0  0  0  0  0
   58.0214 -134.9600   35.5654 H   0  0  0  0  0  0
   57.3138 -132.8878   34.6359 H   0  0  0  0  0  0
   56.6697 -133.6739   33.1547 H   0  0  0  0  0  0
   54.4502 -133.1766   33.1411 H   0  0  0  0  0  0
   56.2797 -134.6294   36.7490 H   0  0  0  0  0  0
   52.2228 -133.3852   34.1979 H   0  0  0  0  0  0
   54.0489 -134.8469   37.7963 H   0  0  0  0  0  0
   52.0138 -134.2171   36.5251 H   0  0  0  0  0  0
   60.3660 -133.6581   34.8688 H   0  0  0  0  0  0
   62.1437 -136.0826   35.3172 H   0  0  0  0  0  0
   62.4225 -133.1938   36.2064 H   0  0  0  0  0  0
   63.6405 -134.4903   36.4559 H   0  0  0  0  0  0
   62.6462 -134.5159   33.6895 H   0  0  0  0  0  0
   62.3001 -132.0502   34.1618 H   0  0  0  0  0  0
   63.6351 -132.3043   32.9872 H   0  0  0  0  0  0
   64.0084 -131.9298   34.7039 H   0  0  0  0  0  0
   64.7692 -135.5645   34.3916 H   0  0  0  0  0  0
   65.4320 -133.9553   34.8362 H   0  0  0  0  0  0
   65.0587 -134.3298   33.1195 H   0  0  0  0  0  0
   62.3054 -137.0791   37.2905 H   0  0  0  0  0  0
   60.5719 -135.8602   39.5521 H   0  0  0  0  0  0
   61.1657 -138.7101   38.8029 H   0  0  0  0  0  0
   60.5449 -138.2190   40.4154 H   0  0  0  0  0  0
   59.8968 -138.4151   36.8333 H   0  0  0  0  0  0
   58.4695 -137.0259   40.6454 H   0  0  0  0  0  0
   57.6428 -138.0659   35.8606 H   0  0  0  0  0  0
   56.2165 -136.6737   39.6690 H   0  0  0  0  0  0
   55.7995 -137.1990   37.2794 H   0  0  0  0  0  0
   61.3933 -136.6499   41.7215 H   0  0  0  0  0  0
   64.4755 -136.6117   41.7239 H   0  0  0  0  0  0
   62.3705 -134.5837   42.3894 H   0  0  0  0  0  0
   63.3789 -134.9335   43.8342 H   0  0  0  0  0  0
   65.3250 -134.1274   42.8347 H   0  0  0  0  0  0
   63.5300 -132.3639   43.3756 H   0  0  0  0  0  0
   63.0028 -132.4283   41.6596 H   0  0  0  0  0  0
   64.6384 -131.8120   42.0742 H   0  0  0  0  0  0
   65.2887 -135.2022   40.6567 H   0  0  0  0  0  0
   65.6533 -133.4498   40.5051 H   0  0  0  0  0  0
   64.0177 -134.0661   40.0905 H   0  0  0  0  0  0
   64.1579 -136.9128   44.2181 H   0  0  0  0  0  0
   64.1001 -139.3348   44.2203 H   0  0  0  0  0  0
   65.9163 -138.4623   42.6858 H   0  0  0  0  0  0
   64.7746 -138.5517   41.3019 H   0  0  0  0  0  0
   65.3048 -140.0563   42.1275 H   0  0  0  0  0  0
   62.9114 -139.8177   41.5291 H   0  0  0  0  0  0
   62.5584 -140.6203   43.0969 H   0  0  0  0  0  0
   60.5434 -139.2171   42.3325 H   0  0  0  0  0  0
   61.7116 -136.2503   44.2587 H   0  0  0  0  0  0
  1  2  2  0  0  0
  1  3  1  0  0  0
  1 10  1  0  0  0
  3  4  1  0  0  0
  3 53  1  0  0  0
  3 54  1  0  0  0
  4  6  1  0  0  0
  4  7  1  0  0  0
  5  8  1  0  0  0
  5  9  1  0  0  0
  6  8  1  0  0  0
  6 55  1  0  0  0
  6 56  1  0  0  0
  7  9  1  0  0  0
  7 57  1  0  0  0
  7 58  1  0  0  0
  8 59  1  0  0  0
  8 60  1  0  0  0
  9 61  1  0  0  0
  9 62  1  0  0  0
 10 11  1  0  0  0
 10 63  1  0  0  0
 11 12  1  0  0  0
 11 14  1  0  0  0
 11 64  1  0  0  0
 12 13  2  0  0  0
 12 22  1  0  0  0
 14 15  1  0  0  0
 14 65  1  0  0  0
 14 66  1  0  0  0
 15 16  1  0  0  0
 15 67  1  0  0  0
 15 68  1  0  0  0
 16 17  2  0  0  0
 16 18  1  0  0  0
 17 19  1  0  0  0
 17 69  1  0  0  0
 18 20  2  0  0  0
 18 70  1  0  0  0
 19 21  2  0  0  0
 19 71  1  0  0  0
 20 21  1  0  0  0
 20 72  1  0  0  0
 21 73  1  0  0  0
 22 23  1  0  0  0
 22 74  1  0  0  0
 23 24  1  0  0  0
 23 26  1  0  0  0
 23 75  1  0  0  0
 24 25  2  0  0  0
 24 30  1  0  0  0
 26 27  1  0  0  0
 26 76  1  0  0  0
 26 77  1  0  0  0
 27 28  1  0  0  0
 27 29  1  0  0  0
 27 78  1  0  0  0
 28 79  1  0  0  0
 28 80  1  0  0  0
 28 81  1  0  0  0
 29 82  1  0  0  0
 29 83  1  0  0  0
 29 84  1  0  0  0
 30 31  1  0  0  0
 30 85  1  0  0  0
 31 32  1  0  0  0
 31 34  1  0  0  0
 31 86  1  0  0  0
 32 33  2  0  0  0
 32 41  1  0  0  0
 34 35  1  0  0  0
 34 87  1  0  0  0
 34 88  1  0  0  0
 35 36  2  0  0  0
 35 37  1  0  0  0
 36 38  1  0  0  0
 36 89  1  0  0  0
 37 39  2  0  0  0
 37 90  1  0  0  0
 38 40  2  0  0  0
 38 91  1  0  0  0
 39 40  1  0  0  0
 39 92  1  0  0  0
 40 93  1  0  0  0
 41 42  1  0  0  0
 41 94  1  0  0  0
 42 43  1  0  0  0
 42 47  1  0  0  0
 42 95  1  0  0  0
 43 44  1  0  0  0
 43 96  1  0  0  0
 43 97  1  0  0  0
 44 45  1  0  0  0
 44 46  1  0  0  0
 44 98  1  0  0  0
 45 99  1  0  0  0
 45100  1  0  0  0
 45101  1  0  0  0
 46102  1  0  0  0
 46103  1  0  0  0
 46104  1  0  0  0
 47 48  1  0  0  0
 47 52  1  0  0  0
 47105  1  0  0  0
 48 49  1  0  0  0
 48 50  1  0  0  0
 48106  1  0  0  0
 49107  1  0  0  0
 49108  1  0  0  0
 49109  1  0  0  0
 50 51  1  0  0  0
 50110  1  0  0  0
 50111  1  0  0  0
 51112  1  0  0  0
 52113  1  0  0  0
M  END
> <s_m_source_file>
../4qwr_ligand.sdf

> <i_m_source_file_index>
1

> <s_epik_input>
W0NIMl0xW0NIMl1PW0NIMl1bQ0gyXVtOSCtdMVtDSDJdQyg9TylbTkhdW0NAQEhdKFtDSDJdW0NIMl1jMltjSF1bY0hdW2NIXVtjSF1bY0hdMilDKD1PKVtOSF1bQ0BASF0oW0NIMl1bQ0hdKFtDSDNdKVtDSDNdKUMoPU8pW05IXVtDQEhdKEMoPU8pW05IXVtDQEBIXShbQ0gyXVtDSF0oW0NIM10pW0NIM10pW0NAQEhdKFtPSF0pW0NASF0oW0NIM10pW0NIMl1bT0hdKVtDSDJdYzNbY0hdW2NIXVtjSF1bY0hdW2NIXTM=

> <s_epik_cmdline>
J2VwaWtfYXBwJywgJy1pbWFlJywgJ2xpZ2FuZF9wcm8ubWFlJywgJy1vbWFlJywgJ2xpZ2FuZF9wcmVwLm1hZScsICctbXMnLCAnMScsICctcGgnLCAnNycsICctcGh0JywgJzAuNScsICctbnQn

> <r_lp_tautomer_probability>
1

> <r_epik_Ionization_Penalty>
  0.0036

> <r_epik_Ionization_Penalty_Charging>
  0.0000

> <r_epik_Ionization_Penalty_Neutral>
  0.0036

> <r_epik_State_Penalty>
 -0.0000

> <r_epik_Charging_Adjusted_Penalty>
0

> <i_epik_Tot_Q>
0

> <i_epik_Tot_abs_Q>
0

$$$$
