4qws_ligand
                    3D
 Schrodinger Suite 2020-3.
113115  0  0  1  0            999 V2000
   59.6530 -135.7200   31.6990 C   0  0  0  0  0  0
   60.1920 -134.7030   31.2630 O   0  0  0  0  0  0
   59.3760 -136.9490   30.8280 C   0  0  0  0  0  0
   58.9170 -136.6040   29.4640 N   0  0  0  0  0  0
   58.4390 -135.0090   27.3390 O   0  0  0  0  0  0
   60.0160 -136.0820   28.6070 C   0  0  0  0  0  0
   57.7350 -135.6970   29.4670 C   0  0  0  0  0  0
   59.4800 -135.9760   27.2240 C   0  0  0  0  0  0
   57.3010 -135.5310   28.0900 C   0  0  0  0  0  0
   59.2450 -135.8620   32.9530 N   0  0  0  0  0  0
   59.4520 -134.8250   33.9510 C   0  0  2  0  0  0
   60.6520 -135.2830   34.7590 C   0  0  0  0  0  0
   60.8980 -136.4820   34.8800 O   0  0  0  0  0  0
   58.2570 -134.7880   34.8580 C   0  0  0  0  0  0
   57.4400 -133.5750   34.4550 C   0  0  0  0  0  0
   56.1840 -133.6430   35.1070 C   0  0  0  0  0  0
   55.0160 -133.3270   34.4090 C   0  0  0  0  0  0
   56.0710 -133.9990   36.4560 C   0  0  0  0  0  0
   53.7740 -133.3810   35.0370 C   0  0  0  0  0  0
   54.8310 -134.0560   37.0820 C   0  0  0  0  0  0
   53.6780 -133.7460   36.3750 C   0  0  0  0  0  0
   61.3750 -134.3140   35.3140 N   0  0  0  0  0  0
   62.5360 -134.6530   36.1370 C   0  0  2  0  0  0
   62.0560 -134.8290   37.5670 C   0  0  0  0  0  0
   61.3610 -133.9610   38.0960 O   0  0  0  0  0  0
   63.5160 -133.5250   36.1010 C   0  0  0  0  0  0
   64.2250 -133.6650   34.7410 C   0  0  0  0  0  0
   64.7500 -132.2950   34.2950 C   0  0  0  0  0  0
   65.3870 -134.6680   34.8500 C   0  0  0  0  0  0
   62.4330 -135.9750   38.1540 N   0  0  0  0  0  0
   62.0730 -136.2750   39.5450 C   0  0  2  0  0  0
   63.3570 -136.2890   40.3610 C   0  0  0  0  0  0
   64.4610 -136.3120   39.8120 O   0  0  0  0  0  0
   61.3790 -137.5910   39.6680 C   0  0  0  0  0  0
   60.0900 -137.3770   39.1710 C   0  0  0  0  0  0
   59.7830 -137.7100   37.8530 C   0  0  0  0  0  0
   59.1020 -136.8320   39.9910 C   0  0  0  0  0  0
   58.5000 -137.5010   37.3580 C   0  0  0  0  0  0
   57.8190 -136.6240   39.4950 C   0  0  0  0  0  0
   57.5160 -136.9580   38.1780 C   0  0  0  0  0  0
   63.1530 -136.2330   41.6860 N   0  0  0  0  0  0
   64.2490 -136.0700   42.6350 C   0  0  1  0  0  0
   64.0170 -134.6670   43.1750 C   0  0  0  0  0  0
   65.0830 -133.6880   42.6490 C   0  0  0  0  0  0
   64.6840 -132.2710   43.0860 C   0  0  0  0  0  0
   65.1940 -133.7180   41.1200 C   0  0  0  0  0  0
   64.2000 -137.0240   43.8440 C   0  0  2  0  0  0
   64.5630 -138.5470   43.5850 C   0  0  2  0  0  0
   65.7890 -138.6580   42.6450 C   0  0  0  0  0  0
   63.4110 -139.2300   42.8380 C   0  0  0  0  0  0
   62.2310 -138.9560   43.5950 O   0  0  0  0  0  0
   62.9110 -136.9190   44.4610 O   0  0  0  0  0  0
   60.2964 -137.5431   30.7289 H   0  0  0  0  0  0
   58.5926 -137.5621   31.2975 H   0  0  0  0  0  0
   60.3323 -135.0955   28.9768 H   0  0  0  0  0  0
   60.8683 -136.7766   28.6402 H   0  0  0  0  0  0
   56.9310 -136.1444   30.0699 H   0  0  0  0  0  0
   58.0192 -134.7257   29.8979 H   0  0  0  0  0  0
   59.0591 -136.9270   26.8658 H   0  0  0  0  0  0
   60.2361 -135.6176   26.5099 H   0  0  0  0  0  0
   56.4649 -134.8187   28.0309 H   0  0  0  0  0  0
   56.9913 -136.4962   27.6627 H   0  0  0  0  0  0
   58.7369 -136.7977   33.2293 H   0  0  0  0  0  0
   59.5877 -133.8454   33.4693 H   0  0  0  0  0  0
   57.6731 -135.7118   34.7330 H   0  0  0  0  0  0
   58.5918 -134.7044   35.9025 H   0  0  0  0  0  0
   57.9703 -132.6594   34.7557 H   0  0  0  0  0  0
   57.2975 -133.5747   33.3643 H   0  0  0  0  0  0
   55.0773 -133.0348   33.3607 H   0  0  0  0  0  0
   56.9701 -134.2354   37.0251 H   0  0  0  0  0  0
   52.8721 -133.1357   34.4762 H   0  0  0  0  0  0
   54.7643 -134.3450   38.1309 H   0  0  0  0  0  0
   52.7051 -133.7883   36.8646 H   0  0  0  0  0  0
   61.1020 -133.2603   35.1555 H   0  0  0  0  0  0
   63.0025 -135.5641   35.7340 H   0  0  0  0  0  0
   62.9781 -132.5691   36.1844 H   0  0  0  0  0  0
   64.2200 -133.6239   36.9404 H   0  0  0  0  0  0
   63.5094 -134.0360   33.9925 H   0  0  0  0  0  0
   63.9111 -131.5873   34.2208 H   0  0  0  0  0  0
   65.2369 -132.3908   33.3133 H   0  0  0  0  0  0
   65.4785 -131.9242   35.0310 H   0  0  0  0  0  0
   64.9984 -135.6459   35.1703 H   0  0  0  0  0  0
   66.1174 -134.3042   35.5877 H   0  0  0  0  0  0
   65.8758 -134.7708   33.8699 H   0  0  0  0  0  0
   63.0237 -136.6968   37.5708 H   0  0  0  0  0  0
   61.3632 -135.5055   39.8827 H   0  0  0  0  0  0
   61.9184 -138.3465   39.0778 H   0  0  0  0  0  0
   61.3581 -137.8972   40.7243 H   0  0  0  0  0  0
   60.5512 -138.1359   37.2076 H   0  0  0  0  0  0
   59.3357 -136.5685   41.0225 H   0  0  0  0  0  0
   58.2653 -137.7630   36.3263 H   0  0  0  0  0  0
   57.0493 -136.1986   40.1390 H   0  0  0  0  0  0
   56.5105 -136.7945   37.7903 H   0  0  0  0  0  0
   62.1181 -136.3145   42.0497 H   0  0  0  0  0  0
   65.1852 -136.2644   42.0911 H   0  0  0  0  0  0
   63.0255 -134.3114   42.8580 H   0  0  0  0  0  0
   64.0664 -134.6842   44.2738 H   0  0  0  0  0  0
   66.0608 -133.9826   43.0577 H   0  0  0  0  0  0
   64.6007 -132.2352   44.1823 H   0  0  0  0  0  0
   63.7155 -132.0076   42.6359 H   0  0  0  0  0  0
   65.4500 -131.5553   42.7529 H   0  0  0  0  0  0
   65.4796 -134.7287   40.7929 H   0  0  0  0  0  0
   65.9582 -132.9973   40.7937 H   0  0  0  0  0  0
   64.2238 -133.4496   40.6766 H   0  0  0  0  0  0
   64.9380 -136.6335   44.5601 H   0  0  0  0  0  0
   64.7581 -139.0392   44.5492 H   0  0  0  0  0  0
   66.6602 -138.1844   43.1212 H   0  0  0  0  0  0
   65.5694 -138.1500   41.6944 H   0  0  0  0  0  0
   66.0081 -139.7185   42.4519 H   0  0  0  0  0  0
   63.3358 -138.8151   41.8220 H   0  0  0  0  0  0
   63.6023 -140.3116   42.7791 H   0  0  0  0  0  0
   61.2587 -139.3447   43.2580 H   0  0  0  0  0  0
   62.5004 -135.9299   44.7121 H   0  0  0  0  0  0
  1  2  2  0  0  0
  1  3  1  0  0  0
  1 10  1  0  0  0
  3  4  1  0  0  0
  3 53  1  0  0  0
  3 54  1  0  0  0
  4  6  1  0  0  0
  4  7  1  0  0  0
  5  8  1  0  0  0
  5  9  1  0  0  0
  6  8  1  0  0  0
  6 55  1  0  0  0
  6 56  1  0  0  0
  7  9  1  0  0  0
  7 57  1  0  0  0
  7 58  1  0  0  0
  8 59  1  0  0  0
  8 60  1  0  0  0
  9 61  1  0  0  0
  9 62  1  0  0  0
 10 11  1  0  0  0
 10 63  1  0  0  0
 11 12  1  0  0  0
 11 14  1  0  0  0
 11 64  1  0  0  0
 12 13  2  0  0  0
 12 22  1  0  0  0
 14 15  1  0  0  0
 14 65  1  0  0  0
 14 66  1  0  0  0
 15 16  1  0  0  0
 15 67  1  0  0  0
 15 68  1  0  0  0
 16 17  2  0  0  0
 16 18  1  0  0  0
 17 19  1  0  0  0
 17 69  1  0  0  0
 18 20  2  0  0  0
 18 70  1  0  0  0
 19 21  2  0  0  0
 19 71  1  0  0  0
 20 21  1  0  0  0
 20 72  1  0  0  0
 21 73  1  0  0  0
 22 23  1  0  0  0
 22 74  1  0  0  0
 23 24  1  0  0  0
 23 26  1  0  0  0
 23 75  1  0  0  0
 24 25  2  0  0  0
 24 30  1  0  0  0
 26 27  1  0  0  0
 26 76  1  0  0  0
 26 77  1  0  0  0
 27 28  1  0  0  0
 27 29  1  0  0  0
 27 78  1  0  0  0
 28 79  1  0  0  0
 28 80  1  0  0  0
 28 81  1  0  0  0
 29 82  1  0  0  0
 29 83  1  0  0  0
 29 84  1  0  0  0
 30 31  1  0  0  0
 30 85  1  0  0  0
 31 32  1  0  0  0
 31 34  1  0  0  0
 31 86  1  0  0  0
 32 33  2  0  0  0
 32 41  1  0  0  0
 34 35  1  0  0  0
 34 87  1  0  0  0
 34 88  1  0  0  0
 35 36  2  0  0  0
 35 37  1  0  0  0
 36 38  1  0  0  0
 36 89  1  0  0  0
 37 39  2  0  0  0
 37 90  1  0  0  0
 38 40  2  0  0  0
 38 91  1  0  0  0
 39 40  1  0  0  0
 39 92  1  0  0  0
 40 93  1  0  0  0
 41 42  1  0  0  0
 41 94  1  0  0  0
 42 43  1  0  0  0
 42 47  1  0  0  0
 42 95  1  0  0  0
 43 44  1  0  0  0
 43 96  1  0  0  0
 43 97  1  0  0  0
 44 45  1  0  0  0
 44 46  1  0  0  0
 44 98  1  0  0  0
 45 99  1  0  0  0
 45100  1  0  0  0
 45101  1  0  0  0
 46102  1  0  0  0
 46103  1  0  0  0
 46104  1  0  0  0
 47 48  1  0  0  0
 47 52  1  0  0  0
 47105  1  0  0  0
 48 49  1  0  0  0
 48 50  1  0  0  0
 48106  1  0  0  0
 49107  1  0  0  0
 49108  1  0  0  0
 49109  1  0  0  0
 50 51  1  0  0  0
 50110  1  0  0  0
 50111  1  0  0  0
 51112  1  0  0  0
 52113  1  0  0  0
M  END
> <s_m_source_file>
../4qws_ligand.sdf

> <i_m_source_file_index>
1

> <s_epik_input>
W0NIMl0xW0NIMl1PW0NIMl1bQ0gyXVtOSCtdMVtDSDJdQyg9TylbTkhdW0NAQEhdKFtDSDJdW0NIMl1jMltjSF1bY0hdW2NIXVtjSF1bY0hdMilDKD1PKVtOSF1bQ0BASF0oW0NIMl1bQ0hdKFtDSDNdKVtDSDNdKUMoPU8pW05IXVtDQEhdKEMoPU8pW05IXVtDQEBIXShbQ0gyXVtDSF0oW0NIM10pW0NIM10pW0NAQEhdKFtPSF0pW0NASF0oW0NIM10pW0NIMl1bT0hdKVtDSDJdYzNbY0hdW2NIXVtjSF1bY0hdW2NIXTM=

> <s_epik_cmdline>
J2VwaWtfYXBwJywgJy1pbWFlJywgJ2xpZ2FuZF9wcm8ubWFlJywgJy1vbWFlJywgJ2xpZ2FuZF9wcmVwLm1hZScsICctbXMnLCAnMScsICctcGgnLCAnNycsICctcGh0JywgJzAuNScsICctbnQn

> <r_lp_tautomer_probability>
1

> <r_epik_Ionization_Penalty>
  0.0036

> <r_epik_Ionization_Penalty_Charging>
  0.0000

> <r_epik_Ionization_Penalty_Neutral>
  0.0036

> <r_epik_State_Penalty>
 -0.0000

> <r_epik_Charging_Adjusted_Penalty>
0

> <i_epik_Tot_Q>
0

> <i_epik_Tot_abs_Q>
0

$$$$
