4qwx_ligand
                    3D
 Schrodinger Suite 2020-3.
 86 88  0  0  1  0            999 V2000
   59.3460 -134.5200   34.7280 C   0  0  0  0  0  0
   59.3750 -135.7420   34.8710 O   0  0  0  0  0  0
   58.1870 -133.8550   33.9590 C   0  0  0  0  0  0
   57.0740 -133.8360   34.9040 N   0  0  0  0  0  0
   54.3610 -133.4550   35.3620 O   0  0  0  0  0  0
   56.1350 -134.9540   34.6600 C   0  0  0  0  0  0
   56.3940 -132.5370   34.8450 C   0  0  0  0  0  0
   54.9420 -134.7660   35.5090 C   0  0  0  0  0  0
   55.2860 -132.4630   35.8280 C   0  0  0  0  0  0
   60.2780 -133.6830   35.2240 N   0  0  0  0  0  0
   61.4200 -134.1890   36.0070 C   0  0  2  0  0  0
   60.9740 -134.3450   37.4610 C   0  0  0  0  0  0
   60.1440 -133.5820   37.9570 O   0  0  0  0  0  0
   62.6130 -133.2280   35.9460 C   0  0  0  0  0  0
   61.5540 -135.3540   38.1170 N   0  0  0  0  0  0
   61.2390 -135.6250   39.5190 C   0  0  1  0  0  0
   60.7220 -137.0230   39.6560 C   0  0  0  0  0  0
   59.3460 -136.9420   39.4500 C   0  0  0  0  0  0
   58.8280 -136.9910   38.1620 C   0  0  0  0  0  0
   57.4540 -136.9160   37.9540 C   0  0  0  0  0  0
   56.5770 -136.7960   39.0370 C   0  0  0  0  0  0
   55.2130 -136.7110   38.9200 O   0  0  0  0  0  0
   54.5360 -137.1290   37.7260 C   0  0  0  0  0  0
   57.1060 -136.7450   40.3250 C   0  0  0  0  0  0
   58.4790 -136.8180   40.5340 C   0  0  0  0  0  0
   62.5160 -135.4960   40.3390 C   0  0  0  0  0  0
   63.6220 -135.5590   39.8010 O   0  0  0  0  0  0
   62.2970 -135.3310   41.6520 N   0  0  0  0  0  0
   63.3800 -135.1670   42.6240 C   0  0  2  0  0  0
   63.2580 -136.2070   43.7530 C   0  0  1  0  0  0
   61.9370 -136.1380   44.2950 O   0  0  0  0  0  0
   63.5860 -137.7120   43.3800 C   0  0  2  0  0  0
   64.6930 -137.8090   42.2590 C   0  0  0  0  0  0
   62.3050 -138.3230   42.8150 C   0  0  0  0  0  0
   62.6580 -139.5330   42.1260 O   0  0  0  0  0  0
   63.2480 -133.7930   43.2700 C   0  0  0  0  0  0
   63.9950 -132.7760   42.6190 C   0  0  0  0  0  0
   64.8270 -132.9640   41.5020 C   0  0  0  0  0  0
   65.5090 -131.8840   40.9440 C   0  0  0  0  0  0
   65.3740 -130.6060   41.4790 C   0  0  0  0  0  0
   64.5520 -130.4020   42.5820 C   0  0  0  0  0  0
   63.8730 -131.4830   43.1400 C   0  0  0  0  0  0
   58.4825 -132.8394   33.6569 H   0  0  0  0  0  0
   57.9517 -134.4498   33.0641 H   0  0  0  0  0  0
   55.8411 -134.9613   33.6000 H   0  0  0  0  0  0
   56.6253 -135.9061   34.9111 H   0  0  0  0  0  0
   57.1138 -131.7358   35.0685 H   0  0  0  0  0  0
   55.9785 -132.3860   33.8377 H   0  0  0  0  0  0
   55.2439 -134.9180   36.5558 H   0  0  0  0  0  0
   54.2017 -135.5290   35.2265 H   0  0  0  0  0  0
   54.7956 -131.4784   35.8338 H   0  0  0  0  0  0
   55.6123 -132.7161   36.8475 H   0  0  0  0  0  0
   60.1753 -132.6042   35.0354 H   0  0  0  0  0  0
   61.7099 -135.1511   35.5594 H   0  0  0  0  0  0
   62.9377 -133.1125   34.9014 H   0  0  0  0  0  0
   63.4417 -133.6338   36.5448 H   0  0  0  0  0  0
   62.3155 -132.2483   36.3480 H   0  0  0  0  0  0
   62.2797 -135.9860   37.5842 H   0  0  0  0  0  0
   60.4676 -134.9088   39.8383 H   0  0  0  0  0  0
   61.2006 -137.6664   38.9030 H   0  0  0  0  0  0
   60.9528 -137.4023   40.6624 H   0  0  0  0  0  0
   59.5010 -137.0887   37.3101 H   0  0  0  0  0  0
   57.0581 -136.9511   36.9390 H   0  0  0  0  0  0
   53.4533 -136.9755   37.8455 H   0  0  0  0  0  0
   54.7374 -138.1951   37.5445 H   0  0  0  0  0  0
   54.8983 -136.5369   36.8727 H   0  0  0  0  0  0
   56.4358 -136.6467   41.1789 H   0  0  0  0  0  0
   58.8778 -136.7781   41.5477 H   0  0  0  0  0  0
   61.2498 -135.3220   41.9886 H   0  0  0  0  0  0
   64.3174 -135.2862   42.0610 H   0  0  0  0  0  0
   63.9649 -135.8856   44.5321 H   0  0  0  0  0  0
   61.5241 -135.1703   44.6160 H   0  0  0  0  0  0
   63.9277 -138.2545   44.2738 H   0  0  0  0  0  0
   65.6326 -137.3765   42.6332 H   0  0  0  0  0  0
   64.3628 -137.2539   41.3686 H   0  0  0  0  0  0
   64.8550 -138.8642   41.9940 H   0  0  0  0  0  0
   61.6097 -138.5433   43.6384 H   0  0  0  0  0  0
   61.8357 -137.6122   42.1190 H   0  0  0  0  0  0
   61.8776 -140.1368   41.6399 H   0  0  0  0  0  0
   62.1932 -133.4811   43.2561 H   0  0  0  0  0  0
   63.6023 -133.8413   44.3102 H   0  0  0  0  0  0
   64.9394 -133.9585   41.0702 H   0  0  0  0  0  0
   66.1545 -132.0418   40.0800 H   0  0  0  0  0  0
   65.9109 -129.7678   41.0348 H   0  0  0  0  0  0
   64.4398 -129.4044   43.0066 H   0  0  0  0  0  0
   63.2302 -131.3173   44.0046 H   0  0  0  0  0  0
  1  2  2  0  0  0
  1  3  1  0  0  0
  1 10  1  0  0  0
  3  4  1  0  0  0
  3 43  1  0  0  0
  3 44  1  0  0  0
  4  6  1  0  0  0
  4  7  1  0  0  0
  5  8  1  0  0  0
  5  9  1  0  0  0
  6  8  1  0  0  0
  6 45  1  0  0  0
  6 46  1  0  0  0
  7  9  1  0  0  0
  7 47  1  0  0  0
  7 48  1  0  0  0
  8 49  1  0  0  0
  8 50  1  0  0  0
  9 51  1  0  0  0
  9 52  1  0  0  0
 10 11  1  0  0  0
 10 53  1  0  0  0
 11 12  1  0  0  0
 11 14  1  0  0  0
 11 54  1  0  0  0
 12 13  2  0  0  0
 12 15  1  0  0  0
 14 55  1  0  0  0
 14 56  1  0  0  0
 14 57  1  0  0  0
 15 16  1  0  0  0
 15 58  1  0  0  0
 16 17  1  0  0  0
 16 26  1  0  0  0
 16 59  1  0  0  0
 17 18  1  0  0  0
 17 60  1  0  0  0
 17 61  1  0  0  0
 18 19  2  0  0  0
 18 25  1  0  0  0
 19 20  1  0  0  0
 19 62  1  0  0  0
 20 21  2  0  0  0
 20 63  1  0  0  0
 21 22  1  0  0  0
 21 24  1  0  0  0
 22 23  1  0  0  0
 23 64  1  0  0  0
 23 65  1  0  0  0
 23 66  1  0  0  0
 24 25  2  0  0  0
 24 67  1  0  0  0
 25 68  1  0  0  0
 26 27  2  0  0  0
 26 28  1  0  0  0
 28 29  1  0  0  0
 28 69  1  0  0  0
 29 30  1  0  0  0
 29 36  1  0  0  0
 29 70  1  0  0  0
 30 31  1  0  0  0
 30 32  1  0  0  0
 30 71  1  0  0  0
 31 72  1  0  0  0
 32 33  1  0  0  0
 32 34  1  0  0  0
 32 73  1  0  0  0
 33 74  1  0  0  0
 33 75  1  0  0  0
 33 76  1  0  0  0
 34 35  1  0  0  0
 34 77  1  0  0  0
 34 78  1  0  0  0
 35 79  1  0  0  0
 36 37  1  0  0  0
 36 80  1  0  0  0
 36 81  1  0  0  0
 37 38  2  0  0  0
 37 42  1  0  0  0
 38 39  1  0  0  0
 38 82  1  0  0  0
 39 40  2  0  0  0
 39 83  1  0  0  0
 40 41  1  0  0  0
 40 84  1  0  0  0
 41 42  2  0  0  0
 41 85  1  0  0  0
 42 86  1  0  0  0
M  END
> <s_m_source_file>
../4qwx_ligand.sdf

> <i_m_source_file_index>
1

> <s_epik_input>
W0NIMl0xW0NIMl1PW0NIMl1bQ0gyXVtOSCtdMVtDSDJdQyg9TylbTkhdW0NAQEhdKFtDSDNdKUMoPU8pW05IXVtDQEBIXShbQ0gyXWMyW2NIXVtjSF1jKE9bQ0gzXSlbY0hdW2NIXTIpQyg9TylbTkhdW0NASF0oW0NAQEhdKFtPSF0pW0NASF0oW0NIM10pW0NIMl1bT0hdKVtDSDJdYzNbY0hdW2NIXVtjSF1bY0hdW2NIXTM=

> <s_epik_cmdline>
J2VwaWtfYXBwJywgJy1pbWFlJywgJ2xpZ2FuZF9wcm8ubWFlJywgJy1vbWFlJywgJ2xpZ2FuZF9wcmVwLm1hZScsICctbXMnLCAnMScsICctcGgnLCAnNycsICctcGh0JywgJzAuNScsICctbnQn

> <r_lp_tautomer_probability>
1

> <r_epik_Ionization_Penalty>
  0.0035

> <r_epik_Ionization_Penalty_Charging>
  0.0000

> <r_epik_Ionization_Penalty_Neutral>
  0.0035

> <r_epik_State_Penalty>
 -0.0000

> <r_epik_Charging_Adjusted_Penalty>
0

> <i_epik_Tot_Q>
0

> <i_epik_Tot_abs_Q>
0

$$$$
