4qxj_ligand
                    3D
 Schrodinger Suite 2020-3.
 86 88  0  0  1  0            999 V2000
   59.8840 -134.6610   34.6460 C   0  0  0  0  0  0
   60.0050 -135.8730   34.8260 O   0  0  0  0  0  0
   58.7140 -134.1040   33.8180 C   0  0  0  0  0  0
   57.6790 -133.7480   34.7880 N   0  0  0  0  0  0
   55.0410 -133.1120   35.3720 O   0  0  0  0  0  0
   56.6980 -134.8450   34.9450 C   0  0  0  0  0  0
   57.0220 -132.5050   34.3720 C   0  0  0  0  0  0
   55.5850 -134.3710   35.8000 C   0  0  0  0  0  0
   56.0280 -132.0710   35.3800 C   0  0  0  0  0  0
   60.7240 -133.7380   35.1400 N   0  0  0  0  0  0
   61.8810 -134.1180   35.9640 C   0  0  2  0  0  0
   61.4410 -134.2220   37.4270 C   0  0  0  0  0  0
   60.6040 -133.4530   37.9040 O   0  0  0  0  0  0
   63.0000 -133.0830   35.8240 C   0  0  0  0  0  0
   62.0330 -135.2130   38.1030 N   0  0  0  0  0  0
   61.7320 -135.4760   39.5080 C   0  0  1  0  0  0
   61.1920 -136.8720   39.6350 C   0  0  0  0  0  0
   59.8070 -136.8050   39.4810 C   0  0  0  0  0  0
   59.2160 -137.0090   38.2370 C   0  0  0  0  0  0
   57.8310 -136.9560   38.0960 C   0  0  0  0  0  0
   57.0180 -136.6960   39.2080 C   0  0  0  0  0  0
   55.6460 -136.6300   39.1870 O   0  0  0  0  0  0
   54.9250 -136.5930   37.9520 C   0  0  0  0  0  0
   57.6190 -136.5030   40.4470 C   0  0  0  0  0  0
   58.9990 -136.5560   40.5870 C   0  0  0  0  0  0
   63.0350 -135.3950   40.2950 C   0  0  0  0  0  0
   64.1230 -135.5500   39.7370 O   0  0  0  0  0  0
   62.8610 -135.1690   41.6050 N   0  0  0  0  0  0
   63.9750 -135.0530   42.5460 C   0  0  2  0  0  0
   63.8100 -136.0960   43.6720 C   0  0  1  0  0  0
   62.4620 -136.0380   44.1460 O   0  0  0  0  0  0
   64.1900 -137.6090   43.3140 C   0  0  2  0  0  0
   65.3180 -137.6760   42.2190 C   0  0  0  0  0  0
   62.9240 -138.2580   42.7510 C   0  0  0  0  0  0
   63.3330 -139.3740   41.9450 O   0  0  0  0  0  0
   63.9190 -133.6810   43.2030 C   0  0  0  0  0  0
   64.6550 -132.6780   42.5320 C   0  0  0  0  0  0
   65.5000 -132.8850   41.4320 C   0  0  0  0  0  0
   66.1710 -131.8070   40.8550 C   0  0  0  0  0  0
   66.0120 -130.5170   41.3600 C   0  0  0  0  0  0
   65.1760 -130.2970   42.4470 C   0  0  0  0  0  0
   64.5110 -131.3770   43.0220 C   0  0  0  0  0  0
   59.0520 -133.2237   33.2516 H   0  0  0  0  0  0
   58.3594 -134.8757   33.1189 H   0  0  0  0  0  0
   56.3115 -135.1354   33.9569 H   0  0  0  0  0  0
   57.1876 -135.7101   35.4160 H   0  0  0  0  0  0
   57.7763 -131.7130   34.2549 H   0  0  0  0  0  0
   56.5070 -132.6655   33.4133 H   0  0  0  0  0  0
   55.9711 -134.2740   36.8254 H   0  0  0  0  0  0
   54.7970 -135.1381   35.7760 H   0  0  0  0  0  0
   55.5553 -131.1155   35.1088 H   0  0  0  0  0  0
   56.4677 -131.9903   36.3851 H   0  0  0  0  0  0
   60.5322 -132.6781   34.9167 H   0  0  0  0  0  0
   62.2358 -135.0911   35.5936 H   0  0  0  0  0  0
   63.3081 -133.0165   34.7701 H   0  0  0  0  0  0
   63.8598 -133.3872   36.4389 H   0  0  0  0  0  0
   62.6361 -132.1016   36.1623 H   0  0  0  0  0  0
   62.7650 -135.8384   37.5709 H   0  0  0  0  0  0
   60.9888 -134.7412   39.8510 H   0  0  0  0  0  0
   61.6340 -137.5085   38.8543 H   0  0  0  0  0  0
   61.4483 -137.2756   40.6257 H   0  0  0  0  0  0
   59.8412 -137.2116   37.3674 H   0  0  0  0  0  0
   57.3780 -137.1172   37.1178 H   0  0  0  0  0  0
   53.8459 -136.5415   38.1589 H   0  0  0  0  0  0
   55.1443 -137.5016   37.3721 H   0  0  0  0  0  0
   55.2305 -135.7074   37.3755 H   0  0  0  0  0  0
   56.9975 -136.3073   41.3208 H   0  0  0  0  0  0
   59.4517 -136.4021   41.5665 H   0  0  0  0  0  0
   61.8257 -135.0702   41.9634 H   0  0  0  0  0  0
   64.8970 -135.2001   41.9645 H   0  0  0  0  0  0
   64.4621 -135.7614   44.4922 H   0  0  0  0  0  0
   62.0240 -135.0733   44.4418 H   0  0  0  0  0  0
   64.5438 -138.1534   44.2020 H   0  0  0  0  0  0
   66.2360 -137.2126   42.6095 H   0  0  0  0  0  0
   64.9884 -137.1355   41.3195 H   0  0  0  0  0  0
   65.5181 -138.7268   41.9626 H   0  0  0  0  0  0
   62.2855 -138.5963   43.5804 H   0  0  0  0  0  0
   62.3756 -137.5244   42.1418 H   0  0  0  0  0  0
   62.5777 -139.9918   41.4372 H   0  0  0  0  0  0
   62.8750 -133.3369   43.2449 H   0  0  0  0  0  0
   64.3248 -133.7462   44.2233 H   0  0  0  0  0  0
   65.6324 -133.8886   41.0279 H   0  0  0  0  0  0
   66.8265 -131.9746   40.0004 H   0  0  0  0  0  0
   66.5431 -129.6824   40.9023 H   0  0  0  0  0  0
   65.0420 -129.2912   42.8452 H   0  0  0  0  0  0
   63.8597 -131.2028   43.8785 H   0  0  0  0  0  0
  1  2  2  0  0  0
  1  3  1  0  0  0
  1 10  1  0  0  0
  3  4  1  0  0  0
  3 43  1  0  0  0
  3 44  1  0  0  0
  4  6  1  0  0  0
  4  7  1  0  0  0
  5  8  1  0  0  0
  5  9  1  0  0  0
  6  8  1  0  0  0
  6 45  1  0  0  0
  6 46  1  0  0  0
  7  9  1  0  0  0
  7 47  1  0  0  0
  7 48  1  0  0  0
  8 49  1  0  0  0
  8 50  1  0  0  0
  9 51  1  0  0  0
  9 52  1  0  0  0
 10 11  1  0  0  0
 10 53  1  0  0  0
 11 12  1  0  0  0
 11 14  1  0  0  0
 11 54  1  0  0  0
 12 13  2  0  0  0
 12 15  1  0  0  0
 14 55  1  0  0  0
 14 56  1  0  0  0
 14 57  1  0  0  0
 15 16  1  0  0  0
 15 58  1  0  0  0
 16 17  1  0  0  0
 16 26  1  0  0  0
 16 59  1  0  0  0
 17 18  1  0  0  0
 17 60  1  0  0  0
 17 61  1  0  0  0
 18 19  2  0  0  0
 18 25  1  0  0  0
 19 20  1  0  0  0
 19 62  1  0  0  0
 20 21  2  0  0  0
 20 63  1  0  0  0
 21 22  1  0  0  0
 21 24  1  0  0  0
 22 23  1  0  0  0
 23 64  1  0  0  0
 23 65  1  0  0  0
 23 66  1  0  0  0
 24 25  2  0  0  0
 24 67  1  0  0  0
 25 68  1  0  0  0
 26 27  2  0  0  0
 26 28  1  0  0  0
 28 29  1  0  0  0
 28 69  1  0  0  0
 29 30  1  0  0  0
 29 36  1  0  0  0
 29 70  1  0  0  0
 30 31  1  0  0  0
 30 32  1  0  0  0
 30 71  1  0  0  0
 31 72  1  0  0  0
 32 33  1  0  0  0
 32 34  1  0  0  0
 32 73  1  0  0  0
 33 74  1  0  0  0
 33 75  1  0  0  0
 33 76  1  0  0  0
 34 35  1  0  0  0
 34 77  1  0  0  0
 34 78  1  0  0  0
 35 79  1  0  0  0
 36 37  1  0  0  0
 36 80  1  0  0  0
 36 81  1  0  0  0
 37 38  2  0  0  0
 37 42  1  0  0  0
 38 39  1  0  0  0
 38 82  1  0  0  0
 39 40  2  0  0  0
 39 83  1  0  0  0
 40 41  1  0  0  0
 40 84  1  0  0  0
 41 42  2  0  0  0
 41 85  1  0  0  0
 42 86  1  0  0  0
M  END
> <s_m_source_file>
../4qxj_ligand.sdf

> <i_m_source_file_index>
1

> <s_epik_input>
W0NIMl0xW0NIMl1PW0NIMl1bQ0gyXVtOSCtdMVtDSDJdQyg9TylbTkhdW0NAQEhdKFtDSDNdKUMoPU8pW05IXVtDQEBIXShbQ0gyXWMyW2NIXVtjSF1jKE9bQ0gzXSlbY0hdW2NIXTIpQyg9TylbTkhdW0NASF0oW0NAQEhdKFtPSF0pW0NASF0oW0NIM10pW0NIMl1bT0hdKVtDSDJdYzNbY0hdW2NIXVtjSF1bY0hdW2NIXTM=

> <s_epik_cmdline>
J2VwaWtfYXBwJywgJy1pbWFlJywgJ2xpZ2FuZF9wcm8ubWFlJywgJy1vbWFlJywgJ2xpZ2FuZF9wcmVwLm1hZScsICctbXMnLCAnMScsICctcGgnLCAnNycsICctcGh0JywgJzAuNScsICctbnQn

> <r_lp_tautomer_probability>
1

> <r_epik_Ionization_Penalty>
  0.0035

> <r_epik_Ionization_Penalty_Charging>
  0.0000

> <r_epik_Ionization_Penalty_Neutral>
  0.0035

> <r_epik_State_Penalty>
 -0.0000

> <r_epik_Charging_Adjusted_Penalty>
0

> <i_epik_Tot_Q>
0

> <i_epik_Tot_abs_Q>
0

$$$$
