4qxs_ligand
                    3D
 Schrodinger Suite 2020-3.
 54 56  0  0  1  0            999 V2000
    7.9300   72.6130   25.5350 O   0  5  0  0  0  0
    7.6630   73.7670   26.5890 P   0  0  0  0  0  0
    8.8890   74.5930   26.8600 O   0  5  0  0  0  0
    6.3550   74.4170   26.2690 O   0  0  0  0  0  0
    7.3540   72.8160   28.1670 C   0  0  2  0  0  0
    8.8980   71.9870   28.7380 P   0  0  0  0  0  0
    8.3630   71.1070   30.0240 O   0  5  0  0  0  0
    9.2570   71.1840   27.6330 O   0  0  0  0  0  0
    9.7410   72.9620   29.3860 O   0  0  0  0  0  0
    6.2520   71.7900   27.9580 C   0  0  0  0  0  0
    5.2230   71.8720   29.1270 C   0  0  0  0  0  0
    4.9130   70.8900   29.9870 C   0  0  0  0  0  0
    5.4890   69.4620   30.1390 C   0  0  1  0  0  0
    6.0110   69.2840   31.6050 C   0  0  0  0  0  0
    4.4700   68.4320   29.8670 C   0  0  0  0  0  0
    4.1040   68.5200   28.3790 C   0  0  0  0  0  0
    5.1240   67.0630   30.2220 C   0  0  0  0  0  0
    4.0070   71.3450   30.8530 N   0  3  0  0  0  0
    3.6890   72.6080   30.5430 C   0  0  0  0  0  0
    2.8370   73.4550   31.1430 C   0  0  0  0  0  0
    2.6930   74.7390   30.6710 C   0  0  0  0  0  0
    4.4670   72.9730   29.4910 C   0  0  0  0  0  0
    4.3210   74.2150   29.0070 C   0  0  0  0  0  0
    3.4390   75.1510   29.5600 C   0  0  0  0  0  0
    3.3680   76.4910   29.0910 C   0  0  0  0  0  0
    4.5850   77.1960   28.9000 C   0  0  0  0  0  0
    4.6450   78.5110   28.4980 C   0  0  0  0  0  0
    3.4550   79.1800   28.2630 C   0  0  0  0  0  0
    2.2500   78.5020   28.4440 C   0  0  0  0  0  0
    2.1830   77.1840   28.8950 C   0  0  0  0  0  0
    6.8655   73.4040   28.9580 H   0  0  0  0  0  0
    9.3595   73.5358   30.2434 H   0  0  0  0  0  0
    5.7379   71.9927   27.0069 H   0  0  0  0  0  0
    6.6904   70.7815   27.9302 H   0  0  0  0  0  0
    6.2697   69.3019   29.3808 H   0  0  0  0  0  0
    6.7726   70.0485   31.8184 H   0  0  0  0  0  0
    6.4541   68.2835   31.7175 H   0  0  0  0  0  0
    5.1728   69.3950   32.3087 H   0  0  0  0  0  0
    3.5630   68.6062   30.4645 H   0  0  0  0  0  0
    3.6467   69.4986   28.1712 H   0  0  0  0  0  0
    3.3902   67.7212   28.1291 H   0  0  0  0  0  0
    5.0128   68.4033   27.7704 H   0  0  0  0  0  0
    5.3701   67.0412   31.2939 H   0  0  0  0  0  0
    6.0430   66.9317   29.6320 H   0  0  0  0  0  0
    4.4205   66.2496   29.9907 H   0  0  0  0  0  0
    2.2585   73.1244   32.0056 H   0  0  0  0  0  0
    2.0042   75.4296   31.1576 H   0  0  0  0  0  0
    4.9167   74.5094   28.1430 H   0  0  0  0  0  0
    5.5213   76.6682   29.0812 H   0  0  0  0  0  0
    5.6038   79.0129   28.3680 H   0  0  0  0  0  0
    3.4605   80.2214   27.9412 H   0  0  0  0  0  0
    1.3196   79.0251   28.2233 H   0  0  0  0  0  0
    1.2211   76.7094   29.0890 H   0  0  0  0  0  0
    3.6447   70.6944   31.6626 H   0  0  0  0  0  0
  1  2  1  0  0  0
  2  3  1  0  0  0
  2  4  2  0  0  0
  2  5  1  0  0  0
  5  6  1  0  0  0
  5 10  1  0  0  0
  5 31  1  0  0  0
  6  7  1  0  0  0
  6  8  2  0  0  0
  6  9  1  0  0  0
  9 32  1  0  0  0
 10 11  1  0  0  0
 10 33  1  0  0  0
 10 34  1  0  0  0
 11 12  2  0  0  0
 11 22  1  0  0  0
 12 13  1  0  0  0
 12 18  1  0  0  0
 13 14  1  0  0  0
 13 15  1  0  0  0
 13 35  1  0  0  0
 14 36  1  0  0  0
 14 37  1  0  0  0
 14 38  1  0  0  0
 15 16  1  0  0  0
 15 17  1  0  0  0
 15 39  1  0  0  0
 16 40  1  0  0  0
 16 41  1  0  0  0
 16 42  1  0  0  0
 17 43  1  0  0  0
 17 44  1  0  0  0
 17 45  1  0  0  0
 18 19  1  0  0  0
 18 54  1  0  0  0
 19 20  1  0  0  0
 19 22  2  0  0  0
 20 21  2  0  0  0
 20 46  1  0  0  0
 21 24  1  0  0  0
 21 47  1  0  0  0
 22 23  1  0  0  0
 23 24  2  0  0  0
 23 48  1  0  0  0
 24 25  1  0  0  0
 25 26  2  0  0  0
 25 30  1  0  0  0
 26 27  1  0  0  0
 26 49  1  0  0  0
 27 28  2  0  0  0
 27 50  1  0  0  0
 28 29  1  0  0  0
 28 51  1  0  0  0
 29 30  2  0  0  0
 29 52  1  0  0  0
 30 53  1  0  0  0
M  CHG  4   1  -1   3  -1   7  -1  18   1
M  END
> <s_m_source_file>
../4qxs_ligand.sdf

> <i_m_source_file_index>
1

> <s_epik_input>
W09IXVAoPU8pKFtPSF0pW0NIXShQKD1PKShbT0hdKVtPSF0pW0NIMl1jKGMoW25IXTEpW0NAQEhdKFtDSDNdKVtDSF0oW0NIM10pW0NIM10pYyhjMTIpW2NIXWMoW2NIXVtjSF0yKS1jM1tjSF1bY0hdW2NIXVtjSF1bY0hdMw==

> <s_epik_cmdline>
J2VwaWtfYXBwJywgJy1pbWFlJywgJ2xpZ2FuZF9wcm8ubWFlJywgJy1vbWFlJywgJ2xpZ2FuZF9wcmVwLm1hZScsICctbXMnLCAnMScsICctcGgnLCAnNycsICctcGh0JywgJzAuNScsICctbnQn

> <r_epik_Ionization_Penalty>
  0.2884

> <r_epik_Ionization_Penalty_Charging>
  0.2883

> <r_epik_Ionization_Penalty_Neutral>
  0.0000

> <r_epik_State_Penalty>
  0.2812

> <r_epik_Charging_Adjusted_Penalty>
0.569516915503472

> <i_epik_Tot_Q>
-2

> <i_epik_Tot_abs_Q>
4

$$$$
