4qxt_ligand
                    3D
 Schrodinger Suite 2020-3.
171171  0  0  1  0            999 V2000
  -17.4000  -20.6240  -20.2580 C   0  0  0  0  0  0
  -17.0600  -20.5300  -19.0780 O   0  0  0  0  0  0
  -18.7070  -20.0500  -20.7260 C   0  0  0  0  0  0
  -16.8430  -21.4750  -21.1250 N   0  0  0  0  0  0
  -15.5770  -22.1980  -20.9470 C   0  0  2  0  0  0
  -14.3170  -21.3490  -21.1930 C   0  0  0  0  0  0
  -13.9090  -21.1040  -22.3240 O   0  0  0  0  0  0
  -15.5540  -23.4170  -21.8600 C   0  0  0  0  0  0
  -14.3840  -24.3300  -21.5680 C   0  0  0  0  0  0
  -13.5620  -24.0340  -20.6940 O   0  0  0  0  0  0
  -14.3050  -25.4600  -22.2920 N   0  0  0  0  0  0
  -13.6780  -20.9660  -20.1040 N   0  0  0  0  0  0
  -12.5520  -20.0440  -20.1050 C   0  0  2  0  0  0
  -11.2080  -20.7390  -20.2500 C   0  0  0  0  0  0
  -10.1680  -20.0770  -20.3210 O   0  0  0  0  0  0
  -12.5570  -19.2450  -18.7980 C   0  0  0  0  0  0
  -11.2100  -22.0650  -20.2440 N   0  0  0  0  0  0
   -9.9390  -22.7880  -20.2460 C   0  0  2  0  0  0
   -9.1200  -22.4790  -21.4910 C   0  0  0  0  0  0
   -7.9190  -22.2310  -21.4140 O   0  0  0  0  0  0
  -10.1900  -24.2850  -20.1530 C   0  0  0  0  0  0
   -8.9450  -25.1590  -20.2380 C   0  0  0  0  0  0
   -8.3220  -25.4140  -21.4550 C   0  0  0  0  0  0
   -8.4230  -25.7580  -19.0980 C   0  0  0  0  0  0
   -7.2080  -26.2460  -21.5350 C   0  0  0  0  0  0
   -7.3080  -26.5770  -19.1660 C   0  0  0  0  0  0
   -6.7040  -26.8060  -20.3870 C   0  0  0  0  0  0
   -5.6040  -27.6430  -20.4690 O   0  0  0  0  0  0
   -9.7740  -22.4920  -22.6400 N   0  0  0  0  0  0
   -9.0550  -22.3790  -23.9020 C   0  0  2  0  0  0
   -8.5590  -20.9780  -24.2150 C   0  0  0  0  0  0
   -7.5110  -20.8110  -24.8500 O   0  0  0  0  0  0
   -9.9570  -22.8910  -25.0190 C   0  0  0  0  0  0
  -10.3880  -24.3210  -24.7760 C   0  0  0  0  0  0
   -9.5460  -25.1990  -24.6520 O   0  0  0  0  0  0
  -11.6990  -24.5600  -24.6610 N   0  0  0  0  0  0
   -9.3180  -19.9720  -23.7950 N   0  0  0  0  0  0
   -9.1070  -18.6200  -24.2890 C   0  0  2  0  0  0
   -8.8390  -17.5790  -23.2110 C   0  0  0  0  0  0
   -8.5940  -16.4270  -23.5560 O   0  0  0  0  0  0
  -10.3170  -18.1840  -25.1040 C   0  0  0  0  0  0
  -10.6960  -19.1900  -26.1880 C   0  0  0  0  0  0
   -9.8820  -18.7440  -27.7190 S   0  0  0  0  0  0
  -10.7620  -17.2320  -28.0220 C   0  0  0  0  0  0
   -8.8710  -17.9420  -21.9270 N   0  0  0  0  0  0
   -8.5450  -16.9250  -20.9240 C   0  0  2  0  0  0
   -7.0350  -16.7200  -20.8240 C   0  0  0  0  0  0
   -6.5820  -15.7460  -20.2080 O   0  0  0  0  0  0
   -9.1590  -17.2240  -19.5310 C   0  0  0  0  0  0
   -8.6180  -18.3870  -18.9070 O   0  0  0  0  0  0
   -6.2750  -17.6290  -21.4280 N   0  0  0  0  0  0
   -4.8670  -17.3780  -21.7540 C   0  0  2  0  0  0
   -4.6460  -17.7140  -23.2230 C   0  0  0  0  0  0
   -5.4060  -18.4830  -23.8180 O   0  0  0  0  0  0
   -3.8830  -18.2080  -20.8980 C   0  0  2  0  0  0
   -4.0100  -19.6940  -21.2410 C   0  0  0  0  0  0
   -4.0880  -17.9600  -19.4010 C   0  0  0  0  0  0
   -2.8340  -20.5650  -20.7030 C   0  0  0  0  0  0
   -3.6030  -17.1510  -23.8210 N   0  0  0  0  0  0
   -3.2500  -17.5470  -25.1720 C   0  0  2  0  0  0
   -2.4240  -18.8100  -25.1240 C   0  0  0  0  0  0
   -1.3780  -18.8540  -24.4710 O   0  0  0  0  0  0
   -2.4890  -16.4410  -25.8960 C   0  0  0  0  0  0
   -2.0370  -16.8920  -27.2780 C   0  0  0  0  0  0
   -1.7970  -15.7110  -28.1720 C   0  0  0  0  0  0
   -0.5170  -15.0980  -27.8840 N   0  0  0  0  0  0
    0.5810  -15.3210  -28.5990 C   0  0  0  0  0  0
    0.5360  -16.1490  -29.6310 N   0  0  0  0  0  0
    1.7200  -14.7200  -28.2740 N   0  0  0  0  0  0
   -2.9110  -19.8540  -25.7880 N   0  0  0  0  0  0
   -2.2160  -21.1380  -25.7960 C   0  0  2  0  0  0
   -1.4850  -21.3510  -27.1170 C   0  0  0  0  0  0
   -2.0850  -21.7390  -28.1130 O   0  0  0  0  0  0
   -3.2160  -22.2760  -25.5230 C   0  0  0  0  0  0
   -3.8150  -22.2140  -24.1160 C   0  0  0  0  0  0
   -4.7420  -23.4100  -23.8310 C   0  0  0  0  0  0
   -5.3740  -23.2260  -22.5280 N   0  0  0  0  0  0
   -4.8890  -23.6800  -21.3760 C   0  0  0  0  0  0
   -3.7660  -24.3880  -21.3490 N   0  0  0  0  0  0
   -5.5500  -23.4410  -20.2440 N   0  0  0  0  0  0
   -0.1800  -21.0710  -27.1030 N   0  0  0  0  0  0
    0.6890  -21.1730  -28.2780 C   0  0  2  0  0  0
    1.9840  -21.9080  -27.9190 C   0  0  0  0  0  0
    2.6300  -22.5200  -28.7790 O   0  0  0  0  0  0
    1.0240  -19.7840  -28.8320 C   0  0  0  0  0  0
   -0.1310  -19.1040  -29.3080 O   0  0  0  0  0  0
    2.4170  -21.9090  -26.7600 O   0  0  0  0  0  0
  -19.1002  -19.3630  -19.9622 H   0  0  0  0  0  0
  -19.4270  -20.8650  -20.8917 H   0  0  0  0  0  0
  -18.5508  -19.5018  -21.6668 H   0  0  0  0  0  0
  -17.4299  -21.6120  -22.0452 H   0  0  0  0  0  0
  -15.5905  -22.4788  -19.8835 H   0  0  0  0  0  0
  -16.4798  -23.9950  -21.7233 H   0  0  0  0  0  0
  -15.4776  -23.0894  -22.9073 H   0  0  0  0  0  0
  -15.0635  -25.6761  -23.0587 H   0  0  0  0  0  0
  -13.4818  -26.1685  -22.1177 H   0  0  0  0  0  0
  -14.0432  -21.3871  -19.1557 H   0  0  0  0  0  0
  -12.7150  -19.4182  -20.9948 H   0  0  0  0  0  0
  -13.5259  -18.7372  -18.6824 H   0  0  0  0  0  0
  -11.7514  -18.4964  -18.8228 H   0  0  0  0  0  0
  -12.3973  -19.9276  -17.9503 H   0  0  0  0  0  0
  -12.1591  -22.6211  -20.2376 H   0  0  0  0  0  0
   -9.3966  -22.4293  -19.3588 H   0  0  0  0  0  0
  -10.6700  -24.5172  -19.1909 H   0  0  0  0  0  0
  -10.8487  -24.5982  -20.9764 H   0  0  0  0  0  0
   -8.7127  -24.9543  -22.3628 H   0  0  0  0  0  0
   -8.8991  -25.5803  -18.1337 H   0  0  0  0  0  0
   -6.7412  -26.4504  -22.4985 H   0  0  0  0  0  0
   -6.9098  -27.0378  -18.2620 H   0  0  0  0  0  0
   -5.1230  -27.8254  -21.4413 H   0  0  0  0  0  0
  -10.8697  -22.5891  -22.6380 H   0  0  0  0  0  0
   -8.1563  -22.9989  -23.7678 H   0  0  0  0  0  0
  -10.8578  -22.2626  -25.0800 H   0  0  0  0  0  0
   -9.4156  -22.8495  -25.9756 H   0  0  0  0  0  0
  -12.4204  -23.7383  -24.7806 H   0  0  0  0  0  0
  -12.0557  -25.5783  -24.4469 H   0  0  0  0  0  0
  -10.1148  -20.1722  -23.0636 H   0  0  0  0  0  0
   -8.1912  -18.7193  -24.8903 H   0  0  0  0  0  0
  -11.1845  -18.0660  -24.4380 H   0  0  0  0  0  0
  -10.1005  -17.2250  -25.5975 H   0  0  0  0  0  0
  -10.3774  -20.1971  -25.8811 H   0  0  0  0  0  0
  -11.7863  -19.1789  -26.3336 H   0  0  0  0  0  0
  -10.3992  -16.7774  -28.9556 H   0  0  0  0  0  0
  -10.5946  -16.5366  -27.1863 H   0  0  0  0  0  0
  -11.8374  -17.4453  -28.1118 H   0  0  0  0  0  0
   -9.1303  -18.9631  -21.6107 H   0  0  0  0  0  0
   -9.0124  -16.0139  -21.3258 H   0  0  0  0  0  0
   -8.9735  -16.3736  -18.8584 H   0  0  0  0  0  0
  -10.2430  -17.3803  -19.6339 H   0  0  0  0  0  0
   -8.9783  -18.6969  -17.9150 H   0  0  0  0  0  0
   -6.7350  -18.5949  -21.6837 H   0  0  0  0  0  0
   -4.7141  -16.3104  -21.5378 H   0  0  0  0  0  0
   -2.8561  -17.8896  -21.1305 H   0  0  0  0  0  0
   -4.9382  -20.0927  -20.8057 H   0  0  0  0  0  0
   -4.0351  -19.8173  -22.3338 H   0  0  0  0  0  0
   -3.9901  -16.8847  -19.1907 H   0  0  0  0  0  0
   -3.3296  -18.5158  -18.8301 H   0  0  0  0  0  0
   -5.0915  -18.3013  -19.1069 H   0  0  0  0  0  0
   -2.9954  -21.6152  -20.9878 H   0  0  0  0  0  0
   -2.7901  -20.4849  -19.6068 H   0  0  0  0  0  0
   -1.8869  -20.2094  -21.1349 H   0  0  0  0  0  0
   -3.0075  -16.3882  -23.2981 H   0  0  0  0  0  0
   -4.2014  -17.7313  -25.6924 H   0  0  0  0  0  0
   -3.1406  -15.5623  -26.0110 H   0  0  0  0  0  0
   -1.5998  -16.1640  -25.3107 H   0  0  0  0  0  0
   -1.1023  -17.4651  -27.1892 H   0  0  0  0  0  0
   -2.8144  -17.5261  -27.7293 H   0  0  0  0  0  0
   -1.8044  -16.0385  -29.2221 H   0  0  0  0  0  0
   -2.5901  -14.9651  -28.0150 H   0  0  0  0  0  0
   -0.4171  -14.4064  -27.0345 H   0  0  0  0  0  0
   -0.4090  -16.6450  -29.8974 H   0  0  0  0  0  0
    1.7538  -14.0326  -27.4159 H   0  0  0  0  0  0
    2.6295  -14.9097  -28.8630 H   0  0  0  0  0  0
   -3.8562  -19.7368  -26.3383 H   0  0  0  0  0  0
   -1.4691  -21.0861  -24.9902 H   0  0  0  0  0  0
   -4.0447  -22.2167  -26.2439 H   0  0  0  0  0  0
   -2.7065  -23.2451  -25.6289 H   0  0  0  0  0  0
   -3.0049  -22.2222  -23.3719 H   0  0  0  0  0  0
   -4.4026  -21.2904  -24.0080 H   0  0  0  0  0  0
   -5.5148  -23.4691  -24.6116 H   0  0  0  0  0  0
   -4.1522  -24.3385  -23.8279 H   0  0  0  0  0  0
   -6.3236  -22.6763  -22.4500 H   0  0  0  0  0  0
   -3.2185  -24.5867  -22.2822 H   0  0  0  0  0  0
   -6.4805  -22.8547  -20.2637 H   0  0  0  0  0  0
   -5.1651  -23.8300  -19.2897 H   0  0  0  0  0  0
    0.2362  -20.7476  -26.1375 H   0  0  0  0  0  0
    0.1129  -21.7454  -29.0199 H   0  0  0  0  0  0
    3.5578  -23.0419  -28.5021 H   0  0  0  0  0  0
    1.4783  -19.1726  -28.0384 H   0  0  0  0  0  0
    1.7314  -19.8837  -29.6684 H   0  0  0  0  0  0
   -0.0381  -18.0942  -29.7342 H   0  0  0  0  0  0
  1  2  2  0  0  0
  1  3  1  0  0  0
  1  4  1  0  0  0
  3 88  1  0  0  0
  3 89  1  0  0  0
  3 90  1  0  0  0
  4  5  1  0  0  0
  4 91  1  0  0  0
  5  6  1  0  0  0
  5  8  1  0  0  0
  5 92  1  0  0  0
  6  7  2  0  0  0
  6 12  1  0  0  0
  8  9  1  0  0  0
  8 93  1  0  0  0
  8 94  1  0  0  0
  9 10  2  0  0  0
  9 11  1  0  0  0
 11 95  1  0  0  0
 11 96  1  0  0  0
 12 13  1  0  0  0
 12 97  1  0  0  0
 13 14  1  0  0  0
 13 16  1  0  0  0
 13 98  1  0  0  0
 14 15  2  0  0  0
 14 17  1  0  0  0
 16 99  1  0  0  0
 16100  1  0  0  0
 16101  1  0  0  0
 17 18  1  0  0  0
 17102  1  0  0  0
 18 19  1  0  0  0
 18 21  1  0  0  0
 18103  1  0  0  0
 19 20  2  0  0  0
 19 29  1  0  0  0
 21 22  1  0  0  0
 21104  1  0  0  0
 21105  1  0  0  0
 22 23  2  0  0  0
 22 24  1  0  0  0
 23 25  1  0  0  0
 23106  1  0  0  0
 24 26  2  0  0  0
 24107  1  0  0  0
 25 27  2  0  0  0
 25108  1  0  0  0
 26 27  1  0  0  0
 26109  1  0  0  0
 27 28  1  0  0  0
 28110  1  0  0  0
 29 30  1  0  0  0
 29111  1  0  0  0
 30 31  1  0  0  0
 30 33  1  0  0  0
 30112  1  0  0  0
 31 32  2  0  0  0
 31 37  1  0  0  0
 33 34  1  0  0  0
 33113  1  0  0  0
 33114  1  0  0  0
 34 35  2  0  0  0
 34 36  1  0  0  0
 36115  1  0  0  0
 36116  1  0  0  0
 37 38  1  0  0  0
 37117  1  0  0  0
 38 39  1  0  0  0
 38 41  1  0  0  0
 38118  1  0  0  0
 39 40  2  0  0  0
 39 45  1  0  0  0
 41 42  1  0  0  0
 41119  1  0  0  0
 41120  1  0  0  0
 42 43  1  0  0  0
 42121  1  0  0  0
 42122  1  0  0  0
 43 44  1  0  0  0
 44123  1  0  0  0
 44124  1  0  0  0
 44125  1  0  0  0
 45 46  1  0  0  0
 45126  1  0  0  0
 46 47  1  0  0  0
 46 49  1  0  0  0
 46127  1  0  0  0
 47 48  2  0  0  0
 47 51  1  0  0  0
 49 50  1  0  0  0
 49128  1  0  0  0
 49129  1  0  0  0
 50130  1  0  0  0
 51 52  1  0  0  0
 51131  1  0  0  0
 52 53  1  0  0  0
 52 55  1  0  0  0
 52132  1  0  0  0
 53 54  2  0  0  0
 53 59  1  0  0  0
 55 56  1  0  0  0
 55 57  1  0  0  0
 55133  1  0  0  0
 56 58  1  0  0  0
 56134  1  0  0  0
 56135  1  0  0  0
 57136  1  0  0  0
 57137  1  0  0  0
 57138  1  0  0  0
 58139  1  0  0  0
 58140  1  0  0  0
 58141  1  0  0  0
 59 60  1  0  0  0
 59142  1  0  0  0
 60 61  1  0  0  0
 60 63  1  0  0  0
 60143  1  0  0  0
 61 62  2  0  0  0
 61 70  1  0  0  0
 63 64  1  0  0  0
 63144  1  0  0  0
 63145  1  0  0  0
 64 65  1  0  0  0
 64146  1  0  0  0
 64147  1  0  0  0
 65 66  1  0  0  0
 65148  1  0  0  0
 65149  1  0  0  0
 66 67  1  0  0  0
 66150  1  0  0  0
 67 68  2  0  0  0
 67 69  1  0  0  0
 68151  1  0  0  0
 69152  1  0  0  0
 69153  1  0  0  0
 70 71  1  0  0  0
 70154  1  0  0  0
 71 72  1  0  0  0
 71 74  1  0  0  0
 71155  1  0  0  0
 72 73  2  0  0  0
 72 81  1  0  0  0
 74 75  1  0  0  0
 74156  1  0  0  0
 74157  1  0  0  0
 75 76  1  0  0  0
 75158  1  0  0  0
 75159  1  0  0  0
 76 77  1  0  0  0
 76160  1  0  0  0
 76161  1  0  0  0
 77 78  1  0  0  0
 77162  1  0  0  0
 78 79  2  0  0  0
 78 80  1  0  0  0
 79163  1  0  0  0
 80164  1  0  0  0
 80165  1  0  0  0
 81 82  1  0  0  0
 81166  1  0  0  0
 82 83  1  0  0  0
 82 85  1  0  0  0
 82167  1  0  0  0
 83 84  1  0  0  0
 83 87  2  0  0  0
 84168  1  0  0  0
 85 86  1  0  0  0
 85169  1  0  0  0
 85170  1  0  0  0
 86171  1  0  0  0
M  END
> <s_m_source_file>
../4qxt_ligand.sdf

> <i_m_source_file_index>
1

> <s_epik_input>
Tz1DKFtDSDNdKVtOSF1bQ0BASF0oW0NIMl1DKD1PKVtOSDJdKUMoPU8pW05IXVtDQEBIXShbQ0gzXSlDKD1PKVtOSF1bQ0BASF0oW0NIMl1jMVtjSF1bY0hdYyhbT0hdKVtjSF1bY0hdMSlDKD1PKVtOSF1bQ0BASF0oW0NIMl1DKD1PKVtOSDJdKUMoPU8pW05IXVtDQEBIXShbQ0gyXVtDSDJdU1tDSDNdKUMoPU8pW05IXVtDQEBIXShbQ0gyXVtPSF0pQyg9TylbTkhdW0NAQEhdKFtDQEBIXShbQ0gzXSlbQ0gyXVtDSDNdKUMoPU8pW05IXVtDQEBIXShbQ0gyXVtDSDJdW0NIMl1bTkhdL0MoPU5cW0hdKVtOSDJdKUMoPU8pW05IXVtDQEhdKEMoPU8pW05IXVtDQEhdKEMoPU8pW09IXSlbQ0gyXVtPSF0pW0NIMl1bQ0gyXVtDSDJdW05IXS9DKD1OXFtIXSlbTkgyXQ==

> <s_epik_cmdline>
J2VwaWtfYXBwJywgJy1pbWFlJywgJ2xpZ2FuZF9wcm8ubWFlJywgJy1vbWFlJywgJ2xpZ2FuZF9wcmVwLm1hZScsICctbXMnLCAnMScsICctcGgnLCAnNycsICctcGh0JywgJzAuNScsICctbnQn

> <s_epik_pKa_notes>
Molecule size exceeds maximum supported for generating protonation states

> <s_epik_Chemistry_Notes>
This compound has an imine and may undergo hydrolysis.

$$$$
