4qy8_ligand
                    3D
 Schrodinger Suite 2020-3.
225225  0  0  1  0            999 V2000
   32.3150    9.1270   41.1860 C   0  0  0  0  0  0
   33.2970    9.7530   41.5930 O   0  0  0  0  0  0
   31.8830    9.2430   39.7610 C   0  0  0  0  0  0
   31.5910    8.3610   42.0060 N   0  0  0  0  0  0
   30.3750    7.5950   41.7270 C   0  0  2  0  0  0
   29.1100    8.4440   41.9440 C   0  0  0  0  0  0
   28.6890    8.6840   43.0710 O   0  0  0  0  0  0
   30.3550    6.3620   42.6320 C   0  0  0  0  0  0
   29.1430    5.4860   42.4100 C   0  0  0  0  0  0
   28.2870    5.7870   41.5670 O   0  0  0  0  0  0
   29.0720    4.3740   43.1530 N   0  0  0  0  0  0
   28.4990    8.8720   40.8490 N   0  0  0  0  0  0
   27.3590    9.7880   40.8770 C   0  0  2  0  0  0
   25.9920    9.0990   41.0040 C   0  0  0  0  0  0
   24.9660    9.7690   41.0890 O   0  0  0  0  0  0
   27.3790   10.6040   39.6080 C   0  0  0  0  0  0
   25.9690    7.7750   40.9910 N   0  0  0  0  0  0
   24.7050    7.0480   41.0180 C   0  0  2  0  0  0
   23.8840    7.3830   42.2470 C   0  0  0  0  0  0
   22.6910    7.6300   42.1530 O   0  0  0  0  0  0
   24.9670    5.5540   40.9960 C   0  0  0  0  0  0
   23.7250    4.6910   41.0480 C   0  0  0  0  0  0
   23.2120    4.1290   39.8950 C   0  0  0  0  0  0
   23.0680    4.4490   42.2410 C   0  0  0  0  0  0
   22.0980    3.3370   39.9260 C   0  0  0  0  0  0
   21.9400    3.6370   42.2870 C   0  0  0  0  0  0
   21.4540    3.1090   41.1200 C   0  0  0  0  0  0
   20.3450    2.2940   41.1510 O   0  0  0  0  0  0
   24.5240    7.3850   43.4060 N   0  0  0  0  0  0
   23.8010    7.4690   44.6630 C   0  0  2  0  0  0
   23.2860    8.8630   44.9760 C   0  0  0  0  0  0
   22.1980    9.0010   45.5350 O   0  0  0  0  0  0
   24.6870    6.9470   45.7860 C   0  0  0  0  0  0
   25.0780    5.5010   45.5690 C   0  0  0  0  0  0
   24.2200    4.6380   45.3930 O   0  0  0  0  0  0
   26.3770    5.2290   45.5420 N   0  0  0  0  0  0
   24.0420    9.8890   44.5970 N   0  0  0  0  0  0
   23.7530   11.2320   45.0830 C   0  0  2  0  0  0
   23.5450   12.2840   44.0070 C   0  0  0  0  0  0
   23.2870   13.4360   44.3460 O   0  0  0  0  0  0
   24.8430   11.6840   46.0480 C   0  0  0  0  0  0
   24.7840   10.9380   47.3800 C   0  0  0  0  0  0
   25.6790   11.8150   48.6690 S   0  0  0  0  0  0
   27.3550   11.6490   48.0560 C   0  0  0  0  0  0
   23.6190   11.9290   42.7250 N   0  0  0  0  0  0
   23.2680   12.9260   41.7120 C   0  0  2  0  0  0
   21.7540   13.1300   41.6220 C   0  0  0  0  0  0
   21.2950   14.0990   41.0110 O   0  0  0  0  0  0
   23.8940   12.6420   40.3430 C   0  0  0  0  0  0
   23.3910   11.4660   39.7590 O   0  0  0  0  0  0
   20.9920   12.2220   42.2270 N   0  0  0  0  0  0
   19.5790   12.4710   42.5400 C   0  0  2  0  0  0
   19.3550   12.1290   44.0110 C   0  0  0  0  0  0
   20.1240   11.3710   44.5920 O   0  0  0  0  0  0
   18.6000   11.6600   41.6540 C   0  0  2  0  0  0
   18.6960   10.1580   41.9400 C   0  0  0  0  0  0
   18.8590   11.9320   40.1890 C   0  0  0  0  0  0
   17.5680    9.3360   41.3190 C   0  0  0  0  0  0
   18.3100   12.6870   44.6190 N   0  0  0  0  0  0
   17.9230   12.3050   45.9740 C   0  0  2  0  0  0
   17.0920   11.0240   45.9160 C   0  0  0  0  0  0
   16.0620   10.9860   45.2470 O   0  0  0  0  0  0
   17.1240   13.4260   46.6430 C   0  0  0  0  0  0
   16.6090   13.0870   48.0350 C   0  0  0  0  0  0
   15.8600   14.2660   48.6490 C   0  0  0  0  0  0
   14.8230   13.8390   49.5830 N   0  0  0  0  0  0
   13.9810   14.6650   50.1940 C   0  0  0  0  0  0
   14.0470   15.9720   49.9760 N   0  0  0  0  0  0
   13.0680   14.1840   51.0270 N   0  0  0  0  0  0
   17.5580    9.9770   46.5960 N   0  0  0  0  0  0
   16.9020    8.6710   46.5700 C   0  0  2  0  0  0
   16.1880    8.3020   47.8680 C   0  0  0  0  0  0
   15.7590    7.1620   48.0320 O   0  0  0  0  0  0
   17.9320    7.5780   46.2650 C   0  0  0  0  0  0
   18.5470    7.6920   44.8980 C   0  0  0  0  0  0
   19.4950    6.5350   44.5970 C   0  0  0  0  0  0
   20.1360    6.7060   43.2940 N   0  0  0  0  0  0
   19.6680    6.2350   42.1400 C   0  0  0  0  0  0
   18.5460    5.5300   42.0920 N   0  0  0  0  0  0
   20.3320    6.4700   41.0210 N   0  0  0  0  0  0
   16.0600    9.2420   48.7940 N   0  0  0  0  0  0
   15.4300    8.9190   50.0730 C   0  0  2  0  0  0
   13.9710    8.4830   49.9130 C   0  0  0  0  0  0
   13.4820    7.6370   50.6640 O   0  0  0  0  0  0
   15.5490   10.0810   51.0590 C   0  0  0  0  0  0
   14.9800   11.2570   50.5230 O   0  0  0  0  0  0
   13.2810    9.0500   48.9290 N   0  0  0  0  0  0
   11.8890    8.6870   48.6710 C   0  0  2  0  0  0
   11.4880    9.0330   47.2380 C   0  0  0  0  0  0
   10.5510    9.7960   47.0060 O   0  0  0  0  0  0
   10.9600    9.3780   49.6760 C   0  0  0  0  0  0
   11.0060   10.9010   49.6330 C   0  0  0  0  0  0
   10.5440   11.6590   51.2020 S   0  0  0  0  0  0
   11.9920   11.2780   52.1840 C   0  0  0  0  0  0
   12.1980    8.4510   46.2780 N   0  0  0  0  0  0
   12.0280    8.8180   44.8750 C   0  0  2  0  0  0
   10.8300    8.1480   44.2020 C   0  0  0  0  0  0
   10.6130    8.3290   43.0030 O   0  0  0  0  0  0
   13.3080    8.5350   44.0910 C   0  0  0  0  0  0
   10.0620    7.3750   44.9680 N   0  0  0  0  0  0
    8.8390    6.7660   44.4410 C   0  0  2  0  0  0
    7.6640    6.9100   45.3960 C   0  0  0  0  0  0
    6.7690    6.0690   45.4200 O   0  0  0  0  0  0
    9.0700    5.2930   44.0840 C   0  0  0  0  0  0
   10.2250    5.1160   43.1140 C   0  0  0  0  0  0
   10.2680    3.7570   42.4280 C   0  0  0  0  0  0
    9.3110    2.9700   42.5410 O   0  0  0  0  0  0
   11.2820    3.4910   41.7590 O   0  0  0  0  0  0
    7.6690    7.9860   46.1770 N   0  0  0  0  0  0
    6.5840    8.2560   47.1110 C   0  0  2  0  0  0
    5.4040    8.9050   46.3960 C   0  0  0  0  0  0
    4.9580    8.4230   45.3540 O   0  0  0  0  0  0
    7.0680    9.1540   48.2500 C   0  0  0  0  0  0
    7.5250   10.4000   47.7550 O   0  0  0  0  0  0
    4.8770    9.9220   46.8480 O   0  0  0  0  0  0
   32.5767    9.9036   39.2202 H   0  0  0  0  0  0
   30.8676    9.6640   39.7188 H   0  0  0  0  0  0
   31.8866    8.2468   39.2945 H   0  0  0  0  0  0
   32.0281    8.3506   43.0154 H   0  0  0  0  0  0
   30.4272    7.3060   40.6669 H   0  0  0  0  0  0
   31.2489    5.7508   42.4387 H   0  0  0  0  0  0
   30.3490    6.6801   43.6850 H   0  0  0  0  0  0
   29.8594    4.1528   43.8886 H   0  0  0  0  0  0
   28.2263    3.6818   43.0277 H   0  0  0  0  0  0
   28.8871    8.5062   39.8869 H   0  0  0  0  0  0
   27.5186   10.3965   41.7793 H   0  0  0  0  0  0
   28.3547   11.1020   39.5076 H   0  0  0  0  0  0
   26.5828   11.3620   39.6469 H   0  0  0  0  0  0
   27.2141    9.9429   38.7444 H   0  0  0  0  0  0
   26.9202    7.2234   40.9594 H   0  0  0  0  0  0
   24.1668    7.3778   40.1171 H   0  0  0  0  0  0
   25.4988    5.2886   40.0704 H   0  0  0  0  0  0
   25.5822    5.2768   41.8647 H   0  0  0  0  0  0
   23.7050    4.3207   38.9420 H   0  0  0  0  0  0
   23.4404    4.9020   43.1598 H   0  0  0  0  0  0
   21.7212    2.8875   39.0073 H   0  0  0  0  0  0
   21.4500    3.4239   43.2370 H   0  0  0  0  0  0
   19.9500    1.8670   40.2174 H   0  0  0  0  0  0
   25.6222    7.3216   43.4063 H   0  0  0  0  0  0
   22.9162    6.8317   44.5182 H   0  0  0  0  0  0
   25.6063    7.5488   45.8376 H   0  0  0  0  0  0
   24.1477    7.0187   46.7420 H   0  0  0  0  0  0
   27.1106    6.0323   45.7046 H   0  0  0  0  0  0
   26.7198    4.2003   45.3570 H   0  0  0  0  0  0
   24.8880    9.7214   43.9142 H   0  0  0  0  0  0
   22.7803   11.0983   45.5789 H   0  0  0  0  0  0
   25.8300   11.5005   45.5983 H   0  0  0  0  0  0
   24.7279   12.7584   46.2540 H   0  0  0  0  0  0
   23.7354   10.8328   47.6952 H   0  0  0  0  0  0
   25.2332    9.9409   47.2620 H   0  0  0  0  0  0
   28.0498   12.1460   48.7490 H   0  0  0  0  0  0
   27.4303   12.1166   47.0632 H   0  0  0  0  0  0
   27.6135   10.5825   47.9796 H   0  0  0  0  0  0
   23.9328   10.9203   42.4184 H   0  0  0  0  0  0
   23.7282   13.8491   42.0943 H   0  0  0  0  0  0
   23.6804   13.4786   39.6615 H   0  0  0  0  0  0
   24.9825   12.5282   40.4540 H   0  0  0  0  0  0
   23.7551   11.1424   38.7727 H   0  0  0  0  0  0
   21.4531   11.2596   42.4937 H   0  0  0  0  0  0
   19.4190   13.5394   42.3327 H   0  0  0  0  0  0
   17.5729   11.9826   41.8796 H   0  0  0  0  0  0
   19.6425    9.7679   41.5376 H   0  0  0  0  0  0
   18.6620    9.9887   43.0264 H   0  0  0  0  0  0
   18.7869   13.0130   39.9985 H   0  0  0  0  0  0
   18.1121   11.4017   39.5800 H   0  0  0  0  0  0
   19.8664   11.5792   39.9231 H   0  0  0  0  0  0
   17.7080    8.2739   41.5687 H   0  0  0  0  0  0
   17.5822    9.4607   40.2262 H   0  0  0  0  0  0
   16.6017    9.6815   41.7150 H   0  0  0  0  0  0
   17.7338   13.4516   44.0773 H   0  0  0  0  0  0
   18.8560   12.1384   46.5324 H   0  0  0  0  0  0
   17.7589   14.3186   46.7445 H   0  0  0  0  0  0
   16.2460   13.6688   46.0265 H   0  0  0  0  0  0
   15.9229   12.2294   47.9733 H   0  0  0  0  0  0
   17.4569   12.8320   48.6876 H   0  0  0  0  0  0
   16.5683   14.9055   49.1962 H   0  0  0  0  0  0
   15.3792   14.8507   47.8509 H   0  0  0  0  0  0
   14.7019   12.7717   49.8200 H   0  0  0  0  0  0
   14.8020   16.3771   49.2862 H   0  0  0  0  0  0
   13.3467   16.6506   50.4850 H   0  0  0  0  0  0
   13.0082   13.1013   51.2119 H   0  0  0  0  0  0
   18.4708   10.1222   47.1923 H   0  0  0  0  0  0
   16.1474    8.7921   45.7789 H   0  0  0  0  0  0
   18.7506    7.6309   46.9979 H   0  0  0  0  0  0
   17.4488    6.5917   46.3255 H   0  0  0  0  0  0
   17.7525    7.6907   44.1372 H   0  0  0  0  0  0
   19.1183    8.6296   44.8299 H   0  0  0  0  0  0
   20.2759    6.4902   45.3704 H   0  0  0  0  0  0
   18.9307    5.5908   44.5906 H   0  0  0  0  0  0
   21.0821    7.2616   43.2151 H   0  0  0  0  0  0
   17.9839    5.3273   43.0155 H   0  0  0  0  0  0
   18.1773    5.1479   41.1286 H   0  0  0  0  0  0
   21.2641    7.0535   41.0468 H   0  0  0  0  0  0
   16.4256   10.2617   48.6030 H   0  0  0  0  0  0
   16.0106    8.0612   50.4434 H   0  0  0  0  0  0
   15.0227    9.8265   51.9908 H   0  0  0  0  0  0
   16.6105   10.2695   51.2772 H   0  0  0  0  0  0
   14.9844   12.1872   51.1102 H   0  0  0  0  0  0
   13.7774    9.8060   48.3028 H   0  0  0  0  0  0
   11.8407    7.5961   48.8035 H   0  0  0  0  0  0
    9.9193    9.0830   49.4762 H   0  0  0  0  0  0
   11.2365    9.0777   50.6975 H   0  0  0  0  0  0
   12.0268   11.2302   49.3887 H   0  0  0  0  0  0
   10.3089   11.2674   48.8650 H   0  0  0  0  0  0
   11.8643   11.6839   53.1984 H   0  0  0  0  0  0
   12.8803   11.7291   51.7177 H   0  0  0  0  0  0
   12.1209   10.1870   52.2391 H   0  0  0  0  0  0
   12.9269    7.6768   46.5596 H   0  0  0  0  0  0
   11.8219    9.8976   44.9192 H   0  0  0  0  0  0
   14.1585    9.0239   44.5887 H   0  0  0  0  0  0
   13.2062    8.9279   43.0686 H   0  0  0  0  0  0
   13.4811    7.4494   44.0511 H   0  0  0  0  0  0
   10.3593    7.1970   46.0120 H   0  0  0  0  0  0
    8.6141    7.3464   43.5341 H   0  0  0  0  0  0
    9.2997    4.7259   44.9981 H   0  0  0  0  0  0
    8.1631    4.8825   43.6161 H   0  0  0  0  0  0
   10.1563    5.8741   42.3199 H   0  0  0  0  0  0
   11.1771    5.2339   43.6521 H   0  0  0  0  0  0
    9.3442    1.9889   42.0447 H   0  0  0  0  0  0
    8.5190    8.6805   46.1058 H   0  0  0  0  0  0
    6.2846    7.2730   47.5036 H   0  0  0  0  0  0
    4.1063    8.9005   44.8476 H   0  0  0  0  0  0
    6.2400    9.3353   48.9511 H   0  0  0  0  0  0
    7.8957    8.6600   48.7800 H   0  0  0  0  0  0
    7.9074   11.1614   48.4507 H   0  0  0  0  0  0
  1  2  2  0  0  0
  1  3  1  0  0  0
  1  4  1  0  0  0
  3116  1  0  0  0
  3117  1  0  0  0
  3118  1  0  0  0
  4  5  1  0  0  0
  4119  1  0  0  0
  5  6  1  0  0  0
  5  8  1  0  0  0
  5120  1  0  0  0
  6  7  2  0  0  0
  6 12  1  0  0  0
  8  9  1  0  0  0
  8121  1  0  0  0
  8122  1  0  0  0
  9 10  2  0  0  0
  9 11  1  0  0  0
 11123  1  0  0  0
 11124  1  0  0  0
 12 13  1  0  0  0
 12125  1  0  0  0
 13 14  1  0  0  0
 13 16  1  0  0  0
 13126  1  0  0  0
 14 15  2  0  0  0
 14 17  1  0  0  0
 16127  1  0  0  0
 16128  1  0  0  0
 16129  1  0  0  0
 17 18  1  0  0  0
 17130  1  0  0  0
 18 19  1  0  0  0
 18 21  1  0  0  0
 18131  1  0  0  0
 19 20  2  0  0  0
 19 29  1  0  0  0
 21 22  1  0  0  0
 21132  1  0  0  0
 21133  1  0  0  0
 22 23  2  0  0  0
 22 24  1  0  0  0
 23 25  1  0  0  0
 23134  1  0  0  0
 24 26  2  0  0  0
 24135  1  0  0  0
 25 27  2  0  0  0
 25136  1  0  0  0
 26 27  1  0  0  0
 26137  1  0  0  0
 27 28  1  0  0  0
 28138  1  0  0  0
 29 30  1  0  0  0
 29139  1  0  0  0
 30 31  1  0  0  0
 30 33  1  0  0  0
 30140  1  0  0  0
 31 32  2  0  0  0
 31 37  1  0  0  0
 33 34  1  0  0  0
 33141  1  0  0  0
 33142  1  0  0  0
 34 35  2  0  0  0
 34 36  1  0  0  0
 36143  1  0  0  0
 36144  1  0  0  0
 37 38  1  0  0  0
 37145  1  0  0  0
 38 39  1  0  0  0
 38 41  1  0  0  0
 38146  1  0  0  0
 39 40  2  0  0  0
 39 45  1  0  0  0
 41 42  1  0  0  0
 41147  1  0  0  0
 41148  1  0  0  0
 42 43  1  0  0  0
 42149  1  0  0  0
 42150  1  0  0  0
 43 44  1  0  0  0
 44151  1  0  0  0
 44152  1  0  0  0
 44153  1  0  0  0
 45 46  1  0  0  0
 45154  1  0  0  0
 46 47  1  0  0  0
 46 49  1  0  0  0
 46155  1  0  0  0
 47 48  2  0  0  0
 47 51  1  0  0  0
 49 50  1  0  0  0
 49156  1  0  0  0
 49157  1  0  0  0
 50158  1  0  0  0
 51 52  1  0  0  0
 51159  1  0  0  0
 52 53  1  0  0  0
 52 55  1  0  0  0
 52160  1  0  0  0
 53 54  2  0  0  0
 53 59  1  0  0  0
 55 56  1  0  0  0
 55 57  1  0  0  0
 55161  1  0  0  0
 56 58  1  0  0  0
 56162  1  0  0  0
 56163  1  0  0  0
 57164  1  0  0  0
 57165  1  0  0  0
 57166  1  0  0  0
 58167  1  0  0  0
 58168  1  0  0  0
 58169  1  0  0  0
 59 60  1  0  0  0
 59170  1  0  0  0
 60 61  1  0  0  0
 60 63  1  0  0  0
 60171  1  0  0  0
 61 62  2  0  0  0
 61 70  1  0  0  0
 63 64  1  0  0  0
 63172  1  0  0  0
 63173  1  0  0  0
 64 65  1  0  0  0
 64174  1  0  0  0
 64175  1  0  0  0
 65 66  1  0  0  0
 65176  1  0  0  0
 65177  1  0  0  0
 66 67  1  0  0  0
 66178  1  0  0  0
 67 68  1  0  0  0
 67 69  2  0  0  0
 68179  1  0  0  0
 68180  1  0  0  0
 69181  1  0  0  0
 70 71  1  0  0  0
 70182  1  0  0  0
 71 72  1  0  0  0
 71 74  1  0  0  0
 71183  1  0  0  0
 72 73  2  0  0  0
 72 81  1  0  0  0
 74 75  1  0  0  0
 74184  1  0  0  0
 74185  1  0  0  0
 75 76  1  0  0  0
 75186  1  0  0  0
 75187  1  0  0  0
 76 77  1  0  0  0
 76188  1  0  0  0
 76189  1  0  0  0
 77 78  1  0  0  0
 77190  1  0  0  0
 78 79  1  0  0  0
 78 80  2  0  0  0
 79191  1  0  0  0
 79192  1  0  0  0
 80193  1  0  0  0
 81 82  1  0  0  0
 81194  1  0  0  0
 82 83  1  0  0  0
 82 85  1  0  0  0
 82195  1  0  0  0
 83 84  2  0  0  0
 83 87  1  0  0  0
 85 86  1  0  0  0
 85196  1  0  0  0
 85197  1  0  0  0
 86198  1  0  0  0
 87 88  1  0  0  0
 87199  1  0  0  0
 88 89  1  0  0  0
 88 91  1  0  0  0
 88200  1  0  0  0
 89 90  2  0  0  0
 89 95  1  0  0  0
 91 92  1  0  0  0
 91201  1  0  0  0
 91202  1  0  0  0
 92 93  1  0  0  0
 92203  1  0  0  0
 92204  1  0  0  0
 93 94  1  0  0  0
 94205  1  0  0  0
 94206  1  0  0  0
 94207  1  0  0  0
 95 96  1  0  0  0
 95208  1  0  0  0
 96 97  1  0  0  0
 96 99  1  0  0  0
 96209  1  0  0  0
 97 98  2  0  0  0
 97100  1  0  0  0
 99210  1  0  0  0
 99211  1  0  0  0
 99212  1  0  0  0
100101  1  0  0  0
100213  1  0  0  0
101102  1  0  0  0
101104  1  0  0  0
101214  1  0  0  0
102103  2  0  0  0
102109  1  0  0  0
104105  1  0  0  0
104215  1  0  0  0
104216  1  0  0  0
105106  1  0  0  0
105217  1  0  0  0
105218  1  0  0  0
106107  1  0  0  0
106108  2  0  0  0
107219  1  0  0  0
109110  1  0  0  0
109220  1  0  0  0
110111  1  0  0  0
110113  1  0  0  0
110221  1  0  0  0
111112  1  0  0  0
111115  2  0  0  0
112222  1  0  0  0
113114  1  0  0  0
113223  1  0  0  0
113224  1  0  0  0
114225  1  0  0  0
M  END
> <s_m_source_file>
../4qy8_ligand.sdf

> <i_m_source_file_index>
1

> <s_epik_input>
Tz1DKFtDSDNdKVtOSF1bQ0BASF0oW0NIMl1DKD1PKVtOSDJdKUMoPU8pW05IXVtDQEBIXShbQ0gzXSlDKD1PKVtOSF1bQ0BASF0oW0NIMl1jMVtjSF1bY0hdYyhbT0hdKVtjSF1bY0hdMSlDKD1PKVtOSF1bQ0BASF0oW0NIMl1DKD1PKVtOSDJdKUMoPU8pW05IXVtDQEBIXShbQ0gyXVtDSDJdU1tDSDNdKUMoPU8pW05IXVtDQEBIXShbQ0gyXVtPSF0pQyg9TylbTkhdW0NAQEhdKFtDQEBIXShbQ0gzXSlbQ0gyXVtDSDNdKUMoPU8pW05IXVtDQEBIXShbQ0gyXVtDSDJdW0NIMl1bTkhdL0MoW05IMl0pPU5cW0hdKUMoPU8pW05IXVtDQEBIXShbQ0gyXVtDSDJdW0NIMl1bTkhdL0MoW05IMl0pPU5cW0hdKUMoPU8pW05IXVtDQEBIXShbQ0gyXVtPSF0pQyg9TylbTkhdW0NAQEhdKFtDSDJdW0NIMl1TW0NIM10pQyg9TylbTkhdW0NAQEhdKFtDSDNdKUMoPU8pW05IXVtDQEBIXShbQ0gyXVtDSDJdQyg9TylbT0hdKUMoPU8pW05IXVtDQEhdKEMoPU8pW09IXSlbQ0gyXVtPSF0=

> <s_epik_cmdline>
J2VwaWtfYXBwJywgJy1pbWFlJywgJ2xpZ2FuZF9wcm8ubWFlJywgJy1vbWFlJywgJ2xpZ2FuZF9wcmVwLm1hZScsICctbXMnLCAnMScsICctcGgnLCAnNycsICctcGh0JywgJzAuNScsICctbnQn

> <s_epik_pKa_notes>
Molecule size exceeds maximum supported for generating protonation states

> <s_epik_Chemistry_Notes>
This compound has an imine and may undergo hydrolysis.

$$$$
