4qye_ligand
                    3D
 Schrodinger Suite 2020-3.
 33 35  0  0  1  0            999 V2000
    9.6940    5.8110   15.0030 O   0  0  0  0  0  0
    9.8100    6.8970   15.6050 C   0  0  0  0  0  0
   10.8540    7.5860   15.5610 O   0  5  0  0  0  0
    8.6490    7.3700   16.4170 C   0  0  0  0  0  0
    7.5700    6.5190   16.5870 C   0  0  0  0  0  0
    6.4780    6.9200   17.3350 C   0  0  0  0  0  0
    6.4830    8.1620   17.9640 C   0  0  0  0  0  0
    7.5530    9.0270   17.7850 C   0  0  0  0  0  0
    8.6400    8.6300   17.0130 C   0  0  0  0  0  0
    5.2720    8.5810   18.7080 C   0  0  0  0  0  0
    4.1330    7.8820   18.4890 N   0  0  0  0  0  0
    2.9880    8.2540   19.1040 C   0  0  0  0  0  0
    2.9910    9.3830   19.9190 C   0  0  0  0  0  0
    4.1120   10.0750   20.1120 N   0  0  0  0  0  0
    5.2470    9.7130   19.5170 C   0  0  0  0  0  0
    1.7340    7.5160   18.8270 C   0  0  0  0  0  0
    0.6080    7.6660   19.6270 C   0  0  0  0  0  0
   -0.5580    6.9830   19.3080 C   0  0  0  0  0  0
   -1.6330    7.1340   20.1340 O   0  0  0  0  0  0
   -0.6290    6.1660   18.1750 C   0  0  0  0  0  0
    0.4870    6.0380   17.3490 C   0  0  0  0  0  0
    1.6600    6.7220   17.6730 C   0  0  0  0  0  0
    7.5813    5.5296   16.1297 H   0  0  0  0  0  0
    5.6133    6.2635   17.4321 H   0  0  0  0  0  0
    7.5419   10.0139   18.2476 H   0  0  0  0  0  0
    9.4849    9.3044   16.8741 H   0  0  0  0  0  0
    2.0682    9.7029   20.4029 H   0  0  0  0  0  0
    6.1530   10.3011   19.6631 H   0  0  0  0  0  0
    0.6398    8.3167   20.5009 H   0  0  0  0  0  0
   -1.5588    7.7808   21.0207 H   0  0  0  0  0  0
   -1.5502    5.6331   17.9394 H   0  0  0  0  0  0
    0.4440    5.4101   16.4591 H   0  0  0  0  0  0
    2.5294    6.6380   17.0210 H   0  0  0  0  0  0
  1  2  2  0  0  0
  2  3  1  0  0  0
  2  4  1  0  0  0
  4  5  2  0  0  0
  4  9  1  0  0  0
  5  6  1  0  0  0
  5 23  1  0  0  0
  6  7  2  0  0  0
  6 24  1  0  0  0
  7  8  1  0  0  0
  7 10  1  0  0  0
  8  9  2  0  0  0
  8 25  1  0  0  0
  9 26  1  0  0  0
 10 11  2  0  0  0
 10 15  1  0  0  0
 11 12  1  0  0  0
 12 13  2  0  0  0
 12 16  1  0  0  0
 13 14  1  0  0  0
 13 27  1  0  0  0
 14 15  2  0  0  0
 15 28  1  0  0  0
 16 17  2  0  0  0
 16 22  1  0  0  0
 17 18  1  0  0  0
 17 29  1  0  0  0
 18 19  1  0  0  0
 18 20  2  0  0  0
 19 30  1  0  0  0
 20 21  1  0  0  0
 20 31  1  0  0  0
 21 22  2  0  0  0
 21 32  1  0  0  0
 22 33  1  0  0  0
M  CHG  1   3  -1
M  END
> <s_m_source_file>
../4qye_ligand.sdf

> <i_m_source_file_index>
1

> <s_epik_input>
Tz1DKFtPSF0pYzFbY0hdW2NIXWMoW2NIXVtjSF0xKS1jMm5jKFtjSF1uW2NIXTIpLWMzW2NIXWMoW09IXSlbY0hdW2NIXVtjSF0z

> <s_epik_cmdline>
J2VwaWtfYXBwJywgJy1pbWFlJywgJ2xpZ2FuZF9wcm8ubWFlJywgJy1vbWFlJywgJ2xpZ2FuZF9wcmVwLm1hZScsICctbXMnLCAnMScsICctcGgnLCAnNycsICctcGh0JywgJzAuNScsICctbnQn

> <r_lp_tautomer_probability>
1

> <r_epik_Ionization_Penalty>
  0.0023

> <r_epik_Ionization_Penalty_Charging>
  0.0007

> <r_epik_Ionization_Penalty_Neutral>
  0.0016

> <r_epik_State_Penalty>
 -0.0000

> <r_epik_Charging_Adjusted_Penalty>
0.000679874453596237

> <i_epik_Tot_Q>
-1

> <i_epik_Tot_abs_Q>
1

$$$$
