4qyg_ligand
                    3D
 Schrodinger Suite 2020-3.
 49 53  0  0  1  0            999 V2000
    7.4340    5.0830   14.7350 O   0  5  0  0  0  0
    8.1590    5.9650   15.2480 C   0  0  0  0  0  0
    9.3600    6.1040   14.9280 O   0  0  0  0  0  0
    7.5880    6.8690   16.2920 C   0  0  0  0  0  0
    8.4080    7.8090   16.8210 N   0  0  0  0  0  0
    7.9750    8.6750   17.7580 C   0  0  0  0  0  0
    6.6640    8.6120   18.2060 C   0  0  0  0  0  0
    5.9400    9.3310   19.1150 N   0  0  0  0  0  0
    4.6780    8.8420   19.1670 C   0  0  0  0  0  0
    6.2500    6.7610   16.7130 C   0  0  0  0  0  0
    5.8100    7.6570   17.6870 C   0  0  0  0  0  0
    4.5760    7.7990   18.2850 C   0  0  0  0  0  0
    3.3610    7.1220   18.1270 C   0  0  0  0  0  0
    2.2680    7.5570   18.9130 C   0  0  3  0  0  0
    2.4640    8.6420   19.7850 C   0  0  0  0  0  0
    3.6460    9.2660   19.9210 N   0  0  0  0  0  0
    0.9020    6.9300   18.8240 C   0  0  0  0  0  0
    0.5100    6.2380   17.6750 C   0  0  0  0  0  0
   -0.7580    5.6740   17.5550 C   0  0  0  0  0  0
   -1.6920    5.7910   18.5910 C   0  0  0  0  0  0
   -1.3120    6.5040   19.7280 C   0  0  0  0  0  0
   -0.0420    7.0680   19.8480 C   0  0  0  0  0  0
   -2.9370    5.2230   18.4740 N   0  0  0  0  0  0
   -4.0040    5.7430   19.3380 C   0  0  0  0  0  0
   -5.3680    5.2720   18.8370 C   0  0  0  0  0  0
   -5.3620    3.8170   18.6230 N   0  3  0  0  0  0
   -6.6990    3.3320   18.2310 C   0  0  0  0  0  0
   -4.3730    3.5060   17.5790 C   0  0  0  0  0  0
   -2.9840    3.8050   18.1140 C   0  0  0  0  0  0
    8.6546    9.4245   18.1636 H   0  0  0  0  0  0
    5.5835    6.0068   16.2945 H   0  0  0  0  0  0
    3.2847    6.2882   17.4136 H   0  0  0  0  0  0
    1.5951    8.9760   20.3711 H   0  0  0  0  0  0
    1.2155    6.1368   16.8503 H   0  0  0  0  0  0
   -1.0255    5.1363   16.6454 H   0  0  0  0  0  0
   -2.0255    6.6234   20.5433 H   0  0  0  0  0  0
    0.2183    7.6226   20.7496 H   0  0  0  0  0  0
   -3.8536    5.3798   20.3653 H   0  0  0  0  0  0
   -3.9787    6.8427   19.3305 H   0  0  0  0  0  0
   -6.1382    5.5210   19.5819 H   0  0  0  0  0  0
   -5.6022    5.7727   17.8860 H   0  0  0  0  0  0
   -5.0902    3.3111   19.5612 H   0  0  0  0  0  0
   -7.4233    3.5735   19.0229 H   0  0  0  0  0  0
   -6.6654    2.2423   18.0847 H   0  0  0  0  0  0
   -7.0051    3.8186   17.2932 H   0  0  0  0  0  0
   -4.4469    2.4422   17.3092 H   0  0  0  0  0  0
   -4.5707    4.1241   16.6908 H   0  0  0  0  0  0
   -2.2262    3.5968   17.3443 H   0  0  0  0  0  0
   -2.7791    3.1935   19.0051 H   0  0  0  0  0  0
  1  2  1  0  0  0
  2  3  2  0  0  0
  2  4  1  0  0  0
  4  5  2  0  0  0
  4 10  1  0  0  0
  5  6  1  0  0  0
  6  7  2  0  0  0
  6 30  1  0  0  0
  7  8  1  0  0  0
  7 11  1  0  0  0
  8  9  2  0  0  0
  9 12  1  0  0  0
  9 16  1  0  0  0
 10 11  2  0  0  0
 10 31  1  0  0  0
 11 12  1  0  0  0
 12 13  2  0  0  0
 13 14  1  0  0  0
 13 32  1  0  0  0
 14 15  1  0  0  0
 14 17  1  0  0  0
 15 16  2  0  0  0
 15 33  1  0  0  0
 17 18  2  0  0  0
 17 22  1  0  0  0
 18 19  1  0  0  0
 18 34  1  0  0  0
 19 20  2  0  0  0
 19 35  1  0  0  0
 20 21  1  0  0  0
 20 23  1  0  0  0
 21 22  2  0  0  0
 21 36  1  0  0  0
 22 37  1  0  0  0
 23 24  1  0  0  0
 23 29  1  0  0  0
 24 25  1  0  0  0
 24 38  1  0  0  0
 24 39  1  0  0  0
 25 26  1  0  0  0
 25 40  1  0  0  0
 25 41  1  0  0  0
 26 27  1  0  0  0
 26 28  1  0  0  0
 26 42  1  0  0  0
 27 43  1  0  0  0
 27 44  1  0  0  0
 27 45  1  0  0  0
 28 29  1  0  0  0
 28 46  1  0  0  0
 28 47  1  0  0  0
 29 48  1  0  0  0
 29 49  1  0  0  0
M  CHG  2   1  -1  26   1
M  END
> <s_m_source_file>
../4qyg_ligand.sdf

> <i_m_source_file_index>
1

> <s_epik_input>
W09IXUMoPU8pYyhuW2NIXTEpW2NIXWMoYzEyKUM9M0MoPU4yKU49W0NIXVtDSF0oW0NIXTMpYzRbY0hdW2NIXWMoW2NIXVtjSF00KU41W0NIMl1bQ0gyXVtOSCtdKFtDSDNdKVtDSDJdW0NIMl01

> <s_epik_cmdline>
J2VwaWtfYXBwJywgJy1pbWFlJywgJ2xpZ2FuZF9wcm8ubWFlJywgJy1vbWFlJywgJ2xpZ2FuZF9wcmVwLm1hZScsICctbXMnLCAnMScsICctcGgnLCAnNycsICctcGh0JywgJzAuNScsICctbnQn

> <r_lp_tautomer_probability>
1

> <r_epik_Ionization_Penalty>
  0.1563

> <r_epik_Ionization_Penalty_Charging>
  0.0648

> <r_epik_Ionization_Penalty_Neutral>
  0.0915

> <r_epik_State_Penalty>
 -0.0000

> <r_epik_Charging_Adjusted_Penalty>
0.0647926404096401

> <i_epik_Tot_Q>
0

> <i_epik_Tot_abs_Q>
2

> <s_epik_Chemistry_Notes>
This compound has an imine and may undergo hydrolysis.

$$$$
