4qyo_ligand
                    3D
 Schrodinger Suite 2020-3.
161161  0  0  1  0            999 V2000
   29.8300    6.2230   41.7540 C   0  0  0  0  0  0
   28.6420    5.8980   41.5600 O   0  0  0  0  0  0
   30.9220    5.8260   40.7960 C   0  0  0  0  0  0
   30.1980    7.1190   42.6820 N   0  0  0  0  0  0
   29.2710    7.5640   43.7280 C   0  0  2  0  0  0
   28.2350    8.5610   43.2180 C   0  0  0  0  0  0
   27.2550    8.9110   43.9380 O   0  0  0  0  0  0
   30.0060    8.1540   44.9290 C   0  0  0  0  0  0
   29.1300    8.2250   46.1710 C   0  0  0  0  0  0
   28.3220    7.3360   46.4370 O   0  0  0  0  0  0
   29.3020    9.2770   46.9460 N   0  0  0  0  0  0
   28.3800    8.9910   41.9650 N   0  0  0  0  0  0
   27.3520    9.8040   41.3610 C   0  0  2  0  0  0
   26.0350    9.0500   41.3160 C   0  0  0  0  0  0
   25.0050    9.6760   41.3050 O   0  0  0  0  0  0
   27.7360   10.2830   39.9600 C   0  0  0  0  0  0
   26.0520    7.7250   41.2670 N   0  0  0  0  0  0
   24.8050    6.9770   41.2550 C   0  0  2  0  0  0
   24.0070    7.2930   42.5160 C   0  0  0  0  0  0
   22.7900    7.5080   42.4660 O   0  0  0  0  0  0
   25.0820    5.4720   41.2020 C   0  0  0  0  0  0
   23.8470    4.5820   41.2620 C   0  0  0  0  0  0
   23.3570    3.9950   40.1190 C   0  0  0  0  0  0
   23.1970    4.3410   42.4570 C   0  0  0  0  0  0
   22.2510    3.1440   40.1710 C   0  0  0  0  0  0
   22.0930    3.5080   42.5210 C   0  0  0  0  0  0
   21.6210    2.9180   41.3800 C   0  0  0  0  0  0
   20.5170    2.0840   41.4780 O   0  0  0  0  0  0
   24.6830    7.2700   43.6560 N   0  0  0  0  0  0
   24.0120    7.4010   44.9410 C   0  0  2  0  0  0
   23.5990    8.8200   45.2680 C   0  0  0  0  0  0
   22.5750    9.0240   45.9400 O   0  0  0  0  0  0
   24.9130    6.8480   46.0440 C   0  0  0  0  0  0
   25.2410    5.4050   45.8310 C   0  0  0  0  0  0
   24.3520    4.5730   45.6820 O   0  0  0  0  0  0
   26.5370    5.0810   45.7850 N   0  0  0  0  0  0
   24.3740    9.8000   44.8060 N   0  0  0  0  0  0
   24.2290   11.1640   45.2980 C   0  0  2  0  0  0
   23.9310   12.2210   44.2520 C   0  0  0  0  0  0
   23.6840   13.3600   44.6270 O   0  0  0  0  0  0
   25.4720   11.5560   46.0820 C   0  0  0  0  0  0
   25.6710   10.7250   47.3290 C   0  0  0  0  0  0
   24.3630   11.0370   48.5300 S   0  0  0  0  0  0
   24.8520   12.6660   49.0880 C   0  0  0  0  0  0
   23.9220   11.8880   42.9640 N   0  0  0  0  0  0
   23.5190   12.8830   41.9610 C   0  0  2  0  0  0
   22.0080   13.0850   41.9190 C   0  0  0  0  0  0
   21.5310   14.0610   41.3520 O   0  0  0  0  0  0
   24.1020   12.6250   40.5580 C   0  0  0  0  0  0
   23.5620   11.4750   39.9260 O   0  0  0  0  0  0
   21.2600   12.1990   42.5650 N   0  0  0  0  0  0
   19.8550   12.4280   42.8930 C   0  0  2  0  0  0
   19.6810   12.0780   44.3660 C   0  0  0  0  0  0
   20.4210   11.2620   44.9050 O   0  0  0  0  0  0
   18.8550   11.6080   42.0260 C   0  0  2  0  0  0
   18.9590   10.1000   42.3130 C   0  0  0  0  0  0
   19.0560   11.9140   40.5480 C   0  0  0  0  0  0
   17.8190    9.2950   41.7320 C   0  0  0  0  0  0
   18.6820   12.6810   45.0180 N   0  0  0  0  0  0
   18.2980   12.2600   46.3530 C   0  0  2  0  0  0
   17.4470   10.9960   46.2860 C   0  0  0  0  0  0
   16.4040   10.9470   45.6510 O   0  0  0  0  0  0
   17.5180   13.3330   47.1110 C   0  0  0  0  0  0
   17.1470   12.8710   48.5120 C   0  0  0  0  0  0
   16.4660   13.9480   49.3220 C   0  0  0  0  0  0
   15.1790   14.2550   48.7290 N   0  0  0  0  0  0
   14.1380   13.4280   48.7430 C   0  0  0  0  0  0
   14.2270   12.2490   49.3480 N   0  0  0  0  0  0
   13.0020   13.7850   48.1610 N   0  0  0  0  0  0
   17.9260    9.9670   46.9520 N   0  0  0  0  0  0
   17.2420    8.6810   47.0060 C   0  0  2  0  0  0
   16.5510    8.5060   48.3570 C   0  0  0  0  0  0
   15.3440    8.2300   48.4200 O   0  0  0  0  0  0
   18.2340    7.5500   46.7090 C   0  0  0  0  0  0
   18.7670    7.6150   45.2900 C   0  0  0  0  0  0
   19.6530    6.4210   44.9280 C   0  0  0  0  0  0
   20.2710    6.5700   43.6100 N   0  0  0  0  0  0
   19.7780    6.1170   42.4650 C   0  0  0  0  0  0
   18.6470    5.4350   42.4470 N   0  0  0  0  0  0
   20.4230    6.3370   41.3300 N   0  0  0  0  0  0
   17.2820    8.7180   49.4340 N   0  0  0  0  0  0
   30.5295    5.0926   40.0762 H   0  0  0  0  0  0
   31.7567    5.3795   41.3562 H   0  0  0  0  0  0
   31.2773    6.7160   40.2559 H   0  0  0  0  0  0
   31.2212    7.5213   42.6464 H   0  0  0  0  0  0
   28.7609    6.6334   44.0173 H   0  0  0  0  0  0
   30.8803    7.5301   45.1665 H   0  0  0  0  0  0
   30.3382    9.1751   44.6902 H   0  0  0  0  0  0
   30.0356   10.0490   46.6706 H   0  0  0  0  0  0
   28.7119    9.3831   47.8683 H   0  0  0  0  0  0
   29.2808    8.7275   41.3913 H   0  0  0  0  0  0
   27.2762   10.6719   42.0326 H   0  0  0  0  0  0
   28.6909   10.8270   40.0074 H   0  0  0  0  0  0
   26.9523   10.9510   39.5733 H   0  0  0  0  0  0
   27.8410    9.4155   39.2919 H   0  0  0  0  0  0
   27.0136    7.1917   41.2354 H   0  0  0  0  0  0
   24.2678    7.3033   40.3523 H   0  0  0  0  0  0
   25.5987    5.2272   40.2623 H   0  0  0  0  0  0
   25.7157    5.1856   42.0543 H   0  0  0  0  0  0
   23.8374    4.1963   39.1615 H   0  0  0  0  0  0
   23.5607    4.8163   43.3680 H   0  0  0  0  0  0
   21.8871    2.6612   39.2640 H   0  0  0  0  0  0
   21.6018    3.3229   43.4763 H   0  0  0  0  0  0
   20.1150    1.5957   40.5780 H   0  0  0  0  0  0
   25.7755    7.1486   43.6159 H   0  0  0  0  0  0
   23.0882    6.8152   44.8254 H   0  0  0  0  0  0
   25.8558    7.4142   46.0656 H   0  0  0  0  0  0
   24.4052    6.9443   47.0150 H   0  0  0  0  0  0
   27.3034    5.8578   45.9237 H   0  0  0  0  0  0
   26.8371    4.0376   45.6085 H   0  0  0  0  0  0
   25.1314    9.5682   44.0427 H   0  0  0  0  0  0
   23.3262   11.0936   45.9225 H   0  0  0  0  0  0
   26.3616   11.4253   45.4483 H   0  0  0  0  0  0
   25.3936   12.6087   46.3913 H   0  0  0  0  0  0
   25.6588    9.6575   47.0640 H   0  0  0  0  0  0
   26.6383   10.9779   47.7877 H   0  0  0  0  0  0
   24.1411   13.0219   49.8482 H   0  0  0  0  0  0
   24.8546   13.3603   48.2348 H   0  0  0  0  0  0
   25.8608   12.6168   49.5238 H   0  0  0  0  0  0
   24.2136   10.8755   42.6480 H   0  0  0  0  0  0
   23.9791   13.8040   42.3483 H   0  0  0  0  0  0
   23.8915   13.4879   39.9091 H   0  0  0  0  0  0
   25.1898   12.4800   40.6339 H   0  0  0  0  0  0
   23.9023   11.1896   38.9196 H   0  0  0  0  0  0
   21.7460   11.2559   42.8556 H   0  0  0  0  0  0
   19.6791   13.4930   42.6814 H   0  0  0  0  0  0
   17.8281   11.9086   42.2810 H   0  0  0  0  0  0
   19.8919    9.7081   41.8816 H   0  0  0  0  0  0
   18.9593    9.9328   43.4002 H   0  0  0  0  0  0
   18.9746   12.9986   40.3838 H   0  0  0  0  0  0
   18.2861   11.3950   39.9581 H   0  0  0  0  0  0
   20.0525   11.5694   40.2344 H   0  0  0  0  0  0
   17.9596    8.2316   41.9757 H   0  0  0  0  0  0
   17.8003    9.4215   40.6395 H   0  0  0  0  0  0
   16.8676    9.6462   42.1581 H   0  0  0  0  0  0
   18.1482   13.5083   44.5273 H   0  0  0  0  0  0
   19.2625   12.0821   46.8511 H   0  0  0  0  0  0
   18.1324   14.2414   47.1963 H   0  0  0  0  0  0
   16.5916   13.5668   46.5659 H   0  0  0  0  0  0
   16.4593   12.0150   48.4457 H   0  0  0  0  0  0
   18.0569   12.5694   49.0516 H   0  0  0  0  0  0
   16.3204   13.5943   50.3533 H   0  0  0  0  0  0
   17.0922   14.8523   49.3295 H   0  0  0  0  0  0
   15.0203   15.2220   48.2293 H   0  0  0  0  0  0
   15.1680   11.9489   49.8322 H   0  0  0  0  0  0
   13.3597   11.5726   49.3649 H   0  0  0  0  0  0
   12.9242   14.7606   47.6589 H   0  0  0  0  0  0
   18.8806   10.1049   47.4810 H   0  0  0  0  0  0
   16.4702    8.6967   46.2224 H   0  0  0  0  0  0
   19.0879    7.6207   47.3988 H   0  0  0  0  0  0
   17.7341    6.5793   46.8426 H   0  0  0  0  0  0
   17.9249    7.6324   44.5825 H   0  0  0  0  0  0
   19.3691    8.5272   45.1659 H   0  0  0  0  0  0
   20.4566    6.3216   45.6726 H   0  0  0  0  0  0
   19.0462    5.5036   44.9188 H   0  0  0  0  0  0
   21.2310    7.0976   43.5091 H   0  0  0  0  0  0
   18.1033    5.2467   43.3845 H   0  0  0  0  0  0
   21.3657    6.9038   41.3341 H   0  0  0  0  0  0
   20.0162    5.9530   40.3829 H   0  0  0  0  0  0
   18.3503    8.9605   49.3346 H   0  0  0  0  0  0
   16.8234    8.6523   50.4317 H   0  0  0  0  0  0
  1  2  2  0  0  0
  1  3  1  0  0  0
  1  4  1  0  0  0
  3 82  1  0  0  0
  3 83  1  0  0  0
  3 84  1  0  0  0
  4  5  1  0  0  0
  4 85  1  0  0  0
  5  6  1  0  0  0
  5  8  1  0  0  0
  5 86  1  0  0  0
  6  7  2  0  0  0
  6 12  1  0  0  0
  8  9  1  0  0  0
  8 87  1  0  0  0
  8 88  1  0  0  0
  9 10  2  0  0  0
  9 11  1  0  0  0
 11 89  1  0  0  0
 11 90  1  0  0  0
 12 13  1  0  0  0
 12 91  1  0  0  0
 13 14  1  0  0  0
 13 16  1  0  0  0
 13 92  1  0  0  0
 14 15  2  0  0  0
 14 17  1  0  0  0
 16 93  1  0  0  0
 16 94  1  0  0  0
 16 95  1  0  0  0
 17 18  1  0  0  0
 17 96  1  0  0  0
 18 19  1  0  0  0
 18 21  1  0  0  0
 18 97  1  0  0  0
 19 20  2  0  0  0
 19 29  1  0  0  0
 21 22  1  0  0  0
 21 98  1  0  0  0
 21 99  1  0  0  0
 22 23  2  0  0  0
 22 24  1  0  0  0
 23 25  1  0  0  0
 23100  1  0  0  0
 24 26  2  0  0  0
 24101  1  0  0  0
 25 27  2  0  0  0
 25102  1  0  0  0
 26 27  1  0  0  0
 26103  1  0  0  0
 27 28  1  0  0  0
 28104  1  0  0  0
 29 30  1  0  0  0
 29105  1  0  0  0
 30 31  1  0  0  0
 30 33  1  0  0  0
 30106  1  0  0  0
 31 32  2  0  0  0
 31 37  1  0  0  0
 33 34  1  0  0  0
 33107  1  0  0  0
 33108  1  0  0  0
 34 35  2  0  0  0
 34 36  1  0  0  0
 36109  1  0  0  0
 36110  1  0  0  0
 37 38  1  0  0  0
 37111  1  0  0  0
 38 39  1  0  0  0
 38 41  1  0  0  0
 38112  1  0  0  0
 39 40  2  0  0  0
 39 45  1  0  0  0
 41 42  1  0  0  0
 41113  1  0  0  0
 41114  1  0  0  0
 42 43  1  0  0  0
 42115  1  0  0  0
 42116  1  0  0  0
 43 44  1  0  0  0
 44117  1  0  0  0
 44118  1  0  0  0
 44119  1  0  0  0
 45 46  1  0  0  0
 45120  1  0  0  0
 46 47  1  0  0  0
 46 49  1  0  0  0
 46121  1  0  0  0
 47 48  2  0  0  0
 47 51  1  0  0  0
 49 50  1  0  0  0
 49122  1  0  0  0
 49123  1  0  0  0
 50124  1  0  0  0
 51 52  1  0  0  0
 51125  1  0  0  0
 52 53  1  0  0  0
 52 55  1  0  0  0
 52126  1  0  0  0
 53 54  2  0  0  0
 53 59  1  0  0  0
 55 56  1  0  0  0
 55 57  1  0  0  0
 55127  1  0  0  0
 56 58  1  0  0  0
 56128  1  0  0  0
 56129  1  0  0  0
 57130  1  0  0  0
 57131  1  0  0  0
 57132  1  0  0  0
 58133  1  0  0  0
 58134  1  0  0  0
 58135  1  0  0  0
 59 60  1  0  0  0
 59136  1  0  0  0
 60 61  1  0  0  0
 60 63  1  0  0  0
 60137  1  0  0  0
 61 62  2  0  0  0
 61 70  1  0  0  0
 63 64  1  0  0  0
 63138  1  0  0  0
 63139  1  0  0  0
 64 65  1  0  0  0
 64140  1  0  0  0
 64141  1  0  0  0
 65 66  1  0  0  0
 65142  1  0  0  0
 65143  1  0  0  0
 66 67  1  0  0  0
 66144  1  0  0  0
 67 68  1  0  0  0
 67 69  2  0  0  0
 68145  1  0  0  0
 68146  1  0  0  0
 69147  1  0  0  0
 70 71  1  0  0  0
 70148  1  0  0  0
 71 72  1  0  0  0
 71 74  1  0  0  0
 71149  1  0  0  0
 72 73  2  0  0  0
 72 81  1  0  0  0
 74 75  1  0  0  0
 74150  1  0  0  0
 74151  1  0  0  0
 75 76  1  0  0  0
 75152  1  0  0  0
 75153  1  0  0  0
 76 77  1  0  0  0
 76154  1  0  0  0
 76155  1  0  0  0
 77 78  1  0  0  0
 77156  1  0  0  0
 78 79  2  0  0  0
 78 80  1  0  0  0
 79157  1  0  0  0
 80158  1  0  0  0
 80159  1  0  0  0
 81160  1  0  0  0
 81161  1  0  0  0
M  END
> <s_m_source_file>
../4qyo_ligand.sdf

> <i_m_source_file_index>
1

> <s_epik_input>
Tz1DKFtDSDNdKVtOSF1bQ0BASF0oW0NIMl1DKD1PKVtOSDJdKUMoPU8pW05IXVtDQEBIXShbQ0gzXSlDKD1PKVtOSF1bQ0BASF0oW0NIMl1jMVtjSF1bY0hdYyhbT0hdKVtjSF1bY0hdMSlDKD1PKVtOSF1bQ0BASF0oW0NIMl1DKD1PKVtOSDJdKUMoPU8pW05IXVtDQEBIXShbQ0gyXVtDSDJdU1tDSDNdKUMoPU8pW05IXVtDQEBIXShbQ0gyXVtPSF0pQyg9TylbTkhdW0NAQEhdKFtDQEBIXShbQ0gzXSlbQ0gyXVtDSDNdKUMoPU8pW05IXVtDQEBIXShbQ0gyXVtDSDJdW0NIMl1bTkhdL0MoW05IMl0pPU5cW0hdKUMoPU8pW05IXVtDQEhdKEMoPU8pW05IMl0pW0NIMl1bQ0gyXVtDSDJdW05IXS9DKD1OXFtIXSlbTkgyXQ==

> <s_epik_cmdline>
J2VwaWtfYXBwJywgJy1pbWFlJywgJ2xpZ2FuZF9wcm8ubWFlJywgJy1vbWFlJywgJ2xpZ2FuZF9wcmVwLm1hZScsICctbXMnLCAnMScsICctcGgnLCAnNycsICctcGh0JywgJzAuNScsICctbnQn

> <s_epik_pKa_notes>
Molecule size exceeds maximum supported for generating protonation states

> <s_epik_Chemistry_Notes>
This compound has an imine and may undergo hydrolysis.

$$$$
