4qyy_ligand
                    3D
 Schrodinger Suite 2020-3.
 64 67  0  0  1  0            999 V2000
   49.2160   21.7580    8.6400 N   0  0  0  0  0  0
   43.2270   25.1880    8.4880 C   0  0  0  0  0  0
   49.0290   13.7500    9.2040 N   0  0  0  0  0  0
   45.0680   24.3650    9.8290 C   0  0  0  0  0  0
   45.9080   24.3380    8.7080 C   0  0  0  0  0  0
   45.3910   24.8170    7.4930 C   0  0  0  0  0  0
   44.0690   25.2100    7.3840 C   0  0  0  0  0  0
   49.0980   22.7110    7.5450 C   0  0  0  0  0  0
   48.5630   15.8860   10.1890 C   0  0  2  0  0  0
   49.1550   17.2660   10.5240 C   0  0  0  0  0  0
   49.5300   14.9680    9.4880 C   0  0  0  0  0  0
   50.9240   12.6760    8.0160 C   0  0  0  0  0  0
   51.4950   11.5210    7.5020 C   0  0  0  0  0  0
   48.7190    8.7670    8.2980 Cl  0  0  0  0  0  0
   49.5850   10.2680    8.2140 C   0  0  0  0  0  0
   50.8340   10.2990    7.6060 C   0  0  0  0  0  0
   51.3660    9.1360    7.1560 O   0  0  0  0  0  0
   49.0000   11.4130    8.7180 C   0  0  0  0  0  0
   49.6770   12.6290    8.6270 C   0  0  0  0  0  0
   50.6760   15.3220    9.2120 O   0  0  0  0  0  0
   47.4230   16.2770    9.2100 C   0  0  0  0  0  0
   47.4210   17.7860    9.0610 C   0  0  0  0  0  0
   48.8340   18.1480    9.3430 N   0  3  1  0  0  0
   49.1300   19.5660    9.7150 C   0  0  0  0  0  0
   49.1650   20.4250    8.4570 C   0  0  0  0  0  0
   49.0960   19.9210    7.3390 O   0  0  0  0  0  0
   49.0340   22.5060    9.8800 C   0  0  0  0  0  0
   47.5990   22.9770    9.9550 C   0  0  0  0  0  0
   47.6830   23.2080    7.4870 C   0  0  0  0  0  0
   47.2330   23.7750    8.7720 N   0  0  0  0  0  0
   43.7550   24.7920    9.7190 C   0  0  0  0  0  0
   41.7850   25.5490    8.3460 C   0  0  0  0  0  0
   41.3160   25.8180    7.2380 O   0  0  0  0  0  0
   40.9060   25.5470    9.5510 C   0  0  0  0  0  0
   47.9754   13.5236    9.4245 H   0  0  0  0  0  0
   45.4519   24.0465   10.7982 H   0  0  0  0  0  0
   46.0424   24.8801    6.6213 H   0  0  0  0  0  0
   43.6836   25.5410    6.4196 H   0  0  0  0  0  0
   49.7826   23.5545    7.7177 H   0  0  0  0  0  0
   49.3582   22.2155    6.5980 H   0  0  0  0  0  0
   48.2831   15.3163   11.0874 H   0  0  0  0  0  0
   48.6929   17.6492   11.4458 H   0  0  0  0  0  0
   50.2414   17.1734   10.6695 H   0  0  0  0  0  0
   51.4558   13.6244    7.9402 H   0  0  0  0  0  0
   52.4680   11.5699    7.0131 H   0  0  0  0  0  0
   52.3533    9.1341    6.6711 H   0  0  0  0  0  0
   48.0157   11.3667    9.1839 H   0  0  0  0  0  0
   47.5989   15.8016    8.2338 H   0  0  0  0  0  0
   46.4587   15.9364    9.6152 H   0  0  0  0  0  0
   47.1106   18.0532    8.0401 H   0  0  0  0  0  0
   46.7184   18.2250    9.7846 H   0  0  0  0  0  0
   49.4140   18.0212    8.4169 H   0  0  0  0  0  0
   48.3468   19.9387   10.3916 H   0  0  0  0  0  0
   50.1057   19.6165   10.2205 H   0  0  0  0  0  0
   49.2591   21.8547   10.7374 H   0  0  0  0  0  0
   49.7126   23.3717    9.8890 H   0  0  0  0  0  0
   46.9295   22.1059   10.0093 H   0  0  0  0  0  0
   47.4638   23.5997   10.8516 H   0  0  0  0  0  0
   47.6016   23.9941    6.7219 H   0  0  0  0  0  0
   47.0121   22.3751    7.2298 H   0  0  0  0  0  0
   43.1237   24.8194   10.6072 H   0  0  0  0  0  0
   41.5011   25.2856   10.4385 H   0  0  0  0  0  0
   40.1025   24.8077    9.4175 H   0  0  0  0  0  0
   40.4662   26.5462    9.6857 H   0  0  0  0  0  0
  1  8  1  0  0  0
  1 25  1  0  0  0
  1 27  1  0  0  0
  2  7  2  0  0  0
  2 31  1  0  0  0
  2 32  1  0  0  0
  3 11  1  0  0  0
  3 19  1  0  0  0
  3 35  1  0  0  0
  4  5  1  0  0  0
  4 31  2  0  0  0
  4 36  1  0  0  0
  5  6  2  0  0  0
  5 30  1  0  0  0
  6  7  1  0  0  0
  6 37  1  0  0  0
  7 38  1  0  0  0
  8 29  1  0  0  0
  8 39  1  0  0  0
  8 40  1  0  0  0
  9 10  1  0  0  0
  9 11  1  0  0  0
  9 21  1  0  0  0
  9 41  1  0  0  0
 10 23  1  0  0  0
 10 42  1  0  0  0
 10 43  1  0  0  0
 11 20  2  0  0  0
 12 13  2  0  0  0
 12 19  1  0  0  0
 12 44  1  0  0  0
 13 16  1  0  0  0
 13 45  1  0  0  0
 14 15  1  0  0  0
 15 16  2  0  0  0
 15 18  1  0  0  0
 16 17  1  0  0  0
 17 46  1  0  0  0
 18 19  2  0  0  0
 18 47  1  0  0  0
 21 22  1  0  0  0
 21 48  1  0  0  0
 21 49  1  0  0  0
 22 23  1  0  0  0
 22 50  1  0  0  0
 22 51  1  0  0  0
 23 24  1  0  0  0
 23 52  1  0  0  0
 24 25  1  0  0  0
 24 53  1  0  0  0
 24 54  1  0  0  0
 25 26  2  0  0  0
 27 28  1  0  0  0
 27 55  1  0  0  0
 27 56  1  0  0  0
 28 30  1  0  0  0
 28 57  1  0  0  0
 28 58  1  0  0  0
 29 30  1  0  0  0
 29 59  1  0  0  0
 29 60  1  0  0  0
 31 61  1  0  0  0
 32 33  2  0  0  0
 32 34  1  0  0  0
 34 62  1  0  0  0
 34 63  1  0  0  0
 34 64  1  0  0  0
M  CHG  1  23   1
M  END
> <s_m_source_file>
../4qyy_ligand.sdf

> <i_m_source_file_index>
1

> <s_epik_input>
Tz1DKFtDSDNdKWMxW2NIXVtjSF1jKFtjSF1bY0hdMSlOKFtDSDJdW0NIMl0yKVtDSDJdW0NIMl1OMkMoPU8pW0NIMl1bTkBIK10oW0NIMl1bQ0gyXTMpW0NIMl1bQ0BASF0zQyg9TylbTkhdYyhbY0hdNClbY0hdW2NIXWMoYzRDbClbT0hd

> <s_epik_cmdline>
J2VwaWtfYXBwJywgJy1pbWFlJywgJ2xpZ2FuZF9wcm8ubWFlJywgJy1vbWFlJywgJ2xpZ2FuZF9wcmVwLm1hZScsICctbXMnLCAnMScsICctcGgnLCAnNycsICctcGh0JywgJzAuNScsICctbnQn

> <r_lp_tautomer_probability>
1

> <r_epik_Ionization_Penalty>
  0.0337

> <r_epik_Ionization_Penalty_Charging>
  0.0123

> <r_epik_Ionization_Penalty_Neutral>
  0.0214

> <r_epik_State_Penalty>
 -0.0000

> <r_epik_Charging_Adjusted_Penalty>
0.0122839052802642

> <i_epik_Tot_Q>
1

> <i_epik_Tot_abs_Q>
1

$$$$
