4qz0_ligand
                    3D
 Schrodinger Suite 2020-3.
 86 88  0  0  1  0            999 V2000
   59.5250 -134.5870   34.5290 C   0  0  0  0  0  0
   59.6020 -135.7930   34.7620 O   0  0  0  0  0  0
   58.3750 -134.0410   33.6690 C   0  0  0  0  0  0
   57.3450 -133.4800   34.5470 N   0  0  0  0  0  0
   54.6430 -133.4500   35.2890 O   0  0  0  0  0  0
   56.8230 -134.4360   35.5450 C   0  0  0  0  0  0
   56.2590 -133.0630   33.6430 C   0  0  0  0  0  0
   55.6830 -133.7720   36.2130 C   0  0  0  0  0  0
   55.0580 -132.4740   34.3220 C   0  0  0  0  0  0
   60.4140 -133.6780   34.9620 N   0  0  0  0  0  0
   61.5600 -134.0740   35.7980 C   0  0  2  0  0  0
   61.1050 -134.1490   37.2580 C   0  0  0  0  0  0
   60.3220 -133.3200   37.7230 O   0  0  0  0  0  0
   62.7100 -133.0710   35.6540 C   0  0  0  0  0  0
   61.6130 -135.1850   37.9410 N   0  0  0  0  0  0
   61.2920 -135.4240   39.3520 C   0  0  1  0  0  0
   60.7750 -136.8200   39.5270 C   0  0  0  0  0  0
   59.3960 -136.8470   39.2980 C   0  0  0  0  0  0
   58.9010 -136.9680   37.9990 C   0  0  0  0  0  0
   57.5270 -137.0260   37.7700 C   0  0  0  0  0  0
   56.6360 -136.9670   38.8410 C   0  0  0  0  0  0
   55.2910 -137.0450   38.6190 O   0  0  0  0  0  0
   54.5980 -135.8030   38.6520 C   0  0  0  0  0  0
   57.1290 -136.8590   40.1420 C   0  0  0  0  0  0
   58.5030 -136.8010   40.3700 C   0  0  0  0  0  0
   62.5830 -135.3100   40.1620 C   0  0  0  0  0  0
   63.6790 -135.2690   39.6050 O   0  0  0  0  0  0
   62.3980 -135.3130   41.4900 N   0  0  0  0  0  0
   63.4980 -135.1640   42.4420 C   0  0  2  0  0  0
   63.4080 -136.2060   43.5750 C   0  0  1  0  0  0
   62.0920 -136.1520   44.1430 O   0  0  0  0  0  0
   63.7740 -137.7300   43.2160 C   0  0  2  0  0  0
   64.9200 -137.7870   42.1490 C   0  0  0  0  0  0
   62.4990 -138.4040   42.6760 C   0  0  0  0  0  0
   62.8790 -139.3820   41.6920 O   0  0  0  0  0  0
   63.3300 -133.8000   43.0990 C   0  0  0  0  0  0
   64.0720 -132.7560   42.4960 C   0  0  0  0  0  0
   64.8240 -132.8610   41.3140 C   0  0  0  0  0  0
   65.5030 -131.7530   40.8070 C   0  0  0  0  0  0
   65.4420 -130.5240   41.4610 C   0  0  0  0  0  0
   64.6960 -130.4010   42.6280 C   0  0  0  0  0  0
   64.0180 -131.5110   43.1320 C   0  0  0  0  0  0
   58.7582 -133.2567   32.9996 H   0  0  0  0  0  0
   57.9459 -134.8573   33.0695 H   0  0  0  0  0  0
   56.4974 -135.3555   35.0366 H   0  0  0  0  0  0
   57.6143 -134.6783   36.2696 H   0  0  0  0  0  0
   56.6342 -132.2975   32.9479 H   0  0  0  0  0  0
   55.9024 -133.9332   33.0724 H   0  0  0  0  0  0
   56.0497 -132.8502   36.6881 H   0  0  0  0  0  0
   55.2909 -134.4511   36.9844 H   0  0  0  0  0  0
   54.2411 -132.2956   33.6073 H   0  0  0  0  0  0
   55.3087 -131.5335   34.8345 H   0  0  0  0  0  0
   60.2755 -132.6231   34.6825 H   0  0  0  0  0  0
   61.8955 -135.0589   35.4409 H   0  0  0  0  0  0
   63.0277 -133.0261   34.6019 H   0  0  0  0  0  0
   63.5564 -133.3914   36.2793 H   0  0  0  0  0  0
   62.3711 -132.0758   35.9775 H   0  0  0  0  0  0
   62.2913 -135.8675   37.4080 H   0  0  0  0  0  0
   60.5253 -134.6937   39.6503 H   0  0  0  0  0  0
   61.2755 -137.4888   38.8113 H   0  0  0  0  0  0
   60.9799 -137.1611   40.5525 H   0  0  0  0  0  0
   59.5928 -137.0175   37.1581 H   0  0  0  0  0  0
   57.1486 -137.1176   36.7519 H   0  0  0  0  0  0
   53.5281 -135.9750   38.4628 H   0  0  0  0  0  0
   55.0046 -135.1356   37.8779 H   0  0  0  0  0  0
   54.7254 -135.3382   39.6408 H   0  0  0  0  0  0
   56.4370 -136.8198   40.9832 H   0  0  0  0  0  0
   58.8814 -136.7194   41.3889 H   0  0  0  0  0  0
   61.3674 -135.4340   41.8549 H   0  0  0  0  0  0
   64.4287 -135.2826   41.8677 H   0  0  0  0  0  0
   64.1177 -135.8528   44.3376 H   0  0  0  0  0  0
   61.6660 -135.1864   44.4532 H   0  0  0  0  0  0
   64.1232 -138.2894   44.0964 H   0  0  0  0  0  0
   65.8209 -137.3015   42.5523 H   0  0  0  0  0  0
   64.5982 -137.2630   41.2369 H   0  0  0  0  0  0
   65.1454 -138.8365   41.9088 H   0  0  0  0  0  0
   61.9643 -138.8933   43.5035 H   0  0  0  0  0  0
   61.8487 -137.6444   42.2176 H   0  0  0  0  0  0
   62.1076 -139.9780   41.1825 H   0  0  0  0  0  0
   62.2720 -133.5015   43.0589 H   0  0  0  0  0  0
   63.6557 -133.8557   44.1482 H   0  0  0  0  0  0
   64.8772 -133.8150   40.7894 H   0  0  0  0  0  0
   66.0864 -131.8493   39.8913 H   0  0  0  0  0  0
   65.9766 -129.6631   41.0596 H   0  0  0  0  0  0
   64.6414 -129.4433   43.1457 H   0  0  0  0  0  0
   63.4312 -131.4057   44.0445 H   0  0  0  0  0  0
  1  2  2  0  0  0
  1  3  1  0  0  0
  1 10  1  0  0  0
  3  4  1  0  0  0
  3 43  1  0  0  0
  3 44  1  0  0  0
  4  6  1  0  0  0
  4  7  1  0  0  0
  5  8  1  0  0  0
  5  9  1  0  0  0
  6  8  1  0  0  0
  6 45  1  0  0  0
  6 46  1  0  0  0
  7  9  1  0  0  0
  7 47  1  0  0  0
  7 48  1  0  0  0
  8 49  1  0  0  0
  8 50  1  0  0  0
  9 51  1  0  0  0
  9 52  1  0  0  0
 10 11  1  0  0  0
 10 53  1  0  0  0
 11 12  1  0  0  0
 11 14  1  0  0  0
 11 54  1  0  0  0
 12 13  2  0  0  0
 12 15  1  0  0  0
 14 55  1  0  0  0
 14 56  1  0  0  0
 14 57  1  0  0  0
 15 16  1  0  0  0
 15 58  1  0  0  0
 16 17  1  0  0  0
 16 26  1  0  0  0
 16 59  1  0  0  0
 17 18  1  0  0  0
 17 60  1  0  0  0
 17 61  1  0  0  0
 18 19  2  0  0  0
 18 25  1  0  0  0
 19 20  1  0  0  0
 19 62  1  0  0  0
 20 21  2  0  0  0
 20 63  1  0  0  0
 21 22  1  0  0  0
 21 24  1  0  0  0
 22 23  1  0  0  0
 23 64  1  0  0  0
 23 65  1  0  0  0
 23 66  1  0  0  0
 24 25  2  0  0  0
 24 67  1  0  0  0
 25 68  1  0  0  0
 26 27  2  0  0  0
 26 28  1  0  0  0
 28 29  1  0  0  0
 28 69  1  0  0  0
 29 30  1  0  0  0
 29 36  1  0  0  0
 29 70  1  0  0  0
 30 31  1  0  0  0
 30 32  1  0  0  0
 30 71  1  0  0  0
 31 72  1  0  0  0
 32 33  1  0  0  0
 32 34  1  0  0  0
 32 73  1  0  0  0
 33 74  1  0  0  0
 33 75  1  0  0  0
 33 76  1  0  0  0
 34 35  1  0  0  0
 34 77  1  0  0  0
 34 78  1  0  0  0
 35 79  1  0  0  0
 36 37  1  0  0  0
 36 80  1  0  0  0
 36 81  1  0  0  0
 37 38  2  0  0  0
 37 42  1  0  0  0
 38 39  1  0  0  0
 38 82  1  0  0  0
 39 40  2  0  0  0
 39 83  1  0  0  0
 40 41  1  0  0  0
 40 84  1  0  0  0
 41 42  2  0  0  0
 41 85  1  0  0  0
 42 86  1  0  0  0
M  END
> <s_m_source_file>
../4qz0_ligand.sdf

> <i_m_source_file_index>
1

> <s_epik_input>
W0NIMl0xW0NIMl1PW0NIMl1bQ0gyXVtOSCtdMVtDSDJdQyg9TylbTkhdW0NAQEhdKFtDSDNdKUMoPU8pW05IXVtDQEBIXShbQ0gyXWMyW2NIXVtjSF1jKE9bQ0gzXSlbY0hdW2NIXTIpQyg9TylbTkhdW0NASF0oW0NAQEhdKFtPSF0pW0NASF0oW0NIM10pW0NIMl1bT0hdKVtDSDJdYzNbY0hdW2NIXVtjSF1bY0hdW2NIXTM=

> <s_epik_cmdline>
J2VwaWtfYXBwJywgJy1pbWFlJywgJ2xpZ2FuZF9wcm8ubWFlJywgJy1vbWFlJywgJ2xpZ2FuZF9wcmVwLm1hZScsICctbXMnLCAnMScsICctcGgnLCAnNycsICctcGh0JywgJzAuNScsICctbnQn

> <r_lp_tautomer_probability>
1

> <r_epik_Ionization_Penalty>
  0.0035

> <r_epik_Ionization_Penalty_Charging>
  0.0000

> <r_epik_Ionization_Penalty_Neutral>
  0.0035

> <r_epik_State_Penalty>
 -0.0000

> <r_epik_Charging_Adjusted_Penalty>
0

> <i_epik_Tot_Q>
0

> <i_epik_Tot_abs_Q>
0

$$$$
