4qz1_ligand
                    3D
 Schrodinger Suite 2020-3.
 86 88  0  0  1  0            999 V2000
   59.5780 -134.2350   34.8760 C   0  0  0  0  0  0
   59.5930 -135.4540   35.0410 O   0  0  0  0  0  0
   58.4640 -133.5810   34.0480 C   0  0  0  0  0  0
   57.2960 -133.6770   34.9120 N   0  0  0  0  0  0
   54.7820 -133.0830   35.8600 O   0  0  0  0  0  0
   56.1450 -134.2850   34.2200 C   0  0  0  0  0  0
   56.9480 -132.3620   35.4510 C   0  0  0  0  0  0
   55.0290 -134.3530   35.1910 C   0  0  0  0  0  0
   55.9350 -132.5130   36.5160 C   0  0  0  0  0  0
   60.4730 -133.3910   35.4130 N   0  0  0  0  0  0
   61.5840 -133.8780   36.2420 C   0  0  2  0  0  0
   61.1190 -133.9790   37.6890 C   0  0  0  0  0  0
   60.3620 -133.1310   38.1620 O   0  0  0  0  0  0
   62.7620 -132.9050   36.1670 C   0  0  0  0  0  0
   61.6070 -135.0390   38.3540 N   0  0  0  0  0  0
   61.3030 -135.2860   39.7680 C   0  0  1  0  0  0
   60.7340 -136.6630   39.9730 C   0  0  0  0  0  0
   59.3650 -136.5580   39.7530 C   0  0  0  0  0  0
   58.8420 -136.6810   38.4710 C   0  0  0  0  0  0
   57.4700 -136.5820   38.2570 C   0  0  0  0  0  0
   56.6040 -136.3630   39.3400 C   0  0  0  0  0  0
   55.2410 -136.2410   39.2510 O   0  0  0  0  0  0
   54.5960 -136.5510   38.0070 C   0  0  0  0  0  0
   57.1400 -136.2420   40.6160 C   0  0  0  0  0  0
   58.5070 -136.3390   40.8260 C   0  0  0  0  0  0
   62.6160 -135.2020   40.5430 C   0  0  0  0  0  0
   63.7030 -135.3360   39.9740 O   0  0  0  0  0  0
   62.4500 -135.0050   41.8600 N   0  0  0  0  0  0
   63.5670 -134.8640   42.7940 C   0  0  2  0  0  0
   63.4790 -135.9100   43.9220 C   0  0  1  0  0  0
   62.1650 -135.8870   44.4820 O   0  0  0  0  0  0
   63.8790 -137.4210   43.5700 C   0  0  2  0  0  0
   65.0560 -137.4550   42.5510 C   0  0  0  0  0  0
   62.6560 -138.0890   42.9530 C   0  0  0  0  0  0
   63.0970 -139.2990   42.3160 O   0  0  0  0  0  0
   63.4420 -133.4960   43.4560 C   0  0  0  0  0  0
   64.2010 -132.4790   42.8260 C   0  0  0  0  0  0
   64.8800 -132.6130   41.6040 C   0  0  0  0  0  0
   65.5860 -131.5380   41.0670 C   0  0  0  0  0  0
   65.6200 -130.3140   41.7300 C   0  0  0  0  0  0
   64.9470 -130.1610   42.9370 C   0  0  0  0  0  0
   64.2450 -131.2380   43.4740 C   0  0  0  0  0  0
   58.7358 -132.5384   33.8264 H   0  0  0  0  0  0
   58.3342 -134.1342   33.1061 H   0  0  0  0  0  0
   55.8664 -133.6635   33.3563 H   0  0  0  0  0  0
   56.4161 -135.2933   33.8739 H   0  0  0  0  0  0
   57.8481 -131.8869   35.8684 H   0  0  0  0  0  0
   56.5405 -131.7321   34.6465 H   0  0  0  0  0  0
   55.2821 -135.1185   35.9393 H   0  0  0  0  0  0
   54.1262 -134.6604   34.6429 H   0  0  0  0  0  0
   55.6634 -131.5427   36.9574 H   0  0  0  0  0  0
   56.2792 -133.1931   37.3091 H   0  0  0  0  0  0
   60.3613 -132.3137   35.2208 H   0  0  0  0  0  0
   61.8727 -134.8637   35.8482 H   0  0  0  0  0  0
   63.1056 -132.8249   35.1251 H   0  0  0  0  0  0
   63.5842 -133.2755   36.7968 H   0  0  0  0  0  0
   62.4432 -131.9150   36.5251 H   0  0  0  0  0  0
   62.2555 -135.7346   37.8012 H   0  0  0  0  0  0
   60.5559 -134.5403   40.0774 H   0  0  0  0  0  0
   61.1957 -137.3606   39.2587 H   0  0  0  0  0  0
   60.9438 -136.9973   40.9997 H   0  0  0  0  0  0
   59.5104 -136.8561   37.6279 H   0  0  0  0  0  0
   57.0680 -136.6746   37.2481 H   0  0  0  0  0  0
   53.5111 -136.4010   38.1091 H   0  0  0  0  0  0
   54.7978 -137.5990   37.7406 H   0  0  0  0  0  0
   54.9848 -135.8906   37.2179 H   0  0  0  0  0  0
   56.4768 -136.0685   41.4635 H   0  0  0  0  0  0
   58.9104 -136.2435   41.8341 H   0  0  0  0  0  0
   61.4149 -134.9509   42.2283 H   0  0  0  0  0  0
   64.4860 -134.9891   42.2025 H   0  0  0  0  0  0
   64.1710 -135.5397   44.6927 H   0  0  0  0  0  0
   61.7144 -134.9315   44.7884 H   0  0  0  0  0  0
   64.1892 -137.9836   44.4629 H   0  0  0  0  0  0
   65.9395 -136.9731   42.9951 H   0  0  0  0  0  0
   64.7653 -136.9166   41.6369 H   0  0  0  0  0  0
   65.2946 -138.4993   42.3012 H   0  0  0  0  0  0
   61.9247 -138.3160   43.7427 H   0  0  0  0  0  0
   62.2009 -137.4114   42.2156 H   0  0  0  0  0  0
   62.3711 -139.9458   41.8015 H   0  0  0  0  0  0
   62.3902 -133.1745   43.4375 H   0  0  0  0  0  0
   63.7875 -133.5601   44.4984 H   0  0  0  0  0  0
   64.8547 -133.5640   41.0720 H   0  0  0  0  0  0
   66.1152 -131.6562   40.1215 H   0  0  0  0  0  0
   66.1732 -129.4773   41.3035 H   0  0  0  0  0  0
   64.9685 -129.2047   43.4597 H   0  0  0  0  0  0
   63.7181 -131.1120   44.4198 H   0  0  0  0  0  0
  1  2  2  0  0  0
  1  3  1  0  0  0
  1 10  1  0  0  0
  3  4  1  0  0  0
  3 43  1  0  0  0
  3 44  1  0  0  0
  4  6  1  0  0  0
  4  7  1  0  0  0
  5  8  1  0  0  0
  5  9  1  0  0  0
  6  8  1  0  0  0
  6 45  1  0  0  0
  6 46  1  0  0  0
  7  9  1  0  0  0
  7 47  1  0  0  0
  7 48  1  0  0  0
  8 49  1  0  0  0
  8 50  1  0  0  0
  9 51  1  0  0  0
  9 52  1  0  0  0
 10 11  1  0  0  0
 10 53  1  0  0  0
 11 12  1  0  0  0
 11 14  1  0  0  0
 11 54  1  0  0  0
 12 13  2  0  0  0
 12 15  1  0  0  0
 14 55  1  0  0  0
 14 56  1  0  0  0
 14 57  1  0  0  0
 15 16  1  0  0  0
 15 58  1  0  0  0
 16 17  1  0  0  0
 16 26  1  0  0  0
 16 59  1  0  0  0
 17 18  1  0  0  0
 17 60  1  0  0  0
 17 61  1  0  0  0
 18 19  2  0  0  0
 18 25  1  0  0  0
 19 20  1  0  0  0
 19 62  1  0  0  0
 20 21  2  0  0  0
 20 63  1  0  0  0
 21 22  1  0  0  0
 21 24  1  0  0  0
 22 23  1  0  0  0
 23 64  1  0  0  0
 23 65  1  0  0  0
 23 66  1  0  0  0
 24 25  2  0  0  0
 24 67  1  0  0  0
 25 68  1  0  0  0
 26 27  2  0  0  0
 26 28  1  0  0  0
 28 29  1  0  0  0
 28 69  1  0  0  0
 29 30  1  0  0  0
 29 36  1  0  0  0
 29 70  1  0  0  0
 30 31  1  0  0  0
 30 32  1  0  0  0
 30 71  1  0  0  0
 31 72  1  0  0  0
 32 33  1  0  0  0
 32 34  1  0  0  0
 32 73  1  0  0  0
 33 74  1  0  0  0
 33 75  1  0  0  0
 33 76  1  0  0  0
 34 35  1  0  0  0
 34 77  1  0  0  0
 34 78  1  0  0  0
 35 79  1  0  0  0
 36 37  1  0  0  0
 36 80  1  0  0  0
 36 81  1  0  0  0
 37 38  2  0  0  0
 37 42  1  0  0  0
 38 39  1  0  0  0
 38 82  1  0  0  0
 39 40  2  0  0  0
 39 83  1  0  0  0
 40 41  1  0  0  0
 40 84  1  0  0  0
 41 42  2  0  0  0
 41 85  1  0  0  0
 42 86  1  0  0  0
M  END
> <s_m_source_file>
../4qz1_ligand.sdf

> <i_m_source_file_index>
1

> <s_epik_input>
W0NIMl0xW0NIMl1PW0NIMl1bQ0gyXVtOSCtdMVtDSDJdQyg9TylbTkhdW0NAQEhdKFtDSDNdKUMoPU8pW05IXVtDQEBIXShbQ0gyXWMyW2NIXVtjSF1jKE9bQ0gzXSlbY0hdW2NIXTIpQyg9TylbTkhdW0NASF0oW0NAQEhdKFtPSF0pW0NASF0oW0NIM10pW0NIMl1bT0hdKVtDSDJdYzNbY0hdW2NIXVtjSF1bY0hdW2NIXTM=

> <s_epik_cmdline>
J2VwaWtfYXBwJywgJy1pbWFlJywgJ2xpZ2FuZF9wcm8ubWFlJywgJy1vbWFlJywgJ2xpZ2FuZF9wcmVwLm1hZScsICctbXMnLCAnMScsICctcGgnLCAnNycsICctcGh0JywgJzAuNScsICctbnQn

> <r_lp_tautomer_probability>
1

> <r_epik_Ionization_Penalty>
  0.0035

> <r_epik_Ionization_Penalty_Charging>
  0.0000

> <r_epik_Ionization_Penalty_Neutral>
  0.0035

> <r_epik_State_Penalty>
 -0.0000

> <r_epik_Charging_Adjusted_Penalty>
0

> <i_epik_Tot_Q>
0

> <i_epik_Tot_abs_Q>
0

$$$$
