4qz2_ligand
                    3D
 Schrodinger Suite 2020-3.
 86 88  0  0  1  0            999 V2000
   59.8160 -134.4740   34.6550 C   0  0  0  0  0  0
   59.8930 -135.6670   34.9430 O   0  0  0  0  0  0
   58.6580 -133.9590   33.7830 C   0  0  0  0  0  0
   57.6400 -133.4630   34.7030 N   0  0  0  0  0  0
   55.0250 -132.8190   35.3540 O   0  0  0  0  0  0
   56.7110 -134.5360   35.1260 C   0  0  0  0  0  0
   56.8940 -132.3840   34.0460 C   0  0  0  0  0  0
   55.6750 -133.9280   35.9940 C   0  0  0  0  0  0
   55.9280 -131.7600   34.9880 C   0  0  0  0  0  0
   60.6980 -133.5410   35.0550 N   0  0  0  0  0  0
   61.8580 -133.8870   35.8950 C   0  0  2  0  0  0
   61.4180 -133.9770   37.3600 C   0  0  0  0  0  0
   60.6550 -133.1430   37.8440 O   0  0  0  0  0  0
   62.9570 -132.8310   35.7410 C   0  0  0  0  0  0
   61.9260 -135.0240   38.0300 N   0  0  0  0  0  0
   61.6160 -135.2800   39.4400 C   0  0  1  0  0  0
   61.0550 -136.6740   39.5690 C   0  0  0  0  0  0
   59.6780 -136.5880   39.3520 C   0  0  0  0  0  0
   59.1150 -136.9220   38.1210 C   0  0  0  0  0  0
   57.7370 -136.8400   37.9230 C   0  0  0  0  0  0
   56.8990 -136.4240   38.9670 C   0  0  0  0  0  0
   55.5330 -136.3060   38.8860 O   0  0  0  0  0  0
   54.8110 -136.7540   37.7300 C   0  0  0  0  0  0
   57.4720 -136.0970   40.1930 C   0  0  0  0  0  0
   58.8440 -136.1810   40.3870 C   0  0  0  0  0  0
   62.9090 -135.1960   40.2580 C   0  0  0  0  0  0
   64.0050 -135.3570   39.7200 O   0  0  0  0  0  0
   62.7250 -134.9520   41.5680 N   0  0  0  0  0  0
   63.8310 -134.8350   42.5290 C   0  0  2  0  0  0
   63.6720 -135.8810   43.6570 C   0  0  1  0  0  0
   62.3530 -135.7710   44.1880 O   0  0  0  0  0  0
   63.9870 -137.4030   43.2810 C   0  0  2  0  0  0
   65.0030 -137.5060   42.0890 C   0  0  0  0  0  0
   62.6770 -138.0080   42.8000 C   0  0  0  0  0  0
   62.9880 -139.2440   42.1360 O   0  0  0  0  0  0
   63.7860 -133.4660   43.1920 C   0  0  0  0  0  0
   64.5010 -132.4590   42.5030 C   0  0  0  0  0  0
   65.3470 -132.6690   41.4040 C   0  0  0  0  0  0
   65.9990 -131.5920   40.8040 C   0  0  0  0  0  0
   65.8200 -130.2980   41.2860 C   0  0  0  0  0  0
   64.9840 -130.0740   42.3740 C   0  0  0  0  0  0
   64.3370 -131.1520   42.9710 C   0  0  0  0  0  0
   59.0225 -133.1545   33.1273 H   0  0  0  0  0  0
   58.2665 -134.7835   33.1690 H   0  0  0  0  0  0
   56.2453 -134.9888   34.2383 H   0  0  0  0  0  0
   57.2679 -135.3056   35.6807 H   0  0  0  0  0  0
   57.5962 -131.6130   33.6961 H   0  0  0  0  0  0
   56.3394 -132.7914   33.1878 H   0  0  0  0  0  0
   56.1592 -133.5845   36.9201 H   0  0  0  0  0  0
   54.9299 -134.7006   36.2346 H   0  0  0  0  0  0
   55.3637 -130.9459   34.5097 H   0  0  0  0  0  0
   56.4298 -131.3781   35.8893 H   0  0  0  0  0  0
   60.5378 -132.4991   34.7406 H   0  0  0  0  0  0
   62.2300 -134.8613   35.5452 H   0  0  0  0  0  0
   63.2657 -132.7741   34.6867 H   0  0  0  0  0  0
   63.8217 -133.1085   36.3618 H   0  0  0  0  0  0
   62.5728 -131.8522   36.0639 H   0  0  0  0  0  0
   62.5970 -135.7022   37.4825 H   0  0  0  0  0  0
   60.8778 -134.5333   39.7680 H   0  0  0  0  0  0
   61.5242 -137.3288   38.8199 H   0  0  0  0  0  0
   61.2640 -137.0615   40.5770 H   0  0  0  0  0  0
   59.7586 -137.2506   37.3049 H   0  0  0  0  0  0
   57.3105 -137.1000   36.9542 H   0  0  0  0  0  0
   53.7366 -136.5663   37.8732 H   0  0  0  0  0  0
   54.9792 -137.8317   37.5876 H   0  0  0  0  0  0
   55.1636 -136.2075   36.8429 H   0  0  0  0  0  0
   56.8333 -135.7699   41.0134 H   0  0  0  0  0  0
   59.2702 -135.9261   41.3573 H   0  0  0  0  0  0
   61.6855 -134.8389   41.9094 H   0  0  0  0  0  0
   64.7521 -134.9798   41.9454 H   0  0  0  0  0  0
   64.3658 -135.5805   44.4559 H   0  0  0  0  0  0
   61.9664 -134.7901   44.5017 H   0  0  0  0  0  0
   64.3935 -137.9463   44.1468 H   0  0  0  0  0  0
   65.9697 -137.0781   42.3932 H   0  0  0  0  0  0
   64.6115 -136.9498   41.2245 H   0  0  0  0  0  0
   65.1398 -138.5623   41.8141 H   0  0  0  0  0  0
   62.0190 -138.1907   43.6624 H   0  0  0  0  0  0
   62.1852 -137.3120   42.1045 H   0  0  0  0  0  0
   62.1812 -139.8551   41.7052 H   0  0  0  0  0  0
   62.7420 -133.1268   43.2623 H   0  0  0  0  0  0
   64.2186 -133.5329   44.2012 H   0  0  0  0  0  0
   65.4953 -133.6774   41.0176 H   0  0  0  0  0  0
   66.6544 -131.7647   39.9503 H   0  0  0  0  0  0
   66.3343 -129.4624   40.8113 H   0  0  0  0  0  0
   64.8367 -129.0638   42.7558 H   0  0  0  0  0  0
   63.6852 -130.9724   43.8260 H   0  0  0  0  0  0
  1  2  2  0  0  0
  1  3  1  0  0  0
  1 10  1  0  0  0
  3  4  1  0  0  0
  3 43  1  0  0  0
  3 44  1  0  0  0
  4  6  1  0  0  0
  4  7  1  0  0  0
  5  8  1  0  0  0
  5  9  1  0  0  0
  6  8  1  0  0  0
  6 45  1  0  0  0
  6 46  1  0  0  0
  7  9  1  0  0  0
  7 47  1  0  0  0
  7 48  1  0  0  0
  8 49  1  0  0  0
  8 50  1  0  0  0
  9 51  1  0  0  0
  9 52  1  0  0  0
 10 11  1  0  0  0
 10 53  1  0  0  0
 11 12  1  0  0  0
 11 14  1  0  0  0
 11 54  1  0  0  0
 12 13  2  0  0  0
 12 15  1  0  0  0
 14 55  1  0  0  0
 14 56  1  0  0  0
 14 57  1  0  0  0
 15 16  1  0  0  0
 15 58  1  0  0  0
 16 17  1  0  0  0
 16 26  1  0  0  0
 16 59  1  0  0  0
 17 18  1  0  0  0
 17 60  1  0  0  0
 17 61  1  0  0  0
 18 19  2  0  0  0
 18 25  1  0  0  0
 19 20  1  0  0  0
 19 62  1  0  0  0
 20 21  2  0  0  0
 20 63  1  0  0  0
 21 22  1  0  0  0
 21 24  1  0  0  0
 22 23  1  0  0  0
 23 64  1  0  0  0
 23 65  1  0  0  0
 23 66  1  0  0  0
 24 25  2  0  0  0
 24 67  1  0  0  0
 25 68  1  0  0  0
 26 27  2  0  0  0
 26 28  1  0  0  0
 28 29  1  0  0  0
 28 69  1  0  0  0
 29 30  1  0  0  0
 29 36  1  0  0  0
 29 70  1  0  0  0
 30 31  1  0  0  0
 30 32  1  0  0  0
 30 71  1  0  0  0
 31 72  1  0  0  0
 32 33  1  0  0  0
 32 34  1  0  0  0
 32 73  1  0  0  0
 33 74  1  0  0  0
 33 75  1  0  0  0
 33 76  1  0  0  0
 34 35  1  0  0  0
 34 77  1  0  0  0
 34 78  1  0  0  0
 35 79  1  0  0  0
 36 37  1  0  0  0
 36 80  1  0  0  0
 36 81  1  0  0  0
 37 38  2  0  0  0
 37 42  1  0  0  0
 38 39  1  0  0  0
 38 82  1  0  0  0
 39 40  2  0  0  0
 39 83  1  0  0  0
 40 41  1  0  0  0
 40 84  1  0  0  0
 41 42  2  0  0  0
 41 85  1  0  0  0
 42 86  1  0  0  0
M  END
> <s_m_source_file>
../4qz2_ligand.sdf

> <i_m_source_file_index>
1

> <s_epik_input>
W0NIMl0xW0NIMl1PW0NIMl1bQ0gyXVtOSCtdMVtDSDJdQyg9TylbTkhdW0NAQEhdKFtDSDNdKUMoPU8pW05IXVtDQEBIXShbQ0gyXWMyW2NIXVtjSF1jKE9bQ0gzXSlbY0hdW2NIXTIpQyg9TylbTkhdW0NASF0oW0NAQEhdKFtPSF0pW0NASF0oW0NIM10pW0NIMl1bT0hdKVtDSDJdYzNbY0hdW2NIXVtjSF1bY0hdW2NIXTM=

> <s_epik_cmdline>
J2VwaWtfYXBwJywgJy1pbWFlJywgJ2xpZ2FuZF9wcm8ubWFlJywgJy1vbWFlJywgJ2xpZ2FuZF9wcmVwLm1hZScsICctbXMnLCAnMScsICctcGgnLCAnNycsICctcGh0JywgJzAuNScsICctbnQn

> <r_lp_tautomer_probability>
1

> <r_epik_Ionization_Penalty>
  0.0035

> <r_epik_Ionization_Penalty_Charging>
  0.0000

> <r_epik_Ionization_Penalty_Neutral>
  0.0035

> <r_epik_State_Penalty>
 -0.0000

> <r_epik_Charging_Adjusted_Penalty>
0

> <i_epik_Tot_Q>
0

> <i_epik_Tot_abs_Q>
0

$$$$
