4qz3_ligand
                    3D
 Schrodinger Suite 2020-3.
 86 88  0  0  1  0            999 V2000
   59.5080 -134.4940   34.6300 C   0  0  0  0  0  0
   59.5420 -135.7240   34.6120 O   0  0  0  0  0  0
   58.3590 -133.7380   33.9440 C   0  0  0  0  0  0
   57.1420 -134.1620   34.6400 N   0  0  0  0  0  0
   54.5700 -133.3790   35.3540 O   0  0  0  0  0  0
   56.0370 -134.2740   33.6560 C   0  0  0  0  0  0
   56.8610 -133.2070   35.7320 C   0  0  0  0  0  0
   54.7330 -134.4100   34.3660 C   0  0  0  0  0  0
   55.5540 -133.4600   36.4010 C   0  0  0  0  0  0
   60.4350 -133.7190   35.2190 N   0  0  0  0  0  0
   61.5690 -134.2890   35.9530 C   0  0  2  0  0  0
   61.1240 -134.4190   37.4060 C   0  0  0  0  0  0
   60.3660 -133.5830   37.8990 O   0  0  0  0  0  0
   62.7790 -133.3530   35.8670 C   0  0  0  0  0  0
   61.5980 -135.4890   38.0600 N   0  0  0  0  0  0
   61.2570 -135.7250   39.4700 C   0  0  1  0  0  0
   60.6380 -137.0900   39.6510 C   0  0  0  0  0  0
   59.2900 -136.9730   39.2950 C   0  0  0  0  0  0
   58.8550 -137.3360   38.0220 C   0  0  0  0  0  0
   57.5100 -137.2230   37.6780 C   0  0  0  0  0  0
   56.5790 -136.7540   38.6020 C   0  0  0  0  0  0
   55.2670 -136.6530   38.2120 O   0  0  0  0  0  0
   54.2500 -136.9920   39.1750 C   0  0  0  0  0  0
   57.0180 -136.3850   39.8780 C   0  0  0  0  0  0
   58.3610 -136.5030   40.2210 C   0  0  0  0  0  0
   62.5370 -135.6510   40.3030 C   0  0  0  0  0  0
   63.6430 -135.8410   39.7930 O   0  0  0  0  0  0
   62.3230 -135.3780   41.5990 N   0  0  0  0  0  0
   63.4090 -135.2520   42.5720 C   0  0  2  0  0  0
   63.2510 -136.2980   43.7010 C   0  0  1  0  0  0
   61.9100 -136.2260   44.2160 O   0  0  0  0  0  0
   63.5860 -137.8250   43.3240 C   0  0  2  0  0  0
   64.6720 -137.9110   42.1920 C   0  0  0  0  0  0
   62.2910 -138.4430   42.7970 C   0  0  0  0  0  0
   62.6430 -139.6570   42.1130 O   0  0  0  0  0  0
   63.3450 -133.8640   43.2040 C   0  0  0  0  0  0
   64.1130 -132.8910   42.5150 C   0  0  0  0  0  0
   64.9340 -133.1450   41.4030 C   0  0  0  0  0  0
   65.6430 -132.1090   40.7970 C   0  0  0  0  0  0
   65.5500 -130.8070   41.2820 C   0  0  0  0  0  0
   64.7410 -130.5380   42.3810 C   0  0  0  0  0  0
   64.0330 -131.5760   42.9850 C   0  0  0  0  0  0
   58.5221 -132.6547   34.0432 H   0  0  0  0  0  0
   58.3273 -134.0079   32.8781 H   0  0  0  0  0  0
   56.0138 -133.3722   33.0266 H   0  0  0  0  0  0
   56.1981 -135.1590   33.0229 H   0  0  0  0  0  0
   57.6487 -133.2818   36.4962 H   0  0  0  0  0  0
   56.8382 -132.1842   35.3278 H   0  0  0  0  0  0
   54.7004 -135.3948   34.8549 H   0  0  0  0  0  0
   53.9216 -134.3408   33.6265 H   0  0  0  0  0  0
   55.3385 -132.6998   37.1663 H   0  0  0  0  0  0
   55.5215 -134.4600   36.8582 H   0  0  0  0  0  0
   60.3247 -132.6275   35.1384 H   0  0  0  0  0  0
   61.8294 -135.2599   35.5063 H   0  0  0  0  0  0
   63.0977 -133.2612   34.8182 H   0  0  0  0  0  0
   63.6044 -133.7648   36.4663 H   0  0  0  0  0  0
   62.5036 -132.3611   36.2548 H   0  0  0  0  0  0
   62.2508 -136.1954   37.5263 H   0  0  0  0  0  0
   60.5261 -134.9554   39.7589 H   0  0  0  0  0  0
   61.1518 -137.8145   39.0021 H   0  0  0  0  0  0
   60.7389 -137.4021   40.7010 H   0  0  0  0  0  0
   59.5715 -137.7106   37.2910 H   0  0  0  0  0  0
   57.1830 -137.5041   36.6769 H   0  0  0  0  0  0
   53.2568 -136.8629   38.7202 H   0  0  0  0  0  0
   54.3405 -136.3331   40.0512 H   0  0  0  0  0  0
   54.3764 -138.0387   39.4887 H   0  0  0  0  0  0
   56.3038 -136.0029   40.6075 H   0  0  0  0  0  0
   58.6893 -136.2254   41.2226 H   0  0  0  0  0  0
   61.2790 -135.2476   41.9201 H   0  0  0  0  0  0
   64.3419 -135.4061   42.0100 H   0  0  0  0  0  0
   63.9334 -135.9689   44.4985 H   0  0  0  0  0  0
   61.4933 -135.2582   44.5316 H   0  0  0  0  0  0
   63.9559 -138.3846   44.1958 H   0  0  0  0  0  0
   65.6132 -137.4704   42.5526 H   0  0  0  0  0  0
   64.3238 -137.3582   41.3071 H   0  0  0  0  0  0
   64.8394 -138.9646   41.9238 H   0  0  0  0  0  0
   61.6172 -138.6566   43.6398 H   0  0  0  0  0  0
   61.8031 -137.7390   42.1068 H   0  0  0  0  0  0
   61.8594 -140.2738   41.6488 H   0  0  0  0  0  0
   62.3025 -133.5132   43.2136 H   0  0  0  0  0  0
   63.7250 -133.9127   44.2351 H   0  0  0  0  0  0
   65.0169 -134.1590   41.0117 H   0  0  0  0  0  0
   66.2762 -132.3201   39.9353 H   0  0  0  0  0  0
   66.1083 -130.0028   40.8029 H   0  0  0  0  0  0
   64.6611 -129.5220   42.7676 H   0  0  0  0  0  0
   63.4009 -131.3572   43.8456 H   0  0  0  0  0  0
  1  2  2  0  0  0
  1  3  1  0  0  0
  1 10  1  0  0  0
  3  4  1  0  0  0
  3 43  1  0  0  0
  3 44  1  0  0  0
  4  6  1  0  0  0
  4  7  1  0  0  0
  5  8  1  0  0  0
  5  9  1  0  0  0
  6  8  1  0  0  0
  6 45  1  0  0  0
  6 46  1  0  0  0
  7  9  1  0  0  0
  7 47  1  0  0  0
  7 48  1  0  0  0
  8 49  1  0  0  0
  8 50  1  0  0  0
  9 51  1  0  0  0
  9 52  1  0  0  0
 10 11  1  0  0  0
 10 53  1  0  0  0
 11 12  1  0  0  0
 11 14  1  0  0  0
 11 54  1  0  0  0
 12 13  2  0  0  0
 12 15  1  0  0  0
 14 55  1  0  0  0
 14 56  1  0  0  0
 14 57  1  0  0  0
 15 16  1  0  0  0
 15 58  1  0  0  0
 16 17  1  0  0  0
 16 26  1  0  0  0
 16 59  1  0  0  0
 17 18  1  0  0  0
 17 60  1  0  0  0
 17 61  1  0  0  0
 18 19  2  0  0  0
 18 25  1  0  0  0
 19 20  1  0  0  0
 19 62  1  0  0  0
 20 21  2  0  0  0
 20 63  1  0  0  0
 21 22  1  0  0  0
 21 24  1  0  0  0
 22 23  1  0  0  0
 23 64  1  0  0  0
 23 65  1  0  0  0
 23 66  1  0  0  0
 24 25  2  0  0  0
 24 67  1  0  0  0
 25 68  1  0  0  0
 26 27  2  0  0  0
 26 28  1  0  0  0
 28 29  1  0  0  0
 28 69  1  0  0  0
 29 30  1  0  0  0
 29 36  1  0  0  0
 29 70  1  0  0  0
 30 31  1  0  0  0
 30 32  1  0  0  0
 30 71  1  0  0  0
 31 72  1  0  0  0
 32 33  1  0  0  0
 32 34  1  0  0  0
 32 73  1  0  0  0
 33 74  1  0  0  0
 33 75  1  0  0  0
 33 76  1  0  0  0
 34 35  1  0  0  0
 34 77  1  0  0  0
 34 78  1  0  0  0
 35 79  1  0  0  0
 36 37  1  0  0  0
 36 80  1  0  0  0
 36 81  1  0  0  0
 37 38  2  0  0  0
 37 42  1  0  0  0
 38 39  1  0  0  0
 38 82  1  0  0  0
 39 40  2  0  0  0
 39 83  1  0  0  0
 40 41  1  0  0  0
 40 84  1  0  0  0
 41 42  2  0  0  0
 41 85  1  0  0  0
 42 86  1  0  0  0
M  END
> <s_m_source_file>
../4qz3_ligand.sdf

> <i_m_source_file_index>
1

> <s_epik_input>
W0NIMl0xW0NIMl1PW0NIMl1bQ0gyXVtOSCtdMVtDSDJdQyg9TylbTkhdW0NAQEhdKFtDSDNdKUMoPU8pW05IXVtDQEBIXShbQ0gyXWMyW2NIXVtjSF1jKE9bQ0gzXSlbY0hdW2NIXTIpQyg9TylbTkhdW0NASF0oW0NAQEhdKFtPSF0pW0NASF0oW0NIM10pW0NIMl1bT0hdKVtDSDJdYzNbY0hdW2NIXVtjSF1bY0hdW2NIXTM=

> <s_epik_cmdline>
J2VwaWtfYXBwJywgJy1pbWFlJywgJ2xpZ2FuZF9wcm8ubWFlJywgJy1vbWFlJywgJ2xpZ2FuZF9wcmVwLm1hZScsICctbXMnLCAnMScsICctcGgnLCAnNycsICctcGh0JywgJzAuNScsICctbnQn

> <r_lp_tautomer_probability>
1

> <r_epik_Ionization_Penalty>
  0.0035

> <r_epik_Ionization_Penalty_Charging>
  0.0000

> <r_epik_Ionization_Penalty_Neutral>
  0.0035

> <r_epik_State_Penalty>
 -0.0000

> <r_epik_Charging_Adjusted_Penalty>
0

> <i_epik_Tot_Q>
0

> <i_epik_Tot_abs_Q>
0

$$$$
