4qz4_ligand
                    3D
 Schrodinger Suite 2020-3.
 86 88  0  0  1  0            999 V2000
   59.1220 -134.0870   34.7930 C   0  0  0  0  0  0
   59.1440 -135.3150   34.8710 O   0  0  0  0  0  0
   57.9670 -133.3660   34.0780 C   0  0  0  0  0  0
   56.7200 -133.7710   34.7360 N   0  0  0  0  0  0
   54.1760 -132.7810   35.3190 O   0  0  0  0  0  0
   55.6610 -133.8050   33.6910 C   0  0  0  0  0  0
   56.4380 -132.8360   35.8510 C   0  0  0  0  0  0
   54.2990 -133.7980   34.3020 C   0  0  0  0  0  0
   55.0730 -132.9920   36.4250 C   0  0  0  0  0  0
   60.0840 -133.2790   35.2710 N   0  0  0  0  0  0
   61.2500 -133.7960   35.9940 C   0  0  2  0  0  0
   60.8830 -133.8730   37.4690 C   0  0  0  0  0  0
   60.3480 -132.9110   38.0200 O   0  0  0  0  0  0
   62.4310 -132.8380   35.8190 C   0  0  0  0  0  0
   61.1580 -135.0390   38.0750 N   0  0  0  0  0  0
   60.8620 -135.2270   39.5000 C   0  0  1  0  0  0
   60.2570 -136.5820   39.7690 C   0  0  0  0  0  0
   58.8930 -136.4700   39.4490 C   0  0  0  0  0  0
   58.4640 -136.6520   38.1340 C   0  0  0  0  0  0
   57.1150 -136.5420   37.8060 C   0  0  0  0  0  0
   56.1730 -136.2590   38.7940 C   0  0  0  0  0  0
   54.8450 -136.1470   38.4810 O   0  0  0  0  0  0
   54.2880 -137.2900   37.8030 C   0  0  0  0  0  0
   56.5980 -136.0740   40.1110 C   0  0  0  0  0  0
   57.9490 -136.1820   40.4380 C   0  0  0  0  0  0
   62.1750 -135.0940   40.2660 C   0  0  0  0  0  0
   63.2590 -135.0990   39.6810 O   0  0  0  0  0  0
   62.0110 -134.9690   41.5870 N   0  0  0  0  0  0
   63.1250 -134.7970   42.5170 C   0  0  2  0  0  0
   63.0230 -135.8220   43.6640 C   0  0  1  0  0  0
   61.6680 -135.8420   44.1830 O   0  0  0  0  0  0
   63.4730 -137.3210   43.3180 C   0  0  2  0  0  0
   64.7970 -137.3300   42.5110 C   0  0  0  0  0  0
   62.3710 -137.9270   42.4520 C   0  0  0  0  0  0
   62.1570 -139.2900   42.8650 O   0  0  0  0  0  0
   62.9940 -133.4140   43.1460 C   0  0  0  0  0  0
   63.7670 -132.4090   42.5210 C   0  0  0  0  0  0
   64.6200 -132.6040   41.4260 C   0  0  0  0  0  0
   65.3300 -131.5320   40.8890 C   0  0  0  0  0  0
   65.1990 -130.2540   41.4240 C   0  0  0  0  0  0
   64.3530 -130.0430   42.5060 C   0  0  0  0  0  0
   63.6480 -131.1170   43.0430 C   0  0  0  0  0  0
   58.1083 -132.2781   34.1583 H   0  0  0  0  0  0
   57.9539 -133.6568   33.0172 H   0  0  0  0  0  0
   55.7586 -132.9228   33.0413 H   0  0  0  0  0  0
   55.7702 -134.7184   33.0878 H   0  0  0  0  0  0
   57.1590 -133.0069   36.6640 H   0  0  0  0  0  0
   56.5284 -131.8000   35.4925 H   0  0  0  0  0  0
   54.1142 -134.7865   34.7478 H   0  0  0  0  0  0
   53.5632 -133.6114   33.5059 H   0  0  0  0  0  0
   54.8738 -132.2440   37.2065 H   0  0  0  0  0  0
   54.9184 -134.0009   36.8352 H   0  0  0  0  0  0
   59.9754 -132.1971   35.1044 H   0  0  0  0  0  0
   61.4994 -134.7863   35.5853 H   0  0  0  0  0  0
   62.7004 -132.7787   34.7541 H   0  0  0  0  0  0
   63.2919 -133.2083   36.3950 H   0  0  0  0  0  0
   62.1493 -131.8386   36.1822 H   0  0  0  0  0  0
   61.6089 -135.8572   37.4943 H   0  0  0  0  0  0
   60.1223 -134.4652   39.7873 H   0  0  0  0  0  0
   60.7516 -137.3360   39.1390 H   0  0  0  0  0  0
   60.3957 -136.8417   40.8289 H   0  0  0  0  0  0
   59.1916 -136.8825   37.3559 H   0  0  0  0  0  0
   56.7945 -136.6777   36.7731 H   0  0  0  0  0  0
   53.2233 -137.1093   37.5938 H   0  0  0  0  0  0
   54.3904 -138.1804   38.4407 H   0  0  0  0  0  0
   54.8251 -137.4528   36.8569 H   0  0  0  0  0  0
   55.8692 -135.8438   40.8882 H   0  0  0  0  0  0
   58.2703 -136.0411   41.4700 H   0  0  0  0  0  0
   60.9786 -135.0005   41.9653 H   0  0  0  0  0  0
   64.0502 -134.9248   41.9359 H   0  0  0  0  0  0
   63.6746 -135.4211   44.4544 H   0  0  0  0  0  0
   61.1787 -134.9025   44.4796 H   0  0  0  0  0  0
   63.6287 -137.9247   44.2242 H   0  0  0  0  0  0
   65.6019 -136.8959   43.1223 H   0  0  0  0  0  0
   64.6715 -136.7355   41.5941 H   0  0  0  0  0  0
   65.0567 -138.3651   42.2442 H   0  0  0  0  0  0
   61.4445 -137.3479   42.5793 H   0  0  0  0  0  0
   62.6780 -137.9001   41.3960 H   0  0  0  0  0  0
   61.3974 -139.9049   42.3601 H   0  0  0  0  0  0
   61.9449 -133.0868   43.0970 H   0  0  0  0  0  0
   63.3159 -133.4572   44.1970 H   0  0  0  0  0  0
   64.7284 -133.5983   40.9928 H   0  0  0  0  0  0
   65.9949 -131.6961   40.0411 H   0  0  0  0  0  0
   65.7578 -129.4218   40.9960 H   0  0  0  0  0  0
   64.2422 -129.0453   42.9307 H   0  0  0  0  0  0
   62.9863 -130.9464   43.8922 H   0  0  0  0  0  0
  1  2  2  0  0  0
  1  3  1  0  0  0
  1 10  1  0  0  0
  3  4  1  0  0  0
  3 43  1  0  0  0
  3 44  1  0  0  0
  4  6  1  0  0  0
  4  7  1  0  0  0
  5  8  1  0  0  0
  5  9  1  0  0  0
  6  8  1  0  0  0
  6 45  1  0  0  0
  6 46  1  0  0  0
  7  9  1  0  0  0
  7 47  1  0  0  0
  7 48  1  0  0  0
  8 49  1  0  0  0
  8 50  1  0  0  0
  9 51  1  0  0  0
  9 52  1  0  0  0
 10 11  1  0  0  0
 10 53  1  0  0  0
 11 12  1  0  0  0
 11 14  1  0  0  0
 11 54  1  0  0  0
 12 13  2  0  0  0
 12 15  1  0  0  0
 14 55  1  0  0  0
 14 56  1  0  0  0
 14 57  1  0  0  0
 15 16  1  0  0  0
 15 58  1  0  0  0
 16 17  1  0  0  0
 16 26  1  0  0  0
 16 59  1  0  0  0
 17 18  1  0  0  0
 17 60  1  0  0  0
 17 61  1  0  0  0
 18 19  2  0  0  0
 18 25  1  0  0  0
 19 20  1  0  0  0
 19 62  1  0  0  0
 20 21  2  0  0  0
 20 63  1  0  0  0
 21 22  1  0  0  0
 21 24  1  0  0  0
 22 23  1  0  0  0
 23 64  1  0  0  0
 23 65  1  0  0  0
 23 66  1  0  0  0
 24 25  2  0  0  0
 24 67  1  0  0  0
 25 68  1  0  0  0
 26 27  2  0  0  0
 26 28  1  0  0  0
 28 29  1  0  0  0
 28 69  1  0  0  0
 29 30  1  0  0  0
 29 36  1  0  0  0
 29 70  1  0  0  0
 30 31  1  0  0  0
 30 32  1  0  0  0
 30 71  1  0  0  0
 31 72  1  0  0  0
 32 33  1  0  0  0
 32 34  1  0  0  0
 32 73  1  0  0  0
 33 74  1  0  0  0
 33 75  1  0  0  0
 33 76  1  0  0  0
 34 35  1  0  0  0
 34 77  1  0  0  0
 34 78  1  0  0  0
 35 79  1  0  0  0
 36 37  1  0  0  0
 36 80  1  0  0  0
 36 81  1  0  0  0
 37 38  2  0  0  0
 37 42  1  0  0  0
 38 39  1  0  0  0
 38 82  1  0  0  0
 39 40  2  0  0  0
 39 83  1  0  0  0
 40 41  1  0  0  0
 40 84  1  0  0  0
 41 42  2  0  0  0
 41 85  1  0  0  0
 42 86  1  0  0  0
M  END
> <s_m_source_file>
../4qz4_ligand.sdf

> <i_m_source_file_index>
1

> <s_epik_input>
W0NIMl0xW0NIMl1PW0NIMl1bQ0gyXVtOSCtdMVtDSDJdQyg9TylbTkhdW0NAQEhdKFtDSDNdKUMoPU8pW05IXVtDQEBIXShbQ0gyXWMyW2NIXVtjSF1jKE9bQ0gzXSlbY0hdW2NIXTIpQyg9TylbTkhdW0NASF0oW0NAQEhdKFtPSF0pW0NASF0oW0NIM10pW0NIMl1bT0hdKVtDSDJdYzNbY0hdW2NIXVtjSF1bY0hdW2NIXTM=

> <s_epik_cmdline>
J2VwaWtfYXBwJywgJy1pbWFlJywgJ2xpZ2FuZF9wcm8ubWFlJywgJy1vbWFlJywgJ2xpZ2FuZF9wcmVwLm1hZScsICctbXMnLCAnMScsICctcGgnLCAnNycsICctcGh0JywgJzAuNScsICctbnQn

> <r_lp_tautomer_probability>
1

> <r_epik_Ionization_Penalty>
  0.0035

> <r_epik_Ionization_Penalty_Charging>
  0.0000

> <r_epik_Ionization_Penalty_Neutral>
  0.0035

> <r_epik_State_Penalty>
 -0.0000

> <r_epik_Charging_Adjusted_Penalty>
0

> <i_epik_Tot_Q>
0

> <i_epik_Tot_abs_Q>
0

$$$$
