4qz5_ligand
                    3D
 Schrodinger Suite 2020-3.
 86 88  0  0  1  0            999 V2000
   60.3510 -134.5050   34.1770 C   0  0  0  0  0  0
   60.3580 -135.7250   34.3520 O   0  0  0  0  0  0
   59.3790 -133.8260   33.2010 C   0  0  0  0  0  0
   58.5440 -134.8510   32.5740 N   0  0  0  0  0  0
   56.0130 -135.3630   31.5240 O   0  0  0  0  0  0
   58.2220 -134.3930   31.1900 C   0  0  0  0  0  0
   57.3360 -135.0770   33.4080 C   0  0  0  0  0  0
   57.1350 -135.2460   30.6050 C   0  0  0  0  0  0
   56.4310 -136.0420   32.7360 C   0  0  0  0  0  0
   61.1810 -133.6410   34.7820 N   0  0  0  0  0  0
   62.1900 -134.0770   35.7610 C   0  0  2  0  0  0
   61.5510 -134.1880   37.1540 C   0  0  0  0  0  0
   60.5740 -133.5030   37.4750 O   0  0  0  0  0  0
   63.3380 -133.0630   35.8180 C   0  0  0  0  0  0
   62.1390 -135.0970   37.9490 N   0  0  0  0  0  0
   61.7000 -135.3560   39.3290 C   0  0  1  0  0  0
   61.0960 -136.7400   39.4490 C   0  0  0  0  0  0
   59.6930 -136.6500   39.3770 C   0  0  0  0  0  0
   59.0690 -136.1460   38.2330 C   0  0  0  0  0  0
   57.6820 -136.0700   38.1500 C   0  0  0  0  0  0
   56.8950 -136.5100   39.2110 C   0  0  0  0  0  0
   55.5330 -136.4380   39.1190 O   0  0  0  0  0  0
   55.0010 -135.3380   39.8680 C   0  0  0  0  0  0
   57.5080 -137.0260   40.3570 C   0  0  0  0  0  0
   58.8980 -137.1000   40.4400 C   0  0  0  0  0  0
   62.9600 -135.3170   40.1920 C   0  0  0  0  0  0
   64.0730 -135.5050   39.6900 O   0  0  0  0  0  0
   62.7380 -135.1000   41.5000 N   0  0  0  0  0  0
   63.8500 -135.0230   42.4600 C   0  0  2  0  0  0
   63.7430 -136.1230   43.5500 C   0  0  1  0  0  0
   62.3880 -136.1210   44.0700 O   0  0  0  0  0  0
   64.1520 -137.6260   43.1170 C   0  0  2  0  0  0
   65.2950 -137.6280   42.0260 C   0  0  0  0  0  0
   62.9270 -138.2710   42.4510 C   0  0  0  0  0  0
   63.2840 -139.6070   42.0360 O   0  0  0  0  0  0
   63.8170 -133.6600   43.1540 C   0  0  0  0  0  0
   64.4950 -132.6480   42.4250 C   0  0  0  0  0  0
   65.3550 -132.8780   41.3350 C   0  0  0  0  0  0
   65.9740 -131.8090   40.6830 C   0  0  0  0  0  0
   65.7570 -130.4970   41.1050 C   0  0  0  0  0  0
   64.9090 -130.2530   42.1860 C   0  0  0  0  0  0
   64.2880 -131.3230   42.8350 C   0  0  0  0  0  0
   58.7449 -133.1147   33.7505 H   0  0  0  0  0  0
   59.9498 -133.2883   32.4296 H   0  0  0  0  0  0
   57.8837 -133.3467   31.2194 H   0  0  0  0  0  0
   59.1203 -134.4703   30.5599 H   0  0  0  0  0  0
   57.6360 -135.4817   34.3858 H   0  0  0  0  0  0
   56.8066 -134.1237   33.5526 H   0  0  0  0  0  0
   57.5443 -136.2456   30.3969 H   0  0  0  0  0  0
   56.7932 -134.7869   29.6656 H   0  0  0  0  0  0
   55.5480 -136.2729   33.3501 H   0  0  0  0  0  0
   56.9491 -136.9760   32.4730 H   0  0  0  0  0  0
   61.0889 -132.5755   34.5245 H   0  0  0  0  0  0
   62.5555 -135.0557   35.4167 H   0  0  0  0  0  0
   63.8013 -132.9774   34.8240 H   0  0  0  0  0  0
   64.0905 -133.4016   36.5454 H   0  0  0  0  0  0
   62.9460 -132.0823   36.1255 H   0  0  0  0  0  0
   62.9842 -135.6597   37.5260 H   0  0  0  0  0  0
   60.9436 -134.6059   39.6032 H   0  0  0  0  0  0
   61.4645 -137.3733   38.6285 H   0  0  0  0  0  0
   61.3851 -137.1839   40.4130 H   0  0  0  0  0  0
   59.6770 -135.8077   37.3940 H   0  0  0  0  0  0
   57.2114 -135.6658   37.2538 H   0  0  0  0  0  0
   53.9060 -135.3198   39.7650 H   0  0  0  0  0  0
   55.4211 -134.3963   39.4849 H   0  0  0  0  0  0
   55.2676 -135.4537   40.9289 H   0  0  0  0  0  0
   56.8960 -137.3722   41.1899 H   0  0  0  0  0  0
   59.3678 -137.5091   41.3344 H   0  0  0  0  0  0
   61.7015 -134.9792   41.8481 H   0  0  0  0  0  0
   64.7619 -135.1585   41.8599 H   0  0  0  0  0  0
   64.4178 -135.8005   44.3567 H   0  0  0  0  0  0
   61.9334 -135.1813   44.4170 H   0  0  0  0  0  0
   64.4791 -138.1962   43.9990 H   0  0  0  0  0  0
   66.2046 -137.1749   42.4471 H   0  0  0  0  0  0
   64.9676 -137.0475   41.1509 H   0  0  0  0  0  0
   65.5085 -138.6629   41.7205 H   0  0  0  0  0  0
   62.0963 -138.3101   43.1710 H   0  0  0  0  0  0
   62.6273 -137.6733   41.5776 H   0  0  0  0  0  0
   62.5410 -140.2439   41.5338 H   0  0  0  0  0  0
   62.7728 -133.3377   43.2795 H   0  0  0  0  0  0
   64.2974 -133.7390   44.1404 H   0  0  0  0  0  0
   65.5394 -133.8978   40.9971 H   0  0  0  0  0  0
   66.6329 -132.0017   39.8364 H   0  0  0  0  0  0
   66.2466 -129.6681   40.5937 H   0  0  0  0  0  0
   64.7318 -129.2316   42.5227 H   0  0  0  0  0  0
   63.6278 -131.1235   43.6790 H   0  0  0  0  0  0
  1  2  2  0  0  0
  1  3  1  0  0  0
  1 10  1  0  0  0
  3  4  1  0  0  0
  3 43  1  0  0  0
  3 44  1  0  0  0
  4  6  1  0  0  0
  4  7  1  0  0  0
  5  8  1  0  0  0
  5  9  1  0  0  0
  6  8  1  0  0  0
  6 45  1  0  0  0
  6 46  1  0  0  0
  7  9  1  0  0  0
  7 47  1  0  0  0
  7 48  1  0  0  0
  8 49  1  0  0  0
  8 50  1  0  0  0
  9 51  1  0  0  0
  9 52  1  0  0  0
 10 11  1  0  0  0
 10 53  1  0  0  0
 11 12  1  0  0  0
 11 14  1  0  0  0
 11 54  1  0  0  0
 12 13  2  0  0  0
 12 15  1  0  0  0
 14 55  1  0  0  0
 14 56  1  0  0  0
 14 57  1  0  0  0
 15 16  1  0  0  0
 15 58  1  0  0  0
 16 17  1  0  0  0
 16 26  1  0  0  0
 16 59  1  0  0  0
 17 18  1  0  0  0
 17 60  1  0  0  0
 17 61  1  0  0  0
 18 19  2  0  0  0
 18 25  1  0  0  0
 19 20  1  0  0  0
 19 62  1  0  0  0
 20 21  2  0  0  0
 20 63  1  0  0  0
 21 22  1  0  0  0
 21 24  1  0  0  0
 22 23  1  0  0  0
 23 64  1  0  0  0
 23 65  1  0  0  0
 23 66  1  0  0  0
 24 25  2  0  0  0
 24 67  1  0  0  0
 25 68  1  0  0  0
 26 27  2  0  0  0
 26 28  1  0  0  0
 28 29  1  0  0  0
 28 69  1  0  0  0
 29 30  1  0  0  0
 29 36  1  0  0  0
 29 70  1  0  0  0
 30 31  1  0  0  0
 30 32  1  0  0  0
 30 71  1  0  0  0
 31 72  1  0  0  0
 32 33  1  0  0  0
 32 34  1  0  0  0
 32 73  1  0  0  0
 33 74  1  0  0  0
 33 75  1  0  0  0
 33 76  1  0  0  0
 34 35  1  0  0  0
 34 77  1  0  0  0
 34 78  1  0  0  0
 35 79  1  0  0  0
 36 37  1  0  0  0
 36 80  1  0  0  0
 36 81  1  0  0  0
 37 38  2  0  0  0
 37 42  1  0  0  0
 38 39  1  0  0  0
 38 82  1  0  0  0
 39 40  2  0  0  0
 39 83  1  0  0  0
 40 41  1  0  0  0
 40 84  1  0  0  0
 41 42  2  0  0  0
 41 85  1  0  0  0
 42 86  1  0  0  0
M  END
> <s_m_source_file>
../4qz5_ligand.sdf

> <i_m_source_file_index>
1

> <s_epik_input>
W0NIMl0xW0NIMl1PW0NIMl1bQ0gyXVtOSCtdMVtDSDJdQyg9TylbTkhdW0NAQEhdKFtDSDNdKUMoPU8pW05IXVtDQEBIXShbQ0gyXWMyW2NIXVtjSF1jKE9bQ0gzXSlbY0hdW2NIXTIpQyg9TylbTkhdW0NASF0oW0NAQEhdKFtPSF0pW0NASF0oW0NIM10pW0NIMl1bT0hdKVtDSDJdYzNbY0hdW2NIXVtjSF1bY0hdW2NIXTM=

> <s_epik_cmdline>
J2VwaWtfYXBwJywgJy1pbWFlJywgJ2xpZ2FuZF9wcm8ubWFlJywgJy1vbWFlJywgJ2xpZ2FuZF9wcmVwLm1hZScsICctbXMnLCAnMScsICctcGgnLCAnNycsICctcGh0JywgJzAuNScsICctbnQn

> <r_lp_tautomer_probability>
1

> <r_epik_Ionization_Penalty>
  0.0035

> <r_epik_Ionization_Penalty_Charging>
  0.0000

> <r_epik_Ionization_Penalty_Neutral>
  0.0035

> <r_epik_State_Penalty>
 -0.0000

> <r_epik_Charging_Adjusted_Penalty>
0

> <i_epik_Tot_Q>
0

> <i_epik_Tot_abs_Q>
0

$$$$
