4qz6_ligand
                    3D
 Schrodinger Suite 2020-3.
 86 88  0  0  1  0            999 V2000
   59.2050 -134.4830   34.5070 C   0  0  0  0  0  0
   59.1640 -135.7070   34.6300 O   0  0  0  0  0  0
   58.0900 -133.7270   33.7680 C   0  0  0  0  0  0
   56.8270 -134.0850   34.4130 N   0  0  0  0  0  0
   54.3460 -133.0810   35.1910 O   0  0  0  0  0  0
   55.7490 -133.8880   33.4130 C   0  0  0  0  0  0
   56.6350 -133.2460   35.6180 C   0  0  0  0  0  0
   54.4190 -133.9830   34.0730 C   0  0  0  0  0  0
   55.2840 -133.4150   36.2320 C   0  0  0  0  0  0
   60.1950 -133.7010   34.9670 N   0  0  0  0  0  0
   61.3390 -134.2280   35.7160 C   0  0  2  0  0  0
   60.9320 -134.3190   37.1830 C   0  0  0  0  0  0
   60.2320 -133.4410   37.6850 O   0  0  0  0  0  0
   62.5190 -133.2650   35.5670 C   0  0  0  0  0  0
   61.3740 -135.4010   37.8410 N   0  0  0  0  0  0
   61.0460 -135.6130   39.2590 C   0  0  1  0  0  0
   60.4550 -136.9780   39.4740 C   0  0  0  0  0  0
   59.1200 -136.9000   39.0850 C   0  0  0  0  0  0
   58.7520 -137.1620   37.7680 C   0  0  0  0  0  0
   57.4180 -137.0890   37.3840 C   0  0  0  0  0  0
   56.4330 -136.7590   38.3080 C   0  0  0  0  0  0
   55.1450 -136.7070   37.8450 O   0  0  0  0  0  0
   54.0510 -136.5160   38.7770 C   0  0  0  0  0  0
   56.8090 -136.4950   39.6320 C   0  0  0  0  0  0
   58.1420 -136.5690   40.0170 C   0  0  0  0  0  0
   62.3180 -135.5210   40.0950 C   0  0  0  0  0  0
   63.4310 -135.6030   39.5770 O   0  0  0  0  0  0
   62.0820 -135.3770   41.4040 N   0  0  0  0  0  0
   63.1410 -135.2340   42.3980 C   0  0  2  0  0  0
   62.9970 -136.2860   43.5180 C   0  0  1  0  0  0
   61.6570 -136.2450   44.0310 O   0  0  0  0  0  0
   63.3750 -137.8060   43.1550 C   0  0  2  0  0  0
   64.4260 -137.8710   41.9890 C   0  0  0  0  0  0
   62.0780 -138.4830   42.6890 C   0  0  0  0  0  0
   62.4400 -139.6010   41.8630 O   0  0  0  0  0  0
   62.9650 -133.8710   43.0510 C   0  0  0  0  0  0
   63.7250 -132.8360   42.4580 C   0  0  0  0  0  0
   64.4510 -132.9420   41.2630 C   0  0  0  0  0  0
   65.1500 -131.8440   40.7650 C   0  0  0  0  0  0
   65.1310 -130.6270   41.4420 C   0  0  0  0  0  0
   64.4080 -130.5050   42.6240 C   0  0  0  0  0  0
   63.7120 -131.6040   43.1190 C   0  0  0  0  0  0
   58.2699 -132.6443   33.8418 H   0  0  0  0  0  0
   58.0833 -134.0262   32.7095 H   0  0  0  0  0  0
   55.8539 -132.8950   32.9516 H   0  0  0  0  0  0
   55.8235 -134.6630   32.6360 H   0  0  0  0  0  0
   57.3847 -133.5163   36.3762 H   0  0  0  0  0  0
   56.7514 -132.1858   35.3490 H   0  0  0  0  0  0
   54.2669 -135.0145   34.4236 H   0  0  0  0  0  0
   53.6382 -133.7252   33.3423 H   0  0  0  0  0  0
   55.1419 -132.7356   37.0854 H   0  0  0  0  0  0
   55.1167 -134.4524   36.5574 H   0  0  0  0  0  0
   60.1222 -132.6230   34.7606 H   0  0  0  0  0  0
   61.6014 -135.2175   35.3135 H   0  0  0  0  0  0
   62.8095 -133.2021   34.5079 H   0  0  0  0  0  0
   63.3697 -133.6331   36.1593 H   0  0  0  0  0  0
   62.2260 -132.2676   35.9267 H   0  0  0  0  0  0
   61.9910 -136.1360   37.3033 H   0  0  0  0  0  0
   60.3107 -134.8398   39.5264 H   0  0  0  0  0  0
   60.9990 -137.7134   38.8631 H   0  0  0  0  0  0
   60.5384 -137.2505   40.5364 H   0  0  0  0  0  0
   59.5138 -137.4257   37.0343 H   0  0  0  0  0  0
   57.1418 -137.2923   36.3494 H   0  0  0  0  0  0
   53.0988 -136.5006   38.2265 H   0  0  0  0  0  0
   54.1835 -135.5614   39.3072 H   0  0  0  0  0  0
   54.0407 -137.3411   39.5044 H   0  0  0  0  0  0
   56.0488 -136.2292   40.3665 H   0  0  0  0  0  0
   58.4217 -136.3673   41.0510 H   0  0  0  0  0  0
   61.0279 -135.3695   41.7184 H   0  0  0  0  0  0
   64.0934 -135.3500   41.8600 H   0  0  0  0  0  0
   63.6691 -135.9352   44.3150 H   0  0  0  0  0  0
   61.2144 -135.2857   44.3373 H   0  0  0  0  0  0
   63.8003 -138.3362   44.0199 H   0  0  0  0  0  0
   65.3608 -137.3887   42.3107 H   0  0  0  0  0  0
   64.0280 -137.3477   41.1071 H   0  0  0  0  0  0
   64.6250 -138.9221   41.7329 H   0  0  0  0  0  0
   61.5072 -138.8242   43.5652 H   0  0  0  0  0  0
   61.4745 -137.7639   42.1157 H   0  0  0  0  0  0
   61.6569 -140.2328   41.4185 H   0  0  0  0  0  0
   61.9091 -133.5688   42.9899 H   0  0  0  0  0  0
   63.2695 -133.9280   44.1065 H   0  0  0  0  0  0
   64.4687 -133.8876   40.7211 H   0  0  0  0  0  0
   65.7161 -131.9384   39.8383 H   0  0  0  0  0  0
   65.6809 -129.7729   41.0468 H   0  0  0  0  0  0
   64.3866 -129.5555   43.1588 H   0  0  0  0  0  0
   63.1436 -131.5018   44.0434 H   0  0  0  0  0  0
  1  2  2  0  0  0
  1  3  1  0  0  0
  1 10  1  0  0  0
  3  4  1  0  0  0
  3 43  1  0  0  0
  3 44  1  0  0  0
  4  6  1  0  0  0
  4  7  1  0  0  0
  5  8  1  0  0  0
  5  9  1  0  0  0
  6  8  1  0  0  0
  6 45  1  0  0  0
  6 46  1  0  0  0
  7  9  1  0  0  0
  7 47  1  0  0  0
  7 48  1  0  0  0
  8 49  1  0  0  0
  8 50  1  0  0  0
  9 51  1  0  0  0
  9 52  1  0  0  0
 10 11  1  0  0  0
 10 53  1  0  0  0
 11 12  1  0  0  0
 11 14  1  0  0  0
 11 54  1  0  0  0
 12 13  2  0  0  0
 12 15  1  0  0  0
 14 55  1  0  0  0
 14 56  1  0  0  0
 14 57  1  0  0  0
 15 16  1  0  0  0
 15 58  1  0  0  0
 16 17  1  0  0  0
 16 26  1  0  0  0
 16 59  1  0  0  0
 17 18  1  0  0  0
 17 60  1  0  0  0
 17 61  1  0  0  0
 18 19  2  0  0  0
 18 25  1  0  0  0
 19 20  1  0  0  0
 19 62  1  0  0  0
 20 21  2  0  0  0
 20 63  1  0  0  0
 21 22  1  0  0  0
 21 24  1  0  0  0
 22 23  1  0  0  0
 23 64  1  0  0  0
 23 65  1  0  0  0
 23 66  1  0  0  0
 24 25  2  0  0  0
 24 67  1  0  0  0
 25 68  1  0  0  0
 26 27  2  0  0  0
 26 28  1  0  0  0
 28 29  1  0  0  0
 28 69  1  0  0  0
 29 30  1  0  0  0
 29 36  1  0  0  0
 29 70  1  0  0  0
 30 31  1  0  0  0
 30 32  1  0  0  0
 30 71  1  0  0  0
 31 72  1  0  0  0
 32 33  1  0  0  0
 32 34  1  0  0  0
 32 73  1  0  0  0
 33 74  1  0  0  0
 33 75  1  0  0  0
 33 76  1  0  0  0
 34 35  1  0  0  0
 34 77  1  0  0  0
 34 78  1  0  0  0
 35 79  1  0  0  0
 36 37  1  0  0  0
 36 80  1  0  0  0
 36 81  1  0  0  0
 37 38  2  0  0  0
 37 42  1  0  0  0
 38 39  1  0  0  0
 38 82  1  0  0  0
 39 40  2  0  0  0
 39 83  1  0  0  0
 40 41  1  0  0  0
 40 84  1  0  0  0
 41 42  2  0  0  0
 41 85  1  0  0  0
 42 86  1  0  0  0
M  END
> <s_m_source_file>
../4qz6_ligand.sdf

> <i_m_source_file_index>
1

> <s_epik_input>
W0NIMl0xW0NIMl1PW0NIMl1bQ0gyXVtOSCtdMVtDSDJdQyg9TylbTkhdW0NAQEhdKFtDSDNdKUMoPU8pW05IXVtDQEBIXShbQ0gyXWMyW2NIXVtjSF1jKE9bQ0gzXSlbY0hdW2NIXTIpQyg9TylbTkhdW0NASF0oW0NAQEhdKFtPSF0pW0NASF0oW0NIM10pW0NIMl1bT0hdKVtDSDJdYzNbY0hdW2NIXVtjSF1bY0hdW2NIXTM=

> <s_epik_cmdline>
J2VwaWtfYXBwJywgJy1pbWFlJywgJ2xpZ2FuZF9wcm8ubWFlJywgJy1vbWFlJywgJ2xpZ2FuZF9wcmVwLm1hZScsICctbXMnLCAnMScsICctcGgnLCAnNycsICctcGh0JywgJzAuNScsICctbnQn

> <r_lp_tautomer_probability>
1

> <r_epik_Ionization_Penalty>
  0.0035

> <r_epik_Ionization_Penalty_Charging>
  0.0000

> <r_epik_Ionization_Penalty_Neutral>
  0.0035

> <r_epik_State_Penalty>
 -0.0000

> <r_epik_Charging_Adjusted_Penalty>
0

> <i_epik_Tot_Q>
0

> <i_epik_Tot_abs_Q>
0

$$$$
