4qz7_ligand
                    3D
 Schrodinger Suite 2020-3.
 86 88  0  0  1  0            999 V2000
   59.5390 -134.7650   34.9870 C   0  0  0  0  0  0
   59.7310 -135.9790   34.9210 O   0  0  0  0  0  0
   58.3650 -134.1180   34.2300 C   0  0  0  0  0  0
   57.1250 -134.5570   34.8780 N   0  0  0  0  0  0
   54.5850 -133.7720   35.7260 O   0  0  0  0  0  0
   56.8900 -133.7540   36.1030 C   0  0  0  0  0  0
   56.0190 -134.3920   33.8960 C   0  0  0  0  0  0
   55.5720 -134.0510   36.7470 C   0  0  0  0  0  0
   54.7170 -134.6310   34.5740 C   0  0  0  0  0  0
   60.3230 -133.9120   35.6730 N   0  0  0  0  0  0
   61.4770 -134.3760   36.4570 C   0  0  2  0  0  0
   61.0450 -134.4750   37.9200 C   0  0  0  0  0  0
   60.3160 -133.6180   38.4210 O   0  0  0  0  0  0
   62.6430 -133.3930   36.3200 C   0  0  0  0  0  0
   61.5060 -135.5560   38.5660 N   0  0  0  0  0  0
   61.1860 -135.8180   39.9730 C   0  0  1  0  0  0
   60.6140 -137.2080   40.1150 C   0  0  0  0  0  0
   59.2430 -137.1070   39.8200 C   0  0  0  0  0  0
   58.2870 -137.1410   40.8400 C   0  0  0  0  0  0
   56.9290 -137.0450   40.5370 C   0  0  0  0  0  0
   56.5120 -136.9170   39.2130 C   0  0  0  0  0  0
   55.1810 -136.8230   38.9210 O   0  0  0  0  0  0
   54.7160 -137.8570   38.0330 C   0  0  0  0  0  0
   57.4640 -136.8800   38.1950 C   0  0  0  0  0  0
   58.8180 -136.9800   38.4970 C   0  0  0  0  0  0
   62.4830 -135.7010   40.7740 C   0  0  0  0  0  0
   63.5710 -135.6730   40.1960 O   0  0  0  0  0  0
   62.3190 -135.6270   42.1060 N   0  0  0  0  0  0
   63.4560 -135.4760   43.0240 C   0  0  2  0  0  0
   63.4210 -136.5230   44.1660 C   0  0  1  0  0  0
   62.1110 -136.5080   44.7640 O   0  0  0  0  0  0
   63.7980 -138.0250   43.7780 C   0  0  2  0  0  0
   64.8340 -138.0770   42.5930 C   0  0  0  0  0  0
   62.4990 -138.7020   43.3200 C   0  0  0  0  0  0
   62.8660 -139.8700   42.5730 O   0  0  0  0  0  0
   63.3830 -134.0920   43.6670 C   0  0  0  0  0  0
   64.0910 -133.0870   42.9570 C   0  0  0  0  0  0
   63.9180 -131.7710   43.4010 C   0  0  0  0  0  0
   64.5620 -130.7020   42.7800 C   0  0  0  0  0  0
   65.3990 -130.9370   41.6930 C   0  0  0  0  0  0
   65.5860 -132.2390   41.2360 C   0  0  0  0  0  0
   64.9410 -133.3060   41.8600 C   0  0  0  0  0  0
   58.4564 -133.0229   34.2785 H   0  0  0  0  0  0
   58.3839 -134.4413   33.1787 H   0  0  0  0  0  0
   57.6793 -133.9680   36.8387 H   0  0  0  0  0  0
   56.9062 -132.6839   35.8487 H   0  0  0  0  0  0
   56.0393 -133.3702   33.4892 H   0  0  0  0  0  0
   56.1450 -135.1153   33.0769 H   0  0  0  0  0  0
   55.3910 -133.4045   37.6183 H   0  0  0  0  0  0
   55.4971 -135.1055   37.0510 H   0  0  0  0  0  0
   54.6668 -135.6825   34.8930 H   0  0  0  0  0  0
   53.9010 -134.4232   33.8662 H   0  0  0  0  0  0
   60.0790 -132.8401   35.6351 H   0  0  0  0  0  0
   61.7825 -135.3564   36.0628 H   0  0  0  0  0  0
   62.9463 -133.3288   35.2646 H   0  0  0  0  0  0
   63.4919 -133.7445   36.9248 H   0  0  0  0  0  0
   62.3283 -132.3996   36.6722 H   0  0  0  0  0  0
   62.1428 -136.2574   38.0070 H   0  0  0  0  0  0
   60.4328 -135.0894   40.3074 H   0  0  0  0  0  0
   61.1189 -137.8859   39.4111 H   0  0  0  0  0  0
   60.7697 -137.5653   41.1436 H   0  0  0  0  0  0
   58.6049 -137.2431   41.8776 H   0  0  0  0  0  0
   56.1908 -137.0702   41.3386 H   0  0  0  0  0  0
   53.6414 -137.7203   37.8420 H   0  0  0  0  0  0
   54.8840 -138.8407   38.4958 H   0  0  0  0  0  0
   55.2675 -137.7997   37.0829 H   0  0  0  0  0  0
   57.1458 -136.7722   37.1581 H   0  0  0  0  0  0
   59.5537 -136.9590   37.6930 H   0  0  0  0  0  0
   61.2949 -135.6829   42.5035 H   0  0  0  0  0  0
   64.3520 -135.6099   42.4001 H   0  0  0  0  0  0
   64.1436 -136.1689   44.9160 H   0  0  0  0  0  0
   61.6711 -135.5578   45.1011 H   0  0  0  0  0  0
   64.2361 -138.5542   44.6371 H   0  0  0  0  0  0
   65.7724 -137.5952   42.9050 H   0  0  0  0  0  0
   64.4215 -137.5469   41.7219 H   0  0  0  0  0  0
   65.0317 -139.1253   42.3245 H   0  0  0  0  0  0
   61.9001 -138.9794   44.2000 H   0  0  0  0  0  0
   61.9251 -138.0061   42.6904 H   0  0  0  0  0  0
   62.0859 -140.5159   42.1437 H   0  0  0  0  0  0
   62.3329 -133.7696   43.7250 H   0  0  0  0  0  0
   63.8097 -134.1353   44.6799 H   0  0  0  0  0  0
   63.2647 -131.5776   44.2518 H   0  0  0  0  0  0
   64.4107 -129.6859   43.1443 H   0  0  0  0  0  0
   65.9055 -130.1061   41.2020 H   0  0  0  0  0  0
   66.2409 -132.4252   40.3848 H   0  0  0  0  0  0
   65.0978 -134.3203   41.4930 H   0  0  0  0  0  0
  1  2  2  0  0  0
  1  3  1  0  0  0
  1 10  1  0  0  0
  3  4  1  0  0  0
  3 43  1  0  0  0
  3 44  1  0  0  0
  4  6  1  0  0  0
  4  7  1  0  0  0
  5  8  1  0  0  0
  5  9  1  0  0  0
  6  8  1  0  0  0
  6 45  1  0  0  0
  6 46  1  0  0  0
  7  9  1  0  0  0
  7 47  1  0  0  0
  7 48  1  0  0  0
  8 49  1  0  0  0
  8 50  1  0  0  0
  9 51  1  0  0  0
  9 52  1  0  0  0
 10 11  1  0  0  0
 10 53  1  0  0  0
 11 12  1  0  0  0
 11 14  1  0  0  0
 11 54  1  0  0  0
 12 13  2  0  0  0
 12 15  1  0  0  0
 14 55  1  0  0  0
 14 56  1  0  0  0
 14 57  1  0  0  0
 15 16  1  0  0  0
 15 58  1  0  0  0
 16 17  1  0  0  0
 16 26  1  0  0  0
 16 59  1  0  0  0
 17 18  1  0  0  0
 17 60  1  0  0  0
 17 61  1  0  0  0
 18 19  2  0  0  0
 18 25  1  0  0  0
 19 20  1  0  0  0
 19 62  1  0  0  0
 20 21  2  0  0  0
 20 63  1  0  0  0
 21 22  1  0  0  0
 21 24  1  0  0  0
 22 23  1  0  0  0
 23 64  1  0  0  0
 23 65  1  0  0  0
 23 66  1  0  0  0
 24 25  2  0  0  0
 24 67  1  0  0  0
 25 68  1  0  0  0
 26 27  2  0  0  0
 26 28  1  0  0  0
 28 29  1  0  0  0
 28 69  1  0  0  0
 29 30  1  0  0  0
 29 36  1  0  0  0
 29 70  1  0  0  0
 30 31  1  0  0  0
 30 32  1  0  0  0
 30 71  1  0  0  0
 31 72  1  0  0  0
 32 33  1  0  0  0
 32 34  1  0  0  0
 32 73  1  0  0  0
 33 74  1  0  0  0
 33 75  1  0  0  0
 33 76  1  0  0  0
 34 35  1  0  0  0
 34 77  1  0  0  0
 34 78  1  0  0  0
 35 79  1  0  0  0
 36 37  1  0  0  0
 36 80  1  0  0  0
 36 81  1  0  0  0
 37 38  2  0  0  0
 37 42  1  0  0  0
 38 39  1  0  0  0
 38 82  1  0  0  0
 39 40  2  0  0  0
 39 83  1  0  0  0
 40 41  1  0  0  0
 40 84  1  0  0  0
 41 42  2  0  0  0
 41 85  1  0  0  0
 42 86  1  0  0  0
M  END
> <s_m_source_file>
../4qz7_ligand.sdf

> <i_m_source_file_index>
1

> <s_epik_input>
W0NIMl0xW0NIMl1PW0NIMl1bQ0gyXVtOSCtdMVtDSDJdQyg9TylbTkhdW0NAQEhdKFtDSDNdKUMoPU8pW05IXVtDQEBIXShbQ0gyXWMyW2NIXVtjSF1jKE9bQ0gzXSlbY0hdW2NIXTIpQyg9TylbTkhdW0NASF0oW0NAQEhdKFtPSF0pW0NASF0oW0NIM10pW0NIMl1bT0hdKVtDSDJdYzNbY0hdW2NIXVtjSF1bY0hdW2NIXTM=

> <s_epik_cmdline>
J2VwaWtfYXBwJywgJy1pbWFlJywgJ2xpZ2FuZF9wcm8ubWFlJywgJy1vbWFlJywgJ2xpZ2FuZF9wcmVwLm1hZScsICctbXMnLCAnMScsICctcGgnLCAnNycsICctcGh0JywgJzAuNScsICctbnQn

> <r_lp_tautomer_probability>
1

> <r_epik_Ionization_Penalty>
  0.0035

> <r_epik_Ionization_Penalty_Charging>
  0.0000

> <r_epik_Ionization_Penalty_Neutral>
  0.0035

> <r_epik_State_Penalty>
 -0.0000

> <r_epik_Charging_Adjusted_Penalty>
0

> <i_epik_Tot_Q>
0

> <i_epik_Tot_abs_Q>
0

$$$$
