4qzs_ligand
                    3D
 Schrodinger Suite 2020-3.
 56 59  0  0  1  0            999 V2000
   11.5710   -3.3840    1.6370 C   0  0  0  0  0  0
    6.8330   -7.2430    1.3040 C   0  0  0  0  0  0
    7.2430   -7.4230   -1.7400 C   0  0  0  0  0  0
   10.3650  -10.8150   -3.5470 C   0  0  0  0  0  0
   12.4180  -11.0330   -5.0480 C   0  0  0  0  0  0
   10.7280   -9.1720   -5.4670 C   0  0  0  0  0  0
   13.5770   -8.2360   -4.8940 O   0  0  0  0  0  0
    6.4180   -3.7560   -6.7460 Cl  0  0  0  0  0  0
    7.1220   -4.2780   -4.1930 C   0  0  0  0  0  0
    8.6120   -5.1170   -5.9260 C   0  0  0  0  0  0
    7.9820   -4.8430   -3.2280 C   0  0  0  0  0  0
    9.4590   -5.6880   -4.9540 C   0  0  0  0  0  0
   13.4810   -7.3400   -2.6990 C   0  0  0  0  0  0
   11.2620   -6.2630   -2.8600 N   0  0  0  0  0  0
   13.4520   -4.1880    0.2310 N   0  0  0  0  0  0
   13.6630   -5.0880   -0.7180 N   0  0  0  0  0  0
   12.0630   -9.1140   -3.4770 O   0  0  0  0  0  0
    9.3940   -6.0670    1.3880 S   0  0  0  0  0  0
   13.0730   -8.2670   -3.7490 C   0  0  0  0  0  0
   10.0100   -6.1370   -2.5670 C   0  0  0  0  0  0
    7.4470   -4.4080   -5.5560 C   0  0  0  0  0  0
   12.1570   -4.2770    0.6050 C   0  0  0  0  0  0
    9.1640   -5.5660   -3.5700 C   0  0  0  0  0  0
    8.0180   -6.7670    0.5550 C   0  0  0  0  0  0
    8.2730   -6.8240   -0.8260 C   0  0  0  0  0  0
   12.5340   -5.7780   -0.9140 C   0  0  0  0  0  0
    9.5420   -6.2600   -1.2130 C   0  0  0  0  0  0
   10.2990   -5.7900   -0.1040 C   0  0  0  0  0  0
   12.2250   -6.7940   -1.9550 C   0  0  2  0  0  0
   11.5740   -5.2650   -0.1180 N   0  0  0  0  0  0
   11.4230  -10.0330   -4.3850 C   0  0  0  0  0  0
   12.3458   -2.6992    2.0121 H   0  0  0  0  0  0
   11.1834   -3.9901    2.4691 H   0  0  0  0  0  0
   10.7498   -2.8013    1.1942 H   0  0  0  0  0  0
    6.9696   -7.0368    2.3758 H   0  0  0  0  0  0
    6.7133   -8.3257    1.1513 H   0  0  0  0  0  0
    5.9357   -6.7201    0.9414 H   0  0  0  0  0  0
    6.3827   -7.7674   -1.1473 H   0  0  0  0  0  0
    7.6822   -8.2757   -2.2785 H   0  0  0  0  0  0
    6.9097   -6.6647   -2.4637 H   0  0  0  0  0  0
    9.8434  -11.5349   -4.1948 H   0  0  0  0  0  0
    9.6366  -10.1076   -3.1240 H   0  0  0  0  0  0
   10.8690  -11.3540   -2.7312 H   0  0  0  0  0  0
   11.8679  -11.7025   -5.7256 H   0  0  0  0  0  0
   12.9142  -11.6283   -4.2674 H   0  0  0  0  0  0
   13.1739  -10.4738   -5.6189 H   0  0  0  0  0  0
   10.2215   -9.8293   -6.1891 H   0  0  0  0  0  0
   11.4802   -8.5632   -5.9901 H   0  0  0  0  0  0
    9.9883   -8.5116   -4.9908 H   0  0  0  0  0  0
    6.2194   -3.7487   -3.8875 H   0  0  0  0  0  0
    8.8604   -5.2244   -6.9819 H   0  0  0  0  0  0
    7.7325   -4.7219   -2.1739 H   0  0  0  0  0  0
   10.3511   -6.2296   -5.2686 H   0  0  0  0  0  0
   14.1295   -7.8625   -1.9803 H   0  0  0  0  0  0
   14.0317   -6.4992   -3.1459 H   0  0  0  0  0  0
   11.7221   -7.6302   -1.4471 H   0  0  0  0  0  0
  1 22  1  0  0  0
  1 32  1  0  0  0
  1 33  1  0  0  0
  1 34  1  0  0  0
  2 24  1  0  0  0
  2 35  1  0  0  0
  2 36  1  0  0  0
  2 37  1  0  0  0
  3 25  1  0  0  0
  3 38  1  0  0  0
  3 39  1  0  0  0
  3 40  1  0  0  0
  4 31  1  0  0  0
  4 41  1  0  0  0
  4 42  1  0  0  0
  4 43  1  0  0  0
  5 31  1  0  0  0
  5 44  1  0  0  0
  5 45  1  0  0  0
  5 46  1  0  0  0
  6 31  1  0  0  0
  6 47  1  0  0  0
  6 48  1  0  0  0
  6 49  1  0  0  0
  7 19  2  0  0  0
  8 21  1  0  0  0
  9 11  2  0  0  0
  9 21  1  0  0  0
  9 50  1  0  0  0
 10 12  1  0  0  0
 10 21  2  0  0  0
 10 51  1  0  0  0
 11 23  1  0  0  0
 11 52  1  0  0  0
 12 23  2  0  0  0
 12 53  1  0  0  0
 13 19  1  0  0  0
 13 29  1  0  0  0
 13 54  1  0  0  0
 13 55  1  0  0  0
 14 20  2  0  0  0
 14 29  1  0  0  0
 15 16  1  0  0  0
 15 22  2  0  0  0
 16 26  2  0  0  0
 17 19  1  0  0  0
 17 31  1  0  0  0
 18 24  1  0  0  0
 18 28  1  0  0  0
 20 23  1  0  0  0
 20 27  1  0  0  0
 22 30  1  0  0  0
 24 25  2  0  0  0
 25 27  1  0  0  0
 26 29  1  0  0  0
 26 30  1  0  0  0
 27 28  2  0  0  0
 28 30  1  0  0  0
 29 56  1  0  0  0
M  END
> <s_m_source_file>
../4qzs_ligand.sdf

> <i_m_source_file_index>
1

> <s_epik_input>
bjFuYyhbQ0gzXSluKGMxMiljM2MoYyhbQ0gzXSljKHMzKVtDSDNdKUMoYyhbY0hdW2NIXTQpW2NIXVtjSF1jNENsKT1OW0NASF0yW0NIMl1DKD1PKU9DKFtDSDNdKShbQ0gzXSlbQ0gzXQ==

> <s_epik_cmdline>
J2VwaWtfYXBwJywgJy1pbWFlJywgJ2xpZ2FuZF9wcm8ubWFlJywgJy1vbWFlJywgJ2xpZ2FuZF9wcmVwLm1hZScsICctbXMnLCAnMScsICctcGgnLCAnNycsICctcGh0JywgJzAuNScsICctbnQn

> <r_lp_tautomer_probability>
1

> <r_epik_Ionization_Penalty>
  0.0015

> <r_epik_Ionization_Penalty_Charging>
  0.0000

> <r_epik_Ionization_Penalty_Neutral>
  0.0015

> <r_epik_State_Penalty>
 -0.0000

> <r_epik_Charging_Adjusted_Penalty>
0

> <i_epik_Tot_Q>
0

> <i_epik_Tot_abs_Q>
0

> <s_epik_Chemistry_Notes>
This compound has an ester and may undergo hydrolysis at high or low pH. This compound has an imine and may undergo hydrolysis.

$$$$
