4qzw_ligand
                    3D
 Schrodinger Suite 2020-3.
 86 88  0  0  1  0            999 V2000
   59.7090 -134.7930   34.3910 C   0  0  0  0  0  0
   59.6730 -136.0070   34.5880 O   0  0  0  0  0  0
   58.6260 -134.1050   33.5520 C   0  0  0  0  0  0
   57.3610 -134.4090   34.2170 N   0  0  0  0  0  0
   54.8960 -133.4690   35.0860 O   0  0  0  0  0  0
   56.2590 -134.1960   33.2440 C   0  0  0  0  0  0
   57.1990 -133.5400   35.4040 C   0  0  0  0  0  0
   54.9530 -134.3370   33.9450 C   0  0  0  0  0  0
   55.8950 -133.7920   36.0780 C   0  0  0  0  0  0
   60.6470 -133.9710   34.8840 N   0  0  0  0  0  0
   61.7360 -134.4660   35.7300 C   0  0  2  0  0  0
   61.2130 -134.5940   37.1580 C   0  0  0  0  0  0
   60.3610 -133.8180   37.5910 O   0  0  0  0  0  0
   62.9080 -133.4770   35.7100 C   0  0  0  0  0  0
   61.7530 -135.5960   37.8610 N   0  0  0  0  0  0
   61.3910 -135.8290   39.2610 C   0  0  1  0  0  0
   60.8120 -137.1970   39.4640 C   0  0  0  0  0  0
   59.4580 -137.1380   39.1360 C   0  0  0  0  0  0
   59.0480 -137.4090   37.8340 C   0  0  0  0  0  0
   57.6980 -137.3660   37.5020 C   0  0  0  0  0  0
   56.7360 -137.0540   38.4590 C   0  0  0  0  0  0
   55.4300 -137.0440   38.0380 O   0  0  0  0  0  0
   54.4010 -136.4550   38.8520 C   0  0  0  0  0  0
   57.1510 -136.7900   39.7710 C   0  0  0  0  0  0
   58.5020 -136.8330   40.1050 C   0  0  0  0  0  0
   62.6700 -135.7500   40.0880 C   0  0  0  0  0  0
   63.7830 -135.8030   39.5600 O   0  0  0  0  0  0
   62.4410 -135.6510   41.3980 N   0  0  0  0  0  0
   63.4940 -135.5330   42.3960 C   0  0  2  0  0  0
   63.3020 -136.6120   43.4870 C   0  0  1  0  0  0
   61.9230 -136.6050   43.9140 O   0  0  0  0  0  0
   63.7110 -138.1280   43.1320 C   0  0  2  0  0  0
   64.7430 -138.1790   41.9450 C   0  0  0  0  0  0
   62.4250 -138.8540   42.6970 C   0  0  0  0  0  0
   62.8100 -139.8560   41.7400 O   0  0  0  0  0  0
   63.3220 -134.1790   43.0690 C   0  0  0  0  0  0
   64.0180 -133.1130   42.4490 C   0  0  0  0  0  0
   64.7550 -133.1940   41.2580 C   0  0  0  0  0  0
   65.3860 -132.0620   40.7370 C   0  0  0  0  0  0
   65.2900 -130.8310   41.3830 C   0  0  0  0  0  0
   64.5570 -130.7300   42.5600 C   0  0  0  0  0  0
   63.9310 -131.8650   43.0780 C   0  0  0  0  0  0
   58.8150 -133.0217   33.5264 H   0  0  0  0  0  0
   58.6464 -134.5051   32.5275 H   0  0  0  0  0  0
   56.3399 -133.1870   32.8135 H   0  0  0  0  0  0
   56.3295 -134.9441   32.4406 H   0  0  0  0  0  0
   58.0099 -133.7416   36.1194 H   0  0  0  0  0  0
   57.2372 -132.4852   35.0942 H   0  0  0  0  0  0
   54.8349 -135.3806   34.2720 H   0  0  0  0  0  0
   54.1438 -134.0779   33.2464 H   0  0  0  0  0  0
   55.7602 -133.1459   36.9580 H   0  0  0  0  0  0
   55.7881 -134.8453   36.3766 H   0  0  0  0  0  0
   60.5843 -132.9006   34.6385 H   0  0  0  0  0  0
   62.0518 -135.4394   35.3266 H   0  0  0  0  0  0
   63.2891 -133.3808   34.6826 H   0  0  0  0  0  0
   63.7104 -133.8461   36.3657 H   0  0  0  0  0  0
   62.5651 -132.4948   36.0673 H   0  0  0  0  0  0
   62.4836 -136.2521   37.3653 H   0  0  0  0  0  0
   60.6337 -135.0760   39.5248 H   0  0  0  0  0  0
   61.3320 -137.9155   38.8133 H   0  0  0  0  0  0
   60.9380 -137.4963   40.5150 H   0  0  0  0  0  0
   59.7872 -137.6558   37.0719 H   0  0  0  0  0  0
   57.3890 -137.5794   36.4788 H   0  0  0  0  0  0
   53.4312 -136.5481   38.3412 H   0  0  0  0  0  0
   54.6279 -135.3914   39.0170 H   0  0  0  0  0  0
   54.3569 -136.9751   39.8203 H   0  0  0  0  0  0
   56.4116 -136.5495   40.5349 H   0  0  0  0  0  0
   58.8142 -136.6273   41.1289 H   0  0  0  0  0  0
   61.3862 -135.6621   41.7100 H   0  0  0  0  0  0
   64.4571 -135.6397   41.8754 H   0  0  0  0  0  0
   63.9349 -136.2622   44.3159 H   0  0  0  0  0  0
   61.4422 -135.6595   44.2051 H   0  0  0  0  0  0
   64.1641 -138.6330   43.9978 H   0  0  0  0  0  0
   65.6684 -137.6635   42.2413 H   0  0  0  0  0  0
   64.3125 -137.6818   41.0633 H   0  0  0  0  0  0
   64.9694 -139.2274   41.7008 H   0  0  0  0  0  0
   61.9507 -139.3172   43.5748 H   0  0  0  0  0  0
   61.7309 -138.1307   42.2441 H   0  0  0  0  0  0
   62.0468 -140.5057   41.2867 H   0  0  0  0  0  0
   62.2572 -133.9030   43.0705 H   0  0  0  0  0  0
   63.6877 -134.2353   44.1049 H   0  0  0  0  0  0
   64.8358 -134.1472   40.7355 H   0  0  0  0  0  0
   65.9604 -132.1425   39.8141 H   0  0  0  0  0  0
   65.7861 -129.9535   40.9684 H   0  0  0  0  0  0
   64.4719 -129.7726   43.0740 H   0  0  0  0  0  0
   63.3569 -131.7771   44.0004 H   0  0  0  0  0  0
  1  2  2  0  0  0
  1  3  1  0  0  0
  1 10  1  0  0  0
  3  4  1  0  0  0
  3 43  1  0  0  0
  3 44  1  0  0  0
  4  6  1  0  0  0
  4  7  1  0  0  0
  5  8  1  0  0  0
  5  9  1  0  0  0
  6  8  1  0  0  0
  6 45  1  0  0  0
  6 46  1  0  0  0
  7  9  1  0  0  0
  7 47  1  0  0  0
  7 48  1  0  0  0
  8 49  1  0  0  0
  8 50  1  0  0  0
  9 51  1  0  0  0
  9 52  1  0  0  0
 10 11  1  0  0  0
 10 53  1  0  0  0
 11 12  1  0  0  0
 11 14  1  0  0  0
 11 54  1  0  0  0
 12 13  2  0  0  0
 12 15  1  0  0  0
 14 55  1  0  0  0
 14 56  1  0  0  0
 14 57  1  0  0  0
 15 16  1  0  0  0
 15 58  1  0  0  0
 16 17  1  0  0  0
 16 26  1  0  0  0
 16 59  1  0  0  0
 17 18  1  0  0  0
 17 60  1  0  0  0
 17 61  1  0  0  0
 18 19  2  0  0  0
 18 25  1  0  0  0
 19 20  1  0  0  0
 19 62  1  0  0  0
 20 21  2  0  0  0
 20 63  1  0  0  0
 21 22  1  0  0  0
 21 24  1  0  0  0
 22 23  1  0  0  0
 23 64  1  0  0  0
 23 65  1  0  0  0
 23 66  1  0  0  0
 24 25  2  0  0  0
 24 67  1  0  0  0
 25 68  1  0  0  0
 26 27  2  0  0  0
 26 28  1  0  0  0
 28 29  1  0  0  0
 28 69  1  0  0  0
 29 30  1  0  0  0
 29 36  1  0  0  0
 29 70  1  0  0  0
 30 31  1  0  0  0
 30 32  1  0  0  0
 30 71  1  0  0  0
 31 72  1  0  0  0
 32 33  1  0  0  0
 32 34  1  0  0  0
 32 73  1  0  0  0
 33 74  1  0  0  0
 33 75  1  0  0  0
 33 76  1  0  0  0
 34 35  1  0  0  0
 34 77  1  0  0  0
 34 78  1  0  0  0
 35 79  1  0  0  0
 36 37  1  0  0  0
 36 80  1  0  0  0
 36 81  1  0  0  0
 37 38  2  0  0  0
 37 42  1  0  0  0
 38 39  1  0  0  0
 38 82  1  0  0  0
 39 40  2  0  0  0
 39 83  1  0  0  0
 40 41  1  0  0  0
 40 84  1  0  0  0
 41 42  2  0  0  0
 41 85  1  0  0  0
 42 86  1  0  0  0
M  END
> <s_m_source_file>
../4qzw_ligand.sdf

> <i_m_source_file_index>
1

> <s_epik_input>
W0NIMl0xW0NIMl1PW0NIMl1bQ0gyXVtOSCtdMVtDSDJdQyg9TylbTkhdW0NAQEhdKFtDSDNdKUMoPU8pW05IXVtDQEBIXShbQ0gyXWMyW2NIXVtjSF1jKE9bQ0gzXSlbY0hdW2NIXTIpQyg9TylbTkhdW0NASF0oW0NAQEhdKFtPSF0pW0NASF0oW0NIM10pW0NIMl1bT0hdKVtDSDJdYzNbY0hdW2NIXVtjSF1bY0hdW2NIXTM=

> <s_epik_cmdline>
J2VwaWtfYXBwJywgJy1pbWFlJywgJ2xpZ2FuZF9wcm8ubWFlJywgJy1vbWFlJywgJ2xpZ2FuZF9wcmVwLm1hZScsICctbXMnLCAnMScsICctcGgnLCAnNycsICctcGh0JywgJzAuNScsICctbnQn

> <r_lp_tautomer_probability>
1

> <r_epik_Ionization_Penalty>
  0.0035

> <r_epik_Ionization_Penalty_Charging>
  0.0000

> <r_epik_Ionization_Penalty_Neutral>
  0.0035

> <r_epik_State_Penalty>
 -0.0000

> <r_epik_Charging_Adjusted_Penalty>
0

> <i_epik_Tot_Q>
0

> <i_epik_Tot_abs_Q>
0

$$$$
