4qzx_ligand
                    3D
 Schrodinger Suite 2020-3.
 86 88  0  0  1  0            999 V2000
   59.5820 -134.9140   34.4390 C   0  0  0  0  0  0
   59.6800 -136.1340   34.5740 O   0  0  0  0  0  0
   58.3910 -134.3050   33.6790 C   0  0  0  0  0  0
   57.3170 -134.2230   34.6660 N   0  0  0  0  0  0
   54.6650 -133.7960   35.3570 O   0  0  0  0  0  0
   56.3460 -135.3260   34.4830 C   0  0  0  0  0  0
   56.6680 -132.9070   34.6260 C   0  0  0  0  0  0
   55.2080 -135.1390   35.4150 C   0  0  0  0  0  0
   55.6490 -132.8070   35.6980 C   0  0  0  0  0  0
   60.4640 -134.0290   34.9370 N   0  0  0  0  0  0
   61.6390 -134.4610   35.7080 C   0  0  2  0  0  0
   61.2350 -134.5730   37.1790 C   0  0  0  0  0  0
   60.4580 -133.7630   37.6850 O   0  0  0  0  0  0
   62.7790 -133.4510   35.5480 C   0  0  0  0  0  0
   61.7770 -135.6100   37.8320 N   0  0  0  0  0  0
   61.4850 -135.8690   39.2460 C   0  0  1  0  0  0
   60.8920 -137.2430   39.3890 C   0  0  0  0  0  0
   59.5210 -137.1360   39.1320 C   0  0  0  0  0  0
   59.0050 -137.3870   37.8610 C   0  0  0  0  0  0
   57.6370 -137.2860   37.6210 C   0  0  0  0  0  0
   56.7640 -136.9450   38.6570 C   0  0  0  0  0  0
   55.4100 -136.8230   38.4830 O   0  0  0  0  0  0
   54.7610 -137.8010   37.6480 C   0  0  0  0  0  0
   57.2850 -136.6950   39.9230 C   0  0  0  0  0  0
   58.6500 -136.7950   40.1640 C   0  0  0  0  0  0
   62.7870 -135.8240   40.0500 C   0  0  0  0  0  0
   63.8770 -136.0470   39.5210 O   0  0  0  0  0  0
   62.6110 -135.5480   41.3510 N   0  0  0  0  0  0
   63.7180 -135.4560   42.3060 C   0  0  2  0  0  0
   63.5530 -136.5050   43.4340 C   0  0  1  0  0  0
   62.2430 -136.3820   43.9620 O   0  0  0  0  0  0
   63.8380 -138.0310   43.0790 C   0  0  2  0  0  0
   64.8970 -138.1540   41.9220 C   0  0  0  0  0  0
   62.5230 -138.6230   42.5670 C   0  0  0  0  0  0
   62.8330 -139.7920   41.7730 O   0  0  0  0  0  0
   63.6630 -134.0930   42.9770 C   0  0  0  0  0  0
   64.3550 -133.0700   42.2900 C   0  0  0  0  0  0
   65.1580 -133.2430   41.1500 C   0  0  0  0  0  0
   65.7880 -132.1450   40.5640 C   0  0  0  0  0  0
   65.6310 -130.8690   41.1000 C   0  0  0  0  0  0
   64.8370 -130.6860   42.2270 C   0  0  0  0  0  0
   64.2100 -131.7830   42.8100 C   0  0  0  0  0  0
   58.6690 -133.3116   33.2971 H   0  0  0  0  0  0
   58.1203 -134.9589   32.8369 H   0  0  0  0  0  0
   55.9770 -135.3215   33.4467 H   0  0  0  0  0  0
   56.8388 -136.2869   34.6926 H   0  0  0  0  0  0
   57.4235 -132.1210   34.7725 H   0  0  0  0  0  0
   56.1794 -132.7686   33.6502 H   0  0  0  0  0  0
   55.5649 -135.3465   36.4346 H   0  0  0  0  0  0
   54.4248 -135.8631   35.1462 H   0  0  0  0  0  0
   55.1772 -131.8136   35.7225 H   0  0  0  0  0  0
   56.0720 -133.0365   36.6871 H   0  0  0  0  0  0
   60.2889 -132.9584   34.7549 H   0  0  0  0  0  0
   61.9607 -135.4356   35.3123 H   0  0  0  0  0  0
   63.0597 -133.3800   34.4868 H   0  0  0  0  0  0
   63.6477 -133.7825   36.1357 H   0  0  0  0  0  0
   62.4484 -132.4651   35.9066 H   0  0  0  0  0  0
   62.4568 -136.2757   37.2799 H   0  0  0  0  0  0
   60.7690 -135.1036   39.5800 H   0  0  0  0  0  0
   61.3670 -137.9242   38.6677 H   0  0  0  0  0  0
   61.0646 -137.6124   40.4106 H   0  0  0  0  0  0
   59.6775 -137.6643   37.0493 H   0  0  0  0  0  0
   57.2459 -137.4737   36.6211 H   0  0  0  0  0  0
   53.6840 -137.5830   37.5973 H   0  0  0  0  0  0
   54.9125 -138.8043   38.0729 H   0  0  0  0  0  0
   55.1910 -137.7625   36.6362 H   0  0  0  0  0  0
   56.6140 -136.4172   40.7358 H   0  0  0  0  0  0
   59.0403 -136.6059   41.1640 H   0  0  0  0  0  0
   61.5770 -135.3876   41.6904 H   0  0  0  0  0  0
   64.6371 -135.6098   41.7215 H   0  0  0  0  0  0
   64.2627 -136.2129   44.2221 H   0  0  0  0  0  0
   61.8634 -135.3957   44.2673 H   0  0  0  0  0  0
   64.2017 -138.5762   43.9624 H   0  0  0  0  0  0
   65.8574 -137.7361   42.2581 H   0  0  0  0  0  0
   64.5436 -137.5984   41.0409 H   0  0  0  0  0  0
   65.0304 -139.2135   41.6581 H   0  0  0  0  0  0
   61.8898 -138.9033   43.4217 H   0  0  0  0  0  0
   61.9994 -137.8761   41.9521 H   0  0  0  0  0  0
   62.0222 -140.3715   41.3074 H   0  0  0  0  0  0
   62.6155 -133.7679   43.0614 H   0  0  0  0  0  0
   64.1081 -134.1602   43.9807 H   0  0  0  0  0  0
   65.2889 -134.2372   40.7227 H   0  0  0  0  0  0
   66.4084 -132.2868   39.6791 H   0  0  0  0  0  0
   66.1288 -130.0167   40.6376 H   0  0  0  0  0  0
   64.7067 -129.6902   42.6507 H   0  0  0  0  0  0
   63.5905 -131.6335   43.6943 H   0  0  0  0  0  0
  1  2  2  0  0  0
  1  3  1  0  0  0
  1 10  1  0  0  0
  3  4  1  0  0  0
  3 43  1  0  0  0
  3 44  1  0  0  0
  4  6  1  0  0  0
  4  7  1  0  0  0
  5  8  1  0  0  0
  5  9  1  0  0  0
  6  8  1  0  0  0
  6 45  1  0  0  0
  6 46  1  0  0  0
  7  9  1  0  0  0
  7 47  1  0  0  0
  7 48  1  0  0  0
  8 49  1  0  0  0
  8 50  1  0  0  0
  9 51  1  0  0  0
  9 52  1  0  0  0
 10 11  1  0  0  0
 10 53  1  0  0  0
 11 12  1  0  0  0
 11 14  1  0  0  0
 11 54  1  0  0  0
 12 13  2  0  0  0
 12 15  1  0  0  0
 14 55  1  0  0  0
 14 56  1  0  0  0
 14 57  1  0  0  0
 15 16  1  0  0  0
 15 58  1  0  0  0
 16 17  1  0  0  0
 16 26  1  0  0  0
 16 59  1  0  0  0
 17 18  1  0  0  0
 17 60  1  0  0  0
 17 61  1  0  0  0
 18 19  2  0  0  0
 18 25  1  0  0  0
 19 20  1  0  0  0
 19 62  1  0  0  0
 20 21  2  0  0  0
 20 63  1  0  0  0
 21 22  1  0  0  0
 21 24  1  0  0  0
 22 23  1  0  0  0
 23 64  1  0  0  0
 23 65  1  0  0  0
 23 66  1  0  0  0
 24 25  2  0  0  0
 24 67  1  0  0  0
 25 68  1  0  0  0
 26 27  2  0  0  0
 26 28  1  0  0  0
 28 29  1  0  0  0
 28 69  1  0  0  0
 29 30  1  0  0  0
 29 36  1  0  0  0
 29 70  1  0  0  0
 30 31  1  0  0  0
 30 32  1  0  0  0
 30 71  1  0  0  0
 31 72  1  0  0  0
 32 33  1  0  0  0
 32 34  1  0  0  0
 32 73  1  0  0  0
 33 74  1  0  0  0
 33 75  1  0  0  0
 33 76  1  0  0  0
 34 35  1  0  0  0
 34 77  1  0  0  0
 34 78  1  0  0  0
 35 79  1  0  0  0
 36 37  1  0  0  0
 36 80  1  0  0  0
 36 81  1  0  0  0
 37 38  2  0  0  0
 37 42  1  0  0  0
 38 39  1  0  0  0
 38 82  1  0  0  0
 39 40  2  0  0  0
 39 83  1  0  0  0
 40 41  1  0  0  0
 40 84  1  0  0  0
 41 42  2  0  0  0
 41 85  1  0  0  0
 42 86  1  0  0  0
M  END
> <s_m_source_file>
../4qzx_ligand.sdf

> <i_m_source_file_index>
1

> <s_epik_input>
W0NIMl0xW0NIMl1PW0NIMl1bQ0gyXVtOSCtdMVtDSDJdQyg9TylbTkhdW0NAQEhdKFtDSDNdKUMoPU8pW05IXVtDQEBIXShbQ0gyXWMyW2NIXVtjSF1jKE9bQ0gzXSlbY0hdW2NIXTIpQyg9TylbTkhdW0NASF0oW0NAQEhdKFtPSF0pW0NASF0oW0NIM10pW0NIMl1bT0hdKVtDSDJdYzNbY0hdW2NIXVtjSF1bY0hdW2NIXTM=

> <s_epik_cmdline>
J2VwaWtfYXBwJywgJy1pbWFlJywgJ2xpZ2FuZF9wcm8ubWFlJywgJy1vbWFlJywgJ2xpZ2FuZF9wcmVwLm1hZScsICctbXMnLCAnMScsICctcGgnLCAnNycsICctcGh0JywgJzAuNScsICctbnQn

> <r_lp_tautomer_probability>
1

> <r_epik_Ionization_Penalty>
  0.0035

> <r_epik_Ionization_Penalty_Charging>
  0.0000

> <r_epik_Ionization_Penalty_Neutral>
  0.0035

> <r_epik_State_Penalty>
 -0.0000

> <r_epik_Charging_Adjusted_Penalty>
0

> <i_epik_Tot_Q>
0

> <i_epik_Tot_abs_Q>
0

$$$$
