4r02_ligand
                    3D
 Schrodinger Suite 2020-3.
 97 98  0  0  1  0            999 V2000
   12.3010 -138.2160   22.0520 O   0  0  0  0  0  0
   11.6520 -137.1800   22.1080 C   0  0  0  0  0  0
   11.8280 -136.3110   23.2650 O   0  0  0  0  0  0
   13.1370 -135.9500   23.7130 C   0  0  0  0  0  0
   13.3720 -136.3320   25.1620 C   0  0  0  0  0  0
   14.3430 -135.6400   25.8840 C   0  0  0  0  0  0
   14.5900 -135.9620   27.2160 C   0  0  0  0  0  0
   13.8680 -136.9800   27.8330 C   0  0  0  0  0  0
   12.8970 -137.6750   27.1160 C   0  0  0  0  0  0
   12.6490 -137.3540   25.7820 C   0  0  0  0  0  0
   10.7810 -136.8030   21.1670 N   0  0  0  0  0  0
   10.5310 -137.6240   19.9860 C   0  0  2  0  0  0
   11.4110 -137.2180   18.8340 C   0  0  0  0  0  0
   11.9700 -136.1310   18.7990 O   0  0  0  0  0  0
    9.0610 -137.7240   19.5340 C   0  0  0  0  0  0
    8.0920 -136.6650   20.0560 C   0  0  0  0  0  0
    8.2990 -135.3380   19.3300 C   0  0  0  0  0  0
    6.6510 -137.1650   19.9460 C   0  0  0  0  0  0
   11.5440 -138.1690   17.9120 N   0  0  0  0  0  0
   12.4320 -138.0960   16.7720 C   0  0  2  0  0  0
   11.6300 -138.0430   15.5100 C   0  0  0  0  0  0
   10.5640 -138.6370   15.4410 O   0  0  0  0  0  0
   13.3270 -139.3390   16.7860 C   0  0  0  0  0  0
   14.8190 -139.0440   16.9440 C   0  0  0  0  0  0
   15.1200 -138.1510   18.1500 C   0  0  0  0  0  0
   15.6000 -140.3590   17.0060 C   0  0  0  0  0  0
   12.1430 -137.3250   14.5120 N   0  0  0  0  0  0
   11.4620 -137.2050   13.2400 C   0  0  1  0  0  0
   11.5200 -135.7780   12.6910 C   0  0  0  0  0  0
   10.9370 -134.7210   13.6320 C   0  0  0  0  0  0
    9.5050 -135.0350   14.0720 C   0  0  0  0  0  0
   11.0300 -133.3440   12.9720 C   0  0  0  0  0  0
   12.0330 -138.2120   12.2440 C   0  0  2  0  0  0
   11.5350 -139.4620   12.6860 O   0  0  0  0  0  0
   13.5360 -138.3490   12.2440 C   0  0  0  0  0  0
   14.2020 -137.4610   11.7380 O   0  0  0  0  0  0
   14.0150 -139.5030   12.7260 N   0  0  0  0  0  0
   15.2990 -139.9630   12.6020 C   0  0  0  0  0  0
   16.3410 -139.2160   12.0290 C   0  0  0  0  0  0
   17.6300 -139.7380   11.9240 C   0  0  0  0  0  0
   17.9300 -141.0200   12.3780 C   0  0  0  0  0  0
   19.3370 -141.5430   12.2430 C   0  0  0  0  0  0
   16.9400 -141.8160   12.9500 C   0  0  0  0  0  0
   15.6350 -141.3450   13.0800 C   0  0  0  0  0  0
   14.6260 -142.2760   13.7130 C   0  0  0  0  0  0
   13.8899 -136.4642   23.0976 H   0  0  0  0  0  0
   13.2690 -134.8619   23.6207 H   0  0  0  0  0  0
   14.9114 -134.8434   25.4039 H   0  0  0  0  0  0
   15.3494 -135.4165   27.7762 H   0  0  0  0  0  0
   14.0623 -137.2327   28.8754 H   0  0  0  0  0  0
   12.3301 -138.4711   27.5985 H   0  0  0  0  0  0
   11.8903 -137.9010   25.2223 H   0  0  0  0  0  0
   10.2470 -135.8502   21.2976 H   0  0  0  0  0  0
   10.8300 -138.6151   20.3580 H   0  0  0  0  0  0
    9.0088 -137.6522   18.4376 H   0  0  0  0  0  0
    8.6423 -138.6880   19.8586 H   0  0  0  0  0  0
    8.2998 -136.4831   21.1208 H   0  0  0  0  0  0
    9.3468 -135.0209   19.4374 H   0  0  0  0  0  0
    7.6382 -134.5744   19.7662 H   0  0  0  0  0  0
    8.0611 -135.4627   18.2633 H   0  0  0  0  0  0
    6.5523 -138.1201   20.4827 H   0  0  0  0  0  0
    6.3936 -137.3114   18.8866 H   0  0  0  0  0  0
    5.9706 -136.4231   20.3896 H   0  0  0  0  0  0
   10.9158 -139.0591   18.0637 H   0  0  0  0  0  0
   13.0164 -137.1675   16.8514 H   0  0  0  0  0  0
   13.0387 -139.9889   17.6254 H   0  0  0  0  0  0
   13.2078 -139.8874   15.8399 H   0  0  0  0  0  0
   15.1450 -138.4740   16.0615 H   0  0  0  0  0  0
   14.5418 -137.2187   18.0693 H   0  0  0  0  0  0
   16.1942 -137.9155   18.1728 H   0  0  0  0  0  0
   14.8403 -138.6771   19.0747 H   0  0  0  0  0  0
   15.3576 -140.9713   16.1249 H   0  0  0  0  0  0
   15.3248 -140.9061   17.9198 H   0  0  0  0  0  0
   16.6788 -140.1445   17.0179 H   0  0  0  0  0  0
   13.1057 -136.8170   14.6705 H   0  0  0  0  0  0
   10.4112 -137.4456   13.4590 H   0  0  0  0  0  0
   12.5674 -135.5001   12.5021 H   0  0  0  0  0  0
   10.9509 -135.7233   11.7512 H   0  0  0  0  0  0
   11.5372 -134.7258   14.5538 H   0  0  0  0  0  0
    9.4753 -136.0296   14.5410 H   0  0  0  0  0  0
    8.8411 -135.0231   13.1951 H   0  0  0  0  0  0
    9.1696 -134.2779   14.7961 H   0  0  0  0  0  0
   12.0699 -133.1520   12.6692 H   0  0  0  0  0  0
   10.7077 -132.5724   13.6866 H   0  0  0  0  0  0
   10.3792 -133.3176   12.0856 H   0  0  0  0  0  0
   11.7249 -137.9422   11.2231 H   0  0  0  0  0  0
   10.4503 -139.6218   12.7743 H   0  0  0  0  0  0
   13.3538 -140.1831   13.2830 H   0  0  0  0  0  0
   16.1388 -138.2106   11.6598 H   0  0  0  0  0  0
   18.4178 -139.1309   11.4780 H   0  0  0  0  0  0
   19.9695 -140.7763   11.7718 H   0  0  0  0  0  0
   19.3331 -142.4491   11.6194 H   0  0  0  0  0  0
   19.7353 -141.7853   13.2393 H   0  0  0  0  0  0
   17.1889 -142.8180   13.2996 H   0  0  0  0  0  0
   13.6446 -141.7807   13.7528 H   0  0  0  0  0  0
   14.9504 -142.5294   14.7331 H   0  0  0  0  0  0
   14.5488 -143.1952   13.1137 H   0  0  0  0  0  0
  1  2  2  0  0  0
  2  3  1  0  0  0
  2 11  1  0  0  0
  3  4  1  0  0  0
  4  5  1  0  0  0
  4 46  1  0  0  0
  4 47  1  0  0  0
  5  6  2  0  0  0
  5 10  1  0  0  0
  6  7  1  0  0  0
  6 48  1  0  0  0
  7  8  2  0  0  0
  7 49  1  0  0  0
  8  9  1  0  0  0
  8 50  1  0  0  0
  9 10  2  0  0  0
  9 51  1  0  0  0
 10 52  1  0  0  0
 11 12  1  0  0  0
 11 53  1  0  0  0
 12 13  1  0  0  0
 12 15  1  0  0  0
 12 54  1  0  0  0
 13 14  2  0  0  0
 13 19  1  0  0  0
 15 16  1  0  0  0
 15 55  1  0  0  0
 15 56  1  0  0  0
 16 17  1  0  0  0
 16 18  1  0  0  0
 16 57  1  0  0  0
 17 58  1  0  0  0
 17 59  1  0  0  0
 17 60  1  0  0  0
 18 61  1  0  0  0
 18 62  1  0  0  0
 18 63  1  0  0  0
 19 20  1  0  0  0
 19 64  1  0  0  0
 20 21  1  0  0  0
 20 23  1  0  0  0
 20 65  1  0  0  0
 21 22  2  0  0  0
 21 27  1  0  0  0
 23 24  1  0  0  0
 23 66  1  0  0  0
 23 67  1  0  0  0
 24 25  1  0  0  0
 24 26  1  0  0  0
 24 68  1  0  0  0
 25 69  1  0  0  0
 25 70  1  0  0  0
 25 71  1  0  0  0
 26 72  1  0  0  0
 26 73  1  0  0  0
 26 74  1  0  0  0
 27 28  1  0  0  0
 27 75  1  0  0  0
 28 29  1  0  0  0
 28 33  1  0  0  0
 28 76  1  0  0  0
 29 30  1  0  0  0
 29 77  1  0  0  0
 29 78  1  0  0  0
 30 31  1  0  0  0
 30 32  1  0  0  0
 30 79  1  0  0  0
 31 80  1  0  0  0
 31 81  1  0  0  0
 31 82  1  0  0  0
 32 83  1  0  0  0
 32 84  1  0  0  0
 32 85  1  0  0  0
 33 34  1  0  0  0
 33 35  1  0  0  0
 33 86  1  0  0  0
 34 87  1  0  0  0
 35 36  2  0  0  0
 35 37  1  0  0  0
 37 38  1  0  0  0
 37 88  1  0  0  0
 38 39  2  0  0  0
 38 44  1  0  0  0
 39 40  1  0  0  0
 39 89  1  0  0  0
 40 41  2  0  0  0
 40 90  1  0  0  0
 41 42  1  0  0  0
 41 43  1  0  0  0
 42 91  1  0  0  0
 42 92  1  0  0  0
 42 93  1  0  0  0
 43 44  2  0  0  0
 43 94  1  0  0  0
 44 45  1  0  0  0
 45 95  1  0  0  0
 45 96  1  0  0  0
 45 97  1  0  0  0
M  END
> <s_m_source_file>
../4r02_ligand.sdf

> <i_m_source_file_index>
1

> <s_epik_input>
W2NIXTFbY0hdW2NIXVtjSF1bY0hdYzFbQ0gyXU9DKD1PKVtOSF1bQ0BASF0oW0NIMl1bQ0hdKFtDSDNdKVtDSDNdKUMoPU8pW05IXVtDQEBIXShbQ0gyXVtDSF0oW0NIM10pW0NIM10pQyg9TylbTkhdW0NAQEhdKFtDSDJdW0NIXShbQ0gzXSlbQ0gzXSlbQ0BIXShbT0hdKUMoPU8pW05IXWMyW2NIXVtjSF1jKFtDSDNdKVtjSF1jMltDSDNd

> <s_epik_cmdline>
J2VwaWtfYXBwJywgJy1pbWFlJywgJ2xpZ2FuZF9wcm8ubWFlJywgJy1vbWFlJywgJ2xpZ2FuZF9wcmVwLm1hZScsICctbXMnLCAnMScsICctcGgnLCAnNycsICctcGh0JywgJzAuNScsICctbnQn

> <r_lp_tautomer_probability>
1

> <r_epik_Ionization_Penalty>
  0.0000

> <r_epik_Ionization_Penalty_Charging>
  0.0000

> <r_epik_Ionization_Penalty_Neutral>
  0.0000

> <r_epik_State_Penalty>
 -0.0000

> <r_epik_Charging_Adjusted_Penalty>
0

> <i_epik_Tot_Q>
0

> <i_epik_Tot_abs_Q>
0

> <s_epik_Chemistry_Notes>
This compound has an ester and may undergo hydrolysis at high or low pH.

$$$$
