4r07_ligand
                    3D
 Schrodinger Suite 2020-3.
 68 73  0  0  1  0            999 V2000
   26.9720   -8.4930   37.5540 O   0  0  0  0  0  0
   27.9360   -7.8920   38.0130 C   0  0  0  0  0  0
   27.7750   -7.1870   39.1900 C   0  0  0  0  0  0
   28.8390   -6.5110   39.7520 C   0  0  0  0  0  0
   29.1140   -7.9270   37.4310 N   0  0  0  0  0  0
   30.1230   -7.2760   37.9670 C   0  0  0  0  0  0
   31.1930   -7.3290   37.4230 O   0  0  0  0  0  0
   30.0210   -6.5470   39.1590 N   0  0  0  0  0  0
   31.1660   -5.8080   39.7080 C   0  0  1  0  0  0
   30.8520   -4.3240   39.8220 C   0  0  2  0  0  0
   31.9860   -3.5820   39.5060 O   0  0  0  0  0  0
   31.5280   -6.2220   41.0090 O   0  0  0  0  0  0
   31.4730   -5.1360   41.9350 C   0  0  2  0  0  0
   30.9550   -5.6320   43.2730 C   0  0  0  0  0  0
   29.7020   -5.0740   43.5950 O   0  0  0  0  0  0
   28.4430   -5.9090   44.0450 P   0  0  0  0  0  0
   28.9170   -7.2290   44.4470 O   0  0  0  0  0  0
   27.6990   -5.2370   45.2750 O   0  5  0  0  0  0
   27.4030   -5.9650   42.8370 O   0  0  0  0  0  0
   30.6270   -4.0640   41.2740 C   0  0  1  0  0  0
   31.0800   -2.8050   41.6890 O   0  0  0  0  0  0
   30.2190   -1.4880   41.6050 P   0  0  1  0  0  0
   31.0670   -0.4500   42.1140 O   0  0  0  0  0  0
   29.7490   -1.2850   40.1320 O   0  5  0  0  0  0
   28.9020   -1.6920   42.4430 O   0  0  0  0  0  0
   28.8920   -1.8880   43.8340 C   0  0  0  0  0  0
   27.5040   -1.5670   44.3600 C   0  0  2  0  0  0
   26.4290   -2.1270   43.4630 C   0  0  1  0  0  0
   23.9940   -2.4300   43.4400 P   0  0  2  0  0  0
   23.6970   -3.4860   42.3300 O   0  5  0  0  0  0
   22.9050   -2.2010   44.3320 O   0  0  0  0  0  0
   24.4570   -1.1630   42.6850 O   0  0  0  0  0  0
   25.3680   -2.7030   44.1630 O   0  0  0  0  0  0
   25.8060   -0.9140   42.8630 C   0  0  1  0  0  0
   27.2960   -0.1770   44.3700 O   0  0  0  0  0  0
   26.0000    0.0820   43.9490 C   0  0  1  0  0  0
   25.9190    1.4110   43.4010 N   0  0  0  0  0  0
   25.1950    2.3850   43.8910 C   0  0  0  0  0  0
   25.3220    3.4890   43.1770 N   0  0  0  0  0  0
   26.5520    1.8550   42.3570 C   0  0  0  0  0  0
   26.1450    3.2170   42.2030 C   0  0  0  0  0  0
   27.3980    1.3420   41.4780 N   0  0  0  0  0  0
   27.8770    2.0760   40.4730 C   0  0  0  0  0  0
   28.7290    1.5110   39.6250 N   0  0  0  0  0  0
   27.5340    3.3440   40.3040 N   0  3  0  0  0  0
   26.7050    3.9560   41.0910 C   0  0  0  0  0  0
   26.4060    5.1110   40.9290 O   0  0  0  0  0  0
   26.8008   -7.1644   39.6783 H   0  0  0  0  0  0
   28.7063   -5.9514   40.6779 H   0  0  0  0  0  0
   29.2513   -8.4985   36.5012 H   0  0  0  0  0  0
   32.0062   -6.0615   39.0448 H   0  0  0  0  0  0
   30.0441   -4.0056   39.1468 H   0  0  0  0  0  0
   32.3813   -3.5919   38.4795 H   0  0  0  0  0  0
   32.4822   -4.7428   42.1270 H   0  0  0  0  0  0
   30.8452   -6.7260   43.2409 H   0  0  0  0  0  0
   31.6664   -5.3580   44.0660 H   0  0  0  0  0  0
   27.7047   -6.3963   41.8711 H   0  0  0  0  0  0
   29.5602   -4.0129   41.5372 H   0  0  0  0  0  0
   29.1442   -2.9349   44.0586 H   0  0  0  0  0  0
   29.6326   -1.2237   44.3032 H   0  0  0  0  0  0
   27.4273   -1.9389   45.3924 H   0  0  0  0  0  0
   26.8295   -2.9142   42.8073 H   0  0  0  0  0  0
   26.1573   -0.6062   41.8671 H   0  0  0  0  0  0
   25.2924    0.0307   44.7896 H   0  0  0  0  0  0
   24.5662    2.2963   44.7769 H   0  0  0  0  0  0
   29.0199    0.4584   39.7571 H   0  0  0  0  0  0
   29.1437    2.0957   38.7906 H   0  0  0  0  0  0
   27.9569    3.9216   39.4688 H   0  0  0  0  0  0
  1  2  2  0  0  0
  2  3  1  0  0  0
  2  5  1  0  0  0
  3  4  2  0  0  0
  3 48  1  0  0  0
  4  8  1  0  0  0
  4 49  1  0  0  0
  5  6  1  0  0  0
  5 50  1  0  0  0
  6  7  2  0  0  0
  6  8  1  0  0  0
  8  9  1  0  0  0
  9 10  1  0  0  0
  9 12  1  0  0  0
  9 51  1  0  0  0
 10 11  1  0  0  0
 10 20  1  0  0  0
 10 52  1  0  0  0
 11 53  1  0  0  0
 12 13  1  0  0  0
 13 14  1  0  0  0
 13 20  1  0  0  0
 13 54  1  0  0  0
 14 15  1  0  0  0
 14 55  1  0  0  0
 14 56  1  0  0  0
 15 16  1  0  0  0
 16 17  2  0  0  0
 16 18  1  0  0  0
 16 19  1  0  0  0
 19 57  1  0  0  0
 20 21  1  0  0  0
 20 58  1  0  0  0
 21 22  1  0  0  0
 22 23  2  0  0  0
 22 24  1  0  0  0
 22 25  1  0  0  0
 25 26  1  0  0  0
 26 27  1  0  0  0
 26 59  1  0  0  0
 26 60  1  0  0  0
 27 28  1  0  0  0
 27 35  1  0  0  0
 27 61  1  0  0  0
 28 33  1  0  0  0
 28 34  1  0  0  0
 28 62  1  0  0  0
 29 30  1  0  0  0
 29 31  2  0  0  0
 29 32  1  0  0  0
 29 33  1  0  0  0
 32 34  1  0  0  0
 34 36  1  0  0  0
 34 63  1  0  0  0
 35 36  1  0  0  0
 36 37  1  0  0  0
 36 64  1  0  0  0
 37 38  1  0  0  0
 37 40  1  0  0  0
 38 39  2  0  0  0
 38 65  1  0  0  0
 39 41  1  0  0  0
 40 41  2  0  0  0
 40 42  1  0  0  0
 41 46  1  0  0  0
 42 43  2  0  0  0
 43 44  1  0  0  0
 43 45  1  0  0  0
 44 66  1  0  0  0
 44 67  1  0  0  0
 45 46  1  0  0  0
 45 68  1  0  0  0
 46 47  2  0  0  0
M  CHG  4  18  -1  24  -1  30  -1  45   1
M  END
> <s_m_source_file>
../4r07_ligand.sdf

> <i_m_source_file_index>
1

> <s_epik_input>
Tz1jMVtjSF1bY0hdbihjKD1PKVtuSF0xKVtDQEhdMltDQEhdKFtPSF0pW0NAQEhdKFtDQEhdKE8yKVtDSDJdT1AoPU8pKFtPSF0pW09IXSlPW1BAQF0oPU8pKFtPSF0pT1tDSDJdW0NASF0zT1tDQEhdKFtDQEBIXShbQ0BASF0zNClPW1BAXSg9TykoTzQpW09IXSluNVtjSF1uYyhjNTYpYyg9TylbbkhdYyhcW25IXTYpPU4vW0hd

> <s_epik_cmdline>
J2VwaWtfYXBwJywgJy1pbWFlJywgJ2xpZ2FuZF9wcm8ubWFlJywgJy1vbWFlJywgJ2xpZ2FuZF9wcmVwLm1hZScsICctbXMnLCAnMScsICctcGgnLCAnNycsICctcGh0JywgJzAuNScsICctbnQn

> <r_epik_Ionization_Penalty>
  3.4816

> <r_epik_Ionization_Penalty_Charging>
  2.3931

> <r_epik_Ionization_Penalty_Neutral>
  1.0886

> <r_epik_State_Penalty>
  0.0076

> <r_epik_Charging_Adjusted_Penalty>
2.40071825796801

> <i_epik_Tot_Q>
-2

> <i_epik_Tot_abs_Q>
4

> <s_epik_Chemistry_Notes>
This compound has an imine and may undergo hydrolysis. This compound contains an acetal/aminal-like group ( X-CH(R)-Y where X, Y are N, S, or O) that may be acid/base labile, releasing an aldehyde.

$$$$
