4r0i_ligand
                    3D
 Schrodinger Suite 2020-3.
 72 75  0  0  1  0            999 V2000
   15.1450    7.1660   28.1250 N   0  0  3  0  0  0
   13.1490   13.7230   25.6980 N   0  0  0  0  0  0
   20.1130    5.5960   28.1660 C   0  0  0  0  0  0
   19.7500    6.5760   29.1070 C   0  0  0  0  0  0
   20.7800    7.3410   29.7160 C   0  0  0  0  0  0
   19.1120    4.8300   27.5710 C   0  0  0  0  0  0
   17.7630    5.0210   27.9030 C   0  0  0  0  0  0
   18.3890    6.7800   29.4290 C   0  0  0  0  0  0
   13.5680    7.1150   26.3790 C   0  0  0  0  0  0
   15.9800    5.8320   24.0110 C   0  0  0  0  0  0
   18.2860    5.2260   23.3980 C   0  0  0  0  0  0
   13.4320   10.0530   25.5850 C   0  0  0  0  0  0
   13.7620   11.3740   25.2590 C   0  0  0  0  0  0
   14.5050   11.6420   24.0840 C   0  0  0  0  0  0
   14.6000    9.2970   23.6020 C   0  0  0  0  0  0
   19.3730    4.1390   23.4180 C   0  0  0  0  0  0
   22.1470    7.1460   29.3850 C   0  0  0  0  0  0
   13.5070    7.7230   25.0870 O   0  0  0  0  0  0
   15.7630    6.1930   29.2110 S   0  0  0  0  0  0
   22.4990    6.1610   28.4400 C   0  0  0  0  0  0
   16.5580    6.9520   24.7470 N   0  0  0  0  0  0
   16.7720    8.3600   26.4770 O   0  0  0  0  0  0
   21.4780    5.3890   27.8390 C   0  0  0  0  0  0
   15.5850    6.8380   30.5460 O   0  0  0  0  0  0
   12.7360   12.1800   27.3340 N   0  3  0  0  0  0
   14.9720    4.9240   29.0900 O   0  0  0  0  0  0
   18.6970    3.3130   21.2210 N   0  3  0  0  0  0
   17.3620    5.9940   28.8440 C   0  0  0  0  0  0
   15.0110    6.7520   26.7500 C   0  0  1  0  0  0
   16.1670    7.4060   25.9590 C   0  0  0  0  0  0
   13.8540    9.0130   24.7720 C   0  0  0  0  0  0
   17.0250    4.7180   24.0900 C   0  0  0  0  0  0
   18.7480    6.5070   24.1050 C   0  0  0  0  0  0
   17.6690    7.5800   24.0230 C   0  0  0  0  0  0
   14.9410   10.6130   23.2560 C   0  0  0  0  0  0
   13.2220   12.4580   26.1440 C   0  0  0  0  0  0
   18.9580    2.9120   22.5980 C   0  0  0  0  0  0
   14.9725    8.2164   28.4024 H   0  0  0  0  0  0
   13.5485   13.9803   24.7060 H   0  0  0  0  0  0
   12.6897   14.5015   26.3248 H   0  0  0  0  0  0
   20.5146    8.0964   30.4557 H   0  0  0  0  0  0
   19.3818    4.0711   26.8366 H   0  0  0  0  0  0
   17.0049    4.4026   27.4224 H   0  0  0  0  0  0
   18.1219    7.5590   30.1431 H   0  0  0  0  0  0
   13.1762    7.8144   27.1322 H   0  0  0  0  0  0
   12.9623    6.1968   26.3811 H   0  0  0  0  0  0
   15.0331    5.5322   24.4837 H   0  0  0  0  0  0
   15.7905    6.1355   22.9708 H   0  0  0  0  0  0
   18.0722    5.4591   22.3445 H   0  0  0  0  0  0
   12.8434    9.8426   26.4779 H   0  0  0  0  0  0
   14.7397   12.6740   23.8234 H   0  0  0  0  0  0
   14.9155    8.4765   22.9575 H   0  0  0  0  0  0
   20.3034    4.5430   22.9923 H   0  0  0  0  0  0
   19.5528    3.8193   24.4550 H   0  0  0  0  0  0
   22.9185    7.7535   29.8581 H   0  0  0  0  0  0
   23.5438    5.9967   28.1762 H   0  0  0  0  0  0
   21.7442    4.6217   27.1120 H   0  0  0  0  0  0
   12.3439   12.9871   27.9703 H   0  0  0  0  0  0
   18.3992    2.4324   20.6329 H   0  0  0  0  0  0
   19.6079    3.7522   20.7881 H   0  0  0  0  0  0
   17.8869    4.0570   21.2030 H   0  0  0  0  0  0
   15.1267    5.6700   26.5890 H   0  0  0  0  0  0
   17.2320    4.4836   25.1446 H   0  0  0  0  0  0
   16.6425    3.8198   23.5831 H   0  0  0  0  0  0
   18.9545    6.2878   25.1630 H   0  0  0  0  0  0
   19.6628    6.8823   23.6230 H   0  0  0  0  0  0
   17.3569    7.7992   22.9912 H   0  0  0  0  0  0
   17.9527    8.5157   24.5269 H   0  0  0  0  0  0
   15.5308   10.8231   22.3638 H   0  0  0  0  0  0
   19.7680    2.1680   22.6159 H   0  0  0  0  0  0
   18.0471    2.4727   23.0308 H   0  0  0  0  0  0
   12.7216   11.1404   27.6931 H   0  0  0  0  0  0
  1 19  1  0  0  0
  1 29  1  0  0  0
  1 38  1  0  0  0
  2 36  1  0  0  0
  2 39  1  0  0  0
  2 40  1  0  0  0
  3  4  1  0  0  0
  3  6  2  0  0  0
  3 23  1  0  0  0
  4  5  1  0  0  0
  4  8  2  0  0  0
  5 17  2  0  0  0
  5 41  1  0  0  0
  6  7  1  0  0  0
  6 42  1  0  0  0
  7 28  2  0  0  0
  7 43  1  0  0  0
  8 28  1  0  0  0
  8 44  1  0  0  0
  9 18  1  0  0  0
  9 29  1  0  0  0
  9 45  1  0  0  0
  9 46  1  0  0  0
 10 21  1  0  0  0
 10 32  1  0  0  0
 10 47  1  0  0  0
 10 48  1  0  0  0
 11 16  1  0  0  0
 11 32  1  0  0  0
 11 33  1  0  0  0
 11 49  1  0  0  0
 12 13  2  0  0  0
 12 31  1  0  0  0
 12 50  1  0  0  0
 13 14  1  0  0  0
 13 36  1  0  0  0
 14 35  2  0  0  0
 14 51  1  0  0  0
 15 31  2  0  0  0
 15 35  1  0  0  0
 15 52  1  0  0  0
 16 37  1  0  0  0
 16 53  1  0  0  0
 16 54  1  0  0  0
 17 20  1  0  0  0
 17 55  1  0  0  0
 18 31  1  0  0  0
 19 24  2  0  0  0
 19 26  2  0  0  0
 19 28  1  0  0  0
 20 23  2  0  0  0
 20 56  1  0  0  0
 21 30  1  0  0  0
 21 34  1  0  0  0
 22 30  2  0  0  0
 23 57  1  0  0  0
 25 36  2  0  0  0
 25 58  1  0  0  0
 25 72  1  0  0  0
 27 37  1  0  0  0
 27 59  1  0  0  0
 27 60  1  0  0  0
 27 61  1  0  0  0
 29 30  1  0  0  0
 29 62  1  0  0  0
 32 63  1  0  0  0
 32 64  1  0  0  0
 33 34  1  0  0  0
 33 65  1  0  0  0
 33 66  1  0  0  0
 34 67  1  0  0  0
 34 68  1  0  0  0
 35 69  1  0  0  0
 37 70  1  0  0  0
 37 71  1  0  0  0
M  CHG  2  25   1  27   1
M  END
> <s_m_source_file>
../4r0i_ligand.sdf

> <i_m_source_file_index>
1

> <s_epik_input>
W2NIXTFbY0hdW2NIXVtjSF1jKGMxMilbY0hdYyhbY0hdW2NIXTIpUyg9TykoPU8pW05IXVtDQEBIXShbQ0gyXU9jKFtjSF1bY0hdW2NIXTMpW2NIXWMzQygvW05IMl0pPU5cW0hdKUMoPU8pTihbQ0gyXVtDSDJdNClbQ0gyXVtDSDJdW0NIXTRbQ0gyXVtDSDJdW05IMytd

> <s_epik_cmdline>
J2VwaWtfYXBwJywgJy1pbWFlJywgJ2xpZ2FuZF9wcm8ubWFlJywgJy1vbWFlJywgJ2xpZ2FuZF9wcmVwLm1hZScsICctbXMnLCAnMScsICctcGgnLCAnNycsICctcGh0JywgJzAuNScsICctbnQn

> <r_lp_tautomer_probability>
1

> <r_epik_Ionization_Penalty>
  0.0032

> <r_epik_Ionization_Penalty_Charging>
  0.0007

> <r_epik_Ionization_Penalty_Neutral>
  0.0026

> <r_epik_State_Penalty>
 -0.0000

> <r_epik_Charging_Adjusted_Penalty>
0.000667229836099492

> <i_epik_Tot_Q>
2

> <i_epik_Tot_abs_Q>
2

> <s_epik_Chemistry_Notes>
This compound has an imine and may undergo hydrolysis.

$$$$
