4r17_ligand
                    3D
 Schrodinger Suite 2020-3.
 13 13  0  0  1  0            999 V2000
   11.1290 -140.4130    9.9970 C   0  0  1  0  0  0
   12.3950 -139.7770   10.2820 C   0  0  0  0  0  0
   12.3640 -141.0120    7.3940 O   0  5  0  0  0  0
   11.2240 -140.5690    7.5390 C   0  0  0  0  0  0
   10.4410 -140.8060    8.8470 C   0  0  1  0  0  0
   10.9430 -141.7960    9.7440 N   0  3  0  0  0  0
   10.8667 -139.6503   10.7450 H   0  0  0  0  0  0
   12.2375 -138.6993   10.4359 H   0  0  0  0  0  0
   13.0809 -139.9301    9.4358 H   0  0  0  0  0  0
   12.8302 -140.2175   11.1912 H   0  0  0  0  0  0
   10.7649 -139.9972    6.7191 H   0  0  0  0  0  0
   11.9230 -142.2884    9.6600 H   0  0  0  0  0  0
   10.3758 -142.2471   10.5715 H   0  0  0  0  0  0
  1  2  1  0  0  0
  1  5  1  0  0  0
  1  6  1  0  0  0
  1  7  1  0  0  0
  2  8  1  0  0  0
  2  9  1  0  0  0
  2 10  1  0  0  0
  3  4  1  0  0  0
  4  5  2  0  0  0
  4 11  1  0  0  0
  5  6  1  0  0  0
  6 12  1  0  0  0
  6 13  1  0  0  0
M  CHG  2   3  -1   6   1
M  END
> <s_m_source_file>
../4r17_ligand.sdf

> <i_m_source_file_index>
1

> <s_epik_input>
W0NIM11bQ0BIXTFbQ0BASF0oW0NIXT1PKVtOSDIrXTE=

> <s_epik_cmdline>
J2VwaWtfYXBwJywgJy1pbWFlJywgJ2xpZ2FuZF9wcm8ubWFlJywgJy1vbWFlJywgJ2xpZ2FuZF9wcmVwLm1hZScsICctbXMnLCAnMScsICctcGgnLCAnNycsICctcGh0JywgJzAuNScsICctbnQn

> <r_lp_tautomer_probability>
1

> <r_epik_Ionization_Penalty>
  0.0031

> <r_epik_Ionization_Penalty_Charging>
  0.0031

> <r_epik_Ionization_Penalty_Neutral>
  0.0000

> <r_epik_State_Penalty>
 -0.0000

> <r_epik_Charging_Adjusted_Penalty>
0.00309251414935443

> <i_epik_Tot_Q>
0

> <i_epik_Tot_abs_Q>
2

$$$$
