4r1e_ligand
                    3D
 Schrodinger Suite 2020-3.
261261  0  0  1  0            999 V2000
  -14.8470    4.5270  -22.6200 N   0  3  0  0  0  0
  -13.8240    3.5010  -22.7080 C   0  0  0  0  0  0
  -12.7050    3.7110  -21.7070 C   0  0  0  0  0  0
  -12.9440    3.7950  -20.5020 O   0  0  0  0  0  0
  -11.4770    3.7950  -22.2080 N   0  0  0  0  0  0
  -10.3130    3.9960  -21.3540 C   0  0  2  0  0  0
  -10.5690    5.0860  -20.3190 C   0  0  0  0  0  0
  -10.3070    4.9020  -19.1300 O   0  0  0  0  0  0
   -9.0850    4.3490  -22.1960 C   0  0  0  0  0  0
   -9.4140    5.2810  -23.2120 O   0  0  0  0  0  0
  -11.0830    6.2230  -20.7790 N   0  0  0  0  0  0
  -11.3760    7.3440  -19.8940 C   0  0  2  0  0  0
  -12.0860    6.8780  -18.6280 C   0  0  0  0  0  0
  -11.6830    7.2220  -17.5170 O   0  0  0  0  0  0
  -12.2260    8.3900  -20.6190 C   0  0  0  0  0  0
  -12.5640    9.6550  -19.8280 C   0  0  0  0  0  0
  -11.3320   10.1840  -19.1090 C   0  0  0  0  0  0
  -13.1540   10.7190  -20.7410 C   0  0  0  0  0  0
  -13.1430    6.0920  -18.8030 N   0  0  0  0  0  0
  -13.9210    5.5710  -17.6600 C   0  0  2  0  0  0
  -13.0640    4.7760  -16.6900 C   0  0  0  0  0  0
  -13.2600    4.8650  -15.4800 O   0  0  0  0  0  0
  -15.0740    4.6800  -18.1030 C   0  0  0  0  0  0
  -16.0950    5.2530  -19.0890 C   0  0  0  0  0  0
  -17.3020    4.3240  -19.1400 C   0  0  0  0  0  0
  -16.5270    6.6650  -18.7430 C   0  0  0  0  0  0
  -12.1210    4.0060  -17.2180 N   0  0  0  0  0  0
  -11.2010    3.2470  -16.3760 C   0  0  2  0  0  0
  -10.2920    4.1810  -15.5760 C   0  0  0  0  0  0
  -10.0820    3.9680  -14.3780 O   0  0  0  0  0  0
  -10.3930    2.2290  -17.1990 C   0  0  0  0  0  0
  -11.2210    1.2490  -18.0550 C   0  0  0  0  0  0
  -12.3410    0.5200  -17.2950 C   0  0  0  0  0  0
  -11.8510   -0.0830  -16.0600 N   0  0  0  0  0  0
  -12.4290   -0.0080  -14.8580 C   0  0  0  0  0  0
  -13.6020    0.6100  -14.6750 N   0  0  0  0  0  0
  -11.8410   -0.5910  -13.8230 N   0  0  0  0  0  0
   -9.8060    5.2430  -16.2160 N   0  0  0  0  0  0
   -9.0230    6.2650  -15.5230 C   0  0  2  0  0  0
   -9.8450    6.8830  -14.3770 C   0  0  0  0  0  0
   -9.3850    6.9300  -13.2400 O   0  0  0  0  0  0
   -8.5120    7.3700  -16.4840 C   0  0  0  0  0  0
   -7.9340    8.5450  -15.7150 C   0  0  0  0  0  0
   -7.4500    6.8250  -17.4260 C   0  0  0  0  0  0
  -11.0660    7.3240  -14.6770 N   0  0  0  0  0  0
  -11.9150    7.9620  -13.6570 C   0  0  2  0  0  0
  -12.2440    6.9740  -12.5370 C   0  0  0  0  0  0
  -12.2700    7.3420  -11.3740 O   0  0  0  0  0  0
  -13.1810    8.5480  -14.2990 C   0  0  0  0  0  0
  -12.8880    9.7180  -15.2450 C   0  0  0  0  0  0
  -13.9560    9.9700  -16.3030 C   0  0  0  0  0  0
  -14.5660    9.0430  -16.8430 O   0  0  0  0  0  0
  -14.1580   11.2360  -16.6330 N   0  0  0  0  0  0
  -12.4560    5.7130  -12.8970 N   0  0  0  0  0  0
  -12.7770    4.6780  -11.9360 C   0  0  2  0  0  0
  -11.6350    4.4700  -10.9510 C   0  0  0  0  0  0
  -11.8610    4.4160   -9.7410 O   0  0  0  0  0  0
  -13.1270    3.3750  -12.6550 C   0  0  0  0  0  0
  -10.4020    4.4020  -11.4470 N   0  0  0  0  0  0
   -9.2690    4.2370  -10.5470 C   0  0  2  0  0  0
   -8.9920    5.4890   -9.6910 C   0  0  0  0  0  0
   -8.5470    5.3680   -8.5560 O   0  0  0  0  0  0
   -8.0340    3.7470  -11.3020 C   0  0  0  0  0  0
   -8.1210    2.2960  -11.6860 C   0  0  0  0  0  0
   -7.8530    1.2810  -10.8000 N   0  0  0  0  0  0
   -8.4740    1.6940  -12.8430 C   0  0  0  0  0  0
   -8.0390    0.1150  -11.3850 C   0  0  0  0  0  0
   -8.4110    0.3370  -12.6310 N   0  0  0  0  0  0
   -9.2780    6.6790  -10.2130 N   0  0  0  0  0  0
   -9.1570    7.8800   -9.3900 C   0  0  2  0  0  0
  -10.1780    7.8450   -8.2410 C   0  0  0  0  0  0
   -9.8190    8.0940   -7.0960 O   0  0  0  0  0  0
   -9.2800    9.1760  -10.2000 C   0  0  2  0  0  0
   -8.1070    9.2940  -11.1780 C   0  0  0  0  0  0
   -9.3180   10.3770   -9.2580 C   0  0  0  0  0  0
   -8.2590   10.4030  -12.1990 C   0  0  0  0  0  0
  -11.4260    7.4960   -8.5380 N   0  0  0  0  0  0
  -12.4390    7.3730   -7.4870 C   0  0  2  0  0  0
  -12.0500    6.3260   -6.4420 C   0  0  0  0  0  0
  -12.2070    6.5580   -5.2390 O   0  0  0  0  0  0
  -13.8200    7.0870   -8.0780 C   0  0  0  0  0  0
  -14.4270    8.2750   -8.8020 C   0  0  0  0  0  0
  -15.9390    8.1270   -8.9950 C   0  0  0  0  0  0
  -16.5150    9.3530   -9.5220 N   0  0  0  0  0  0
  -16.6100    9.6720  -10.8170 C   0  0  0  0  0  0
  -16.1880    8.8470  -11.7720 N   0  0  0  0  0  0
  -17.1320   10.8420  -11.1630 N   0  0  0  0  0  0
  -11.4960    5.2030   -6.8930 N   0  0  0  0  0  0
  -10.9820    4.1750   -5.9830 C   0  0  2  0  0  0
   -9.8840    4.7220   -5.0750 C   0  0  0  0  0  0
   -9.9310    4.5400   -3.8420 O   0  0  0  0  0  0
  -10.4570    2.9760   -6.7810 C   0  0  0  0  0  0
   -9.6390    1.9600   -5.9790 C   0  0  0  0  0  0
   -8.7400    1.1320   -6.8820 C   0  0  0  0  0  0
   -7.4520    1.8740   -7.2060 C   0  0  0  0  0  0
   -6.5460    1.0910   -8.0840 N   0  3  0  0  0  0
   -8.8940    5.3860   -5.6730 N   0  0  0  0  0  0
   -7.7810    5.9640   -4.8930 C   0  0  2  0  0  0
   -8.2430    6.9850   -3.8720 C   0  0  0  0  0  0
   -7.7110    7.0270   -2.7680 O   0  0  0  0  0  0
   -6.7200    6.6380   -5.7880 C   0  0  0  0  0  0
   -5.9530    5.7080   -6.7160 C   0  0  0  0  0  0
   -5.2310    4.5710   -5.9930 C   0  0  0  0  0  0
   -3.9330    5.0070   -5.3380 C   0  0  0  0  0  0
   -3.1080    3.8040   -5.0530 N   0  3  0  0  0  0
   -9.2180    7.8150   -4.2180 N   0  0  0  0  0  0
   -9.6100    8.8820   -3.3060 C   0  0  2  0  0  0
  -10.5430    8.3970   -2.1770 C   0  0  0  0  0  0
  -10.7930    9.1390   -1.2290 O   0  0  0  0  0  0
  -10.1960   10.0670   -4.0840 C   0  0  0  0  0  0
   -9.2060   10.7480   -5.0380 C   0  0  0  0  0  0
   -7.8040   11.6230   -4.2810 S   0  0  0  0  0  0
   -6.4850   10.4470   -4.5320 C   0  0  0  0  0  0
  -10.9840    7.1410   -2.2580 N   0  0  0  0  0  0
  -11.6660    6.4820   -1.1500 C   0  0  2  0  0  0
  -10.6670    5.8890   -0.1620 C   0  0  0  0  0  0
   -9.5250    5.5980   -0.5190 O   0  0  0  0  0  0
  -12.6050    5.3680   -1.6470 C   0  0  0  0  0  0
  -13.2460    4.6500   -0.4700 C   0  0  0  0  0  0
  -13.6670    5.9440   -2.5720 C   0  0  0  0  0  0
  -11.0142    5.6946    1.0335 O   0  0  0  0  0  0
  -15.6315    4.3274  -23.3649 H   0  0  0  0  0  0
  -14.3969    5.5113  -22.8162 H   0  0  0  0  0  0
  -15.2878    4.5197  -21.6122 H   0  0  0  0  0  0
  -14.2741    2.5167  -22.5118 H   0  0  0  0  0  0
  -13.3831    3.5082  -23.7158 H   0  0  0  0  0  0
  -11.3516    3.7088  -23.2974 H   0  0  0  0  0  0
  -10.1643    3.0339  -20.8420 H   0  0  0  0  0  0
   -8.3122    4.7909  -21.5499 H   0  0  0  0  0  0
   -8.6903    3.4376  -22.6689 H   0  0  0  0  0  0
   -8.6370    5.6366  -23.9047 H   0  0  0  0  0  0
  -11.2870    6.3052  -21.8568 H   0  0  0  0  0  0
  -10.3945    7.7631  -19.6275 H   0  0  0  0  0  0
  -11.6977    8.7300  -21.5219 H   0  0  0  0  0  0
  -13.1906    7.9449  -20.9043 H   0  0  0  0  0  0
  -13.3191    9.4023  -19.0691 H   0  0  0  0  0  0
  -10.9233    9.3989  -18.4558 H   0  0  0  0  0  0
  -11.6090   11.0586  -18.5020 H   0  0  0  0  0  0
  -10.5730   10.4770  -19.8493 H   0  0  0  0  0  0
  -14.0419   10.3147  -21.2492 H   0  0  0  0  0  0
  -12.4054   11.0150  -21.4906 H   0  0  0  0  0  0
  -13.4414   11.5966  -20.1434 H   0  0  0  0  0  0
  -13.4343    5.8311  -19.8312 H   0  0  0  0  0  0
  -14.2988    6.4843  -17.1771 H   0  0  0  0  0  0
  -14.6746    3.7827  -18.5983 H   0  0  0  0  0  0
  -15.6651    4.3815  -17.2247 H   0  0  0  0  0  0
  -15.6180    5.3225  -20.0778 H   0  0  0  0  0  0
  -16.9706    3.3058  -19.3919 H   0  0  0  0  0  0
  -18.0067    4.6802  -19.9058 H   0  0  0  0  0  0
  -17.7998    4.3155  -18.1591 H   0  0  0  0  0  0
  -15.6445    7.3209  -18.7106 H   0  0  0  0  0  0
  -17.0215    6.6667  -17.7604 H   0  0  0  0  0  0
  -17.2284    7.0315  -19.5071 H   0  0  0  0  0  0
  -12.0405    3.9463  -18.3134 H   0  0  0  0  0  0
  -11.8475    2.6995  -15.6744 H   0  0  0  0  0  0
   -9.7322    2.7638  -17.8971 H   0  0  0  0  0  0
   -9.7867    1.6090  -16.5223 H   0  0  0  0  0  0
  -11.7009    1.7972  -18.8791 H   0  0  0  0  0  0
  -10.5593    0.4729  -18.4672 H   0  0  0  0  0  0
  -13.1364    1.2355  -17.0391 H   0  0  0  0  0  0
  -12.7554   -0.2776  -17.9291 H   0  0  0  0  0  0
  -10.9187   -0.6667  -16.0651 H   0  0  0  0  0  0
  -14.1041    1.0991  -15.5227 H   0  0  0  0  0  0
  -14.0639    0.6288  -13.6769 H   0  0  0  0  0  0
  -10.8767   -1.1035  -13.9552 H   0  0  0  0  0  0
  -10.0068    5.3404  -17.2931 H   0  0  0  0  0  0
   -8.1604    5.7123  -15.1225 H   0  0  0  0  0  0
   -9.3647    7.7288  -17.0792 H   0  0  0  0  0  0
   -8.6961    8.9458  -15.0305 H   0  0  0  0  0  0
   -7.6265    9.3300  -16.4216 H   0  0  0  0  0  0
   -7.0607    8.2103  -15.1359 H   0  0  0  0  0  0
   -7.8605    5.9728  -17.9876 H   0  0  0  0  0  0
   -6.5778    6.4941  -16.8431 H   0  0  0  0  0  0
   -7.1436    7.6138  -18.1287 H   0  0  0  0  0  0
  -11.4372    7.2052  -15.7057 H   0  0  0  0  0  0
  -11.3246    8.7851  -13.2281 H   0  0  0  0  0  0
  -13.6914    7.7673  -14.8822 H   0  0  0  0  0  0
  -13.8546    8.9166  -13.5114 H   0  0  0  0  0  0
  -12.7950   10.6463  -14.6622 H   0  0  0  0  0  0
  -11.9480    9.5275  -15.7836 H   0  0  0  0  0  0
  -13.5933   12.0331  -16.1272 H   0  0  0  0  0  0
  -14.8906   11.4909  -17.4130 H   0  0  0  0  0  0
  -12.3806    5.4664  -13.9663 H   0  0  0  0  0  0
  -13.6541    5.0531  -11.3883 H   0  0  0  0  0  0
  -13.9532    3.5550  -13.3586 H   0  0  0  0  0  0
  -13.4324    2.6193  -11.9164 H   0  0  0  0  0  0
  -12.2472    3.0133  -13.2073 H   0  0  0  0  0  0
  -10.2369    4.4699  -12.5324 H   0  0  0  0  0  0
   -9.5944    3.4411   -9.8610 H   0  0  0  0  0  0
   -7.9132    4.3316  -12.2260 H   0  0  0  0  0  0
   -7.1432    3.8734  -10.6691 H   0  0  0  0  0  0
   -8.7732    2.0836  -13.8272 H   0  0  0  0  0  0
   -7.9083   -0.8623  -10.9204 H   0  0  0  0  0  0
   -9.6046    6.7605  -11.2602 H   0  0  0  0  0  0
   -8.1306    7.8313   -8.9973 H   0  0  0  0  0  0
  -10.2168    9.1589  -10.7764 H   0  0  0  0  0  0
   -7.1817    9.4953  -10.6182 H   0  0  0  0  0  0
   -7.9998    8.3529  -11.7373 H   0  0  0  0  0  0
  -10.1660   10.2729   -8.5652 H   0  0  0  0  0  0
   -9.4353   11.2998   -9.8450 H   0  0  0  0  0  0
   -8.3801   10.4235   -8.6852 H   0  0  0  0  0  0
   -7.3784   10.4179  -12.8580 H   0  0  0  0  0  0
   -8.3454   11.3693  -11.6806 H   0  0  0  0  0  0
   -9.1635   10.2269  -12.7997 H   0  0  0  0  0  0
  -11.6944    7.2988   -9.5864 H   0  0  0  0  0  0
  -12.4561    8.3593   -7.0003 H   0  0  0  0  0  0
  -13.7451    6.2630   -8.8029 H   0  0  0  0  0  0
  -14.5126    6.8041   -7.2716 H   0  0  0  0  0  0
  -14.2458    9.1907   -8.2200 H   0  0  0  0  0  0
  -13.9648    8.3743   -9.7952 H   0  0  0  0  0  0
  -16.1400    7.3086   -9.7019 H   0  0  0  0  0  0
  -16.4117    7.9005   -8.0279 H   0  0  0  0  0  0
  -16.9190   10.1107   -8.8345 H   0  0  0  0  0  0
  -15.7525    7.8730  -11.5045 H   0  0  0  0  0  0
  -16.2747    9.1391  -12.8290 H   0  0  0  0  0  0
  -17.4862   11.5371  -10.3875 H   0  0  0  0  0  0
  -11.4294    5.0573   -7.9813 H   0  0  0  0  0  0
  -11.8422    3.8834   -5.3625 H   0  0  0  0  0  0
  -11.3046    2.4225   -7.2113 H   0  0  0  0  0  0
   -9.8029    3.3323   -7.5904 H   0  0  0  0  0  0
   -9.0077    2.4904   -5.2509 H   0  0  0  0  0  0
  -10.3198    1.2794   -5.4468 H   0  0  0  0  0  0
   -8.4840    0.1881   -6.3786 H   0  0  0  0  0  0
   -9.2659    0.9146   -7.8233 H   0  0  0  0  0  0
   -7.6912    2.8155   -7.7221 H   0  0  0  0  0  0
   -6.9111    2.0940   -6.2738 H   0  0  0  0  0  0
   -5.6350    1.6742   -8.2841 H   0  0  0  0  0  0
   -7.0559    0.8702   -9.0333 H   0  0  0  0  0  0
   -6.2759    0.1486   -7.5850 H   0  0  0  0  0  0
   -8.9162    5.4996   -6.7669 H   0  0  0  0  0  0
   -7.3750    5.0818   -4.3764 H   0  0  0  0  0  0
   -7.2054    7.3854   -6.4327 H   0  0  0  0  0  0
   -5.9676    7.1323   -5.1559 H   0  0  0  0  0  0
   -6.6498    5.2483   -7.4323 H   0  0  0  0  0  0
   -5.1909    6.2825   -7.2630 H   0  0  0  0  0  0
   -5.8817    4.1668   -5.2036 H   0  0  0  0  0  0
   -4.9888    3.7746   -6.7121 H   0  0  0  0  0  0
   -3.3875    5.6790   -6.0168 H   0  0  0  0  0  0
   -4.1554    5.5356   -4.3993 H   0  0  0  0  0  0
   -2.1645    4.1106   -4.5778 H   0  0  0  0  0  0
   -2.8905    3.2773   -5.9939 H   0  0  0  0  0  0
   -3.6585    3.1338   -4.3764 H   0  0  0  0  0  0
   -9.7297    7.7025   -5.1852 H   0  0  0  0  0  0
   -8.6646    9.1899   -2.8354 H   0  0  0  0  0  0
  -11.0443    9.7220   -4.6934 H   0  0  0  0  0  0
  -10.5412   10.8354   -3.3766 H   0  0  0  0  0  0
   -8.7606    9.9940   -5.7036 H   0  0  0  0  0  0
   -9.7357   11.5012   -5.6398 H   0  0  0  0  0  0
   -5.5504   10.8496   -4.1144 H   0  0  0  0  0  0
   -6.3566   10.2644   -5.6091 H   0  0  0  0  0  0
   -6.7351    9.5022   -4.0272 H   0  0  0  0  0  0
  -10.8180    6.6002   -3.2014 H   0  0  0  0  0  0
  -12.2389    7.2912   -0.6736 H   0  0  0  0  0  0
  -12.0236    4.6283   -2.2170 H   0  0  0  0  0  0
  -12.4602    4.2429    0.1833 H   0  0  0  0  0  0
  -13.8765    3.8285   -0.8409 H   0  0  0  0  0  0
  -13.8650    5.3592    0.0991 H   0  0  0  0  0  0
  -13.1802    6.4576   -3.4142 H   0  0  0  0  0  0
  -14.2885    6.6608   -2.0152 H   0  0  0  0  0  0
  -14.3000    5.1301   -2.9552 H   0  0  0  0  0  0
  -10.2987    5.2672    1.7515 H   0  0  0  0  0  0
  1  2  1  0  0  0
  1122  1  0  0  0
  1123  1  0  0  0
  1124  1  0  0  0
  2  3  1  0  0  0
  2125  1  0  0  0
  2126  1  0  0  0
  3  4  2  0  0  0
  3  5  1  0  0  0
  5  6  1  0  0  0
  5127  1  0  0  0
  6  7  1  0  0  0
  6  9  1  0  0  0
  6128  1  0  0  0
  7  8  2  0  0  0
  7 11  1  0  0  0
  9 10  1  0  0  0
  9129  1  0  0  0
  9130  1  0  0  0
 10131  1  0  0  0
 11 12  1  0  0  0
 11132  1  0  0  0
 12 13  1  0  0  0
 12 15  1  0  0  0
 12133  1  0  0  0
 13 14  2  0  0  0
 13 19  1  0  0  0
 15 16  1  0  0  0
 15134  1  0  0  0
 15135  1  0  0  0
 16 17  1  0  0  0
 16 18  1  0  0  0
 16136  1  0  0  0
 17137  1  0  0  0
 17138  1  0  0  0
 17139  1  0  0  0
 18140  1  0  0  0
 18141  1  0  0  0
 18142  1  0  0  0
 19 20  1  0  0  0
 19143  1  0  0  0
 20 21  1  0  0  0
 20 23  1  0  0  0
 20144  1  0  0  0
 21 22  2  0  0  0
 21 27  1  0  0  0
 23 24  1  0  0  0
 23145  1  0  0  0
 23146  1  0  0  0
 24 25  1  0  0  0
 24 26  1  0  0  0
 24147  1  0  0  0
 25148  1  0  0  0
 25149  1  0  0  0
 25150  1  0  0  0
 26151  1  0  0  0
 26152  1  0  0  0
 26153  1  0  0  0
 27 28  1  0  0  0
 27154  1  0  0  0
 28 29  1  0  0  0
 28 31  1  0  0  0
 28155  1  0  0  0
 29 30  2  0  0  0
 29 38  1  0  0  0
 31 32  1  0  0  0
 31156  1  0  0  0
 31157  1  0  0  0
 32 33  1  0  0  0
 32158  1  0  0  0
 32159  1  0  0  0
 33 34  1  0  0  0
 33160  1  0  0  0
 33161  1  0  0  0
 34 35  1  0  0  0
 34162  1  0  0  0
 35 36  1  0  0  0
 35 37  2  0  0  0
 36163  1  0  0  0
 36164  1  0  0  0
 37165  1  0  0  0
 38 39  1  0  0  0
 38166  1  0  0  0
 39 40  1  0  0  0
 39 42  1  0  0  0
 39167  1  0  0  0
 40 41  2  0  0  0
 40 45  1  0  0  0
 42 43  1  0  0  0
 42 44  1  0  0  0
 42168  1  0  0  0
 43169  1  0  0  0
 43170  1  0  0  0
 43171  1  0  0  0
 44172  1  0  0  0
 44173  1  0  0  0
 44174  1  0  0  0
 45 46  1  0  0  0
 45175  1  0  0  0
 46 47  1  0  0  0
 46 49  1  0  0  0
 46176  1  0  0  0
 47 48  2  0  0  0
 47 54  1  0  0  0
 49 50  1  0  0  0
 49177  1  0  0  0
 49178  1  0  0  0
 50 51  1  0  0  0
 50179  1  0  0  0
 50180  1  0  0  0
 51 52  2  0  0  0
 51 53  1  0  0  0
 53181  1  0  0  0
 53182  1  0  0  0
 54 55  1  0  0  0
 54183  1  0  0  0
 55 56  1  0  0  0
 55 58  1  0  0  0
 55184  1  0  0  0
 56 57  2  0  0  0
 56 59  1  0  0  0
 58185  1  0  0  0
 58186  1  0  0  0
 58187  1  0  0  0
 59 60  1  0  0  0
 59188  1  0  0  0
 60 61  1  0  0  0
 60 63  1  0  0  0
 60189  1  0  0  0
 61 62  2  0  0  0
 61 69  1  0  0  0
 63 64  1  0  0  0
 63190  1  0  0  0
 63191  1  0  0  0
 64 65  2  0  0  0
 64 66  1  0  0  0
 65 67  1  0  0  0
 66 68  2  0  0  0
 66192  1  0  0  0
 67 68  1  0  0  0
 67193  1  0  0  0
 69 70  1  0  0  0
 69194  1  0  0  0
 70 71  1  0  0  0
 70 73  1  0  0  0
 70195  1  0  0  0
 71 72  2  0  0  0
 71 77  1  0  0  0
 73 74  1  0  0  0
 73 75  1  0  0  0
 73196  1  0  0  0
 74 76  1  0  0  0
 74197  1  0  0  0
 74198  1  0  0  0
 75199  1  0  0  0
 75200  1  0  0  0
 75201  1  0  0  0
 76202  1  0  0  0
 76203  1  0  0  0
 76204  1  0  0  0
 77 78  1  0  0  0
 77205  1  0  0  0
 78 79  1  0  0  0
 78 81  1  0  0  0
 78206  1  0  0  0
 79 80  2  0  0  0
 79 88  1  0  0  0
 81 82  1  0  0  0
 81207  1  0  0  0
 81208  1  0  0  0
 82 83  1  0  0  0
 82209  1  0  0  0
 82210  1  0  0  0
 83 84  1  0  0  0
 83211  1  0  0  0
 83212  1  0  0  0
 84 85  1  0  0  0
 84213  1  0  0  0
 85 86  1  0  0  0
 85 87  2  0  0  0
 86214  1  0  0  0
 86215  1  0  0  0
 87216  1  0  0  0
 88 89  1  0  0  0
 88217  1  0  0  0
 89 90  1  0  0  0
 89 92  1  0  0  0
 89218  1  0  0  0
 90 91  2  0  0  0
 90 97  1  0  0  0
 92 93  1  0  0  0
 92219  1  0  0  0
 92220  1  0  0  0
 93 94  1  0  0  0
 93221  1  0  0  0
 93222  1  0  0  0
 94 95  1  0  0  0
 94223  1  0  0  0
 94224  1  0  0  0
 95 96  1  0  0  0
 95225  1  0  0  0
 95226  1  0  0  0
 96227  1  0  0  0
 96228  1  0  0  0
 96229  1  0  0  0
 97 98  1  0  0  0
 97230  1  0  0  0
 98 99  1  0  0  0
 98101  1  0  0  0
 98231  1  0  0  0
 99100  2  0  0  0
 99106  1  0  0  0
101102  1  0  0  0
101232  1  0  0  0
101233  1  0  0  0
102103  1  0  0  0
102234  1  0  0  0
102235  1  0  0  0
103104  1  0  0  0
103236  1  0  0  0
103237  1  0  0  0
104105  1  0  0  0
104238  1  0  0  0
104239  1  0  0  0
105240  1  0  0  0
105241  1  0  0  0
105242  1  0  0  0
106107  1  0  0  0
106243  1  0  0  0
107108  1  0  0  0
107110  1  0  0  0
107244  1  0  0  0
108109  2  0  0  0
108114  1  0  0  0
110111  1  0  0  0
110245  1  0  0  0
110246  1  0  0  0
111112  1  0  0  0
111247  1  0  0  0
111248  1  0  0  0
112113  1  0  0  0
113249  1  0  0  0
113250  1  0  0  0
113251  1  0  0  0
114115  1  0  0  0
114252  1  0  0  0
115116  1  0  0  0
115118  1  0  0  0
115253  1  0  0  0
116117  2  0  0  0
116121  1  0  0  0
118119  1  0  0  0
118120  1  0  0  0
118254  1  0  0  0
119255  1  0  0  0
119256  1  0  0  0
119257  1  0  0  0
120258  1  0  0  0
120259  1  0  0  0
120260  1  0  0  0
121261  1  0  0  0
M  CHG  3   1   1  96   1 105   1
M  END
> <s_m_source_file>
../4r1e_ligand.sdf

> <i_m_source_file_index>
1

> <s_epik_input>
W05IMytdW0NIMl1DKD1PKVtOSF1bQ0BASF0oW0NIMl1bT0hdKUMoPU8pW05IXVtDQEBIXShbQ0gyXVtDSF0oW0NIM10pW0NIM10pQyg9TylbTkhdW0NAQEhdKFtDSDJdW0NIXShbQ0gzXSlbQ0gzXSlDKD1PKVtOSF1bQ0BASF0oW0NIMl1bQ0gyXVtDSDJdW05IXS9DKFtOSDJdKT1OXFtIXSlDKD1PKVtOSF1bQ0BASF0oW0NIXShbQ0gzXSlbQ0gzXSlDKD1PKVtOSF1bQ0BASF0oW0NIMl1bQ0gyXUMoPU8pW05IMl0pQyg9TylbTkhdW0NAQEhdKFtDSDNdKUMoPU8pW05IXVtDQEBIXShbQ0gyXUMxPU5bQ0gyXU49W0NIXTEpQyg9TylbTkhdW0NAQEhdKFtDQEBIXShbQ0gzXSlbQ0gyXVtDSDNdKUMoPU8pW05IXVtDQEBIXShbQ0gyXVtDSDJdW0NIMl1bTkhdL0MoW05IMl0pPU5cW0hdKUMoPU8pW05IXVtDQEBIXShbQ0gyXVtDSDJdW0NIMl1bQ0gyXVtOSDMrXSlDKD1PKVtOSF1bQ0BASF0oW0NIMl1bQ0gyXVtDSDJdW0NIMl1bTkgzK10pQyg9TylbTkhdW0NAQEhdKFtDSDJdW0NIMl1TW0NIM10pQyg9TylbTkhdW0NASF0oQyg9TylbT0hdKVtDSF0oW0NIM10pW0NIM10=

> <s_epik_cmdline>
J2VwaWtfYXBwJywgJy1pbWFlJywgJ2xpZ2FuZF9wcm8ubWFlJywgJy1vbWFlJywgJ2xpZ2FuZF9wcmVwLm1hZScsICctbXMnLCAnMScsICctcGgnLCAnNycsICctcGh0JywgJzAuNScsICctbnQn

> <s_epik_pKa_notes>
Molecule size exceeds maximum supported for generating protonation states

> <s_epik_Chemistry_Notes>
This compound has an imine and may undergo hydrolysis.

$$$$
