4r1v_ligand
                    3D
 Schrodinger Suite 2020-3.
 68 72  0  0  1  0            999 V2000
  108.0060   17.6260  141.3860 C   0  0  0  0  0  0
  108.2360   16.3920  141.9820 C   0  0  0  0  0  0
  108.8860   18.0990  140.4110 C   0  0  0  0  0  0
  109.3530   15.6400  141.6140 C   0  0  0  0  0  0
  110.0010   17.3440  140.0650 C   0  0  0  0  0  0
  110.2380   16.1030  140.6540 C   0  0  0  0  0  0
  106.8160   18.4270  141.7240 C   0  0  0  0  0  0
  106.0690   18.2680  142.9920 C   0  0  0  0  0  0
  104.5450   19.9990  142.2540 C   0  0  0  0  0  0
  105.5140   23.3500  140.8170 C   0  0  0  0  0  0
  107.2350   22.1690  139.6720 C   0  0  0  0  0  0
  106.3670   24.4330  140.9770 C   0  0  0  0  0  0
  108.0870   23.2520  139.8220 C   0  0  0  0  0  0
  107.6520   24.3810  140.5040 C   0  0  0  0  0  0
  109.9180   21.8990  138.9240 N   0  0  0  0  0  0
  111.6690   24.0070  139.3390 C   0  0  0  0  0  0
  111.2550   21.7460  138.6700 C   0  0  0  0  0  0
  113.4400   22.5520  138.5760 O   0  0  0  0  0  0
  116.0950   21.6850  138.2320 C   0  0  0  0  0  0
  115.7160   21.8270  140.6810 C   0  0  0  0  0  0
  117.5060   21.1260  138.5150 C   0  0  0  0  0  0
  117.1230   21.2570  140.9760 C   0  0  0  0  0  0
  118.9180   19.8850  140.0450 C   0  0  0  0  0  0
  109.5530   14.3660  142.2190 C   0  0  0  0  0  0
  109.6440   13.3030  142.6720 N   0  0  0  0  0  0
  106.4050   19.2870  140.8360 N   0  0  0  0  0  0
  105.2700   20.0570  141.0880 N   0  0  0  0  0  0
  103.5700   20.7110  142.4050 O   0  0  0  0  0  0
  104.9850   19.0200  143.2430 C   0  0  0  0  0  0
  105.0010   21.0170  140.0130 C   0  0  0  0  0  0
  105.9330   22.2090  140.1610 C   0  0  0  0  0  0
  109.4770   23.1220  139.4020 C   0  0  0  0  0  0
  112.1270   22.7820  138.8740 C   0  0  0  0  0  0
  110.3350   24.1650  139.6230 N   0  0  0  0  0  0
  114.4610   23.3780  139.1070 C   0  0  0  0  0  0
  115.7710   22.6320  139.3750 C   0  0  2  0  0  0
  117.5620   20.4320  139.8260 N   0  3  2  0  0  0
  107.5457   16.0121  142.7352 H   0  0  0  0  0  0
  108.6998   19.0558  139.9232 H   0  0  0  0  0  0
  110.7002   17.7281  139.3222 H   0  0  0  0  0  0
  111.1040   15.5077  140.3645 H   0  0  0  0  0  0
  106.4007   17.5297  143.7369 H   0  0  0  0  0  0
  104.5002   23.4005  141.2142 H   0  0  0  0  0  0
  107.5903   21.2728  139.1634 H   0  0  0  0  0  0
  106.0123   25.3312  141.4824 H   0  0  0  0  0  0
  108.3288   25.2207  140.6620 H   0  0  0  0  0  0
  112.3625   24.8365  139.4775 H   0  0  0  0  0  0
  111.6286   20.7905  138.3019 H   0  0  0  0  0  0
  116.0976   22.2165  137.2690 H   0  0  0  0  0  0
  115.3734   20.8557  138.1912 H   0  0  0  0  0  0
  114.9992   20.9990  140.5781 H   0  0  0  0  0  0
  115.4044   22.4811  141.5087 H   0  0  0  0  0  0
  117.7804   20.4077  137.7284 H   0  0  0  0  0  0
  118.2322   21.9522  138.5266 H   0  0  0  0  0  0
  117.8299   22.0859  141.1283 H   0  0  0  0  0  0
  117.0844   20.6366  141.8835 H   0  0  0  0  0  0
  119.2137   19.2791  139.1758 H   0  0  0  0  0  0
  118.9183   19.2562  140.9475 H   0  0  0  0  0  0
  119.6308   20.7128  140.1746 H   0  0  0  0  0  0
  106.9515   19.4064  139.8888 H   0  0  0  0  0  0
  104.1110   18.3674  143.3855 H   0  0  0  0  0  0
  105.1528   19.6124  144.1545 H   0  0  0  0  0  0
  105.1713   20.5344  139.0393 H   0  0  0  0  0  0
  103.9563   21.3556  140.0766 H   0  0  0  0  0  0
  114.6826   24.1889  138.3976 H   0  0  0  0  0  0
  114.1251   23.8080  140.0621 H   0  0  0  0  0  0
  116.5599   23.3944  139.4546 H   0  0  0  0  0  0
  116.8333   19.6094  139.7769 H   0  0  0  0  0  0
  1  2  2  0  0  0
  1  3  1  0  0  0
  1  7  1  0  0  0
  2  4  1  0  0  0
  2 38  1  0  0  0
  3  5  2  0  0  0
  3 39  1  0  0  0
  4  6  2  0  0  0
  4 24  1  0  0  0
  5  6  1  0  0  0
  5 40  1  0  0  0
  6 41  1  0  0  0
  7  8  2  0  0  0
  7 26  1  0  0  0
  8 29  1  0  0  0
  8 42  1  0  0  0
  9 27  1  0  0  0
  9 28  2  0  0  0
  9 29  1  0  0  0
 10 12  2  0  0  0
 10 31  1  0  0  0
 10 43  1  0  0  0
 11 13  1  0  0  0
 11 31  2  0  0  0
 11 44  1  0  0  0
 12 14  1  0  0  0
 12 45  1  0  0  0
 13 14  2  0  0  0
 13 32  1  0  0  0
 14 46  1  0  0  0
 15 17  2  0  0  0
 15 32  1  0  0  0
 16 33  2  0  0  0
 16 34  1  0  0  0
 16 47  1  0  0  0
 17 33  1  0  0  0
 17 48  1  0  0  0
 18 33  1  0  0  0
 18 35  1  0  0  0
 19 21  1  0  0  0
 19 36  1  0  0  0
 19 49  1  0  0  0
 19 50  1  0  0  0
 20 22  1  0  0  0
 20 36  1  0  0  0
 20 51  1  0  0  0
 20 52  1  0  0  0
 21 37  1  0  0  0
 21 53  1  0  0  0
 21 54  1  0  0  0
 22 37  1  0  0  0
 22 55  1  0  0  0
 22 56  1  0  0  0
 23 37  1  0  0  0
 23 57  1  0  0  0
 23 58  1  0  0  0
 23 59  1  0  0  0
 24 25  3  0  0  0
 26 27  1  0  0  0
 26 60  1  0  0  0
 27 30  1  0  0  0
 29 61  1  0  0  0
 29 62  1  0  0  0
 30 31  1  0  0  0
 30 63  1  0  0  0
 30 64  1  0  0  0
 32 34  2  0  0  0
 35 36  1  0  0  0
 35 65  1  0  0  0
 35 66  1  0  0  0
 36 67  1  0  0  0
 37 68  1  0  0  0
M  CHG  1  37   1
M  END
> <s_m_source_file>
../4r1v_ligand.sdf

> <i_m_source_file_index>
1

> <s_epik_input>
W2NIXTFbY0hdW2NIXWMoQyNOKVtjSF1jMUMyPVtDSF1bQ0gyXUMoPU8pTihbTkhdMilbQ0gyXWMoW2NIXVtjSF1bY0hdMylbY0hdYzMtYzRuW2NIXWMoW2NIXW40KU9bQ0gyXVtDQEBIXTVbQ0gyXVtDSDJdW05AQEgrXShbQ0gzXSlbQ0gyXVtDSDJdNQ==

> <s_epik_cmdline>
J2VwaWtfYXBwJywgJy1pbWFlJywgJ2xpZ2FuZF9wcm8ubWFlJywgJy1vbWFlJywgJ2xpZ2FuZF9wcmVwLm1hZScsICctbXMnLCAnMScsICctcGgnLCAnNycsICctcGh0JywgJzAuNScsICctbnQn

> <r_lp_tautomer_probability>
1

> <r_epik_Ionization_Penalty>
  0.0016

> <r_epik_Ionization_Penalty_Charging>
  0.0016

> <r_epik_Ionization_Penalty_Neutral>
  0.0000

> <r_epik_State_Penalty>
 -0.0000

> <r_epik_Charging_Adjusted_Penalty>
0.00161127149322143

> <i_epik_Tot_Q>
1

> <i_epik_Tot_abs_Q>
1

$$$$
