4r1y_ligand
                    3D
 Schrodinger Suite 2020-3.
 71 73  0  0  1  0            999 V2000
  -20.1620   26.3890   99.1530 C   0  0  0  0  0  0
  -21.1390   25.6080   98.5380 C   0  0  0  0  0  0
  -20.4800   27.6920   99.5100 C   0  0  0  0  0  0
  -22.4090   26.1390   98.2930 C   0  0  0  0  0  0
  -21.7480   28.2220   99.2820 C   0  0  0  0  0  0
  -22.7170   27.4470   98.6590 C   0  0  0  0  0  0
  -16.4680   24.1890  100.0150 C   0  0  0  0  0  0
  -18.3380   24.9160   98.6320 N   0  0  0  0  0  0
  -17.9410   26.4230  100.5330 C   0  0  0  0  0  0
  -18.8000   25.8610   99.4080 C   0  0  0  0  0  0
  -19.6010   20.7230   97.2880 C   0  0  0  0  0  0
  -17.7370   19.6570   98.3620 C   0  0  0  0  0  0
  -18.8830   21.8990   97.2510 C   0  0  0  0  0  0
  -17.0280   20.8420   98.3060 C   0  0  0  0  0  0
  -17.5960   21.9720   97.7550 C   0  0  0  0  0  0
  -21.2510   30.4430  100.2980 C   0  0  0  0  0  0
  -23.0930   20.1370   96.2100 O   0  0  0  0  0  0
  -25.4120   19.9860   97.0220 C   0  0  0  0  0  0
  -25.9670   21.0030   96.0240 C   0  0  0  0  0  0
  -26.3960   23.3850   95.7500 C   0  0  0  0  0  0
  -27.3830   23.2130   94.5820 C   0  0  0  0  0  0
  -27.5930   22.1240   97.5060 C   0  0  0  0  0  0
  -27.6970   23.1950   98.5990 C   0  0  0  0  0  0
  -21.6530   18.6810   97.0830 O   0  0  0  0  0  0
  -21.8710   19.8040   96.7110 C   0  0  0  0  0  0
  -24.2040   19.2690   96.4230 C   0  0  0  0  0  0
  -26.3410   22.2600   96.7200 N   0  3  0  0  0  0
  -20.9200   20.8000   96.7750 N   0  0  0  0  0  0
  -19.0300   19.5920   97.8680 C   0  0  0  0  0  0
  -16.8590   23.3020   97.6660 C   0  0  0  0  0  0
  -17.0810   24.2780   98.7810 N   0  0  0  0  0  0
  -17.0850   25.0880  101.3790 S   0  0  0  0  0  0
  -15.5250   23.4390  100.1380 O   0  0  0  0  0  0
  -22.0910   29.4980   99.6360 O   0  0  0  0  0  0
  -23.9550   28.0100   98.4580 O   0  0  0  0  0  0
  -24.8120   27.7610   97.3480 C   0  0  0  0  0  0
  -20.9127   24.5820   98.2477 H   0  0  0  0  0  0
  -19.7194   28.3155   99.9800 H   0  0  0  0  0  0
  -23.1668   25.5221   97.8100 H   0  0  0  0  0  0
  -17.2000   27.1204  100.1152 H   0  0  0  0  0  0
  -18.5809   26.9554  101.2520 H   0  0  0  0  0  0
  -17.2770   18.7696   98.7967 H   0  0  0  0  0  0
  -19.3377   22.7891   96.8162 H   0  0  0  0  0  0
  -16.0126   20.8841   98.7001 H   0  0  0  0  0  0
  -21.8035   31.3821  100.4489 H   0  0  0  0  0  0
  -20.3603   30.6364   99.6821 H   0  0  0  0  0  0
  -20.9418   30.0387  101.2732 H   0  0  0  0  0  0
  -25.1044   20.5051   97.9417 H   0  0  0  0  0  0
  -26.1893   19.2455   97.2615 H   0  0  0  0  0  0
  -25.2025   21.2273   95.2656 H   0  0  0  0  0  0
  -26.8589   20.5862   95.5334 H   0  0  0  0  0  0
  -25.3761   23.5003   95.3543 H   0  0  0  0  0  0
  -26.6672   24.2790   96.3306 H   0  0  0  0  0  0
  -27.3399   24.0994   93.9320 H   0  0  0  0  0  0
  -28.4029   23.0977   94.9777 H   0  0  0  0  0  0
  -27.1117   22.3190   94.0014 H   0  0  0  0  0  0
  -27.6043   21.1260   97.9684 H   0  0  0  0  0  0
  -28.4456   22.2188   96.8174 H   0  0  0  0  0  0
  -28.6355   23.0598   99.1566 H   0  0  0  0  0  0
  -27.6857   24.1930   98.1366 H   0  0  0  0  0  0
  -26.8444   23.1002   99.2876 H   0  0  0  0  0  0
  -24.5163   18.8309   95.4635 H   0  0  0  0  0  0
  -23.9139   18.4654   97.1158 H   0  0  0  0  0  0
  -25.5577   22.4850   97.4588 H   0  0  0  0  0  0
  -21.2943   21.7475   96.3601 H   0  0  0  0  0  0
  -19.5963   18.6629   97.9326 H   0  0  0  0  0  0
  -15.7745   23.1195   97.6442 H   0  0  0  0  0  0
  -17.1608   23.8278   96.7481 H   0  0  0  0  0  0
  -25.7341   28.3507   97.4572 H   0  0  0  0  0  0
  -25.0633   26.6907   97.3117 H   0  0  0  0  0  0
  -24.3004   28.0493   96.4179 H   0  0  0  0  0  0
  1  2  2  0  0  0
  1  3  1  0  0  0
  1 10  1  0  0  0
  2  4  1  0  0  0
  2 37  1  0  0  0
  3  5  2  0  0  0
  3 38  1  0  0  0
  4  6  2  0  0  0
  4 39  1  0  0  0
  5  6  1  0  0  0
  5 34  1  0  0  0
  6 35  1  0  0  0
  7 31  1  0  0  0
  7 32  1  0  0  0
  7 33  2  0  0  0
  8 10  2  0  0  0
  8 31  1  0  0  0
  9 10  1  0  0  0
  9 32  1  0  0  0
  9 40  1  0  0  0
  9 41  1  0  0  0
 11 13  2  0  0  0
 11 28  1  0  0  0
 11 29  1  0  0  0
 12 14  1  0  0  0
 12 29  2  0  0  0
 12 42  1  0  0  0
 13 15  1  0  0  0
 13 43  1  0  0  0
 14 15  2  0  0  0
 14 44  1  0  0  0
 15 30  1  0  0  0
 16 34  1  0  0  0
 16 45  1  0  0  0
 16 46  1  0  0  0
 16 47  1  0  0  0
 17 25  1  0  0  0
 17 26  1  0  0  0
 18 19  1  0  0  0
 18 26  1  0  0  0
 18 48  1  0  0  0
 18 49  1  0  0  0
 19 27  1  0  0  0
 19 50  1  0  0  0
 19 51  1  0  0  0
 20 21  1  0  0  0
 20 27  1  0  0  0
 20 52  1  0  0  0
 20 53  1  0  0  0
 21 54  1  0  0  0
 21 55  1  0  0  0
 21 56  1  0  0  0
 22 23  1  0  0  0
 22 27  1  0  0  0
 22 57  1  0  0  0
 22 58  1  0  0  0
 23 59  1  0  0  0
 23 60  1  0  0  0
 23 61  1  0  0  0
 24 25  2  0  0  0
 25 28  1  0  0  0
 26 62  1  0  0  0
 26 63  1  0  0  0
 27 64  1  0  0  0
 28 65  1  0  0  0
 29 66  1  0  0  0
 30 31  1  0  0  0
 30 67  1  0  0  0
 30 68  1  0  0  0
 35 36  1  0  0  0
 36 69  1  0  0  0
 36 70  1  0  0  0
 36 71  1  0  0  0
M  CHG  1  27   1
M  END
> <s_m_source_file>
../4r1y_ligand.sdf

> <i_m_source_file_index>
1

> <s_epik_input>
W0NIM11PYyhbY0hdMSljKE9bQ0gzXSlbY0hdW2NIXWMxQyhbQ0gyXVMyKT1OTihDMj1PKVtDSDJdYyhbY0hdW2NIXVtjSF0zKVtjSF1jM1tOSF1DKD1PKU9bQ0gyXVtDSDJdW0NIMl1bTkgrXShbQ0gyXVtDSDNdKVtDSDJdW0NIM10=

> <s_epik_cmdline>
J2VwaWtfYXBwJywgJy1pbWFlJywgJ2xpZ2FuZF9wcm8ubWFlJywgJy1vbWFlJywgJ2xpZ2FuZF9wcmVwLm1hZScsICctbXMnLCAnMScsICctcGgnLCAnNycsICctcGh0JywgJzAuNScsICctbnQn

> <r_lp_tautomer_probability>
1

> <r_epik_Ionization_Penalty>
  0.0045

> <r_epik_Ionization_Penalty_Charging>
  0.0045

> <r_epik_Ionization_Penalty_Neutral>
  0.0000

> <r_epik_State_Penalty>
 -0.0000

> <r_epik_Charging_Adjusted_Penalty>
0.00452766355337949

> <i_epik_Tot_Q>
1

> <i_epik_Tot_abs_Q>
1

> <s_epik_Chemistry_Notes>
This compound has an ester and may undergo hydrolysis at high or low pH. This compound has an imine and may undergo hydrolysis.

$$$$
