4r3b_ligand
                    3D
 Schrodinger Suite 2020-3.
 36 35  0  0  1  0            999 V2000
    9.1870   34.1860    6.2020 O   0  0  0  0  0  0
    8.3060   33.8400    5.4150 C   0  0  0  0  0  0
    7.6660   34.9380    4.6740 C   0  0  0  0  0  0
    6.4330   34.6170    3.8710 C   0  0  0  0  0  0
    5.3840   34.7360    4.8190 O   0  0  0  0  0  0
    8.1470   36.2020    4.7600 C   0  0  0  0  0  0
    7.6180   37.1780    4.1470 N   0  3  0  0  0  0
    8.1390   38.5450    4.2500 C   0  0  1  0  0  0
    9.4180   38.7420    3.4710 C   0  0  0  0  0  0
    9.6480   38.0150    2.4810 O   0  0  0  0  0  0
   10.2150   39.6290    3.8560 O   0  5  0  0  0  0
    7.0680   39.6510    4.0060 C   0  0  0  0  0  0
    7.4550   40.6260    2.9010 C   0  0  0  0  0  0
    6.9720   40.4200    5.3150 C   0  0  0  0  0  0
    5.5340   39.0910    3.6240 S   0  0  0  0  0  0
    5.0650   38.1570    4.6100 O   0  0  0  0  0  0
    5.5150   38.4610    2.3260 O   0  0  0  0  0  0
    9.7193   33.4305    6.7985 H   0  0  0  0  0  0
    8.7326   33.1599    4.6630 H   0  0  0  0  0  0
    7.5056   33.3232    5.9647 H   0  0  0  0  0  0
    8.3052   35.8227    4.5370 H   0  0  0  0  0  0
    6.3358   35.3368    3.0449 H   0  0  0  0  0  0
    6.5161   33.5990    3.4625 H   0  0  0  0  0  0
    4.3431   34.5544    4.5132 H   0  0  0  0  0  0
    8.1189   36.5345    5.8082 H   0  0  0  0  0  0
    9.1847   36.2250    4.3957 H   0  0  0  0  0  0
    7.6465   36.9894    3.0637 H   0  0  0  0  0  0
    6.5733   37.2923    4.4719 H   0  0  0  0  0  0
    8.4332   38.6051    5.3082 H   0  0  0  0  0  0
    8.4594   41.0273    3.1013 H   0  0  0  0  0  0
    6.7295   41.4522    2.8704 H   0  0  0  0  0  0
    7.4555   40.1024    1.9336 H   0  0  0  0  0  0
    7.9667   40.8001    5.5908 H   0  0  0  0  0  0
    6.6024   39.7516    6.1066 H   0  0  0  0  0  0
    6.2774   41.2644    5.1941 H   0  0  0  0  0  0
    4.7267   40.1477    3.6037 H   0  0  0  0  0  0
  1  2  1  0  0  0
  1 18  1  0  0  0
  2  3  1  0  0  0
  2 19  1  0  0  0
  2 20  1  0  0  0
  3  4  1  0  0  0
  3  6  1  0  0  0
  3 21  1  0  0  0
  4  5  1  0  0  0
  4 22  1  0  0  0
  4 23  1  0  0  0
  5 24  1  0  0  0
  6  7  1  0  0  0
  6 25  1  0  0  0
  6 26  1  0  0  0
  7  8  1  0  0  0
  7 27  1  0  0  0
  7 28  1  0  0  0
  8  9  1  0  0  0
  8 12  1  0  0  0
  8 29  1  0  0  0
  9 10  2  0  0  0
  9 11  1  0  0  0
 12 13  1  0  0  0
 12 14  1  0  0  0
 12 15  1  0  0  0
 13 30  1  0  0  0
 13 31  1  0  0  0
 13 32  1  0  0  0
 14 33  1  0  0  0
 14 34  1  0  0  0
 14 35  1  0  0  0
 15 16  2  0  0  0
 15 17  2  0  0  0
 15 36  1  0  0  0
M  CHG  2   7   1  11  -1
M  END
> <s_m_source_file>
../4r3b_ligand.sdf

> <i_m_source_file_index>
1

> <s_epik_input>
W09IXVtDSDJdW0NIXShbQ0gyXVtPSF0pW0NIMl1bTkgyK11bQ0BASF0oQyg9TylbT0hdKUMoW0NIM10pKFtDSDNdKVtTSF0oPU8pPU8=

> <s_epik_cmdline>
J2VwaWtfYXBwJywgJy1pbWFlJywgJ2xpZ2FuZF9wcm8ubWFlJywgJy1vbWFlJywgJ2xpZ2FuZF9wcmVwLm1hZScsICctbXMnLCAnMScsICctcGgnLCAnNycsICctcGh0JywgJzAuNScsICctbnQn

> <r_epik_Ionization_Penalty>
  0.0266

> <r_epik_Ionization_Penalty_Charging>
  0.0266

> <r_epik_Ionization_Penalty_Neutral>
  0.0000

> <r_epik_State_Penalty>
  0.0217

> <r_epik_Charging_Adjusted_Penalty>
0.0482380590676431

> <i_epik_Tot_Q>
0

> <i_epik_Tot_abs_Q>
2

$$$$
