4r3c_ligand
                    3D
 Schrodinger Suite 2020-3.
 53 57  0  0  1  0            999 V2000
   68.4330   80.1880   25.9880 C   0  0  0  0  0  0
   67.9910   79.3120   24.8900 N   0  3  0  0  0  0
   67.1760   78.2600   25.5120 C   0  0  0  0  0  0
   66.4740   77.3430   24.5140 C   0  0  0  0  0  0
   66.1090   78.0090   23.2490 N   0  0  0  0  0  0
   66.7720   79.2270   22.7690 C   0  0  0  0  0  0
   67.1620   80.0820   23.9620 C   0  0  0  0  0  0
   65.1270   77.3960   22.4250 C   0  0  0  0  0  0
   64.6210   76.1110   22.6580 C   0  0  0  0  0  0
   63.6560   75.5680   21.8060 C   0  0  0  0  0  0
   63.2170   74.1800   22.1230 C   0  0  0  0  0  0
   63.2510   73.2000   21.1380 C   0  0  0  0  0  0
   62.8950   71.8960   21.4570 C   0  0  0  0  0  0
   62.5520   71.5710   22.7160 N   0  0  0  0  0  0
   62.5140   72.4970   23.6870 C   0  0  0  0  0  0
   62.8790   73.8110   23.4250 C   0  0  0  0  0  0
   63.2190   76.3050   20.6990 C   0  0  0  0  0  0
   63.7320   77.5180   20.4860 N   0  0  0  0  0  0
   64.6850   78.0470   21.3460 N   0  0  0  0  0  0
   62.2240   75.8170   19.7140 C   0  0  0  0  0  0
   62.6010   75.7750   18.3820 C   0  0  0  0  0  0
   61.7040   75.3340   17.4290 C   0  0  0  0  0  0
   62.0520   75.2630   16.0830 C   0  0  0  0  0  0
   61.1340   74.7900   15.1520 C   0  0  0  0  0  0
   59.8580   74.3820   15.5480 C   0  0  0  0  0  0
   59.4630   74.4400   16.8810 C   0  0  0  0  0  0
   60.3510   74.9000   17.8450 C   0  0  0  0  0  0
   60.0040   74.9670   19.1760 C   0  0  0  0  0  0
   60.9420   75.4260   20.1060 C   0  0  0  0  0  0
   69.0566   79.6124   26.6879 H   0  0  0  0  0  0
   67.5540   80.5822   26.5191 H   0  0  0  0  0  0
   69.0185   81.0238   25.5772 H   0  0  0  0  0  0
   68.8401   78.8924   24.3305 H   0  0  0  0  0  0
   67.8162   77.6239   26.1409 H   0  0  0  0  0  0
   66.3940   78.7211   26.1332 H   0  0  0  0  0  0
   67.1357   76.5014   24.2611 H   0  0  0  0  0  0
   65.5453   76.9579   24.9603 H   0  0  0  0  0  0
   67.6722   78.9540   22.1987 H   0  0  0  0  0  0
   66.0832   79.7881   22.1204 H   0  0  0  0  0  0
   66.2496   80.4171   24.4770 H   0  0  0  0  0  0
   67.7253   80.9576   23.6071 H   0  0  0  0  0  0
   64.9818   75.5318   23.5080 H   0  0  0  0  0  0
   63.5549   73.4531   20.1223 H   0  0  0  0  0  0
   62.8936   71.1304   20.6812 H   0  0  0  0  0  0
   62.1938   72.2151   24.6900 H   0  0  0  0  0  0
   62.9011   74.5468   24.2289 H   0  0  0  0  0  0
   63.6022   76.0889   18.0869 H   0  0  0  0  0  0
   63.0439   75.5781   15.7590 H   0  0  0  0  0  0
   61.4135   74.7369   14.0998 H   0  0  0  0  0  0
   59.1586   74.0112   14.7987 H   0  0  0  0  0  0
   58.4596   74.1254   17.1679 H   0  0  0  0  0  0
   59.0084   74.6653   19.5013 H   0  0  0  0  0  0
   60.6666   75.4797   21.1593 H   0  0  0  0  0  0
  1  2  1  0  0  0
  1 30  1  0  0  0
  1 31  1  0  0  0
  1 32  1  0  0  0
  2  3  1  0  0  0
  2  7  1  0  0  0
  2 33  1  0  0  0
  3  4  1  0  0  0
  3 34  1  0  0  0
  3 35  1  0  0  0
  4  5  1  0  0  0
  4 36  1  0  0  0
  4 37  1  0  0  0
  5  6  1  0  0  0
  5  8  1  0  0  0
  6  7  1  0  0  0
  6 38  1  0  0  0
  6 39  1  0  0  0
  7 40  1  0  0  0
  7 41  1  0  0  0
  8  9  2  0  0  0
  8 19  1  0  0  0
  9 10  1  0  0  0
  9 42  1  0  0  0
 10 11  1  0  0  0
 10 17  2  0  0  0
 11 12  2  0  0  0
 11 16  1  0  0  0
 12 13  1  0  0  0
 12 43  1  0  0  0
 13 14  2  0  0  0
 13 44  1  0  0  0
 14 15  1  0  0  0
 15 16  2  0  0  0
 15 45  1  0  0  0
 16 46  1  0  0  0
 17 18  1  0  0  0
 17 20  1  0  0  0
 18 19  2  0  0  0
 20 21  2  0  0  0
 20 29  1  0  0  0
 21 22  1  0  0  0
 21 47  1  0  0  0
 22 23  2  0  0  0
 22 27  1  0  0  0
 23 24  1  0  0  0
 23 48  1  0  0  0
 24 25  2  0  0  0
 24 49  1  0  0  0
 25 26  1  0  0  0
 25 50  1  0  0  0
 26 27  2  0  0  0
 26 51  1  0  0  0
 27 28  1  0  0  0
 28 29  2  0  0  0
 28 52  1  0  0  0
 29 53  1  0  0  0
M  CHG  1   2   1
M  END
> <s_m_source_file>
../4r3c_ligand.sdf

> <i_m_source_file_index>
1

> <s_epik_input>
W0NIM11bTkgrXTFbQ0gyXVtDSDJdTihbQ0gyXVtDSDJdMSljMltjSF1jKC1jM1tjSF1bY0hdbltjSF1bY0hdMyljKG5uMiktYyhbY0hdNClbY0hdW2NIXWMoYzQ1KVtjSF1bY0hdW2NIXVtjSF01

> <s_epik_cmdline>
J2VwaWtfYXBwJywgJy1pbWFlJywgJ2xpZ2FuZF9wcm8ubWFlJywgJy1vbWFlJywgJ2xpZ2FuZF9wcmVwLm1hZScsICctbXMnLCAnMScsICctcGgnLCAnNycsICctcGh0JywgJzAuNScsICctbnQn

> <r_lp_tautomer_probability>
1

> <r_epik_Ionization_Penalty>
  0.0728

> <r_epik_Ionization_Penalty_Charging>
  0.0647

> <r_epik_Ionization_Penalty_Neutral>
  0.0081

> <r_epik_State_Penalty>
  0.0564

> <r_epik_Charging_Adjusted_Penalty>
0.12117058248246

> <i_epik_Tot_Q>
1

> <i_epik_Tot_abs_Q>
1

$$$$
