4r3s_ligand
                    3D
 Schrodinger Suite 2020-3.
192192  0  0  1  0            999 V2000
   10.2740   14.7270    4.1070 N   0  3  0  0  0  0
   10.3050   13.2840    4.2670 C   0  0  2  0  0  0
    9.0960   12.8620    5.0950 C   0  0  0  0  0  0
    8.8390   13.3160    6.2240 O   0  0  0  0  0  0
   11.6070   12.7710    4.9310 C   0  0  0  0  0  0
    8.3140   12.0080    4.4900 N   0  0  0  0  0  0
    7.1430   11.5030    5.1400 C   0  0  2  0  0  0
    7.4950   10.6160    6.3320 C   0  0  0  0  0  0
    8.5390   10.0090    6.3410 O   0  0  0  0  0  0
    6.3480   10.7510    4.1050 C   0  0  0  0  0  0
    5.7530   11.6770    3.0730 C   0  0  0  0  0  0
    4.9850   12.5920    3.4030 O   0  0  0  0  0  0
    6.1300   11.4690    1.8190 N   0  0  0  0  0  0
    6.6260   10.5480    7.3350 N   0  0  0  0  0  0
    6.9270    9.7980    8.5370 C   0  0  2  0  0  0
    5.5990    9.2750    9.1210 C   0  0  0  0  0  0
    4.6430   10.0090    9.1970 O   0  0  0  0  0  0
    7.6780   10.7190    9.4700 C   0  0  0  0  0  0
    7.8250   10.1770   10.7960 C   0  0  0  0  0  0
    6.9420   10.3720   11.6220 O   0  0  0  0  0  0
    8.9520    9.4880   11.0540 N   0  0  0  0  0  0
    5.5460    8.0190    9.5600 N   0  0  0  0  0  0
    4.2870    7.4550   10.0260 C   0  0  2  0  0  0
    3.8340    8.0190   11.3780 C   0  0  0  0  0  0
    2.6430    8.0200   11.6890 O   0  0  0  0  0  0
    4.4060    5.8960   10.1300 C   0  0  0  0  0  0
    4.7690    8.4710   12.2140 N   0  0  0  0  0  0
    4.3390    9.1300   13.4460 C   0  0  2  0  0  0
    3.5040   10.3480   13.0970 C   0  0  0  0  0  0
    2.4660   10.5730   13.6930 O   0  0  0  0  0  0
    5.5620    9.5400   14.2940 C   0  0  0  0  0  0
    5.2580   10.4120   15.5070 C   0  0  0  0  0  0
    5.1950    9.8530   16.7660 C   0  0  0  0  0  0
    5.0470   11.7790   15.3910 C   0  0  0  0  0  0
    4.9420   10.6520   17.8920 C   0  0  0  0  0  0
    4.7880   12.5820   16.5180 C   0  0  0  0  0  0
    4.7130   11.9900   17.7560 C   0  0  0  0  0  0
    4.4940   12.7570   18.8850 O   0  0  0  0  0  0
    3.9330   11.1250   12.0930 N   0  0  0  0  0  0
    3.2060   12.3580   11.7650 C   0  0  2  0  0  0
    1.9280   12.0960   11.0180 C   0  0  0  0  0  0
    0.9890   12.8610   11.1340 O   0  0  0  0  0  0
    4.0660   13.3120   10.9100 C   0  0  0  0  0  0
    5.2500   13.8460   11.6700 C   0  0  0  0  0  0
    5.1590   14.1080   12.8770 O   0  0  0  0  0  0
    6.3730   14.0370   10.9710 N   0  0  0  0  0  0
    1.9090   11.0630   10.1790 N   0  0  0  0  0  0
    0.8590   10.9920    9.1770 C   0  0  2  0  0  0
    0.0210    9.7030    9.1990 C   0  0  0  0  0  0
   -0.9620    9.6160    8.4560 O   0  0  0  0  0  0
    1.4730   11.1730    7.7740 C   0  0  0  0  0  0
    2.2940   12.4700    7.6250 C   0  0  0  0  0  0
    3.1370   12.6520    6.0410 S   0  0  0  0  0  0
    3.9500   11.1830    5.9830 C   0  0  0  0  0  0
    0.3490    8.7130   10.0160 N   0  0  0  0  0  0
   -0.5410    7.5450   10.0010 C   0  0  2  0  0  0
   -1.7830    7.7820   10.8890 C   0  0  0  0  0  0
   -2.6750    6.9410   10.8850 O   0  0  0  0  0  0
    0.1630    6.2470   10.4270 C   0  0  0  0  0  0
    0.6630    6.2900   11.7570 O   0  0  0  0  0  0
   -1.8000    8.8620   11.6770 N   0  0  0  0  0  0
   -3.0340    9.2890   12.3350 C   0  0  2  0  0  0
   -3.1490   10.7850   12.1470 C   0  0  0  0  0  0
   -2.1420   11.4460   11.9310 O   0  0  0  0  0  0
   -3.0920    8.9790   13.8510 C   0  0  2  0  0  0
   -1.9930    9.7390   14.5940 C   0  0  0  0  0  0
   -2.9810    7.4610   14.1040 C   0  0  0  0  0  0
   -2.2610    9.8350   16.0740 C   0  0  0  0  0  0
   -4.3700   11.3150   12.2060 N   0  0  0  0  0  0
   -4.5800   12.7720   12.1440 C   0  0  2  0  0  0
   -4.3760   13.3350   13.5230 C   0  0  0  0  0  0
   -4.9990   12.8640   14.4920 O   0  0  0  0  0  0
   -5.9930   13.1080   11.6070 C   0  0  0  0  0  0
   -6.3310   14.6080   11.6300 C   0  0  0  0  0  0
   -7.8060   14.7800   11.1120 C   0  0  0  0  0  0
   -8.3790   15.9720   11.7170 N   0  0  0  0  0  0
   -9.6310   16.3640   11.5450 C   0  0  0  0  0  0
  -10.4570   15.6430   10.7910 N   0  0  0  0  0  0
  -10.0460   17.4910   12.1240 N   0  0  0  0  0  0
   -3.4670   14.2920   13.6320 N   0  0  0  0  0  0
   -3.2110   14.8460   14.9610 C   0  0  2  0  0  0
   -3.8370   16.2060   15.0050 C   0  0  0  0  0  0
   -3.8950   16.8860   13.9780 O   0  0  0  0  0  0
   -1.7280   14.9430   15.2370 C   0  0  0  0  0  0
   -1.0330   13.5880   15.2650 C   0  0  0  0  0  0
    0.4270   13.7060   15.6070 C   0  0  0  0  0  0
    1.0650   12.3850   15.5930 N   0  0  0  0  0  0
    1.0950   11.5490   16.6210 C   0  0  0  0  0  0
    1.6520   10.3560   16.4700 N   0  0  0  0  0  0
    0.5170   11.8830   17.7910 N   0  0  0  0  0  0
   -4.2720   16.6280   16.1860 N   0  0  0  0  0  0
   -4.8010   17.9990   16.2970 C   0  0  2  0  0  0
   -4.1840   18.7490   17.4880 C   0  0  0  0  0  0
   -3.6190   18.1340   18.3940 O   0  0  0  0  0  0
   -6.3240   17.9790   16.4310 C   0  0  0  0  0  0
   -6.6850   17.5820   17.7560 O   0  0  0  0  0  0
   -4.3020   20.0730   17.4640 N   0  0  0  0  0  0
    9.3271   15.0229    3.6319 H   0  0  0  0  0  0
   11.1164   15.0439    3.4746 H   0  0  0  0  0  0
   10.3551   15.2071    5.0934 H   0  0  0  0  0  0
   10.2572   12.8924    3.2402 H   0  0  0  0  0  0
   12.4729   13.0800    4.3271 H   0  0  0  0  0  0
   11.5778   11.6733    4.9954 H   0  0  0  0  0  0
   11.6948   13.1954    5.9420 H   0  0  0  0  0  0
    8.5632   11.6774    3.4709 H   0  0  0  0  0  0
    6.5849   12.3723    5.5179 H   0  0  0  0  0  0
    7.0035   10.0344    3.5886 H   0  0  0  0  0  0
    5.5268   10.2085    4.5963 H   0  0  0  0  0  0
    6.8143   10.6415    1.5805 H   0  0  0  0  0  0
    5.7585   12.1240    1.0171 H   0  0  0  0  0  0
    5.6644   11.0738    7.2411 H   0  0  0  0  0  0
    7.5799    8.9443    8.3028 H   0  0  0  0  0  0
    8.6861   10.9034    9.0703 H   0  0  0  0  0  0
    7.1378   11.6733    9.5567 H   0  0  0  0  0  0
    9.7053    9.3501   10.2644 H   0  0  0  0  0  0
    9.1198    9.0627   12.0545 H   0  0  0  0  0  0
    6.4599    7.4068    9.5694 H   0  0  0  0  0  0
    3.5714    7.7885    9.2601 H   0  0  0  0  0  0
    4.7309    5.4877    9.1616 H   0  0  0  0  0  0
    3.4275    5.4706   10.3976 H   0  0  0  0  0  0
    5.1431    5.6354   10.9037 H   0  0  0  0  0  0
    5.8413    8.3583   11.9959 H   0  0  0  0  0  0
    3.7247    8.4023   13.9965 H   0  0  0  0  0  0
    6.0609    8.6380   14.6780 H   0  0  0  0  0  0
    6.2658   10.1109   13.6705 H   0  0  0  0  0  0
    5.3431    8.7800   16.8880 H   0  0  0  0  0  0
    5.0827   12.2414   14.4046 H   0  0  0  0  0  0
    4.9284   10.1995   18.8836 H   0  0  0  0  0  0
    4.6490   13.6577   16.4102 H   0  0  0  0  0  0
    4.4350   12.2771   19.8730 H   0  0  0  0  0  0
    4.8256   10.8426   11.5155 H   0  0  0  0  0  0
    2.9663   12.7776   12.7532 H   0  0  0  0  0  0
    4.4414   12.7748   10.0265 H   0  0  0  0  0  0
    3.4540   14.1669   10.5866 H   0  0  0  0  0  0
    6.4032   13.7883    9.8999 H   0  0  0  0  0  0
    7.2671   14.4429   11.4668 H   0  0  0  0  0  0
    2.6705   10.2712   10.2347 H   0  0  0  0  0  0
    0.2001   11.8193    9.4793 H   0  0  0  0  0  0
    2.1459   10.3304    7.5568 H   0  0  0  0  0  0
    0.6696   11.2036    7.0233 H   0  0  0  0  0  0
    1.6287   13.3394    7.7323 H   0  0  0  0  0  0
    3.0703   12.5040    8.4036 H   0  0  0  0  0  0
    4.5335   11.1234    5.0524 H   0  0  0  0  0  0
    3.2215   10.3594    6.0124 H   0  0  0  0  0  0
    4.6273   11.1045    6.8462 H   0  0  0  0  0  0
    1.2260    8.7277   10.6798 H   0  0  0  0  0  0
   -0.8218    7.4596    8.9409 H   0  0  0  0  0  0
   -0.5462    5.4083   10.3663 H   0  0  0  0  0  0
    1.0152    6.0556    9.7584 H   0  0  0  0  0  0
    1.1874    5.4185   12.1759 H   0  0  0  0  0  0
   -0.8709    9.4314   11.8276 H   0  0  0  0  0  0
   -3.8298    8.7197   11.8325 H   0  0  0  0  0  0
   -4.0594    9.3208   14.2477 H   0  0  0  0  0  0
   -1.0319    9.2221   14.4556 H   0  0  0  0  0  0
   -1.9202   10.7615   14.1949 H   0  0  0  0  0  0
   -3.7815    6.9390   13.5593 H   0  0  0  0  0  0
   -3.0794    7.2607   15.1811 H   0  0  0  0  0  0
   -2.0029    7.1012   13.7520 H   0  0  0  0  0  0
   -1.4438   10.3887   16.5594 H   0  0  0  0  0  0
   -2.3232    8.8235   16.5017 H   0  0  0  0  0  0
   -3.2115   10.3629   16.2410 H   0  0  0  0  0  0
   -5.2321   10.6387   12.3031 H   0  0  0  0  0  0
   -3.8264   13.1929   11.4621 H   0  0  0  0  0  0
   -6.0778   12.7723   10.5629 H   0  0  0  0  0  0
   -6.7495   12.5956   12.2195 H   0  0  0  0  0  0
   -6.2421   14.9881   12.6584 H   0  0  0  0  0  0
   -5.6325   15.1513   10.9766 H   0  0  0  0  0  0
   -7.8003   14.8837   10.0169 H   0  0  0  0  0  0
   -8.3988   13.8972   11.3936 H   0  0  0  0  0  0
   -7.7610   16.6115   12.3644 H   0  0  0  0  0  0
  -10.1021   14.7150   10.3189 H   0  0  0  0  0  0
   -9.3531   18.0778   12.7449 H   0  0  0  0  0  0
  -11.0813   17.8340   11.9808 H   0  0  0  0  0  0
   -2.9116   14.6714   12.7616 H   0  0  0  0  0  0
   -3.6573   14.1755   15.7102 H   0  0  0  0  0  0
   -1.2478   15.5465   14.4527 H   0  0  0  0  0  0
   -1.5675   15.4189   16.2156 H   0  0  0  0  0  0
   -1.5104   12.9466   16.0205 H   0  0  0  0  0  0
   -1.1152   13.1132   14.2762 H   0  0  0  0  0  0
    0.9254   14.3519   14.8691 H   0  0  0  0  0  0
    0.5344   14.1446   16.6100 H   0  0  0  0  0  0
    1.5656   12.0256   14.6818 H   0  0  0  0  0  0
    2.1232   10.0861   15.5134 H   0  0  0  0  0  0
    0.0555   12.8740   17.9133 H   0  0  0  0  0  0
    0.5065   11.1648   18.6241 H   0  0  0  0  0  0
   -4.2432   15.9762   17.0716 H   0  0  0  0  0  0
   -4.5097   18.4943   15.3590 H   0  0  0  0  0  0
   -6.7230   18.9841   16.2297 H   0  0  0  0  0  0
   -6.7463   17.2653   15.7083 H   0  0  0  0  0  0
   -7.7456   17.5105   18.0390 H   0  0  0  0  0  0
   -4.8184   20.5641   16.6260 H   0  0  0  0  0  0
   -3.8832   20.6774   18.2821 H   0  0  0  0  0  0
  1  2  1  0  0  0
  1 98  1  0  0  0
  1 99  1  0  0  0
  1100  1  0  0  0
  2  3  1  0  0  0
  2  5  1  0  0  0
  2101  1  0  0  0
  3  4  2  0  0  0
  3  6  1  0  0  0
  5102  1  0  0  0
  5103  1  0  0  0
  5104  1  0  0  0
  6  7  1  0  0  0
  6105  1  0  0  0
  7  8  1  0  0  0
  7 10  1  0  0  0
  7106  1  0  0  0
  8  9  2  0  0  0
  8 14  1  0  0  0
 10 11  1  0  0  0
 10107  1  0  0  0
 10108  1  0  0  0
 11 12  2  0  0  0
 11 13  1  0  0  0
 13109  1  0  0  0
 13110  1  0  0  0
 14 15  1  0  0  0
 14111  1  0  0  0
 15 16  1  0  0  0
 15 18  1  0  0  0
 15112  1  0  0  0
 16 17  2  0  0  0
 16 22  1  0  0  0
 18 19  1  0  0  0
 18113  1  0  0  0
 18114  1  0  0  0
 19 20  2  0  0  0
 19 21  1  0  0  0
 21115  1  0  0  0
 21116  1  0  0  0
 22 23  1  0  0  0
 22117  1  0  0  0
 23 24  1  0  0  0
 23 26  1  0  0  0
 23118  1  0  0  0
 24 25  2  0  0  0
 24 27  1  0  0  0
 26119  1  0  0  0
 26120  1  0  0  0
 26121  1  0  0  0
 27 28  1  0  0  0
 27122  1  0  0  0
 28 29  1  0  0  0
 28 31  1  0  0  0
 28123  1  0  0  0
 29 30  2  0  0  0
 29 39  1  0  0  0
 31 32  1  0  0  0
 31124  1  0  0  0
 31125  1  0  0  0
 32 33  2  0  0  0
 32 34  1  0  0  0
 33 35  1  0  0  0
 33126  1  0  0  0
 34 36  2  0  0  0
 34127  1  0  0  0
 35 37  2  0  0  0
 35128  1  0  0  0
 36 37  1  0  0  0
 36129  1  0  0  0
 37 38  1  0  0  0
 38130  1  0  0  0
 39 40  1  0  0  0
 39131  1  0  0  0
 40 41  1  0  0  0
 40 43  1  0  0  0
 40132  1  0  0  0
 41 42  2  0  0  0
 41 47  1  0  0  0
 43 44  1  0  0  0
 43133  1  0  0  0
 43134  1  0  0  0
 44 45  2  0  0  0
 44 46  1  0  0  0
 46135  1  0  0  0
 46136  1  0  0  0
 47 48  1  0  0  0
 47137  1  0  0  0
 48 49  1  0  0  0
 48 51  1  0  0  0
 48138  1  0  0  0
 49 50  2  0  0  0
 49 55  1  0  0  0
 51 52  1  0  0  0
 51139  1  0  0  0
 51140  1  0  0  0
 52 53  1  0  0  0
 52141  1  0  0  0
 52142  1  0  0  0
 53 54  1  0  0  0
 54143  1  0  0  0
 54144  1  0  0  0
 54145  1  0  0  0
 55 56  1  0  0  0
 55146  1  0  0  0
 56 57  1  0  0  0
 56 59  1  0  0  0
 56147  1  0  0  0
 57 58  2  0  0  0
 57 61  1  0  0  0
 59 60  1  0  0  0
 59148  1  0  0  0
 59149  1  0  0  0
 60150  1  0  0  0
 61 62  1  0  0  0
 61151  1  0  0  0
 62 63  1  0  0  0
 62 65  1  0  0  0
 62152  1  0  0  0
 63 64  2  0  0  0
 63 69  1  0  0  0
 65 66  1  0  0  0
 65 67  1  0  0  0
 65153  1  0  0  0
 66 68  1  0  0  0
 66154  1  0  0  0
 66155  1  0  0  0
 67156  1  0  0  0
 67157  1  0  0  0
 67158  1  0  0  0
 68159  1  0  0  0
 68160  1  0  0  0
 68161  1  0  0  0
 69 70  1  0  0  0
 69162  1  0  0  0
 70 71  1  0  0  0
 70 73  1  0  0  0
 70163  1  0  0  0
 71 72  2  0  0  0
 71 80  1  0  0  0
 73 74  1  0  0  0
 73164  1  0  0  0
 73165  1  0  0  0
 74 75  1  0  0  0
 74166  1  0  0  0
 74167  1  0  0  0
 75 76  1  0  0  0
 75168  1  0  0  0
 75169  1  0  0  0
 76 77  1  0  0  0
 76170  1  0  0  0
 77 78  2  0  0  0
 77 79  1  0  0  0
 78171  1  0  0  0
 79172  1  0  0  0
 79173  1  0  0  0
 80 81  1  0  0  0
 80174  1  0  0  0
 81 82  1  0  0  0
 81 84  1  0  0  0
 81175  1  0  0  0
 82 83  2  0  0  0
 82 91  1  0  0  0
 84 85  1  0  0  0
 84176  1  0  0  0
 84177  1  0  0  0
 85 86  1  0  0  0
 85178  1  0  0  0
 85179  1  0  0  0
 86 87  1  0  0  0
 86180  1  0  0  0
 86181  1  0  0  0
 87 88  1  0  0  0
 87182  1  0  0  0
 88 89  2  0  0  0
 88 90  1  0  0  0
 89183  1  0  0  0
 90184  1  0  0  0
 90185  1  0  0  0
 91 92  1  0  0  0
 91186  1  0  0  0
 92 93  1  0  0  0
 92 95  1  0  0  0
 92187  1  0  0  0
 93 94  2  0  0  0
 93 97  1  0  0  0
 95 96  1  0  0  0
 95188  1  0  0  0
 95189  1  0  0  0
 96190  1  0  0  0
 97191  1  0  0  0
 97192  1  0  0  0
M  CHG  1   1   1
M  END
> <s_m_source_file>
../4r3s_ligand.sdf

> <i_m_source_file_index>
1

> <s_epik_input>
W05IMytdW0NAQEhdKFtDSDNdKUMoPU8pW05IXVtDQEBIXShbQ0gyXUMoPU8pW05IMl0pQyg9TylbTkhdW0NAQEhdKFtDSDJdQyg9TylbTkgyXSlDKD1PKVtOSF1bQ0BASF0oW0NIM10pQyg9TylbTkhdW0NAQEhdKFtDSDJdYzFbY0hdW2NIXWMoW09IXSlbY0hdW2NIXTEpQyg9TylbTkhdW0NAQEhdKFtDSDJdQyg9TylbTkgyXSlDKD1PKVtOSF1bQ0BASF0oW0NIMl1bQ0gyXVNbQ0gzXSlDKD1PKVtOSF1bQ0BASF0oW0NIMl1bT0hdKUMoPU8pW05IXVtDQEBIXShbQ0BASF0oW0NIM10pW0NIMl1bQ0gzXSlDKD1PKVtOSF1bQ0BASF0oW0NIMl1bQ0gyXVtDSDJdW05IXS9DKD1OXFtIXSlbTkgyXSlDKD1PKVtOSF1bQ0BIXShDKD1PKVtOSF1bQ0BIXShDKD1PKVtOSDJdKVtDSDJdW09IXSlbQ0gyXVtDSDJdW0NIMl1bTkhdL0MoPU5cW0hdKVtOSDJd

> <s_epik_cmdline>
J2VwaWtfYXBwJywgJy1pbWFlJywgJ2xpZ2FuZF9wcm8ubWFlJywgJy1vbWFlJywgJ2xpZ2FuZF9wcmVwLm1hZScsICctbXMnLCAnMScsICctcGgnLCAnNycsICctcGh0JywgJzAuNScsICctbnQn

> <s_epik_pKa_notes>
Molecule size exceeds maximum supported for generating protonation states

> <s_epik_Chemistry_Notes>
This compound has an imine and may undergo hydrolysis.

$$$$
