4r3w_ligand
                    3D
 Schrodinger Suite 2020-3.
 38 40  0  0  1  0            999 V2000
  -16.0800   -5.3520    5.4070 P   0  0  0  0  0  0
  -17.3360   -5.3180    6.2170 O   0  5  0  0  0  0
  -16.1300   -4.7810    4.0310 O   0  5  0  0  0  0
  -15.3940   -6.6730    5.4600 O   0  0  0  0  0  0
   -9.2750   -5.4380    3.3880 P   0  0  0  0  0  0
   -8.1920   -6.3220    3.9390 O   0  5  0  0  0  0
  -10.4070   -6.1680    2.7210 O   0  5  0  0  0  0
   -8.8360   -4.2770    2.5570 O   0  0  0  0  0  0
   -9.9870   -4.8090    4.6660 O   0  0  0  0  0  0
  -10.9190   -3.7420    4.5390 C   0  0  0  0  0  0
  -11.5840   -3.5230    5.8920 C   0  0  1  0  0  0
  -12.2230   -2.2560    5.9010 O   0  0  0  0  0  0
  -12.6820   -4.5400    6.1400 C   0  0  1  0  0  0
  -12.7720   -4.8530    7.5280 O   0  0  0  0  0  0
  -13.9220   -3.8140    5.6950 C   0  0  1  0  0  0
  -15.1270   -4.3580    6.2370 O   0  0  0  0  0  0
  -13.5930   -2.4240    6.2000 C   0  0  2  0  0  0
  -14.4560   -1.3990    5.5740 N   0  0  0  0  0  0
  -14.5900   -1.1200    4.2660 C   0  0  0  0  0  0
  -15.4800   -0.1200    4.0870 N   0  0  0  0  0  0
  -15.9400    0.2410    5.2970 C   0  0  0  0  0  0
  -16.9070    1.2210    5.8140 C   0  0  0  0  0  0
  -17.5840    2.0470    4.9740 N   0  0  0  0  0  0
  -17.0710    1.2760    7.1370 N   0  0  0  0  0  0
  -16.3980    0.4750    7.9820 C   0  0  0  0  0  0
  -15.5200   -0.4510    7.5840 N   0  0  0  0  0  0
  -15.2530   -0.6000    6.2740 C   0  0  0  0  0  0
  -10.3909   -2.8291    4.2265 H   0  0  0  0  0  0
  -11.6759   -4.0040    3.7850 H   0  0  0  0  0  0
  -10.8150   -3.5452    6.6782 H   0  0  0  0  0  0
  -12.5232   -5.5190    5.6642 H   0  0  0  0  0  0
  -11.9492   -5.3869    8.0259 H   0  0  0  0  0  0
  -14.1819   -3.8997    4.6296 H   0  0  0  0  0  0
  -13.7276   -2.2750    7.2815 H   0  0  0  0  0  0
  -14.0560   -1.6287    3.4634 H   0  0  0  0  0  0
  -17.4262    1.9763    3.8877 H   0  0  0  0  0  0
  -18.2899    2.7864    5.3803 H   0  0  0  0  0  0
  -16.5786    0.5871    9.0511 H   0  0  0  0  0  0
  1  2  1  0  0  0
  1  3  1  0  0  0
  1  4  2  0  0  0
  1 16  1  0  0  0
  5  6  1  0  0  0
  5  7  1  0  0  0
  5  8  2  0  0  0
  5  9  1  0  0  0
  9 10  1  0  0  0
 10 11  1  0  0  0
 10 28  1  0  0  0
 10 29  1  0  0  0
 11 12  1  0  0  0
 11 13  1  0  0  0
 11 30  1  0  0  0
 12 17  1  0  0  0
 13 14  1  0  0  0
 13 15  1  0  0  0
 13 31  1  0  0  0
 14 32  1  0  0  0
 15 16  1  0  0  0
 15 17  1  0  0  0
 15 33  1  0  0  0
 17 18  1  0  0  0
 17 34  1  0  0  0
 18 19  1  0  0  0
 18 27  1  0  0  0
 19 20  2  0  0  0
 19 35  1  0  0  0
 20 21  1  0  0  0
 21 22  2  0  0  0
 21 27  1  0  0  0
 22 23  1  0  0  0
 22 24  1  0  0  0
 23 36  1  0  0  0
 23 37  1  0  0  0
 24 25  2  0  0  0
 25 26  1  0  0  0
 25 38  1  0  0  0
 26 27  2  0  0  0
M  CHG  4   2  -1   3  -1   6  -1   7  -1
M  END
> <s_m_source_file>
../4r3w_ligand.sdf

> <i_m_source_file_index>
1

> <s_epik_input>
W09IXVAoPU8pKFtPSF0pT1tDSDJdW0NASF0xT1tDQEhdKFtDQEBIXShbQ0BASF0xW09IXSlPUCg9TykoW09IXSlbT0hdKW4oW2NIXW4yKWMoYzIzKW5bY0hdbmMzW05IMl0=

> <s_epik_cmdline>
J2VwaWtfYXBwJywgJy1pbWFlJywgJ2xpZ2FuZF9wcm8ubWFlJywgJy1vbWFlJywgJ2xpZ2FuZF9wcmVwLm1hZScsICctbXMnLCAnMScsICctcGgnLCAnNycsICctcGh0JywgJzAuNScsICctbnQn

> <r_lp_tautomer_probability>
1

> <r_epik_Ionization_Penalty>
  0.1673

> <r_epik_Ionization_Penalty_Charging>
  0.1667

> <r_epik_Ionization_Penalty_Neutral>
  0.0006

> <r_epik_State_Penalty>
 -0.0000

> <r_epik_Charging_Adjusted_Penalty>
0.166734079087257

> <i_epik_Tot_Q>
-4

> <i_epik_Tot_abs_Q>
4

> <s_epik_Chemistry_Notes>
This compound contains an acetal/aminal-like group ( X-CH(R)-Y where X, Y are N, S, or O) that may be acid/base labile, releasing an aldehyde.

$$$$
