4r4q_ligand
                    3D
 Schrodinger Suite 2020-3.
 63 67  0  0  1  0            999 V2000
    5.0400    9.2080   22.9420 C   0  0  0  0  0  0
    4.6120   10.8940   24.6580 C   0  0  0  0  0  0
    7.8200   13.3990   24.8010 C   0  0  0  0  0  0
   10.2450   13.6490   24.6220 C   0  0  0  0  0  0
   12.5310    9.5450   25.7730 C   0  0  0  0  0  0
   12.7010    9.8340   27.2580 C   0  0  0  0  0  0
   11.9520   10.3320   23.5370 C   0  0  0  0  0  0
   14.2490    9.9380   22.8150 C   0  0  0  0  0  0
   15.3760   11.4250   21.2310 C   0  0  0  0  0  0
    3.9780   17.3990   24.9870 O   0  0  0  0  0  0
    3.6640   16.3130   24.5880 C   0  0  0  0  0  0
    4.6420   15.1950   24.5460 C   0  0  0  0  0  0
    4.3220   13.9940   24.1560 N   0  0  0  0  0  0
    5.3580   13.2170   24.2140 N   0  0  0  0  0  0
    5.2930   11.8750   23.8040 C   0  0  0  0  0  0
    5.7970   11.5140   22.6370 C   0  0  0  0  0  0
    5.6520   10.1050   22.1820 C   0  0  0  0  0  0
    6.3440    9.6450   20.6590 Cl  0  0  0  0  0  0
    4.8620    7.5470   22.4980 Cl  0  0  0  0  0  0
    4.5080    9.6350   24.2490 C   0  0  0  0  0  0
    6.4330   13.9320   24.6070 C   0  0  0  0  0  0
    8.8660   14.1560   24.4500 C   0  0  0  0  0  0
   10.4490   12.4000   25.1270 C   0  0  0  0  0  0
   11.8850   11.9070   25.3350 C   0  0  0  0  0  0
   12.1070   10.5800   24.8890 N   0  0  0  0  0  0
   12.7340    8.4500   25.3100 O   0  0  0  0  0  0
   13.1530   10.7100   22.7610 C   0  0  0  0  0  0
   15.4260   10.3110   21.9740 C   0  0  0  0  0  0
   16.4840   11.8410   20.3640 C   0  0  0  0  0  0
   17.6730   11.2120   20.0780 C   0  0  0  0  0  0
   18.3310   11.9870   19.1590 C   0  0  0  0  0  0
   17.5100   13.0320   18.9130 C   0  0  0  0  0  0
   17.7170   14.1670   17.9910 C   0  0  0  0  0  0
   18.6740   14.1700   17.2800 O   0  0  0  0  0  0
   16.8280   15.0110   18.0420 O   0  5  0  0  0  0
   16.3740   12.9660   19.6210 O   0  0  0  0  0  0
   14.1400   12.2630   21.1600 C   0  0  0  0  0  0
   13.1060   11.9190   21.8860 C   0  0  0  0  0  0
    9.2880   11.5600   25.5110 C   0  0  0  0  0  0
    8.0330   12.0150   25.3340 C   0  0  0  0  0  0
    6.0230   15.2070   24.8630 C   0  0  0  0  0  0
    2.5520   16.0830   24.1790 O   0  5  0  0  0  0
    4.1956   11.1964   25.6189 H   0  0  0  0  0  0
   11.0952   14.2726   24.3456 H   0  0  0  0  0  0
   12.4644   10.8899   27.4555 H   0  0  0  0  0  0
   13.7403    9.6294   27.5547 H   0  0  0  0  0  0
   12.0212    9.1915   27.8367 H   0  0  0  0  0  0
   11.7662    9.2592   23.3800 H   0  0  0  0  0  0
   11.0996   10.9118   23.1532 H   0  0  0  0  0  0
   14.2799    9.0584   23.4580 H   0  0  0  0  0  0
    6.3147   12.2425   22.0129 H   0  0  0  0  0  0
    4.0197    8.9029   24.8922 H   0  0  0  0  0  0
    8.7013   15.1506   24.0355 H   0  0  0  0  0  0
   12.5794   12.5567   24.7821 H   0  0  0  0  0  0
   12.1309   11.9356   26.4068 H   0  0  0  0  0  0
   16.3169    9.6830   21.9649 H   0  0  0  0  0  0
   18.0262   10.2724   20.5029 H   0  0  0  0  0  0
   19.3105   11.7999   18.7190 H   0  0  0  0  0  0
   14.1004   13.1423   20.5171 H   0  0  0  0  0  0
   12.1993   12.5230   21.8512 H   0  0  0  0  0  0
    9.4515   10.5706   25.9381 H   0  0  0  0  0  0
    7.1795   11.3819   25.5764 H   0  0  0  0  0  0
    6.6201   16.0429   25.2275 H   0  0  0  0  0  0
  1 17  2  0  0  0
  1 19  1  0  0  0
  1 20  1  0  0  0
  2 15  1  0  0  0
  2 20  2  0  0  0
  2 43  1  0  0  0
  3 21  1  0  0  0
  3 22  2  0  0  0
  3 40  1  0  0  0
  4 22  1  0  0  0
  4 23  2  0  0  0
  4 44  1  0  0  0
  5  6  1  0  0  0
  5 25  1  0  0  0
  5 26  2  0  0  0
  6 45  1  0  0  0
  6 46  1  0  0  0
  6 47  1  0  0  0
  7 25  1  0  0  0
  7 27  1  0  0  0
  7 48  1  0  0  0
  7 49  1  0  0  0
  8 27  2  0  0  0
  8 28  1  0  0  0
  8 50  1  0  0  0
  9 28  2  0  0  0
  9 29  1  0  0  0
  9 37  1  0  0  0
 10 11  2  0  0  0
 11 12  1  0  0  0
 11 42  1  0  0  0
 12 13  2  0  0  0
 12 41  1  0  0  0
 13 14  1  0  0  0
 14 15  1  0  0  0
 14 21  1  0  0  0
 15 16  2  0  0  0
 16 17  1  0  0  0
 16 51  1  0  0  0
 17 18  1  0  0  0
 20 52  1  0  0  0
 21 41  2  0  0  0
 22 53  1  0  0  0
 23 24  1  0  0  0
 23 39  1  0  0  0
 24 25  1  0  0  0
 24 54  1  0  0  0
 24 55  1  0  0  0
 27 38  1  0  0  0
 28 56  1  0  0  0
 29 30  2  0  0  0
 29 36  1  0  0  0
 30 31  1  0  0  0
 30 57  1  0  0  0
 31 32  2  0  0  0
 31 58  1  0  0  0
 32 33  1  0  0  0
 32 36  1  0  0  0
 33 34  2  0  0  0
 33 35  1  0  0  0
 37 38  2  0  0  0
 37 59  1  0  0  0
 38 60  1  0  0  0
 39 40  2  0  0  0
 39 61  1  0  0  0
 40 62  1  0  0  0
 41 63  1  0  0  0
M  CHG  2  35  -1  42  -1
M  END
> <s_m_source_file>
../4r4q_ligand.sdf

> <i_m_source_file_index>
1

> <s_epik_input>
Q2xjMWMoQ2wpW2NIXWMoW2NIXVtjSF0xKS1uKG5jMkMoPU8pW09IXSljKFtjSF0yKS1jM1tjSF1bY0hdYyhbY0hdW2NIXTMpW0NIMl1OKEMoPU8pW0NIM10pW0NIMl1jKFtjSF1bY0hdNClbY0hdW2NIXWM0LWM1W2NIXVtjSF1jKG81KUMoPU8pW09IXQ==

> <s_epik_cmdline>
J2VwaWtfYXBwJywgJy1pbWFlJywgJ2xpZ2FuZF9wcm8ubWFlJywgJy1vbWFlJywgJ2xpZ2FuZF9wcmVwLm1hZScsICctbXMnLCAnMScsICctcGgnLCAnNycsICctcGh0JywgJzAuNScsICctbnQn

> <r_lp_tautomer_probability>
1

> <r_epik_Ionization_Penalty>
  0.0002

> <r_epik_Ionization_Penalty_Charging>
  0.0002

> <r_epik_Ionization_Penalty_Neutral>
  0.0000

> <r_epik_State_Penalty>
 -0.0000

> <r_epik_Charging_Adjusted_Penalty>
0.00017265715952217

> <i_epik_Tot_Q>
-2

> <i_epik_Tot_abs_Q>
2

$$$$
