4r4t_ligand
                    3D
 Schrodinger Suite 2020-3.
 57 61  0  0  1  0            999 V2000
    4.9200    8.3670    0.6200 C   0  0  0  0  0  0
    4.9030    9.7340    3.0510 C   0  0  0  0  0  0
    2.7990   10.9510    2.4060 C   0  0  0  0  0  0
   -1.1320   12.2840    1.8140 C   0  0  0  0  0  0
   -2.3600   11.8780    1.2800 C   0  0  0  0  0  0
   -2.4110   11.4000   -0.0370 C   0  0  0  0  0  0
   -0.0250   11.7640   -0.3040 C   0  0  0  0  0  0
   -4.0940   11.1820   -1.9700 C   0  0  0  0  0  0
    9.1490    3.9270   -1.0270 O   0  0  0  0  0  0
    8.1470    4.6650   -0.9890 C   0  0  0  0  0  0
    7.9520    5.6310    0.1460 C   0  0  0  0  0  0
    7.2470    4.6480   -1.8730 O   0  5  0  0  0  0
    8.7790    5.8270    1.2660 C   0  0  0  0  0  0
    8.1180    6.8700    2.0300 C   0  0  0  0  0  0
    6.9640    7.1830    1.2670 C   0  0  0  0  0  0
    6.9010    6.4290    0.2010 O   0  0  0  0  0  0
    5.9040    8.1640    1.5600 C   0  0  0  0  0  0
    3.9000    9.2880    0.8940 C   0  0  0  0  0  0
    3.9130    9.9540    2.0980 C   0  0  0  0  0  0
    5.9010    8.8280    2.7850 C   0  0  0  0  0  0
    2.4700   11.8420    1.3390 N   0  0  0  0  0  0
    1.8890   10.7520    3.7850 S   0  0  0  0  0  0
    1.2830   12.6860    1.6370 C   0  0  0  0  0  0
    0.0210   12.2380    1.0320 C   0  0  0  0  0  0
   -1.2530   11.3550   -0.8390 C   0  0  0  0  0  0
   -3.7400   10.9780   -0.6330 C   0  0  0  0  0  0
   -5.4060   10.6600   -2.0620 C   0  0  0  0  0  0
   -5.7520   10.2300   -0.8860 N   0  0  0  0  0  0
   -4.7790   10.4280   -0.0320 N   0  0  0  0  0  0
   -4.8680   10.0520    1.3180 C   0  0  0  0  0  0
   -4.1960    8.9120    1.7330 C   0  0  0  0  0  0
   -4.2810    8.5200    3.0550 C   0  0  0  0  0  0
   -5.0380    9.2560    3.9650 C   0  0  0  0  0  0
   -5.7140   10.4050    3.5380 C   0  0  0  0  0  0
   -5.6330   10.8030    2.2150 C   0  0  0  0  0  0
   -5.1350    8.7590    5.6080 Cl  0  0  0  0  0  0
   -3.4450    7.0840    3.5630 Cl  0  0  0  0  0  0
   -6.2950   10.5890   -3.3060 C   0  0  0  0  0  0
   -5.8660   11.0280   -4.4340 O   0  5  0  0  0  0
   -7.4460   10.0650   -3.1680 O   0  0  0  0  0  0
    4.9336    7.8201   -0.3228 H   0  0  0  0  0  0
    4.8868   10.2743    3.9976 H   0  0  0  0  0  0
   -1.0769   12.6370    2.8438 H   0  0  0  0  0  0
   -3.2673   11.9328    1.8816 H   0  0  0  0  0  0
    0.8826   11.7187   -0.9059 H   0  0  0  0  0  0
   -3.4969   11.6381   -2.7597 H   0  0  0  0  0  0
    9.7086    5.3113    1.5069 H   0  0  0  0  0  0
    8.4361    7.3116    2.9744 H   0  0  0  0  0  0
    3.1102    9.4736    0.1661 H   0  0  0  0  0  0
    6.6796    8.6314    3.5220 H   0  0  0  0  0  0
    2.9915   11.9467    0.3762 H   0  0  0  0  0  0
    1.1146   12.7112    2.7237 H   0  0  0  0  0  0
    1.4580   13.7078    1.2693 H   0  0  0  0  0  0
   -1.3127   11.0041   -1.8692 H   0  0  0  0  0  0
   -3.6068    8.3312    1.0233 H   0  0  0  0  0  0
   -6.3038   10.9859    4.2471 H   0  0  0  0  0  0
   -6.1610   11.6941    1.8755 H   0  0  0  0  0  0
  1 17  2  0  0  0
  1 18  1  0  0  0
  1 41  1  0  0  0
  2 19  1  0  0  0
  2 20  2  0  0  0
  2 42  1  0  0  0
  3 19  1  0  0  0
  3 21  1  0  0  0
  3 22  2  0  0  0
  4  5  2  0  0  0
  4 24  1  0  0  0
  4 43  1  0  0  0
  5  6  1  0  0  0
  5 44  1  0  0  0
  6 25  2  0  0  0
  6 26  1  0  0  0
  7 24  2  0  0  0
  7 25  1  0  0  0
  7 45  1  0  0  0
  8 26  2  0  0  0
  8 27  1  0  0  0
  8 46  1  0  0  0
  9 10  2  0  0  0
 10 11  1  0  0  0
 10 12  1  0  0  0
 11 13  2  0  0  0
 11 16  1  0  0  0
 13 14  1  0  0  0
 13 47  1  0  0  0
 14 15  2  0  0  0
 14 48  1  0  0  0
 15 16  1  0  0  0
 15 17  1  0  0  0
 17 20  1  0  0  0
 18 19  2  0  0  0
 18 49  1  0  0  0
 20 50  1  0  0  0
 21 23  1  0  0  0
 21 51  1  0  0  0
 23 24  1  0  0  0
 23 52  1  0  0  0
 23 53  1  0  0  0
 25 54  1  0  0  0
 26 29  1  0  0  0
 27 28  2  0  0  0
 27 38  1  0  0  0
 28 29  1  0  0  0
 29 30  1  0  0  0
 30 31  2  0  0  0
 30 35  1  0  0  0
 31 32  1  0  0  0
 31 55  1  0  0  0
 32 33  2  0  0  0
 32 37  1  0  0  0
 33 34  1  0  0  0
 33 36  1  0  0  0
 34 35  2  0  0  0
 34 56  1  0  0  0
 35 57  1  0  0  0
 38 39  1  0  0  0
 38 40  2  0  0  0
M  CHG  2  12  -1  39  -1
M  END
> <s_m_source_file>
../4r4t_ligand.sdf

> <i_m_source_file_index>
1

> <s_epik_input>
Tz1DKFtPSF0pYzFbY0hdW2NIXWMobzEpLWMyW2NIXVtjSF1jKFtjSF1bY0hdMilDKD1TKVtOSF1bQ0gyXWMoW2NIXVtjSF0zKVtjSF1bY0hdYzMtYzRbY0hdYyhDKD1PKVtPSF0pbm40LWM1W2NIXWMoQ2wpYyhDbClbY0hdW2NIXTU=

> <s_epik_cmdline>
J2VwaWtfYXBwJywgJy1pbWFlJywgJ2xpZ2FuZF9wcm8ubWFlJywgJy1vbWFlJywgJ2xpZ2FuZF9wcmVwLm1hZScsICctbXMnLCAnMScsICctcGgnLCAnNycsICctcGh0JywgJzAuNScsICctbnQn

> <r_lp_tautomer_probability>
1

> <r_epik_Ionization_Penalty>
  0.0001

> <r_epik_Ionization_Penalty_Charging>
  0.0001

> <r_epik_Ionization_Penalty_Neutral>
  0.0000

> <r_epik_State_Penalty>
 -0.0000

> <r_epik_Charging_Adjusted_Penalty>
0.000131741507274872

> <i_epik_Tot_Q>
-2

> <i_epik_Tot_abs_Q>
2

$$$$
