4r5a_ligand
                    3D
 Schrodinger Suite 2020-3.
 44 45  0  0  1  0            999 V2000
    3.6920    3.7830   80.3310 C   0  0  2  0  0  0
    2.8710    4.3290   81.4880 C   0  0  2  0  0  0
    3.6230    5.1350   82.4920 C   0  0  0  0  0  0
   -1.6290    2.4760   86.0200 O   0  0  0  0  0  0
   -1.8890    1.4100   87.1140 S   0  0  0  0  0  0
   -3.2940    1.3800   87.2560 O   0  0  0  0  0  0
   -1.1510    1.6920   88.2380 O   0  0  0  0  0  0
   -1.2330    0.0890   86.6830 N   0  0  0  0  0  0
    1.6340    0.8350   79.6060 O   0  0  0  0  0  0
    2.2930    1.7100   80.4660 C   0  0  1  0  0  0
    3.4900    2.4220   79.9520 C   0  0  1  0  0  0
    3.8330    2.1900   78.5770 O   0  0  0  0  0  0
    5.1080    4.0120   80.4740 O   0  0  0  0  0  0
    3.0790    5.3460   83.7720 O   0  0  0  0  0  0
    1.7130    3.6320   81.9430 O   0  0  0  0  0  0
    1.4730    2.3040   81.6150 C   0  0  1  0  0  0
   -0.3370    2.1700   81.6460 S   0  0  0  0  0  0
   -0.5650    0.8610   81.3610 O   0  0  0  0  0  0
   -0.9260    3.1670   80.8460 O   0  0  0  0  0  0
   -0.6320    2.4820   82.9760 N   0  0  1  0  0  0
   -0.2270    1.8140   83.9120 C   0  0  0  0  0  0
   -0.7560    3.8420   83.4670 C   0  0  0  0  0  0
   -0.2450    3.8410   84.8910 C   0  0  0  0  0  0
   -0.3680    2.6610   85.2820 C   0  0  1  0  0  0
    3.3194    4.3386   79.4578 H   0  0  0  0  0  0
    2.1938    5.0421   80.9952 H   0  0  0  0  0  0
    4.5948    4.6594   82.6904 H   0  0  0  0  0  0
    3.7848    6.1501   82.1004 H   0  0  0  0  0  0
   -1.4107   -0.6768   87.4524 H   0  0  0  0  0  0
   -0.1505    0.2404   86.5595 H   0  0  0  0  0  0
    2.1755    0.3795   78.7638 H   0  0  0  0  0  0
    2.8449    0.8665   80.9063 H   0  0  0  0  0  0
    4.2766    1.9189   80.5335 H   0  0  0  0  0  0
    4.7093    2.6886   78.1371 H   0  0  0  0  0  0
    5.4778    5.0066   80.7637 H   0  0  0  0  0  0
    3.6326    5.9404   84.5138 H   0  0  0  0  0  0
    2.1364    1.7733   82.3138 H   0  0  0  0  0  0
   -0.8219    0.8919   83.9889 H   0  0  0  0  0  0
    0.8297    1.5560   83.7483 H   0  0  0  0  0  0
   -0.1559    4.5153   82.8373 H   0  0  0  0  0  0
   -1.8114    4.1500   83.4311 H   0  0  0  0  0  0
    0.8066    4.1636   84.9034 H   0  0  0  0  0  0
   -0.8479    4.5329   85.4974 H   0  0  0  0  0  0
    0.3957    2.5476   86.0656 H   0  0  0  0  0  0
  1  2  1  0  0  0
  1 11  1  0  0  0
  1 13  1  0  0  0
  1 25  1  0  0  0
  2  3  1  0  0  0
  2 15  1  0  0  0
  2 26  1  0  0  0
  3 14  1  0  0  0
  3 27  1  0  0  0
  3 28  1  0  0  0
  4  5  1  0  0  0
  4 24  1  0  0  0
  5  6  2  0  0  0
  5  7  2  0  0  0
  5  8  1  0  0  0
  8 29  1  0  0  0
  8 30  1  0  0  0
  9 10  1  0  0  0
  9 31  1  0  0  0
 10 11  1  0  0  0
 10 16  1  0  0  0
 10 32  1  0  0  0
 11 12  1  0  0  0
 11 33  1  0  0  0
 12 34  1  0  0  0
 13 35  1  0  0  0
 14 36  1  0  0  0
 15 16  1  0  0  0
 16 17  1  0  0  0
 16 37  1  0  0  0
 17 18  2  0  0  0
 17 19  2  0  0  0
 17 20  1  0  0  0
 20 21  1  0  0  0
 20 22  1  0  0  0
 21 24  1  0  0  0
 21 38  1  0  0  0
 21 39  1  0  0  0
 22 23  1  0  0  0
 22 40  1  0  0  0
 22 41  1  0  0  0
 23 24  1  0  0  0
 23 42  1  0  0  0
 23 43  1  0  0  0
 24 44  1  0  0  0
M  END
> <s_m_source_file>
../4r5a_ligand.sdf

> <i_m_source_file_index>
1

> <s_epik_input>
W09IXVtDQEBIXTFbQ0BIXShbQ0gyXVtPSF0pT1tDQEhdKFtDQEBIXShbT0hdKVtDQEhdMVtPSF0pUyg9TykoPU8pTjJbQ0gyXVtDQEBIXShbQ0gyXVtDSDJdMilPUyg9TykoPU8pW05IMl0=

> <s_epik_cmdline>
J2VwaWtfYXBwJywgJy1pbWFlJywgJ2xpZ2FuZF9wcm8ubWFlJywgJy1vbWFlJywgJ2xpZ2FuZF9wcmVwLm1hZScsICctbXMnLCAnMScsICctcGgnLCAnNycsICctcGh0JywgJzAuNScsICctbnQn

> <r_lp_tautomer_probability>
1

> <r_epik_Ionization_Penalty>
  0.0073

> <r_epik_Ionization_Penalty_Charging>
  0.0000

> <r_epik_Ionization_Penalty_Neutral>
  0.0073

> <r_epik_State_Penalty>
 -0.0000

> <r_epik_Charging_Adjusted_Penalty>
0

> <i_epik_Tot_Q>
0

> <i_epik_Tot_abs_Q>
0

$$$$
