4r5b_ligand
                    3D
 Schrodinger Suite 2020-3.
 44 45  0  0  1  0            999 V2000
    0.5970    4.9310   79.4600 C   0  0  2  0  0  0
    1.1910    4.1560   80.6380 C   0  0  2  0  0  0
    1.7750    2.8240   80.3690 C   0  0  0  0  0  0
   -1.7750    1.8660   86.2140 O   0  0  0  0  0  0
   -2.6310    0.8540   86.9230 S   0  0  0  0  0  0
   -4.0360    1.0350   86.7800 O   0  0  0  0  0  0
   -2.2720    0.9640   88.2530 O   0  0  0  0  0  0
   -2.0970   -0.5310   86.3830 N   0  0  0  0  0  0
   -2.7410    6.3600   80.6300 O   0  0  0  0  0  0
   -1.6260    5.3680   80.6410 C   0  0  1  0  0  0
   -0.7640    5.4400   79.4360 C   0  0  1  0  0  0
   -0.8380    6.7680   78.8820 O   0  0  0  0  0  0
    0.7680    4.1520   78.2460 O   0  0  0  0  0  0
    1.8530    1.9300   81.4580 O   0  0  0  0  0  0
    0.4460    4.2650   81.8810 O   0  0  0  0  0  0
   -0.9320    4.7350   81.9060 C   0  0  1  0  0  0
   -1.0530    5.3930   83.5870 S   0  0  0  0  0  0
   -2.2900    6.0820   83.6210 O   0  0  0  0  0  0
    0.1110    6.0650   84.0010 O   0  0  0  0  0  0
   -1.1460    4.3000   84.4440 N   0  0  1  0  0  0
   -2.1370    3.5420   84.4390 C   0  0  0  0  0  0
    0.0180    3.4220   84.5460 C   0  0  0  0  0  0
   -0.5120    2.0080   84.3520 C   0  0  0  0  0  0
   -1.6660    2.0360   84.7490 C   0  0  1  0  0  0
    1.1413    5.8853   79.5148 H   0  0  0  0  0  0
    2.1124    4.7028   80.8870 H   0  0  0  0  0  0
    1.1756    2.3085   79.6041 H   0  0  0  0  0  0
    2.8072    2.9424   80.0076 H   0  0  0  0  0  0
   -2.6662   -1.3497   86.8474 H   0  0  0  0  0  0
   -1.0314   -0.6364   86.6347 H   0  0  0  0  0  0
   -3.1408    6.7275   79.6734 H   0  0  0  0  0  0
   -2.4102    4.6016   80.5539 H   0  0  0  0  0  0
   -1.1918    4.6881   78.7566 H   0  0  0  0  0  0
   -0.2634    7.0198   77.9784 H   0  0  0  0  0  0
    1.7300    3.6605   78.0388 H   0  0  0  0  0  0
    2.2784    0.9256   81.3157 H   0  0  0  0  0  0
   -1.5110    3.8906   81.5039 H   0  0  0  0  0  0
   -2.8514    3.8674   85.2095 H   0  0  0  0  0  0
   -2.6210    3.5777   83.4518 H   0  0  0  0  0  0
    0.7461    3.6862   83.7650 H   0  0  0  0  0  0
    0.4823    3.5422   85.5359 H   0  0  0  0  0  0
   -0.4597    1.7398   83.2865 H   0  0  0  0  0  0
    0.0978    1.3043   84.9376 H   0  0  0  0  0  0
   -2.0565    1.1462   84.2334 H   0  0  0  0  0  0
  1  2  1  0  0  0
  1 11  1  0  0  0
  1 13  1  0  0  0
  1 25  1  0  0  0
  2  3  1  0  0  0
  2 15  1  0  0  0
  2 26  1  0  0  0
  3 14  1  0  0  0
  3 27  1  0  0  0
  3 28  1  0  0  0
  4  5  1  0  0  0
  4 24  1  0  0  0
  5  6  2  0  0  0
  5  7  2  0  0  0
  5  8  1  0  0  0
  8 29  1  0  0  0
  8 30  1  0  0  0
  9 10  1  0  0  0
  9 31  1  0  0  0
 10 11  1  0  0  0
 10 16  1  0  0  0
 10 32  1  0  0  0
 11 12  1  0  0  0
 11 33  1  0  0  0
 12 34  1  0  0  0
 13 35  1  0  0  0
 14 36  1  0  0  0
 15 16  1  0  0  0
 16 17  1  0  0  0
 16 37  1  0  0  0
 17 18  2  0  0  0
 17 19  2  0  0  0
 17 20  1  0  0  0
 20 21  1  0  0  0
 20 22  1  0  0  0
 21 24  1  0  0  0
 21 38  1  0  0  0
 21 39  1  0  0  0
 22 23  1  0  0  0
 22 40  1  0  0  0
 22 41  1  0  0  0
 23 24  1  0  0  0
 23 42  1  0  0  0
 23 43  1  0  0  0
 24 44  1  0  0  0
M  END
> <s_m_source_file>
../4r5b_ligand.sdf

> <i_m_source_file_index>
1

> <s_epik_input>
W09IXVtDQEBIXTFbQ0BIXShbQ0gyXVtPSF0pT1tDQEhdKFtDQEBIXShbT0hdKVtDQEhdMVtPSF0pUyg9TykoPU8pTjJbQ0gyXVtDQEBIXShbQ0gyXVtDSDJdMilPUyg9TykoPU8pW05IMl0=

> <s_epik_cmdline>
J2VwaWtfYXBwJywgJy1pbWFlJywgJ2xpZ2FuZF9wcm8ubWFlJywgJy1vbWFlJywgJ2xpZ2FuZF9wcmVwLm1hZScsICctbXMnLCAnMScsICctcGgnLCAnNycsICctcGh0JywgJzAuNScsICctbnQn

> <r_lp_tautomer_probability>
1

> <r_epik_Ionization_Penalty>
  0.0073

> <r_epik_Ionization_Penalty_Charging>
  0.0000

> <r_epik_Ionization_Penalty_Neutral>
  0.0073

> <r_epik_State_Penalty>
 -0.0000

> <r_epik_Charging_Adjusted_Penalty>
0

> <i_epik_Tot_Q>
0

> <i_epik_Tot_abs_Q>
0

$$$$
