4r5g_ligand
                    3D
 Schrodinger Suite 2020-3.
 47 50  0  0  1  0            999 V2000
  -17.7940   50.1110   -0.5940 C   0  0  0  0  0  0
  -18.0730   49.0780    0.2880 C   0  0  0  0  0  0
  -17.3750   48.9860    1.4860 C   0  0  0  0  0  0
  -16.4030   49.9240    1.8010 C   0  0  0  0  0  0
  -16.1210   50.9620    0.9220 C   0  0  0  0  0  0
  -16.8260   51.0490   -0.2800 C   0  0  0  0  0  0
  -16.5740   52.0070   -1.0890 C   0  0  0  0  0  0
  -16.2610   52.9280   -1.7540 C   0  0  0  0  0  0
  -15.9680   54.1380   -2.8150 P   0  0  0  0  0  0
  -15.7990   53.4740   -4.4150 C   0  0  0  0  0  0
  -15.4470   52.1350   -4.5710 C   0  0  0  0  0  0
  -15.3020   51.5920   -5.8390 C   0  0  0  0  0  0
  -15.5010   52.3840   -6.9650 C   0  0  0  0  0  0
  -15.8470   53.7220   -6.8070 C   0  0  0  0  0  0
  -15.9920   54.2670   -5.5400 C   0  0  0  0  0  0
  -17.2930   55.2750   -2.6900 C   0  0  0  0  0  0
  -17.2350   56.5140   -3.3140 C   0  0  0  0  0  0
  -18.3110   57.3860   -3.1860 C   0  0  0  0  0  0
  -19.4210   57.0180   -2.4360 C   0  0  0  0  0  0
  -19.4720   55.7810   -1.8100 C   0  0  0  0  0  0
  -18.4000   54.9080   -1.9380 C   0  0  0  0  0  0
  -14.4640   54.8860   -2.3480 C   0  0  0  0  0  0
  -13.7190   55.5880   -3.2890 C   0  0  0  0  0  0
  -12.5160   56.1820   -2.9260 C   0  0  0  0  0  0
  -12.0530   56.0780   -1.6200 C   0  0  0  0  0  0
  -12.7960   55.3760   -0.6760 C   0  0  0  0  0  0
  -14.0000   54.7790   -1.0410 C   0  0  0  0  0  0
  -18.3378   50.1843   -1.5358 H   0  0  0  0  0  0
  -18.8373   48.3407    0.0424 H   0  0  0  0  0  0
  -17.5920   48.1742    2.1803 H   0  0  0  0  0  0
  -15.8583   49.8463    2.7419 H   0  0  0  0  0  0
  -15.3578   51.7004    1.1679 H   0  0  0  0  0  0
  -15.2848   51.5110   -3.6921 H   0  0  0  0  0  0
  -15.0315   50.5423   -5.9534 H   0  0  0  0  0  0
  -15.3868   51.9598   -7.9626 H   0  0  0  0  0  0
  -16.0054   54.3470   -7.6859 H   0  0  0  0  0  0
  -16.2575   55.3180   -5.4264 H   0  0  0  0  0  0
  -16.3586   56.7993   -3.8960 H   0  0  0  0  0  0
  -18.2833   58.3598   -3.6750 H   0  0  0  0  0  0
  -20.2595   57.7075   -2.3385 H   0  0  0  0  0  0
  -20.3455   55.4971   -1.2231 H   0  0  0  0  0  0
  -18.4279   53.9347   -1.4480 H   0  0  0  0  0  0
  -14.0794   55.6727   -4.3142 H   0  0  0  0  0  0
  -11.9347   56.7304   -3.6672 H   0  0  0  0  0  0
  -11.1101   56.5452   -1.3358 H   0  0  0  0  0  0
  -12.4356   55.2933    0.3494 H   0  0  0  0  0  0
  -14.5798   54.2269   -0.3013 H   0  0  0  0  0  0
  1  2  2  0  0  0
  1  6  1  0  0  0
  1 28  1  0  0  0
  2  3  1  0  0  0
  2 29  1  0  0  0
  3  4  2  0  0  0
  3 30  1  0  0  0
  4  5  1  0  0  0
  4 31  1  0  0  0
  5  6  2  0  0  0
  5 32  1  0  0  0
  6  7  1  0  0  0
  7  8  3  0  0  0
  8  9  1  0  0  0
  9 10  1  0  0  0
  9 16  1  0  0  0
  9 22  1  0  0  0
 10 11  2  0  0  0
 10 15  1  0  0  0
 11 12  1  0  0  0
 11 33  1  0  0  0
 12 13  2  0  0  0
 12 34  1  0  0  0
 13 14  1  0  0  0
 13 35  1  0  0  0
 14 15  2  0  0  0
 14 36  1  0  0  0
 15 37  1  0  0  0
 16 17  2  0  0  0
 16 21  1  0  0  0
 17 18  1  0  0  0
 17 38  1  0  0  0
 18 19  2  0  0  0
 18 39  1  0  0  0
 19 20  1  0  0  0
 19 40  1  0  0  0
 20 21  2  0  0  0
 20 41  1  0  0  0
 21 42  1  0  0  0
 22 23  2  0  0  0
 22 27  1  0  0  0
 23 24  1  0  0  0
 23 43  1  0  0  0
 24 25  2  0  0  0
 24 44  1  0  0  0
 25 26  1  0  0  0
 25 45  1  0  0  0
 26 27  2  0  0  0
 26 46  1  0  0  0
 27 47  1  0  0  0
M  END
> <s_m_source_file>
../4r5g_ligand.sdf

> <i_m_source_file_index>
1

> <s_epik_input>
W2NIXTFbY0hdW2NIXVtjSF1bY0hdYzFDI0NbUEhdKGMyW2NIXVtjSF1bY0hdW2NIXVtjSF0yKShjM1tjSF1bY0hdW2NIXVtjSF1bY0hdMyljNFtjSF1bY0hdW2NIXVtjSF1bY0hdNA==

> <s_epik_cmdline>
J2VwaWtfYXBwJywgJy1pbWFlJywgJ2xpZ2FuZF9wcm8ubWFlJywgJy1vbWFlJywgJ2xpZ2FuZF9wcmVwLm1hZScsICctbXMnLCAnMScsICctcGgnLCAnNycsICctcGh0JywgJzAuNScsICctbnQn

> <r_lp_tautomer_probability>
1

> <r_epik_Ionization_Penalty>
  0.0000

> <r_epik_Ionization_Penalty_Charging>
  0.0000

> <r_epik_Ionization_Penalty_Neutral>
  0.0000

> <r_epik_State_Penalty>
 -0.0000

> <r_epik_Charging_Adjusted_Penalty>
0

> <i_epik_Tot_Q>
0

> <i_epik_Tot_abs_Q>
0

$$$$
