4r5n_ligand
                    3D
 Schrodinger Suite 2020-3.
 48 52  0  0  1  0            999 V2000
   27.9230   14.6570    9.3270 C   0  0  0  0  0  0
   27.0990   15.7800    9.6160 C   0  0  0  0  0  0
   25.6990   15.6870    9.3920 C   0  0  0  0  0  0
   25.1090   14.4900    8.9140 C   0  0  0  0  0  0
   25.9360   13.3700    8.6350 C   0  0  0  0  0  0
   27.3370   13.4570    8.8440 C   0  0  0  0  0  0
   27.6460   17.0180   10.0540 C   0  0  0  0  0  0
   25.4060   12.1840    8.1680 O   0  0  0  0  0  0
   24.1330   12.2020    7.5060 C   0  0  2  0  0  0
   23.1380   12.9930    8.3920 C   0  0  1  0  0  0
   23.5930   14.4400    8.6780 C   0  0  2  0  0  0
   23.1780   15.4890    7.6180 C   0  0  0  0  0  0
   22.2940   16.3950    8.2940 O   0  0  0  0  0  0
   22.1490   15.9730    9.5770 C   0  0  0  0  0  0
   22.8280   14.8560    9.8340 N   0  3  0  0  0  0
   21.1990   16.5620   10.3070 N   0  0  0  0  0  0
   21.8090   12.9390    7.8610 O   0  0  0  0  0  0
   21.2450   11.6200    7.7820 C   0  0  0  0  0  0
   22.1530   10.6890    6.9240 C   0  0  0  0  0  0
   23.6410   10.7450    7.3740 C   0  0  0  0  0  0
   24.3100   12.8570    6.1130 C   0  0  0  0  0  0
   27.2210   17.7180   11.2140 C   0  0  0  0  0  0
   27.7220   18.9150   11.6010 N   0  0  0  0  0  0
   28.6860   19.4900   10.8490 C   0  0  0  0  0  0
   29.1770   18.8830    9.6650 C   0  0  0  0  0  0
   28.6420   17.6360    9.2510 C   0  0  0  0  0  0
   26.2810   17.1960   12.0080 F   0  0  0  0  0  0
   29.0011   14.7174    9.4759 H   0  0  0  0  0  0
   25.0668   16.5523    9.5914 H   0  0  0  0  0  0
   27.9691   12.5947    8.6318 H   0  0  0  0  0  0
   23.0346   12.4784    9.3587 H   0  0  0  0  0  0
   24.0736   16.0075    7.2450 H   0  0  0  0  0  0
   22.6713   14.9848    6.7819 H   0  0  0  0  0  0
   22.7546   14.3833   10.8245 H   0  0  0  0  0  0
   20.7300   17.4917    9.9524 H   0  0  0  0  0  0
   21.1556   11.1982    8.7940 H   0  0  0  0  0  0
   20.2491   11.6742    7.3181 H   0  0  0  0  0  0
   21.8057    9.6496    7.0186 H   0  0  0  0  0  0
   22.1025   10.9979    5.8695 H   0  0  0  0  0  0
   24.2524   10.2178    6.6268 H   0  0  0  0  0  0
   23.7318   10.2378    8.3459 H   0  0  0  0  0  0
   24.6605   13.8923    6.2365 H   0  0  0  0  0  0
   23.3463   12.8569    5.5827 H   0  0  0  0  0  0
   25.0489   12.2867    5.5309 H   0  0  0  0  0  0
   29.0987   20.4492   11.1617 H   0  0  0  0  0  0
   29.9571   19.3694    9.0794 H   0  0  0  0  0  0
   28.9888   17.1606    8.3335 H   0  0  0  0  0  0
   20.8852   16.1176   11.2630 H   0  0  0  0  0  0
  1  2  2  0  0  0
  1  6  1  0  0  0
  1 28  1  0  0  0
  2  3  1  0  0  0
  2  7  1  0  0  0
  3  4  2  0  0  0
  3 29  1  0  0  0
  4  5  1  0  0  0
  4 11  1  0  0  0
  5  6  2  0  0  0
  5  8  1  0  0  0
  6 30  1  0  0  0
  7 22  2  0  0  0
  7 26  1  0  0  0
  8  9  1  0  0  0
  9 10  1  0  0  0
  9 20  1  0  0  0
  9 21  1  0  0  0
 10 11  1  0  0  0
 10 17  1  0  0  0
 10 31  1  0  0  0
 11 12  1  0  0  0
 11 15  1  0  0  0
 12 13  1  0  0  0
 12 32  1  0  0  0
 12 33  1  0  0  0
 13 14  1  0  0  0
 14 15  2  0  0  0
 14 16  1  0  0  0
 15 34  1  0  0  0
 16 35  1  0  0  0
 16 48  1  0  0  0
 17 18  1  0  0  0
 18 19  1  0  0  0
 18 36  1  0  0  0
 18 37  1  0  0  0
 19 20  1  0  0  0
 19 38  1  0  0  0
 19 39  1  0  0  0
 20 40  1  0  0  0
 20 41  1  0  0  0
 21 42  1  0  0  0
 21 43  1  0  0  0
 21 44  1  0  0  0
 22 23  1  0  0  0
 22 27  1  0  0  0
 23 24  2  0  0  0
 24 25  1  0  0  0
 24 45  1  0  0  0
 25 26  2  0  0  0
 25 46  1  0  0  0
 26 47  1  0  0  0
M  CHG  1  15   1
M  END
> <s_m_source_file>
../4r5n_ligand.sdf

> <i_m_source_file_index>
1

> <s_epik_input>
W2NIXTFbY0hdW2NIXW5jKEYpYzEtYyhbY0hdMilbY0hdW2NIXWMoYzJbQ0BAXTM0W0NIMl1PL0MoW05IXTQpPU5cW0hdKU9bQ0BdNShbQ0gzXSlbQ0BASF0zT1tDSDJdW0NIMl1bQ0gyXTU=

> <s_epik_cmdline>
J2VwaWtfYXBwJywgJy1pbWFlJywgJ2xpZ2FuZF9wcm8ubWFlJywgJy1vbWFlJywgJ2xpZ2FuZF9wcmVwLm1hZScsICctbXMnLCAnMScsICctcGgnLCAnNycsICctcGh0JywgJzAuNScsICctbnQn

> <r_lp_tautomer_probability>
1

> <r_epik_Ionization_Penalty>
  0.1569

> <r_epik_Ionization_Penalty_Charging>
  0.0014

> <r_epik_Ionization_Penalty_Neutral>
  0.1555

> <r_epik_State_Penalty>
  0.1448

> <r_epik_Charging_Adjusted_Penalty>
0.146155101153739

> <i_epik_Tot_Q>
1

> <i_epik_Tot_abs_Q>
1

> <s_epik_Chemistry_Notes>
This compound has an imine and may undergo hydrolysis.

$$$$
