4r5x_ligand
                    3D
 Schrodinger Suite 2020-3.
 43 45  0  0  1  0            999 V2000
   11.9100    9.9770   18.9980 C   0  0  0  0  0  0
   17.4740    8.0140   10.0110 C   0  0  0  0  0  0
   18.2460    6.8760    9.7480 C   0  0  0  0  0  0
   18.6640    6.6160   12.1010 C   0  0  0  0  0  0
   13.6280    9.5960   15.2880 C   0  0  0  0  0  0
   14.1300    9.6470   13.9850 C   0  0  0  0  0  0
   13.9010   10.7690   13.1920 C   0  0  0  0  0  0
   13.1840   11.8350   13.7100 C   0  0  0  0  0  0
   12.6770   11.7920   15.0070 C   0  0  0  0  0  0
   12.9050   10.6770   15.7970 C   0  0  0  0  0  0
   12.4070   10.6510   17.0290 N   0  0  0  0  0  0
   11.7600   11.5140   17.5200 N   0  0  0  0  0  0
   11.4020   11.1790   18.7600 C   0  0  0  0  0  0
   12.5550    9.6400   17.8880 C   0  0  0  0  0  0
   14.4120   10.8460   11.8950 C   0  0  1  0  0  0
   15.1530    9.5930   11.5440 N   0  0  0  0  0  0
   13.3600   11.3610   10.8600 C   0  0  0  0  0  0
   12.4230   10.6950   10.4000 O   0  0  0  0  0  0
   13.5920   12.6100   10.4550 N   0  0  0  0  0  0
   12.6790   13.1350    9.5200 O   0  0  0  0  0  0
   16.5160    9.6110   11.6200 C   0  0  0  0  0  0
   17.2670    8.4530   11.3210 C   0  0  0  0  0  0
   17.1260   10.6190   11.9500 O   0  0  0  0  0  0
   18.8450    6.1720   10.7940 C   0  0  0  0  0  0
   17.8900    7.7500   12.3530 C   0  0  0  0  0  0
   18.4140    6.4630    8.4930 N   0  0  0  0  0  0
   11.8173    9.3901   19.9119 H   0  0  0  0  0  0
   17.0285    8.5648    9.1826 H   0  0  0  0  0  0
   19.1270    6.0778   12.9281 H   0  0  0  0  0  0
   13.8003    8.7146   15.9057 H   0  0  0  0  0  0
   14.7015    8.8077   13.5886 H   0  0  0  0  0  0
   13.0143   12.7188   13.0950 H   0  0  0  0  0  0
   12.1034   12.6321   15.3985 H   0  0  0  0  0  0
   10.8054   11.7788   19.4473 H   0  0  0  0  0  0
   13.1017    8.7137   17.7114 H   0  0  0  0  0  0
   15.1908   11.6182   11.9793 H   0  0  0  0  0  0
   14.5987    8.6941   11.2361 H   0  0  0  0  0  0
   14.4339   13.2246   10.8065 H   0  0  0  0  0  0
   12.8078   14.1596    9.1412 H   0  0  0  0  0  0
   19.4466    5.2862   10.5901 H   0  0  0  0  0  0
   17.7694    8.0945   13.3801 H   0  0  0  0  0  0
   17.9442    7.0141    7.6651 H   0  0  0  0  0  0
   19.0226    5.5707    8.2844 H   0  0  0  0  0  0
  1 13  1  0  0  0
  1 14  2  0  0  0
  1 27  1  0  0  0
  2  3  2  0  0  0
  2 22  1  0  0  0
  2 28  1  0  0  0
  3 24  1  0  0  0
  3 26  1  0  0  0
  4 24  2  0  0  0
  4 25  1  0  0  0
  4 29  1  0  0  0
  5  6  2  0  0  0
  5 10  1  0  0  0
  5 30  1  0  0  0
  6  7  1  0  0  0
  6 31  1  0  0  0
  7  8  2  0  0  0
  7 15  1  0  0  0
  8  9  1  0  0  0
  8 32  1  0  0  0
  9 10  2  0  0  0
  9 33  1  0  0  0
 10 11  1  0  0  0
 11 12  1  0  0  0
 11 14  1  0  0  0
 12 13  2  0  0  0
 13 34  1  0  0  0
 14 35  1  0  0  0
 15 16  1  0  0  0
 15 17  1  0  0  0
 15 36  1  0  0  0
 16 21  1  0  0  0
 16 37  1  0  0  0
 17 18  2  0  0  0
 17 19  1  0  0  0
 19 20  1  0  0  0
 19 38  1  0  0  0
 20 39  1  0  0  0
 21 22  1  0  0  0
 21 23  2  0  0  0
 22 25  2  0  0  0
 24 40  1  0  0  0
 25 41  1  0  0  0
 26 42  1  0  0  0
 26 43  1  0  0  0
M  END
> <s_m_source_file>
../4r5x_ligand.sdf

> <i_m_source_file_index>
1

> <s_epik_input>
W2NIXTFbY0hdW2NIXW5uMS1jKFtjSF1bY0hdMilbY0hdW2NIXWMyW0NASF0oQyg9TylbTkhdW09IXSlbTkhdQyg9TyljKFtjSF1jM1tOSDJdKVtjSF1bY0hdW2NIXTM=

> <s_epik_cmdline>
J2VwaWtfYXBwJywgJy1pbWFlJywgJ2xpZ2FuZF9wcm8ubWFlJywgJy1vbWFlJywgJ2xpZ2FuZF9wcmVwLm1hZScsICctbXMnLCAnMScsICctcGgnLCAnNycsICctcGh0JywgJzAuNScsICctbnQn

> <r_lp_tautomer_probability>
1

> <r_epik_Ionization_Penalty>
  0.0162

> <r_epik_Ionization_Penalty_Charging>
  0.0000

> <r_epik_Ionization_Penalty_Neutral>
  0.0162

> <r_epik_State_Penalty>
  0.0126

> <r_epik_Charging_Adjusted_Penalty>
0.0125768592650424

> <i_epik_Tot_Q>
0

> <i_epik_Tot_abs_Q>
0

> <s_epik_Chemistry_Notes>
This compound has a N-S or N-O group and may undergo hydrolysis at high or low pH.

$$$$
