4r6v_ligand
                    3D
 Schrodinger Suite 2020-3.
 87 91  0  0  1  0            999 V2000
  -51.4770  146.1460    2.7180 C   0  0  0  0  0  0
  -52.3740  147.3010    2.8150 C   0  0  0  0  0  0
  -53.6710  146.9610    2.0790 C   0  0  0  0  0  0
  -53.6060  146.7880    0.8650 O   0  0  0  0  0  0
  -54.9320  146.8290    2.8500 N   0  0  0  0  0  0
  -56.2050  146.4890    2.3010 C   0  0  0  0  0  0
  -57.2890  146.1510    3.1180 C   0  0  0  0  0  0
  -58.4930  145.8230    2.5650 C   0  0  0  0  0  0
  -56.3470  146.4630    0.9610 C   0  0  0  0  0  0
  -57.5390  146.1300    0.4010 C   0  0  0  0  0  0
  -58.5830  145.8130    1.2080 C   0  0  0  0  0  0
  -59.8130  145.4880    0.4260 C   0  0  0  0  0  0
  -60.9810  144.8520    1.0660 N   0  0  0  0  0  0
  -60.9990  143.4250    1.2280 C   0  0  0  0  0  0
  -60.0610  142.8320    0.9020 O   0  0  0  0  0  0
  -62.1470  142.7830    1.7610 N   0  0  0  0  0  0
  -62.2350  141.3400    1.9470 C   0  0  0  0  0  0
  -62.1170  140.4240    0.9060 C   0  0  0  0  0  0
  -61.8200  140.8750   -0.7290 Cl  0  0  0  0  0  0
  -62.4900  140.8940    3.2090 C   0  0  0  0  0  0
  -62.6360  142.1340    4.3170 Cl  0  0  0  0  0  0
  -62.6230  139.5620    3.4870 C   0  0  0  0  0  0
  -62.8760  139.1440    4.8010 O   0  0  0  0  0  0
  -63.5660  137.9940    4.9720 C   0  0  0  0  0  0
  -62.4750  138.6600    2.4320 C   0  0  0  0  0  0
  -62.2300  139.0830    1.1510 C   0  0  0  0  0  0
  -62.1030  138.1910    0.0580 O   0  0  0  0  0  0
  -61.9020  136.8220    0.3360 C   0  0  0  0  0  0
  -62.0920  145.6650    1.4020 C   0  0  0  0  0  0
  -61.9450  147.0370    1.5070 C   0  0  0  0  0  0
  -63.2580  145.1320    1.6090 N   0  0  0  0  0  0
  -64.2580  145.9480    1.9090 C   0  0  0  0  0  0
  -64.2140  147.2490    2.0280 N   0  0  0  0  0  0
  -63.0700  147.8350    1.8440 C   0  0  0  0  0  0
  -62.9480  149.1940    1.9500 N   0  0  0  0  0  0
  -61.7110  149.7920    2.0540 C   0  0  0  0  0  0
  -60.7440  149.2180    2.8830 C   0  0  0  0  0  0
  -59.4960  149.7950    3.0280 C   0  0  0  0  0  0
  -61.4490  150.9300    1.3910 C   0  0  0  0  0  0
  -60.1950  151.5100    1.5300 C   0  0  0  0  0  0
  -59.2320  150.8960    2.3550 C   0  0  0  0  0  0
  -57.9030  151.4480    2.5420 N   0  0  0  0  0  0
  -57.5350  152.5930    1.9660 C   0  0  0  0  0  0
  -56.2240  153.0490    2.1910 C   0  0  0  0  0  0
  -55.3680  152.3750    2.9800 N   0  3  0  0  0  0
  -54.0840  152.8470    3.1990 C   0  0  0  0  0  0
  -55.7510  151.2300    3.5430 C   0  0  0  0  0  0
  -57.0590  150.7480    3.3190 C   0  0  0  0  0  0
  -50.5354  146.3681    3.2415 H   0  0  0  0  0  0
  -51.2666  145.9330    1.6595 H   0  0  0  0  0  0
  -51.9558  145.2701    3.1802 H   0  0  0  0  0  0
  -52.5844  147.5140    3.8735 H   0  0  0  0  0  0
  -51.8953  148.1769    2.3529 H   0  0  0  0  0  0
  -54.9324  146.9982    3.9369 H   0  0  0  0  0  0
  -57.1716  146.1496    4.2017 H   0  0  0  0  0  0
  -59.3523  145.5777    3.1891 H   0  0  0  0  0  0
  -55.4994  146.7109    0.3221 H   0  0  0  0  0  0
  -57.6554  146.1176   -0.6827 H   0  0  0  0  0  0
  -60.2302  146.4116   -0.0017 H   0  0  0  0  0  0
  -59.5580  144.7907   -0.3856 H   0  0  0  0  0  0
  -63.0237  143.3788    2.0549 H   0  0  0  0  0  0
  -63.6870  137.7954    6.0471 H   0  0  0  0  0  0
  -63.0159  137.1635    4.5053 H   0  0  0  0  0  0
  -64.5564  138.0874    4.5026 H   0  0  0  0  0  0
  -62.5563  137.5916    2.6318 H   0  0  0  0  0  0
  -61.8233  136.2638   -0.6086 H   0  0  0  0  0  0
  -62.7517  136.4377    0.9194 H   0  0  0  0  0  0
  -60.9743  136.6976    0.9138 H   0  0  0  0  0  0
  -60.9742  147.5009    1.3325 H   0  0  0  0  0  0
  -65.2286  145.4808    2.0757 H   0  0  0  0  0  0
  -63.8467  149.8283    1.9532 H   0  0  0  0  0  0
  -60.9771  148.3009    3.4240 H   0  0  0  0  0  0
  -58.7481  149.3492    3.6838 H   0  0  0  0  0  0
  -62.2062  151.3897    0.7559 H   0  0  0  0  0  0
  -59.9572  152.4346    1.0041 H   0  0  0  0  0  0
  -57.6232  152.4988    0.8736 H   0  0  0  0  0  0
  -58.1867  153.4064    2.3177 H   0  0  0  0  0  0
  -55.6866  153.1072    1.2330 H   0  0  0  0  0  0
  -56.2570  154.0462    2.6541 H   0  0  0  0  0  0
  -55.0107  151.8078    2.1079 H   0  0  0  0  0  0
  -53.9455  153.7962    2.6606 H   0  0  0  0  0  0
  -53.3548  152.1087    2.8342 H   0  0  0  0  0  0
  -53.9323  153.0109    4.2761 H   0  0  0  0  0  0
  -55.0991  150.4148    3.1960 H   0  0  0  0  0  0
  -55.6784  151.3171    4.6371 H   0  0  0  0  0  0
  -57.4856  150.6499    4.3282 H   0  0  0  0  0  0
  -56.9064  149.7481    2.8867 H   0  0  0  0  0  0
  1  2  1  0  0  0
  1 49  1  0  0  0
  1 50  1  0  0  0
  1 51  1  0  0  0
  2  3  1  0  0  0
  2 52  1  0  0  0
  2 53  1  0  0  0
  3  4  2  0  0  0
  3  5  1  0  0  0
  5  6  1  0  0  0
  5 54  1  0  0  0
  6  7  2  0  0  0
  6  9  1  0  0  0
  7  8  1  0  0  0
  7 55  1  0  0  0
  8 11  2  0  0  0
  8 56  1  0  0  0
  9 10  2  0  0  0
  9 57  1  0  0  0
 10 11  1  0  0  0
 10 58  1  0  0  0
 11 12  1  0  0  0
 12 13  1  0  0  0
 12 59  1  0  0  0
 12 60  1  0  0  0
 13 14  1  0  0  0
 13 29  1  0  0  0
 14 15  2  0  0  0
 14 16  1  0  0  0
 16 17  1  0  0  0
 16 61  1  0  0  0
 17 18  2  0  0  0
 17 20  1  0  0  0
 18 19  1  0  0  0
 18 26  1  0  0  0
 20 21  1  0  0  0
 20 22  2  0  0  0
 22 23  1  0  0  0
 22 25  1  0  0  0
 23 24  1  0  0  0
 24 62  1  0  0  0
 24 63  1  0  0  0
 24 64  1  0  0  0
 25 26  2  0  0  0
 25 65  1  0  0  0
 26 27  1  0  0  0
 27 28  1  0  0  0
 28 66  1  0  0  0
 28 67  1  0  0  0
 28 68  1  0  0  0
 29 30  2  0  0  0
 29 31  1  0  0  0
 30 34  1  0  0  0
 30 69  1  0  0  0
 31 32  2  0  0  0
 32 33  1  0  0  0
 32 70  1  0  0  0
 33 34  2  0  0  0
 34 35  1  0  0  0
 35 36  1  0  0  0
 35 71  1  0  0  0
 36 37  2  0  0  0
 36 39  1  0  0  0
 37 38  1  0  0  0
 37 72  1  0  0  0
 38 41  2  0  0  0
 38 73  1  0  0  0
 39 40  2  0  0  0
 39 74  1  0  0  0
 40 41  1  0  0  0
 40 75  1  0  0  0
 41 42  1  0  0  0
 42 43  1  0  0  0
 42 48  1  0  0  0
 43 44  1  0  0  0
 43 76  1  0  0  0
 43 77  1  0  0  0
 44 45  1  0  0  0
 44 78  1  0  0  0
 44 79  1  0  0  0
 45 46  1  0  0  0
 45 47  1  0  0  0
 45 80  1  0  0  0
 46 81  1  0  0  0
 46 82  1  0  0  0
 46 83  1  0  0  0
 47 48  1  0  0  0
 47 84  1  0  0  0
 47 85  1  0  0  0
 48 86  1  0  0  0
 48 87  1  0  0  0
M  CHG  1  45   1
M  END
> <s_m_source_file>
../4r6v_ligand.sdf

> <i_m_source_file_index>
1

> <s_epik_input>
W0NIM11bQ0gyXUMoPU8pW05IXWMxW2NIXVtjSF1jKFtjSF1bY0hdMSlbQ0gyXU4oQyg9TylbTkhdYzJjKENsKWMoT1tDSDNdKVtjSF1jKGMyQ2wpT1tDSDNdKWMzW2NIXWMobltjSF1uMylbTkhdYzRbY0hdW2NIXWMoW2NIXVtjSF00KU41W0NIMl1bQ0gyXVtOSCtdKFtDSDNdKVtDSDJdW0NIMl01

> <s_epik_cmdline>
J2VwaWtfYXBwJywgJy1pbWFlJywgJ2xpZ2FuZF9wcm8ubWFlJywgJy1vbWFlJywgJ2xpZ2FuZF9wcmVwLm1hZScsICctbXMnLCAnMScsICctcGgnLCAnNycsICctcGh0JywgJzAuNScsICctbnQn

> <r_lp_tautomer_probability>
1

> <r_epik_Ionization_Penalty>
  0.0726

> <r_epik_Ionization_Penalty_Charging>
  0.0647

> <r_epik_Ionization_Penalty_Neutral>
  0.0078

> <r_epik_State_Penalty>
 -0.0000

> <r_epik_Charging_Adjusted_Penalty>
0.0647487349615153

> <i_epik_Tot_Q>
1

> <i_epik_Tot_abs_Q>
1

$$$$
