4r6w_ligand
                    3D
 Schrodinger Suite 2020-3.
 46 48  0  0  1  0            999 V2000
    8.5560   -0.4480   25.6340 N   0  3  0  0  0  0
    7.5370    0.3600   24.9230 C   0  0  1  0  0  0
    7.4760    1.8100   25.5300 C   0  0  0  0  0  0
    8.7610    2.6190   25.3550 C   0  0  0  0  0  0
    8.6250    4.3260   25.9590 S   0  0  0  0  0  0
    7.7930    0.3540   23.4660 C   0  0  0  0  0  0
    8.8720   -0.0360   23.0490 O   0  5  0  0  0  0
    6.9670    0.8240   22.7110 O   0  0  0  0  0  0
    9.4240    4.3730   27.5780 C   0  0  0  0  0  0
    8.5930    3.9820   28.6680 C   0  0  1  0  0  0
    9.4090    3.8010   29.8480 O   0  0  0  0  0  0
    7.6890    5.1190   28.9540 C   0  0  1  0  0  0
    6.3590    4.7160   28.7080 O   0  0  0  0  0  0
    7.9490    5.4710   30.3590 C   0  0  1  0  0  0
    6.7640    5.7960   31.0430 O   0  0  0  0  0  0
    8.6190    4.2470   30.9100 C   0  0  2  0  0  0
    9.4080    4.5120   32.1710 N   0  0  0  0  0  0
   10.3620    5.4240   32.3600 C   0  0  0  0  0  0
   10.8130    5.3120   33.6070 N   0  0  0  0  0  0
   10.1450    4.3220   34.2280 C   0  0  0  0  0  0
   10.2000    3.7820   35.5210 C   0  0  0  0  0  0
   11.0410    4.2850   36.4820 N   0  0  0  0  0  0
    9.3570    2.7690   35.8060 N   0  0  0  0  0  0
    8.5100    2.2780   34.8900 C   0  0  0  0  0  0
    8.4300    2.7940   33.6330 N   0  0  0  0  0  0
    9.2460    3.7960   33.2950 C   0  0  0  0  0  0
    8.3489   -0.4313   26.7142 H   0  0  0  0  0  0
    9.5546   -0.0270   25.4456 H   0  0  0  0  0  0
    8.5207   -1.4854   25.2699 H   0  0  0  0  0  0
    6.5676   -0.1479   25.0340 H   0  0  0  0  0  0
    6.6693    2.3776   25.0431 H   0  0  0  0  0  0
    7.2797    1.7472   26.6105 H   0  0  0  0  0  0
    9.5774    2.1354   25.9115 H   0  0  0  0  0  0
    9.0223    2.6658   24.2875 H   0  0  0  0  0  0
   10.2889    3.6933   27.5799 H   0  0  0  0  0  0
    9.7626    5.3978   27.7902 H   0  0  0  0  0  0
    8.0769    3.0464   28.4068 H   0  0  0  0  0  0
    7.8121    5.9998   28.3067 H   0  0  0  0  0  0
    6.0502    4.4293   27.6919 H   0  0  0  0  0  0
    8.5245    6.3999   30.4852 H   0  0  0  0  0  0
    6.1754    6.6735   30.7372 H   0  0  0  0  0  0
    7.9186    3.4433   31.1812 H   0  0  0  0  0  0
   10.7135    6.1408   31.6179 H   0  0  0  0  0  0
   11.7241    5.1116   36.2370 H   0  0  0  0  0  0
   11.0319    3.8615   37.4972 H   0  0  0  0  0  0
    7.8664    1.4408   35.1599 H   0  0  0  0  0  0
  1  2  1  0  0  0
  1 27  1  0  0  0
  1 28  1  0  0  0
  1 29  1  0  0  0
  2  3  1  0  0  0
  2  6  1  0  0  0
  2 30  1  0  0  0
  3  4  1  0  0  0
  3 31  1  0  0  0
  3 32  1  0  0  0
  4  5  1  0  0  0
  4 33  1  0  0  0
  4 34  1  0  0  0
  5  9  1  0  0  0
  6  7  1  0  0  0
  6  8  2  0  0  0
  9 10  1  0  0  0
  9 35  1  0  0  0
  9 36  1  0  0  0
 10 11  1  0  0  0
 10 12  1  0  0  0
 10 37  1  0  0  0
 11 16  1  0  0  0
 12 13  1  0  0  0
 12 14  1  0  0  0
 12 38  1  0  0  0
 13 39  1  0  0  0
 14 15  1  0  0  0
 14 16  1  0  0  0
 14 40  1  0  0  0
 15 41  1  0  0  0
 16 17  1  0  0  0
 16 42  1  0  0  0
 17 18  1  0  0  0
 17 26  1  0  0  0
 18 19  2  0  0  0
 18 43  1  0  0  0
 19 20  1  0  0  0
 20 21  2  0  0  0
 20 26  1  0  0  0
 21 22  1  0  0  0
 21 23  1  0  0  0
 22 44  1  0  0  0
 22 45  1  0  0  0
 23 24  2  0  0  0
 24 25  1  0  0  0
 24 46  1  0  0  0
 25 26  2  0  0  0
M  CHG  2   1   1   7  -1
M  END
> <s_m_source_file>
../4r6w_ligand.sdf

> <i_m_source_file_index>
1

> <s_epik_input>
W09IXUMoPU8pW0NAQEhdKFtOSDMrXSlbQ0gyXVtDSDJdU1tDSDJdW0NASF0xT1tDQEhdKFtDQEhdKFtPSF0pW0NAQEhdMVtPSF0pbihbY0hdbjIpYyhjMjMpbltjSF1uYzNbTkgyXQ==

> <s_epik_cmdline>
J2VwaWtfYXBwJywgJy1pbWFlJywgJ2xpZ2FuZF9wcm8ubWFlJywgJy1vbWFlJywgJ2xpZ2FuZF9wcmVwLm1hZScsICctbXMnLCAnMScsICctcGgnLCAnNycsICctcGh0JywgJzAuNScsICctbnQn

> <r_lp_tautomer_probability>
1

> <r_epik_Ionization_Penalty>
  0.0026

> <r_epik_Ionization_Penalty_Charging>
  0.0022

> <r_epik_Ionization_Penalty_Neutral>
  0.0004

> <r_epik_State_Penalty>
 -0.0000

> <r_epik_Charging_Adjusted_Penalty>
0.00216156469931729

> <i_epik_Tot_Q>
0

> <i_epik_Tot_abs_Q>
2

> <s_epik_Chemistry_Notes>
This compound contains an acetal/aminal-like group ( X-CH(R)-Y where X, Y are N, S, or O) that may be acid/base labile, releasing an aldehyde.

$$$$
