4r6x_ligand
                    3D
 Schrodinger Suite 2020-3.
 46 48  0  0  1  0            999 V2000
    8.4590   -0.6280   25.4500 N   0  3  0  0  0  0
    7.6180    0.3390   24.7130 C   0  0  1  0  0  0
    7.7650    1.7920   25.3280 C   0  0  0  0  0  0
    8.9730    2.6150   24.8650 C   0  0  0  0  0  0
    9.0910    4.3420   25.4410 S   0  0  0  0  0  0
    7.9120    0.2400   23.2680 C   0  0  0  0  0  0
    9.0350   -0.0540   22.9010 O   0  5  0  0  0  0
    7.0360    0.4280   22.4560 O   0  0  0  0  0  0
    9.7370    4.3590   27.1290 C   0  0  0  0  0  0
    8.8940    3.9640   28.2010 C   0  0  1  0  0  0
    9.7230    3.6980   29.3650 O   0  0  0  0  0  0
    8.0340    5.1050   28.5740 C   0  0  1  0  0  0
    6.6830    4.8090   28.3100 O   0  0  0  0  0  0
    8.2450    5.3260   30.0020 C   0  0  1  0  0  0
    7.0250    5.4220   30.6760 O   0  0  0  0  0  0
    8.9710    4.1130   30.4580 C   0  0  2  0  0  0
    9.7220    4.3740   31.7430 N   0  0  0  0  0  0
   10.6670    5.2940   31.9850 C   0  0  0  0  0  0
   11.0460    5.1510   33.2590 N   0  0  0  0  0  0
   10.3510    4.1530   33.8190 C   0  0  0  0  0  0
   10.3380    3.5830   35.1010 C   0  0  0  0  0  0
   11.1690    4.0530   36.0830 N   0  0  0  0  0  0
    9.4950    2.5600   35.3460 N   0  0  0  0  0  0
    8.6850    2.0930   34.3980 C   0  0  0  0  0  0
    8.6730    2.6230   33.1530 N   0  0  0  0  0  0
    9.4910    3.6450   32.8440 C   0  0  0  0  0  0
    8.2424   -0.5567   26.5261 H   0  0  0  0  0  0
    9.5205   -0.3997   25.2737 H   0  0  0  0  0  0
    8.2398   -1.6470   25.0986 H   0  0  0  0  0  0
    6.5675    0.0219   24.7892 H   0  0  0  0  0  0
    6.8787    2.3905   25.0706 H   0  0  0  0  0  0
    7.8536    1.7199   26.4221 H   0  0  0  0  0  0
    9.8994    2.1315   25.2084 H   0  0  0  0  0  0
    8.9763    2.6754   23.7667 H   0  0  0  0  0  0
   10.6006    3.6812   27.1979 H   0  0  0  0  0  0
   10.0505    5.3802   27.3914 H   0  0  0  0  0  0
    8.3278    3.0784   27.8768 H   0  0  0  0  0  0
    8.2425    6.0104   27.9851 H   0  0  0  0  0  0
    6.3539    4.6150   27.2785 H   0  0  0  0  0  0
    8.7481    6.2808   30.2147 H   0  0  0  0  0  0
    6.3462    6.2621   30.4677 H   0  0  0  0  0  0
    8.3330    3.2435   30.6748 H   0  0  0  0  0  0
   11.0546    6.0238   31.2742 H   0  0  0  0  0  0
   11.8528    4.8883   35.8716 H   0  0  0  0  0  0
   11.1526    3.5952   37.0831 H   0  0  0  0  0  0
    8.0160    1.2644   34.6302 H   0  0  0  0  0  0
  1  2  1  0  0  0
  1 27  1  0  0  0
  1 28  1  0  0  0
  1 29  1  0  0  0
  2  3  1  0  0  0
  2  6  1  0  0  0
  2 30  1  0  0  0
  3  4  1  0  0  0
  3 31  1  0  0  0
  3 32  1  0  0  0
  4  5  1  0  0  0
  4 33  1  0  0  0
  4 34  1  0  0  0
  5  9  1  0  0  0
  6  7  1  0  0  0
  6  8  2  0  0  0
  9 10  1  0  0  0
  9 35  1  0  0  0
  9 36  1  0  0  0
 10 11  1  0  0  0
 10 12  1  0  0  0
 10 37  1  0  0  0
 11 16  1  0  0  0
 12 13  1  0  0  0
 12 14  1  0  0  0
 12 38  1  0  0  0
 13 39  1  0  0  0
 14 15  1  0  0  0
 14 16  1  0  0  0
 14 40  1  0  0  0
 15 41  1  0  0  0
 16 17  1  0  0  0
 16 42  1  0  0  0
 17 18  1  0  0  0
 17 26  1  0  0  0
 18 19  2  0  0  0
 18 43  1  0  0  0
 19 20  1  0  0  0
 20 21  2  0  0  0
 20 26  1  0  0  0
 21 22  1  0  0  0
 21 23  1  0  0  0
 22 44  1  0  0  0
 22 45  1  0  0  0
 23 24  2  0  0  0
 24 25  1  0  0  0
 24 46  1  0  0  0
 25 26  2  0  0  0
M  CHG  2   1   1   7  -1
M  END
> <s_m_source_file>
../4r6x_ligand.sdf

> <i_m_source_file_index>
1

> <s_epik_input>
W09IXUMoPU8pW0NAQEhdKFtOSDMrXSlbQ0gyXVtDSDJdU1tDSDJdW0NASF0xT1tDQEhdKFtDQEhdKFtPSF0pW0NAQEhdMVtPSF0pbihbY0hdbjIpYyhjMjMpbltjSF1uYzNbTkgyXQ==

> <s_epik_cmdline>
J2VwaWtfYXBwJywgJy1pbWFlJywgJ2xpZ2FuZF9wcm8ubWFlJywgJy1vbWFlJywgJ2xpZ2FuZF9wcmVwLm1hZScsICctbXMnLCAnMScsICctcGgnLCAnNycsICctcGh0JywgJzAuNScsICctbnQn

> <r_lp_tautomer_probability>
1

> <r_epik_Ionization_Penalty>
  0.0026

> <r_epik_Ionization_Penalty_Charging>
  0.0022

> <r_epik_Ionization_Penalty_Neutral>
  0.0004

> <r_epik_State_Penalty>
 -0.0000

> <r_epik_Charging_Adjusted_Penalty>
0.00216156469931729

> <i_epik_Tot_Q>
0

> <i_epik_Tot_abs_Q>
2

> <s_epik_Chemistry_Notes>
This compound contains an acetal/aminal-like group ( X-CH(R)-Y where X, Y are N, S, or O) that may be acid/base labile, releasing an aldehyde.

$$$$
