4r73_ligand
                    3D
 Schrodinger Suite 2020-3.
 27 27  0  0  1  0            999 V2000
   10.9640   25.0470   49.1500 C   0  0  2  0  0  0
   10.6790   23.9720   48.2500 C   0  0  1  0  0  0
   11.7440   22.9050   48.3600 C   0  0  2  0  0  0
   13.1310   23.4780   48.2180 C   0  0  1  0  0  0
   13.2680   24.5670   49.2560 C   0  0  1  0  0  0
   14.5400   25.3500   49.1190 C   0  0  0  0  0  0
   10.0340   26.0280   49.2270 O   0  0  0  0  0  0
    9.3630   23.4020   48.4800 O   0  0  0  0  0  0
   11.4470   22.0100   47.3310 O   0  0  0  0  0  0
   14.0440   22.4480   48.3910 O   0  0  0  0  0  0
   12.2360   25.4640   49.0820 O   0  0  0  0  0  0
   14.5500   26.3620   50.0680 O   0  0  0  0  0  0
   15.6360   27.5910   50.0820 P   0  0  0  0  0  0
   15.1080   28.5280   51.1150 O   0  5  0  0  0  0
   16.9430   27.0270   50.3770 O   0  5  0  0  0  0
   15.6480   28.1650   48.7680 O   0  0  0  0  0  0
   10.8980   24.6728   50.1823 H   0  0  0  0  0  0
   10.6515   24.4259   47.2484 H   0  0  0  0  0  0
   11.7254   22.3521   49.3107 H   0  0  0  0  0  0
   13.3805   23.8585   47.2165 H   0  0  0  0  0  0
   13.1913   24.1267   50.2611 H   0  0  0  0  0  0
   15.4001   24.6830   49.2781 H   0  0  0  0  0  0
   14.5955   25.7858   48.1105 H   0  0  0  0  0  0
    8.9663   25.7702   49.2860 H   0  0  0  0  0  0
    8.4705   24.0436   48.4368 H   0  0  0  0  0  0
   10.4672   21.5109   47.3019 H   0  0  0  0  0  0
   14.0467   21.5934   47.6985 H   0  0  0  0  0  0
  1  2  1  0  0  0
  1  7  1  0  0  0
  1 11  1  0  0  0
  1 17  1  0  0  0
  2  3  1  0  0  0
  2  8  1  0  0  0
  2 18  1  0  0  0
  3  4  1  0  0  0
  3  9  1  0  0  0
  3 19  1  0  0  0
  4  5  1  0  0  0
  4 10  1  0  0  0
  4 20  1  0  0  0
  5  6  1  0  0  0
  5 11  1  0  0  0
  5 21  1  0  0  0
  6 12  1  0  0  0
  6 22  1  0  0  0
  6 23  1  0  0  0
  7 24  1  0  0  0
  8 25  1  0  0  0
  9 26  1  0  0  0
 10 27  1  0  0  0
 12 13  1  0  0  0
 13 14  1  0  0  0
 13 15  1  0  0  0
 13 16  2  0  0  0
M  CHG  2  14  -1  15  -1
M  END
> <s_m_source_file>
../4r73_ligand.sdf

> <i_m_source_file_index>
1

> <s_epik_input>
W09IXVtDQEhdMVtDQEhdKFtPSF0pW0NAQEhdKFtPSF0pW0NASF0oW09IXSlbQ0BIXShPMSlbQ0gyXU9QKD1PKShbT0hdKVtPSF0=

> <s_epik_cmdline>
J2VwaWtfYXBwJywgJy1pbWFlJywgJ2xpZ2FuZF9wcm8ubWFlJywgJy1vbWFlJywgJ2xpZ2FuZF9wcmVwLm1hZScsICctbXMnLCAnMScsICctcGgnLCAnNycsICctcGh0JywgJzAuNScsICctbnQn

> <r_epik_Ionization_Penalty>
  0.1046

> <r_epik_Ionization_Penalty_Charging>
  0.1046

> <r_epik_Ionization_Penalty_Neutral>
  0.0000

> <r_epik_State_Penalty>
  0.0945

> <r_epik_Charging_Adjusted_Penalty>
0.19918344064553

> <i_epik_Tot_Q>
-2

> <i_epik_Tot_abs_Q>
2

> <s_epik_Chemistry_Notes>
This compound contains an acetal/aminal-like group ( X-CH(R)-Y where X, Y are N, S, or O) that may be acid/base labile, releasing an aldehyde.

$$$$
