4r74_ligand
                    3D
 Schrodinger Suite 2020-3.
 27 27  0  0  1  0            999 V2000
  -11.2630   21.8490   -9.7360 O   0  0  0  0  0  0
  -10.8400   23.1210   -9.4030 C   0  0  0  0  0  0
   -9.6390   23.1860   -8.5060 C   0  0  2  0  0  0
  -10.0160   22.8390   -7.2150 O   0  0  0  0  0  0
   -9.0480   24.5150   -8.4750 C   0  0  1  0  0  0
   -9.4350   25.2050   -7.3460 O   0  0  0  0  0  0
   -7.6010   24.2350   -8.4380 C   0  0  2  0  0  0
   -6.9220   25.3190   -8.9390 O   0  0  0  0  0  0
   -7.5190   23.0710   -9.3640 C   0  0  2  0  0  0
   -8.5980   22.2720   -9.0200 O   0  0  0  0  0  0
   -6.2610   22.2660   -9.3140 C   0  0  0  0  0  0
   -6.3030   21.1590  -10.1390 O   0  0  0  0  0  0
   -5.2630   20.0030  -10.0570 P   0  0  0  0  0  0
   -3.9000   20.5230  -10.4440 O   0  5  0  0  0  0
   -5.2180   19.4410   -8.6580 O   0  0  0  0  0  0
   -5.6800   18.9170  -11.0220 O   0  5  0  0  0  0
  -12.1370   21.7136  -10.3900 H   0  0  0  0  0  0
  -10.5747   23.6705  -10.3182 H   0  0  0  0  0  0
  -11.6489   23.6509   -8.8786 H   0  0  0  0  0  0
  -10.7849   23.4251   -6.6903 H   0  0  0  0  0  0
   -9.3843   25.1741   -9.2890 H   0  0  0  0  0  0
  -10.4876   25.4953   -7.2126 H   0  0  0  0  0  0
   -7.1378   24.1000   -7.4495 H   0  0  0  0  0  0
   -6.8897   26.2592   -8.3689 H   0  0  0  0  0  0
   -7.5955   23.4180  -10.4050 H   0  0  0  0  0  0
   -5.4131   22.8907   -9.6316 H   0  0  0  0  0  0
   -6.0918   21.9135   -8.2858 H   0  0  0  0  0  0
  1  2  1  0  0  0
  1 17  1  0  0  0
  2  3  1  0  0  0
  2 18  1  0  0  0
  2 19  1  0  0  0
  3  4  1  0  0  0
  3  5  1  0  0  0
  3 10  1  0  0  0
  4 20  1  0  0  0
  5  6  1  0  0  0
  5  7  1  0  0  0
  5 21  1  0  0  0
  6 22  1  0  0  0
  7  8  1  0  0  0
  7  9  1  0  0  0
  7 23  1  0  0  0
  8 24  1  0  0  0
  9 10  1  0  0  0
  9 11  1  0  0  0
  9 25  1  0  0  0
 11 12  1  0  0  0
 11 26  1  0  0  0
 11 27  1  0  0  0
 12 13  1  0  0  0
 13 14  1  0  0  0
 13 15  2  0  0  0
 13 16  1  0  0  0
M  CHG  2  14  -1  16  -1
M  END
> <s_m_source_file>
../4r74_ligand.sdf

> <i_m_source_file_index>
1

> <s_epik_input>
W09IXVtDSDJdW0NAXTEoW09IXSlbQ0BASF0oW09IXSlbQ0BIXShbT0hdKVtDQEhdKE8xKVtDSDJdT1AoPU8pKFtPSF0pW09IXQ==

> <s_epik_cmdline>
J2VwaWtfYXBwJywgJy1pbWFlJywgJ2xpZ2FuZF9wcm8ubWFlJywgJy1vbWFlJywgJ2xpZ2FuZF9wcmVwLm1hZScsICctbXMnLCAnMScsICctcGgnLCAnNycsICctcGh0JywgJzAuNScsICctbnQn

> <r_epik_Ionization_Penalty>
  0.1011

> <r_epik_Ionization_Penalty_Charging>
  0.1011

> <r_epik_Ionization_Penalty_Neutral>
  0.0000

> <r_epik_State_Penalty>
  0.0911

> <r_epik_Charging_Adjusted_Penalty>
0.192231575256783

> <i_epik_Tot_Q>
-2

> <i_epik_Tot_abs_Q>
2

$$$$
