4r76_ligand
                    3D
 Schrodinger Suite 2020-3.
 43 45  0  0  1  0            999 V2000
   80.7970   71.4510   33.0880 C   0  0  0  0  0  0
   91.5320   70.8200   31.9050 C   0  0  0  0  0  0
   92.6530   70.2170   31.3420 C   0  0  0  0  0  0
   92.2700   71.4060   29.2830 C   0  0  0  0  0  0
   84.2910   73.3140   32.3850 C   0  0  0  0  0  0
   85.5570   73.8120   32.1250 C   0  0  0  0  0  0
   86.4430   73.1290   31.2980 C   0  0  0  0  0  0
   86.0510   71.9310   30.7100 C   0  0  0  0  0  0
   84.7740   71.4290   30.9730 C   0  0  0  0  0  0
   83.8950   72.1190   31.8070 C   0  0  0  0  0  0
   82.6740   71.6600   32.0760 N   0  0  0  0  0  0
   82.0610   70.8230   31.4740 N   0  0  0  0  0  0
   80.8720   70.6350   32.0470 C   0  0  0  0  0  0
   81.9480   72.1050   33.1030 C   0  0  0  0  0  0
   87.6900   73.7380   31.1020 C   0  0  1  0  0  0
   88.8460   72.8880   30.7680 N   0  0  0  0  0  0
   87.5870   74.7910   30.0020 C   0  0  0  0  0  0
   87.2330   74.4910   28.8630 O   0  0  0  0  0  0
   87.9410   76.0230   30.3840 N   0  0  0  0  0  0
   87.8810   77.0340   29.4100 O   0  0  0  0  0  0
   89.6580   72.3440   31.6840 C   0  0  0  0  0  0
   90.7710   71.7050   31.1490 C   0  0  0  0  0  0
   89.4920   72.4280   32.8990 O   0  0  0  0  0  0
   93.0230   70.5100   30.0330 C   0  0  0  0  0  0
   91.1500   72.0060   29.8450 C   0  0  0  0  0  0
   93.3760   69.3570   32.0570 N   0  0  0  0  0  0
   79.9651   71.5605   33.7837 H   0  0  0  0  0  0
   91.2515   70.5993   32.9349 H   0  0  0  0  0  0
   92.5573   71.6371   28.2573 H   0  0  0  0  0  0
   83.6109   73.8587   33.0399 H   0  0  0  0  0  0
   85.8645   74.7554   32.5762 H   0  0  0  0  0  0
   86.7316   71.3905   30.0522 H   0  0  0  0  0  0
   84.4614   70.4876   30.5213 H   0  0  0  0  0  0
   80.1018   69.9370   31.7188 H   0  0  0  0  0  0
   82.2475   72.8671   33.8224 H   0  0  0  0  0  0
   87.8520   74.0770   32.1358 H   0  0  0  0  0  0
   89.0821   72.6691   29.7162 H   0  0  0  0  0  0
   88.2681   76.2630   31.4065 H   0  0  0  0  0  0
   88.1611   78.0655   29.6700 H   0  0  0  0  0  0
   93.9026   70.0373   29.5960 H   0  0  0  0  0  0
   90.5651   72.7165   29.2608 H   0  0  0  0  0  0
   93.0868   69.1228   33.0921 H   0  0  0  0  0  0
   94.2624   68.8809   31.6125 H   0  0  0  0  0  0
  1 13  1  0  0  0
  1 14  2  0  0  0
  1 27  1  0  0  0
  2  3  2  0  0  0
  2 22  1  0  0  0
  2 28  1  0  0  0
  3 24  1  0  0  0
  3 26  1  0  0  0
  4 24  2  0  0  0
  4 25  1  0  0  0
  4 29  1  0  0  0
  5  6  2  0  0  0
  5 10  1  0  0  0
  5 30  1  0  0  0
  6  7  1  0  0  0
  6 31  1  0  0  0
  7  8  2  0  0  0
  7 15  1  0  0  0
  8  9  1  0  0  0
  8 32  1  0  0  0
  9 10  2  0  0  0
  9 33  1  0  0  0
 10 11  1  0  0  0
 11 12  1  0  0  0
 11 14  1  0  0  0
 12 13  2  0  0  0
 13 34  1  0  0  0
 14 35  1  0  0  0
 15 16  1  0  0  0
 15 17  1  0  0  0
 15 36  1  0  0  0
 16 21  1  0  0  0
 16 37  1  0  0  0
 17 18  2  0  0  0
 17 19  1  0  0  0
 19 20  1  0  0  0
 19 38  1  0  0  0
 20 39  1  0  0  0
 21 22  1  0  0  0
 21 23  2  0  0  0
 22 25  2  0  0  0
 24 40  1  0  0  0
 25 41  1  0  0  0
 26 42  1  0  0  0
 26 43  1  0  0  0
M  END
> <s_m_source_file>
../4r76_ligand.sdf

> <i_m_source_file_index>
1

> <s_epik_input>
W2NIXTFbY0hdW2NIXW5uMS1jKFtjSF1bY0hdMilbY0hdW2NIXWMyW0NASF0oQyg9TylbTkhdW09IXSlbTkhdQyg9TyljKFtjSF1jM1tOSDJdKVtjSF1bY0hdW2NIXTM=

> <s_epik_cmdline>
J2VwaWtfYXBwJywgJy1pbWFlJywgJ2xpZ2FuZF9wcm8ubWFlJywgJy1vbWFlJywgJ2xpZ2FuZF9wcmVwLm1hZScsICctbXMnLCAnMScsICctcGgnLCAnNycsICctcGh0JywgJzAuNScsICctbnQn

> <r_lp_tautomer_probability>
1

> <r_epik_Ionization_Penalty>
  0.0162

> <r_epik_Ionization_Penalty_Charging>
  0.0000

> <r_epik_Ionization_Penalty_Neutral>
  0.0162

> <r_epik_State_Penalty>
  0.0126

> <r_epik_Charging_Adjusted_Penalty>
0.0125768592650424

> <i_epik_Tot_Q>
0

> <i_epik_Tot_abs_Q>
0

> <s_epik_Chemistry_Notes>
This compound has a N-S or N-O group and may undergo hydrolysis at high or low pH.

$$$$
