4r8y_ligand
                    3D
 Schrodinger Suite 2020-3.
 71 74  0  0  1  0            999 V2000
   22.1780    9.9800   23.8510 C   0  0  0  0  0  0
   21.4360   11.8940   22.8770 C   0  0  0  0  0  0
   21.0300   10.7540   21.9740 C   0  0  2  0  0  0
   26.0730   12.7510   20.4320 C   0  0  0  0  0  0
   22.0820   11.3520   23.9660 N   0  0  0  0  0  0
   21.5700   10.8880   20.5420 C   0  0  0  0  0  0
   27.3680   12.5050   19.7150 C   0  0  0  0  0  0
   23.8540   11.8610   20.8720 C   0  0  0  0  0  0
   19.5070   10.6710   21.9240 C   0  0  0  0  0  0
   15.0300   11.0980   22.4530 C   0  0  0  0  0  0
   29.4760   10.8680   22.3950 C   0  0  0  0  0  0
   28.7030    9.6810   21.8840 C   0  0  0  0  0  0
   14.4790   10.7290   23.8270 C   0  0  0  0  0  0
   15.3340    9.7220   24.5930 C   0  0  0  0  0  0
   16.8070   10.1090   24.6030 C   0  0  0  0  0  0
   16.5120   11.4720   22.5020 C   0  0  0  0  0  0
   29.0360   12.0870   21.6110 C   0  0  0  0  0  0
   27.8310   10.1580   20.7440 C   0  0  0  0  0  0
   24.8530   11.1820   18.8130 C   0  0  0  0  0  0
   23.0720   10.6680   20.3740 C   0  0  2  0  0  0
   22.5960   12.1620   25.0650 C   0  0  0  0  0  0
   23.4940   10.5290   18.9250 C   0  0  0  0  0  0
   18.8030   10.7150   23.2830 C   0  0  0  0  0  0
   28.3340   11.5410   20.3960 C   0  0  0  0  0  0
   17.3260   10.3730   23.1960 C   0  0  0  0  0  0
   21.6030    9.6050   22.6650 N   0  3  0  0  0  0
   24.9860   11.9890   20.0100 N   0  0  0  0  0  0
   22.7160    9.2040   24.7390 N   0  0  0  0  0  0
   21.1810   13.0630   22.6560 O   0  0  0  0  0  0
   25.9960   13.5920   21.3220 O   0  0  0  0  0  0
   21.0770   10.1488   19.8936 H   0  0  0  0  0  0
   21.3641   11.9009   20.1657 H   0  0  0  0  0  0
   27.1620   12.0810   18.7211 H   0  0  0  0  0  0
   27.9113   13.4549   19.6030 H   0  0  0  0  0  0
   23.2207   12.7593   20.8269 H   0  0  0  0  0  0
   24.1680   11.6856   21.9115 H   0  0  0  0  0  0
   19.1127   11.5165   21.3413 H   0  0  0  0  0  0
   19.2067    9.7259   21.4480 H   0  0  0  0  0  0
   14.9175   10.2423   21.7710 H   0  0  0  0  0  0
   14.4747   11.9599   22.0546 H   0  0  0  0  0  0
   29.2660   11.0091   23.4655 H   0  0  0  0  0  0
   30.5527   10.6934   22.2525 H   0  0  0  0  0  0
   29.4047    8.9101   21.5328 H   0  0  0  0  0  0
   28.0830    9.2706   22.6947 H   0  0  0  0  0  0
   14.4096   11.6335   24.4492 H   0  0  0  0  0  0
   13.4793   10.2842   23.7138 H   0  0  0  0  0  0
   14.9882    9.6656   25.6357 H   0  0  0  0  0  0
   15.2438    8.7317   24.1227 H   0  0  0  0  0  0
   16.9420   11.0228   25.2003 H   0  0  0  0  0  0
   17.3977    9.2924   25.0437 H   0  0  0  0  0  0
   16.8914   11.6021   21.4777 H   0  0  0  0  0  0
   16.6348   12.4116   23.0606 H   0  0  0  0  0  0
   28.3603   12.6963   22.2292 H   0  0  0  0  0  0
   29.9181   12.6834   21.3349 H   0  0  0  0  0  0
   27.9319    9.4693   19.8922 H   0  0  0  0  0  0
   26.7813   10.1846   21.0716 H   0  0  0  0  0  0
   25.6299   10.4050   18.7606 H   0  0  0  0  0  0
   24.8895   11.7990   17.9031 H   0  0  0  0  0  0
   23.2870    9.7489   20.9389 H   0  0  0  0  0  0
   23.0683   11.5080   25.8128 H   0  0  0  0  0  0
   21.7674   12.7144   25.5321 H   0  0  0  0  0  0
   23.3399   12.8743   24.6788 H   0  0  0  0  0  0
   22.7853   11.0405   18.2570 H   0  0  0  0  0  0
   23.5710    9.4703   18.6365 H   0  0  0  0  0  0
   19.2745    9.9910   23.9638 H   0  0  0  0  0  0
   18.8878   11.7263   23.7073 H   0  0  0  0  0  0
   29.0516   11.4222   19.5708 H   0  0  0  0  0  0
   17.2153    9.4679   22.5808 H   0  0  0  0  0  0
   23.1464    9.6330   25.6559 H   0  0  0  0  0  0
   22.7422    8.1165   24.5757 H   0  0  0  0  0  0
   21.6194    8.5496   22.3552 H   0  0  0  0  0  0
  1  5  1  0  0  0
  1 26  2  0  0  0
  1 28  1  0  0  0
  2  3  1  0  0  0
  2  5  1  0  0  0
  2 29  2  0  0  0
  3  6  1  0  0  0
  3  9  1  0  0  0
  3 26  1  0  0  0
  4  7  1  0  0  0
  4 27  1  0  0  0
  4 30  2  0  0  0
  5 21  1  0  0  0
  6 20  1  0  0  0
  6 31  1  0  0  0
  6 32  1  0  0  0
  7 24  1  0  0  0
  7 33  1  0  0  0
  7 34  1  0  0  0
  8 20  1  0  0  0
  8 27  1  0  0  0
  8 35  1  0  0  0
  8 36  1  0  0  0
  9 23  1  0  0  0
  9 37  1  0  0  0
  9 38  1  0  0  0
 10 13  1  0  0  0
 10 16  1  0  0  0
 10 39  1  0  0  0
 10 40  1  0  0  0
 11 12  1  0  0  0
 11 17  1  0  0  0
 11 41  1  0  0  0
 11 42  1  0  0  0
 12 18  1  0  0  0
 12 43  1  0  0  0
 12 44  1  0  0  0
 13 14  1  0  0  0
 13 45  1  0  0  0
 13 46  1  0  0  0
 14 15  1  0  0  0
 14 47  1  0  0  0
 14 48  1  0  0  0
 15 25  1  0  0  0
 15 49  1  0  0  0
 15 50  1  0  0  0
 16 25  1  0  0  0
 16 51  1  0  0  0
 16 52  1  0  0  0
 17 24  1  0  0  0
 17 53  1  0  0  0
 17 54  1  0  0  0
 18 24  1  0  0  0
 18 55  1  0  0  0
 18 56  1  0  0  0
 19 22  1  0  0  0
 19 27  1  0  0  0
 19 57  1  0  0  0
 19 58  1  0  0  0
 20 22  1  0  0  0
 20 59  1  0  0  0
 21 60  1  0  0  0
 21 61  1  0  0  0
 21 62  1  0  0  0
 22 63  1  0  0  0
 22 64  1  0  0  0
 23 25  1  0  0  0
 23 65  1  0  0  0
 23 66  1  0  0  0
 24 67  1  0  0  0
 25 68  1  0  0  0
 26 71  1  0  0  0
 28 69  1  0  0  0
 28 70  1  0  0  0
M  CHG  1  26   1
M  END
> <s_m_source_file>
../4r8y_ligand.sdf

> <i_m_source_file_index>
1

> <s_epik_input>
W0NIMl0xW0NIMl1bQ0gyXVtDSDJdW0NIMl1bQ0hdMVtDSDJdW0NIMl1bQ0BdMihDKD1PKU4oW0NIM10pL0MoW05IXTIpPU5cW0hdKVtDSDJdW0NAQEhdM1tDSDJdTihbQ0gyXVtDSDJdMylDKD1PKVtDSDJdW0NIXTRbQ0gyXVtDSDJdW0NIMl1bQ0gyXTQ=

> <s_epik_cmdline>
J2VwaWtfYXBwJywgJy1pbWFlJywgJ2xpZ2FuZF9wcm8ubWFlJywgJy1vbWFlJywgJ2xpZ2FuZF9wcmVwLm1hZScsICctbXMnLCAnMScsICctcGgnLCAnNycsICctcGh0JywgJzAuNScsICctbnQn

> <r_lp_tautomer_probability>
1

> <r_epik_Ionization_Penalty>
  0.0934

> <r_epik_Ionization_Penalty_Charging>
  0.0934

> <r_epik_Ionization_Penalty_Neutral>
  0.0000

> <r_epik_State_Penalty>
  0.0002

> <r_epik_Charging_Adjusted_Penalty>
0.0936552144185183

> <i_epik_Tot_Q>
1

> <i_epik_Tot_abs_Q>
1

> <s_epik_Chemistry_Notes>
This compound has an imine and may undergo hydrolysis.

$$$$
