4r91_ligand
                    3D
 Schrodinger Suite 2020-3.
 73 76  0  0  1  0            999 V2000
   24.9890   10.9550   20.6120 C   0  0  1  0  0  0
   22.5380   10.5100   20.4660 C   0  0  2  0  0  0
   21.1820   11.8200   23.2630 C   0  0  0  0  0  0
   22.0180    9.8910   24.1130 C   0  0  0  0  0  0
   20.7250   10.6920   22.3600 C   0  0  2  0  0  0
   21.1330   10.9090   20.9060 C   0  0  0  0  0  0
   21.8810   11.2350   24.2880 N   0  0  0  0  0  0
   19.2100   10.5510   22.3800 C   0  0  0  0  0  0
   22.5810   12.0080   25.3070 C   0  0  0  0  0  0
   22.6900    9.1440   24.9190 N   0  0  0  0  0  0
   21.3420    9.5230   22.9820 N   0  3  0  0  0  0
   20.9090   13.0080   23.1500 O   0  0  0  0  0  0
   26.0170   11.6560   21.4630 N   0  3  0  0  0  0
   23.6260   11.3260   21.1670 C   0  0  0  0  0  0
   18.5540   10.6240   23.7540 C   0  0  0  0  0  0
   27.4260   11.6000   20.9710 C   0  0  0  0  0  0
   17.0940   10.1950   23.7480 C   0  0  0  0  0  0
   23.9940   10.5510   18.3860 C   0  0  0  0  0  0
   25.0620   11.3430   19.1340 C   0  0  0  0  0  0
   22.6040   10.8020   18.9710 C   0  0  0  0  0  0
   27.8730   10.1460   20.8780 C   0  0  0  0  0  0
   28.2620   12.2710   22.0340 C   0  0  0  0  0  0
   16.1860   11.2190   23.0640 C   0  0  0  0  0  0
   16.6510    9.9690   25.1890 C   0  0  0  0  0  0
   15.1850    9.5510   25.2970 C   0  0  0  0  0  0
   28.9370    9.9160   21.9190 C   0  0  0  0  0  0
   29.1900   11.2290   22.6030 C   0  0  0  0  0  0
   14.7400   10.7320   23.1180 C   0  0  0  0  0  0
   14.2710   10.5090   24.5490 C   0  0  0  0  0  0
   25.1831    9.8736   20.6653 H   0  0  0  0  0  0
   22.7141    9.4530   20.7143 H   0  0  0  0  0  0
   20.9876   11.9860   20.7360 H   0  0  0  0  0  0
   20.3916   10.3425   20.3235 H   0  0  0  0  0  0
   18.7589   11.3561   21.7814 H   0  0  0  0  0  0
   18.9268    9.5762   21.9561 H   0  0  0  0  0  0
   22.2901   13.0660   25.2289 H   0  0  0  0  0  0
   23.6667   11.9142   25.1570 H   0  0  0  0  0  0
   22.3143   11.6270   26.3038 H   0  0  0  0  0  0
   23.1846    9.5869   25.7961 H   0  0  0  0  0  0
   25.7635   12.7237   21.5393 H   0  0  0  0  0  0
   26.0276   11.2090   22.4680 H   0  0  0  0  0  0
   23.5995   11.1142   22.2461 H   0  0  0  0  0  0
   23.4408   12.3972   20.9989 H   0  0  0  0  0  0
   19.0901    9.9640   24.4518 H   0  0  0  0  0  0
   18.5934   11.6589   24.1246 H   0  0  0  0  0  0
   27.5106   12.0883   19.9890 H   0  0  0  0  0  0
   17.0113    9.2635   23.1688 H   0  0  0  0  0  0
   23.9878   10.8523   17.3281 H   0  0  0  0  0  0
   24.2156    9.4761   18.4598 H   0  0  0  0  0  0
   24.8782   12.4224   19.0288 H   0  0  0  0  0  0
   26.0602   11.1010   18.7402 H   0  0  0  0  0  0
   21.8910   10.1548   18.4392 H   0  0  0  0  0  0
   22.3465   11.8563   18.7916 H   0  0  0  0  0  0
   27.0130    9.4855   21.0628 H   0  0  0  0  0  0
   28.2767    9.9500   19.8737 H   0  0  0  0  0  0
   28.8368   13.0935   21.5834 H   0  0  0  0  0  0
   27.6042   12.6708   22.8197 H   0  0  0  0  0  0
   16.2673   12.1855   23.5829 H   0  0  0  0  0  0
   16.4939   11.3390   22.0148 H   0  0  0  0  0  0
   17.2622    9.1733   25.6400 H   0  0  0  0  0  0
   16.7791   10.8991   25.7622 H   0  0  0  0  0  0
   15.0579    8.5457   24.8690 H   0  0  0  0  0  0
   14.8839    9.5398   26.3549 H   0  0  0  0  0  0
   28.5853    9.1665   22.6433 H   0  0  0  0  0  0
   29.8541    9.5531   21.4320 H   0  0  0  0  0  0
   30.2329   11.5369   22.4369 H   0  0  0  0  0  0
   29.0061   11.1244   23.6825 H   0  0  0  0  0  0
   14.0831   11.4814   22.6524 H   0  0  0  0  0  0
   14.6532    9.7798   22.5741 H   0  0  0  0  0  0
   13.2521   10.0956   24.5191 H   0  0  0  0  0  0
   14.2575   11.4807   25.0645 H   0  0  0  0  0  0
   22.7693    8.0632   24.7302 H   0  0  0  0  0  0
   21.3257    8.4684   22.6696 H   0  0  0  0  0  0
  1 13  1  0  0  0
  1 14  1  0  0  0
  1 19  1  0  0  0
  1 30  1  0  0  0
  2  6  1  0  0  0
  2 14  1  0  0  0
  2 20  1  0  0  0
  2 31  1  0  0  0
  3  5  1  0  0  0
  3  7  1  0  0  0
  3 12  2  0  0  0
  4  7  1  0  0  0
  4 10  1  0  0  0
  4 11  2  0  0  0
  5  6  1  0  0  0
  5  8  1  0  0  0
  5 11  1  0  0  0
  6 32  1  0  0  0
  6 33  1  0  0  0
  7  9  1  0  0  0
  8 15  1  0  0  0
  8 34  1  0  0  0
  8 35  1  0  0  0
  9 36  1  0  0  0
  9 37  1  0  0  0
  9 38  1  0  0  0
 10 39  1  0  0  0
 10 72  1  0  0  0
 11 73  1  0  0  0
 13 16  1  0  0  0
 13 40  1  0  0  0
 13 41  1  0  0  0
 14 42  1  0  0  0
 14 43  1  0  0  0
 15 17  1  0  0  0
 15 44  1  0  0  0
 15 45  1  0  0  0
 16 21  1  0  0  0
 16 22  1  0  0  0
 16 46  1  0  0  0
 17 23  1  0  0  0
 17 24  1  0  0  0
 17 47  1  0  0  0
 18 19  1  0  0  0
 18 20  1  0  0  0
 18 48  1  0  0  0
 18 49  1  0  0  0
 19 50  1  0  0  0
 19 51  1  0  0  0
 20 52  1  0  0  0
 20 53  1  0  0  0
 21 26  1  0  0  0
 21 54  1  0  0  0
 21 55  1  0  0  0
 22 27  1  0  0  0
 22 56  1  0  0  0
 22 57  1  0  0  0
 23 28  1  0  0  0
 23 58  1  0  0  0
 23 59  1  0  0  0
 24 25  1  0  0  0
 24 60  1  0  0  0
 24 61  1  0  0  0
 25 29  1  0  0  0
 25 62  1  0  0  0
 25 63  1  0  0  0
 26 27  1  0  0  0
 26 64  1  0  0  0
 26 65  1  0  0  0
 27 66  1  0  0  0
 27 67  1  0  0  0
 28 29  1  0  0  0
 28 68  1  0  0  0
 28 69  1  0  0  0
 29 70  1  0  0  0
 29 71  1  0  0  0
M  CHG  2  11   1  13   1
M  END
> <s_m_source_file>
../4r91_ligand.sdf

> <i_m_source_file_index>
1

> <s_epik_input>
W0NIMl0xW0NIMl1bQ0gyXVtDSDJdW0NIXTFbTkgyK11bQ0BIXTJbQ0gyXVtDQEhdKFtDSDJdW0NIMl1bQ0gyXTIpW0NIMl1bQ0BAXTMoQyg9TylOKFtDSDNdKS9DKD1OXFtIXSlbTkhdMylbQ0gyXVtDSDJdW0NIXTRbQ0gyXVtDSDJdW0NIMl1bQ0gyXVtDSDJdNA==

> <s_epik_cmdline>
J2VwaWtfYXBwJywgJy1pbWFlJywgJ2xpZ2FuZF9wcm8ubWFlJywgJy1vbWFlJywgJ2xpZ2FuZF9wcmVwLm1hZScsICctbXMnLCAnMScsICctcGgnLCAnNycsICctcGh0JywgJzAuNScsICctbnQn

> <r_lp_tautomer_probability>
1

> <r_epik_Ionization_Penalty>
  0.0878

> <r_epik_Ionization_Penalty_Charging>
  0.0878

> <r_epik_Ionization_Penalty_Neutral>
  0.0000

> <r_epik_State_Penalty>
  0.0002

> <r_epik_Charging_Adjusted_Penalty>
0.0880173440726979

> <i_epik_Tot_Q>
2

> <i_epik_Tot_abs_Q>
2

> <s_epik_Chemistry_Notes>
This compound has an imine and may undergo hydrolysis.

$$$$
