4r92_ligand
                    3D
 Schrodinger Suite 2020-3.
 70 73  0  0  1  0            999 V2000
   21.3210   11.8320   23.2280 C   0  0  0  0  0  0
   20.9120   10.7230   22.2730 C   0  0  1  0  0  0
   21.4960    9.5480   22.9030 N   0  3  0  0  0  0
   22.1270    9.8900   24.0750 C   0  0  0  0  0  0
   22.0400   11.2540   24.2480 N   0  0  0  0  0  0
   20.9910   12.9990   23.1300 O   0  0  0  0  0  0
   19.3960   10.5560   22.2220 C   0  0  0  0  0  0
   22.9290   11.0380   20.6940 C   0  0  2  0  0  0
   18.6980   10.5200   23.5880 C   0  0  0  0  0  0
   17.2440   10.0750   23.5440 C   0  0  0  0  0  0
   23.3790   12.1880   19.8090 C   0  0  0  0  0  0
   24.8990   12.1330   19.6430 C   0  0  1  0  0  0
   25.3860   10.7850   19.1240 C   0  0  0  0  0  0
   24.9360    9.6890   20.0660 C   0  0  0  0  0  0
   23.4120    9.7060   20.1310 C   0  0  0  0  0  0
   16.8070    9.7490   24.9690 C   0  0  0  0  0  0
   15.3400    9.3440   25.0860 C   0  0  0  0  0  0
   14.4240   10.3670   24.4230 C   0  0  0  0  0  0
   14.8820   10.7200   23.0120 C   0  0  0  0  0  0
   16.3460   11.1520   22.9480 C   0  0  0  0  0  0
   22.7340    9.1050   24.9020 N   0  0  0  0  0  0
   25.3890   13.2070   18.8180 N   0  0  0  0  0  0
   25.7620   14.3990   19.4200 C   0  0  0  0  0  0
   21.4150   10.9760   20.8540 C   0  0  0  0  0  0
   22.6500   12.0160   25.3330 C   0  0  0  0  0  0
   25.6810   14.6460   20.6200 O   0  0  0  0  0  0
   26.3040   15.4100   18.5030 C   0  0  0  0  0  0
   26.4830   16.7050   18.9550 C   0  0  0  0  0  0
   27.0000   17.6220   18.0610 C   0  0  0  0  0  0
   26.6360   15.0760   17.2070 C   0  0  0  0  0  0
   27.1570   16.0680   16.4020 C   0  0  0  0  0  0
   27.3490   17.3360   16.7970 N   0  0  0  0  0  0
   21.4872    8.5001   22.5686 H   0  0  0  0  0  0
   18.9532   11.3952   21.6654 H   0  0  0  0  0  0
   19.1480    9.6102   21.7180 H   0  0  0  0  0  0
   23.3747   11.2252   21.6821 H   0  0  0  0  0  0
   19.2262    9.8193   24.2513 H   0  0  0  0  0  0
   18.7105   11.5260   24.0328 H   0  0  0  0  0  0
   17.1559    9.1894   22.8975 H   0  0  0  0  0  0
   22.8975   12.1025   18.8237 H   0  0  0  0  0  0
   23.0936   13.1427   20.2750 H   0  0  0  0  0  0
   25.3531   12.3161   20.6280 H   0  0  0  0  0  0
   24.9661   10.6039   18.1236 H   0  0  0  0  0  0
   26.4844   10.7898   19.0652 H   0  0  0  0  0  0
   25.2859    8.7161   19.6904 H   0  0  0  0  0  0
   25.3574    9.8690   21.0660 H   0  0  0  0  0  0
   23.0683    8.8873   20.7803 H   0  0  0  0  0  0
   23.0050    9.5666   19.1186 H   0  0  0  0  0  0
   17.4084    8.9126   25.3546 H   0  0  0  0  0  0
   16.9540   10.6318   25.6086 H   0  0  0  0  0  0
   15.1880    8.3710   24.5959 H   0  0  0  0  0  0
   15.0646    9.2665   26.1481 H   0  0  0  0  0  0
   13.4043    9.9593   24.3596 H   0  0  0  0  0  0
   14.4131   11.2908   25.0201 H   0  0  0  0  0  0
   14.7643    9.8432   22.3582 H   0  0  0  0  0  0
   14.2724   11.5500   22.6255 H   0  0  0  0  0  0
   16.4688   12.0867   23.5147 H   0  0  0  0  0  0
   16.6240   11.3211   21.8972 H   0  0  0  0  0  0
   22.7690    8.0228   24.7081 H   0  0  0  0  0  0
   25.4625   13.0741   17.7285 H   0  0  0  0  0  0
   21.0667   10.1693   20.1922 H   0  0  0  0  0  0
   21.0260   11.9397   20.4934 H   0  0  0  0  0  0
   22.4108   13.0828   25.2115 H   0  0  0  0  0  0
   23.7413   11.8798   25.3083 H   0  0  0  0  0  0
   22.2577   11.6598   26.2969 H   0  0  0  0  0  0
   26.2264   16.9901   19.9753 H   0  0  0  0  0  0
   27.1337   18.6475   18.4053 H   0  0  0  0  0  0
   26.4918   14.0630   16.8314 H   0  0  0  0  0  0
   27.4300   15.8050   15.3801 H   0  0  0  0  0  0
   23.2159    9.5187   25.8001 H   0  0  0  0  0  0
  1  2  1  0  0  0
  1  5  1  0  0  0
  1  6  2  0  0  0
  2  3  1  0  0  0
  2  7  1  0  0  0
  2 24  1  0  0  0
  3  4  2  0  0  0
  3 33  1  0  0  0
  4  5  1  0  0  0
  4 21  1  0  0  0
  5 25  1  0  0  0
  7  9  1  0  0  0
  7 34  1  0  0  0
  7 35  1  0  0  0
  8 11  1  0  0  0
  8 15  1  0  0  0
  8 24  1  0  0  0
  8 36  1  0  0  0
  9 10  1  0  0  0
  9 37  1  0  0  0
  9 38  1  0  0  0
 10 16  1  0  0  0
 10 20  1  0  0  0
 10 39  1  0  0  0
 11 12  1  0  0  0
 11 40  1  0  0  0
 11 41  1  0  0  0
 12 13  1  0  0  0
 12 22  1  0  0  0
 12 42  1  0  0  0
 13 14  1  0  0  0
 13 43  1  0  0  0
 13 44  1  0  0  0
 14 15  1  0  0  0
 14 45  1  0  0  0
 14 46  1  0  0  0
 15 47  1  0  0  0
 15 48  1  0  0  0
 16 17  1  0  0  0
 16 49  1  0  0  0
 16 50  1  0  0  0
 17 18  1  0  0  0
 17 51  1  0  0  0
 17 52  1  0  0  0
 18 19  1  0  0  0
 18 53  1  0  0  0
 18 54  1  0  0  0
 19 20  1  0  0  0
 19 55  1  0  0  0
 19 56  1  0  0  0
 20 57  1  0  0  0
 20 58  1  0  0  0
 21 59  1  0  0  0
 21 70  1  0  0  0
 22 23  1  0  0  0
 22 60  1  0  0  0
 23 26  2  0  0  0
 23 27  1  0  0  0
 24 61  1  0  0  0
 24 62  1  0  0  0
 25 63  1  0  0  0
 25 64  1  0  0  0
 25 65  1  0  0  0
 27 28  2  0  0  0
 27 30  1  0  0  0
 28 29  1  0  0  0
 28 66  1  0  0  0
 29 32  2  0  0  0
 29 67  1  0  0  0
 30 31  2  0  0  0
 30 68  1  0  0  0
 31 32  1  0  0  0
 31 69  1  0  0  0
M  CHG  1   3   1
M  END
> <s_m_source_file>
../4r92_ligand.sdf

> <i_m_source_file_index>
1

> <s_epik_input>
W0NIMl0xW0NIMl1bQ0gyXVtDSDJdW0NIMl1bQ0hdMVtDSDJdW0NIMl1bQ0BdMihDKD1PKU4oW0NIM10pQyhcW05IXTIpPU4vW0hdKVtDSDJdW0NAQEhdM1tDSDJdW0NAQEhdKFtDSDJdW0NIMl1bQ0gyXTMpW05IXUMoPU8pYzRbY0hdW2NIXW5bY0hdW2NIXTQ=

> <s_epik_cmdline>
J2VwaWtfYXBwJywgJy1pbWFlJywgJ2xpZ2FuZF9wcm8ubWFlJywgJy1vbWFlJywgJ2xpZ2FuZF9wcmVwLm1hZScsICctbXMnLCAnMScsICctcGgnLCAnNycsICctcGh0JywgJzAuNScsICctbnQn

> <r_lp_tautomer_probability>
1

> <r_epik_Ionization_Penalty>
  0.0805

> <r_epik_Ionization_Penalty_Charging>
  0.0803

> <r_epik_Ionization_Penalty_Neutral>
  0.0002

> <r_epik_State_Penalty>
  0.0771

> <r_epik_Charging_Adjusted_Penalty>
0.157400428951553

> <i_epik_Tot_Q>
1

> <i_epik_Tot_abs_Q>
1

> <s_epik_Chemistry_Notes>
This compound has an imine and may undergo hydrolysis.

$$$$
