4r93_ligand
                    3D
 Schrodinger Suite 2020-3.
 73 76  0  0  1  0            999 V2000
   21.2960   11.9190   23.1090 C   0  0  0  0  0  0
   20.8880   10.7990   22.1680 C   0  0  1  0  0  0
   21.4340    9.6260   22.8430 N   0  3  0  0  0  0
   22.0730    9.9810   24.0060 C   0  0  0  0  0  0
   21.9820   11.3410   24.1490 N   0  0  0  0  0  0
   21.0130   13.1010   22.9650 O   0  0  0  0  0  0
   19.3650   10.6810   22.0970 C   0  0  0  0  0  0
   22.9630   11.0730   20.6140 C   0  0  2  0  0  0
   18.6530   10.5960   23.4560 C   0  0  0  0  0  0
   17.1800   10.1890   23.3820 C   0  0  0  0  0  0
   23.3710   11.9700   19.4450 C   0  0  0  0  0  0
   24.8930   12.0280   19.2760 C   0  0  1  0  0  0
   25.5270   10.6380   19.2010 C   0  0  0  0  0  0
   25.0820    9.7560   20.3640 C   0  0  0  0  0  0
   23.5580    9.6700   20.4590 C   0  0  0  0  0  0
   16.6700    9.9420   24.7950 C   0  0  0  0  0  0
   15.2100    9.4870   24.8320 C   0  0  0  0  0  0
   14.3140   10.4650   24.0960 C   0  0  0  0  0  0
   14.8350   10.7860   22.6990 C   0  0  0  0  0  0
   16.2980   11.2260   22.6910 C   0  0  0  0  0  0
   22.6790    9.1980   24.8380 N   0  0  0  0  0  0
   25.2920   12.8110   18.1220 N   0  0  0  0  0  0
   25.8300   14.0770   18.2970 C   0  0  0  0  0  0
   21.4440   11.0000   20.7510 C   0  0  0  0  0  0
   22.5630   12.1160   25.2360 C   0  0  0  0  0  0
   25.8470   14.6520   19.3810 O   0  0  0  0  0  0
   26.3020   14.5980   17.1170 N   0  0  0  0  0  0
   26.7720   15.9160   16.8940 C   0  0  0  0  0  0
   27.2080   16.2230   15.6190 C   0  0  0  0  0  0
   27.6780   17.4950   15.3320 C   0  0  0  0  0  0
   27.6960   18.4670   16.3160 C   0  0  0  0  0  0
   27.2590   18.1710   17.5910 C   0  0  0  0  0  0
   26.8060   16.8950   17.8810 C   0  0  0  0  0  0
   21.3900    8.5695   22.5401 H   0  0  0  0  0  0
   18.9527   11.5608   21.5813 H   0  0  0  0  0  0
   19.0932    9.7705   21.5429 H   0  0  0  0  0  0
   23.3633   11.5222   21.5349 H   0  0  0  0  0  0
   19.1574    9.8503   24.0882 H   0  0  0  0  0  0
   18.6868   11.5784   23.9498 H   0  0  0  0  0  0
   17.1181    9.2745   22.7739 H   0  0  0  0  0  0
   22.9349   11.5796   18.5137 H   0  0  0  0  0  0
   23.0041   12.9919   19.6215 H   0  0  0  0  0  0
   25.2934   12.5725   20.1439 H   0  0  0  0  0  0
   25.2303   10.1499   18.2609 H   0  0  0  0  0  0
   26.6224   10.7323   19.2353 H   0  0  0  0  0  0
   25.4778    8.7391   20.2253 H   0  0  0  0  0  0
   25.4644   10.1727   21.3075 H   0  0  0  0  0  0
   23.2836    9.0571   21.3302 H   0  0  0  0  0  0
   23.1640    9.2037   19.5440 H   0  0  0  0  0  0
   17.2766    9.1580   25.2719 H   0  0  0  0  0  0
   16.7456   10.8707   25.3797 H   0  0  0  0  0  0
   15.1212    8.5004   24.3538 H   0  0  0  0  0  0
   14.8733    9.4196   25.8770 H   0  0  0  0  0  0
   13.3070   10.0343   23.9941 H   0  0  0  0  0  0
   14.2547   11.4059   24.6627 H   0  0  0  0  0  0
   14.7525    9.8925   22.0627 H   0  0  0  0  0  0
   14.2394   11.6022   22.2641 H   0  0  0  0  0  0
   16.3817   12.1880   23.2178 H   0  0  0  0  0  0
   16.6254   11.3494   21.6481 H   0  0  0  0  0  0
   22.7079    8.1142   24.6520 H   0  0  0  0  0  0
   25.1677   12.4004   17.1091 H   0  0  0  0  0  0
   21.1263   10.1640   20.1105 H   0  0  0  0  0  0
   21.0612   11.9447   20.3375 H   0  0  0  0  0  0
   22.3304   13.1814   25.0918 H   0  0  0  0  0  0
   23.6541   11.9766   25.2433 H   0  0  0  0  0  0
   22.1434   11.7755   26.1941 H   0  0  0  0  0  0
   26.3421   13.9693   16.2152 H   0  0  0  0  0  0
   27.1822   15.4634   14.8376 H   0  0  0  0  0  0
   28.0341   17.7298   14.3289 H   0  0  0  0  0  0
   28.0562   19.4692   16.0837 H   0  0  0  0  0  0
   27.2703   18.9376   18.3658 H   0  0  0  0  0  0
   26.4734   16.6560   18.8911 H   0  0  0  0  0  0
   23.1656    9.6158   25.7317 H   0  0  0  0  0  0
  1  2  1  0  0  0
  1  5  1  0  0  0
  1  6  2  0  0  0
  2  3  1  0  0  0
  2  7  1  0  0  0
  2 24  1  0  0  0
  3  4  2  0  0  0
  3 34  1  0  0  0
  4  5  1  0  0  0
  4 21  1  0  0  0
  5 25  1  0  0  0
  7  9  1  0  0  0
  7 35  1  0  0  0
  7 36  1  0  0  0
  8 11  1  0  0  0
  8 15  1  0  0  0
  8 24  1  0  0  0
  8 37  1  0  0  0
  9 10  1  0  0  0
  9 38  1  0  0  0
  9 39  1  0  0  0
 10 16  1  0  0  0
 10 20  1  0  0  0
 10 40  1  0  0  0
 11 12  1  0  0  0
 11 41  1  0  0  0
 11 42  1  0  0  0
 12 13  1  0  0  0
 12 22  1  0  0  0
 12 43  1  0  0  0
 13 14  1  0  0  0
 13 44  1  0  0  0
 13 45  1  0  0  0
 14 15  1  0  0  0
 14 46  1  0  0  0
 14 47  1  0  0  0
 15 48  1  0  0  0
 15 49  1  0  0  0
 16 17  1  0  0  0
 16 50  1  0  0  0
 16 51  1  0  0  0
 17 18  1  0  0  0
 17 52  1  0  0  0
 17 53  1  0  0  0
 18 19  1  0  0  0
 18 54  1  0  0  0
 18 55  1  0  0  0
 19 20  1  0  0  0
 19 56  1  0  0  0
 19 57  1  0  0  0
 20 58  1  0  0  0
 20 59  1  0  0  0
 21 60  1  0  0  0
 21 73  1  0  0  0
 22 23  1  0  0  0
 22 61  1  0  0  0
 23 26  2  0  0  0
 23 27  1  0  0  0
 24 62  1  0  0  0
 24 63  1  0  0  0
 25 64  1  0  0  0
 25 65  1  0  0  0
 25 66  1  0  0  0
 27 28  1  0  0  0
 27 67  1  0  0  0
 28 29  2  0  0  0
 28 33  1  0  0  0
 29 30  1  0  0  0
 29 68  1  0  0  0
 30 31  2  0  0  0
 30 69  1  0  0  0
 31 32  1  0  0  0
 31 70  1  0  0  0
 32 33  2  0  0  0
 32 71  1  0  0  0
 33 72  1  0  0  0
M  CHG  1   3   1
M  END
> <s_m_source_file>
../4r93_ligand.sdf

> <i_m_source_file_index>
1

> <s_epik_input>
W0NIMl0xW0NIMl1bQ0gyXVtDSDJdW0NIMl1bQ0hdMVtDSDJdW0NIMl1bQ0BdMihDKD1PKU4oW0NIM10pQyhcW05IXTIpPU4vW0hdKVtDSDJdW0NAQEhdM1tDSDJdW0NAQEhdKFtDSDJdW0NIMl1bQ0gyXTMpW05IXUMoPU8pW05IXWM0W2NIXVtjSF1bY0hdW2NIXVtjSF00

> <s_epik_cmdline>
J2VwaWtfYXBwJywgJy1pbWFlJywgJ2xpZ2FuZF9wcm8ubWFlJywgJy1vbWFlJywgJ2xpZ2FuZF9wcmVwLm1hZScsICctbXMnLCAnMScsICctcGgnLCAnNycsICctcGh0JywgJzAuNScsICctbnQn

> <r_lp_tautomer_probability>
1

> <r_epik_Ionization_Penalty>
  0.0795

> <r_epik_Ionization_Penalty_Charging>
  0.0794

> <r_epik_Ionization_Penalty_Neutral>
  0.0000

> <r_epik_State_Penalty>
  0.0762

> <r_epik_Charging_Adjusted_Penalty>
0.155662944570044

> <i_epik_Tot_Q>
1

> <i_epik_Tot_abs_Q>
1

> <s_epik_Chemistry_Notes>
This compound has an imine and may undergo hydrolysis.

$$$$
