4r95_ligand
                    3D
 Schrodinger Suite 2020-3.
 75 79  0  0  1  0            999 V2000
   21.3380   11.7380   23.0900 C   0  0  0  0  0  0
   20.9030   10.6280   22.1760 C   0  0  1  0  0  0
   21.4700    9.4480   22.8160 N   0  3  0  0  0  0
   22.1390    9.8000   23.9510 C   0  0  0  0  0  0
   22.1050   11.1720   24.0620 N   0  0  0  0  0  0
   21.0220   12.9110   22.9660 O   0  0  0  0  0  0
   19.3770   10.5070   22.1260 C   0  0  0  0  0  0
   22.9690   10.9790   20.6360 C   0  0  2  0  0  0
   18.6690   10.5140   23.4920 C   0  0  0  0  0  0
   17.2140   10.0460   23.4640 C   0  0  0  0  0  0
   23.4430   11.9660   19.5680 C   0  0  0  0  0  0
   24.9760   11.9940   19.4670 C   0  0  1  0  0  0
   25.5390   10.5770   19.3110 C   0  0  0  0  0  0
   25.1080    9.7230   20.4790 C   0  0  0  0  0  0
   23.5890    9.6090   20.4540 C   0  0  0  0  0  0
   16.7230    9.8380   24.8950 C   0  0  0  0  0  0
   15.2640    9.3730   24.9340 C   0  0  0  0  0  0
   14.3440   10.3500   24.2250 C   0  0  0  0  0  0
   14.8200   10.5830   22.7960 C   0  0  0  0  0  0
   16.2880   11.0260   22.7520 C   0  0  0  0  0  0
   22.7120    9.0230   24.8110 N   0  0  0  0  0  0
   25.3630   12.6800   18.2420 N   0  0  0  0  0  0
   21.4520   10.8610   20.7590 C   0  0  0  0  0  0
   22.5260   11.9090   25.2370 C   0  0  0  0  0  0
   25.8070   14.0180   18.3560 C   0  0  0  0  0  0
   25.6750   14.7340   19.5300 C   0  0  0  0  0  0
   26.1120   16.0390   19.5820 C   0  0  0  0  0  0
   26.3590   14.5650   17.2630 N   0  3  0  0  0  0
   26.7870   15.8340   17.3090 C   0  0  0  0  0  0
   26.6710   16.6030   18.4580 C   0  0  0  0  0  0
   27.1000   17.9150   18.5010 C   0  0  0  0  0  0
   27.6620   18.4880   17.3790 C   0  0  0  0  0  0
   27.7960   17.7380   16.2260 C   0  0  0  0  0  0
   27.3620   16.4240   16.1990 C   0  0  0  0  0  0
   21.4223    8.3923   22.5107 H   0  0  0  0  0  0
   18.9608   11.3505   21.5556 H   0  0  0  0  0  0
   19.1000    9.5615   21.6369 H   0  0  0  0  0  0
   23.3259   11.4017   21.5868 H   0  0  0  0  0  0
   19.2027    9.8469   24.1850 H   0  0  0  0  0  0
   18.6647   11.5365   23.8976 H   0  0  0  0  0  0
   17.1851    9.1041   22.8966 H   0  0  0  0  0  0
   23.0352   11.6715   18.5897 H   0  0  0  0  0  0
   23.0925   12.9773   19.8219 H   0  0  0  0  0  0
   25.3773   12.5164   20.3480 H   0  0  0  0  0  0
   25.1619   10.1333   18.3778 H   0  0  0  0  0  0
   26.6377   10.6205   19.2785 H   0  0  0  0  0  0
   25.5625    8.7252   20.3910 H   0  0  0  0  0  0
   25.4354   10.1935   21.4178 H   0  0  0  0  0  0
   23.2604    8.9467   21.2685 H   0  0  0  0  0  0
   23.2716    9.1882   19.4885 H   0  0  0  0  0  0
   17.3422    9.0739   25.3877 H   0  0  0  0  0  0
   16.7986   10.7848   25.4499 H   0  0  0  0  0  0
   15.1776    8.3946   24.4387 H   0  0  0  0  0  0
   14.9351    9.2847   25.9800 H   0  0  0  0  0  0
   13.3231    9.9410   24.2012 H   0  0  0  0  0  0
   14.3423   11.3090   24.7638 H   0  0  0  0  0  0
   14.7224    9.6507   22.2204 H   0  0  0  0  0  0
   14.2074   11.3681   22.3289 H   0  0  0  0  0  0
   16.3589   12.0128   23.2328 H   0  0  0  0  0  0
   16.5852   11.1103   21.6963 H   0  0  0  0  0  0
   22.7015    7.9334   24.6604 H   0  0  0  0  0  0
   25.3037   12.1566   17.2763 H   0  0  0  0  0  0
   21.1588   10.0228   20.1098 H   0  0  0  0  0  0
   21.0407   11.7982   20.3559 H   0  0  0  0  0  0
   22.3953   12.9868   25.0601 H   0  0  0  0  0  0
   23.5856   11.6970   25.4426 H   0  0  0  0  0  0
   21.9166   11.6025   26.0999 H   0  0  0  0  0  0
   25.2281   14.2694   20.4090 H   0  0  0  0  0  0
   26.0164   16.6173   20.5010 H   0  0  0  0  0  0
   26.9950   18.4954   19.4177 H   0  0  0  0  0  0
   27.9979   19.5247   17.4017 H   0  0  0  0  0  0
   28.2440   18.1818   15.3369 H   0  0  0  0  0  0
   27.4759   15.8427   15.2840 H   0  0  0  0  0  0
   23.2100    9.4515   25.6933 H   0  0  0  0  0  0
   26.4566   13.9729   16.3411 H   0  0  0  0  0  0
  1  2  1  0  0  0
  1  5  1  0  0  0
  1  6  2  0  0  0
  2  3  1  0  0  0
  2  7  1  0  0  0
  2 23  1  0  0  0
  3  4  2  0  0  0
  3 35  1  0  0  0
  4  5  1  0  0  0
  4 21  1  0  0  0
  5 24  1  0  0  0
  7  9  1  0  0  0
  7 36  1  0  0  0
  7 37  1  0  0  0
  8 11  1  0  0  0
  8 15  1  0  0  0
  8 23  1  0  0  0
  8 38  1  0  0  0
  9 10  1  0  0  0
  9 39  1  0  0  0
  9 40  1  0  0  0
 10 16  1  0  0  0
 10 20  1  0  0  0
 10 41  1  0  0  0
 11 12  1  0  0  0
 11 42  1  0  0  0
 11 43  1  0  0  0
 12 13  1  0  0  0
 12 22  1  0  0  0
 12 44  1  0  0  0
 13 14  1  0  0  0
 13 45  1  0  0  0
 13 46  1  0  0  0
 14 15  1  0  0  0
 14 47  1  0  0  0
 14 48  1  0  0  0
 15 49  1  0  0  0
 15 50  1  0  0  0
 16 17  1  0  0  0
 16 51  1  0  0  0
 16 52  1  0  0  0
 17 18  1  0  0  0
 17 53  1  0  0  0
 17 54  1  0  0  0
 18 19  1  0  0  0
 18 55  1  0  0  0
 18 56  1  0  0  0
 19 20  1  0  0  0
 19 57  1  0  0  0
 19 58  1  0  0  0
 20 59  1  0  0  0
 20 60  1  0  0  0
 21 61  1  0  0  0
 21 74  1  0  0  0
 22 25  1  0  0  0
 22 62  1  0  0  0
 23 63  1  0  0  0
 23 64  1  0  0  0
 24 65  1  0  0  0
 24 66  1  0  0  0
 24 67  1  0  0  0
 25 26  2  0  0  0
 25 28  1  0  0  0
 26 27  1  0  0  0
 26 68  1  0  0  0
 27 30  2  0  0  0
 27 69  1  0  0  0
 28 29  2  0  0  0
 28 75  1  0  0  0
 29 30  1  0  0  0
 29 34  1  0  0  0
 30 31  1  0  0  0
 31 32  2  0  0  0
 31 70  1  0  0  0
 32 33  1  0  0  0
 32 71  1  0  0  0
 33 34  2  0  0  0
 33 72  1  0  0  0
 34 73  1  0  0  0
M  CHG  2   3   1  28   1
M  END
> <s_m_source_file>
../4r95_ligand.sdf

> <i_m_source_file_index>
1

> <s_epik_input>
W0NIMl0xW0NIMl1bQ0gyXVtDSDJdW0NIMl1bQ0hdMVtDSDJdW0NIMl1bQ0BdMihDKD1PKU4oW0NIM10pQyhcW05IXTIpPU4vW0hdKVtDSDJdW0NAQEhdM1tDSDJdW0NAQEhdKFtDSDJdW0NIMl1bQ0gyXTMpW05IXWMobjQpW2NIXVtjSF1jKGM0NSlbY0hdW2NIXVtjSF1bY0hdNQ==

> <s_epik_cmdline>
J2VwaWtfYXBwJywgJy1pbWFlJywgJ2xpZ2FuZF9wcm8ubWFlJywgJy1vbWFlJywgJ2xpZ2FuZF9wcmVwLm1hZScsICctbXMnLCAnMScsICctcGgnLCAnNycsICctcGh0JywgJzAuNScsICctbnQn

> <r_lp_tautomer_probability>
1

> <r_epik_Ionization_Penalty>
  0.4018

> <r_epik_Ionization_Penalty_Charging>
  0.4018

> <r_epik_Ionization_Penalty_Neutral>
  0.0000

> <r_epik_State_Penalty>
  0.3210

> <r_epik_Charging_Adjusted_Penalty>
0.722786821911361

> <i_epik_Tot_Q>
2

> <i_epik_Tot_abs_Q>
2

> <s_epik_Chemistry_Notes>
This compound has an imine and may undergo hydrolysis.

$$$$
