4ra5_ligand
                    3D
 Schrodinger Suite 2020-3.
 58 62  0  0  1  0            999 V2000
  -29.5390    5.5930  -25.8710 C   0  0  0  0  0  0
  -29.5360    4.3180  -26.6150 N   0  3  2  0  0  0
  -28.8880    3.2180  -25.8720 C   0  0  0  0  0  0
  -28.0950    2.8380  -27.1380 C   0  0  1  0  0  0
  -28.7400    1.7450  -28.0040 C   0  0  0  0  0  0
  -28.4380    4.2650  -27.6070 C   0  0  0  0  0  0
  -26.6890    2.5170  -26.8550 N   0  0  0  0  0  0
  -26.3710    1.5110  -25.8340 C   0  0  0  0  0  0
  -25.6530    3.0610  -27.6180 C   0  0  0  0  0  0
  -25.2670    2.2590  -28.6740 C   0  0  0  0  0  0
  -24.2610    2.6510  -29.5510 C   0  0  0  0  0  0
  -23.8190    1.8390  -30.6140 N   0  0  0  0  0  0
  -24.0020    0.3650  -30.5590 C   0  0  2  0  0  0
  -23.1860   -0.2460  -29.4050 C   0  0  0  0  0  0
  -23.6120   -0.3040  -31.8490 C   0  0  0  0  0  0
  -23.8650   -1.4810  -31.9960 O   0  0  0  0  0  0
  -22.9950    0.4050  -32.8180 N   0  0  0  0  0  0
  -22.7000    1.7690  -32.6760 N   0  0  0  0  0  0
  -23.1040    2.4410  -31.6530 C   0  0  0  0  0  0
  -22.7590    3.9060  -31.5500 C   0  0  0  0  0  0
  -22.6270    4.2720  -30.1800 O   0  0  0  0  0  0
  -23.6130    3.8770  -29.3380 C   0  0  0  0  0  0
  -23.9860    4.6900  -28.2770 C   0  0  0  0  0  0
  -25.0060    4.3030  -27.4030 C   0  0  0  0  0  0
  -25.3310    5.2390  -26.2940 C   0  0  0  0  0  0
  -25.6300    6.5830  -26.5560 C   0  0  0  0  0  0
  -25.9150    7.4450  -25.5070 C   0  0  0  0  0  0
  -25.8930    6.9860  -24.1930 C   0  0  0  0  0  0
  -25.5860    5.6610  -23.9270 C   0  0  0  0  0  0
  -25.3030    4.7880  -24.9670 C   0  0  0  0  0  0
  -30.3667    5.5928  -25.1465 H   0  0  0  0  0  0
  -29.6682    6.4281  -26.5752 H   0  0  0  0  0  0
  -28.5843    5.7081  -25.3369 H   0  0  0  0  0  0
  -30.5918    4.2441  -26.9148 H   0  0  0  0  0  0
  -28.3341    3.6303  -25.0157 H   0  0  0  0  0  0
  -29.6555    2.5183  -25.5096 H   0  0  0  0  0  0
  -29.7899    2.0064  -28.2024 H   0  0  0  0  0  0
  -28.6958    0.7827  -27.4729 H   0  0  0  0  0  0
  -28.1961    1.6634  -28.9566 H   0  0  0  0  0  0
  -28.8508    4.3956  -28.6182 H   0  0  0  0  0  0
  -27.7167    5.0689  -27.3989 H   0  0  0  0  0  0
  -27.2966    1.1928  -25.3320 H   0  0  0  0  0  0
  -25.6828    1.9448  -25.0936 H   0  0  0  0  0  0
  -25.8954    0.6416  -26.3115 H   0  0  0  0  0  0
  -25.7609    1.2989  -28.8233 H   0  0  0  0  0  0
  -25.0815    0.2142  -30.4106 H   0  0  0  0  0  0
  -23.4677    0.2401  -28.4593 H   0  0  0  0  0  0
  -22.1132   -0.0904  -29.5920 H   0  0  0  0  0  0
  -23.3942   -1.3241  -29.3394 H   0  0  0  0  0  0
  -22.7222   -0.1233  -33.7435 H   0  0  0  0  0  0
  -21.8096    4.0967  -32.0718 H   0  0  0  0  0  0
  -23.5580    4.5043  -32.0122 H   0  0  0  0  0  0
  -23.4775    5.6418  -28.1233 H   0  0  0  0  0  0
  -25.6386    6.9503  -27.5822 H   0  0  0  0  0  0
  -26.1575    8.4875  -25.7129 H   0  0  0  0  0  0
  -26.1172    7.6687  -23.3734 H   0  0  0  0  0  0
  -25.5669    5.3038  -22.8974 H   0  0  0  0  0  0
  -25.0580    3.7479  -24.7518 H   0  0  0  0  0  0
  1  2  1  0  0  0
  1 31  1  0  0  0
  1 32  1  0  0  0
  1 33  1  0  0  0
  2  3  1  0  0  0
  2  6  1  0  0  0
  2 34  1  0  0  0
  3  4  1  0  0  0
  3 35  1  0  0  0
  3 36  1  0  0  0
  4  5  1  0  0  0
  4  6  1  0  0  0
  4  7  1  0  0  0
  5 37  1  0  0  0
  5 38  1  0  0  0
  5 39  1  0  0  0
  6 40  1  0  0  0
  6 41  1  0  0  0
  7  8  1  0  0  0
  7  9  1  0  0  0
  8 42  1  0  0  0
  8 43  1  0  0  0
  8 44  1  0  0  0
  9 10  2  0  0  0
  9 24  1  0  0  0
 10 11  1  0  0  0
 10 45  1  0  0  0
 11 12  1  0  0  0
 11 22  2  0  0  0
 12 13  1  0  0  0
 12 19  1  0  0  0
 13 14  1  0  0  0
 13 15  1  0  0  0
 13 46  1  0  0  0
 14 47  1  0  0  0
 14 48  1  0  0  0
 14 49  1  0  0  0
 15 16  2  0  0  0
 15 17  1  0  0  0
 17 18  1  0  0  0
 17 50  1  0  0  0
 18 19  2  0  0  0
 19 20  1  0  0  0
 20 21  1  0  0  0
 20 51  1  0  0  0
 20 52  1  0  0  0
 21 22  1  0  0  0
 22 23  1  0  0  0
 23 24  2  0  0  0
 23 53  1  0  0  0
 24 25  1  0  0  0
 25 26  2  0  0  0
 25 30  1  0  0  0
 26 27  1  0  0  0
 26 54  1  0  0  0
 27 28  2  0  0  0
 27 55  1  0  0  0
 28 29  1  0  0  0
 28 56  1  0  0  0
 29 30  2  0  0  0
 29 57  1  0  0  0
 30 58  1  0  0  0
M  CHG  1   2   1
M  END
> <s_m_source_file>
../4ra5_ligand.sdf

> <i_m_source_file_index>
1

> <s_epik_input>
W0NIM11bTkBASCtdKFtDSDJdMSlbQ0gyXVtDQF0xKFtDSDNdKU4oW0NIM10pYyhbY0hdMiljKC1jM1tjSF1bY0hdW2NIXVtjSF1bY0hdMylbY0hdYyhjMjQpT1tDSDJdQzVONFtDQEhdKFtDSDNdKUMoPU8pW05IXU49NQ==

> <s_epik_cmdline>
J2VwaWtfYXBwJywgJy1pbWFlJywgJ2xpZ2FuZF9wcm8ubWFlJywgJy1vbWFlJywgJ2xpZ2FuZF9wcmVwLm1hZScsICctbXMnLCAnMScsICctcGgnLCAnNycsICctcGh0JywgJzAuNScsICctbnQn

> <r_lp_tautomer_probability>
1

> <r_epik_Ionization_Penalty>
  0.0031

> <r_epik_Ionization_Penalty_Charging>
  0.0010

> <r_epik_Ionization_Penalty_Neutral>
  0.0021

> <r_epik_State_Penalty>
 -0.0000

> <r_epik_Charging_Adjusted_Penalty>
0.000971676617291383

> <i_epik_Tot_Q>
1

> <i_epik_Tot_abs_Q>
1

> <s_epik_Chemistry_Notes>
This compound has an imine and may undergo hydrolysis.

$$$$
