4rab_ligand
                    3D
 Schrodinger Suite 2020-3.
 52 53  0  0  1  0            999 V2000
   17.5900   32.2430    8.6750 O   0  5  0  0  0  0
   16.8040   33.0970    9.7130 P   0  0  0  0  0  0
   17.8480   33.8240   10.6600 O   0  0  0  0  0  0
   15.9850   34.1130    9.0100 O   0  0  0  0  0  0
   15.6920   31.9880   10.7290 C   0  0  0  0  0  0
   16.3880   30.9940   11.6360 C   0  0  0  0  0  0
   15.6550   30.4590   12.6980 O   0  0  0  0  0  0
   15.7510   31.0120   13.9540 C   0  0  0  0  0  0
   14.7080   30.5470   14.9840 C   0  0  0  0  0  0
   13.2950   30.9230   14.7510 N   0  3  2  0  0  0
   12.4650   30.4590   15.8510 C   0  0  0  0  0  0
   12.6640   31.1200   17.2160 C   0  0  0  0  0  0
   11.3710   30.8620   18.4960 P   0  0  0  0  0  0
   10.3050   31.9780   18.3750 O   0  5  0  0  0  0
   10.7320   29.5370   18.2910 O   0  0  0  0  0  0
   12.0250   30.9180   19.9250 O   0  0  0  0  0  0
   12.8030   30.3320   13.4880 C   0  0  0  0  0  0
   11.3520   30.6750   13.1230 C   0  0  0  0  0  0
   10.7870   30.1490   11.8670 N   0  0  0  0  0  0
   10.0210   29.0030   11.7520 C   0  0  0  0  0  0
    9.5740   28.0580   12.6620 N   0  0  0  0  0  0
    8.8260   27.0330   12.2460 C   0  0  0  0  0  0
    8.3670   26.0510   13.2000 N   0  0  0  0  0  0
    8.4800   26.8770   10.9220 N   0  0  0  0  0  0
    8.8810   27.7500   10.0010 C   0  0  0  0  0  0
    8.5120   27.5630    8.6710 O   0  0  0  0  0  0
    9.6830   28.8700   10.3980 C   0  0  0  0  0  0
   10.2520   29.9390    9.7250 N   0  0  0  0  0  0
   10.9140   30.7010   10.6260 C   0  0  0  0  0  0
   11.8950   32.3340   10.2120 Br  0  0  0  0  0  0
   18.5862   34.5192   10.2336 H   0  0  0  0  0  0
   15.0585   32.6046   11.3836 H   0  0  0  0  0  0
   15.0556   31.3927   10.0577 H   0  0  0  0  0  0
   16.7156   30.1257   11.0454 H   0  0  0  0  0  0
   17.2626   31.4721   12.1012 H   0  0  0  0  0  0
   16.7328   30.7701   14.3870 H   0  0  0  0  0  0
   15.6405   32.1041   13.8832 H   0  0  0  0  0  0
   14.7093   29.4483   15.0367 H   0  0  0  0  0  0
   14.9578   30.9617   15.9717 H   0  0  0  0  0  0
   13.2253   32.0195   14.6974 H   0  0  0  0  0  0
   11.4052   30.6187   15.6033 H   0  0  0  0  0  0
   12.6448   29.3869   16.0191 H   0  0  0  0  0  0
   13.5944   30.7491   17.6708 H   0  0  0  0  0  0
   12.7272   32.2109   17.0894 H   0  0  0  0  0  0
   12.5475   31.8278   20.2555 H   0  0  0  0  0  0
   13.4258   30.6829   12.6519 H   0  0  0  0  0  0
   12.8575   29.2351   13.5507 H   0  0  0  0  0  0
   10.6781   30.2992   13.9070 H   0  0  0  0  0  0
   11.2434   31.7663   13.0383 H   0  0  0  0  0  0
    8.6295   26.1526   14.2634 H   0  0  0  0  0  0
    7.7548   25.2014   12.8634 H   0  0  0  0  0  0
    7.8630   26.0207   10.6120 H   0  0  0  0  0  0
  1  2  1  0  0  0
  2  3  1  0  0  0
  2  4  2  0  0  0
  2  5  1  0  0  0
  3 31  1  0  0  0
  5  6  1  0  0  0
  5 32  1  0  0  0
  5 33  1  0  0  0
  6  7  1  0  0  0
  6 34  1  0  0  0
  6 35  1  0  0  0
  7  8  1  0  0  0
  8  9  1  0  0  0
  8 36  1  0  0  0
  8 37  1  0  0  0
  9 10  1  0  0  0
  9 38  1  0  0  0
  9 39  1  0  0  0
 10 11  1  0  0  0
 10 17  1  0  0  0
 10 40  1  0  0  0
 11 12  1  0  0  0
 11 41  1  0  0  0
 11 42  1  0  0  0
 12 13  1  0  0  0
 12 43  1  0  0  0
 12 44  1  0  0  0
 13 14  1  0  0  0
 13 15  2  0  0  0
 13 16  1  0  0  0
 16 45  1  0  0  0
 17 18  1  0  0  0
 17 46  1  0  0  0
 17 47  1  0  0  0
 18 19  1  0  0  0
 18 48  1  0  0  0
 18 49  1  0  0  0
 19 20  1  0  0  0
 19 29  1  0  0  0
 20 21  1  0  0  0
 20 27  2  0  0  0
 21 22  2  0  0  0
 22 23  1  0  0  0
 22 24  1  0  0  0
 23 50  1  0  0  0
 23 51  1  0  0  0
 24 25  1  0  0  0
 24 52  1  0  0  0
 25 26  2  0  0  0
 25 27  1  0  0  0
 27 28  1  0  0  0
 28 29  2  0  0  0
 29 30  1  0  0  0
M  CHG  3   1  -1  10   1  14  -1
M  END
> <s_m_source_file>
../4rab_ligand.sdf

> <i_m_source_file_index>
1

> <s_epik_input>
W09IXVAoPU8pKFtPSF0pW0NIMl1bQ0gyXU9bQ0gyXVtDSDJdW05ASCtdKFtDSDJdW0NIMl1QKD1PKShbT0hdKVtPSF0pW0NIMl1bQ0gyXW4xYyhCciluYyhjMTIpYyg9TylbbkhdYyhuMilbTkgyXQ==

> <s_epik_cmdline>
J2VwaWtfYXBwJywgJy1pbWFlJywgJ2xpZ2FuZF9wcm8ubWFlJywgJy1vbWFlJywgJ2xpZ2FuZF9wcmVwLm1hZScsICctbXMnLCAnMScsICctcGgnLCAnNycsICctcGh0JywgJzAuNScsICctbnQn

> <r_lp_tautomer_probability>
0.999940409345307

> <r_epik_Ionization_Penalty>
  0.8692

> <r_epik_Ionization_Penalty_Charging>
  0.3789

> <r_epik_Ionization_Penalty_Neutral>
  0.4903

> <r_epik_State_Penalty>
  0.3635

> <r_epik_Charging_Adjusted_Penalty>
0.742410137406352

> <i_epik_Tot_Q>
-1

> <i_epik_Tot_abs_Q>
3

$$$$
