4rac_ligand
                    3D
 Schrodinger Suite 2020-3.
 48 49  0  0  1  0            999 V2000
   -7.8600   36.5120  -28.5010 O   0  5  0  0  0  0
   -7.3630   37.0400  -27.1310 P   0  0  0  0  0  0
   -5.8530   36.7690  -26.9140 O   0  0  0  0  0  0
   -8.1740   36.4320  -26.0610 O   0  0  0  0  0  0
   -7.6050   38.8760  -27.2090 C   0  0  0  0  0  0
   -8.1450   39.4420  -26.0680 O   0  0  0  0  0  0
   -7.3150   40.2390  -25.3400 C   0  0  0  0  0  0
   -7.8940   41.3910  -24.5130 C   0  0  0  0  0  0
   -6.7900   41.9520  -23.8290 N   0  0  1  0  0  0
   -7.0480   43.0800  -22.8480 C   0  0  0  0  0  0
   -7.9820   42.9980  -21.7020 C   0  0  0  0  0  0
   -8.3570   44.6420  -21.0200 P   0  0  0  0  0  0
   -9.1870   45.4790  -22.0510 O   0  5  0  0  0  0
   -9.2250   44.5670  -19.7290 O   0  0  0  0  0  0
   -7.0490   45.3520  -20.7470 O   0  0  0  0  0  0
   -6.0050   40.8020  -23.2250 C   0  0  0  0  0  0
   -4.5340   41.1340  -22.9510 C   0  0  0  0  0  0
   -4.0550   40.9540  -21.6340 N   0  0  0  0  0  0
   -3.4750   39.7720  -21.2120 C   0  0  0  0  0  0
   -3.2380   38.5780  -21.8710 N   0  0  0  0  0  0
   -2.6590   37.5680  -21.2400 C   0  0  0  0  0  0
   -2.4410   36.3480  -21.9730 N   0  0  0  0  0  0
   -2.2830   37.7010  -19.9540 N   0  0  0  0  0  0
   -2.4690   38.8220  -19.2440 C   0  0  0  0  0  0
   -2.0420   38.8640  -17.9110 O   0  0  0  0  0  0
   -3.1030   39.9300  -19.9170 C   0  0  0  0  0  0
   -3.4760   41.2370  -19.5720 N   0  0  0  0  0  0
   -4.0530   41.8440  -20.6170 C   0  0  0  0  0  0
   -5.4851   35.7351  -26.8378 H   0  0  0  0  0  0
   -6.6349   39.3669  -27.3762 H   0  0  0  0  0  0
   -8.2873   39.1211  -28.0363 H   0  0  0  0  0  0
   -6.7729   39.6279  -24.6033 H   0  0  0  0  0  0
   -6.5945   40.7286  -26.0116 H   0  0  0  0  0  0
   -8.3666   42.1230  -25.1844 H   0  0  0  0  0  0
   -8.6452   40.9979  -23.8121 H   0  0  0  0  0  0
   -6.1077   43.3515  -22.3459 H   0  0  0  0  0  0
   -7.4403   43.9538  -23.3889 H   0  0  0  0  0  0
   -8.9250   42.5361  -22.0299 H   0  0  0  0  0  0
   -7.5322   42.3873  -20.9053 H   0  0  0  0  0  0
  -10.2108   44.0798  -19.7566 H   0  0  0  0  0  0
   -6.4586   40.5124  -22.2656 H   0  0  0  0  0  0
   -6.0234   39.9440  -23.9132 H   0  0  0  0  0  0
   -3.8918   40.5011  -23.5811 H   0  0  0  0  0  0
   -4.3474   42.1927  -23.1842 H   0  0  0  0  0  0
   -2.7605   36.2726  -23.0229 H   0  0  0  0  0  0
   -1.9550   35.4914  -21.4831 H   0  0  0  0  0  0
   -1.7959   36.8630  -19.4339 H   0  0  0  0  0  0
   -4.4456   42.8605  -20.6424 H   0  0  0  0  0  0
  1  2  1  0  0  0
  2  3  1  0  0  0
  2  4  2  0  0  0
  2  5  1  0  0  0
  3 29  1  0  0  0
  5  6  1  0  0  0
  5 30  1  0  0  0
  5 31  1  0  0  0
  6  7  1  0  0  0
  7  8  1  0  0  0
  7 32  1  0  0  0
  7 33  1  0  0  0
  8  9  1  0  0  0
  8 34  1  0  0  0
  8 35  1  0  0  0
  9 10  1  0  0  0
  9 16  1  0  0  0
 10 11  1  0  0  0
 10 36  1  0  0  0
 10 37  1  0  0  0
 11 12  1  0  0  0
 11 38  1  0  0  0
 11 39  1  0  0  0
 12 13  1  0  0  0
 12 14  1  0  0  0
 12 15  2  0  0  0
 14 40  1  0  0  0
 16 17  1  0  0  0
 16 41  1  0  0  0
 16 42  1  0  0  0
 17 18  1  0  0  0
 17 43  1  0  0  0
 17 44  1  0  0  0
 18 19  1  0  0  0
 18 28  1  0  0  0
 19 20  1  0  0  0
 19 26  2  0  0  0
 20 21  2  0  0  0
 21 22  1  0  0  0
 21 23  1  0  0  0
 22 45  1  0  0  0
 22 46  1  0  0  0
 23 24  1  0  0  0
 23 47  1  0  0  0
 24 25  2  0  0  0
 24 26  1  0  0  0
 26 27  1  0  0  0
 27 28  2  0  0  0
 28 48  1  0  0  0
M  CHG  2   1  -1  13  -1
M  END
> <s_m_source_file>
../4rac_ligand.sdf

> <i_m_source_file_index>
1

> <s_epik_input>
W09IXVAoPU8pKFtPSF0pW0NIMl1PW0NIMl1bQ0gyXVtOQEBIK10oW0NIMl1bQ0gyXVAoPU8pKFtPSF0pW09IXSlbQ0gyXVtDSDJdbjFbY0hdbmMoYzEyKWMoPU8pW25IXWMobjIpW05IMl0=

> <s_epik_cmdline>
J2VwaWtfYXBwJywgJy1pbWFlJywgJ2xpZ2FuZF9wcm8ubWFlJywgJy1vbWFlJywgJ2xpZ2FuZF9wcmVwLm1hZScsICctbXMnLCAnMScsICctcGgnLCAnNycsICctcGh0JywgJzAuNScsICctbnQn

> <r_lp_tautomer_probability>
1

> <r_epik_Ionization_Penalty>
  0.6125

> <r_epik_Ionization_Penalty_Charging>
  0.0009

> <r_epik_Ionization_Penalty_Neutral>
  0.6115

> <r_epik_State_Penalty>
 -0.0000

> <r_epik_Charging_Adjusted_Penalty>
0.00094515398141614

> <i_epik_Tot_Q>
-2

> <i_epik_Tot_abs_Q>
2

$$$$
