4rad_ligand
                    3D
 Schrodinger Suite 2020-3.
 52 53  0  0  1  0            999 V2000
   69.0770  -17.5270   12.7480 O   0  0  0  0  0  0
   67.8380  -16.7320   13.0860 P   0  0  0  0  0  0
   68.2390  -15.4680   13.8200 O   0  5  0  0  0  0
   66.9470  -17.5670   13.9790 O   0  0  0  0  0  0
   66.9210  -16.2900   11.5570 C   0  0  0  0  0  0
   67.8030  -16.3330   10.3010 C   0  0  0  0  0  0
   67.3120  -17.3480    9.3970 O   0  0  0  0  0  0
   68.3410  -17.8100    8.4930 C   0  0  0  0  0  0
   67.7490  -18.3470    7.1830 C   0  0  0  0  0  0
   66.5720  -19.1670    7.4180 N   0  3  1  0  0  0
   65.5300  -18.8990    6.4320 C   0  0  0  0  0  0
   65.9130  -19.2820    4.9960 C   0  0  0  0  0  0
   64.5370  -18.9240    3.8040 P   0  0  0  0  0  0
   64.1580  -17.4590    3.8830 O   0  0  0  0  0  0
   63.3390  -19.7780    4.1680 O   0  5  0  0  0  0
   64.9740  -19.2640    2.3840 O   0  0  0  0  0  0
   66.9510  -20.6000    7.5320 C   0  0  0  0  0  0
   65.8360  -21.4440    8.2180 C   0  0  0  0  0  0
   66.0750  -22.8630    7.8920 N   0  0  0  0  0  0
   67.0330  -23.6320    8.4710 C   0  0  0  0  0  0
   67.9710  -23.4440    9.4150 N   0  0  0  0  0  0
   68.7910  -24.4330    9.7850 C   0  0  0  0  0  0
   69.7680  -24.1840   10.7940 N   0  0  0  0  0  0
   68.7300  -25.6580    9.2430 N   0  0  0  0  0  0
   67.8360  -25.9460    8.2950 C   0  0  0  0  0  0
   67.7740  -27.2500    7.7190 O   0  0  0  0  0  0
   66.9390  -24.9170    7.8710 C   0  0  0  0  0  0
   65.9210  -24.8420    6.9550 N   0  0  0  0  0  0
   65.4110  -23.6050    6.9680 C   0  0  0  0  0  0
   67.3231  -17.9295   14.9470 H   0  0  0  0  0  0
   66.0916  -16.9973   11.4095 H   0  0  0  0  0  0
   66.5205  -15.2699   11.6516 H   0  0  0  0  0  0
   67.7758  -15.3540    9.8002 H   0  0  0  0  0  0
   68.8383  -16.5695   10.5879 H   0  0  0  0  0  0
   69.0172  -16.9769    8.2506 H   0  0  0  0  0  0
   68.9128  -18.6191    8.9710 H   0  0  0  0  0  0
   67.4591  -17.5038    6.5389 H   0  0  0  0  0  0
   68.5004  -18.9619    6.6660 H   0  0  0  0  0  0
   66.1262  -18.8678    8.3781 H   0  0  0  0  0  0
   64.6260  -19.4705    6.6893 H   0  0  0  0  0  0
   65.2958  -17.8242    6.4289 H   0  0  0  0  0  0
   66.7985  -18.7072    4.6870 H   0  0  0  0  0  0
   66.1401  -20.3574    4.9515 H   0  0  0  0  0  0
   65.8341  -18.7462    1.9344 H   0  0  0  0  0  0
   67.1271  -21.0137    6.5281 H   0  0  0  0  0  0
   67.8687  -20.6900    8.1318 H   0  0  0  0  0  0
   65.8780  -21.2914    9.3065 H   0  0  0  0  0  0
   64.8523  -21.1275    7.8411 H   0  0  0  0  0  0
   69.8403  -23.1882   11.2558 H   0  0  0  0  0  0
   70.4491  -24.9877   11.1104 H   0  0  0  0  0  0
   69.4233  -26.4432    9.5788 H   0  0  0  0  0  0
   64.5947  -23.2501    6.3389 H   0  0  0  0  0  0
  1  2  2  0  0  0
  2  3  1  0  0  0
  2  4  1  0  0  0
  2  5  1  0  0  0
  4 30  1  0  0  0
  5  6  1  0  0  0
  5 31  1  0  0  0
  5 32  1  0  0  0
  6  7  1  0  0  0
  6 33  1  0  0  0
  6 34  1  0  0  0
  7  8  1  0  0  0
  8  9  1  0  0  0
  8 35  1  0  0  0
  8 36  1  0  0  0
  9 10  1  0  0  0
  9 37  1  0  0  0
  9 38  1  0  0  0
 10 11  1  0  0  0
 10 17  1  0  0  0
 10 39  1  0  0  0
 11 12  1  0  0  0
 11 40  1  0  0  0
 11 41  1  0  0  0
 12 13  1  0  0  0
 12 42  1  0  0  0
 12 43  1  0  0  0
 13 14  2  0  0  0
 13 15  1  0  0  0
 13 16  1  0  0  0
 16 44  1  0  0  0
 17 18  1  0  0  0
 17 45  1  0  0  0
 17 46  1  0  0  0
 18 19  1  0  0  0
 18 47  1  0  0  0
 18 48  1  0  0  0
 19 20  1  0  0  0
 19 29  1  0  0  0
 20 21  1  0  0  0
 20 27  2  0  0  0
 21 22  2  0  0  0
 22 23  1  0  0  0
 22 24  1  0  0  0
 23 49  1  0  0  0
 23 50  1  0  0  0
 24 25  1  0  0  0
 24 51  1  0  0  0
 25 26  2  0  0  0
 25 27  1  0  0  0
 27 28  1  0  0  0
 28 29  2  0  0  0
 29 52  1  0  0  0
M  CHG  3   3  -1  10   1  15  -1
M  END
> <s_m_source_file>
../4rad_ligand.sdf

> <i_m_source_file_index>
1

> <s_epik_input>
Tz1QKFtPSF0pKFtPSF0pW0NIMl1bQ0gyXU9bQ0gyXVtDSDJdW05AQEgrXShbQ0gyXVtDSDJdUCg9TykoW09IXSlbT0hdKVtDSDJdW0NIMl1uMVtjSF1uYyhjMTIpYyg9TylbbkhdYyhuMilbTkgyXQ==

> <s_epik_cmdline>
J2VwaWtfYXBwJywgJy1pbWFlJywgJ2xpZ2FuZF9wcm8ubWFlJywgJy1vbWFlJywgJ2xpZ2FuZF9wcmVwLm1hZScsICctbXMnLCAnMScsICctcGgnLCAnNycsICctcGh0JywgJzAuNScsICctbnQn

> <r_lp_tautomer_probability>
0.999940409345307

> <r_epik_Ionization_Penalty>
  0.8601

> <r_epik_Ionization_Penalty_Charging>
  0.3698

> <r_epik_Ionization_Penalty_Neutral>
  0.4903

> <r_epik_State_Penalty>
  0.3635

> <r_epik_Charging_Adjusted_Penalty>
0.733374759642721

> <i_epik_Tot_Q>
-1

> <i_epik_Tot_abs_Q>
3

$$$$
