4rak_ligand
                    3D
 Schrodinger Suite 2020-3.
 64 67  0  0  1  0            999 V2000
  -20.7520   20.0710  -43.8340 C   0  0  0  0  0  0
  -22.2010   19.4720  -42.9400 S   0  0  0  0  0  0
  -22.8100   20.6350  -41.9340 O   0  0  0  0  0  0
  -23.3920   19.0170  -43.9960 O   0  0  0  0  0  0
  -21.8000   18.0380  -41.9040 C   0  0  0  0  0  0
  -21.9990   16.7660  -42.4350 C   0  0  0  0  0  0
  -21.2980   18.2150  -40.6070 C   0  0  0  0  0  0
  -21.0000   17.1060  -39.8280 C   0  0  0  0  0  0
  -21.2060   15.8300  -40.3550 C   0  0  0  0  0  0
  -21.6880   15.6610  -41.6610 C   0  0  0  0  0  0
  -21.9280   14.2610  -42.2180 C   0  0  0  0  0  0
  -20.8870   13.3340  -42.2700 C   0  0  0  0  0  0
  -21.1370   12.0620  -42.7850 C   0  0  0  0  0  0
  -23.2010   13.9190  -42.6800 C   0  0  0  0  0  0
  -23.4480   12.6390  -43.1960 C   0  0  0  0  0  0
  -22.4160   11.7060  -43.2360 C   0  0  0  0  0  0
  -22.6640   10.3540  -43.7260 N   0  0  0  0  0  0
  -22.3810    9.9300  -44.9440 C   0  0  0  0  0  0
  -22.7390    8.5920  -45.0210 C   0  0  0  0  0  0
  -22.6260    7.6800  -46.2350 C   0  0  0  0  0  0
  -23.8710    6.8140  -46.3380 C   0  0  0  0  0  0
  -21.3970    6.7960  -46.1060 C   0  0  0  0  0  0
  -22.5110    8.4470  -47.4010 O   0  0  0  0  0  0
  -23.1970    8.2620  -43.8220 N   0  0  0  0  0  0
  -23.1680    9.3190  -43.0340 C   0  0  0  0  0  0
  -23.6770    9.3110  -41.5780 C   0  0  0  0  0  0
  -25.0730    9.9640  -41.5810 C   0  0  0  0  0  0
  -23.8810    7.8820  -41.0630 C   0  0  0  0  0  0
  -22.6970   10.0320  -40.6170 C   0  0  0  0  0  0
  -23.1820   11.0350  -39.7730 C   0  0  0  0  0  0
  -22.3510   11.7100  -38.8950 C   0  0  0  0  0  0
  -21.0000   11.3860  -38.8530 C   0  0  0  0  0  0
  -20.4890   10.3910  -39.6820 C   0  0  0  0  0  0
  -21.3330    9.7030  -40.5610 C   0  0  0  0  0  0
  -20.5790    8.4640  -41.6180 Cl  0  0  0  0  0  0
  -21.0335   20.9382  -44.4494 H   0  0  0  0  0  0
  -20.3649   19.2713  -44.4826 H   0  0  0  0  0  0
  -19.9746   20.3685  -43.1149 H   0  0  0  0  0  0
  -22.3932   16.6424  -43.4437 H   0  0  0  0  0  0
  -21.1425   19.2191  -40.2124 H   0  0  0  0  0  0
  -20.6101   17.2297  -38.8177 H   0  0  0  0  0  0
  -20.9895   14.9539  -39.7437 H   0  0  0  0  0  0
  -19.8920   13.5999  -41.9132 H   0  0  0  0  0  0
  -20.3268   11.3347  -42.8376 H   0  0  0  0  0  0
  -24.0071   14.6515  -42.6391 H   0  0  0  0  0  0
  -24.4403   12.3767  -43.5629 H   0  0  0  0  0  0
  -21.9441   10.5251  -45.7459 H   0  0  0  0  0  0
  -23.9715    6.2065  -45.4265 H   0  0  0  0  0  0
  -23.7858    6.1520  -47.2123 H   0  0  0  0  0  0
  -24.7566    7.4569  -46.4497 H   0  0  0  0  0  0
  -21.4767    6.1884  -45.1925 H   0  0  0  0  0  0
  -20.4967    7.4256  -46.0503 H   0  0  0  0  0  0
  -21.3279    6.1341  -46.9818 H   0  0  0  0  0  0
  -23.3067    9.1558  -47.6738 H   0  0  0  0  0  0
  -25.7307    9.4200  -42.2749 H   0  0  0  0  0  0
  -24.9868   11.0122  -41.9032 H   0  0  0  0  0  0
  -25.4978    9.9258  -40.5671 H   0  0  0  0  0  0
  -24.5743    7.3476  -41.7292 H   0  0  0  0  0  0
  -24.3010    7.9149  -40.0469 H   0  0  0  0  0  0
  -22.9141    7.3578  -41.0433 H   0  0  0  0  0  0
  -24.2407   11.2922  -39.8068 H   0  0  0  0  0  0
  -22.7518   12.4869  -38.2439 H   0  0  0  0  0  0
  -20.3370   11.9137  -38.1674 H   0  0  0  0  0  0
  -19.4273   10.1469  -39.6462 H   0  0  0  0  0  0
  1  2  1  0  0  0
  1 36  1  0  0  0
  1 37  1  0  0  0
  1 38  1  0  0  0
  2  3  2  0  0  0
  2  4  2  0  0  0
  2  5  1  0  0  0
  5  6  2  0  0  0
  5  7  1  0  0  0
  6 10  1  0  0  0
  6 39  1  0  0  0
  7  8  2  0  0  0
  7 40  1  0  0  0
  8  9  1  0  0  0
  8 41  1  0  0  0
  9 10  2  0  0  0
  9 42  1  0  0  0
 10 11  1  0  0  0
 11 12  2  0  0  0
 11 14  1  0  0  0
 12 13  1  0  0  0
 12 43  1  0  0  0
 13 16  2  0  0  0
 13 44  1  0  0  0
 14 15  2  0  0  0
 14 45  1  0  0  0
 15 16  1  0  0  0
 15 46  1  0  0  0
 16 17  1  0  0  0
 17 18  1  0  0  0
 17 25  1  0  0  0
 18 19  2  0  0  0
 18 47  1  0  0  0
 19 20  1  0  0  0
 19 24  1  0  0  0
 20 21  1  0  0  0
 20 22  1  0  0  0
 20 23  1  0  0  0
 21 48  1  0  0  0
 21 49  1  0  0  0
 21 50  1  0  0  0
 22 51  1  0  0  0
 22 52  1  0  0  0
 22 53  1  0  0  0
 23 54  1  0  0  0
 24 25  2  0  0  0
 25 26  1  0  0  0
 26 27  1  0  0  0
 26 28  1  0  0  0
 26 29  1  0  0  0
 27 55  1  0  0  0
 27 56  1  0  0  0
 27 57  1  0  0  0
 28 58  1  0  0  0
 28 59  1  0  0  0
 28 60  1  0  0  0
 29 30  2  0  0  0
 29 34  1  0  0  0
 30 31  1  0  0  0
 30 61  1  0  0  0
 31 32  2  0  0  0
 31 62  1  0  0  0
 32 33  1  0  0  0
 32 63  1  0  0  0
 33 34  2  0  0  0
 33 64  1  0  0  0
 34 35  1  0  0  0
M  END
> <s_m_source_file>
../4rak_ligand.sdf

> <i_m_source_file_index>
1

> <s_epik_input>
W0NIM11TKD1PKSg9TyljMVtjSF1jKFtjSF1bY0hdW2NIXTEpLWMyW2NIXVtjSF1jKFtjSF1bY0hdMiktbjNbY0hdYyhDKFtDSDNdKShbQ0gzXSlbT0hdKW5jM0MoW0NIM10pKFtDSDNdKWM0W2NIXVtjSF1bY0hdW2NIXWM0Q2w=

> <s_epik_cmdline>
J2VwaWtfYXBwJywgJy1pbWFlJywgJ2xpZ2FuZF9wcm8ubWFlJywgJy1vbWFlJywgJ2xpZ2FuZF9wcmVwLm1hZScsICctbXMnLCAnMScsICctcGgnLCAnNycsICctcGh0JywgJzAuNScsICctbnQn

> <r_lp_tautomer_probability>
1

> <r_epik_Ionization_Penalty>
  0.0350

> <r_epik_Ionization_Penalty_Charging>
  0.0350

> <r_epik_Ionization_Penalty_Neutral>
  0.0000

> <r_epik_State_Penalty>
  0.0291

> <r_epik_Charging_Adjusted_Penalty>
0.0641416824553798

> <i_epik_Tot_Q>
0

> <i_epik_Tot_abs_Q>
0

$$$$
