4ran_ligand
                    3D
 Schrodinger Suite 2020-3.
 41 42  0  0  1  0            999 V2000
  -17.1840  -15.3870   26.2700 N   0  0  0  0  0  0
  -17.7580  -15.0720   25.1840 C   0  0  0  0  0  0
  -18.4380  -14.7060   23.9090 C   0  0  0  0  0  0
  -17.6950  -14.7200   22.6380 C   0  0  0  0  0  0
  -17.2710  -15.9590   22.0500 N   0  0  1  0  0  0
  -18.3060  -16.9790   22.2480 C   0  0  0  0  0  0
  -18.1240  -18.1480   21.2410 C   0  0  0  0  0  0
  -18.1270  -19.7800   22.1050 P   0  0  0  0  0  0
  -19.1090  -20.7490   21.3760 O   0  5  0  0  0  0
  -18.5920  -19.6250   23.6250 O   0  0  0  0  0  0
  -16.7340  -20.3490   22.0600 O   0  0  0  0  0  0
  -17.0390  -15.7300   20.6120 C   0  0  0  0  0  0
  -15.5990  -15.3120   20.4260 C   0  0  0  0  0  0
  -15.1450  -15.6150   19.0850 N   0  0  0  0  0  0
  -14.9890  -14.6880   18.0860 C   0  0  0  0  0  0
  -15.1970  -13.3730   18.0580 N   0  0  0  0  0  0
  -14.9720  -12.6920   16.9470 C   0  0  0  0  0  0
  -15.1930  -11.2880   16.9160 N   0  0  0  0  0  0
  -14.5210  -13.3320   15.8250 N   0  0  0  0  0  0
  -14.2950  -14.6480   15.7870 C   0  0  0  0  0  0
  -13.8380  -15.2570   14.6140 O   0  0  0  0  0  0
  -14.5300  -15.3890   16.9560 C   0  0  0  0  0  0
  -14.4220  -16.7400   17.3350 N   0  0  0  0  0  0
  -14.7980  -16.8700   18.6400 C   0  0  0  0  0  0
  -19.2765  -15.3951   23.7297 H   0  0  0  0  0  0
  -18.8182  -13.6762   23.9787 H   0  0  0  0  0  0
  -18.3070  -14.2562   21.8504 H   0  0  0  0  0  0
  -16.7582  -14.1553   22.7546 H   0  0  0  0  0  0
  -18.2375  -17.3770   23.2712 H   0  0  0  0  0  0
  -19.2981  -16.5292   22.0952 H   0  0  0  0  0  0
  -18.9476  -18.1354   20.5119 H   0  0  0  0  0  0
  -17.1656  -18.0319   20.7137 H   0  0  0  0  0  0
  -19.5891  -19.2224   23.8568 H   0  0  0  0  0  0
  -17.2377  -16.6582   20.0562 H   0  0  0  0  0  0
  -17.7118  -14.9369   20.2538 H   0  0  0  0  0  0
  -15.5068  -14.2290   20.5954 H   0  0  0  0  0  0
  -14.9649  -15.8509   21.1453 H   0  0  0  0  0  0
  -15.5555  -10.7683   17.8152 H   0  0  0  0  0  0
  -15.0015  -10.7213   15.9929 H   0  0  0  0  0  0
  -14.3297  -12.7601   14.9050 H   0  0  0  0  0  0
  -14.8195  -17.7927   19.2199 H   0  0  0  0  0  0
  1  2  3  0  0  0
  2  3  1  0  0  0
  3  4  1  0  0  0
  3 25  1  0  0  0
  3 26  1  0  0  0
  4  5  1  0  0  0
  4 27  1  0  0  0
  4 28  1  0  0  0
  5  6  1  0  0  0
  5 12  1  0  0  0
  6  7  1  0  0  0
  6 29  1  0  0  0
  6 30  1  0  0  0
  7  8  1  0  0  0
  7 31  1  0  0  0
  7 32  1  0  0  0
  8  9  1  0  0  0
  8 10  1  0  0  0
  8 11  2  0  0  0
 10 33  1  0  0  0
 12 13  1  0  0  0
 12 34  1  0  0  0
 12 35  1  0  0  0
 13 14  1  0  0  0
 13 36  1  0  0  0
 13 37  1  0  0  0
 14 15  1  0  0  0
 14 24  1  0  0  0
 15 16  1  0  0  0
 15 22  2  0  0  0
 16 17  2  0  0  0
 17 18  1  0  0  0
 17 19  1  0  0  0
 18 38  1  0  0  0
 18 39  1  0  0  0
 19 20  1  0  0  0
 19 40  1  0  0  0
 20 21  2  0  0  0
 20 22  1  0  0  0
 22 23  1  0  0  0
 23 24  2  0  0  0
 24 41  1  0  0  0
M  CHG  1   9  -1
M  END
> <s_m_source_file>
../4ran_ligand.sdf

> <i_m_source_file_index>
1

> <s_epik_input>
TiNDW0NIMl1bQ0gyXVtOQEBIK10oW0NIMl1bQ0gyXVAoPU8pKFtPSF0pW09IXSlbQ0gyXVtDSDJdbjFbY0hdbmMoYzEyKWMoPU8pW25IXWMobjIpW05IMl0=

> <s_epik_cmdline>
J2VwaWtfYXBwJywgJy1pbWFlJywgJ2xpZ2FuZF9wcm8ubWFlJywgJy1vbWFlJywgJ2xpZ2FuZF9wcmVwLm1hZScsICctbXMnLCAnMScsICctcGgnLCAnNycsICctcGh0JywgJzAuNScsICctbnQn

> <r_lp_tautomer_probability>
1

> <r_epik_Ionization_Penalty>
  0.0994

> <r_epik_Ionization_Penalty_Charging>
  0.0010

> <r_epik_Ionization_Penalty_Neutral>
  0.0984

> <r_epik_State_Penalty>
 -0.0000

> <r_epik_Charging_Adjusted_Penalty>
0.000956009362486431

> <i_epik_Tot_Q>
-1

> <i_epik_Tot_abs_Q>
1

$$$$
