4rao_ligand
                    3D
 Schrodinger Suite 2020-3.
 50 51  0  0  1  0            999 V2000
   22.6530   12.1690   14.3760 O   0  5  0  0  0  0
   22.5340   11.0570   15.5250 P   0  0  0  0  0  0
   21.4680   10.0180   15.1230 O   0  0  0  0  0  0
   22.1360   11.7000   16.8300 O   0  0  0  0  0  0
   24.1630   10.1390   15.7250 C   0  0  0  0  0  0
   25.4610   10.7640   15.2160 C   0  0  0  0  0  0
   26.6270   10.2070   15.6820 O   0  0  0  0  0  0
   27.1650    9.1260   15.0520 C   0  0  0  0  0  0
   27.5170    9.2870   13.5790 C   0  0  0  0  0  0
   27.5210    8.0460   12.7810 N   0  3  2  0  0  0
   28.8600    7.4500   12.7010 C   0  0  0  0  0  0
   28.8770    5.9450   12.6480 C   0  0  0  0  0  0
   30.4720    5.1380   12.6170 P   0  0  0  0  0  0
   31.4440    5.8680   11.6840 O   0  5  0  0  0  0
   31.0630    5.1240   14.0910 O   0  0  0  0  0  0
   30.3060    3.7440   12.1880 O   0  0  0  0  0  0
   27.0170    8.3340   11.4160 C   0  0  0  0  0  0
   27.7440    9.3490   10.6210 C   0  0  0  0  0  0
   27.5580    9.1080    9.1370 N   0  0  0  0  0  0
   26.4350    9.5130    8.4080 C   0  0  0  0  0  0
   25.2570   10.2310    8.7670 N   0  0  0  0  0  0
   24.3290   10.4870    7.8200 C   0  0  0  0  0  0
   24.5200   10.0710    6.5340 N   0  0  0  0  0  0
   25.6270    9.3820    6.1160 C   0  0  0  0  0  0
   25.7710    8.9970    4.8530 O   0  0  0  0  0  0
   26.6450    9.0850    7.1130 C   0  0  0  0  0  0
   27.8820    8.4180    7.0710 N   0  0  0  0  0  0
   28.4030    8.4420    8.3150 C   0  0  0  0  0  0
   20.4287   10.3347   14.9509 H   0  0  0  0  0  0
   24.3552    9.9617   16.7935 H   0  0  0  0  0  0
   24.1080    9.1753   15.1975 H   0  0  0  0  0  0
   25.5026   10.6812   14.1199 H   0  0  0  0  0  0
   25.4953   11.8248   15.5052 H   0  0  0  0  0  0
   28.1033    8.8407   15.5502 H   0  0  0  0  0  0
   26.4564    8.2858   15.0959 H   0  0  0  0  0  0
   26.7897    9.9586   13.0995 H   0  0  0  0  0  0
   28.5264    9.7145   13.4878 H   0  0  0  0  0  0
   26.8713    7.3166   13.2868 H   0  0  0  0  0  0
   29.3659    7.8058   11.7914 H   0  0  0  0  0  0
   29.4454    7.7435   13.5848 H   0  0  0  0  0  0
   28.3641    5.5411   13.5333 H   0  0  0  0  0  0
   28.3611    5.6043   11.7382 H   0  0  0  0  0  0
   31.2673    6.0717   14.6107 H   0  0  0  0  0  0
   27.0471    7.4148   10.8125 H   0  0  0  0  0  0
   25.9811    8.6988   11.4770 H   0  0  0  0  0  0
   27.3615   10.3505   10.8673 H   0  0  0  0  0  0
   28.8175    9.2986   10.8556 H   0  0  0  0  0  0
   23.4213   11.0295    8.0843 H   0  0  0  0  0  0
   23.7605   10.2860    5.7679 H   0  0  0  0  0  0
   29.3526    7.9964    8.6112 H   0  0  0  0  0  0
  1  2  1  0  0  0
  2  3  1  0  0  0
  2  4  2  0  0  0
  2  5  1  0  0  0
  3 29  1  0  0  0
  5  6  1  0  0  0
  5 30  1  0  0  0
  5 31  1  0  0  0
  6  7  1  0  0  0
  6 32  1  0  0  0
  6 33  1  0  0  0
  7  8  1  0  0  0
  8  9  1  0  0  0
  8 34  1  0  0  0
  8 35  1  0  0  0
  9 10  1  0  0  0
  9 36  1  0  0  0
  9 37  1  0  0  0
 10 11  1  0  0  0
 10 17  1  0  0  0
 10 38  1  0  0  0
 11 12  1  0  0  0
 11 39  1  0  0  0
 11 40  1  0  0  0
 12 13  1  0  0  0
 12 41  1  0  0  0
 12 42  1  0  0  0
 13 14  1  0  0  0
 13 15  1  0  0  0
 13 16  2  0  0  0
 15 43  1  0  0  0
 17 18  1  0  0  0
 17 44  1  0  0  0
 17 45  1  0  0  0
 18 19  1  0  0  0
 18 46  1  0  0  0
 18 47  1  0  0  0
 19 20  1  0  0  0
 19 28  1  0  0  0
 20 21  1  0  0  0
 20 26  2  0  0  0
 21 22  2  0  0  0
 22 23  1  0  0  0
 22 48  1  0  0  0
 23 24  1  0  0  0
 23 49  1  0  0  0
 24 25  2  0  0  0
 24 26  1  0  0  0
 26 27  1  0  0  0
 27 28  2  0  0  0
 28 50  1  0  0  0
M  CHG  3   1  -1  10   1  14  -1
M  END
> <s_m_source_file>
../4rao_ligand.sdf

> <i_m_source_file_index>
1

> <s_epik_input>
W09IXVAoPU8pKFtPSF0pW0NIMl1bQ0gyXU9bQ0gyXVtDSDJdW05ASCtdKFtDSDJdW0NIMl1QKD1PKShbT0hdKVtPSF0pW0NIMl1bQ0gyXW4xW2NIXW5jKGMxMiljKD1PKVtuSF1bY0hdbjI=

> <s_epik_cmdline>
J2VwaWtfYXBwJywgJy1pbWFlJywgJ2xpZ2FuZF9wcm8ubWFlJywgJy1vbWFlJywgJ2xpZ2FuZF9wcmVwLm1hZScsICctbXMnLCAnMScsICctcGgnLCAnNycsICctcGh0JywgJzAuNScsICctbnQn

> <r_lp_tautomer_probability>
0.855710295894835

> <r_epik_Ionization_Penalty>
  0.8776

> <r_epik_Ionization_Penalty_Charging>
  0.3873

> <r_epik_Ionization_Penalty_Neutral>
  0.4903

> <r_epik_State_Penalty>
  0.3635

> <r_epik_Charging_Adjusted_Penalty>
0.750803155404395

> <i_epik_Tot_Q>
-1

> <i_epik_Tot_abs_Q>
3

$$$$
