4raq_ligand
                    3D
 Schrodinger Suite 2020-3.
 46 47  0  0  1  0            999 V2000
   61.5030   -2.7400    5.6570 O   0  5  0  0  0  0
   61.8140   -3.0390    4.1460 P   0  0  0  0  0  0
   62.2450   -1.7080    3.4310 O   0  0  0  0  0  0
   60.6070   -3.6460    3.4860 O   0  0  0  0  0  0
   63.2300   -4.2200    3.9940 C   0  0  0  0  0  0
   63.6290   -4.5470    2.6890 O   0  0  0  0  0  0
   64.9590   -4.3260    2.3080 C   0  0  0  0  0  0
   65.6660   -5.5320    1.7580 C   0  0  0  0  0  0
   66.4900   -5.3880    0.5700 N   0  0  1  0  0  0
   66.9370   -6.7010    0.1130 C   0  0  0  0  0  0
   66.6590   -7.1890   -1.2820 C   0  0  0  0  0  0
   67.7130   -8.5900   -1.8320 P   0  0  0  0  0  0
   67.9850   -9.5810   -0.6660 O   0  5  0  0  0  0
   67.0090   -9.3920   -2.9720 O   0  0  0  0  0  0
   69.0130   -8.0280   -2.3200 O   0  0  0  0  0  0
   65.7990   -4.6080   -0.4670 C   0  0  0  0  0  0
   66.3640   -3.1920   -0.6300 C   0  0  0  0  0  0
   66.3830   -2.6160   -1.9830 N   0  0  0  0  0  0
   65.6110   -1.5240   -2.3660 C   0  0  0  0  0  0
   64.6980   -0.7650   -1.6640 N   0  0  0  0  0  0
   64.0760    0.2340   -2.3050 C   0  0  0  0  0  0
   64.3350    0.4980   -3.6050 N   0  0  0  0  0  0
   65.2100   -0.2080   -4.3420 C   0  0  0  0  0  0
   65.4410    0.1090   -5.6480 O   0  0  0  0  0  0
   65.8990   -1.2770   -3.6940 C   0  0  0  0  0  0
   66.8450   -2.2040   -4.0980 N   0  0  0  0  0  0
   67.1230   -3.0060   -3.0360 C   0  0  0  0  0  0
   61.5530   -0.8537    3.3956 H   0  0  0  0  0  0
   64.1176   -3.7932    4.4838 H   0  0  0  0  0  0
   62.9667   -5.1723    4.4775 H   0  0  0  0  0  0
   64.9926   -3.5544    1.5247 H   0  0  0  0  0  0
   65.5390   -3.9890    3.1798 H   0  0  0  0  0  0
   66.3500   -5.9349    2.5194 H   0  0  0  0  0  0
   64.9257   -6.2993    1.4873 H   0  0  0  0  0  0
   68.0332   -6.7600    0.1831 H   0  0  0  0  0  0
   66.4867   -7.4817    0.7437 H   0  0  0  0  0  0
   65.6158   -7.5313   -1.3496 H   0  0  0  0  0  0
   66.8229   -6.3691   -1.9968 H   0  0  0  0  0  0
   66.0383   -9.8749   -2.7862 H   0  0  0  0  0  0
   65.8961   -5.1193   -1.4361 H   0  0  0  0  0  0
   64.7343   -4.5143   -0.2069 H   0  0  0  0  0  0
   65.7723   -2.4893   -0.0250 H   0  0  0  0  0  0
   67.4111   -3.1740   -0.2935 H   0  0  0  0  0  0
   63.3489    0.8440   -1.7689 H   0  0  0  0  0  0
   63.8183    1.3266   -4.1115 H   0  0  0  0  0  0
   67.8327   -3.8333   -3.0377 H   0  0  0  0  0  0
  1  2  1  0  0  0
  2  3  1  0  0  0
  2  4  2  0  0  0
  2  5  1  0  0  0
  3 28  1  0  0  0
  5  6  1  0  0  0
  5 29  1  0  0  0
  5 30  1  0  0  0
  6  7  1  0  0  0
  7  8  1  0  0  0
  7 31  1  0  0  0
  7 32  1  0  0  0
  8  9  1  0  0  0
  8 33  1  0  0  0
  8 34  1  0  0  0
  9 10  1  0  0  0
  9 16  1  0  0  0
 10 11  1  0  0  0
 10 35  1  0  0  0
 10 36  1  0  0  0
 11 12  1  0  0  0
 11 37  1  0  0  0
 11 38  1  0  0  0
 12 13  1  0  0  0
 12 14  1  0  0  0
 12 15  2  0  0  0
 14 39  1  0  0  0
 16 17  1  0  0  0
 16 40  1  0  0  0
 16 41  1  0  0  0
 17 18  1  0  0  0
 17 42  1  0  0  0
 17 43  1  0  0  0
 18 19  1  0  0  0
 18 27  1  0  0  0
 19 20  1  0  0  0
 19 25  2  0  0  0
 20 21  2  0  0  0
 21 22  1  0  0  0
 21 44  1  0  0  0
 22 23  1  0  0  0
 22 45  1  0  0  0
 23 24  2  0  0  0
 23 25  1  0  0  0
 25 26  1  0  0  0
 26 27  2  0  0  0
 27 46  1  0  0  0
M  CHG  2   1  -1  13  -1
M  END
> <s_m_source_file>
../4raq_ligand.sdf

> <i_m_source_file_index>
1

> <s_epik_input>
W09IXVAoPU8pKFtPSF0pW0NIMl1PW0NIMl1bQ0gyXVtOQEBIK10oW0NIMl1bQ0gyXVAoPU8pKFtPSF0pW09IXSlbQ0gyXVtDSDJdbjFbY0hdbmMoYzEyKWMoPU8pW25IXVtjSF1uMg==

> <s_epik_cmdline>
J2VwaWtfYXBwJywgJy1pbWFlJywgJ2xpZ2FuZF9wcm8ubWFlJywgJy1vbWFlJywgJ2xpZ2FuZF9wcmVwLm1hZScsICctbXMnLCAnMScsICctcGgnLCAnNycsICctcGh0JywgJzAuNScsICctbnQn

> <r_lp_tautomer_probability>
1

> <r_epik_Ionization_Penalty>
  0.6171

> <r_epik_Ionization_Penalty_Charging>
  0.0057

> <r_epik_Ionization_Penalty_Neutral>
  0.6115

> <r_epik_State_Penalty>
 -0.0000

> <r_epik_Charging_Adjusted_Penalty>
0.00566823766686621

> <i_epik_Tot_Q>
-2

> <i_epik_Tot_abs_Q>
2

$$$$
