4rcd_ligand
                    3D
 Schrodinger Suite 2020-3.
 53 58  0  0  1  0            999 V2000
   71.1960   50.4410    8.7760 C   0  0  0  0  0  0
   67.2240   50.7270   10.0950 C   0  0  0  0  0  0
   70.3040   49.5360    8.1720 C   0  0  0  0  0  0
   70.7790   48.6480    7.2040 C   0  0  0  0  0  0
   69.5340   51.4170   10.1420 C   0  0  0  0  0  0
   68.5310   50.5790    9.6250 C   0  0  0  0  0  0
   68.8220   49.4970    8.5670 C   0  0  2  0  0  0
   67.9940   52.5160   11.4990 C   0  0  0  0  0  0
   66.9590   51.7020   11.0440 C   0  0  0  0  0  0
   72.5290   50.4300    8.3880 C   0  0  0  0  0  0
   63.0320   53.6450   13.2870 C   0  0  0  0  0  0
   63.0410   52.9590   14.5640 O   0  0  0  0  0  0
   63.1540   51.6520   13.9420 C   0  0  0  0  0  0
   63.2180   52.3200   12.5780 C   0  0  0  0  0  0
   62.0410   51.9080   11.6620 C   0  0  0  0  0  0
   64.5480   52.1030   12.0160 C   0  0  0  0  0  0
   65.6480   51.9080   11.5610 C   0  0  0  0  0  0
   69.2260   52.3600   11.0470 N   0  0  0  0  0  0
   70.8340   51.3530    9.7420 O   0  0  0  0  0  0
   68.4250   48.1030    9.0610 C   0  0  0  0  0  0
   67.4520   47.5830    8.0890 O   0  0  0  0  0  0
   67.1570   48.5930    7.1970 C   0  0  0  0  0  0
   67.9060   49.6920    7.3940 N   0  3  0  0  0  0
   66.2130   48.4520    6.2380 N   0  0  0  0  0  0
   72.9920   49.5380    7.4260 C   0  0  0  0  0  0
   72.1220   48.6460    6.8200 C   0  0  0  0  0  0
   72.5830   47.7580    5.8410 C   0  0  0  0  0  0
   73.6040   46.8610    6.1340 C   0  0  0  0  0  0
   74.0140   45.9880    5.1310 C   0  0  0  0  0  0
   73.4130   46.0330    3.8710 C   0  0  0  0  0  0
   72.4510   46.9000    3.6010 N   0  0  0  0  0  0
   72.0230   47.7430    4.5540 C   0  0  0  0  0  0
   71.0640   48.6120    4.2300 F   0  0  0  0  0  0
   66.4253   50.0861    9.7215 H   0  0  0  0  0  0
   70.0889   47.9436    6.7397 H   0  0  0  0  0  0
   67.7851   53.2908   12.2366 H   0  0  0  0  0  0
   73.2253   51.1329    8.8453 H   0  0  0  0  0  0
   62.0747   54.1719   13.1606 H   0  0  0  0  0  0
   63.8573   54.3715   13.2552 H   0  0  0  0  0  0
   64.0550   51.1443   14.3167 H   0  0  0  0  0  0
   62.2658   51.0512   14.1872 H   0  0  0  0  0  0
   61.0891   52.1105   12.1747 H   0  0  0  0  0  0
   62.1130   50.8345   11.4330 H   0  0  0  0  0  0
   62.0842   52.4861   10.7271 H   0  0  0  0  0  0
   69.3180   47.4624    9.1074 H   0  0  0  0  0  0
   67.9784   48.1825   10.0631 H   0  0  0  0  0  0
   67.7894   50.5629    6.7323 H   0  0  0  0  0  0
   65.6495   47.5109    6.1551 H   0  0  0  0  0  0
   74.0458   49.5409    7.1473 H   0  0  0  0  0  0
   74.0692   46.8422    7.1196 H   0  0  0  0  0  0
   74.8068   45.2667    5.3293 H   0  0  0  0  0  0
   73.7427   45.3411    3.0960 H   0  0  0  0  0  0
   66.0090   49.2784    5.5413 H   0  0  0  0  0  0
  1  3  2  0  0  0
  1 10  1  0  0  0
  1 19  1  0  0  0
  2  6  2  0  0  0
  2  9  1  0  0  0
  2 34  1  0  0  0
  3  4  1  0  0  0
  3  7  1  0  0  0
  4 26  2  0  0  0
  4 35  1  0  0  0
  5  6  1  0  0  0
  5 18  2  0  0  0
  5 19  1  0  0  0
  6  7  1  0  0  0
  7 20  1  0  0  0
  7 23  1  0  0  0
  8  9  2  0  0  0
  8 18  1  0  0  0
  8 36  1  0  0  0
  9 17  1  0  0  0
 10 25  2  0  0  0
 10 37  1  0  0  0
 11 12  1  0  0  0
 11 14  1  0  0  0
 11 38  1  0  0  0
 11 39  1  0  0  0
 12 13  1  0  0  0
 13 14  1  0  0  0
 13 40  1  0  0  0
 13 41  1  0  0  0
 14 15  1  0  0  0
 14 16  1  0  0  0
 15 42  1  0  0  0
 15 43  1  0  0  0
 15 44  1  0  0  0
 16 17  3  0  0  0
 20 21  1  0  0  0
 20 45  1  0  0  0
 20 46  1  0  0  0
 21 22  1  0  0  0
 22 23  2  0  0  0
 22 24  1  0  0  0
 23 47  1  0  0  0
 24 48  1  0  0  0
 24 53  1  0  0  0
 25 26  1  0  0  0
 25 49  1  0  0  0
 26 27  1  0  0  0
 27 28  2  0  0  0
 27 32  1  0  0  0
 28 29  1  0  0  0
 28 50  1  0  0  0
 29 30  2  0  0  0
 29 51  1  0  0  0
 30 31  1  0  0  0
 30 52  1  0  0  0
 31 32  2  0  0  0
 32 33  1  0  0  0
M  CHG  1  23   1
M  END
> <s_m_source_file>
../4rcd_ligand.sdf

> <i_m_source_file_index>
1

> <s_epik_input>
RmMxbltjSF1bY0hdW2NIXWMxLWMoW2NIXTIpW2NIXVtjSF1jKGMyW0NAQF0zNFtDSDJdTy9DKFtOSF00KT1OXFtIXSlPYzVjM1tjSF1jKFtjSF1uNSlDI0NDNihbQ0gzXSlbQ0gyXU9bQ0gyXTY=

> <s_epik_cmdline>
J2VwaWtfYXBwJywgJy1pbWFlJywgJ2xpZ2FuZF9wcm8ubWFlJywgJy1vbWFlJywgJ2xpZ2FuZF9wcmVwLm1hZScsICctbXMnLCAnMScsICctcGgnLCAnNycsICctcGh0JywgJzAuNScsICctbnQn

> <r_lp_tautomer_probability>
1

> <r_epik_Ionization_Penalty>
  0.1087

> <r_epik_Ionization_Penalty_Charging>
  0.0363

> <r_epik_Ionization_Penalty_Neutral>
  0.0724

> <r_epik_State_Penalty>
 -0.0000

> <r_epik_Charging_Adjusted_Penalty>
0.0362699889763903

> <i_epik_Tot_Q>
1

> <i_epik_Tot_abs_Q>
1

> <s_epik_Chemistry_Notes>
This compound has an imine and may undergo hydrolysis.

$$$$
