4rcg_ligand
                    3D
 Schrodinger Suite 2020-3.
 40 42  0  0  1  0            999 V2000
  -16.5130  -14.3450  -33.0120 P   0  0  0  0  0  0
  -16.9580  -13.7400  -31.7060 O   0  0  0  0  0  0
  -17.3870  -14.1710  -34.2370 O   0  5  0  0  0  0
  -16.0210  -15.7740  -32.9820 O   0  5  0  0  0  0
  -15.2850  -13.5240  -33.5970 O   0  0  0  0  0  0
  -14.1430  -12.7880  -32.7160 P   0  0  1  0  0  0
  -14.5830  -11.3910  -32.3410 O   0  5  0  0  0  0
  -13.4810  -13.6040  -31.6530 O   0  0  0  0  0  0
  -13.2220  -12.6450  -34.0090 O   0  0  0  0  0  0
  -11.9690  -13.2270  -33.8300 C   0  0  0  0  0  0
  -11.1420  -13.4300  -35.0880 C   0  0  1  0  0  0
  -11.4880  -12.5920  -36.2110 O   0  0  0  0  0  0
   -9.7680  -12.9670  -34.6400 C   0  0  1  0  0  0
   -8.7900  -13.7100  -35.3770 O   0  0  0  0  0  0
   -9.8790  -11.4710  -34.9620 C   0  0  1  0  0  0
   -8.6290  -10.8310  -35.0820 O   0  0  0  0  0  0
  -10.5720  -11.4780  -36.3020 C   0  0  2  0  0  0
  -11.2430  -10.1870  -36.5210 N   0  0  0  0  0  0
  -12.3070   -9.7150  -35.8300 C   0  0  0  0  0  0
  -12.7070   -8.5170  -36.3170 N   0  0  0  0  0  0
  -11.8970   -8.2320  -37.3290 C   0  0  0  0  0  0
  -11.7610   -7.1290  -38.2570 C   0  0  0  0  0  0
  -12.5200   -6.1650  -38.2100 O   0  0  0  0  0  0
  -10.8080   -7.1750  -39.1760 N   0  3  0  0  0  0
   -9.9870   -8.2280  -39.2680 C   0  0  0  0  0  0
   -9.0560   -8.2150  -40.2360 N   0  0  0  0  0  0
  -10.0490   -9.2810  -38.4440 N   0  0  0  0  0  0
  -10.9530   -9.3190  -37.4680 C   0  0  0  0  0  0
  -11.3625  -12.5944  -33.1652 H   0  0  0  0  0  0
  -12.0885  -14.2234  -33.3796 H   0  0  0  0  0  0
  -11.2780  -14.4478  -35.4825 H   0  0  0  0  0  0
   -9.4229  -13.1644  -33.6143 H   0  0  0  0  0  0
   -8.6626  -14.7867  -35.1914 H   0  0  0  0  0  0
  -10.3450  -10.8689  -34.1681 H   0  0  0  0  0  0
   -7.9762  -10.7298  -34.2024 H   0  0  0  0  0  0
   -9.9239  -11.6114  -37.1807 H   0  0  0  0  0  0
  -12.7786  -10.2306  -34.9934 H   0  0  0  0  0  0
   -8.9890   -7.3587  -40.9232 H   0  0  0  0  0  0
   -8.3605   -9.0607  -40.3416 H   0  0  0  0  0  0
  -10.6815   -6.3389  -39.8795 H   0  0  0  0  0  0
  1  2  2  0  0  0
  1  3  1  0  0  0
  1  4  1  0  0  0
  1  5  1  0  0  0
  5  6  1  0  0  0
  6  7  1  0  0  0
  6  8  2  0  0  0
  6  9  1  0  0  0
  9 10  1  0  0  0
 10 11  1  0  0  0
 10 29  1  0  0  0
 10 30  1  0  0  0
 11 12  1  0  0  0
 11 13  1  0  0  0
 11 31  1  0  0  0
 12 17  1  0  0  0
 13 14  1  0  0  0
 13 15  1  0  0  0
 13 32  1  0  0  0
 14 33  1  0  0  0
 15 16  1  0  0  0
 15 17  1  0  0  0
 15 34  1  0  0  0
 16 35  1  0  0  0
 17 18  1  0  0  0
 17 36  1  0  0  0
 18 19  1  0  0  0
 18 28  1  0  0  0
 19 20  2  0  0  0
 19 37  1  0  0  0
 20 21  1  0  0  0
 21 22  1  0  0  0
 21 28  2  0  0  0
 22 23  2  0  0  0
 22 24  1  0  0  0
 24 25  1  0  0  0
 24 40  1  0  0  0
 25 26  1  0  0  0
 25 27  2  0  0  0
 26 38  1  0  0  0
 26 39  1  0  0  0
 27 28  1  0  0  0
M  CHG  4   3  -1   4  -1   7  -1  24   1
M  END
> <s_m_source_file>
../4rcg_ligand.sdf

> <i_m_source_file_index>
1

> <s_epik_input>
Tz1QKFtPSF0pKFtPSF0pT1tQQF0oPU8pKFtPSF0pT1tDSDJdW0NASF0xT1tDQEhdKFtDQEhdKFtPSF0pW0NAQEhdMVtPSF0pbihbY0hdbjIpYyhjMjMpW25IXWMoPU5cW0hdKVxbbkhdYzM9Tw==

> <s_epik_cmdline>
J2VwaWtfYXBwJywgJy1pbWFlJywgJ2xpZ2FuZF9wcm8ubWFlJywgJy1vbWFlJywgJ2xpZ2FuZF9wcmVwLm1hZScsICctbXMnLCAnMScsICctcGgnLCAnNycsICctcGh0JywgJzAuNScsICctbnQn

> <r_epik_Ionization_Penalty>
  2.4918

> <r_epik_Ionization_Penalty_Charging>
  2.4918

> <r_epik_Ionization_Penalty_Neutral>
  0.0000

> <r_epik_State_Penalty>
  0.1302

> <r_epik_Charging_Adjusted_Penalty>
2.62193179535438

> <i_epik_Tot_Q>
-2

> <i_epik_Tot_abs_Q>
4

> <s_epik_Chemistry_Notes>
This compound has an imine and may undergo hydrolysis. This compound contains an acetal/aminal-like group ( X-CH(R)-Y where X, Y are N, S, or O) that may be acid/base labile, releasing an aldehyde.

$$$$
