4rcp_ligand
                    3D
 Schrodinger Suite 2020-3.
 89 90  0  0  1  0            999 V2000
   -7.5270   -5.8400   17.2710 C   0  0  0  0  0  0
   -7.4560   -5.4200   16.1180 O   0  0  0  0  0  0
   -8.0310   -7.2280   17.5660 C   0  0  0  0  0  0
   -5.6910   -3.3950   19.2810 C   0  0  0  0  0  0
   -7.1650   -5.0940   18.3210 N   0  0  0  0  0  0
   -5.7280   -4.0400   20.3240 O   0  0  0  0  0  0
   -6.5370   -3.7930   18.0840 C   0  0  1  0  0  0
   -7.5370   -2.6460   17.7690 C   0  0  0  0  0  0
   -8.6630   -2.6100   18.7400 C   0  0  0  0  0  0
  -10.4670   -2.9280   16.9660 C   0  0  0  0  0  0
  -11.9400   -3.2860   16.8890 C   0  0  0  0  0  0
  -12.4080   -3.5810   15.4770 C   0  0  0  0  0  0
  -12.4340   -2.3930   14.5380 C   0  0  0  0  0  0
  -12.9530   -2.7650   13.1550 C   0  0  0  0  0  0
  -13.1080   -1.6010   12.1720 C   0  0  0  0  0  0
  -11.8130   -0.8720   11.8310 C   0  0  0  0  0  0
  -11.9950    0.1880   10.7400 C   0  0  0  0  0  0
  -12.3990   -0.3860    9.4000 C   0  0  0  0  0  0
  -11.4410   -0.8510    8.5090 C   0  0  0  0  0  0
  -11.8080   -1.3980    7.2910 C   0  0  0  0  0  0
  -13.1380   -1.4880    6.9440 C   0  0  0  0  0  0
  -14.1000   -1.0060    7.8070 C   0  0  0  0  0  0
  -13.7330   -0.4650    9.0290 C   0  0  0  0  0  0
  -10.0030   -2.7520   18.3550 N   0  0  0  0  0  0
   -8.7050   -2.4470   20.0960 C   0  0  0  0  0  0
  -10.7470   -2.6870   19.4900 C   0  0  0  0  0  0
  -10.0110   -2.3810   20.5390 N   0  3  0  0  0  0
   -4.9210   -2.3260   19.1210 N   0  0  0  0  0  0
   -4.0500   -1.8510   20.1820 C   0  0  2  0  0  0
   -4.8720   -1.2170   21.2970 C   0  0  0  0  0  0
   -6.0990   -1.1440   21.2180 O   0  0  0  0  0  0
   -3.0440   -0.8370   19.6220 C   0  0  0  0  0  0
   -3.6990    0.2720   19.0220 O   0  0  0  0  0  0
   -4.1990   -0.7460   22.3550 N   0  0  0  0  0  0
   -4.8950   -0.4640   23.6010 C   0  0  1  0  0  0
   -3.9300   -0.1100   24.7500 C   0  0  1  0  0  0
   -4.6540    0.0600   26.0660 C   0  0  0  0  0  0
   -3.0320   -1.2330   24.8140 O   0  0  0  0  0  0
   -1.4630   -1.1260   24.4670 P   0  0  0  0  0  0
   -0.7940   -0.0050   25.1910 O   0  0  0  0  0  0
   -0.9540   -2.5090   24.8340 O   0  5  0  0  0  0
   -1.4560   -0.9180   22.9580 O   0  5  0  0  0  0
   -5.7690    0.7600   23.3740 C   0  0  0  0  0  0
   -5.3440    1.7620   22.8460 O   0  0  0  0  0  0
   -7.0280    0.6720   23.7910 N   0  0  0  0  0  0
   -8.2928   -7.7310   16.6234 H   0  0  0  0  0  0
   -8.9219   -7.1658   18.2082 H   0  0  0  0  0  0
   -7.2464   -7.8010   18.0819 H   0  0  0  0  0  0
   -7.3326   -5.4445   19.3501 H   0  0  0  0  0  0
   -5.9167   -3.9865   17.1964 H   0  0  0  0  0  0
   -7.0127   -1.6800   17.8134 H   0  0  0  0  0  0
   -7.9551   -2.7903   16.7618 H   0  0  0  0  0  0
   -9.8702   -3.7304   16.5077 H   0  0  0  0  0  0
  -10.2900   -1.9857   16.4268 H   0  0  0  0  0  0
  -12.1318   -4.1821   17.4974 H   0  0  0  0  0  0
  -12.5415   -2.4479   17.2709 H   0  0  0  0  0  0
  -11.7410   -4.3253   15.0176 H   0  0  0  0  0  0
  -13.4340   -3.9765   15.5059 H   0  0  0  0  0  0
  -13.0906   -1.6133   14.9513 H   0  0  0  0  0  0
  -11.4157   -1.9927   14.4248 H   0  0  0  0  0  0
  -12.2611   -3.4783   12.6834 H   0  0  0  0  0  0
  -13.9474   -3.2258   13.2483 H   0  0  0  0  0  0
  -13.5195   -1.9750   11.2229 H   0  0  0  0  0  0
  -13.7906   -0.8505   12.5971 H   0  0  0  0  0  0
  -11.4297   -0.3658   12.7293 H   0  0  0  0  0  0
  -11.0675   -1.5971   11.4725 H   0  0  0  0  0  0
  -12.7798    0.8962   11.0442 H   0  0  0  0  0  0
  -11.0489    0.7298   10.5936 H   0  0  0  0  0  0
  -10.3853   -0.7845    8.7720 H   0  0  0  0  0  0
  -11.0419   -1.7586    6.6045 H   0  0  0  0  0  0
  -13.4282   -1.9370    5.9941 H   0  0  0  0  0  0
  -15.1524   -1.0508    7.5269 H   0  0  0  0  0  0
  -14.5027   -0.0968    9.7073 H   0  0  0  0  0  0
   -7.8279   -2.3785   20.7396 H   0  0  0  0  0  0
  -11.8215   -2.8661   19.5280 H   0  0  0  0  0  0
   -4.9529   -1.7967   18.1573 H   0  0  0  0  0  0
   -3.5290   -2.7406   20.5657 H   0  0  0  0  0  0
   -2.4065   -0.4644   20.4373 H   0  0  0  0  0  0
   -2.4176   -1.3243   18.8603 H   0  0  0  0  0  0
   -3.1072    1.0843   18.5749 H   0  0  0  0  0  0
   -3.1154   -0.5725   22.2788 H   0  0  0  0  0  0
   -5.4533   -1.3835   23.8309 H   0  0  0  0  0  0
   -3.3669    0.8205   24.5855 H   0  0  0  0  0  0
   -5.3355    0.9210   26.0010 H   0  0  0  0  0  0
   -3.9212    0.2321   26.8681 H   0  0  0  0  0  0
   -5.2322   -0.8494   26.2865 H   0  0  0  0  0  0
   -7.3861   -0.2523   24.2678 H   0  0  0  0  0  0
   -7.7118    1.5235   23.6593 H   0  0  0  0  0  0
  -10.2243   -2.1131   21.5843 H   0  0  0  0  0  0
  1  2  2  0  0  0
  1  3  1  0  0  0
  1  5  1  0  0  0
  3 46  1  0  0  0
  3 47  1  0  0  0
  3 48  1  0  0  0
  4  6  2  0  0  0
  4  7  1  0  0  0
  4 28  1  0  0  0
  5  7  1  0  0  0
  5 49  1  0  0  0
  7  8  1  0  0  0
  7 50  1  0  0  0
  8  9  1  0  0  0
  8 51  1  0  0  0
  8 52  1  0  0  0
  9 24  1  0  0  0
  9 25  2  0  0  0
 10 11  1  0  0  0
 10 24  1  0  0  0
 10 53  1  0  0  0
 10 54  1  0  0  0
 11 12  1  0  0  0
 11 55  1  0  0  0
 11 56  1  0  0  0
 12 13  1  0  0  0
 12 57  1  0  0  0
 12 58  1  0  0  0
 13 14  1  0  0  0
 13 59  1  0  0  0
 13 60  1  0  0  0
 14 15  1  0  0  0
 14 61  1  0  0  0
 14 62  1  0  0  0
 15 16  1  0  0  0
 15 63  1  0  0  0
 15 64  1  0  0  0
 16 17  1  0  0  0
 16 65  1  0  0  0
 16 66  1  0  0  0
 17 18  1  0  0  0
 17 67  1  0  0  0
 17 68  1  0  0  0
 18 19  2  0  0  0
 18 23  1  0  0  0
 19 20  1  0  0  0
 19 69  1  0  0  0
 20 21  2  0  0  0
 20 70  1  0  0  0
 21 22  1  0  0  0
 21 71  1  0  0  0
 22 23  2  0  0  0
 22 72  1  0  0  0
 23 73  1  0  0  0
 24 26  1  0  0  0
 25 27  1  0  0  0
 25 74  1  0  0  0
 26 27  2  0  0  0
 26 75  1  0  0  0
 27 89  1  0  0  0
 28 29  1  0  0  0
 28 76  1  0  0  0
 29 30  1  0  0  0
 29 32  1  0  0  0
 29 77  1  0  0  0
 30 31  2  0  0  0
 30 34  1  0  0  0
 32 33  1  0  0  0
 32 78  1  0  0  0
 32 79  1  0  0  0
 33 80  1  0  0  0
 34 35  1  0  0  0
 34 81  1  0  0  0
 35 36  1  0  0  0
 35 43  1  0  0  0
 35 82  1  0  0  0
 36 37  1  0  0  0
 36 38  1  0  0  0
 36 83  1  0  0  0
 37 84  1  0  0  0
 37 85  1  0  0  0
 37 86  1  0  0  0
 38 39  1  0  0  0
 39 40  2  0  0  0
 39 41  1  0  0  0
 39 42  1  0  0  0
 43 44  2  0  0  0
 43 45  1  0  0  0
 45 87  1  0  0  0
 45 88  1  0  0  0
M  CHG  3  27   1  41  -1  42  -1
M  END
> <s_m_source_file>
../4rcp_ligand.sdf

> <i_m_source_file_index>
1

> <s_epik_input>
Tz1QKFtPSF0pKFtPSF0pT1tDQEhdKFtDSDNdKVtDQEBIXShDKD1PKVtOSDJdKVtOSF1DKD1PKVtDQEhdKFtDSDJdW09IXSlbTkhdQyg9TylbQ0BASF0oW05IXUMoPU8pW0NIM10pW0NIMl1jMW4oW2NIXW5bY0hdMSlbQ0gyXVtDSDJdW0NIMl1bQ0gyXVtDSDJdW0NIMl1bQ0gyXVtDSDJdYzJbY0hdW2NIXVtjSF1bY0hdW2NIXTI=

> <s_epik_cmdline>
J2VwaWtfYXBwJywgJy1pbWFlJywgJ2xpZ2FuZF9wcm8ubWFlJywgJy1vbWFlJywgJ2xpZ2FuZF9wcmVwLm1hZScsICctbXMnLCAnMScsICctcGgnLCAnNycsICctcGh0JywgJzAuNScsICctbnQn

> <r_lp_tautomer_probability>
1

> <r_epik_Ionization_Penalty>
  0.3368

> <r_epik_Ionization_Penalty_Charging>
  0.0862

> <r_epik_Ionization_Penalty_Neutral>
  0.2506

> <r_epik_State_Penalty>
 -0.0000

> <r_epik_Charging_Adjusted_Penalty>
0.0861825483729033

> <i_epik_Tot_Q>
-1

> <i_epik_Tot_abs_Q>
3

$$$$
