4rd0_ligand
                    3D
 Schrodinger Suite 2020-3.
 40 42  0  0  1  0            999 V2000
  -29.7330  -17.6060   18.7270 P   0  0  0  0  0  0
  -30.8720  -16.7030   19.1660 O   0  5  0  0  0  0
  -29.3720  -17.3490   17.3060 O   0  0  0  0  0  0
  -28.5610  -17.4090   19.6610 O   0  5  0  0  0  0
  -30.2450  -19.1290   18.8020 O   0  0  0  0  0  0
  -30.1220  -20.0740   20.0900 P   0  0  1  0  0  0
  -28.7710  -20.7320   20.1480 O   0  0  0  0  0  0
  -30.5330  -19.4060   21.3950 O   0  5  0  0  0  0
  -31.2250  -21.1830   19.6960 O   0  0  0  0  0  0
  -32.5970  -20.8330   19.4960 C   0  0  0  0  0  0
  -33.4000  -22.1260   19.5200 C   0  0  1  0  0  0
  -32.9820  -22.9380   18.4190 O   0  0  0  0  0  0
  -33.1260  -22.9380   20.7750 C   0  0  1  0  0  0
  -34.3450  -23.5870   21.1360 O   0  0  0  0  0  0
  -32.1280  -23.9870   20.3270 C   0  0  1  0  0  0
  -32.1850  -25.1780   21.1080 O   0  0  0  0  0  0
  -32.5500  -24.2110   18.8830 C   0  0  2  0  0  0
  -31.4140  -24.7270   18.0930 N   0  0  0  0  0  0
  -30.1710  -24.2100   18.0190 C   0  0  0  0  0  0
  -29.3920  -24.9600   17.1930 N   0  0  0  0  0  0
  -30.1560  -25.9680   16.7230 C   0  0  0  0  0  0
  -29.9660  -27.1170   15.8180 C   0  0  0  0  0  0
  -28.8560  -27.3050   15.2910 O   0  0  0  0  0  0
  -31.0080  -27.9330   15.5810 N   0  3  0  0  0  0
  -32.2130  -27.7330   16.1580 C   0  0  0  0  0  0
  -33.2310  -28.5890   15.8770 N   0  0  0  0  0  0
  -32.4580  -26.6970   17.0060 N   0  0  0  0  0  0
  -31.4840  -25.8050   17.3170 C   0  0  0  0  0  0
  -32.9247  -20.1592   20.3014 H   0  0  0  0  0  0
  -32.7085  -20.3264   18.5260 H   0  0  0  0  0  0
  -34.4701  -21.8891   19.4269 H   0  0  0  0  0  0
  -32.8024  -22.3588   21.6524 H   0  0  0  0  0  0
  -35.2003  -22.9930   21.4905 H   0  0  0  0  0  0
  -31.0708  -23.7250   20.4809 H   0  0  0  0  0  0
  -31.9045  -25.1524   22.1713 H   0  0  0  0  0  0
  -33.3728  -24.9278   18.7442 H   0  0  0  0  0  0
  -29.8370  -23.3167   18.5467 H   0  0  0  0  0  0
  -33.0649  -29.4362   15.1953 H   0  0  0  0  0  0
  -34.2208  -28.4345   16.3313 H   0  0  0  0  0  0
  -30.8918  -28.7903   14.9017 H   0  0  0  0  0  0
  1  2  1  0  0  0
  1  3  2  0  0  0
  1  4  1  0  0  0
  1  5  1  0  0  0
  5  6  1  0  0  0
  6  7  2  0  0  0
  6  8  1  0  0  0
  6  9  1  0  0  0
  9 10  1  0  0  0
 10 11  1  0  0  0
 10 29  1  0  0  0
 10 30  1  0  0  0
 11 12  1  0  0  0
 11 13  1  0  0  0
 11 31  1  0  0  0
 12 17  1  0  0  0
 13 14  1  0  0  0
 13 15  1  0  0  0
 13 32  1  0  0  0
 14 33  1  0  0  0
 15 16  1  0  0  0
 15 17  1  0  0  0
 15 34  1  0  0  0
 16 35  1  0  0  0
 17 18  1  0  0  0
 17 36  1  0  0  0
 18 19  1  0  0  0
 18 28  1  0  0  0
 19 20  2  0  0  0
 19 37  1  0  0  0
 20 21  1  0  0  0
 21 22  1  0  0  0
 21 28  2  0  0  0
 22 23  2  0  0  0
 22 24  1  0  0  0
 24 25  1  0  0  0
 24 40  1  0  0  0
 25 26  1  0  0  0
 25 27  2  0  0  0
 26 38  1  0  0  0
 26 39  1  0  0  0
 27 28  1  0  0  0
M  CHG  4   2  -1   4  -1   8  -1  24   1
M  END
> <s_m_source_file>
../4rd0_ligand.sdf

> <i_m_source_file_index>
1

> <s_epik_input>
W09IXVAoPU8pKFtPSF0pT1tQQEBdKD1PKShbT0hdKU9bQ0gyXVtDQEhdMU9bQ0BIXShbQ0BIXShbT0hdKVtDQEBIXTFbT0hdKW4oW2NIXW4yKWMoYzIzKVtuSF1jKD1OXFtIXSlcW25IXWMzPU8=

> <s_epik_cmdline>
J2VwaWtfYXBwJywgJy1pbWFlJywgJ2xpZ2FuZF9wcm8ubWFlJywgJy1vbWFlJywgJ2xpZ2FuZF9wcmVwLm1hZScsICctbXMnLCAnMScsICctcGgnLCAnNycsICctcGh0JywgJzAuNScsICctbnQn

> <r_epik_Ionization_Penalty>
  2.4918

> <r_epik_Ionization_Penalty_Charging>
  2.4918

> <r_epik_Ionization_Penalty_Neutral>
  0.0000

> <r_epik_State_Penalty>
  0.1302

> <r_epik_Charging_Adjusted_Penalty>
2.62193179535438

> <i_epik_Tot_Q>
-2

> <i_epik_Tot_abs_Q>
4

> <s_epik_Chemistry_Notes>
This compound has an imine and may undergo hydrolysis. This compound contains an acetal/aminal-like group ( X-CH(R)-Y where X, Y are N, S, or O) that may be acid/base labile, releasing an aldehyde.

$$$$
