4rd3_ligand
                    3D
 Schrodinger Suite 2020-3.
 40 42  0  0  1  0            999 V2000
  -30.1160  -17.4470   18.8550 P   0  0  0  0  0  0
  -31.3010  -16.5850   19.1960 O   0  0  0  0  0  0
  -29.7560  -17.2090   17.3940 O   0  5  0  0  0  0
  -28.9420  -17.1320   19.7480 O   0  5  0  0  0  0
  -30.5060  -18.9890   18.9480 O   0  0  0  0  0  0
  -30.5090  -19.8300   20.3330 P   0  0  1  0  0  0
  -29.1300  -20.3550   20.5560 O   0  0  0  0  0  0
  -31.0950  -19.0640   21.4850 O   0  5  0  0  0  0
  -31.4870  -21.0030   19.8410 O   0  0  0  0  0  0
  -32.8760  -20.6870   19.6950 C   0  0  0  0  0  0
  -33.7020  -21.9610   19.6310 C   0  0  1  0  0  0
  -33.2610  -22.7710   18.5430 O   0  0  0  0  0  0
  -33.5070  -22.7900   20.8820 C   0  0  1  0  0  0
  -34.7670  -23.3700   21.2240 O   0  0  0  0  0  0
  -32.5350  -23.8660   20.4390 C   0  0  1  0  0  0
  -32.5530  -25.0440   21.2650 O   0  0  0  0  0  0
  -32.9580  -24.0830   18.9920 C   0  0  2  0  0  0
  -31.8260  -24.6280   18.2250 N   0  0  0  0  0  0
  -30.5750  -24.1240   18.1720 C   0  0  0  0  0  0
  -29.7780  -24.8840   17.3810 N   0  0  0  0  0  0
  -30.5360  -25.8980   16.9210 C   0  0  0  0  0  0
  -30.3270  -27.0630   16.0410 C   0  0  0  0  0  0
  -29.2050  -27.2720   15.5420 O   0  0  0  0  0  0
  -31.3680  -27.8730   15.8110 N   0  3  0  0  0  0
  -32.5830  -27.6630   16.3610 C   0  0  0  0  0  0
  -33.5930  -28.5250   16.0820 N   0  0  0  0  0  0
  -32.8460  -26.6140   17.1820 N   0  0  0  0  0  0
  -31.8810  -25.7240   17.4830 C   0  0  0  0  0  0
  -33.2077  -20.0864   20.5548 H   0  0  0  0  0  0
  -33.0263  -20.1143   18.7679 H   0  0  0  0  0  0
  -34.7573  -21.6975   19.4671 H   0  0  0  0  0  0
  -33.1863  -22.2409   21.7796 H   0  0  0  0  0  0
  -35.5922  -22.7292   21.5680 H   0  0  0  0  0  0
  -31.4700  -23.6256   20.5732 H   0  0  0  0  0  0
  -32.2620  -24.9779   22.3237 H   0  0  0  0  0  0
  -33.8139  -24.7557   18.8341 H   0  0  0  0  0  0
  -30.2488  -23.2254   18.6956 H   0  0  0  0  0  0
  -33.4146  -29.3856   15.4205 H   0  0  0  0  0  0
  -34.5902  -28.3632   16.5173 H   0  0  0  0  0  0
  -31.2502  -28.7467   15.1532 H   0  0  0  0  0  0
  1  2  2  0  0  0
  1  3  1  0  0  0
  1  4  1  0  0  0
  1  5  1  0  0  0
  5  6  1  0  0  0
  6  7  2  0  0  0
  6  8  1  0  0  0
  6  9  1  0  0  0
  9 10  1  0  0  0
 10 11  1  0  0  0
 10 29  1  0  0  0
 10 30  1  0  0  0
 11 12  1  0  0  0
 11 13  1  0  0  0
 11 31  1  0  0  0
 12 17  1  0  0  0
 13 14  1  0  0  0
 13 15  1  0  0  0
 13 32  1  0  0  0
 14 33  1  0  0  0
 15 16  1  0  0  0
 15 17  1  0  0  0
 15 34  1  0  0  0
 16 35  1  0  0  0
 17 18  1  0  0  0
 17 36  1  0  0  0
 18 19  1  0  0  0
 18 28  1  0  0  0
 19 20  2  0  0  0
 19 37  1  0  0  0
 20 21  1  0  0  0
 21 22  1  0  0  0
 21 28  2  0  0  0
 22 23  2  0  0  0
 22 24  1  0  0  0
 24 25  1  0  0  0
 24 40  1  0  0  0
 25 26  1  0  0  0
 25 27  2  0  0  0
 26 38  1  0  0  0
 26 39  1  0  0  0
 27 28  1  0  0  0
M  CHG  4   3  -1   4  -1   8  -1  24   1
M  END
> <s_m_source_file>
../4rd3_ligand.sdf

> <i_m_source_file_index>
1

> <s_epik_input>
Tz1QKFtPSF0pKFtPSF0pT1tQQEBdKD1PKShbT0hdKU9bQ0gyXVtDQEhdMU9bQ0BIXShbQ0BIXShbT0hdKVtDQEBIXTFbT0hdKW4oW2NIXW4yKWMoYzIzKVtuSF1jKD1OXFtIXSlcW25IXWMzPU8=

> <s_epik_cmdline>
J2VwaWtfYXBwJywgJy1pbWFlJywgJ2xpZ2FuZF9wcm8ubWFlJywgJy1vbWFlJywgJ2xpZ2FuZF9wcmVwLm1hZScsICctbXMnLCAnMScsICctcGgnLCAnNycsICctcGh0JywgJzAuNScsICctbnQn

> <r_epik_Ionization_Penalty>
  2.4918

> <r_epik_Ionization_Penalty_Charging>
  2.4918

> <r_epik_Ionization_Penalty_Neutral>
  0.0000

> <r_epik_State_Penalty>
  0.1302

> <r_epik_Charging_Adjusted_Penalty>
2.62193179535438

> <i_epik_Tot_Q>
-2

> <i_epik_Tot_abs_Q>
4

> <s_epik_Chemistry_Notes>
This compound has an imine and may undergo hydrolysis. This compound contains an acetal/aminal-like group ( X-CH(R)-Y where X, Y are N, S, or O) that may be acid/base labile, releasing an aldehyde.

$$$$
