4rdn_ligand
                    3D
 Schrodinger Suite 2020-3.
 35 37  0  0  1  0            999 V2000
   -9.1750  -29.2620   14.5420 O   0  0  0  0  0  0
   -8.6590  -29.0550   13.2450 C   0  0  0  0  0  0
   -9.1110  -30.2000   12.3530 C   0  0  1  0  0  0
  -10.5400  -30.1860   12.1800 O   0  0  0  0  0  0
   -8.5090  -30.0820   10.9640 C   0  0  1  0  0  0
   -7.2270  -30.6940   10.8420 O   0  0  0  0  0  0
   -9.5570  -30.7490   10.0960 C   0  0  1  0  0  0
   -9.3310  -32.1510    9.9870 O   0  0  0  0  0  0
  -10.8680  -30.4610   10.8210 C   0  0  2  0  0  0
  -11.5420  -29.2340   10.3370 N   0  0  0  0  0  0
  -10.9670  -28.1470    9.7730 C   0  0  0  0  0  0
  -11.8960  -27.2020    9.4900 N   0  0  0  0  0  0
  -13.0840  -27.6820    9.8850 C   0  0  0  0  0  0
  -14.4810  -27.1930    9.8680 C   0  0  0  0  0  0
  -14.7500  -25.9590    9.3930 N   0  0  0  0  0  0
  -15.4300  -28.0150   10.3860 N   0  0  0  0  0  0
  -15.1390  -29.2230   10.8940 C   0  0  0  0  0  0
  -13.8960  -29.7260   10.9340 N   0  0  0  0  0  0
  -12.8470  -29.0160   10.4500 C   0  0  0  0  0  0
  -16.0620  -25.3510    9.5340 C   0  0  0  0  0  0
   -8.9594  -28.5381   15.3417 H   0  0  0  0  0  0
   -9.0360  -28.1008   12.8484 H   0  0  0  0  0  0
   -7.5602  -29.0257   13.2879 H   0  0  0  0  0  0
   -8.8342  -31.1427   12.8476 H   0  0  0  0  0  0
   -8.2389  -29.0567   10.6712 H   0  0  0  0  0  0
   -6.3751  -30.3060   11.4197 H   0  0  0  0  0  0
   -9.5307  -30.4318    9.0430 H   0  0  0  0  0  0
   -8.4248  -32.5249    9.4879 H   0  0  0  0  0  0
  -11.5493  -31.3181   10.7151 H   0  0  0  0  0  0
   -9.9003  -28.0451    9.5732 H   0  0  0  0  0  0
  -13.9414  -25.4111    8.8870 H   0  0  0  0  0  0
  -15.9541  -29.8258   11.2943 H   0  0  0  0  0  0
  -16.0535  -24.3505    9.0768 H   0  0  0  0  0  0
  -16.3131  -25.2643   10.6014 H   0  0  0  0  0  0
  -16.8126  -25.9779    9.0305 H   0  0  0  0  0  0
  1  2  1  0  0  0
  1 21  1  0  0  0
  2  3  1  0  0  0
  2 22  1  0  0  0
  2 23  1  0  0  0
  3  4  1  0  0  0
  3  5  1  0  0  0
  3 24  1  0  0  0
  4  9  1  0  0  0
  5  6  1  0  0  0
  5  7  1  0  0  0
  5 25  1  0  0  0
  6 26  1  0  0  0
  7  8  1  0  0  0
  7  9  1  0  0  0
  7 27  1  0  0  0
  8 28  1  0  0  0
  9 10  1  0  0  0
  9 29  1  0  0  0
 10 11  1  0  0  0
 10 19  1  0  0  0
 11 12  2  0  0  0
 11 30  1  0  0  0
 12 13  1  0  0  0
 13 14  2  0  0  0
 13 19  1  0  0  0
 14 15  1  0  0  0
 14 16  1  0  0  0
 15 20  1  0  0  0
 15 31  1  0  0  0
 16 17  2  0  0  0
 17 18  1  0  0  0
 17 32  1  0  0  0
 18 19  2  0  0  0
 20 33  1  0  0  0
 20 34  1  0  0  0
 20 35  1  0  0  0
M  END
> <s_m_source_file>
../4rdn_ligand.sdf

> <i_m_source_file_index>
1

> <s_epik_input>
W09IXVtDSDJdW0NASF0xT1tDQEhdKFtDQEhdKFtPSF0pW0NAQEhdMVtPSF0pbihbY0hdbjIpYyhjMjMpbltjSF1uYzNbTkhdW0NIM10=

> <s_epik_cmdline>
J2VwaWtfYXBwJywgJy1pbWFlJywgJ2xpZ2FuZF9wcm8ubWFlJywgJy1vbWFlJywgJ2xpZ2FuZF9wcmVwLm1hZScsICctbXMnLCAnMScsICctcGgnLCAnNycsICctcGh0JywgJzAuNScsICctbnQn

> <r_lp_tautomer_probability>
1

> <r_epik_Ionization_Penalty>
  0.0005

> <r_epik_Ionization_Penalty_Charging>
  0.0000

> <r_epik_Ionization_Penalty_Neutral>
  0.0005

> <r_epik_State_Penalty>
 -0.0000

> <r_epik_Charging_Adjusted_Penalty>
0

> <i_epik_Tot_Q>
0

> <i_epik_Tot_abs_Q>
0

> <s_epik_Chemistry_Notes>
This compound contains an acetal/aminal-like group ( X-CH(R)-Y where X, Y are N, S, or O) that may be acid/base labile, releasing an aldehyde.

$$$$
