4re2_ligand
                    3D
 Schrodinger Suite 2020-3.
 27 28  0  0  1  0            999 V2000
    8.6580   12.4580   13.4040 C   0  0  0  0  0  0
    9.0560   13.0720   12.3080 N   0  0  0  0  0  0
    8.7310   10.2090   12.3540 C   0  0  2  0  0  0
    8.9810   11.0150   11.0590 C   0  0  1  0  0  0
    9.8170   12.2840   11.2990 C   0  0  1  0  0  0
   10.1250   13.0950   10.0440 C   0  0  0  0  0  0
    7.9500   14.5290   13.5170 C   0  0  0  0  0  0
    8.6440   14.3530   12.3330 C   0  0  0  0  0  0
    7.9870   13.3400   14.1710 N   0  3  0  0  0  0
    7.3710    9.7560   12.3840 O   0  0  0  0  0  0
    8.3080   10.5060   14.7780 O   0  0  0  0  0  0
    9.6180   10.1620   10.1060 O   0  0  0  0  0  0
    8.9980   11.0230   13.6330 C   0  0  2  0  0  0
    8.9290   13.6660    9.5110 O   0  0  0  0  0  0
    9.3751    9.3174   12.3433 H   0  0  0  0  0  0
    8.0265   11.3194   10.6048 H   0  0  0  0  0  0
   10.8180   12.0277   11.6764 H   0  0  0  0  0  0
   10.8268   13.9044   10.2936 H   0  0  0  0  0  0
   10.5766   12.4391    9.2852 H   0  0  0  0  0  0
    7.4672   15.4447   13.8584 H   0  0  0  0  0  0
    8.8228   15.1075   11.5670 H   0  0  0  0  0  0
    6.9743    9.1512   11.5552 H   0  0  0  0  0  0
    8.4166   10.9998   15.7549 H   0  0  0  0  0  0
    9.1488    9.2088    9.8209 H   0  0  0  0  0  0
   10.0541   10.9383   13.9286 H   0  0  0  0  0  0
    8.9722   14.2841    8.6021 H   0  0  0  0  0  0
    7.5844   13.0267   15.1456 H   0  0  0  0  0  0
  1  2  1  0  0  0
  1  9  2  0  0  0
  1 13  1  0  0  0
  2  5  1  0  0  0
  2  8  1  0  0  0
  3  4  1  0  0  0
  3 10  1  0  0  0
  3 13  1  0  0  0
  3 15  1  0  0  0
  4  5  1  0  0  0
  4 12  1  0  0  0
  4 16  1  0  0  0
  5  6  1  0  0  0
  5 17  1  0  0  0
  6 14  1  0  0  0
  6 18  1  0  0  0
  6 19  1  0  0  0
  7  8  2  0  0  0
  7  9  1  0  0  0
  7 20  1  0  0  0
  8 21  1  0  0  0
  9 27  1  0  0  0
 10 22  1  0  0  0
 11 13  1  0  0  0
 11 23  1  0  0  0
 12 24  1  0  0  0
 13 25  1  0  0  0
 14 26  1  0  0  0
M  CHG  1   9   1
M  END
> <s_m_source_file>
../4re2_ligand.sdf

> <i_m_source_file_index>
1

> <s_epik_input>
bjFbY0hdW2NIXW4oYzEyKVtDQEhdKFtDSDJdW09IXSlbQ0BASF0oW09IXSlbQ0BIXShbT0hdKVtDQEBIXTJbT0hd

> <s_epik_cmdline>
J2VwaWtfYXBwJywgJy1pbWFlJywgJ2xpZ2FuZF9wcm8ubWFlJywgJy1vbWFlJywgJ2xpZ2FuZF9wcmVwLm1hZScsICctbXMnLCAnMScsICctcGgnLCAnNycsICctcGh0JywgJzAuNScsICctbnQn

> <r_lp_tautomer_probability>
1

> <r_epik_Ionization_Penalty>
  0.2921

> <r_epik_Ionization_Penalty_Charging>
  0.0000

> <r_epik_Ionization_Penalty_Neutral>
  0.2921

> <r_epik_State_Penalty>
  0.2847

> <r_epik_Charging_Adjusted_Penalty>
0.284745957002556

> <i_epik_Tot_Q>
1

> <i_epik_Tot_abs_Q>
1

$$$$
