4re3_ligand
                    3D
 Schrodinger Suite 2020-3.
 27 28  0  0  1  0            999 V2000
    8.3490   13.6630   12.9840 C   0  0  0  0  0  0
    8.1120   12.2010   13.1710 C   0  0  1  0  0  0
    9.1970   14.1970   12.0980 N   0  0  0  0  0  0
    9.0130   11.3970   12.2200 C   0  0  2  0  0  0
    9.2400   12.1150   10.8960 C   0  0  1  0  0  0
   10.0440   13.3850   11.1790 C   0  0  1  0  0  0
   10.4640   14.1910    9.9380 C   0  0  0  0  0  0
    8.2350   15.8410   13.1810 C   0  0  0  0  0  0
    9.1430   15.5330   12.2020 C   0  0  0  0  0  0
    7.7600   14.6760   13.6510 N   0  3  0  0  0  0
    8.4530   10.1010   12.0020 O   0  0  0  0  0  0
    8.3860   11.8260   14.5310 O   0  0  0  0  0  0
    9.9080   11.2670    9.9540 O   0  0  0  0  0  0
    9.3500   14.8710    9.3220 O   0  0  0  0  0  0
    7.0460   11.9874   13.0034 H   0  0  0  0  0  0
    9.9918   11.2177   12.6888 H   0  0  0  0  0  0
    8.2904   12.3408   10.3888 H   0  0  0  0  0  0
   11.0009   13.1145   11.6493 H   0  0  0  0  0  0
   11.2072   14.9487   10.2272 H   0  0  0  0  0  0
   10.9032   13.5128    9.1916 H   0  0  0  0  0  0
    7.9525   16.8396   13.5143 H   0  0  0  0  0  0
    9.7188   16.2467   11.6128 H   0  0  0  0  0  0
    8.2267    9.4485   12.8582 H   0  0  0  0  0  0
    7.8326   12.3008   15.3546 H   0  0  0  0  0  0
    9.4501   10.3139    9.6507 H   0  0  0  0  0  0
    9.5093   15.4852    8.4235 H   0  0  0  0  0  0
    7.0210   14.4609   14.4369 H   0  0  0  0  0  0
  1  2  1  0  0  0
  1  3  1  0  0  0
  1 10  2  0  0  0
  2  4  1  0  0  0
  2 12  1  0  0  0
  2 15  1  0  0  0
  3  6  1  0  0  0
  3  9  1  0  0  0
  4  5  1  0  0  0
  4 11  1  0  0  0
  4 16  1  0  0  0
  5  6  1  0  0  0
  5 13  1  0  0  0
  5 17  1  0  0  0
  6  7  1  0  0  0
  6 18  1  0  0  0
  7 14  1  0  0  0
  7 19  1  0  0  0
  7 20  1  0  0  0
  8  9  2  0  0  0
  8 10  1  0  0  0
  8 21  1  0  0  0
  9 22  1  0  0  0
 10 27  1  0  0  0
 11 23  1  0  0  0
 12 24  1  0  0  0
 13 25  1  0  0  0
 14 26  1  0  0  0
M  CHG  1  10   1
M  END
> <s_m_source_file>
../4re3_ligand.sdf

> <i_m_source_file_index>
1

> <s_epik_input>
bjFbY0hdW2NIXW4oYzEyKVtDQEhdKFtDSDJdW09IXSlbQ0BASF0oW09IXSlbQ0BIXShbT0hdKVtDQEhdMltPSF0=

> <s_epik_cmdline>
J2VwaWtfYXBwJywgJy1pbWFlJywgJ2xpZ2FuZF9wcm8ubWFlJywgJy1vbWFlJywgJ2xpZ2FuZF9wcmVwLm1hZScsICctbXMnLCAnMScsICctcGgnLCAnNycsICctcGh0JywgJzAuNScsICctbnQn

> <r_lp_tautomer_probability>
1

> <r_epik_Ionization_Penalty>
  0.2921

> <r_epik_Ionization_Penalty_Charging>
  0.0000

> <r_epik_Ionization_Penalty_Neutral>
  0.2921

> <r_epik_State_Penalty>
  0.2847

> <r_epik_Charging_Adjusted_Penalty>
0.284745957002556

> <i_epik_Tot_Q>
1

> <i_epik_Tot_abs_Q>
1

$$$$
