4res_ligand
                    3D
 Schrodinger Suite 2020-3.
 64 68  0  0  1  0            999 V2000
    8.6860   21.0360   -0.8970 C   0  0  0  0  0  0
    7.1680   20.9330   -1.0390 C   0  0  2  0  0  0
    6.6670   19.5150   -1.2010 C   0  0  0  0  0  0
    6.8530   18.9660   -2.5880 C   0  0  0  0  0  0
    6.3020   19.8460   -3.7150 C   0  0  2  0  0  0
    6.4430   19.1810   -5.1240 C   0  0  1  0  0  0
    7.9090   18.8290   -5.3730 C   0  0  0  0  0  0
    5.6650   17.8350   -5.1250 C   0  0  0  0  0  0
    4.1520   17.9660   -5.0680 C   0  0  0  0  0  0
    3.7120   18.7460   -6.2850 C   0  0  2  0  0  0
    4.1460   18.0100   -7.4060 O   0  0  0  0  0  0
    4.3750   20.1430   -6.2870 C   0  0  0  0  0  0
    5.9220   20.1070   -6.2520 C   0  0  1  0  0  0
    6.5420   21.5060   -6.1370 C   0  0  0  0  0  0
    6.4760   22.1540   -4.7590 C   0  0  0  0  0  0
    6.9580   21.2360   -3.6270 C   0  0  1  0  0  0
    6.7190   21.8720   -2.2080 C   0  0  2  0  0  0
    7.4690   23.0560   -2.1670 O   0  0  0  0  0  0
    5.2680   22.1900   -1.8620 C   0  0  0  0  0  0
    5.1290   22.0330   -0.3390 C   0  0  0  0  0  0
    6.4420   21.4370    0.2200 C   0  0  2  0  0  0
    7.2540   22.3180    1.1590 C   0  0  0  0  0  0
    7.5160   23.7100    0.8900 C   0  0  0  0  0  0
    8.2360   24.4600    1.7410 C   0  0  0  0  0  0
    8.7720   23.8950    2.9690 C   0  0  0  0  0  0
    9.4320   24.4380    3.8320 O   0  0  0  0  0  0
    8.5050   22.5670    3.2050 O   0  0  0  0  0  0
    7.7810   21.8480    2.3280 C   0  0  0  0  0  0
    9.1660   20.6669   -1.8153 H   0  0  0  0  0  0
    9.0162   20.4289   -0.0412 H   0  0  0  0  0  0
    8.9684   22.0863   -0.7322 H   0  0  0  0  0  0
    7.2099   18.8532   -0.5102 H   0  0  0  0  0  0
    5.5912   19.4781   -0.9747 H   0  0  0  0  0  0
    7.9264   18.8338   -2.7891 H   0  0  0  0  0  0
    6.3424   17.9951   -2.6696 H   0  0  0  0  0  0
    5.2202   19.9704   -3.5593 H   0  0  0  0  0  0
    8.2701   18.1720   -4.5681 H   0  0  0  0  0  0
    8.5093   19.7505   -5.3912 H   0  0  0  0  0  0
    8.0028   18.3111   -6.3389 H   0  0  0  0  0  0
    5.8979   17.2776   -6.0442 H   0  0  0  0  0  0
    5.9622   17.2390   -4.2495 H   0  0  0  0  0  0
    3.6969   16.9646   -5.0705 H   0  0  0  0  0  0
    3.8643   18.4972   -4.1487 H   0  0  0  0  0  0
    2.6173   18.8308   -6.3519 H   0  0  0  0  0  0
    3.7757   16.9872   -7.5694 H   0  0  0  0  0  0
    4.0839   20.6857   -7.1985 H   0  0  0  0  0  0
    4.0438   20.7073   -5.4028 H   0  0  0  0  0  0
    6.2474   19.6990   -7.2203 H   0  0  0  0  0  0
    7.6087   21.4571   -6.4010 H   0  0  0  0  0  0
    6.0256   22.1935   -6.8231 H   0  0  0  0  0  0
    7.1094   23.0532   -4.7460 H   0  0  0  0  0  0
    5.4362   22.4347   -4.5352 H   0  0  0  0  0  0
    8.0392   21.1072   -3.7833 H   0  0  0  0  0  0
    8.5461   23.0328   -2.3891 H   0  0  0  0  0  0
    5.0345   23.2195   -2.1711 H   0  0  0  0  0  0
    4.6034   21.4894   -2.3888 H   0  0  0  0  0  0
    4.9422   23.0171    0.1155 H   0  0  0  0  0  0
    4.2881   21.3601   -0.1150 H   0  0  0  0  0  0
    6.2560   20.6325    0.9468 H   0  0  0  0  0  0
    7.1239   24.1765   -0.0258 H   0  0  0  0  0  0
    9.1287   24.8443    1.2259 H   0  0  0  0  0  0
    7.6246   25.3036    2.0937 H   0  0  0  0  0  0
    6.9698   21.4844    2.9759 H   0  0  0  0  0  0
    8.4753   21.0227    2.1116 H   0  0  0  0  0  0
  1  2  1  0  0  0
  1 29  1  0  0  0
  1 30  1  0  0  0
  1 31  1  0  0  0
  2  3  1  0  0  0
  2 17  1  0  0  0
  2 21  1  0  0  0
  3  4  1  0  0  0
  3 32  1  0  0  0
  3 33  1  0  0  0
  4  5  1  0  0  0
  4 34  1  0  0  0
  4 35  1  0  0  0
  5  6  1  0  0  0
  5 16  1  0  0  0
  5 36  1  0  0  0
  6  7  1  0  0  0
  6  8  1  0  0  0
  6 13  1  0  0  0
  7 37  1  0  0  0
  7 38  1  0  0  0
  7 39  1  0  0  0
  8  9  1  0  0  0
  8 40  1  0  0  0
  8 41  1  0  0  0
  9 10  1  0  0  0
  9 42  1  0  0  0
  9 43  1  0  0  0
 10 11  1  0  0  0
 10 12  1  0  0  0
 10 44  1  0  0  0
 11 45  1  0  0  0
 12 13  1  0  0  0
 12 46  1  0  0  0
 12 47  1  0  0  0
 13 14  1  0  0  0
 13 48  1  0  0  0
 14 15  1  0  0  0
 14 49  1  0  0  0
 14 50  1  0  0  0
 15 16  1  0  0  0
 15 51  1  0  0  0
 15 52  1  0  0  0
 16 17  1  0  0  0
 16 53  1  0  0  0
 17 18  1  0  0  0
 17 19  1  0  0  0
 18 54  1  0  0  0
 19 20  1  0  0  0
 19 55  1  0  0  0
 19 56  1  0  0  0
 20 21  1  0  0  0
 20 57  1  0  0  0
 20 58  1  0  0  0
 21 22  1  0  0  0
 21 59  1  0  0  0
 22 23  2  0  0  0
 22 28  1  0  0  0
 23 24  1  0  0  0
 23 60  1  0  0  0
 24 25  1  0  0  0
 24 61  1  0  0  0
 24 62  1  0  0  0
 25 26  2  0  0  0
 25 27  1  0  0  0
 27 28  1  0  0  0
 28 63  1  0  0  0
 28 64  1  0  0  0
M  END
> <s_m_source_file>
../4res_ligand.sdf

> <i_m_source_file_index>
1

> <s_epik_input>
W0NIMl0xW0NIMl1bQ0BIXShbT0hdKVtDSDJdW0NAQEhdKFtDSDJdW0NIMl0yKVtDQEBdMShbQ0gzXSlbQ0BASF0oW0NIMl1bQ0gyXTMpW0NAQEhdMltDQF0oW09IXSkoW0NAXTM0W0NIM10pW0NIMl1bQ0gyXVtDQEBIXTRDNT1bQ0hdW0NIMl1DKD1PKU9bQ0gyXTU=

> <s_epik_cmdline>
J2VwaWtfYXBwJywgJy1pbWFlJywgJ2xpZ2FuZF9wcm8ubWFlJywgJy1vbWFlJywgJ2xpZ2FuZF9wcmVwLm1hZScsICctbXMnLCAnMScsICctcGgnLCAnNycsICctcGh0JywgJzAuNScsICctbnQn

> <r_lp_tautomer_probability>
1

> <r_epik_Ionization_Penalty>
  0.0000

> <r_epik_Ionization_Penalty_Charging>
  0.0000

> <r_epik_Ionization_Penalty_Neutral>
  0.0000

> <r_epik_State_Penalty>
 -0.0000

> <r_epik_Charging_Adjusted_Penalty>
0

> <i_epik_Tot_Q>
0

> <i_epik_Tot_abs_Q>
0

> <s_epik_Chemistry_Notes>
This compound has an ester and may undergo hydrolysis at high or low pH.

$$$$
