4ret_ligand
                    3D
 Schrodinger Suite 2020-3.
119126  0  0  1  0            999 V2000
  -27.8190  -18.9890   72.8590 C   0  0  0  0  0  0
  -29.2820  -18.7080   73.1780 C   0  0  0  0  0  0
  -29.8840  -19.5960   74.2750 C   0  0  2  0  0  0
  -29.4650  -19.1240   75.5640 O   0  0  0  0  0  0
  -29.5410  -21.0540   73.8740 C   0  0  0  0  0  0
  -28.0820  -21.3550   73.5450 C   0  0  1  0  0  0
  -27.8810  -22.8240   73.1390 C   0  0  0  0  0  0
  -28.2790  -23.1690   71.6990 C   0  0  0  0  0  0
  -27.5460  -22.2770   70.6920 C   0  0  2  0  0  0
  -27.8780  -20.8130   71.0170 C   0  0  1  0  0  0
  -27.4640  -20.4470   72.4830 C   0  0  1  0  0  0
  -27.1580  -19.8760   70.0500 C   0  0  0  0  0  0
  -27.3980  -20.1600   68.5710 C   0  0  1  0  0  0
  -26.4730  -19.3950   67.8270 O   0  0  0  0  0  0
  -27.1260  -21.6460   68.1810 C   0  0  1  0  0  0
  -27.8030  -22.6180   69.2140 C   0  0  1  0  0  0
  -27.2410  -23.8670   68.9600 O   0  0  0  0  0  0
  -29.2800  -22.6370   68.7810 C   0  0  0  0  0  0
  -29.3150  -22.1140   67.3340 C   0  0  0  0  0  0
  -27.8820  -21.8690   66.8360 C   0  0  2  0  0  0
  -25.6550  -21.9000   67.9740 C   0  0  0  0  0  0
  -25.9320  -20.5970   72.5930 C   0  0  0  0  0  0
  -29.9490  -17.8190   75.8880 C   0  0  1  0  0  0
  -29.2630  -13.4620   79.0150 C   0  0  2  0  0  0
  -29.0680  -11.4200   84.0440 C   0  0  2  0  0  0
  -27.2490  -22.8210   65.8530 C   0  0  0  0  0  0
  -27.4630  -24.3300   65.8580 C   0  0  0  0  0  0
  -26.7780  -24.8340   64.7220 O   0  0  0  0  0  0
  -26.7780  -22.5280   64.6190 C   0  0  0  0  0  0
  -26.5680  -23.7860   63.8540 C   0  0  0  0  0  0
  -26.2800  -24.0160   62.7120 O   0  0  0  0  0  0
  -30.2700  -17.8210   77.3920 C   0  0  0  0  0  0
  -30.0770  -12.2870   79.5280 C   0  0  0  0  0  0
  -28.5570  -12.4630   85.0800 C   0  0  0  0  0  0
  -30.6810  -16.4180   77.8870 C   0  0  2  0  0  0
  -31.8500  -16.0570   77.2090 O   0  0  0  0  0  0
  -29.2910  -11.5070   80.5660 C   0  0  2  0  0  0
  -28.0650  -11.1270   79.9920 O   0  0  0  0  0  0
  -29.0990  -12.1820   86.4930 C   0  0  2  0  0  0
  -30.4880  -12.3330   86.4490 O   0  0  0  0  0  0
  -29.5900  -15.3630   77.5740 C   0  0  2  0  0  0
  -30.0870  -14.0940   78.0190 O   0  0  0  0  0  0
  -29.0220  -12.4260   81.7980 C   0  0  2  0  0  0
  -28.3720  -11.6500   82.8170 O   0  0  0  0  0  0
  -28.7380  -10.7280   86.8900 C   0  0  2  0  0  0
  -29.4120  -10.4190   88.0830 O   0  0  0  0  0  0
  -29.2500  -15.5320   76.0250 C   0  0  2  0  0  0
  -28.8970  -16.8800   75.7100 O   0  0  0  0  0  0
  -28.2580  -13.6850   81.2270 C   0  0  2  0  0  0
  -29.0440  -14.3040   80.1610 O   0  0  0  0  0  0
  -29.2370   -9.7490   85.7720 C   0  0  2  0  0  0
  -28.7250  -10.1050   84.4920 O   0  0  0  0  0  0
  -28.0380  -14.6680   75.6720 C   0  0  0  0  0  0
  -28.0900  -14.7000   82.3610 C   0  0  0  0  0  0
  -28.7440   -8.3400   86.1410 C   0  0  0  0  0  0
  -27.5053  -18.3725   72.0037 H   0  0  0  0  0  0
  -27.1993  -18.7443   73.7343 H   0  0  0  0  0  0
  -29.3898  -17.6675   73.5181 H   0  0  0  0  0  0
  -29.8906  -18.8635   72.2750 H   0  0  0  0  0  0
  -30.9686  -19.5181   74.4412 H   0  0  0  0  0  0
  -29.8050  -21.7328   74.6984 H   0  0  0  0  0  0
  -30.1107  -21.3306   72.9746 H   0  0  0  0  0  0
  -27.5535  -21.1403   74.4855 H   0  0  0  0  0  0
  -26.8186  -23.0903   73.2404 H   0  0  0  0  0  0
  -28.4851  -23.4709   73.7922 H   0  0  0  0  0  0
  -28.0232  -24.2181   71.4893 H   0  0  0  0  0  0
  -29.3620  -23.0234   71.5730 H   0  0  0  0  0  0
  -26.4688  -22.4652   70.8110 H   0  0  0  0  0  0
  -28.9639  -20.6937   70.8881 H   0  0  0  0  0  0
  -27.4877  -18.8417   70.2278 H   0  0  0  0  0  0
  -26.0721  -19.9474   70.2104 H   0  0  0  0  0  0
  -28.4237  -19.8481   68.3247 H   0  0  0  0  0  0
  -26.4602  -18.2995   67.9253 H   0  0  0  0  0  0
  -26.1846  -24.0544   69.2027 H   0  0  0  0  0  0
  -29.6655  -23.6657   68.8376 H   0  0  0  0  0  0
  -29.8662  -21.9885   69.4487 H   0  0  0  0  0  0
  -29.8033  -22.8576   66.6871 H   0  0  0  0  0  0
  -29.8793  -21.1704   67.2987 H   0  0  0  0  0  0
  -27.8448  -21.0449   66.1084 H   0  0  0  0  0  0
  -25.1190  -21.7433   68.9217 H   0  0  0  0  0  0
  -25.2665  -21.2062   67.2139 H   0  0  0  0  0  0
  -25.5059  -22.9359   67.6353 H   0  0  0  0  0  0
  -25.6114  -20.3457   73.6148 H   0  0  0  0  0  0
  -25.4448  -19.9174   71.8783 H   0  0  0  0  0  0
  -25.6479  -21.6348   72.3643 H   0  0  0  0  0  0
  -30.7754  -17.5687   75.2065 H   0  0  0  0  0  0
  -28.2841  -13.2557   78.5576 H   0  0  0  0  0  0
  -30.1528  -11.4494   83.8641 H   0  0  0  0  0  0
  -27.0538  -24.7553   66.7863 H   0  0  0  0  0  0
  -28.5396  -24.5479   65.7983 H   0  0  0  0  0  0
  -26.6113  -21.4803   64.3284 H   0  0  0  0  0  0
  -31.1000  -18.5156   77.5888 H   0  0  0  0  0  0
  -29.3818  -18.1418   77.9561 H   0  0  0  0  0  0
  -30.3235  -11.6181   78.6902 H   0  0  0  0  0  0
  -31.0056  -12.6569   79.9873 H   0  0  0  0  0  0
  -28.8845  -13.4692   84.7794 H   0  0  0  0  0  0
  -27.4582  -12.4319   85.1202 H   0  0  0  0  0  0
  -30.9215  -16.4274   78.9603 H   0  0  0  0  0  0
  -32.7522  -16.6799   77.2983 H   0  0  0  0  0  0
  -29.7958  -10.5679   80.8366 H   0  0  0  0  0  0
  -28.0510  -10.4741   79.1068 H   0  0  0  0  0  0
  -28.7542  -12.9070   87.2450 H   0  0  0  0  0  0
  -30.9273  -13.3057   86.1830 H   0  0  0  0  0  0
  -28.6613  -15.3965   78.1626 H   0  0  0  0  0  0
  -29.8879  -12.7557   82.3909 H   0  0  0  0  0  0
  -27.6674  -10.6122   87.1147 H   0  0  0  0  0  0
  -29.2043  -10.9947   88.9970 H   0  0  0  0  0  0
  -30.1242  -15.3072   75.3963 H   0  0  0  0  0  0
  -27.2885  -13.4219   80.7787 H   0  0  0  0  0  0
  -30.3254   -9.8026   85.6222 H   0  0  0  0  0  0
  -28.2605  -13.6146   75.8976 H   0  0  0  0  0  0
  -27.8119  -14.7738   74.6007 H   0  0  0  0  0  0
  -27.1702  -14.9944   76.2639 H   0  0  0  0  0  0
  -27.4998  -14.2490   83.1723 H   0  0  0  0  0  0
  -27.5697  -15.5915   81.9810 H   0  0  0  0  0  0
  -29.0798  -14.9886   82.7443 H   0  0  0  0  0  0
  -29.1375   -8.0611   87.1296 H   0  0  0  0  0  0
  -29.0975   -7.6192   85.3890 H   0  0  0  0  0  0
  -27.6444   -8.3318   86.1684 H   0  0  0  0  0  0
  1  2  1  0  0  0
  1 11  1  0  0  0
  1 56  1  0  0  0
  1 57  1  0  0  0
  2  3  1  0  0  0
  2 58  1  0  0  0
  2 59  1  0  0  0
  3  4  1  0  0  0
  3  5  1  0  0  0
  3 60  1  0  0  0
  4 23  1  0  0  0
  5  6  1  0  0  0
  5 61  1  0  0  0
  5 62  1  0  0  0
  6  7  1  0  0  0
  6 11  1  0  0  0
  6 63  1  0  0  0
  7  8  1  0  0  0
  7 64  1  0  0  0
  7 65  1  0  0  0
  8  9  1  0  0  0
  8 66  1  0  0  0
  8 67  1  0  0  0
  9 10  1  0  0  0
  9 16  1  0  0  0
  9 68  1  0  0  0
 10 11  1  0  0  0
 10 12  1  0  0  0
 10 69  1  0  0  0
 11 22  1  0  0  0
 12 13  1  0  0  0
 12 70  1  0  0  0
 12 71  1  0  0  0
 13 14  1  0  0  0
 13 15  1  0  0  0
 13 72  1  0  0  0
 14 73  1  0  0  0
 15 16  1  0  0  0
 15 20  1  0  0  0
 15 21  1  0  0  0
 16 17  1  0  0  0
 16 18  1  0  0  0
 17 74  1  0  0  0
 18 19  1  0  0  0
 18 75  1  0  0  0
 18 76  1  0  0  0
 19 20  1  0  0  0
 19 77  1  0  0  0
 19 78  1  0  0  0
 20 26  1  0  0  0
 20 79  1  0  0  0
 21 80  1  0  0  0
 21 81  1  0  0  0
 21 82  1  0  0  0
 22 83  1  0  0  0
 22 84  1  0  0  0
 22 85  1  0  0  0
 23 32  1  0  0  0
 23 48  1  0  0  0
 23 86  1  0  0  0
 24 33  1  0  0  0
 24 42  1  0  0  0
 24 50  1  0  0  0
 24 87  1  0  0  0
 25 34  1  0  0  0
 25 44  1  0  0  0
 25 52  1  0  0  0
 25 88  1  0  0  0
 26 27  1  0  0  0
 26 29  2  0  0  0
 27 28  1  0  0  0
 27 89  1  0  0  0
 27 90  1  0  0  0
 28 30  1  0  0  0
 29 30  1  0  0  0
 29 91  1  0  0  0
 30 31  2  0  0  0
 32 35  1  0  0  0
 32 92  1  0  0  0
 32 93  1  0  0  0
 33 37  1  0  0  0
 33 94  1  0  0  0
 33 95  1  0  0  0
 34 39  1  0  0  0
 34 96  1  0  0  0
 34 97  1  0  0  0
 35 36  1  0  0  0
 35 41  1  0  0  0
 35 98  1  0  0  0
 36 99  1  0  0  0
 37 38  1  0  0  0
 37 43  1  0  0  0
 37100  1  0  0  0
 38101  1  0  0  0
 39 40  1  0  0  0
 39 45  1  0  0  0
 39102  1  0  0  0
 40103  1  0  0  0
 41 42  1  0  0  0
 41 47  1  0  0  0
 41104  1  0  0  0
 43 44  1  0  0  0
 43 49  1  0  0  0
 43105  1  0  0  0
 45 46  1  0  0  0
 45 51  1  0  0  0
 45106  1  0  0  0
 46107  1  0  0  0
 47 48  1  0  0  0
 47 53  1  0  0  0
 47108  1  0  0  0
 49 50  1  0  0  0
 49 54  1  0  0  0
 49109  1  0  0  0
 51 52  1  0  0  0
 51 55  1  0  0  0
 51110  1  0  0  0
 53111  1  0  0  0
 53112  1  0  0  0
 53113  1  0  0  0
 54114  1  0  0  0
 54115  1  0  0  0
 54116  1  0  0  0
 55117  1  0  0  0
 55118  1  0  0  0
 55119  1  0  0  0
M  END
> <s_m_source_file>
../4ret_ligand.sdf

> <i_m_source_file_index>
1

> <s_epik_input>
TzFbQ0BIXShbQ0gzXSlbQ0BASF0oW09IXSlbQ0BASF0oW09IXSlbQ0gyXVtDQEBIXTFPW0NASF0oW0NASF0oTzIpW0NIM10pW0NAQEhdKFtPSF0pW0NIMl1bQ0BASF0yT1tDQEhdKFtDQEhdKE8zKVtDSDNdKVtDQEBIXShbT0hdKVtDSDJdW0NAQEhdM09bQ0BASF0oW0NIMl1bQ0gyXTQpW0NIMl1bQ0BIXShbQ0BdNDVbQ0gzXSlbQ0gyXVtDSDJdW0NAQEhdNltDQEBIXTVbQ0gyXVtDQEBIXShbT0hdKVtDQEBdNyhbQ0gzXSlbQ0BdNihbT0hdKVtDSDJdW0NIMl1bQ0BASF03Qzg9W0NIXUMoPU8pT1tDSDJdOA==

> <s_epik_cmdline>
J2VwaWtfYXBwJywgJy1pbWFlJywgJ2xpZ2FuZF9wcm8ubWFlJywgJy1vbWFlJywgJ2xpZ2FuZF9wcmVwLm1hZScsICctbXMnLCAnMScsICctcGgnLCAnNycsICctcGh0JywgJzAuNScsICctbnQn

> <r_lp_tautomer_probability>
1

> <r_epik_Ionization_Penalty>
  0.0000

> <r_epik_Ionization_Penalty_Charging>
  0.0000

> <r_epik_Ionization_Penalty_Neutral>
  0.0000

> <r_epik_State_Penalty>
 -0.0000

> <r_epik_Charging_Adjusted_Penalty>
0

> <i_epik_Tot_Q>
0

> <i_epik_Tot_abs_Q>
0

> <s_epik_Chemistry_Notes>
This compound has an ester and may undergo hydrolysis at high or low pH. This compound contains an acetal/aminal-like group ( X-CH(R)-Y where X, Y are N, S, or O) that may be acid/base labile, releasing an aldehyde.

$$$$
