4rfy_ligand
                    3D
 Schrodinger Suite 2020-3.
 81 86  0  0  1  0            999 V2000
   21.5900    5.6290    1.2150 C   0  0  0  0  0  0
   22.8130    5.9140    0.5290 C   0  0  0  0  0  0
   23.8670    6.3710    1.2600 C   0  0  0  0  0  0
   23.7080    6.5230    2.6730 C   0  0  0  0  0  0
   22.5010    6.2330    3.2950 C   0  0  0  0  0  0
   21.4540    5.7850    2.5610 N   0  0  0  0  0  0
   20.1400    5.4900    3.2120 C   0  0  0  0  0  0
   20.6610    5.2210    0.5160 O   0  0  0  0  0  0
   22.7800    5.7170   -0.8810 N   0  0  0  0  0  0
   23.7750    5.7820   -1.8300 C   0  0  0  0  0  0
   23.5030    5.3560   -3.1480 C   0  0  0  0  0  0
   24.5010    5.4520   -4.0910 C   0  0  0  0  0  0
   25.7470    5.9730   -3.6910 C   0  0  0  0  0  0
   25.9390    6.3980   -2.3500 C   0  0  0  0  0  0
   24.9560    6.2860   -1.4640 N   0  0  0  0  0  0
   26.8960    6.1530   -4.6290 C   0  0  0  0  0  0
   27.9680    5.6680   -4.3290 O   0  0  0  0  0  0
   26.7870    6.9300   -5.7490 N   0  0  0  0  0  0
   27.9820    7.1160   -6.6370 C   0  0  0  0  0  0
   27.6000    7.6340   -8.0340 C   0  0  0  0  0  0
   26.6610    8.7160   -7.8790 O   0  0  0  0  0  0
   25.4000    8.1420   -7.5330 C   0  0  0  0  0  0
   25.4920    7.6120   -6.0940 C   0  0  0  0  0  0
   24.8810    6.9830    3.4740 C   0  0  0  0  0  0
   26.1220    6.3530    3.1860 C   0  0  0  0  0  0
   27.2890    6.6900    3.8580 C   0  0  0  0  0  0
   27.2450    7.6600    4.8980 C   0  0  0  0  0  0
   26.0310    8.3060    5.1780 C   0  0  0  0  0  0
   24.8420    7.9490    4.5150 C   0  0  0  0  0  0
   23.5120    8.6560    4.7630 C   0  0  0  0  0  0
   25.9220    9.2680    6.2290 N   0  0  0  0  0  0
   26.0350   10.7020    5.8430 C   0  0  0  0  0  0
   25.0780   11.5270    6.6800 C   0  0  0  0  0  0
   25.7490    8.8580    7.5170 C   0  0  0  0  0  0
   25.5020    9.8860    8.5650 C   0  0  0  0  0  0
   25.1250   11.2020    8.1370 C   0  0  0  0  0  0
   24.7950   12.1560    9.0890 C   0  0  0  0  0  0
   24.7660   11.7920   10.4680 C   0  0  0  0  0  0
   25.1560   10.4960   10.8870 C   0  0  0  0  0  0
   25.4710    9.5360    9.9230 C   0  0  0  0  0  0
   24.4440   12.7410   11.4750 N   0  0  0  0  0  0
   23.7620   14.0300   11.1060 C   0  0  0  0  0  0
   24.6990   12.4970   12.8840 C   0  0  0  0  0  0
   25.6630    7.6500    7.8360 O   0  0  0  0  0  0
   22.8460    8.1810    5.9580 O   0  0  0  0  0  0
   24.8132    6.6161    0.7777 H   0  0  0  0  0  0
   22.3960    6.3655    4.3718 H   0  0  0  0  0  0
   19.4250    5.1402    2.4528 H   0  0  0  0  0  0
   19.7529    6.4035    3.6870 H   0  0  0  0  0  0
   20.2759    4.7093    3.9750 H   0  0  0  0  0  0
   21.8321    5.4655   -1.3792 H   0  0  0  0  0  0
   22.5231    4.9593   -3.4134 H   0  0  0  0  0  0
   24.3317    5.1334   -5.1196 H   0  0  0  0  0  0
   26.8978    6.8182   -2.0462 H   0  0  0  0  0  0
   28.6680    7.8447   -6.1806 H   0  0  0  0  0  0
   28.4996    6.1534   -6.7617 H   0  0  0  0  0  0
   28.5023    7.9911   -8.5520 H   0  0  0  0  0  0
   27.1421    6.8196   -8.6145 H   0  0  0  0  0  0
   24.6158    8.9102   -7.6033 H   0  0  0  0  0  0
   25.1697    7.3185   -8.2250 H   0  0  0  0  0  0
   24.6595    6.9047   -5.9652 H   0  0  0  0  0  0
   25.3446    8.4766   -5.4301 H   0  0  0  0  0  0
   26.1585    5.5831    2.4153 H   0  0  0  0  0  0
   28.2328    6.2147    3.5907 H   0  0  0  0  0  0
   28.1421    7.8981    5.4695 H   0  0  0  0  0  0
   23.6868    9.7358    4.8792 H   0  0  0  0  0  0
   22.8401    8.4832    3.9094 H   0  0  0  0  0  0
   27.0649   11.0480    6.0152 H   0  0  0  0  0  0
   25.7831   10.8161    4.7783 H   0  0  0  0  0  0
   25.3239   12.5939    6.5735 H   0  0  0  0  0  0
   24.0473   11.3523    6.3377 H   0  0  0  0  0  0
   24.5597   13.1761    8.7854 H   0  0  0  0  0  0
   25.2095   10.2515   11.9479 H   0  0  0  0  0  0
   25.6932    8.5129   10.2263 H   0  0  0  0  0  0
   23.6351   14.0783   10.0144 H   0  0  0  0  0  0
   24.3759   14.8788   11.4417 H   0  0  0  0  0  0
   22.7763   14.0755   11.5921 H   0  0  0  0  0  0
   25.1987   11.5243   13.0031 H   0  0  0  0  0  0
   23.7459   12.4893   13.4331 H   0  0  0  0  0  0
   25.3455   13.2926   13.2827 H   0  0  0  0  0  0
   21.8762    8.6077    6.2536 H   0  0  0  0  0  0
  1  2  1  0  0  0
  1  6  1  0  0  0
  1  8  2  0  0  0
  2  3  2  0  0  0
  2  9  1  0  0  0
  3  4  1  0  0  0
  3 46  1  0  0  0
  4  5  2  0  0  0
  4 24  1  0  0  0
  5  6  1  0  0  0
  5 47  1  0  0  0
  6  7  1  0  0  0
  7 48  1  0  0  0
  7 49  1  0  0  0
  7 50  1  0  0  0
  9 10  1  0  0  0
  9 51  1  0  0  0
 10 11  2  0  0  0
 10 15  1  0  0  0
 11 12  1  0  0  0
 11 52  1  0  0  0
 12 13  2  0  0  0
 12 53  1  0  0  0
 13 14  1  0  0  0
 13 16  1  0  0  0
 14 15  2  0  0  0
 14 54  1  0  0  0
 16 17  2  0  0  0
 16 18  1  0  0  0
 18 19  1  0  0  0
 18 23  1  0  0  0
 19 20  1  0  0  0
 19 55  1  0  0  0
 19 56  1  0  0  0
 20 21  1  0  0  0
 20 57  1  0  0  0
 20 58  1  0  0  0
 21 22  1  0  0  0
 22 23  1  0  0  0
 22 59  1  0  0  0
 22 60  1  0  0  0
 23 61  1  0  0  0
 23 62  1  0  0  0
 24 25  2  0  0  0
 24 29  1  0  0  0
 25 26  1  0  0  0
 25 63  1  0  0  0
 26 27  2  0  0  0
 26 64  1  0  0  0
 27 28  1  0  0  0
 27 65  1  0  0  0
 28 29  2  0  0  0
 28 31  1  0  0  0
 29 30  1  0  0  0
 30 45  1  0  0  0
 30 66  1  0  0  0
 30 67  1  0  0  0
 31 32  1  0  0  0
 31 34  1  0  0  0
 32 33  1  0  0  0
 32 68  1  0  0  0
 32 69  1  0  0  0
 33 36  1  0  0  0
 33 70  1  0  0  0
 33 71  1  0  0  0
 34 35  1  0  0  0
 34 44  2  0  0  0
 35 36  2  0  0  0
 35 40  1  0  0  0
 36 37  1  0  0  0
 37 38  2  0  0  0
 37 72  1  0  0  0
 38 39  1  0  0  0
 38 41  1  0  0  0
 39 40  2  0  0  0
 39 73  1  0  0  0
 40 74  1  0  0  0
 41 42  1  0  0  0
 41 43  1  0  0  0
 42 75  1  0  0  0
 42 76  1  0  0  0
 42 77  1  0  0  0
 43 78  1  0  0  0
 43 79  1  0  0  0
 43 80  1  0  0  0
 45 81  1  0  0  0
M  END
> <s_m_source_file>
../4rfy_ligand.sdf

> <i_m_source_file_index>
1

> <s_epik_input>
W0NIMl0xW0NIMl1PW0NIMl1bQ0gyXU4xQyg9TyljKFtjSF1uMilbY0hdW2NIXWMyW05IXWMoYzM9TylbY0hdYyhbY0hdbjNbQ0gzXSktYzRbY0hdW2NIXVtjSF1jKGM0W0NIMl1bT0hdKU4oQzU9TylbQ0gyXVtDSDJdYyhjNTYpW2NIXWMoW2NIXVtjSF02KU4oW0NIM10pW0NIM10=

> <s_epik_cmdline>
J2VwaWtfYXBwJywgJy1pbWFlJywgJ2xpZ2FuZF9wcm8ubWFlJywgJy1vbWFlJywgJ2xpZ2FuZF9wcmVwLm1hZScsICctbXMnLCAnMScsICctcGgnLCAnNycsICctcGh0JywgJzAuNScsICctbnQn

> <r_lp_tautomer_probability>
1

> <r_epik_Ionization_Penalty>
  0.0015

> <r_epik_Ionization_Penalty_Charging>
  0.0000

> <r_epik_Ionization_Penalty_Neutral>
  0.0015

> <r_epik_State_Penalty>
 -0.0000

> <r_epik_Charging_Adjusted_Penalty>
1.49510757508313e-05

> <i_epik_Tot_Q>
0

> <i_epik_Tot_abs_Q>
0

$$$$
