4rg0_ligand
                    3D
 Schrodinger Suite 2020-3.
 86 91  0  0  1  0            999 V2000
   22.8350    5.2470    0.4140 C   0  0  0  0  0  0
   23.9590    5.6670    1.1200 C   0  0  0  0  0  0
   23.9120    5.7840    2.5410 C   0  0  0  0  0  0
   22.7420    5.4550    3.1880 C   0  0  0  0  0  0
   21.6340    4.9470    1.1430 C   0  0  0  0  0  0
   21.6240    5.0550    2.5070 N   0  0  0  0  0  0
   22.7990    5.1150   -0.9950 N   0  0  0  0  0  0
   25.1010    6.2320    3.3500 C   0  0  0  0  0  0
   26.3460    5.6260    3.1160 C   0  0  0  0  0  0
   27.4760    5.9830    3.8410 C   0  0  0  0  0  0
   27.4100    6.9620    4.8210 C   0  0  0  0  0  0
   26.1870    7.5870    5.0830 C   0  0  0  0  0  0
   25.0240    7.2300    4.3640 C   0  0  0  0  0  0
   26.0890    8.5580    6.0930 N   0  0  0  0  0  0
   26.1900    9.9730    5.7030 C   0  0  0  0  0  0
   25.3740   10.8990    6.6030 C   0  0  0  0  0  0
   25.8720    8.1440    7.3940 C   0  0  0  0  0  0
   25.7130    9.1740    8.4660 C   0  0  0  0  0  0
   25.4560   10.5020    8.0630 C   0  0  0  0  0  0
   25.2780   11.4920    9.0170 C   0  0  0  0  0  0
   25.3240   11.1920   10.3750 C   0  0  0  0  0  0
   25.5570    9.8790   10.7830 C   0  0  0  0  0  0
   25.7400    8.8710    9.8500 C   0  0  0  0  0  0
   25.8090    6.9480    7.6760 O   0  0  0  0  0  0
   23.7050    7.9310    4.6680 C   0  0  0  0  0  0
   23.1420    7.5210    5.9140 O   0  0  0  0  0  0
   20.4230    4.7600    3.2810 C   0  0  0  0  0  0
   20.6310    4.5940    0.5240 O   0  0  0  0  0  0
   23.8780    5.1690   -1.8890 C   0  0  0  0  0  0
   23.6400    4.8050   -3.2270 C   0  0  0  0  0  0
   24.6870    4.8370   -4.1440 C   0  0  0  0  0  0
   25.9640    5.2450   -3.7020 C   0  0  0  0  0  0
   26.1160    5.5950   -2.3490 C   0  0  0  0  0  0
   25.0950    5.5590   -1.5010 N   0  0  0  0  0  0
   27.0690    5.2830   -4.5940 N   0  0  0  0  0  0
   26.9670    4.1440   -5.5450 C   0  0  0  0  0  0
   28.1950    4.0460   -6.4770 C   0  0  0  0  0  0
   29.4520    3.9470   -5.6950 N   0  3  0  0  0  0
   29.5840    5.0790   -4.7470 C   0  0  0  0  0  0
   28.3480    5.1990   -3.8320 C   0  0  0  0  0  0
   25.1670   12.3090   11.3730 C   0  0  0  0  0  0
   23.9320   13.0930   11.1400 C   0  0  0  0  0  0
   25.1940   11.7810   12.8120 C   0  0  0  0  0  0
   26.4030   13.1860   11.1690 C   0  0  0  0  0  0
   22.9730   13.7020   10.9630 N   0  0  0  0  0  0
   30.6280    3.8420   -6.5860 C   0  0  0  0  0  0
   25.9530    7.6190   10.3090 F   0  0  0  0  0  0
   24.8779    5.9072    0.5853 H   0  0  0  0  0  0
   22.7049    5.5149    4.2757 H   0  0  0  0  0  0
   21.8400    4.9487   -1.5075 H   0  0  0  0  0  0
   26.4277    4.8574    2.3474 H   0  0  0  0  0  0
   28.4254    5.4879    3.6372 H   0  0  0  0  0  0
   28.3023    7.2414    5.3812 H   0  0  0  0  0  0
   27.2406   10.2942    5.7575 H   0  0  0  0  0  0
   25.8216   10.0969    4.6740 H   0  0  0  0  0  0
   25.7511   11.9280    6.5084 H   0  0  0  0  0  0
   24.3170   10.8666    6.3003 H   0  0  0  0  0  0
   25.0996   12.5192    8.6990 H   0  0  0  0  0  0
   25.5956    9.6433   11.8465 H   0  0  0  0  0  0
   23.8690    9.0178    4.7120 H   0  0  0  0  0  0
   22.9769    7.7019    3.8759 H   0  0  0  0  0  0
   22.1885    7.9509    6.2547 H   0  0  0  0  0  0
   20.6306    4.9089    4.3509 H   0  0  0  0  0  0
   20.1223    3.7162    3.1076 H   0  0  0  0  0  0
   19.6107    5.4325    2.9680 H   0  0  0  0  0  0
   22.6426    4.5000   -3.5435 H   0  0  0  0  0  0
   24.5238    4.5524   -5.1835 H   0  0  0  0  0  0
   27.0967    5.9037   -1.9870 H   0  0  0  0  0  0
   26.8909    3.2020   -4.9821 H   0  0  0  0  0  0
   26.0724    4.2694   -6.1727 H   0  0  0  0  0  0
   28.1036    3.1518   -7.1111 H   0  0  0  0  0  0
   28.2455    4.9425   -7.1125 H   0  0  0  0  0  0
   29.4101    3.0228   -5.0999 H   0  0  0  0  0  0
   30.4710    4.9262   -4.1147 H   0  0  0  0  0  0
   29.6923    6.0179   -5.3098 H   0  0  0  0  0  0
   28.4704    6.1049   -3.2201 H   0  0  0  0  0  0
   28.3278    4.3148   -3.1780 H   0  0  0  0  0  0
   24.3133   11.1453   12.9859 H   0  0  0  0  0  0
   25.1791   12.6280   13.5137 H   0  0  0  0  0  0
   26.1089   11.1909   12.9689 H   0  0  0  0  0  0
   26.4083   13.5789   10.1416 H   0  0  0  0  0  0
   27.3098   12.5864   11.3370 H   0  0  0  0  0  0
   26.3800   14.0235   11.8817 H   0  0  0  0  0  0
   30.4932    2.9932   -7.2726 H   0  0  0  0  0  0
   31.5332    3.6843   -5.9813 H   0  0  0  0  0  0
   30.7321    4.7704   -7.1667 H   0  0  0  0  0  0
  1  2  2  0  0  0
  1  5  1  0  0  0
  1  7  1  0  0  0
  2  3  1  0  0  0
  2 48  1  0  0  0
  3  4  2  0  0  0
  3  8  1  0  0  0
  4  6  1  0  0  0
  4 49  1  0  0  0
  5  6  1  0  0  0
  5 28  2  0  0  0
  6 27  1  0  0  0
  7 29  1  0  0  0
  7 50  1  0  0  0
  8  9  2  0  0  0
  8 13  1  0  0  0
  9 10  1  0  0  0
  9 51  1  0  0  0
 10 11  2  0  0  0
 10 52  1  0  0  0
 11 12  1  0  0  0
 11 53  1  0  0  0
 12 13  2  0  0  0
 12 14  1  0  0  0
 13 25  1  0  0  0
 14 15  1  0  0  0
 14 17  1  0  0  0
 15 16  1  0  0  0
 15 54  1  0  0  0
 15 55  1  0  0  0
 16 19  1  0  0  0
 16 56  1  0  0  0
 16 57  1  0  0  0
 17 18  1  0  0  0
 17 24  2  0  0  0
 18 19  2  0  0  0
 18 23  1  0  0  0
 19 20  1  0  0  0
 20 21  2  0  0  0
 20 58  1  0  0  0
 21 22  1  0  0  0
 21 41  1  0  0  0
 22 23  2  0  0  0
 22 59  1  0  0  0
 23 47  1  0  0  0
 25 26  1  0  0  0
 25 60  1  0  0  0
 25 61  1  0  0  0
 26 62  1  0  0  0
 27 63  1  0  0  0
 27 64  1  0  0  0
 27 65  1  0  0  0
 29 30  2  0  0  0
 29 34  1  0  0  0
 30 31  1  0  0  0
 30 66  1  0  0  0
 31 32  2  0  0  0
 31 67  1  0  0  0
 32 33  1  0  0  0
 32 35  1  0  0  0
 33 34  2  0  0  0
 33 68  1  0  0  0
 35 36  1  0  0  0
 35 40  1  0  0  0
 36 37  1  0  0  0
 36 69  1  0  0  0
 36 70  1  0  0  0
 37 38  1  0  0  0
 37 71  1  0  0  0
 37 72  1  0  0  0
 38 39  1  0  0  0
 38 46  1  0  0  0
 38 73  1  0  0  0
 39 40  1  0  0  0
 39 74  1  0  0  0
 39 75  1  0  0  0
 40 76  1  0  0  0
 40 77  1  0  0  0
 41 42  1  0  0  0
 41 43  1  0  0  0
 41 44  1  0  0  0
 42 45  3  0  0  0
 43 78  1  0  0  0
 43 79  1  0  0  0
 43 80  1  0  0  0
 44 81  1  0  0  0
 44 82  1  0  0  0
 44 83  1  0  0  0
 46 84  1  0  0  0
 46 85  1  0  0  0
 46 86  1  0  0  0
M  CHG  1  38   1
M  END
> <s_m_source_file>
../4rg0_ligand.sdf

> <i_m_source_file_index>
1

> <s_epik_input>
W0NIMl0xW0NIMl1bTkgrXShbQ0gzXSlbQ0gyXVtDSDJdTjFjKFtjSF1uMilbY0hdW2NIXWMyW05IXWMzW2NIXWMoW2NIXW4oYzM9TylbQ0gzXSktYzRbY0hdW2NIXVtjSF1jKGM0W0NIMl1bT0hdKU4oQzU9TylbQ0gyXVtDSDJdYyhjNTYpW2NIXWMoW2NIXWM2RilDKEMjTikoW0NIM10pW0NIM10=

> <s_epik_cmdline>
J2VwaWtfYXBwJywgJy1pbWFlJywgJ2xpZ2FuZF9wcm8ubWFlJywgJy1vbWFlJywgJ2xpZ2FuZF9wcmVwLm1hZScsICctbXMnLCAnMScsICctcGgnLCAnNycsICctcGh0JywgJzAuNScsICctbnQn

> <r_lp_tautomer_probability>
1

> <r_epik_Ionization_Penalty>
  0.1224

> <r_epik_Ionization_Penalty_Charging>
  0.0736

> <r_epik_Ionization_Penalty_Neutral>
  0.0488

> <r_epik_State_Penalty>
 -0.0000

> <r_epik_Charging_Adjusted_Penalty>
0.0735984354961132

> <i_epik_Tot_Q>
1

> <i_epik_Tot_abs_Q>
1

$$$$
