4rgd_ligand
                    3D
 Schrodinger Suite 2020-3.
 18 17  0  0  1  0            999 V2000
   47.2170   21.5620   89.2180 C   0  0  0  0  0  0
   47.7720   20.8290   90.0680 O   0  0  0  0  0  0
   47.4940   22.8030   88.9840 O   0  5  0  0  0  0
   46.1900   20.8670   88.3650 C   0  0  0  0  0  0
   45.4510   19.6870   88.9730 C   0  0  0  0  0  0
   44.8620   19.9770   90.2910 O   0  0  0  0  0  0
   44.3590   19.3680   87.9550 C   0  0  0  0  0  0
   43.5780   18.0870   88.2830 C   0  0  0  0  0  0
   43.7810   17.4920   89.3920 O   0  0  0  0  0  0
   42.7280   17.7260   87.3860 O   0  5  0  0  0  0
   46.3600   18.4960   89.1190 C   0  0  0  0  0  0
   46.4700   18.0900   90.2710 O   0  5  0  0  0  0
   46.8900   17.9710   88.1620 O   0  0  0  0  0  0
   45.4058   21.5832   88.0787 H   0  0  0  0  0  0
   46.6728   20.4707   87.4596 H   0  0  0  0  0  0
   44.1613   20.8169   90.4075 H   0  0  0  0  0  0
   43.6365   20.1967   87.9205 H   0  0  0  0  0  0
   44.8116   19.2346   86.9614 H   0  0  0  0  0  0
  1  2  2  0  0  0
  1  3  1  0  0  0
  1  4  1  0  0  0
  4  5  1  0  0  0
  4 14  1  0  0  0
  4 15  1  0  0  0
  5  6  1  0  0  0
  5  7  1  0  0  0
  5 11  1  0  0  0
  6 16  1  0  0  0
  7  8  1  0  0  0
  7 17  1  0  0  0
  7 18  1  0  0  0
  8  9  2  0  0  0
  8 10  1  0  0  0
 11 12  1  0  0  0
 11 13  2  0  0  0
M  CHG  3   3  -1  10  -1  12  -1
M  END
> <s_m_source_file>
../4rgd_ligand.sdf

> <i_m_source_file_index>
1

> <s_epik_input>
Tz1DKFtPSF0pW0NIMl1DKFtPSF0pKEMoPU8pW09IXSlbQ0gyXUMoPU8pW09IXQ==

> <s_epik_cmdline>
J2VwaWtfYXBwJywgJy1pbWFlJywgJ2xpZ2FuZF9wcm8ubWFlJywgJy1vbWFlJywgJ2xpZ2FuZF9wcmVwLm1hZScsICctbXMnLCAnMScsICctcGgnLCAnNycsICctcGh0JywgJzAuNScsICctbnQn

> <r_lp_tautomer_probability>
1

> <r_epik_Ionization_Penalty>
  0.0046

> <r_epik_Ionization_Penalty_Charging>
  0.0046

> <r_epik_Ionization_Penalty_Neutral>
  0.0000

> <r_epik_State_Penalty>
 -0.0000

> <r_epik_Charging_Adjusted_Penalty>
0.0045906918398983

> <i_epik_Tot_Q>
-3

> <i_epik_Tot_abs_Q>
3

$$$$
