4rh5_ligand
                    3D
 Schrodinger Suite 2020-3.
 93 95  0  0  1  0            999 V2000
    6.4360   27.0910   12.6740 N   0  3  0  0  0  0
    6.5100   25.6140   12.5780 C   0  0  2  0  0  0
    7.8850   25.1940   13.0430 C   0  0  0  0  0  0
    8.8750   25.8300   12.6900 O   0  0  0  0  0  0
    6.2340   25.1440   11.1480 C   0  0  0  0  0  0
    4.8540   25.5090   10.6470 C   0  0  0  0  0  0
    3.7310   25.1580   11.3720 C   0  0  0  0  0  0
    4.6940   26.2360    9.4890 C   0  0  0  0  0  0
    2.4590   25.5180   10.9390 C   0  0  0  0  0  0
    3.4250   26.5930    9.0560 C   0  0  0  0  0  0
    2.3080   26.1990    9.7810 C   0  0  0  0  0  0
    7.9290   24.1350   13.8500 N   0  0  0  0  0  0
    9.1410   23.7090   14.5430 C   0  0  2  0  0  0
    9.7650   22.4820   13.8880 C   0  0  0  0  0  0
    9.0470   21.6610   13.3320 O   0  0  0  0  0  0
    8.8190   23.3760   16.0100 C   0  0  0  0  0  0
    8.2680   24.4820   16.6920 O   0  0  0  0  0  0
   11.0960   22.3800   13.9530 N   0  0  0  0  0  0
   11.8040   21.1530   13.5630 C   0  0  2  0  0  0
   11.6070   20.0830   14.6090 C   0  0  0  0  0  0
   11.4080   20.3800   15.7910 O   0  0  0  0  0  0
   13.2860   21.3980   13.3930 C   0  0  0  0  0  0
   11.7050   18.8320   14.1710 N   0  0  0  0  0  0
   11.7520   17.7160   15.1180 C   0  0  2  0  0  0
   12.9990   17.8870   15.9950 C   0  0  0  0  0  0
   14.1040   17.8780   15.4480 O   0  0  0  0  0  0
   11.7940   16.4270   14.3080 C   0  0  0  0  0  0
   11.5750   15.1280   15.0520 C   0  0  0  0  0  0
   12.3030   14.0020   14.7050 C   0  0  0  0  0  0
   10.6040   14.9910   16.0380 C   0  0  0  0  0  0
   12.0850   12.7860   15.3360 C   0  0  0  0  0  0
   10.3850   13.7850   16.6690 C   0  0  0  0  0  0
   11.1260   12.6680   16.3140 C   0  0  0  0  0  0
   10.9940   11.4360   16.8660 O   0  0  0  0  0  0
   10.0180   10.2770   16.3010 P   0  0  0  0  0  0
   10.1590   10.2280   14.8140 O   0  0  0  0  0  0
   10.5800    9.0220   16.9630 O   0  5  0  0  0  0
    8.6070   10.6160   16.7950 O   0  5  0  0  0  0
   12.8280   17.9720   17.3320 N   0  0  0  0  0  0
   13.9640   18.1880   18.2280 C   0  0  2  0  0  0
   15.0280   17.1070   18.1640 C   0  0  0  0  0  0
   14.7280   15.9850   17.7820 O   0  0  0  0  0  0
   13.3090   18.2010   19.6110 C   0  0  0  0  0  0
   11.9380   18.5640   19.4010 C   0  0  0  0  0  0
   11.5550   17.9720   18.0640 C   0  0  0  0  0  0
   16.2660   17.4440   18.5130 N   0  0  0  0  0  0
   17.3170   16.4310   18.6690 C   0  0  2  0  0  0
   17.2660   15.7960   20.0620 C   0  0  0  0  0  0
   16.7860   16.4200   21.0160 O   0  5  0  0  0  0
   18.6890   17.0590   18.4340 C   0  0  0  0  0  0
   18.5500   18.3330   17.8260 O   0  0  0  0  0  0
   17.7040   14.6540   20.2450 O   0  0  0  0  0  0
    6.6378   27.4017   13.7097 H   0  0  0  0  0  0
    5.4311   27.4277   12.3794 H   0  0  0  0  0  0
    7.1842   27.5399   12.0041 H   0  0  0  0  0  0
    5.7411   25.1737   13.2299 H   0  0  0  0  0  0
    6.9637   25.6022   10.4642 H   0  0  0  0  0  0
    6.3226   24.0487   11.0985 H   0  0  0  0  0  0
    3.8436   24.5911   12.2961 H   0  0  0  0  0  0
    5.5683   26.5326    8.9095 H   0  0  0  0  0  0
    1.5848   25.2512   11.5329 H   0  0  0  0  0  0
    3.3049   27.1825    8.1471 H   0  0  0  0  0  0
    1.3092   26.4389    9.4163 H   0  0  0  0  0  0
    6.9930   23.5726   13.9827 H   0  0  0  0  0  0
    9.8272   24.5641   14.4533 H   0  0  0  0  0  0
    8.0922   22.5511   16.0477 H   0  0  0  0  0  0
    9.7414   23.0760   16.5289 H   0  0  0  0  0  0
    7.9878   24.3908   17.7518 H   0  0  0  0  0  0
   11.6629   23.2516   14.3120 H   0  0  0  0  0  0
   11.3657   20.8477   12.6014 H   0  0  0  0  0  0
   13.4440   22.1768   12.6324 H   0  0  0  0  0  0
   13.7771   20.4674   13.0724 H   0  0  0  0  0  0
   13.7153   21.7281   14.3505 H   0  0  0  0  0  0
   11.7509   18.6377   13.0893 H   0  0  0  0  0  0
   10.8545   17.7174   15.7539 H   0  0  0  0  0  0
   11.0126   16.4545   13.5343 H   0  0  0  0  0  0
   12.7797   16.3261   13.8302 H   0  0  0  0  0  0
   13.0595   14.0725   13.9234 H   0  0  0  0  0  0
   10.0029   15.8561   16.3181 H   0  0  0  0  0  0
   12.6791   11.9167   15.0540 H   0  0  0  0  0  0
    9.6274   13.7093   17.4490 H   0  0  0  0  0  0
   14.4850   19.1082   17.9249 H   0  0  0  0  0  0
   13.3888   17.2017   20.0639 H   0  0  0  0  0  0
   13.8191   18.9356   20.2514 H   0  0  0  0  0  0
   11.3208   18.1502   20.2120 H   0  0  0  0  0  0
   11.8460   19.6601   19.3930 H   0  0  0  0  0  0
   10.8206   18.5863   17.5224 H   0  0  0  0  0  0
   11.1802   16.9412   18.1478 H   0  0  0  0  0  0
   16.4956   18.5058   18.6856 H   0  0  0  0  0  0
   17.1115   15.6654   17.9064 H   0  0  0  0  0  0
   19.2087   17.1754   19.3965 H   0  0  0  0  0  0
   19.2816   16.4088   17.7736 H   0  0  0  0  0  0
   19.4434   18.9279   17.5851 H   0  0  0  0  0  0
  1  2  1  0  0  0
  1 53  1  0  0  0
  1 54  1  0  0  0
  1 55  1  0  0  0
  2  3  1  0  0  0
  2  5  1  0  0  0
  2 56  1  0  0  0
  3  4  2  0  0  0
  3 12  1  0  0  0
  5  6  1  0  0  0
  5 57  1  0  0  0
  5 58  1  0  0  0
  6  7  2  0  0  0
  6  8  1  0  0  0
  7  9  1  0  0  0
  7 59  1  0  0  0
  8 10  2  0  0  0
  8 60  1  0  0  0
  9 11  2  0  0  0
  9 61  1  0  0  0
 10 11  1  0  0  0
 10 62  1  0  0  0
 11 63  1  0  0  0
 12 13  1  0  0  0
 12 64  1  0  0  0
 13 14  1  0  0  0
 13 16  1  0  0  0
 13 65  1  0  0  0
 14 15  2  0  0  0
 14 18  1  0  0  0
 16 17  1  0  0  0
 16 66  1  0  0  0
 16 67  1  0  0  0
 17 68  1  0  0  0
 18 19  1  0  0  0
 18 69  1  0  0  0
 19 20  1  0  0  0
 19 22  1  0  0  0
 19 70  1  0  0  0
 20 21  2  0  0  0
 20 23  1  0  0  0
 22 71  1  0  0  0
 22 72  1  0  0  0
 22 73  1  0  0  0
 23 24  1  0  0  0
 23 74  1  0  0  0
 24 25  1  0  0  0
 24 27  1  0  0  0
 24 75  1  0  0  0
 25 26  2  0  0  0
 25 39  1  0  0  0
 27 28  1  0  0  0
 27 76  1  0  0  0
 27 77  1  0  0  0
 28 29  2  0  0  0
 28 30  1  0  0  0
 29 31  1  0  0  0
 29 78  1  0  0  0
 30 32  2  0  0  0
 30 79  1  0  0  0
 31 33  2  0  0  0
 31 80  1  0  0  0
 32 33  1  0  0  0
 32 81  1  0  0  0
 33 34  1  0  0  0
 34 35  1  0  0  0
 35 36  2  0  0  0
 35 37  1  0  0  0
 35 38  1  0  0  0
 39 40  1  0  0  0
 39 45  1  0  0  0
 40 41  1  0  0  0
 40 43  1  0  0  0
 40 82  1  0  0  0
 41 42  2  0  0  0
 41 46  1  0  0  0
 43 44  1  0  0  0
 43 83  1  0  0  0
 43 84  1  0  0  0
 44 45  1  0  0  0
 44 85  1  0  0  0
 44 86  1  0  0  0
 45 87  1  0  0  0
 45 88  1  0  0  0
 46 47  1  0  0  0
 46 89  1  0  0  0
 47 48  1  0  0  0
 47 50  1  0  0  0
 47 90  1  0  0  0
 48 49  1  0  0  0
 48 52  2  0  0  0
 50 51  1  0  0  0
 50 91  1  0  0  0
 50 92  1  0  0  0
 51 93  1  0  0  0
M  CHG  4   1   1  37  -1  38  -1  49  -1
M  END
> <s_m_source_file>
../4rh5_ligand.sdf

> <i_m_source_file_index>
1

> <s_epik_input>
W2NIXTFbY0hdW2NIXVtjSF1bY0hdYzFbQ0gyXVtDQEhdKFtOSDMrXSlDKD1PKVtOSF1bQ0BASF0oW0NIMl1bT0hdKUMoPU8pW05IXVtDQEBIXShbQ0gzXSlDKD1PKVtOSF1bQ0BIXShDKD1PKU4yW0NAQEhdKFtDSDJdW0NIMl1bQ0gyXTIpQyg9TylbTkhdW0NASF0oQyg9TylbT0hdKVtDSDJdW09IXSlbQ0gyXWMzW2NIXVtjSF1jKFtjSF1bY0hdMylPUCg9TykoW09IXSlbT0hd

> <s_epik_cmdline>
J2VwaWtfYXBwJywgJy1pbWFlJywgJ2xpZ2FuZF9wcm8ubWFlJywgJy1vbWFlJywgJ2xpZ2FuZF9wcmVwLm1hZScsICctbXMnLCAnMScsICctcGgnLCAnNycsICctcGh0JywgJzAuNScsICctbnQn

> <r_lp_tautomer_probability>
1

> <r_epik_Ionization_Penalty>
  0.2941

> <r_epik_Ionization_Penalty_Charging>
  0.2941

> <r_epik_Ionization_Penalty_Neutral>
  0.0000

> <r_epik_State_Penalty>
 -0.0000

> <r_epik_Charging_Adjusted_Penalty>
0.294079110801765

> <i_epik_Tot_Q>
-2

> <i_epik_Tot_abs_Q>
4

$$$$
