4rhx_ligand
                    3D
 Schrodinger Suite 2020-3.
 57 58  0  0  1  0            999 V2000
   -3.4260    7.6880  124.3960 O   0  5  0  0  0  0
   -4.1380    7.2190  123.1640 P   0  0  0  0  0  0
   -3.8360    5.7620  122.9330 O   0  0  0  0  0  0
   -5.6130    7.4050  123.3410 O   0  0  0  0  0  0
   -3.5740    8.2230  121.7060 C   0  0  0  0  0  0
   -3.9470    9.7430  121.9230 C   0  0  0  0  0  0
   -3.1430   10.6390  121.0550 N   0  3  1  0  0  0
   -3.0980   10.1000  119.6630 C   0  0  0  0  0  0
   -4.4330   10.3710  118.9460 C   0  0  0  0  0  0
   -5.3300    9.4990  118.9430 O   0  5  0  0  0  0
   -3.7500   11.9650  121.0700 C   0  0  0  0  0  0
   -3.5520   12.5980  122.4850 C   0  0  0  0  0  0
   -4.7010   13.4190  122.8740 N   0  0  2  0  0  0
   -4.5330   14.7310  122.3740 C   0  0  0  0  0  0
   -5.8770   15.3510  122.0520 C   0  0  0  0  0  0
   -5.7170   17.0350  121.2580 P   0  0  0  0  0  0
   -5.2720   16.8640  119.8310 O   0  0  0  0  0  0
   -7.0640   17.7400  121.2940 O   0  5  0  0  0  0
   -4.6950   17.8680  121.9950 O   0  0  0  0  0  0
   -4.7770   13.4530  124.3410 C   0  0  0  0  0  0
   -3.6050   14.2780  124.9360 C   0  0  0  0  0  0
   -3.9520   14.7350  126.3150 N   0  0  0  0  0  0
   -3.9860   13.9550  127.4320 C   0  0  0  0  0  0
   -3.7450   12.6280  127.7230 N   0  0  0  0  0  0
   -3.8620   12.1540  128.9460 C   0  0  0  0  0  0
   -3.6030   10.7790  129.1860 N   0  0  0  0  0  0
   -4.2310   12.9510  130.0020 N   0  0  0  0  0  0
   -4.4860   14.2400  129.8360 C   0  0  0  0  0  0
   -4.8640   15.0490  130.9260 O   0  0  0  0  0  0
   -4.3640   14.7970  128.4930 C   0  0  0  0  0  0
   -4.5400   16.0460  127.9470 N   0  0  0  0  0  0
   -4.2930   16.0000  126.6530 C   0  0  0  0  0  0
   -4.1028    5.0171  123.6972 H   0  0  0  0  0  0
   -2.4835    8.1292  121.5960 H   0  0  0  0  0  0
   -4.0675    7.8549  120.7944 H   0  0  0  0  0  0
   -5.0102    9.8970  121.6864 H   0  0  0  0  0  0
   -3.7607   10.0203  122.9710 H   0  0  0  0  0  0
   -2.2873    9.5754  119.1361 H   0  0  0  0  0  0
   -4.5984   11.3316  118.4361 H   0  0  0  0  0  0
   -3.2683   12.5973  120.3096 H   0  0  0  0  0  0
   -4.8241   11.8791  120.8486 H   0  0  0  0  0  0
   -3.4284   11.7985  123.2303 H   0  0  0  0  0  0
   -2.6557   13.2357  122.4793 H   0  0  0  0  0  0
   -4.0257   15.3491  123.1294 H   0  0  0  0  0  0
   -3.9250   14.6992  121.4578 H   0  0  0  0  0  0
   -6.4241   14.6989  121.3553 H   0  0  0  0  0  0
   -6.4585   15.4675  122.9784 H   0  0  0  0  0  0
   -3.6552   17.5182  122.0758 H   0  0  0  0  0  0
   -5.7269   13.9148  124.6483 H   0  0  0  0  0  0
   -4.7237   12.4273  124.7348 H   0  0  0  0  0  0
   -2.7009   13.6528  124.9782 H   0  0  0  0  0  0
   -3.4146   15.1555  124.3006 H   0  0  0  0  0  0
   -3.3061   10.1221  128.3552 H   0  0  0  0  0  0
   -3.6992   10.3705  130.2028 H   0  0  0  0  0  0
   -4.3199   12.5212  131.0107 H   0  0  0  0  0  0
   -4.3536   16.8444  125.9664 H   0  0  0  0  0  0
   -2.1151   10.7210  121.4380 H   0  0  0  0  0  0
  1  2  1  0  0  0
  2  3  1  0  0  0
  2  4  2  0  0  0
  2  5  1  0  0  0
  3 33  1  0  0  0
  5  6  1  0  0  0
  5 34  1  0  0  0
  5 35  1  0  0  0
  6  7  1  0  0  0
  6 36  1  0  0  0
  6 37  1  0  0  0
  7  8  1  0  0  0
  7 11  1  0  0  0
  7 57  1  0  0  0
  8  9  2  0  0  0
  8 38  1  0  0  0
  9 10  1  0  0  0
  9 39  1  0  0  0
 11 12  1  0  0  0
 11 40  1  0  0  0
 11 41  1  0  0  0
 12 13  1  0  0  0
 12 42  1  0  0  0
 12 43  1  0  0  0
 13 14  1  0  0  0
 13 20  1  0  0  0
 14 15  1  0  0  0
 14 44  1  0  0  0
 14 45  1  0  0  0
 15 16  1  0  0  0
 15 46  1  0  0  0
 15 47  1  0  0  0
 16 17  2  0  0  0
 16 18  1  0  0  0
 16 19  1  0  0  0
 19 48  1  0  0  0
 20 21  1  0  0  0
 20 49  1  0  0  0
 20 50  1  0  0  0
 21 22  1  0  0  0
 21 51  1  0  0  0
 21 52  1  0  0  0
 22 23  1  0  0  0
 22 32  1  0  0  0
 23 24  1  0  0  0
 23 30  2  0  0  0
 24 25  2  0  0  0
 25 26  1  0  0  0
 25 27  1  0  0  0
 26 53  1  0  0  0
 26 54  1  0  0  0
 27 28  1  0  0  0
 27 55  1  0  0  0
 28 29  2  0  0  0
 28 30  1  0  0  0
 30 31  1  0  0  0
 31 32  2  0  0  0
 32 56  1  0  0  0
M  CHG  4   1  -1   7   1  10  -1  18  -1
M  END
> <s_m_source_file>
../4rhx_ligand.sdf

> <i_m_source_file_index>
1

> <s_epik_input>
W09IXVAoPU8pKFtPSF0pW0NIMl1bQ0gyXVtOQEBIK10oW0NIMl1bQ0hdPU8pW0NIMl1bQ0gyXVtOQEgrXShbQ0gyXVtDSDJdUCg9TykoW09IXSlbT0hdKVtDSDJdW0NIMl1uMVtjSF1uYyhjMTIpYyg9TylbbkhdYyhuMilbTkgyXQ==

> <s_epik_cmdline>
J2VwaWtfYXBwJywgJy1pbWFlJywgJ2xpZ2FuZF9wcm8ubWFlJywgJy1vbWFlJywgJ2xpZ2FuZF9wcmVwLm1hZScsICctbXMnLCAnMScsICctcGgnLCAnNycsICctcGh0JywgJzAuNScsICctbnQn

> <r_lp_tautomer_probability>
1

> <r_epik_Ionization_Penalty>
  0.4194

> <r_epik_Ionization_Penalty_Charging>
  0.0050

> <r_epik_Ionization_Penalty_Neutral>
  0.4145

> <r_epik_State_Penalty>
 -0.0000

> <r_epik_Charging_Adjusted_Penalty>
0.00496021524960415

> <i_epik_Tot_Q>
-2

> <i_epik_Tot_abs_Q>
4

$$$$
