4rio_ligand
                    3D
 Schrodinger Suite 2020-3.
 37 39  0  0  1  0            999 V2000
   -0.4750  -13.2630   -3.8870 C   0  0  0  0  0  0
   -1.7770  -13.0580   -3.4050 C   0  0  0  0  0  0
   -2.6900  -14.0250   -3.1570 N   0  0  0  0  0  0
   -2.2210  -15.3210   -3.3710 N   0  0  0  0  0  0
   -0.9460  -15.6440   -3.7880 C   0  0  0  0  0  0
   -0.0310  -14.5900   -4.0940 C   0  0  0  0  0  0
   -2.9580  -16.4710   -3.1260 C   0  0  0  0  0  0
   -2.1410  -17.5340   -3.3640 C   0  0  0  0  0  0
   -0.8700  -17.0270   -3.7820 C   0  0  0  0  0  0
    0.4190  -12.0930   -4.1910 C   0  0  0  0  0  0
   -0.0240  -10.8600   -3.8800 N   0  0  0  0  0  0
    1.5310  -12.2810   -4.6900 O   0  0  0  0  0  0
    1.2480  -14.8370   -4.5870 N   0  0  0  0  0  0
    1.7150  -15.9640   -5.3870 C   0  0  2  0  0  0
    2.8950  -16.6340   -4.6870 C   0  0  0  0  0  0
    3.6400  -17.3860   -5.7680 C   0  0  0  0  0  0
    3.3840  -16.6310   -7.0700 C   0  0  0  0  0  0
    2.3970  -15.5210   -6.7300 C   0  0  1  0  0  0
    1.3800  -15.2750   -7.8510 C   0  0  0  0  0  0
    3.1160  -14.3370   -6.4860 F   0  0  0  0  0  0
   -2.0794  -12.0284   -3.2135 H   0  0  0  0  0  0
   -3.9981  -16.5152   -2.8029 H   0  0  0  0  0  0
   -2.4080  -18.5852   -3.2553 H   0  0  0  0  0  0
    0.0028  -17.6231   -4.0483 H   0  0  0  0  0  0
   -1.0219  -10.7299   -3.4359 H   0  0  0  0  0  0
    0.6121   -9.9829   -4.0700 H   0  0  0  0  0  0
    1.9484  -14.0392   -4.2990 H   0  0  0  0  0  0
    0.7948  -16.5577   -5.4906 H   0  0  0  0  0  0
    3.5311  -15.8653   -4.2239 H   0  0  0  0  0  0
    2.5208  -17.3171   -3.9102 H   0  0  0  0  0  0
    4.7133  -17.4058   -5.5277 H   0  0  0  0  0  0
    3.2586  -18.4160   -5.8275 H   0  0  0  0  0  0
    4.3312  -16.2170   -7.4461 H   0  0  0  0  0  0
    2.9629  -17.3202   -7.8168 H   0  0  0  0  0  0
    0.8162  -16.1996   -8.0439 H   0  0  0  0  0  0
    1.9093  -14.9706   -8.7660 H   0  0  0  0  0  0
    0.6850  -14.4783   -7.5472 H   0  0  0  0  0  0
  1  2  1  0  0  0
  1  6  2  0  0  0
  1 10  1  0  0  0
  2  3  2  0  0  0
  2 21  1  0  0  0
  3  4  1  0  0  0
  4  5  1  0  0  0
  4  7  1  0  0  0
  5  6  1  0  0  0
  5  9  2  0  0  0
  6 13  1  0  0  0
  7  8  2  0  0  0
  7 22  1  0  0  0
  8  9  1  0  0  0
  8 23  1  0  0  0
  9 24  1  0  0  0
 10 11  1  0  0  0
 10 12  2  0  0  0
 11 25  1  0  0  0
 11 26  1  0  0  0
 13 14  1  0  0  0
 13 27  1  0  0  0
 14 15  1  0  0  0
 14 18  1  0  0  0
 14 28  1  0  0  0
 15 16  1  0  0  0
 15 29  1  0  0  0
 15 30  1  0  0  0
 16 17  1  0  0  0
 16 31  1  0  0  0
 16 32  1  0  0  0
 17 18  1  0  0  0
 17 33  1  0  0  0
 17 34  1  0  0  0
 18 19  1  0  0  0
 18 20  1  0  0  0
 19 35  1  0  0  0
 19 36  1  0  0  0
 19 37  1  0  0  0
M  END
> <s_m_source_file>
../4rio_ligand.sdf

> <i_m_source_file_index>
1

> <s_epik_input>
W2NIXTFbY0hdW2NIXWMobjEyKWMoYyhbY0hdbjIpQyg9TylbTkgyXSlbTkhdW0NAQEhdKFtDQF0zKEYpW0NIM10pW0NIMl1bQ0gyXVtDSDJdMw==

> <s_epik_cmdline>
J2VwaWtfYXBwJywgJy1pbWFlJywgJ2xpZ2FuZF9wcm8ubWFlJywgJy1vbWFlJywgJ2xpZ2FuZF9wcmVwLm1hZScsICctbXMnLCAnMScsICctcGgnLCAnNycsICctcGh0JywgJzAuNScsICctbnQn

> <r_epik_Ionization_Penalty>
  0.0325

> <r_epik_Ionization_Penalty_Charging>
  0.0000

> <r_epik_Ionization_Penalty_Neutral>
  0.0325

> <r_epik_State_Penalty>
  0.0269

> <r_epik_Charging_Adjusted_Penalty>
0.0269185147417939

> <i_epik_Tot_Q>
0

> <i_epik_Tot_abs_Q>
0

$$$$
