4ris_ligand
                    3D
 Schrodinger Suite 2020-3.
257259  0  0  1  0            999 V2000
   13.2130 -112.3530  101.2910 N   0  3  0  0  0  0
   13.3930 -113.5790  102.0610 C   0  0  2  0  0  0
   14.8190 -113.6930  102.5680 C   0  0  0  0  0  0
   15.6230 -112.7880  102.3790 O   0  0  0  0  0  0
   13.0320 -114.8170  101.2370 C   0  0  0  0  0  0
   11.6110 -114.8180  100.7040 C   0  0  0  0  0  0
   11.6180 -115.1100   99.2190 C   0  0  0  0  0  0
   12.7610 -114.4740   98.5620 N   0  0  0  0  0  0
   12.7920 -113.2050   98.1590 C   0  0  0  0  0  0
   11.7360 -112.4220   98.3420 N   0  0  0  0  0  0
   13.8800 -112.7180   97.5730 N   0  0  0  0  0  0
   15.1390 -114.8190  103.1910 N   0  0  0  0  0  0
   16.3340 -114.8840  104.0170 C   0  0  2  0  0  0
   17.6680 -114.9610  103.2630 C   0  0  0  0  0  0
   18.6090 -114.2770  103.6420 O   0  0  0  0  0  0
   16.2250 -115.9870  105.0670 C   0  0  0  0  0  0
   16.8130 -115.5730  106.3980 C   0  0  0  0  0  0
   16.6490 -114.3940  106.7850 O   0  0  0  0  0  0
   17.4460 -116.4270  107.0540 O   0  0  0  0  0  0
   17.7700 -115.7650  102.2110 N   0  0  0  0  0  0
   19.0310 -115.7990  101.4530 C   0  0  2  0  0  0
   19.3930 -114.4500  100.8020 C   0  0  0  0  0  0
   20.5670 -114.0750  100.7460 O   0  0  0  0  0  0
   19.0460 -116.9310  100.4160 C   0  0  0  0  0  0
   19.4910 -118.2780  100.9770 C   0  0  0  0  0  0
   19.6830 -119.2990   99.8780 C   0  0  0  0  0  0
   18.3590 -119.6610   99.2080 C   0  0  0  0  0  0
   18.4820 -120.8190   98.2830 N   0  3  0  0  0  0
   18.3890 -113.7230  100.3200 N   0  0  0  0  0  0
   18.6260 -112.4080   99.7680 C   0  0  2  0  0  0
   18.9650 -111.4290  100.8830 C   0  0  0  0  0  0
   19.8500 -110.5740  100.7300 O   0  0  0  0  0  0
   17.4140 -111.9100   98.9940 C   0  0  0  0  0  0
   17.5720 -110.4880   98.5040 C   0  0  0  0  0  0
   17.6140 -110.4220   97.0010 C   0  0  0  0  0  0
   18.8250 -111.1230   96.4340 C   0  0  0  0  0  0
   18.6040 -111.2840   94.9770 N   0  3  0  0  0  0
   18.2570 -111.5570  102.0030 N   0  0  0  0  0  0
   18.5610 -110.7640  103.1890 C   0  0  2  0  0  0
   20.0540 -110.8820  103.5530 C   0  0  0  0  0  0
   20.7260 -109.8720  103.7570 O   0  0  0  0  0  0
   17.6600 -111.1800  104.3560 C   0  0  0  0  0  0
   18.1350 -110.7050  105.7160 C   0  0  0  0  0  0
   18.2160 -109.1930  105.8190 C   0  0  0  0  0  0
   17.3330 -108.4750  105.3370 O   0  0  0  0  0  0
   19.2800 -108.6980  106.4480 N   0  0  0  0  0  0
   20.5690 -112.1120  103.5840 N   0  0  0  0  0  0
   21.9750 -112.3670  103.9050 C   0  0  2  0  0  0
   22.9720 -111.6750  102.9730 C   0  0  0  0  0  0
   23.9690 -111.1410  103.4460 O   0  0  0  0  0  0
   22.2540 -113.8720  103.9410 C   0  0  0  0  0  0
   21.5070 -114.5940  105.0350 C   0  0  0  0  0  0
   21.7210 -116.0890  104.9590 C   0  0  0  0  0  0
   21.0370 -116.7950  106.1190 C   0  0  0  0  0  0
   21.3400 -118.2510  106.1150 N   0  3  0  0  0  0
   22.7290 -111.6810  101.6600 N   0  0  0  0  0  0
   23.6840 -111.0430  100.7590 C   0  0  2  0  0  0
   23.6390 -109.5280  100.8890 C   0  0  0  0  0  0
   24.6690 -108.8640  100.7930 O   0  0  0  0  0  0
   23.5680 -111.5060   99.2920 C   0  0  0  0  0  0
   23.9720 -112.9650   99.1680 C   0  0  0  0  0  0
   22.1820 -111.2650   98.7350 C   0  0  0  0  0  0
   22.4490 -108.9920  101.1600 N   0  0  0  0  0  0
   22.2950 -107.5720  101.4560 C   0  0  2  0  0  0
   23.1350 -107.1620  102.6560 C   0  0  0  0  0  0
   23.7870 -106.1190  102.6400 O   0  0  0  0  0  0
   20.8440 -107.2410  101.7380 C   0  0  0  0  0  0
   19.9900 -107.1890  100.5150 C   0  0  0  0  0  0
   20.4760 -106.8040   99.2850 N   0  0  0  0  0  0
   18.6800 -107.4730  100.3340 C   0  0  0  0  0  0
   19.5000 -106.8590   98.3970 C   0  0  0  0  0  0
   18.3990 -107.2580   99.0100 N   0  0  0  0  0  0
   23.1150 -107.9940  103.6910 N   0  0  0  0  0  0
   23.8310 -107.7100  104.9310 C   0  0  2  0  0  0
   25.3350 -107.7920  104.6940 C   0  0  0  0  0  0
   26.1250 -107.1710  105.4080 O   0  0  0  0  0  0
   23.4120 -108.6840  106.0100 C   0  0  0  0  0  0
   25.7170 -108.5600  103.6770 N   0  0  0  0  0  0
   27.1070 -108.7410  103.3300 C   0  0  2  0  0  0
   27.5880 -107.6070  102.4460 C   0  0  0  0  0  0
   28.6460 -107.0350  102.6690 O   0  0  0  0  0  0
   27.2700 -110.0420  102.5530 C   0  0  0  0  0  0
   28.1980 -111.0930  103.1420 C   0  0  0  0  0  0
   28.4000 -112.2300  102.1510 C   0  0  0  0  0  0
   29.5310 -110.4710  103.5410 C   0  0  0  0  0  0
   26.7910 -107.2710  101.4450 N   0  0  0  0  0  0
   27.2860 -106.4920  100.3240 C   0  0  2  0  0  0
   26.7370 -105.0750  100.1820 C   0  0  0  0  0  0
   27.3290 -104.2690   99.4690 O   0  0  0  0  0  0
   27.0440 -107.2670   99.0220 C   0  0  0  0  0  0
   27.7570 -108.5890   98.9660 C   0  0  0  0  0  0
   29.1020 -108.6800   99.2900 C   0  0  0  0  0  0
   27.0760 -109.7420   98.6130 C   0  0  0  0  0  0
   29.7630 -109.9050   99.2490 C   0  0  0  0  0  0
   27.7180 -110.9620   98.5740 C   0  0  0  0  0  0
   29.0680 -111.0440   98.8890 C   0  0  0  0  0  0
   25.6200 -104.7520  100.8300 N   0  0  0  0  0  0
   24.9780 -103.4710  100.5290 C   0  0  2  0  0  0
   25.7180 -102.2170  100.9970 C   0  0  0  0  0  0
   26.0870 -102.0900  102.1630 O   0  0  0  0  0  0
   23.5270 -103.4140  101.0040 C   0  0  0  0  0  0
   22.8740 -102.0810  100.6860 C   0  0  0  0  0  0
   22.2870 -101.8530   99.4530 C   0  0  0  0  0  0
   22.8660 -101.0420  101.6190 C   0  0  0  0  0  0
   21.7010 -100.6340   99.1580 C   0  0  0  0  0  0
   22.2840  -99.8210  101.3340 C   0  0  0  0  0  0
   21.7020  -99.6210  100.1020 C   0  0  0  0  0  0
   21.1250  -98.4030   99.8130 O   0  0  0  0  0  0
   25.9000 -101.2920  100.0550 N   0  0  0  0  0  0
   26.3710  -99.9320  100.3160 C   0  0  2  0  0  0
   25.5830  -98.9600   99.4300 C   0  0  0  0  0  0
   25.3170  -99.2540   98.2630 O   0  0  0  0  0  0
   27.8540  -99.8210   99.9890 C   0  0  0  0  0  0
   28.7380 -100.8050  100.7300 C   0  0  0  0  0  0
   29.1950 -100.2290  102.0580 C   0  0  0  0  0  0
   30.1230 -101.1960  102.7800 C   0  0  0  0  0  0
   30.7110 -100.6050  104.0230 N   0  3  0  0  0  0
   25.2230  -97.8000   99.9670 N   0  0  0  0  0  0
   24.3660  -96.8620   99.2340 C   0  0  2  0  0  0
   24.9830  -96.3440   97.9280 C   0  0  0  0  0  0
   26.0870  -95.7980   97.9160 O   0  0  0  0  0  0
   23.9480  -95.7020  100.1310 C   0  0  0  0  0  0
   24.3920  -96.4590   96.8530 O   0  0  0  0  0  0
   13.4811 -111.4865  101.9133 H   0  0  0  0  0  0
   12.1621 -112.2680  100.9773 H   0  0  0  0  0  0
   13.8601 -112.3801  100.4019 H   0  0  0  0  0  0
   12.7013 -113.4805  102.9106 H   0  0  0  0  0  0
   13.7024 -114.8871  100.3677 H   0  0  0  0  0  0
   13.1434 -115.7171  101.8595 H   0  0  0  0  0  0
   11.0253 -115.5911  101.2230 H   0  0  0  0  0  0
   11.1535 -113.8329  100.8779 H   0  0  0  0  0  0
   11.6804 -116.1966   99.0593 H   0  0  0  0  0  0
   10.6927 -114.7253   98.7653 H   0  0  0  0  0  0
   13.6769 -115.0522   98.3703 H   0  0  0  0  0  0
   10.8328 -112.8210   98.8268 H   0  0  0  0  0  0
   14.7575 -113.3633   97.4193 H   0  0  0  0  0  0
   13.9035 -111.6694   97.2414 H   0  0  0  0  0  0
   14.4972 -115.7056  103.0814 H   0  0  0  0  0  0
   16.3073 -113.8908  104.4891 H   0  0  0  0  0  0
   15.1660 -116.2385  105.2260 H   0  0  0  0  0  0
   16.7655 -116.8795  104.7187 H   0  0  0  0  0  0
   17.0668 -114.0684  107.7491 H   0  0  0  0  0  0
   16.9264 -116.4007  101.9040 H   0  0  0  0  0  0
   19.7748 -116.0102  102.2355 H   0  0  0  0  0  0
   18.0339 -117.0672  100.0072 H   0  0  0  0  0  0
   19.7388 -116.6729   99.6015 H   0  0  0  0  0  0
   20.4456 -118.1560  101.5098 H   0  0  0  0  0  0
   18.7279 -118.6553  101.6736 H   0  0  0  0  0  0
   20.3590 -118.8907   99.1123 H   0  0  0  0  0  0
   20.1195 -120.2157  100.3013 H   0  0  0  0  0  0
   17.6178 -119.9218   99.9778 H   0  0  0  0  0  0
   17.9957 -118.8015   98.6255 H   0  0  0  0  0  0
   17.5021 -121.0333   97.8315 H   0  0  0  0  0  0
   18.8284 -121.7002   98.8428 H   0  0  0  0  0  0
   19.2064 -120.5799   97.4905 H   0  0  0  0  0  0
   17.3687 -114.1334  100.3448 H   0  0  0  0  0  0
   19.4776 -112.5323   99.0829 H   0  0  0  0  0  0
   17.2516 -112.5510   98.1150 H   0  0  0  0  0  0
   16.5257 -111.9442   99.6419 H   0  0  0  0  0  0
   16.7230 -109.8829   98.8547 H   0  0  0  0  0  0
   18.5093 -110.0669   98.8966 H   0  0  0  0  0  0
   16.7154 -110.9033   96.5876 H   0  0  0  0  0  0
   17.6466 -109.3701   96.6809 H   0  0  0  0  0  0
   19.7222 -110.5150   96.6221 H   0  0  0  0  0  0
   18.9397 -112.1048   96.9165 H   0  0  0  0  0  0
   19.4700 -111.7932   94.5289 H   0  0  0  0  0  0
   18.4803 -110.2942   94.5133 H   0  0  0  0  0  0
   17.6978 -111.8841   94.8077 H   0  0  0  0  0  0
   17.4276 -112.2794  102.0221 H   0  0  0  0  0  0
   18.3349 -109.7221  102.9181 H   0  0  0  0  0  0
   16.6518 -110.7663  104.2064 H   0  0  0  0  0  0
   17.6029 -112.2776  104.4020 H   0  0  0  0  0  0
   17.4381 -111.0565  106.4911 H   0  0  0  0  0  0
   19.1388 -111.1084  105.9153 H   0  0  0  0  0  0
   20.0403 -109.3774  106.8608 H   0  0  0  0  0  0
   19.3988 -107.6097  106.5548 H   0  0  0  0  0  0
   19.8956 -112.9517  103.3570 H   0  0  0  0  0  0
   22.0813 -111.9107  104.9002 H   0  0  0  0  0  0
   21.9549 -114.3233  102.9835 H   0  0  0  0  0  0
   23.3281 -114.0420  104.1068 H   0  0  0  0  0  0
   21.8607 -114.2412  106.0150 H   0  0  0  0  0  0
   20.4301 -114.3913  104.9392 H   0  0  0  0  0  0
   21.3030 -116.4718  104.0163 H   0  0  0  0  0  0
   22.7983 -116.3077  104.9979 H   0  0  0  0  0  0
   21.3890 -116.3655  107.0685 H   0  0  0  0  0  0
   19.9480 -116.6626  106.0381 H   0  0  0  0  0  0
   20.8327 -118.7334  106.9635 H   0  0  0  0  0  0
   22.4262 -118.3997  106.2045 H   0  0  0  0  0  0
   20.9852 -118.6968  105.1740 H   0  0  0  0  0  0
   21.8244 -112.1577  101.2546 H   0  0  0  0  0  0
   24.6524 -111.4022  101.1373 H   0  0  0  0  0  0
   24.2523 -110.9094   98.6709 H   0  0  0  0  0  0
   24.9819 -113.1022   99.5818 H   0  0  0  0  0  0
   23.9672 -113.2579   98.1077 H   0  0  0  0  0  0
   23.2594 -113.5913   99.7247 H   0  0  0  0  0  0
   21.9240 -110.2010   98.8414 H   0  0  0  0  0  0
   21.4533 -111.8761   99.2878 H   0  0  0  0  0  0
   22.1611 -111.5427   97.6708 H   0  0  0  0  0  0
   21.5688 -109.6517  101.1564 H   0  0  0  0  0  0
   22.6439 -107.0537  100.5507 H   0  0  0  0  0  0
   20.4161 -108.0056  102.4030 H   0  0  0  0  0  0
   20.7802 -106.2558  102.2232 H   0  0  0  0  0  0
   17.8875 -107.8147  101.0160 H   0  0  0  0  0  0
   19.5876 -106.6164   97.3379 H   0  0  0  0  0  0
   22.5342 -108.9228  103.5917 H   0  0  0  0  0  0
   23.5502 -106.6905  105.2338 H   0  0  0  0  0  0
   22.3258 -108.6115  106.1677 H   0  0  0  0  0  0
   23.9355 -108.4412  106.9465 H   0  0  0  0  0  0
   23.6701 -109.7075  105.7004 H   0  0  0  0  0  0
   24.9340 -109.0656  103.0929 H   0  0  0  0  0  0
   27.6501 -108.7512  104.2865 H   0  0  0  0  0  0
   26.2920 -110.5359  102.4556 H   0  0  0  0  0  0
   27.6717 -109.8237  101.5525 H   0  0  0  0  0  0
   27.7317 -111.5047  104.0492 H   0  0  0  0  0  0
   27.4237 -112.6591  101.8813 H   0  0  0  0  0  0
   29.0287 -113.0080  102.6087 H   0  0  0  0  0  0
   28.8936 -111.8448  101.2466 H   0  0  0  0  0  0
   29.3549 -109.6540  104.2562 H   0  0  0  0  0  0
   30.0325 -110.0735  102.6463 H   0  0  0  0  0  0
   30.1676 -111.2367  104.0085 H   0  0  0  0  0  0
   25.7388 -107.5909  101.4706 H   0  0  0  0  0  0
   28.3472 -106.3789  100.5905 H   0  0  0  0  0  0
   25.9686 -107.4694   98.9103 H   0  0  0  0  0  0
   27.3951 -106.6686   98.1684 H   0  0  0  0  0  0
   29.6482 -107.7825   99.5801 H   0  0  0  0  0  0
   26.0168 -109.6845   98.3622 H   0  0  0  0  0  0
   30.8222 -109.9651   99.4993 H   0  0  0  0  0  0
   27.1667 -111.8604   98.2964 H   0  0  0  0  0  0
   29.5791 -112.0060   98.8523 H   0  0  0  0  0  0
   25.1785 -105.4259  101.5789 H   0  0  0  0  0  0
   25.0389 -103.4975   99.4310 H   0  0  0  0  0  0
   22.9474 -104.2064  100.5078 H   0  0  0  0  0  0
   23.4918 -103.5614  102.0935 H   0  0  0  0  0  0
   22.2863 -102.6447   98.7038 H   0  0  0  0  0  0
   23.3289 -101.1972  102.5935 H   0  0  0  0  0  0
   21.2394 -100.4718   98.1840 H   0  0  0  0  0  0
   22.2857  -99.0239  102.0775 H   0  0  0  0  0  0
   20.6579  -98.2347   98.8314 H   0  0  0  0  0  0
   25.6713 -101.6069   99.0261 H   0  0  0  0  0  0
   26.2085  -99.7311  101.3852 H   0  0  0  0  0  0
   28.0070 -100.0007   98.9146 H   0  0  0  0  0  0
   28.2119  -98.8133  100.2468 H   0  0  0  0  0  0
   28.1759 -101.7311  100.9209 H   0  0  0  0  0  0
   29.6243 -101.0332  100.1198 H   0  0  0  0  0  0
   29.7341  -99.2864  101.8827 H   0  0  0  0  0  0
   28.3192 -100.0374  102.6954 H   0  0  0  0  0  0
   29.5620 -102.0979  103.0662 H   0  0  0  0  0  0
   30.9517 -101.4759  102.1131 H   0  0  0  0  0  0
   31.3706 -101.3428  104.5032 H   0  0  0  0  0  0
   29.9024 -100.3300  104.7162 H   0  0  0  0  0  0
   31.2921  -99.7079  103.7631 H   0  0  0  0  0  0
   25.5774  -97.5469  100.9771 H   0  0  0  0  0  0
   23.4923  -97.4742   98.9659 H   0  0  0  0  0  0
   23.5092  -96.0962  101.0595 H   0  0  0  0  0  0
   23.2041  -95.0834   99.6076 H   0  0  0  0  0  0
   24.8292  -95.0896  100.3729 H   0  0  0  0  0  0
   24.8529  -96.0805   95.9287 H   0  0  0  0  0  0
  1  2  1  0  0  0
  1124  1  0  0  0
  1125  1  0  0  0
  1126  1  0  0  0
  2  3  1  0  0  0
  2  5  1  0  0  0
  2127  1  0  0  0
  3  4  2  0  0  0
  3 12  1  0  0  0
  5  6  1  0  0  0
  5128  1  0  0  0
  5129  1  0  0  0
  6  7  1  0  0  0
  6130  1  0  0  0
  6131  1  0  0  0
  7  8  1  0  0  0
  7132  1  0  0  0
  7133  1  0  0  0
  8  9  1  0  0  0
  8134  1  0  0  0
  9 10  2  0  0  0
  9 11  1  0  0  0
 10135  1  0  0  0
 11136  1  0  0  0
 11137  1  0  0  0
 12 13  1  0  0  0
 12138  1  0  0  0
 13 14  1  0  0  0
 13 16  1  0  0  0
 13139  1  0  0  0
 14 15  2  0  0  0
 14 20  1  0  0  0
 16 17  1  0  0  0
 16140  1  0  0  0
 16141  1  0  0  0
 17 18  1  0  0  0
 17 19  2  0  0  0
 18142  1  0  0  0
 20 21  1  0  0  0
 20143  1  0  0  0
 21 22  1  0  0  0
 21 24  1  0  0  0
 21144  1  0  0  0
 22 23  2  0  0  0
 22 29  1  0  0  0
 24 25  1  0  0  0
 24145  1  0  0  0
 24146  1  0  0  0
 25 26  1  0  0  0
 25147  1  0  0  0
 25148  1  0  0  0
 26 27  1  0  0  0
 26149  1  0  0  0
 26150  1  0  0  0
 27 28  1  0  0  0
 27151  1  0  0  0
 27152  1  0  0  0
 28153  1  0  0  0
 28154  1  0  0  0
 28155  1  0  0  0
 29 30  1  0  0  0
 29156  1  0  0  0
 30 31  1  0  0  0
 30 33  1  0  0  0
 30157  1  0  0  0
 31 32  2  0  0  0
 31 38  1  0  0  0
 33 34  1  0  0  0
 33158  1  0  0  0
 33159  1  0  0  0
 34 35  1  0  0  0
 34160  1  0  0  0
 34161  1  0  0  0
 35 36  1  0  0  0
 35162  1  0  0  0
 35163  1  0  0  0
 36 37  1  0  0  0
 36164  1  0  0  0
 36165  1  0  0  0
 37166  1  0  0  0
 37167  1  0  0  0
 37168  1  0  0  0
 38 39  1  0  0  0
 38169  1  0  0  0
 39 40  1  0  0  0
 39 42  1  0  0  0
 39170  1  0  0  0
 40 41  2  0  0  0
 40 47  1  0  0  0
 42 43  1  0  0  0
 42171  1  0  0  0
 42172  1  0  0  0
 43 44  1  0  0  0
 43173  1  0  0  0
 43174  1  0  0  0
 44 45  2  0  0  0
 44 46  1  0  0  0
 46175  1  0  0  0
 46176  1  0  0  0
 47 48  1  0  0  0
 47177  1  0  0  0
 48 49  1  0  0  0
 48 51  1  0  0  0
 48178  1  0  0  0
 49 50  2  0  0  0
 49 56  1  0  0  0
 51 52  1  0  0  0
 51179  1  0  0  0
 51180  1  0  0  0
 52 53  1  0  0  0
 52181  1  0  0  0
 52182  1  0  0  0
 53 54  1  0  0  0
 53183  1  0  0  0
 53184  1  0  0  0
 54 55  1  0  0  0
 54185  1  0  0  0
 54186  1  0  0  0
 55187  1  0  0  0
 55188  1  0  0  0
 55189  1  0  0  0
 56 57  1  0  0  0
 56190  1  0  0  0
 57 58  1  0  0  0
 57 60  1  0  0  0
 57191  1  0  0  0
 58 59  2  0  0  0
 58 63  1  0  0  0
 60 61  1  0  0  0
 60 62  1  0  0  0
 60192  1  0  0  0
 61193  1  0  0  0
 61194  1  0  0  0
 61195  1  0  0  0
 62196  1  0  0  0
 62197  1  0  0  0
 62198  1  0  0  0
 63 64  1  0  0  0
 63199  1  0  0  0
 64 65  1  0  0  0
 64 67  1  0  0  0
 64200  1  0  0  0
 65 66  2  0  0  0
 65 73  1  0  0  0
 67 68  1  0  0  0
 67201  1  0  0  0
 67202  1  0  0  0
 68 69  2  0  0  0
 68 70  1  0  0  0
 69 71  1  0  0  0
 70 72  2  0  0  0
 70203  1  0  0  0
 71 72  1  0  0  0
 71204  1  0  0  0
 73 74  1  0  0  0
 73205  1  0  0  0
 74 75  1  0  0  0
 74 77  1  0  0  0
 74206  1  0  0  0
 75 76  2  0  0  0
 75 78  1  0  0  0
 77207  1  0  0  0
 77208  1  0  0  0
 77209  1  0  0  0
 78 79  1  0  0  0
 78210  1  0  0  0
 79 80  1  0  0  0
 79 82  1  0  0  0
 79211  1  0  0  0
 80 81  2  0  0  0
 80 86  1  0  0  0
 82 83  1  0  0  0
 82212  1  0  0  0
 82213  1  0  0  0
 83 84  1  0  0  0
 83 85  1  0  0  0
 83214  1  0  0  0
 84215  1  0  0  0
 84216  1  0  0  0
 84217  1  0  0  0
 85218  1  0  0  0
 85219  1  0  0  0
 85220  1  0  0  0
 86 87  1  0  0  0
 86221  1  0  0  0
 87 88  1  0  0  0
 87 90  1  0  0  0
 87222  1  0  0  0
 88 89  2  0  0  0
 88 97  1  0  0  0
 90 91  1  0  0  0
 90223  1  0  0  0
 90224  1  0  0  0
 91 92  2  0  0  0
 91 93  1  0  0  0
 92 94  1  0  0  0
 92225  1  0  0  0
 93 95  2  0  0  0
 93226  1  0  0  0
 94 96  2  0  0  0
 94227  1  0  0  0
 95 96  1  0  0  0
 95228  1  0  0  0
 96229  1  0  0  0
 97 98  1  0  0  0
 97230  1  0  0  0
 98 99  1  0  0  0
 98101  1  0  0  0
 98231  1  0  0  0
 99100  2  0  0  0
 99109  1  0  0  0
101102  1  0  0  0
101232  1  0  0  0
101233  1  0  0  0
102103  2  0  0  0
102104  1  0  0  0
103105  1  0  0  0
103234  1  0  0  0
104106  2  0  0  0
104235  1  0  0  0
105107  2  0  0  0
105236  1  0  0  0
106107  1  0  0  0
106237  1  0  0  0
107108  1  0  0  0
108238  1  0  0  0
109110  1  0  0  0
109239  1  0  0  0
110111  1  0  0  0
110113  1  0  0  0
110240  1  0  0  0
111112  2  0  0  0
111118  1  0  0  0
113114  1  0  0  0
113241  1  0  0  0
113242  1  0  0  0
114115  1  0  0  0
114243  1  0  0  0
114244  1  0  0  0
115116  1  0  0  0
115245  1  0  0  0
115246  1  0  0  0
116117  1  0  0  0
116247  1  0  0  0
116248  1  0  0  0
117249  1  0  0  0
117250  1  0  0  0
117251  1  0  0  0
118119  1  0  0  0
118252  1  0  0  0
119120  1  0  0  0
119122  1  0  0  0
119253  1  0  0  0
120121  2  0  0  0
120123  1  0  0  0
122254  1  0  0  0
122255  1  0  0  0
122256  1  0  0  0
123257  1  0  0  0
M  CHG  5   1   1  28   1  37   1  55   1 117   1
M  END
> <s_m_source_file>
../4ris_ligand.sdf

> <i_m_source_file_index>
1

> <s_epik_input>
W0hdL049QyhbTkgyXSlcW05IXVtDSDJdW0NIMl1bQ0gyXVtDQEhdKFtOSDMrXSlDKD1PKVtOSF1bQ0BASF0oW0NIMl1DKD1PKVtPSF0pQyg9TylbTkhdW0NAQEhdKFtDSDJdW0NIMl1bQ0gyXVtDSDJdW05IMytdKUMoPU8pW05IXVtDQEBIXShbQ0gyXVtDSDJdW0NIMl1bQ0gyXVtOSDMrXSlDKD1PKVtOSF1bQ0BASF0oW0NIMl1bQ0gyXUMoPU8pW05IMl0pQyg9TylbTkhdW0NAQEhdKFtDSDJdW0NIMl1bQ0gyXVtDSDJdW05IMytdKUMoPU8pW05IXVtDQEBIXShbQ0hdKFtDSDNdKVtDSDNdKUMoPU8pW05IXVtDQEBIXShbQ0gyXUMxPU5bQ0gyXU49W0NIXTEpQyg9TylbTkhdW0NAQEhdKFtDSDNdKUMoPU8pW05IXVtDQEBIXShbQ0gyXVtDSF0oW0NIM10pW0NIM10pQyg9TylbTkhdW0NAQEhdKFtDSDJdYzJbY0hdW2NIXVtjSF1bY0hdW2NIXTIpQyg9TylbTkhdW0NAQEhdKFtDSDJdYzNbY0hdW2NIXWMoW09IXSlbY0hdW2NIXTMpQyg9TylbTkhdW0NASF0oQyg9TylbTkhdW0NAQEhdKFtDSDNdKUMoPU8pW09IXSlbQ0gyXVtDSDJdW0NIMl1bQ0gyXVtOSDMrXQ==

> <s_epik_cmdline>
J2VwaWtfYXBwJywgJy1pbWFlJywgJ2xpZ2FuZF9wcm8ubWFlJywgJy1vbWFlJywgJ2xpZ2FuZF9wcmVwLm1hZScsICctbXMnLCAnMScsICctcGgnLCAnNycsICctcGh0JywgJzAuNScsICctbnQn

> <s_epik_pKa_notes>
Molecule size exceeds maximum supported for generating protonation states

> <s_epik_Chemistry_Notes>
This compound has an imine and may undergo hydrolysis.

$$$$
