4rj3_ligand
                    3D
 Schrodinger Suite 2020-3.
 58 62  0  0  1  0            999 V2000
   -2.3450  -22.6170   45.4860 C   0  0  0  0  0  0
   -3.6380  -23.4510   45.4010 C   0  0  0  0  0  0
   -5.1520  -25.8380   42.4660 C   0  0  0  0  0  0
   -2.3460  -25.4700   46.3290 C   0  0  0  0  0  0
   -1.0650  -24.6430   46.2100 C   0  0  0  0  0  0
   -3.7540  -25.6610   44.3160 C   0  0  0  0  0  0
   -4.5480  -27.0440   42.1300 C   0  0  0  0  0  0
   -3.5180  -27.5330   42.9440 C   0  0  0  0  0  0
   -1.4380  -23.2000   46.5820 C   0  0  0  0  0  0
    0.2140  -22.3920   48.1140 C   0  0  0  0  0  0
   -0.2580  -22.4110   46.7630 O   0  0  0  0  0  0
   -3.3920  -24.9180   45.4350 N   0  0  0  0  0  0
   -4.7310  -25.1820   43.5500 N   0  0  0  0  0  0
   -3.1450  -26.8200   44.0210 N   0  0  0  0  0  0
   -2.9430  -28.7480   42.5730 N   0  0  0  0  0  0
   -1.8690  -29.4060   43.1850 C   0  0  0  0  0  0
   -1.0250  -28.7740   44.1020 C   0  0  0  0  0  0
    0.0200  -29.4840   44.6720 C   0  0  0  0  0  0
    0.1980  -30.8370   44.2880 C   0  0  0  0  0  0
    1.3590  -31.3150   45.0450 C   0  0  0  0  0  0
    1.7880  -30.2920   45.7960 C   0  0  0  0  0  0
    1.0070  -29.1760   45.5810 N   0  0  0  0  0  0
    1.1420  -27.8710   46.2450 C   0  0  0  0  0  0
    0.4300  -27.9550   47.6230 C   0  0  0  0  0  0
    1.1990  -26.9940   48.5740 C   0  0  0  0  0  0
    2.3590  -26.4120   47.7140 C   0  0  0  0  0  0
    2.5790  -27.5040   46.6410 C   0  0  0  0  0  0
   -0.6890  -31.4060   43.3650 C   0  0  0  0  0  0
   -1.6780  -30.6830   42.8470 N   0  3  0  0  0  0
   -1.8228  -22.6505   44.5184 H   0  0  0  0  0  0
   -2.5965  -21.5745   45.7310 H   0  0  0  0  0  0
   -4.2904  -23.2036   46.2514 H   0  0  0  0  0  0
   -4.1600  -23.2233   44.4599 H   0  0  0  0  0  0
   -5.9578  -25.4337   41.8533 H   0  0  0  0  0  0
   -2.1381  -26.5114   46.0422 H   0  0  0  0  0  0
   -2.7062  -25.4408   47.3680 H   0  0  0  0  0  0
   -0.3058  -25.0418   46.8989 H   0  0  0  0  0  0
   -0.6882  -24.6970   45.1780 H   0  0  0  0  0  0
   -4.8700  -27.5993   41.2490 H   0  0  0  0  0  0
   -1.9309  -23.1458   47.5639 H   0  0  0  0  0  0
    1.1187  -21.7696   48.1776 H   0  0  0  0  0  0
    0.4511  -23.4174   48.4340 H   0  0  0  0  0  0
   -0.5651  -21.9744   48.7687 H   0  0  0  0  0  0
   -3.3358  -29.3006   41.7068 H   0  0  0  0  0  0
   -1.1874  -27.7293   44.3673 H   0  0  0  0  0  0
    1.7917  -32.3146   45.0044 H   0  0  0  0  0  0
    2.6351  -30.3356   46.4806 H   0  0  0  0  0  0
    0.7414  -27.1771   45.4913 H   0  0  0  0  0  0
   -0.6194  -27.6440   47.5130 H   0  0  0  0  0  0
    0.4688  -28.9901   47.9933 H   0  0  0  0  0  0
    0.5192  -26.2034   48.9245 H   0  0  0  0  0  0
    1.5797  -27.5595   49.4373 H   0  0  0  0  0  0
    2.0472  -25.4503   47.2805 H   0  0  0  0  0  0
    3.2444  -26.2584   48.3484 H   0  0  0  0  0  0
    3.0894  -28.3949   47.0357 H   0  0  0  0  0  0
    3.1194  -27.1330   45.7576 H   0  0  0  0  0  0
   -0.5679  -32.4481   43.0694 H   0  0  0  0  0  0
   -2.3485  -31.1660   42.1210 H   0  0  0  0  0  0
  1  2  1  0  0  0
  1  9  1  0  0  0
  1 30  1  0  0  0
  1 31  1  0  0  0
  2 12  1  0  0  0
  2 32  1  0  0  0
  2 33  1  0  0  0
  3  7  2  0  0  0
  3 13  1  0  0  0
  3 34  1  0  0  0
  4  5  1  0  0  0
  4 12  1  0  0  0
  4 35  1  0  0  0
  4 36  1  0  0  0
  5  9  1  0  0  0
  5 37  1  0  0  0
  5 38  1  0  0  0
  6 12  1  0  0  0
  6 13  2  0  0  0
  6 14  1  0  0  0
  7  8  1  0  0  0
  7 39  1  0  0  0
  8 14  2  0  0  0
  8 15  1  0  0  0
  9 11  1  0  0  0
  9 40  1  0  0  0
 10 11  1  0  0  0
 10 41  1  0  0  0
 10 42  1  0  0  0
 10 43  1  0  0  0
 15 16  1  0  0  0
 15 44  1  0  0  0
 16 17  2  0  0  0
 16 29  1  0  0  0
 17 18  1  0  0  0
 17 45  1  0  0  0
 18 19  2  0  0  0
 18 22  1  0  0  0
 19 20  1  0  0  0
 19 28  1  0  0  0
 20 21  2  0  0  0
 20 46  1  0  0  0
 21 22  1  0  0  0
 21 47  1  0  0  0
 22 23  1  0  0  0
 23 24  1  0  0  0
 23 27  1  0  0  0
 23 48  1  0  0  0
 24 25  1  0  0  0
 24 49  1  0  0  0
 24 50  1  0  0  0
 25 26  1  0  0  0
 25 51  1  0  0  0
 25 52  1  0  0  0
 26 27  1  0  0  0
 26 53  1  0  0  0
 26 54  1  0  0  0
 27 55  1  0  0  0
 27 56  1  0  0  0
 28 29  2  0  0  0
 28 57  1  0  0  0
 29 58  1  0  0  0
M  CHG  1  29   1
M  END
> <s_m_source_file>
../4rj3_ligand.sdf

> <i_m_source_file_index>
1

> <s_epik_input>
W0NIM11PW0NIXTFbQ0gyXVtDSDJdTihbQ0gyXVtDSDJdMSljMm5bY0hdW2NIXWMobjIpW05IXWMoW2NIXTMpbltjSF1jKGMzNClbY0hdW2NIXW40W0NIXTVbQ0gyXVtDSDJdW0NIMl1bQ0gyXTU=

> <s_epik_cmdline>
J2VwaWtfYXBwJywgJy1pbWFlJywgJ2xpZ2FuZF9wcm8ubWFlJywgJy1vbWFlJywgJ2xpZ2FuZF9wcmVwLm1hZScsICctbXMnLCAnMScsICctcGgnLCAnNycsICctcGh0JywgJzAuNScsICctbnQn

> <r_lp_tautomer_probability>
1

> <r_epik_Ionization_Penalty>
  0.0436

> <r_epik_Ionization_Penalty_Charging>
  0.0135

> <r_epik_Ionization_Penalty_Neutral>
  0.0301

> <r_epik_State_Penalty>
 -0.0000

> <r_epik_Charging_Adjusted_Penalty>
0.0135427958201922

> <i_epik_Tot_Q>
1

> <i_epik_Tot_abs_Q>
1

$$$$
