4rj4_ligand
                    3D
 Schrodinger Suite 2020-3.
 60 64  0  0  1  0            999 V2000
  -50.1200   -0.4740  -16.7320 C   0  0  0  0  0  0
  -52.4840    0.5510  -20.7860 C   0  0  0  0  0  0
  -53.1290    0.7390  -22.0180 C   0  0  0  0  0  0
  -52.0730    0.9690  -18.5480 C   0  0  0  0  0  0
  -54.1520    1.6790  -22.1280 C   0  0  0  0  0  0
  -53.9390    2.2720  -19.8820 C   0  0  0  0  0  0
  -52.9090    1.3450  -19.6870 C   0  0  0  0  0  0
  -51.2170    0.0060  -18.9770 C   0  0  0  0  0  0
  -50.1590   -0.5650  -18.0950 C   0  0  0  0  0  0
  -49.7990   -0.5980  -22.1980 C   0  0  0  0  0  0
  -51.6030   -2.3430  -21.7700 C   0  0  0  0  0  0
  -50.7190   -1.2450  -21.1630 C   0  0  0  0  0  0
  -51.4540   -0.2590  -20.3340 N   0  0  0  0  0  0
  -54.5190    2.3980  -21.0660 N   0  3  0  0  0  0
  -48.9710   -1.0440  -16.3050 N   0  0  0  0  0  0
  -48.2550   -1.4910  -17.4220 N   0  0  0  0  0  0
  -48.9460   -1.1830  -18.4890 C   0  0  0  0  0  0
  -54.8110    1.9510  -23.3350 N   0  0  0  0  0  0
  -54.9280    1.1360  -24.4640 C   0  0  0  0  0  0
  -56.0840    1.2470  -25.2630 C   0  0  0  0  0  0
  -56.1980    0.4360  -26.3850 C   0  0  0  0  0  0
  -55.2140   -0.4160  -26.6680 N   0  0  0  0  0  0
  -54.1170   -0.5180  -25.8980 C   0  0  0  0  0  0
  -53.9810    0.2560  -24.8180 N   0  0  0  0  0  0
  -53.1060   -1.4270  -26.2280 N   0  0  0  0  0  0
  -52.8150   -1.4360  -27.6890 C   0  0  0  0  0  0
  -51.7210   -2.4320  -28.0650 C   0  0  0  0  0  0
  -50.4500   -2.1090  -27.2600 C   0  0  0  0  0  0
  -50.7640   -2.1980  -25.7490 C   0  0  0  0  0  0
  -51.9170   -1.2690  -25.3500 C   0  0  0  0  0  0
  -49.4670   -3.0910  -27.6150 O   0  0  0  0  0  0
  -48.1000   -2.7240  -27.4210 C   0  0  0  0  0  0
  -50.9474    0.0061  -16.1889 H   0  0  0  0  0  0
  -52.8308    0.1516  -22.8864 H   0  0  0  0  0  0
  -52.1268    1.3844  -17.5417 H   0  0  0  0  0  0
  -54.2672    2.8966  -19.0512 H   0  0  0  0  0  0
  -49.2875   -1.3824  -22.7751 H   0  0  0  0  0  0
  -49.0522    0.0262  -21.6855 H   0  0  0  0  0  0
  -50.3953    0.0278  -22.8783 H   0  0  0  0  0  0
  -50.9808   -3.0270  -22.3659 H   0  0  0  0  0  0
  -52.3658   -1.8841  -22.4162 H   0  0  0  0  0  0
  -52.0959   -2.9048  -20.9629 H   0  0  0  0  0  0
  -50.0773   -1.7361  -20.4167 H   0  0  0  0  0  0
  -48.6380   -1.3716  -19.5174 H   0  0  0  0  0  0
  -55.3233    2.9140  -23.4770 H   0  0  0  0  0  0
  -56.8722    1.9546  -25.0057 H   0  0  0  0  0  0
  -57.0791    0.4959  -27.0240 H   0  0  0  0  0  0
  -53.7252   -1.7102  -28.2425 H   0  0  0  0  0  0
  -52.4824   -0.4355  -28.0028 H   0  0  0  0  0  0
  -52.0583   -3.4526  -27.8314 H   0  0  0  0  0  0
  -51.5079   -2.3536  -29.1413 H   0  0  0  0  0  0
  -50.0251   -1.1251  -27.5077 H   0  0  0  0  0  0
  -51.0481   -3.2295  -25.4937 H   0  0  0  0  0  0
  -49.8732   -1.9095  -25.1717 H   0  0  0  0  0  0
  -51.5526   -0.2328  -25.4092 H   0  0  0  0  0  0
  -52.1947   -1.5012  -24.3113 H   0  0  0  0  0  0
  -47.4498   -3.5563  -27.7283 H   0  0  0  0  0  0
  -47.9284   -2.4977  -26.3583 H   0  0  0  0  0  0
  -47.8694   -1.8354  -28.0270 H   0  0  0  0  0  0
  -55.3341    3.1315  -21.1534 H   0  0  0  0  0  0
  1  9  2  0  0  0
  1 15  1  0  0  0
  1 33  1  0  0  0
  2  3  2  0  0  0
  2  7  1  0  0  0
  2 13  1  0  0  0
  3  5  1  0  0  0
  3 34  1  0  0  0
  4  7  1  0  0  0
  4  8  2  0  0  0
  4 35  1  0  0  0
  5 14  2  0  0  0
  5 18  1  0  0  0
  6  7  2  0  0  0
  6 14  1  0  0  0
  6 36  1  0  0  0
  8  9  1  0  0  0
  8 13  1  0  0  0
  9 17  1  0  0  0
 10 12  1  0  0  0
 10 37  1  0  0  0
 10 38  1  0  0  0
 10 39  1  0  0  0
 11 12  1  0  0  0
 11 40  1  0  0  0
 11 41  1  0  0  0
 11 42  1  0  0  0
 12 13  1  0  0  0
 12 43  1  0  0  0
 14 60  1  0  0  0
 15 16  2  0  0  0
 16 17  1  0  0  0
 17 44  1  0  0  0
 18 19  1  0  0  0
 18 45  1  0  0  0
 19 20  2  0  0  0
 19 24  1  0  0  0
 20 21  1  0  0  0
 20 46  1  0  0  0
 21 22  2  0  0  0
 21 47  1  0  0  0
 22 23  1  0  0  0
 23 24  2  0  0  0
 23 25  1  0  0  0
 25 26  1  0  0  0
 25 30  1  0  0  0
 26 27  1  0  0  0
 26 48  1  0  0  0
 26 49  1  0  0  0
 27 28  1  0  0  0
 27 50  1  0  0  0
 27 51  1  0  0  0
 28 29  1  0  0  0
 28 31  1  0  0  0
 28 52  1  0  0  0
 29 30  1  0  0  0
 29 53  1  0  0  0
 29 54  1  0  0  0
 30 55  1  0  0  0
 30 56  1  0  0  0
 31 32  1  0  0  0
 32 57  1  0  0  0
 32 58  1  0  0  0
 32 59  1  0  0  0
M  CHG  1  14   1
M  END
> <s_m_source_file>
../4rj4_ligand.sdf

> <i_m_source_file_index>
1

> <s_epik_input>
W0NIMl0xTj1OW0NIXT1DMWMobjJbQ0hdKFtDSDNdKVtDSDNdKVtjSF1jKGMyMylbY0hdbmMoW2NIXTMpW05IXWM0W2NIXVtjSF1uYyhuNClONVtDSDJdW0NIMl1bQ0hdKFtDSDJdW0NIMl01KU9bQ0gzXQ==

> <s_epik_cmdline>
J2VwaWtfYXBwJywgJy1pbWFlJywgJ2xpZ2FuZF9wcm8ubWFlJywgJy1vbWFlJywgJ2xpZ2FuZF9wcmVwLm1hZScsICctbXMnLCAnMScsICctcGgnLCAnNycsICctcGh0JywgJzAuNScsICctbnQn

> <r_lp_tautomer_probability>
1

> <r_epik_Ionization_Penalty>
  0.0668

> <r_epik_Ionization_Penalty_Charging>
  0.0368

> <r_epik_Ionization_Penalty_Neutral>
  0.0300

> <r_epik_State_Penalty>
 -0.0000

> <r_epik_Charging_Adjusted_Penalty>
0.0367858556031244

> <i_epik_Tot_Q>
1

> <i_epik_Tot_abs_Q>
1

$$$$
