4rj5_ligand
                    3D
 Schrodinger Suite 2020-3.
 50 54  0  0  1  0            999 V2000
  -47.9510   -1.1370  -21.2360 C   0  0  0  0  0  0
  -48.7770   -0.1420  -20.4040 C   0  0  0  0  0  0
  -51.4830    1.0710  -16.9700 C   0  0  0  0  0  0
  -48.7170   -1.5920  -18.4100 C   0  0  0  0  0  0
  -47.8890   -2.6660  -19.1390 C   0  0  0  0  0  0
  -50.5690   -0.0520  -18.8060 C   0  0  0  0  0  0
  -52.5350    1.5170  -17.7600 C   0  0  0  0  0  0
  -52.5670    1.1400  -19.1160 C   0  0  0  0  0  0
  -47.0990   -2.0380  -20.3120 C   0  0  0  0  0  0
  -46.7790   -4.0130  -21.8100 C   0  0  0  0  0  0
  -46.2230   -2.9500  -21.0090 O   0  0  0  0  0  0
  -49.5690   -0.8510  -19.3720 N   0  0  0  0  0  0
  -50.5310    0.3070  -17.5140 N   0  0  0  0  0  0
  -51.5820    0.3540  -19.5810 N   0  0  0  0  0  0
  -53.6270    1.5950  -19.9140 N   0  0  0  0  0  0
  -53.8360    1.3780  -21.2870 C   0  0  0  0  0  0
  -53.0310    0.5140  -22.0230 C   0  0  0  0  0  0
  -53.2850    0.3250  -23.3800 C   0  0  0  0  0  0
  -54.3760    1.0090  -23.9780 C   0  0  0  0  0  0
  -54.3810    0.5940  -25.3850 C   0  0  0  0  0  0
  -53.3360   -0.2640  -25.5520 C   0  0  0  0  0  0
  -52.6780   -0.4220  -24.3560 N   0  0  0  0  0  0
  -52.8880   -0.9270  -26.8000 C   0  0  0  0  0  0
  -51.7580   -0.6160  -27.5020 C   0  0  0  0  0  0
  -51.6940   -1.4450  -28.5630 N   0  3  0  0  0  0
  -52.8060   -2.2920  -28.5290 N   0  0  0  0  0  0
  -53.5120   -1.9990  -27.4700 C   0  0  0  0  0  0
  -55.1650    1.8390  -23.1660 C   0  0  0  0  0  0
  -54.8600    2.0030  -21.8810 N   0  0  0  0  0  0
  -48.6279   -1.7705  -21.8281 H   0  0  0  0  0  0
  -47.2822   -0.5836  -21.9116 H   0  0  0  0  0  0
  -48.1014    0.5694  -19.9064 H   0  0  0  0  0  0
  -49.4647    0.4063  -21.0647 H   0  0  0  0  0  0
  -51.4344    1.3419  -15.9153 H   0  0  0  0  0  0
  -49.3611   -2.0727  -17.6590 H   0  0  0  0  0  0
  -48.0399   -0.8823  -17.9121 H   0  0  0  0  0  0
  -47.1788   -3.1226  -18.4340 H   0  0  0  0  0  0
  -48.5615   -3.4409  -19.5356 H   0  0  0  0  0  0
  -53.3194    2.1458  -17.3387 H   0  0  0  0  0  0
  -46.3285   -1.3952  -19.8613 H   0  0  0  0  0  0
  -45.9634   -4.5985  -22.2593 H   0  0  0  0  0  0
  -47.4040   -3.5833  -22.6067 H   0  0  0  0  0  0
  -47.3936   -4.6677  -21.1747 H   0  0  0  0  0  0
  -54.4284    2.2034  -19.4694 H   0  0  0  0  0  0
  -52.2068   -0.0117  -21.5410 H   0  0  0  0  0  0
  -55.0873    0.9120  -26.1519 H   0  0  0  0  0  0
  -51.0994    0.1932  -27.1537 H   0  0  0  0  0  0
  -54.4258   -2.5680  -27.2435 H   0  0  0  0  0  0
  -56.0296    2.3504  -23.5891 H   0  0  0  0  0  0
  -50.9569   -1.5373  -29.3743 H   0  0  0  0  0  0
  1  2  1  0  0  0
  1  9  1  0  0  0
  1 30  1  0  0  0
  1 31  1  0  0  0
  2 12  1  0  0  0
  2 32  1  0  0  0
  2 33  1  0  0  0
  3  7  2  0  0  0
  3 13  1  0  0  0
  3 34  1  0  0  0
  4  5  1  0  0  0
  4 12  1  0  0  0
  4 35  1  0  0  0
  4 36  1  0  0  0
  5  9  1  0  0  0
  5 37  1  0  0  0
  5 38  1  0  0  0
  6 12  1  0  0  0
  6 13  2  0  0  0
  6 14  1  0  0  0
  7  8  1  0  0  0
  7 39  1  0  0  0
  8 14  2  0  0  0
  8 15  1  0  0  0
  9 11  1  0  0  0
  9 40  1  0  0  0
 10 11  1  0  0  0
 10 41  1  0  0  0
 10 42  1  0  0  0
 10 43  1  0  0  0
 15 16  1  0  0  0
 15 44  1  0  0  0
 16 17  2  0  0  0
 16 29  1  0  0  0
 17 18  1  0  0  0
 17 45  1  0  0  0
 18 19  2  0  0  0
 18 22  1  0  0  0
 19 20  1  0  0  0
 19 28  1  0  0  0
 20 21  1  0  0  0
 20 46  1  0  0  0
 21 22  2  0  0  0
 21 23  1  0  0  0
 23 24  2  0  0  0
 23 27  1  0  0  0
 24 25  1  0  0  0
 24 47  1  0  0  0
 25 26  1  0  0  0
 25 50  1  0  0  0
 26 27  2  0  0  0
 27 48  1  0  0  0
 28 29  2  0  0  0
 28 49  1  0  0  0
M  CHG  1  25   1
M  END
> <s_m_source_file>
../4rj5_ligand.sdf

> <i_m_source_file_index>
1

> <s_epik_input>
W0NIM11PW0NIXTFbQ0gyXVtDSDJdTihbQ0gyXVtDSDJdMSljMm5bY0hdW2NIXWMobjIpW05IXWMoW2NIXTMpbltjSF1jKGMzNClbQ0gyXUMoPU40KWM1W2NIXVtuSF1uW2NIXTU=

> <s_epik_cmdline>
J2VwaWtfYXBwJywgJy1pbWFlJywgJ2xpZ2FuZF9wcm8ubWFlJywgJy1vbWFlJywgJ2xpZ2FuZF9wcmVwLm1hZScsICctbXMnLCAnMScsICctcGgnLCAnNycsICctcGh0JywgJzAuNScsICctbnQn

> <r_epik_Ionization_Penalty>
  0.0382

> <r_epik_Ionization_Penalty_Charging>
  0.0000

> <r_epik_Ionization_Penalty_Neutral>
  0.0382

> <r_epik_State_Penalty>
  0.4107

> <r_epik_Charging_Adjusted_Penalty>
0.410679838952604

> <i_epik_Tot_Q>
1

> <i_epik_Tot_abs_Q>
1

> <s_epik_Chemistry_Notes>
This compound has an imine and may undergo hydrolysis.

$$$$
