4rj6_ligand
                    3D
 Schrodinger Suite 2020-3.
 50 54  0  0  1  0            999 V2000
  -48.6190   -1.7840  -21.1050 C   0  0  0  0  0  0
  -49.4400   -0.5620  -20.6660 C   0  0  0  0  0  0
  -52.1150    1.2860  -17.2790 C   0  0  0  0  0  0
  -48.8500   -0.9000  -18.2990 C   0  0  0  0  0  0
  -47.9270   -2.0830  -18.6480 C   0  0  0  0  0  0
  -50.9960    0.0810  -18.9380 C   0  0  0  0  0  0
  -53.0110    1.7420  -18.2470 C   0  0  0  0  0  0
  -52.8930    1.3110  -19.5870 C   0  0  0  0  0  0
  -47.4490   -2.0240  -20.1190 C   0  0  0  0  0  0
  -45.4960   -3.0530  -21.1380 C   0  0  0  0  0  0
  -46.7490   -3.2340  -20.4620 O   0  0  0  0  0  0
  -49.9510   -0.7810  -19.2910 N   0  0  0  0  0  0
  -51.1360    0.4640  -17.6580 N   0  0  0  0  0  0
  -51.8700    0.4870  -19.8760 N   0  0  0  0  0  0
  -53.8010    1.8050  -20.5420 N   0  0  0  0  0  0
  -53.9520    1.3930  -21.8810 C   0  0  0  0  0  0
  -53.0680    0.4960  -22.4750 C   0  0  0  0  0  0
  -53.2840    0.0890  -23.7940 C   0  0  0  0  0  0
  -54.3890    0.5850  -24.5410 C   0  0  0  0  0  0
  -55.2270    1.4880  -23.8760 C   0  0  0  0  0  0
  -54.9730    1.8630  -22.6140 N   0  0  0  0  0  0
  -54.3550   -0.0120  -25.7720 N   0  3  0  0  0  0
  -53.3070   -0.8230  -25.7970 C   0  0  0  0  0  0
  -52.6230   -0.7770  -24.6210 N   0  0  0  0  0  0
  -52.7470   -1.6200  -26.8960 C   0  0  0  0  0  0
  -53.3690   -2.0740  -28.0270 C   0  0  0  0  0  0
  -52.4400   -2.7370  -28.7320 N   0  3  0  0  0  0
  -51.2180   -2.6960  -28.0470 N   0  0  0  0  0  0
  -51.3960   -2.0310  -26.9480 C   0  0  0  0  0  0
  -49.2655   -2.6738  -21.1202 H   0  0  0  0  0  0
  -48.2116   -1.6096  -22.1118 H   0  0  0  0  0  0
  -48.8017    0.3337  -20.6827 H   0  0  0  0  0  0
  -50.2862   -0.4221  -21.3547 H   0  0  0  0  0  0
  -52.2132    1.5944  -16.2382 H   0  0  0  0  0  0
  -49.2861   -1.0571  -17.3015 H   0  0  0  0  0  0
  -48.2672    0.0329  -18.3016 H   0  0  0  0  0  0
  -47.0414   -2.0619  -17.9959 H   0  0  0  0  0  0
  -48.4698   -3.0280  -18.4988 H   0  0  0  0  0  0
  -53.8055    2.4339  -17.9677 H   0  0  0  0  0  0
  -46.7075   -1.2191  -20.2301 H   0  0  0  0  0  0
  -45.0493   -4.0353  -21.3514 H   0  0  0  0  0  0
  -44.8152   -2.4716  -20.4989 H   0  0  0  0  0  0
  -45.6632   -2.5134  -22.0819 H   0  0  0  0  0  0
  -54.5017    2.6084  -20.2707 H   0  0  0  0  0  0
  -52.2141    0.1143  -21.9153 H   0  0  0  0  0  0
  -56.0983    1.8920  -24.3915 H   0  0  0  0  0  0
  -54.4350   -1.8590  -28.1924 H   0  0  0  0  0  0
  -50.5559   -1.8804  -26.2541 H   0  0  0  0  0  0
  -52.5129   -3.2621  -29.6958 H   0  0  0  0  0  0
  -55.1243    0.2275  -26.5208 H   0  0  0  0  0  0
  1  2  1  0  0  0
  1  9  1  0  0  0
  1 30  1  0  0  0
  1 31  1  0  0  0
  2 12  1  0  0  0
  2 32  1  0  0  0
  2 33  1  0  0  0
  3  7  2  0  0  0
  3 13  1  0  0  0
  3 34  1  0  0  0
  4  5  1  0  0  0
  4 12  1  0  0  0
  4 35  1  0  0  0
  4 36  1  0  0  0
  5  9  1  0  0  0
  5 37  1  0  0  0
  5 38  1  0  0  0
  6 12  1  0  0  0
  6 13  2  0  0  0
  6 14  1  0  0  0
  7  8  1  0  0  0
  7 39  1  0  0  0
  8 14  2  0  0  0
  8 15  1  0  0  0
  9 11  1  0  0  0
  9 40  1  0  0  0
 10 11  1  0  0  0
 10 41  1  0  0  0
 10 42  1  0  0  0
 10 43  1  0  0  0
 15 16  1  0  0  0
 15 44  1  0  0  0
 16 17  2  0  0  0
 16 21  1  0  0  0
 17 18  1  0  0  0
 17 45  1  0  0  0
 18 19  2  0  0  0
 18 24  1  0  0  0
 19 20  1  0  0  0
 19 22  1  0  0  0
 20 21  2  0  0  0
 20 46  1  0  0  0
 22 23  1  0  0  0
 22 50  1  0  0  0
 23 24  2  0  0  0
 23 25  1  0  0  0
 25 26  2  0  0  0
 25 29  1  0  0  0
 26 27  1  0  0  0
 26 47  1  0  0  0
 27 28  1  0  0  0
 27 49  1  0  0  0
 28 29  2  0  0  0
 29 48  1  0  0  0
M  CHG  2  22   1  27   1
M  END
> <s_m_source_file>
../4rj6_ligand.sdf

> <i_m_source_file_index>
1

> <s_epik_input>
W0NIM11PW0NIXTFbQ0gyXVtDSDJdTihbQ0gyXVtDSDJdMSljMm5bY0hdW2NIXWMobjIpW05IXWMoW2NIXTMpbltjSF1jKGMzNClbbkhdYyhuNCktYzVbY0hdW25IXW5bY0hdNQ==

> <s_epik_cmdline>
J2VwaWtfYXBwJywgJy1pbWFlJywgJ2xpZ2FuZF9wcm8ubWFlJywgJy1vbWFlJywgJ2xpZ2FuZF9wcmVwLm1hZScsICctbXMnLCAnMScsICctcGgnLCAnNycsICctcGh0JywgJzAuNScsICctbnQn

> <r_epik_Ionization_Penalty>
  0.1163

> <r_epik_Ionization_Penalty_Charging>
  0.0000

> <r_epik_Ionization_Penalty_Neutral>
  0.1163

> <r_epik_State_Penalty>
  0.0969

> <r_epik_Charging_Adjusted_Penalty>
0.0969178462891399

> <i_epik_Tot_Q>
2

> <i_epik_Tot_abs_Q>
2

> <s_epik_Chemistry_Notes>
This compound has an imine and may undergo hydrolysis.

$$$$
