4rj8_ligand
                    3D
 Schrodinger Suite 2020-3.
 58 62  0  0  1  0            999 V2000
  -51.8500   -2.5060  -28.1050 C   0  0  0  0  0  0
  -53.0670   -1.6340  -27.7620 C   0  0  0  0  0  0
  -56.3870    0.4030  -26.4600 C   0  0  0  0  0  0
  -52.1570   -1.3780  -25.3740 C   0  0  0  0  0  0
  -50.8320   -2.0140  -25.8300 C   0  0  0  0  0  0
  -54.3220   -0.5820  -25.9920 C   0  0  0  0  0  0
  -56.2340    1.2340  -25.3540 C   0  0  0  0  0  0
  -55.0760    1.1070  -24.5710 C   0  0  0  0  0  0
  -50.6530   -1.9060  -27.3520 C   0  0  0  0  0  0
  -48.9370   -3.6880  -27.6630 C   0  0  0  0  0  0
  -49.3620   -2.3200  -27.8220 O   0  0  0  0  0  0
  -53.3310   -1.5260  -26.2920 N   0  0  0  0  0  0
  -55.4300   -0.4750  -26.7380 N   0  0  0  0  0  0
  -54.1640    0.2100  -24.9300 N   0  0  0  0  0  0
  -54.8730    1.9400  -23.4810 N   0  0  0  0  0  0
  -54.2190    1.6270  -22.2810 C   0  0  0  0  0  0
  -53.2060    0.6660  -22.1940 C   0  0  0  0  0  0
  -52.5990    0.4120  -20.9530 C   0  0  0  0  0  0
  -53.0180    1.1890  -19.8360 C   0  0  0  0  0  0
  -52.2240    0.7390  -18.6910 C   0  0  0  0  0  0
  -51.4320   -0.2390  -19.1430 C   0  0  0  0  0  0
  -51.6300   -0.4530  -20.4980 N   0  0  0  0  0  0
  -50.9100   -1.4390  -21.3380 C   0  0  0  0  0  0
  -49.9180   -0.7260  -22.2730 C   0  0  0  0  0  0
  -48.6880   -0.4610  -21.3770 C   0  0  0  0  0  0
  -48.5750   -1.7690  -20.5540 C   0  0  0  0  0  0
  -49.9960   -2.3850  -20.5340 C   0  0  0  0  0  0
  -54.0040    2.1600  -20.0210 C   0  0  0  0  0  0
  -54.5730    2.3320  -21.2050 N   0  3  0  0  0  0
  -52.0376   -3.5406  -27.7820 H   0  0  0  0  0  0
  -51.6793   -2.4863  -29.1915 H   0  0  0  0  0  0
  -52.9067   -0.6146  -28.1429 H   0  0  0  0  0  0
  -53.9674   -2.0618  -28.2271 H   0  0  0  0  0  0
  -57.2762    0.4715  -27.0867 H   0  0  0  0  0  0
  -52.4691   -1.8258  -24.4190 H   0  0  0  0  0  0
  -52.0178   -0.2947  -25.2429 H   0  0  0  0  0  0
  -49.9912   -1.4991  -25.3423 H   0  0  0  0  0  0
  -50.8213   -3.0782  -25.5519 H   0  0  0  0  0  0
  -56.9983    1.9688  -25.1009 H   0  0  0  0  0  0
  -50.5727   -0.8459  -27.6345 H   0  0  0  0  0  0
  -47.9273   -3.8093  -28.0822 H   0  0  0  0  0  0
  -49.6358   -4.3529  -28.1917 H   0  0  0  0  0  0
  -48.9235   -3.9458  -26.5937 H   0  0  0  0  0  0
  -55.2451    2.9749  -23.5028 H   0  0  0  0  0  0
  -52.8903    0.1187  -23.0822 H   0  0  0  0  0  0
  -52.2695    1.1246  -17.6725 H   0  0  0  0  0  0
  -50.7244   -0.7944  -18.5274 H   0  0  0  0  0  0
  -51.7390   -1.9654  -21.8336 H   0  0  0  0  0  0
  -49.6789   -1.3821  -23.1229 H   0  0  0  0  0  0
  -50.3694    0.2057  -22.6447 H   0  0  0  0  0  0
  -47.8062   -0.2796  -22.0091 H   0  0  0  0  0  0
  -48.8759    0.4215  -20.7479 H   0  0  0  0  0  0
  -47.8553   -2.4457  -21.0379 H   0  0  0  0  0  0
  -48.2297   -1.5334  -19.5365 H   0  0  0  0  0  0
  -50.3694   -2.4666  -19.5025 H   0  0  0  0  0  0
  -49.9945   -3.3799  -21.0032 H   0  0  0  0  0  0
  -54.3093    2.7841  -19.1811 H   0  0  0  0  0  0
  -55.3658    3.0908  -21.2810 H   0  0  0  0  0  0
  1  2  1  0  0  0
  1  9  1  0  0  0
  1 30  1  0  0  0
  1 31  1  0  0  0
  2 12  1  0  0  0
  2 32  1  0  0  0
  2 33  1  0  0  0
  3  7  2  0  0  0
  3 13  1  0  0  0
  3 34  1  0  0  0
  4  5  1  0  0  0
  4 12  1  0  0  0
  4 35  1  0  0  0
  4 36  1  0  0  0
  5  9  1  0  0  0
  5 37  1  0  0  0
  5 38  1  0  0  0
  6 12  1  0  0  0
  6 13  2  0  0  0
  6 14  1  0  0  0
  7  8  1  0  0  0
  7 39  1  0  0  0
  8 14  2  0  0  0
  8 15  1  0  0  0
  9 11  1  0  0  0
  9 40  1  0  0  0
 10 11  1  0  0  0
 10 41  1  0  0  0
 10 42  1  0  0  0
 10 43  1  0  0  0
 15 16  1  0  0  0
 15 44  1  0  0  0
 16 17  2  0  0  0
 16 29  1  0  0  0
 17 18  1  0  0  0
 17 45  1  0  0  0
 18 19  2  0  0  0
 18 22  1  0  0  0
 19 20  1  0  0  0
 19 28  1  0  0  0
 20 21  2  0  0  0
 20 46  1  0  0  0
 21 22  1  0  0  0
 21 47  1  0  0  0
 22 23  1  0  0  0
 23 24  1  0  0  0
 23 27  1  0  0  0
 23 48  1  0  0  0
 24 25  1  0  0  0
 24 49  1  0  0  0
 24 50  1  0  0  0
 25 26  1  0  0  0
 25 51  1  0  0  0
 25 52  1  0  0  0
 26 27  1  0  0  0
 26 53  1  0  0  0
 26 54  1  0  0  0
 27 55  1  0  0  0
 27 56  1  0  0  0
 28 29  2  0  0  0
 28 57  1  0  0  0
 29 58  1  0  0  0
M  CHG  1  29   1
M  END
> <s_m_source_file>
../4rj8_ligand.sdf

> <i_m_source_file_index>
1

> <s_epik_input>
W0NIM11PW0NIXTFbQ0gyXVtDSDJdTihbQ0gyXVtDSDJdMSljMm5bY0hdW2NIXWMobjIpW05IXWMoW2NIXTMpbltjSF1jKGMzNClbY0hdW2NIXW40W0NIXTVbQ0gyXVtDSDJdW0NIMl1bQ0gyXTU=

> <s_epik_cmdline>
J2VwaWtfYXBwJywgJy1pbWFlJywgJ2xpZ2FuZF9wcm8ubWFlJywgJy1vbWFlJywgJ2xpZ2FuZF9wcmVwLm1hZScsICctbXMnLCAnMScsICctcGgnLCAnNycsICctcGh0JywgJzAuNScsICctbnQn

> <r_lp_tautomer_probability>
1

> <r_epik_Ionization_Penalty>
  0.0436

> <r_epik_Ionization_Penalty_Charging>
  0.0135

> <r_epik_Ionization_Penalty_Neutral>
  0.0301

> <r_epik_State_Penalty>
 -0.0000

> <r_epik_Charging_Adjusted_Penalty>
0.0135427958201922

> <i_epik_Tot_Q>
1

> <i_epik_Tot_abs_Q>
1

$$$$
