4rkx_ligand
                    3D
 Schrodinger Suite 2020-3.
 24 24  0  0  1  0            999 V2000
   17.0990  -12.9310  -22.9950 N   0  0  0  0  0  0
   16.2300  -12.7750  -23.7490 C   0  0  0  0  0  0
   15.1290  -12.5870  -24.7080 C   0  0  0  0  0  0
   14.4390  -11.3030  -24.5930 N   0  0  0  0  0  0
   13.3220  -11.0330  -23.9150 C   0  0  0  0  0  0
   12.7300  -11.8730  -23.2550 O   0  0  0  0  0  0
   12.7710   -9.6880  -23.9390 O   0  0  0  0  0  0
   11.5020   -9.4510  -23.3310 C   0  0  0  0  0  0
   11.3550   -7.1950  -24.4480 C   0  0  0  0  0  0
   10.6360   -6.2210  -25.1320 C   0  0  0  0  0  0
    9.2980   -6.4320  -25.4500 C   0  0  0  0  0  0
    8.6840   -7.6200  -25.0810 C   0  0  0  0  0  0
    9.4040   -8.5910  -24.3940 C   0  0  0  0  0  0
   10.7400   -8.3830  -24.0800 C   0  0  0  0  0  0
   15.5216  -12.6490  -25.7337 H   0  0  0  0  0  0
   14.3730  -13.3716  -24.5568 H   0  0  0  0  0  0
   14.8400  -10.4154  -25.1042 H   0  0  0  0  0  0
   10.9123  -10.3795  -23.3394 H   0  0  0  0  0  0
   11.6491   -9.1195  -22.2925 H   0  0  0  0  0  0
   12.4029   -7.0250  -24.2007 H   0  0  0  0  0  0
   11.1223   -5.2890  -25.4201 H   0  0  0  0  0  0
    8.7352   -5.6679  -25.9862 H   0  0  0  0  0  0
    7.6368   -7.7923  -25.3297 H   0  0  0  0  0  0
    8.9166   -9.5207  -24.1004 H   0  0  0  0  0  0
  1  2  3  0  0  0
  2  3  1  0  0  0
  3  4  1  0  0  0
  3 15  1  0  0  0
  3 16  1  0  0  0
  4  5  1  0  0  0
  4 17  1  0  0  0
  5  6  2  0  0  0
  5  7  1  0  0  0
  7  8  1  0  0  0
  8 14  1  0  0  0
  8 18  1  0  0  0
  8 19  1  0  0  0
  9 10  2  0  0  0
  9 14  1  0  0  0
  9 20  1  0  0  0
 10 11  1  0  0  0
 10 21  1  0  0  0
 11 12  2  0  0  0
 11 22  1  0  0  0
 12 13  1  0  0  0
 12 23  1  0  0  0
 13 14  2  0  0  0
 13 24  1  0  0  0
M  END
> <s_m_source_file>
../4rkx_ligand.sdf

> <i_m_source_file_index>
1

> <s_epik_input>
TiNDW0NIMl1bTkhdQyg9TylPW0NIMl1jMVtjSF1bY0hdW2NIXVtjSF1bY0hdMQ==

> <s_epik_cmdline>
J2VwaWtfYXBwJywgJy1pbWFlJywgJ2xpZ2FuZF9wcm8ubWFlJywgJy1vbWFlJywgJ2xpZ2FuZF9wcmVwLm1hZScsICctbXMnLCAnMScsICctcGgnLCAnNycsICctcGh0JywgJzAuNScsICctbnQn

> <r_lp_tautomer_probability>
1

> <r_epik_Ionization_Penalty>
  0.0000

> <r_epik_Ionization_Penalty_Charging>
  0.0000

> <r_epik_Ionization_Penalty_Neutral>
  0.0000

> <r_epik_State_Penalty>
 -0.0000

> <r_epik_Charging_Adjusted_Penalty>
0

> <i_epik_Tot_Q>
0

> <i_epik_Tot_abs_Q>
0

> <s_epik_Chemistry_Notes>
This compound has an ester and may undergo hydrolysis at high or low pH.

$$$$
