4rll_ligand
                    3D
 Schrodinger Suite 2020-3.
 38 41  0  0  1  0            999 V2000
  -16.6750   10.9860   44.1910 O   0  5  0  0  0  0
  -16.5340   11.2080   45.4210 C   0  0  0  0  0  0
  -16.1620   10.3790   46.2670 O   0  0  0  0  0  0
  -16.8210   12.6420   45.9220 C   0  0  0  0  0  0
  -16.9180   12.9520   47.2800 C   0  0  0  0  0  0
  -17.1690   14.2600   47.7270 C   0  0  0  0  0  0
  -17.3330   15.2920   46.8010 C   0  0  0  0  0  0
  -17.5940   16.6510   47.2020 C   0  0  0  0  0  0
  -17.2830   17.7630   46.5320 N   0  0  0  0  0  0
  -17.4510   18.9760   46.7450 N   0  0  0  0  0  0
  -17.3570   20.1220   46.1670 C   0  0  0  0  0  0
  -17.3660   21.5350   46.6460 C   0  0  0  0  0  0
  -17.5820   22.0230   47.9340 C   0  0  0  0  0  0
  -17.5430   23.4180   48.1520 C   0  0  0  0  0  0
  -17.2960   24.2740   47.0950 C   0  0  0  0  0  0
  -17.0790   23.7770   45.7900 C   0  0  0  0  0  0
  -17.1120   22.4000   45.5570 C   0  0  0  0  0  0
  -16.9270   21.5750   44.3350 C   0  0  0  0  0  0
  -16.6570   21.8920   43.0010 C   0  0  0  0  0  0
  -16.5330   20.8650   42.0380 C   0  0  0  0  0  0
  -16.6780   19.5420   42.3980 C   0  0  0  0  0  0
  -16.9510   19.2050   43.7400 C   0  0  0  0  0  0
  -17.0720   20.2210   44.6890 C   0  0  0  0  0  0
  -17.2330   14.9880   45.4440 C   0  0  0  0  0  0
  -16.9820   13.6810   45.0180 C   0  0  0  0  0  0
  -16.7954   12.1561   48.0146 H   0  0  0  0  0  0
  -17.2356   14.4688   48.7947 H   0  0  0  0  0  0
  -18.1067   16.7190   48.1728 H   0  0  0  0  0  0
  -17.7779   21.3389   48.7597 H   0  0  0  0  0  0
  -17.7074   23.8190   49.1521 H   0  0  0  0  0  0
  -17.2682   25.3494   47.2709 H   0  0  0  0  0  0
  -16.8864   24.4661   44.9677 H   0  0  0  0  0  0
  -16.5417   22.9340   42.7024 H   0  0  0  0  0  0
  -16.3206   21.1215   41.0001 H   0  0  0  0  0  0
  -16.5818   18.7580   41.6469 H   0  0  0  0  0  0
  -17.0663   18.1615   44.0330 H   0  0  0  0  0  0
  -17.3522   15.7806   44.7053 H   0  0  0  0  0  0
  -16.9111   13.4734   43.9503 H   0  0  0  0  0  0
  1  2  1  0  0  0
  2  3  2  0  0  0
  2  4  1  0  0  0
  4  5  2  0  0  0
  4 25  1  0  0  0
  5  6  1  0  0  0
  5 26  1  0  0  0
  6  7  2  0  0  0
  6 27  1  0  0  0
  7  8  1  0  0  0
  7 24  1  0  0  0
  8  9  2  0  0  0
  8 28  1  0  0  0
  9 10  1  0  0  0
 10 11  2  0  0  0
 11 12  1  0  0  0
 11 23  1  0  0  0
 12 13  2  0  0  0
 12 17  1  0  0  0
 13 14  1  0  0  0
 13 29  1  0  0  0
 14 15  2  0  0  0
 14 30  1  0  0  0
 15 16  1  0  0  0
 15 31  1  0  0  0
 16 17  2  0  0  0
 16 32  1  0  0  0
 17 18  1  0  0  0
 18 19  2  0  0  0
 18 23  1  0  0  0
 19 20  1  0  0  0
 19 33  1  0  0  0
 20 21  2  0  0  0
 20 34  1  0  0  0
 21 22  1  0  0  0
 21 35  1  0  0  0
 22 23  2  0  0  0
 22 36  1  0  0  0
 24 25  2  0  0  0
 24 37  1  0  0  0
 25 38  1  0  0  0
M  CHG  1   1  -1
M  END
> <s_m_source_file>
../4rll_ligand.sdf

> <i_m_source_file_index>
1

> <s_epik_input>
W09IXUMoPU8pYzFbY0hdW2NIXWMoW2NIXVtjSF0xKS9bQ0hdPU4vTj1DMmMoW2NIXVtjSF1bY0hdW2NIXTMpYzNjKGMyNClbY0hdW2NIXVtjSF1bY0hdNA==

> <s_epik_cmdline>
J2VwaWtfYXBwJywgJy1pbWFlJywgJ2xpZ2FuZF9wcm8ubWFlJywgJy1vbWFlJywgJ2xpZ2FuZF9wcmVwLm1hZScsICctbXMnLCAnMScsICctcGgnLCAnNycsICctcGh0JywgJzAuNScsICctbnQn

> <r_lp_tautomer_probability>
1

> <r_epik_Ionization_Penalty>
  0.0005

> <r_epik_Ionization_Penalty_Charging>
  0.0005

> <r_epik_Ionization_Penalty_Neutral>
  0.0000

> <r_epik_State_Penalty>
 -0.0000

> <r_epik_Charging_Adjusted_Penalty>
0.00051144960633541

> <i_epik_Tot_Q>
-1

> <i_epik_Tot_abs_Q>
1

> <s_epik_Chemistry_Notes>
This compound has an imine and may undergo hydrolysis.

$$$$
