4rlp_ligand
                    3D
 Schrodinger Suite 2020-3.
 67 75  0  0  1  0            999 V2000
   75.9400   30.7380    5.5510 N   0  0  0  0  0  0
   77.8850   31.8200    7.1920 N   0  0  0  0  0  0
   75.2890   33.1780    8.9720 C   0  0  0  0  0  0
   76.2800   27.4510    7.4880 C   0  0  0  0  0  0
   74.9350   27.6380    8.2070 C   0  0  0  0  0  0
   73.4080   29.6150    9.3490 C   0  0  0  0  0  0
   73.5160   27.8850   12.5130 C   0  0  0  0  0  0
   76.1290   30.7040    7.6560 Ru  0  0  0  0  0  0
   74.3180   29.3190    7.8540 S   0  0  0  0  0  0
   76.5730   30.8470    9.9020 S   0  0  0  0  0  0
   77.4160   28.8330    7.5840 S   0  0  0  0  0  0
   80.7850   33.5130    8.2970 F   0  0  0  0  0  0
   75.5340   34.0780   10.2370 S   0  0  0  0  0  0
   81.0770   33.9880    3.1580 O   0  5  0  0  0  0
   77.7580   32.1150    0.6300 O   0  0  0  0  0  0
   73.5300   29.5390    0.6940 O   0  0  0  0  0  0
   75.0990   32.4050    7.8940 N   0  0  0  0  0  0
   73.2050   29.2340   11.8480 N   0  3  0  0  0  0
   79.5500   33.1500    1.6230 N   0  0  0  0  0  0
   80.0440   33.1970    6.0630 C   0  0  0  0  0  0
   79.0930   32.6650    5.2200 C   0  0  0  0  0  0
   79.0570   32.7230    3.8190 C   0  0  0  0  0  0
   80.0230   33.3610    2.8970 C   0  0  0  0  0  0
   78.3700   32.4330    1.6390 C   0  0  0  0  0  0
   78.0780   32.1760    3.0400 C   0  0  0  0  0  0
   77.0010   31.4830    3.6580 C   0  0  0  0  0  0
   75.8510   30.8090    3.2220 C   0  0  0  0  0  0
   75.3410   30.5630    2.0300 C   0  0  0  0  0  0
   74.1700   29.8610    1.8830 C   0  0  0  0  0  0
   73.5260   29.4090    2.9900 C   0  0  0  0  0  0
   74.0480   29.6510    4.3250 C   0  0  0  0  0  0
   75.2180   30.3580    4.4400 C   0  0  0  0  0  0
   77.0160   31.4140    5.0340 C   0  0  0  0  0  0
   78.0210   31.9780    5.8330 C   0  0  0  0  0  0
   74.1320   29.5560   10.6810 C   0  0  0  0  0  0
   75.1330   30.6830   10.9680 C   0  0  0  0  0  0
   77.5700   29.3000   10.3240 C   0  0  0  0  0  0
   78.1670   28.6880    9.2370 C   0  0  0  0  0  0
   74.2800   29.8900   -0.5470 C   0  0  0  0  0  0
   78.8530   32.3560    7.9950 C   0  0  0  0  0  0
   79.8720   33.0070    7.4570 C   0  0  0  0  0  0
   76.8093   26.5883    7.9189 H   0  0  0  0  0  0
   76.1018   27.2742    6.4170 H   0  0  0  0  0  0
   74.2164   26.8899    7.8409 H   0  0  0  0  0  0
   75.0774   27.5103    9.2902 H   0  0  0  0  0  0
   72.9721   30.6245    9.3191 H   0  0  0  0  0  0
   72.6033   28.8708    9.4419 H   0  0  0  0  0  0
   72.8143   27.7149   13.3429 H   0  0  0  0  0  0
   74.5457   27.8956   12.8997 H   0  0  0  0  0  0
   73.4107   27.0783   11.7726 H   0  0  0  0  0  0
   72.1753   29.2234   11.4613 H   0  0  0  0  0  0
   80.9009   33.7476    5.6477 H   0  0  0  0  0  0
   75.8606   30.9249    1.1428 H   0  0  0  0  0  0
   72.5962   28.8519    2.8748 H   0  0  0  0  0  0
   73.5257   29.2820    5.2077 H   0  0  0  0  0  0
   74.7891   28.6825   10.5577 H   0  0  0  0  0  0
   75.4612   30.5091   12.0034 H   0  0  0  0  0  0
   74.5362   31.6059   10.9227 H   0  0  0  0  0  0
   78.3757   29.5630   11.0252 H   0  0  0  0  0  0
   76.9092   28.5532   10.7883 H   0  0  0  0  0  0
   78.2187   27.6275    9.5245 H   0  0  0  0  0  0
   79.1816   29.1124    9.2173 H   0  0  0  0  0  0
   73.6902   29.5954   -1.4275 H   0  0  0  0  0  0
   75.2430   29.3585   -0.5561 H   0  0  0  0  0  0
   74.4597   30.9749   -0.5723 H   0  0  0  0  0  0
   78.7854   32.2465    9.0874 H   0  0  0  0  0  0
   73.3103   30.0407   12.5884 H   0  0  0  0  0  0
  1 32  1  0  0  0
  1 33  1  0  0  0
  1  8  1  0  0  0
  2 34  1  0  0  0
  2 40  1  0  0  0
  2  8  1  0  0  0
  3 13  2  0  0  0
  3 17  3  0  0  0
  4  5  1  0  0  0
  4 11  1  0  0  0
  4 42  1  0  0  0
  4 43  1  0  0  0
  5  9  1  0  0  0
  5 44  1  0  0  0
  5 45  1  0  0  0
  6  9  1  0  0  0
  6 35  1  0  0  0
  6 46  1  0  0  0
  6 47  1  0  0  0
  7 18  1  0  0  0
  7 48  1  0  0  0
  7 49  1  0  0  0
  7 50  1  0  0  0
  8 17  1  0  0  0
  8  9  1  0  0  0
  8 10  1  0  0  0
  8 11  1  0  0  0
 10 36  1  0  0  0
 10 37  1  0  0  0
 11 38  1  0  0  0
 12 41  1  0  0  0
 14 23  1  0  0  0
 15 24  2  0  0  0
 16 29  1  0  0  0
 16 39  1  0  0  0
 18 35  1  0  0  0
 18 51  1  0  0  0
 18 67  1  0  0  0
 19 23  2  0  0  0
 19 24  1  0  0  0
 20 21  2  0  0  0
 20 41  1  0  0  0
 20 52  1  0  0  0
 21 22  1  0  0  0
 21 34  1  0  0  0
 22 23  1  0  0  0
 22 25  2  0  0  0
 24 25  1  0  0  0
 25 26  1  0  0  0
 26 27  1  0  0  0
 26 33  2  0  0  0
 27 28  1  0  0  0
 27 32  2  0  0  0
 28 29  2  0  0  0
 28 53  1  0  0  0
 29 30  1  0  0  0
 30 31  2  0  0  0
 30 54  1  0  0  0
 31 32  1  0  0  0
 31 55  1  0  0  0
 33 34  1  0  0  0
 35 36  1  0  0  0
 35 56  1  0  0  0
 36 57  1  0  0  0
 36 58  1  0  0  0
 37 38  1  0  0  0
 37 59  1  0  0  0
 37 60  1  0  0  0
 38 61  1  0  0  0
 38 62  1  0  0  0
 39 63  1  0  0  0
 39 64  1  0  0  0
 39 65  1  0  0  0
 40 41  2  0  0  0
 40 66  1  0  0  0
M  CHG  2  14  -1  18   1
M  END
> <s_m_source_file>
../4rlp_ligand.sdf

> <i_m_source_file_index>
1

> <s_epik_input>
W0NIM11bTkhdW0NIXShbQ0gyXTEpW0NIMl1bU0hdMltDSDJdW0NIMl1bU0hdM1tDSDJdW0NIMl1bU0hdMVtSdV0yMzQoW04rXSNbQ109UyluNWM2YyhbY0hdYyhPW0NIM10pW2NIXVtjSF02KWM3YzVbQ0hdOE40W0NIXT1DKEYpW0NIXT1DOEM5PUM3Qyg9TylbTkhdQzk9Tw==

> <s_epik_cmdline>
J2VwaWtfYXBwJywgJy1pbWFlJywgJ2xpZ2FuZF9wcm8ubWFlJywgJy1vbWFlJywgJ2xpZ2FuZF9wcmVwLm1hZScsICctbXMnLCAnMScsICctcGgnLCAnNycsICctcGh0JywgJzAuNScsICctbnQn

> <r_epik_Ionization_Penalty>
  0.0266

> <r_epik_Ionization_Penalty_Charging>
  0.0266

> <r_epik_Ionization_Penalty_Neutral>
  0.0000

> <r_epik_State_Penalty>
  0.0212

> <r_epik_Charging_Adjusted_Penalty>
0.0477611084692228

> <i_epik_Tot_Q>
0

> <i_epik_Tot_abs_Q>
2

$$$$
