4rme_ligand
                    3D
 Schrodinger Suite 2020-3.
209210  0  0  1  0            999 V2000
   67.7770   43.8120    6.7560 N   0  3  0  0  0  0
   67.8030   44.0620    8.2240 C   0  0  2  0  0  0
   66.4370   44.5300    8.7270 C   0  0  0  0  0  0
   65.5700   44.9050    7.9340 O   0  0  0  0  0  0
   68.8840   45.1040    8.5570 C   0  0  0  0  0  0
   68.8460   46.3580    7.6860 C   0  0  0  0  0  0
   69.9600   47.3290    8.0620 C   0  0  0  0  0  0
   70.0460   48.5000    7.0840 C   0  0  0  0  0  0
   68.7960   49.3110    7.0420 N   0  3  0  0  0  0
   66.2620   44.5000   10.0480 N   0  0  0  0  0  0
   65.0200   44.9070   10.7060 C   0  0  2  0  0  0
   63.7930   44.2660   10.0520 C   0  0  0  0  0  0
   62.8060   44.9510    9.7730 O   0  0  0  0  0  0
   64.8690   46.4380   10.6910 C   0  0  0  0  0  0
   66.1650   47.1820   10.8070 C   0  0  0  0  0  0
   67.1520   46.8300   11.7040 N   0  0  0  0  0  0
   66.6390   48.2530   10.1260 C   0  0  0  0  0  0
   68.1800   47.6500   11.5670 C   0  0  0  0  0  0
   67.8940   48.5220   10.6170 N   0  0  0  0  0  0
   63.8620   42.9550    9.8210 N   0  0  0  0  0  0
   62.7720   42.1980    9.1980 C   0  0  2  0  0  0
   61.4080   42.3210    9.8880 C   0  0  0  0  0  0
   60.4220   42.7430    9.2790 O   0  0  0  0  0  0
   63.1420   40.7110    9.1170 C   0  0  0  0  0  0
   64.1240   40.3580    8.0130 C   0  0  0  0  0  0
   64.2650   38.8510    7.8800 C   0  0  0  0  0  0
   64.9870   38.4730    6.5960 C   0  0  0  0  0  0
   65.0160   36.9940    6.3980 N   0  3  0  0  0  0
   61.3630   41.9280   11.1550 N   0  0  0  0  0  0
   60.1430   41.9670   11.9470 C   0  0  2  0  0  0
   59.4770   43.3450   11.9410 C   0  0  0  0  0  0
   58.2990   43.4750   11.5930 O   0  0  0  0  0  0
   60.4420   41.5470   13.3970 C   0  0  2  0  0  0
   61.0750   40.1470   13.4000 C   0  0  0  0  0  0
   59.1630   41.5730   14.2260 C   0  0  0  0  0  0
   61.7140   39.7470   14.7180 C   0  0  0  0  0  0
   60.2380   44.3680   12.3150 N   0  0  0  0  0  0
   59.7190   45.7240   12.3630 C   0  0  2  0  0  0
   59.0470   46.1410   11.0540 C   0  0  0  0  0  0
   57.9330   46.6640   11.0690 O   0  0  0  0  0  0
   60.8410   46.7030   12.7150 C   0  0  0  0  0  0
   60.4310   48.1640   12.9190 C   0  0  0  0  0  0
   59.4020   48.2620   14.0140 C   0  0  0  0  0  0
   61.6500   48.9970   13.2770 C   0  0  0  0  0  0
   59.7180   45.9100    9.9270 N   0  0  0  0  0  0
   59.1670   46.2720    8.6200 C   0  0  2  0  0  0
   57.8350   45.5750    8.3610 C   0  0  0  0  0  0
   56.8570   46.2140    7.9670 O   0  0  0  0  0  0
   60.1380   45.9080    7.4860 C   0  0  0  0  0  0
   61.1720   46.9550    7.1990 C   0  0  0  0  0  0
   62.3690   47.0310    7.8800 N   0  0  0  0  0  0
   61.1940   47.9610    6.2920 C   0  0  0  0  0  0
   63.0840   48.0360    7.4040 C   0  0  0  0  0  0
   62.3930   48.6160    6.4390 N   0  0  0  0  0  0
   57.8090   44.2630    8.5800 N   0  0  0  0  0  0
   56.6040   43.4650    8.3620 C   0  0  2  0  0  0
   55.4370   43.9820    9.1760 C   0  0  0  0  0  0
   54.3090   44.0420    8.6870 O   0  0  0  0  0  0
   56.8660   42.0060    8.7290 C   0  0  0  0  0  0
   57.7950   41.3140    7.7750 C   0  0  0  0  0  0
   58.2390   39.9750    8.2980 C   0  0  0  0  0  0
   58.9960   39.2700    7.2760 N   0  0  0  0  0  0
   59.7120   38.1760    7.4960 C   0  0  0  0  0  0
   59.7770   37.6580    8.7160 N   0  0  0  0  0  0
   60.3580   37.5990    6.4900 N   0  0  0  0  0  0
   55.7160   44.3700   10.4160 N   0  0  0  0  0  0
   54.6720   44.8710   11.2940 C   0  0  2  0  0  0
   54.1280   46.2230   10.8550 C   0  0  0  0  0  0
   52.9230   46.4550   10.9170 O   0  0  0  0  0  0
   55.1860   44.9370   12.7390 C   0  0  0  0  0  0
   55.5740   43.5640   13.3170 C   0  0  0  0  0  0
   56.0770   43.7290   14.7330 C   0  0  0  0  0  0
   54.3690   42.6100   13.2870 C   0  0  0  0  0  0
   55.0070   47.1060   10.3900 N   0  0  0  0  0  0
   54.5900   48.4410    9.9550 C   0  0  2  0  0  0
   53.7900   48.4500    8.6510 C   0  0  0  0  0  0
   52.8920   49.2710    8.4680 O   0  0  0  0  0  0
   55.8190   49.3450    9.8050 C   0  0  0  0  0  0
   56.4790   49.7810   11.1140 C   0  0  0  0  0  0
   57.8330   50.4240   10.8370 C   0  0  0  0  0  0
   55.5530   50.7450   11.8390 C   0  0  0  0  0  0
   54.1260   47.5310    7.7530 N   0  0  0  0  0  0
   53.4680   47.4250    6.4580 C   0  0  2  0  0  0
   52.0390   46.9140    6.5370 C   0  0  0  0  0  0
   51.1560   47.4480    5.8710 O   0  0  0  0  0  0
   54.3060   46.5260    5.5370 C   0  0  0  0  0  0
   53.6070   46.0080    4.2740 C   0  0  0  0  0  0
   52.8030   44.7280    4.5060 C   0  0  0  0  0  0
   53.1470   43.9040    5.3630 O   0  0  0  0  0  0
   51.7380   44.5470    3.7220 N   0  0  0  0  0  0
   51.8140   45.8920    7.3560 N   0  0  0  0  0  0
   50.4890   45.2880    7.5090 C   0  0  2  0  0  0
   49.3900   46.2660    7.9530 C   0  0  0  0  0  0
   49.0120   46.2460    9.1430 O   0  0  0  0  0  0
   50.5630   44.1030    8.4860 C   0  0  0  0  0  0
   49.2420   43.3540    8.5960 C   0  0  0  0  0  0
   48.6440   43.0550    7.5380 O   0  0  0  0  0  0
   48.8040   43.0600    9.7310 O   0  0  0  0  0  0
   48.9080   47.0520    7.1110 O   0  0  0  0  0  0
   67.0022   43.0663    6.5247 H   0  0  0  0  0  0
   68.7578   43.4346    6.4309 H   0  0  0  0  0  0
   67.5519   44.7505    6.2282 H   0  0  0  0  0  0
   68.0400   43.1018    8.7056 H   0  0  0  0  0  0
   68.7653   45.4352    9.5992 H   0  0  0  0  0  0
   69.8794   44.6544    8.4263 H   0  0  0  0  0  0
   68.9705   46.0751    6.6303 H   0  0  0  0  0  0
   67.8797   46.8668    7.8177 H   0  0  0  0  0  0
   69.7709   47.7322    9.0678 H   0  0  0  0  0  0
   70.9249   46.8009    8.0541 H   0  0  0  0  0  0
   70.8689   49.1665    7.3816 H   0  0  0  0  0  0
   70.2324   48.1176    6.0696 H   0  0  0  0  0  0
   68.9177   50.1353    6.3239 H   0  0  0  0  0  0
   68.5922   49.7226    8.0415 H   0  0  0  0  0  0
   67.9557   48.6736    6.7296 H   0  0  0  0  0  0
   67.1126   44.1465   10.6492 H   0  0  0  0  0  0
   65.1254   44.5325   11.7349 H   0  0  0  0  0  0
   64.3996   46.7509    9.7467 H   0  0  0  0  0  0
   64.2385   46.7526   11.5357 H   0  0  0  0  0  0
   66.2172   48.8759    9.3234 H   0  0  0  0  0  0
   69.1062   47.6128   12.1405 H   0  0  0  0  0  0
   64.7876   42.4413   10.1199 H   0  0  0  0  0  0
   62.6953   42.6830    8.2137 H   0  0  0  0  0  0
   63.6036   40.3959   10.0645 H   0  0  0  0  0  0
   62.2343   40.1166    8.9358 H   0  0  0  0  0  0
   63.7638   40.7667    7.0574 H   0  0  0  0  0  0
   65.1092   40.7876    8.2474 H   0  0  0  0  0  0
   64.8402   38.4599    8.7322 H   0  0  0  0  0  0
   63.2668   38.3889    7.8684 H   0  0  0  0  0  0
   64.4714   38.9285    5.7377 H   0  0  0  0  0  0
   66.0237   38.8385    6.6370 H   0  0  0  0  0  0
   65.5446   36.7597    5.4622 H   0  0  0  0  0  0
   63.9862   36.6112    6.3432 H   0  0  0  0  0  0
   65.5386   36.5212    7.2426 H   0  0  0  0  0  0
   62.2983   41.5617   11.6034 H   0  0  0  0  0  0
   59.4791   41.2517   11.4395 H   0  0  0  0  0  0
   61.1452   42.2569   13.8569 H   0  0  0  0  0  0
   60.3033   39.3952   13.1778 H   0  0  0  0  0  0
   61.8640   40.0997   12.6350 H   0  0  0  0  0  0
   58.7333   42.5854   14.2055 H   0  0  0  0  0  0
   59.3935   41.2935   15.2646 H   0  0  0  0  0  0
   58.4393   40.8589   13.8061 H   0  0  0  0  0  0
   62.1388   38.7364   14.6277 H   0  0  0  0  0  0
   60.9527   39.7552   15.5120 H   0  0  0  0  0  0
   62.5134   40.4597   14.9691 H   0  0  0  0  0  0
   61.2838   44.1692   12.5922 H   0  0  0  0  0  0
   58.9558   45.6925   13.1545 H   0  0  0  0  0  0
   61.3191   46.3901   13.6550 H   0  0  0  0  0  0
   61.5884   46.7097   11.9080 H   0  0  0  0  0  0
   59.9861   48.5570   11.9929 H   0  0  0  0  0  0
   58.5235   47.6564   13.7468 H   0  0  0  0  0  0
   59.0991   49.3120   14.1396 H   0  0  0  0  0  0
   59.8318   47.8892   14.9554 H   0  0  0  0  0  0
   62.3960   48.9198   12.4723 H   0  0  0  0  0  0
   62.0846   48.6258   14.2168 H   0  0  0  0  0  0
   61.3519   50.0486   13.4010 H   0  0  0  0  0  0
   60.7082   45.4356    9.9942 H   0  0  0  0  0  0
   59.0217   47.3604    8.6858 H   0  0  0  0  0  0
   60.6779   44.9859    7.7474 H   0  0  0  0  0  0
   59.5727   45.7507    6.5556 H   0  0  0  0  0  0
   60.4722   48.2986    5.5337 H   0  0  0  0  0  0
   64.0739   48.3348    7.7487 H   0  0  0  0  0  0
   58.7313   43.7805    8.9357 H   0  0  0  0  0  0
   56.3745   43.5752    7.2919 H   0  0  0  0  0  0
   57.3196   41.9555    9.7299 H   0  0  0  0  0  0
   55.9160   41.4515    8.7286 H   0  0  0  0  0  0
   57.2832   41.1565    6.8141 H   0  0  0  0  0  0
   58.6884   41.9360    7.6170 H   0  0  0  0  0  0
   58.8741   40.1198    9.1844 H   0  0  0  0  0  0
   57.3570   39.3778    8.5726 H   0  0  0  0  0  0
   58.9982   39.6398    6.2400 H   0  0  0  0  0  0
   59.2403   38.1390    9.5471 H   0  0  0  0  0  0
   60.3017   38.0314    5.4801 H   0  0  0  0  0  0
   60.9496   36.6885    6.6663 H   0  0  0  0  0  0
   56.7539   44.3080   10.7752 H   0  0  0  0  0  0
   53.8597   44.1364   11.1915 H   0  0  0  0  0  0
   56.0802   45.5762   12.7812 H   0  0  0  0  0  0
   54.4036   45.3577   13.3877 H   0  0  0  0  0  0
   56.3857   43.1291   12.7153 H   0  0  0  0  0  0
   56.9382   44.4134   14.7388 H   0  0  0  0  0  0
   56.3840   42.7499   15.1294 H   0  0  0  0  0  0
   55.2748   44.1437   15.3611 H   0  0  0  0  0  0
   54.0143   42.4998   12.2516 H   0  0  0  0  0  0
   53.5606   43.0207   13.9098 H   0  0  0  0  0  0
   54.6699   41.6269   13.6782 H   0  0  0  0  0  0
   56.0667   46.8159   10.3358 H   0  0  0  0  0  0
   53.9205   48.7750   10.7614 H   0  0  0  0  0  0
   56.5931   48.8185    9.2275 H   0  0  0  0  0  0
   55.5333   50.2679    9.2791 H   0  0  0  0  0  0
   56.6524   48.9059   11.7575 H   0  0  0  0  0  0
   58.4800   49.7050   10.3131 H   0  0  0  0  0  0
   58.3026   50.7143   11.7884 H   0  0  0  0  0  0
   57.6935   51.3167   10.2096 H   0  0  0  0  0  0
   54.5860   50.2547   12.0249 H   0  0  0  0  0  0
   55.3970   51.6400   11.2188 H   0  0  0  0  0  0
   56.0061   51.0376   12.7977 H   0  0  0  0  0  0
   54.9344   46.8336    8.0179 H   0  0  0  0  0  0
   53.4147   48.4629    6.0975 H   0  0  0  0  0  0
   55.1894   47.0807    5.1879 H   0  0  0  0  0  0
   54.6295   45.6328    6.0917 H   0  0  0  0  0  0
   52.9098   46.7727    3.9010 H   0  0  0  0  0  0
   54.3594   45.7899    3.5018 H   0  0  0  0  0  0
   51.4704   45.3074    2.9736 H   0  0  0  0  0  0
   51.1280   43.6374    3.8243 H   0  0  0  0  0  0
   52.6665   45.5005    7.9304 H   0  0  0  0  0  0
   50.2467   44.9674    6.4850 H   0  0  0  0  0  0
   48.2266   46.9374    9.4823 H   0  0  0  0  0  0
   51.3279   43.3913    8.1419 H   0  0  0  0  0  0
   50.8283   44.4702    9.4884 H   0  0  0  0  0  0
   47.8513   42.5190    9.8297 H   0  0  0  0  0  0
  1  2  1  0  0  0
  1100  1  0  0  0
  1101  1  0  0  0
  1102  1  0  0  0
  2  3  1  0  0  0
  2  5  1  0  0  0
  2103  1  0  0  0
  3  4  2  0  0  0
  3 10  1  0  0  0
  5  6  1  0  0  0
  5104  1  0  0  0
  5105  1  0  0  0
  6  7  1  0  0  0
  6106  1  0  0  0
  6107  1  0  0  0
  7  8  1  0  0  0
  7108  1  0  0  0
  7109  1  0  0  0
  8  9  1  0  0  0
  8110  1  0  0  0
  8111  1  0  0  0
  9112  1  0  0  0
  9113  1  0  0  0
  9114  1  0  0  0
 10 11  1  0  0  0
 10115  1  0  0  0
 11 12  1  0  0  0
 11 14  1  0  0  0
 11116  1  0  0  0
 12 13  2  0  0  0
 12 20  1  0  0  0
 14 15  1  0  0  0
 14117  1  0  0  0
 14118  1  0  0  0
 15 16  2  0  0  0
 15 17  1  0  0  0
 16 18  1  0  0  0
 17 19  2  0  0  0
 17119  1  0  0  0
 18 19  1  0  0  0
 18120  1  0  0  0
 20 21  1  0  0  0
 20121  1  0  0  0
 21 22  1  0  0  0
 21 24  1  0  0  0
 21122  1  0  0  0
 22 23  2  0  0  0
 22 29  1  0  0  0
 24 25  1  0  0  0
 24123  1  0  0  0
 24124  1  0  0  0
 25 26  1  0  0  0
 25125  1  0  0  0
 25126  1  0  0  0
 26 27  1  0  0  0
 26127  1  0  0  0
 26128  1  0  0  0
 27 28  1  0  0  0
 27129  1  0  0  0
 27130  1  0  0  0
 28131  1  0  0  0
 28132  1  0  0  0
 28133  1  0  0  0
 29 30  1  0  0  0
 29134  1  0  0  0
 30 31  1  0  0  0
 30 33  1  0  0  0
 30135  1  0  0  0
 31 32  2  0  0  0
 31 37  1  0  0  0
 33 34  1  0  0  0
 33 35  1  0  0  0
 33136  1  0  0  0
 34 36  1  0  0  0
 34137  1  0  0  0
 34138  1  0  0  0
 35139  1  0  0  0
 35140  1  0  0  0
 35141  1  0  0  0
 36142  1  0  0  0
 36143  1  0  0  0
 36144  1  0  0  0
 37 38  1  0  0  0
 37145  1  0  0  0
 38 39  1  0  0  0
 38 41  1  0  0  0
 38146  1  0  0  0
 39 40  2  0  0  0
 39 45  1  0  0  0
 41 42  1  0  0  0
 41147  1  0  0  0
 41148  1  0  0  0
 42 43  1  0  0  0
 42 44  1  0  0  0
 42149  1  0  0  0
 43150  1  0  0  0
 43151  1  0  0  0
 43152  1  0  0  0
 44153  1  0  0  0
 44154  1  0  0  0
 44155  1  0  0  0
 45 46  1  0  0  0
 45156  1  0  0  0
 46 47  1  0  0  0
 46 49  1  0  0  0
 46157  1  0  0  0
 47 48  2  0  0  0
 47 55  1  0  0  0
 49 50  1  0  0  0
 49158  1  0  0  0
 49159  1  0  0  0
 50 51  2  0  0  0
 50 52  1  0  0  0
 51 53  1  0  0  0
 52 54  2  0  0  0
 52160  1  0  0  0
 53 54  1  0  0  0
 53161  1  0  0  0
 55 56  1  0  0  0
 55162  1  0  0  0
 56 57  1  0  0  0
 56 59  1  0  0  0
 56163  1  0  0  0
 57 58  2  0  0  0
 57 66  1  0  0  0
 59 60  1  0  0  0
 59164  1  0  0  0
 59165  1  0  0  0
 60 61  1  0  0  0
 60166  1  0  0  0
 60167  1  0  0  0
 61 62  1  0  0  0
 61168  1  0  0  0
 61169  1  0  0  0
 62 63  1  0  0  0
 62170  1  0  0  0
 63 64  2  0  0  0
 63 65  1  0  0  0
 64171  1  0  0  0
 65172  1  0  0  0
 65173  1  0  0  0
 66 67  1  0  0  0
 66174  1  0  0  0
 67 68  1  0  0  0
 67 70  1  0  0  0
 67175  1  0  0  0
 68 69  2  0  0  0
 68 74  1  0  0  0
 70 71  1  0  0  0
 70176  1  0  0  0
 70177  1  0  0  0
 71 72  1  0  0  0
 71 73  1  0  0  0
 71178  1  0  0  0
 72179  1  0  0  0
 72180  1  0  0  0
 72181  1  0  0  0
 73182  1  0  0  0
 73183  1  0  0  0
 73184  1  0  0  0
 74 75  1  0  0  0
 74185  1  0  0  0
 75 76  1  0  0  0
 75 78  1  0  0  0
 75186  1  0  0  0
 76 77  2  0  0  0
 76 82  1  0  0  0
 78 79  1  0  0  0
 78187  1  0  0  0
 78188  1  0  0  0
 79 80  1  0  0  0
 79 81  1  0  0  0
 79189  1  0  0  0
 80190  1  0  0  0
 80191  1  0  0  0
 80192  1  0  0  0
 81193  1  0  0  0
 81194  1  0  0  0
 81195  1  0  0  0
 82 83  1  0  0  0
 82196  1  0  0  0
 83 84  1  0  0  0
 83 86  1  0  0  0
 83197  1  0  0  0
 84 85  2  0  0  0
 84 91  1  0  0  0
 86 87  1  0  0  0
 86198  1  0  0  0
 86199  1  0  0  0
 87 88  1  0  0  0
 87200  1  0  0  0
 87201  1  0  0  0
 88 89  2  0  0  0
 88 90  1  0  0  0
 90202  1  0  0  0
 90203  1  0  0  0
 91 92  1  0  0  0
 91204  1  0  0  0
 92 93  1  0  0  0
 92 95  1  0  0  0
 92205  1  0  0  0
 93 94  1  0  0  0
 93 99  2  0  0  0
 94206  1  0  0  0
 95 96  1  0  0  0
 95207  1  0  0  0
 95208  1  0  0  0
 96 97  2  0  0  0
 96 98  1  0  0  0
 98209  1  0  0  0
M  CHG  3   1   1   9   1  28   1
M  END
> <s_m_source_file>
../4rme_ligand.sdf

> <i_m_source_file_index>
1

> <s_epik_input>
W05IMytdW0NIMl1bQ0gyXVtDSDJdW0NIMl1bQ0BIXShbTkgzK10pQyg9TylbTkhdW0NAQEhdKFtDSDJdQzE9TltDSDJdTj1bQ0hdMSlDKD1PKVtOSF1bQ0BASF0oW0NIMl1bQ0gyXVtDSDJdW0NIMl1bTkgzK10pQyg9TylbTkhdW0NAQEhdKFtDQEBIXShbQ0gzXSlbQ0gyXVtDSDNdKUMoPU8pW05IXVtDQEBIXShbQ0gyXVtDSF0oW0NIM10pW0NIM10pQyg9TylbTkhdW0NAQEhdKFtDSDJdQzI9TltDSDJdTj1bQ0hdMilDKD1PKVtOSF1bQ0BASF0oW0NIMl1bQ0gyXVtDSDJdW05IXS9DKD1OXFtIXSlbTkgyXSlDKD1PKVtOSF1bQ0BASF0oW0NIMl1bQ0hdKFtDSDNdKVtDSDNdKUMoPU8pW05IXVtDQEBIXShbQ0gyXVtDSF0oW0NIM10pW0NIM10pQyg9TylbTkhdW0NAQEhdKFtDSDJdW0NIMl1DKD1PKVtOSDJdKUMoPU8pW05IXVtDQEhdKEMoPU8pW09IXSlbQ0gyXUMoPU8pW09IXQ==

> <s_epik_cmdline>
J2VwaWtfYXBwJywgJy1pbWFlJywgJ2xpZ2FuZF9wcm8ubWFlJywgJy1vbWFlJywgJ2xpZ2FuZF9wcmVwLm1hZScsICctbXMnLCAnMScsICctcGgnLCAnNycsICctcGh0JywgJzAuNScsICctbnQn

> <s_epik_pKa_notes>
Molecule size exceeds maximum supported for generating protonation states

> <s_epik_Chemistry_Notes>
This compound has an imine and may undergo hydrolysis.

$$$$
