4rn0_ligand
                    3D
 Schrodinger Suite 2020-3.
 61 63  0  0  1  0            999 V2000
   -2.7810   10.6540  -18.3900 C   0  0  0  0  0  0
   -2.2410    9.8280  -19.5860 C   0  0  0  0  0  0
   -2.4860    8.3490  -19.3460 C   0  0  0  0  0  0
   -1.4460    7.5010  -19.4060 C   0  0  0  0  0  0
   -1.6050    6.0120  -19.1790 C   0  0  2  0  0  0
   -0.5900    5.0220  -21.1570 C   0  0  0  0  0  0
    0.5470    4.2560  -21.7830 C   0  0  2  0  0  0
   -0.0370    3.1130  -22.6390 C   0  0  0  0  0  0
   -0.9520    2.1750  -21.8490 C   0  0  0  0  0  0
    1.0330    2.2470  -23.3250 C   0  0  0  0  0  0
    2.7250    3.5820  -20.8950 C   0  0  0  0  0  0
    3.5020    2.8690  -19.8110 C   0  0  2  0  0  0
    4.6530    3.7850  -19.3930 C   0  0  0  0  0  0
    3.9750    1.5450  -20.4320 C   0  0  0  0  0  0
    2.1890    1.3540  -18.6800 C   0  0  0  0  0  0
    1.1000    0.9960  -17.7620 C   0  0  0  0  0  0
    0.8470   -0.2780  -17.2530 C   0  0  0  0  0  0
   -0.7120    1.5720  -16.5150 C   0  0  0  0  0  0
   -1.7910    2.3860  -15.8650 C   0  0  0  0  0  0
   -1.9630    4.2810  -17.3700 C   0  0  0  0  0  0
   -1.5620    5.7100  -17.6940 C   0  0  0  0  0  0
   -0.5150    5.2680  -19.8520 N   0  0  0  0  0  0
    1.4040    3.6470  -20.7710 N   0  0  0  0  0  0
    2.6360    2.5410  -18.6770 N   0  0  0  0  0  0
    0.2500    1.9730  -17.3430 N   0  0  0  0  0  0
   -1.4530    3.7550  -16.2750 N   0  0  0  0  0  0
   -1.5230    5.3580  -21.8670 O   0  0  0  0  0  0
    3.3060    4.0550  -21.8710 O   0  0  0  0  0  0
   -2.7330    3.6450  -18.0770 O   0  0  0  0  0  0
   -2.8010   12.4400  -18.8280 S   0  0  0  0  0  0
    2.9080    0.2970  -19.7680 S   0  0  0  0  0  0
   -0.5340   -0.1330  -16.2320 S   0  0  0  0  0  0
   -3.8032   10.3262  -18.1498 H   0  0  0  0  0  0
   -2.1317   10.5005  -17.5154 H   0  0  0  0  0  0
   -2.7571   10.1362  -20.5072 H   0  0  0  0  0  0
   -1.1606   10.0035  -19.6948 H   0  0  0  0  0  0
   -3.4942    7.9681  -19.1260 H   0  0  0  0  0  0
   -0.4378    7.8819  -19.6261 H   0  0  0  0  0  0
   -2.5615    5.6840  -19.6121 H   0  0  0  0  0  0
    1.1696    4.9665  -22.3465 H   0  0  0  0  0  0
   -0.6260    3.6399  -23.4042 H   0  0  0  0  0  0
   -1.7320    2.7634  -21.3437 H   0  0  0  0  0  0
   -0.3595    1.6307  -21.0988 H   0  0  0  0  0  0
   -1.4222    1.4566  -22.5365 H   0  0  0  0  0  0
    1.7106    2.8917  -23.9040 H   0  0  0  0  0  0
    0.5455    1.5279  -23.9997 H   0  0  0  0  0  0
    1.6082    1.7021  -22.5620 H   0  0  0  0  0  0
    5.2800    4.0089  -20.2687 H   0  0  0  0  0  0
    5.2607    3.2833  -18.6255 H   0  0  0  0  0  0
    4.2462    4.7217  -18.9842 H   0  0  0  0  0  0
    3.8902    1.6028  -21.5272 H   0  0  0  0  0  0
    5.0239    1.3639  -20.1545 H   0  0  0  0  0  0
    1.4119   -1.1869  -17.4603 H   0  0  0  0  0  0
   -2.7724    2.0597  -16.2396 H   0  0  0  0  0  0
   -1.7496    2.2459  -14.7747 H   0  0  0  0  0  0
   -0.5400    5.8648  -17.3178 H   0  0  0  0  0  0
   -2.2536    6.3808  -17.1632 H   0  0  0  0  0  0
    0.3532    4.9207  -19.2726 H   0  0  0  0  0  0
    0.9604    3.2180  -19.8604 H   0  0  0  0  0  0
   -0.7644    4.3578  -15.6647 H   0  0  0  0  0  0
   -3.1557   13.1816  -18.0971 H   0  0  0  0  0  0
  1  2  1  0  0  0
  1 30  1  0  0  0
  1 33  1  0  0  0
  1 34  1  0  0  0
  2  3  1  0  0  0
  2 35  1  0  0  0
  2 36  1  0  0  0
  3  4  2  0  0  0
  3 37  1  0  0  0
  4  5  1  0  0  0
  4 38  1  0  0  0
  5 21  1  0  0  0
  5 22  1  0  0  0
  5 39  1  0  0  0
  6  7  1  0  0  0
  6 22  1  0  0  0
  6 27  2  0  0  0
  7  8  1  0  0  0
  7 23  1  0  0  0
  7 40  1  0  0  0
  8  9  1  0  0  0
  8 10  1  0  0  0
  8 41  1  0  0  0
  9 42  1  0  0  0
  9 43  1  0  0  0
  9 44  1  0  0  0
 10 45  1  0  0  0
 10 46  1  0  0  0
 10 47  1  0  0  0
 11 12  1  0  0  0
 11 23  1  0  0  0
 11 28  2  0  0  0
 12 13  1  0  0  0
 12 14  1  0  0  0
 12 24  1  0  0  0
 13 48  1  0  0  0
 13 49  1  0  0  0
 13 50  1  0  0  0
 14 31  1  0  0  0
 14 51  1  0  0  0
 14 52  1  0  0  0
 15 16  1  0  0  0
 15 24  2  0  0  0
 15 31  1  0  0  0
 16 17  2  0  0  0
 16 25  1  0  0  0
 17 32  1  0  0  0
 17 53  1  0  0  0
 18 19  1  0  0  0
 18 25  2  0  0  0
 18 32  1  0  0  0
 19 26  1  0  0  0
 19 54  1  0  0  0
 19 55  1  0  0  0
 20 21  1  0  0  0
 20 26  1  0  0  0
 20 29  2  0  0  0
 21 56  1  0  0  0
 21 57  1  0  0  0
 22 58  1  0  0  0
 23 59  1  0  0  0
 26 60  1  0  0  0
 30 61  1  0  0  0
M  END
> <s_m_source_file>
../4rn0_ligand.sdf

> <i_m_source_file_index>
1

> <s_epik_input>
W0NIM11bQ0BAXTEyQyg9TylbTkhdW0NAQEhdKFtDSF0oW0NIM10pW0NIM10pQyg9TylbTkhdW0NASF0oXFtDSF09W0NIXVxbQ0gyXVtDSDJdW1NIXSlbQ0gyXUMoPU8pW05IXVtDSDJdYzNuYyhbY0hdczMpQyg9TjIpU1tDSDJdMQ==

> <s_epik_cmdline>
J2VwaWtfYXBwJywgJy1pbWFlJywgJ2xpZ2FuZF9wcm8ubWFlJywgJy1vbWFlJywgJ2xpZ2FuZF9wcmVwLm1hZScsICctbXMnLCAnMScsICctcGgnLCAnNycsICctcGh0JywgJzAuNScsICctbnQn

> <r_lp_tautomer_probability>
1

> <r_epik_Ionization_Penalty>
  0.0018

> <r_epik_Ionization_Penalty_Charging>
  0.0000

> <r_epik_Ionization_Penalty_Neutral>
  0.0018

> <r_epik_State_Penalty>
 -0.0000

> <r_epik_Charging_Adjusted_Penalty>
0

> <i_epik_Tot_Q>
0

> <i_epik_Tot_abs_Q>
0

> <s_epik_Chemistry_Notes>
This compound has an imine and may undergo hydrolysis.

$$$$
