4rn1_ligand
                    3D
 Schrodinger Suite 2020-3.
 64 66  0  0  1  0            999 V2000
   -2.9670   10.9080  -18.5120 C   0  0  0  0  0  0
   -2.0440   10.0680  -19.3860 C   0  0  0  0  0  0
   -2.2060    8.5990  -19.0780 C   0  0  0  0  0  0
   -1.3490    7.7310  -19.6100 C   0  0  0  0  0  0
   -1.4760    6.2520  -19.3310 C   0  0  2  0  0  0
   -0.5600    5.1120  -21.2520 C   0  0  0  0  0  0
    0.5700    4.3470  -21.8860 C   0  0  2  0  0  0
   -0.0080    3.2550  -22.7830 C   0  0  0  0  0  0
   -0.8920    2.3020  -21.9900 C   0  0  0  0  0  0
    1.0860    2.4840  -23.5160 C   0  0  0  0  0  0
    2.7140    3.8440  -20.8730 C   0  0  0  0  0  0
    3.4920    3.0670  -19.8430 C   0  0  2  0  0  0
    4.6820    3.9010  -19.3880 C   0  0  0  0  0  0
    3.9610    1.7620  -20.4910 C   0  0  0  0  0  0
    2.1710    1.5630  -18.6870 C   0  0  0  0  0  0
    1.1030    1.1270  -17.7300 C   0  0  0  0  0  0
    0.9780   -0.2120  -17.3730 C   0  0  0  0  0  0
   -0.0230   -0.5940  -16.4860 C   0  0  0  0  0  0
   -0.8800    0.3740  -15.9790 C   0  0  0  0  0  0
   -0.7240    1.7020  -16.3660 C   0  0  0  0  0  0
   -1.6510    2.7610  -15.8160 C   0  0  0  0  0  0
   -1.8130    4.6150  -17.4770 C   0  0  0  0  0  0
   -1.3210    5.9990  -17.8330 C   0  0  0  0  0  0
   -0.4110    5.5040  -19.9880 N   0  0  0  0  0  0
    1.3980    3.6440  -20.9150 N   0  0  0  0  0  0
    2.6340    2.7350  -18.7050 N   0  0  0  0  0  0
    0.2550    2.0490  -17.2280 N   0  0  0  0  0  0
   -1.3240    4.0690  -16.3660 N   0  0  0  0  0  0
   -1.5630    5.3680  -21.8990 O   0  0  0  0  0  0
    3.2900    4.6020  -21.6350 O   0  0  0  0  0  0
   -2.6340    4.0510  -18.1790 O   0  0  0  0  0  0
   -2.7800   12.6600  -18.9340 S   0  0  0  0  0  0
    2.8610    0.5670  -19.8180 S   0  0  0  0  0  0
   -4.0101   10.6017  -18.6800 H   0  0  0  0  0  0
   -2.7068   10.7580  -17.4538 H   0  0  0  0  0  0
   -2.2875   10.2375  -20.4452 H   0  0  0  0  0  0
   -0.9991   10.3567  -19.1992 H   0  0  0  0  0  0
   -3.0164    8.2421  -18.4254 H   0  0  0  0  0  0
   -0.5372    8.0881  -20.2608 H   0  0  0  0  0  0
   -2.4408    5.9096  -19.7335 H   0  0  0  0  0  0
    1.2033    5.0882  -22.3955 H   0  0  0  0  0  0
   -0.6309    3.7546  -23.5395 H   0  0  0  0  0  0
   -1.6736    2.8746  -21.4691 H   0  0  0  0  0  0
   -0.2799    1.7621  -21.2525 H   0  0  0  0  0  0
   -1.3611    1.5809  -22.6755 H   0  0  0  0  0  0
    1.7137    3.1876  -24.0825 H   0  0  0  0  0  0
    0.6259    1.7637  -24.2084 H   0  0  0  0  0  0
    1.7070    1.9449  -22.7854 H   0  0  0  0  0  0
    5.3148    4.1407  -20.2553 H   0  0  0  0  0  0
    5.2688    3.3317  -18.6521 H   0  0  0  0  0  0
    4.3220    4.8331  -18.9279 H   0  0  0  0  0  0
    3.8770    1.8448  -21.5847 H   0  0  0  0  0  0
    5.0094    1.5727  -20.2171 H   0  0  0  0  0  0
    1.6595   -0.9561  -17.7854 H   0  0  0  0  0  0
   -0.1332   -1.6381  -16.1931 H   0  0  0  0  0  0
   -1.6704    0.0955  -15.2820 H   0  0  0  0  0  0
   -2.6893    2.5135  -16.0820 H   0  0  0  0  0  0
   -1.5528    2.8016  -14.7211 H   0  0  0  0  0  0
   -0.2602    6.0840  -17.5546 H   0  0  0  0  0  0
   -1.9077    6.7421  -17.2730 H   0  0  0  0  0  0
    0.5122    5.2650  -19.4398 H   0  0  0  0  0  0
    0.9372    2.9396  -20.2068 H   0  0  0  0  0  0
   -0.6015    4.7179  -15.8494 H   0  0  0  0  0  0
   -3.3714   13.4200  -18.4023 H   0  0  0  0  0  0
  1  2  1  0  0  0
  1 32  1  0  0  0
  1 34  1  0  0  0
  1 35  1  0  0  0
  2  3  1  0  0  0
  2 36  1  0  0  0
  2 37  1  0  0  0
  3  4  2  0  0  0
  3 38  1  0  0  0
  4  5  1  0  0  0
  4 39  1  0  0  0
  5 23  1  0  0  0
  5 24  1  0  0  0
  5 40  1  0  0  0
  6  7  1  0  0  0
  6 24  1  0  0  0
  6 29  2  0  0  0
  7  8  1  0  0  0
  7 25  1  0  0  0
  7 41  1  0  0  0
  8  9  1  0  0  0
  8 10  1  0  0  0
  8 42  1  0  0  0
  9 43  1  0  0  0
  9 44  1  0  0  0
  9 45  1  0  0  0
 10 46  1  0  0  0
 10 47  1  0  0  0
 10 48  1  0  0  0
 11 12  1  0  0  0
 11 25  1  0  0  0
 11 30  2  0  0  0
 12 13  1  0  0  0
 12 14  1  0  0  0
 12 26  1  0  0  0
 13 49  1  0  0  0
 13 50  1  0  0  0
 13 51  1  0  0  0
 14 33  1  0  0  0
 14 52  1  0  0  0
 14 53  1  0  0  0
 15 16  1  0  0  0
 15 26  2  0  0  0
 15 33  1  0  0  0
 16 17  2  0  0  0
 16 27  1  0  0  0
 17 18  1  0  0  0
 17 54  1  0  0  0
 18 19  2  0  0  0
 18 55  1  0  0  0
 19 20  1  0  0  0
 19 56  1  0  0  0
 20 21  1  0  0  0
 20 27  2  0  0  0
 21 28  1  0  0  0
 21 57  1  0  0  0
 21 58  1  0  0  0
 22 23  1  0  0  0
 22 28  1  0  0  0
 22 31  2  0  0  0
 23 59  1  0  0  0
 23 60  1  0  0  0
 24 61  1  0  0  0
 25 62  1  0  0  0
 28 63  1  0  0  0
 32 64  1  0  0  0
M  END
> <s_m_source_file>
../4rn1_ligand.sdf

> <i_m_source_file_index>
1

> <s_epik_input>
W0NIM11bQ0BAXTEyQyg9TylbTkhdW0NAQEhdKFtDSF0oW0NIM10pW0NIM10pQyg9TylbTkhdW0NASF0oXFtDSF09W0NIXVxbQ0gyXVtDSDJdW1NIXSlbQ0gyXUMoPU8pW05IXVtDSDJdYzNbY0hdW2NIXVtjSF1jKG4zKUMoPU4yKVNbQ0gyXTE=

> <s_epik_cmdline>
J2VwaWtfYXBwJywgJy1pbWFlJywgJ2xpZ2FuZF9wcm8ubWFlJywgJy1vbWFlJywgJ2xpZ2FuZF9wcmVwLm1hZScsICctbXMnLCAnMScsICctcGgnLCAnNycsICctcGh0JywgJzAuNScsICctbnQn

> <r_lp_tautomer_probability>
1

> <r_epik_Ionization_Penalty>
  0.0019

> <r_epik_Ionization_Penalty_Charging>
  0.0000

> <r_epik_Ionization_Penalty_Neutral>
  0.0019

> <r_epik_State_Penalty>
 -0.0000

> <r_epik_Charging_Adjusted_Penalty>
0

> <i_epik_Tot_Q>
0

> <i_epik_Tot_abs_Q>
0

> <s_epik_Chemistry_Notes>
This compound has an imine and may undergo hydrolysis.

$$$$
