4rn2_ligand
                    3D
 Schrodinger Suite 2020-3.
 64 66  0  0  1  0            999 V2000
   19.0610   28.6690   16.7710 C   0  0  0  0  0  0
   19.3970   29.7090   17.8340 C   0  0  0  0  0  0
   19.0710   31.0970   17.3340 C   0  0  0  0  0  0
   19.4390   32.1500   18.0560 C   0  0  0  0  0  0
   19.1330   33.5540   17.5920 C   0  0  2  0  0  0
   19.1500   34.9790   19.5270 C   0  0  0  0  0  0
   19.8390   35.9860   20.4090 C   0  0  2  0  0  0
   18.7950   36.9820   20.9070 C   0  0  0  0  0  0
   18.2200   37.8010   19.7560 C   0  0  0  0  0  0
   19.3570   37.8900   21.9960 C   0  0  0  0  0  0
   22.0720   36.9380   20.2280 C   0  0  0  0  0  0
   23.0360   37.8010   19.4550 C   0  0  2  0  0  0
   24.4250   37.1810   19.5240 C   0  0  0  0  0  0
   23.0300   39.1990   20.0810 C   0  0  0  0  0  0
   21.9060   38.9490   17.8090 C   0  0  0  0  0  0
   21.0540   39.0670   16.5830 C   0  0  0  0  0  0
   20.5500   40.2950   16.1790 C   0  0  0  0  0  0
   19.7560   40.3610   15.0390 C   0  0  0  0  0  0
   19.9530   38.0450   14.7160 C   0  0  0  0  0  0
   20.7490   37.9300   15.8480 C   0  0  0  0  0  0
   19.6170   36.8170   13.9020 C   0  0  0  0  0  0
   19.1390   35.0070   15.5590 C   0  0  0  0  0  0
   19.6920   33.7500   16.1860 C   0  0  0  0  0  0
   19.7880   34.5350   18.4470 N   0  0  0  0  0  0
   20.8420   36.7960   19.7260 N   0  0  0  0  0  0
   22.5920   37.9240   18.0670 N   0  0  0  0  0  0
   19.4760   39.2530   14.3390 N   0  0  0  0  0  0
   19.9110   35.6040   14.6540 N   0  0  0  0  0  0
   18.0350   34.5810   19.8200 O   0  0  0  0  0  0
   22.4270   36.4140   21.2720 O   0  0  0  0  0  0
   18.0350   35.4240   15.8680 O   0  0  0  0  0  0
   19.4900   27.0190   17.3850 S   0  0  0  0  0  0
   22.0290   40.1240   18.9700 S   0  0  0  0  0  0
   17.9849   28.7087   16.5464 H   0  0  0  0  0  0
   19.6345   28.8809   15.8565 H   0  0  0  0  0  0
   18.8096   29.5081   18.7421 H   0  0  0  0  0  0
   20.4696   29.6566   18.0721 H   0  0  0  0  0  0
   18.5354   31.2415   16.3841 H   0  0  0  0  0  0
   19.9743   32.0055   19.0060 H   0  0  0  0  0  0
   18.0468   33.7162   17.6542 H   0  0  0  0  0  0
   20.3674   35.4077   21.1813 H   0  0  0  0  0  0
   17.9746   36.4003   21.3526 H   0  0  0  0  0  0
   17.8224   37.1231   18.9864 H   0  0  0  0  0  0
   19.0124   38.4267   19.3195 H   0  0  0  0  0  0
   17.4105   38.4439   20.1320 H   0  0  0  0  0  0
   19.7643   37.2750   22.8120 H   0  0  0  0  0  0
   18.5550   38.5334   22.3869 H   0  0  0  0  0  0
   20.1570   38.5163   21.5744 H   0  0  0  0  0  0
   24.7378   37.0984   20.5753 H   0  0  0  0  0  0
   25.1378   37.8167   18.9782 H   0  0  0  0  0  0
   24.4028   36.1801   19.0683 H   0  0  0  0  0  0
   22.6014   39.1459   21.0927 H   0  0  0  0  0  0
   24.0606   39.5793   20.1389 H   0  0  0  0  0  0
   20.7737   41.1972   16.7483 H   0  0  0  0  0  0
   19.3582   41.3218   14.7122 H   0  0  0  0  0  0
   21.1304   36.9565   16.1562 H   0  0  0  0  0  0
   18.5468   36.8270   13.6480 H   0  0  0  0  0  0
   20.2132   36.8154   12.9776 H   0  0  0  0  0  0
   20.7879   33.8311   16.2352 H   0  0  0  0  0  0
   19.4158   32.8899   15.5584 H   0  0  0  0  0  0
   20.7956   34.8980   18.1958 H   0  0  0  0  0  0
   20.5908   37.3018   18.7820 H   0  0  0  0  0  0
   20.8644   35.0778   14.4983 H   0  0  0  0  0  0
   19.3180   26.1351   16.7532 H   0  0  0  0  0  0
  1  2  1  0  0  0
  1 32  1  0  0  0
  1 34  1  0  0  0
  1 35  1  0  0  0
  2  3  1  0  0  0
  2 36  1  0  0  0
  2 37  1  0  0  0
  3  4  2  0  0  0
  3 38  1  0  0  0
  4  5  1  0  0  0
  4 39  1  0  0  0
  5 23  1  0  0  0
  5 24  1  0  0  0
  5 40  1  0  0  0
  6  7  1  0  0  0
  6 24  1  0  0  0
  6 29  2  0  0  0
  7  8  1  0  0  0
  7 25  1  0  0  0
  7 41  1  0  0  0
  8  9  1  0  0  0
  8 10  1  0  0  0
  8 42  1  0  0  0
  9 43  1  0  0  0
  9 44  1  0  0  0
  9 45  1  0  0  0
 10 46  1  0  0  0
 10 47  1  0  0  0
 10 48  1  0  0  0
 11 12  1  0  0  0
 11 25  1  0  0  0
 11 30  2  0  0  0
 12 13  1  0  0  0
 12 14  1  0  0  0
 12 26  1  0  0  0
 13 49  1  0  0  0
 13 50  1  0  0  0
 13 51  1  0  0  0
 14 33  1  0  0  0
 14 52  1  0  0  0
 14 53  1  0  0  0
 15 16  1  0  0  0
 15 26  2  0  0  0
 15 33  1  0  0  0
 16 17  2  0  0  0
 16 20  1  0  0  0
 17 18  1  0  0  0
 17 54  1  0  0  0
 18 27  2  0  0  0
 18 55  1  0  0  0
 19 20  2  0  0  0
 19 21  1  0  0  0
 19 27  1  0  0  0
 20 56  1  0  0  0
 21 28  1  0  0  0
 21 57  1  0  0  0
 21 58  1  0  0  0
 22 23  1  0  0  0
 22 28  1  0  0  0
 22 31  2  0  0  0
 23 59  1  0  0  0
 23 60  1  0  0  0
 24 61  1  0  0  0
 25 62  1  0  0  0
 28 63  1  0  0  0
 32 64  1  0  0  0
M  END
> <s_m_source_file>
../4rn2_ligand.sdf

> <i_m_source_file_index>
1

> <s_epik_input>
W0NIM11bQ0BAXTEyQyg9TylbTkhdW0NAQEhdKFtDSF0oW0NIM10pW0NIM10pQyg9TylbTkhdW0NASF0oXFtDSF09W0NIXVxbQ0gyXVtDSDJdW1NIXSlbQ0gyXUMoPU8pW05IXVtDSDJdYzNbY0hdYyhbY0hdW2NIXW4zKUMoPU4yKVNbQ0gyXTE=

> <s_epik_cmdline>
J2VwaWtfYXBwJywgJy1pbWFlJywgJ2xpZ2FuZF9wcm8ubWFlJywgJy1vbWFlJywgJ2xpZ2FuZF9wcmVwLm1hZScsICctbXMnLCAnMScsICctcGgnLCAnNycsICctcGh0JywgJzAuNScsICctbnQn

> <r_lp_tautomer_probability>
1

> <r_epik_Ionization_Penalty>
  0.0040

> <r_epik_Ionization_Penalty_Charging>
  0.0000

> <r_epik_Ionization_Penalty_Neutral>
  0.0040

> <r_epik_State_Penalty>
 -0.0000

> <r_epik_Charging_Adjusted_Penalty>
0

> <i_epik_Tot_Q>
0

> <i_epik_Tot_abs_Q>
0

> <s_epik_Chemistry_Notes>
This compound has an imine and may undergo hydrolysis.

$$$$
