4rn6_ligand
                    3D
 Schrodinger Suite 2020-3.
 71 73  0  0  1  0            999 V2000
   -3.3940    3.4080    6.2250 S   0  0  0  0  0  0
   -4.0150    4.6840    6.4630 O   0  0  0  0  0  0
   -4.4040    2.4890    5.7660 O   0  0  0  0  0  0
   -2.4030    5.9910    9.7330 C   0  0  0  0  0  0
   -1.1820    5.5740   10.5550 C   0  0  2  0  0  0
   -1.3410    4.1350   11.0560 C   0  0  0  0  0  0
   -1.7430    3.2240    9.9110 C   0  0  0  0  0  0
   -1.5500    1.8470    9.9950 C   0  0  0  0  0  0
   -1.9220    1.0100    8.9420 C   0  0  0  0  0  0
   -2.5000    1.4980    7.7690 C   0  0  0  0  0  0
   -2.7360    2.8610    7.5840 C   0  0  0  0  0  0
   -2.3560    3.7960    8.6800 C   0  0  0  0  0  0
   -0.9370    6.5440   11.7050 C   0  0  0  0  0  0
   -2.5520    5.1310    8.5710 N   0  0  0  0  0  0
   -2.3080    3.6460    5.0640 N   0  0  3  0  0  0
   -1.0090    2.9920    5.0190 C   0  0  2  0  0  0
    0.0200    3.6740    5.8920 C   0  0  0  0  0  0
   -0.0800    4.8780    6.0640 O   0  0  0  0  0  0
   -0.5450    2.9200    3.5650 C   0  0  0  0  0  0
   -0.7020    4.2380    2.8210 C   0  0  0  0  0  0
    0.6460    4.7750    2.3580 C   0  0  0  0  0  0
    0.5640    6.2090    2.1530 N   0  0  0  0  0  0
    1.5870    6.9570    1.7490 C   0  0  0  0  0  0
    1.3800    7.8550    0.7880 N   0  0  0  0  0  0
    2.7320    6.8370    2.2660 N   0  3  0  0  0  0
    1.0200    2.9660    6.4560 N   0  0  0  0  0  0
    1.2600    1.5520    6.1040 C   0  0  2  0  0  0
    1.4130    0.6960    7.3740 C   0  0  0  0  0  0
    2.4390    1.2540    8.3570 C   0  0  1  0  0  0
    2.0330    2.6840    8.6880 C   0  0  0  0  0  0
    1.9900    3.5280    7.4140 C   0  0  0  0  0  0
    2.4410    1.3790    5.1740 C   0  0  0  0  0  0
    3.0590    2.4000    4.7760 O   0  5  0  0  0  0
    2.7620    0.2150    4.8220 O   0  0  0  0  0  0
    2.5540    0.3990    9.6140 C   0  0  0  0  0  0
   -3.3074    5.9123   10.3541 H   0  0  0  0  0  0
   -2.2798    7.0304    9.3948 H   0  0  0  0  0  0
   -0.2943    5.6147    9.9066 H   0  0  0  0  0  0
   -0.3865    3.7856   11.4765 H   0  0  0  0  0  0
   -2.1184    4.1012   11.8335 H   0  0  0  0  0  0
   -1.1038    1.4187   10.8925 H   0  0  0  0  0  0
   -1.7553   -0.0628    9.0391 H   0  0  0  0  0  0
   -2.7734    0.7983    6.9792 H   0  0  0  0  0  0
   -0.8282    7.5639   11.3075 H   0  0  0  0  0  0
   -0.0176    6.2576   12.2366 H   0  0  0  0  0  0
   -1.7884    6.5104   12.4007 H   0  0  0  0  0  0
   -2.8252    5.5642    7.5975 H   0  0  0  0  0  0
   -2.5335    4.4694    4.3704 H   0  0  0  0  0  0
   -1.1629    1.9893    5.4442 H   0  0  0  0  0  0
    0.5195    2.6447    3.5331 H   0  0  0  0  0  0
   -1.1358    2.1628    3.0286 H   0  0  0  0  0  0
   -1.3407    4.0869    1.9383 H   0  0  0  0  0  0
   -1.1655    4.9815    3.4861 H   0  0  0  0  0  0
    1.4079    4.5613    3.1221 H   0  0  0  0  0  0
    0.9289    4.2895    1.4124 H   0  0  0  0  0  0
   -0.3840    6.7371    2.3333 H   0  0  0  0  0  0
    0.3816    7.9588    0.3380 H   0  0  0  0  0  0
    2.2074    8.4931    0.4440 H   0  0  0  0  0  0
    2.9020    6.0948    3.0599 H   0  0  0  0  0  0
    0.3689    1.2384    5.5404 H   0  0  0  0  0  0
    0.4473    0.6414    7.8979 H   0  0  0  0  0  0
    1.7372   -0.3177    7.0961 H   0  0  0  0  0  0
    3.4385    1.2411    7.8978 H   0  0  0  0  0  0
    1.0365    2.6837    9.1539 H   0  0  0  0  0  0
    2.7635    3.1206    9.3850 H   0  0  0  0  0  0
    2.9911    3.5390    6.9583 H   0  0  0  0  0  0
    1.6946    4.5549    7.6750 H   0  0  0  0  0  0
    2.8480   -0.6239    9.3360 H   0  0  0  0  0  0
    1.5831    0.3739   10.1304 H   0  0  0  0  0  0
    3.3138    0.8301   10.2824 H   0  0  0  0  0  0
    3.5600    7.4746    1.9227 H   0  0  0  0  0  0
  1  2  2  0  0  0
  1  3  2  0  0  0
  1 11  1  0  0  0
  1 15  1  0  0  0
  4  5  1  0  0  0
  4 14  1  0  0  0
  4 36  1  0  0  0
  4 37  1  0  0  0
  5  6  1  0  0  0
  5 13  1  0  0  0
  5 38  1  0  0  0
  6  7  1  0  0  0
  6 39  1  0  0  0
  6 40  1  0  0  0
  7  8  2  0  0  0
  7 12  1  0  0  0
  8  9  1  0  0  0
  8 41  1  0  0  0
  9 10  2  0  0  0
  9 42  1  0  0  0
 10 11  1  0  0  0
 10 43  1  0  0  0
 11 12  2  0  0  0
 12 14  1  0  0  0
 13 44  1  0  0  0
 13 45  1  0  0  0
 13 46  1  0  0  0
 14 47  1  0  0  0
 15 16  1  0  0  0
 15 48  1  0  0  0
 16 17  1  0  0  0
 16 19  1  0  0  0
 16 49  1  0  0  0
 17 18  2  0  0  0
 17 26  1  0  0  0
 19 20  1  0  0  0
 19 50  1  0  0  0
 19 51  1  0  0  0
 20 21  1  0  0  0
 20 52  1  0  0  0
 20 53  1  0  0  0
 21 22  1  0  0  0
 21 54  1  0  0  0
 21 55  1  0  0  0
 22 23  1  0  0  0
 22 56  1  0  0  0
 23 24  1  0  0  0
 23 25  2  0  0  0
 24 57  1  0  0  0
 24 58  1  0  0  0
 25 59  1  0  0  0
 25 71  1  0  0  0
 26 27  1  0  0  0
 26 31  1  0  0  0
 27 28  1  0  0  0
 27 32  1  0  0  0
 27 60  1  0  0  0
 28 29  1  0  0  0
 28 61  1  0  0  0
 28 62  1  0  0  0
 29 30  1  0  0  0
 29 35  1  0  0  0
 29 63  1  0  0  0
 30 31  1  0  0  0
 30 64  1  0  0  0
 30 65  1  0  0  0
 31 66  1  0  0  0
 31 67  1  0  0  0
 32 33  1  0  0  0
 32 34  2  0  0  0
 35 68  1  0  0  0
 35 69  1  0  0  0
 35 70  1  0  0  0
M  CHG  2  25   1  33  -1
M  END
> <s_m_source_file>
../4rn6_ligand.sdf

> <i_m_source_file_index>
1

> <s_epik_input>
W0NIMl0xW0NASF0oW0NIM10pW0NIMl1bTkhdYyhjMTIpYyhbY0hdW2NIXVtjSF0yKVMoPU8pKD1PKVtOSF1bQ0BASF0oW0NIMl1bQ0gyXVtDSDJdW05IXS9DKFtOSDJdKT1OXFtIXSlDKD1PKU4zW0NAQEhdKEMoPU8pW09IXSlbQ0gyXVtDQEhdKFtDSDNdKVtDSDJdW0NIMl0z

> <s_epik_cmdline>
J2VwaWtfYXBwJywgJy1pbWFlJywgJ2xpZ2FuZF9wcm8ubWFlJywgJy1vbWFlJywgJ2xpZ2FuZF9wcmVwLm1hZScsICctbXMnLCAnMScsICctcGgnLCAnNycsICctcGh0JywgJzAuNScsICctbnQn

> <r_lp_tautomer_probability>
1

> <r_epik_Ionization_Penalty>
  0.0004

> <r_epik_Ionization_Penalty_Charging>
  0.0002

> <r_epik_Ionization_Penalty_Neutral>
  0.0002

> <r_epik_State_Penalty>
 -0.0000

> <r_epik_Charging_Adjusted_Penalty>
0.000187931198407019

> <i_epik_Tot_Q>
0

> <i_epik_Tot_abs_Q>
2

> <s_epik_Chemistry_Notes>
This compound has an imine and may undergo hydrolysis.

$$$$
