4rpo_ligand
                    3D
 Schrodinger Suite 2020-3.
 12 12  0  0  1  0            999 V2000
  -33.0760  -10.9110   20.0170 Cl  0  0  0  0  0  0
  -31.8930  -12.1830   20.0640 C   0  0  0  0  0  0
  -30.5600  -11.8800   20.2480 C   0  0  0  0  0  0
  -29.6380  -12.9020   20.3280 C   0  0  0  0  0  0
  -27.9720  -12.5140   20.5490 Cl  0  0  0  0  0  0
  -30.1580  -10.5400   20.3720 O   0  5  0  0  0  0
  -32.2970  -13.4920   19.9250 C   0  0  0  0  0  0
  -31.3550  -14.4890   20.0020 C   0  0  0  0  0  0
  -31.9020  -16.1140   19.8720 Cl  0  0  0  0  0  0
  -30.0230  -14.2210   20.2090 C   0  0  0  0  0  0
  -33.3466  -13.7331   19.7567 H   0  0  0  0  0  0
  -29.2925  -15.0271   20.2771 H   0  0  0  0  0  0
  1  2  1  0  0  0
  2  3  2  0  0  0
  2  7  1  0  0  0
  3  4  1  0  0  0
  3  6  1  0  0  0
  4  5  1  0  0  0
  4 10  2  0  0  0
  7  8  2  0  0  0
  7 11  1  0  0  0
  8  9  1  0  0  0
  8 10  1  0  0  0
 10 12  1  0  0  0
M  CHG  1   6  -1
M  END
> <s_m_source_file>
../4rpo_ligand.sdf

> <i_m_source_file_index>
1

> <s_epik_input>
Q2xjMWMoW09IXSljKENsKVtjSF1jKENsKVtjSF0x

> <s_epik_cmdline>
J2VwaWtfYXBwJywgJy1pbWFlJywgJ2xpZ2FuZF9wcm8ubWFlJywgJy1vbWFlJywgJ2xpZ2FuZF9wcmVwLm1hZScsICctbXMnLCAnMScsICctcGgnLCAnNycsICctcGh0JywgJzAuNScsICctbnQn

> <r_epik_Ionization_Penalty>
  0.1345

> <r_epik_Ionization_Penalty_Charging>
  0.1345

> <r_epik_Ionization_Penalty_Neutral>
  0.0000

> <r_epik_State_Penalty>
  0.1238

> <r_epik_Charging_Adjusted_Penalty>
0.258322072482204

> <i_epik_Tot_Q>
-1

> <i_epik_Tot_abs_Q>
1

$$$$
