4rpv_ligand
                    3D
 Schrodinger Suite 2020-3.
 51 55  0  0  1  0            999 V2000
  -20.6940  -40.8390    3.8350 C   0  0  0  0  0  0
  -20.4090  -39.7290    4.6490 C   0  0  0  0  0  0
  -20.1780  -38.4880    3.9390 C   0  0  0  0  0  0
  -20.2390  -38.3760    2.4770 C   0  0  0  0  0  0
  -20.5410  -39.5070    1.6370 C   0  0  0  0  0  0
  -20.7530  -40.7400    2.4030 C   0  0  0  0  0  0
  -19.9350  -37.1600    2.0300 F   0  0  0  0  0  0
  -20.9650  -41.9700    1.9190 F   0  0  0  0  0  0
  -15.5670  -34.7880   -1.5610 C   0  0  0  0  0  0
  -16.3820  -35.5390   -0.6120 C   0  0  0  0  0  0
  -17.3200  -36.4200   -1.1290 N   0  0  0  0  0  0
  -17.6000  -36.7290   -2.4840 C   0  0  0  0  0  0
  -16.7700  -35.9920   -3.3830 C   0  0  0  0  0  0
  -15.8300  -35.0850   -2.8830 N   0  0  0  0  0  0
  -16.1740  -35.5480    0.7310 N   0  0  0  0  0  0
  -14.9650  -34.8950    1.2440 C   0  0  0  0  0  0
  -14.0280  -35.9200    1.8640 C   0  0  2  0  0  0
  -14.8910  -36.8780    2.6990 C   0  0  0  0  0  0
  -16.2530  -37.3840    2.2110 C   0  0  0  0  0  0
  -17.0490  -36.2210    1.6870 C   0  0  0  0  0  0
  -20.6240  -39.4630    0.0710 C   0  0  0  0  0  0
  -19.6770  -38.5880   -0.6150 C   0  0  0  0  0  0
  -19.5530  -38.5060   -2.0630 C   0  0  0  0  0  0
  -20.4040  -39.3190   -2.8820 C   0  0  0  0  0  0
  -21.3960  -40.2220   -2.3380 C   0  0  0  0  0  0
  -21.5060  -40.2930   -0.8500 C   0  0  0  0  0  0
  -18.6560  -37.7240   -2.8520 C   0  0  0  0  0  0
  -18.9790  -38.0800   -4.1470 N   0  0  0  0  0  0
  -20.0230  -39.0310   -4.1120 N   0  3  0  0  0  0
  -13.1360  -35.0210    2.5890 N   0  3  0  0  0  0
  -20.8760  -41.8054    4.3052 H   0  0  0  0  0  0
  -20.3650  -39.7973    5.7360 H   0  0  0  0  0  0
  -19.9477  -37.5940    4.5185 H   0  0  0  0  0  0
  -14.8180  -34.0582   -1.2537 H   0  0  0  0  0  0
  -16.8692  -36.1365   -4.4588 H   0  0  0  0  0  0
  -14.4439  -34.3879    0.4186 H   0  0  0  0  0  0
  -15.2440  -34.1566    2.0101 H   0  0  0  0  0  0
  -13.4134  -36.5738    1.2278 H   0  0  0  0  0  0
  -14.3349  -37.8098    2.8793 H   0  0  0  0  0  0
  -15.1368  -36.4056    3.6615 H   0  0  0  0  0  0
  -16.1041  -38.1224    1.4094 H   0  0  0  0  0  0
  -16.7906  -37.8543    3.0475 H   0  0  0  0  0  0
  -17.3175  -35.5224    2.4931 H   0  0  0  0  0  0
  -17.9621  -36.5577    1.1743 H   0  0  0  0  0  0
  -19.0253  -37.9600   -0.0075 H   0  0  0  0  0  0
  -22.0343  -40.8234   -2.9853 H   0  0  0  0  0  0
  -22.2439  -40.9628   -0.4085 H   0  0  0  0  0  0
  -12.5828  -34.3965    1.8720 H   0  0  0  0  0  0
  -12.4252  -35.6120    3.1853 H   0  0  0  0  0  0
  -13.7276  -34.3769    3.2562 H   0  0  0  0  0  0
  -20.4239  -39.4424   -5.0501 H   0  0  0  0  0  0
  1  2  2  0  0  0
  1  6  1  0  0  0
  1 31  1  0  0  0
  2  3  1  0  0  0
  2 32  1  0  0  0
  3  4  2  0  0  0
  3 33  1  0  0  0
  4  5  1  0  0  0
  4  7  1  0  0  0
  5  6  2  0  0  0
  5 21  1  0  0  0
  6  8  1  0  0  0
  9 10  2  0  0  0
  9 14  1  0  0  0
  9 34  1  0  0  0
 10 11  1  0  0  0
 10 15  1  0  0  0
 11 12  2  0  0  0
 12 13  1  0  0  0
 12 27  1  0  0  0
 13 14  2  0  0  0
 13 35  1  0  0  0
 15 16  1  0  0  0
 15 20  1  0  0  0
 16 17  1  0  0  0
 16 36  1  0  0  0
 16 37  1  0  0  0
 17 18  1  0  0  0
 17 30  1  0  0  0
 17 38  1  0  0  0
 18 19  1  0  0  0
 18 39  1  0  0  0
 18 40  1  0  0  0
 19 20  1  0  0  0
 19 41  1  0  0  0
 19 42  1  0  0  0
 20 43  1  0  0  0
 20 44  1  0  0  0
 21 22  2  0  0  0
 21 26  1  0  0  0
 22 23  1  0  0  0
 22 45  1  0  0  0
 23 24  2  0  0  0
 23 27  1  0  0  0
 24 25  1  0  0  0
 24 29  1  0  0  0
 25 26  2  0  0  0
 25 46  1  0  0  0
 26 47  1  0  0  0
 27 28  2  0  0  0
 28 29  1  0  0  0
 29 51  1  0  0  0
 30 48  1  0  0  0
 30 49  1  0  0  0
 30 50  1  0  0  0
M  CHG  2  29   1  30   1
M  END
> <s_m_source_file>
../4rpv_ligand.sdf

> <i_m_source_file_index>
1

> <s_epik_input>
RmMxW2NIXVtjSF1bY0hdYyhGKWMxLWMoW2NIXTIpW2NIXVtjSF1jKGMyMylbbkhdbmMzLWMobjQpW2NIXW5bY0hdYzRONVtDSDJdW0NAQEhdKFtOSDMrXSlbQ0gyXVtDSDJdW0NIMl01

> <s_epik_cmdline>
J2VwaWtfYXBwJywgJy1pbWFlJywgJ2xpZ2FuZF9wcm8ubWFlJywgJy1vbWFlJywgJ2xpZ2FuZF9wcmVwLm1hZScsICctbXMnLCAnMScsICctcGgnLCAnNycsICctcGh0JywgJzAuNScsICctbnQn

> <r_epik_Ionization_Penalty>
  0.0009

> <r_epik_Ionization_Penalty_Charging>
  0.0009

> <r_epik_Ionization_Penalty_Neutral>
  0.0000

> <r_epik_State_Penalty>
  0.3537

> <r_epik_Charging_Adjusted_Penalty>
0.354552324447014

> <i_epik_Tot_Q>
2

> <i_epik_Tot_abs_Q>
2

> <s_epik_Chemistry_Notes>
This compound has an imine and may undergo hydrolysis.

$$$$
