4rqk_ligand
                    3D
 Schrodinger Suite 2020-3.
 31 34  0  0  1  0            999 V2000
  -15.8170   17.6650  -14.3270 Cl  0  0  0  0  0  0
  -14.4680   17.9080  -13.2630 C   0  0  0  0  0  0
  -14.6450   17.5310  -11.9410 C   0  0  0  0  0  0
  -13.6040   17.7090  -11.0470 C   0  0  0  0  0  0
  -12.3900   18.2470  -11.4560 C   0  0  0  0  0  0
  -12.2110   18.6310  -12.8030 C   0  0  0  0  0  0
  -13.2560   18.4590  -13.7010 C   0  0  0  0  0  0
  -11.3770   18.3830  -10.4170 N   0  0  0  0  0  0
  -11.8870   17.9230   -9.2160 C   0  0  0  0  0  0
  -11.2450   17.9170   -7.9530 N   0  5  0  0  0  0
   -9.9020   17.0690   -7.6820 S   0  0  0  0  0  0
   -8.8300   17.4520   -8.5560 O   0  0  0  0  0  0
   -9.3320   17.2910   -6.3840 O   0  0  0  0  0  0
  -10.5250   15.4390   -7.9250 C   0  0  0  0  0  0
  -11.6570   14.8660   -7.2680 C   0  0  0  0  0  0
  -11.8720   13.3310   -7.8410 S   0  0  0  0  0  0
  -10.6240   13.2300   -8.9360 C   0  0  0  0  0  0
  -10.1620   12.2350   -9.7870 C   0  0  0  0  0  0
   -9.0530   12.5060  -10.5920 C   0  0  0  0  0  0
   -8.3800   13.7430  -10.5620 C   0  0  0  0  0  0
   -8.8340   14.7240   -9.7160 C   0  0  0  0  0  0
   -9.9530   14.4560   -8.9040 C   0  0  0  0  0  0
  -13.4460   17.3740   -9.4340 S   0  0  0  0  0  0
  -15.5903   17.1006  -11.6105 H   0  0  0  0  0  0
  -11.2639   19.0573  -13.1338 H   0  0  0  0  0  0
  -13.1341   18.7517  -14.7439 H   0  0  0  0  0  0
  -12.2742   15.3580   -6.5162 H   0  0  0  0  0  0
  -10.6541   11.2632   -9.8261 H   0  0  0  0  0  0
   -8.6948   11.7306  -11.2692 H   0  0  0  0  0  0
   -7.5135   13.9183  -11.1997 H   0  0  0  0  0  0
   -8.3372   15.6933   -9.6734 H   0  0  0  0  0  0
  1  2  1  0  0  0
  2  3  2  0  0  0
  2  7  1  0  0  0
  3  4  1  0  0  0
  3 24  1  0  0  0
  4  5  2  0  0  0
  4 23  1  0  0  0
  5  6  1  0  0  0
  5  8  1  0  0  0
  6  7  2  0  0  0
  6 25  1  0  0  0
  7 26  1  0  0  0
  8  9  2  0  0  0
  9 10  1  0  0  0
  9 23  1  0  0  0
 10 11  1  0  0  0
 11 12  2  0  0  0
 11 13  2  0  0  0
 11 14  1  0  0  0
 14 15  2  0  0  0
 14 22  1  0  0  0
 15 16  1  0  0  0
 15 27  1  0  0  0
 16 17  1  0  0  0
 17 18  1  0  0  0
 17 22  2  0  0  0
 18 19  2  0  0  0
 18 28  1  0  0  0
 19 20  1  0  0  0
 19 29  1  0  0  0
 20 21  2  0  0  0
 20 30  1  0  0  0
 21 22  1  0  0  0
 21 31  1  0  0  0
M  CHG  1  10  -1
M  END
> <s_m_source_file>
../4rqk_ligand.sdf

> <i_m_source_file_index>
1

> <s_epik_input>
Q2xjKFtjSF0xKVtjSF1bY0hdYyhjMTIpbmMoczIpW05IXVMoPU8pKD1PKWMoW2NIXXMzKWMoYzM0KVtjSF1bY0hdW2NIXVtjSF00

> <s_epik_cmdline>
J2VwaWtfYXBwJywgJy1pbWFlJywgJ2xpZ2FuZF9wcm8ubWFlJywgJy1vbWFlJywgJ2xpZ2FuZF9wcmVwLm1hZScsICctbXMnLCAnMScsICctcGgnLCAnNycsICctcGh0JywgJzAuNScsICctbnQn

> <r_epik_Ionization_Penalty>
  0.0441

> <r_epik_Ionization_Penalty_Charging>
  0.0011

> <r_epik_Ionization_Penalty_Neutral>
  0.0430

> <r_epik_State_Penalty>
  0.0364

> <r_epik_Charging_Adjusted_Penalty>
0.0374546159594858

> <i_epik_Tot_Q>
-1

> <i_epik_Tot_abs_Q>
1

$$$$
