4rqz_ligand
                    3D
 Schrodinger Suite 2020-3.
 61 62  0  0  1  0            999 V2000
   19.7510  -10.8500   11.1310 N   0  3  0  0  0  0
   20.2530  -11.1050   12.4740 C   0  0  2  0  0  0
   19.0770  -11.3610   13.4250 C   0  0  0  0  0  0
   19.1470  -12.2510   14.2760 O   0  0  0  0  0  0
   21.1160   -9.9350   12.9570 C   0  0  0  0  0  0
   22.0900  -10.3040   14.0530 C   0  0  0  0  0  0
   23.2160  -11.0790   13.7800 C   0  0  0  0  0  0
   21.8880   -9.8760   15.3590 C   0  0  0  0  0  0
   24.1100  -11.4170   14.7840 C   0  0  0  0  0  0
   22.7730  -10.2080   16.3660 C   0  0  0  0  0  0
   23.8800  -10.9780   16.0760 C   0  0  0  0  0  0
   24.7510  -11.2990   17.0900 O   0  0  0  0  0  0
   17.9950  -10.5940   13.2740 N   0  0  0  0  0  0
   16.7500  -10.8770   13.9990 C   0  0  2  0  0  0
   15.5190  -10.1890   13.3790 C   0  0  0  0  0  0
   15.1500   -9.0730   13.7510 O   0  0  0  0  0  0
   16.8940  -10.4950   15.4820 C   0  0  0  0  0  0
   17.2430   -9.0480   15.8120 C   0  0  0  0  0  0
   17.1290   -8.7860   17.3020 C   0  0  0  0  0  0
   16.9130   -9.7100   18.0860 O   0  0  0  0  0  0
   17.2650   -7.5280   17.7010 N   0  0  0  0  0  0
   14.8890  -10.8820   12.4310 N   0  0  0  0  0  0
   13.6610  -10.4120   11.7880 C   0  0  2  0  0  0
   12.4920  -11.3930   11.9380 C   0  0  0  0  0  0
   11.3260  -11.0590   11.7080 O   0  5  0  0  0  0
   13.9140  -10.1520   10.3040 C   0  0  0  0  0  0
   14.4240  -11.3500    9.5490 C   0  0  0  0  0  0
   15.7430  -11.7630    9.6570 C   0  0  0  0  0  0
   13.5810  -12.0460    8.7090 C   0  0  0  0  0  0
   16.1950  -12.8600    8.9480 C   0  0  0  0  0  0
   14.0270  -13.1350    8.0030 C   0  0  0  0  0  0
   15.3330  -13.5440    8.1220 C   0  0  0  0  0  0
   12.6770  -12.5510   12.2970 O   0  0  0  0  0  0
   19.1347  -11.6999   10.8024 H   0  0  0  0  0  0
   20.5981  -10.7229   10.4409 H   0  0  0  0  0  0
   19.1410   -9.9347   11.1353 H   0  0  0  0  0  0
   20.8808  -12.0055   12.4039 H   0  0  0  0  0  0
   21.7060   -9.5427   12.1156 H   0  0  0  0  0  0
   20.4672   -9.1395   13.3522 H   0  0  0  0  0  0
   23.3962  -11.4244   12.7620 H   0  0  0  0  0  0
   21.0150   -9.2669   15.5934 H   0  0  0  0  0  0
   24.9869  -12.0236   14.5577 H   0  0  0  0  0  0
   22.5975   -9.8632   17.3850 H   0  0  0  0  0  0
   25.6394  -11.9121   16.8784 H   0  0  0  0  0  0
   18.0496   -9.7348   12.5893 H   0  0  0  0  0  0
   16.6231  -11.9640   13.8881 H   0  0  0  0  0  0
   15.9455  -10.6889   16.0043 H   0  0  0  0  0  0
   17.6939  -11.0958   15.9394 H   0  0  0  0  0  0
   18.2755   -8.8385   15.4955 H   0  0  0  0  0  0
   16.5533   -8.3745   15.2822 H   0  0  0  0  0  0
   17.4574   -6.7348   16.9635 H   0  0  0  0  0  0
   17.1854   -7.2782   18.7693 H   0  0  0  0  0  0
   15.3302  -11.8456   12.1361 H   0  0  0  0  0  0
   13.4179   -9.4841   12.3264 H   0  0  0  0  0  0
   12.9760   -9.8402    9.8213 H   0  0  0  0  0  0
   14.6652   -9.3560   10.1940 H   0  0  0  0  0  0
   16.4288  -11.2184   10.3060 H   0  0  0  0  0  0
   12.5442  -11.7264    8.6040 H   0  0  0  0  0  0
   17.2319  -13.1825    9.0430 H   0  0  0  0  0  0
   13.3445  -13.6758    7.3474 H   0  0  0  0  0  0
   15.6863  -14.4100    7.5623 H   0  0  0  0  0  0
  1  2  1  0  0  0
  1 34  1  0  0  0
  1 35  1  0  0  0
  1 36  1  0  0  0
  2  3  1  0  0  0
  2  5  1  0  0  0
  2 37  1  0  0  0
  3  4  2  0  0  0
  3 13  1  0  0  0
  5  6  1  0  0  0
  5 38  1  0  0  0
  5 39  1  0  0  0
  6  7  2  0  0  0
  6  8  1  0  0  0
  7  9  1  0  0  0
  7 40  1  0  0  0
  8 10  2  0  0  0
  8 41  1  0  0  0
  9 11  2  0  0  0
  9 42  1  0  0  0
 10 11  1  0  0  0
 10 43  1  0  0  0
 11 12  1  0  0  0
 12 44  1  0  0  0
 13 14  1  0  0  0
 13 45  1  0  0  0
 14 15  1  0  0  0
 14 17  1  0  0  0
 14 46  1  0  0  0
 15 16  2  0  0  0
 15 22  1  0  0  0
 17 18  1  0  0  0
 17 47  1  0  0  0
 17 48  1  0  0  0
 18 19  1  0  0  0
 18 49  1  0  0  0
 18 50  1  0  0  0
 19 20  2  0  0  0
 19 21  1  0  0  0
 21 51  1  0  0  0
 21 52  1  0  0  0
 22 23  1  0  0  0
 22 53  1  0  0  0
 23 24  1  0  0  0
 23 26  1  0  0  0
 23 54  1  0  0  0
 24 25  1  0  0  0
 24 33  2  0  0  0
 26 27  1  0  0  0
 26 55  1  0  0  0
 26 56  1  0  0  0
 27 28  2  0  0  0
 27 29  1  0  0  0
 28 30  1  0  0  0
 28 57  1  0  0  0
 29 31  2  0  0  0
 29 58  1  0  0  0
 30 32  2  0  0  0
 30 59  1  0  0  0
 31 32  1  0  0  0
 31 60  1  0  0  0
 32 61  1  0  0  0
M  CHG  2   1   1  25  -1
M  END
> <s_m_source_file>
../4rqz_ligand.sdf

> <i_m_source_file_index>
1

> <s_epik_input>
W2NIXTFbY0hdYyhbT0hdKVtjSF1bY0hdYzFbQ0gyXVtDQEhdKFtOSDMrXSlDKD1PKVtOSF1bQ0BASF0oW0NIMl1bQ0gyXUMoPU8pW05IMl0pQyg9TylbTkhdW0NASF0oQyg9TylbT0hdKVtDSDJdYzJbY0hdW2NIXVtjSF1bY0hdW2NIXTI=

> <s_epik_cmdline>
J2VwaWtfYXBwJywgJy1pbWFlJywgJ2xpZ2FuZF9wcm8ubWFlJywgJy1vbWFlJywgJ2xpZ2FuZF9wcmVwLm1hZScsICctbXMnLCAnMScsICctcGgnLCAnNycsICctcGh0JywgJzAuNScsICctbnQn

> <r_lp_tautomer_probability>
0.999999999997365

> <r_epik_Ionization_Penalty>
  0.2123

> <r_epik_Ionization_Penalty_Charging>
  0.2096

> <r_epik_Ionization_Penalty_Neutral>
  0.0027

> <r_epik_State_Penalty>
  0.1995

> <r_epik_Charging_Adjusted_Penalty>
0.409107740086463

> <i_epik_Tot_Q>
0

> <i_epik_Tot_abs_Q>
2

$$$$
