4rr6_ligand
                    3D
 Schrodinger Suite 2020-3.
 45 47  0  0  1  0            999 V2000
   15.3090   -2.4730   -5.8320 O   0  0  0  0  0  0
   14.9510   -3.8420   -6.0550 C   0  0  0  0  0  0
   14.7700   -4.5290   -4.7390 C   0  0  1  0  0  0
   16.0290   -4.4600   -4.0160 O   0  0  0  0  0  0
   15.7310   -3.9270   -2.6910 C   0  0  1  0  0  0
   16.5160   -2.6300   -2.5220 N   0  0  0  0  0  0
   16.3740   -1.7930   -1.4920 C   0  0  0  0  0  0
   15.5470   -1.8140   -0.4370 N   0  0  0  0  0  0
   15.6340   -0.8380    0.4740 C   0  0  0  0  0  0
   16.5370    0.1200    0.3500 N   0  0  0  0  0  0
   17.3920    0.2080   -0.6900 C   0  0  0  0  0  0
   18.2800    1.2090   -0.7870 N   0  0  0  0  0  0
   17.3150   -0.7930   -1.6490 C   0  0  0  0  0  0
   17.9690   -1.0290   -2.7940 N   0  0  0  0  0  0
   17.5020   -2.1690   -3.3270 C   0  0  0  0  0  0
   14.2210   -4.0000   -2.5010 C   0  0  2  0  0  0
   13.8330   -5.2990   -2.0720 O   0  0  0  0  0  0
   13.7590   -3.7320   -3.9270 C   0  0  2  0  0  0
   12.4300   -4.2550   -4.0930 N   0  0  0  0  0  0
    9.0940   -3.9600   -2.9500 N   0  3  0  0  0  0
   10.0420   -4.1950   -4.0810 C   0  0  1  0  0  0
    9.3970   -3.7480   -5.4180 C   0  0  0  0  0  0
    8.3330   -4.6810   -5.7630 O   0  0  0  0  0  0
   11.3760   -3.5090   -3.8960 C   0  0  0  0  0  0
   11.4660   -2.1840   -3.6120 O   0  0  0  0  0  0
   15.4848   -1.8041   -6.6874 H   0  0  0  0  0  0
   14.0114   -3.8871   -6.6251 H   0  0  0  0  0  0
   15.7491   -4.3418   -6.6235 H   0  0  0  0  0  0
   14.4798   -5.5796   -4.8872 H   0  0  0  0  0  0
   16.1031   -4.5292   -1.8491 H   0  0  0  0  0  0
   14.9544   -0.8325    1.3261 H   0  0  0  0  0  0
   18.3175    1.9881   -0.0114 H   0  0  0  0  0  0
   18.9706    1.2506   -1.6422 H   0  0  0  0  0  0
   17.8541   -2.6399   -4.2448 H   0  0  0  0  0  0
   13.7842   -3.3660   -1.7154 H   0  0  0  0  0  0
   14.0933   -5.6448   -1.0607 H   0  0  0  0  0  0
   13.6634   -2.6773   -4.2245 H   0  0  0  0  0  0
   12.2850   -5.3036   -4.3919 H   0  0  0  0  0  0
    8.1483   -4.4853   -3.1492 H   0  0  0  0  0  0
    8.9008   -2.8816   -2.8516 H   0  0  0  0  0  0
    9.5351   -4.3402   -2.0168 H   0  0  0  0  0  0
   10.2466   -5.2757   -4.0644 H   0  0  0  0  0  0
    8.9818   -2.7357   -5.3044 H   0  0  0  0  0  0
   10.1602   -3.7445   -6.2102 H   0  0  0  0  0  0
    7.7503   -4.5344   -6.6844 H   0  0  0  0  0  0
  1  2  1  0  0  0
  1 26  1  0  0  0
  2  3  1  0  0  0
  2 27  1  0  0  0
  2 28  1  0  0  0
  3  4  1  0  0  0
  3 18  1  0  0  0
  3 29  1  0  0  0
  4  5  1  0  0  0
  5  6  1  0  0  0
  5 16  1  0  0  0
  5 30  1  0  0  0
  6  7  1  0  0  0
  6 15  1  0  0  0
  7  8  1  0  0  0
  7 13  2  0  0  0
  8  9  2  0  0  0
  9 10  1  0  0  0
  9 31  1  0  0  0
 10 11  2  0  0  0
 11 12  1  0  0  0
 11 13  1  0  0  0
 12 32  1  0  0  0
 12 33  1  0  0  0
 13 14  1  0  0  0
 14 15  2  0  0  0
 15 34  1  0  0  0
 16 17  1  0  0  0
 16 18  1  0  0  0
 16 35  1  0  0  0
 17 36  1  0  0  0
 18 19  1  0  0  0
 18 37  1  0  0  0
 19 24  1  0  0  0
 19 38  1  0  0  0
 20 21  1  0  0  0
 20 39  1  0  0  0
 20 40  1  0  0  0
 20 41  1  0  0  0
 21 22  1  0  0  0
 21 24  1  0  0  0
 21 42  1  0  0  0
 22 23  1  0  0  0
 22 43  1  0  0  0
 22 44  1  0  0  0
 23 45  1  0  0  0
 24 25  2  0  0  0
M  CHG  1  20   1
M  END
> <s_m_source_file>
../4rr6_ligand.sdf

> <i_m_source_file_index>
1

> <s_epik_input>
W09IXVtDSDJdW0NASF0oW05IMytdKUMoPU8pW05IXVtDQEhdMVtDQEBIXShbT0hdKVtDQEBIXShPW0NAQEhdMVtDSDJdW09IXSluMltjSF1uYyhjMjMpYyhbTkgyXSluW2NIXW4z

> <s_epik_cmdline>
J2VwaWtfYXBwJywgJy1pbWFlJywgJ2xpZ2FuZF9wcm8ubWFlJywgJy1vbWFlJywgJ2xpZ2FuZF9wcmVwLm1hZScsICctbXMnLCAnMScsICctcGgnLCAnNycsICctcGh0JywgJzAuNScsICctbnQn

> <r_lp_tautomer_probability>
0.999997216410988

> <r_epik_Ionization_Penalty>
  0.1728

> <r_epik_Ionization_Penalty_Charging>
  0.1724

> <r_epik_Ionization_Penalty_Neutral>
  0.0005

> <r_epik_State_Penalty>
  0.1618

> <r_epik_Charging_Adjusted_Penalty>
0.334113698414832

> <i_epik_Tot_Q>
1

> <i_epik_Tot_abs_Q>
1

> <s_epik_Chemistry_Notes>
This compound contains an acetal/aminal-like group ( X-CH(R)-Y where X, Y are N, S, or O) that may be acid/base labile, releasing an aldehyde.

$$$$
