4rra_ligand
                    3D
 Schrodinger Suite 2020-3.
 48 50  0  0  1  0            999 V2000
   11.9970   -3.1810   -3.8830 C   0  0  0  0  0  0
    9.8250   -3.6250   -2.8400 N   0  3  0  0  0  0
   11.9820   -1.8440   -3.5440 O   0  0  0  0  0  0
   17.1530    0.4620    0.5100 N   0  0  0  0  0  0
   16.1680   -0.5100    0.6500 C   0  0  0  0  0  0
   16.0760   -1.5700   -0.2970 N   0  0  0  0  0  0
   16.9990   -1.5570   -1.3060 C   0  0  0  0  0  0
   17.9450   -0.5900   -1.4060 C   0  0  0  0  0  0
   18.0130    0.4330   -0.4980 C   0  0  0  0  0  0
   18.9420    1.3810   -0.5550 N   0  0  0  0  0  0
   18.6780   -0.8920   -2.4910 N   0  0  0  0  0  0
   18.1830   -2.0070   -3.0530 C   0  0  0  0  0  0
   13.1030   -3.9590   -4.0290 N   0  0  0  0  0  0
   17.1280   -2.4310   -2.3270 N   0  0  0  0  0  0
   10.6350   -3.8600   -4.0920 C   0  0  1  0  0  0
    9.9210   -3.3810   -5.4060 C   0  0  2  0  0  0
    9.1040   -4.4680   -5.9760 O   0  0  0  0  0  0
   16.3580   -3.7260   -2.6070 C   0  0  1  0  0  0
   14.8620   -3.8020   -2.4350 C   0  0  2  0  0  0
   14.4260   -5.1980   -2.0430 O   0  0  0  0  0  0
   14.4160   -3.3860   -3.8090 C   0  0  1  0  0  0
   15.4570   -3.9490   -4.7560 C   0  0  2  0  0  0
   16.6440   -4.1970   -3.9250 O   0  0  0  0  0  0
   15.7340   -2.8230   -5.7590 C   0  0  0  0  0  0
   17.0780   -2.9770   -6.2040 O   0  0  0  0  0  0
   10.9120   -2.8440   -6.4750 C   0  0  0  0  0  0
   10.3881   -3.9845   -1.9661 H   0  0  0  0  0  0
    8.8723   -4.1702   -2.9120 H   0  0  0  0  0  0
    9.6244   -2.5491   -2.7297 H   0  0  0  0  0  0
   15.4673   -0.4606    1.4835 H   0  0  0  0  0  0
   18.9562    2.1831    0.1976 H   0  0  0  0  0  0
   19.6970    1.3638   -1.3548 H   0  0  0  0  0  0
   18.5706   -2.4905   -3.9497 H   0  0  0  0  0  0
   13.0052   -5.0174   -4.3123 H   0  0  0  0  0  0
   10.7614   -4.9467   -4.2067 H   0  0  0  0  0  0
    9.2220   -2.5711   -5.1502 H   0  0  0  0  0  0
    8.3448   -4.9681   -5.3568 H   0  0  0  0  0  0
   16.7528   -4.3971   -1.8300 H   0  0  0  0  0  0
   14.4370   -3.1763   -1.6363 H   0  0  0  0  0  0
   14.6989   -5.6030   -1.0574 H   0  0  0  0  0  0
   14.2945   -2.3023   -3.9535 H   0  0  0  0  0  0
   15.1817   -4.8869   -5.2604 H   0  0  0  0  0  0
   15.0347   -2.9046   -6.6042 H   0  0  0  0  0  0
   15.5992   -1.8498   -5.2642 H   0  0  0  0  0  0
   17.4991   -2.2723   -6.9361 H   0  0  0  0  0  0
   11.5165   -2.0341   -6.0406 H   0  0  0  0  0  0
   10.3479   -2.4586   -7.3371 H   0  0  0  0  0  0
   11.5733   -3.6591   -6.8042 H   0  0  0  0  0  0
  1  3  2  0  0  0
  1 13  1  0  0  0
  1 15  1  0  0  0
  2 15  1  0  0  0
  2 27  1  0  0  0
  2 28  1  0  0  0
  2 29  1  0  0  0
  4  5  1  0  0  0
  4  9  2  0  0  0
  5  6  2  0  0  0
  5 30  1  0  0  0
  6  7  1  0  0  0
  7  8  2  0  0  0
  7 14  1  0  0  0
  8  9  1  0  0  0
  8 11  1  0  0  0
  9 10  1  0  0  0
 10 31  1  0  0  0
 10 32  1  0  0  0
 11 12  2  0  0  0
 12 14  1  0  0  0
 12 33  1  0  0  0
 13 21  1  0  0  0
 13 34  1  0  0  0
 14 18  1  0  0  0
 15 16  1  0  0  0
 15 35  1  0  0  0
 16 17  1  0  0  0
 16 26  1  0  0  0
 16 36  1  0  0  0
 17 37  1  0  0  0
 18 19  1  0  0  0
 18 23  1  0  0  0
 18 38  1  0  0  0
 19 20  1  0  0  0
 19 21  1  0  0  0
 19 39  1  0  0  0
 20 40  1  0  0  0
 21 22  1  0  0  0
 21 41  1  0  0  0
 22 23  1  0  0  0
 22 24  1  0  0  0
 22 42  1  0  0  0
 24 25  1  0  0  0
 24 43  1  0  0  0
 24 44  1  0  0  0
 25 45  1  0  0  0
 26 46  1  0  0  0
 26 47  1  0  0  0
 26 48  1  0  0  0
M  CHG  1   2   1
M  END
> <s_m_source_file>
../4rra_ligand.sdf

> <i_m_source_file_index>
1

> <s_epik_input>
W09IXVtDQEhdKFtDSDNdKVtDQEhdKFtOSDMrXSlDKD1PKVtOSF1bQ0BIXShbQ0BIXShPMSlbQ0gyXVtPSF0pW0NAQEhdKFtPSF0pW0NAQEhdMW4yW2NIXW5jKGMyMyljKFtOSDJdKW5bY0hdbjM=

> <s_epik_cmdline>
J2VwaWtfYXBwJywgJy1pbWFlJywgJ2xpZ2FuZF9wcm8ubWFlJywgJy1vbWFlJywgJ2xpZ2FuZF9wcmVwLm1hZScsICctbXMnLCAnMScsICctcGgnLCAnNycsICctcGh0JywgJzAuNScsICctbnQn

> <r_lp_tautomer_probability>
0.999997216410988

> <r_epik_Ionization_Penalty>
  0.0835

> <r_epik_Ionization_Penalty_Charging>
  0.0828

> <r_epik_Ionization_Penalty_Neutral>
  0.0006

> <r_epik_State_Penalty>
  0.0735

> <r_epik_Charging_Adjusted_Penalty>
0.156389584480285

> <i_epik_Tot_Q>
1

> <i_epik_Tot_abs_Q>
1

> <s_epik_Chemistry_Notes>
This compound contains an acetal/aminal-like group ( X-CH(R)-Y where X, Y are N, S, or O) that may be acid/base labile, releasing an aldehyde.

$$$$
