4rrf_ligand
                    3D
 Schrodinger Suite 2020-3.
 45 47  0  0  1  0            999 V2000
    9.1110   -2.9260    8.5920 O   0  0  0  0  0  0
    9.0740   -4.2610    8.0790 C   0  0  0  0  0  0
    9.7990   -4.3240    6.7820 C   0  0  1  0  0  0
    9.1590   -3.3630    6.0490 O   0  0  0  0  0  0
   10.1810   -2.5780    5.3500 C   0  0  1  0  0  0
   10.0100   -1.1430    5.6860 N   0  0  0  0  0  0
   10.8330   -0.1590    5.3750 C   0  0  0  0  0  0
   12.1230   -0.1130    4.9270 N   0  0  0  0  0  0
   12.7150    1.0860    4.7330 C   0  0  0  0  0  0
   12.1400    2.2630    5.0090 N   0  0  0  0  0  0
   10.8350    2.2390    5.4550 C   0  0  0  0  0  0
   10.2410    3.4070    5.7170 N   0  0  0  0  0  0
   10.1770    1.0260    5.6870 C   0  0  0  0  0  0
    8.8820    0.6950    6.1110 N   0  0  0  0  0  0
    8.7850   -0.6460    6.0780 C   0  0  0  0  0  0
   11.5000   -3.2430    5.5180 C   0  0  2  0  0  0
   11.6180   -4.2450    4.4880 O   0  0  0  0  0  0
   11.2590   -3.8120    6.9450 C   0  0  2  0  0  0
   12.1520   -4.9360    7.1330 N   0  0  0  0  0  0
   15.7330   -5.6500    7.7290 N   0  3  0  0  0  0
   14.3200   -6.0330    7.4930 C   0  0  1  0  0  0
   13.9240   -7.0190    8.6120 C   0  0  0  0  0  0
   14.7060   -8.2030    8.3800 O   0  0  0  0  0  0
   13.4210   -4.7770    7.4790 C   0  0  0  0  0  0
   13.9670   -3.5540    7.7000 O   0  0  0  0  0  0
    8.6226   -2.6909    9.5492 H   0  0  0  0  0  0
    9.5535   -4.9430    8.7966 H   0  0  0  0  0  0
    8.0283   -4.5661    7.9258 H   0  0  0  0  0  0
    9.7376   -5.3167    6.3121 H   0  0  0  0  0  0
   10.0664   -2.5644    4.2561 H   0  0  0  0  0  0
   13.7259    1.0955    4.3255 H   0  0  0  0  0  0
   10.7747    4.3501    5.5279 H   0  0  0  0  0  0
    9.2184    3.4254    6.1218 H   0  0  0  0  0  0
    7.8987   -1.2335    6.3177 H   0  0  0  0  0  0
   12.4231   -2.6630    5.3714 H   0  0  0  0  0  0
   11.7897   -3.9433    3.4442 H   0  0  0  0  0  0
   11.4591   -3.1569    7.8057 H   0  0  0  0  0  0
   11.7827   -5.9620    6.9883 H   0  0  0  0  0  0
   16.3613   -6.5529    7.7365 H   0  0  0  0  0  0
   15.8168   -5.1369    8.6984 H   0  0  0  0  0  0
   16.0690   -4.9761    6.9272 H   0  0  0  0  0  0
   14.2332   -6.5131    6.5071 H   0  0  0  0  0  0
   14.1529   -6.5734    9.5913 H   0  0  0  0  0  0
   12.8466   -7.2318    8.5489 H   0  0  0  0  0  0
   14.6062   -9.0684    9.0517 H   0  0  0  0  0  0
  1  2  1  0  0  0
  1 26  1  0  0  0
  2  3  1  0  0  0
  2 27  1  0  0  0
  2 28  1  0  0  0
  3  4  1  0  0  0
  3 18  1  0  0  0
  3 29  1  0  0  0
  4  5  1  0  0  0
  5  6  1  0  0  0
  5 16  1  0  0  0
  5 30  1  0  0  0
  6  7  1  0  0  0
  6 15  1  0  0  0
  7  8  1  0  0  0
  7 13  2  0  0  0
  8  9  2  0  0  0
  9 10  1  0  0  0
  9 31  1  0  0  0
 10 11  2  0  0  0
 11 12  1  0  0  0
 11 13  1  0  0  0
 12 32  1  0  0  0
 12 33  1  0  0  0
 13 14  1  0  0  0
 14 15  2  0  0  0
 15 34  1  0  0  0
 16 17  1  0  0  0
 16 18  1  0  0  0
 16 35  1  0  0  0
 17 36  1  0  0  0
 18 19  1  0  0  0
 18 37  1  0  0  0
 19 24  1  0  0  0
 19 38  1  0  0  0
 20 21  1  0  0  0
 20 39  1  0  0  0
 20 40  1  0  0  0
 20 41  1  0  0  0
 21 22  1  0  0  0
 21 24  1  0  0  0
 21 42  1  0  0  0
 22 23  1  0  0  0
 22 43  1  0  0  0
 22 44  1  0  0  0
 23 45  1  0  0  0
 24 25  2  0  0  0
M  CHG  1  20   1
M  END
> <s_m_source_file>
../4rrf_ligand.sdf

> <i_m_source_file_index>
1

> <s_epik_input>
W09IXVtDSDJdW0NASF0oW05IMytdKUMoPU8pW05IXVtDQEhdMVtDQEBIXShbT0hdKVtDQEBIXShPW0NAQEhdMVtDSDJdW09IXSluMltjSF1uYyhjMjMpYyhbTkgyXSluW2NIXW4z

> <s_epik_cmdline>
J2VwaWtfYXBwJywgJy1pbWFlJywgJ2xpZ2FuZF9wcm8ubWFlJywgJy1vbWFlJywgJ2xpZ2FuZF9wcmVwLm1hZScsICctbXMnLCAnMScsICctcGgnLCAnNycsICctcGh0JywgJzAuNScsICctbnQn

> <r_lp_tautomer_probability>
0.999997216410988

> <r_epik_Ionization_Penalty>
  0.1728

> <r_epik_Ionization_Penalty_Charging>
  0.1724

> <r_epik_Ionization_Penalty_Neutral>
  0.0005

> <r_epik_State_Penalty>
  0.1618

> <r_epik_Charging_Adjusted_Penalty>
0.334113698414832

> <i_epik_Tot_Q>
1

> <i_epik_Tot_abs_Q>
1

> <s_epik_Chemistry_Notes>
This compound contains an acetal/aminal-like group ( X-CH(R)-Y where X, Y are N, S, or O) that may be acid/base labile, releasing an aldehyde.

$$$$
