4rrg_ligand
                    3D
 Schrodinger Suite 2020-3.
 48 50  0  0  1  0            999 V2000
   -1.9720    7.6120   41.4790 C   0  0  0  0  0  0
    0.3640    7.7710   40.8430 N   0  3  0  0  0  0
   -1.7800    6.3410   41.9310 O   0  0  0  0  0  0
   -4.0000    3.8280   47.5900 N   0  0  0  0  0  0
   -3.0610    4.6840   47.1890 C   0  0  0  0  0  0
   -3.3950    5.8090   46.5480 N   0  0  0  0  0  0
   -4.6870    6.1070   46.2810 C   0  0  0  0  0  0
   -5.6850    5.2340   46.6890 C   0  0  0  0  0  0
   -5.3120    4.0710   47.3580 C   0  0  0  0  0  0
   -6.2530    3.2140   47.7610 N   0  0  0  0  0  0
   -6.8590    5.7520   46.3080 N   0  0  0  0  0  0
   -6.6180    6.9100   45.6940 C   0  0  0  0  0  0
   -2.9420    8.4380   41.8680 N   0  0  0  0  0  0
   -5.2960    7.1270   45.6670 N   0  0  0  0  0  0
   -0.9950    8.1530   40.4470 C   0  0  1  0  0  0
   -1.3130    7.5930   39.0590 C   0  0  2  0  0  0
   -0.4800    8.2790   38.1350 O   0  0  0  0  0  0
   -4.6240    8.3340   45.0940 C   0  0  1  0  0  0
   -3.3970    8.0180   44.2430 C   0  0  2  0  0  0
   -2.4270    9.0460   44.4510 O   0  0  0  0  0  0
   -3.9780    8.0580   42.8390 C   0  0  1  0  0  0
   -5.0520    9.1580   42.9200 C   0  0  2  0  0  0
   -5.5270    9.1580   44.2880 O   0  0  0  0  0  0
   -6.2480    8.8780   41.9870 C   0  0  0  0  0  0
   -6.7950    7.5820   42.2680 O   0  0  0  0  0  0
   -2.7850    7.7680   38.6520 C   0  0  0  0  0  0
    0.5830    8.1779   41.8412 H   0  0  0  0  0  0
    1.0847    8.1744   40.1164 H   0  0  0  0  0  0
    0.4438    6.6742   40.8685 H   0  0  0  0  0  0
   -2.0113    4.4653   47.3852 H   0  0  0  0  0  0
   -5.9677    2.2928   48.2902 H   0  0  0  0  0  0
   -7.3136    3.4291   47.5639 H   0  0  0  0  0  0
   -7.3758    7.5749   45.2796 H   0  0  0  0  0  0
   -2.9448    9.4456   41.4267 H   0  0  0  0  0  0
   -1.0424    9.2516   40.4174 H   0  0  0  0  0  0
   -1.0708    6.5209   39.0160 H   0  0  0  0  0  0
    0.6123    8.2663   38.2647 H   0  0  0  0  0  0
   -4.3375    8.9095   45.9865 H   0  0  0  0  0  0
   -2.8398    7.0977   44.4724 H   0  0  0  0  0  0
   -1.9225    9.1374   45.4242 H   0  0  0  0  0  0
   -4.3461    7.0818   42.4905 H   0  0  0  0  0  0
   -4.6269   10.1407   42.6679 H   0  0  0  0  0  0
   -7.0240    9.6412   42.1465 H   0  0  0  0  0  0
   -5.9118    8.9102   40.9401 H   0  0  0  0  0  0
   -7.6587    7.2135   41.6950 H   0  0  0  0  0  0
   -3.4291    7.2365   39.3680 H   0  0  0  0  0  0
   -2.9383    7.3549   37.6441 H   0  0  0  0  0  0
   -3.0409    8.8378   38.6526 H   0  0  0  0  0  0
  1  3  2  0  0  0
  1 13  1  0  0  0
  1 15  1  0  0  0
  2 15  1  0  0  0
  2 27  1  0  0  0
  2 28  1  0  0  0
  2 29  1  0  0  0
  4  5  1  0  0  0
  4  9  2  0  0  0
  5  6  2  0  0  0
  5 30  1  0  0  0
  6  7  1  0  0  0
  7  8  2  0  0  0
  7 14  1  0  0  0
  8  9  1  0  0  0
  8 11  1  0  0  0
  9 10  1  0  0  0
 10 31  1  0  0  0
 10 32  1  0  0  0
 11 12  2  0  0  0
 12 14  1  0  0  0
 12 33  1  0  0  0
 13 21  1  0  0  0
 13 34  1  0  0  0
 14 18  1  0  0  0
 15 16  1  0  0  0
 15 35  1  0  0  0
 16 17  1  0  0  0
 16 26  1  0  0  0
 16 36  1  0  0  0
 17 37  1  0  0  0
 18 19  1  0  0  0
 18 23  1  0  0  0
 18 38  1  0  0  0
 19 20  1  0  0  0
 19 21  1  0  0  0
 19 39  1  0  0  0
 20 40  1  0  0  0
 21 22  1  0  0  0
 21 41  1  0  0  0
 22 23  1  0  0  0
 22 24  1  0  0  0
 22 42  1  0  0  0
 24 25  1  0  0  0
 24 43  1  0  0  0
 24 44  1  0  0  0
 25 45  1  0  0  0
 26 46  1  0  0  0
 26 47  1  0  0  0
 26 48  1  0  0  0
M  CHG  1   2   1
M  END
> <s_m_source_file>
../4rrg_ligand.sdf

> <i_m_source_file_index>
1

> <s_epik_input>
W09IXVtDQEhdKFtDSDNdKVtDQEhdKFtOSDMrXSlDKD1PKVtOSF1bQ0BIXShbQ0BIXShPMSlbQ0gyXVtPSF0pW0NAQEhdKFtPSF0pW0NAQEhdMW4yW2NIXW5jKGMyMyljKFtOSDJdKW5bY0hdbjM=

> <s_epik_cmdline>
J2VwaWtfYXBwJywgJy1pbWFlJywgJ2xpZ2FuZF9wcm8ubWFlJywgJy1vbWFlJywgJ2xpZ2FuZF9wcmVwLm1hZScsICctbXMnLCAnMScsICctcGgnLCAnNycsICctcGh0JywgJzAuNScsICctbnQn

> <r_lp_tautomer_probability>
0.999997216410988

> <r_epik_Ionization_Penalty>
  0.0835

> <r_epik_Ionization_Penalty_Charging>
  0.0828

> <r_epik_Ionization_Penalty_Neutral>
  0.0006

> <r_epik_State_Penalty>
  0.0735

> <r_epik_Charging_Adjusted_Penalty>
0.156389584480285

> <i_epik_Tot_Q>
1

> <i_epik_Tot_abs_Q>
1

> <s_epik_Chemistry_Notes>
This compound contains an acetal/aminal-like group ( X-CH(R)-Y where X, Y are N, S, or O) that may be acid/base labile, releasing an aldehyde.

$$$$
