4rro_ligand
                    3D
 Schrodinger Suite 2020-3.
 50 54  0  0  1  0            999 V2000
   26.9660   15.4910    9.6340 C   0  0  0  0  0  0
   27.6890   14.2810    9.4550 C   0  0  0  0  0  0
   27.0290   13.1140    8.9880 C   0  0  0  0  0  0
   25.6410   13.1240    8.6950 C   0  0  0  0  0  0
   24.9200   14.3370    8.8690 C   0  0  0  0  0  0
   25.5810   15.5080    9.3220 C   0  0  0  0  0  0
   27.5930   16.6950   10.0520 C   0  0  0  0  0  0
   25.0180   11.9600    8.2500 O   0  0  0  0  0  0
   23.5980   11.8290    8.3330 C   0  0  1  0  0  0
   23.0120   13.1420    7.7570 C   0  0  2  0  0  0
   23.4330   14.4010    8.5240 C   0  0  1  0  0  0
   23.1550   10.6320    7.4490 C   0  0  0  0  0  0
   21.6430   10.6940    7.1010 C   0  0  0  0  0  0
   21.1690   12.1000    6.6390 C   0  0  0  0  0  0
   21.6020   13.1060    7.5750 O   0  0  0  0  0  0
   22.5820   14.7050    9.6740 N   0  0  0  0  0  0
   21.9890   15.8360    9.4760 C   0  0  0  0  0  0
   22.2750   16.4260    8.2870 N   0  0  0  0  0  0
   23.1550   15.6220    7.6460 C   0  0  0  0  0  0
   23.6700   15.7870    6.5380 O   0  0  0  0  0  0
   21.1140   16.4680   10.3360 N   0  0  0  0  0  0
   23.1750   11.5710    9.8070 C   0  0  0  0  0  0
   21.7760   17.6970    7.7620 C   0  0  0  0  0  0
   28.7080   17.1820    9.3140 C   0  0  0  0  0  0
   29.3010   18.4030    9.7250 C   0  0  0  0  0  0
   28.7600   19.1020   10.8350 C   0  0  0  0  0  0
   27.6900   18.6440   11.5210 N   0  0  0  0  0  0
   27.1210   17.4780   11.1390 C   0  0  0  0  0  0
   26.0610   17.0630   11.8640 F   0  0  0  0  0  0
   28.7556   14.2486    9.6773 H   0  0  0  0  0  0
   27.5985   12.1946    8.8523 H   0  0  0  0  0  0
   25.0171   16.4343    9.4321 H   0  0  0  0  0  0
   23.3717   13.2223    6.7206 H   0  0  0  0  0  0
   23.7246   10.6406    6.5080 H   0  0  0  0  0  0
   23.3458    9.6903    7.9845 H   0  0  0  0  0  0
   21.4254    9.9892    6.2850 H   0  0  0  0  0  0
   21.0512   10.4225    7.9876 H   0  0  0  0  0  0
   21.5942   12.3234    5.6494 H   0  0  0  0  0  0
   20.0708   12.1150    6.5781 H   0  0  0  0  0  0
   22.5321   14.0055   10.5214 H   0  0  0  0  0  0
   23.4893   12.4195   10.4325 H   0  0  0  0  0  0
   23.6547   10.6502   10.1703 H   0  0  0  0  0  0
   22.0819   11.4608    9.8608 H   0  0  0  0  0  0
   21.0757   18.1423    8.4840 H   0  0  0  0  0  0
   21.2569   17.5212    6.8083 H   0  0  0  0  0  0
   22.6202   18.3831    7.5990 H   0  0  0  0  0  0
   29.0956   16.6318    8.4566 H   0  0  0  0  0  0
   30.1649   18.8010    9.1928 H   0  0  0  0  0  0
   29.2228   20.0391   11.1443 H   0  0  0  0  0  0
   20.8672   16.0091   11.3048 H   0  0  0  0  0  0
  1  2  2  0  0  0
  1  6  1  0  0  0
  1  7  1  0  0  0
  2  3  1  0  0  0
  2 30  1  0  0  0
  3  4  2  0  0  0
  3 31  1  0  0  0
  4  5  1  0  0  0
  4  8  1  0  0  0
  5  6  2  0  0  0
  5 11  1  0  0  0
  6 32  1  0  0  0
  7 24  2  0  0  0
  7 28  1  0  0  0
  8  9  1  0  0  0
  9 10  1  0  0  0
  9 12  1  0  0  0
  9 22  1  0  0  0
 10 11  1  0  0  0
 10 15  1  0  0  0
 10 33  1  0  0  0
 11 16  1  0  0  0
 11 19  1  0  0  0
 12 13  1  0  0  0
 12 34  1  0  0  0
 12 35  1  0  0  0
 13 14  1  0  0  0
 13 36  1  0  0  0
 13 37  1  0  0  0
 14 15  1  0  0  0
 14 38  1  0  0  0
 14 39  1  0  0  0
 16 17  1  0  0  0
 16 40  1  0  0  0
 17 18  1  0  0  0
 17 21  2  0  0  0
 18 19  1  0  0  0
 18 23  1  0  0  0
 19 20  2  0  0  0
 21 50  1  0  0  0
 22 41  1  0  0  0
 22 42  1  0  0  0
 22 43  1  0  0  0
 23 44  1  0  0  0
 23 45  1  0  0  0
 23 46  1  0  0  0
 24 25  1  0  0  0
 24 47  1  0  0  0
 25 26  2  0  0  0
 25 48  1  0  0  0
 26 27  1  0  0  0
 26 49  1  0  0  0
 27 28  2  0  0  0
 28 29  1  0  0  0
M  END
> <s_m_source_file>
../4rro_ligand.sdf

> <i_m_source_file_index>
1

> <s_epik_input>
RmMxbltjSF1bY0hdW2NIXWMxLWMoW2NIXTIpW2NIXVtjSF1jKGMyW0NAXTM0W05IXS9DKD1OL1tIXSlOKEM0PU8pW0NIM10pT1tDQEBdNShbQ0gzXSlbQ0BIXTNPW0NIMl1bQ0gyXVtDSDJdNQ==

> <s_epik_cmdline>
J2VwaWtfYXBwJywgJy1pbWFlJywgJ2xpZ2FuZF9wcm8ubWFlJywgJy1vbWFlJywgJ2xpZ2FuZF9wcmVwLm1hZScsICctbXMnLCAnMScsICctcGgnLCAnNycsICctcGh0JywgJzAuNScsICctbnQn

> <r_lp_tautomer_probability>
1

> <r_epik_Ionization_Penalty>
  0.3886

> <r_epik_Ionization_Penalty_Charging>
  0.0000

> <r_epik_Ionization_Penalty_Neutral>
  0.3886

> <r_epik_State_Penalty>
 -0.0000

> <r_epik_Charging_Adjusted_Penalty>
0

> <i_epik_Tot_Q>
0

> <i_epik_Tot_abs_Q>
0

> <s_epik_Chemistry_Notes>
This compound has an imine and may undergo hydrolysis.

$$$$
