4rrq_ligand
                    3D
 Schrodinger Suite 2020-3.
 45 47  0  0  1  0            999 V2000
   25.9600    6.5750   -3.4680 O   0  0  0  0  0  0
   25.3730    7.8040   -3.9060 C   0  0  0  0  0  0
   24.2520    7.5170   -4.9090 C   0  0  1  0  0  0
   24.7680    6.7550   -6.0150 O   0  0  0  0  0  0
   23.9440    5.5940   -6.2190 C   0  0  1  0  0  0
   24.7300    4.4050   -5.8140 N   0  0  0  0  0  0
   24.2760    3.2420   -5.3520 C   0  0  0  0  0  0
   23.0570    2.7900   -5.0190 N   0  0  0  0  0  0
   22.8880    1.5550   -4.5760 C   0  0  0  0  0  0
   23.9120    0.7260   -4.4510 N   0  0  0  0  0  0
   25.1590    1.1070   -4.7640 C   0  0  0  0  0  0
   26.1770    0.2560   -4.6570 N   0  0  0  0  0  0
   25.3720    2.4000   -5.2280 C   0  0  0  0  0  0
   26.4490    3.0790   -5.6090 N   0  0  0  0  0  0
   26.0500    4.2980   -5.9600 C   0  0  0  0  0  0
   22.6540    5.8450   -5.4350 C   0  0  2  0  0  0
   21.7750    6.6620   -6.2130 O   0  0  0  0  0  0
   23.1950    6.6350   -4.2460 C   0  0  2  0  0  0
   22.1690    7.4800   -3.6160 N   0  0  0  0  0  0
   19.4280    7.3890   -1.1960 N   0  3  0  0  0  0
   20.4260    8.0990   -2.0090 C   0  0  1  0  0  0
   21.1340    9.1480   -1.1480 C   0  0  0  0  0  0
   20.1810   10.1080   -0.6830 O   0  0  0  0  0  0
   21.4540    7.1070   -2.5590 C   0  0  0  0  0  0
   21.5730    5.8980   -1.9490 O   0  0  0  0  0  0
   26.7859    6.5881   -2.7416 H   0  0  0  0  0  0
   24.9572    8.3407   -3.0405 H   0  0  0  0  0  0
   26.1414    8.4259   -4.3884 H   0  0  0  0  0  0
   23.8478    8.4627   -5.2993 H   0  0  0  0  0  0
   23.7007    5.4244   -7.2783 H   0  0  0  0  0  0
   21.8876    1.2142   -4.3092 H   0  0  0  0  0  0
   26.0032   -0.7660   -4.2893 H   0  0  0  0  0  0
   27.1921    0.5748   -4.9363 H   0  0  0  0  0  0
   26.7062    5.0927   -6.3149 H   0  0  0  0  0  0
   22.0374    4.9667   -5.1934 H   0  0  0  0  0  0
   21.2930    6.2502   -7.1119 H   0  0  0  0  0  0
   23.5408    5.9996   -3.4173 H   0  0  0  0  0  0
   21.9583    8.4817   -4.0187 H   0  0  0  0  0  0
   18.6940    8.1091   -0.8052 H   0  0  0  0  0  0
   19.9300    6.8852   -0.3568 H   0  0  0  0  0  0
   18.9133    6.6415   -1.8176 H   0  0  0  0  0  0
   19.8829    8.5795   -2.8361 H   0  0  0  0  0  0
   21.6079    8.6557   -0.2860 H   0  0  0  0  0  0
   21.9029    9.6567   -1.7481 H   0  0  0  0  0  0
   20.5075   10.9429   -0.0455 H   0  0  0  0  0  0
  1  2  1  0  0  0
  1 26  1  0  0  0
  2  3  1  0  0  0
  2 27  1  0  0  0
  2 28  1  0  0  0
  3  4  1  0  0  0
  3 18  1  0  0  0
  3 29  1  0  0  0
  4  5  1  0  0  0
  5  6  1  0  0  0
  5 16  1  0  0  0
  5 30  1  0  0  0
  6  7  1  0  0  0
  6 15  1  0  0  0
  7  8  1  0  0  0
  7 13  2  0  0  0
  8  9  2  0  0  0
  9 10  1  0  0  0
  9 31  1  0  0  0
 10 11  2  0  0  0
 11 12  1  0  0  0
 11 13  1  0  0  0
 12 32  1  0  0  0
 12 33  1  0  0  0
 13 14  1  0  0  0
 14 15  2  0  0  0
 15 34  1  0  0  0
 16 17  1  0  0  0
 16 18  1  0  0  0
 16 35  1  0  0  0
 17 36  1  0  0  0
 18 19  1  0  0  0
 18 37  1  0  0  0
 19 24  1  0  0  0
 19 38  1  0  0  0
 20 21  1  0  0  0
 20 39  1  0  0  0
 20 40  1  0  0  0
 20 41  1  0  0  0
 21 22  1  0  0  0
 21 24  1  0  0  0
 21 42  1  0  0  0
 22 23  1  0  0  0
 22 43  1  0  0  0
 22 44  1  0  0  0
 23 45  1  0  0  0
 24 25  2  0  0  0
M  CHG  1  20   1
M  END
> <s_m_source_file>
../4rrq_ligand.sdf

> <i_m_source_file_index>
1

> <s_epik_input>
W09IXVtDSDJdW0NASF0oW05IMytdKUMoPU8pW05IXVtDQEhdMVtDQEBIXShbT0hdKVtDQEBIXShPW0NAQEhdMVtDSDJdW09IXSluMltjSF1uYyhjMjMpYyhbTkgyXSluW2NIXW4z

> <s_epik_cmdline>
J2VwaWtfYXBwJywgJy1pbWFlJywgJ2xpZ2FuZF9wcm8ubWFlJywgJy1vbWFlJywgJ2xpZ2FuZF9wcmVwLm1hZScsICctbXMnLCAnMScsICctcGgnLCAnNycsICctcGh0JywgJzAuNScsICctbnQn

> <r_lp_tautomer_probability>
0.999997216410988

> <r_epik_Ionization_Penalty>
  0.1728

> <r_epik_Ionization_Penalty_Charging>
  0.1724

> <r_epik_Ionization_Penalty_Neutral>
  0.0005

> <r_epik_State_Penalty>
  0.1618

> <r_epik_Charging_Adjusted_Penalty>
0.334113698414832

> <i_epik_Tot_Q>
1

> <i_epik_Tot_abs_Q>
1

> <s_epik_Chemistry_Notes>
This compound contains an acetal/aminal-like group ( X-CH(R)-Y where X, Y are N, S, or O) that may be acid/base labile, releasing an aldehyde.

$$$$
