4rrr_ligand
                    3D
 Schrodinger Suite 2020-3.
 48 50  0  0  1  0            999 V2000
   -7.9850    4.1970   14.1550 C   0  0  0  0  0  0
   -7.9310    2.0520   12.9710 N   0  3  0  0  0  0
   -9.2100    4.4690   13.6320 O   0  0  0  0  0  0
  -14.0350    7.2120   16.6140 N   0  0  0  0  0  0
  -13.3870    6.0640   16.6980 C   0  0  0  0  0  0
  -12.1200    6.0040   17.0710 N   0  0  0  0  0  0
  -11.4460    7.1210   17.3760 C   0  0  0  0  0  0
  -12.0910    8.3470   17.2970 C   0  0  0  0  0  0
  -13.4250    8.3700   16.9070 C   0  0  0  0  0  0
  -14.0870    9.5210   16.8460 N   0  0  0  0  0  0
  -11.2160    9.2880   17.6320 N   0  0  0  0  0  0
  -10.0640    8.6840   17.9140 C   0  0  0  0  0  0
   -7.5020    4.7720   15.2530 N   0  0  0  0  0  0
  -10.1990    7.3670   17.7680 N   0  0  0  0  0  0
   -7.1000    3.1680   13.4470 C   0  0  1  0  0  0
   -6.3950    3.8210   12.2560 C   0  0  2  0  0  0
   -5.4170    2.9180   11.7330 O   0  0  0  0  0  0
   -9.1510    6.3770   18.1070 C   0  0  1  0  0  0
   -9.0640    5.1800   17.1580 C   0  0  2  0  0  0
   -8.3280    4.1320   17.7950 O   0  0  0  0  0  0
   -8.2330    5.7850   16.0290 C   0  0  1  0  0  0
   -7.2290    6.6450   16.7970 C   0  0  2  0  0  0
   -7.8810    7.0450   18.0150 O   0  0  0  0  0  0
   -6.8700    7.8670   15.9470 C   0  0  0  0  0  0
   -8.0610    8.5560   15.5560 O   0  0  0  0  0  0
   -5.7620    5.1590   12.6440 C   0  0  0  0  0  0
   -8.4383    1.5818   13.8263 H   0  0  0  0  0  0
   -7.2942    1.3090   12.4686 H   0  0  0  0  0  0
   -8.6821    2.4305   12.2620 H   0  0  0  0  0  0
  -13.9115    5.1404   16.4530 H   0  0  0  0  0  0
  -15.1425    9.5327   16.5366 H   0  0  0  0  0  0
  -13.5793   10.4619   17.1049 H   0  0  0  0  0  0
   -9.1482    9.1907   18.2185 H   0  0  0  0  0  0
   -6.4994    4.4520   15.5729 H   0  0  0  0  0  0
   -6.3606    2.7540   14.1484 H   0  0  0  0  0  0
   -7.1026    3.9913   11.4312 H   0  0  0  0  0  0
   -5.7166    1.9107   11.4080 H   0  0  0  0  0  0
   -9.3795    6.0361   19.1276 H   0  0  0  0  0  0
  -10.0090    4.6986   16.8662 H   0  0  0  0  0  0
   -8.7732    3.5797   18.6357 H   0  0  0  0  0  0
   -8.8440    6.2974   15.2713 H   0  0  0  0  0  0
   -6.3124    6.1065   17.0797 H   0  0  0  0  0  0
   -6.2336    8.5468   16.5326 H   0  0  0  0  0  0
   -6.3277    7.5412   15.0471 H   0  0  0  0  0  0
   -7.9937    9.4632   14.9376 H   0  0  0  0  0  0
   -6.5377    5.8299   13.0417 H   0  0  0  0  0  0
   -5.3005    5.6172   11.7569 H   0  0  0  0  0  0
   -4.9928    4.9916   13.4123 H   0  0  0  0  0  0
  1  3  2  0  0  0
  1 13  1  0  0  0
  1 15  1  0  0  0
  2 15  1  0  0  0
  2 27  1  0  0  0
  2 28  1  0  0  0
  2 29  1  0  0  0
  4  5  1  0  0  0
  4  9  2  0  0  0
  5  6  2  0  0  0
  5 30  1  0  0  0
  6  7  1  0  0  0
  7  8  2  0  0  0
  7 14  1  0  0  0
  8  9  1  0  0  0
  8 11  1  0  0  0
  9 10  1  0  0  0
 10 31  1  0  0  0
 10 32  1  0  0  0
 11 12  2  0  0  0
 12 14  1  0  0  0
 12 33  1  0  0  0
 13 21  1  0  0  0
 13 34  1  0  0  0
 14 18  1  0  0  0
 15 16  1  0  0  0
 15 35  1  0  0  0
 16 17  1  0  0  0
 16 26  1  0  0  0
 16 36  1  0  0  0
 17 37  1  0  0  0
 18 19  1  0  0  0
 18 23  1  0  0  0
 18 38  1  0  0  0
 19 20  1  0  0  0
 19 21  1  0  0  0
 19 39  1  0  0  0
 20 40  1  0  0  0
 21 22  1  0  0  0
 21 41  1  0  0  0
 22 23  1  0  0  0
 22 24  1  0  0  0
 22 42  1  0  0  0
 24 25  1  0  0  0
 24 43  1  0  0  0
 24 44  1  0  0  0
 25 45  1  0  0  0
 26 46  1  0  0  0
 26 47  1  0  0  0
 26 48  1  0  0  0
M  CHG  1   2   1
M  END
> <s_m_source_file>
../4rrr_ligand.sdf

> <i_m_source_file_index>
1

> <s_epik_input>
W09IXVtDQEhdKFtDSDNdKVtDQEhdKFtOSDMrXSlDKD1PKVtOSF1bQ0BIXShbQ0BIXShPMSlbQ0gyXVtPSF0pW0NAQEhdKFtPSF0pW0NAQEhdMW4yW2NIXW5jKGMyMyljKFtOSDJdKW5bY0hdbjM=

> <s_epik_cmdline>
J2VwaWtfYXBwJywgJy1pbWFlJywgJ2xpZ2FuZF9wcm8ubWFlJywgJy1vbWFlJywgJ2xpZ2FuZF9wcmVwLm1hZScsICctbXMnLCAnMScsICctcGgnLCAnNycsICctcGh0JywgJzAuNScsICctbnQn

> <r_lp_tautomer_probability>
0.999997216410988

> <r_epik_Ionization_Penalty>
  0.0835

> <r_epik_Ionization_Penalty_Charging>
  0.0828

> <r_epik_Ionization_Penalty_Neutral>
  0.0006

> <r_epik_State_Penalty>
  0.0735

> <r_epik_Charging_Adjusted_Penalty>
0.156389584480285

> <i_epik_Tot_Q>
1

> <i_epik_Tot_abs_Q>
1

> <s_epik_Chemistry_Notes>
This compound contains an acetal/aminal-like group ( X-CH(R)-Y where X, Y are N, S, or O) that may be acid/base labile, releasing an aldehyde.

$$$$
