4rrs_ligand
                    3D
 Schrodinger Suite 2020-3.
 48 52  0  0  1  0            999 V2000
   27.5370   14.5940    9.1390 C   0  0  0  0  0  0
   26.8040   15.7900    9.3670 C   0  0  0  0  0  0
   25.4180   15.8210    9.0760 C   0  0  0  0  0  0
   24.7740   14.6590    8.5840 C   0  0  0  0  0  0
   25.5050   13.4550    8.3610 C   0  0  0  0  0  0
   26.8940   13.4330    8.6430 C   0  0  0  0  0  0
   27.4190   16.9770    9.8340 C   0  0  0  0  0  0
   24.8970   12.3040    7.8940 O   0  0  0  0  0  0
   23.4790   12.1470    8.0450 C   0  0  1  0  0  0
   22.8600   13.4740    7.5260 C   0  0  2  0  0  0
   23.2890   14.7530    8.2620 C   0  0  2  0  0  0
   23.0020   16.0270    7.4340 C   0  0  0  0  0  0
   22.0630   16.7940    8.2060 O   0  0  0  0  0  0
   21.8640   16.1540    9.3910 C   0  0  0  0  0  0
   22.4670   14.9680    9.4340 N   0  3  0  0  0  0
   21.0790   16.7670   10.2980 N   0  0  0  0  0  0
   21.4480   13.4160    7.2950 O   0  0  0  0  0  0
   21.0720   12.3960    6.3640 C   0  0  0  0  0  0
   21.5090   11.0070    6.8940 C   0  0  0  0  0  0
   23.0330   10.9570    7.1650 C   0  0  0  0  0  0
   23.1140   11.8510    9.5280 C   0  0  0  0  0  0
   27.0070   17.6420   11.0170 C   0  0  0  0  0  0
   27.5540   18.8010   11.4490 N   0  0  0  0  0  0
   28.5570   19.3570   10.7440 C   0  0  0  0  0  0
   29.0370   18.7720    9.5470 C   0  0  0  0  0  0
   28.4600   17.5690    9.0710 C   0  0  0  0  0  0
   26.0120   17.1390   11.7670 F   0  0  0  0  0  0
   28.6065   14.5696    9.3482 H   0  0  0  0  0  0
   24.8480   16.7372    9.2303 H   0  0  0  0  0  0
   27.4683   12.5214    8.4780 H   0  0  0  0  0  0
   23.2267   13.5808    6.4944 H   0  0  0  0  0  0
   23.9387   16.5825    7.2793 H   0  0  0  0  0  0
   22.5788   15.7431    6.4591 H   0  0  0  0  0  0
   22.3038   14.2988   10.2916 H   0  0  0  0  0  0
   20.6640   17.7627   10.0827 H   0  0  0  0  0  0
   19.9801   12.4053    6.2311 H   0  0  0  0  0  0
   21.5607   12.5842    5.3967 H   0  0  0  0  0  0
   20.9808   10.7906    7.8343 H   0  0  0  0  0  0
   21.2623   10.2361    6.1491 H   0  0  0  0  0  0
   23.5637   10.9939    6.2022 H   0  0  0  0  0  0
   23.2691   10.0129    7.6779 H   0  0  0  0  0  0
   23.4294   12.6952   10.1587 H   0  0  0  0  0  0
   23.6281   10.9357    9.8565 H   0  0  0  0  0  0
   22.0264   11.7128    9.6173 H   0  0  0  0  0  0
   29.0110   20.2805   11.1034 H   0  0  0  0  0  0
   29.8478   19.2459    8.9937 H   0  0  0  0  0  0
   28.8056   17.1104    8.1445 H   0  0  0  0  0  0
   20.8530   16.2718   11.2539 H   0  0  0  0  0  0
  1  2  2  0  0  0
  1  6  1  0  0  0
  1 28  1  0  0  0
  2  3  1  0  0  0
  2  7  1  0  0  0
  3  4  2  0  0  0
  3 29  1  0  0  0
  4  5  1  0  0  0
  4 11  1  0  0  0
  5  6  2  0  0  0
  5  8  1  0  0  0
  6 30  1  0  0  0
  7 22  2  0  0  0
  7 26  1  0  0  0
  8  9  1  0  0  0
  9 10  1  0  0  0
  9 20  1  0  0  0
  9 21  1  0  0  0
 10 11  1  0  0  0
 10 17  1  0  0  0
 10 31  1  0  0  0
 11 12  1  0  0  0
 11 15  1  0  0  0
 12 13  1  0  0  0
 12 32  1  0  0  0
 12 33  1  0  0  0
 13 14  1  0  0  0
 14 15  2  0  0  0
 14 16  1  0  0  0
 15 34  1  0  0  0
 16 35  1  0  0  0
 16 48  1  0  0  0
 17 18  1  0  0  0
 18 19  1  0  0  0
 18 36  1  0  0  0
 18 37  1  0  0  0
 19 20  1  0  0  0
 19 38  1  0  0  0
 19 39  1  0  0  0
 20 40  1  0  0  0
 20 41  1  0  0  0
 21 42  1  0  0  0
 21 43  1  0  0  0
 21 44  1  0  0  0
 22 23  1  0  0  0
 22 27  1  0  0  0
 23 24  2  0  0  0
 24 25  1  0  0  0
 24 45  1  0  0  0
 25 26  2  0  0  0
 25 46  1  0  0  0
 26 47  1  0  0  0
M  CHG  1  15   1
M  END
> <s_m_source_file>
../4rrs_ligand.sdf

> <i_m_source_file_index>
1

> <s_epik_input>
W2NIXTFbY0hdW2NIXW5jKEYpYzEtYyhbY0hdMilbY0hdW2NIXWMoYzJbQ0BAXTM0W0NIMl1PL0MoW05IXTQpPU5cW0hdKU9bQ0BAXTUoW0NIM10pW0NASF0zT1tDSDJdW0NIMl1bQ0gyXTU=

> <s_epik_cmdline>
J2VwaWtfYXBwJywgJy1pbWFlJywgJ2xpZ2FuZF9wcm8ubWFlJywgJy1vbWFlJywgJ2xpZ2FuZF9wcmVwLm1hZScsICctbXMnLCAnMScsICctcGgnLCAnNycsICctcGh0JywgJzAuNScsICctbnQn

> <r_lp_tautomer_probability>
1

> <r_epik_Ionization_Penalty>
  0.1569

> <r_epik_Ionization_Penalty_Charging>
  0.0014

> <r_epik_Ionization_Penalty_Neutral>
  0.1555

> <r_epik_State_Penalty>
  0.1448

> <r_epik_Charging_Adjusted_Penalty>
0.146155101153739

> <i_epik_Tot_Q>
1

> <i_epik_Tot_abs_Q>
1

> <s_epik_Chemistry_Notes>
This compound has an imine and may undergo hydrolysis.

$$$$
