4rrv_ligand
                    3D
 Schrodinger Suite 2020-3.
142144  0  0  1  0            999 V2000
  -13.0960   23.1860  -13.9170 N   0  3  0  0  0  0
  -12.9930   22.8710  -12.5010 C   0  0  2  0  0  0
  -12.1340   21.6180  -12.3090 C   0  0  0  0  0  0
  -11.2090   21.3760  -13.0870 O   0  0  0  0  0  0
  -14.3880   22.6720  -11.9070 C   0  0  0  0  0  0
  -15.1480   21.4780  -12.4700 C   0  0  0  0  0  0
  -16.8380   21.8950  -12.9470 S   0  0  0  0  0  0
  -16.5260   23.0100  -14.3170 C   0  0  0  0  0  0
  -12.4390   20.8320  -11.2750 N   0  0  0  0  0  0
  -11.6510   19.6450  -10.9290 C   0  0  2  0  0  0
  -10.2160   20.0250  -10.5500 C   0  0  0  0  0  0
   -9.2990   19.2110  -10.6400 O   0  0  0  0  0  0
  -11.6580   18.6220  -12.0730 C   0  0  0  0  0  0
  -13.0310   18.2650  -12.5570 C   0  0  0  0  0  0
  -13.9030   17.5800  -11.7360 C   0  0  0  0  0  0
  -13.4450   18.6050  -13.8310 C   0  0  0  0  0  0
  -15.1630   17.2470  -12.1660 C   0  0  0  0  0  0
  -14.7100   18.2740  -14.2720 C   0  0  0  0  0  0
  -15.5690   17.5910  -13.4360 C   0  0  0  0  0  0
  -10.0390   21.2640  -10.1030 N   0  0  0  0  0  0
   -8.7190   21.7830   -9.7780 C   0  0  2  0  0  0
   -8.1360   21.0890   -8.5520 C   0  0  0  0  0  0
   -6.9210   20.9690   -8.4170 O   0  0  0  0  0  0
   -8.7930   23.2940   -9.5370 C   0  0  0  0  0  0
   -9.0120   20.6290   -7.6650 N   0  0  0  0  0  0
   -8.5930   20.0070   -6.4150 C   0  0  2  0  0  0
   -8.8180   18.5050   -6.4700 C   0  0  0  0  0  0
   -8.9810   17.8550   -5.4360 O   0  0  0  0  0  0
   -9.3740   20.5990   -5.2410 C   0  0  0  0  0  0
   -8.8220   17.9480   -7.6760 N   0  0  0  0  0  0
   -9.1680   16.5430   -7.8370 C   0  0  2  0  0  0
   -7.9580   15.6180   -7.7280 C   0  0  0  0  0  0
   -8.0320   14.5590   -7.1010 O   0  0  0  0  0  0
   -9.8820   16.2910   -9.1630 C   0  0  0  0  0  0
  -10.2450   14.8610   -9.3580 C   0  0  0  0  0  0
  -11.3040   14.3000   -8.6560 C   0  0  0  0  0  0
   -9.5040   14.0570  -10.1980 C   0  0  0  0  0  0
  -11.6210   12.9720   -8.8060 C   0  0  0  0  0  0
   -9.8270   12.7250  -10.3550 C   0  0  0  0  0  0
  -10.8790   12.1830   -9.6510 C   0  0  0  0  0  0
   -6.8450   16.0190   -8.3310 N   0  0  0  0  0  0
   -5.6640   15.1610   -8.3780 C   0  0  2  0  0  0
   -5.1320   14.8500   -6.9790 C   0  0  0  0  0  0
   -5.1350   15.7040   -6.0890 O   0  0  0  0  0  0
   -4.5850   15.7870   -9.2570 C   0  0  0  0  0  0
   -5.0570   15.9960  -10.6820 C   0  0  0  0  0  0
   -6.1900   15.5720  -11.0020 O   0  5  0  0  0  0
   -4.3020   16.5800  -11.4800 O   0  0  0  0  0  0
   -4.6760   13.6140   -6.8040 N   0  0  0  0  0  0
   -4.3980   13.0600   -5.4890 C   0  0  2  0  0  0
   -3.3570   11.9600   -5.6070 C   0  0  0  0  0  0
   -3.3720   11.1810   -6.5500 O   0  0  0  0  0  0
   -5.6920   12.4660   -4.8970 C   0  0  0  0  0  0
   -5.5030   11.7140   -3.6060 C   0  0  0  0  0  0
   -5.1590   12.3790   -2.4390 C   0  0  0  0  0  0
   -5.6780   10.3320   -3.5520 C   0  0  0  0  0  0
   -4.9900   11.6910   -1.2530 C   0  0  0  0  0  0
   -5.5050    9.6380   -2.3760 C   0  0  0  0  0  0
   -5.1580   10.3240   -1.2290 C   0  0  0  0  0  0
   -4.9940    9.6410   -0.0480 O   0  0  0  0  0  0
   -2.4410   11.9150   -4.6500 N   0  0  0  0  0  0
   -1.5410   10.7850   -4.5220 C   0  0  2  0  0  0
   -1.5340   10.4280   -3.0540 C   0  0  0  0  0  0
   -1.2460   11.2790   -2.2030 O   0  0  0  0  0  0
   -0.0920   11.1340   -4.9440 C   0  0  2  0  0  0
   -0.0430   11.6560   -6.3910 C   0  0  0  0  0  0
    0.8270    9.9260   -4.7450 C   0  0  0  0  0  0
   -0.0070   10.5750   -7.4760 C   0  0  0  0  0  0
   -1.8980    9.1890   -2.7540 N   0  0  0  0  0  0
   -1.5880    8.6250   -1.4620 C   0  0  2  0  0  0
   -0.0730    8.7680   -1.3560 C   0  0  0  0  0  0
    0.6660    7.7940   -1.3870 O   0  0  0  0  0  0
   -2.0200    7.1590   -1.3830 C   0  0  0  0  0  0
    0.4291    9.9171   -1.2336 O   0  5  0  0  0  0
  -12.0885   23.3273  -14.3354 H   0  0  0  0  0  0
  -13.6794   24.1097  -14.0456 H   0  0  0  0  0  0
  -13.5980   22.3593  -14.4409 H   0  0  0  0  0  0
  -12.5077   23.7345  -12.0226 H   0  0  0  0  0  0
  -14.3054   22.5163  -10.8212 H   0  0  0  0  0  0
  -15.0010   23.5639  -12.1039 H   0  0  0  0  0  0
  -14.6281   21.1003  -13.3628 H   0  0  0  0  0  0
  -15.1972   20.6835  -11.7108 H   0  0  0  0  0  0
  -17.4834   23.3619  -14.7287 H   0  0  0  0  0  0
  -15.9627   22.4806  -15.0996 H   0  0  0  0  0  0
  -15.9405   23.8712  -13.9628 H   0  0  0  0  0  0
  -13.3187   21.1029  -10.6727 H   0  0  0  0  0  0
  -12.1565   19.2154  -10.0516 H   0  0  0  0  0  0
  -11.1046   19.0289  -12.9321 H   0  0  0  0  0  0
  -11.1786   17.6913  -11.7356 H   0  0  0  0  0  0
  -13.5866   17.2993  -10.7314 H   0  0  0  0  0  0
  -12.7654   19.1401  -14.4942 H   0  0  0  0  0  0
  -15.8417   16.7107  -11.5028 H   0  0  0  0  0  0
  -15.0292   18.5510  -15.2767 H   0  0  0  0  0  0
  -16.5681   17.3239  -13.7805 H   0  0  0  0  0  0
  -10.9264   21.9024   -9.9809 H   0  0  0  0  0  0
   -8.0960   21.5541  -10.6552 H   0  0  0  0  0  0
   -9.2144   23.7868  -10.4256 H   0  0  0  0  0  0
   -7.7827   23.6847   -9.3455 H   0  0  0  0  0  0
   -9.4351   23.4955   -8.6669 H   0  0  0  0  0  0
  -10.0824   20.7291   -7.8978 H   0  0  0  0  0  0
   -7.5192   20.2240   -6.3163 H   0  0  0  0  0  0
   -9.2101   21.6860   -5.2025 H   0  0  0  0  0  0
   -9.0270   20.1424   -4.3023 H   0  0  0  0  0  0
  -10.4466   20.3943   -5.3737 H   0  0  0  0  0  0
   -8.5619   18.5547   -8.5559 H   0  0  0  0  0  0
   -9.8442   16.3599   -6.9889 H   0  0  0  0  0  0
  -10.8094   16.8815   -9.1980 H   0  0  0  0  0  0
   -9.2264   16.5883   -9.9948 H   0  0  0  0  0  0
  -11.8902   14.9207   -7.9783 H   0  0  0  0  0  0
   -8.6575   14.4766  -10.7416 H   0  0  0  0  0  0
  -12.4595   12.5451   -8.2558 H   0  0  0  0  0  0
   -9.2490   12.1012  -11.0368 H   0  0  0  0  0  0
  -11.1233   11.1268   -9.7643 H   0  0  0  0  0  0
   -6.8210   17.0139   -8.7996 H   0  0  0  0  0  0
   -6.0088   14.2205   -8.8326 H   0  0  0  0  0  0
   -4.2988   16.7659   -8.8450 H   0  0  0  0  0  0
   -3.7045   15.1281   -9.2820 H   0  0  0  0  0  0
   -4.5097   13.0040   -7.7042 H   0  0  0  0  0  0
   -4.0119   13.8889   -4.8775 H   0  0  0  0  0  0
   -6.4072   13.2763   -4.6923 H   0  0  0  0  0  0
   -6.1336   11.7599   -5.6156 H   0  0  0  0  0  0
   -5.0199   13.4599   -2.4576 H   0  0  0  0  0  0
   -5.9566    9.7917   -4.4567 H   0  0  0  0  0  0
   -4.7252   12.2268   -0.3414 H   0  0  0  0  0  0
   -5.6407    8.5568   -2.3504 H   0  0  0  0  0  0
   -4.7176   10.1842    0.8677 H   0  0  0  0  0  0
   -2.3711   12.7564   -3.9449 H   0  0  0  0  0  0
   -1.9349    9.9901   -5.1724 H   0  0  0  0  0  0
    0.2836   11.9421   -4.2991 H   0  0  0  0  0  0
   -0.9346   12.2686   -6.5902 H   0  0  0  0  0  0
    0.8606   12.2677   -6.5297 H   0  0  0  0  0  0
    0.7630    9.5846   -3.7013 H   0  0  0  0  0  0
    1.8640   10.2125   -4.9742 H   0  0  0  0  0  0
    0.5143    9.1129   -5.4166 H   0  0  0  0  0  0
    0.0266   11.0512   -8.4670 H   0  0  0  0  0  0
   -0.9085    9.9493   -7.4002 H   0  0  0  0  0  0
    0.8868    9.9484   -7.3398 H   0  0  0  0  0  0
   -2.4408    8.5897   -3.4998 H   0  0  0  0  0  0
   -2.1370    9.1640   -0.6758 H   0  0  0  0  0  0
   -3.1152    7.0947   -1.4626 H   0  0  0  0  0  0
   -1.6966    6.7327   -0.4219 H   0  0  0  0  0  0
   -1.5587    6.5959   -2.2077 H   0  0  0  0  0  0
  1  2  1  0  0  0
  1 75  1  0  0  0
  1 76  1  0  0  0
  1 77  1  0  0  0
  2  3  1  0  0  0
  2  5  1  0  0  0
  2 78  1  0  0  0
  3  4  2  0  0  0
  3  9  1  0  0  0
  5  6  1  0  0  0
  5 79  1  0  0  0
  5 80  1  0  0  0
  6  7  1  0  0  0
  6 81  1  0  0  0
  6 82  1  0  0  0
  7  8  1  0  0  0
  8 83  1  0  0  0
  8 84  1  0  0  0
  8 85  1  0  0  0
  9 10  1  0  0  0
  9 86  1  0  0  0
 10 11  1  0  0  0
 10 13  1  0  0  0
 10 87  1  0  0  0
 11 12  2  0  0  0
 11 20  1  0  0  0
 13 14  1  0  0  0
 13 88  1  0  0  0
 13 89  1  0  0  0
 14 15  2  0  0  0
 14 16  1  0  0  0
 15 17  1  0  0  0
 15 90  1  0  0  0
 16 18  2  0  0  0
 16 91  1  0  0  0
 17 19  2  0  0  0
 17 92  1  0  0  0
 18 19  1  0  0  0
 18 93  1  0  0  0
 19 94  1  0  0  0
 20 21  1  0  0  0
 20 95  1  0  0  0
 21 22  1  0  0  0
 21 24  1  0  0  0
 21 96  1  0  0  0
 22 23  2  0  0  0
 22 25  1  0  0  0
 24 97  1  0  0  0
 24 98  1  0  0  0
 24 99  1  0  0  0
 25 26  1  0  0  0
 25100  1  0  0  0
 26 27  1  0  0  0
 26 29  1  0  0  0
 26101  1  0  0  0
 27 28  2  0  0  0
 27 30  1  0  0  0
 29102  1  0  0  0
 29103  1  0  0  0
 29104  1  0  0  0
 30 31  1  0  0  0
 30105  1  0  0  0
 31 32  1  0  0  0
 31 34  1  0  0  0
 31106  1  0  0  0
 32 33  2  0  0  0
 32 41  1  0  0  0
 34 35  1  0  0  0
 34107  1  0  0  0
 34108  1  0  0  0
 35 36  2  0  0  0
 35 37  1  0  0  0
 36 38  1  0  0  0
 36109  1  0  0  0
 37 39  2  0  0  0
 37110  1  0  0  0
 38 40  2  0  0  0
 38111  1  0  0  0
 39 40  1  0  0  0
 39112  1  0  0  0
 40113  1  0  0  0
 41 42  1  0  0  0
 41114  1  0  0  0
 42 43  1  0  0  0
 42 45  1  0  0  0
 42115  1  0  0  0
 43 44  2  0  0  0
 43 49  1  0  0  0
 45 46  1  0  0  0
 45116  1  0  0  0
 45117  1  0  0  0
 46 47  1  0  0  0
 46 48  2  0  0  0
 49 50  1  0  0  0
 49118  1  0  0  0
 50 51  1  0  0  0
 50 53  1  0  0  0
 50119  1  0  0  0
 51 52  2  0  0  0
 51 61  1  0  0  0
 53 54  1  0  0  0
 53120  1  0  0  0
 53121  1  0  0  0
 54 55  2  0  0  0
 54 56  1  0  0  0
 55 57  1  0  0  0
 55122  1  0  0  0
 56 58  2  0  0  0
 56123  1  0  0  0
 57 59  2  0  0  0
 57124  1  0  0  0
 58 59  1  0  0  0
 58125  1  0  0  0
 59 60  1  0  0  0
 60126  1  0  0  0
 61 62  1  0  0  0
 61127  1  0  0  0
 62 63  1  0  0  0
 62 65  1  0  0  0
 62128  1  0  0  0
 63 64  2  0  0  0
 63 69  1  0  0  0
 65 66  1  0  0  0
 65 67  1  0  0  0
 65129  1  0  0  0
 66 68  1  0  0  0
 66130  1  0  0  0
 66131  1  0  0  0
 67132  1  0  0  0
 67133  1  0  0  0
 67134  1  0  0  0
 68135  1  0  0  0
 68136  1  0  0  0
 68137  1  0  0  0
 69 70  1  0  0  0
 69138  1  0  0  0
 70 71  1  0  0  0
 70 73  1  0  0  0
 70139  1  0  0  0
 71 72  2  0  0  0
 71 74  1  0  0  0
 73140  1  0  0  0
 73141  1  0  0  0
 73142  1  0  0  0
M  CHG  3   1   1  47  -1  74  -1
M  END
> <s_m_source_file>
../4rrv_ligand.sdf

> <i_m_source_file_index>
1

> <s_epik_input>
W0NIM11TW0NIMl1bQ0gyXVtDQEhdKFtOSDMrXSlDKD1PKVtOSF1bQ0BASF0oW0NIMl1jMVtjSF1bY0hdW2NIXVtjSF1bY0hdMSlDKD1PKVtOSF1bQ0BASF0oW0NIM10pQyg9TylbTkhdW0NAQEhdKFtDSDNdKUMoPU8pW05IXVtDQEBIXShbQ0gyXWMyW2NIXVtjSF1bY0hdW2NIXVtjSF0yKUMoPU8pW05IXVtDQEBIXShbQ0gyXUMoPU8pW09IXSlDKD1PKVtOSF1bQ0BASF0oW0NIMl1jM1tjSF1bY0hdYyhbT0hdKVtjSF1bY0hdMylDKD1PKVtOSF1bQ0BASF0oW0NAQEhdKFtDSDNdKVtDSDJdW0NIM10pQyg9TylbTkhdW0NAQEhdKFtDSDNdKUMoPU8pW09IXQ==

> <s_epik_cmdline>
J2VwaWtfYXBwJywgJy1pbWFlJywgJ2xpZ2FuZF9wcm8ubWFlJywgJy1vbWFlJywgJ2xpZ2FuZF9wcmVwLm1hZScsICctbXMnLCAnMScsICctcGgnLCAnNycsICctcGh0JywgJzAuNScsICctbnQn

> <r_lp_tautomer_probability>
0.999999999997365

> <r_epik_Ionization_Penalty>
  0.1725

> <r_epik_Ionization_Penalty_Charging>
  0.1716

> <r_epik_Ionization_Penalty_Neutral>
  0.0009

> <r_epik_State_Penalty>
  0.1596

> <r_epik_Charging_Adjusted_Penalty>
0.331263663905721

> <i_epik_Tot_Q>
-1

> <i_epik_Tot_abs_Q>
3

$$$$
