4rs0_ligand
                    3D
 Schrodinger Suite 2020-3.
 32 32  0  0  1  0            999 V2000
    9.1830  -22.4180  -72.5250 C   0  0  0  0  0  0
    2.9730  -20.4990  -72.6990 C   0  0  0  0  0  0
    2.4440  -21.2090  -71.5000 C   0  0  0  0  0  0
    2.7150  -20.3960  -70.2820 C   0  0  0  0  0  0
    0.9700  -21.3790  -71.6580 C   0  0  0  0  0  0
    8.5900  -21.5200  -73.5610 C   0  0  1  0  0  0
    8.7930  -22.1190  -74.9140 C   0  0  0  0  0  0
    7.1300  -21.2840  -73.3340 C   0  0  0  0  0  0
    6.7130  -20.0750  -72.8040 C   0  0  0  0  0  0
    5.3650  -19.8310  -72.5990 C   0  0  0  0  0  0
    4.4210  -20.7940  -72.9240 C   0  0  0  0  0  0
    4.8330  -22.0050  -73.4650 C   0  0  0  0  0  0
    6.1870  -22.2480  -73.6680 C   0  0  0  0  0  0
    9.9920  -21.9490  -71.6790 O   0  5  0  0  0  0
    8.8900  -23.6440  -72.5010 O   0  0  0  0  0  0
    2.4128  -20.8175  -73.5905 H   0  0  0  0  0  0
    2.8586  -19.4135  -72.5625 H   0  0  0  0  0  0
    2.9324  -22.1895  -71.3993 H   0  0  0  0  0  0
    3.8008  -20.2677  -70.1609 H   0  0  0  0  0  0
    2.3058  -20.9099  -69.3997 H   0  0  0  0  0  0
    2.2386  -19.4100  -70.3858 H   0  0  0  0  0  0
    0.7644  -21.9791  -72.5567 H   0  0  0  0  0  0
    0.4959  -20.3917  -71.7600 H   0  0  0  0  0  0
    0.5632  -21.8915  -70.7738 H   0  0  0  0  0  0
    9.1015  -20.5486  -73.4917 H   0  0  0  0  0  0
    9.8663  -22.2925  -75.0809 H   0  0  0  0  0  0
    8.4092  -21.4304  -75.6812 H   0  0  0  0  0  0
    8.2529  -23.0753  -74.9764 H   0  0  0  0  0  0
    7.4481  -19.3123  -72.5471 H   0  0  0  0  0  0
    5.0443  -18.8772  -72.1801 H   0  0  0  0  0  0
    4.0964  -22.7635  -73.7300 H   0  0  0  0  0  0
    6.5100  -23.1992  -74.0911 H   0  0  0  0  0  0
  1  6  1  0  0  0
  1 14  1  0  0  0
  1 15  2  0  0  0
  2  3  1  0  0  0
  2 11  1  0  0  0
  2 16  1  0  0  0
  2 17  1  0  0  0
  3  4  1  0  0  0
  3  5  1  0  0  0
  3 18  1  0  0  0
  4 19  1  0  0  0
  4 20  1  0  0  0
  4 21  1  0  0  0
  5 22  1  0  0  0
  5 23  1  0  0  0
  5 24  1  0  0  0
  6  7  1  0  0  0
  6  8  1  0  0  0
  6 25  1  0  0  0
  7 26  1  0  0  0
  7 27  1  0  0  0
  7 28  1  0  0  0
  8  9  2  0  0  0
  8 13  1  0  0  0
  9 10  1  0  0  0
  9 29  1  0  0  0
 10 11  2  0  0  0
 10 30  1  0  0  0
 11 12  1  0  0  0
 12 13  2  0  0  0
 12 31  1  0  0  0
 13 32  1  0  0  0
M  CHG  1  14  -1
M  END
> <s_m_source_file>
../4rs0_ligand.sdf

> <i_m_source_file_index>
1

> <s_epik_input>
W09IXUMoPU8pW0NAQEhdKFtDSDNdKWMxW2NIXVtjSF1jKFtjSF1bY0hdMSlbQ0gyXVtDSF0oW0NIM10pW0NIM10=

> <s_epik_cmdline>
J2VwaWtfYXBwJywgJy1pbWFlJywgJ2xpZ2FuZF9wcm8ubWFlJywgJy1vbWFlJywgJ2xpZ2FuZF9wcmVwLm1hZScsICctbXMnLCAnMScsICctcGgnLCAnNycsICctcGh0JywgJzAuNScsICctbnQn

> <r_lp_tautomer_probability>
1

> <r_epik_Ionization_Penalty>
  0.0014

> <r_epik_Ionization_Penalty_Charging>
  0.0014

> <r_epik_Ionization_Penalty_Neutral>
  0.0000

> <r_epik_State_Penalty>
 -0.0000

> <r_epik_Charging_Adjusted_Penalty>
0.00135201749254869

> <i_epik_Tot_Q>
-1

> <i_epik_Tot_abs_Q>
1

$$$$
