4rsc_ligand
                    3D
 Schrodinger Suite 2020-3.
 45 46  0  0  1  0            999 V2000
  -35.4840  133.9560    9.0630 O   0  0  0  0  0  0
  -36.6370  133.2270    9.4840 C   0  0  2  0  0  0
  -37.1620  132.4070    8.3250 C   0  0  0  0  0  0
  -36.1940  131.3730    7.7880 C   0  0  0  0  0  0
  -34.8290  131.7640    7.5580 N   0  3  0  0  0  0
  -37.6790  134.1300   10.1220 C   0  0  0  0  0  0
  -38.4680  135.0140    9.3870 C   0  0  0  0  0  0
  -39.3330  135.8960   10.0500 C   0  0  0  0  0  0
  -39.4290  135.8720   11.4190 C   0  0  0  0  0  0
  -38.6720  134.9730   12.1310 C   0  0  0  0  0  0
  -37.7990  134.1220   11.4940 C   0  0  0  0  0  0
  -40.1100  136.7970    9.3800 O   0  0  0  0  0  0
  -40.1020  136.8590    7.9570 C   0  0  0  0  0  0
  -40.9470  138.0730    7.6400 C   0  0  0  0  0  0
  -40.2710  139.3510    8.1480 C   0  0  0  0  0  0
  -41.0480  140.6300    7.8310 C   0  0  0  0  0  0
  -41.4060  140.7270    6.3630 C   0  0  0  0  0  0
  -42.0800  139.4520    5.8820 C   0  0  0  0  0  0
  -41.2170  138.2220    6.1590 C   0  0  0  0  0  0
  -34.6457  133.4300    8.5828 H   0  0  0  0  0  0
  -36.2896  132.5456   10.2745 H   0  0  0  0  0  0
  -38.0645  131.8627    8.6400 H   0  0  0  0  0  0
  -37.4103  133.0742    7.4865 H   0  0  0  0  0  0
  -36.1296  130.5304    8.4922 H   0  0  0  0  0  0
  -36.5497  131.0093    6.8127 H   0  0  0  0  0  0
  -34.2617  130.9047    7.1711 H   0  0  0  0  0  0
  -34.3807  132.1037    8.5033 H   0  0  0  0  0  0
  -34.8008  132.5826    6.8238 H   0  0  0  0  0  0
  -38.4124  135.0193    8.2984 H   0  0  0  0  0  0
  -40.0989  136.5590   11.9361 H   0  0  0  0  0  0
  -38.7646  134.9337   13.2163 H   0  0  0  0  0  0
  -37.1943  133.4323   12.0828 H   0  0  0  0  0  0
  -39.0672  136.9693    7.6006 H   0  0  0  0  0  0
  -40.5343  135.9342    7.5472 H   0  0  0  0  0  0
  -41.9103  137.9090    8.1451 H   0  0  0  0  0  0
  -40.1620  139.2984    9.2413 H   0  0  0  0  0  0
  -39.2781  139.4496    7.6849 H   0  0  0  0  0  0
  -41.9808  140.6463    8.4138 H   0  0  0  0  0  0
  -40.4361  141.5055    8.0939 H   0  0  0  0  0  0
  -42.0951  141.5704    6.2086 H   0  0  0  0  0  0
  -40.4919  140.8875    5.7725 H   0  0  0  0  0  0
  -43.0411  139.3266    6.4022 H   0  0  0  0  0  0
  -42.2555  139.5165    4.7980 H   0  0  0  0  0  0
  -40.2634  138.3314    5.6216 H   0  0  0  0  0  0
  -41.7450  137.3300    5.7910 H   0  0  0  0  0  0
  1  2  1  0  0  0
  1 20  1  0  0  0
  2  3  1  0  0  0
  2  6  1  0  0  0
  2 21  1  0  0  0
  3  4  1  0  0  0
  3 22  1  0  0  0
  3 23  1  0  0  0
  4  5  1  0  0  0
  4 24  1  0  0  0
  4 25  1  0  0  0
  5 26  1  0  0  0
  5 27  1  0  0  0
  5 28  1  0  0  0
  6  7  2  0  0  0
  6 11  1  0  0  0
  7  8  1  0  0  0
  7 29  1  0  0  0
  8  9  2  0  0  0
  8 12  1  0  0  0
  9 10  1  0  0  0
  9 30  1  0  0  0
 10 11  2  0  0  0
 10 31  1  0  0  0
 11 32  1  0  0  0
 12 13  1  0  0  0
 13 14  1  0  0  0
 13 33  1  0  0  0
 13 34  1  0  0  0
 14 15  1  0  0  0
 14 19  1  0  0  0
 14 35  1  0  0  0
 15 16  1  0  0  0
 15 36  1  0  0  0
 15 37  1  0  0  0
 16 17  1  0  0  0
 16 38  1  0  0  0
 16 39  1  0  0  0
 17 18  1  0  0  0
 17 40  1  0  0  0
 17 41  1  0  0  0
 18 19  1  0  0  0
 18 42  1  0  0  0
 18 43  1  0  0  0
 19 44  1  0  0  0
 19 45  1  0  0  0
M  CHG  1   5   1
M  END
> <s_m_source_file>
../4rsc_ligand.sdf

> <i_m_source_file_index>
1

> <s_epik_input>
W05IMytdW0NIMl1bQ0gyXVtDQEBIXShbT0hdKWMxW2NIXWMoW2NIXVtjSF1bY0hdMSlPW0NIMl1bQ0hdMltDSDJdW0NIMl1bQ0gyXVtDSDJdW0NIMl0y

> <s_epik_cmdline>
J2VwaWtfYXBwJywgJy1pbWFlJywgJ2xpZ2FuZF9wcm8ubWFlJywgJy1vbWFlJywgJ2xpZ2FuZF9wcmVwLm1hZScsICctbXMnLCAnMScsICctcGgnLCAnNycsICctcGh0JywgJzAuNScsICctbnQn

> <r_lp_tautomer_probability>
1

> <r_epik_Ionization_Penalty>
  0.0010

> <r_epik_Ionization_Penalty_Charging>
  0.0010

> <r_epik_Ionization_Penalty_Neutral>
  0.0000

> <r_epik_State_Penalty>
 -0.0000

> <r_epik_Charging_Adjusted_Penalty>
0.00103573754975076

> <i_epik_Tot_Q>
1

> <i_epik_Tot_abs_Q>
1

$$$$
