4rse_ligand
                    3D
 Schrodinger Suite 2020-3.
 52 53  0  0  1  0            999 V2000
  -35.5600  133.6960    9.1730 O   0  0  0  0  0  0
  -36.7100  132.9970    9.6350 C   0  0  2  0  0  0
  -37.2450  132.2400    8.4230 C   0  0  0  0  0  0
  -36.2850  131.1420    7.9850 C   0  0  0  0  0  0
  -35.1080  131.5750    7.2280 N   0  3  0  0  0  0
  -37.6960  133.9690   10.2500 C   0  0  0  0  0  0
  -37.9300  133.9630   11.6150 C   0  0  0  0  0  0
  -38.8280  134.8490   12.1840 C   0  0  0  0  0  0
  -39.5060  135.7660   11.3980 C   0  0  0  0  0  0
  -38.3610  134.9000    9.4600 C   0  0  0  0  0  0
  -39.2500  135.7960   10.0340 C   0  0  0  0  0  0
  -39.7570  136.6870    9.1250 O   0  0  0  0  0  0
  -40.6860  137.6790    9.5400 C   0  0  0  0  0  0
  -41.0010  138.6240    8.4080 C   0  0  0  0  0  0
  -41.3100  137.9930    7.0340 C   0  0  0  0  0  0
  -40.0090  137.5710    6.3290 C   0  0  0  0  0  0
  -42.2220  136.7690    7.1960 C   0  0  0  0  0  0
  -42.0650  138.9940    6.1470 C   0  0  0  0  0  0
  -41.4090  140.3600    6.1330 C   0  0  0  0  0  0
  -41.3720  140.9420    7.5270 C   0  0  0  0  0  0
  -41.0480  139.9470    8.6110 C   0  0  0  0  0  0
  -40.8060  140.6150    9.9390 C   0  0  0  0  0  0
  -34.7363  133.1449    8.6956 H   0  0  0  0  0  0
  -36.4280  132.3023   10.4399 H   0  0  0  0  0  0
  -38.2109  131.7784    8.6761 H   0  0  0  0  0  0
  -37.3812  132.9392    7.5848 H   0  0  0  0  0  0
  -35.8991  130.6173    8.8714 H   0  0  0  0  0  0
  -36.8154  130.4277    7.3382 H   0  0  0  0  0  0
  -34.4952  130.6987    6.9701 H   0  0  0  0  0  0
  -34.5143  132.2705    7.8394 H   0  0  0  0  0  0
  -35.4307  132.0809    6.3061 H   0  0  0  0  0  0
  -37.4004  133.2518   12.2489 H   0  0  0  0  0  0
  -39.0032  134.8250   13.2596 H   0  0  0  0  0  0
  -40.2275  136.4516   11.8424 H   0  0  0  0  0  0
  -38.1828  134.9256    8.3850 H   0  0  0  0  0  0
  -41.6178  137.1946    9.8674 H   0  0  0  0  0  0
  -40.2593  138.2548   10.3744 H   0  0  0  0  0  0
  -39.4653  136.8538    6.9615 H   0  0  0  0  0  0
  -39.3811  138.4576    6.1568 H   0  0  0  0  0  0
  -40.2507  137.0999    5.3648 H   0  0  0  0  0  0
  -41.7216  136.0199    7.8273 H   0  0  0  0  0  0
  -42.4315  136.3344    6.2074 H   0  0  0  0  0  0
  -43.1664  137.0755    7.6694 H   0  0  0  0  0  0
  -42.0930  138.6193    5.1132 H   0  0  0  0  0  0
  -43.0923  139.1137    6.5216 H   0  0  0  0  0  0
  -40.3797  140.2686    5.7560 H   0  0  0  0  0  0
  -41.9806  141.0346    5.4786 H   0  0  0  0  0  0
  -40.6050  141.7290    7.5755 H   0  0  0  0  0  0
  -42.3546  141.3722    7.7710 H   0  0  0  0  0  0
  -40.5740  139.8518   10.6964 H   0  0  0  0  0  0
  -41.7073  141.1688   10.2405 H   0  0  0  0  0  0
  -39.9599  141.3123    9.8499 H   0  0  0  0  0  0
  1  2  1  0  0  0
  1 23  1  0  0  0
  2  3  1  0  0  0
  2  6  1  0  0  0
  2 24  1  0  0  0
  3  4  1  0  0  0
  3 25  1  0  0  0
  3 26  1  0  0  0
  4  5  1  0  0  0
  4 27  1  0  0  0
  4 28  1  0  0  0
  5 29  1  0  0  0
  5 30  1  0  0  0
  5 31  1  0  0  0
  6  7  2  0  0  0
  6 10  1  0  0  0
  7  8  1  0  0  0
  7 32  1  0  0  0
  8  9  2  0  0  0
  8 33  1  0  0  0
  9 11  1  0  0  0
  9 34  1  0  0  0
 10 11  2  0  0  0
 10 35  1  0  0  0
 11 12  1  0  0  0
 12 13  1  0  0  0
 13 14  1  0  0  0
 13 36  1  0  0  0
 13 37  1  0  0  0
 14 15  1  0  0  0
 14 21  2  0  0  0
 15 16  1  0  0  0
 15 17  1  0  0  0
 15 18  1  0  0  0
 16 38  1  0  0  0
 16 39  1  0  0  0
 16 40  1  0  0  0
 17 41  1  0  0  0
 17 42  1  0  0  0
 17 43  1  0  0  0
 18 19  1  0  0  0
 18 44  1  0  0  0
 18 45  1  0  0  0
 19 20  1  0  0  0
 19 46  1  0  0  0
 19 47  1  0  0  0
 20 21  1  0  0  0
 20 48  1  0  0  0
 20 49  1  0  0  0
 21 22  1  0  0  0
 22 50  1  0  0  0
 22 51  1  0  0  0
 22 52  1  0  0  0
M  CHG  1   5   1
M  END
> <s_m_source_file>
../4rse_ligand.sdf

> <i_m_source_file_index>
1

> <s_epik_input>
W05IMytdW0NIMl1bQ0gyXVtDQEBIXShbT0hdKWMxW2NIXVtjSF1bY0hdYyhbY0hdMSlPW0NIMl1DKEMyKFtDSDNdKVtDSDNdKT1DKFtDSDNdKVtDSDJdW0NIMl1bQ0gyXTI=

> <s_epik_cmdline>
J2VwaWtfYXBwJywgJy1pbWFlJywgJ2xpZ2FuZF9wcm8ubWFlJywgJy1vbWFlJywgJ2xpZ2FuZF9wcmVwLm1hZScsICctbXMnLCAnMScsICctcGgnLCAnNycsICctcGh0JywgJzAuNScsICctbnQn

> <r_lp_tautomer_probability>
1

> <r_epik_Ionization_Penalty>
  0.0010

> <r_epik_Ionization_Penalty_Charging>
  0.0010

> <r_epik_Ionization_Penalty_Neutral>
  0.0000

> <r_epik_State_Penalty>
 -0.0000

> <r_epik_Charging_Adjusted_Penalty>
0.00103573754975076

> <i_epik_Tot_Q>
1

> <i_epik_Tot_abs_Q>
1

$$$$
