4rsp_ligand
                    3D
 Schrodinger Suite 2020-3.
 97 97  0  0  1  0            999 V2000
  -23.9000  -10.4190    0.6950 O   0  0  0  0  0  0
  -23.3740  -10.5510   -0.3940 C   0  0  0  0  0  0
  -24.1440  -10.8590   -1.5600 O   0  0  0  0  0  0
  -25.3550  -11.6340   -1.4540 C   0  0  0  0  0  0
  -25.0720  -12.9040   -0.6980 C   0  0  0  0  0  0
  -25.6900  -11.9250   -2.9310 C   0  0  0  0  0  0
  -26.4490  -10.8050   -0.8210 C   0  0  0  0  0  0
  -22.2650   -9.7150   -0.7830 N   0  0  0  0  0  0
  -21.6370   -8.8800    0.1830 C   0  0  2  0  0  0
  -22.6330   -7.7870    0.5420 C   0  0  0  0  0  0
  -23.5830   -7.4970   -0.1780 O   0  0  0  0  0  0
  -20.3660   -8.3290   -0.4070 C   0  0  0  0  0  0
  -20.6730   -7.8110   -1.6740 O   0  0  0  0  0  0
  -22.4510   -7.1000    1.8060 N   0  0  0  0  0  0
  -23.3520   -6.0960    2.2060 C   0  0  2  0  0  0
  -22.5800   -4.8030    2.3730 C   0  0  0  0  0  0
  -21.6090   -4.7820    3.0890 O   0  0  0  0  0  0
  -23.8530   -6.4820    3.6040 C   0  0  0  0  0  0
  -24.7920   -5.3920    4.2050 C   0  0  0  0  0  0
  -24.5480   -7.8610    3.5930 C   0  0  0  0  0  0
  -23.0050   -3.6000    1.7120 N   0  0  0  0  0  0
  -22.2510   -2.4100    1.9110 C   0  0  2  0  0  0
  -22.6360   -1.9090    3.3120 C   0  0  0  0  0  0
  -23.7860   -1.8980    3.6950 O   0  0  0  0  0  0
  -22.6210   -1.3660    0.8610 C   0  0  0  0  0  0
  -22.1570   -1.8470   -0.5470 C   0  0  0  0  0  0
  -22.6500   -0.8510   -1.6160 C   0  0  0  0  0  0
  -20.6450   -1.9960   -0.5730 C   0  0  0  0  0  0
  -25.0900    1.4450    4.1190 O   0  0  0  0  0  0
  -26.4380    1.3920    4.6340 C   0  0  0  0  0  0
  -27.2660    0.5230    3.7010 C   0  0  0  0  0  0
  -21.6060   -1.4390    4.2080 N   0  0  0  0  0  0
  -21.9770   -0.9880    5.5280 C   0  0  1  0  0  0
  -21.2320   -1.8070    6.5820 C   0  0  0  0  0  0
  -21.7240   -3.2490    6.6510 C   0  0  1  0  0  0
  -21.6680    0.4850    5.6120 C   0  0  0  0  0  0
  -21.0080   -4.0170    7.6740 C   0  0  0  0  0  0
  -19.7960   -4.0580    7.8660 O   0  0  0  0  0  0
  -21.9940   -4.8080    8.4230 N   0  0  0  0  0  0
  -23.2920   -4.5590    7.9250 C   0  0  0  0  0  0
  -23.1500   -3.2360    7.1500 C   0  0  0  0  0  0
  -22.5860    1.3250    4.6820 C   0  0  0  0  0  0
  -24.0990    1.3500    5.1430 C   0  0  0  0  0  0
  -24.4920    0.9420    6.2370 O   0  0  0  0  0  0
  -24.2707  -13.4616   -1.2049 H   0  0  0  0  0  0
  -25.9823  -13.5205   -0.6631 H   0  0  0  0  0  0
  -24.7562  -12.6581    0.3266 H   0  0  0  0  0  0
  -24.8858  -12.5283   -3.3774 H   0  0  0  0  0  0
  -25.7842  -10.9761   -3.4794 H   0  0  0  0  0  0
  -26.6390  -12.4782   -2.9896 H   0  0  0  0  0  0
  -26.1961  -10.6059    0.2309 H   0  0  0  0  0  0
  -27.4009  -11.3539   -0.8717 H   0  0  0  0  0  0
  -26.5461   -9.8519   -1.3615 H   0  0  0  0  0  0
  -21.9043   -9.7213   -1.8222 H   0  0  0  0  0  0
  -21.3759   -9.4784    1.0683 H   0  0  0  0  0  0
  -19.9728   -7.5355    0.2455 H   0  0  0  0  0  0
  -19.6223   -9.1349   -0.4933 H   0  0  0  0  0  0
  -19.8826   -7.3543   -2.2878 H   0  0  0  0  0  0
  -21.6029   -7.3676    2.4534 H   0  0  0  0  0  0
  -24.1308   -6.0315    1.4318 H   0  0  0  0  0  0
  -22.9596   -6.5585    4.2411 H   0  0  0  0  0  0
  -24.2754   -4.4208    4.2020 H   0  0  0  0  0  0
  -25.0555   -5.6640    5.2378 H   0  0  0  0  0  0
  -25.7075   -5.3222    3.5993 H   0  0  0  0  0  0
  -23.8668   -8.6115    3.1654 H   0  0  0  0  0  0
  -25.4621   -7.8060    2.9836 H   0  0  0  0  0  0
  -24.8101   -8.1477    4.6221 H   0  0  0  0  0  0
  -23.8931   -3.5863    1.0631 H   0  0  0  0  0  0
  -21.1853   -2.6607    1.8037 H   0  0  0  0  0  0
  -23.7115   -1.2222    0.8554 H   0  0  0  0  0  0
  -22.1267   -0.4131    1.1013 H   0  0  0  0  0  0
  -22.5715   -2.8388   -0.7807 H   0  0  0  0  0  0
  -23.7459   -0.7712   -1.5651 H   0  0  0  0  0  0
  -22.3543   -1.2077   -2.6136 H   0  0  0  0  0  0
  -22.2015    0.1364   -1.4318 H   0  0  0  0  0  0
  -20.3338   -2.7124    0.2015 H   0  0  0  0  0  0
  -20.1770   -1.0197   -0.3788 H   0  0  0  0  0  0
  -20.3298   -2.3638   -1.5606 H   0  0  0  0  0  0
  -26.4274    0.9593    5.6453 H   0  0  0  0  0  0
  -26.8552    2.4090    4.6747 H   0  0  0  0  0  0
  -28.2997    0.4670    4.0730 H   0  0  0  0  0  0
  -26.8348   -0.4882    3.6628 H   0  0  0  0  0  0
  -27.2626    0.9615    2.6922 H   0  0  0  0  0  0
  -20.5510   -1.4215    3.8971 H   0  0  0  0  0  0
  -23.0574   -1.1419    5.6660 H   0  0  0  0  0  0
  -20.1588   -1.8250    6.3412 H   0  0  0  0  0  0
  -21.3780   -1.3502    7.5720 H   0  0  0  0  0  0
  -21.5762   -3.7149    5.6656 H   0  0  0  0  0  0
  -21.8153    0.8322    6.6453 H   0  0  0  0  0  0
  -20.6239    0.6583    5.3123 H   0  0  0  0  0  0
  -21.8502   -5.5119    9.2560 H   0  0  0  0  0  0
  -23.5999   -5.3893    7.2724 H   0  0  0  0  0  0
  -23.9967   -4.4723    8.7652 H   0  0  0  0  0  0
  -23.3039   -2.3601    7.7974 H   0  0  0  0  0  0
  -23.8379   -3.1840    6.2932 H   0  0  0  0  0  0
  -22.2315    2.3661    4.6600 H   0  0  0  0  0  0
  -22.5588    0.9068    3.6649 H   0  0  0  0  0  0
  1  2  2  0  0  0
  2  3  1  0  0  0
  2  8  1  0  0  0
  3  4  1  0  0  0
  4  5  1  0  0  0
  4  6  1  0  0  0
  4  7  1  0  0  0
  5 45  1  0  0  0
  5 46  1  0  0  0
  5 47  1  0  0  0
  6 48  1  0  0  0
  6 49  1  0  0  0
  6 50  1  0  0  0
  7 51  1  0  0  0
  7 52  1  0  0  0
  7 53  1  0  0  0
  8  9  1  0  0  0
  8 54  1  0  0  0
  9 10  1  0  0  0
  9 12  1  0  0  0
  9 55  1  0  0  0
 10 11  2  0  0  0
 10 14  1  0  0  0
 12 13  1  0  0  0
 12 56  1  0  0  0
 12 57  1  0  0  0
 13 58  1  0  0  0
 14 15  1  0  0  0
 14 59  1  0  0  0
 15 16  1  0  0  0
 15 18  1  0  0  0
 15 60  1  0  0  0
 16 17  2  0  0  0
 16 21  1  0  0  0
 18 19  1  0  0  0
 18 20  1  0  0  0
 18 61  1  0  0  0
 19 62  1  0  0  0
 19 63  1  0  0  0
 19 64  1  0  0  0
 20 65  1  0  0  0
 20 66  1  0  0  0
 20 67  1  0  0  0
 21 22  1  0  0  0
 21 68  1  0  0  0
 22 23  1  0  0  0
 22 25  1  0  0  0
 22 69  1  0  0  0
 23 24  2  0  0  0
 23 32  1  0  0  0
 25 26  1  0  0  0
 25 70  1  0  0  0
 25 71  1  0  0  0
 26 27  1  0  0  0
 26 28  1  0  0  0
 26 72  1  0  0  0
 27 73  1  0  0  0
 27 74  1  0  0  0
 27 75  1  0  0  0
 28 76  1  0  0  0
 28 77  1  0  0  0
 28 78  1  0  0  0
 29 30  1  0  0  0
 29 43  1  0  0  0
 30 31  1  0  0  0
 30 79  1  0  0  0
 30 80  1  0  0  0
 31 81  1  0  0  0
 31 82  1  0  0  0
 31 83  1  0  0  0
 32 33  1  0  0  0
 32 84  1  0  0  0
 33 34  1  0  0  0
 33 36  1  0  0  0
 33 85  1  0  0  0
 34 35  1  0  0  0
 34 86  1  0  0  0
 34 87  1  0  0  0
 35 37  1  0  0  0
 35 41  1  0  0  0
 35 88  1  0  0  0
 36 42  1  0  0  0
 36 89  1  0  0  0
 36 90  1  0  0  0
 37 38  2  0  0  0
 37 39  1  0  0  0
 39 40  1  0  0  0
 39 91  1  0  0  0
 40 41  1  0  0  0
 40 92  1  0  0  0
 40 93  1  0  0  0
 41 94  1  0  0  0
 41 95  1  0  0  0
 42 43  1  0  0  0
 42 96  1  0  0  0
 42 97  1  0  0  0
 43 44  2  0  0  0
M  END
> <s_m_source_file>
../4rsp_ligand.sdf

> <i_m_source_file_index>
1

> <s_epik_input>
W0NIM11DKFtDSDNdKShbQ0gzXSlPQyg9TylbTkhdW0NAQEhdKFtDSDJdW09IXSlDKD1PKVtOSF1bQ0BASF0oW0NIXShbQ0gzXSlbQ0gzXSlDKD1PKVtOSF1bQ0BASF0oW0NIMl1bQ0hdKFtDSDNdKVtDSDNdKUMoPU8pW05IXVtDQEBIXShbQ0gyXVtDQEhdMUMoPU8pW05IXVtDSDJdW0NIMl0xKVtDSDJdW0NIMl1DKD1PKU9bQ0gyXVtDSDNd

> <s_epik_cmdline>
J2VwaWtfYXBwJywgJy1pbWFlJywgJ2xpZ2FuZF9wcm8ubWFlJywgJy1vbWFlJywgJ2xpZ2FuZF9wcmVwLm1hZScsICctbXMnLCAnMScsICctcGgnLCAnNycsICctcGh0JywgJzAuNScsICctbnQn

> <r_lp_tautomer_probability>
1

> <r_epik_Ionization_Penalty>
  0.0000

> <r_epik_Ionization_Penalty_Charging>
  0.0000

> <r_epik_Ionization_Penalty_Neutral>
  0.0000

> <r_epik_State_Penalty>
 -0.0000

> <r_epik_Charging_Adjusted_Penalty>
0

> <i_epik_Tot_Q>
0

> <i_epik_Tot_abs_Q>
0

> <s_epik_Chemistry_Notes>
This compound has an ester and may undergo hydrolysis at high or low pH.

$$$$
