4rss_ligand
                    3D
 Schrodinger Suite 2020-3.
 59 63  0  0  1  0            999 V2000
  -23.4660   -4.3730  -13.8210 C   0  0  0  0  0  0
  -22.2070   -5.1250  -13.4870 N   0  0  0  0  0  0
  -22.1160   -6.0420  -12.5490 C   0  0  0  0  0  0
  -23.2580   -6.5220  -11.6660 C   0  0  0  0  0  0
  -20.8140   -6.4920  -12.5250 C   0  0  0  0  0  0
  -20.2790   -7.5710  -11.6130 C   0  0  0  0  0  0
  -20.1030   -5.7970  -13.4910 C   0  0  0  0  0  0
  -18.7770   -5.8310  -13.9190 C   0  0  0  0  0  0
  -21.0220   -4.9440  -14.0720 C   0  0  0  0  0  0
  -20.6290   -4.0940  -15.0980 C   0  0  0  0  0  0
  -19.3190   -4.1020  -15.5290 C   0  0  0  0  0  0
  -18.3700   -4.9690  -14.9480 C   0  0  0  0  0  0
  -17.1320   -4.9040  -15.4940 N   0  0  0  0  0  0
  -16.0650   -5.5850  -15.1320 C   0  0  0  0  0  0
  -16.0220   -6.3740  -14.0350 N   0  0  0  0  0  0
  -14.9620   -5.3720  -15.8470 N   0  0  0  0  0  0
  -13.8230   -5.9710  -15.5590 C   0  0  0  0  0  0
  -13.7480   -6.8480  -14.4600 C   0  0  0  0  0  0
  -14.8720   -7.0060  -13.7030 C   0  0  0  0  0  0
  -14.8800   -7.8920  -12.6830 N   0  0  0  0  0  0
  -15.9950   -8.2960  -12.0540 C   0  0  0  0  0  0
  -13.8810   -8.5450  -12.3290 N   0  0  0  0  0  0
  -14.2660   -9.3760  -11.3580 C   0  0  0  0  0  0
  -13.2970  -10.3150  -10.6460 C   0  0  0  0  0  0
  -15.6500   -9.2400  -11.1730 C   0  0  0  0  0  0
  -16.6620   -9.9730  -10.2130 C   0  0  0  0  0  0
  -17.1360  -11.1170  -10.9930 N   0  3  2  0  0  0
  -18.0820  -10.9490  -12.0810 C   0  0  0  0  0  0
  -18.2840  -11.8430  -10.3130 C   0  0  0  0  0  0
  -18.7680  -12.2190  -11.6910 C   0  0  1  0  0  0
  -20.1810  -11.9830  -11.9390 O   0  0  0  0  0  0
  -24.2868   -4.7299  -13.1815 H   0  0  0  0  0  0
  -23.7242   -4.5410  -14.8770 H   0  0  0  0  0  0
  -23.3077   -3.2982  -13.6487 H   0  0  0  0  0  0
  -24.1758   -5.9727  -11.9228 H   0  0  0  0  0  0
  -23.0060   -6.3419  -10.6105 H   0  0  0  0  0  0
  -23.4179   -7.5984  -11.8263 H   0  0  0  0  0  0
  -21.0857   -7.9297  -10.9568 H   0  0  0  0  0  0
  -19.4625   -7.1615  -11.0001 H   0  0  0  0  0  0
  -19.8993   -8.4075  -12.2181 H   0  0  0  0  0  0
  -18.0659   -6.5181  -13.4603 H   0  0  0  0  0  0
  -21.3531   -3.4234  -15.5606 H   0  0  0  0  0  0
  -19.0126   -3.4290  -16.3298 H   0  0  0  0  0  0
  -16.9374   -4.2240  -16.3365 H   0  0  0  0  0  0
  -12.9402   -5.7873  -16.1713 H   0  0  0  0  0  0
  -12.8269   -7.3805  -14.2230 H   0  0  0  0  0  0
  -17.0030   -7.9207  -12.2305 H   0  0  0  0  0  0
  -12.2809  -10.1588  -11.0372 H   0  0  0  0  0  0
  -13.6012  -11.3575  -10.8213 H   0  0  0  0  0  0
  -13.3104  -10.1057   -9.5662 H   0  0  0  0  0  0
  -16.1378  -10.2869   -9.2983 H   0  0  0  0  0  0
  -17.4802   -9.2866   -9.9495 H   0  0  0  0  0  0
  -16.1249  -11.4827  -11.2252 H   0  0  0  0  0  0
  -18.6295  -10.0042  -11.9482 H   0  0  0  0  0  0
  -17.5401  -10.9273  -13.0380 H   0  0  0  0  0  0
  -17.8829  -12.6271   -9.6540 H   0  0  0  0  0  0
  -18.8690  -11.1270   -9.7170 H   0  0  0  0  0  0
  -18.6368  -13.2354  -12.0906 H   0  0  0  0  0  0
  -20.6161  -12.2295  -12.9187 H   0  0  0  0  0  0
  1  2  1  0  0  0
  1 32  1  0  0  0
  1 33  1  0  0  0
  1 34  1  0  0  0
  2  3  1  0  0  0
  2  9  1  0  0  0
  3  4  1  0  0  0
  3  5  2  0  0  0
  4 35  1  0  0  0
  4 36  1  0  0  0
  4 37  1  0  0  0
  5  6  1  0  0  0
  5  7  1  0  0  0
  6 38  1  0  0  0
  6 39  1  0  0  0
  6 40  1  0  0  0
  7  8  2  0  0  0
  7  9  1  0  0  0
  8 12  1  0  0  0
  8 41  1  0  0  0
  9 10  2  0  0  0
 10 11  1  0  0  0
 10 42  1  0  0  0
 11 12  2  0  0  0
 11 43  1  0  0  0
 12 13  1  0  0  0
 13 14  1  0  0  0
 13 44  1  0  0  0
 14 15  2  0  0  0
 14 16  1  0  0  0
 15 19  1  0  0  0
 16 17  2  0  0  0
 17 18  1  0  0  0
 17 45  1  0  0  0
 18 19  2  0  0  0
 18 46  1  0  0  0
 19 20  1  0  0  0
 20 21  1  0  0  0
 20 22  1  0  0  0
 21 25  2  0  0  0
 21 47  1  0  0  0
 22 23  2  0  0  0
 23 24  1  0  0  0
 23 25  1  0  0  0
 24 48  1  0  0  0
 24 49  1  0  0  0
 24 50  1  0  0  0
 25 26  1  0  0  0
 26 27  1  0  0  0
 26 51  1  0  0  0
 26 52  1  0  0  0
 27 28  1  0  0  0
 27 29  1  0  0  0
 27 53  1  0  0  0
 28 30  1  0  0  0
 28 54  1  0  0  0
 28 55  1  0  0  0
 29 30  1  0  0  0
 29 56  1  0  0  0
 29 57  1  0  0  0
 30 31  1  0  0  0
 30 58  1  0  0  0
 31 59  1  0  0  0
M  CHG  1  27   1
M  END
> <s_m_source_file>
../4rss_ligand.sdf

> <i_m_source_file_index>
1

> <s_epik_input>
W0NIM11jMWMoW0NIM10pbihbQ0gzXSljKGMxMilbY0hdW2NIXWMoW2NIXTIpW05IXWMzbmMoW2NIXVtjSF1uMyktbjRbY0hdYyhjKG40KVtDSDNdKVtDSDJdW05AQEgrXTVbQ0gyXVtDQEBIXShbQ0gyXTUpW09IXQ==

> <s_epik_cmdline>
J2VwaWtfYXBwJywgJy1pbWFlJywgJ2xpZ2FuZF9wcm8ubWFlJywgJy1vbWFlJywgJ2xpZ2FuZF9wcmVwLm1hZScsICctbXMnLCAnMScsICctcGgnLCAnNycsICctcGh0JywgJzAuNScsICctbnQn

> <r_lp_tautomer_probability>
1

> <r_epik_Ionization_Penalty>
  0.0228

> <r_epik_Ionization_Penalty_Charging>
  0.0228

> <r_epik_Ionization_Penalty_Neutral>
  0.0000

> <r_epik_State_Penalty>
  0.0184

> <r_epik_Charging_Adjusted_Penalty>
0.0412834468088184

> <i_epik_Tot_Q>
1

> <i_epik_Tot_abs_Q>
1

$$$$
