4rt0_ligand
                    3D
 Schrodinger Suite 2020-3.
 68 74  0  0  1  0            999 V2000
   61.9280   13.4630   81.4050 P   0  0  1  0  0  0
   62.6370   12.6650   80.3670 O   0  0  0  0  0  0
   61.0210   14.3730   80.5910 O   0  5  0  0  0  0
   61.0010   12.6130   82.3550 O   0  0  0  0  0  0
   60.1710   13.2120   83.2570 C   0  0  0  0  0  0
   59.5930   12.3930   84.2890 C   0  0  1  0  0  0
   59.2030   11.1910   83.7320 O   0  0  0  0  0  0
   60.6300   11.9750   85.3070 C   0  0  1  0  0  0
   60.7140   12.8390   86.4070 O   0  0  0  0  0  0
   60.1980   10.7740   85.7760 C   0  0  1  0  0  0
   59.2030   10.9400   86.8030 O   0  0  0  0  0  0
   59.5910   10.1750   84.6190 C   0  0  2  0  0  0
   60.4870    9.2870   83.9060 N   0  0  0  0  0  0
   61.0170    9.4520   82.6830 C   0  0  0  0  0  0
   61.7730    8.3740   82.4110 N   0  0  0  0  0  0
   61.7150    7.5160   83.4520 C   0  0  0  0  0  0
   62.2630    6.2670   83.7610 C   0  0  0  0  0  0
   63.0680    5.6050   82.9110 O   0  0  0  0  0  0
   61.9760    5.7110   84.9400 N   0  0  0  0  0  0
   61.1750    6.3330   85.8130 C   0  0  0  0  0  0
   60.9100    5.6670   87.0620 N   0  0  0  0  0  0
   60.6250    7.5240   85.5790 N   0  0  0  0  0  0
   60.8900    8.1190   84.4070 C   0  0  0  0  0  0
   62.1210   12.8310   87.1330 P   0  0  2  0  0  0
   62.5510   11.4670   87.6250 O   0  5  0  0  0  0
   61.9080   13.6460   88.3610 O   0  0  0  0  0  0
   63.2220   13.6000   86.3200 O   0  0  0  0  0  0
   62.8850   14.5710   85.3310 C   0  0  0  0  0  0
   63.8030   14.8770   84.2780 C   0  0  1  0  0  0
   65.2180   14.7850   84.7400 O   0  0  0  0  0  0
   63.6860   13.9160   83.1520 C   0  0  1  0  0  0
   62.8930   14.4140   82.1420 O   0  0  0  0  0  0
   65.0670   13.7160   82.6610 C   0  0  1  0  0  0
   65.3670   14.5470   81.6120 O   0  0  0  0  0  0
   65.9470   14.0120   83.8260 C   0  0  2  0  0  0
   66.3790   12.8170   84.6160 N   0  0  0  0  0  0
   66.0830   12.6450   85.8930 C   0  0  0  0  0  0
   66.5930   11.4800   86.3230 N   0  0  0  0  0  0
   67.2310   10.9150   85.3000 C   0  0  0  0  0  0
   67.9370    9.7350   85.1390 C   0  0  0  0  0  0
   68.0880    8.8530   86.2370 O   0  0  0  0  0  0
   68.4620    9.4310   83.9500 N   0  0  0  0  0  0
   68.3300   10.2580   82.9170 C   0  0  0  0  0  0
   68.8900    9.9120   81.6990 N   0  0  0  0  0  0
   67.6450   11.4070   83.0360 N   0  0  0  0  0  0
   67.0930   11.7540   84.2040 C   0  0  0  0  0  0
   60.7193   14.0016   83.7917 H   0  0  0  0  0  0
   59.3135   13.6544   82.7288 H   0  0  0  0  0  0
   58.7353   12.9538   84.6888 H   0  0  0  0  0  0
   61.6506   11.9153   84.9010 H   0  0  0  0  0  0
   61.0434   10.2191   86.2088 H   0  0  0  0  0  0
   59.4796   11.3856   87.7699 H   0  0  0  0  0  0
   58.7167    9.6049   84.9664 H   0  0  0  0  0  0
   60.8617   10.3085   82.0269 H   0  0  0  0  0  0
   62.3994    4.7305   85.2033 H   0  0  0  0  0  0
   61.3582    4.6836   87.2668 H   0  0  0  0  0  0
   60.2594    6.1417   87.8112 H   0  0  0  0  0  0
   61.9742   14.2544   84.8017 H   0  0  0  0  0  0
   62.7083   15.5424   85.8160 H   0  0  0  0  0  0
   63.5174   15.8983   83.9857 H   0  0  0  0  0  0
   63.1658   12.9871   83.4287 H   0  0  0  0  0  0
   65.2171   12.7250   82.2077 H   0  0  0  0  0  0
   64.8094   14.4637   80.6674 H   0  0  0  0  0  0
   66.8216   14.5455   83.4255 H   0  0  0  0  0  0
   65.5114   13.3434   86.5042 H   0  0  0  0  0  0
   69.0112    8.4874   83.8163 H   0  0  0  0  0  0
   69.4515    8.9714   81.5992 H   0  0  0  0  0  0
   68.7734   10.5777   80.8311 H   0  0  0  0  0  0
  1  2  2  0  0  0
  1  3  1  0  0  0
  1  4  1  0  0  0
  1 32  1  0  0  0
  4  5  1  0  0  0
  5  6  1  0  0  0
  5 47  1  0  0  0
  5 48  1  0  0  0
  6  7  1  0  0  0
  6  8  1  0  0  0
  6 49  1  0  0  0
  7 12  1  0  0  0
  8  9  1  0  0  0
  8 10  1  0  0  0
  8 50  1  0  0  0
  9 24  1  0  0  0
 10 11  1  0  0  0
 10 12  1  0  0  0
 10 51  1  0  0  0
 11 52  1  0  0  0
 12 13  1  0  0  0
 12 53  1  0  0  0
 13 14  1  0  0  0
 13 23  1  0  0  0
 14 15  2  0  0  0
 14 54  1  0  0  0
 15 16  1  0  0  0
 16 17  1  0  0  0
 16 23  2  0  0  0
 17 18  2  0  0  0
 17 19  1  0  0  0
 19 20  1  0  0  0
 19 55  1  0  0  0
 20 21  1  0  0  0
 20 22  2  0  0  0
 21 56  1  0  0  0
 21 57  1  0  0  0
 22 23  1  0  0  0
 24 25  1  0  0  0
 24 26  2  0  0  0
 24 27  1  0  0  0
 27 28  1  0  0  0
 28 29  1  0  0  0
 28 58  1  0  0  0
 28 59  1  0  0  0
 29 30  1  0  0  0
 29 31  1  0  0  0
 29 60  1  0  0  0
 30 35  1  0  0  0
 31 32  1  0  0  0
 31 33  1  0  0  0
 31 61  1  0  0  0
 33 34  1  0  0  0
 33 35  1  0  0  0
 33 62  1  0  0  0
 34 63  1  0  0  0
 35 36  1  0  0  0
 35 64  1  0  0  0
 36 37  1  0  0  0
 36 46  1  0  0  0
 37 38  2  0  0  0
 37 65  1  0  0  0
 38 39  1  0  0  0
 39 40  1  0  0  0
 39 46  2  0  0  0
 40 41  2  0  0  0
 40 42  1  0  0  0
 42 43  1  0  0  0
 42 66  1  0  0  0
 43 44  1  0  0  0
 43 45  2  0  0  0
 44 67  1  0  0  0
 44 68  1  0  0  0
 45 46  1  0  0  0
M  CHG  2   3  -1  25  -1
M  END
> <s_m_source_file>
../4rt0_ligand.sdf

> <i_m_source_file_index>
1

> <s_epik_input>
Tz1jMVtuSF1jKFtOSDJdKW5jKGMxMiluKFtjSF1uMilbQ0BIXShPMylbQ0BIXShbT0hdKVtDQEhdKE9bUEBdKD1PKShbT0hdKU9bQ0gyXTQpW0NASF0zW0NIMl1PW1BAXSg9TykoW09IXSlPW0NASF0oW0NAQEhdNDUpW0NAQEhdKFtPSF0pW0NAQEhdKE81KW4oW2NIXW42KWMoYzY3KW5jKFtOSDJdKVtuSF1jNz1P

> <s_epik_cmdline>
J2VwaWtfYXBwJywgJy1pbWFlJywgJ2xpZ2FuZF9wcm8ubWFlJywgJy1vbWFlJywgJ2xpZ2FuZF9wcmVwLm1hZScsICctbXMnLCAnMScsICctcGgnLCAnNycsICctcGh0JywgJzAuNScsICctbnQn

> <r_lp_tautomer_probability>
1

> <r_epik_Ionization_Penalty>
  0.0042

> <r_epik_Ionization_Penalty_Charging>
  0.0040

> <r_epik_Ionization_Penalty_Neutral>
  0.0002

> <r_epik_State_Penalty>
 -0.0000

> <r_epik_Charging_Adjusted_Penalty>
0.00400193045734951

> <i_epik_Tot_Q>
-2

> <i_epik_Tot_abs_Q>
2

> <s_epik_Chemistry_Notes>
This compound contains an acetal/aminal-like group ( X-CH(R)-Y where X, Y are N, S, or O) that may be acid/base labile, releasing an aldehyde.

$$$$
