4rt1_ligand
                    3D
 Schrodinger Suite 2020-3.
 68 74  0  0  1  0            999 V2000
   25.9110  -38.8180  147.3430 P   0  0  1  0  0  0
   26.9990  -37.8340  147.5120 O   0  0  0  0  0  0
   24.7890  -38.6190  148.3370 O   0  5  0  0  0  0
   25.3790  -38.7170  145.8520 O   0  0  0  0  0  0
   24.3150  -39.4530  145.3800 C   0  0  0  0  0  0
   24.1150  -39.3440  143.9380 C   0  0  1  0  0  0
   23.8580  -38.0110  143.5890 O   0  0  0  0  0  0
   25.3740  -39.6800  143.1660 C   0  0  1  0  0  0
   25.4480  -41.0940  142.9420 O   0  0  0  0  0  0
   25.2230  -38.9440  141.9800 C   0  0  1  0  0  0
   24.3590  -39.5500  140.9780 O   0  0  0  0  0  0
   24.6040  -37.6950  142.4260 C   0  0  2  0  0  0
   25.5610  -36.6720  142.8670 N   0  0  0  0  0  0
   25.7870  -36.2080  144.1220 C   0  0  0  0  0  0
   26.7510  -35.2710  144.0790 N   0  0  0  0  0  0
   27.1490  -35.1230  142.7790 C   0  0  0  0  0  0
   28.0910  -34.3310  142.0940 C   0  0  0  0  0  0
   28.8830  -33.4400  142.7100 O   0  0  0  0  0  0
   28.2020  -34.4490  140.7690 N   0  0  0  0  0  0
   27.4360  -35.3490  140.1190 C   0  0  0  0  0  0
   27.6120  -35.4570  138.7100 N   0  0  0  0  0  0
   26.5110  -36.1300  140.6980 N   0  0  0  0  0  0
   26.3710  -36.0080  142.0360 C   0  0  0  0  0  0
   26.9040  -41.7540  142.7630 P   0  0  2  0  0  0
   27.7520  -40.8860  141.9010 O   0  5  0  0  0  0
   26.6260  -43.1110  142.2610 O   0  0  0  0  0  0
   27.5260  -41.8070  144.1840 O   0  0  0  0  0  0
   26.9310  -42.4550  145.3170 C   0  0  0  0  0  0
   27.5110  -42.1620  146.5980 C   0  0  1  0  0  0
   28.9250  -42.6570  146.6260 O   0  0  0  0  0  0
   27.5980  -40.7070  146.9460 C   0  0  1  0  0  0
   26.4020  -40.2630  147.5550 O   0  0  0  0  0  0
   28.7530  -40.6890  147.8740 C   0  0  1  0  0  0
   28.3930  -41.0600  149.1730 O   0  0  0  0  0  0
   29.6720  -41.7430  147.3550 C   0  0  2  0  0  0
   30.7490  -41.2870  146.4080 N   0  0  0  0  0  0
   30.6250  -41.0740  145.0950 C   0  0  0  0  0  0
   31.8060  -40.6600  144.6110 N   0  0  0  0  0  0
   32.6900  -40.6720  145.6290 C   0  0  0  0  0  0
   34.0340  -40.3730  145.7910 C   0  0  0  0  0  0
   34.8120  -39.9690  144.6960 O   0  0  0  0  0  0
   34.6170  -40.4760  146.9900 N   0  0  0  0  0  0
   33.9140  -40.8400  148.0550 C   0  0  0  0  0  0
   34.5400  -40.9190  149.2750 N   0  0  0  0  0  0
   32.6180  -41.1250  147.9690 N   0  0  0  0  0  0
   32.0170  -41.0550  146.7670 C   0  0  0  0  0  0
   24.4758  -40.5172  145.6072 H   0  0  0  0  0  0
   23.3886  -39.1105  145.8643 H   0  0  0  0  0  0
   23.2500  -39.9830  143.7070 H   0  0  0  0  0  0
   26.3412  -39.4324  143.6279 H   0  0  0  0  0  0
   26.2154  -38.8747  141.5106 H   0  0  0  0  0  0
   24.6439  -40.5041  140.5105 H   0  0  0  0  0  0
   24.0051  -37.3039  141.5904 H   0  0  0  0  0  0
   25.2697  -36.5415  145.0216 H   0  0  0  0  0  0
   28.9129  -33.8157  140.2181 H   0  0  0  0  0  0
   28.3606  -34.8331  138.1998 H   0  0  0  0  0  0
   26.9993  -36.1643  138.1318 H   0  0  0  0  0  0
   25.8728  -42.1643  145.3917 H   0  0  0  0  0  0
   27.0038  -43.5459  145.1956 H   0  0  0  0  0  0
   26.8139  -42.6668  147.2830 H   0  0  0  0  0  0
   27.6886  -40.0043  146.1046 H   0  0  0  0  0  0
   29.1710  -39.6768  147.9778 H   0  0  0  0  0  0
   27.7128  -40.4237  149.7582 H   0  0  0  0  0  0
   30.1255  -42.2019  148.2459 H   0  0  0  0  0  0
   29.7142  -41.2136  144.5127 H   0  0  0  0  0  0
   35.6895  -40.2581  147.1006 H   0  0  0  0  0  0
   35.6117  -40.6858  149.3594 H   0  0  0  0  0  0
   33.9697  -41.2155  150.1676 H   0  0  0  0  0  0
  1  2  2  0  0  0
  1  3  1  0  0  0
  1  4  1  0  0  0
  1 32  1  0  0  0
  4  5  1  0  0  0
  5  6  1  0  0  0
  5 47  1  0  0  0
  5 48  1  0  0  0
  6  7  1  0  0  0
  6  8  1  0  0  0
  6 49  1  0  0  0
  7 12  1  0  0  0
  8  9  1  0  0  0
  8 10  1  0  0  0
  8 50  1  0  0  0
  9 24  1  0  0  0
 10 11  1  0  0  0
 10 12  1  0  0  0
 10 51  1  0  0  0
 11 52  1  0  0  0
 12 13  1  0  0  0
 12 53  1  0  0  0
 13 14  1  0  0  0
 13 23  1  0  0  0
 14 15  2  0  0  0
 14 54  1  0  0  0
 15 16  1  0  0  0
 16 17  1  0  0  0
 16 23  2  0  0  0
 17 18  2  0  0  0
 17 19  1  0  0  0
 19 20  1  0  0  0
 19 55  1  0  0  0
 20 21  1  0  0  0
 20 22  2  0  0  0
 21 56  1  0  0  0
 21 57  1  0  0  0
 22 23  1  0  0  0
 24 25  1  0  0  0
 24 26  2  0  0  0
 24 27  1  0  0  0
 27 28  1  0  0  0
 28 29  1  0  0  0
 28 58  1  0  0  0
 28 59  1  0  0  0
 29 30  1  0  0  0
 29 31  1  0  0  0
 29 60  1  0  0  0
 30 35  1  0  0  0
 31 32  1  0  0  0
 31 33  1  0  0  0
 31 61  1  0  0  0
 33 34  1  0  0  0
 33 35  1  0  0  0
 33 62  1  0  0  0
 34 63  1  0  0  0
 35 36  1  0  0  0
 35 64  1  0  0  0
 36 37  1  0  0  0
 36 46  1  0  0  0
 37 38  2  0  0  0
 37 65  1  0  0  0
 38 39  1  0  0  0
 39 40  1  0  0  0
 39 46  2  0  0  0
 40 41  2  0  0  0
 40 42  1  0  0  0
 42 43  1  0  0  0
 42 66  1  0  0  0
 43 44  1  0  0  0
 43 45  2  0  0  0
 44 67  1  0  0  0
 44 68  1  0  0  0
 45 46  1  0  0  0
M  CHG  2   3  -1  25  -1
M  END
> <s_m_source_file>
../4rt1_ligand.sdf

> <i_m_source_file_index>
1

> <s_epik_input>
Tz1jMVtuSF1jKFtOSDJdKW5jKGMxMiluKFtjSF1uMilbQ0BIXShPMylbQ0BIXShbT0hdKVtDQEhdKE9bUEBdKD1PKShbT0hdKU9bQ0gyXTQpW0NASF0zW0NIMl1PW1BAXSg9TykoW09IXSlPW0NASF0oW0NAQEhdNDUpW0NAQEhdKFtPSF0pW0NAQEhdKE81KW4oW2NIXW42KWMoYzY3KW5jKFtOSDJdKVtuSF1jNz1P

> <s_epik_cmdline>
J2VwaWtfYXBwJywgJy1pbWFlJywgJ2xpZ2FuZF9wcm8ubWFlJywgJy1vbWFlJywgJ2xpZ2FuZF9wcmVwLm1hZScsICctbXMnLCAnMScsICctcGgnLCAnNycsICctcGh0JywgJzAuNScsICctbnQn

> <r_lp_tautomer_probability>
1

> <r_epik_Ionization_Penalty>
  0.0042

> <r_epik_Ionization_Penalty_Charging>
  0.0040

> <r_epik_Ionization_Penalty_Neutral>
  0.0002

> <r_epik_State_Penalty>
 -0.0000

> <r_epik_Charging_Adjusted_Penalty>
0.00400193045734951

> <i_epik_Tot_Q>
-2

> <i_epik_Tot_abs_Q>
2

> <s_epik_Chemistry_Notes>
This compound contains an acetal/aminal-like group ( X-CH(R)-Y where X, Y are N, S, or O) that may be acid/base labile, releasing an aldehyde.

$$$$
