4ruu_ligand
                    3D
 Schrodinger Suite 2020-3.
 50 50  0  0  1  0            999 V2000
    6.9630   -1.7770    5.7420 C   0  0  0  0  0  0
    7.2490   -2.7830    6.8400 C   0  0  0  0  0  0
    7.8290   -4.0500    6.2490 C   0  0  0  0  0  0
    6.7200   -4.7300    5.4660 C   0  0  0  0  0  0
    6.1470   -3.7760    4.4430 C   0  0  0  0  0  0
    6.2520   -2.4370    4.5740 C   0  0  0  0  0  0
    5.7070   -1.4970    3.5670 C   0  0  0  0  0  0
    4.4220   -1.3320    3.2700 C   0  0  0  0  0  0
    4.0860   -0.3230    2.2560 C   0  0  0  0  0  0
    2.8730   -0.2580    1.7050 C   0  0  0  0  0  0
    2.6210    0.7850    0.7150 C   0  0  0  0  0  0
    1.4200    0.9030    0.1630 C   0  0  0  0  0  0
    1.1650    1.9610   -0.8290 C   0  0  0  0  0  0
   -0.0840    2.4140   -0.9800 C   0  0  0  0  0  0
   -0.3710    3.4630   -1.9540 C   0  0  0  0  0  0
    8.2550   -1.1620    5.2150 C   0  0  0  0  0  0
    6.0980   -0.6710    6.3400 C   0  0  0  0  0  0
    5.4450   -4.4010    3.2670 C   0  0  0  0  0  0
    5.1270    0.6720    1.8580 C   0  0  0  0  0  0
    2.2830    2.5130   -1.6660 C   0  0  0  0  0  0
    7.9702   -2.3542    7.5513 H   0  0  0  0  0  0
    6.3146   -3.0262    7.3670 H   0  0  0  0  0  0
    8.6692   -3.7944    5.5866 H   0  0  0  0  0  0
    8.1863   -4.7025    7.0593 H   0  0  0  0  0  0
    7.1241   -5.6132    4.9497 H   0  0  0  0  0  0
    5.9220   -5.0418    6.1559 H   0  0  0  0  0  0
    6.4727   -0.9047    3.0446 H   0  0  0  0  0  0
    3.6579   -1.9393    3.7773 H   0  0  0  0  0  0
    2.0957   -0.9783    1.9999 H   0  0  0  0  0  0
    3.4288    1.4738    0.4268 H   0  0  0  0  0  0
    0.6140    0.2102    0.4464 H   0  0  0  0  0  0
   -0.8982    1.9962   -0.3696 H   0  0  0  0  0  0
   -1.4450    3.6998   -1.9321 H   0  0  0  0  0  0
   -0.0926    3.1155   -2.9599 H   0  0  0  0  0  0
    0.2084    4.3640   -1.7039 H   0  0  0  0  0  0
    8.8866   -1.9513    4.7813 H   0  0  0  0  0  0
    8.7929   -0.6747    6.0416 H   0  0  0  0  0  0
    8.0175   -0.4163    4.4420 H   0  0  0  0  0  0
    5.1625   -1.1042    6.7236 H   0  0  0  0  0  0
    5.8663    0.0733    5.5639 H   0  0  0  0  0  0
    6.6418   -0.1850    7.1635 H   0  0  0  0  0  0
    5.4768   -5.4965    3.3609 H   0  0  0  0  0  0
    5.9475   -4.0979    2.3366 H   0  0  0  0  0  0
    4.3978   -4.0652    3.2443 H   0  0  0  0  0  0
    6.0577    0.4687    2.4079 H   0  0  0  0  0  0
    4.7746    1.6865    2.0960 H   0  0  0  0  0  0
    5.3151    0.5933    0.7771 H   0  0  0  0  0  0
    3.2253    2.0151   -1.3936 H   0  0  0  0  0  0
    2.3749    3.5946   -1.4878 H   0  0  0  0  0  0
    2.0677    2.3336   -2.7297 H   0  0  0  0  0  0
  1  2  1  0  0  0
  1  6  1  0  0  0
  1 16  1  0  0  0
  1 17  1  0  0  0
  2  3  1  0  0  0
  2 21  1  0  0  0
  2 22  1  0  0  0
  3  4  1  0  0  0
  3 23  1  0  0  0
  3 24  1  0  0  0
  4  5  1  0  0  0
  4 25  1  0  0  0
  4 26  1  0  0  0
  5  6  2  0  0  0
  5 18  1  0  0  0
  6  7  1  0  0  0
  7  8  2  0  0  0
  7 27  1  0  0  0
  8  9  1  0  0  0
  8 28  1  0  0  0
  9 10  2  0  0  0
  9 19  1  0  0  0
 10 11  1  0  0  0
 10 29  1  0  0  0
 11 12  2  0  0  0
 11 30  1  0  0  0
 12 13  1  0  0  0
 12 31  1  0  0  0
 13 14  2  0  0  0
 13 20  1  0  0  0
 14 15  1  0  0  0
 14 32  1  0  0  0
 15 33  1  0  0  0
 15 34  1  0  0  0
 15 35  1  0  0  0
 16 36  1  0  0  0
 16 37  1  0  0  0
 16 38  1  0  0  0
 17 39  1  0  0  0
 17 40  1  0  0  0
 17 41  1  0  0  0
 18 42  1  0  0  0
 18 43  1  0  0  0
 18 44  1  0  0  0
 19 45  1  0  0  0
 19 46  1  0  0  0
 19 47  1  0  0  0
 20 48  1  0  0  0
 20 49  1  0  0  0
 20 50  1  0  0  0
M  END
> <s_m_source_file>
../4ruu_ligand.sdf

> <i_m_source_file_index>
1

> <s_epik_input>
W0NIM11DMShbQ0gzXSlbQ0gyXVtDSDJdW0NIMl1DKFtDSDNdKT1DMS9bQ0hdPVtDSF0vQyhbQ0gzXSk9W0NIXS9bQ0hdPVtDSF0vQyhbQ0gzXSk9W0NIXS9bQ0gzXQ==

> <s_epik_cmdline>
J2VwaWtfYXBwJywgJy1pbWFlJywgJ2xpZ2FuZF9wcm8ubWFlJywgJy1vbWFlJywgJ2xpZ2FuZF9wcmVwLm1hZScsICctbXMnLCAnMScsICctcGgnLCAnNycsICctcGh0JywgJzAuNScsICctbnQn

> <r_lp_tautomer_probability>
1

> <r_epik_Ionization_Penalty>
  0.0000

> <r_epik_Ionization_Penalty_Charging>
  0.0000

> <r_epik_Ionization_Penalty_Neutral>
  0.0000

> <r_epik_State_Penalty>
 -0.0000

> <r_epik_Charging_Adjusted_Penalty>
0

> <i_epik_Tot_Q>
0

> <i_epik_Tot_abs_Q>
0

$$$$
