4rux_ligand
                    3D
 Schrodinger Suite 2020-3.
 27 27  0  0  1  0            999 V2000
   -5.5560    4.6420   14.9200 C   0  0  0  0  0  0
   -6.1200    3.4530   15.6310 C   0  0  0  0  0  0
   -5.3290    2.3870   15.8500 C   0  0  0  0  0  0
   -5.9580    0.9990   16.7160 S   0  0  0  0  0  0
   -5.4280    1.1170   18.0640 O   0  0  0  0  0  0
   -7.3760    1.1050   16.6060 O   0  0  0  0  0  0
   -5.4020   -0.3510   16.0360 N   0  0  0  0  0  0
   -3.9010    2.3690   15.4130 C   0  0  0  0  0  0
   -3.3940    3.4340   14.7770 C   0  0  0  0  0  0
   -4.2740    4.6240   14.5360 C   0  0  0  0  0  0
   -3.7880    5.7560   13.8930 O   0  0  0  0  0  0
   -2.4240    5.8000   13.5280 C   0  0  0  0  0  0
   -2.0740    7.2390   13.2220 C   0  0  0  0  0  0
   -1.9970    8.0640   14.4890 C   0  0  0  0  0  0
   -6.1809    5.5118   14.7173 H   0  0  0  0  0  0
   -7.1570    3.4503   15.9669 H   0  0  0  0  0  0
   -5.7956   -1.2235   16.5780 H   0  0  0  0  0  0
   -4.3029   -0.3576   16.0794 H   0  0  0  0  0  0
   -3.2767    1.4974   15.6096 H   0  0  0  0  0  0
   -2.3574    3.4352   14.4399 H   0  0  0  0  0  0
   -1.8095    5.4263   14.3603 H   0  0  0  0  0  0
   -2.2614    5.1705   12.6407 H   0  0  0  0  0  0
   -1.0978    7.2794   12.7167 H   0  0  0  0  0  0
   -2.8441    7.6724   12.5669 H   0  0  0  0  0  0
   -1.7414    9.1033   14.2348 H   0  0  0  0  0  0
   -1.2236    7.6476   15.1512 H   0  0  0  0  0  0
   -2.9700    8.0405   15.0015 H   0  0  0  0  0  0
  1  2  2  0  0  0
  1 10  1  0  0  0
  1 15  1  0  0  0
  2  3  1  0  0  0
  2 16  1  0  0  0
  3  4  1  0  0  0
  3  8  2  0  0  0
  4  5  2  0  0  0
  4  6  2  0  0  0
  4  7  1  0  0  0
  7 17  1  0  0  0
  7 18  1  0  0  0
  8  9  1  0  0  0
  8 19  1  0  0  0
  9 10  2  0  0  0
  9 20  1  0  0  0
 10 11  1  0  0  0
 11 12  1  0  0  0
 12 13  1  0  0  0
 12 21  1  0  0  0
 12 22  1  0  0  0
 13 14  1  0  0  0
 13 23  1  0  0  0
 13 24  1  0  0  0
 14 25  1  0  0  0
 14 26  1  0  0  0
 14 27  1  0  0  0
M  END
> <s_m_source_file>
../4rux_ligand.sdf

> <i_m_source_file_index>
1

> <s_epik_input>
Tz1TKD1PKShbTkgyXSljMVtjSF1bY0hdYyhbY0hdW2NIXTEpT1tDSDJdW0NIMl1bQ0gzXQ==

> <s_epik_cmdline>
J2VwaWtfYXBwJywgJy1pbWFlJywgJ2xpZ2FuZF9wcm8ubWFlJywgJy1vbWFlJywgJ2xpZ2FuZF9wcmVwLm1hZScsICctbXMnLCAnMScsICctcGgnLCAnNycsICctcGh0JywgJzAuNScsICctbnQn

> <r_lp_tautomer_probability>
1

> <r_epik_Ionization_Penalty>
  0.0004

> <r_epik_Ionization_Penalty_Charging>
  0.0000

> <r_epik_Ionization_Penalty_Neutral>
  0.0004

> <r_epik_State_Penalty>
 -0.0000

> <r_epik_Charging_Adjusted_Penalty>
0

> <i_epik_Tot_Q>
0

> <i_epik_Tot_abs_Q>
0

$$$$
