4ruy_ligand
                    3D
 Schrodinger Suite 2020-3.
 27 27  0  0  1  0            999 V2000
   -1.9780    8.0000   14.4900 C   0  0  0  0  0  0
   -2.0740    7.2250   13.1970 C   0  0  0  0  0  0
   -2.4050    5.7910   13.5120 C   0  0  0  0  0  0
   -3.7560    5.7300   13.8940 O   0  0  0  0  0  0
   -4.1800    4.5680   14.5130 C   0  0  0  0  0  0
   -5.6130    4.5940   14.9480 C   0  0  0  0  0  0
   -6.1210    3.5290   15.5770 C   0  0  0  0  0  0
   -5.2520    2.3280   15.8240 C   0  0  0  0  0  0
   -5.9380    0.9620   16.6870 S   0  0  0  0  0  0
   -5.4240    1.0920   18.0360 O   0  0  0  0  0  0
   -7.3860    1.0700   16.6190 O   0  0  0  0  0  0
   -5.3910   -0.3980   16.0050 N   0  0  0  0  0  0
   -3.9590    2.3140   15.4400 C   0  0  0  0  0  0
   -3.3840    3.5040   14.7350 C   0  0  0  0  0  0
   -1.7362    9.0505   14.2707 H   0  0  0  0  0  0
   -1.1878    7.5656   15.1200 H   0  0  0  0  0  0
   -2.9401    7.9483   15.0208 H   0  0  0  0  0  0
   -2.8642    7.6594   12.5670 H   0  0  0  0  0  0
   -1.1119    7.2767   12.6662 H   0  0  0  0  0  0
   -2.2346    5.1708   12.6196 H   0  0  0  0  0  0
   -1.7624    5.4380   14.3320 H   0  0  0  0  0  0
   -6.2333    5.4692   14.7545 H   0  0  0  0  0  0
   -7.1593    3.5319   15.9087 H   0  0  0  0  0  0
   -5.8104   -1.2672   16.5328 H   0  0  0  0  0  0
   -4.2932   -0.4246   16.0694 H   0  0  0  0  0  0
   -3.3365    1.4422   15.6414 H   0  0  0  0  0  0
   -2.3440    3.5090   14.4086 H   0  0  0  0  0  0
  1  2  1  0  0  0
  1 15  1  0  0  0
  1 16  1  0  0  0
  1 17  1  0  0  0
  2  3  1  0  0  0
  2 18  1  0  0  0
  2 19  1  0  0  0
  3  4  1  0  0  0
  3 20  1  0  0  0
  3 21  1  0  0  0
  4  5  1  0  0  0
  5  6  2  0  0  0
  5 14  1  0  0  0
  6  7  1  0  0  0
  6 22  1  0  0  0
  7  8  2  0  0  0
  7 23  1  0  0  0
  8  9  1  0  0  0
  8 13  1  0  0  0
  9 10  2  0  0  0
  9 11  2  0  0  0
  9 12  1  0  0  0
 12 24  1  0  0  0
 12 25  1  0  0  0
 13 14  2  0  0  0
 13 26  1  0  0  0
 14 27  1  0  0  0
M  END
> <s_m_source_file>
../4ruy_ligand.sdf

> <i_m_source_file_index>
1

> <s_epik_input>
W0NIM11bQ0gyXVtDSDJdT2MxW2NIXVtjSF1jKFMoPU8pKD1PKVtOSDJdKVtjSF1bY0hdMQ==

> <s_epik_cmdline>
J2VwaWtfYXBwJywgJy1pbWFlJywgJ2xpZ2FuZF9wcm8ubWFlJywgJy1vbWFlJywgJ2xpZ2FuZF9wcmVwLm1hZScsICctbXMnLCAnMScsICctcGgnLCAnNycsICctcGh0JywgJzAuNScsICctbnQn

> <r_lp_tautomer_probability>
1

> <r_epik_Ionization_Penalty>
  0.0004

> <r_epik_Ionization_Penalty_Charging>
  0.0000

> <r_epik_Ionization_Penalty_Neutral>
  0.0004

> <r_epik_State_Penalty>
 -0.0000

> <r_epik_Charging_Adjusted_Penalty>
0

> <i_epik_Tot_Q>
0

> <i_epik_Tot_abs_Q>
0

$$$$
