4rvk_ligand
                    3D
 Schrodinger Suite 2020-3.
 37 40  0  0  1  0            999 V2000
    6.1790    8.4660   18.0430 C   0  0  0  0  0  0
    8.0770    7.5930   16.8230 C   0  0  0  0  0  0
    3.9530   10.3230   20.0220 N   0  0  0  0  0  0
    2.7730    9.6780   19.9590 C   0  0  0  0  0  0
    6.2490   10.3100   19.2990 N   0  0  0  0  0  0
    6.7120    7.5030   17.1750 C   0  0  0  0  0  0
    4.9190    8.6540   18.6010 C   0  0  0  0  0  0
    8.8030    8.6340   17.2680 N   0  0  0  0  0  0
    9.1680    6.1310   15.1470 N   0  0  0  0  0  0
    6.9940    9.5020   18.5020 C   0  0  0  0  0  0
    8.6620    6.7750   15.9940 C   0  0  0  0  0  0
    8.2990    9.5680   18.0760 C   0  0  0  0  0  0
    4.9890    9.8050   19.3520 C   0  0  0  0  0  0
    3.7020    7.9720   18.5080 C   0  0  0  0  0  0
    2.6070    8.5050   19.2210 C   0  0  0  0  0  0
    1.2360    7.9040   19.1800 C   0  0  0  0  0  0
    0.3130    8.2090   20.1960 C   0  0  0  0  0  0
   -0.9820    7.6920   20.2080 C   0  0  0  0  0  0
   -1.8910    7.9770   21.2490 N   0  0  0  0  0  0
   -1.7120    8.6950   22.3760 C   0  0  0  0  0  0
   -0.6760    9.2240   22.7460 O   0  0  0  0  0  0
   -2.9330    8.8090   23.2350 C   0  0  0  0  0  0
   -1.3960    6.8940   19.1420 C   0  0  0  0  0  0
   -0.5010    6.6100   18.0960 C   0  0  0  0  0  0
    0.8060    7.1280   18.0960 C   0  0  0  0  0  0
    1.9198   10.0849   20.5018 H   0  0  0  0  0  0
    6.0702    6.6999   16.7837 H   0  0  0  0  0  0
    8.9303   10.3943   18.4027 H   0  0  0  0  0  0
    3.6031    7.0663   17.9097 H   0  0  0  0  0  0
    0.6209    8.8735   21.0033 H   0  0  0  0  0  0
   -2.9191    7.5885   21.2032 H   0  0  0  0  0  0
   -3.7693    8.2791   22.7556 H   0  0  0  0  0  0
   -3.1950    9.8699   23.3608 H   0  0  0  0  0  0
   -2.7317    8.3618   24.2196 H   0  0  0  0  0  0
   -2.4090    6.4923   19.1200 H   0  0  0  0  0  0
   -0.8260    5.9770   17.2703 H   0  0  0  0  0  0
    1.4777    6.9279   17.2612 H   0  0  0  0  0  0
  1  6  2  0  0  0
  1  7  1  0  0  0
  1 10  1  0  0  0
  2  6  1  0  0  0
  2  8  2  0  0  0
  2 11  1  0  0  0
  3  4  2  0  0  0
  3 13  1  0  0  0
  4 15  1  0  0  0
  4 26  1  0  0  0
  5 10  2  0  0  0
  5 13  1  0  0  0
  6 27  1  0  0  0
  7 13  2  0  0  0
  7 14  1  0  0  0
  8 12  1  0  0  0
  9 11  3  0  0  0
 10 12  1  0  0  0
 12 28  1  0  0  0
 14 15  2  0  0  0
 14 29  1  0  0  0
 15 16  1  0  0  0
 16 17  2  0  0  0
 16 25  1  0  0  0
 17 18  1  0  0  0
 17 30  1  0  0  0
 18 19  1  0  0  0
 18 23  2  0  0  0
 19 20  1  0  0  0
 19 31  1  0  0  0
 20 21  2  0  0  0
 20 22  1  0  0  0
 22 32  1  0  0  0
 22 33  1  0  0  0
 22 34  1  0  0  0
 23 24  1  0  0  0
 23 35  1  0  0  0
 24 25  2  0  0  0
 24 36  1  0  0  0
 25 37  1  0  0  0
M  END
> <s_m_source_file>
../4rvk_ligand.sdf

> <i_m_source_file_index>
1

> <s_epik_input>
TiNDQyhbQ0hdMSk9TltDSDJdQzI9TmMoYzNDPTEyKW5bY0hdYyhbY0hdMyktYzRbY0hdYyhbTkhdQyg9TylbQ0gzXSlbY0hdW2NIXVtjSF00

> <s_epik_cmdline>
J2VwaWtfYXBwJywgJy1pbWFlJywgJ2xpZ2FuZF9wcm8ubWFlJywgJy1vbWFlJywgJ2xpZ2FuZF9wcmVwLm1hZScsICctbXMnLCAnMScsICctcGgnLCAnNycsICctcGh0JywgJzAuNScsICctbnQn

> <r_lp_tautomer_probability>
1

> <r_epik_Ionization_Penalty>
  0.0000

> <r_epik_Ionization_Penalty_Charging>
  0.0000

> <r_epik_Ionization_Penalty_Neutral>
  0.0000

> <r_epik_State_Penalty>
 -0.0000

> <r_epik_Charging_Adjusted_Penalty>
0

> <i_epik_Tot_Q>
0

> <i_epik_Tot_abs_Q>
0

> <s_epik_Chemistry_Notes>
This compound has an imine and may undergo hydrolysis.

$$$$
