4rvl_ligand
                    3D
 Schrodinger Suite 2020-3.
 31 34  0  0  1  0            999 V2000
    9.2500    5.9600   15.1670 N   0  0  0  0  0  0
    8.6280    6.6340   15.8910 C   0  0  0  0  0  0
    8.0480    7.4680   16.6950 C   0  0  0  0  0  0
    8.7920    8.5070   17.1360 N   0  0  0  0  0  0
    8.3000    9.4330   17.9700 C   0  0  0  0  0  0
    6.9810    9.3620   18.3880 C   0  0  0  0  0  0
    6.2190   10.1520   19.1920 N   0  0  0  0  0  0
    4.9630    9.6280   19.2500 C   0  0  0  0  0  0
    3.9080   10.1030   19.9310 N   0  0  0  0  0  0
    2.7440    9.4420   19.8650 C   0  0  0  0  0  0
    6.6950    7.3510   17.0750 C   0  0  0  0  0  0
    6.1710    8.3240   17.9360 C   0  0  0  0  0  0
    4.9060    8.4870   18.4840 C   0  0  0  0  0  0
    3.7030    7.7690   18.3950 C   0  0  0  0  0  0
    2.5900    8.2640   19.1250 C   0  0  3  0  0  0
    1.2170    7.6620   19.1120 C   0  0  0  0  0  0
    0.3250    7.8690   20.1820 C   0  0  0  0  0  0
   -0.9630    7.3400   20.1510 C   0  0  0  0  0  0
   -1.3950    6.6130   19.0480 C   0  0  0  0  0  0
   -0.5330    6.4170   17.9700 C   0  0  0  0  0  0
    0.7570    6.9530   17.9960 C   0  0  0  0  0  0
    1.5600    6.7210   16.9190 O   0  0  0  0  0  0
    8.9387   10.2438   18.3203 H   0  0  0  0  0  0
    1.8643    9.8221   20.4050 H   0  0  0  0  0  0
    6.0771    6.5303   16.7107 H   0  0  0  0  0  0
    3.6491    6.8606   17.7770 H   0  0  0  0  0  0
    0.6469    8.4508   21.0457 H   0  0  0  0  0  0
   -1.6348    7.4967   20.9950 H   0  0  0  0  0  0
   -2.4027    6.1982   19.0259 H   0  0  0  0  0  0
   -0.8663    5.8441   17.1046 H   0  0  0  0  0  0
    2.5830    7.1248   16.8985 H   0  0  0  0  0  0
  1  2  3  0  0  0
  2  3  1  0  0  0
  3  4  2  0  0  0
  3 11  1  0  0  0
  4  5  1  0  0  0
  5  6  2  0  0  0
  5 23  1  0  0  0
  6  7  1  0  0  0
  6 12  1  0  0  0
  7  8  2  0  0  0
  8  9  1  0  0  0
  8 13  1  0  0  0
  9 10  2  0  0  0
 10 15  1  0  0  0
 10 24  1  0  0  0
 11 12  2  0  0  0
 11 25  1  0  0  0
 12 13  1  0  0  0
 13 14  2  0  0  0
 14 15  1  0  0  0
 14 26  1  0  0  0
 15 16  1  0  0  0
 16 17  2  0  0  0
 16 21  1  0  0  0
 17 18  1  0  0  0
 17 27  1  0  0  0
 18 19  2  0  0  0
 18 28  1  0  0  0
 19 20  1  0  0  0
 19 29  1  0  0  0
 20 21  2  0  0  0
 20 30  1  0  0  0
 21 22  1  0  0  0
 22 31  1  0  0  0
M  END
> <s_m_source_file>
../4rvl_ligand.sdf

> <i_m_source_file_index>
1

> <s_epik_input>
TiNDYyhuW2NIXTEpW2NIXWMoYzEyKUM9M0MoPU4yKU49W0NIXVtDSF0oW0NIXTMpYzRbY0hdW2NIXVtjSF1bY0hdYzRbT0hd

> <s_epik_cmdline>
J2VwaWtfYXBwJywgJy1pbWFlJywgJ2xpZ2FuZF9wcm8ubWFlJywgJy1vbWFlJywgJ2xpZ2FuZF9wcmVwLm1hZScsICctbXMnLCAnMScsICctcGgnLCAnNycsICctcGh0JywgJzAuNScsICctbnQn

> <r_lp_tautomer_probability>
1

> <r_epik_Ionization_Penalty>
  0.1704

> <r_epik_Ionization_Penalty_Charging>
  0.0000

> <r_epik_Ionization_Penalty_Neutral>
  0.1704

> <r_epik_State_Penalty>
 -0.0000

> <r_epik_Charging_Adjusted_Penalty>
0

> <i_epik_Tot_Q>
0

> <i_epik_Tot_abs_Q>
0

> <s_epik_Chemistry_Notes>
This compound has an imine and may undergo hydrolysis.

$$$$
