4rvm_ligand
                    3D
 Schrodinger Suite 2020-3.
 50 54  0  0  1  0            999 V2000
    9.0570    6.0230   15.1900 N   0  0  0  0  0  0
    8.5810    6.7500   15.9920 C   0  0  0  0  0  0
    7.9840    7.5540   16.8250 C   0  0  0  0  0  0
    8.6990    8.6070   17.2940 N   0  0  0  0  0  0
    8.1980    9.4940   18.1270 C   0  0  0  0  0  0
    6.8790    9.3920   18.5360 C   0  0  0  0  0  0
    6.6370    7.4050   17.2040 C   0  0  0  0  0  0
    6.0910    8.3550   18.0780 C   0  0  0  0  0  0
    4.8270    8.4930   18.6390 C   0  0  0  0  0  0
    3.6290    7.7840   18.5430 C   0  0  0  0  0  0
    2.5280    8.3020   19.3000 C   0  0  0  0  0  0
    2.6750    9.4640   20.0550 C   0  0  0  0  0  0
    3.8280   10.1170   20.1110 N   0  0  0  0  0  0
    4.8710    9.6240   19.4340 C   0  0  0  0  0  0
    6.1130   10.1580   19.3600 N   0  3  0  0  0  0
    1.1760    7.6760   19.2850 C   0  0  0  0  0  0
    0.7700    6.9360   18.1570 C   0  0  0  0  0  0
   -0.5050    6.3620   18.1180 C   0  0  0  0  0  0
    0.2720    7.8640   20.3490 C   0  0  0  0  0  0
   -0.9960    7.2910   20.3070 C   0  0  0  0  0  0
   -1.3840    6.5330   19.2030 C   0  0  0  0  0  0
   -2.7600    5.9090   19.1940 C   0  0  0  0  0  0
   -2.7350    4.5080   19.6840 N   0  3  0  0  0  0
   -1.9970    3.6240   18.7620 C   0  0  0  0  0  0
   -2.1980    2.1820   19.1960 C   0  0  0  0  0  0
   -1.7030    1.9870   20.6280 C   0  0  0  0  0  0
   -2.3460    2.9910   21.5850 C   0  0  0  0  0  0
   -2.1930    4.4150   21.0650 C   0  0  0  0  0  0
    8.8213   10.3090   18.4950 H   0  0  0  0  0  0
    6.0366    6.5761   16.8293 H   0  0  0  0  0  0
    3.5361    6.8887   17.9283 H   0  0  0  0  0  0
    1.8206    9.8460   20.6138 H   0  0  0  0  0  0
    1.4498    6.8107   17.3142 H   0  0  0  0  0  0
   -0.8169    5.7833   17.2486 H   0  0  0  0  0  0
    0.5674    8.4622   21.2110 H   0  0  0  0  0  0
   -1.6863    7.4351   21.1382 H   0  0  0  0  0  0
   -3.4302    6.4898   19.8447 H   0  0  0  0  0  0
   -3.1555    5.9081   18.1676 H   0  0  0  0  0  0
   -3.7768    4.1560   19.7097 H   0  0  0  0  0  0
   -2.3779    3.7609   17.7392 H   0  0  0  0  0  0
   -0.9265    3.8753   18.7913 H   0  0  0  0  0  0
   -3.2677    1.9303   19.1479 H   0  0  0  0  0  0
   -1.6341    1.5156   18.5267 H   0  0  0  0  0  0
   -1.9550    0.9717   20.9680 H   0  0  0  0  0  0
   -0.6121    2.1245   20.6608 H   0  0  0  0  0  0
   -3.4178    2.7657   21.6869 H   0  0  0  0  0  0
   -1.8613    2.9209   22.5700 H   0  0  0  0  0  0
   -1.1273    4.6876   21.0598 H   0  0  0  0  0  0
   -2.7443    5.1034   21.7224 H   0  0  0  0  0  0
    6.5425   11.0509   19.8377 H   0  0  0  0  0  0
  1  2  3  0  0  0
  2  3  1  0  0  0
  3  4  2  0  0  0
  3  7  1  0  0  0
  4  5  1  0  0  0
  5  6  2  0  0  0
  5 29  1  0  0  0
  6  8  1  0  0  0
  6 15  1  0  0  0
  7  8  2  0  0  0
  7 30  1  0  0  0
  8  9  1  0  0  0
  9 10  2  0  0  0
  9 14  1  0  0  0
 10 11  1  0  0  0
 10 31  1  0  0  0
 11 12  2  0  0  0
 11 16  1  0  0  0
 12 13  1  0  0  0
 12 32  1  0  0  0
 13 14  1  0  0  0
 14 15  2  0  0  0
 15 50  1  0  0  0
 16 17  2  0  0  0
 16 19  1  0  0  0
 17 18  1  0  0  0
 17 33  1  0  0  0
 18 21  2  0  0  0
 18 34  1  0  0  0
 19 20  2  0  0  0
 19 35  1  0  0  0
 20 21  1  0  0  0
 20 36  1  0  0  0
 21 22  1  0  0  0
 22 23  1  0  0  0
 22 37  1  0  0  0
 22 38  1  0  0  0
 23 24  1  0  0  0
 23 28  1  0  0  0
 23 39  1  0  0  0
 24 25  1  0  0  0
 24 40  1  0  0  0
 24 41  1  0  0  0
 25 26  1  0  0  0
 25 42  1  0  0  0
 25 43  1  0  0  0
 26 27  1  0  0  0
 26 44  1  0  0  0
 26 45  1  0  0  0
 27 28  1  0  0  0
 27 46  1  0  0  0
 27 47  1  0  0  0
 28 48  1  0  0  0
 28 49  1  0  0  0
M  CHG  2  15   1  23   1
M  END
> <s_m_source_file>
../4rvm_ligand.sdf

> <i_m_source_file_index>
1

> <s_epik_input>
TiNDYyhuW2NIXTEpW2NIXWMoYzEyKWMzYyhuMilbbkhdW2NIXWMoW2NIXTMpLWM0W2NIXVtjSF1jKFtjSF1bY0hdNClbQ0gyXVtOSCtdNVtDSDJdW0NIMl1bQ0gyXVtDSDJdW0NIMl01

> <s_epik_cmdline>
J2VwaWtfYXBwJywgJy1pbWFlJywgJ2xpZ2FuZF9wcm8ubWFlJywgJy1vbWFlJywgJ2xpZ2FuZF9wcmVwLm1hZScsICctbXMnLCAnMScsICctcGgnLCAnNycsICctcGh0JywgJzAuNScsICctbnQn

> <r_lp_tautomer_probability>
1

> <r_epik_Ionization_Penalty>
  0.0093

> <r_epik_Ionization_Penalty_Charging>
  0.0093

> <r_epik_Ionization_Penalty_Neutral>
  0.0000

> <r_epik_State_Penalty>
 -0.0000

> <r_epik_Charging_Adjusted_Penalty>
0.00932582166118526

> <i_epik_Tot_Q>
2

> <i_epik_Tot_abs_Q>
2

$$$$
