4rvt_ligand
                    3D
 Schrodinger Suite 2020-3.
 40 41  0  0  1  0            999 V2000
  -19.3810    9.2220  -28.8160 C   0  0  0  0  0  0
  -19.0620    9.0040  -30.1510 C   0  0  0  0  0  0
  -18.0250    8.1350  -30.4720 C   0  0  0  0  0  0
  -17.3070    7.4740  -29.4700 C   0  0  0  0  0  0
  -17.6280    7.7000  -28.1300 C   0  0  0  0  0  0
  -18.6710    8.5730  -27.7980 C   0  0  0  0  0  0
  -16.2710    6.6200  -29.8700 C   0  0  0  0  0  0
  -15.5990    6.9680  -31.0420 C   0  0  0  0  0  0
  -14.6130    6.2240  -31.4980 N   0  0  0  0  0  0
  -14.1940    5.0640  -30.8270 C   0  0  0  0  0  0
  -14.8180    4.6490  -29.6350 C   0  0  0  0  0  0
  -15.8640    5.4610  -29.1820 C   0  0  0  0  0  0
  -16.4940    5.1010  -28.0290 O   0  5  0  0  0  0
  -20.3930   10.0700  -28.5180 O   0  0  0  0  0  0
  -13.2700    4.4440  -31.3380 O   0  0  0  0  0  0
  -14.4620    3.5010  -28.8890 C   0  0  0  0  0  0
  -13.4750    2.4730  -29.4780 C   0  0  0  0  0  0
  -14.9300    3.3060  -27.7750 O   0  0  0  0  0  0
  -13.3540    1.2520  -28.5500 C   0  0  0  0  0  0
  -11.9870    0.5900  -28.7520 C   0  0  0  0  0  0
  -12.0460   -0.8760  -28.3200 C   0  0  0  0  0  0
  -11.7620   -1.7690  -29.5330 C   0  0  0  0  0  0
  -19.6197    9.5097  -30.9393 H   0  0  0  0  0  0
  -17.7683    7.9668  -31.5179 H   0  0  0  0  0  0
  -17.0667    7.1969  -27.3426 H   0  0  0  0  0  0
  -18.9290    8.7466  -26.7533 H   0  0  0  0  0  0
  -15.8934    7.8655  -31.5861 H   0  0  0  0  0  0
  -14.0953    6.5059  -32.4267 H   0  0  0  0  0  0
  -20.9438   10.5743  -29.3256 H   0  0  0  0  0  0
  -13.8362    2.1402  -30.4622 H   0  0  0  0  0  0
  -12.4842    2.9378  -29.5890 H   0  0  0  0  0  0
  -13.4535    1.5756  -27.5034 H   0  0  0  0  0  0
  -14.1495    0.5304  -28.7878 H   0  0  0  0  0  0
  -11.7074    0.6429  -29.8146 H   0  0  0  0  0  0
  -11.2325    1.1150  -28.1478 H   0  0  0  0  0  0
  -11.2912   -1.0594  -27.5411 H   0  0  0  0  0  0
  -13.0463   -1.1009  -27.9214 H   0  0  0  0  0  0
  -11.8031   -2.8252  -29.2284 H   0  0  0  0  0  0
  -10.7620   -1.5406  -29.9303 H   0  0  0  0  0  0
  -12.5171   -1.5820  -30.3107 H   0  0  0  0  0  0
  1  2  2  0  0  0
  1  6  1  0  0  0
  1 14  1  0  0  0
  2  3  1  0  0  0
  2 23  1  0  0  0
  3  4  2  0  0  0
  3 24  1  0  0  0
  4  5  1  0  0  0
  4  7  1  0  0  0
  5  6  2  0  0  0
  5 25  1  0  0  0
  6 26  1  0  0  0
  7  8  2  0  0  0
  7 12  1  0  0  0
  8  9  1  0  0  0
  8 27  1  0  0  0
  9 10  1  0  0  0
  9 28  1  0  0  0
 10 11  1  0  0  0
 10 15  2  0  0  0
 11 12  2  0  0  0
 11 16  1  0  0  0
 12 13  1  0  0  0
 14 29  1  0  0  0
 16 17  1  0  0  0
 16 18  2  0  0  0
 17 19  1  0  0  0
 17 30  1  0  0  0
 17 31  1  0  0  0
 19 20  1  0  0  0
 19 32  1  0  0  0
 19 33  1  0  0  0
 20 21  1  0  0  0
 20 34  1  0  0  0
 20 35  1  0  0  0
 21 22  1  0  0  0
 21 36  1  0  0  0
 21 37  1  0  0  0
 22 38  1  0  0  0
 22 39  1  0  0  0
 22 40  1  0  0  0
M  CHG  1  13  -1
M  END
> <s_m_source_file>
../4rvt_ligand.sdf

> <i_m_source_file_index>
1

> <s_epik_input>
W09IXWMxW2NIXVtjSF1jKFtjSF1bY0hdMSktYzJbY0hdW25IXWMoPU8pYyhjMltPSF0pQyg9TylbQ0gyXVtDSDJdW0NIMl1bQ0gyXVtDSDNd

> <s_epik_cmdline>
J2VwaWtfYXBwJywgJy1pbWFlJywgJ2xpZ2FuZF9wcm8ubWFlJywgJy1vbWFlJywgJ2xpZ2FuZF9wcmVwLm1hZScsICctbXMnLCAnMScsICctcGgnLCAnNycsICctcGh0JywgJzAuNScsICctbnQn

> <r_lp_tautomer_probability>
1

> <r_epik_Ionization_Penalty>
  0.0028

> <r_epik_Ionization_Penalty_Charging>
  0.0008

> <r_epik_Ionization_Penalty_Neutral>
  0.0020

> <r_epik_State_Penalty>
 -0.0000

> <r_epik_Charging_Adjusted_Penalty>
0.000822299993917765

> <i_epik_Tot_Q>
-1

> <i_epik_Tot_abs_Q>
1

$$$$
