4rwj_ligand
                    3D
 Schrodinger Suite 2020-3.
 68 71  0  0  1  0            999 V2000
  -28.8550   -8.8390   15.6140 C   0  0  0  0  0  0
  -25.6520   -6.8330   15.6470 N   0  0  0  0  0  0
  -19.8840   -8.0920   13.4130 O   0  0  0  0  0  0
  -27.9020   -7.6420   15.4940 C   0  0  1  0  0  0
  -28.4220   -6.4890   16.2480 N   0  3  0  0  0  0
  -12.2890   -5.3300    7.8540 O   0  0  0  0  0  0
  -26.4820   -7.9900   15.9910 C   0  0  0  0  0  0
  -19.3780   -6.1190   14.4150 N   0  0  0  0  0  0
  -10.2750   -8.5600   10.7840 O   0  0  0  0  0  0
  -26.1380   -5.5100   16.2200 C   0  0  0  0  0  0
  -16.1360   -5.0190   14.1100 N   0  0  0  0  0  0
  -27.6470   -5.2630   16.0060 C   0  0  2  0  0  0
  -17.3570   -4.9580   14.5280 N   0  3  0  0  0  0
  -28.1310   -4.0950   16.8910 C   0  0  0  0  0  0
  -24.3360   -6.8730   15.3070 C   0  0  0  0  0  0
  -23.3780   -6.0650   15.9510 C   0  0  0  0  0  0
  -22.0370   -6.1330   15.5680 C   0  0  0  0  0  0
  -21.6350   -6.9950   14.5500 C   0  0  0  0  0  0
  -22.6000   -7.7750   13.9330 C   0  0  0  0  0  0
  -23.9340   -7.7240   14.2990 C   0  0  0  0  0  0
  -20.2250   -7.1290   14.0720 C   0  0  0  0  0  0
  -18.0560   -6.0020   14.0910 C   0  0  3  0  0  0
  -17.2570   -6.7670   13.3580 C   0  0  0  0  0  0
  -16.0610   -6.1570   13.3690 C   0  0  0  0  0  0
  -14.7560   -6.5300   12.7280 C   0  0  0  0  0  0
  -14.9090   -7.3130   11.4450 C   0  0  0  0  0  0
  -13.6160   -7.1700   10.6740 C   0  0  0  0  0  0
  -12.5050   -7.9180   11.0510 C   0  0  0  0  0  0
  -11.3070   -7.8050   10.3590 C   0  0  0  0  0  0
  -11.2120   -6.9320    9.2720 C   0  0  0  0  0  0
  -12.3190   -6.1920    8.9000 C   0  0  0  0  0  0
  -13.5180   -6.3070    9.5940 C   0  0  0  0  0  0
  -11.0220   -5.1250    7.2100 C   0  0  0  0  0  0
   -8.9560   -8.2700   10.2940 C   0  0  0  0  0  0
  -29.8527   -8.5511   15.2511 H   0  0  0  0  0  0
  -28.9233   -9.1491   16.6672 H   0  0  0  0  0  0
  -28.4720   -9.6746   15.0098 H   0  0  0  0  0  0
  -27.8611   -7.3398   14.4371 H   0  0  0  0  0  0
  -29.4633   -6.2959   15.9507 H   0  0  0  0  0  0
  -28.3829   -6.7076   17.3254 H   0  0  0  0  0  0
  -26.0888   -8.8858   15.4881 H   0  0  0  0  0  0
  -26.4640   -8.1433   17.0801 H   0  0  0  0  0  0
  -19.7436   -5.2762   15.0199 H   0  0  0  0  0  0
  -25.9516   -5.4893   17.3039 H   0  0  0  0  0  0
  -25.5974   -4.6814   15.7391 H   0  0  0  0  0  0
  -27.8437   -5.0230   14.9507 H   0  0  0  0  0  0
  -29.2064   -3.9320   16.7271 H   0  0  0  0  0  0
  -27.5774   -3.1817   16.6277 H   0  0  0  0  0  0
  -27.9542   -4.3389   17.9489 H   0  0  0  0  0  0
  -23.6837   -5.3871   16.7479 H   0  0  0  0  0  0
  -21.2990   -5.5068   16.0693 H   0  0  0  0  0  0
  -22.2986   -8.4511   13.1329 H   0  0  0  0  0  0
  -24.6645   -8.3545   13.7921 H   0  0  0  0  0  0
  -17.3891   -7.7086   12.8048 H   0  0  0  0  0  0
  -14.1912   -5.6171   12.4881 H   0  0  0  0  0  0
  -14.1709   -7.1513   13.4220 H   0  0  0  0  0  0
  -15.1028   -8.3697   11.6813 H   0  0  0  0  0  0
  -15.7510   -6.9065   10.8655 H   0  0  0  0  0  0
  -12.5761   -8.5998   11.8985 H   0  0  0  0  0  0
  -10.2752   -6.8355    8.7233 H   0  0  0  0  0  0
  -14.3824   -5.7175    9.2883 H   0  0  0  0  0  0
  -11.1419   -4.4075    6.3849 H   0  0  0  0  0  0
  -10.6534   -6.0823    6.8129 H   0  0  0  0  0  0
  -10.3001   -4.7281    7.9390 H   0  0  0  0  0  0
   -8.2370   -8.9747   10.7372 H   0  0  0  0  0  0
   -8.6799   -7.2418   10.5708 H   0  0  0  0  0  0
   -8.9412   -8.3714    9.1988 H   0  0  0  0  0  0
  -17.6816   -4.1159   15.1568 H   0  0  0  0  0  0
  1  4  1  0  0  0
  1 35  1  0  0  0
  1 36  1  0  0  0
  1 37  1  0  0  0
  2  7  1  0  0  0
  2 10  1  0  0  0
  2 15  1  0  0  0
  3 21  2  0  0  0
  4  5  1  0  0  0
  4  7  1  0  0  0
  4 38  1  0  0  0
  5 12  1  0  0  0
  5 39  1  0  0  0
  5 40  1  0  0  0
  6 31  1  0  0  0
  6 33  1  0  0  0
  7 41  1  0  0  0
  7 42  1  0  0  0
  8 21  1  0  0  0
  8 22  1  0  0  0
  8 43  1  0  0  0
  9 29  1  0  0  0
  9 34  1  0  0  0
 10 12  1  0  0  0
 10 44  1  0  0  0
 10 45  1  0  0  0
 11 13  2  0  0  0
 11 24  1  0  0  0
 12 14  1  0  0  0
 12 46  1  0  0  0
 13 22  1  0  0  0
 13 68  1  0  0  0
 14 47  1  0  0  0
 14 48  1  0  0  0
 14 49  1  0  0  0
 15 16  2  0  0  0
 15 20  1  0  0  0
 16 17  1  0  0  0
 16 50  1  0  0  0
 17 18  2  0  0  0
 17 51  1  0  0  0
 18 19  1  0  0  0
 18 21  1  0  0  0
 19 20  2  0  0  0
 19 52  1  0  0  0
 20 53  1  0  0  0
 22 23  1  0  0  0
 23 24  2  0  0  0
 23 54  1  0  0  0
 24 25  1  0  0  0
 25 26  1  0  0  0
 25 55  1  0  0  0
 25 56  1  0  0  0
 26 27  1  0  0  0
 26 57  1  0  0  0
 26 58  1  0  0  0
 27 28  2  0  0  0
 27 32  1  0  0  0
 28 29  1  0  0  0
 28 59  1  0  0  0
 29 30  2  0  0  0
 30 31  1  0  0  0
 30 60  1  0  0  0
 31 32  2  0  0  0
 32 61  1  0  0  0
 33 62  1  0  0  0
 33 63  1  0  0  0
 33 64  1  0  0  0
 34 65  1  0  0  0
 34 66  1  0  0  0
 34 67  1  0  0  0
M  CHG  2   5   1  13   1
M  END
> <s_m_source_file>
../4rwj_ligand.sdf

> <i_m_source_file_index>
1

> <s_epik_input>
W0NIMl0xW0NASF0oW0NIM10pW05IMitdW0NASF0oW0NIM10pW0NIMl1OMWMyW2NIXVtjSF1jKFtjSF1bY0hdMilDKD1PKVtOSF1bQ0hdM049TkMoPVtDSF0zKVtDSDJdW0NIMl1jNFtjSF1jKE9bQ0gzXSlbY0hdYyhbY0hdNClPW0NIM10=

> <s_epik_cmdline>
J2VwaWtfYXBwJywgJy1pbWFlJywgJ2xpZ2FuZF9wcm8ubWFlJywgJy1vbWFlJywgJ2xpZ2FuZF9wcmVwLm1hZScsICctbXMnLCAnMScsICctcGgnLCAnNycsICctcGh0JywgJzAuNScsICctbnQn

> <r_lp_tautomer_probability>
1

> <r_epik_Ionization_Penalty>
  0.0088

> <r_epik_Ionization_Penalty_Charging>
  0.0086

> <r_epik_Ionization_Penalty_Neutral>
  0.0002

> <r_epik_State_Penalty>
 -0.0000

> <r_epik_Charging_Adjusted_Penalty>
0.00857364158688565

> <i_epik_Tot_Q>
2

> <i_epik_Tot_abs_Q>
2

$$$$
