4rwk_ligand
                    3D
 Schrodinger Suite 2020-3.
 68 71  0  0  1  0            999 V2000
  -28.2930   -8.6190   15.3990 C   0  0  0  0  0  0
  -25.1620   -6.5480   15.6270 N   0  0  0  0  0  0
  -19.2830   -7.8330   13.7720 O   0  0  0  0  0  0
  -27.3670   -7.3960   15.3840 C   0  0  1  0  0  0
  -27.9430   -6.2820   16.1550 N   0  3  0  0  0  0
  -17.6530   -7.8750    8.1720 O   0  0  0  0  0  0
  -25.9700   -7.7240   15.9450 C   0  0  0  0  0  0
  -18.9620   -5.6340   14.2320 N   0  0  0  0  0  0
  -14.4000  -10.7730   10.1540 O   0  0  0  0  0  0
  -25.6880   -5.2480   16.2130 C   0  0  0  0  0  0
  -15.7730   -4.4680   13.7030 N   0  0  0  0  0  0
  -27.1960   -5.0320   15.9650 C   0  0  2  0  0  0
  -16.9930   -4.3800   14.1210 N   0  3  0  0  0  0
  -27.7340   -3.8990   16.8630 C   0  0  0  0  0  0
  -23.8430   -6.5630   15.3100 C   0  0  0  0  0  0
  -22.9290   -5.6710   15.9010 C   0  0  0  0  0  0
  -21.5820   -5.7210   15.5440 C   0  0  0  0  0  0
  -21.1320   -6.6460   14.6080 C   0  0  0  0  0  0
  -22.0540   -7.5120   14.0430 C   0  0  0  0  0  0
  -23.3930   -7.4780   14.3830 C   0  0  0  0  0  0
  -19.7120   -6.7680   14.1670 C   0  0  0  0  0  0
  -17.6520   -5.5090   13.8760 C   0  0  3  0  0  0
  -16.8280   -6.3550   13.2740 C   0  0  0  0  0  0
  -15.6580   -5.7110   13.1620 C   0  0  0  0  0  0
  -14.3480   -6.1540   12.5780 C   0  0  0  0  0  0
  -14.2400   -5.9980   11.0760 C   0  0  0  0  0  0
  -14.8790   -7.1910   10.3970 C   0  0  0  0  0  0
  -14.3610   -8.4710   10.5710 C   0  0  0  0  0  0
  -14.9500   -9.5640    9.9430 C   0  0  0  0  0  0
  -16.0670   -9.3850    9.1240 C   0  0  0  0  0  0
  -16.5740   -8.1140    8.9520 C   0  0  0  0  0  0
  -15.9870   -7.0240    9.5810 C   0  0  0  0  0  0
  -17.6190   -8.4160    6.8440 C   0  0  0  0  0  0
  -15.1830  -11.9470    9.8800 C   0  0  0  0  0  0
  -29.2758   -8.3398   14.9913 H   0  0  0  0  0  0
  -28.4127   -8.9756   16.4327 H   0  0  0  0  0  0
  -27.8545   -9.4185   14.7837 H   0  0  0  0  0  0
  -27.2857   -7.0575   14.3406 H   0  0  0  0  0  0
  -28.9812   -6.1120   15.8338 H   0  0  0  0  0  0
  -27.9267   -6.5305   17.2264 H   0  0  0  0  0  0
  -25.5324   -8.6107   15.4631 H   0  0  0  0  0  0
  -25.9900   -7.8714   17.0349 H   0  0  0  0  0  0
  -19.4093   -4.6992   14.6009 H   0  0  0  0  0  0
  -25.5277   -5.2450   17.3013 H   0  0  0  0  0  0
  -25.1534   -4.3994   15.7614 H   0  0  0  0  0  0
  -27.3719   -4.7694   14.9114 H   0  0  0  0  0  0
  -28.8084   -3.7594   16.6730 H   0  0  0  0  0  0
  -27.1973   -2.9658   16.6369 H   0  0  0  0  0  0
  -27.5799   -4.1639   17.9194 H   0  0  0  0  0  0
  -23.2730   -4.9431   16.6358 H   0  0  0  0  0  0
  -20.8756   -5.0291   16.0025 H   0  0  0  0  0  0
  -21.7132   -8.2418   13.3086 H   0  0  0  0  0  0
  -24.0920   -8.1737   13.9188 H   0  0  0  0  0  0
  -16.9293   -7.3819   12.8928 H   0  0  0  0  0  0
  -13.5316   -5.5629   13.0185 H   0  0  0  0  0  0
  -14.1897   -7.2198   12.7991 H   0  0  0  0  0  0
  -14.7574   -5.0785   10.7647 H   0  0  0  0  0  0
  -13.1799   -5.9373   10.7889 H   0  0  0  0  0  0
  -13.4864   -8.6185   11.2046 H   0  0  0  0  0  0
  -16.5313  -10.2374    8.6280 H   0  0  0  0  0  0
  -16.4017   -6.0271    9.4316 H   0  0  0  0  0  0
  -18.5481   -8.1531    6.3171 H   0  0  0  0  0  0
  -17.5243   -9.5107    6.8964 H   0  0  0  0  0  0
  -16.7585   -7.9991    6.3002 H   0  0  0  0  0  0
  -14.5884  -12.8449   10.1044 H   0  0  0  0  0  0
  -15.4729  -11.9549    8.8189 H   0  0  0  0  0  0
  -16.0867  -11.9395   10.5070 H   0  0  0  0  0  0
  -17.3444   -3.4550   14.6014 H   0  0  0  0  0  0
  1  4  1  0  0  0
  1 35  1  0  0  0
  1 36  1  0  0  0
  1 37  1  0  0  0
  2  7  1  0  0  0
  2 10  1  0  0  0
  2 15  1  0  0  0
  3 21  2  0  0  0
  4  5  1  0  0  0
  4  7  1  0  0  0
  4 38  1  0  0  0
  5 12  1  0  0  0
  5 39  1  0  0  0
  5 40  1  0  0  0
  6 31  1  0  0  0
  6 33  1  0  0  0
  7 41  1  0  0  0
  7 42  1  0  0  0
  8 21  1  0  0  0
  8 22  1  0  0  0
  8 43  1  0  0  0
  9 29  1  0  0  0
  9 34  1  0  0  0
 10 12  1  0  0  0
 10 44  1  0  0  0
 10 45  1  0  0  0
 11 13  2  0  0  0
 11 24  1  0  0  0
 12 14  1  0  0  0
 12 46  1  0  0  0
 13 22  1  0  0  0
 13 68  1  0  0  0
 14 47  1  0  0  0
 14 48  1  0  0  0
 14 49  1  0  0  0
 15 16  2  0  0  0
 15 20  1  0  0  0
 16 17  1  0  0  0
 16 50  1  0  0  0
 17 18  2  0  0  0
 17 51  1  0  0  0
 18 19  1  0  0  0
 18 21  1  0  0  0
 19 20  2  0  0  0
 19 52  1  0  0  0
 20 53  1  0  0  0
 22 23  1  0  0  0
 23 24  2  0  0  0
 23 54  1  0  0  0
 24 25  1  0  0  0
 25 26  1  0  0  0
 25 55  1  0  0  0
 25 56  1  0  0  0
 26 27  1  0  0  0
 26 57  1  0  0  0
 26 58  1  0  0  0
 27 28  2  0  0  0
 27 32  1  0  0  0
 28 29  1  0  0  0
 28 59  1  0  0  0
 29 30  2  0  0  0
 30 31  1  0  0  0
 30 60  1  0  0  0
 31 32  2  0  0  0
 32 61  1  0  0  0
 33 62  1  0  0  0
 33 63  1  0  0  0
 33 64  1  0  0  0
 34 65  1  0  0  0
 34 66  1  0  0  0
 34 67  1  0  0  0
M  CHG  2   5   1  13   1
M  END
> <s_m_source_file>
../4rwk_ligand.sdf

> <i_m_source_file_index>
1

> <s_epik_input>
W0NIMl0xW0NASF0oW0NIM10pW05IMitdW0NASF0oW0NIM10pW0NIMl1OMWMyW2NIXVtjSF1jKFtjSF1bY0hdMilDKD1PKVtOSF1bQ0hdM049TkMoPVtDSF0zKVtDSDJdW0NIMl1jNFtjSF1jKE9bQ0gzXSlbY0hdYyhbY0hdNClPW0NIM10=

> <s_epik_cmdline>
J2VwaWtfYXBwJywgJy1pbWFlJywgJ2xpZ2FuZF9wcm8ubWFlJywgJy1vbWFlJywgJ2xpZ2FuZF9wcmVwLm1hZScsICctbXMnLCAnMScsICctcGgnLCAnNycsICctcGh0JywgJzAuNScsICctbnQn

> <r_lp_tautomer_probability>
1

> <r_epik_Ionization_Penalty>
  0.0088

> <r_epik_Ionization_Penalty_Charging>
  0.0086

> <r_epik_Ionization_Penalty_Neutral>
  0.0002

> <r_epik_State_Penalty>
 -0.0000

> <r_epik_Charging_Adjusted_Penalty>
0.00857364158688565

> <i_epik_Tot_Q>
2

> <i_epik_Tot_abs_Q>
2

$$$$
