4rwl_ligand
                    3D
 Schrodinger Suite 2020-3.
 60 64  0  0  1  0            999 V2000
   26.4490    4.5360   18.5740 C   0  0  0  0  0  0
   27.5160    3.3290   20.8420 C   0  0  0  0  0  0
   28.4960    0.6610   23.1140 C   0  0  0  0  0  0
   29.8480   -0.5690   25.2310 C   0  0  0  0  0  0
   29.0350   -1.3380   24.3700 C   0  0  0  0  0  0
   28.3370   -0.6890   23.2820 C   0  0  0  0  0  0
   26.8940   -0.8080   21.3880 C   0  0  0  0  0  0
   31.4050   -2.8320   27.7420 C   0  0  0  0  0  0
   27.2870    6.1430   13.9260 C   0  0  0  0  0  0
   26.5610    6.1780   15.1490 N   0  0  0  0  0  0
   26.7270    5.1100   16.0840 C   0  0  0  0  0  0
   27.4820    4.1810   15.8300 O   0  0  0  0  0  0
   25.9240    5.1440   17.3860 C   0  0  0  0  0  0
   24.6610    5.7590   17.4100 C   0  0  0  0  0  0
   23.8960    5.7930   18.6010 C   0  0  0  0  0  0
   24.4200    5.1830   19.7530 C   0  0  0  0  0  0
   25.7140    4.5540   19.7260 C   0  0  0  0  0  0
   27.7400    3.9100   18.5510 C   0  0  0  0  0  0
   28.2780    3.3060   19.6750 C   0  0  0  0  0  0
   26.2590    3.9440   20.9020 C   0  0  0  0  0  0
   28.0640    2.7270   21.9840 O   0  0  0  0  0  0
   27.8180    1.3290   22.0250 C   0  0  0  0  0  0
   29.3320    1.4410   23.9850 C   0  0  0  0  0  0
   29.9960    0.8110   25.0490 C   0  0  0  0  0  0
   27.5430   -1.4030   22.4150 N   0  3  0  0  0  0
   26.9810    0.5800   21.1300 C   0  0  0  0  0  0
   30.5660   -1.1200   26.3300 O   0  0  0  0  0  0
   30.5210   -2.5340   26.5090 C   0  0  0  0  0  0
   31.3170   -4.2310   28.3410 C   0  0  0  0  0  0
   30.6390   -3.0550   29.0370 C   0  0  0  0  0  0
   32.6620   -2.1420   27.9000 N   0  3  0  0  0  0
   30.8230    1.5490   25.9460 O   0  0  0  0  0  0
   31.0890    2.8840   25.5160 C   0  0  0  0  0  0
   28.9342   -2.4123   24.5240 H   0  0  0  0  0  0
   26.2785   -1.4237   20.7321 H   0  0  0  0  0  0
   27.0431    7.0342   13.3292 H   0  0  0  0  0  0
   27.0134    5.2385   13.3630 H   0  0  0  0  0  0
   28.3658    6.1292   14.1403 H   0  0  0  0  0  0
   25.8844    7.0185   15.3631 H   0  0  0  0  0  0
   24.2659    6.2148   16.5021 H   0  0  0  0  0  0
   22.9220    6.2817   18.6236 H   0  0  0  0  0  0
   23.8407    5.1862   20.6763 H   0  0  0  0  0  0
   28.3127    3.9099   17.6236 H   0  0  0  0  0  0
   29.2588    2.8312   19.6482 H   0  0  0  0  0  0
   25.6993    3.9583   21.8372 H   0  0  0  0  0  0
   29.4493    2.5121   23.8207 H   0  0  0  0  0  0
   26.4470    1.0510   20.3047 H   0  0  0  0  0  0
   30.9259   -3.0600   25.6318 H   0  0  0  0  0  0
   29.4944   -2.8790   26.7018 H   0  0  0  0  0  0
   30.8301   -4.9073   27.6230 H   0  0  0  0  0  0
   32.3295   -4.5992   28.5629 H   0  0  0  0  0  0
   31.0885   -2.4495   29.8378 H   0  0  0  0  0  0
   29.5891   -2.7576   28.8979 H   0  0  0  0  0  0
   33.1427   -2.0262   26.9174 H   0  0  0  0  0  0
   33.3189   -2.7239   28.5633 H   0  0  0  0  0  0
   32.4829   -1.1498   28.3398 H   0  0  0  0  0  0
   31.7294    3.3867   26.2557 H   0  0  0  0  0  0
   30.1411    3.4334   25.4181 H   0  0  0  0  0  0
   31.6015    2.8605   24.5429 H   0  0  0  0  0  0
   27.4222   -2.4884   22.5469 H   0  0  0  0  0  0
  1 13  2  0  0  0
  1 17  1  0  0  0
  1 18  1  0  0  0
  2 19  1  0  0  0
  2 20  2  0  0  0
  2 21  1  0  0  0
  3  6  1  0  0  0
  3 22  2  0  0  0
  3 23  1  0  0  0
  4  5  2  0  0  0
  4 24  1  0  0  0
  4 27  1  0  0  0
  5  6  1  0  0  0
  5 34  1  0  0  0
  6 25  2  0  0  0
  7 25  1  0  0  0
  7 26  2  0  0  0
  7 35  1  0  0  0
  8 28  1  0  0  0
  8 29  1  0  0  0
  8 30  1  0  0  0
  8 31  1  0  0  0
  9 10  1  0  0  0
  9 36  1  0  0  0
  9 37  1  0  0  0
  9 38  1  0  0  0
 10 11  1  0  0  0
 10 39  1  0  0  0
 11 12  2  0  0  0
 11 13  1  0  0  0
 13 14  1  0  0  0
 14 15  2  0  0  0
 14 40  1  0  0  0
 15 16  1  0  0  0
 15 41  1  0  0  0
 16 17  2  0  0  0
 16 42  1  0  0  0
 17 20  1  0  0  0
 18 19  2  0  0  0
 18 43  1  0  0  0
 19 44  1  0  0  0
 20 45  1  0  0  0
 21 22  1  0  0  0
 22 26  1  0  0  0
 23 24  2  0  0  0
 23 46  1  0  0  0
 24 32  1  0  0  0
 25 60  1  0  0  0
 26 47  1  0  0  0
 27 28  1  0  0  0
 28 48  1  0  0  0
 28 49  1  0  0  0
 29 30  1  0  0  0
 29 50  1  0  0  0
 29 51  1  0  0  0
 30 52  1  0  0  0
 30 53  1  0  0  0
 31 54  1  0  0  0
 31 55  1  0  0  0
 31 56  1  0  0  0
 32 33  1  0  0  0
 33 57  1  0  0  0
 33 58  1  0  0  0
 33 59  1  0  0  0
M  CHG  2  25   1  31   1
M  END
> <s_m_source_file>
../4rwl_ligand.sdf

> <i_m_source_file_index>
1

> <s_epik_input>
W0NIM11bTkhdQyg9TyljMVtjSF1bY0hdW2NIXWMoYzEyKVtjSF1jKFtjSF1bY0hdMilPYzNbY0hdW2NIXW5jKGMzNClbY0hdYyhjKFtjSF00KU9bQ0gzXSlPW0NIMl1DNShbTkgzK10pW0NIMl1bQ0gyXTU=

> <s_epik_cmdline>
J2VwaWtfYXBwJywgJy1pbWFlJywgJ2xpZ2FuZF9wcm8ubWFlJywgJy1vbWFlJywgJ2xpZ2FuZF9wcmVwLm1hZScsICctbXMnLCAnMScsICctcGgnLCAnNycsICctcGh0JywgJzAuNScsICctbnQn

> <r_lp_tautomer_probability>
1

> <r_epik_Ionization_Penalty>
  0.0800

> <r_epik_Ionization_Penalty_Charging>
  0.0800

> <r_epik_Ionization_Penalty_Neutral>
  0.0000

> <r_epik_State_Penalty>
 -0.0000

> <r_epik_Charging_Adjusted_Penalty>
0.0799705272256169

> <i_epik_Tot_Q>
2

> <i_epik_Tot_abs_Q>
2

$$$$
