4rww_ligand
                    3D
 Schrodinger Suite 2020-3.
 66 72  0  0  1  0            999 V2000
   59.7810   74.0240  -87.8770 P   0  0  2  0  0  0
   59.2200   73.4190  -86.6290 O   0  0  0  0  0  0
   60.9150   75.0240  -87.8200 O   0  5  0  0  0  0
   58.6440   74.7680  -88.7320 O   0  0  0  0  0  0
   57.3730   74.1040  -88.9500 C   0  0  0  0  0  0
   56.4560   75.0190  -89.7280 C   0  0  1  0  0  0
   56.1990   76.2010  -88.9960 O   0  0  0  0  0  0
   57.0340   75.5140  -91.0460 C   0  0  1  0  0  0
   56.8820   74.4940  -92.0320 O   0  0  0  0  0  0
   56.3110   76.8140  -91.3340 C   0  0  1  0  0  0
   55.2740   76.6680  -92.2980 O   0  0  0  0  0  0
   55.6910   77.0620  -89.9740 C   0  0  2  0  0  0
   55.7950   78.4100  -89.5790 N   0  0  0  0  0  0
   54.7220   79.2080  -89.2090 C   0  0  0  0  0  0
   55.1510   80.3930  -88.7350 N   0  0  0  0  0  0
   56.5100   80.2740  -88.7870 C   0  0  0  0  0  0
   57.5690   81.1860  -88.4280 C   0  0  0  0  0  0
   57.2750   82.4130  -87.9730 N   0  0  0  0  0  0
   58.8240   80.7590  -88.6150 N   0  0  0  0  0  0
   59.1000   79.5320  -89.0250 C   0  0  0  0  0  0
   58.2090   78.6310  -89.4410 N   0  0  0  0  0  0
   56.8980   78.9730  -89.2690 C   0  0  0  0  0  0
   57.9910   74.2830  -93.1730 P   0  0  2  0  0  0
   58.4360   75.5820  -93.7190 O   0  0  0  0  0  0
   57.4580   73.2410  -94.1480 O   0  5  0  0  0  0
   59.2580   73.6410  -92.3970 O   0  0  0  0  0  0
   59.2440   72.3340  -91.8230 C   0  0  0  0  0  0
   60.5710   72.1280  -91.1510 C   0  0  1  0  0  0
   61.6340   72.1950  -92.1210 O   0  0  0  0  0  0
   60.9120   73.1610  -90.0990 C   0  0  1  0  0  0
   60.2730   72.8290  -88.8700 O   0  0  0  0  0  0
   62.4370   73.0600  -90.0160 C   0  0  1  0  0  0
   62.8360   71.9040  -89.2700 O   0  0  0  0  0  0
   62.7730   72.8040  -91.4730 C   0  0  2  0  0  0
   63.0300   74.0500  -92.1930 N   0  0  0  0  0  0
   62.1360   74.9580  -92.7600 C   0  0  0  0  0  0
   62.7960   75.9420  -93.4120 N   0  0  0  0  0  0
   64.1320   75.8120  -93.0470 C   0  0  0  0  0  0
   65.3320   76.5150  -93.4440 C   0  0  0  0  0  0
   65.2470   77.6500  -94.1910 N   0  0  0  0  0  0
   66.5080   75.9990  -93.0570 N   0  0  0  0  0  0
   66.5470   74.8780  -92.3200 C   0  0  0  0  0  0
   65.4690   74.1310  -91.9760 N   0  0  0  0  0  0
   64.2630   74.5630  -92.3650 C   0  0  0  0  0  0
   57.5365   73.1770  -89.5192 H   0  0  0  0  0  0
   56.9143   73.8624  -87.9798 H   0  0  0  0  0  0
   55.5273   74.4474  -89.8720 H   0  0  0  0  0  0
   58.1217   75.6749  -91.0789 H   0  0  0  0  0  0
   56.9277   77.6050  -91.7856 H   0  0  0  0  0  0
   55.5256   76.4804  -93.3523 H   0  0  0  0  0  0
   54.6112   76.8525  -89.9854 H   0  0  0  0  0  0
   53.6751   78.9157  -89.2908 H   0  0  0  0  0  0
   56.2252   82.7125  -87.8376 H   0  0  0  0  0  0
   58.0836   83.1198  -87.7352 H   0  0  0  0  0  0
   60.1476   79.2309  -89.0226 H   0  0  0  0  0  0
   58.4255   72.2635  -91.0915 H   0  0  0  0  0  0
   59.0924   71.5869  -92.6160 H   0  0  0  0  0  0
   60.5120   71.1270  -90.6988 H   0  0  0  0  0  0
   60.5339   74.1781  -90.2794 H   0  0  0  0  0  0
   62.9410   73.8963  -89.5095 H   0  0  0  0  0  0
   62.6837   71.8726  -88.1810 H   0  0  0  0  0  0
   63.6586   72.1547  -91.5377 H   0  0  0  0  0  0
   61.0509   74.8844  -92.6874 H   0  0  0  0  0  0
   64.2625   78.0406  -94.4879 H   0  0  0  0  0  0
   66.1629   78.1765  -94.4977 H   0  0  0  0  0  0
   67.5229   74.5413  -91.9702 H   0  0  0  0  0  0
  1  2  2  0  0  0
  1  3  1  0  0  0
  1  4  1  0  0  0
  1 31  1  0  0  0
  4  5  1  0  0  0
  5  6  1  0  0  0
  5 45  1  0  0  0
  5 46  1  0  0  0
  6  7  1  0  0  0
  6  8  1  0  0  0
  6 47  1  0  0  0
  7 12  1  0  0  0
  8  9  1  0  0  0
  8 10  1  0  0  0
  8 48  1  0  0  0
  9 23  1  0  0  0
 10 11  1  0  0  0
 10 12  1  0  0  0
 10 49  1  0  0  0
 11 50  1  0  0  0
 12 13  1  0  0  0
 12 51  1  0  0  0
 13 14  1  0  0  0
 13 22  1  0  0  0
 14 15  2  0  0  0
 14 52  1  0  0  0
 15 16  1  0  0  0
 16 17  2  0  0  0
 16 22  1  0  0  0
 17 18  1  0  0  0
 17 19  1  0  0  0
 18 53  1  0  0  0
 18 54  1  0  0  0
 19 20  2  0  0  0
 20 21  1  0  0  0
 20 55  1  0  0  0
 21 22  2  0  0  0
 23 24  2  0  0  0
 23 25  1  0  0  0
 23 26  1  0  0  0
 26 27  1  0  0  0
 27 28  1  0  0  0
 27 56  1  0  0  0
 27 57  1  0  0  0
 28 29  1  0  0  0
 28 30  1  0  0  0
 28 58  1  0  0  0
 29 34  1  0  0  0
 30 31  1  0  0  0
 30 32  1  0  0  0
 30 59  1  0  0  0
 32 33  1  0  0  0
 32 34  1  0  0  0
 32 60  1  0  0  0
 33 61  1  0  0  0
 34 35  1  0  0  0
 34 62  1  0  0  0
 35 36  1  0  0  0
 35 44  1  0  0  0
 36 37  2  0  0  0
 36 63  1  0  0  0
 37 38  1  0  0  0
 38 39  2  0  0  0
 38 44  1  0  0  0
 39 40  1  0  0  0
 39 41  1  0  0  0
 40 64  1  0  0  0
 40 65  1  0  0  0
 41 42  2  0  0  0
 42 43  1  0  0  0
 42 66  1  0  0  0
 43 44  2  0  0  0
M  CHG  2   3  -1  25  -1
M  END
> <s_m_source_file>
../4rww_ligand.sdf

> <i_m_source_file_index>
1

> <s_epik_input>
W05IMl1jMW5bY0hdbmMoYzEyKW4oW2NIXW4yKVtDQEhdKE8zKVtDQEhdKFtPSF0pW0NASF0oT1tQQEBdKD1PKShbT0hdKU9bQ0gyXTQpW0NASF0zW0NIMl1PW1BAQF0oPU8pKFtPSF0pT1tDQEhdKFtDQEBIXTQ1KVtDQEBIXShbT0hdKVtDQEBIXShPNSluKFtjSF1uNiljKGM2NyluW2NIXW5jN1tOSDJd

> <s_epik_cmdline>
J2VwaWtfYXBwJywgJy1pbWFlJywgJ2xpZ2FuZF9wcm8ubWFlJywgJy1vbWFlJywgJ2xpZ2FuZF9wcmVwLm1hZScsICctbXMnLCAnMScsICctcGgnLCAnNycsICctcGh0JywgJzAuNScsICctbnQn

> <r_lp_tautomer_probability>
1

> <r_epik_Ionization_Penalty>
  0.0014

> <r_epik_Ionization_Penalty_Charging>
  0.0004

> <r_epik_Ionization_Penalty_Neutral>
  0.0010

> <r_epik_State_Penalty>
 -0.0000

> <r_epik_Charging_Adjusted_Penalty>
0.000413092635651292

> <i_epik_Tot_Q>
-2

> <i_epik_Tot_abs_Q>
2

> <s_epik_Chemistry_Notes>
This compound contains an acetal/aminal-like group ( X-CH(R)-Y where X, Y are N, S, or O) that may be acid/base labile, releasing an aldehyde.

$$$$
