4rx5_ligand
                    3D
 Schrodinger Suite 2020-3.
 64 69  0  0  1  0            999 V2000
  -37.6010   27.5110   -6.9450 C   0  0  0  0  0  0
  -38.6550   27.6910   -7.9990 C   0  0  0  0  0  0
  -38.3360   28.0380   -9.3190 C   0  0  0  0  0  0
  -39.3430   28.1660  -10.2640 C   0  0  0  0  0  0
  -40.6630   27.9630   -9.9000 C   0  0  0  0  0  0
  -40.9680   27.6190   -8.6060 C   0  0  0  0  0  0
  -39.9810   27.4750   -7.6500 C   0  0  0  0  0  0
  -40.2910   27.1250   -6.3220 N   0  0  0  0  0  0
  -40.8680   28.0100   -5.5010 C   0  0  0  0  0  0
  -41.0910   29.1440   -5.8800 O   0  0  0  0  0  0
  -41.1540   27.6720   -4.1020 C   0  0  0  0  0  0
  -40.7790   26.5840   -3.4110 C   0  0  0  0  0  0
  -41.1790   26.5770   -2.0570 C   0  0  0  0  0  0
  -40.9710   25.5970   -1.0530 C   0  0  0  0  0  0
  -41.4480   25.7810    0.2110 C   0  0  0  0  0  0
  -42.1340   26.9440    0.5510 C   0  0  0  0  0  0
  -42.3530   27.9080   -0.3940 C   0  0  0  0  0  0
  -41.8760   27.7340   -1.6940 C   0  0  0  0  0  0
  -42.0050   28.8050   -3.0760 S   0  0  0  0  0  0
  -42.2630   27.4200   -8.2610 F   0  0  0  0  0  0
  -36.9310   28.2490   -9.7510 C   0  0  0  0  0  0
  -36.4480   27.6660  -10.9450 C   0  0  0  0  0  0
  -35.1440   27.8730  -11.3130 C   0  0  1  0  0  0
  -34.3150   28.6610  -10.4830 C   0  0  0  0  0  0
  -33.1340   28.8510  -10.7640 O   0  0  0  0  0  0
  -34.8140   29.1970   -9.3730 N   0  0  0  0  0  0
  -36.1470   28.9990   -9.0180 N   0  0  0  0  0  0
  -34.5160   27.3620  -12.4510 N   0  0  0  0  0  0
  -35.1450   26.8340  -13.5690 C   0  0  0  0  0  0
  -34.5380   26.6180  -14.8240 C   0  0  0  0  0  0
  -35.4820   26.0920  -15.6250 C   0  0  0  0  0  0
  -36.6240   25.9810  -14.9080 N   0  0  0  0  0  0
  -36.3910   26.4410  -13.6280 N   0  0  0  0  0  0
  -37.8840   25.4560  -15.4250 C   0  0  0  0  0  0
  -37.8340   25.6230  -16.9480 C   0  0  0  0  0  0
  -36.6120   25.0030  -17.4820 N   0  0  2  0  0  0
  -35.3630   25.6830  -17.0730 C   0  0  0  0  0  0
  -36.6840   24.9120  -18.9480 C   0  0  0  0  0  0
  -36.6109   27.7177   -7.3775 H   0  0  0  0  0  0
  -37.6292   26.4769   -6.5711 H   0  0  0  0  0  0
  -37.7907   28.2066   -6.1142 H   0  0  0  0  0  0
  -39.0951   28.4264  -11.2930 H   0  0  0  0  0  0
  -41.4574   28.0758  -10.6378 H   0  0  0  0  0  0
  -40.0589   26.1159   -5.9507 H   0  0  0  0  0  0
  -40.2103   25.7697   -3.8600 H   0  0  0  0  0  0
  -40.4234   24.6861   -1.2947 H   0  0  0  0  0  0
  -41.2905   25.0088    0.9640 H   0  0  0  0  0  0
  -42.4961   27.0859    1.5693 H   0  0  0  0  0  0
  -42.9007   28.8132   -0.1316 H   0  0  0  0  0  0
  -37.1167   27.0537  -11.5678 H   0  0  0  0  0  0
  -35.4438   28.7737  -11.8687 H   0  0  0  0  0  0
  -34.1583   29.8040   -8.7314 H   0  0  0  0  0  0
  -36.5517   29.4753   -8.1128 H   0  0  0  0  0  0
  -33.4180   27.3546  -12.5167 H   0  0  0  0  0  0
  -33.5042   26.8353  -15.0926 H   0  0  0  0  0  0
  -37.9801   24.3955  -15.1491 H   0  0  0  0  0  0
  -38.7220   26.0241  -14.9949 H   0  0  0  0  0  0
  -38.7125   25.1384  -17.3990 H   0  0  0  0  0  0
  -37.8363   26.6938  -17.1997 H   0  0  0  0  0  0
  -35.2050   26.5767  -17.6946 H   0  0  0  0  0  0
  -34.5103   24.9983  -17.1917 H   0  0  0  0  0  0
  -37.6160   24.4051  -19.2386 H   0  0  0  0  0  0
  -35.8229   24.3391  -19.3225 H   0  0  0  0  0  0
  -36.6670   25.9237  -19.3794 H   0  0  0  0  0  0
  1  2  1  0  0  0
  1 39  1  0  0  0
  1 40  1  0  0  0
  1 41  1  0  0  0
  2  3  2  0  0  0
  2  7  1  0  0  0
  3  4  1  0  0  0
  3 21  1  0  0  0
  4  5  2  0  0  0
  4 42  1  0  0  0
  5  6  1  0  0  0
  5 43  1  0  0  0
  6  7  2  0  0  0
  6 20  1  0  0  0
  7  8  1  0  0  0
  8  9  1  0  0  0
  8 44  1  0  0  0
  9 10  2  0  0  0
  9 11  1  0  0  0
 11 12  2  0  0  0
 11 19  1  0  0  0
 12 13  1  0  0  0
 12 45  1  0  0  0
 13 14  2  0  0  0
 13 18  1  0  0  0
 14 15  1  0  0  0
 14 46  1  0  0  0
 15 16  2  0  0  0
 15 47  1  0  0  0
 16 17  1  0  0  0
 16 48  1  0  0  0
 17 18  2  0  0  0
 17 49  1  0  0  0
 18 19  1  0  0  0
 21 22  2  0  0  0
 21 27  1  0  0  0
 22 23  1  0  0  0
 22 50  1  0  0  0
 23 24  1  0  0  0
 23 28  1  0  0  0
 23 51  1  0  0  0
 24 25  2  0  0  0
 24 26  1  0  0  0
 26 27  1  0  0  0
 26 52  1  0  0  0
 27 53  1  0  0  0
 28 29  1  0  0  0
 28 54  1  0  0  0
 29 30  1  0  0  0
 29 33  2  0  0  0
 30 31  2  0  0  0
 30 55  1  0  0  0
 31 32  1  0  0  0
 31 37  1  0  0  0
 32 33  1  0  0  0
 32 34  1  0  0  0
 34 35  1  0  0  0
 34 56  1  0  0  0
 34 57  1  0  0  0
 35 36  1  0  0  0
 35 58  1  0  0  0
 35 59  1  0  0  0
 36 37  1  0  0  0
 36 38  1  0  0  0
 37 60  1  0  0  0
 37 61  1  0  0  0
 38 62  1  0  0  0
 38 63  1  0  0  0
 38 64  1  0  0  0
M  END
> <s_m_source_file>
../4rx5_ligand.sdf

> <i_m_source_file_index>
1

> <s_epik_input>
W0NIMl0xW05ASCtdKFtDSDNdKVtDSDJdW0NIMl1uKGMxMiluYyhbY0hdMilbTkhdW0NIXShDKD1PKVtOSF1bTkhdMylbQ0hdPUMzYyhjNFtDSDNdKVtjSF1bY0hdYyhGKWM0W05IXUMoPU8pYyhbY0hdNSlzYyhjNTYpW2NIXVtjSF1bY0hdW2NIXTY=

> <s_epik_cmdline>
J2VwaWtfYXBwJywgJy1pbWFlJywgJ2xpZ2FuZF9wcm8ubWFlJywgJy1vbWFlJywgJ2xpZ2FuZF9wcmVwLm1hZScsICctbXMnLCAnMScsICctcGgnLCAnNycsICctcGh0JywgJzAuNScsICctbnQn

> <r_lp_tautomer_probability>
1

> <r_epik_Ionization_Penalty>
  0.2806

> <r_epik_Ionization_Penalty_Charging>
  0.0000

> <r_epik_Ionization_Penalty_Neutral>
  0.2806

> <r_epik_State_Penalty>
  0.2652

> <r_epik_Charging_Adjusted_Penalty>
0.265242211597361

> <i_epik_Tot_Q>
0

> <i_epik_Tot_abs_Q>
0

$$$$
