4rx7_ligand
                    3D
 Schrodinger Suite 2020-3.
 52 55  0  0  1  0            999 V2000
    1.3570    4.4500   10.8530 C   0  0  0  0  0  0
    1.5020    3.7750   12.2200 C   0  0  1  0  0  0
    3.4070    2.7040   13.3730 C   0  0  0  0  0  0
    2.8780    3.7260   12.6720 N   0  0  0  0  0  0
    4.4520    0.7630   14.8460 C   0  0  0  0  0  0
    5.1000   -0.2870   15.7220 C   0  0  0  0  0  0
    4.6760    2.8460   13.7920 N   0  0  0  0  0  0
    3.1170    0.6480   14.3540 C   0  0  0  0  0  0
    1.0050   -0.7670   14.4150 C   0  0  0  0  0  0
    0.5230   -1.8870   15.0870 C   0  0  0  0  0  0
   -0.8090   -2.2460   14.9650 C   0  0  0  0  0  0
    5.1900    1.8600   14.5510 N   0  0  0  0  0  0
   -1.6760   -1.4880   14.1970 C   0  0  0  0  0  0
   -1.2030   -0.3640   13.5110 C   0  0  0  0  0  0
    0.1450   -0.0080   13.6260 C   0  0  0  0  0  0
    6.3820   -0.1090   15.9930 N   0  0  0  0  0  0
    4.4530   -1.2530   16.1380 O   0  0  0  0  0  0
    2.5990    1.6510   13.6220 N   0  0  0  0  0  0
   -0.1070    4.5950   10.4410 C   0  0  0  0  0  0
   -0.9390    5.2710   11.5320 C   0  0  0  0  0  0
   -0.8240    4.5400   12.8710 C   0  0  0  0  0  0
    0.6160    4.4540   13.3580 C   0  0  2  0  0  0
    1.1250    5.7990   13.6980 N   0  3  0  0  0  0
    2.3530   -0.4530   14.6520 N   0  0  0  0  0  0
   -2.1270    0.4600   12.8010 N   0  0  0  0  0  0
   -1.7860    1.3820   11.9010 N   0  0  0  0  0  0
   -2.9220    1.9020   11.4550 C   0  0  0  0  0  0
   -4.0040    1.2130   12.1370 C   0  0  0  0  0  0
   -3.4500    0.3230   12.9500 N   0  0  0  0  0  0
    1.8051    5.4539   10.8904 H   0  0  0  0  0  0
    1.8712    3.8472   10.0900 H   0  0  0  0  0  0
    1.2246    2.7258   12.0407 H   0  0  0  0  0  0
    3.5610    4.5582   12.4462 H   0  0  0  0  0  0
    1.1933   -2.4807   15.7085 H   0  0  0  0  0  0
   -1.1781   -3.1338   15.4786 H   0  0  0  0  0  0
   -2.7274   -1.7668   14.1266 H   0  0  0  0  0  0
    0.5231    0.8663   13.0962 H   0  0  0  0  0  0
    6.9111    0.7702   15.5965 H   0  0  0  0  0  0
    6.9194   -0.8401   16.6149 H   0  0  0  0  0  0
   -0.1723    5.2056    9.5284 H   0  0  0  0  0  0
   -0.5338    3.5998   10.2476 H   0  0  0  0  0  0
   -0.5894    6.3045   11.6722 H   0  0  0  0  0  0
   -1.9977    5.2794   11.2335 H   0  0  0  0  0  0
   -1.4106    5.0750   13.6324 H   0  0  0  0  0  0
   -1.2100    3.5155   12.7638 H   0  0  0  0  0  0
    0.6492    3.8987   14.3069 H   0  0  0  0  0  0
    2.1650    5.7199   14.0476 H   0  0  0  0  0  0
    0.5031    6.2362   14.4930 H   0  0  0  0  0  0
    1.0858    6.4420   12.8064 H   0  0  0  0  0  0
    2.8018   -1.3073   15.1800 H   0  0  0  0  0  0
   -3.0243    2.6966   10.7160 H   0  0  0  0  0  0
   -5.0709    1.3934   12.0054 H   0  0  0  0  0  0
  1  2  1  0  0  0
  1 19  1  0  0  0
  1 30  1  0  0  0
  1 31  1  0  0  0
  2  4  1  0  0  0
  2 22  1  0  0  0
  2 32  1  0  0  0
  3  4  1  0  0  0
  3  7  2  0  0  0
  3 18  1  0  0  0
  4 33  1  0  0  0
  5  6  1  0  0  0
  5  8  1  0  0  0
  5 12  2  0  0  0
  6 16  1  0  0  0
  6 17  2  0  0  0
  7 12  1  0  0  0
  8 18  2  0  0  0
  8 24  1  0  0  0
  9 10  2  0  0  0
  9 15  1  0  0  0
  9 24  1  0  0  0
 10 11  1  0  0  0
 10 34  1  0  0  0
 11 13  2  0  0  0
 11 35  1  0  0  0
 13 14  1  0  0  0
 13 36  1  0  0  0
 14 15  2  0  0  0
 14 25  1  0  0  0
 15 37  1  0  0  0
 16 38  1  0  0  0
 16 39  1  0  0  0
 19 20  1  0  0  0
 19 40  1  0  0  0
 19 41  1  0  0  0
 20 21  1  0  0  0
 20 42  1  0  0  0
 20 43  1  0  0  0
 21 22  1  0  0  0
 21 44  1  0  0  0
 21 45  1  0  0  0
 22 23  1  0  0  0
 22 46  1  0  0  0
 23 47  1  0  0  0
 23 48  1  0  0  0
 23 49  1  0  0  0
 24 50  1  0  0  0
 25 26  1  0  0  0
 25 29  1  0  0  0
 26 27  2  0  0  0
 27 28  1  0  0  0
 27 51  1  0  0  0
 28 29  2  0  0  0
 28 52  1  0  0  0
M  CHG  1  23   1
M  END
> <s_m_source_file>
../4rx7_ligand.sdf

> <i_m_source_file_index>
1

> <s_epik_input>
W05IMytdW0NASF0xW0NIMl1bQ0gyXVtDSDJdW0NIMl1bQ0BIXTFbTkhdYzJubmMoQyg9TylbTkgyXSljKG4yKVtOSF1jM1tjSF1bY0hdW2NIXWMoW2NIXTMpLW40bltjSF1bY0hdbjQ=

> <s_epik_cmdline>
J2VwaWtfYXBwJywgJy1pbWFlJywgJ2xpZ2FuZF9wcm8ubWFlJywgJy1vbWFlJywgJ2xpZ2FuZF9wcmVwLm1hZScsICctbXMnLCAnMScsICctcGgnLCAnNycsICctcGh0JywgJzAuNScsICctbnQn

> <r_lp_tautomer_probability>
1

> <r_epik_Ionization_Penalty>
  0.0004

> <r_epik_Ionization_Penalty_Charging>
  0.0002

> <r_epik_Ionization_Penalty_Neutral>
  0.0002

> <r_epik_State_Penalty>
 -0.0000

> <r_epik_Charging_Adjusted_Penalty>
0.000221028742301118

> <i_epik_Tot_Q>
1

> <i_epik_Tot_abs_Q>
1

$$$$
