4rx8_ligand
                    3D
 Schrodinger Suite 2020-3.
 49 52  0  0  1  0            999 V2000
    0.4040    4.5760   10.2660 C   0  0  0  0  0  0
   -0.6060    5.1660   11.2460 C   0  0  0  0  0  0
   -0.5780    4.4630   12.5860 C   0  0  0  0  0  0
   -1.0940    0.0410   12.8480 C   0  0  0  0  0  0
   -1.8660   -0.9650   13.4600 C   0  0  0  0  0  0
    4.2700    0.5710   14.9430 C   0  0  0  0  0  0
    3.4900    2.6720   13.4590 C   0  0  0  0  0  0
    3.0610    0.5460   14.2940 C   0  0  0  0  0  0
    4.7630   -0.5620   15.7870 C   0  0  0  0  0  0
    0.1180   -1.5670   14.6710 C   0  0  0  0  0  0
   -1.2090   -1.7650   14.3790 C   0  0  0  0  0  0
   -1.5730   -2.9370   15.2710 C   0  0  0  0  0  0
   -0.4730   -3.2200   15.9460 C   0  0  0  0  0  0
    0.8060    4.4470   13.2100 C   0  0  1  0  0  0
    1.7670    3.7770   12.2000 C   0  0  1  0  0  0
    1.7780    4.5750   10.8960 C   0  0  0  0  0  0
    3.0750    3.6960   12.7390 N   0  0  0  0  0  0
    1.2050    5.8290   13.5360 N   0  3  0  0  0  0
    0.9170   -0.5560   14.0720 C   0  0  0  0  0  0
    0.2710    0.2170   13.1250 C   0  0  0  0  0  0
    2.2170   -0.4930   14.4300 N   0  0  0  0  0  0
    5.0550    1.6610   14.8300 N   0  0  0  0  0  0
    4.6510    2.6780   14.0910 N   0  0  0  0  0  0
    2.7020    1.6040   13.5830 N   0  0  0  0  0  0
    4.0550   -1.4470   16.0680 O   0  0  0  0  0  0
    0.4960   -2.4300   15.5860 N   0  0  0  0  0  0
    6.0020   -0.4850   16.1740 N   0  0  0  0  0  0
    0.1143    3.5443   10.0176 H   0  0  0  0  0  0
    0.4222    5.1827    9.3486 H   0  0  0  0  0  0
   -0.3775    6.2290   11.4124 H   0  0  0  0  0  0
   -1.6198    5.0697   10.8301 H   0  0  0  0  0  0
   -1.2563    4.9762   13.2835 H   0  0  0  0  0  0
   -0.9028    3.4197   12.4596 H   0  0  0  0  0  0
   -1.5742    0.7082   12.1323 H   0  0  0  0  0  0
   -2.9207   -1.1058   13.2236 H   0  0  0  0  0  0
   -2.5379   -3.4393   15.3403 H   0  0  0  0  0  0
   -0.3004   -3.9869   16.7155 H   0  0  0  0  0  0
    0.8236    3.9121   14.1710 H   0  0  0  0  0  0
    1.4960    2.7272   12.0146 H   0  0  0  0  0  0
    2.4990    4.1174   10.2026 H   0  0  0  0  0  0
    2.0830    5.6095   11.1121 H   0  0  0  0  0  0
    3.7937    4.5099   12.5631 H   0  0  0  0  0  0
    0.4909    6.2568   14.2551 H   0  0  0  0  0  0
    1.2092    6.4355   12.6183 H   0  0  0  0  0  0
    2.2124    5.8252   13.9777 H   0  0  0  0  0  0
    0.8325    0.9779   12.5829 H   0  0  0  0  0  0
    2.5695   -1.4327   14.8802 H   0  0  0  0  0  0
    6.6189    0.3755   15.8758 H   0  0  0  0  0  0
    6.4332   -1.2804   16.7996 H   0  0  0  0  0  0
  1  2  1  0  0  0
  1 16  1  0  0  0
  1 28  1  0  0  0
  1 29  1  0  0  0
  2  3  1  0  0  0
  2 30  1  0  0  0
  2 31  1  0  0  0
  3 14  1  0  0  0
  3 32  1  0  0  0
  3 33  1  0  0  0
  4  5  2  0  0  0
  4 20  1  0  0  0
  4 34  1  0  0  0
  5 11  1  0  0  0
  5 35  1  0  0  0
  6  8  2  0  0  0
  6  9  1  0  0  0
  6 22  1  0  0  0
  7 17  1  0  0  0
  7 23  1  0  0  0
  7 24  2  0  0  0
  8 21  1  0  0  0
  8 24  1  0  0  0
  9 25  2  0  0  0
  9 27  1  0  0  0
 10 11  2  0  0  0
 10 19  1  0  0  0
 10 26  1  0  0  0
 11 12  1  0  0  0
 12 13  1  0  0  0
 12 36  1  0  0  0
 13 26  2  0  0  0
 13 37  1  0  0  0
 14 15  1  0  0  0
 14 18  1  0  0  0
 14 38  1  0  0  0
 15 16  1  0  0  0
 15 17  1  0  0  0
 15 39  1  0  0  0
 16 40  1  0  0  0
 16 41  1  0  0  0
 17 42  1  0  0  0
 18 43  1  0  0  0
 18 44  1  0  0  0
 18 45  1  0  0  0
 19 20  2  0  0  0
 19 21  1  0  0  0
 20 46  1  0  0  0
 21 47  1  0  0  0
 22 23  2  0  0  0
 27 48  1  0  0  0
 27 49  1  0  0  0
M  CHG  1  18   1
M  END
> <s_m_source_file>
../4rx8_ligand.sdf

> <i_m_source_file_index>
1

> <s_epik_input>
W05IMytdW0NASF0xW0NIMl1bQ0gyXVtDSDJdW0NIMl1bQ0BIXTFbTkhdYyhubjIpbmMoYzJDKD1PKVtOSDJdKVtOSF1jM1tjSF1bY0hdW2NIXWMoYzM0KVtDSDJdW0NIXT1ONA==

> <s_epik_cmdline>
J2VwaWtfYXBwJywgJy1pbWFlJywgJ2xpZ2FuZF9wcm8ubWFlJywgJy1vbWFlJywgJ2xpZ2FuZF9wcmVwLm1hZScsICctbXMnLCAnMScsICctcGgnLCAnNycsICctcGh0JywgJzAuNScsICctbnQn

> <r_epik_Ionization_Penalty>
  0.0509

> <r_epik_Ionization_Penalty_Charging>
  0.0002

> <r_epik_Ionization_Penalty_Neutral>
  0.0507

> <r_epik_State_Penalty>
  0.0432

> <r_epik_Charging_Adjusted_Penalty>
0.0434365489857959

> <i_epik_Tot_Q>
1

> <i_epik_Tot_abs_Q>
1

> <s_epik_Chemistry_Notes>
This compound has an imine and may undergo hydrolysis.

$$$$
