4rx9_ligand
                    3D
 Schrodinger Suite 2020-3.
 53 56  0  0  1  0            999 V2000
    0.7180    4.4890   13.2900 C   0  0  2  0  0  0
   -0.7130    4.6440   12.7470 C   0  0  0  0  0  0
    5.2170    1.8220   14.5260 C   0  0  0  0  0  0
    4.4300    0.6850   14.7330 C   0  0  0  0  0  0
    4.9710   -0.4290   15.5510 C   0  0  0  0  0  0
    3.1500    0.6100   14.2180 C   0  0  0  0  0  0
    1.1240   -0.6660   14.3210 C   0  0  0  0  0  0
    0.5630   -1.7050   15.0130 C   0  0  0  0  0  0
   -0.7590   -2.0190   14.8630 C   0  0  0  0  0  0
   -1.5550   -1.2470   14.0420 C   0  0  0  0  0  0
   -1.0320   -0.1890   13.3200 C   0  0  0  0  0  0
    0.3360    0.0910   13.4620 C   0  0  0  0  0  0
   -3.8080    1.2280   11.9570 C   0  0  0  0  0  0
   -2.7330    1.9180   11.2450 C   0  0  0  0  0  0
    1.2070    5.8250   13.6600 N   0  3  0  0  0  0
   -0.7520    5.3880   11.3930 C   0  0  0  0  0  0
    0.1280    4.6870   10.3370 C   0  0  0  0  0  0
    1.5640    4.7040   10.8860 C   0  0  0  0  0  0
    1.6340    3.8850   12.1900 C   0  0  1  0  0  0
    3.0030    3.7850   12.6300 N   0  0  0  0  0  0
    3.4680    2.7320   13.3130 C   0  0  0  0  0  0
    4.6980    2.8070   13.8170 N   0  0  0  0  0  0
    6.2030   -0.3310   15.8860 N   0  0  0  0  0  0
    4.2250   -1.2820   15.9020 O   0  0  0  0  0  0
    2.4190   -0.4840   14.4890 N   0  0  0  0  0  0
   -1.9070    0.5170   12.5830 N   0  0  0  0  0  0
   -3.2430    0.4460   12.7360 N   0  0  0  0  0  0
   -1.6570    1.4470   11.6780 N   0  0  0  0  0  0
    2.6950    1.6520   13.5010 N   0  0  0  0  0  0
    0.7364    3.8602   14.1924 H   0  0  0  0  0  0
   -1.1595    3.6494   12.6009 H   0  0  0  0  0  0
   -1.3182    5.2155   13.4661 H   0  0  0  0  0  0
    6.2245    1.8925   14.9360 H   0  0  0  0  0  0
    1.1798   -2.2912   15.6942 H   0  0  0  0  0  0
   -1.1820   -2.8747   15.3892 H   0  0  0  0  0  0
   -2.6177   -1.4753   13.9605 H   0  0  0  0  0  0
    0.7833    0.9074   12.8950 H   0  0  0  0  0  0
   -4.8810    1.3711   11.8296 H   0  0  0  0  0  0
   -2.8465    2.6915   10.4855 H   0  0  0  0  0  0
    0.5571    6.2506   14.4388 H   0  0  0  0  0  0
    1.1947    6.4780   12.7749 H   0  0  0  0  0  0
    2.2351    5.7460   14.0432 H   0  0  0  0  0  0
   -1.7865    5.4170   11.0203 H   0  0  0  0  0  0
   -0.3820    6.4151   11.5282 H   0  0  0  0  0  0
   -0.2254    3.6555   10.1915 H   0  0  0  0  0  0
    0.0643    5.2342    9.3849 H   0  0  0  0  0  0
    2.2457    4.2642   10.1432 H   0  0  0  0  0  0
    1.8657    5.7416   11.0915 H   0  0  0  0  0  0
    1.3325    2.8436   12.0042 H   0  0  0  0  0  0
    3.7130    4.5950   12.4069 H   0  0  0  0  0  0
    6.8122    0.5016   15.5044 H   0  0  0  0  0  0
    6.6522   -1.0795   16.5554 H   0  0  0  0  0  0
    2.9028   -1.3790   14.9072 H   0  0  0  0  0  0
  1  2  1  0  0  0
  1 15  1  0  0  0
  1 19  1  0  0  0
  1 30  1  0  0  0
  2 16  1  0  0  0
  2 31  1  0  0  0
  2 32  1  0  0  0
  3  4  2  0  0  0
  3 22  1  0  0  0
  3 33  1  0  0  0
  4  5  1  0  0  0
  4  6  1  0  0  0
  5 23  1  0  0  0
  5 24  2  0  0  0
  6 25  1  0  0  0
  6 29  2  0  0  0
  7  8  2  0  0  0
  7 12  1  0  0  0
  7 25  1  0  0  0
  8  9  1  0  0  0
  8 34  1  0  0  0
  9 10  2  0  0  0
  9 35  1  0  0  0
 10 11  1  0  0  0
 10 36  1  0  0  0
 11 12  2  0  0  0
 11 26  1  0  0  0
 12 37  1  0  0  0
 13 14  1  0  0  0
 13 27  2  0  0  0
 13 38  1  0  0  0
 14 28  2  0  0  0
 14 39  1  0  0  0
 15 40  1  0  0  0
 15 41  1  0  0  0
 15 42  1  0  0  0
 16 17  1  0  0  0
 16 43  1  0  0  0
 16 44  1  0  0  0
 17 18  1  0  0  0
 17 45  1  0  0  0
 17 46  1  0  0  0
 18 19  1  0  0  0
 18 47  1  0  0  0
 18 48  1  0  0  0
 19 20  1  0  0  0
 19 49  1  0  0  0
 20 21  1  0  0  0
 20 50  1  0  0  0
 21 22  2  0  0  0
 21 29  1  0  0  0
 23 51  1  0  0  0
 23 52  1  0  0  0
 25 53  1  0  0  0
 26 27  1  0  0  0
 26 28  1  0  0  0
M  CHG  1  15   1
M  END
> <s_m_source_file>
../4rx9_ligand.sdf

> <i_m_source_file_index>
1

> <s_epik_input>
W05IMytdW0NASF0xW0NIMl1bQ0gyXVtDSDJdW0NIMl1bQ0BIXTFbTkhdYyhuW2NIXWMyQyg9TylbTkgyXSluYzJbTkhdYzNbY0hdW2NIXVtjSF1jKFtjSF0zKS1uNG5bY0hdW2NIXW40

> <s_epik_cmdline>
J2VwaWtfYXBwJywgJy1pbWFlJywgJ2xpZ2FuZF9wcm8ubWFlJywgJy1vbWFlJywgJ2xpZ2FuZF9wcmVwLm1hZScsICctbXMnLCAnMScsICctcGgnLCAnNycsICctcGh0JywgJzAuNScsICctbnQn

> <r_lp_tautomer_probability>
1

> <r_epik_Ionization_Penalty>
  0.0013

> <r_epik_Ionization_Penalty_Charging>
  0.0002

> <r_epik_Ionization_Penalty_Neutral>
  0.0011

> <r_epik_State_Penalty>
 -0.0000

> <r_epik_Charging_Adjusted_Penalty>
0.000221028742301118

> <i_epik_Tot_Q>
1

> <i_epik_Tot_abs_Q>
1

$$$$
