4rxa_ligand
                    3D
 Schrodinger Suite 2020-3.
 70 75  0  0  1  0            999 V2000
   -7.1930   37.3680  -11.3220 N   0  0  0  0  0  0
   -7.9830   36.2790  -11.9050 C   0  0  0  0  0  0
   -9.3870   36.5040  -11.4480 C   0  0  0  0  0  0
   -9.2640   37.5160  -10.4110 N   0  3  0  0  0  0
   -8.0020   38.0070  -10.4050 C   0  0  0  0  0  0
   -7.5960   38.8940   -9.4610 C   0  0  0  0  0  0
   -6.3550   39.4570   -9.5650 C   0  0  0  0  0  0
   -8.3690   39.1730   -8.3360 C   0  0  0  0  0  0
   -7.8910   40.0570   -7.3460 C   0  0  0  0  0  0
   -6.6390   40.6450   -7.4880 C   0  0  0  0  0  0
   -5.8930   40.3540   -8.6150 C   0  0  0  0  0  0
   -4.7290   40.8040   -8.8220 N   0  0  0  0  0  0
   -4.6120   41.6220   -9.8550 C   0  0  0  0  0  0
   -5.5910   42.0450  -10.4800 O   0  0  0  0  0  0
   -3.4480   41.4360  -10.4630 C   0  0  0  0  0  0
   -2.2480   41.5190   -9.7780 C   0  0  0  0  0  0
   -1.0810   41.1270  -10.4260 C   0  0  0  0  0  0
   -3.5010   40.8090  -11.6840 C   0  0  0  0  0  0
   -2.3620   40.4250  -12.3190 C   0  0  0  0  0  0
   -1.1410   40.7040  -11.7550 C   0  0  0  0  0  0
   -0.1330   40.0470  -12.2560 C   0  0  0  0  0  0
   -0.1100   38.8080  -11.7240 C   0  0  0  0  0  0
    0.7430   37.8950  -12.1340 C   0  0  0  0  0  0
    0.6780   40.3740  -13.3610 C   0  0  0  0  0  0
    1.6230   39.3970  -13.7930 C   0  0  0  0  0  0
    1.6340   38.1550  -13.1130 C   0  0  0  0  0  0
    2.3700   37.0730  -13.4020 C   0  0  0  0  0  0
    2.6890   36.7980  -14.5460 O   0  0  0  0  0  0
    2.2420   36.1670  -12.3870 N   0  0  0  0  0  0
    2.4800   34.8910  -12.5970 C   0  0  0  0  0  0
    3.2270   34.1250  -11.6620 C   0  0  0  0  0  0
    1.7730   34.2520  -13.6060 C   0  0  0  0  0  0
    1.9250   32.8940  -13.7940 C   0  0  0  0  0  0
    2.7090   32.1410  -12.9280 C   0  0  0  0  0  0
    3.3670   32.7340  -11.8600 C   0  0  0  0  0  0
    4.1250   31.9430  -11.0310 C   0  0  0  0  0  0
    3.9470   30.5890  -11.0020 N   0  3  0  0  0  0
    4.8920   29.9990  -10.0990 C   0  0  0  0  0  0
    5.9240   31.0330  -10.0470 C   0  0  0  0  0  0
    5.1300   32.2840  -10.1940 N   0  0  0  0  0  0
   -6.1557   37.5314  -11.6496 H   0  0  0  0  0  0
   -7.9094   36.3191  -13.0018 H   0  0  0  0  0  0
   -7.5969   35.3133  -11.5467 H   0  0  0  0  0  0
   -9.9970   36.8515  -12.2948 H   0  0  0  0  0  0
   -9.8016   35.5620  -11.0596 H   0  0  0  0  0  0
   -5.7176   39.1960  -10.4098 H   0  0  0  0  0  0
   -9.3472   38.7063   -8.2203 H   0  0  0  0  0  0
   -8.5022   40.2788   -6.4711 H   0  0  0  0  0  0
   -6.2533   41.3220   -6.7258 H   0  0  0  0  0  0
   -3.8997   40.5085   -8.1625 H   0  0  0  0  0  0
   -2.2180   41.8842   -8.7514 H   0  0  0  0  0  0
   -0.1267   41.1500   -9.8998 H   0  0  0  0  0  0
   -4.4678   40.6171  -12.1493 H   0  0  0  0  0  0
   -2.4174   39.8980  -13.2715 H   0  0  0  0  0  0
   -0.8170   38.5567  -10.9334 H   0  0  0  0  0  0
    0.7299   36.9073  -11.6731 H   0  0  0  0  0  0
    0.5867   41.3358  -13.8657 H   0  0  0  0  0  0
    2.3101   39.5986  -14.6148 H   0  0  0  0  0  0
    1.9377   36.5032  -11.3848 H   0  0  0  0  0  0
    3.6878   34.6068  -10.7997 H   0  0  0  0  0  0
    1.1002   34.8211  -14.2475 H   0  0  0  0  0  0
    1.4249   32.4062  -14.6307 H   0  0  0  0  0  0
    2.8085   31.0678  -13.0904 H   0  0  0  0  0  0
    4.4073   29.8170   -9.1284 H   0  0  0  0  0  0
    5.2502   29.0455  -10.5145 H   0  0  0  0  0  0
    6.4546   30.9734   -9.0853 H   0  0  0  0  0  0
    6.6380   30.8802  -10.8697 H   0  0  0  0  0  0
    5.4387   33.1969   -9.6636 H   0  0  0  0  0  0
  -10.0060   37.8975   -9.6941 H   0  0  0  0  0  0
    3.1648   30.1237  -11.6198 H   0  0  0  0  0  0
  1  2  1  0  0  0
  1  5  1  0  0  0
  1 41  1  0  0  0
  2  3  1  0  0  0
  2 42  1  0  0  0
  2 43  1  0  0  0
  3  4  1  0  0  0
  3 44  1  0  0  0
  3 45  1  0  0  0
  4  5  2  0  0  0
  4 69  1  0  0  0
  5  6  1  0  0  0
  6  7  2  0  0  0
  6  8  1  0  0  0
  7 11  1  0  0  0
  7 46  1  0  0  0
  8  9  2  0  0  0
  8 47  1  0  0  0
  9 10  1  0  0  0
  9 48  1  0  0  0
 10 11  2  0  0  0
 10 49  1  0  0  0
 11 12  1  0  0  0
 12 13  1  0  0  0
 12 50  1  0  0  0
 13 14  2  0  0  0
 13 15  1  0  0  0
 15 16  2  0  0  0
 15 18  1  0  0  0
 16 17  1  0  0  0
 16 51  1  0  0  0
 17 20  2  0  0  0
 17 52  1  0  0  0
 18 19  2  0  0  0
 18 53  1  0  0  0
 19 20  1  0  0  0
 19 54  1  0  0  0
 20 21  1  0  0  0
 21 22  2  0  0  0
 21 24  1  0  0  0
 22 23  1  0  0  0
 22 55  1  0  0  0
 23 26  2  0  0  0
 23 56  1  0  0  0
 24 25  2  0  0  0
 24 57  1  0  0  0
 25 26  1  0  0  0
 25 58  1  0  0  0
 26 27  1  0  0  0
 27 28  2  0  0  0
 27 29  1  0  0  0
 29 30  1  0  0  0
 29 59  1  0  0  0
 30 31  2  0  0  0
 30 32  1  0  0  0
 31 35  1  0  0  0
 31 60  1  0  0  0
 32 33  2  0  0  0
 32 61  1  0  0  0
 33 34  1  0  0  0
 33 62  1  0  0  0
 34 35  2  0  0  0
 34 63  1  0  0  0
 35 36  1  0  0  0
 36 37  2  0  0  0
 36 40  1  0  0  0
 37 38  1  0  0  0
 37 70  1  0  0  0
 38 39  1  0  0  0
 38 64  1  0  0  0
 38 65  1  0  0  0
 39 40  1  0  0  0
 39 66  1  0  0  0
 39 67  1  0  0  0
 40 68  1  0  0  0
M  CHG  2   4   1  37   1
M  END
> <s_m_source_file>
../4rxa_ligand.sdf

> <i_m_source_file_index>
1

> <s_epik_input>
W05IXTFbQ0gyXVtDSDJdTj1DMWMyW2NIXWMoW2NIXVtjSF1bY0hdMilbTkhdQyg9TyljM1tjSF1bY0hdYyhbY0hdW2NIXTMpLWM0W2NIXVtjSF1jKFtjSF1bY0hdNClDKD1PKVtOSF1jNVtjSF1jKFtjSF1bY0hdW2NIXTUpQzY9TltDSDJdW0NIMl1bTkhdNg==

> <s_epik_cmdline>
J2VwaWtfYXBwJywgJy1pbWFlJywgJ2xpZ2FuZF9wcm8ubWFlJywgJy1vbWFlJywgJ2xpZ2FuZF9wcmVwLm1hZScsICctbXMnLCAnMScsICctcGgnLCAnNycsICctcGh0JywgJzAuNScsICctbnQn

> <r_lp_tautomer_probability>
1

> <r_epik_Ionization_Penalty>
  0.0003

> <r_epik_Ionization_Penalty_Charging>
  0.0003

> <r_epik_Ionization_Penalty_Neutral>
  0.0000

> <r_epik_State_Penalty>
 -0.0000

> <r_epik_Charging_Adjusted_Penalty>
0.000262809820388612

> <i_epik_Tot_Q>
2

> <i_epik_Tot_abs_Q>
2

> <s_epik_Chemistry_Notes>
This compound has an imine and may undergo hydrolysis.

$$$$
