4rxc_ligand
                    3D
 Schrodinger Suite 2020-3.
 28 28  0  0  1  0            999 V2000
   32.3860   -1.0570   13.9020 O   0  5  0  0  0  0
   33.6360   -0.3830   13.5180 P   0  0  0  0  0  0
   34.8410   -1.1970   13.3260 O   0  0  0  0  0  0
   33.8130    1.0350   13.8730 O   0  5  0  0  0  0
   33.2090   -0.1330   11.6930 C   0  0  1  0  0  0
   34.7510    0.1770   10.7560 P   0  0  0  0  0  0
   35.4160    1.1350   11.6680 O   0  5  0  0  0  0
   34.2820    0.7680    9.4960 O   0  0  0  0  0  0
   35.4030   -1.1410   10.6630 O   0  0  0  0  0  0
   32.5710   -1.3080   11.1880 O   0  0  0  0  0  0
   32.3130    1.0670   11.4680 C   0  0  0  0  0  0
   31.1710    0.9680   12.4560 C   0  0  0  0  0  0
   30.0680    1.4150   11.7210 C   0  0  0  0  0  0
   29.2310    2.3820   12.2740 C   0  0  0  0  0  0
   28.1270    2.8500   11.5700 C   0  0  0  0  0  0
   27.8530    2.3570   10.3000 C   0  0  0  0  0  0
   28.6900    1.3880    9.7340 N   0  0  0  0  0  0
   29.8000    0.9180   10.4490 C   0  0  0  0  0  0
   35.7758   -1.6356   11.5721 H   0  0  0  0  0  0
   33.0747   -2.2830   11.2635 H   0  0  0  0  0  0
   32.8879    1.9900   11.6339 H   0  0  0  0  0  0
   31.9328    1.0523   10.4359 H   0  0  0  0  0  0
   31.0608   -0.0757   12.7856 H   0  0  0  0  0  0
   31.3825    1.6069   13.3261 H   0  0  0  0  0  0
   29.4437    2.7754   13.2680 H   0  0  0  0  0  0
   27.4766    3.6035   12.0143 H   0  0  0  0  0  0
   26.9888    2.7237    9.7461 H   0  0  0  0  0  0
   30.4528    0.1639   10.0092 H   0  0  0  0  0  0
  1  2  1  0  0  0
  2  3  2  0  0  0
  2  4  1  0  0  0
  2  5  1  0  0  0
  5  6  1  0  0  0
  5 10  1  0  0  0
  5 11  1  0  0  0
  6  7  1  0  0  0
  6  8  2  0  0  0
  6  9  1  0  0  0
  9 19  1  0  0  0
 10 20  1  0  0  0
 11 12  1  0  0  0
 11 21  1  0  0  0
 11 22  1  0  0  0
 12 13  1  0  0  0
 12 23  1  0  0  0
 12 24  1  0  0  0
 13 14  2  0  0  0
 13 18  1  0  0  0
 14 15  1  0  0  0
 14 25  1  0  0  0
 15 16  2  0  0  0
 15 26  1  0  0  0
 16 17  1  0  0  0
 16 27  1  0  0  0
 17 18  2  0  0  0
 18 28  1  0  0  0
M  CHG  3   1  -1   4  -1   7  -1
M  END
> <s_m_source_file>
../4rxc_ligand.sdf

> <i_m_source_file_index>
1

> <s_epik_input>
W09IXVAoPU8pKFtPSF0pQyhbT0hdKShQKD1PKShbT0hdKVtPSF0pW0NIMl1bQ0gyXWMxW2NIXVtjSF1bY0hdbltjSF0x

> <s_epik_cmdline>
J2VwaWtfYXBwJywgJy1pbWFlJywgJ2xpZ2FuZF9wcm8ubWFlJywgJy1vbWFlJywgJ2xpZ2FuZF9wcmVwLm1hZScsICctbXMnLCAnMScsICctcGgnLCAnNycsICctcGh0JywgJzAuNScsICctbnQn

> <r_epik_Ionization_Penalty>
  0.2393

> <r_epik_Ionization_Penalty_Charging>
  0.2270

> <r_epik_Ionization_Penalty_Neutral>
  0.0123

> <r_epik_State_Penalty>
  0.2175

> <r_epik_Charging_Adjusted_Penalty>
0.444474875423406

> <i_epik_Tot_Q>
-3

> <i_epik_Tot_abs_Q>
3

$$$$
