4rxd_ligand
                    3D
 Schrodinger Suite 2020-3.
 25 25  0  0  1  0            999 V2000
   31.6420    4.6430   14.9160 O   0  0  0  0  0  0
   32.3210    4.1540   13.6710 P   0  0  0  0  0  0
   31.7460    4.7730   12.4170 O   0  5  0  0  0  0
   32.3940    2.6390   13.5850 O   0  5  0  0  0  0
   34.0480    4.7270   13.8330 C   0  0  1  0  0  0
   34.7570    4.2980   12.6730 O   0  0  0  0  0  0
   34.1190    6.5520   13.9970 P   0  0  0  0  0  0
   33.3810    7.0870   12.7930 O   0  5  0  0  0  0
   33.4870    6.8950   15.3160 O   0  0  0  0  0  0
   35.5900    6.9240   14.0030 O   0  0  0  0  0  0
   34.6310    3.9830   15.0350 C   0  0  0  0  0  0
   36.0710    4.2630   15.4870 C   0  0  0  0  0  0
   36.3320    4.2550   16.8480 C   0  0  0  0  0  0
   37.6220    4.4960   17.3290 C   0  0  0  0  0  0
   38.6340    4.7280   16.4110 C   0  0  0  0  0  0
   38.3630    4.7280   15.0980 N   0  0  0  0  0  0
   37.1230    4.4940   14.6150 C   0  0  0  0  0  0
   34.4984    4.7103   11.6865 H   0  0  0  0  0  0
   36.2075    6.7400   13.1115 H   0  0  0  0  0  0
   34.0258    4.1980   15.9281 H   0  0  0  0  0  0
   34.6206    2.9010   14.8369 H   0  0  0  0  0  0
   35.5225    4.0586   17.5510 H   0  0  0  0  0  0
   37.8270    4.5013   18.3995 H   0  0  0  0  0  0
   39.6514    4.9107   16.7569 H   0  0  0  0  0  0
   36.9500    4.4869   13.5388 H   0  0  0  0  0  0
  1  2  2  0  0  0
  2  3  1  0  0  0
  2  4  1  0  0  0
  2  5  1  0  0  0
  5  6  1  0  0  0
  5  7  1  0  0  0
  5 11  1  0  0  0
  6 18  1  0  0  0
  7  8  1  0  0  0
  7  9  2  0  0  0
  7 10  1  0  0  0
 10 19  1  0  0  0
 11 12  1  0  0  0
 11 20  1  0  0  0
 11 21  1  0  0  0
 12 13  2  0  0  0
 12 17  1  0  0  0
 13 14  1  0  0  0
 13 22  1  0  0  0
 14 15  2  0  0  0
 14 23  1  0  0  0
 15 16  1  0  0  0
 15 24  1  0  0  0
 16 17  2  0  0  0
 17 25  1  0  0  0
M  CHG  3   3  -1   4  -1   8  -1
M  END
> <s_m_source_file>
../4rxd_ligand.sdf

> <i_m_source_file_index>
1

> <s_epik_input>
Tz1QKFtPSF0pKFtPSF0pQyhbT0hdKShQKD1PKShbT0hdKVtPSF0pW0NIMl1jMVtjSF1bY0hdW2NIXW5bY0hdMQ==

> <s_epik_cmdline>
J2VwaWtfYXBwJywgJy1pbWFlJywgJ2xpZ2FuZF9wcm8ubWFlJywgJy1vbWFlJywgJ2xpZ2FuZF9wcmVwLm1hZScsICctbXMnLCAnMScsICctcGgnLCAnNycsICctcGh0JywgJzAuNScsICctbnQn

> <r_epik_Ionization_Penalty>
  0.2005

> <r_epik_Ionization_Penalty_Charging>
  0.1915

> <r_epik_Ionization_Penalty_Neutral>
  0.0090

> <r_epik_State_Penalty>
  0.1812

> <r_epik_Charging_Adjusted_Penalty>
0.372685998985696

> <i_epik_Tot_Q>
-3

> <i_epik_Tot_abs_Q>
3

$$$$
