4rxe_ligand
                    3D
 Schrodinger Suite 2020-3.
 27 27  0  0  1  0            999 V2000
   24.9500  -15.2420    8.1070 O   0  5  0  0  0  0
   25.9680  -14.1380    7.9940 P   0  0  0  0  0  0
   25.4830  -12.7100    7.9320 O   0  5  0  0  0  0
   27.2950  -14.4280    7.4660 O   0  0  0  0  0  0
   26.5370  -13.9850    9.7700 C   0  0  1  0  0  0
   25.1500  -13.7220   10.9700 P   0  0  0  0  0  0
   24.5430  -12.5070   10.4510 O   0  0  0  0  0  0
   25.8050  -13.4950   12.2560 O   0  5  0  0  0  0
   24.2730  -14.9790   10.7380 O   0  0  0  0  0  0
   27.1520  -15.2050   10.0890 N   0  0  0  0  0  0
   28.0710  -15.3190   11.0660 C   0  0  0  0  0  0
   28.2280  -14.3700   12.0140 N   0  3  0  0  0  0
   29.1410  -14.5050   13.0510 C   0  0  0  0  0  0
   29.9050  -15.6420   13.0950 C   0  0  0  0  0  0
   29.7630  -16.6090   12.1270 C   0  0  0  0  0  0
   28.8440  -16.4870   11.0990 C   0  0  0  0  0  0
   28.7560  -17.5550   10.1330 C   0  0  0  0  0  0
   27.3753  -13.2911    9.9307 H   0  0  0  0  0  0
   23.7856  -15.1375    9.7647 H   0  0  0  0  0  0
   26.8881  -16.1162    9.5321 H   0  0  0  0  0  0
   29.2472  -13.7287   13.8088 H   0  0  0  0  0  0
   30.6273  -15.7804   13.8995 H   0  0  0  0  0  0
   30.3928  -17.4976   12.1707 H   0  0  0  0  0  0
   27.9863  -17.3111    9.3859 H   0  0  0  0  0  0
   28.4869  -18.4909   10.6446 H   0  0  0  0  0  0
   29.7276  -17.6772    9.6320 H   0  0  0  0  0  0
   27.6214  -13.4530   11.9800 H   0  0  0  0  0  0
  1  2  1  0  0  0
  2  3  1  0  0  0
  2  4  2  0  0  0
  2  5  1  0  0  0
  5  6  1  0  0  0
  5 10  1  0  0  0
  5 18  1  0  0  0
  6  7  2  0  0  0
  6  8  1  0  0  0
  6  9  1  0  0  0
  9 19  1  0  0  0
 10 11  1  0  0  0
 10 20  1  0  0  0
 11 12  2  0  0  0
 11 16  1  0  0  0
 12 13  1  0  0  0
 12 27  1  0  0  0
 13 14  2  0  0  0
 13 21  1  0  0  0
 14 15  1  0  0  0
 14 22  1  0  0  0
 15 16  2  0  0  0
 15 23  1  0  0  0
 16 17  1  0  0  0
 17 24  1  0  0  0
 17 25  1  0  0  0
 17 26  1  0  0  0
M  CHG  4   1  -1   3  -1   8  -1  12   1
M  END
> <s_m_source_file>
../4rxe_ligand.sdf

> <i_m_source_file_index>
1

> <s_epik_input>
W09IXVAoPU8pKFtPSF0pW0NIXShQKD1PKShbT0hdKVtPSF0pW05IXWMxbltjSF1bY0hdW2NIXWMxW0NIM10=

> <s_epik_cmdline>
J2VwaWtfYXBwJywgJy1pbWFlJywgJ2xpZ2FuZF9wcm8ubWFlJywgJy1vbWFlJywgJ2xpZ2FuZF9wcmVwLm1hZScsICctbXMnLCAnMScsICctcGgnLCAnNycsICctcGh0JywgJzAuNScsICctbnQn

> <r_lp_tautomer_probability>
1

> <r_epik_Ionization_Penalty>
  0.5387

> <r_epik_Ionization_Penalty_Charging>
  0.5387

> <r_epik_Ionization_Penalty_Neutral>
  0.0000

> <r_epik_State_Penalty>
 -0.0000

> <r_epik_Charging_Adjusted_Penalty>
0.538710011688555

> <i_epik_Tot_Q>
-2

> <i_epik_Tot_abs_Q>
4

$$$$
