4rxh_ligand
                    3D
 Schrodinger Suite 2020-3.
109108  0  0  1  0            999 V2000
  -32.1000   93.5230  200.0380 N   0  3  0  0  0  0
  -30.9010   92.8930  199.5040 C   0  0  2  0  0  0
  -30.6490   91.5440  200.1790 C   0  0  0  0  0  0
  -29.6830   90.8550  199.8580 O   0  0  0  0  0  0
  -29.6860   93.8120  199.6840 C   0  0  0  0  0  0
  -28.5280   93.5130  198.7420 C   0  0  0  0  0  0
  -27.2860   94.2970  199.1280 C   0  0  0  0  0  0
  -26.1050   93.8950  198.2590 C   0  0  0  0  0  0
  -24.7830   94.2500  198.8600 N   0  3  0  0  0  0
  -31.5330   91.1700  201.1040 N   0  0  0  0  0  0
  -31.3750   89.9310  201.8660 C   0  0  2  0  0  0
  -32.0420   88.7410  201.1810 C   0  0  0  0  0  0
  -33.1090   88.8790  200.5920 O   0  0  0  0  0  0
  -31.9470   90.0950  203.2720 C   0  0  0  0  0  0
  -31.4160   91.2960  204.0400 C   0  0  0  0  0  0
  -29.8970   91.2540  204.1940 C   0  0  0  0  0  0
  -29.4410   92.3350  205.1660 C   0  0  0  0  0  0
  -29.3780   91.8640  206.5860 N   0  3  0  0  0  0
  -31.4140   87.5710  201.2710 N   0  0  0  0  0  0
  -31.9740   86.3430  200.7040 C   0  0  2  0  0  0
  -32.5640   85.4640  201.7910 C   0  0  0  0  0  0
  -31.8310   84.8360  202.5500 O   0  0  0  0  0  0
  -30.9160   85.5450  199.9400 C   0  0  0  0  0  0
  -30.5180   86.1110  198.5920 C   0  0  0  0  0  0
  -29.4480   85.2330  197.9460 C   0  0  0  0  0  0
  -28.3030   85.0270  198.8340 N   0  0  0  0  0  0
  -27.7190   83.8520  199.0490 C   0  0  0  0  0  0
  -28.1560   82.7620  198.4310 N   0  0  0  0  0  0
  -26.6880   83.7660  199.8770 N   0  3  0  0  0  0
  -33.8900   85.3980  201.8580 N   0  0  0  0  0  0
  -34.5390   84.5440  202.8410 C   0  0  2  0  0  0
  -34.5560   83.1000  202.3500 C   0  0  0  0  0  0
  -34.2850   82.8340  201.1780 O   0  0  0  0  0  0
  -35.9580   85.0570  203.1370 C   0  0  0  0  0  0
  -35.9290   86.3200  203.9870 C   0  0  0  0  0  0
  -37.2790   86.9090  204.2500 C   0  0  0  0  0  0
  -37.1470   88.2130  205.0260 C   0  0  0  0  0  0
  -36.8460   87.9610  206.4640 N   0  3  0  0  0  0
  -34.8360   82.1660  203.2540 N   0  0  0  0  0  0
  -34.9170   80.7540  202.8890 C   0  0  2  0  0  0
  -35.8900   80.5200  201.7310 C   0  0  0  0  0  0
  -35.5120   79.9330  200.7110 O   0  0  0  0  0  0
  -35.3510   79.8820  204.0900 C   0  0  0  0  0  0
  -35.6180   78.4500  203.6380 C   0  0  0  0  0  0
  -34.2950   79.9020  205.1680 C   0  0  0  0  0  0
  -37.0580   80.9170  201.8110 O   0  5  0  0  0  0
  -32.9597   92.8507  199.9004 H   0  0  0  0  0  0
  -32.2851   94.4683  199.5068 H   0  0  0  0  0  0
  -31.9611   93.7259  201.1102 H   0  0  0  0  0  0
  -31.1073   92.7390  198.4346 H   0  0  0  0  0  0
  -29.9854   94.8551  199.5042 H   0  0  0  0  0  0
  -29.3000   93.7129  200.7093 H   0  0  0  0  0  0
  -28.2906   92.4397  198.7819 H   0  0  0  0  0  0
  -28.8103   93.7881  197.7150 H   0  0  0  0  0  0
  -27.4753   95.3724  198.9952 H   0  0  0  0  0  0
  -27.0377   94.0957  200.1805 H   0  0  0  0  0  0
  -26.1176   92.8060  198.1042 H   0  0  0  0  0  0
  -26.1751   94.4044  197.2866 H   0  0  0  0  0  0
  -23.9757   93.9330  198.1834 H   0  0  0  0  0  0
  -24.6716   93.7399  199.8282 H   0  0  0  0  0  0
  -24.7291   95.3383  199.0106 H   0  0  0  0  0  0
  -32.3998   91.8219  201.2876 H   0  0  0  0  0  0
  -30.2880   89.7653  201.8979 H   0  0  0  0  0  0
  -33.0389   90.2143  203.2120 H   0  0  0  0  0  0
  -31.7079   89.2042  203.8714 H   0  0  0  0  0  0
  -31.6805   92.2198  203.5045 H   0  0  0  0  0  0
  -31.8618   91.3146  205.0455 H   0  0  0  0  0  0
  -29.5947   90.2694  204.5803 H   0  0  0  0  0  0
  -29.4244   91.4248  203.2155 H   0  0  0  0  0  0
  -28.4346   92.6794  204.8856 H   0  0  0  0  0  0
  -30.1421   93.1818  205.1280 H   0  0  0  0  0  0
  -29.0435   92.6894  207.2316 H   0  0  0  0  0  0
  -28.6683   91.0271  206.6636 H   0  0  0  0  0  0
  -30.3759   91.5295  206.9059 H   0  0  0  0  0  0
  -30.4451   87.5447  201.7911 H   0  0  0  0  0  0
  -32.7637   86.6879  200.0203 H   0  0  0  0  0  0
  -29.9943   85.4917  200.5380 H   0  0  0  0  0  0
  -31.2896   84.5278  199.7508 H   0  0  0  0  0  0
  -31.3993   86.1468  197.9347 H   0  0  0  0  0  0
  -30.1180   87.1271  198.7246 H   0  0  0  0  0  0
  -29.8777   84.2498  197.7037 H   0  0  0  0  0  0
  -29.0874   85.7128  197.0242 H   0  0  0  0  0  0
  -27.8685   85.8788  199.3778 H   0  0  0  0  0  0
  -29.0113   82.8258  197.7423 H   0  0  0  0  0  0
  -27.6629   81.7947  198.6074 H   0  0  0  0  0  0
  -26.3203   84.6653  200.3928 H   0  0  0  0  0  0
  -34.4972   85.9958  201.1624 H   0  0  0  0  0  0
  -33.9288   84.6037  203.7543 H   0  0  0  0  0  0
  -36.4699   85.2860  202.1907 H   0  0  0  0  0  0
  -36.5212   84.2843  203.6809 H   0  0  0  0  0  0
  -35.4780   86.0938  204.9645 H   0  0  0  0  0  0
  -35.3325   87.0912  203.4776 H   0  0  0  0  0  0
  -37.7837   87.1107  203.2936 H   0  0  0  0  0  0
  -37.8797   86.2006  204.8393 H   0  0  0  0  0  0
  -36.3305   88.8132  204.5981 H   0  0  0  0  0  0
  -38.0896   88.7761  204.9598 H   0  0  0  0  0  0
  -36.7574   88.9210  206.9937 H   0  0  0  0  0  0
  -35.8997   87.4066  206.5488 H   0  0  0  0  0  0
  -37.6588   87.3695  206.9105 H   0  0  0  0  0  0
  -35.0083   82.4756  204.2954 H   0  0  0  0  0  0
  -33.8903   80.5171  202.5731 H   0  0  0  0  0  0
  -36.2754   80.2902  204.5246 H   0  0  0  0  0  0
  -36.3887   78.4509  202.8532 H   0  0  0  0  0  0
  -35.9673   77.8543  204.4943 H   0  0  0  0  0  0
  -34.6905   78.0120  203.2406 H   0  0  0  0  0  0
  -34.1131   80.9399  205.4838 H   0  0  0  0  0  0
  -33.3628   79.4692  204.7761 H   0  0  0  0  0  0
  -34.6395   79.3115  206.0298 H   0  0  0  0  0  0
  -26.1999   82.7953  200.0486 H   0  0  0  0  0  0
  1  2  1  0  0  0
  1 47  1  0  0  0
  1 48  1  0  0  0
  1 49  1  0  0  0
  2  3  1  0  0  0
  2  5  1  0  0  0
  2 50  1  0  0  0
  3  4  2  0  0  0
  3 10  1  0  0  0
  5  6  1  0  0  0
  5 51  1  0  0  0
  5 52  1  0  0  0
  6  7  1  0  0  0
  6 53  1  0  0  0
  6 54  1  0  0  0
  7  8  1  0  0  0
  7 55  1  0  0  0
  7 56  1  0  0  0
  8  9  1  0  0  0
  8 57  1  0  0  0
  8 58  1  0  0  0
  9 59  1  0  0  0
  9 60  1  0  0  0
  9 61  1  0  0  0
 10 11  1  0  0  0
 10 62  1  0  0  0
 11 12  1  0  0  0
 11 14  1  0  0  0
 11 63  1  0  0  0
 12 13  2  0  0  0
 12 19  1  0  0  0
 14 15  1  0  0  0
 14 64  1  0  0  0
 14 65  1  0  0  0
 15 16  1  0  0  0
 15 66  1  0  0  0
 15 67  1  0  0  0
 16 17  1  0  0  0
 16 68  1  0  0  0
 16 69  1  0  0  0
 17 18  1  0  0  0
 17 70  1  0  0  0
 17 71  1  0  0  0
 18 72  1  0  0  0
 18 73  1  0  0  0
 18 74  1  0  0  0
 19 20  1  0  0  0
 19 75  1  0  0  0
 20 21  1  0  0  0
 20 23  1  0  0  0
 20 76  1  0  0  0
 21 22  2  0  0  0
 21 30  1  0  0  0
 23 24  1  0  0  0
 23 77  1  0  0  0
 23 78  1  0  0  0
 24 25  1  0  0  0
 24 79  1  0  0  0
 24 80  1  0  0  0
 25 26  1  0  0  0
 25 81  1  0  0  0
 25 82  1  0  0  0
 26 27  1  0  0  0
 26 83  1  0  0  0
 27 28  1  0  0  0
 27 29  2  0  0  0
 28 84  1  0  0  0
 28 85  1  0  0  0
 29 86  1  0  0  0
 29109  1  0  0  0
 30 31  1  0  0  0
 30 87  1  0  0  0
 31 32  1  0  0  0
 31 34  1  0  0  0
 31 88  1  0  0  0
 32 33  2  0  0  0
 32 39  1  0  0  0
 34 35  1  0  0  0
 34 89  1  0  0  0
 34 90  1  0  0  0
 35 36  1  0  0  0
 35 91  1  0  0  0
 35 92  1  0  0  0
 36 37  1  0  0  0
 36 93  1  0  0  0
 36 94  1  0  0  0
 37 38  1  0  0  0
 37 95  1  0  0  0
 37 96  1  0  0  0
 38 97  1  0  0  0
 38 98  1  0  0  0
 38 99  1  0  0  0
 39 40  1  0  0  0
 39100  1  0  0  0
 40 41  1  0  0  0
 40 43  1  0  0  0
 40101  1  0  0  0
 41 42  2  0  0  0
 41 46  1  0  0  0
 43 44  1  0  0  0
 43 45  1  0  0  0
 43102  1  0  0  0
 44103  1  0  0  0
 44104  1  0  0  0
 44105  1  0  0  0
 45106  1  0  0  0
 45107  1  0  0  0
 45108  1  0  0  0
M  CHG  6   1   1   9   1  18   1  29   1  38   1  46  -1
M  END
> <s_m_source_file>
../4rxh_ligand.sdf

> <i_m_source_file_index>
1

> <s_epik_input>
W05IMytdW0NIMl1bQ0gyXVtDSDJdW0NIMl1bQ0BIXShbTkgzK10pQyg9TylbTkhdW0NAQEhdKFtDSDJdW0NIMl1bQ0gyXVtDSDJdW05IMytdKUMoPU8pW05IXVtDQEBIXShbQ0gyXVtDSDJdW0NIMl1bTkhdL0MoW05IMl0pPU5cW0hdKUMoPU8pW05IXVtDQEhdKEMoPU8pW05IXVtDQEhdKEMoPU8pW09IXSlbQ0hdKFtDSDNdKVtDSDNdKVtDSDJdW0NIMl1bQ0gyXVtDSDJdW05IMytd

> <s_epik_cmdline>
J2VwaWtfYXBwJywgJy1pbWFlJywgJ2xpZ2FuZF9wcm8ubWFlJywgJy1vbWFlJywgJ2xpZ2FuZF9wcmVwLm1hZScsICctbXMnLCAnMScsICctcGgnLCAnNycsICctcGh0JywgJzAuNScsICctbnQn

> <r_epik_Ionization_Penalty>
  0.1221

> <r_epik_Ionization_Penalty_Charging>
  0.1221

> <r_epik_Ionization_Penalty_Neutral>
  0.0000

> <r_epik_State_Penalty>
  0.1100

> <r_epik_Charging_Adjusted_Penalty>
0.232034653459011

> <i_epik_Tot_Q>
4

> <i_epik_Tot_abs_Q>
6

> <s_epik_Chemistry_Notes>
This compound has an imine and may undergo hydrolysis.

$$$$
