4rxz_ligand
                    3D
 Schrodinger Suite 2020-3.
182185  0  0  1  0            999 V2000
   30.1630   10.1010   13.2380 N   0  3  0  0  0  0
   29.4840   11.1030   12.3500 C   0  0  2  0  0  0
   28.0490   11.3360   12.7870 C   0  0  0  0  0  0
   27.3170   10.3810   13.0390 O   0  0  0  0  0  0
   29.5460   10.6500   10.8810 C   0  0  2  0  0  0
   30.9130   10.2680   10.5510 O   0  0  0  0  0  0
   29.1080   11.7470    9.9500 C   0  0  0  0  0  0
   27.7180   12.5840   12.9600 N   0  0  0  0  0  0
   26.3420   12.9720   13.4830 C   0  0  2  0  0  0
   25.4060   13.1520   12.3570 C   0  0  0  0  0  0
   25.8230   13.3130   11.2170 O   0  0  0  0  0  0
   26.4520   14.2520   14.3080 C   0  0  0  0  0  0
   26.7420   15.3290   13.4530 O   0  0  0  0  0  0
   24.1030   13.1170   12.6580 N   0  0  0  0  0  0
   23.1290   13.3090   11.6490 C   0  0  2  0  0  0
   23.4030   14.6070   10.8380 C   0  0  0  0  0  0
   23.3370   14.6100    9.6280 O   0  0  0  0  0  0
   21.6920   13.3850   12.2600 C   0  0  0  0  0  0
   20.7040   13.8500   11.2130 C   0  0  0  0  0  0
   20.2990   13.0120   10.2080 C   0  0  0  0  0  0
   20.3620   15.2040   11.0940 C   0  0  0  0  0  0
   19.4530   13.4460    9.1810 C   0  0  0  0  0  0
   19.5060   15.6280   10.0400 C   0  0  0  0  0  0
   19.1120   14.7660    9.0780 C   0  0  0  0  0  0
   23.6430   15.6900   11.5400 N   0  0  0  0  0  0
   23.8760   16.9570   10.8580 C   0  0  2  0  0  0
   25.0580   16.9010    9.8970 C   0  0  0  0  0  0
   25.0120   17.4540    8.8050 O   0  0  0  0  0  0
   24.0750   18.0580   11.8440 C   0  0  0  0  0  0
   26.0950   16.2100   10.3220 N   0  0  0  0  0  0
   27.2380   15.9850    9.4470 C   0  0  2  0  0  0
   26.9210   15.1330    8.2530 C   0  0  0  0  0  0
   27.2120   15.5020    7.0890 O   0  0  0  0  0  0
   28.4110   15.3760   10.2880 C   0  0  0  0  0  0
   28.9380   16.3550   11.3280 C   0  0  0  0  0  0
   29.8070   15.7310   12.3910 C   0  0  0  0  0  0
   29.9220   14.4680   12.4850 O   0  0  0  0  0  0
   30.3620   16.5550   13.2260 O   0  0  0  0  0  0
   26.2040   13.9980    8.4550 N   0  0  0  0  0  0
   25.7940   13.2160    7.3150 C   0  0  2  0  0  0
   24.9580   14.0110    6.2980 C   0  0  0  0  0  0
   25.0700   13.8090    5.0750 O   0  0  0  0  0  0
   24.9560   11.9930    7.7150 C   0  0  0  0  0  0
   25.6750   10.8170    8.2360 C   0  0  0  0  0  0
   26.4580   10.0550    7.3890 C   0  0  0  0  0  0
   25.5660   10.4300    9.5760 C   0  0  0  0  0  0
   27.1020    8.9360    7.8480 C   0  0  0  0  0  0
   26.2290    9.2990   10.0410 C   0  0  0  0  0  0
   27.0310    8.5820    9.1310 C   0  0  0  0  0  0
   27.6800    7.4340    9.6100 O   0  0  0  0  0  0
   24.0800   14.8590    6.7980 N   0  0  0  0  0  0
   23.1470   15.5740    5.9460 C   0  0  2  0  0  0
   23.9640   16.5390    5.0140 C   0  0  0  0  0  0
   23.5320   16.7990    3.8890 O   0  0  0  0  0  0
   22.1360   16.4080    6.7730 C   0  0  0  0  0  0
   20.9770   16.9290    5.9280 C   0  0  0  0  0  0
   20.7810   18.1670    5.4250 C   0  0  0  0  0  0
   19.8920   16.1310    5.4290 C   0  0  0  0  0  0
   19.6300   18.2000    4.6860 N   0  0  0  0  0  0
   19.0570   16.9620    4.6790 C   0  0  0  0  0  0
   19.5290   14.8200    5.6140 C   0  0  0  0  0  0
   17.9080   16.5120    4.0920 C   0  0  0  0  0  0
   18.3920   14.3650    5.0290 C   0  0  0  0  0  0
   17.5820   15.1870    4.3010 C   0  0  0  0  0  0
   25.1460   16.9770    5.4890 N   0  0  0  0  0  0
   26.0040   17.8280    4.6510 C   0  0  2  0  0  0
   26.5280   17.0770    3.4030 C   0  0  0  0  0  0
   26.9590   17.7170    2.4540 O   0  0  0  0  0  0
   27.1020   18.4640    5.4920 C   0  0  0  0  0  0
   26.5610   19.5750    6.3930 C   0  0  0  0  0  0
   25.5820   20.2440    6.0580 O   0  0  0  0  0  0
   27.1580   19.7430    7.5280 N   0  0  0  0  0  0
   26.4060   15.7440    3.3540 N   0  0  0  0  0  0
   26.7930   15.0100    2.1350 C   0  0  2  0  0  0
   25.8240   15.2630    1.0100 C   0  0  0  0  0  0
   26.1810   15.0640   -0.1430 O   0  0  0  0  0  0
   26.8990   13.4960    2.4010 C   0  0  0  0  0  0
   27.9600   13.0530    3.3980 C   0  0  0  0  0  0
   27.6890   11.6150    3.8140 C   0  0  0  0  0  0
   29.3120   13.2640    2.7950 C   0  0  0  0  0  0
   24.5950   15.6670    1.3250 N   0  0  0  0  0  0
   23.5420   15.7740    0.3160 C   0  0  2  0  0  0
   23.7210   17.1230   -0.4280 C   0  0  0  0  0  0
   23.6880   18.2020    0.1760 O   0  0  0  0  0  0
   22.1510   15.6670    0.9530 C   0  0  0  0  0  0
   21.8750   14.2590    1.4730 C   0  0  0  0  0  0
   20.4880   14.1120    2.0760 C   0  0  0  0  0  0
   22.0780   13.2460    0.3690 C   0  0  0  0  0  0
   23.9990   17.0110   -1.7220 N   0  0  0  0  0  0
   24.2060   18.1610   -2.6190 C   0  0  2  0  0  0
   23.7540   17.7790   -4.0320 C   0  0  0  0  0  0
   23.6370   16.5910   -4.3640 O   0  0  0  0  0  0
   25.6770   18.5960   -2.6390 C   0  0  0  0  0  0
   25.9540   19.4730   -1.5630 O   0  0  0  0  0  0
   23.4950   18.6490   -4.8750 O   0  0  0  0  0  0
   30.1089   10.4409   14.2828 H   0  0  0  0  0  0
   31.2169   10.0009   12.9390 H   0  0  0  0  0  0
   29.6607    9.1270   13.1428 H   0  0  0  0  0  0
   30.0244   12.0545   12.4621 H   0  0  0  0  0  0
   28.8970    9.7756   10.7253 H   0  0  0  0  0  0
   31.4159    9.4749   11.1237 H   0  0  0  0  0  0
   28.0763   12.0426   10.1913 H   0  0  0  0  0  0
   29.1528   11.3864    8.9117 H   0  0  0  0  0  0
   29.7746   12.6143   10.0660 H   0  0  0  0  0  0
   28.4553   13.3643   12.7201 H   0  0  0  0  0  0
   25.9275   12.1642   14.1040 H   0  0  0  0  0  0
   25.4993   14.4376   14.8256 H   0  0  0  0  0  0
   27.2569   14.1422   15.0497 H   0  0  0  0  0  0
   26.8598   16.3421   13.8650 H   0  0  0  0  0  0
   23.7903   12.9376   13.6973 H   0  0  0  0  0  0
   23.2729   12.4091   11.0330 H   0  0  0  0  0  0
   21.3936   12.3894   12.6201 H   0  0  0  0  0  0
   21.6878   14.0952   13.1000 H   0  0  0  0  0  0
   20.6452   11.9784   10.2081 H   0  0  0  0  0  0
   20.7511   15.9304   11.8075 H   0  0  0  0  0  0
   19.0639   12.7277    8.4594 H   0  0  0  0  0  0
   19.1636   16.6623   10.0084 H   0  0  0  0  0  0
   18.5280   15.1190    8.2280 H   0  0  0  0  0  0
   23.6687   15.6440   12.6387 H   0  0  0  0  0  0
   22.9518   17.1357   10.2888 H   0  0  0  0  0  0
   23.2186   18.0920   12.5335 H   0  0  0  0  0  0
   24.1552   19.0171   11.3114 H   0  0  0  0  0  0
   24.9980   17.8770   12.4144 H   0  0  0  0  0  0
   26.0955   15.8017   11.3434 H   0  0  0  0  0  0
   27.4681   16.9759    9.0285 H   0  0  0  0  0  0
   28.0573   14.4762   10.8126 H   0  0  0  0  0  0
   29.2414   15.1074    9.6184 H   0  0  0  0  0  0
   29.5448   17.1263   10.8312 H   0  0  0  0  0  0
   28.0920   16.8310   11.8454 H   0  0  0  0  0  0
   31.0095   16.1719   14.0285 H   0  0  0  0  0  0
   25.9353   13.6723    9.4707 H   0  0  0  0  0  0
   26.7780   12.9404    6.9078 H   0  0  0  0  0  0
   24.2489   12.2767    8.5084 H   0  0  0  0  0  0
   24.3981   11.6286    6.8398 H   0  0  0  0  0  0
   26.5643   10.3476    6.3444 H   0  0  0  0  0  0
   24.9567   11.0194   10.2611 H   0  0  0  0  0  0
   27.6807    8.3266    7.1539 H   0  0  0  0  0  0
   26.1311    8.9772   11.0778 H   0  0  0  0  0  0
   28.3170    6.8412    8.9371 H   0  0  0  0  0  0
   24.0647   15.0190    7.8862 H   0  0  0  0  0  0
   22.6085   14.7842    5.4017 H   0  0  0  0  0  0
   21.7157   15.7840    7.5755 H   0  0  0  0  0  0
   22.6497   17.2751    7.2137 H   0  0  0  0  0  0
   21.4441   19.0172    5.5847 H   0  0  0  0  0  0
   20.1439   14.1554    6.2208 H   0  0  0  0  0  0
   17.2798   17.1671    3.4884 H   0  0  0  0  0  0
   18.1189   13.3160    5.1437 H   0  0  0  0  0  0
   16.6600   14.7899    3.8764 H   0  0  0  0  0  0
   25.4696   16.6986    6.5028 H   0  0  0  0  0  0
   25.3599   18.6424    4.2877 H   0  0  0  0  0  0
   27.5647   17.6976    6.1312 H   0  0  0  0  0  0
   27.8653   18.8991    4.8301 H   0  0  0  0  0  0
   28.0293   19.1240    7.7881 H   0  0  0  0  0  0
   26.7944   20.5049    8.2332 H   0  0  0  0  0  0
   26.0164   15.1968    4.2251 H   0  0  0  0  0  0
   27.7727   15.4230    1.8528 H   0  0  0  0  0  0
   25.9420   13.1254    2.7970 H   0  0  0  0  0  0
   27.1338   12.9742    1.4615 H   0  0  0  0  0  0
   27.9445   13.6602    4.3151 H   0  0  0  0  0  0
   26.6800   11.5423    4.2461 H   0  0  0  0  0  0
   28.4320   11.3038    4.5631 H   0  0  0  0  0  0
   27.7590   10.9592    2.9336 H   0  0  0  0  0  0
   29.4305   14.3230    2.5221 H   0  0  0  0  0  0
   29.4135   12.6398    1.8949 H   0  0  0  0  0  0
   30.0865   12.9844    3.5244 H   0  0  0  0  0  0
   24.3806   15.9232    2.3730 H   0  0  0  0  0  0
   23.6619   14.9180   -0.3643 H   0  0  0  0  0  0
   22.0796   16.3681    1.7976 H   0  0  0  0  0  0
   21.3846   15.9158    0.2042 H   0  0  0  0  0  0
   22.5942   14.0626    2.2818 H   0  0  0  0  0  0
   20.3556   14.8547    2.8765 H   0  0  0  0  0  0
   20.3745   13.1001    2.4922 H   0  0  0  0  0  0
   19.7299   14.2748    1.2958 H   0  0  0  0  0  0
   23.0852   13.3648   -0.0570 H   0  0  0  0  0  0
   21.3259   13.4055   -0.4178 H   0  0  0  0  0  0
   21.9706   12.2308    0.7786 H   0  0  0  0  0  0
   24.0720   15.9864   -2.1155 H   0  0  0  0  0  0
   23.5968   18.9840   -2.2169 H   0  0  0  0  0  0
   23.3113   16.3342   -5.3828 H   0  0  0  0  0  0
   26.3226   17.7098   -2.5506 H   0  0  0  0  0  0
   25.8933   19.1143   -3.5848 H   0  0  0  0  0  0
   26.9677   19.8795   -1.4318 H   0  0  0  0  0  0
  1  2  1  0  0  0
  1 96  1  0  0  0
  1 97  1  0  0  0
  1 98  1  0  0  0
  2  3  1  0  0  0
  2  5  1  0  0  0
  2 99  1  0  0  0
  3  4  2  0  0  0
  3  8  1  0  0  0
  5  6  1  0  0  0
  5  7  1  0  0  0
  5100  1  0  0  0
  6101  1  0  0  0
  7102  1  0  0  0
  7103  1  0  0  0
  7104  1  0  0  0
  8  9  1  0  0  0
  8105  1  0  0  0
  9 10  1  0  0  0
  9 12  1  0  0  0
  9106  1  0  0  0
 10 11  2  0  0  0
 10 14  1  0  0  0
 12 13  1  0  0  0
 12107  1  0  0  0
 12108  1  0  0  0
 13109  1  0  0  0
 14 15  1  0  0  0
 14110  1  0  0  0
 15 16  1  0  0  0
 15 18  1  0  0  0
 15111  1  0  0  0
 16 17  2  0  0  0
 16 25  1  0  0  0
 18 19  1  0  0  0
 18112  1  0  0  0
 18113  1  0  0  0
 19 20  2  0  0  0
 19 21  1  0  0  0
 20 22  1  0  0  0
 20114  1  0  0  0
 21 23  2  0  0  0
 21115  1  0  0  0
 22 24  2  0  0  0
 22116  1  0  0  0
 23 24  1  0  0  0
 23117  1  0  0  0
 24118  1  0  0  0
 25 26  1  0  0  0
 25119  1  0  0  0
 26 27  1  0  0  0
 26 29  1  0  0  0
 26120  1  0  0  0
 27 28  2  0  0  0
 27 30  1  0  0  0
 29121  1  0  0  0
 29122  1  0  0  0
 29123  1  0  0  0
 30 31  1  0  0  0
 30124  1  0  0  0
 31 32  1  0  0  0
 31 34  1  0  0  0
 31125  1  0  0  0
 32 33  2  0  0  0
 32 39  1  0  0  0
 34 35  1  0  0  0
 34126  1  0  0  0
 34127  1  0  0  0
 35 36  1  0  0  0
 35128  1  0  0  0
 35129  1  0  0  0
 36 37  2  0  0  0
 36 38  1  0  0  0
 38130  1  0  0  0
 39 40  1  0  0  0
 39131  1  0  0  0
 40 41  1  0  0  0
 40 43  1  0  0  0
 40132  1  0  0  0
 41 42  2  0  0  0
 41 51  1  0  0  0
 43 44  1  0  0  0
 43133  1  0  0  0
 43134  1  0  0  0
 44 45  2  0  0  0
 44 46  1  0  0  0
 45 47  1  0  0  0
 45135  1  0  0  0
 46 48  2  0  0  0
 46136  1  0  0  0
 47 49  2  0  0  0
 47137  1  0  0  0
 48 49  1  0  0  0
 48138  1  0  0  0
 49 50  1  0  0  0
 50139  1  0  0  0
 51 52  1  0  0  0
 51140  1  0  0  0
 52 53  1  0  0  0
 52 55  1  0  0  0
 52141  1  0  0  0
 53 54  2  0  0  0
 53 65  1  0  0  0
 55 56  1  0  0  0
 55142  1  0  0  0
 55143  1  0  0  0
 56 57  2  0  0  0
 56 58  1  0  0  0
 57 59  1  0  0  0
 57144  1  0  0  0
 58 60  2  0  0  0
 58 61  1  0  0  0
 59 60  1  0  0  0
 60 62  1  0  0  0
 61 63  2  0  0  0
 61145  1  0  0  0
 62 64  2  0  0  0
 62146  1  0  0  0
 63 64  1  0  0  0
 63147  1  0  0  0
 64148  1  0  0  0
 65 66  1  0  0  0
 65149  1  0  0  0
 66 67  1  0  0  0
 66 69  1  0  0  0
 66150  1  0  0  0
 67 68  2  0  0  0
 67 73  1  0  0  0
 69 70  1  0  0  0
 69151  1  0  0  0
 69152  1  0  0  0
 70 71  2  0  0  0
 70 72  1  0  0  0
 72153  1  0  0  0
 72154  1  0  0  0
 73 74  1  0  0  0
 73155  1  0  0  0
 74 75  1  0  0  0
 74 77  1  0  0  0
 74156  1  0  0  0
 75 76  2  0  0  0
 75 81  1  0  0  0
 77 78  1  0  0  0
 77157  1  0  0  0
 77158  1  0  0  0
 78 79  1  0  0  0
 78 80  1  0  0  0
 78159  1  0  0  0
 79160  1  0  0  0
 79161  1  0  0  0
 79162  1  0  0  0
 80163  1  0  0  0
 80164  1  0  0  0
 80165  1  0  0  0
 81 82  1  0  0  0
 81166  1  0  0  0
 82 83  1  0  0  0
 82 85  1  0  0  0
 82167  1  0  0  0
 83 84  2  0  0  0
 83 89  1  0  0  0
 85 86  1  0  0  0
 85168  1  0  0  0
 85169  1  0  0  0
 86 87  1  0  0  0
 86 88  1  0  0  0
 86170  1  0  0  0
 87171  1  0  0  0
 87172  1  0  0  0
 87173  1  0  0  0
 88174  1  0  0  0
 88175  1  0  0  0
 88176  1  0  0  0
 89 90  1  0  0  0
 89177  1  0  0  0
 90 91  1  0  0  0
 90 93  1  0  0  0
 90178  1  0  0  0
 91 92  1  0  0  0
 91 95  2  0  0  0
 92179  1  0  0  0
 93 94  1  0  0  0
 93180  1  0  0  0
 93181  1  0  0  0
 94182  1  0  0  0
M  CHG  1   1   1
M  END
> <s_m_source_file>
../4rxz_ligand.sdf

> <i_m_source_file_index>
1

> <s_epik_input>
W09IXVtDQEhdKFtDSDNdKVtDQEhdKFtOSDMrXSlDKD1PKVtOSF1bQ0BASF0oW0NIMl1bT0hdKUMoPU8pW05IXVtDQEBIXShbQ0gyXWMxW2NIXVtjSF1bY0hdW2NIXVtjSF0xKUMoPU8pW05IXVtDQEBIXShbQ0gzXSlDKD1PKVtOSF1bQ0BASF0oW0NIMl1bQ0gyXUMoPU8pW09IXSlDKD1PKVtOSF1bQ0BASF0oW0NIMl1jMltjSF1bY0hdYyhbT0hdKVtjSF1bY0hdMilDKD1PKVtOSF1bQ0BASF0oW0NIMl1jM1tjSF1bbkhdYyhjMzQpW2NIXVtjSF1bY0hdW2NIXTQpQyg9TylbTkhdW0NAQEhdKFtDSDJdQyg9TylbTkgyXSlDKD1PKVtOSF1bQ0BASF0oW0NIMl1bQ0hdKFtDSDNdKVtDSDNdKUMoPU8pW05IXVtDQEBIXShbQ0gyXVtDSF0oW0NIM10pW0NIM10pQyg9TylbTkhdW0NASF0oQyg9TylbT0hdKVtDSDJdW09IXQ==

> <s_epik_cmdline>
J2VwaWtfYXBwJywgJy1pbWFlJywgJ2xpZ2FuZF9wcm8ubWFlJywgJy1vbWFlJywgJ2xpZ2FuZF9wcmVwLm1hZScsICctbXMnLCAnMScsICctcGgnLCAnNycsICctcGh0JywgJzAuNScsICctbnQn

> <s_epik_pKa_notes>
Molecule size exceeds maximum supported for generating protonation states

$$$$
