4ryc_ligand
                    3D
 Schrodinger Suite 2020-3.
 77 79  0  0  1  0            999 V2000
   70.5090    8.9850   47.8850 C   0  0  0  0  0  0
   72.0040   12.4860   47.7530 C   0  0  0  0  0  0
   72.7770   12.5180   48.9420 C   0  0  0  0  0  0
   72.0660   10.2430   49.4590 C   0  0  0  0  0  0
   68.2550    9.9880   48.1700 C   0  0  0  0  0  0
   72.7830   11.3950   49.8080 C   0  0  0  0  0  0
   67.6620    2.8620   43.1710 C   0  0  0  0  0  0
   67.8300    1.5720   45.2200 C   0  0  0  0  0  0
   68.2850    7.9860   44.7120 C   0  0  0  0  0  0
   67.0020    5.9890   44.8900 C   0  0  0  0  0  0
   66.5150    2.1240   42.8150 C   0  0  0  0  0  0
   66.6900    0.8340   44.8550 C   0  0  0  0  0  0
   66.0240    1.1070   43.6530 C   0  0  0  0  0  0
   70.0030   14.4300   45.8740 C   0  0  0  0  0  0
   69.7810    3.4820   44.8180 S   0  0  0  0  0  0
   69.1510    8.8890   47.7210 N   0  0  0  0  0  0
   69.2980    5.0210   44.6040 N   0  0  3  0  0  0
   68.5640    7.5890   47.2940 C   0  0  0  0  0  0
   68.8960    7.1360   45.8410 C   0  0  1  0  0  0
   71.2750   10.2260   48.2940 C   0  0  0  0  0  0
   68.3850    5.7140   45.5030 C   0  0  1  0  0  0
   68.3070    2.5950   44.3830 C   0  0  0  0  0  0
   71.2690   11.3230   47.4190 C   0  0  0  0  0  0
   70.8110    3.1790   43.8530 O   0  0  0  0  0  0
   70.1260    3.2640   46.1910 O   0  0  0  0  0  0
   67.2900    7.1400   44.0220 N   0  3  0  0  0  0
   71.2800    8.0730   47.6110 O   0  0  0  0  0  0
   72.0720   13.6400   46.9480 O   0  0  0  0  0  0
   73.5520   13.6730   49.1900 O   0  0  0  0  0  0
   69.7920   15.4010   43.6560 O   0  0  0  0  0  0
   71.4090   13.8180   45.6830 C   0  0  0  0  0  0
   69.2210   14.4300   44.5430 C   0  0  0  0  0  0
   67.1980   10.6260   47.2220 C   0  0  0  0  0  0
   67.7100    9.6440   49.5850 C   0  0  0  0  0  0
   64.7720    0.3080   43.2640 C   0  0  0  0  0  0
   74.2910   13.8500   50.4140 C   0  0  0  0  0  0
   69.9580   14.9080   42.3180 C   0  0  0  0  0  0
   72.1206    9.3569   50.0914 H   0  0  0  0  0  0
   68.9802   10.8149   48.1515 H   0  0  0  0  0  0
   73.3436   11.4280   50.7422 H   0  0  0  0  0  0
   68.0440    3.6362   42.5056 H   0  0  0  0  0  0
   68.3450    1.3499   46.1546 H   0  0  0  0  0  0
   67.8048    8.8770   45.1427 H   0  0  0  0  0  0
   69.0786    8.2972   44.0167 H   0  0  0  0  0  0
   66.6630    5.1008   44.3367 H   0  0  0  0  0  0
   66.2844    6.2175   45.6918 H   0  0  0  0  0  0
   66.0023    2.3443   41.8787 H   0  0  0  0  0  0
   66.3224    0.0450   45.5110 H   0  0  0  0  0  0
   69.4435   13.8394   46.6144 H   0  0  0  0  0  0
   70.0995   15.4666   46.2291 H   0  0  0  0  0  0
   69.5716    5.4755   43.6404 H   0  0  0  0  0  0
   68.9272    6.7880   47.9547 H   0  0  0  0  0  0
   67.4670    7.6446   47.3540 H   0  0  0  0  0  0
   69.9923    7.2257   45.8516 H   0  0  0  0  0  0
   68.3558    4.9993   46.3387 H   0  0  0  0  0  0
   70.7025   11.2800   46.4888 H   0  0  0  0  0  0
   66.3742    7.7226   43.8433 H   0  0  0  0  0  0
   67.7017    6.7999   43.0603 H   0  0  0  0  0  0
   71.3186   12.8379   45.1919 H   0  0  0  0  0  0
   72.0182   14.4869   45.0573 H   0  0  0  0  0  0
   69.2799   13.4325   44.0831 H   0  0  0  0  0  0
   68.1681   14.6830   44.7363 H   0  0  0  0  0  0
   67.6607   10.8381   46.2468 H   0  0  0  0  0  0
   66.8275   11.5629   47.6636 H   0  0  0  0  0  0
   66.3589    9.9279   47.0857 H   0  0  0  0  0  0
   68.5144    9.1998   50.1897 H   0  0  0  0  0  0
   66.8808    8.9270   49.4942 H   0  0  0  0  0  0
   67.3493   10.5619   50.0721 H   0  0  0  0  0  0
   64.3954    0.6657   42.2944 H   0  0  0  0  0  0
   63.9964    0.4450   44.0318 H   0  0  0  0  0  0
   65.0273   -0.7592   43.1871 H   0  0  0  0  0  0
   74.8171   14.8157   50.3883 H   0  0  0  0  0  0
   75.0233   13.0362   50.5211 H   0  0  0  0  0  0
   73.5968   13.8332   51.2671 H   0  0  0  0  0  0
   70.3982   15.6958   41.6890 H   0  0  0  0  0  0
   68.9786   14.6175   41.9101 H   0  0  0  0  0  0
   70.6245   14.0330   42.3297 H   0  0  0  0  0  0
  1 16  1  0  0  0
  1 20  1  0  0  0
  1 27  2  0  0  0
  2  3  2  0  0  0
  2 23  1  0  0  0
  2 28  1  0  0  0
  3  6  1  0  0  0
  3 29  1  0  0  0
  4  6  2  0  0  0
  4 20  1  0  0  0
  4 38  1  0  0  0
  5 16  1  0  0  0
  5 33  1  0  0  0
  5 34  1  0  0  0
  5 39  1  0  0  0
  6 40  1  0  0  0
  7 11  2  0  0  0
  7 22  1  0  0  0
  7 41  1  0  0  0
  8 12  1  0  0  0
  8 22  2  0  0  0
  8 42  1  0  0  0
  9 19  1  0  0  0
  9 26  1  0  0  0
  9 43  1  0  0  0
  9 44  1  0  0  0
 10 21  1  0  0  0
 10 26  1  0  0  0
 10 45  1  0  0  0
 10 46  1  0  0  0
 11 13  1  0  0  0
 11 47  1  0  0  0
 12 13  2  0  0  0
 12 48  1  0  0  0
 13 35  1  0  0  0
 14 31  1  0  0  0
 14 32  1  0  0  0
 14 49  1  0  0  0
 14 50  1  0  0  0
 15 17  1  0  0  0
 15 22  1  0  0  0
 15 24  2  0  0  0
 15 25  2  0  0  0
 16 18  1  0  0  0
 17 21  1  0  0  0
 17 51  1  0  0  0
 18 19  1  0  0  0
 18 52  1  0  0  0
 18 53  1  0  0  0
 19 21  1  0  0  0
 19 54  1  0  0  0
 20 23  2  0  0  0
 21 55  1  0  0  0
 23 56  1  0  0  0
 26 57  1  0  0  0
 26 58  1  0  0  0
 28 31  1  0  0  0
 29 36  1  0  0  0
 30 32  1  0  0  0
 30 37  1  0  0  0
 31 59  1  0  0  0
 31 60  1  0  0  0
 32 61  1  0  0  0
 32 62  1  0  0  0
 33 63  1  0  0  0
 33 64  1  0  0  0
 33 65  1  0  0  0
 34 66  1  0  0  0
 34 67  1  0  0  0
 34 68  1  0  0  0
 35 69  1  0  0  0
 35 70  1  0  0  0
 35 71  1  0  0  0
 36 72  1  0  0  0
 36 73  1  0  0  0
 36 74  1  0  0  0
 37 75  1  0  0  0
 37 76  1  0  0  0
 37 77  1  0  0  0
M  CHG  1  26   1
M  END
> <s_m_source_file>
../4ryc_ligand.sdf

> <i_m_source_file_index>
1

> <s_epik_input>
W0NIM11PW0NIMl1bQ0gyXVtDSDJdT2MxYyhPW0NIM10pW2NIXVtjSF1jKFtjSF0xKUMoPU8pTihbQ0hdKFtDSDNdKVtDSDNdKVtDSDJdW0NAQEhdMltDSDJdW05IMitdW0NIMl1bQ0BIXTJbTkhdUyg9TykoPU8pYyhbY0hdW2NIXTMpW2NIXVtjSF1jM1tDSDNd

> <s_epik_cmdline>
J2VwaWtfYXBwJywgJy1pbWFlJywgJ2xpZ2FuZF9wcm8ubWFlJywgJy1vbWFlJywgJ2xpZ2FuZF9wcmVwLm1hZScsICctbXMnLCAnMScsICctcGgnLCAnNycsICctcGh0JywgJzAuNScsICctbnQn

> <r_lp_tautomer_probability>
1

> <r_epik_Ionization_Penalty>
  0.0013

> <r_epik_Ionization_Penalty_Charging>
  0.0009

> <r_epik_Ionization_Penalty_Neutral>
  0.0005

> <r_epik_State_Penalty>
 -0.0000

> <r_epik_Charging_Adjusted_Penalty>
0.000893089652063616

> <i_epik_Tot_Q>
1

> <i_epik_Tot_abs_Q>
1

$$$$
