4ryg_ligand
                    3D
 Schrodinger Suite 2020-3.
 77 79  0  0  1  0            999 V2000
   44.1380  106.5840   12.0220 C   0  0  0  0  0  0
   42.7520  108.6330   11.6500 C   0  0  0  0  0  0
   37.6870  106.9640    8.7870 C   0  0  0  0  0  0
   47.6710  104.4690   13.5110 C   0  0  0  0  0  0
   45.3570  105.2340   13.8200 C   0  0  0  0  0  0
   45.0180  108.7490   12.8060 C   0  0  0  0  0  0
   46.5040  104.5750   14.3100 C   0  0  0  0  0  0
   43.1250  108.9260    9.0470 C   0  0  0  0  0  0
   41.0730  110.1750    9.0550 C   0  0  0  0  0  0
   36.9880  108.2760    8.4140 C   0  0  0  0  0  0
   49.5510  107.0650   10.2690 C   0  0  0  0  0  0
   49.0170  105.6200   10.1540 C   0  0  0  0  0  0
   49.5200  107.8190    8.9130 C   0  0  0  0  0  0
   45.7320  109.8180   11.9280 C   0  0  0  0  0  0
   44.5660  109.2250   14.2120 C   0  0  0  0  0  0
   35.7580  108.6370    9.0120 C   0  0  0  0  0  0
   37.5740  109.1250    7.4580 C   0  0  0  0  0  0
   48.8480  102.6300   14.7980 C   0  0  0  0  0  0
   43.9860  107.9590   12.1070 N   0  0  0  0  0  0
   42.2690  108.3750   10.2010 C   0  0  2  0  0  0
   39.9990  107.9800    9.3330 N   0  0  3  0  0  0
   45.3620  105.8370   12.5500 C   0  0  0  0  0  0
   40.8610  108.9520    9.9540 C   0  0  2  0  0  0
   46.5130  105.7560   11.7570 C   0  0  0  0  0  0
   47.6770  105.0810   12.2240 C   0  0  0  0  0  0
   42.2490  109.8080    8.2560 N   0  3  0  0  0  0
   43.3270  105.8310   11.4950 O   0  0  0  0  0  0
   48.8550  104.9870   11.4440 O   0  0  0  0  0  0
   48.8420  103.8030   13.9650 O   0  0  0  0  0  0
   50.6020  107.3970    8.0670 O   0  0  0  0  0  0
   50.1400  106.9140    6.7870 C   0  0  0  0  0  0
   35.1000  109.8240    8.6450 C   0  0  0  0  0  0
   36.9220  110.3210    7.1040 C   0  0  0  0  0  0
   35.6760  110.6600    7.6760 C   0  0  0  0  0  0
   38.8060  107.2640   10.1760 S   0  0  0  0  0  0
   39.3530  106.0000   10.6550 O   0  0  0  0  0  0
   38.2200  108.1830   11.1420 O   0  0  0  0  0  0
   41.9096  108.3274   12.2879 H   0  0  0  0  0  0
   42.8842  109.7231   11.7145 H   0  0  0  0  0  0
   36.9334  106.2157    9.0737 H   0  0  0  0  0  0
   38.2597  106.5952    7.9233 H   0  0  0  0  0  0
   44.4567  105.2762   14.4330 H   0  0  0  0  0  0
   45.7937  107.9884   12.9783 H   0  0  0  0  0  0
   46.4933  104.1437   15.3110 H   0  0  0  0  0  0
   43.9775  109.4866    9.4581 H   0  0  0  0  0  0
   43.4963  108.0910    8.4347 H   0  0  0  0  0  0
   40.1778  110.3347    8.4360 H   0  0  0  0  0  0
   41.2500  111.0630    9.6796 H   0  0  0  0  0  0
   48.9335  107.6283   10.9841 H   0  0  0  0  0  0
   50.5929  107.0440   10.6213 H   0  0  0  0  0  0
   48.0365  105.6300    9.6555 H   0  0  0  0  0  0
   49.7216  105.0145    9.5650 H   0  0  0  0  0  0
   48.5690  107.6125    8.4003 H   0  0  0  0  0  0
   49.6125  108.9003    9.0925 H   0  0  0  0  0  0
   46.4789  110.3512   12.5345 H   0  0  0  0  0  0
   44.9897  110.5348   11.5470 H   0  0  0  0  0  0
   46.2319  109.3233   11.0822 H   0  0  0  0  0  0
   45.3746  109.8057   14.6800 H   0  0  0  0  0  0
   44.3329  108.3508   14.8376 H   0  0  0  0  0  0
   43.6701  109.8559   14.1150 H   0  0  0  0  0  0
   35.3149  107.9870    9.7665 H   0  0  0  0  0  0
   38.5245  108.8591    6.9954 H   0  0  0  0  0  0
   49.8865  102.3266   14.9966 H   0  0  0  0  0  0
   48.3191  101.8133   14.2849 H   0  0  0  0  0  0
   48.3429  102.8533   15.7493 H   0  0  0  0  0  0
   42.3237  107.2770   10.1630 H   0  0  0  0  0  0
   40.0318  107.8322    8.2435 H   0  0  0  0  0  0
   40.3114  109.1884   10.8771 H   0  0  0  0  0  0
   46.5184  106.2158   10.7687 H   0  0  0  0  0  0
   42.8006  110.7177    7.9765 H   0  0  0  0  0  0
   41.9243  109.2820    7.3461 H   0  0  0  0  0  0
   51.0027  106.6044    6.1788 H   0  0  0  0  0  0
   49.5942  107.7156    6.2679 H   0  0  0  0  0  0
   49.4711  106.0541    6.9393 H   0  0  0  0  0  0
   34.1509  110.0926    9.1089 H   0  0  0  0  0  0
   37.3837  110.9929    6.3805 H   0  0  0  0  0  0
   35.1624  111.5698    7.3653 H   0  0  0  0  0  0
  1 19  1  0  0  0
  1 22  1  0  0  0
  1 27  2  0  0  0
  2 19  1  0  0  0
  2 20  1  0  0  0
  2 38  1  0  0  0
  2 39  1  0  0  0
  3 10  1  0  0  0
  3 35  1  0  0  0
  3 40  1  0  0  0
  3 41  1  0  0  0
  4  7  2  0  0  0
  4 25  1  0  0  0
  4 29  1  0  0  0
  5  7  1  0  0  0
  5 22  2  0  0  0
  5 42  1  0  0  0
  6 14  1  0  0  0
  6 15  1  0  0  0
  6 19  1  0  0  0
  6 43  1  0  0  0
  7 44  1  0  0  0
  8 20  1  0  0  0
  8 26  1  0  0  0
  8 45  1  0  0  0
  8 46  1  0  0  0
  9 23  1  0  0  0
  9 26  1  0  0  0
  9 47  1  0  0  0
  9 48  1  0  0  0
 10 16  2  0  0  0
 10 17  1  0  0  0
 11 12  1  0  0  0
 11 13  1  0  0  0
 11 49  1  0  0  0
 11 50  1  0  0  0
 12 28  1  0  0  0
 12 51  1  0  0  0
 12 52  1  0  0  0
 13 30  1  0  0  0
 13 53  1  0  0  0
 13 54  1  0  0  0
 14 55  1  0  0  0
 14 56  1  0  0  0
 14 57  1  0  0  0
 15 58  1  0  0  0
 15 59  1  0  0  0
 15 60  1  0  0  0
 16 32  1  0  0  0
 16 61  1  0  0  0
 17 33  2  0  0  0
 17 62  1  0  0  0
 18 29  1  0  0  0
 18 63  1  0  0  0
 18 64  1  0  0  0
 18 65  1  0  0  0
 20 23  1  0  0  0
 20 66  1  0  0  0
 21 23  1  0  0  0
 21 35  1  0  0  0
 21 67  1  0  0  0
 22 24  1  0  0  0
 23 68  1  0  0  0
 24 25  2  0  0  0
 24 69  1  0  0  0
 25 28  1  0  0  0
 26 70  1  0  0  0
 26 71  1  0  0  0
 30 31  1  0  0  0
 31 72  1  0  0  0
 31 73  1  0  0  0
 31 74  1  0  0  0
 32 34  2  0  0  0
 32 75  1  0  0  0
 33 34  1  0  0  0
 33 76  1  0  0  0
 34 77  1  0  0  0
 35 36  2  0  0  0
 35 37  2  0  0  0
M  CHG  1  26   1
M  END
> <s_m_source_file>
../4ryg_ligand.sdf

> <i_m_source_file_index>
1

> <s_epik_input>
W0NIM11PW0NIMl1bQ0gyXVtDSDJdT2MxW2NIXWMoW2NIXVtjSF1jMU9bQ0gzXSlDKD1PKU4oW0NIXShbQ0gzXSlbQ0gzXSlbQ0gyXVtDQEBIXTJbQ0gyXVtOSDIrXVtDSDJdW0NASF0yW05IXVMoPU8pKD1PKVtDSDJdYzNbY0hdW2NIXVtjSF1bY0hdW2NIXTM=

> <s_epik_cmdline>
J2VwaWtfYXBwJywgJy1pbWFlJywgJ2xpZ2FuZF9wcm8ubWFlJywgJy1vbWFlJywgJ2xpZ2FuZF9wcmVwLm1hZScsICctbXMnLCAnMScsICctcGgnLCAnNycsICctcGh0JywgJzAuNScsICctbnQn

> <r_lp_tautomer_probability>
1

> <r_epik_Ionization_Penalty>
  0.0006

> <r_epik_Ionization_Penalty_Charging>
  0.0004

> <r_epik_Ionization_Penalty_Neutral>
  0.0002

> <r_epik_State_Penalty>
 -0.0000

> <r_epik_Charging_Adjusted_Penalty>
0.000435271022045552

> <i_epik_Tot_Q>
1

> <i_epik_Tot_abs_Q>
1

$$$$
