4ryl_ligand
                    3D
 Schrodinger Suite 2020-3.
 40 42  0  0  1  0            999 V2000
   -4.6550   -0.4920  -13.0110 C   0  0  0  0  0  0
   -4.9950   -0.9240  -14.2600 C   0  0  0  0  0  0
   -5.6090   -0.0480  -15.1920 C   0  0  0  0  0  0
   -4.4750    1.1740  -11.3020 N   0  0  0  0  0  0
   -6.0330   -0.4330  -16.4920 C   0  0  0  0  0  0
   -6.8100    1.6600  -16.9820 C   0  0  0  0  0  0
   -6.6280    0.3820  -17.3580 N   0  0  0  0  0  0
   -6.4440    2.1580  -15.7650 C   0  0  0  0  0  0
   -5.8450    1.2880  -14.8140 C   0  0  0  0  0  0
   -5.4870    1.7040  -13.5070 C   0  0  0  0  0  0
   -3.3030    6.2690   -7.6000 C   0  0  0  0  0  0
   -4.5590    5.5370   -7.6500 N   0  0  0  0  0  0
   -3.7320    7.6320   -7.1410 C   0  0  0  0  0  0
   -4.9150    7.4010   -6.3410 C   0  0  0  0  0  0
   -5.6460    6.3140   -7.0480 C   0  0  0  0  0  0
   -4.4750    3.4670  -11.3640 O   0  0  0  0  0  0
   -4.3860    2.4180  -10.7400 C   0  0  0  0  0  0
   -4.1250    2.4020   -9.4330 N   0  0  0  0  0  0
   -3.6300    3.5860   -8.7710 C   0  0  0  0  0  0
   -4.8050    4.3340   -8.1820 C   0  0  0  0  0  0
   -5.9170    3.8630   -8.1970 O   0  0  0  0  0  0
   -4.9030    0.8210  -12.6120 C   0  0  0  0  0  0
   -4.1821   -1.1841  -12.3143 H   0  0  0  0  0  0
   -4.7921   -1.9562  -14.5455 H   0  0  0  0  0  0
   -4.1936    0.2853  -10.7181 H   0  0  0  0  0  0
   -5.8592   -1.4641  -16.7998 H   0  0  0  0  0  0
   -7.2788    2.3404  -17.6929 H   0  0  0  0  0  0
   -6.6088    3.2086  -15.5257 H   0  0  0  0  0  0
   -5.6737    2.7334  -13.2012 H   0  0  0  0  0  0
   -2.6201    5.7775   -6.8914 H   0  0  0  0  0  0
   -2.8460    6.2820   -8.6005 H   0  0  0  0  0  0
   -2.9252    8.0908   -6.5506 H   0  0  0  0  0  0
   -3.9497    8.2619   -8.0161 H   0  0  0  0  0  0
   -4.6179    7.0991   -5.3258 H   0  0  0  0  0  0
   -5.5091    8.3253   -6.2896 H   0  0  0  0  0  0
   -6.3091    6.6917   -7.8402 H   0  0  0  0  0  0
   -6.2205    5.6720   -6.3641 H   0  0  0  0  0  0
   -4.2891    1.4785   -8.8583 H   0  0  0  0  0  0
   -2.9321    3.2947   -7.9722 H   0  0  0  0  0  0
   -3.1075    4.2225   -9.5003 H   0  0  0  0  0  0
  1  2  2  0  0  0
  1 22  1  0  0  0
  1 23  1  0  0  0
  2  3  1  0  0  0
  2 24  1  0  0  0
  3  5  2  0  0  0
  3  9  1  0  0  0
  4 17  1  0  0  0
  4 22  1  0  0  0
  4 25  1  0  0  0
  5  7  1  0  0  0
  5 26  1  0  0  0
  6  7  2  0  0  0
  6  8  1  0  0  0
  6 27  1  0  0  0
  8  9  2  0  0  0
  8 28  1  0  0  0
  9 10  1  0  0  0
 10 22  2  0  0  0
 10 29  1  0  0  0
 11 12  1  0  0  0
 11 13  1  0  0  0
 11 30  1  0  0  0
 11 31  1  0  0  0
 12 15  1  0  0  0
 12 20  1  0  0  0
 13 14  1  0  0  0
 13 32  1  0  0  0
 13 33  1  0  0  0
 14 15  1  0  0  0
 14 34  1  0  0  0
 14 35  1  0  0  0
 15 36  1  0  0  0
 15 37  1  0  0  0
 16 17  2  0  0  0
 17 18  1  0  0  0
 18 19  1  0  0  0
 18 38  1  0  0  0
 19 20  1  0  0  0
 19 39  1  0  0  0
 19 40  1  0  0  0
 20 21  2  0  0  0
M  END
> <s_m_source_file>
../4ryl_ligand.sdf

> <i_m_source_file_index>
1

> <s_epik_input>
W2NIXTFuW2NIXVtjSF1jKGMxMilbY0hdYyhbY0hdW2NIXTIpW05IXUMoPU8pW05IXVtDSDJdQyg9TylOM1tDSDJdW0NIMl1bQ0gyXVtDSDJdMw==

> <s_epik_cmdline>
J2VwaWtfYXBwJywgJy1pbWFlJywgJ2xpZ2FuZF9wcm8ubWFlJywgJy1vbWFlJywgJ2xpZ2FuZF9wcmVwLm1hZScsICctbXMnLCAnMScsICctcGgnLCAnNycsICctcGh0JywgJzAuNScsICctbnQn

> <r_epik_Ionization_Penalty>
  0.1231

> <r_epik_Ionization_Penalty_Charging>
  0.0000

> <r_epik_Ionization_Penalty_Neutral>
  0.1231

> <r_epik_State_Penalty>
  0.1126

> <r_epik_Charging_Adjusted_Penalty>
0.112599586017213

> <i_epik_Tot_Q>
0

> <i_epik_Tot_abs_Q>
0

$$$$
