4rz1_ligand
                    3D
 Schrodinger Suite 2020-3.
 77 79  0  0  1  0            999 V2000
   42.9400  108.5540    9.1460 C   0  0  0  0  0  0
   42.2750  107.9450   10.3970 C   0  0  2  0  0  0
   44.9940  108.9680   14.0870 C   0  0  0  0  0  0
   44.1000  106.2620   12.3530 C   0  0  0  0  0  0
   45.3250  105.4560   12.7490 C   0  0  0  0  0  0
   45.3940  104.7310   13.9540 C   0  0  0  0  0  0
   47.6670  103.9830   13.3890 C   0  0  0  0  0  0
   47.5870  104.6860   12.1680 C   0  0  0  0  0  0
   46.5580  104.0020   14.2790 C   0  0  0  0  0  0
   46.4070  105.4130   11.8520 C   0  0  0  0  0  0
   49.0270  102.3700   14.7410 C   0  0  0  0  0  0
   48.8540  105.3620   10.0970 C   0  0  0  0  0  0
   49.4370  106.7850   10.3200 C   0  0  0  0  0  0
   49.5720  107.5660    8.9830 C   0  0  0  0  0  0
   49.9260  106.7320    6.7390 C   0  0  0  0  0  0
   38.8970  106.8380    9.7290 C   0  0  0  0  0  0
   42.0310  109.6390    8.7560 N   0  3  0  0  0  0
   40.7610  108.2100   10.2520 C   0  0  1  0  0  0
   40.6490  109.2540    9.1180 C   0  0  0  0  0  0
   42.7990  108.3040   11.8090 C   0  0  0  0  0  0
   40.1920  106.9100   10.0050 O   0  0  0  0  0  0
   44.0700  107.6460   12.2010 N   0  0  0  0  0  0
   45.2260  108.4750   12.6390 C   0  0  0  0  0  0
   45.6150  109.6360   11.6890 C   0  0  0  0  0  0
   43.1650  105.5290   12.0670 O   0  0  0  0  0  0
   48.8630  103.2690   13.6240 O   0  0  0  0  0  0
   48.7110  104.6150   11.3270 O   0  0  0  0  0  0
   50.4590  106.8840    8.0630 O   0  0  0  0  0  0
   38.6780  106.6310    8.4090 N   0  0  0  0  0  0
   38.0520  106.8890   10.6030 O   0  0  0  0  0  0
   37.3150  106.5330    7.9040 C   0  0  0  0  0  0
   36.6880  107.9280    7.7180 C   0  0  0  0  0  0
   35.3470  108.1720    8.0960 C   0  0  0  0  0  0
   35.5180  110.4650    7.3380 C   0  0  0  0  0  0
   36.8730  110.2440    6.9850 C   0  0  0  0  0  0
   34.7470  109.4320    7.8950 C   0  0  0  0  0  0
   37.4570  108.9790    7.1730 C   0  0  0  0  0  0
   43.9419  108.9254    9.4074 H   0  0  0  0  0  0
   43.0266  107.7840    8.3652 H   0  0  0  0  0  0
   42.5553  106.8814   10.3832 H   0  0  0  0  0  0
   44.7209  108.1149   14.7255 H   0  0  0  0  0  0
   44.1804  109.7082   14.0964 H   0  0  0  0  0  0
   45.9157  109.4314   14.4686 H   0  0  0  0  0  0
   44.5455  104.7327   14.6382 H   0  0  0  0  0  0
   46.6072  103.4503   15.2178 H   0  0  0  0  0  0
   46.3401  105.9438   10.9023 H   0  0  0  0  0  0
   50.0362  101.9332   14.7150 H   0  0  0  0  0  0
   48.2781  101.5668   14.6782 H   0  0  0  0  0  0
   48.8917  102.9248   15.6811 H   0  0  0  0  0  0
   47.8589  105.4417    9.6351 H   0  0  0  0  0  0
   49.5214  104.7921    9.4339 H   0  0  0  0  0  0
   48.7724  107.3531   10.9875 H   0  0  0  0  0  0
   50.4344  106.7052   10.7769 H   0  0  0  0  0  0
   48.5826  107.6592    8.5113 H   0  0  0  0  0  0
   49.9786  108.5683    9.1833 H   0  0  0  0  0  0
   50.6578  106.2074    6.1071 H   0  0  0  0  0  0
   49.7170  107.7239    6.3118 H   0  0  0  0  0  0
   48.9947  106.1483    6.7834 H   0  0  0  0  0  0
   42.3125  110.5613    9.2853 H   0  0  0  0  0  0
   42.1007  109.8034    7.6706 H   0  0  0  0  0  0
   40.1807  108.5730   11.1131 H   0  0  0  0  0  0
   40.0978  110.1432    9.4579 H   0  0  0  0  0  0
   40.1459  108.8245    8.2391 H   0  0  0  0  0  0
   42.9775  109.3877   11.8692 H   0  0  0  0  0  0
   42.0521  108.0130   12.5623 H   0  0  0  0  0  0
   46.0733  107.7753   12.5881 H   0  0  0  0  0  0
   46.4754  110.1791   12.1070 H   0  0  0  0  0  0
   44.7633  110.3241   11.5831 H   0  0  0  0  0  0
   45.8823  109.2288   10.7027 H   0  0  0  0  0  0
   39.5287  106.5368    7.7180 H   0  0  0  0  0  0
   37.3203  106.0183    6.9319 H   0  0  0  0  0  0
   36.6999  105.9641    8.6167 H   0  0  0  0  0  0
   34.7660  107.3702    8.5517 H   0  0  0  0  0  0
   35.0706  111.4456    7.1756 H   0  0  0  0  0  0
   37.4645  111.0581    6.5661 H   0  0  0  0  0  0
   33.7050  109.6009    8.1667 H   0  0  0  0  0  0
   38.4985  108.8105    6.8993 H   0  0  0  0  0  0
  1  2  1  0  0  0
  1 17  1  0  0  0
  1 38  1  0  0  0
  1 39  1  0  0  0
  2 18  1  0  0  0
  2 20  1  0  0  0
  2 40  1  0  0  0
  3 23  1  0  0  0
  3 41  1  0  0  0
  3 42  1  0  0  0
  3 43  1  0  0  0
  4  5  1  0  0  0
  4 22  1  0  0  0
  4 25  2  0  0  0
  5  6  2  0  0  0
  5 10  1  0  0  0
  6  9  1  0  0  0
  6 44  1  0  0  0
  7  8  1  0  0  0
  7  9  2  0  0  0
  7 26  1  0  0  0
  8 10  2  0  0  0
  8 27  1  0  0  0
  9 45  1  0  0  0
 10 46  1  0  0  0
 11 26  1  0  0  0
 11 47  1  0  0  0
 11 48  1  0  0  0
 11 49  1  0  0  0
 12 13  1  0  0  0
 12 27  1  0  0  0
 12 50  1  0  0  0
 12 51  1  0  0  0
 13 14  1  0  0  0
 13 52  1  0  0  0
 13 53  1  0  0  0
 14 28  1  0  0  0
 14 54  1  0  0  0
 14 55  1  0  0  0
 15 28  1  0  0  0
 15 56  1  0  0  0
 15 57  1  0  0  0
 15 58  1  0  0  0
 16 21  1  0  0  0
 16 29  1  0  0  0
 16 30  2  0  0  0
 17 19  1  0  0  0
 17 59  1  0  0  0
 17 60  1  0  0  0
 18 19  1  0  0  0
 18 21  1  0  0  0
 18 61  1  0  0  0
 19 62  1  0  0  0
 19 63  1  0  0  0
 20 22  1  0  0  0
 20 64  1  0  0  0
 20 65  1  0  0  0
 22 23  1  0  0  0
 23 24  1  0  0  0
 23 66  1  0  0  0
 24 67  1  0  0  0
 24 68  1  0  0  0
 24 69  1  0  0  0
 29 31  1  0  0  0
 29 70  1  0  0  0
 31 32  1  0  0  0
 31 71  1  0  0  0
 31 72  1  0  0  0
 32 33  2  0  0  0
 32 37  1  0  0  0
 33 36  1  0  0  0
 33 73  1  0  0  0
 34 35  1  0  0  0
 34 36  2  0  0  0
 34 74  1  0  0  0
 35 37  2  0  0  0
 35 75  1  0  0  0
 36 76  1  0  0  0
 37 77  1  0  0  0
M  CHG  1  17   1
M  END
> <s_m_source_file>
../4rz1_ligand.sdf

> <i_m_source_file_index>
1

> <s_epik_input>
W2NIXTFbY0hdW2NIXVtjSF1bY0hdYzFbQ0gyXVtOSF1DKD1PKU9bQ0BASF0yW0NIMl1bTkgyK11bQ0gyXVtDQEhdMltDSDJdTihbQ0hdKFtDSDNdKVtDSDNdKUMoPU8pYzNbY0hdW2NIXWMoT1tDSDNdKWMoW2NIXTMpT1tDSDJdW0NIMl1bQ0gyXU9bQ0gzXQ==

> <s_epik_cmdline>
J2VwaWtfYXBwJywgJy1pbWFlJywgJ2xpZ2FuZF9wcm8ubWFlJywgJy1vbWFlJywgJ2xpZ2FuZF9wcmVwLm1hZScsICctbXMnLCAnMScsICctcGgnLCAnNycsICctcGh0JywgJzAuNScsICctbnQn

> <r_lp_tautomer_probability>
1

> <r_epik_Ionization_Penalty>
  0.0012

> <r_epik_Ionization_Penalty_Charging>
  0.0012

> <r_epik_Ionization_Penalty_Neutral>
  0.0000

> <r_epik_State_Penalty>
 -0.0000

> <r_epik_Charging_Adjusted_Penalty>
0.0012459499605867

> <i_epik_Tot_Q>
1

> <i_epik_Tot_abs_Q>
1

> <s_epik_Chemistry_Notes>
This compound has an ester and may undergo hydrolysis at high or low pH.

$$$$
