4s1g_ligand
                    3D
 Schrodinger Suite 2020-3.
 61 63  0  0  1  0            999 V2000
   33.0980   58.2780   41.9270 C   0  0  0  0  0  0
   34.1240   59.3160   41.5530 C   0  0  0  0  0  0
   33.9110   60.6020   42.0150 N   0  0  0  0  0  0
   32.7210   60.9360   42.6570 C   0  0  0  0  0  0
   31.9580   59.9240   43.1900 N   0  3  0  0  0  0
   32.3700   58.5410   43.2350 C   0  0  1  0  0  0
   31.0610   57.7580   43.2230 C   0  0  0  0  0  0
   33.2430   58.2340   44.4730 C   0  0  0  0  0  0
   32.3230   62.1620   42.7090 N   0  0  0  0  0  0
   34.8910   61.6150   41.6680 C   0  0  0  0  0  0
   35.1050   58.9820   40.9150 O   0  0  0  0  0  0
   32.7040   58.8580   45.7560 C   0  0  0  0  0  0
   33.4640   56.7370   44.7220 C   0  0  0  0  0  0
   36.2330   61.4670   42.3220 C   0  0  0  0  0  0
   36.3740   60.9530   43.6060 C   0  0  0  0  0  0
   37.6260   60.8410   44.1800 C   0  0  0  0  0  0
   38.7370   61.2490   43.4750 C   0  0  0  0  0  0
   38.5980   61.7370   42.1920 C   0  0  0  0  0  0
   37.3540   61.8510   41.6050 C   0  0  0  0  0  0
   39.7140   62.1080   41.5470 F   0  0  0  0  0  0
   37.8500   60.3470   45.5590 C   0  0  0  0  0  0
   38.9840   60.0610   45.9360 O   0  0  0  0  0  0
   36.7380   60.2900   46.3720 N   0  0  0  0  0  0
   36.8650   59.7660   47.7270 C   0  0  2  0  0  0
   37.0910   58.2790   47.7400 C   0  0  0  0  0  0
   37.8450   57.7120   48.7560 C   0  0  0  0  0  0
   38.0550   56.3480   48.7690 C   0  0  0  0  0  0
   37.5280   55.5270   47.7840 C   0  0  0  0  0  0
   36.7910   56.0850   46.7570 C   0  0  0  0  0  0
   36.5790   57.4550   46.7420 C   0  0  0  0  0  0
   35.5970   60.0900   48.4920 C   0  0  0  0  0  0
   32.3289   58.2233   41.1425 H   0  0  0  0  0  0
   33.5878   57.2984   42.0291 H   0  0  0  0  0  0
   30.9688   60.1471   43.6162 H   0  0  0  0  0  0
   30.4864   58.0182   42.3219 H   0  0  0  0  0  0
   30.4740   58.0114   44.1181 H   0  0  0  0  0  0
   31.2787   56.6798   43.2204 H   0  0  0  0  0  0
   34.2127   58.6948   44.2336 H   0  0  0  0  0  0
   32.9445   62.9608   42.2781 H   0  0  0  0  0  0
   35.0710   61.5946   40.5830 H   0  0  0  0  0  0
   34.5124   62.6062   41.9583 H   0  0  0  0  0  0
   32.5381   59.9340   45.5988 H   0  0  0  0  0  0
   33.4322   58.7140   46.5678 H   0  0  0  0  0  0
   31.7530   58.3761   46.0267 H   0  0  0  0  0  0
   33.8535   56.2667   43.8070 H   0  0  0  0  0  0
   32.5089   56.2663   44.9982 H   0  0  0  0  0  0
   34.1881   56.6042   45.5393 H   0  0  0  0  0  0
   35.4921   60.6366   44.1630 H   0  0  0  0  0  0
   39.7253   61.1863   43.9305 H   0  0  0  0  0  0
   37.2552   62.2380   40.5908 H   0  0  0  0  0  0
   35.7603   60.6361   46.0055 H   0  0  0  0  0  0
   37.7507   60.2501   48.1642 H   0  0  0  0  0  0
   38.2693   58.3396   49.5397 H   0  0  0  0  0  0
   38.6476   55.9070   49.5705 H   0  0  0  0  0  0
   37.6937   54.4502   47.8194 H   0  0  0  0  0  0
   36.3809   55.4552   45.9675 H   0  0  0  0  0  0
   35.9990   57.8962   45.9314 H   0  0  0  0  0  0
   35.4310   61.1774   48.4829 H   0  0  0  0  0  0
   35.6969   59.7430   49.5310 H   0  0  0  0  0  0
   34.7431   59.5848   48.0171 H   0  0  0  0  0  0
   31.3621   62.4086   43.1842 H   0  0  0  0  0  0
  1  2  1  0  0  0
  1  6  1  0  0  0
  1 32  1  0  0  0
  1 33  1  0  0  0
  2  3  1  0  0  0
  2 11  2  0  0  0
  3  4  1  0  0  0
  3 10  1  0  0  0
  4  5  2  0  0  0
  4  9  1  0  0  0
  5  6  1  0  0  0
  5 34  1  0  0  0
  6  7  1  0  0  0
  6  8  1  0  0  0
  7 35  1  0  0  0
  7 36  1  0  0  0
  7 37  1  0  0  0
  8 12  1  0  0  0
  8 13  1  0  0  0
  8 38  1  0  0  0
  9 39  1  0  0  0
  9 61  1  0  0  0
 10 14  1  0  0  0
 10 40  1  0  0  0
 10 41  1  0  0  0
 12 42  1  0  0  0
 12 43  1  0  0  0
 12 44  1  0  0  0
 13 45  1  0  0  0
 13 46  1  0  0  0
 13 47  1  0  0  0
 14 15  2  0  0  0
 14 19  1  0  0  0
 15 16  1  0  0  0
 15 48  1  0  0  0
 16 17  2  0  0  0
 16 21  1  0  0  0
 17 18  1  0  0  0
 17 49  1  0  0  0
 18 19  2  0  0  0
 18 20  1  0  0  0
 19 50  1  0  0  0
 21 22  2  0  0  0
 21 23  1  0  0  0
 23 24  1  0  0  0
 23 51  1  0  0  0
 24 25  1  0  0  0
 24 31  1  0  0  0
 24 52  1  0  0  0
 25 26  2  0  0  0
 25 30  1  0  0  0
 26 27  1  0  0  0
 26 53  1  0  0  0
 27 28  2  0  0  0
 27 54  1  0  0  0
 28 29  1  0  0  0
 28 55  1  0  0  0
 29 30  2  0  0  0
 29 56  1  0  0  0
 30 57  1  0  0  0
 31 58  1  0  0  0
 31 59  1  0  0  0
 31 60  1  0  0  0
M  CHG  1   5   1
M  END
> <s_m_source_file>
../4s1g_ligand.sdf

> <i_m_source_file_index>
1

> <s_epik_input>
W0NIM11bQ0hdKFtDSDNdKVtDQF0xKFtDSDNdKVtDSDJdQyg9TylOKC9DKFtOSF0xKT1OXFtIXSlbQ0gyXWMyW2NIXWMoW2NIXWMoRilbY0hdMilDKD1PKVtOSF1bQ0BASF0oW0NIM10pYzNbY0hdW2NIXVtjSF1bY0hdW2NIXTM=

> <s_epik_cmdline>
J2VwaWtfYXBwJywgJy1pbWFlJywgJ2xpZ2FuZF9wcm8ubWFlJywgJy1vbWFlJywgJ2xpZ2FuZF9wcmVwLm1hZScsICctbXMnLCAnMScsICctcGgnLCAnNycsICctcGh0JywgJzAuNScsICctbnQn

> <r_lp_tautomer_probability>
1

> <r_epik_Ionization_Penalty>
  0.0002

> <r_epik_Ionization_Penalty_Charging>
  0.0002

> <r_epik_Ionization_Penalty_Neutral>
  0.0000

> <r_epik_State_Penalty>
 -0.0000

> <r_epik_Charging_Adjusted_Penalty>
0.000239617389565313

> <i_epik_Tot_Q>
1

> <i_epik_Tot_abs_Q>
1

> <s_epik_Chemistry_Notes>
This compound has an imine and may undergo hydrolysis.

$$$$
