4s2i_ligand
                    3D
 Schrodinger Suite 2020-3.
 29 29  0  0  1  0            999 V2000
    8.6080   14.2430   14.9370 O   0  0  0  0  0  0
    8.6450   14.5330   13.7590 C   0  0  0  0  0  0
    9.9150   14.7630   13.0910 N   0  0  0  0  0  0
    9.9820   14.8500   11.6490 C   0  0  0  0  0  0
   11.1370   14.5810   13.8190 C   0  0  2  0  0  0
   11.9990   15.8500   13.7900 C   0  0  0  0  0  0
   11.8690   16.6830   12.8860 O   0  0  0  0  0  0
   12.9470   16.0610   14.8440 N   0  0  0  0  0  0
   11.8710   13.3090   13.3310 C   0  0  0  0  0  0
   11.7800   13.1220   11.8070 C   0  0  0  0  0  0
   10.4210   13.4310   11.2290 C   0  0  1  0  0  0
    9.4570   12.4890   11.7780 N   0  0  1  0  0  0
    9.7270   11.2050   11.4690 O   0  0  0  0  0  0
    9.1230   10.2850   12.5500 S   0  0  0  0  0  0
    7.6980   10.6490   12.7840 O   0  0  0  0  0  0
    9.9190   10.3670   13.8630 O   0  5  0  0  0  0
    9.3140    8.8880   12.0580 O   0  0  0  0  0  0
    7.7108   14.6242   13.1854 H   0  0  0  0  0  0
    8.9922   15.1191   11.2515 H   0  0  0  0  0  0
   10.7140   15.6192   11.3617 H   0  0  0  0  0  0
   10.8235   14.4309   14.8626 H   0  0  0  0  0  0
   13.0553   15.3139   15.6440 H   0  0  0  0  0  0
   13.5663   16.9701   14.8529 H   0  0  0  0  0  0
   12.9355   13.3738   13.6004 H   0  0  0  0  0  0
   11.4256   12.4231   13.8072 H   0  0  0  0  0  0
   12.5016   13.7886   11.3121 H   0  0  0  0  0  0
   12.0108   12.0773   11.5513 H   0  0  0  0  0  0
   10.4521   13.3123   10.1359 H   0  0  0  0  0  0
    9.4887   12.5738   12.7940 H   0  0  0  0  0  0
  1  2  2  0  0  0
  2  3  1  0  0  0
  2 18  1  0  0  0
  3  4  1  0  0  0
  3  5  1  0  0  0
  4 11  1  0  0  0
  4 19  1  0  0  0
  4 20  1  0  0  0
  5  6  1  0  0  0
  5  9  1  0  0  0
  5 21  1  0  0  0
  6  7  2  0  0  0
  6  8  1  0  0  0
  8 22  1  0  0  0
  8 23  1  0  0  0
  9 10  1  0  0  0
  9 24  1  0  0  0
  9 25  1  0  0  0
 10 11  1  0  0  0
 10 26  1  0  0  0
 10 27  1  0  0  0
 11 12  1  0  0  0
 11 28  1  0  0  0
 12 13  1  0  0  0
 12 29  1  0  0  0
 13 14  1  0  0  0
 14 15  2  0  0  0
 14 16  1  0  0  0
 14 17  2  0  0  0
M  CHG  1  16  -1
M  END
> <s_m_source_file>
../4s2i_ligand.sdf

> <i_m_source_file_index>
1

> <s_epik_input>
Tz1bQ0hdTjFbQ0gyXVtDQEhdKFtOSDIrXU9TKD1PKSg9TylbT0hdKVtDSDJdW0NIMl1bQ0BIXTFDKD1PKVtOSDJd

> <s_epik_cmdline>
J2VwaWtfYXBwJywgJy1pbWFlJywgJ2xpZ2FuZF9wcm8ubWFlJywgJy1vbWFlJywgJ2xpZ2FuZF9wcmVwLm1hZScsICctbXMnLCAnMScsICctcGgnLCAnNycsICctcGh0JywgJzAuNScsICctbnQn

> <r_lp_tautomer_probability>
1

> <r_epik_Ionization_Penalty>
  0.0001

> <r_epik_Ionization_Penalty_Charging>
  0.0000

> <r_epik_Ionization_Penalty_Neutral>
  0.0001

> <r_epik_State_Penalty>
 -0.0000

> <r_epik_Charging_Adjusted_Penalty>
3.53992251514839e-10

> <i_epik_Tot_Q>
-1

> <i_epik_Tot_abs_Q>
1

> <s_epik_Chemistry_Notes>
This compound has a N-S or N-O group and may undergo hydrolysis at high or low pH.

$$$$
