4s3e_ligand
                    3D
 Schrodinger Suite 2020-3.
 14 13  0  0  1  0            999 V2000
   12.0190   20.7620  -15.8230 O   0  5  0  0  0  0
   12.5660   21.9060  -14.9490 P   0  0  0  0  0  0
   13.3510   21.4210  -13.6890 O   0  5  0  0  0  0
   13.3520   22.9500  -15.7250 O   0  0  0  0  0  0
   11.1830   22.6660  -14.4400 O   0  0  0  0  0  0
   11.0230   23.9600  -13.5390 P   0  0  1  0  0  0
    9.5150   24.2300  -13.4490 O   0  0  0  0  0  0
   11.8300   23.8400  -12.2190 O   0  5  0  0  0  0
   11.8900   25.1230  -14.2000 O   0  0  0  0  0  0
   11.4350   25.5820  -15.4110 C   0  0  0  0  0  0
   12.6160   26.3560  -15.9340 C   0  0  0  0  0  0
   13.6180   27.0130  -16.3780 C   0  0  0  0  0  0
   11.1687   24.7275  -16.0504 H   0  0  0  0  0  0
   10.5478   26.2130  -15.2541 H   0  0  0  0  0  0
  1  2  1  0  0  0
  2  3  1  0  0  0
  2  4  2  0  0  0
  2  5  1  0  0  0
  5  6  1  0  0  0
  6  7  2  0  0  0
  6  8  1  0  0  0
  6  9  1  0  0  0
  9 10  1  0  0  0
 10 11  1  0  0  0
 10 13  1  0  0  0
 10 14  1  0  0  0
 11 12  3  0  0  0
M  CHG  3   1  -1   3  -1   8  -1
M  END
> <s_m_source_file>
../4s3e_ligand.sdf

> <i_m_source_file_index>
1

> <s_epik_input>
W09IXVAoPU8pKFtPSF0pT1tQQEBdKD1PKShbT0hdKU9bQ0gyXUMjW0NIXQ==

> <s_epik_cmdline>
J2VwaWtfYXBwJywgJy1pbWFlJywgJ2xpZ2FuZF9wcm8ubWFlJywgJy1vbWFlJywgJ2xpZ2FuZF9wcmVwLm1hZScsICctbXMnLCAnMScsICctcGgnLCAnNycsICctcGh0JywgJzAuNScsICctbnQn

> <r_epik_Ionization_Penalty>
  0.0899

> <r_epik_Ionization_Penalty_Charging>
  0.0899

> <r_epik_Ionization_Penalty_Neutral>
  0.0000

> <r_epik_State_Penalty>
  0.0790

> <r_epik_Charging_Adjusted_Penalty>
0.168902624376879

> <i_epik_Tot_Q>
-3

> <i_epik_Tot_abs_Q>
3

$$$$
