4sga_ligand
                    3D
 Schrodinger Suite 2020-3.
 65 67  0  0  1  0            999 V2000
  -22.2210   28.1290   21.0250 C   0  0  0  0  0  0
  -22.2240   27.5230   22.1010 O   0  0  0  0  0  0
  -23.2220   29.1970   20.6900 C   0  0  0  0  0  0
  -21.3130   27.9230   19.9930 N   0  0  0  0  0  0
  -20.3880   26.7870   20.2670 C   0  0  2  0  0  0
  -19.4680   27.2130   21.3800 C   0  0  0  0  0  0
  -19.2570   28.4330   21.6630 O   0  0  0  0  0  0
  -19.7440   26.5000   18.9320 C   0  0  0  0  0  0
  -19.5700   27.8800   18.3390 C   0  0  0  0  0  0
  -20.8530   28.6030   18.7130 C   0  0  0  0  0  0
  -18.9280   26.2020   22.0360 N   0  0  0  0  0  0
  -17.9930   26.3860   23.1590 C   0  0  2  0  0  0
  -16.9970   25.2210   23.1840 C   0  0  0  0  0  0
  -17.3090   24.1220   22.6980 O   0  0  0  0  0  0
  -18.7620   26.3680   24.4790 C   0  0  0  0  0  0
  -15.8730   25.4930   23.8010 N   0  0  0  0  0  0
  -14.8060   24.4890   23.9400 C   0  0  2  0  0  0
  -15.2650   23.4290   24.9180 C   0  0  0  0  0  0
  -15.8060   23.8240   25.9940 O   0  0  0  0  0  0
  -13.6030   25.2550   24.4800 C   0  0  0  0  0  0
  -13.9880   26.7250   24.4470 C   0  0  0  0  0  0
  -15.4900   26.7860   24.4130 C   0  0  0  0  0  0
  -15.1210   22.1650   24.5800 N   0  0  0  0  0  0
  -15.5020   21.0920   25.5050 C   0  0  2  0  0  0
  -14.2710   20.7260   26.3970 C   0  0  0  0  0  0
  -14.2590   19.5170   26.8480 O   0  0  0  0  0  0
  -16.1200   19.9100   24.7680 C   0  0  0  0  0  0
  -17.5120   20.2190   24.2200 C   0  0  0  0  0  0
  -18.2710   21.2290   24.8010 C   0  0  0  0  0  0
  -18.0220   19.4410   23.1880 C   0  0  0  0  0  0
  -19.5630   21.5050   24.3170 C   0  0  0  0  0  0
  -19.3190   19.7080   22.6900 C   0  0  0  0  0  0
  -20.0830   20.7480   23.2690 C   0  0  0  0  0  0
  -13.3260   21.5230   26.7990 O   0  5  0  0  0  0
  -23.9174   29.3250   21.5326 H   0  0  0  0  0  0
  -23.7846   28.9034   19.7915 H   0  0  0  0  0  0
  -22.6972   30.1450   20.5005 H   0  0  0  0  0  0
  -20.8535   25.8582   20.6283 H   0  0  0  0  0  0
  -18.7862   25.9828   19.0906 H   0  0  0  0  0  0
  -20.4104   25.8620   18.3330 H   0  0  0  0  0  0
  -18.6814   28.3579   18.7771 H   0  0  0  0  0  0
  -19.4424   27.7975   17.2495 H   0  0  0  0  0  0
  -21.6274   28.4914   17.9398 H   0  0  0  0  0  0
  -20.6802   29.6718   18.9073 H   0  0  0  0  0  0
  -19.2041   25.1881   21.7107 H   0  0  0  0  0  0
  -17.4923   27.3528   23.0020 H   0  0  0  0  0  0
  -19.4873   27.1949   24.4921 H   0  0  0  0  0  0
  -18.0573   26.4851   25.3155 H   0  0  0  0  0  0
  -19.2950   25.4111   24.5798 H   0  0  0  0  0  0
  -14.5817   23.9960   22.9826 H   0  0  0  0  0  0
  -13.3889   24.9246   25.5071 H   0  0  0  0  0  0
  -12.7280   25.0604   23.8424 H   0  0  0  0  0  0
  -13.5991   27.2261   25.3457 H   0  0  0  0  0  0
  -13.5596   27.1962   23.5501 H   0  0  0  0  0  0
  -15.8620   27.6117   23.7886 H   0  0  0  0  0  0
  -15.9294   26.8601   25.4187 H   0  0  0  0  0  0
  -14.7094   21.9177   23.5904 H   0  0  0  0  0  0
  -16.3155   21.4807   26.1352 H   0  0  0  0  0  0
  -15.4783   19.6310   23.9193 H   0  0  0  0  0  0
  -16.2106   19.0560   25.4554 H   0  0  0  0  0  0
  -17.8651   21.8068   25.6313 H   0  0  0  0  0  0
  -17.4274   18.6311   22.7653 H   0  0  0  0  0  0
  -20.1541   22.3068   24.7595 H   0  0  0  0  0  0
  -19.7254   19.1182   21.8684 H   0  0  0  0  0  0
  -21.0843   20.9585   22.8933 H   0  0  0  0  0  0
  1  2  2  0  0  0
  1  3  1  0  0  0
  1  4  1  0  0  0
  3 35  1  0  0  0
  3 36  1  0  0  0
  3 37  1  0  0  0
  4  5  1  0  0  0
  4 10  1  0  0  0
  5  6  1  0  0  0
  5  8  1  0  0  0
  5 38  1  0  0  0
  6  7  2  0  0  0
  6 11  1  0  0  0
  8  9  1  0  0  0
  8 39  1  0  0  0
  8 40  1  0  0  0
  9 10  1  0  0  0
  9 41  1  0  0  0
  9 42  1  0  0  0
 10 43  1  0  0  0
 10 44  1  0  0  0
 11 12  1  0  0  0
 11 45  1  0  0  0
 12 15  1  0  0  0
 12 13  1  0  0  0
 12 46  1  0  0  0
 13 14  2  0  0  0
 13 16  1  0  0  0
 15 47  1  0  0  0
 15 48  1  0  0  0
 15 49  1  0  0  0
 16 17  1  0  0  0
 16 22  1  0  0  0
 17 18  1  0  0  0
 17 20  1  0  0  0
 17 50  1  0  0  0
 18 19  2  0  0  0
 18 23  1  0  0  0
 20 21  1  0  0  0
 20 51  1  0  0  0
 20 52  1  0  0  0
 21 22  1  0  0  0
 21 53  1  0  0  0
 21 54  1  0  0  0
 22 55  1  0  0  0
 22 56  1  0  0  0
 23 24  1  0  0  0
 23 57  1  0  0  0
 24 27  1  0  0  0
 24 25  1  0  0  0
 24 58  1  0  0  0
 25 26  2  0  0  0
 25 34  1  0  0  0
 27 28  1  0  0  0
 27 59  1  0  0  0
 27 60  1  0  0  0
 28 29  2  0  0  0
 28 30  1  0  0  0
 29 31  1  0  0  0
 29 61  1  0  0  0
 30 32  2  0  0  0
 30 62  1  0  0  0
 31 33  2  0  0  0
 31 63  1  0  0  0
 32 33  1  0  0  0
 32 64  1  0  0  0
 33 65  1  0  0  0
M  CHG  1  34  -1
M  END
> <s_m_source_file>
../4sga_ligand.sdf

> <i_m_source_file_index>
1

> <s_epik_input>
Tz1DKFtDSDNdKU4xW0NAQEhdKFtDSDJdW0NIMl1bQ0gyXTEpQyg9TylbTkhdW0NAQEhdKFtDSDNdKUMoPU8pTjJbQ0BASF0oW0NIMl1bQ0gyXVtDSDJdMilDKD1PKVtOSF1bQ0BIXShDKD1PKVtPSF0pW0NIMl1jM1tjSF1bY0hdW2NIXVtjSF1bY0hdMw==

> <s_epik_cmdline>
J2VwaWtfYXBwJywgJy1pbWFlJywgJ2xpZ2FuZF9wcm8ubWFlJywgJy1vbWFlJywgJ2xpZ2FuZF9wcmVwLm1hZScsICctbXMnLCAnMScsICctcGgnLCAnNycsICctcGh0JywgJzAuNScsICctbnQn

> <r_lp_tautomer_probability>
1

> <r_epik_Ionization_Penalty>
  0.0002

> <r_epik_Ionization_Penalty_Charging>
  0.0002

> <r_epik_Ionization_Penalty_Neutral>
  0.0000

> <r_epik_State_Penalty>
 -0.0000

> <r_epik_Charging_Adjusted_Penalty>
0.00017523551565631

> <i_epik_Tot_Q>
-1

> <i_epik_Tot_abs_Q>
1

$$$$
