4tju_ligand
                    3D
 Schrodinger Suite 2020-3.
 30 32  0  0  1  0            999 V2000
   24.4680   51.0930   -0.3170 C   0  0  0  0  0  0
   25.6580   50.6430    0.2970 C   0  0  0  0  0  0
   25.9420   49.2230    0.3270 C   0  0  0  0  0  0
   25.0860   48.2770   -0.3500 C   0  0  0  0  0  0
   23.9040   48.8020   -1.0400 C   0  0  0  0  0  0
   23.6470   50.1770   -1.0870 C   0  0  0  0  0  0
   27.0550   48.7610    1.0290 N   0  0  0  0  0  0
   27.2650   47.4480    1.0900 C   0  0  0  0  0  0
   26.4050   46.4700    0.4530 C   0  0  0  0  0  0
   25.3480   46.8820   -0.2800 N   0  0  0  0  0  0
   22.9730   47.8750   -1.8240 C   0  0  0  0  0  0
   23.0920   46.5310   -1.6380 N   0  0  0  0  0  0
   22.1850   48.3140   -2.6330 O   0  0  0  0  0  0
   26.6540   45.0160    0.6320 C   0  0  0  0  0  0
   26.2350   44.0930   -0.3510 C   0  0  0  0  0  0
   26.4000   42.7170   -0.1800 C   0  0  0  0  0  0
   26.9860   42.2530    1.0040 C   0  0  0  0  0  0
   27.3880   43.1210    2.0370 C   0  0  0  0  0  0
   27.1900   44.5060    1.8670 C   0  0  0  0  0  0
   27.1880   40.5560    1.1880 Cl  0  0  0  0  0  0
   24.1646   52.1346   -0.2118 H   0  0  0  0  0  0
   26.3531   51.3548    0.7422 H   0  0  0  0  0  0
   22.8315   50.5592   -1.7010 H   0  0  0  0  0  0
   28.1295   47.0890    1.6485 H   0  0  0  0  0  0
   23.8093   46.1390   -0.9019 H   0  0  0  0  0  0
   22.4708   45.8375   -2.2238 H   0  0  0  0  0  0
   25.7716   44.4635   -1.2654 H   0  0  0  0  0  0
   26.0791   42.0182   -0.9526 H   0  0  0  0  0  0
   27.8422   42.7306    2.9478 H   0  0  0  0  0  0
   27.4437   45.1937    2.6737 H   0  0  0  0  0  0
  1  2  2  0  0  0
  1  6  1  0  0  0
  1 21  1  0  0  0
  2  3  1  0  0  0
  2 22  1  0  0  0
  3  4  2  0  0  0
  3  7  1  0  0  0
  4  5  1  0  0  0
  4 10  1  0  0  0
  5  6  2  0  0  0
  5 11  1  0  0  0
  6 23  1  0  0  0
  7  8  2  0  0  0
  8  9  1  0  0  0
  8 24  1  0  0  0
  9 10  2  0  0  0
  9 14  1  0  0  0
 11 12  1  0  0  0
 11 13  2  0  0  0
 12 25  1  0  0  0
 12 26  1  0  0  0
 14 15  2  0  0  0
 14 19  1  0  0  0
 15 16  1  0  0  0
 15 27  1  0  0  0
 16 17  2  0  0  0
 16 28  1  0  0  0
 17 18  1  0  0  0
 17 20  1  0  0  0
 18 19  2  0  0  0
 18 29  1  0  0  0
 19 30  1  0  0  0
M  END
> <s_m_source_file>
../4tju_ligand.sdf

> <i_m_source_file_index>
1

> <s_epik_input>
W2NIXTFbY0hdW2NIXWMoQyg9TylbTkgyXSljKGMxMiluYyhbY0hdbjIpLWMzW2NIXVtjSF1jKENsKVtjSF1bY0hdMw==

> <s_epik_cmdline>
J2VwaWtfYXBwJywgJy1pbWFlJywgJ2xpZ2FuZF9wcm8ubWFlJywgJy1vbWFlJywgJ2xpZ2FuZF9wcmVwLm1hZScsICctbXMnLCAnMScsICctcGgnLCAnNycsICctcGh0JywgJzAuNScsICctbnQn

> <r_lp_tautomer_probability>
1

> <r_epik_Ionization_Penalty>
  0.0000

> <r_epik_Ionization_Penalty_Charging>
  0.0000

> <r_epik_Ionization_Penalty_Neutral>
  0.0000

> <r_epik_State_Penalty>
 -0.0000

> <r_epik_Charging_Adjusted_Penalty>
0

> <i_epik_Tot_Q>
0

> <i_epik_Tot_abs_Q>
0

$$$$
