4tjw_ligand
                    3D
 Schrodinger Suite 2020-3.
 40 42  0  0  1  0            999 V2000
   26.6540   42.8360    5.3290 C   0  0  0  0  0  0
   28.0980   43.0300    4.6630 N   0  3  0  0  0  0
   28.3380   44.4530    4.7190 C   0  0  0  0  0  0
   28.2410   42.6420    3.1270 C   0  0  0  0  0  0
   27.0970   43.2150    2.2510 C   0  0  0  0  0  0
   25.9560   42.7740    2.4420 O   0  0  0  0  0  0
   27.2840   44.1690    1.2860 N   0  0  0  0  0  0
   26.1990   44.7660    0.4670 C   0  0  0  0  0  0
   26.0210   46.1070    0.4870 C   0  0  0  0  0  0
   25.0010   46.7760   -0.2340 C   0  0  0  0  0  0
   24.8420   48.2100   -0.2300 C   0  0  0  0  0  0
   25.6790   49.1200    0.5220 C   0  0  0  0  0  0
   25.4320   50.4710    0.4890 C   0  0  0  0  0  0
   24.2160   50.9970   -0.2330 C   0  0  0  0  0  0
   23.4250   50.1380   -0.9980 C   0  0  0  0  0  0
   23.7160   48.7940   -0.9970 C   0  0  0  0  0  0
   22.7770   47.9180   -1.8010 C   0  0  0  0  0  0
   21.8310   48.3070   -2.5260 O   0  0  0  0  0  0
   23.0210   46.6140   -1.7950 N   0  0  0  0  0  0
   24.0830   45.9860   -1.0040 C   0  0  0  0  0  0
   24.2140   44.5460   -1.0430 C   0  0  0  0  0  0
   25.2670   43.9520   -0.3270 C   0  0  0  0  0  0
   26.6939   43.1391    6.3857 H   0  0  0  0  0  0
   26.3583   41.7786    5.2618 H   0  0  0  0  0  0
   25.9184   43.4570    4.7969 H   0  0  0  0  0  0
   28.8368   42.4444    5.2298 H   0  0  0  0  0  0
   28.2553   44.7981    5.7602 H   0  0  0  0  0  0
   27.5938   44.9750    4.0995 H   0  0  0  0  0  0
   29.3476   44.6697    4.3399 H   0  0  0  0  0  0
   29.1912   43.0352    2.7364 H   0  0  0  0  0  0
   28.2267   41.5471    3.0225 H   0  0  0  0  0  0
   28.2955   44.5452    1.0733 H   0  0  0  0  0  0
   26.7008   46.7068    1.0921 H   0  0  0  0  0  0
   26.5070   48.7328    1.1157 H   0  0  0  0  0  0
   26.1139   51.1624    0.9840 H   0  0  0  0  0  0
   23.9540   52.0523   -0.1569 H   0  0  0  0  0  0
   22.5923   50.5253   -1.5851 H   0  0  0  0  0  0
   22.4085   45.9370   -2.4087 H   0  0  0  0  0  0
   23.5132   43.9367   -1.6137 H   0  0  0  0  0  0
   25.3950   42.8701   -0.3608 H   0  0  0  0  0  0
  1  2  1  0  0  0
  1 23  1  0  0  0
  1 24  1  0  0  0
  1 25  1  0  0  0
  2  3  1  0  0  0
  2  4  1  0  0  0
  2 26  1  0  0  0
  3 27  1  0  0  0
  3 28  1  0  0  0
  3 29  1  0  0  0
  4  5  1  0  0  0
  4 30  1  0  0  0
  4 31  1  0  0  0
  5  6  2  0  0  0
  5  7  1  0  0  0
  7  8  1  0  0  0
  7 32  1  0  0  0
  8  9  2  0  0  0
  8 22  1  0  0  0
  9 10  1  0  0  0
  9 33  1  0  0  0
 10 11  1  0  0  0
 10 20  2  0  0  0
 11 12  2  0  0  0
 11 16  1  0  0  0
 12 13  1  0  0  0
 12 34  1  0  0  0
 13 14  2  0  0  0
 13 35  1  0  0  0
 14 15  1  0  0  0
 14 36  1  0  0  0
 15 16  2  0  0  0
 15 37  1  0  0  0
 16 17  1  0  0  0
 17 18  2  0  0  0
 17 19  1  0  0  0
 19 20  1  0  0  0
 19 38  1  0  0  0
 20 21  1  0  0  0
 21 22  2  0  0  0
 21 39  1  0  0  0
 22 40  1  0  0  0
M  CHG  1   2   1
M  END
> <s_m_source_file>
../4tjw_ligand.sdf

> <i_m_source_file_index>
1

> <s_epik_input>
W0NIM11bTkgrXShbQ0gzXSlbQ0gyXUMoPU8pW05IXWMoW2NIXTEpW2NIXVtjSF1jMltuSF1jKD1PKWMoYzNjMTIpW2NIXVtjSF1bY0hdW2NIXTM=

> <s_epik_cmdline>
J2VwaWtfYXBwJywgJy1pbWFlJywgJ2xpZ2FuZF9wcm8ubWFlJywgJy1vbWFlJywgJ2xpZ2FuZF9wcmVwLm1hZScsICctbXMnLCAnMScsICctcGgnLCAnNycsICctcGh0JywgJzAuNScsICctbnQn

> <r_epik_Ionization_Penalty>
  0.0619

> <r_epik_Ionization_Penalty_Charging>
  0.0619

> <r_epik_Ionization_Penalty_Neutral>
  0.0000

> <r_epik_State_Penalty>
  0.0535

> <r_epik_Charging_Adjusted_Penalty>
0.115449930297389

> <i_epik_Tot_Q>
1

> <i_epik_Tot_abs_Q>
1

$$$$
