4tjy_ligand
                    3D
 Schrodinger Suite 2020-3.
 35 37  0  0  1  0            999 V2000
   25.2190   48.3640   -0.2240 C   0  0  0  0  0  0
   23.9990   48.8040   -0.8040 C   0  0  0  0  0  0
   23.6710   50.1610   -0.7330 C   0  0  0  0  0  0
   26.9560   47.2360    0.6070 C   0  0  0  0  0  0
   23.0730   47.8910   -1.6230 C   0  0  0  0  0  0
   27.8640   46.1000    1.1100 C   0  0  2  0  0  0
   28.3460   44.8770    3.1250 C   0  0  0  0  0  0
   27.1320   44.6880    1.0310 C   0  0  0  0  0  0
   24.4500   51.0900    0.0490 C   0  0  0  0  0  0
   25.7010   50.6640    0.6010 C   0  0  0  0  0  0
   26.0320   49.3040    0.4910 C   0  0  0  0  0  0
   27.1390   48.5740    0.9660 N   0  3  0  0  0  0
   25.7900   47.0670   -0.0740 N   0  0  0  0  0  0
   23.1970   46.5230   -1.4920 N   0  0  0  0  0  0
   22.2540   48.3150   -2.4270 O   0  0  0  0  0  0
   28.1390   46.2420    2.5880 N   0  3  0  0  0  0
   27.2880   44.0350    2.4260 C   0  0  0  0  0  0
   29.2100   46.0750    0.3690 C   0  0  0  0  0  0
   22.8039   50.5269   -1.2829 H   0  0  0  0  0  0
   29.3654   44.5397    2.8862 H   0  0  0  0  0  0
   28.2096   44.8878    4.2165 H   0  0  0  0  0  0
   26.0709   44.8385    0.7833 H   0  0  0  0  0  0
   27.6064   44.0721    0.2528 H   0  0  0  0  0  0
   24.0904   52.1050    0.2179 H   0  0  0  0  0  0
   26.3723   51.3705    1.0892 H   0  0  0  0  0  0
   23.9221   46.1022   -0.7799 H   0  0  0  0  0  0
   22.5708   45.8533   -2.0997 H   0  0  0  0  0  0
   29.0384   46.8578    2.7361 H   0  0  0  0  0  0
   27.2796   46.7248    3.0762 H   0  0  0  0  0  0
   27.6360   42.9939    2.3550 H   0  0  0  0  0  0
   26.3517   44.0701    3.0023 H   0  0  0  0  0  0
   29.0318   45.9719   -0.7116 H   0  0  0  0  0  0
   29.8087   45.2235    0.7248 H   0  0  0  0  0  0
   29.7530   47.0117    0.5634 H   0  0  0  0  0  0
   28.0378   48.8758    1.5237 H   0  0  0  0  0  0
  1  2  2  0  0  0
  1 11  1  0  0  0
  1 13  1  0  0  0
  2  3  1  0  0  0
  2  5  1  0  0  0
  3  9  2  0  0  0
  3 19  1  0  0  0
  4  6  1  0  0  0
  4 12  1  0  0  0
  4 13  2  0  0  0
  5 14  1  0  0  0
  5 15  2  0  0  0
  6  8  1  0  0  0
  6 16  1  0  0  0
  6 18  1  0  0  0
  7 16  1  0  0  0
  7 17  1  0  0  0
  7 20  1  0  0  0
  7 21  1  0  0  0
  8 17  1  0  0  0
  8 22  1  0  0  0
  8 23  1  0  0  0
  9 10  1  0  0  0
  9 24  1  0  0  0
 10 11  2  0  0  0
 10 25  1  0  0  0
 11 12  1  0  0  0
 12 35  1  0  0  0
 14 26  1  0  0  0
 14 27  1  0  0  0
 16 28  1  0  0  0
 16 29  1  0  0  0
 17 30  1  0  0  0
 17 31  1  0  0  0
 18 32  1  0  0  0
 18 33  1  0  0  0
 18 34  1  0  0  0
M  CHG  2  12   1  16   1
M  END
> <s_m_source_file>
../4tjy_ligand.sdf

> <i_m_source_file_index>
1

> <s_epik_input>
W05IMl1DKD1PKWMxW2NIXVtjSF1bY0hdYyhjMTIpW25IXWMobjIpW0NAXTMoW0NIM10pW0NIMl1bQ0gyXVtDSDJdW05IMitdMw==

> <s_epik_cmdline>
J2VwaWtfYXBwJywgJy1pbWFlJywgJ2xpZ2FuZF9wcm8ubWFlJywgJy1vbWFlJywgJ2xpZ2FuZF9wcmVwLm1hZScsICctbXMnLCAnMScsICctcGgnLCAnNycsICctcGh0JywgJzAuNScsICctbnQn

> <r_epik_Ionization_Penalty>
  0.0014

> <r_epik_Ionization_Penalty_Charging>
  0.0013

> <r_epik_Ionization_Penalty_Neutral>
  0.0000

> <r_epik_State_Penalty>
  0.1498

> <r_epik_Charging_Adjusted_Penalty>
0.151175409822384

> <i_epik_Tot_Q>
2

> <i_epik_Tot_abs_Q>
2

> <s_epik_Chemistry_Notes>
This compound has an imine and may undergo hydrolysis.

$$$$
