4tk0_ligand
                    3D
 Schrodinger Suite 2020-3.
 49 51  0  0  1  0            999 V2000
   22.0200   48.1600   -2.3370 O   0  0  0  0  0  0
   22.8700   47.7660   -1.5460 C   0  0  0  0  0  0
   23.0630   46.4180   -1.4080 N   0  0  0  0  0  0
   24.0620   45.8500   -0.4840 C   0  0  0  0  0  0
   25.2830   46.7270   -0.2390 C   0  0  0  0  0  0
   24.9820   48.2050   -0.1980 C   0  0  0  0  0  0
   25.9170   49.1510    0.3850 C   0  0  0  0  0  0
   26.9080   48.6300    1.2110 O   0  0  0  0  0  0
   28.1020   47.9490    0.8160 C   0  0  0  0  0  0
   28.5240   47.2630    2.1710 C   0  0  0  0  0  0
   29.2550   45.9330    2.0130 C   0  0  0  0  0  0
   28.4880   44.7600    2.7530 C   0  0  0  0  0  0
   27.2130   44.3190    2.0180 N   0  3  0  0  0  0
   26.3490   43.2850    2.7400 C   0  0  0  0  0  0
   26.5610   41.7580    2.3560 C   0  0  0  0  0  0
   26.9310   41.5020    0.8610 C   0  0  0  0  0  0
   26.7690   42.7670    0.0420 C   0  0  0  0  0  0
   27.5940   43.8990    0.6190 C   0  0  0  0  0  0
   25.5260   50.5120    0.4770 C   0  0  0  0  0  0
   24.2850   50.9820   -0.0870 C   0  0  0  0  0  0
   23.4710   50.0850   -0.8130 C   0  0  0  0  0  0
   23.7880   48.7080   -0.7970 C   0  0  0  0  0  0
   22.4378   45.7510   -2.0197 H   0  0  0  0  0  0
   23.5966   45.6761    0.4974 H   0  0  0  0  0  0
   24.4343   44.8967   -0.8873 H   0  0  0  0  0  0
   25.7366   46.4622    0.7275 H   0  0  0  0  0  0
   26.0159   46.5683   -1.0437 H   0  0  0  0  0  0
   27.8672   47.2311    0.0163 H   0  0  0  0  0  0
   28.8366   48.6804    0.4481 H   0  0  0  0  0  0
   29.1982   47.9318    2.7262 H   0  0  0  0  0  0
   27.6271   47.0624    2.7754 H   0  0  0  0  0  0
   29.3310   45.6810    0.9449 H   0  0  0  0  0  0
   30.2641   46.0159    2.4429 H   0  0  0  0  0  0
   29.1478   43.8835    2.8327 H   0  0  0  0  0  0
   28.1953   45.0914    3.7602 H   0  0  0  0  0  0
   26.5362   45.1847    1.9684 H   0  0  0  0  0  0
   26.5365   43.3421    3.8224 H   0  0  0  0  0  0
   25.2870   43.4909    2.5405 H   0  0  0  0  0  0
   27.3785   41.3380    2.9604 H   0  0  0  0  0  0
   25.6347   41.1984    2.5528 H   0  0  0  0  0  0
   27.9769   41.1680    0.7942 H   0  0  0  0  0  0
   26.2709   40.7252    0.4477 H   0  0  0  0  0  0
   27.1004   42.5805   -0.9902 H   0  0  0  0  0  0
   25.7112   43.0686    0.0385 H   0  0  0  0  0  0
   27.4779   44.7529   -0.0646 H   0  0  0  0  0  0
   28.6409   43.5616    0.6097 H   0  0  0  0  0  0
   26.1800   51.2196    0.9866 H   0  0  0  0  0  0
   23.9782   52.0195    0.0457 H   0  0  0  0  0  0
   22.6120   50.4490   -1.3767 H   0  0  0  0  0  0
  1  2  2  0  0  0
  2  3  1  0  0  0
  2 22  1  0  0  0
  3  4  1  0  0  0
  3 23  1  0  0  0
  4  5  1  0  0  0
  4 24  1  0  0  0
  4 25  1  0  0  0
  5  6  1  0  0  0
  5 26  1  0  0  0
  5 27  1  0  0  0
  6  7  2  0  0  0
  6 22  1  0  0  0
  7  8  1  0  0  0
  7 19  1  0  0  0
  8  9  1  0  0  0
  9 10  1  0  0  0
  9 28  1  0  0  0
  9 29  1  0  0  0
 10 11  1  0  0  0
 10 30  1  0  0  0
 10 31  1  0  0  0
 11 12  1  0  0  0
 11 32  1  0  0  0
 11 33  1  0  0  0
 12 13  1  0  0  0
 12 34  1  0  0  0
 12 35  1  0  0  0
 13 14  1  0  0  0
 13 18  1  0  0  0
 13 36  1  0  0  0
 14 15  1  0  0  0
 14 37  1  0  0  0
 14 38  1  0  0  0
 15 16  1  0  0  0
 15 39  1  0  0  0
 15 40  1  0  0  0
 16 17  1  0  0  0
 16 41  1  0  0  0
 16 42  1  0  0  0
 17 18  1  0  0  0
 17 43  1  0  0  0
 17 44  1  0  0  0
 18 45  1  0  0  0
 18 46  1  0  0  0
 19 20  2  0  0  0
 19 47  1  0  0  0
 20 21  1  0  0  0
 20 48  1  0  0  0
 21 22  2  0  0  0
 21 49  1  0  0  0
M  CHG  1  13   1
M  END
> <s_m_source_file>
../4tk0_ligand.sdf

> <i_m_source_file_index>
1

> <s_epik_input>
W0NIMl0xW0NIMl1bTkhdQyg9TyljKGMxMilbY0hdW2NIXVtjSF1jMk9bQ0gyXVtDSDJdW0NIMl1bQ0gyXVtOSCtdM1tDSDJdW0NIMl1bQ0gyXVtDSDJdW0NIMl0z

> <s_epik_cmdline>
J2VwaWtfYXBwJywgJy1pbWFlJywgJ2xpZ2FuZF9wcm8ubWFlJywgJy1vbWFlJywgJ2xpZ2FuZF9wcmVwLm1hZScsICctbXMnLCAnMScsICctcGgnLCAnNycsICctcGh0JywgJzAuNScsICctbnQn

> <r_lp_tautomer_probability>
1

> <r_epik_Ionization_Penalty>
  0.0010

> <r_epik_Ionization_Penalty_Charging>
  0.0010

> <r_epik_Ionization_Penalty_Neutral>
  0.0000

> <r_epik_State_Penalty>
 -0.0000

> <r_epik_Charging_Adjusted_Penalty>
0.00102207106619097

> <i_epik_Tot_Q>
1

> <i_epik_Tot_abs_Q>
1

$$$$
