4tk1_ligand
                    3D
 Schrodinger Suite 2020-3.
176178  0  0  1  0            999 V2000
  -23.3710   22.2080  -27.2720 N   0  3  0  0  0  0
  -24.0610   21.2880  -26.3190 C   0  0  2  0  0  0
  -23.2490   20.0160  -26.0660 C   0  0  0  0  0  0
  -22.8380   19.3290  -26.9860 O   0  0  0  0  0  0
  -25.4540   20.9030  -26.8340 C   0  0  0  0  0  0
  -26.1440   19.8770  -25.9820 C   0  0  0  0  0  0
  -26.7650   20.2460  -24.7960 C   0  0  0  0  0  0
  -26.1410   18.5370  -26.3480 C   0  0  0  0  0  0
  -27.3790   19.3000  -23.9920 C   0  0  0  0  0  0
  -26.7520   17.5860  -25.5500 C   0  0  0  0  0  0
  -27.3740   17.9670  -24.3710 C   0  0  0  0  0  0
  -23.0730   19.6920  -24.7970 N   0  0  0  0  0  0
  -22.2820   18.5480  -24.3880 C   0  0  2  0  0  0
  -23.0500   17.7200  -23.3380 C   0  0  0  0  0  0
  -23.3060   18.2060  -22.2230 O   0  0  0  0  0  0
  -20.9080   19.0180  -23.8480 C   0  0  0  0  0  0
  -21.0180   20.1240  -22.7780 C   0  0  0  0  0  0
  -21.1990   21.3050  -23.1000 O   0  0  0  0  0  0
  -20.8930   19.7410  -21.5030 N   0  0  0  0  0  0
  -23.4290   16.4870  -23.6810 N   0  0  0  0  0  0
  -24.0520   15.6250  -22.6930 C   0  0  2  0  0  0
  -23.0520   15.0750  -21.6810 C   0  0  0  0  0  0
  -23.4140   14.8420  -20.5450 O   0  0  0  0  0  0
  -24.8520   14.4750  -23.3180 C   0  0  2  0  0  0
  -25.9310   13.9740  -22.3390 C   0  0  0  0  0  0
  -23.9360   13.3420  -23.7490 C   0  0  0  0  0  0
  -27.0980   14.9190  -22.1640 C   0  0  0  0  0  0
  -21.8050   14.8390  -22.0580 N   0  0  0  0  0  0
  -20.8470   14.4600  -21.0280 C   0  0  2  0  0  0
  -20.2810   15.7560  -20.4610 C   0  0  0  0  0  0
  -20.0270   16.7070  -21.2040 O   0  0  0  0  0  0
  -19.7490   13.4740  -21.4970 C   0  0  0  0  0  0
  -20.3560   12.3060  -22.2500 C   0  0  0  0  0  0
  -18.6840   14.1620  -22.3390 C   0  0  0  0  0  0
  -20.1140   15.8000  -19.1450 N   0  0  0  0  0  0
  -19.6640   17.0130  -18.4840 C   0  0  0  0  0  0
  -18.1870   17.3080  -18.6760 C   0  0  0  0  0  0
  -17.3880   16.4080  -18.9610 O   0  0  0  0  0  0
  -17.8210   18.5740  -18.5110 N   0  0  0  0  0  0
  -16.4530   18.9890  -18.7420 C   0  0  2  0  0  0
  -15.8910   19.7380  -17.5630 C   0  0  0  0  0  0
  -16.6070   20.1700  -16.6620 O   0  0  0  0  0  0
  -16.3320   19.9160  -19.9640 C   0  0  2  0  0  0
  -17.0150   21.1430  -19.7070 O   0  0  0  0  0  0
  -16.9360   19.2810  -21.1740 C   0  0  0  0  0  0
  -14.5710   19.8300  -17.5860 N   0  0  0  0  0  0
  -13.8080   20.8170  -16.8560 C   0  0  2  0  0  0
  -12.7050   21.2350  -17.8250 C   0  0  0  0  0  0
  -12.4660   20.5560  -18.8180 O   0  0  0  0  0  0
  -13.2200   20.2360  -15.5590 C   0  0  2  0  0  0
  -12.4030   19.0940  -15.8600 O   0  0  0  0  0  0
  -14.3500   19.8070  -14.6140 C   0  0  0  0  0  0
  -12.0630   22.3640  -17.5680 N   0  0  0  0  0  0
  -10.8970   22.7510  -18.3380 C   0  0  2  0  0  0
  -10.0520   23.6880  -17.4950 C   0  0  0  0  0  0
  -10.5930   24.5590  -16.8070 O   0  0  0  0  0  0
  -11.3130   23.4170  -19.6400 C   0  0  0  0  0  0
  -10.2160   23.4640  -20.6780 C   0  0  0  0  0  0
   -9.2430   24.4730  -20.6580 C   0  0  0  0  0  0
  -10.1470   22.5020  -21.6850 C   0  0  0  0  0  0
   -8.2390   24.5220  -21.6180 C   0  0  0  0  0  0
   -9.1560   22.5440  -22.6510 C   0  0  0  0  0  0
   -8.2060   23.5490  -22.6190 C   0  0  0  0  0  0
   -7.2300   23.5740  -23.5850 O   0  0  0  0  0  0
   -8.7200   23.5140  -17.5240 N   0  0  0  0  0  0
   -7.9210   24.3100  -16.5860 C   0  0  2  0  0  0
   -7.8430   25.8040  -16.9420 C   0  0  0  0  0  0
   -8.0240   26.1810  -18.1040 O   0  0  0  0  0  0
   -6.5320   23.6450  -16.6490 C   0  0  0  0  0  0
   -6.7540   22.3100  -17.2990 C   0  0  0  0  0  0
   -7.8840   22.5430  -18.2550 C   0  0  0  0  0  0
   -7.5970   26.6280  -15.9180 N   0  0  0  0  0  0
   -7.3510   28.0680  -16.0770 C   0  0  2  0  0  0
   -5.9910   28.5300  -15.5030 C   0  0  0  0  0  0
   -5.5760   29.6550  -15.7680 O   0  0  0  0  0  0
   -8.5180   28.8920  -15.4820 C   0  0  2  0  0  0
   -8.5900   28.7700  -13.9490 C   0  0  0  0  0  0
   -9.8410   28.4400  -16.0870 C   0  0  0  0  0  0
   -7.8550   29.8570  -13.1860 C   0  0  0  0  0  0
   -5.3070   27.6470  -14.7580 N   0  0  0  0  0  0
   -4.0330   27.9140  -14.0200 C   0  0  2  0  0  0
   -3.8460   29.2810  -13.3290 C   0  0  0  0  0  0
   -2.9100   30.0490  -13.5710 O   0  0  0  0  0  0
   -2.8160   27.5860  -14.8970 C   0  0  0  0  0  0
   -2.5590   26.0910  -15.0070 C   0  0  0  0  0  0
   -3.4770   25.2970  -15.2600 O   0  0  0  0  0  0
   -1.3020   25.6970  -14.8210 N   0  0  0  0  0  0
   -4.6230   29.6520  -12.4580 O   0  0  0  0  0  0
  -22.3772   22.4664  -26.8776 H   0  0  0  0  0  0
  -23.9670   23.1245  -27.3933 H   0  0  0  0  0  0
  -23.2607   21.7106  -28.2469 H   0  0  0  0  0  0
  -24.1451   21.8568  -25.3813 H   0  0  0  0  0  0
  -26.0955   21.7962  -26.8589 H   0  0  0  0  0  0
  -25.3676   20.4853  -27.8479 H   0  0  0  0  0  0
  -26.7693   21.2933  -24.4940 H   0  0  0  0  0  0
  -25.6524   18.2316  -27.2732 H   0  0  0  0  0  0
  -27.8645   19.6029  -23.0643 H   0  0  0  0  0  0
  -26.7443   16.5376  -25.8482 H   0  0  0  0  0  0
  -27.8584   17.2192  -23.7431 H   0  0  0  0  0  0
  -23.5536   20.3277  -24.0388 H   0  0  0  0  0  0
  -22.1398   17.9437  -25.2960 H   0  0  0  0  0  0
  -20.3829   18.1663  -23.3909 H   0  0  0  0  0  0
  -20.3056   19.4181  -24.6769 H   0  0  0  0  0  0
  -20.7330   18.6800  -21.2606 H   0  0  0  0  0  0
  -20.9501   20.4869  -20.6965 H   0  0  0  0  0  0
  -23.2712   16.1232  -24.7070 H   0  0  0  0  0  0
  -24.7382   16.3237  -22.1919 H   0  0  0  0  0  0
  -25.3455   14.8500  -24.2268 H   0  0  0  0  0  0
  -26.3408   13.0199  -22.7019 H   0  0  0  0  0  0
  -25.4840   13.8266  -21.3448 H   0  0  0  0  0  0
  -23.1777   13.7285  -24.4459 H   0  0  0  0  0  0
  -24.5286   12.5611  -24.2481 H   0  0  0  0  0  0
  -23.4386   12.9162  -22.8651 H   0  0  0  0  0  0
  -27.8169   14.4861  -21.4528 H   0  0  0  0  0  0
  -27.5915   15.0759  -23.1345 H   0  0  0  0  0  0
  -26.7347   15.8826  -21.7774 H   0  0  0  0  0  0
  -21.4820   14.9203  -23.1064 H   0  0  0  0  0  0
  -21.4192   13.9015  -20.2726 H   0  0  0  0  0  0
  -19.2427   13.0737  -20.6062 H   0  0  0  0  0  0
  -21.1217   11.8243  -21.6241 H   0  0  0  0  0  0
  -19.5687   11.5770  -22.4923 H   0  0  0  0  0  0
  -20.8179   12.6695  -23.1798 H   0  0  0  0  0  0
  -18.2579   15.0045  -21.7745 H   0  0  0  0  0  0
  -19.1368   14.5356  -23.2693 H   0  0  0  0  0  0
  -17.8876   13.4431  -22.5818 H   0  0  0  0  0  0
  -20.3228   14.8964  -18.5535 H   0  0  0  0  0  0
  -20.2217   17.8746  -18.8797 H   0  0  0  0  0  0
  -19.8404   16.9278  -17.4016 H   0  0  0  0  0  0
  -18.5734   19.3113  -18.1943 H   0  0  0  0  0  0
  -15.9324   18.0306  -18.8849 H   0  0  0  0  0  0
  -15.2799   20.1663  -20.1650 H   0  0  0  0  0  0
  -16.7193   21.7684  -18.8518 H   0  0  0  0  0  0
  -16.4205   18.3328  -21.3864 H   0  0  0  0  0  0
  -16.8292   19.9573  -22.0349 H   0  0  0  0  0  0
  -18.0030   19.0854  -20.9915 H   0  0  0  0  0  0
  -14.0541   19.0890  -18.2135 H   0  0  0  0  0  0
  -14.4746   21.6430  -16.5673 H   0  0  0  0  0  0
  -12.5546   20.9672  -15.0767 H   0  0  0  0  0  0
  -11.5347   19.1994  -16.5271 H   0  0  0  0  0  0
  -14.9809   20.6767  -14.3783 H   0  0  0  0  0  0
  -13.9186   19.4046  -13.6856 H   0  0  0  0  0  0
  -14.9606   19.0321  -15.1006 H   0  0  0  0  0  0
  -12.4262   23.0120  -16.7567 H   0  0  0  0  0  0
  -10.3400   21.8320  -18.5730 H   0  0  0  0  0  0
  -12.1564   22.8654  -20.0808 H   0  0  0  0  0  0
  -11.6181   24.4547  -19.4399 H   0  0  0  0  0  0
   -9.2743   25.2320  -19.8763 H   0  0  0  0  0  0
  -10.8869   21.7021  -21.7122 H   0  0  0  0  0  0
   -7.4867   25.3102  -21.5898 H   0  0  0  0  0  0
   -9.1245   21.7871  -23.4347 H   0  0  0  0  0  0
   -6.4665   24.3658  -23.5751 H   0  0  0  0  0  0
   -8.4067   24.2860  -15.5993 H   0  0  0  0  0  0
   -5.8517   24.2726  -17.2434 H   0  0  0  0  0  0
   -6.1322   23.5338  -15.6303 H   0  0  0  0  0  0
   -5.8355   21.9972  -17.8172 H   0  0  0  0  0  0
   -7.0127   21.5666  -16.5307 H   0  0  0  0  0  0
   -8.4692   21.6336  -18.4562 H   0  0  0  0  0  0
   -7.5553   22.9855  -19.2069 H   0  0  0  0  0  0
   -7.5844   26.1753  -14.9156 H   0  0  0  0  0  0
   -7.3074   28.1946  -17.1688 H   0  0  0  0  0  0
   -8.3456   29.9488  -15.7337 H   0  0  0  0  0  0
   -9.6408   28.8132  -13.6267 H   0  0  0  0  0  0
   -8.1497   27.8117  -13.6363 H   0  0  0  0  0  0
   -9.7917   28.5264  -17.1825 H   0  0  0  0  0  0
  -10.6545   29.0745  -15.7054 H   0  0  0  0  0  0
  -10.0321   27.3927  -15.8100 H   0  0  0  0  0  0
   -7.9641   29.6841  -12.1052 H   0  0  0  0  0  0
   -8.2797   30.8381  -13.4451 H   0  0  0  0  0  0
   -6.7885   29.8365  -13.4548 H   0  0  0  0  0  0
   -5.7670   26.6486  -14.7179 H   0  0  0  0  0  0
   -4.1511   27.2128  -13.1807 H   0  0  0  0  0  0
   -2.8362   31.0102  -13.0413 H   0  0  0  0  0  0
   -2.9802   27.9756  -15.9125 H   0  0  0  0  0  0
   -1.9174   28.0519  -14.4663 H   0  0  0  0  0  0
   -0.5204   26.4384  -14.5985 H   0  0  0  0  0  0
   -1.0442   24.6298  -14.8897 H   0  0  0  0  0  0
  1  2  1  0  0  0
  1 89  1  0  0  0
  1 90  1  0  0  0
  1 91  1  0  0  0
  2  3  1  0  0  0
  2  5  1  0  0  0
  2 92  1  0  0  0
  3  4  2  0  0  0
  3 12  1  0  0  0
  5  6  1  0  0  0
  5 93  1  0  0  0
  5 94  1  0  0  0
  6  7  2  0  0  0
  6  8  1  0  0  0
  7  9  1  0  0  0
  7 95  1  0  0  0
  8 10  2  0  0  0
  8 96  1  0  0  0
  9 11  2  0  0  0
  9 97  1  0  0  0
 10 11  1  0  0  0
 10 98  1  0  0  0
 11 99  1  0  0  0
 12 13  1  0  0  0
 12100  1  0  0  0
 13 14  1  0  0  0
 13 16  1  0  0  0
 13101  1  0  0  0
 14 15  2  0  0  0
 14 20  1  0  0  0
 16 17  1  0  0  0
 16102  1  0  0  0
 16103  1  0  0  0
 17 18  2  0  0  0
 17 19  1  0  0  0
 19104  1  0  0  0
 19105  1  0  0  0
 20 21  1  0  0  0
 20106  1  0  0  0
 21 22  1  0  0  0
 21 24  1  0  0  0
 21107  1  0  0  0
 22 23  2  0  0  0
 22 28  1  0  0  0
 24 25  1  0  0  0
 24 26  1  0  0  0
 24108  1  0  0  0
 25 27  1  0  0  0
 25109  1  0  0  0
 25110  1  0  0  0
 26111  1  0  0  0
 26112  1  0  0  0
 26113  1  0  0  0
 27114  1  0  0  0
 27115  1  0  0  0
 27116  1  0  0  0
 28 29  1  0  0  0
 28117  1  0  0  0
 29 30  1  0  0  0
 29 32  1  0  0  0
 29118  1  0  0  0
 30 31  2  0  0  0
 30 35  1  0  0  0
 32 33  1  0  0  0
 32 34  1  0  0  0
 32119  1  0  0  0
 33120  1  0  0  0
 33121  1  0  0  0
 33122  1  0  0  0
 34123  1  0  0  0
 34124  1  0  0  0
 34125  1  0  0  0
 35 36  1  0  0  0
 35126  1  0  0  0
 36 37  1  0  0  0
 36127  1  0  0  0
 36128  1  0  0  0
 37 38  2  0  0  0
 37 39  1  0  0  0
 39 40  1  0  0  0
 39129  1  0  0  0
 40 41  1  0  0  0
 40 43  1  0  0  0
 40130  1  0  0  0
 41 42  2  0  0  0
 41 46  1  0  0  0
 43 44  1  0  0  0
 43 45  1  0  0  0
 43131  1  0  0  0
 44132  1  0  0  0
 45133  1  0  0  0
 45134  1  0  0  0
 45135  1  0  0  0
 46 47  1  0  0  0
 46136  1  0  0  0
 47 48  1  0  0  0
 47 50  1  0  0  0
 47137  1  0  0  0
 48 49  2  0  0  0
 48 53  1  0  0  0
 50 51  1  0  0  0
 50 52  1  0  0  0
 50138  1  0  0  0
 51139  1  0  0  0
 52140  1  0  0  0
 52141  1  0  0  0
 52142  1  0  0  0
 53 54  1  0  0  0
 53143  1  0  0  0
 54 55  1  0  0  0
 54 57  1  0  0  0
 54144  1  0  0  0
 55 56  2  0  0  0
 55 65  1  0  0  0
 57 58  1  0  0  0
 57145  1  0  0  0
 57146  1  0  0  0
 58 59  2  0  0  0
 58 60  1  0  0  0
 59 61  1  0  0  0
 59147  1  0  0  0
 60 62  2  0  0  0
 60148  1  0  0  0
 61 63  2  0  0  0
 61149  1  0  0  0
 62 63  1  0  0  0
 62150  1  0  0  0
 63 64  1  0  0  0
 64151  1  0  0  0
 65 66  1  0  0  0
 65 71  1  0  0  0
 66 67  1  0  0  0
 66 69  1  0  0  0
 66152  1  0  0  0
 67 68  2  0  0  0
 67 72  1  0  0  0
 69 70  1  0  0  0
 69153  1  0  0  0
 69154  1  0  0  0
 70 71  1  0  0  0
 70155  1  0  0  0
 70156  1  0  0  0
 71157  1  0  0  0
 71158  1  0  0  0
 72 73  1  0  0  0
 72159  1  0  0  0
 73 74  1  0  0  0
 73 76  1  0  0  0
 73160  1  0  0  0
 74 75  2  0  0  0
 74 80  1  0  0  0
 76 77  1  0  0  0
 76 78  1  0  0  0
 76161  1  0  0  0
 77 79  1  0  0  0
 77162  1  0  0  0
 77163  1  0  0  0
 78164  1  0  0  0
 78165  1  0  0  0
 78166  1  0  0  0
 79167  1  0  0  0
 79168  1  0  0  0
 79169  1  0  0  0
 80 81  1  0  0  0
 80170  1  0  0  0
 81 82  1  0  0  0
 81 84  1  0  0  0
 81171  1  0  0  0
 82 83  1  0  0  0
 82 88  2  0  0  0
 83172  1  0  0  0
 84 85  1  0  0  0
 84173  1  0  0  0
 84174  1  0  0  0
 85 86  2  0  0  0
 85 87  1  0  0  0
 87175  1  0  0  0
 87176  1  0  0  0
M  CHG  1   1   1
M  END
> <s_m_source_file>
../4tk1_ligand.sdf

> <i_m_source_file_index>
1

> <s_epik_input>
W2NIXTFbY0hdW2NIXVtjSF1bY0hdYzFbQ0gyXVtDQEhdKFtOSDMrXSlDKD1PKVtOSF1bQ0BASF0oW0NIMl1DKD1PKVtOSDJdKUMoPU8pW05IXVtDQEBIXShbQ0BASF0oW0NIM10pW0NIMl1bQ0gzXSlDKD1PKVtOSF1bQ0BASF0oW0NIXShbQ0gzXSlbQ0gzXSlDKD1PKVtOSF1bQ0gyXUMoPU8pW05IXVtDQEBIXShbQ0BIXShbT0hdKVtDSDNdKUMoPU8pW05IXVtDQEBIXShbQ0BIXShbT0hdKVtDSDNdKUMoPU8pW05IXVtDQEBIXShbQ0gyXWMyW2NIXVtjSF1jKFtPSF0pW2NIXVtjSF0yKUMoPU8pTjNbQ0BASF0oW0NIMl1bQ0gyXVtDSDJdMylDKD1PKVtOSF1bQ0BASF0oW0NAQEhdKFtDSDNdKVtDSDJdW0NIM10pQyg9TylbTkhdW0NASF0oQyg9TylbT0hdKVtDSDJdQyg9TylbTkgyXQ==

> <s_epik_cmdline>
J2VwaWtfYXBwJywgJy1pbWFlJywgJ2xpZ2FuZF9wcm8ubWFlJywgJy1vbWFlJywgJ2xpZ2FuZF9wcmVwLm1hZScsICctbXMnLCAnMScsICctcGgnLCAnNycsICctcGh0JywgJzAuNScsICctbnQn

> <s_epik_pKa_notes>
Molecule size exceeds maximum supported for generating protonation states

$$$$
