4tk2_ligand
                    3D
 Schrodinger Suite 2020-3.
142144  0  0  1  0            999 V2000
  -75.8440  -10.0160  -32.3740 N   0  3  0  0  0  0
  -75.0500  -11.2200  -32.1520 C   0  0  2  0  0  0
  -75.6470  -12.4250  -32.8650 C   0  0  0  0  0  0
  -76.5430  -12.2890  -33.6950 O   0  0  0  0  0  0
  -74.9040  -11.5130  -30.6470 C   0  0  0  0  0  0
  -76.1660  -12.0240  -29.9720 C   0  0  0  0  0  0
  -77.4290  -11.6190  -30.3810 C   0  0  0  0  0  0
  -76.0730  -12.9070  -28.9060 C   0  0  0  0  0  0
  -78.5690  -12.0940  -29.7490 C   0  0  0  0  0  0
  -77.2080  -13.3810  -28.2700 C   0  0  0  0  0  0
  -78.4570  -12.9740  -28.6910 C   0  0  0  0  0  0
  -75.1550  -13.6080  -32.5180 N   0  0  0  0  0  0
  -75.7550  -14.8430  -32.9920 C   0  0  2  0  0  0
  -75.5620  -15.9670  -31.9870 C   0  0  0  0  0  0
  -74.5730  -16.0010  -31.2530 O   0  0  0  0  0  0
  -75.1680  -15.2390  -34.3490 C   0  0  0  0  0  0
  -76.2340  -15.3920  -35.4180 C   0  0  0  0  0  0
  -76.5740  -16.5050  -35.8230 O   0  0  0  0  0  0
  -76.7840  -14.2690  -35.8670 N   0  0  0  0  0  0
  -76.5440  -16.8590  -31.9320 N   0  0  0  0  0  0
  -76.5180  -17.9780  -31.0020 C   0  0  2  0  0  0
  -75.4140  -18.9660  -31.3810 C   0  0  0  0  0  0
  -74.7220  -19.4990  -30.5130 O   0  0  0  0  0  0
  -77.8800  -18.7020  -30.9640 C   0  0  2  0  0  0
  -78.9950  -17.7320  -30.5670 C   0  0  0  0  0  0
  -77.8370  -19.8620  -30.0050 C   0  0  0  0  0  0
  -78.8800  -17.1750  -29.1580 C   0  0  0  0  0  0
  -75.2450  -19.2050  -32.6790 N   0  0  0  0  0  0
  -74.1660  -20.0710  -33.1340 C   0  0  2  0  0  0
  -72.8380  -19.3470  -32.9240 C   0  0  0  0  0  0
  -72.7130  -18.1510  -33.1980 O   0  0  0  0  0  0
  -74.3320  -20.5140  -34.6190 C   0  0  0  0  0  0
  -75.5790  -21.3800  -34.7940 C   0  0  0  0  0  0
  -74.3290  -19.3160  -35.5650 C   0  0  0  0  0  0
  -71.8640  -20.0720  -32.3890 N   0  0  0  0  0  0
  -70.5840  -19.4880  -32.0430 C   0  0  0  0  0  0
  -69.7610  -18.9920  -33.2160 C   0  0  0  0  0  0
  -69.4300  -17.8080  -33.2780 O   0  0  0  0  0  0
  -69.4270  -19.9010  -34.1330 N   0  0  0  0  0  0
  -68.5900  -19.6060  -35.3020 C   0  0  2  0  0  0
  -67.1800  -19.2500  -34.8020 C   0  0  0  0  0  0
  -66.9520  -19.1260  -33.5960 O   0  0  0  0  0  0
  -69.1910  -18.4690  -36.1790 C   0  0  2  0  0  0
  -70.6010  -18.6690  -36.3190 O   0  0  0  0  0  0
  -68.5580  -18.4270  -37.5680 C   0  0  0  0  0  0
  -66.2310  -19.0990  -35.7170 N   0  0  0  0  0  0
  -64.8550  -18.8230  -35.3300 C   0  0  2  0  0  0
  -64.1550  -17.9000  -36.3280 C   0  0  0  0  0  0
  -64.6670  -17.6390  -37.4230 O   0  0  0  0  0  0
  -64.0470  -20.1380  -35.1640 C   0  0  2  0  0  0
  -62.6890  -19.8420  -34.8100 O   0  0  0  0  0  0
  -64.0720  -20.9630  -36.4370 C   0  0  0  0  0  0
  -62.9940  -17.3920  -35.9180 N   0  0  0  0  0  0
  -62.1410  -16.5650  -36.7660 C   0  0  2  0  0  0
  -60.7130  -17.1100  -36.6800 C   0  0  0  0  0  0
  -60.3700  -17.7830  -35.7060 O   0  0  0  0  0  0
  -62.1920  -15.0880  -36.3320 C   0  0  0  0  0  0
  -61.1720  -14.7040  -35.2710 C   0  0  0  0  0  0
  -61.4560  -14.8640  -33.9210 C   0  0  0  0  0  0
  -59.9310  -14.1710  -35.6190 C   0  0  0  0  0  0
  -60.5360  -14.5150  -32.9480 C   0  0  0  0  0  0
  -59.0040  -13.8210  -34.6490 C   0  0  0  0  0  0
  -59.3140  -13.9940  -33.3160 C   0  0  0  0  0  0
  -58.4020  -13.6480  -32.3440 O   0  0  0  0  0  0
  -59.8890  -16.8450  -37.7120 N   0  0  0  0  0  0
  -58.4880  -17.2850  -37.7920 C   0  0  2  0  0  0
  -57.6380  -16.8600  -36.5970 C   0  0  0  0  0  0
  -56.9920  -15.8130  -36.6420 O   0  0  0  0  0  0
  -57.9910  -16.6090  -39.0720 C   0  0  0  0  0  0
  -59.2150  -16.4880  -39.9080 C   0  0  0  0  0  0
  -60.3060  -16.1530  -38.9450 C   0  0  0  0  0  0
  -57.5977  -17.5811  -35.5645 O   0  5  0  0  0  0
  -75.9329   -9.8295  -33.4544 H   0  0  0  0  0  0
  -75.3513   -9.1581  -31.8931 H   0  0  0  0  0  0
  -76.8462  -10.1529  -31.9418 H   0  0  0  0  0  0
  -74.0721  -10.9891  -32.5997 H   0  0  0  0  0  0
  -74.1307  -12.2807  -30.4963 H   0  0  0  0  0  0
  -74.6137  -10.5918  -30.1206 H   0  0  0  0  0  0
  -77.5265  -10.9182  -31.2101 H   0  0  0  0  0  0
  -75.0908  -13.2328  -28.5636 H   0  0  0  0  0  0
  -79.5537  -11.7723  -30.0879 H   0  0  0  0  0  0
  -77.1144  -14.0764  -27.4359 H   0  0  0  0  0  0
  -79.3514  -13.3454  -28.1907 H   0  0  0  0  0  0
  -74.2755  -13.6416  -31.8582 H   0  0  0  0  0  0
  -76.8283  -14.6213  -33.0869 H   0  0  0  0  0  0
  -74.4611  -14.4651  -34.6826 H   0  0  0  0  0  0
  -74.6415  -16.2002  -34.2544 H   0  0  0  0  0  0
  -76.4480  -13.2973  -35.4758 H   0  0  0  0  0  0
  -77.5753  -14.3109  -36.6299 H   0  0  0  0  0  0
  -77.3952  -16.7331  -32.6173 H   0  0  0  0  0  0
  -76.2997  -17.5222  -30.0250 H   0  0  0  0  0  0
  -78.0998  -19.1067  -31.9629 H   0  0  0  0  0  0
  -78.9920  -16.8703  -31.2507 H   0  0  0  0  0  0
  -79.9662  -18.2450  -30.6278 H   0  0  0  0  0  0
  -77.0326  -20.5519  -30.2999 H   0  0  0  0  0  0
  -78.8008  -20.3917  -30.0269 H   0  0  0  0  0  0
  -77.6461  -19.4898  -28.9876 H   0  0  0  0  0  0
  -79.7201  -16.4919  -28.9641 H   0  0  0  0  0  0
  -77.9313  -16.6276  -29.0564 H   0  0  0  0  0  0
  -78.9054  -18.0023  -28.4335 H   0  0  0  0  0  0
  -75.9259  -18.7443  -33.4099 H   0  0  0  0  0  0
  -74.2306  -20.9643  -32.4954 H   0  0  0  0  0  0
  -73.4706  -21.1333  -34.9098 H   0  0  0  0  0  0
  -75.5377  -22.2279  -34.0945 H   0  0  0  0  0  0
  -75.6210  -21.7579  -35.8262 H   0  0  0  0  0  0
  -76.4758  -20.7775  -34.5873 H   0  0  0  0  0  0
  -73.4161  -18.7238  -35.4038 H   0  0  0  0  0  0
  -75.2117  -18.6902  -35.3670 H   0  0  0  0  0  0
  -74.3570  -19.6707  -36.6059 H   0  0  0  0  0  0
  -72.0471  -21.1417  -32.2093 H   0  0  0  0  0  0
  -70.7424  -18.6218  -31.3838 H   0  0  0  0  0  0
  -69.9679  -20.2365  -31.5232 H   0  0  0  0  0  0
  -69.8152  -20.9183  -33.9772 H   0  0  0  0  0  0
  -68.5686  -20.5234  -35.9085 H   0  0  0  0  0  0
  -69.0584  -17.4937  -35.6879 H   0  0  0  0  0  0
  -71.2395  -18.7281  -35.4253 H   0  0  0  0  0  0
  -67.4730  -18.2735  -37.4720 H   0  0  0  0  0  0
  -68.9957  -17.5995  -38.1455 H   0  0  0  0  0  0
  -68.7493  -19.3778  -38.0870 H   0  0  0  0  0  0
  -66.4964  -19.1852  -36.7810 H   0  0  0  0  0  0
  -64.9590  -18.2967  -34.3697 H   0  0  0  0  0  0
  -64.4483  -20.7388  -34.3346 H   0  0  0  0  0  0
  -62.4722  -19.2486  -33.9095 H   0  0  0  0  0  0
  -65.1141  -21.1891  -36.7070 H   0  0  0  0  0  0
  -63.5229  -21.9024  -36.2759 H   0  0  0  0  0  0
  -63.5971  -20.3956  -37.2510 H   0  0  0  0  0  0
  -62.6872  -17.6221  -34.8870 H   0  0  0  0  0  0
  -62.5335  -16.6436  -37.7906 H   0  0  0  0  0  0
  -62.0040  -14.4432  -37.2031 H   0  0  0  0  0  0
  -63.1850  -14.8621  -35.9161 H   0  0  0  0  0  0
  -62.4216  -15.2721  -33.6223 H   0  0  0  0  0  0
  -59.6857  -14.0272  -36.6713 H   0  0  0  0  0  0
  -60.7769  -14.6517  -31.8938 H   0  0  0  0  0  0
  -58.0361  -13.4116  -34.9381 H   0  0  0  0  0  0
  -58.6512  -13.7868  -31.2816 H   0  0  0  0  0  0
  -58.4495  -18.3843  -37.7884 H   0  0  0  0  0  0
  -57.5577  -15.6287  -38.8244 H   0  0  0  0  0  0
  -57.2243  -17.2396  -39.5458 H   0  0  0  0  0  0
  -59.0723  -15.6923  -40.6540 H   0  0  0  0  0  0
  -59.4042  -17.4423  -40.4214 H   0  0  0  0  0  0
  -61.2853  -16.5365  -39.2674 H   0  0  0  0  0  0
  -60.3808  -15.0727  -38.7518 H   0  0  0  0  0  0
  1  2  1  0  0  0
  1 73  1  0  0  0
  1 74  1  0  0  0
  1 75  1  0  0  0
  2  3  1  0  0  0
  2  5  1  0  0  0
  2 76  1  0  0  0
  3  4  2  0  0  0
  3 12  1  0  0  0
  5  6  1  0  0  0
  5 77  1  0  0  0
  5 78  1  0  0  0
  6  7  2  0  0  0
  6  8  1  0  0  0
  7  9  1  0  0  0
  7 79  1  0  0  0
  8 10  2  0  0  0
  8 80  1  0  0  0
  9 11  2  0  0  0
  9 81  1  0  0  0
 10 11  1  0  0  0
 10 82  1  0  0  0
 11 83  1  0  0  0
 12 13  1  0  0  0
 12 84  1  0  0  0
 13 14  1  0  0  0
 13 16  1  0  0  0
 13 85  1  0  0  0
 14 15  2  0  0  0
 14 20  1  0  0  0
 16 17  1  0  0  0
 16 86  1  0  0  0
 16 87  1  0  0  0
 17 18  2  0  0  0
 17 19  1  0  0  0
 19 88  1  0  0  0
 19 89  1  0  0  0
 20 21  1  0  0  0
 20 90  1  0  0  0
 21 22  1  0  0  0
 21 24  1  0  0  0
 21 91  1  0  0  0
 22 23  2  0  0  0
 22 28  1  0  0  0
 24 25  1  0  0  0
 24 26  1  0  0  0
 24 92  1  0  0  0
 25 27  1  0  0  0
 25 93  1  0  0  0
 25 94  1  0  0  0
 26 95  1  0  0  0
 26 96  1  0  0  0
 26 97  1  0  0  0
 27 98  1  0  0  0
 27 99  1  0  0  0
 27100  1  0  0  0
 28 29  1  0  0  0
 28101  1  0  0  0
 29 30  1  0  0  0
 29 32  1  0  0  0
 29102  1  0  0  0
 30 31  2  0  0  0
 30 35  1  0  0  0
 32 33  1  0  0  0
 32 34  1  0  0  0
 32103  1  0  0  0
 33104  1  0  0  0
 33105  1  0  0  0
 33106  1  0  0  0
 34107  1  0  0  0
 34108  1  0  0  0
 34109  1  0  0  0
 35 36  1  0  0  0
 35110  1  0  0  0
 36 37  1  0  0  0
 36111  1  0  0  0
 36112  1  0  0  0
 37 38  2  0  0  0
 37 39  1  0  0  0
 39 40  1  0  0  0
 39113  1  0  0  0
 40 41  1  0  0  0
 40 43  1  0  0  0
 40114  1  0  0  0
 41 42  2  0  0  0
 41 46  1  0  0  0
 43 44  1  0  0  0
 43 45  1  0  0  0
 43115  1  0  0  0
 44116  1  0  0  0
 45117  1  0  0  0
 45118  1  0  0  0
 45119  1  0  0  0
 46 47  1  0  0  0
 46120  1  0  0  0
 47 48  1  0  0  0
 47 50  1  0  0  0
 47121  1  0  0  0
 48 49  2  0  0  0
 48 53  1  0  0  0
 50 51  1  0  0  0
 50 52  1  0  0  0
 50122  1  0  0  0
 51123  1  0  0  0
 52124  1  0  0  0
 52125  1  0  0  0
 52126  1  0  0  0
 53 54  1  0  0  0
 53127  1  0  0  0
 54 55  1  0  0  0
 54 57  1  0  0  0
 54128  1  0  0  0
 55 56  2  0  0  0
 55 65  1  0  0  0
 57 58  1  0  0  0
 57129  1  0  0  0
 57130  1  0  0  0
 58 59  2  0  0  0
 58 60  1  0  0  0
 59 61  1  0  0  0
 59131  1  0  0  0
 60 62  2  0  0  0
 60132  1  0  0  0
 61 63  2  0  0  0
 61133  1  0  0  0
 62 63  1  0  0  0
 62134  1  0  0  0
 63 64  1  0  0  0
 64135  1  0  0  0
 65 66  1  0  0  0
 65 71  1  0  0  0
 66 67  1  0  0  0
 66 69  1  0  0  0
 66136  1  0  0  0
 67 68  2  0  0  0
 67 72  1  0  0  0
 69 70  1  0  0  0
 69137  1  0  0  0
 69138  1  0  0  0
 70 71  1  0  0  0
 70139  1  0  0  0
 70140  1  0  0  0
 71141  1  0  0  0
 71142  1  0  0  0
M  CHG  2   1   1  72  -1
M  END
> <s_m_source_file>
../4tk2_ligand.sdf

> <i_m_source_file_index>
1

> <s_epik_input>
W2NIXTFbY0hdW2NIXVtjSF1bY0hdYzFbQ0gyXVtDQEhdKFtOSDMrXSlDKD1PKVtOSF1bQ0BASF0oW0NIMl1DKD1PKVtOSDJdKUMoPU8pW05IXVtDQEBIXShbQ0BASF0oW0NIM10pW0NIMl1bQ0gzXSlDKD1PKVtOSF1bQ0BASF0oW0NIXShbQ0gzXSlbQ0gzXSlDKD1PKVtOSF1bQ0gyXUMoPU8pW05IXVtDQEBIXShbQ0BIXShbT0hdKVtDSDNdKUMoPU8pW05IXVtDQEBIXShbQ0BIXShbT0hdKVtDSDNdKUMoPU8pW05IXVtDQEhdKEMoPU8pTjJbQ0BIXShDKD1PKVtPSF0pW0NIMl1bQ0gyXVtDSDJdMilbQ0gyXWMzW2NIXVtjSF1jKFtPSF0pW2NIXVtjSF0z

> <s_epik_cmdline>
J2VwaWtfYXBwJywgJy1pbWFlJywgJ2xpZ2FuZF9wcm8ubWFlJywgJy1vbWFlJywgJ2xpZ2FuZF9wcmVwLm1hZScsICctbXMnLCAnMScsICctcGgnLCAnNycsICctcGh0JywgJzAuNScsICctbnQn

> <r_lp_tautomer_probability>
0.999999999997365

> <r_epik_Ionization_Penalty>
  0.2054

> <r_epik_Ionization_Penalty_Charging>
  0.2044

> <r_epik_Ionization_Penalty_Neutral>
  0.0010

> <r_epik_State_Penalty>
  0.1940

> <r_epik_Charging_Adjusted_Penalty>
0.398390284798869

> <i_epik_Tot_Q>
0

> <i_epik_Tot_abs_Q>
2

$$$$
