4tk3_ligand
                    3D
 Schrodinger Suite 2020-3.
144146  0  0  1  0            999 V2000
  251.4240  195.3280  101.1200 N   0  3  0  0  0  0
  252.6020  195.2130  101.9710 C   0  0  2  0  0  0
  253.3660  196.5270  102.0670 C   0  0  0  0  0  0
  253.5690  197.2170  101.0680 O   0  0  0  0  0  0
  253.5340  194.1150  101.4540 C   0  0  0  0  0  0
  254.8870  194.1130  102.1100 C   0  0  0  0  0  0
  255.0680  193.5240  103.3510 C   0  0  0  0  0  0
  255.9770  194.7020  101.4870 C   0  0  0  0  0  0
  256.3100  193.5220  103.9600 C   0  0  0  0  0  0
  257.2210  194.7050  102.0920 C   0  0  0  0  0  0
  257.3880  194.1120  103.3290 C   0  0  0  0  0  0
  253.7960  196.8600  103.2790 N   0  0  0  0  0  0
  254.6250  198.0360  103.5050 C   0  0  2  0  0  0
  255.5530  197.8130  104.6920 C   0  0  0  0  0  0
  255.1430  197.2760  105.7200 O   0  0  0  0  0  0
  253.7580  199.2750  103.7360 C   0  0  0  0  0  0
  254.5610  200.4220  103.9580 O   0  0  0  0  0  0
  256.8060  198.2250  104.5430 N   0  0  0  0  0  0
  257.7830  198.0920  105.6150 C   0  0  2  0  0  0
  257.6200  199.2440  106.6050 C   0  0  0  0  0  0
  258.2570  199.2750  107.6590 O   0  0  0  0  0  0
  259.2240  198.0590  105.0640 C   0  0  2  0  0  0
  260.1610  197.3390  106.0370 C   0  0  0  0  0  0
  259.7080  199.4630  104.7300 C   0  0  0  0  0  0
  259.8640  195.8660  106.1820 C   0  0  0  0  0  0
  256.7550  200.1890  106.2530 N   0  0  0  0  0  0
  256.4090  201.2980  107.1340 C   0  0  2  0  0  0
  255.0720  201.0190  107.8130 C   0  0  0  0  0  0
  254.1250  200.5680  107.1660 O   0  0  0  0  0  0
  256.3350  202.6320  106.3600 C   0  0  0  0  0  0
  255.8820  203.7640  107.2700 C   0  0  0  0  0  0
  257.6810  202.9540  105.7320 C   0  0  0  0  0  0
  255.0030  201.2760  109.1160 N   0  0  0  0  0  0
  253.7920  201.0430  109.8850 C   0  0  0  0  0  0
  252.5730  201.7620  109.3380 C   0  0  0  0  0  0
  252.6150  202.9640  109.0780 O   0  0  0  0  0  0
  251.4860  201.0180  109.1610 N   0  0  0  0  0  0
  250.2490  201.5740  108.6240 C   0  0  2  0  0  0
  249.2990  201.9540  109.7550 C   0  0  0  0  0  0
  249.5260  201.6000  110.9120 O   0  0  0  0  0  0
  249.5480  200.5800  107.6740 C   0  0  2  0  0  0
  250.5240  199.7180  107.0760 O   0  0  0  0  0  0
  248.7900  201.3180  106.5770 C   0  0  0  0  0  0
  248.2380  202.6770  109.4150 N   0  0  0  0  0  0
  247.2760  203.1450  110.4040 C   0  0  2  0  0  0
  245.8400  202.8680  109.9790 C   0  0  0  0  0  0
  245.5650  202.6130  108.8060 O   0  0  0  0  0  0
  247.4560  204.6440  110.6520 C   0  0  0  0  0  0
  247.9830  205.0660  112.0230 C   0  0  0  0  0  0
  248.1170  206.5790  112.0960 C   0  0  0  0  0  0
  247.0780  204.5500  113.1300 C   0  0  0  0  0  0
  244.9300  202.9190  110.9460 N   0  0  0  0  0  0
  243.5030  202.8220  110.6710 C   0  0  2  0  0  0
  242.6940  203.3620  111.8440 C   0  0  0  0  0  0
  242.7050  202.7830  112.9300 O   0  0  0  0  0  0
  243.0970  201.3780  110.3670 C   0  0  0  0  0  0
  242.5700  201.1880  108.9620 C   0  0  0  0  0  0
  242.3790  202.2770  108.1190 C   0  0  0  0  0  0
  242.2590  199.9240  108.4780 C   0  0  0  0  0  0
  241.8990  202.1120  106.8340 C   0  0  0  0  0  0
  241.7770  199.7490  107.1930 C   0  0  0  0  0  0
  241.5990  200.8470  106.3770 C   0  0  0  0  0  0
  241.1190  200.6800  105.0980 O   0  0  0  0  0  0
  241.9940  204.4840  111.6210 N   0  0  0  0  0  0
  241.1290  205.1330  112.6140 C   0  0  2  0  0  0
  240.0700  204.1910  113.1790 C   0  0  0  0  0  0
  239.0300  204.6710  113.6290 O   0  0  0  0  0  0
  240.4720  206.2710  111.8200 C   0  0  0  0  0  0
  240.6890  205.9260  110.3740 C   0  0  0  0  0  0
  241.9950  205.2100  110.3410 C   0  0  0  0  0  0
  240.2568  202.9449  113.1847 O   0  5  0  0  0  0
  250.7677  196.1211  101.5076 H   0  0  0  0  0  0
  250.8803  194.3718  101.1153 H   0  0  0  0  0  0
  251.7352  195.5779  100.0949 H   0  0  0  0  0  0
  252.1987  194.9553  102.9614 H   0  0  0  0  0  0
  253.0789  193.1308  101.6387 H   0  0  0  0  0  0
  253.6938  194.2482  100.3738 H   0  0  0  0  0  0
  254.2213  193.0565  103.8536 H   0  0  0  0  0  0
  255.8521  195.1679  100.5095 H   0  0  0  0  0  0
  256.4380  193.0554  104.9367 H   0  0  0  0  0  0
  258.0689  195.1747  101.5934 H   0  0  0  0  0  0
  258.3682  194.1098  103.8058 H   0  0  0  0  0  0
  253.5088  196.2187  104.1253 H   0  0  0  0  0  0
  255.2170  198.1593  102.5861 H   0  0  0  0  0  0
  253.1275  199.4513  102.8521 H   0  0  0  0  0  0
  253.1185  199.1160  104.6167 H   0  0  0  0  0  0
  254.0875  201.3979  104.1410 H   0  0  0  0  0  0
  257.1002  198.6752  103.5834 H   0  0  0  0  0  0
  257.5522  197.1322  106.1003 H   0  0  0  0  0  0
  259.2398  197.4914  104.1219 H   0  0  0  0  0  0
  261.1985  197.4320  105.6835 H   0  0  0  0  0  0
  260.0717  197.7923  107.0353 H   0  0  0  0  0  0
  259.0037  199.9369  104.0304 H   0  0  0  0  0  0
  260.7038  199.4069  104.2661 H   0  0  0  0  0  0
  259.7662  200.0598  105.6522 H   0  0  0  0  0  0
  260.5733  195.4172  106.8929 H   0  0  0  0  0  0
  259.9645  195.3736  105.2035 H   0  0  0  0  0  0
  258.8377  195.7339  106.5552 H   0  0  0  0  0  0
  256.2945  200.1136  105.2569 H   0  0  0  0  0  0
  257.2194  201.3391  107.8767 H   0  0  0  0  0  0
  255.5947  202.5401  105.5516 H   0  0  0  0  0  0
  254.9076  203.5106  107.7132 H   0  0  0  0  0  0
  255.7886  204.6903  106.6842 H   0  0  0  0  0  0
  256.6223  203.9095  108.0705 H   0  0  0  0  0  0
  257.9890  202.1239  105.0792 H   0  0  0  0  0  0
  258.4309  203.0951  106.5243 H   0  0  0  0  0  0
  257.5973  203.8760  105.1379 H   0  0  0  0  0  0
  255.9000  201.6770  109.6106 H   0  0  0  0  0  0
  253.5622  199.9673  109.8901 H   0  0  0  0  0  0
  253.9408  201.3910  110.9178 H   0  0  0  0  0  0
  251.5381  199.9534  109.4327 H   0  0  0  0  0  0
  250.5666  202.4716  108.0732 H   0  0  0  0  0  0
  248.8596  199.9283  108.2321 H   0  0  0  0  0  0
  251.1739  199.0986  107.7116 H   0  0  0  0  0  0
  248.0395  201.9810  107.0322 H   0  0  0  0  0  0
  248.2875  200.5889  105.9244 H   0  0  0  0  0  0
  249.4959  201.9167  105.9827 H   0  0  0  0  0  0
  248.0964  202.9207  108.3517 H   0  0  0  0  0  0
  247.5039  202.5606  111.3077 H   0  0  0  0  0  0
  248.1716  205.0528  109.9234 H   0  0  0  0  0  0
  246.4874  205.1531  110.5399 H   0  0  0  0  0  0
  248.9798  204.6244  112.1697 H   0  0  0  0  0  0
  248.7751  206.9283  111.2867 H   0  0  0  0  0  0
  248.5482  206.8624  113.0674 H   0  0  0  0  0  0
  247.1246  207.0407  111.9866 H   0  0  0  0  0  0
  246.9966  203.4555  113.0567 H   0  0  0  0  0  0
  246.0794  204.9997  113.0267 H   0  0  0  0  0  0
  247.5031  204.8215  114.1075 H   0  0  0  0  0  0
  245.2839  203.0385  111.9806 H   0  0  0  0  0  0
  243.3383  203.4489  109.7823 H   0  0  0  0  0  0
  243.9698  200.7191  110.4854 H   0  0  0  0  0  0
  242.3046  201.0656  111.0631 H   0  0  0  0  0  0
  242.6122  203.2792  108.4785 H   0  0  0  0  0  0
  242.3970  199.0550  109.1214 H   0  0  0  0  0  0
  241.7585  202.9770  106.1858 H   0  0  0  0  0  0
  241.5394  198.7499  106.8277 H   0  0  0  0  0  0
  240.9763  201.5541  104.4456 H   0  0  0  0  0  0
  241.7304  205.4531  113.4776 H   0  0  0  0  0  0
  239.4009  206.3189  112.0660 H   0  0  0  0  0  0
  240.9515  207.2256  112.0824 H   0  0  0  0  0  0
  239.8661  205.2865  110.0222 H   0  0  0  0  0  0
  240.7168  206.8494  109.7769 H   0  0  0  0  0  0
  242.8558  205.8941  110.3082 H   0  0  0  0  0  0
  242.0663  204.4909  109.5116 H   0  0  0  0  0  0
  1  2  1  0  0  0
  1 72  1  0  0  0
  1 73  1  0  0  0
  1 74  1  0  0  0
  2  3  1  0  0  0
  2  5  1  0  0  0
  2 75  1  0  0  0
  3  4  2  0  0  0
  3 12  1  0  0  0
  5  6  1  0  0  0
  5 76  1  0  0  0
  5 77  1  0  0  0
  6  7  2  0  0  0
  6  8  1  0  0  0
  7  9  1  0  0  0
  7 78  1  0  0  0
  8 10  2  0  0  0
  8 79  1  0  0  0
  9 11  2  0  0  0
  9 80  1  0  0  0
 10 11  1  0  0  0
 10 81  1  0  0  0
 11 82  1  0  0  0
 12 13  1  0  0  0
 12 83  1  0  0  0
 13 14  1  0  0  0
 13 16  1  0  0  0
 13 84  1  0  0  0
 14 15  2  0  0  0
 14 18  1  0  0  0
 16 17  1  0  0  0
 16 85  1  0  0  0
 16 86  1  0  0  0
 17 87  1  0  0  0
 18 19  1  0  0  0
 18 88  1  0  0  0
 19 20  1  0  0  0
 19 22  1  0  0  0
 19 89  1  0  0  0
 20 21  2  0  0  0
 20 26  1  0  0  0
 22 23  1  0  0  0
 22 24  1  0  0  0
 22 90  1  0  0  0
 23 25  1  0  0  0
 23 91  1  0  0  0
 23 92  1  0  0  0
 24 93  1  0  0  0
 24 94  1  0  0  0
 24 95  1  0  0  0
 25 96  1  0  0  0
 25 97  1  0  0  0
 25 98  1  0  0  0
 26 27  1  0  0  0
 26 99  1  0  0  0
 27 28  1  0  0  0
 27 30  1  0  0  0
 27100  1  0  0  0
 28 29  2  0  0  0
 28 33  1  0  0  0
 30 31  1  0  0  0
 30 32  1  0  0  0
 30101  1  0  0  0
 31102  1  0  0  0
 31103  1  0  0  0
 31104  1  0  0  0
 32105  1  0  0  0
 32106  1  0  0  0
 32107  1  0  0  0
 33 34  1  0  0  0
 33108  1  0  0  0
 34 35  1  0  0  0
 34109  1  0  0  0
 34110  1  0  0  0
 35 36  2  0  0  0
 35 37  1  0  0  0
 37 38  1  0  0  0
 37111  1  0  0  0
 38 39  1  0  0  0
 38 41  1  0  0  0
 38112  1  0  0  0
 39 40  2  0  0  0
 39 44  1  0  0  0
 41 42  1  0  0  0
 41 43  1  0  0  0
 41113  1  0  0  0
 42114  1  0  0  0
 43115  1  0  0  0
 43116  1  0  0  0
 43117  1  0  0  0
 44 45  1  0  0  0
 44118  1  0  0  0
 45 46  1  0  0  0
 45 48  1  0  0  0
 45119  1  0  0  0
 46 47  2  0  0  0
 46 52  1  0  0  0
 48 49  1  0  0  0
 48120  1  0  0  0
 48121  1  0  0  0
 49 50  1  0  0  0
 49 51  1  0  0  0
 49122  1  0  0  0
 50123  1  0  0  0
 50124  1  0  0  0
 50125  1  0  0  0
 51126  1  0  0  0
 51127  1  0  0  0
 51128  1  0  0  0
 52 53  1  0  0  0
 52129  1  0  0  0
 53 54  1  0  0  0
 53 56  1  0  0  0
 53130  1  0  0  0
 54 55  2  0  0  0
 54 64  1  0  0  0
 56 57  1  0  0  0
 56131  1  0  0  0
 56132  1  0  0  0
 57 58  2  0  0  0
 57 59  1  0  0  0
 58 60  1  0  0  0
 58133  1  0  0  0
 59 61  2  0  0  0
 59134  1  0  0  0
 60 62  2  0  0  0
 60135  1  0  0  0
 61 62  1  0  0  0
 61136  1  0  0  0
 62 63  1  0  0  0
 63137  1  0  0  0
 64 65  1  0  0  0
 64 70  1  0  0  0
 65 66  1  0  0  0
 65 68  1  0  0  0
 65138  1  0  0  0
 66 67  2  0  0  0
 66 71  1  0  0  0
 68 69  1  0  0  0
 68139  1  0  0  0
 68140  1  0  0  0
 69 70  1  0  0  0
 69141  1  0  0  0
 69142  1  0  0  0
 70143  1  0  0  0
 70144  1  0  0  0
M  CHG  2   1   1  71  -1
M  END
> <s_m_source_file>
../4tk3_ligand.sdf

> <i_m_source_file_index>
1

> <s_epik_input>
W2NIXTFbY0hdW2NIXVtjSF1bY0hdYzFbQ0gyXVtDQEhdKFtOSDMrXSlDKD1PKVtOSF1bQ0BASF0oW0NIMl1bT0hdKUMoPU8pW05IXVtDQEBIXShbQ0BASF0oW0NIM10pW0NIMl1bQ0gzXSlDKD1PKVtOSF1bQ0BASF0oW0NIXShbQ0gzXSlbQ0gzXSlDKD1PKVtOSF1bQ0gyXUMoPU8pW05IXVtDQEBIXShbQ0BIXShbT0hdKVtDSDNdKUMoPU8pW05IXVtDQEBIXShbQ0gyXVtDSF0oW0NIM10pW0NIM10pQyg9TylbTkhdW0NASF0oQyg9TylOMltDQEhdKEMoPU8pW09IXSlbQ0gyXVtDSDJdW0NIMl0yKVtDSDJdYzNbY0hdW2NIXWMoW09IXSlbY0hdW2NIXTM=

> <s_epik_cmdline>
J2VwaWtfYXBwJywgJy1pbWFlJywgJ2xpZ2FuZF9wcm8ubWFlJywgJy1vbWFlJywgJ2xpZ2FuZF9wcmVwLm1hZScsICctbXMnLCAnMScsICctcGgnLCAnNycsICctcGh0JywgJzAuNScsICctbnQn

> <r_lp_tautomer_probability>
0.999999999997365

> <r_epik_Ionization_Penalty>
  0.2111

> <r_epik_Ionization_Penalty_Charging>
  0.2101

> <r_epik_Ionization_Penalty_Neutral>
  0.0010

> <r_epik_State_Penalty>
  0.1998

> <r_epik_Charging_Adjusted_Penalty>
0.409949083814248

> <i_epik_Tot_Q>
0

> <i_epik_Tot_abs_Q>
2

$$$$
