4tk4_ligand
                    3D
 Schrodinger Suite 2020-3.
144146  0  0  1  0            999 V2000
  -73.6920   -9.5800  -32.9660 N   0  3  0  0  0  0
  -73.7270  -10.4170  -31.7720 C   0  0  2  0  0  0
  -74.4980  -11.7120  -32.0150 C   0  0  0  0  0  0
  -75.7000  -11.6930  -32.2810 O   0  0  0  0  0  0
  -74.3440   -9.6490  -30.6010 C   0  0  0  0  0  0
  -74.7470  -10.5210  -29.4480 C   0  0  0  0  0  0
  -73.7910  -11.0930  -28.6260 C   0  0  0  0  0  0
  -76.0830  -10.7670  -29.1850 C   0  0  0  0  0  0
  -74.1630  -11.8970  -27.5640 C   0  0  0  0  0  0
  -76.4600  -11.5680  -28.1260 C   0  0  0  0  0  0
  -75.4990  -12.1330  -27.3150 C   0  0  0  0  0  0
  -73.7920  -12.8340  -31.9240 N   0  0  0  0  0  0
  -74.3950  -14.1480  -32.1060 C   0  0  2  0  0  0
  -73.8790  -15.1300  -31.0640 C   0  0  0  0  0  0
  -72.6900  -15.1430  -30.7490 O   0  0  0  0  0  0
  -74.1140  -14.6770  -33.5110 C   0  0  0  0  0  0
  -74.6930  -15.9560  -33.6930 O   0  0  0  0  0  0
  -74.7720  -15.9590  -30.5360 N   0  0  0  0  0  0
  -74.3720  -16.9630  -29.5600 C   0  0  2  0  0  0
  -73.9140  -18.2460  -30.2500 C   0  0  0  0  0  0
  -74.4250  -19.3340  -29.9870 O   0  0  0  0  0  0
  -75.5150  -17.2820  -28.5760 C   0  0  2  0  0  0
  -76.8600  -17.3280  -29.3100 C   0  0  0  0  0  0
  -75.5390  -16.2590  -27.4260 C   0  0  0  0  0  0
  -77.9700  -17.8570  -28.4650 C   0  0  0  0  0  0
  -72.9340  -18.1010  -31.1330 N   0  0  0  0  0  0
  -72.3170  -19.2300  -31.8130 C   0  0  2  0  0  0
  -70.8160  -19.0090  -31.8390 C   0  0  0  0  0  0
  -70.3590  -17.8920  -32.0730 O   0  0  0  0  0  0
  -72.8550  -19.3980  -33.2470 C   0  0  0  0  0  0
  -72.1140  -20.5040  -33.9830 C   0  0  0  0  0  0
  -74.3490  -19.6730  -33.2260 C   0  0  0  0  0  0
  -70.0550  -20.0640  -31.5770 N   0  0  0  0  0  0
  -68.6160  -19.9440  -31.4540 C   0  0  0  0  0  0
  -67.9730  -19.3620  -32.6960 C   0  0  0  0  0  0
  -68.3590  -19.6770  -33.8230 O   0  0  0  0  0  0
  -66.9790  -18.5100  -32.4850 N   0  0  0  0  0  0
  -66.2770  -17.8720  -33.5890 C   0  0  2  0  0  0
  -64.8610  -18.4080  -33.7370 C   0  0  0  0  0  0
  -64.0840  -18.4260  -32.7820 O   0  0  0  0  0  0
  -66.2410  -16.3450  -33.4210 C   0  0  2  0  0  0
  -65.5830  -16.0090  -32.1940 O   0  0  0  0  0  0
  -67.6550  -15.7960  -33.4010 C   0  0  0  0  0  0
  -64.5400  -18.8390  -34.9510 N   0  0  0  0  0  0
  -63.2900  -19.5260  -35.2330 C   0  0  2  0  0  0
  -62.1270  -18.5430  -35.3010 C   0  0  0  0  0  0
  -62.3030  -17.3790  -35.6610 O   0  0  0  0  0  0
  -63.3940  -20.3030  -36.5510 C   0  0  0  0  0  0
  -64.5320  -21.3160  -36.7250 C   0  0  0  0  0  0
  -65.8010  -20.6570  -37.2670 C   0  0  0  0  0  0
  -64.0970  -22.4620  -37.6260 C   0  0  0  0  0  0
  -60.9370  -19.0220  -34.9560 N   0  0  0  0  0  0
  -59.7280  -18.2120  -35.0380 C   0  0  2  0  0  0
  -58.6650  -18.9340  -35.8570 C   0  0  0  0  0  0
  -58.4450  -20.1310  -35.6760 O   0  0  0  0  0  0
  -59.1870  -17.9050  -33.6380 C   0  0  0  0  0  0
  -59.2060  -16.4410  -33.2550 C   0  0  0  0  0  0
  -59.9710  -15.5230  -33.9630 C   0  0  0  0  0  0
  -58.4460  -15.9750  -32.1880 C   0  0  0  0  0  0
  -59.9850  -14.1840  -33.6120 C   0  0  0  0  0  0
  -58.4530  -14.6410  -31.8310 C   0  0  0  0  0  0
  -59.2240  -13.7500  -32.5460 C   0  0  0  0  0  0
  -59.2330  -12.4200  -32.1940 O   0  0  0  0  0  0
  -58.0020  -18.2030  -36.7650 N   0  0  0  0  0  0
  -56.9590  -18.7720  -37.6260 C   0  0  2  0  0  0
  -55.7120  -19.1740  -36.8430 C   0  0  0  0  0  0
  -55.5620  -20.3510  -36.5140 O   0  0  0  0  0  0
  -56.6510  -17.6320  -38.6020 C   0  0  0  0  0  0
  -57.0380  -16.3940  -37.8640 C   0  0  0  0  0  0
  -58.2360  -16.7770  -37.0510 C   0  0  0  0  0  0
  -54.8461  -18.3114  -36.5368 O   0  5  0  0  0  0
  -73.2464  -10.1458  -33.7975 H   0  0  0  0  0  0
  -73.0873   -8.6829  -32.7673 H   0  0  0  0  0  0
  -74.7159   -9.2801  -33.2337 H   0  0  0  0  0  0
  -72.6739  -10.6583  -31.5650 H   0  0  0  0  0  0
  -73.6167   -8.9180  -30.2181 H   0  0  0  0  0  0
  -75.2474   -9.1228  -30.9429 H   0  0  0  0  0  0
  -72.7341  -10.9077  -28.8179 H   0  0  0  0  0  0
  -76.8475  -10.3226  -29.8223 H   0  0  0  0  0  0
  -73.4015  -12.3436  -26.9246 H   0  0  0  0  0  0
  -77.5163  -11.7536  -27.9312 H   0  0  0  0  0  0
  -75.7946  -12.7655  -26.4779 H   0  0  0  0  0  0
  -72.7178  -12.7476  -31.7032 H   0  0  0  0  0  0
  -75.4754  -13.9960  -31.9663 H   0  0  0  0  0  0
  -74.5392  -13.9868  -34.2545 H   0  0  0  0  0  0
  -73.0273  -14.7554  -33.6628 H   0  0  0  0  0  0
  -74.5820  -16.4782  -34.6548 H   0  0  0  0  0  0
  -75.8250  -15.8805  -30.8444 H   0  0  0  0  0  0
  -73.5281  -16.4979  -29.0295 H   0  0  0  0  0  0
  -75.3415  -18.2769  -28.1400 H   0  0  0  0  0  0
  -77.1387  -16.3127  -29.6287 H   0  0  0  0  0  0
  -76.7740  -17.9788  -30.1927 H   0  0  0  0  0  0
  -74.5614  -16.2513  -26.9217 H   0  0  0  0  0  0
  -76.3216  -16.5367  -26.7046 H   0  0  0  0  0  0
  -75.7511  -15.2581  -27.8300 H   0  0  0  0  0  0
  -78.9030  -17.8640  -29.0476 H   0  0  0  0  0  0
  -78.0950  -17.2155  -27.5802 H   0  0  0  0  0  0
  -77.7303  -18.8815  -28.1442 H   0  0  0  0  0  0
  -72.5905  -17.0775  -31.3436 H   0  0  0  0  0  0
  -72.5781  -20.1219  -31.2245 H   0  0  0  0  0  0
  -72.6892  -18.4626  -33.8015 H   0  0  0  0  0  0
  -71.0362  -20.2843  -33.9857 H   0  0  0  0  0  0
  -72.4788  -20.5632  -35.0191 H   0  0  0  0  0  0
  -72.2913  -21.4642  -33.4764 H   0  0  0  0  0  0
  -74.8636  -18.8620  -32.6898 H   0  0  0  0  0  0
  -74.5388  -20.6285  -32.7152 H   0  0  0  0  0  0
  -74.7263  -19.7276  -34.2578 H   0  0  0  0  0  0
  -70.5378  -21.0446  -31.4527 H   0  0  0  0  0  0
  -68.3741  -19.2847  -30.6074 H   0  0  0  0  0  0
  -68.1786  -20.9384  -31.2810 H   0  0  0  0  0  0
  -66.6883  -18.2891  -31.4474 H   0  0  0  0  0  0
  -66.8677  -18.1500  -34.4743 H   0  0  0  0  0  0
  -65.6541  -15.8693  -34.2205 H   0  0  0  0  0  0
  -64.5430  -16.3241  -32.0234 H   0  0  0  0  0  0
  -68.1616  -16.0534  -34.3429 H   0  0  0  0  0  0
  -67.6221  -14.7022  -33.2893 H   0  0  0  0  0  0
  -68.2066  -16.2344  -32.5563 H   0  0  0  0  0  0
  -65.2630  -18.6584  -35.7601 H   0  0  0  0  0  0
  -63.1434  -20.2116  -34.3854 H   0  0  0  0  0  0
  -63.5221  -19.5963  -37.3841 H   0  0  0  0  0  0
  -62.4756  -20.8886  -36.7049 H   0  0  0  0  0  0
  -64.7697  -21.7273  -35.7328 H   0  0  0  0  0  0
  -66.0984  -19.8324  -36.6025 H   0  0  0  0  0  0
  -66.6098  -21.4012  -37.3126 H   0  0  0  0  0  0
  -65.6076  -20.2634  -38.2758 H   0  0  0  0  0  0
  -63.1842  -22.9219  -37.2194 H   0  0  0  0  0  0
  -63.8950  -22.0775  -38.6366 H   0  0  0  0  0  0
  -64.8973  -23.2152  -37.6734 H   0  0  0  0  0  0
  -60.8796  -20.0613  -34.6004 H   0  0  0  0  0  0
  -60.0281  -17.2813  -35.5417 H   0  0  0  0  0  0
  -59.7904  -18.4361  -32.8871 H   0  0  0  0  0  0
  -58.1404  -18.2364  -33.5685 H   0  0  0  0  0  0
  -60.5697  -15.8623  -34.8083 H   0  0  0  0  0  0
  -57.8327  -16.6763  -31.6223 H   0  0  0  0  0  0
  -60.5939  -13.4764  -34.1747 H   0  0  0  0  0  0
  -57.8528  -14.2951  -30.9894 H   0  0  0  0  0  0
  -59.8467  -11.7050  -32.7616 H   0  0  0  0  0  0
  -57.3213  -19.6968  -38.0987 H   0  0  0  0  0  0
  -55.5799  -17.6428  -38.8521 H   0  0  0  0  0  0
  -57.2430  -17.7648  -39.5195 H   0  0  0  0  0  0
  -56.2027  -16.0720  -37.2247 H   0  0  0  0  0  0
  -57.2769  -15.5974  -38.5840 H   0  0  0  0  0  0
  -59.1779  -16.6645  -37.6080 H   0  0  0  0  0  0
  -58.3005  -16.2191  -36.1052 H   0  0  0  0  0  0
  1  2  1  0  0  0
  1 72  1  0  0  0
  1 73  1  0  0  0
  1 74  1  0  0  0
  2  3  1  0  0  0
  2  5  1  0  0  0
  2 75  1  0  0  0
  3  4  2  0  0  0
  3 12  1  0  0  0
  5  6  1  0  0  0
  5 76  1  0  0  0
  5 77  1  0  0  0
  6  7  2  0  0  0
  6  8  1  0  0  0
  7  9  1  0  0  0
  7 78  1  0  0  0
  8 10  2  0  0  0
  8 79  1  0  0  0
  9 11  2  0  0  0
  9 80  1  0  0  0
 10 11  1  0  0  0
 10 81  1  0  0  0
 11 82  1  0  0  0
 12 13  1  0  0  0
 12 83  1  0  0  0
 13 14  1  0  0  0
 13 16  1  0  0  0
 13 84  1  0  0  0
 14 15  2  0  0  0
 14 18  1  0  0  0
 16 17  1  0  0  0
 16 85  1  0  0  0
 16 86  1  0  0  0
 17 87  1  0  0  0
 18 19  1  0  0  0
 18 88  1  0  0  0
 19 20  1  0  0  0
 19 22  1  0  0  0
 19 89  1  0  0  0
 20 21  2  0  0  0
 20 26  1  0  0  0
 22 23  1  0  0  0
 22 24  1  0  0  0
 22 90  1  0  0  0
 23 25  1  0  0  0
 23 91  1  0  0  0
 23 92  1  0  0  0
 24 93  1  0  0  0
 24 94  1  0  0  0
 24 95  1  0  0  0
 25 96  1  0  0  0
 25 97  1  0  0  0
 25 98  1  0  0  0
 26 27  1  0  0  0
 26 99  1  0  0  0
 27 28  1  0  0  0
 27 30  1  0  0  0
 27100  1  0  0  0
 28 29  2  0  0  0
 28 33  1  0  0  0
 30 31  1  0  0  0
 30 32  1  0  0  0
 30101  1  0  0  0
 31102  1  0  0  0
 31103  1  0  0  0
 31104  1  0  0  0
 32105  1  0  0  0
 32106  1  0  0  0
 32107  1  0  0  0
 33 34  1  0  0  0
 33108  1  0  0  0
 34 35  1  0  0  0
 34109  1  0  0  0
 34110  1  0  0  0
 35 36  2  0  0  0
 35 37  1  0  0  0
 37 38  1  0  0  0
 37111  1  0  0  0
 38 39  1  0  0  0
 38 41  1  0  0  0
 38112  1  0  0  0
 39 40  2  0  0  0
 39 44  1  0  0  0
 41 42  1  0  0  0
 41 43  1  0  0  0
 41113  1  0  0  0
 42114  1  0  0  0
 43115  1  0  0  0
 43116  1  0  0  0
 43117  1  0  0  0
 44 45  1  0  0  0
 44118  1  0  0  0
 45 46  1  0  0  0
 45 48  1  0  0  0
 45119  1  0  0  0
 46 47  2  0  0  0
 46 52  1  0  0  0
 48 49  1  0  0  0
 48120  1  0  0  0
 48121  1  0  0  0
 49 50  1  0  0  0
 49 51  1  0  0  0
 49122  1  0  0  0
 50123  1  0  0  0
 50124  1  0  0  0
 50125  1  0  0  0
 51126  1  0  0  0
 51127  1  0  0  0
 51128  1  0  0  0
 52 53  1  0  0  0
 52129  1  0  0  0
 53 54  1  0  0  0
 53 56  1  0  0  0
 53130  1  0  0  0
 54 55  2  0  0  0
 54 64  1  0  0  0
 56 57  1  0  0  0
 56131  1  0  0  0
 56132  1  0  0  0
 57 58  2  0  0  0
 57 59  1  0  0  0
 58 60  1  0  0  0
 58133  1  0  0  0
 59 61  2  0  0  0
 59134  1  0  0  0
 60 62  2  0  0  0
 60135  1  0  0  0
 61 62  1  0  0  0
 61136  1  0  0  0
 62 63  1  0  0  0
 63137  1  0  0  0
 64 65  1  0  0  0
 64 70  1  0  0  0
 65 66  1  0  0  0
 65 68  1  0  0  0
 65138  1  0  0  0
 66 67  2  0  0  0
 66 71  1  0  0  0
 68 69  1  0  0  0
 68139  1  0  0  0
 68140  1  0  0  0
 69 70  1  0  0  0
 69141  1  0  0  0
 69142  1  0  0  0
 70143  1  0  0  0
 70144  1  0  0  0
M  CHG  2   1   1  71  -1
M  END
> <s_m_source_file>
../4tk4_ligand.sdf

> <i_m_source_file_index>
1

> <s_epik_input>
W2NIXTFbY0hdW2NIXVtjSF1bY0hdYzFbQ0gyXVtDQEhdKFtOSDMrXSlDKD1PKVtOSF1bQ0BASF0oW0NIMl1bT0hdKUMoPU8pW05IXVtDQEBIXShbQ0BASF0oW0NIM10pW0NIMl1bQ0gzXSlDKD1PKVtOSF1bQ0BASF0oW0NIXShbQ0gzXSlbQ0gzXSlDKD1PKVtOSF1bQ0gyXUMoPU8pW05IXVtDQEBIXShbQ0BIXShbT0hdKVtDSDNdKUMoPU8pW05IXVtDQEBIXShbQ0gyXVtDSF0oW0NIM10pW0NIM10pQyg9TylbTkhdW0NASF0oQyg9TylOMltDQEhdKEMoPU8pW09IXSlbQ0gyXVtDSDJdW0NIMl0yKVtDSDJdYzNbY0hdW2NIXWMoW09IXSlbY0hdW2NIXTM=

> <s_epik_cmdline>
J2VwaWtfYXBwJywgJy1pbWFlJywgJ2xpZ2FuZF9wcm8ubWFlJywgJy1vbWFlJywgJ2xpZ2FuZF9wcmVwLm1hZScsICctbXMnLCAnMScsICctcGgnLCAnNycsICctcGh0JywgJzAuNScsICctbnQn

> <r_lp_tautomer_probability>
0.999999999997365

> <r_epik_Ionization_Penalty>
  0.2111

> <r_epik_Ionization_Penalty_Charging>
  0.2101

> <r_epik_Ionization_Penalty_Neutral>
  0.0010

> <r_epik_State_Penalty>
  0.1998

> <r_epik_Charging_Adjusted_Penalty>
0.409949083814248

> <i_epik_Tot_Q>
0

> <i_epik_Tot_abs_Q>
2

$$$$
