4tk5_ligand
                    3D
 Schrodinger Suite 2020-3.
 67 72  0  0  1  0            999 V2000
   24.1030   49.8970   -0.8020 C   0  0  0  0  0  0
   25.2000   50.2550    0.0040 C   0  0  0  0  0  0
   26.0780   49.2980    0.5130 C   0  0  0  0  0  0
   25.8640   47.9070    0.3200 C   0  0  0  0  0  0
   24.7580   47.5480   -0.5100 C   0  0  0  0  0  0
   23.9550   48.5600   -1.0580 C   0  0  0  0  0  0
   22.9250   47.9860   -1.9460 C   0  0  0  0  0  0
   24.1640   46.2270   -1.0120 C   0  0  0  0  0  0
   23.0890   46.6030   -1.8800 N   0  0  0  0  0  0
   22.0750   48.5510   -2.6050 O   0  0  0  0  0  0
   26.7510   46.9890    0.9190 N   0  0  0  0  0  0
   26.4420   45.7540    1.5170 C   0  0  0  0  0  0
   25.2580   45.3550    1.6020 O   0  0  0  0  0  0
   27.5140   44.8360    2.0840 C   0  0  0  0  0  0
   27.2060   43.4700    2.5440 N   0  3  0  0  0  0
   26.8060   42.5470    1.3630 C   0  0  0  0  0  0
   26.3860   41.0950    1.8250 C   0  0  0  0  0  0
   25.4240   41.1680    2.8910 N   0  0  0  0  0  0
   25.9090   41.8590    4.0410 C   0  0  0  0  0  0
   26.2810   43.3160    3.7410 C   0  0  0  0  0  0
   24.0820   40.7530    2.7480 C   0  0  0  0  0  0
   23.5500   40.0350    1.4920 C   0  0  2  0  0  0
   23.0990   41.0140    0.2980 C   0  0  2  0  0  0
   21.7290   40.4680   -0.0930 C   0  0  1  0  0  0
   21.5120   39.2160    0.8220 C   0  0  1  0  0  0
   22.3870   39.3460    1.8800 O   0  0  0  0  0  0
   23.2970   40.9480    3.7090 O   0  0  0  0  0  0
   23.9340   40.8020   -0.7680 O   0  0  0  0  0  0
   20.7810   41.4350   -0.0550 O   0  0  0  0  0  0
   20.2140   38.8120    1.2760 N   0  0  0  0  0  0
   18.3020   37.6740    1.5030 C   0  0  0  0  0  0
   19.6160   37.6260    0.9490 C   0  0  0  0  0  0
   19.2310   39.6050    1.9520 C   0  0  0  0  0  0
   18.0670   38.9440    2.0860 N   0  0  0  0  0  0
   18.0060   35.4210    0.6740 N   0  0  0  0  0  0
   19.2950   35.4920    0.2390 C   0  0  0  0  0  0
   20.1530   36.5330    0.2910 N   0  0  0  0  0  0
   17.4850   36.5300    1.3310 C   0  0  0  0  0  0
   16.1840   36.4320    1.7310 N   0  0  0  0  0  0
   23.4118   50.6404   -1.1991 H   0  0  0  0  0  0
   25.3677   51.3067    0.2363 H   0  0  0  0  0  0
   26.9526   49.6267    1.0744 H   0  0  0  0  0  0
   24.9370   45.6582   -1.5496 H   0  0  0  0  0  0
   23.8043   45.6378   -0.1556 H   0  0  0  0  0  0
   22.5056   45.8290   -2.4001 H   0  0  0  0  0  0
   27.8284   47.2082    0.9543 H   0  0  0  0  0  0
   28.2938   44.6709    1.3259 H   0  0  0  0  0  0
   27.9614   45.3011    2.9748 H   0  0  0  0  0  0
   28.1816   43.1928    2.9699 H   0  0  0  0  0  0
   25.9514   42.9863    0.8275 H   0  0  0  0  0  0
   27.6570   42.4440    0.6736 H   0  0  0  0  0  0
   25.9408   40.5547    0.9765 H   0  0  0  0  0  0
   27.2742   40.5519    2.1801 H   0  0  0  0  0  0
   25.1332   41.8625    4.8209 H   0  0  0  0  0  0
   26.8085   41.3525    4.4209 H   0  0  0  0  0  0
   26.7712   43.7227    4.6379 H   0  0  0  0  0  0
   25.3454   43.8636    3.5543 H   0  0  0  0  0  0
   24.3200   39.3177    1.1718 H   0  0  0  0  0  0
   23.1515   42.1004    0.4625 H   0  0  0  0  0  0
   21.5661   40.2606   -1.1609 H   0  0  0  0  0  0
   21.7066   38.2919    0.2579 H   0  0  0  0  0  0
   24.9861   41.1185   -0.7140 H   0  0  0  0  0  0
   20.8874   42.3344   -0.6793 H   0  0  0  0  0  0
   19.4047   40.6187    2.3132 H   0  0  0  0  0  0
   19.6882   34.5819   -0.2140 H   0  0  0  0  0  0
   15.7056   37.2714    2.2569 H   0  0  0  0  0  0
   15.6137   35.5136    1.5276 H   0  0  0  0  0  0
  1  2  2  0  0  0
  1  6  1  0  0  0
  1 40  1  0  0  0
  2  3  1  0  0  0
  2 41  1  0  0  0
  3  4  2  0  0  0
  3 42  1  0  0  0
  4  5  1  0  0  0
  4 11  1  0  0  0
  5  6  2  0  0  0
  5  8  1  0  0  0
  6  7  1  0  0  0
  7  9  1  0  0  0
  7 10  2  0  0  0
  8  9  1  0  0  0
  8 43  1  0  0  0
  8 44  1  0  0  0
  9 45  1  0  0  0
 11 12  1  0  0  0
 11 46  1  0  0  0
 12 13  2  0  0  0
 12 14  1  0  0  0
 14 15  1  0  0  0
 14 47  1  0  0  0
 14 48  1  0  0  0
 15 16  1  0  0  0
 15 20  1  0  0  0
 15 49  1  0  0  0
 16 17  1  0  0  0
 16 50  1  0  0  0
 16 51  1  0  0  0
 17 18  1  0  0  0
 17 52  1  0  0  0
 17 53  1  0  0  0
 18 19  1  0  0  0
 18 21  1  0  0  0
 19 20  1  0  0  0
 19 54  1  0  0  0
 19 55  1  0  0  0
 20 56  1  0  0  0
 20 57  1  0  0  0
 21 22  1  0  0  0
 21 27  2  0  0  0
 22 23  1  0  0  0
 22 26  1  0  0  0
 22 58  1  0  0  0
 23 24  1  0  0  0
 23 28  1  0  0  0
 23 59  1  0  0  0
 24 25  1  0  0  0
 24 29  1  0  0  0
 24 60  1  0  0  0
 25 26  1  0  0  0
 25 30  1  0  0  0
 25 61  1  0  0  0
 28 62  1  0  0  0
 29 63  1  0  0  0
 30 32  1  0  0  0
 30 33  1  0  0  0
 31 32  2  0  0  0
 31 34  1  0  0  0
 31 38  1  0  0  0
 32 37  1  0  0  0
 33 34  2  0  0  0
 33 64  1  0  0  0
 35 36  1  0  0  0
 35 38  2  0  0  0
 36 37  2  0  0  0
 36 65  1  0  0  0
 38 39  1  0  0  0
 39 66  1  0  0  0
 39 67  1  0  0  0
M  CHG  1  15   1
M  END
> <s_m_source_file>
../4tk5_ligand.sdf

> <i_m_source_file_index>
1

> <s_epik_input>
W0NIMl0xW05IXUMoPU8pYyhjMTIpW2NIXVtjSF1bY0hdYzJbTkhdQyg9TylbQ0gyXVtOSCtdM1tDSDJdW0NIMl1OKFtDSDJdW0NIMl0zKUMoPU8pW0NAQEhdNFtDQEBIXShbT0hdKVtDQEhdKFtPSF0pW0NAQEhdKE80KW4oW2NIXW41KWMoYzU2KW5bY0hdbmM2W05IMl0=

> <s_epik_cmdline>
J2VwaWtfYXBwJywgJy1pbWFlJywgJ2xpZ2FuZF9wcm8ubWFlJywgJy1vbWFlJywgJ2xpZ2FuZF9wcmVwLm1hZScsICctbXMnLCAnMScsICctcGgnLCAnNycsICctcGh0JywgJzAuNScsICctbnQn

> <r_lp_tautomer_probability>
0.999997216410988

> <r_epik_Ionization_Penalty>
  0.3586

> <r_epik_Ionization_Penalty_Charging>
  0.3580

> <r_epik_Ionization_Penalty_Neutral>
  0.0006

> <r_epik_State_Penalty>
  0.3547

> <r_epik_Charging_Adjusted_Penalty>
0.712686999498254

> <i_epik_Tot_Q>
1

> <i_epik_Tot_abs_Q>
1

> <s_epik_Chemistry_Notes>
This compound contains an acetal/aminal-like group ( X-CH(R)-Y where X, Y are N, S, or O) that may be acid/base labile, releasing an aldehyde.

$$$$
