4tkb_ligand
                    3D
 Schrodinger Suite 2020-3.
 37 36  0  0  1  0            999 V2000
   -6.8750   15.8900   15.2370 O   0  0  0  0  0  0
   -4.8000   16.2370   15.9020 O   0  5  0  0  0  0
   -5.7930   16.5010   15.1730 C   0  0  0  0  0  0
   -5.6220   17.5800   14.1290 C   0  0  0  0  0  0
   -6.8230   17.9990   13.3800 C   0  0  0  0  0  0
   -6.6520   19.1670   12.4310 C   0  0  0  0  0  0
   -7.9430   19.6980   11.8500 C   0  0  0  0  0  0
   -7.7740   20.7340   10.7540 C   0  0  0  0  0  0
   -6.9740   21.9300   11.1190 C   0  0  0  0  0  0
   -7.5380   22.7370   12.2400 C   0  0  0  0  0  0
   -6.6800   23.9130   12.6480 C   0  0  0  0  0  0
   -7.2530   24.7660   13.7870 C   0  0  0  0  0  0
   -7.4200   24.0810   15.1210 C   0  0  0  0  0  0
   -7.9370   25.0820   16.1040 C   0  0  0  0  0  0
   -5.2428   18.4955   14.6066 H   0  0  0  0  0  0
   -4.9063   17.2413   13.3654 H   0  0  0  0  0  0
   -7.1822   17.1610   12.7646 H   0  0  0  0  0  0
   -7.6104   18.2984   14.0874 H   0  0  0  0  0  0
   -6.1725   20.0030   12.9612 H   0  0  0  0  0  0
   -6.0219   18.8611   11.5828 H   0  0  0  0  0  0
   -8.5173   18.8677   11.4132 H   0  0  0  0  0  0
   -8.5346   20.1744   12.6457 H   0  0  0  0  0  0
   -7.2686   20.2758    9.8911 H   0  0  0  0  0  0
   -8.7622   21.1057   10.4452 H   0  0  0  0  0  0
   -5.9659   21.6165   11.4279 H   0  0  0  0  0  0
   -6.8993   22.6003   10.2501 H   0  0  0  0  0  0
   -8.5185   23.1391   11.9452 H   0  0  0  0  0  0
   -7.6554   22.0989   13.1283 H   0  0  0  0  0  0
   -5.6985   23.5505   12.9876 H   0  0  0  0  0  0
   -6.5451   24.5846   11.7873 H   0  0  0  0  0  0
   -6.5909   25.6250   13.9705 H   0  0  0  0  0  0
   -8.2535   25.1274   13.5069 H   0  0  0  0  0  0
   -8.1335   23.2499   15.0196 H   0  0  0  0  0  0
   -6.4480   23.6908   15.4571 H   0  0  0  0  0  0
   -8.0655   24.6004   17.0846 H   0  0  0  0  0  0
   -8.9057   25.4705   15.7566 H   0  0  0  0  0  0
   -7.2202   25.9115   16.1940 H   0  0  0  0  0  0
  1  3  2  0  0  0
  2  3  1  0  0  0
  3  4  1  0  0  0
  4  5  1  0  0  0
  4 15  1  0  0  0
  4 16  1  0  0  0
  5  6  1  0  0  0
  5 17  1  0  0  0
  5 18  1  0  0  0
  6  7  1  0  0  0
  6 19  1  0  0  0
  6 20  1  0  0  0
  7  8  1  0  0  0
  7 21  1  0  0  0
  7 22  1  0  0  0
  8  9  1  0  0  0
  8 23  1  0  0  0
  8 24  1  0  0  0
  9 10  1  0  0  0
  9 25  1  0  0  0
  9 26  1  0  0  0
 10 11  1  0  0  0
 10 27  1  0  0  0
 10 28  1  0  0  0
 11 12  1  0  0  0
 11 29  1  0  0  0
 11 30  1  0  0  0
 12 13  1  0  0  0
 12 31  1  0  0  0
 12 32  1  0  0  0
 13 14  1  0  0  0
 13 33  1  0  0  0
 13 34  1  0  0  0
 14 35  1  0  0  0
 14 36  1  0  0  0
 14 37  1  0  0  0
M  CHG  1   2  -1
M  END
> <s_m_source_file>
../4tkb_ligand.sdf

> <i_m_source_file_index>
1

> <s_epik_input>
Tz1DKFtPSF0pW0NIMl1bQ0gyXVtDSDJdW0NIMl1bQ0gyXVtDSDJdW0NIMl1bQ0gyXVtDSDJdW0NIMl1bQ0gzXQ==

> <s_epik_cmdline>
J2VwaWtfYXBwJywgJy1pbWFlJywgJ2xpZ2FuZF9wcm8ubWFlJywgJy1vbWFlJywgJ2xpZ2FuZF9wcmVwLm1hZScsICctbXMnLCAnMScsICctcGgnLCAnNycsICctcGh0JywgJzAuNScsICctbnQn

> <r_lp_tautomer_probability>
1

> <r_epik_Ionization_Penalty>
  0.0049

> <r_epik_Ionization_Penalty_Charging>
  0.0049

> <r_epik_Ionization_Penalty_Neutral>
  0.0000

> <r_epik_State_Penalty>
 -0.0000

> <r_epik_Charging_Adjusted_Penalty>
0.00486649495677768

> <i_epik_Tot_Q>
-1

> <i_epik_Tot_abs_Q>
1

$$$$
