4tkf_ligand
                    3D
 Schrodinger Suite 2020-3.
 50 55  0  0  1  0            999 V2000
   19.7260   33.1860   -0.3080 C   0  0  0  0  0  0
   20.5320   34.3290   -0.2050 C   0  0  0  0  0  0
   16.8290   36.8990    1.3750 C   0  0  0  0  0  0
   20.4790   40.4550    0.6680 C   0  0  0  0  0  0
   24.4190   43.9250   -0.8090 C   0  0  0  0  0  0
   25.2070   42.8410   -0.8260 C   0  0  0  0  0  0
   21.6210   41.2450    0.6720 C   0  0  0  0  0  0
   18.3740   33.2530    0.0350 C   0  0  0  0  0  0
   18.7980   38.9770    1.8590 C   0  0  0  0  0  0
   16.5120   34.5730    0.8410 C   0  0  0  0  0  0
   26.4430   44.5600    0.1650 C   0  0  0  0  0  0
   22.3060   41.4730    1.8570 C   0  0  0  0  0  0
   19.9920   39.9380    1.8580 C   0  0  0  0  0  0
   26.2740   43.0500    0.2670 C   0  0  1  0  0  0
   24.9660   44.8590    0.3010 C   0  0  2  0  0  0
   18.6990   35.5950    0.5540 C   0  0  0  0  0  0
   17.8540   34.4740    0.4700 C   0  0  0  0  0  0
   24.6540   41.8200    1.7800 C   0  0  0  0  0  0
   18.1830   36.8120    1.0250 C   0  0  0  0  0  0
   20.0110   35.4830    0.2200 N   0  0  0  0  0  0
   15.9920   35.7950    1.2850 C   0  0  0  0  0  0
   19.0150   37.8580    1.1520 N   0  0  0  0  0  0
   17.7900   39.2220    2.5050 O   0  0  0  0  0  0
   20.6630   40.1890    3.0430 C   0  0  0  0  0  0
   21.8260   40.9490    3.0480 C   0  0  0  0  0  0
   23.3850   42.2580    1.8340 N   0  0  0  0  0  0
   23.3160   43.5900    1.7760 C   0  0  0  0  0  0
   22.2620   44.2360    1.7850 O   0  0  0  0  0  0
   24.7140   44.2140    1.6840 C   0  0  1  0  0  0
   25.6350   42.9840    1.6740 C   0  0  2  0  0  0
   25.0090   40.6410    1.7940 O   0  0  0  0  0  0
   20.1546   32.2460   -0.6555 H   0  0  0  0  0  0
   21.5873   34.2754   -0.4727 H   0  0  0  0  0  0
   16.4259   37.8497    1.7239 H   0  0  0  0  0  0
   19.9663   40.2418   -0.2699 H   0  0  0  0  0  0
   23.5755   44.0029   -1.5108 H   0  0  0  0  0  0
   25.0105   42.0293   -1.5419 H   0  0  0  0  0  0
   21.9800   41.6869   -0.2575 H   0  0  0  0  0  0
   17.7378   32.3707   -0.0353 H   0  0  0  0  0  0
   15.8668   33.6963    0.7849 H   0  0  0  0  0  0
   27.0885   44.9128    0.9828 H   0  0  0  0  0  0
   26.9041   44.8129   -0.8012 H   0  0  0  0  0  0
   27.1266   42.3649    0.1494 H   0  0  0  0  0  0
   24.5933   45.8912    0.2257 H   0  0  0  0  0  0
   14.9399   35.8787    1.5574 H   0  0  0  0  0  0
   19.9571   37.7311    0.5985 H   0  0  0  0  0  0
   20.2757   39.7871    3.9793 H   0  0  0  0  0  0
   22.3577   41.1322    3.9817 H   0  0  0  0  0  0
   24.8523   44.9569    2.4834 H   0  0  0  0  0  0
   26.4022   42.9038    2.4582 H   0  0  0  0  0  0
  1  2  2  0  0  0
  1  8  1  0  0  0
  1 32  1  0  0  0
  2 20  1  0  0  0
  2 33  1  0  0  0
  3 19  2  0  0  0
  3 21  1  0  0  0
  3 34  1  0  0  0
  4  7  2  0  0  0
  4 13  1  0  0  0
  4 35  1  0  0  0
  5  6  2  0  0  0
  5 15  1  0  0  0
  5 36  1  0  0  0
  6 14  1  0  0  0
  6 37  1  0  0  0
  7 12  1  0  0  0
  7 38  1  0  0  0
  8 17  2  0  0  0
  8 39  1  0  0  0
  9 13  1  0  0  0
  9 22  1  0  0  0
  9 23  2  0  0  0
 10 17  1  0  0  0
 10 21  2  0  0  0
 10 40  1  0  0  0
 11 14  1  0  0  0
 11 15  1  0  0  0
 11 41  1  0  0  0
 11 42  1  0  0  0
 12 25  2  0  0  0
 12 26  1  0  0  0
 13 24  2  0  0  0
 14 30  1  0  0  0
 14 43  1  0  0  0
 15 29  1  0  0  0
 15 44  1  0  0  0
 16 17  1  0  0  0
 16 19  1  0  0  0
 16 20  2  0  0  0
 18 26  1  0  0  0
 18 30  1  0  0  0
 18 31  2  0  0  0
 19 22  1  0  0  0
 21 45  1  0  0  0
 22 46  1  0  0  0
 24 25  1  0  0  0
 24 47  1  0  0  0
 25 48  1  0  0  0
 26 27  1  0  0  0
 27 28  2  0  0  0
 27 29  1  0  0  0
 29 30  1  0  0  0
 29 49  1  0  0  0
 30 50  1  0  0  0
M  END
> <s_m_source_file>
../4tkf_ligand.sdf

> <i_m_source_file_index>
1

> <s_epik_input>
bjFbY0hdW2NIXVtjSF1jKGMxMilbY0hdW2NIXVtjSF1jMltOSF1DKD1PKWMoW2NIXVtjSF0zKVtjSF1bY0hdYzNOKEM0PU8pQyg9TylbQ0BASF0oW0NAQEhdNFtDQEBIXTU2KVtDQEBIXShbQ0gyXTYpW0NIXT1bQ0hdNQ==

> <s_epik_cmdline>
J2VwaWtfYXBwJywgJy1pbWFlJywgJ2xpZ2FuZF9wcm8ubWFlJywgJy1vbWFlJywgJ2xpZ2FuZF9wcmVwLm1hZScsICctbXMnLCAnMScsICctcGgnLCAnNycsICctcGh0JywgJzAuNScsICctbnQn

> <r_lp_tautomer_probability>
1

> <r_epik_Ionization_Penalty>
  0.0005

> <r_epik_Ionization_Penalty_Charging>
  0.0000

> <r_epik_Ionization_Penalty_Neutral>
  0.0005

> <r_epik_State_Penalty>
 -0.0000

> <r_epik_Charging_Adjusted_Penalty>
0

> <i_epik_Tot_Q>
0

> <i_epik_Tot_abs_Q>
0

$$$$
