4tkh_ligand
                    3D
 Schrodinger Suite 2020-3.
 41 40  0  0  1  0            999 V2000
   -5.7400  -16.5240    1.6760 C   0  0  0  0  0  0
   -6.8180  -15.8740    1.5940 O   0  0  0  0  0  0
   -4.7320  -16.2750    0.9200 O   0  5  0  0  0  0
   -5.5730  -17.6190    2.6660 C   0  0  0  0  0  0
   -6.7970  -18.0390    3.4260 C   0  0  0  0  0  0
   -6.6110  -19.1940    4.3790 C   0  0  0  0  0  0
   -7.9170  -19.7050    4.9840 C   0  0  0  0  0  0
   -7.7300  -20.7740    6.0510 C   0  0  0  0  0  0
   -6.9130  -21.9740    5.6780 C   0  0  0  0  0  0
   -7.5080  -22.7380    4.5150 C   0  0  0  0  0  0
   -6.5840  -23.8510    4.0480 C   0  0  0  0  0  0
   -7.1250  -24.6830    2.9780 C   0  0  0  0  0  0
   -7.4640  -24.1310    1.7270 C   0  0  0  0  0  0
   -6.6070  -23.1160    1.2270 C   0  0  0  0  0  0
   -6.7020  -22.8150   -0.2430 C   0  0  0  0  0  0
   -7.0310  -21.3840   -0.5520 C   0  0  0  0  0  0
   -5.2162  -18.5249    2.1541 H   0  0  0  0  0  0
   -4.8400  -17.3157    3.4281 H   0  0  0  0  0  0
   -7.1603  -17.1953    4.0312 H   0  0  0  0  0  0
   -7.5807  -18.3466    2.7180 H   0  0  0  0  0  0
   -6.1439  -20.0363    3.8476 H   0  0  0  0  0  0
   -5.9637  -18.8817    5.2118 H   0  0  0  0  0  0
   -8.4553  -18.8687    5.4540 H   0  0  0  0  0  0
   -8.5412  -20.1437    4.1916 H   0  0  0  0  0  0
   -7.2274  -20.3352    6.9255 H   0  0  0  0  0  0
   -8.7121  -21.1676    6.3518 H   0  0  0  0  0  0
   -5.9005  -21.6535    5.3915 H   0  0  0  0  0  0
   -6.8517  -22.6575    6.5377 H   0  0  0  0  0  0
   -8.4648  -23.1858    4.8216 H   0  0  0  0  0  0
   -7.6779  -22.0506    3.6732 H   0  0  0  0  0  0
   -5.6474  -23.4155    3.6698 H   0  0  0  0  0  0
   -6.3623  -24.5216    4.8913 H   0  0  0  0  0  0
   -6.3986  -25.4682    2.7212 H   0  0  0  0  0  0
   -8.0638  -25.1477    3.3138 H   0  0  0  0  0  0
   -8.3404  -24.4479    1.1427 H   0  0  0  0  0  0
   -5.9182  -22.5935    1.9071 H   0  0  0  0  0  0
   -5.7394  -23.0387   -0.7260 H   0  0  0  0  0  0
   -7.4912  -23.4345   -0.6939 H   0  0  0  0  0  0
   -7.0820  -21.2467   -1.6422 H   0  0  0  0  0  0
   -6.2501  -20.7302   -0.1362 H   0  0  0  0  0  0
   -8.0020  -21.1261   -0.1041 H   0  0  0  0  0  0
  1  2  2  0  0  0
  1  3  1  0  0  0
  1  4  1  0  0  0
  4  5  1  0  0  0
  4 17  1  0  0  0
  4 18  1  0  0  0
  5  6  1  0  0  0
  5 19  1  0  0  0
  5 20  1  0  0  0
  6  7  1  0  0  0
  6 21  1  0  0  0
  6 22  1  0  0  0
  7  8  1  0  0  0
  7 23  1  0  0  0
  7 24  1  0  0  0
  8  9  1  0  0  0
  8 25  1  0  0  0
  8 26  1  0  0  0
  9 10  1  0  0  0
  9 27  1  0  0  0
  9 28  1  0  0  0
 10 11  1  0  0  0
 10 29  1  0  0  0
 10 30  1  0  0  0
 11 12  1  0  0  0
 11 31  1  0  0  0
 11 32  1  0  0  0
 12 13  1  0  0  0
 12 33  1  0  0  0
 12 34  1  0  0  0
 13 14  2  0  0  0
 13 35  1  0  0  0
 14 15  1  0  0  0
 14 36  1  0  0  0
 15 16  1  0  0  0
 15 37  1  0  0  0
 15 38  1  0  0  0
 16 39  1  0  0  0
 16 40  1  0  0  0
 16 41  1  0  0  0
M  CHG  1   3  -1
M  END
> <s_m_source_file>
../4tkh_ligand.sdf

> <i_m_source_file_index>
1

> <s_epik_input>
Tz1DKFtPSF0pW0NIMl1bQ0gyXVtDSDJdW0NIMl1bQ0gyXVtDSDJdW0NIMl1bQ0gyXVtDSDJdL1tDSF09W0NIXS9bQ0gyXVtDSDNd

> <s_epik_cmdline>
J2VwaWtfYXBwJywgJy1pbWFlJywgJ2xpZ2FuZF9wcm8ubWFlJywgJy1vbWFlJywgJ2xpZ2FuZF9wcmVwLm1hZScsICctbXMnLCAnMScsICctcGgnLCAnNycsICctcGh0JywgJzAuNScsICctbnQn

> <r_lp_tautomer_probability>
1

> <r_epik_Ionization_Penalty>
  0.0049

> <r_epik_Ionization_Penalty_Charging>
  0.0049

> <r_epik_Ionization_Penalty_Neutral>
  0.0000

> <r_epik_State_Penalty>
 -0.0000

> <r_epik_Charging_Adjusted_Penalty>
0.00486578468267443

> <i_epik_Tot_Q>
-1

> <i_epik_Tot_abs_Q>
1

$$$$
