4tkj_ligand
                    3D
 Schrodinger Suite 2020-3.
 47 46  0  0  1  0            999 V2000
    5.9190  -16.6280   -1.6130 C   0  0  0  0  0  0
    4.8960  -16.3970   -0.8780 O   0  5  0  0  0  0
    6.9640  -15.9660   -1.5510 O   0  0  0  0  0  0
    5.7930  -17.7470   -2.6220 C   0  0  0  0  0  0
    7.0600  -18.1650   -3.3150 C   0  0  0  0  0  0
    6.8570  -19.2760   -4.3230 C   0  0  0  0  0  0
    8.1680  -19.7980   -4.8860 C   0  0  0  0  0  0
    8.0220  -20.7780   -6.0440 C   0  0  0  0  0  0
    7.1240  -21.9760   -5.7750 C   0  0  0  0  0  0
    7.5900  -22.8500   -4.6270 C   0  0  0  0  0  0
    6.5640  -23.9270   -4.2070 C   0  0  0  0  0  0
    6.9660  -24.8300   -3.0120 C   0  0  0  0  0  0
    7.4520  -24.1140   -1.7180 C   0  0  0  0  0  0
    6.5660  -23.0380   -1.0500 C   0  0  0  0  0  0
    7.2390  -22.1930    0.1310 C   0  0  0  0  0  0
    8.4800  -21.4610   -0.0780 C   0  0  0  0  0  0
    9.0270  -20.7340    1.1690 C   0  0  0  0  0  0
   10.4320  -20.3010    0.8620 C   0  0  0  0  0  0
    5.4095  -18.6492   -2.1230 H   0  0  0  0  0  0
    5.0977  -17.4453   -3.4192 H   0  0  0  0  0  0
    7.4844  -17.3047   -3.8533 H   0  0  0  0  0  0
    7.7844  -18.5245   -2.5693 H   0  0  0  0  0  0
    6.3365  -20.1171   -3.8417 H   0  0  0  0  0  0
    6.2525  -18.9031   -5.1630 H   0  0  0  0  0  0
    8.7686  -18.9550   -5.2583 H   0  0  0  0  0  0
    8.7236  -20.3230   -4.0950 H   0  0  0  0  0  0
    7.5942  -20.2572   -6.9134 H   0  0  0  0  0  0
    9.0100  -21.1827   -6.3087 H   0  0  0  0  0  0
    6.1110  -21.6265   -5.5266 H   0  0  0  0  0  0
    7.0829  -22.6121   -6.6715 H   0  0  0  0  0  0
    8.5132  -23.3735   -4.9161 H   0  0  0  0  0  0
    7.7851  -22.2230   -3.7445 H   0  0  0  0  0  0
    5.6212  -23.4412   -3.9153 H   0  0  0  0  0  0
    6.3799  -24.6073   -5.0516 H   0  0  0  0  0  0
    6.1028  -25.4395   -2.7064 H   0  0  0  0  0  0
    7.7928  -25.4901   -3.3131 H   0  0  0  0  0  0
    7.6093  -24.8588   -0.9239 H   0  0  0  0  0  0
    8.3975  -23.5901   -1.9219 H   0  0  0  0  0  0
    6.2508  -22.3023   -1.8046 H   0  0  0  0  0  0
    5.6780  -23.5155   -0.6102 H   0  0  0  0  0  0
    6.7468  -22.1716    1.1145 H   0  0  0  0  0  0
    8.9552  -21.4561   -1.0700 H   0  0  0  0  0  0
    8.3962  -19.8605    1.3903 H   0  0  0  0  0  0
    9.0164  -21.4210    2.0280 H   0  0  0  0  0  0
   10.8530  -19.7777    1.7331 H   0  0  0  0  0  0
   10.4258  -19.6238   -0.0048 H   0  0  0  0  0  0
   11.0461  -21.1844    0.6329 H   0  0  0  0  0  0
  1  2  1  0  0  0
  1  3  2  0  0  0
  1  4  1  0  0  0
  4  5  1  0  0  0
  4 19  1  0  0  0
  4 20  1  0  0  0
  5  6  1  0  0  0
  5 21  1  0  0  0
  5 22  1  0  0  0
  6  7  1  0  0  0
  6 23  1  0  0  0
  6 24  1  0  0  0
  7  8  1  0  0  0
  7 25  1  0  0  0
  7 26  1  0  0  0
  8  9  1  0  0  0
  8 27  1  0  0  0
  8 28  1  0  0  0
  9 10  1  0  0  0
  9 29  1  0  0  0
  9 30  1  0  0  0
 10 11  1  0  0  0
 10 31  1  0  0  0
 10 32  1  0  0  0
 11 12  1  0  0  0
 11 33  1  0  0  0
 11 34  1  0  0  0
 12 13  1  0  0  0
 12 35  1  0  0  0
 12 36  1  0  0  0
 13 14  1  0  0  0
 13 37  1  0  0  0
 13 38  1  0  0  0
 14 15  1  0  0  0
 14 39  1  0  0  0
 14 40  1  0  0  0
 15 16  2  0  0  0
 15 41  1  0  0  0
 16 17  1  0  0  0
 16 42  1  0  0  0
 17 18  1  0  0  0
 17 43  1  0  0  0
 17 44  1  0  0  0
 18 45  1  0  0  0
 18 46  1  0  0  0
 18 47  1  0  0  0
M  CHG  1   2  -1
M  END
> <s_m_source_file>
../4tkj_ligand.sdf

> <i_m_source_file_index>
1

> <s_epik_input>
W09IXUMoPU8pW0NIMl1bQ0gyXVtDSDJdW0NIMl1bQ0gyXVtDSDJdW0NIMl1bQ0gyXVtDSDJdW0NIMl1bQ0gyXS9bQ0hdPVtDSF0vW0NIMl1bQ0gzXQ==

> <s_epik_cmdline>
J2VwaWtfYXBwJywgJy1pbWFlJywgJ2xpZ2FuZF9wcm8ubWFlJywgJy1vbWFlJywgJ2xpZ2FuZF9wcmVwLm1hZScsICctbXMnLCAnMScsICctcGgnLCAnNycsICctcGh0JywgJzAuNScsICctbnQn

> <r_lp_tautomer_probability>
1

> <r_epik_Ionization_Penalty>
  0.0049

> <r_epik_Ionization_Penalty_Charging>
  0.0049

> <r_epik_Ionization_Penalty_Neutral>
  0.0000

> <r_epik_State_Penalty>
 -0.0000

> <r_epik_Charging_Adjusted_Penalty>
0.00486649495677768

> <i_epik_Tot_Q>
-1

> <i_epik_Tot_abs_Q>
1

$$$$
