4tkn_ligand
                    3D
 Schrodinger Suite 2020-3.
154156  0  0  1  0            999 V2000
   25.6600   23.0290    7.8730 N   0  3  0  0  0  0
   25.4460   23.9910    6.8020 C   0  0  2  0  0  0
   24.3240   24.9580    7.1620 C   0  0  0  0  0  0
   24.5390   25.9550    7.8550 O   0  0  0  0  0  0
   25.0910   23.2790    5.4770 C   0  0  2  0  0  0
   23.7890   22.6810    5.5760 O   0  0  0  0  0  0
   26.1120   22.1980    5.1720 C   0  0  0  0  0  0
   23.1250   24.6480    6.6800 N   0  0  0  0  0  0
   21.9370   25.4570    6.9110 C   0  0  2  0  0  0
   21.4000   25.3110    8.3340 C   0  0  0  0  0  0
   21.1080   24.2050    8.7850 O   0  0  0  0  0  0
   20.8620   25.0480    5.9140 C   0  0  0  0  0  0
   20.5720   23.2630    5.8650 S   0  0  0  0  0  0
   21.2700   26.4330    9.0360 N   0  0  0  0  0  0
   20.8160   26.4200   10.4250 C   0  0  2  0  0  0
   19.3170   26.1260   10.5360 C   0  0  0  0  0  0
   18.5000   26.7970    9.9170 O   0  0  0  0  0  0
   21.1760   27.7340   11.1680 C   0  0  2  0  0  0
   20.5350   28.9470   10.4860 C   0  0  0  0  0  0
   22.6780   27.9250   11.1970 C   0  0  0  0  0  0
   19.3160   29.4780   11.2020 C   0  0  0  0  0  0
   18.9590   25.1310   11.3380 N   0  0  0  0  0  0
   17.5610   24.7270   11.4270 C   0  0  2  0  0  0
   16.7360   25.7400   12.2030 C   0  0  0  0  0  0
   17.1880   26.2920   13.2060 O   0  0  0  0  0  0
   17.4210   23.3450   12.0570 C   0  0  0  0  0  0
   15.9870   22.8740   12.1920 C   0  0  0  0  0  0
   15.3190   22.2980   11.1200 C   0  0  0  0  0  0
   15.2980   23.0160   13.3870 C   0  0  0  0  0  0
   14.0100   21.8630   11.2420 C   0  0  0  0  0  0
   13.9890   22.5870   13.5140 C   0  0  0  0  0  0
   13.3520   22.0130   12.4430 C   0  0  0  0  0  0
   12.0520   21.5900   12.5810 O   0  0  0  0  0  0
   15.5150   25.9650   11.7360 N   0  0  0  0  0  0
   14.6200   26.9340   12.3470 C   0  0  2  0  0  0
   13.8150   26.2430   13.4320 C   0  0  0  0  0  0
   12.9730   25.4020   13.1410 O   0  0  0  0  0  0
   13.6930   27.5200   11.2880 C   0  0  0  0  0  0
   12.7470   28.5600   11.8420 C   0  0  0  0  0  0
   12.7090   28.8100   13.0460 O   0  0  0  0  0  0
   11.9640   29.1650   10.9610 N   0  0  0  0  0  0
   14.0700   26.6090   14.6950 N   0  0  0  0  0  0
   13.4300   25.9450   15.8350 C   0  0  2  0  0  0
   11.9090   26.0590   15.8530 C   0  0  0  0  0  0
   11.2480   25.2080   16.4480 O   0  0  0  0  0  0
   14.0270   26.6790   17.0450 C   0  0  0  0  0  0
   14.4880   27.9870   16.5130 C   0  0  0  0  0  0
   14.9340   27.7230   15.1130 C   0  0  0  0  0  0
   11.3640   27.0840   15.2070 N   0  0  0  0  0  0
    9.9200   27.3000   15.2020 C   0  0  2  0  0  0
    9.2060   26.6170   14.0500 C   0  0  0  0  0  0
    7.9760   26.6160   13.9910 O   0  0  0  0  0  0
    9.6260   28.7880   15.1570 C   0  0  0  0  0  0
    9.9040   29.4120   16.5140 C   0  0  0  0  0  0
    9.9980   30.9100   16.3840 C   0  0  0  0  0  0
    8.8210   29.0070   17.5040 C   0  0  0  0  0  0
    9.9810   26.0500   13.1350 N   0  0  0  0  0  0
    9.4340   25.4380   11.9320 C   0  0  2  0  0  0
    8.3270   24.4240   12.1930 C   0  0  0  0  0  0
    8.4220   23.5970   13.0990 O   0  0  0  0  0  0
   10.5400   24.7680   11.1200 C   0  0  0  0  0  0
   10.0310   24.0240    9.9250 C   0  0  0  0  0  0
    9.5070   24.7040    8.8420 C   0  0  0  0  0  0
   10.0510   22.6450    9.8940 C   0  0  0  0  0  0
    9.0320   24.0180    7.7420 C   0  0  0  0  0  0
    9.5730   21.9570    8.7970 C   0  0  0  0  0  0
    9.0640   22.6420    7.7230 C   0  0  0  0  0  0
    7.2750   24.5050   11.3860 N   0  0  0  0  0  0
    6.1440   23.6070   11.4870 C   0  0  0  0  0  0
    5.0970   24.0290   12.4920 C   0  0  0  0  0  0
    4.1140   23.3190   12.6960 O   0  0  0  0  0  0
    5.2940   25.1890   13.1080 N   0  0  0  0  0  0
    4.3290   25.7090   14.0700 C   0  0  2  0  0  0
    4.6080   27.1650   14.4000 C   0  0  0  0  0  0
    4.8340   27.5060   15.5600 O   0  0  0  0  0  0
    4.3550   24.8810   15.3550 C   0  0  0  0  0  0
    5.6780   24.7530   15.8430 O   0  0  0  0  0  0
    4.6080   28.0274   13.4814 O   0  0  0  0  0  0
   25.9104   23.5634    8.8013 H   0  0  0  0  0  0
   26.4876   22.3569    7.6022 H   0  0  0  0  0  0
   24.7437   22.4396    8.0250 H   0  0  0  0  0  0
   26.4033   24.5269    6.7217 H   0  0  0  0  0  0
   25.0360   23.9973    4.6458 H   0  0  0  0  0  0
   22.9113   23.3072    5.7937 H   0  0  0  0  0  0
   27.1121   22.6495    5.0948 H   0  0  0  0  0  0
   25.8557   21.7096    4.2203 H   0  0  0  0  0  0
   26.1081   21.4515    5.9799 H   0  0  0  0  0  0
   23.0562   23.7286    6.0800 H   0  0  0  0  0  0
   22.2605   26.4978    6.7622 H   0  0  0  0  0  0
   19.9106   25.5306    6.1821 H   0  0  0  0  0  0
   21.1606   25.3626    4.9031 H   0  0  0  0  0  0
   19.8170   22.8470    5.1817 H   0  0  0  0  0  0
   21.5138   27.3872    8.5460 H   0  0  0  0  0  0
   21.3741   25.5783   10.8609 H   0  0  0  0  0  0
   20.8051   27.6674   12.2014 H   0  0  0  0  0  0
   21.2658   29.7676   10.4349 H   0  0  0  0  0  0
   20.2208   28.6720    9.4683 H   0  0  0  0  0  0
   23.1484   27.0587   11.6851 H   0  0  0  0  0  0
   22.9206   28.8390   11.7589 H   0  0  0  0  0  0
   23.0560   28.0160   10.1680 H   0  0  0  0  0  0
   18.9163   30.3434   10.6531 H   0  0  0  0  0  0
   19.5944   29.7865   12.2205 H   0  0  0  0  0  0
   18.5494   28.6908   11.2539 H   0  0  0  0  0  0
   19.7211   24.6107   11.9367 H   0  0  0  0  0  0
   17.2175   24.6992   10.3824 H   0  0  0  0  0  0
   17.9498   22.6048   11.4385 H   0  0  0  0  0  0
   17.8562   23.3567   13.0672 H   0  0  0  0  0  0
   15.8338   22.1862   10.1657 H   0  0  0  0  0  0
   15.7966   23.4737   14.2414 H   0  0  0  0  0  0
   13.5032   21.4046   10.3928 H   0  0  0  0  0  0
   13.4650   22.7047   14.4625 H   0  0  0  0  0  0
   11.5305   21.1283   11.7296 H   0  0  0  0  0  0
   15.1865   25.3904   10.8574 H   0  0  0  0  0  0
   15.2413   27.7312   12.7812 H   0  0  0  0  0  0
   14.2928   27.9996   10.5005 H   0  0  0  0  0  0
   13.0850   26.7161   10.8475 H   0  0  0  0  0  0
   12.0349   28.9073    9.8940 H   0  0  0  0  0  0
   11.2430   29.9250   11.2966 H   0  0  0  0  0  0
   13.6327   24.8657   15.7722 H   0  0  0  0  0  0
   13.2527   26.8048   17.8162 H   0  0  0  0  0  0
   14.8612   26.0911   17.4555 H   0  0  0  0  0  0
   13.6563   28.7065   16.5376 H   0  0  0  0  0  0
   15.3165   28.3629   17.1313 H   0  0  0  0  0  0
   15.9874   27.4112   15.0566 H   0  0  0  0  0  0
   14.7703   28.5836   14.4478 H   0  0  0  0  0  0
   12.0258   27.7779   14.6680 H   0  0  0  0  0  0
    9.5772   26.8370   16.1391 H   0  0  0  0  0  0
   10.2660   29.2655   14.4004 H   0  0  0  0  0  0
    8.5692   28.9452   14.8953 H   0  0  0  0  0  0
   10.8722   29.0536   16.8938 H   0  0  0  0  0  0
   10.7881   31.1666   15.6629 H   0  0  0  0  0  0
   10.2390   31.3486   17.3636 H   0  0  0  0  0  0
    9.0355   31.3085   16.0306 H   0  0  0  0  0  0
    8.7800   27.9100   17.5741 H   0  0  0  0  0  0
    7.8485   29.3891   17.1602 H   0  0  0  0  0  0
    9.0520   29.4292   18.4931 H   0  0  0  0  0  0
   11.0676   26.0511   13.3062 H   0  0  0  0  0  0
    8.9951   26.2998   11.4079 H   0  0  0  0  0  0
   11.2439   25.5322   10.7587 H   0  0  0  0  0  0
   11.0757   24.0470   11.7550 H   0  0  0  0  0  0
    9.4683   25.7932    8.8564 H   0  0  0  0  0  0
   10.4487   22.0925   10.7453 H   0  0  0  0  0  0
    8.6318   24.5658    6.8889 H   0  0  0  0  0  0
    9.6000   20.8674    8.7841 H   0  0  0  0  0  0
    8.6860   22.0983    6.8572 H   0  0  0  0  0  0
    7.2850   25.2928   10.6183 H   0  0  0  0  0  0
    5.6415   23.5390   10.5108 H   0  0  0  0  0  0
    6.4940   22.6090   11.7895 H   0  0  0  0  0  0
    6.2062   25.7601   12.8805 H   0  0  0  0  0  0
    3.3535   25.6260   13.5684 H   0  0  0  0  0  0
    3.7401   25.3748   16.1219 H   0  0  0  0  0  0
    3.9527   23.8774   15.1527 H   0  0  0  0  0  0
    5.8717   24.1842   16.7644 H   0  0  0  0  0  0
    4.8098   29.0826   13.7177 H   0  0  0  0  0  0
  1  2  1  0  0  0
  1 79  1  0  0  0
  1 80  1  0  0  0
  1 81  1  0  0  0
  2  3  1  0  0  0
  2  5  1  0  0  0
  2 82  1  0  0  0
  3  4  2  0  0  0
  3  8  1  0  0  0
  5  6  1  0  0  0
  5  7  1  0  0  0
  5 83  1  0  0  0
  6 84  1  0  0  0
  7 85  1  0  0  0
  7 86  1  0  0  0
  7 87  1  0  0  0
  8  9  1  0  0  0
  8 88  1  0  0  0
  9 10  1  0  0  0
  9 12  1  0  0  0
  9 89  1  0  0  0
 10 11  2  0  0  0
 10 14  1  0  0  0
 12 13  1  0  0  0
 12 90  1  0  0  0
 12 91  1  0  0  0
 13 92  1  0  0  0
 14 15  1  0  0  0
 14 93  1  0  0  0
 15 16  1  0  0  0
 15 18  1  0  0  0
 15 94  1  0  0  0
 16 17  2  0  0  0
 16 22  1  0  0  0
 18 19  1  0  0  0
 18 20  1  0  0  0
 18 95  1  0  0  0
 19 21  1  0  0  0
 19 96  1  0  0  0
 19 97  1  0  0  0
 20 98  1  0  0  0
 20 99  1  0  0  0
 20100  1  0  0  0
 21101  1  0  0  0
 21102  1  0  0  0
 21103  1  0  0  0
 22 23  1  0  0  0
 22104  1  0  0  0
 23 24  1  0  0  0
 23 26  1  0  0  0
 23105  1  0  0  0
 24 25  2  0  0  0
 24 34  1  0  0  0
 26 27  1  0  0  0
 26106  1  0  0  0
 26107  1  0  0  0
 27 28  2  0  0  0
 27 29  1  0  0  0
 28 30  1  0  0  0
 28108  1  0  0  0
 29 31  2  0  0  0
 29109  1  0  0  0
 30 32  2  0  0  0
 30110  1  0  0  0
 31 32  1  0  0  0
 31111  1  0  0  0
 32 33  1  0  0  0
 33112  1  0  0  0
 34 35  1  0  0  0
 34113  1  0  0  0
 35 36  1  0  0  0
 35 38  1  0  0  0
 35114  1  0  0  0
 36 37  2  0  0  0
 36 42  1  0  0  0
 38 39  1  0  0  0
 38115  1  0  0  0
 38116  1  0  0  0
 39 40  2  0  0  0
 39 41  1  0  0  0
 41117  1  0  0  0
 41118  1  0  0  0
 42 43  1  0  0  0
 42 48  1  0  0  0
 43 44  1  0  0  0
 43 46  1  0  0  0
 43119  1  0  0  0
 44 45  2  0  0  0
 44 49  1  0  0  0
 46 47  1  0  0  0
 46120  1  0  0  0
 46121  1  0  0  0
 47 48  1  0  0  0
 47122  1  0  0  0
 47123  1  0  0  0
 48124  1  0  0  0
 48125  1  0  0  0
 49 50  1  0  0  0
 49126  1  0  0  0
 50 51  1  0  0  0
 50 53  1  0  0  0
 50127  1  0  0  0
 51 52  2  0  0  0
 51 57  1  0  0  0
 53 54  1  0  0  0
 53128  1  0  0  0
 53129  1  0  0  0
 54 55  1  0  0  0
 54 56  1  0  0  0
 54130  1  0  0  0
 55131  1  0  0  0
 55132  1  0  0  0
 55133  1  0  0  0
 56134  1  0  0  0
 56135  1  0  0  0
 56136  1  0  0  0
 57 58  1  0  0  0
 57137  1  0  0  0
 58 59  1  0  0  0
 58 61  1  0  0  0
 58138  1  0  0  0
 59 60  2  0  0  0
 59 68  1  0  0  0
 61 62  1  0  0  0
 61139  1  0  0  0
 61140  1  0  0  0
 62 63  2  0  0  0
 62 64  1  0  0  0
 63 65  1  0  0  0
 63141  1  0  0  0
 64 66  2  0  0  0
 64142  1  0  0  0
 65 67  2  0  0  0
 65143  1  0  0  0
 66 67  1  0  0  0
 66144  1  0  0  0
 67145  1  0  0  0
 68 69  1  0  0  0
 68146  1  0  0  0
 69 70  1  0  0  0
 69147  1  0  0  0
 69148  1  0  0  0
 70 71  2  0  0  0
 70 72  1  0  0  0
 72 73  1  0  0  0
 72149  1  0  0  0
 73 74  1  0  0  0
 73 76  1  0  0  0
 73150  1  0  0  0
 74 75  2  0  0  0
 74 78  1  0  0  0
 76 77  1  0  0  0
 76151  1  0  0  0
 76152  1  0  0  0
 77153  1  0  0  0
 78154  1  0  0  0
M  CHG  1   1   1
M  END
> <s_m_source_file>
../4tkn_ligand.sdf

> <i_m_source_file_index>
1

> <s_epik_input>
W09IXVtDQEhdKFtDSDNdKVtDQEhdKFtOSDMrXSlDKD1PKVtOSF1bQ0BASF0oW0NIMl1bU0hdKUMoPU8pW05IXVtDQEBIXShbQ0BASF0oW0NIM10pW0NIMl1bQ0gzXSlDKD1PKVtOSF1bQ0BASF0oW0NIMl1jMVtjSF1bY0hdYyhbT0hdKVtjSF1bY0hdMSlDKD1PKVtOSF1bQ0BASF0oW0NIMl1DKD1PKVtOSDJdKUMoPU8pTjJbQ0BASF0oW0NIMl1bQ0gyXVtDSDJdMilDKD1PKVtOSF1bQ0BASF0oW0NIMl1bQ0hdKFtDSDNdKVtDSDNdKUMoPU8pW05IXVtDQEBIXShbQ0gyXWMzW2NIXVtjSF1bY0hdW2NIXVtjSF0zKUMoPU8pW05IXVtDSDJdQyg9TylbTkhdW0NASF0oQyg9TylbT0hdKVtDSDJdW09IXQ==

> <s_epik_cmdline>
J2VwaWtfYXBwJywgJy1pbWFlJywgJ2xpZ2FuZF9wcm8ubWFlJywgJy1vbWFlJywgJ2xpZ2FuZF9wcmVwLm1hZScsICctbXMnLCAnMScsICctcGgnLCAnNycsICctcGh0JywgJzAuNScsICctbnQn

> <s_epik_pKa_notes>
Molecule size exceeds maximum supported for generating protonation states

$$$$
