4tky_ligand
                    3D
 Schrodinger Suite 2020-3.
 95 96  0  0  1  0            999 V2000
  -11.5080  -16.6020  -31.2810 N   0  3  0  0  0  0
  -10.8370  -16.6840  -29.9770 C   0  0  2  0  0  0
   -9.4060  -17.2130  -30.0630 C   0  0  0  0  0  0
   -8.6910  -17.1930  -29.0690 O   0  0  0  0  0  0
  -11.7180  -17.6640  -29.1960 C   0  0  0  0  0  0
  -12.3750  -18.4960  -30.2500 C   0  0  0  0  0  0
  -12.6010  -17.5820  -31.4110 C   0  0  0  0  0  0
   -8.9960  -17.6460  -31.2500 N   0  0  0  0  0  0
   -7.6640  -18.1940  -31.4700 C   0  0  2  0  0  0
   -6.8530  -17.3550  -32.4450 C   0  0  0  0  0  0
   -5.7130  -17.6970  -32.7670 O   0  0  0  0  0  0
   -7.7600  -19.6300  -31.9800 C   0  0  0  0  0  0
   -8.7890  -19.8170  -33.0430 C   0  0  0  0  0  0
   -8.4960  -19.5340  -34.3650 C   0  0  0  0  0  0
  -10.0590  -20.2580  -32.7180 C   0  0  0  0  0  0
   -9.4470  -19.6980  -35.3480 C   0  0  0  0  0  0
  -11.0180  -20.4230  -33.6970 C   0  0  0  0  0  0
  -10.7100  -20.1380  -35.0130 C   0  0  0  0  0  0
   -7.4550  -16.2790  -32.9420 N   0  0  0  0  0  0
   -6.8070  -15.4280  -33.9350 C   0  0  2  0  0  0
   -5.5800  -14.7120  -33.3590 C   0  0  0  0  0  0
   -5.4750  -14.5110  -32.1500 O   0  0  0  0  0  0
   -7.8060  -14.4130  -34.4860 C   0  0  0  0  0  0
   -4.6420  -14.3660  -34.2380 N   0  0  0  0  0  0
   -3.4200  -13.6630  -33.8510 C   0  0  2  0  0  0
   -3.0400  -12.5600  -34.8250 C   0  0  0  0  0  0
   -3.4390  -12.5740  -35.9880 O   0  0  0  0  0  0
   -2.2050  -14.6130  -33.7650 C   0  0  2  0  0  0
   -2.0470  -15.3010  -35.0130 O   0  0  0  0  0  0
   -2.3470  -15.6160  -32.6110 C   0  0  0  0  0  0
   -2.2670  -11.5960  -34.3400 N   0  0  0  0  0  0
   -1.5890  -10.6690  -35.2330 C   0  0  2  0  0  0
   -0.2060  -11.2510  -35.5030 C   0  0  0  0  0  0
    0.6000  -11.4110  -34.5830 O   0  0  0  0  0  0
   -1.4880   -9.2740  -34.6210 C   0  0  0  0  0  0
   -3.0530   -8.6310  -33.9660 S   0  0  0  0  0  0
    0.0590  -11.5850  -36.7610 N   0  0  0  0  0  0
    1.2910  -12.2670  -37.1300 C   0  0  2  0  0  0
    2.2550  -11.2700  -37.7340 C   0  0  0  0  0  0
    1.8310  -10.2770  -38.3260 O   0  0  0  0  0  0
    1.0230  -13.4020  -38.1180 C   0  0  0  0  0  0
    0.1050  -14.4580  -37.5520 C   0  0  0  0  0  0
   -0.0130  -14.5330  -36.3150 O   0  0  0  0  0  0
   -0.5050  -15.2070  -38.3430 O   0  5  0  0  0  0
    3.5490  -11.5310  -37.5890 N   0  0  0  0  0  0
    4.5530  -10.6250  -38.1310 C   0  0  2  0  0  0
    4.7690  -10.8770  -39.6250 C   0  0  0  0  0  0
    5.5710  -10.1980  -40.2760 O   0  5  0  0  0  0
    5.8690  -10.7660  -37.3680 C   0  0  0  0  0  0
    6.3080  -12.1130  -37.3600 O   0  0  0  0  0  0
    4.1470  -11.7660  -40.2170 O   0  0  0  0  0  0
  -11.9351  -15.5967  -31.4110 H   0  0  0  0  0  0
  -10.7791  -16.7970  -32.0814 H   0  0  0  0  0  0
  -10.7515  -15.6753  -29.5465 H   0  0  0  0  0  0
  -11.0888  -18.2699  -28.5274 H   0  0  0  0  0  0
  -12.4518  -17.1021  -28.5995 H   0  0  0  0  0  0
  -11.7132  -19.3311  -30.5233 H   0  0  0  0  0  0
  -13.3257  -18.8927  -29.8643 H   0  0  0  0  0  0
  -13.5685  -17.0615  -31.3566 H   0  0  0  0  0  0
  -12.5167  -18.0991  -32.3782 H   0  0  0  0  0  0
   -9.7078  -17.5783  -32.0859 H   0  0  0  0  0  0
   -7.1821  -18.1557  -30.4819 H   0  0  0  0  0  0
   -6.7912  -19.9345  -32.4028 H   0  0  0  0  0  0
   -8.0227  -20.2983  -31.1467 H   0  0  0  0  0  0
   -7.5013  -19.1772  -34.6319 H   0  0  0  0  0  0
  -10.3049  -20.4773  -31.6790 H   0  0  0  0  0  0
   -9.2018  -19.4806  -36.3876 H   0  0  0  0  0  0
  -12.0145  -20.7768  -33.4326 H   0  0  0  0  0  0
  -11.4666  -20.2611  -35.7879 H   0  0  0  0  0  0
   -8.4672  -16.0364  -32.5863 H   0  0  0  0  0  0
   -6.4793  -16.1147  -34.7294 H   0  0  0  0  0  0
   -8.6791  -14.9427  -34.8948 H   0  0  0  0  0  0
   -7.3284  -13.8238  -35.2827 H   0  0  0  0  0  0
   -8.1301  -13.7414  -33.6773 H   0  0  0  0  0  0
   -4.8145  -14.6297  -35.2919 H   0  0  0  0  0  0
   -3.7054  -13.2422  -32.8755 H   0  0  0  0  0  0
   -1.2768  -14.0394  -33.6257 H   0  0  0  0  0  0
   -1.9317  -14.7291  -35.9455 H   0  0  0  0  0  0
   -2.4670  -15.0702  -31.6635 H   0  0  0  0  0  0
   -1.4467  -16.2459  -32.5598 H   0  0  0  0  0  0
   -3.2290  -16.2504  -32.7830 H   0  0  0  0  0  0
   -2.1416  -11.5020  -33.2512 H   0  0  0  0  0  0
   -2.1884  -10.5842  -36.1514 H   0  0  0  0  0  0
   -0.7724   -9.2910  -33.7858 H   0  0  0  0  0  0
   -1.1425   -8.5624  -35.3854 H   0  0  0  0  0  0
   -3.0873   -7.6334  -33.5037 H   0  0  0  0  0  0
   -0.6825  -11.3326  -37.5333 H   0  0  0  0  0  0
    1.6999  -12.6820  -36.1970 H   0  0  0  0  0  0
    0.5518  -12.9951  -39.0248 H   0  0  0  0  0  0
    1.9731  -13.8878  -38.3850 H   0  0  0  0  0  0
    3.8603  -12.4405  -37.0542 H   0  0  0  0  0  0
    4.1425   -9.6151  -37.9841 H   0  0  0  0  0  0
    6.6399  -10.1461  -37.8490 H   0  0  0  0  0  0
    5.7277  -10.4344  -36.3287 H   0  0  0  0  0  0
    7.2441  -12.3834  -36.8495 H   0  0  0  0  0  0
  1  2  1  0  0  0
  1  7  1  0  0  0
  1 52  1  0  0  0
  1 53  1  0  0  0
  2  3  1  0  0  0
  2  5  1  0  0  0
  2 54  1  0  0  0
  3  4  2  0  0  0
  3  8  1  0  0  0
  5  6  1  0  0  0
  5 55  1  0  0  0
  5 56  1  0  0  0
  6  7  1  0  0  0
  6 57  1  0  0  0
  6 58  1  0  0  0
  7 59  1  0  0  0
  7 60  1  0  0  0
  8  9  1  0  0  0
  8 61  1  0  0  0
  9 10  1  0  0  0
  9 12  1  0  0  0
  9 62  1  0  0  0
 10 11  2  0  0  0
 10 19  1  0  0  0
 12 13  1  0  0  0
 12 63  1  0  0  0
 12 64  1  0  0  0
 13 14  2  0  0  0
 13 15  1  0  0  0
 14 16  1  0  0  0
 14 65  1  0  0  0
 15 17  2  0  0  0
 15 66  1  0  0  0
 16 18  2  0  0  0
 16 67  1  0  0  0
 17 18  1  0  0  0
 17 68  1  0  0  0
 18 69  1  0  0  0
 19 20  1  0  0  0
 19 70  1  0  0  0
 20 21  1  0  0  0
 20 23  1  0  0  0
 20 71  1  0  0  0
 21 22  2  0  0  0
 21 24  1  0  0  0
 23 72  1  0  0  0
 23 73  1  0  0  0
 23 74  1  0  0  0
 24 25  1  0  0  0
 24 75  1  0  0  0
 25 26  1  0  0  0
 25 28  1  0  0  0
 25 76  1  0  0  0
 26 27  2  0  0  0
 26 31  1  0  0  0
 28 29  1  0  0  0
 28 30  1  0  0  0
 28 77  1  0  0  0
 29 78  1  0  0  0
 30 79  1  0  0  0
 30 80  1  0  0  0
 30 81  1  0  0  0
 31 32  1  0  0  0
 31 82  1  0  0  0
 32 33  1  0  0  0
 32 35  1  0  0  0
 32 83  1  0  0  0
 33 34  2  0  0  0
 33 37  1  0  0  0
 35 36  1  0  0  0
 35 84  1  0  0  0
 35 85  1  0  0  0
 36 86  1  0  0  0
 37 38  1  0  0  0
 37 87  1  0  0  0
 38 39  1  0  0  0
 38 41  1  0  0  0
 38 88  1  0  0  0
 39 40  2  0  0  0
 39 45  1  0  0  0
 41 42  1  0  0  0
 41 89  1  0  0  0
 41 90  1  0  0  0
 42 43  2  0  0  0
 42 44  1  0  0  0
 45 46  1  0  0  0
 45 91  1  0  0  0
 46 47  1  0  0  0
 46 49  1  0  0  0
 46 92  1  0  0  0
 47 48  1  0  0  0
 47 51  2  0  0  0
 49 50  1  0  0  0
 49 93  1  0  0  0
 49 94  1  0  0  0
 50 95  1  0  0  0
M  CHG  3   1   1  44  -1  48  -1
M  END
> <s_m_source_file>
../4tky_ligand.sdf

> <i_m_source_file_index>
1

> <s_epik_input>
W0NIMl0xW0NIMl1bQ0gyXVtOSDIrXVtDQEBIXTFDKD1PKVtOSF1bQ0BASF0oW0NIMl1jMltjSF1bY0hdW2NIXVtjSF1bY0hdMilDKD1PKVtOSF1bQ0BASF0oW0NIM10pQyg9TylbTkhdW0NAQEhdKFtDQEhdKFtPSF0pW0NIM10pQyg9TylbTkhdW0NAQEhdKFtDSDJdW1NIXSlDKD1PKVtOSF1bQ0BASF0oW0NIMl1DKD1PKVtPSF0pQyg9TylbTkhdW0NASF0oQyg9TylbT0hdKVtDSDJdW09IXQ==

> <s_epik_cmdline>
J2VwaWtfYXBwJywgJy1pbWFlJywgJ2xpZ2FuZF9wcm8ubWFlJywgJy1vbWFlJywgJ2xpZ2FuZF9wcmVwLm1hZScsICctbXMnLCAnMScsICctcGgnLCAnNycsICctcGh0JywgJzAuNScsICctbnQn

> <r_lp_tautomer_probability>
1

> <r_epik_Ionization_Penalty>
  0.0545

> <r_epik_Ionization_Penalty_Charging>
  0.0445

> <r_epik_Ionization_Penalty_Neutral>
  0.0100

> <r_epik_State_Penalty>
 -0.0000

> <r_epik_Charging_Adjusted_Penalty>
0.0444521071883071

> <i_epik_Tot_Q>
-1

> <i_epik_Tot_abs_Q>
3

$$$$
