4tlr_ligand
                    3D
 Schrodinger Suite 2020-3.
 63 65  0  0  1  0            999 V2000
    6.3900   30.1020    1.6690 C   0  0  0  0  0  0
    6.5360   32.4480    1.2380 C   0  0  0  0  0  0
    7.3870   33.7600    1.1410 C   0  0  2  0  0  0
    8.6730   33.6150    1.7890 O   0  0  0  0  0  0
    5.3110   32.4880    1.0170 O   0  0  0  0  0  0
    6.7070   27.9390   -1.3280 O   0  0  0  0  0  0
    8.3570   31.6680    4.4120 C   0  0  0  0  0  0
    6.6740   35.0250    1.6890 C   0  0  0  0  0  0
    5.5220   29.9100    2.7870 C   0  0  0  0  0  0
    4.8340   28.7430    2.6260 C   0  0  0  0  0  0
    6.2890   29.1380    0.6820 C   0  0  0  0  0  0
    6.9390   28.9150   -0.6220 C   0  0  0  0  0  0
    3.8950   28.2470    3.5350 C   0  0  0  0  0  0
    3.0620   27.8020    4.2880 C   0  0  0  0  0  0
    2.0610   27.3020    5.2370 C   0  0  0  0  0  0
    2.4440   25.8770    5.6960 C   0  0  0  0  0  0
    2.0740   28.2690    6.4320 C   0  0  0  0  0  0
    0.6750   27.3010    4.5640 C   0  0  0  0  0  0
    6.2060   34.9510    3.1420 C   0  0  1  0  0  0
    7.2890   35.3340    4.1650 C   0  0  0  0  0  0
    7.1730   31.2870    1.5770 N   0  0  0  0  0  0
    9.4010   32.4590    1.3720 C   0  0  0  0  0  0
    8.6560   31.1700    1.8270 C   0  0  1  0  0  0
    8.9490   30.7410    3.3030 C   0  0  0  0  0  0
   10.4550   30.4200    3.6040 C   0  0  0  0  0  0
   10.6630   29.8210    5.0230 C   0  0  0  0  0  0
   10.0180   30.7100    6.1270 C   0  0  0  0  0  0
    8.5330   31.0650    5.8270 C   0  0  0  0  0  0
    5.1550   27.8910    1.1630 S   0  0  0  0  0  0
    7.8100   29.8960   -0.9880 O   0  5  0  0  0  0
    5.0950   35.8080    3.2920 O   0  0  0  0  0  0
    7.6158   33.9180    0.0767 H   0  0  0  0  0  0
    8.8684   32.6416    4.3876 H   0  0  0  0  0  0
    7.2817   31.8141    4.2323 H   0  0  0  0  0  0
    7.3572   35.8852    1.6307 H   0  0  0  0  0  0
    5.7756   35.2289    1.0879 H   0  0  0  0  0  0
    5.4247   30.5884    3.6346 H   0  0  0  0  0  0
    3.4349   25.8994    6.1730 H   0  0  0  0  0  0
    2.4715   25.2061    4.8247 H   0  0  0  0  0  0
    1.6981   25.5112    6.4170 H   0  0  0  0  0  0
    3.0688   28.2585    6.9013 H   0  0  0  0  0  0
    1.3185   27.9539    7.1669 H   0  0  0  0  0  0
    1.8439   29.2864    6.0829 H   0  0  0  0  0  0
    0.6816   26.6053    3.7120 H   0  0  0  0  0  0
    0.4397   28.3148    4.2078 H   0  0  0  0  0  0
   -0.0857   26.9822    5.2918 H   0  0  0  0  0  0
    5.8636   33.9286    3.3599 H   0  0  0  0  0  0
    8.1555   34.6665    4.0489 H   0  0  0  0  0  0
    6.8835   35.2348    5.1827 H   0  0  0  0  0  0
    7.6024   36.3746    3.9950 H   0  0  0  0  0  0
    9.4907   32.4580    0.2757 H   0  0  0  0  0  0
   10.4046   32.4756    1.8220 H   0  0  0  0  0  0
    9.0263   30.3569    1.1853 H   0  0  0  0  0  0
    8.3839   29.7992    3.3631 H   0  0  0  0  0  0
   10.8281   29.6905    2.8702 H   0  0  0  0  0  0
   11.0476   31.3442    3.5361 H   0  0  0  0  0  0
   10.2026   28.8231    5.0708 H   0  0  0  0  0  0
   11.7398   29.7384    5.2319 H   0  0  0  0  0  0
   10.0477   30.1784    7.0896 H   0  0  0  0  0  0
   10.5776   31.6532    6.2116 H   0  0  0  0  0  0
    8.1941   31.7917    6.5800 H   0  0  0  0  0  0
    7.9357   30.1451    5.9105 H   0  0  0  0  0  0
    4.2152   35.6866    2.6430 H   0  0  0  0  0  0
  1  9  1  0  0  0
  1 11  2  0  0  0
  1 21  1  0  0  0
  2  3  1  0  0  0
  2  5  2  0  0  0
  2 21  1  0  0  0
  3  4  1  0  0  0
  3  8  1  0  0  0
  3 32  1  0  0  0
  4 22  1  0  0  0
  6 12  2  0  0  0
  7 24  1  0  0  0
  7 28  1  0  0  0
  7 33  1  0  0  0
  7 34  1  0  0  0
  8 19  1  0  0  0
  8 35  1  0  0  0
  8 36  1  0  0  0
  9 10  2  0  0  0
  9 37  1  0  0  0
 10 13  1  0  0  0
 10 29  1  0  0  0
 11 12  1  0  0  0
 11 29  1  0  0  0
 12 30  1  0  0  0
 13 14  3  0  0  0
 14 15  1  0  0  0
 15 16  1  0  0  0
 15 17  1  0  0  0
 15 18  1  0  0  0
 16 38  1  0  0  0
 16 39  1  0  0  0
 16 40  1  0  0  0
 17 41  1  0  0  0
 17 42  1  0  0  0
 17 43  1  0  0  0
 18 44  1  0  0  0
 18 45  1  0  0  0
 18 46  1  0  0  0
 19 20  1  0  0  0
 19 31  1  0  0  0
 19 47  1  0  0  0
 20 48  1  0  0  0
 20 49  1  0  0  0
 20 50  1  0  0  0
 21 23  1  0  0  0
 22 23  1  0  0  0
 22 51  1  0  0  0
 22 52  1  0  0  0
 23 24  1  0  0  0
 23 53  1  0  0  0
 24 25  1  0  0  0
 24 54  1  0  0  0
 25 26  1  0  0  0
 25 55  1  0  0  0
 25 56  1  0  0  0
 26 27  1  0  0  0
 26 57  1  0  0  0
 26 58  1  0  0  0
 27 28  1  0  0  0
 27 59  1  0  0  0
 27 60  1  0  0  0
 28 61  1  0  0  0
 28 62  1  0  0  0
 31 63  1  0  0  0
M  CHG  1  30  -1
M  END
> <s_m_source_file>
../4tlr_ligand.sdf

> <i_m_source_file_index>
1

> <s_epik_input>
Tz1DKFtPSF0pYzFzYyhDI0NDKFtDSDNdKShbQ0gzXSlbQ0gzXSlbY0hdYzFOMltDQEBIXShbQ0gyXU9bQ0BASF0oQzI9TylbQ0gyXVtDQEBIXShbQ0gzXSlbT0hdKVtDSF0zW0NIMl1bQ0gyXVtDSDJdW0NIMl1bQ0gyXTM=

> <s_epik_cmdline>
J2VwaWtfYXBwJywgJy1pbWFlJywgJ2xpZ2FuZF9wcm8ubWFlJywgJy1vbWFlJywgJ2xpZ2FuZF9wcmVwLm1hZScsICctbXMnLCAnMScsICctcGgnLCAnNycsICctcGh0JywgJzAuNScsICctbnQn

> <r_lp_tautomer_probability>
1

> <r_epik_Ionization_Penalty>
  0.0002

> <r_epik_Ionization_Penalty_Charging>
  0.0002

> <r_epik_Ionization_Penalty_Neutral>
  0.0000

> <r_epik_State_Penalty>
 -0.0000

> <r_epik_Charging_Adjusted_Penalty>
0.000192019177391969

> <i_epik_Tot_Q>
-1

> <i_epik_Tot_abs_Q>
1

$$$$
