4tmf_ligand
                    3D
 Schrodinger Suite 2020-3.
 54 56  0  0  1  0            999 V2000
    6.4510   -4.6980    2.9280 C   0  0  0  0  0  0
    4.7720   -3.2710    2.0240 C   0  0  0  0  0  0
    4.1260   -5.0760    3.3030 C   0  0  0  0  0  0
    0.0230    4.0120   -0.6210 O   0  0  0  0  0  0
    0.7130    3.1060    0.3060 C   0  0  1  0  0  0
    0.6140    1.6890   -0.1600 C   0  0  1  0  0  0
   -0.3980    1.6060   -1.1430 O   0  0  0  0  0  0
    1.9710    1.4350   -0.8420 C   0  0  1  0  0  0
    1.7430    1.4680   -2.1990 O   0  0  0  0  0  0
    2.8120    2.5710   -0.6600 O   0  0  0  0  0  0
    2.2580    3.3560    0.3910 C   0  0  2  0  0  0
    2.7940    2.8610    1.7300 C   0  0  0  0  0  0
    4.2420    2.9840    1.6590 O   0  0  0  0  0  0
    5.1510    4.0580    2.5290 P   0  0  2  0  0  0
    4.9060    3.7880    4.1950 O   0  5  0  0  0  0
    4.8910    5.4490    2.0360 O   0  0  0  0  0  0
    6.6950    3.5430    2.3000 O   0  0  0  0  0  0
    7.2720    2.6310    3.5010 P   0  0  2  0  0  0
    7.9160    3.6570    4.4540 O   0  5  0  0  0  0
    8.2890    1.6830    2.9740 O   0  0  0  0  0  0
    5.9120    1.9240    4.2810 O   0  0  0  0  0  0
    5.6610    0.5290    4.0530 C   0  0  0  0  0  0
    4.9940    0.3570    2.6780 C   0  0  0  0  0  0
    5.9210   -0.4270    1.6850 C   0  0  0  0  0  0
    5.1340   -1.2910    0.6520 C   0  0  0  0  0  0
    4.2300   -2.2900    1.3440 N   0  0  0  0  0  0
    6.0750   -3.5860    2.1750 N   0  0  0  0  0  0
    5.4960   -5.4260    3.4760 N   0  0  0  0  0  0
    3.2770   -5.7770    3.8280 O   0  0  0  0  0  0
    3.7860   -4.0060    2.5770 C   0  0  0  0  0  0
    2.5970   -3.4730    2.2440 N   0  0  0  0  0  0
    2.9060   -2.4080    1.4960 C   0  0  0  0  0  0
    2.0180   -1.5790    0.9590 N   0  0  0  0  0  0
    7.5013   -4.9580    3.0600 H   0  0  0  0  0  0
   -1.0647    3.9299   -0.7629 H   0  0  0  0  0  0
    0.1706    3.2933    1.2445 H   0  0  0  0  0  0
    0.3222    0.9792    0.6280 H   0  0  0  0  0  0
   -1.4508    1.7576   -0.8627 H   0  0  0  0  0  0
    2.4582    0.5031   -0.5192 H   0  0  0  0  0  0
    1.1105    0.7006   -2.6693 H   0  0  0  0  0  0
    2.5690    4.4019    0.2522 H   0  0  0  0  0  0
    2.3838    3.4809    2.5409 H   0  0  0  0  0  0
    2.4931    1.8138    1.8809 H   0  0  0  0  0  0
    6.6122   -0.0231    4.0749 H   0  0  0  0  0  0
    4.9949    0.1431    4.8387 H   0  0  0  0  0  0
    4.0544   -0.2032    2.7938 H   0  0  0  0  0  0
    4.7802    1.3466    2.2478 H   0  0  0  0  0  0
    6.5366    0.2863    1.1174 H   0  0  0  0  0  0
    6.5751   -1.1056    2.2522 H   0  0  0  0  0  0
    4.5138   -0.6357    0.0228 H   0  0  0  0  0  0
    5.8443   -1.8426    0.0185 H   0  0  0  0  0  0
    2.3580   -0.7247    0.3553 H   0  0  0  0  0  0
    0.9426   -1.7468    1.1180 H   0  0  0  0  0  0
    5.7545   -6.3128    4.0732 H   0  0  0  0  0  0
  1 27  2  0  0  0
  1 28  1  0  0  0
  1 34  1  0  0  0
  2 26  1  0  0  0
  2 27  1  0  0  0
  2 30  2  0  0  0
  3 28  1  0  0  0
  3 29  2  0  0  0
  3 30  1  0  0  0
  4  5  1  0  0  0
  4 35  1  0  0  0
  5  6  1  0  0  0
  5 11  1  0  0  0
  5 36  1  0  0  0
  6  7  1  0  0  0
  6  8  1  0  0  0
  6 37  1  0  0  0
  7 38  1  0  0  0
  8  9  1  0  0  0
  8 10  1  0  0  0
  8 39  1  0  0  0
  9 40  1  0  0  0
 10 11  1  0  0  0
 11 12  1  0  0  0
 11 41  1  0  0  0
 12 13  1  0  0  0
 12 42  1  0  0  0
 12 43  1  0  0  0
 13 14  1  0  0  0
 14 15  1  0  0  0
 14 16  2  0  0  0
 14 17  1  0  0  0
 17 18  1  0  0  0
 18 19  1  0  0  0
 18 20  2  0  0  0
 18 21  1  0  0  0
 21 22  1  0  0  0
 22 23  1  0  0  0
 22 44  1  0  0  0
 22 45  1  0  0  0
 23 24  1  0  0  0
 23 46  1  0  0  0
 23 47  1  0  0  0
 24 25  1  0  0  0
 24 48  1  0  0  0
 24 49  1  0  0  0
 25 26  1  0  0  0
 25 50  1  0  0  0
 25 51  1  0  0  0
 26 32  1  0  0  0
 28 54  1  0  0  0
 30 31  1  0  0  0
 31 32  2  0  0  0
 32 33  1  0  0  0
 33 52  1  0  0  0
 33 53  1  0  0  0
M  CHG  2  15  -1  19  -1
M  END
> <s_m_source_file>
../4tmf_ligand.sdf

> <i_m_source_file_index>
1

> <s_epik_input>
W25IXTFbY0hdbmMoPU8pYyhjMTIpbmMoW05IMl0pbjJbQ0gyXVtDSDJdW0NIMl1bQ0gyXU9bUEBdKD1PKShbT0hdKU9bUEBdKD1PKShbT0hdKU9bQ0gyXVtDQEhdM09bQ0BIXShbT0hdKVtDQEhdKFtPSF0pW0NAQEhdM1tPSF0=

> <s_epik_cmdline>
J2VwaWtfYXBwJywgJy1pbWFlJywgJ2xpZ2FuZF9wcm8ubWFlJywgJy1vbWFlJywgJ2xpZ2FuZF9wcmVwLm1hZScsICctbXMnLCAnMScsICctcGgnLCAnNycsICctcGh0JywgJzAuNScsICctbnQn

> <r_lp_tautomer_probability>
1

> <r_epik_Ionization_Penalty>
  0.0026

> <r_epik_Ionization_Penalty_Charging>
  0.0018

> <r_epik_Ionization_Penalty_Neutral>
  0.0008

> <r_epik_State_Penalty>
 -0.0000

> <r_epik_Charging_Adjusted_Penalty>
0.00182975676818924

> <i_epik_Tot_Q>
-2

> <i_epik_Tot_abs_Q>
2

> <s_epik_Chemistry_Notes>
This compound contains an acetal/aminal-like group ( X-CH(R)-Y where X, Y are N, S, or O) that may be acid/base labile, releasing an aldehyde.

$$$$
