4tmp_ligand
                    3D
 Schrodinger Suite 2020-3.
143142  0  0  1  0            999 V2000
    5.9760   24.6550   -9.0950 N   0  3  0  0  0  0
    6.2190   23.7950   -7.9410 C   0  0  2  0  0  0
    6.4230   24.6120   -6.6580 C   0  0  0  0  0  0
    6.9880   25.7140   -6.6690 O   0  0  0  0  0  0
    7.4640   22.8740   -8.1520 C   0  0  2  0  0  0
    7.6520   21.9980   -7.0090 O   0  0  0  0  0  0
    8.7550   23.7240   -8.4130 C   0  0  0  0  0  0
    5.9450   24.0560   -5.5490 N   0  0  0  0  0  0
    6.1010   24.6690   -4.2460 C   0  0  2  0  0  0
    7.4640   24.3470   -3.6180 C   0  0  0  0  0  0
    7.8500   24.9170   -2.5910 O   0  0  0  0  0  0
    4.9880   24.1890   -3.2980 C   0  0  0  0  0  0
    3.5680   24.5740   -3.6740 C   0  0  0  0  0  0
    2.5860   24.2950   -2.5280 C   0  0  0  0  0  0
    1.2000   24.8990   -2.7980 C   0  0  0  0  0  0
    0.4660   24.2400   -3.9410 N   0  3  0  0  0  0
    8.1750   23.4010   -4.2100 N   0  0  0  0  0  0
    9.3250   22.8000   -3.5470 C   0  0  2  0  0  0
   10.5840   23.6050   -3.7330 C   0  0  0  0  0  0
   10.7830   24.2470   -4.7530 O   0  0  0  0  0  0
    9.5810   21.3770   -4.0640 C   0  0  0  0  0  0
    8.9220   20.2770   -3.2570 C   0  0  0  0  0  0
    9.4810   18.8810   -3.6030 C   0  0  0  0  0  0
   10.7200   18.6180   -3.6370 O   0  0  0  0  0  0
    8.5710   17.9950   -3.8810 N   0  0  0  0  0  0
   11.4290   23.5380   -2.7220 N   0  0  0  0  0  0
   12.7600   24.0370   -2.7970 C   0  0  2  0  0  0
   13.5760   23.1490   -3.7340 C   0  0  0  0  0  0
   13.1120   22.1050   -4.2220 O   0  0  0  0  0  0
   13.4230   24.0380   -1.4070 C   0  0  2  0  0  0
   13.6410   22.6880   -0.9790 O   0  0  0  0  0  0
   12.5440   24.7390   -0.3980 C   0  0  0  0  0  0
   14.8160   23.5560   -3.9520 N   0  0  0  0  0  0
   15.7830   22.7080   -4.6210 C   0  0  2  0  0  0
   15.9850   21.4380   -3.8160 C   0  0  0  0  0  0
   15.7100   21.4210   -2.6240 O   0  0  0  0  0  0
   17.0910   23.4240   -4.7690 C   0  0  0  0  0  0
   16.5400   20.4100   -4.4640 N   0  0  0  0  0  0
   16.8310   19.1430   -3.8100 C   0  0  2  0  0  0
   18.2920   18.8670   -3.8850 C   0  0  0  0  0  0
   18.9360   19.3870   -4.7590 O   0  0  0  0  0  0
   16.0530   18.0090   -4.4800 C   0  0  0  0  0  0
   14.5520   18.2190   -4.3640 C   0  0  0  0  0  0
   13.7920   17.1020   -5.0020 C   0  0  0  0  0  0
   13.9820   15.8480   -4.2840 N   0  0  0  0  0  0
   13.2160   15.4130   -3.2950 C   0  0  0  0  0  0
   12.1860   16.1430   -2.8690 N   0  3  0  0  0  0
   13.5090   14.2480   -2.7090 N   0  0  0  0  0  0
   19.9090   20.6150    3.6460 O   0  0  0  0  0  0
   20.9570   19.9260    3.8500 C   0  0  0  0  0  0
   21.9350   20.2520    4.9460 C   0  0  0  0  0  0
   21.3160   18.8670    3.0590 N   0  0  0  0  0  0
   20.5000   18.4260    1.9590 C   0  0  0  0  0  0
   21.1840   18.4170    0.6060 C   0  0  0  0  0  0
   20.2970   17.8720   -0.4870 C   0  0  0  0  0  0
   21.0630   17.8330   -1.7740 C   0  0  0  0  0  0
   20.1810   17.5750   -3.0070 C   0  0  2  0  0  0
   18.8000   18.0250   -2.9890 N   0  0  0  0  0  0
   20.2140   16.0800   -3.2150 C   0  0  0  0  0  0
   19.2180   15.3650   -3.0930 O   0  0  0  0  0  0
   21.3800   15.5490   -3.5720 N   0  0  0  0  0  0
   21.4920   14.0790   -3.6840 C   0  0  2  0  0  0
   22.9040   13.5350   -3.4690 C   0  0  0  0  0  0
   23.9020   14.2430   -3.6550 O   0  0  0  0  0  0
   20.9640   13.6030   -5.0510 C   0  0  0  0  0  0
   21.2680   14.5470   -6.0780 O   0  0  0  0  0  0
   22.9700   12.2670   -3.0600 N   0  0  0  0  0  0
    5.0940   25.2840   -8.9042 H   0  0  0  0  0  0
    5.7974   24.0331   -9.9846 H   0  0  0  0  0  0
    6.8535   25.2960   -9.2658 H   0  0  0  0  0  0
    5.2885   23.2117   -7.8777 H   0  0  0  0  0  0
    7.2842   22.1865   -8.9916 H   0  0  0  0  0  0
    6.8389   21.3302   -6.6882 H   0  0  0  0  0  0
    8.5929   24.3799   -9.2811 H   0  0  0  0  0  0
    9.6021   23.0518   -8.6144 H   0  0  0  0  0  0
    8.9759   24.3368   -7.5266 H   0  0  0  0  0  0
    5.4155   23.0967   -5.6457 H   0  0  0  0  0  0
    6.0294   25.7468   -4.4539 H   0  0  0  0  0  0
    4.9988   23.0903   -3.2465 H   0  0  0  0  0  0
    5.1571   24.6048   -2.2937 H   0  0  0  0  0  0
    3.5297   25.6475   -3.9110 H   0  0  0  0  0  0
    3.2510   23.9930   -4.5526 H   0  0  0  0  0  0
    2.4686   23.2086   -2.4021 H   0  0  0  0  0  0
    2.9756   24.7320   -1.5967 H   0  0  0  0  0  0
    0.5729   24.7934   -1.9005 H   0  0  0  0  0  0
    1.3068   25.9650   -3.0473 H   0  0  0  0  0  0
   -0.5134   24.7227   -4.0747 H   0  0  0  0  0  0
    0.3213   23.1728   -3.7171 H   0  0  0  0  0  0
    1.0553   24.3444   -4.8639 H   0  0  0  0  0  0
    7.8861   23.0694   -5.2183 H   0  0  0  0  0  0
    9.0411   22.8132   -2.4844 H   0  0  0  0  0  0
    9.2001   21.2863   -5.0920 H   0  0  0  0  0  0
   10.6617   21.1721   -4.0540 H   0  0  0  0  0  0
    9.0928   20.4560   -2.1852 H   0  0  0  0  0  0
    7.8409   20.2707   -3.4600 H   0  0  0  0  0  0
    7.5063   18.2681   -3.8386 H   0  0  0  0  0  0
    8.8658   16.9723   -4.1587 H   0  0  0  0  0  0
   11.0675   23.0730   -1.7930 H   0  0  0  0  0  0
   12.6508   25.0599   -3.1867 H   0  0  0  0  0  0
   14.4099   24.5225   -1.4420 H   0  0  0  0  0  0
   14.2610   22.0119   -1.5860 H   0  0  0  0  0  0
   12.3720   25.7767   -0.7198 H   0  0  0  0  0  0
   13.0396   24.7370    0.5840 H   0  0  0  0  0  0
   11.5804   24.2137   -0.3235 H   0  0  0  0  0  0
   15.1072   24.5614   -3.6136 H   0  0  0  0  0  0
   15.3747   22.4869   -5.6182 H   0  0  0  0  0  0
   16.9413   24.3441   -5.3529 H   0  0  0  0  0  0
   17.8088   22.7725   -5.2888 H   0  0  0  0  0  0
   17.4830   23.6810   -3.7738 H   0  0  0  0  0  0
   16.7778   20.5465   -5.5293 H   0  0  0  0  0  0
   16.5356   19.2507   -2.7559 H   0  0  0  0  0  0
   16.3168   17.9638   -5.5469 H   0  0  0  0  0  0
   16.3092   17.0539   -3.9982 H   0  0  0  0  0  0
   14.2699   18.2700   -3.3020 H   0  0  0  0  0  0
   14.2736   19.1590   -4.8629 H   0  0  0  0  0  0
   12.7187   17.3429   -5.0038 H   0  0  0  0  0  0
   14.1391   16.9665   -6.0370 H   0  0  0  0  0  0
   14.8145   15.1811   -4.5527 H   0  0  0  0  0  0
   11.9516   17.1007   -3.3567 H   0  0  0  0  0  0
   14.3611   13.6513   -3.0667 H   0  0  0  0  0  0
   12.8981   13.8859   -1.8690 H   0  0  0  0  0  0
   21.5641   21.1107    5.5249 H   0  0  0  0  0  0
   22.9110   20.5016    4.5042 H   0  0  0  0  0  0
   22.0449   19.3820    5.6101 H   0  0  0  0  0  0
   22.2598   18.3495    3.2858 H   0  0  0  0  0  0
   20.1612   17.3959    2.1437 H   0  0  0  0  0  0
   19.6265   19.0875    1.8621 H   0  0  0  0  0  0
   21.4672   19.4439    0.3315 H   0  0  0  0  0  0
   22.0856   17.7887    0.6551 H   0  0  0  0  0  0
   19.9710   16.8554   -0.2219 H   0  0  0  0  0  0
   19.4164   18.5210   -0.6024 H   0  0  0  0  0  0
   21.5698   18.7970   -1.9284 H   0  0  0  0  0  0
   21.8114   17.0280   -1.7310 H   0  0  0  0  0  0
   20.5505   18.1991   -3.8341 H   0  0  0  0  0  0
   18.1153   17.6678   -2.2057 H   0  0  0  0  0  0
   22.2526   16.1847   -3.7826 H   0  0  0  0  0  0
   20.8727   13.7180   -2.8497 H   0  0  0  0  0  0
   21.4302   12.6407   -5.3092 H   0  0  0  0  0  0
   19.8722   13.4794   -4.9995 H   0  0  0  0  0  0
   20.9566   14.3513   -7.1147 H   0  0  0  0  0  0
   22.0465   11.6880   -2.9123 H   0  0  0  0  0  0
   23.9479   11.8004   -2.8705 H   0  0  0  0  0  0
   11.5701   15.7880   -2.0296 H   0  0  0  0  0  0
  1  2  1  0  0  0
  1 68  1  0  0  0
  1 69  1  0  0  0
  1 70  1  0  0  0
  2  3  1  0  0  0
  2  5  1  0  0  0
  2 71  1  0  0  0
  3  4  2  0  0  0
  3  8  1  0  0  0
  5  6  1  0  0  0
  5  7  1  0  0  0
  5 72  1  0  0  0
  6 73  1  0  0  0
  7 74  1  0  0  0
  7 75  1  0  0  0
  7 76  1  0  0  0
  8  9  1  0  0  0
  8 77  1  0  0  0
  9 10  1  0  0  0
  9 12  1  0  0  0
  9 78  1  0  0  0
 10 11  2  0  0  0
 10 17  1  0  0  0
 12 13  1  0  0  0
 12 79  1  0  0  0
 12 80  1  0  0  0
 13 14  1  0  0  0
 13 81  1  0  0  0
 13 82  1  0  0  0
 14 15  1  0  0  0
 14 83  1  0  0  0
 14 84  1  0  0  0
 15 16  1  0  0  0
 15 85  1  0  0  0
 15 86  1  0  0  0
 16 87  1  0  0  0
 16 88  1  0  0  0
 16 89  1  0  0  0
 17 18  1  0  0  0
 17 90  1  0  0  0
 18 19  1  0  0  0
 18 21  1  0  0  0
 18 91  1  0  0  0
 19 20  2  0  0  0
 19 26  1  0  0  0
 21 22  1  0  0  0
 21 92  1  0  0  0
 21 93  1  0  0  0
 22 23  1  0  0  0
 22 94  1  0  0  0
 22 95  1  0  0  0
 23 24  2  0  0  0
 23 25  1  0  0  0
 25 96  1  0  0  0
 25 97  1  0  0  0
 26 27  1  0  0  0
 26 98  1  0  0  0
 27 28  1  0  0  0
 27 30  1  0  0  0
 27 99  1  0  0  0
 28 29  2  0  0  0
 28 33  1  0  0  0
 30 31  1  0  0  0
 30 32  1  0  0  0
 30100  1  0  0  0
 31101  1  0  0  0
 32102  1  0  0  0
 32103  1  0  0  0
 32104  1  0  0  0
 33 34  1  0  0  0
 33105  1  0  0  0
 34 35  1  0  0  0
 34 37  1  0  0  0
 34106  1  0  0  0
 35 36  2  0  0  0
 35 38  1  0  0  0
 37107  1  0  0  0
 37108  1  0  0  0
 37109  1  0  0  0
 38 39  1  0  0  0
 38110  1  0  0  0
 39 40  1  0  0  0
 39 42  1  0  0  0
 39111  1  0  0  0
 40 41  2  0  0  0
 40 58  1  0  0  0
 42 43  1  0  0  0
 42112  1  0  0  0
 42113  1  0  0  0
 43 44  1  0  0  0
 43114  1  0  0  0
 43115  1  0  0  0
 44 45  1  0  0  0
 44116  1  0  0  0
 44117  1  0  0  0
 45 46  1  0  0  0
 45118  1  0  0  0
 46 47  2  0  0  0
 46 48  1  0  0  0
 47119  1  0  0  0
 47143  1  0  0  0
 48120  1  0  0  0
 48121  1  0  0  0
 49 50  2  0  0  0
 50 51  1  0  0  0
 50 52  1  0  0  0
 51122  1  0  0  0
 51123  1  0  0  0
 51124  1  0  0  0
 52 53  1  0  0  0
 52125  1  0  0  0
 53 54  1  0  0  0
 53126  1  0  0  0
 53127  1  0  0  0
 54 55  1  0  0  0
 54128  1  0  0  0
 54129  1  0  0  0
 55 56  1  0  0  0
 55130  1  0  0  0
 55131  1  0  0  0
 56 57  1  0  0  0
 56132  1  0  0  0
 56133  1  0  0  0
 57 58  1  0  0  0
 57 59  1  0  0  0
 57134  1  0  0  0
 58135  1  0  0  0
 59 60  2  0  0  0
 59 61  1  0  0  0
 61 62  1  0  0  0
 61136  1  0  0  0
 62 63  1  0  0  0
 62 65  1  0  0  0
 62137  1  0  0  0
 63 64  2  0  0  0
 63 67  1  0  0  0
 65 66  1  0  0  0
 65138  1  0  0  0
 65139  1  0  0  0
 66140  1  0  0  0
 67141  1  0  0  0
 67142  1  0  0  0
M  CHG  3   1   1  16   1  47   1
M  END
> <s_m_source_file>
../4tmp_ligand.sdf

> <i_m_source_file_index>
1

> <s_epik_input>
W09IXVtDQEhdKFtDSDNdKVtDQEhdKFtOSDMrXSlDKD1PKVtOSF1bQ0BASF0oW0NIMl1bQ0gyXVtDSDJdW0NIMl1bTkgzK10pQyg9TylbTkhdW0NAQEhdKFtDSDJdW0NIMl1DKD1PKVtOSDJdKUMoPU8pW05IXVtDQEBIXShbQ0BIXShbT0hdKVtDSDNdKUMoPU8pW05IXVtDQEBIXShbQ0gzXSlDKD1PKVtOSF1bQ0BASF0oW0NIMl1bQ0gyXVtDSDJdW05IXS9DKD1OXFtIXSlbTkgyXSlDKD1PKVtOSF1bQ0BIXShDKD1PKVtOSF1bQ0BIXShDKD1PKVtOSDJdKVtDSDJdW09IXSlbQ0gyXVtDSDJdW0NIMl1bQ0gyXVtOSF1DKD1PKVtDSDNd

> <s_epik_cmdline>
J2VwaWtfYXBwJywgJy1pbWFlJywgJ2xpZ2FuZF9wcm8ubWFlJywgJy1vbWFlJywgJ2xpZ2FuZF9wcmVwLm1hZScsICctbXMnLCAnMScsICctcGgnLCAnNycsICctcGh0JywgJzAuNScsICctbnQn

> <r_epik_Ionization_Penalty>
  0.0811

> <r_epik_Ionization_Penalty_Charging>
  0.0811

> <r_epik_Ionization_Penalty_Neutral>
  0.0000

> <r_epik_State_Penalty>
  0.0714

> <r_epik_Charging_Adjusted_Penalty>
0.152566791566201

> <i_epik_Tot_Q>
3

> <i_epik_Tot_abs_Q>
3

> <s_epik_Chemistry_Notes>
This compound has an imine and may undergo hydrolysis.

$$$$
