4tn2_ligand
                    3D
 Schrodinger Suite 2020-3.
 48 51  0  0  1  0            999 V2000
   35.0430  -72.4480  -12.7390 C   0  0  0  0  0  0
   34.0300  -71.4180  -12.3830 C   0  0  0  0  0  0
   32.7110  -69.6740  -11.0610 C   0  0  0  0  0  0
   35.9690  -72.6960  -11.7760 O   0  5  0  0  0  0
   35.0880  -72.9910  -13.8460 O   0  0  0  0  0  0
   30.6070  -71.8620  -14.5320 O   0  0  0  0  0  0
   35.0280  -68.6520  -16.4390 C   0  0  0  0  0  0
   35.4710  -67.1880  -16.3790 C   0  0  0  0  0  0
   34.3100  -66.2610  -16.7870 C   0  0  0  0  0  0
   33.1340  -66.3940  -15.8160 C   0  0  0  0  0  0
   32.6940  -67.8550  -15.6450 C   0  0  0  0  0  0
   32.1730  -68.7330  -10.0780 C   0  0  0  0  0  0
   32.5620  -68.7380   -8.7120 C   0  0  0  0  0  0
   32.0030  -67.8220   -7.7920 C   0  0  0  0  0  0
   31.0790  -66.8450   -8.2380 C   0  0  0  0  0  0
   30.6910  -66.7960   -9.5970 C   0  0  0  0  0  0
   31.2530  -67.7240  -10.5070 C   0  0  0  0  0  0
   34.0090  -70.8000  -10.7290 S   0  0  0  0  0  0
   32.3120  -69.7970  -12.3570 C   0  0  0  0  0  0
   33.0460  -70.7650  -13.1080 C   0  0  0  0  0  0
   32.6820  -70.9550  -14.4860 N   0  0  0  0  0  0
   31.7520  -71.7610  -14.9640 C   0  0  0  0  0  0
   32.3180  -72.3870  -16.2310 C   0  0  0  0  0  0
   33.4740  -71.4320  -16.5920 C   0  0  0  0  0  0
   33.0870  -70.2470  -15.6990 C   0  0  2  0  0  0
   33.8300  -68.9090  -15.4890 C   0  0  0  0  0  0
   34.7235  -68.9011  -17.4662 H   0  0  0  0  0  0
   35.8634  -69.3006  -16.1368 H   0  0  0  0  0  0
   35.7841  -66.9414  -15.3537 H   0  0  0  0  0  0
   36.3144  -67.0316  -17.0676 H   0  0  0  0  0  0
   34.6554  -65.2166  -16.7815 H   0  0  0  0  0  0
   33.9652  -66.5278  -17.7969 H   0  0  0  0  0  0
   33.4272  -66.0052  -14.8296 H   0  0  0  0  0  0
   32.2771  -65.8189  -16.1969 H   0  0  0  0  0  0
   32.0723  -67.9474  -14.7423 H   0  0  0  0  0  0
   32.1122  -68.1681  -16.5245 H   0  0  0  0  0  0
   33.3031  -69.4594   -8.3678 H   0  0  0  0  0  0
   32.2828  -67.8673   -6.7395 H   0  0  0  0  0  0
   30.6649  -66.1272   -7.5298 H   0  0  0  0  0  0
   29.9694  -66.0542   -9.9392 H   0  0  0  0  0  0
   30.9781  -67.6685  -11.5603 H   0  0  0  0  0  0
   31.5015  -69.2070  -12.7849 H   0  0  0  0  0  0
   32.6622  -73.4088  -16.0129 H   0  0  0  0  0  0
   31.5363  -72.4206  -17.0042 H   0  0  0  0  0  0
   34.4336  -71.9038  -16.3337 H   0  0  0  0  0  0
   33.4494  -71.2177  -17.6706 H   0  0  0  0  0  0
   32.3316  -69.6687  -16.2512 H   0  0  0  0  0  0
   34.3355  -68.8890  -14.5122 H   0  0  0  0  0  0
  1  2  1  0  0  0
  1  4  1  0  0  0
  1  5  2  0  0  0
  2 18  1  0  0  0
  2 20  2  0  0  0
  3 12  1  0  0  0
  3 18  1  0  0  0
  3 19  2  0  0  0
  6 22  2  0  0  0
  7  8  1  0  0  0
  7 26  1  0  0  0
  7 27  1  0  0  0
  7 28  1  0  0  0
  8  9  1  0  0  0
  8 29  1  0  0  0
  8 30  1  0  0  0
  9 10  1  0  0  0
  9 31  1  0  0  0
  9 32  1  0  0  0
 10 11  1  0  0  0
 10 33  1  0  0  0
 10 34  1  0  0  0
 11 26  1  0  0  0
 11 35  1  0  0  0
 11 36  1  0  0  0
 12 13  2  0  0  0
 12 17  1  0  0  0
 13 14  1  0  0  0
 13 37  1  0  0  0
 14 15  2  0  0  0
 14 38  1  0  0  0
 15 16  1  0  0  0
 15 39  1  0  0  0
 16 17  2  0  0  0
 16 40  1  0  0  0
 17 41  1  0  0  0
 19 20  1  0  0  0
 19 42  1  0  0  0
 20 21  1  0  0  0
 21 22  1  0  0  0
 21 25  1  0  0  0
 22 23  1  0  0  0
 23 24  1  0  0  0
 23 43  1  0  0  0
 23 44  1  0  0  0
 24 25  1  0  0  0
 24 45  1  0  0  0
 24 46  1  0  0  0
 25 26  1  0  0  0
 25 47  1  0  0  0
 26 48  1  0  0  0
M  CHG  1   4  -1
M  END
> <s_m_source_file>
../4tn2_ligand.sdf

> <i_m_source_file_index>
1

> <s_epik_input>
W2NIXTFbY0hdW2NIXVtjSF1bY0hdYzEtYyhzYzJDKD1PKVtPSF0pW2NIXWMyTjNDKD1PKVtDSDJdW0NIMl1bQ0BASF0zW0NIXTRbQ0gyXVtDSDJdW0NIMl1bQ0gyXVtDSDJdNA==

> <s_epik_cmdline>
J2VwaWtfYXBwJywgJy1pbWFlJywgJ2xpZ2FuZF9wcm8ubWFlJywgJy1vbWFlJywgJ2xpZ2FuZF9wcmVwLm1hZScsICctbXMnLCAnMScsICctcGgnLCAnNycsICctcGh0JywgJzAuNScsICctbnQn

> <r_lp_tautomer_probability>
1

> <r_epik_Ionization_Penalty>
  0.0003

> <r_epik_Ionization_Penalty_Charging>
  0.0002

> <r_epik_Ionization_Penalty_Neutral>
  0.0001

> <r_epik_State_Penalty>
 -0.0000

> <r_epik_Charging_Adjusted_Penalty>
0.000206247034999823

> <i_epik_Tot_Q>
-1

> <i_epik_Tot_abs_Q>
1

$$$$
