4tnw_ligand
                    3D
 Schrodinger Suite 2020-3.
 53 52  0  0  1  0            999 V2000
  -52.9820  -14.9140   29.8170 N   0  3  0  0  0  0
  -49.3710  -14.3420   33.0790 P   0  0  1  0  0  0
  -47.2420  -15.4650   31.9850 C   0  0  0  0  0  0
  -45.9260  -16.1510   32.3490 C   0  0  2  0  0  0
  -45.2990  -16.7270   31.0850 C   0  0  0  0  0  0
  -51.6760  -14.8250   31.8910 C   0  0  0  0  0  0
  -48.0560  -15.2730   33.1410 O   0  0  0  0  0  0
  -52.2940  -15.7270   30.8280 C   0  0  0  0  0  0
  -50.2880  -15.1270   32.0140 O   0  0  0  0  0  0
  -52.0670  -13.9000   29.2720 C   0  0  0  0  0  0
  -50.0700  -14.4120   34.4160 O   0  5  0  0  0  0
  -53.4470  -15.7830   28.7260 C   0  0  0  0  0  0
  -48.9950  -12.9970   32.5080 O   0  0  0  0  0  0
  -54.1300  -14.2520   30.4450 C   0  0  0  0  0  0
  -45.4160  -16.9880   34.5240 C   0  0  0  0  0  0
  -46.1190  -17.2220   33.2720 O   0  0  0  0  0  0
  -44.2020  -17.8120   34.8810 C   0  0  0  0  0  0
  -45.8280  -16.1380   35.2940 O   0  0  0  0  0  0
  -43.2720  -16.9710   35.7480 C   0  0  0  0  0  0
  -42.2050  -17.8310   36.4150 C   0  0  0  0  0  0
  -41.3850  -18.6050   35.3900 C   0  0  0  0  0  0
  -40.3980  -19.5400   36.0790 C   0  0  0  0  0  0
  -43.9320  -17.0450   31.3420 O   0  0  0  0  0  0
  -47.0316  -14.4835   31.5350 H   0  0  0  0  0  0
  -47.7933  -16.0878   31.2652 H   0  0  0  0  0  0
  -45.2717  -15.4381   32.8720 H   0  0  0  0  0  0
  -45.8405  -17.6377   30.7893 H   0  0  0  0  0  0
  -45.3594  -15.9853   30.2749 H   0  0  0  0  0  0
  -51.7998  -13.7726   31.5959 H   0  0  0  0  0  0
  -52.1777  -14.9970   32.8547 H   0  0  0  0  0  0
  -53.0155  -16.4065   31.3051 H   0  0  0  0  0  0
  -51.4992  -16.3156   30.3464 H   0  0  0  0  0  0
  -51.2064  -14.3978   28.8013 H   0  0  0  0  0  0
  -51.7142  -13.2493   30.0857 H   0  0  0  0  0  0
  -52.5960  -13.2944   28.5214 H   0  0  0  0  0  0
  -52.5832  -16.2776   28.2577 H   0  0  0  0  0  0
  -53.9747  -15.1774   27.9745 H   0  0  0  0  0  0
  -54.1309  -16.5441   29.1297 H   0  0  0  0  0  0
  -53.7780  -13.6030   31.2604 H   0  0  0  0  0  0
  -54.8146  -15.0116   30.8504 H   0  0  0  0  0  0
  -54.6584  -13.6449   29.6952 H   0  0  0  0  0  0
  -44.5173  -18.7085   35.4350 H   0  0  0  0  0  0
  -43.6804  -18.1142   33.9609 H   0  0  0  0  0  0
  -42.7719  -16.2159   35.1237 H   0  0  0  0  0  0
  -43.8567  -16.4689   36.5329 H   0  0  0  0  0  0
  -41.5229  -17.1880   36.9906 H   0  0  0  0  0  0
  -42.6860  -18.5533   37.0910 H   0  0  0  0  0  0
  -42.0580  -19.2036   34.7585 H   0  0  0  0  0  0
  -40.8235  -17.8988   34.7608 H   0  0  0  0  0  0
  -39.8192  -20.0863   35.3197 H   0  0  0  0  0  0
  -40.9485  -20.2567   36.7061 H   0  0  0  0  0  0
  -39.7140  -18.9518   36.7084 H   0  0  0  0  0  0
  -43.3080  -17.4749   30.5446 H   0  0  0  0  0  0
  1  8  1  0  0  0
  1 10  1  0  0  0
  1 12  1  0  0  0
  1 14  1  0  0  0
  2  7  1  0  0  0
  2  9  1  0  0  0
  2 11  1  0  0  0
  2 13  2  0  0  0
  3  4  1  0  0  0
  3  7  1  0  0  0
  3 24  1  0  0  0
  3 25  1  0  0  0
  4  5  1  0  0  0
  4 16  1  0  0  0
  4 26  1  0  0  0
  5 23  1  0  0  0
  5 27  1  0  0  0
  5 28  1  0  0  0
  6  8  1  0  0  0
  6  9  1  0  0  0
  6 29  1  0  0  0
  6 30  1  0  0  0
  8 31  1  0  0  0
  8 32  1  0  0  0
 10 33  1  0  0  0
 10 34  1  0  0  0
 10 35  1  0  0  0
 12 36  1  0  0  0
 12 37  1  0  0  0
 12 38  1  0  0  0
 14 39  1  0  0  0
 14 40  1  0  0  0
 14 41  1  0  0  0
 15 16  1  0  0  0
 15 17  1  0  0  0
 15 18  2  0  0  0
 17 19  1  0  0  0
 17 42  1  0  0  0
 17 43  1  0  0  0
 19 20  1  0  0  0
 19 44  1  0  0  0
 19 45  1  0  0  0
 20 21  1  0  0  0
 20 46  1  0  0  0
 20 47  1  0  0  0
 21 22  1  0  0  0
 21 48  1  0  0  0
 21 49  1  0  0  0
 22 50  1  0  0  0
 22 51  1  0  0  0
 22 52  1  0  0  0
 23 53  1  0  0  0
M  CHG  2   1   1  11  -1
M  END
> <s_m_source_file>
../4tnw_ligand.sdf

> <i_m_source_file_index>
1

> <s_epik_input>
W0NIM11bTitdKFtDSDNdKShbQ0gzXSlbQ0gyXVtDSDJdT1tQQEBdKD1PKShbT0hdKU9bQ0gyXVtDQEhdKFtDSDJdW09IXSlPQyg9TylbQ0gyXVtDSDJdW0NIMl1bQ0gyXVtDSDNd

> <s_epik_cmdline>
J2VwaWtfYXBwJywgJy1pbWFlJywgJ2xpZ2FuZF9wcm8ubWFlJywgJy1vbWFlJywgJ2xpZ2FuZF9wcmVwLm1hZScsICctbXMnLCAnMScsICctcGgnLCAnNycsICctcGh0JywgJzAuNScsICctbnQn

> <r_lp_tautomer_probability>
1

> <r_epik_Ionization_Penalty>
  0.0002

> <r_epik_Ionization_Penalty_Charging>
  0.0002

> <r_epik_Ionization_Penalty_Neutral>
  0.0000

> <r_epik_State_Penalty>
 -0.0000

> <r_epik_Charging_Adjusted_Penalty>
0.000150562066346085

> <i_epik_Tot_Q>
0

> <i_epik_Tot_abs_Q>
2

> <s_epik_Chemistry_Notes>
This compound has an ester and may undergo hydrolysis at high or low pH.

$$$$
