4to8_ligand
                    3D
 Schrodinger Suite 2020-3.
 18 17  0  0  1  0            999 V2000
   14.1110   27.4880    7.8970 C   0  0  0  0  0  0
   15.1820   27.8310    6.8710 C   0  0  0  0  0  0
   15.4870   26.8800    5.7240 C   0  0  0  0  0  0
   14.2780   26.5890    4.8400 C   0  0  0  0  0  0
   16.5660   27.5670    4.9280 C   0  0  0  0  0  0
   17.3070   26.6260    4.0060 C   0  0  0  0  0  0
   13.2380   28.3580    8.1710 O   0  5  0  0  0  0
   14.0910   26.3810    8.5020 O   0  0  0  0  0  0
   14.0940   25.4040    4.4450 O   0  5  0  0  0  0
   13.4610   27.4900    4.5020 O   0  0  0  0  0  0
   18.3050   27.0840    3.4020 O   0  0  0  0  0  0
   16.9410   25.4180    3.8450 O   0  5  0  0  0  0
   16.0200   25.6490    6.1700 O   0  0  0  0  0  0
   14.9178   28.7716    6.3657 H   0  0  0  0  0  0
   16.1515   27.9467    7.3776 H   0  0  0  0  0  0
   16.1176   28.3581    4.3091 H   0  0  0  0  0  0
   17.3016   28.0113    5.6146 H   0  0  0  0  0  0
   15.4033   24.9705    6.7777 H   0  0  0  0  0  0
  1  2  1  0  0  0
  1  7  1  0  0  0
  1  8  2  0  0  0
  2  3  1  0  0  0
  2 14  1  0  0  0
  2 15  1  0  0  0
  3  4  1  0  0  0
  3  5  1  0  0  0
  3 13  1  0  0  0
  4  9  1  0  0  0
  4 10  2  0  0  0
  5  6  1  0  0  0
  5 16  1  0  0  0
  5 17  1  0  0  0
  6 11  2  0  0  0
  6 12  1  0  0  0
 13 18  1  0  0  0
M  CHG  3   7  -1   9  -1  12  -1
M  END
> <s_m_source_file>
../4to8_ligand.sdf

> <i_m_source_file_index>
1

> <s_epik_input>
W09IXUMoPU8pW0NIMl1DKFtPSF0pKEMoPU8pW09IXSlbQ0gyXUMoPU8pW09IXQ==

> <s_epik_cmdline>
J2VwaWtfYXBwJywgJy1pbWFlJywgJ2xpZ2FuZF9wcm8ubWFlJywgJy1vbWFlJywgJ2xpZ2FuZF9wcmVwLm1hZScsICctbXMnLCAnMScsICctcGgnLCAnNycsICctcGh0JywgJzAuNScsICctbnQn

> <r_lp_tautomer_probability>
1

> <r_epik_Ionization_Penalty>
  0.0046

> <r_epik_Ionization_Penalty_Charging>
  0.0046

> <r_epik_Ionization_Penalty_Neutral>
  0.0000

> <r_epik_State_Penalty>
 -0.0000

> <r_epik_Charging_Adjusted_Penalty>
0.0045906918398983

> <i_epik_Tot_Q>
-3

> <i_epik_Tot_abs_Q>
3

$$$$
