4tpk_ligand
                    3D
 Schrodinger Suite 2020-3.
 68 72  0  0  1  0            999 V2000
    3.5390    8.2650   13.9450 N   0  0  0  0  0  0
    4.9610   14.4790    8.5290 C   0  0  0  0  0  0
    1.7280   13.0550   17.6800 C   0  0  0  0  0  0
    1.1350   10.4000   18.3660 C   0  0  0  0  0  0
    2.3420   12.3330   15.4740 C   0  0  0  0  0  0
    2.4940   11.3070   14.5450 C   0  0  0  0  0  0
    4.6970   13.2930    9.1980 C   0  0  0  0  0  0
    1.5930   10.7080   17.0920 C   0  0  0  0  0  0
    6.5500   13.6240   10.5810 C   0  0  0  0  0  0
    2.3840    8.9700   13.9090 C   0  0  0  0  0  0
    7.8260   10.4530   15.0880 C   0  0  0  0  0  0
    6.6750    9.5960   15.5720 C   0  0  0  0  0  0
    7.2930   11.6120   14.2530 C   0  0  0  0  0  0
    5.8410    9.1270   14.3940 C   0  0  1  0  0  0
    4.5890    8.4610   14.9640 C   0  0  0  0  0  0
    3.2930    5.8740   13.5030 C   0  0  0  0  0  0
    1.2710   12.7430   18.9560 C   0  0  0  0  0  0
    0.9760   11.4240   19.2940 C   0  0  0  0  0  0
    6.0530   15.2330    8.9230 C   0  0  0  0  0  0
    6.8420   14.7710    9.9670 C   0  0  0  0  0  0
    1.7550    9.6890   16.1600 C   0  0  0  0  0  0
    1.8880   12.0330   16.7490 C   0  0  0  0  0  0
    2.2170    9.9780   14.8750 C   0  0  0  0  0  0
    5.4820   12.8870   10.1990 C   0  0  0  0  0  0
    7.2020   12.9730   11.6340 C   0  0  0  0  0  0
    5.4120   11.7370   10.9980 C   0  0  0  0  0  0
    5.4330   10.3150   13.5490 C   0  0  0  0  0  0
    6.0790   12.2120   12.2570 C   0  0  0  0  0  0
    3.8070    7.2080   12.9620 C   0  0  0  0  0  0
    6.5730   11.0990   13.0830 N   0  3  1  0  0  0
    1.5250    8.7740   13.0490 O   0  0  0  0  0  0
    1.8690    5.9110   13.5120 O   0  0  0  0  0  0
    1.4040    4.7660   14.2300 C   0  0  0  0  0  0
    4.3221   14.8103    7.7104 H   0  0  0  0  0  0
    1.9578   14.0864   17.4127 H   0  0  0  0  0  0
    0.9031    9.3696   18.6354 H   0  0  0  0  0  0
    2.5776   13.3617   15.2015 H   0  0  0  0  0  0
    2.8366   11.5460   13.5382 H   0  0  0  0  0  0
    3.8404   12.6865    8.9038 H   0  0  0  0  0  0
    8.3757   10.8515   15.9535 H   0  0  0  0  0  0
    8.5036    9.8432   14.4724 H   0  0  0  0  0  0
    7.0700    8.7191   16.1059 H   0  0  0  0  0  0
    6.0405   10.1839   16.2516 H   0  0  0  0  0  0
    6.6067   12.2180   14.8627 H   0  0  0  0  0  0
    8.1327   12.2372   13.9153 H   0  0  0  0  0  0
    6.4180    8.4348   13.7632 H   0  0  0  0  0  0
    4.2023    9.1013   15.7705 H   0  0  0  0  0  0
    4.8835    7.4859   15.3793 H   0  0  0  0  0  0
    3.6441    5.0564   12.8563 H   0  0  0  0  0  0
    3.6719    5.7221   14.5244 H   0  0  0  0  0  0
    1.1431   13.5340   19.6949 H   0  0  0  0  0  0
    0.6167   11.1919   20.2966 H   0  0  0  0  0  0
    6.2888   16.1722    8.4225 H   0  0  0  0  0  0
    7.7076   15.3506   10.2877 H   0  0  0  0  0  0
    1.5203    8.6604   16.4339 H   0  0  0  0  0  0
    7.9943   12.3255   11.2303 H   0  0  0  0  0  0
    7.6469   13.7201   12.3077 H   0  0  0  0  0  0
    4.3588   11.4541   11.1419 H   0  0  0  0  0  0
    5.9485   10.9138   10.5036 H   0  0  0  0  0  0
    4.8836    9.9635   12.6632 H   0  0  0  0  0  0
    4.7875   10.9812   14.1403 H   0  0  0  0  0  0
    5.4432   12.7655   12.9637 H   0  0  0  0  0  0
    3.2933    7.4457   12.0188 H   0  0  0  0  0  0
    4.8901    7.1402   12.7826 H   0  0  0  0  0  0
    7.2508   10.4746   12.4824 H   0  0  0  0  0  0
    0.3042    4.7692   14.2527 H   0  0  0  0  0  0
    1.7920    4.7959   15.2588 H   0  0  0  0  0  0
    1.7579    3.8518   13.7311 H   0  0  0  0  0  0
  1 10  1  0  0  0
  1 15  1  0  0  0
  1 29  1  0  0  0
  2  7  2  0  0  0
  2 19  1  0  0  0
  2 34  1  0  0  0
  3 17  2  0  0  0
  3 22  1  0  0  0
  3 35  1  0  0  0
  4  8  1  0  0  0
  4 18  2  0  0  0
  4 36  1  0  0  0
  5  6  1  0  0  0
  5 22  2  0  0  0
  5 37  1  0  0  0
  6 23  2  0  0  0
  6 38  1  0  0  0
  7 24  1  0  0  0
  7 39  1  0  0  0
  8 21  2  0  0  0
  8 22  1  0  0  0
  9 20  1  0  0  0
  9 24  2  0  0  0
  9 25  1  0  0  0
 10 23  1  0  0  0
 10 31  2  0  0  0
 11 12  1  0  0  0
 11 13  1  0  0  0
 11 40  1  0  0  0
 11 41  1  0  0  0
 12 14  1  0  0  0
 12 42  1  0  0  0
 12 43  1  0  0  0
 13 30  1  0  0  0
 13 44  1  0  0  0
 13 45  1  0  0  0
 14 15  1  0  0  0
 14 27  1  0  0  0
 14 46  1  0  0  0
 15 47  1  0  0  0
 15 48  1  0  0  0
 16 29  1  0  0  0
 16 32  1  0  0  0
 16 49  1  0  0  0
 16 50  1  0  0  0
 17 18  1  0  0  0
 17 51  1  0  0  0
 18 52  1  0  0  0
 19 20  2  0  0  0
 19 53  1  0  0  0
 20 54  1  0  0  0
 21 23  1  0  0  0
 21 55  1  0  0  0
 24 26  1  0  0  0
 25 28  1  0  0  0
 25 56  1  0  0  0
 25 57  1  0  0  0
 26 28  1  0  0  0
 26 58  1  0  0  0
 26 59  1  0  0  0
 27 30  1  0  0  0
 27 60  1  0  0  0
 27 61  1  0  0  0
 28 30  1  0  0  0
 28 62  1  0  0  0
 29 63  1  0  0  0
 29 64  1  0  0  0
 30 65  1  0  0  0
 32 33  1  0  0  0
 33 66  1  0  0  0
 33 67  1  0  0  0
 33 68  1  0  0  0
M  CHG  1  30   1
M  END
> <s_m_source_file>
../4tpk_ligand.sdf

> <i_m_source_file_index>
1

> <s_epik_input>
W2NIXTFbY0hdW2NIXVtjSF1jKGMxMilbY0hdW2NIXWMoW2NIXTIpQyg9TylOKFtDSDJdW0NIMl1PW0NIM10pW0NIMl1bQ0BASF0zW0NIMl1bQ0gyXVtDSDJdW05AQEgrXShbQ0gyXTMpW0NIXShbQ0gyXTQpW0NIMl1jKGM0NSlbY0hdW2NIXVtjSF1bY0hdNQ==

> <s_epik_cmdline>
J2VwaWtfYXBwJywgJy1pbWFlJywgJ2xpZ2FuZF9wcm8ubWFlJywgJy1vbWFlJywgJ2xpZ2FuZF9wcmVwLm1hZScsICctbXMnLCAnMScsICctcGgnLCAnNycsICctcGh0JywgJzAuNScsICctbnQn

> <r_lp_tautomer_probability>
1

> <r_epik_Ionization_Penalty>
  0.0023

> <r_epik_Ionization_Penalty_Charging>
  0.0023

> <r_epik_Ionization_Penalty_Neutral>
  0.0000

> <r_epik_State_Penalty>
 -0.0000

> <r_epik_Charging_Adjusted_Penalty>
0.00228385218905876

> <i_epik_Tot_Q>
1

> <i_epik_Tot_abs_Q>
1

$$$$
