4tpm_ligand
                    3D
 Schrodinger Suite 2020-3.
 55 59  0  0  1  0            999 V2000
   15.7780   84.8110   34.8540 O   0  0  0  0  0  0
   14.8070   85.6790   34.3140 C   0  0  0  0  0  0
   14.1710   86.7590   35.2450 C   0  0  0  0  0  0
   14.0930   86.3150   36.6420 C   0  0  0  0  0  0
   13.5880   87.3990   37.5250 C   0  0  0  0  0  0
   12.3910   88.1580   37.0410 N   0  0  0  0  0  0
   12.2260   88.2370   35.5940 C   0  0  0  0  0  0
   12.8120   87.1310   34.7780 C   0  0  0  0  0  0
   11.6600   88.9320   38.0470 C   0  0  0  0  0  0
   10.5110   89.5100   37.6540 N   0  0  0  0  0  0
    9.7500   90.2530   38.5230 C   0  0  0  0  0  0
   10.2020   90.4080   39.8610 C   0  0  0  0  0  0
   11.3630   89.8330   40.2660 N   0  0  0  0  0  0
   12.1220   89.1010   39.4070 C   0  0  0  0  0  0
   13.3210   88.5130   39.8360 O   0  0  0  0  0  0
   13.9630   89.2440   40.8310 C   0  0  0  0  0  0
   15.3680   88.7890   41.0160 C   0  0  0  0  0  0
   15.0250   88.2200   42.3290 N   0  0  0  0  0  0
   13.6220   88.6720   42.1380 C   0  0  0  0  0  0
   15.9010   88.2740   43.4750 C   0  0  0  0  0  0
   15.3410   88.1990   44.7440 C   0  0  0  0  0  0
   16.1870   88.2700   45.8850 C   0  0  0  0  0  0
   17.6050   88.4220   45.7080 C   0  0  0  0  0  0
   18.4780   88.4970   46.8360 C   0  0  0  0  0  0
   19.8620   88.6500   46.6410 C   0  0  0  0  0  0
   20.3890   88.7300   45.3220 C   0  0  0  0  0  0
   19.5370   88.6550   44.2290 C   0  0  0  0  0  0
   18.1140   88.4960   44.4260 C   0  0  0  0  0  0
   17.2600   88.4230   43.3160 N   0  3  0  0  0  0
   16.2415   84.0413   34.2194 H   0  0  0  0  0  0
   15.2469   86.2495   33.4828 H   0  0  0  0  0  0
   13.9543   85.0907   33.9441 H   0  0  0  0  0  0
   14.7990   87.6621   35.2458 H   0  0  0  0  0  0
   13.4098   85.4561   36.7161 H   0  0  0  0  0  0
   15.0938   86.0184   36.9889 H   0  0  0  0  0  0
   13.2993   86.9747   38.4979 H   0  0  0  0  0  0
   14.3782   88.1499   37.6724 H   0  0  0  0  0  0
   11.1541   88.2476   35.3472 H   0  0  0  0  0  0
   12.6972   89.1583   35.2210 H   0  0  0  0  0  0
   12.8627   87.4648   33.7311 H   0  0  0  0  0  0
   12.1469   86.2581   34.8527 H   0  0  0  0  0  0
    8.8190   90.7140   38.1931 H   0  0  0  0  0  0
    9.6124   90.9927   40.5672 H   0  0  0  0  0  0
   13.7154   90.2754   40.5394 H   0  0  0  0  0  0
   15.6376   88.0934   40.2076 H   0  0  0  0  0  0
   16.0413   89.6585   40.9913 H   0  0  0  0  0  0
   13.2440   89.4663   42.7985 H   0  0  0  0  0  0
   12.8472   87.9017   42.0103 H   0  0  0  0  0  0
   14.2635   88.0868   44.8641 H   0  0  0  0  0  0
   15.7626   88.2095   46.8872 H   0  0  0  0  0  0
   18.0722   88.4358   47.8458 H   0  0  0  0  0  0
   20.5307   88.7073   47.4999 H   0  0  0  0  0  0
   21.4616   88.8502   45.1699 H   0  0  0  0  0  0
   19.9422   88.7162   43.2190 H   0  0  0  0  0  0
   17.6919   88.4867   42.3064 H   0  0  0  0  0  0
  1  2  1  0  0  0
  1 30  1  0  0  0
  2  3  1  0  0  0
  2 31  1  0  0  0
  2 32  1  0  0  0
  3  4  1  0  0  0
  3  8  1  0  0  0
  3 33  1  0  0  0
  4  5  1  0  0  0
  4 34  1  0  0  0
  4 35  1  0  0  0
  5  6  1  0  0  0
  5 36  1  0  0  0
  5 37  1  0  0  0
  6  7  1  0  0  0
  6  9  1  0  0  0
  7  8  1  0  0  0
  7 38  1  0  0  0
  7 39  1  0  0  0
  8 40  1  0  0  0
  8 41  1  0  0  0
  9 10  2  0  0  0
  9 14  1  0  0  0
 10 11  1  0  0  0
 11 12  2  0  0  0
 11 42  1  0  0  0
 12 13  1  0  0  0
 12 43  1  0  0  0
 13 14  2  0  0  0
 14 15  1  0  0  0
 15 16  1  0  0  0
 16 17  1  0  0  0
 16 19  1  0  0  0
 16 44  1  0  0  0
 17 18  1  0  0  0
 17 45  1  0  0  0
 17 46  1  0  0  0
 18 19  1  0  0  0
 18 20  1  0  0  0
 19 47  1  0  0  0
 19 48  1  0  0  0
 20 21  2  0  0  0
 20 29  1  0  0  0
 21 22  1  0  0  0
 21 49  1  0  0  0
 22 23  2  0  0  0
 22 50  1  0  0  0
 23 24  1  0  0  0
 23 28  1  0  0  0
 24 25  2  0  0  0
 24 51  1  0  0  0
 25 26  1  0  0  0
 25 52  1  0  0  0
 26 27  2  0  0  0
 26 53  1  0  0  0
 27 28  1  0  0  0
 27 54  1  0  0  0
 28 29  2  0  0  0
 29 55  1  0  0  0
M  CHG  1  29   1
M  END
> <s_m_source_file>
../4tpm_ligand.sdf

> <i_m_source_file_index>
1

> <s_epik_input>
W09IXVtDSDJdW0NIXTFbQ0gyXVtDSDJdTihbQ0gyXVtDSDJdMSljMm5bY0hdW2NIXW5jMk9bQ0hdM1tDSDJdTihbQ0gyXTMpYyhbY0hdW2NIXTQpbmMoYzQ1KVtjSF1bY0hdW2NIXVtjSF01

> <s_epik_cmdline>
J2VwaWtfYXBwJywgJy1pbWFlJywgJ2xpZ2FuZF9wcm8ubWFlJywgJy1vbWFlJywgJ2xpZ2FuZF9wcmVwLm1hZScsICctbXMnLCAnMScsICctcGgnLCAnNycsICctcGh0JywgJzAuNScsICctbnQn

> <r_lp_tautomer_probability>
1

> <r_epik_Ionization_Penalty>
  0.2065

> <r_epik_Ionization_Penalty_Charging>
  0.2048

> <r_epik_Ionization_Penalty_Neutral>
  0.0017

> <r_epik_State_Penalty>
  0.1948

> <r_epik_Charging_Adjusted_Penalty>
0.399573109845722

> <i_epik_Tot_Q>
1

> <i_epik_Tot_abs_Q>
1

$$$$
