4tpw_ligand
                    3D
 Schrodinger Suite 2020-3.
 40 42  0  0  1  0            999 V2000
   -1.8850    2.0190    3.8160 C   0  0  0  0  0  0
    0.4630    2.1630    3.3270 C   0  0  0  0  0  0
   -0.3000    2.1490    5.6150 C   0  0  0  0  0  0
   -1.6090    2.0570    5.1830 C   0  0  0  0  0  0
   -5.5180    1.6460   -2.7960 C   0  0  0  0  0  0
    2.4130    2.3060    5.2090 Cl  0  0  0  0  0  0
    0.0160    2.1970    7.2920 Cl  0  0  0  0  0  0
   -6.1210    0.4710   -4.8090 C   0  0  0  0  0  0
   -7.2220    1.2780   -4.9420 C   0  0  0  0  0  0
   -7.4910    2.2880   -3.9950 C   0  0  0  0  0  0
   -8.7020    3.1280   -4.2080 N   0  3  0  0  0  0
   -8.6340    4.3310   -4.1940 O   0  0  0  0  0  0
   -9.7620    2.5950   -4.4180 O   0  5  0  0  0  0
   -6.6310    2.4660   -2.9220 C   0  0  0  0  0  0
   -6.8320    3.4900   -1.8900 C   0  0  0  0  0  0
   -7.5340    3.0750   -0.5930 C   0  0  0  0  0  0
   -6.8160    2.6940    0.4910 N   0  0  0  0  0  0
   -5.4870    2.8490    0.6130 N   0  0  0  0  0  0
   -4.8710    2.3730    1.8180 C   0  0  0  0  0  0
   -3.5790    2.4850    2.1580 N   0  0  0  0  0  0
   -3.2370    1.9420    3.3470 C   0  0  0  0  0  0
   -0.8420    2.0740    2.8960 C   0  0  0  0  0  0
    0.7480    2.1940    4.6850 C   0  0  0  0  0  0
   -4.2630    1.3500    4.0650 C   0  0  0  0  0  0
   -5.6680    1.5470    3.0760 S   0  0  0  0  0  0
   -9.0310    2.7580   -0.5970 C   0  0  0  0  0  0
   -9.7570    3.0910   -1.5770 O   0  0  0  0  0  0
   -9.5450    2.1430    0.4280 O   0  5  0  0  0  0
   -5.2640    0.6450   -3.7330 C   0  0  0  0  0  0
    1.2738    2.2092    2.6000 H   0  0  0  0  0  0
   -2.4226    2.0143    5.9071 H   0  0  0  0  0  0
   -4.8364    1.7859   -1.9570 H   0  0  0  0  0  0
   -5.9202   -0.3052   -5.5474 H   0  0  0  0  0  0
   -7.8954    1.1375   -5.7875 H   0  0  0  0  0  0
   -5.8565    3.8872   -1.5728 H   0  0  0  0  0  0
   -7.4452    4.3068   -2.2984 H   0  0  0  0  0  0
   -4.9125    3.3264   -0.1945 H   0  0  0  0  0  0
   -1.0593    2.0465    1.8282 H   0  0  0  0  0  0
   -4.1989    0.8661    5.0396 H   0  0  0  0  0  0
   -4.3927    0.0000   -3.6197 H   0  0  0  0  0  0
  1  4  2  0  0  0
  1 21  1  0  0  0
  1 22  1  0  0  0
  2 22  2  0  0  0
  2 23  1  0  0  0
  2 30  1  0  0  0
  3  4  1  0  0  0
  3  7  1  0  0  0
  3 23  2  0  0  0
  4 31  1  0  0  0
  5 14  2  0  0  0
  5 29  1  0  0  0
  5 32  1  0  0  0
  6 23  1  0  0  0
  8  9  1  0  0  0
  8 29  2  0  0  0
  8 33  1  0  0  0
  9 10  2  0  0  0
  9 34  1  0  0  0
 10 11  1  0  0  0
 10 14  1  0  0  0
 11 12  2  0  0  0
 11 13  1  0  0  0
 14 15  1  0  0  0
 15 16  1  0  0  0
 15 35  1  0  0  0
 15 36  1  0  0  0
 16 17  2  0  0  0
 16 26  1  0  0  0
 17 18  1  0  0  0
 18 19  1  0  0  0
 18 37  1  0  0  0
 19 20  2  0  0  0
 19 25  1  0  0  0
 20 21  1  0  0  0
 21 24  2  0  0  0
 22 38  1  0  0  0
 24 25  1  0  0  0
 24 39  1  0  0  0
 26 27  2  0  0  0
 26 28  1  0  0  0
 29 40  1  0  0  0
M  CHG  3  11   1  13  -1  28  -1
M  END
> <s_m_source_file>
../4tpw_ligand.sdf

> <i_m_source_file_index>
1

> <s_epik_input>
W2NIXTFbY0hdYyhDbCljKENsKVtjSF1jMS1jKFtjSF1zMiluYzJbTkhdL049QyhDKD1PKVtPSF0pXFtDSDJdYzNbY0hdW2NIXVtjSF1bY0hdYzNbTitdKD1PKVtPLV0=

> <s_epik_cmdline>
J2VwaWtfYXBwJywgJy1pbWFlJywgJ2xpZ2FuZF9wcm8ubWFlJywgJy1vbWFlJywgJ2xpZ2FuZF9wcmVwLm1hZScsICctbXMnLCAnMScsICctcGgnLCAnNycsICctcGh0JywgJzAuNScsICctbnQn

> <r_lp_tautomer_probability>
1

> <r_epik_Ionization_Penalty>
  0.0057

> <r_epik_Ionization_Penalty_Charging>
  0.0000

> <r_epik_Ionization_Penalty_Neutral>
  0.0057

> <r_epik_State_Penalty>
 -0.0000

> <r_epik_Charging_Adjusted_Penalty>
7.24962804656208e-06

> <i_epik_Tot_Q>
-1

> <i_epik_Tot_abs_Q>
3

> <s_epik_Chemistry_Notes>
This compound has an imine and may undergo hydrolysis.

$$$$
