4tqn_ligand
                    3D
 Schrodinger Suite 2020-3.
 40 41  0  0  1  0            999 V2000
  -16.6230   -6.8180   -6.9040 O   0  0  0  0  0  0
  -17.5950   -6.0830   -6.8620 C   0  0  0  0  0  0
  -18.6470   -6.3370   -7.6310 O   0  5  0  0  0  0
  -17.6030   -4.8850   -5.9630 C   0  0  0  0  0  0
  -18.6340   -3.9560   -6.0530 C   0  0  0  0  0  0
  -18.6250   -2.8510   -5.2100 C   0  0  0  0  0  0
  -17.6000   -2.6620   -4.2880 C   0  0  0  0  0  0
  -16.5710   -4.7050   -5.0490 C   0  0  0  0  0  0
  -16.5760   -3.5960   -4.2130 C   0  0  0  0  0  0
  -15.4530   -3.4440   -3.2360 C   0  0  0  0  0  0
  -14.7610   -4.4200   -3.0430 O   0  0  0  0  0  0
  -15.2500   -2.2650   -2.6360 N   0  0  0  0  0  0
  -14.2300   -2.0600   -1.7600 C   0  0  0  0  0  0
  -13.2020   -1.1730   -2.0470 C   0  0  0  0  0  0
  -12.1790   -0.9700   -1.1220 C   0  0  0  0  0  0
  -11.0700   -0.0400   -1.4450 C   0  0  0  0  0  0
  -10.2060    0.1490   -0.6010 O   0  0  0  0  0  0
  -11.0310    0.5880   -2.8030 C   0  0  0  0  0  0
  -12.1690   -1.6320    0.0980 C   0  0  0  0  0  0
  -13.2100   -2.5120    0.3840 C   0  0  0  0  0  0
  -14.2260   -2.7060   -0.5380 C   0  0  0  0  0  0
  -15.2420   -3.5700   -0.2660 O   0  0  0  0  0  0
  -15.1580   -4.4610    0.8430 C   0  0  0  0  0  0
  -16.4070   -5.3070    0.7980 C   0  0  0  0  0  0
  -19.4388   -4.0927   -6.7753 H   0  0  0  0  0  0
  -19.4327   -2.1217   -5.2720 H   0  0  0  0  0  0
  -17.6013   -1.7910   -3.6326 H   0  0  0  0  0  0
  -15.7608   -5.4317   -4.9887 H   0  0  0  0  0  0
  -15.9208   -1.4187   -2.8452 H   0  0  0  0  0  0
  -13.1945   -0.6353   -2.9951 H   0  0  0  0  0  0
  -11.9119    0.2694   -3.3797 H   0  0  0  0  0  0
  -10.1163    0.2729   -3.3265 H   0  0  0  0  0  0
  -11.0361    1.6832   -2.7008 H   0  0  0  0  0  0
  -11.3652   -1.4670    0.8155 H   0  0  0  0  0  0
  -13.2255   -3.0480    1.3330 H   0  0  0  0  0  0
  -14.2553   -5.0822    0.7467 H   0  0  0  0  0  0
  -15.1061   -3.8810    1.7762 H   0  0  0  0  0  0
  -16.3979   -6.0191    1.6364 H   0  0  0  0  0  0
  -16.4413   -5.8599   -0.1524 H   0  0  0  0  0  0
  -17.2921   -4.6586    0.8772 H   0  0  0  0  0  0
  1  2  2  0  0  0
  2  3  1  0  0  0
  2  4  1  0  0  0
  4  5  2  0  0  0
  4  8  1  0  0  0
  5  6  1  0  0  0
  5 25  1  0  0  0
  6  7  2  0  0  0
  6 26  1  0  0  0
  7  9  1  0  0  0
  7 27  1  0  0  0
  8  9  2  0  0  0
  8 28  1  0  0  0
  9 10  1  0  0  0
 10 11  2  0  0  0
 10 12  1  0  0  0
 12 13  1  0  0  0
 12 29  1  0  0  0
 13 14  2  0  0  0
 13 21  1  0  0  0
 14 15  1  0  0  0
 14 30  1  0  0  0
 15 16  1  0  0  0
 15 19  2  0  0  0
 16 17  2  0  0  0
 16 18  1  0  0  0
 18 31  1  0  0  0
 18 32  1  0  0  0
 18 33  1  0  0  0
 19 20  1  0  0  0
 19 34  1  0  0  0
 20 21  2  0  0  0
 20 35  1  0  0  0
 21 22  1  0  0  0
 22 23  1  0  0  0
 23 24  1  0  0  0
 23 36  1  0  0  0
 23 37  1  0  0  0
 24 38  1  0  0  0
 24 39  1  0  0  0
 24 40  1  0  0  0
M  CHG  1   3  -1
M  END
> <s_m_source_file>
../4tqn_ligand.sdf

> <i_m_source_file_index>
1

> <s_epik_input>
Tz1DKFtPSF0pYzFbY0hdW2NIXVtjSF1jKFtjSF0xKUMoPU8pW05IXWMyW2NIXWMoQyg9TylbQ0gzXSlbY0hdW2NIXWMyT1tDSDJdW0NIM10=

> <s_epik_cmdline>
J2VwaWtfYXBwJywgJy1pbWFlJywgJ2xpZ2FuZF9wcm8ubWFlJywgJy1vbWFlJywgJ2xpZ2FuZF9wcmVwLm1hZScsICctbXMnLCAnMScsICctcGgnLCAnNycsICctcGh0JywgJzAuNScsICctbnQn

> <r_lp_tautomer_probability>
1

> <r_epik_Ionization_Penalty>
  0.0005

> <r_epik_Ionization_Penalty_Charging>
  0.0005

> <r_epik_Ionization_Penalty_Neutral>
  0.0000

> <r_epik_State_Penalty>
 -0.0000

> <r_epik_Charging_Adjusted_Penalty>
0.000492603359500204

> <i_epik_Tot_Q>
-1

> <i_epik_Tot_abs_Q>
1

$$$$
