4trw_ligand
                    3D
 Schrodinger Suite 2020-3.
 95 95  0  0  1  0            999 V2000
  -16.0110    9.8700   22.1450 N   0  3  0  0  0  0
  -16.0650    8.6320   21.3770 C   0  0  2  0  0  0
  -15.3450    8.7790   20.0410 C   0  0  0  0  0  0
  -15.5260    9.7690   19.3330 O   0  0  0  0  0  0
  -17.5170    8.2070   21.1480 C   0  0  0  0  0  0
  -17.7150    6.7040   21.0410 C   0  0  0  0  0  0
  -19.1440    6.3260   20.7050 C   0  0  0  0  0  0
  -19.3410    5.3490   19.9520 O   0  5  0  0  0  0
  -20.0700    7.0060   21.1950 O   0  0  0  0  0  0
  -14.5270    7.7870   19.7030 N   0  0  0  0  0  0
  -13.7960    7.8030   18.4810 C   0  0  2  0  0  0
  -13.9350    6.4740   17.7630 C   0  0  0  0  0  0
  -14.2120    5.4710   18.3570 O   0  0  0  0  0  0
  -12.3380    8.1340   18.7660 C   0  0  2  0  0  0
  -11.8070    7.2150   19.8240 C   0  0  0  0  0  0
  -12.2040    9.5220   19.3190 C   0  0  0  0  0  0
  -10.3820    7.4930   20.1830 C   0  0  0  0  0  0
  -13.7600    6.5200   16.4610 N   0  0  0  0  0  0
  -13.8720    5.4020   15.5290 C   0  0  2  0  0  0
  -12.7280    5.5880   14.5120 C   0  0  0  0  0  0
  -12.9430    5.6320   13.2990 O   0  0  0  0  0  0
  -15.2040    5.4050   14.7650 C   0  0  0  0  0  0
  -16.3800    5.6490   15.7040 C   0  0  0  0  0  0
  -16.7250    6.8030   16.2760 C   0  0  0  0  0  0
  -17.8150    6.7000   17.0580 C   0  0  0  0  0  0
  -18.3830    5.4760   17.1150 C   0  0  0  0  0  0
  -17.4490    4.4360   16.1400 S   0  0  0  0  0  0
  -11.5240    5.6980   15.0630 N   0  0  0  0  0  0
  -10.3050    5.8930   14.2890 C   0  0  1  0  0  0
   -9.4830    6.8300   15.1480 C   0  0  0  0  0  0
   -9.6400    8.3200   14.7350 C   0  0  0  0  0  0
   -9.2510    9.1260   15.9750 C   0  0  0  0  0  0
  -11.0600    8.7580   14.2780 C   0  0  0  0  0  0
   -9.5870    4.5390   14.1260 C   0  0  2  0  0  0
   -8.3600    4.6990   13.4180 O   0  0  0  0  0  0
  -10.4990    3.5480   13.4130 C   0  0  0  0  0  0
   -9.8610    2.7080   12.3800 N   0  3  0  0  0  0
  -10.8420    2.5220   11.2500 C   0  0  1  0  0  0
  -10.4150    2.9980    9.8180 C   0  0  0  0  0  0
   -9.0070    2.4840    9.3570 C   0  0  0  0  0  0
   -8.3820    3.3430    8.1660 C   0  0  0  0  0  0
  -11.2580    1.0430   11.2810 C   0  0  0  0  0  0
  -10.4250    0.2310   10.8850 O   0  0  0  0  0  0
  -12.3740    0.7420   11.7530 O   0  5  0  0  0  0
  -14.9613   10.1599   22.2998 H   0  0  0  0  0  0
  -16.4971    9.7181   23.1200 H   0  0  0  0  0  0
  -16.5339   10.6660   21.5946 H   0  0  0  0  0  0
  -15.5398    7.8884   21.9944 H   0  0  0  0  0  0
  -18.1378    8.5560   21.9864 H   0  0  0  0  0  0
  -17.8850    8.6491   20.2104 H   0  0  0  0  0  0
  -17.0650    6.3040   20.2488 H   0  0  0  0  0  0
  -17.4575    6.2310   22.0002 H   0  0  0  0  0  0
  -14.4225    6.9386   20.3954 H   0  0  0  0  0  0
  -14.2538    8.5924   17.8668 H   0  0  0  0  0  0
  -11.7757    8.0361   17.8257 H   0  0  0  0  0  0
  -12.4078    7.3234   20.7390 H   0  0  0  0  0  0
  -11.8639    6.1754   19.4690 H   0  0  0  0  0  0
  -12.5801   10.2478   18.5830 H   0  0  0  0  0  0
  -11.1453    9.7311   19.5323 H   0  0  0  0  0  0
  -12.7884    9.6048   20.2473 H   0  0  0  0  0  0
  -10.0554    6.7871   20.9609 H   0  0  0  0  0  0
  -10.2932    8.5221   20.5611 H   0  0  0  0  0  0
   -9.7493    7.3742   19.2910 H   0  0  0  0  0  0
  -13.5058    7.5233   16.0884 H   0  0  0  0  0  0
  -13.8184    4.4806   16.1275 H   0  0  0  0  0  0
  -15.1901    6.2020   14.0069 H   0  0  0  0  0  0
  -15.3459    4.4321   14.2716 H   0  0  0  0  0  0
  -16.1797    7.7347   16.1254 H   0  0  0  0  0  0
  -18.2143    7.5505   17.6105 H   0  0  0  0  0  0
  -19.2743    5.2036   17.6803 H   0  0  0  0  0  0
  -11.4747    5.6350   16.1601 H   0  0  0  0  0  0
  -10.5224    6.3074   13.2935 H   0  0  0  0  0  0
   -9.7990    6.7374   16.1976 H   0  0  0  0  0  0
   -8.4182    6.5679   15.0612 H   0  0  0  0  0  0
   -8.9998    8.5002   13.8589 H   0  0  0  0  0  0
   -8.2469    8.8246   16.3081 H   0  0  0  0  0  0
   -9.9769    8.9349   16.7791 H   0  0  0  0  0  0
   -9.2494   10.1983   15.7297 H   0  0  0  0  0  0
  -11.3512    8.1844   13.3857 H   0  0  0  0  0  0
  -11.0530    9.8314   14.0378 H   0  0  0  0  0  0
  -11.7805    8.5680   15.0872 H   0  0  0  0  0  0
   -9.2750    4.1341   15.1000 H   0  0  0  0  0  0
   -7.5887    5.3829   13.8018 H   0  0  0  0  0  0
  -10.9306    2.8526   14.1480 H   0  0  0  0  0  0
  -11.3081    4.0938   12.9055 H   0  0  0  0  0  0
   -8.9518    3.2062   12.0124 H   0  0  0  0  0  0
   -9.5950    1.7326   12.8134 H   0  0  0  0  0  0
  -11.6728    3.2063   11.4770 H   0  0  0  0  0  0
  -11.1456    2.6377    9.0788 H   0  0  0  0  0  0
  -10.3792    4.0971    9.7924 H   0  0  0  0  0  0
   -8.3051    2.5295   10.2028 H   0  0  0  0  0  0
   -9.0926    1.4447    9.0071 H   0  0  0  0  0  0
   -7.3994    2.9307    7.8929 H   0  0  0  0  0  0
   -8.2641    4.3876    8.4899 H   0  0  0  0  0  0
   -9.0517    3.3028    7.2943 H   0  0  0  0  0  0
  1  2  1  0  0  0
  1 45  1  0  0  0
  1 46  1  0  0  0
  1 47  1  0  0  0
  2  3  1  0  0  0
  2  5  1  0  0  0
  2 48  1  0  0  0
  3  4  2  0  0  0
  3 10  1  0  0  0
  5  6  1  0  0  0
  5 49  1  0  0  0
  5 50  1  0  0  0
  6  7  1  0  0  0
  6 51  1  0  0  0
  6 52  1  0  0  0
  7  8  1  0  0  0
  7  9  2  0  0  0
 10 11  1  0  0  0
 10 53  1  0  0  0
 11 12  1  0  0  0
 11 14  1  0  0  0
 11 54  1  0  0  0
 12 13  2  0  0  0
 12 18  1  0  0  0
 14 15  1  0  0  0
 14 16  1  0  0  0
 14 55  1  0  0  0
 15 17  1  0  0  0
 15 56  1  0  0  0
 15 57  1  0  0  0
 16 58  1  0  0  0
 16 59  1  0  0  0
 16 60  1  0  0  0
 17 61  1  0  0  0
 17 62  1  0  0  0
 17 63  1  0  0  0
 18 19  1  0  0  0
 18 64  1  0  0  0
 19 20  1  0  0  0
 19 22  1  0  0  0
 19 65  1  0  0  0
 20 21  2  0  0  0
 20 28  1  0  0  0
 22 23  1  0  0  0
 22 66  1  0  0  0
 22 67  1  0  0  0
 23 24  2  0  0  0
 23 27  1  0  0  0
 24 25  1  0  0  0
 24 68  1  0  0  0
 25 26  2  0  0  0
 25 69  1  0  0  0
 26 27  1  0  0  0
 26 70  1  0  0  0
 28 29  1  0  0  0
 28 71  1  0  0  0
 29 30  1  0  0  0
 29 34  1  0  0  0
 29 72  1  0  0  0
 30 31  1  0  0  0
 30 73  1  0  0  0
 30 74  1  0  0  0
 31 32  1  0  0  0
 31 33  1  0  0  0
 31 75  1  0  0  0
 32 76  1  0  0  0
 32 77  1  0  0  0
 32 78  1  0  0  0
 33 79  1  0  0  0
 33 80  1  0  0  0
 33 81  1  0  0  0
 34 35  1  0  0  0
 34 36  1  0  0  0
 34 82  1  0  0  0
 35 83  1  0  0  0
 36 37  1  0  0  0
 36 84  1  0  0  0
 36 85  1  0  0  0
 37 38  1  0  0  0
 37 86  1  0  0  0
 37 87  1  0  0  0
 38 39  1  0  0  0
 38 42  1  0  0  0
 38 88  1  0  0  0
 39 40  1  0  0  0
 39 89  1  0  0  0
 39 90  1  0  0  0
 40 41  1  0  0  0
 40 91  1  0  0  0
 40 92  1  0  0  0
 41 93  1  0  0  0
 41 94  1  0  0  0
 41 95  1  0  0  0
 42 43  2  0  0  0
 42 44  1  0  0  0
M  CHG  4   1   1   8  -1  37   1  44  -1
M  END
> <s_m_source_file>
../4trw_ligand.sdf

> <i_m_source_file_index>
1

> <s_epik_input>
W09IXUMoPU8pW0NIMl1bQ0gyXVtDQEhdKFtOSDMrXSlDKD1PKVtOSF1bQ0BASF0oW0NAQEhdKFtDSDNdKVtDSDJdW0NIM10pQyg9TylbTkhdW0NAQEhdKFtDSDJdYzFbY0hdW2NIXVtjSF1zMSlDKD1PKVtOSF1bQ0BASF0oW0NIMl1bQ0hdKFtDSDNdKVtDSDNdKVtDQEhdKFtPSF0pW0NIMl1bTkgyK11bQ0BIXShDKD1PKVtPSF0pW0NIMl1bQ0gyXVtDSDNd

> <s_epik_cmdline>
J2VwaWtfYXBwJywgJy1pbWFlJywgJ2xpZ2FuZF9wcm8ubWFlJywgJy1vbWFlJywgJ2xpZ2FuZF9wcmVwLm1hZScsICctbXMnLCAnMScsICctcGgnLCAnNycsICctcGh0JywgJzAuNScsICctbnQn

> <r_epik_Ionization_Penalty>
  0.0787

> <r_epik_Ionization_Penalty_Charging>
  0.0787

> <r_epik_Ionization_Penalty_Neutral>
  0.0000

> <r_epik_State_Penalty>
  0.0649

> <r_epik_Charging_Adjusted_Penalty>
0.143597476502201

> <i_epik_Tot_Q>
0

> <i_epik_Tot_abs_Q>
4

$$$$
