4trz_ligand
                    3D
 Schrodinger Suite 2020-3.
 93 94  0  0  1  0            999 V2000
   24.0890    9.6680   21.9410 N   0  3  0  0  0  0
   24.9000    8.4760   21.7200 C   0  0  2  0  0  0
   26.1690    8.8080   20.9410 C   0  0  0  0  0  0
   26.4870    9.9780   20.7240 O   0  0  0  0  0  0
   24.0920    7.4090   20.9790 C   0  0  0  0  0  0
   22.8430    6.9540   21.7160 C   0  0  0  0  0  0
   22.0680    5.8980   20.9520 C   0  0  0  0  0  0
   22.5100    5.5170   19.8460 O   0  5  0  0  0  0
   21.0180    5.4480   21.4560 O   0  0  0  0  0  0
   26.9590    7.8280   20.5430 N   0  0  0  0  0  0
   27.9360    8.1040   19.4900 C   0  0  2  0  0  0
   27.8790    6.9840   18.4840 C   0  0  0  0  0  0
   27.8000    5.8230   18.8890 O   0  0  0  0  0  0
   29.3640    8.2090   20.0550 C   0  0  2  0  0  0
   29.7150    6.9530   20.8530 C   0  0  0  0  0  0
   29.5040    9.4530   20.9200 C   0  0  0  0  0  0
   30.9500    7.1030   21.7160 C   0  0  0  0  0  0
   27.9130    7.2620   17.1830 N   0  0  0  0  0  0
   27.7590    6.0750   16.3550 C   0  0  2  0  0  0
   28.9690    5.6420   15.5970 C   0  0  0  0  0  0
   29.2020    4.4300   15.4310 O   0  0  0  0  0  0
   26.5620    6.2580   15.4600 C   0  0  0  0  0  0
   25.2570    6.1240   16.2070 C   0  0  0  0  0  0
   24.6210    6.7810   17.2160 C   0  0  0  0  0  0
   23.3920    6.2510   17.5170 C   0  0  0  0  0  0
   23.0100    5.1620   16.7940 C   0  0  0  0  0  0
   24.2780    4.8610   15.7020 S   0  0  0  0  0  0
   32.4420    6.8900   15.4940 C   0  0  0  0  0  0
   31.9550    8.2450   15.9510 C   0  0  0  0  0  0
   30.7640    8.7220   16.4820 C   0  0  0  0  0  0
   30.8000   10.0990   16.7530 C   0  0  0  0  0  0
   30.0840    6.2460   15.6520 N   0  0  0  0  0  0
   31.2990    6.1390   14.8220 C   0  0  2  0  0  0
   33.0740    9.5500   15.8150 S   0  0  0  0  0  0
   31.9980   10.7490   16.4520 C   0  0  0  0  0  0
   31.6510    4.6710   14.6240 C   0  0  2  0  0  0
   33.0590    4.5450   14.3880 O   0  0  0  0  0  0
   30.8860    4.0780   13.4500 C   0  0  0  0  0  0
   31.0710    3.3550   12.2250 N   0  3  0  0  0  0
   30.7550    2.2190   11.3820 C   0  0  1  0  0  0
   31.8750    2.0120   10.3690 C   0  0  0  0  0  0
   32.1410    3.2870    9.5800 C   0  0  0  0  0  0
   33.6000    3.6830    9.6610 C   0  0  0  0  0  0
   30.6120    0.9900   12.2290 C   0  0  0  0  0  0
   29.4770    0.4840   12.3590 O   0  0  0  0  0  0
   31.6330    0.5180   12.7730 O   0  5  0  0  0  0
   24.6851   10.4233   22.4741 H   0  0  0  0  0  0
   23.2070    9.4049   22.5434 H   0  0  0  0  0  0
   23.7634   10.0747   20.9722 H   0  0  0  0  0  0
   25.1710    8.1222   22.7257 H   0  0  0  0  0  0
   23.7674    7.8052   20.0055 H   0  0  0  0  0  0
   24.7180    6.5182   20.8220 H   0  0  0  0  0  0
   23.1267    6.5269   22.6892 H   0  0  0  0  0  0
   22.1762    7.8146   21.8736 H   0  0  0  0  0  0
   26.8951    6.8223   20.9841 H   0  0  0  0  0  0
   27.6436    9.0622   19.0358 H   0  0  0  0  0  0
   30.0757    8.2979   19.2210 H   0  0  0  0  0  0
   28.8791    6.6973   21.5207 H   0  0  0  0  0  0
   29.8998    6.1184   20.1607 H   0  0  0  0  0  0
   29.2471   10.3429   20.3267 H   0  0  0  0  0  0
   30.5412    9.5369   21.2765 H   0  0  0  0  0  0
   28.8249    9.3784   21.7821 H   0  0  0  0  0  0
   31.1364    6.1629   22.2560 H   0  0  0  0  0  0
   30.7951    7.9169   22.4395 H   0  0  0  0  0  0
   31.8158    7.3381   21.0795 H   0  0  0  0  0  0
   28.0393    8.2482   16.7125 H   0  0  0  0  0  0
   27.6132    5.2567   17.0755 H   0  0  0  0  0  0
   26.5923    7.2602   15.0076 H   0  0  0  0  0  0
   26.5779    5.4967   14.6661 H   0  0  0  0  0  0
   25.0458    7.6417   17.7327 H   0  0  0  0  0  0
   22.7561    6.6781   18.2924 H   0  0  0  0  0  0
   22.0821    4.5990   16.8947 H   0  0  0  0  0  0
   33.2668    7.0192   14.7777 H   0  0  0  0  0  0
   32.7972    6.3159   16.3625 H   0  0  0  0  0  0
   29.8931    8.0937   16.6687 H   0  0  0  0  0  0
   29.9446   10.6283   17.1729 H   0  0  0  0  0  0
   30.0532    6.9540   16.4933 H   0  0  0  0  0  0
   31.0890    6.5965   13.8440 H   0  0  0  0  0  0
   32.2150   11.8081   16.5911 H   0  0  0  0  0  0
   31.4309    4.1044   15.5408 H   0  0  0  0  0  0
   33.7771    4.9199   15.1322 H   0  0  0  0  0  0
   30.1737    3.3254   13.8191 H   0  0  0  0  0  0
   30.3381    4.8766   12.9284 H   0  0  0  0  0  0
   30.7870    3.9938   11.3757 H   0  0  0  0  0  0
   32.1271    3.0633   12.1273 H   0  0  0  0  0  0
   29.8005    2.4405   10.8822 H   0  0  0  0  0  0
   32.7971    1.7246   10.8955 H   0  0  0  0  0  0
   31.5908    1.2153    9.6658 H   0  0  0  0  0  0
   31.8780    3.1263    8.5241 H   0  0  0  0  0  0
   31.5308    4.1056    9.9894 H   0  0  0  0  0  0
   33.7623    4.6049    9.0834 H   0  0  0  0  0  0
   34.2224    2.8763    9.2466 H   0  0  0  0  0  0
   33.8753    3.8555   10.7119 H   0  0  0  0  0  0
  1  2  1  0  0  0
  1 47  1  0  0  0
  1 48  1  0  0  0
  1 49  1  0  0  0
  2  3  1  0  0  0
  2  5  1  0  0  0
  2 50  1  0  0  0
  3  4  2  0  0  0
  3 10  1  0  0  0
  5  6  1  0  0  0
  5 51  1  0  0  0
  5 52  1  0  0  0
  6  7  1  0  0  0
  6 53  1  0  0  0
  6 54  1  0  0  0
  7  8  1  0  0  0
  7  9  2  0  0  0
 10 11  1  0  0  0
 10 55  1  0  0  0
 11 12  1  0  0  0
 11 14  1  0  0  0
 11 56  1  0  0  0
 12 13  2  0  0  0
 12 18  1  0  0  0
 14 15  1  0  0  0
 14 16  1  0  0  0
 14 57  1  0  0  0
 15 17  1  0  0  0
 15 58  1  0  0  0
 15 59  1  0  0  0
 16 60  1  0  0  0
 16 61  1  0  0  0
 16 62  1  0  0  0
 17 63  1  0  0  0
 17 64  1  0  0  0
 17 65  1  0  0  0
 18 19  1  0  0  0
 18 66  1  0  0  0
 19 20  1  0  0  0
 19 22  1  0  0  0
 19 67  1  0  0  0
 20 21  2  0  0  0
 20 32  1  0  0  0
 22 23  1  0  0  0
 22 68  1  0  0  0
 22 69  1  0  0  0
 23 24  2  0  0  0
 23 27  1  0  0  0
 24 25  1  0  0  0
 24 70  1  0  0  0
 25 26  2  0  0  0
 25 71  1  0  0  0
 26 27  1  0  0  0
 26 72  1  0  0  0
 28 29  1  0  0  0
 28 33  1  0  0  0
 28 73  1  0  0  0
 28 74  1  0  0  0
 29 30  2  0  0  0
 29 34  1  0  0  0
 30 31  1  0  0  0
 30 75  1  0  0  0
 31 35  2  0  0  0
 31 76  1  0  0  0
 32 33  1  0  0  0
 32 77  1  0  0  0
 33 36  1  0  0  0
 33 78  1  0  0  0
 34 35  1  0  0  0
 35 79  1  0  0  0
 36 37  1  0  0  0
 36 38  1  0  0  0
 36 80  1  0  0  0
 37 81  1  0  0  0
 38 39  1  0  0  0
 38 82  1  0  0  0
 38 83  1  0  0  0
 39 40  1  0  0  0
 39 84  1  0  0  0
 39 85  1  0  0  0
 40 41  1  0  0  0
 40 44  1  0  0  0
 40 86  1  0  0  0
 41 42  1  0  0  0
 41 87  1  0  0  0
 41 88  1  0  0  0
 42 43  1  0  0  0
 42 89  1  0  0  0
 42 90  1  0  0  0
 43 91  1  0  0  0
 43 92  1  0  0  0
 43 93  1  0  0  0
 44 45  2  0  0  0
 44 46  1  0  0  0
M  CHG  4   1   1   8  -1  39   1  46  -1
M  END
> <s_m_source_file>
../4trz_ligand.sdf

> <i_m_source_file_index>
1

> <s_epik_input>
W09IXUMoPU8pW0NIMl1bQ0gyXVtDQEhdKFtOSDMrXSlDKD1PKVtOSF1bQ0BASF0oW0NAQEhdKFtDSDNdKVtDSDJdW0NIM10pQyg9TylbTkhdW0NAQEhdKFtDSDJdYzFbY0hdW2NIXVtjSF1zMSlDKD1PKVtOSF1bQ0BASF0oW0NIMl1jMltjSF1bY0hdW2NIXXMyKVtDQEhdKFtPSF0pW0NIMl1bTkgyK11bQ0BIXShDKD1PKVtPSF0pW0NIMl1bQ0gyXVtDSDNd

> <s_epik_cmdline>
J2VwaWtfYXBwJywgJy1pbWFlJywgJ2xpZ2FuZF9wcm8ubWFlJywgJy1vbWFlJywgJ2xpZ2FuZF9wcmVwLm1hZScsICctbXMnLCAnMScsICctcGgnLCAnNycsICctcGh0JywgJzAuNScsICctbnQn

> <r_epik_Ionization_Penalty>
  0.0791

> <r_epik_Ionization_Penalty_Charging>
  0.0791

> <r_epik_Ionization_Penalty_Neutral>
  0.0000

> <r_epik_State_Penalty>
  0.0649

> <r_epik_Charging_Adjusted_Penalty>
0.144091131491092

> <i_epik_Tot_Q>
0

> <i_epik_Tot_abs_Q>
4

$$$$
