4tsx_ligand
                    3D
 Schrodinger Suite 2020-3.
 56 59  0  0  1  0            999 V2000
  -45.2590   15.0790   28.2840 C   0  0  0  0  0  0
  -46.0940   13.9350   28.4050 C   0  0  0  0  0  0
  -47.4730   14.0700   28.1540 C   0  0  0  0  0  0
  -47.9600   15.2880   27.8300 N   0  0  0  0  0  0
  -47.1990   16.4000   27.6950 C   0  0  0  0  0  0
  -45.8200   16.3380   27.9240 C   0  0  0  0  0  0
  -43.7990   14.8960   28.5070 C   0  0  0  0  0  0
  -42.9740   14.8520   27.3720 C   0  0  0  0  0  0
  -41.6060   14.6410   27.5360 C   0  0  0  0  0  0
  -41.0640   14.4850   28.8180 C   0  0  0  0  0  0
  -41.8780   14.5470   29.9590 C   0  0  0  0  0  0
  -43.2630   14.7350   29.8000 C   0  0  0  0  0  0
  -45.0510   17.5090   27.7930 C   0  0  0  0  0  0
  -45.6630   18.7140   27.4270 C   0  0  0  0  0  0
  -47.0450   18.7490   27.1940 C   0  0  0  0  0  0
  -47.8300   17.6050   27.3320 C   0  0  0  0  0  0
  -48.5050   12.9360   28.2640 C   0  0  0  0  0  0
  -45.4970   12.5910   28.7630 C   0  0  1  0  0  0
  -45.9130   12.1880   30.1710 C   0  0  0  0  0  0
  -45.9380   13.0710   31.0470 O   0  0  0  0  0  0
  -46.2400   11.0050   30.4260 O   0  5  0  0  0  0
  -45.9370   11.5810   27.8330 O   0  0  0  0  0  0
  -45.3270   11.4360   26.5510 C   0  0  0  0  0  0
  -43.7890   11.4010   26.6800 C   0  0  0  0  0  0
  -45.7500   12.5690   25.6300 C   0  0  0  0  0  0
  -45.8330   10.0990   25.9740 C   0  0  0  0  0  0
  -39.7130   14.3020   28.9500 O   0  0  0  0  0  0
  -39.1410   13.7580   30.1600 C   0  0  0  0  0  0
  -39.7280   14.5390   31.3340 C   0  0  0  0  0  0
  -41.2760   14.3770   31.3570 C   0  0  0  0  0  0
  -43.3975   14.9811   26.3760 H   0  0  0  0  0  0
  -40.9552   14.5972   26.6627 H   0  0  0  0  0  0
  -43.9173   14.7560   30.6715 H   0  0  0  0  0  0
  -43.9770   17.4780   27.9767 H   0  0  0  0  0  0
  -45.0674   19.6210   27.3237 H   0  0  0  0  0  0
  -47.5144   19.6877   26.8996 H   0  0  0  0  0  0
  -48.9061   17.6427   27.1629 H   0  0  0  0  0  0
  -47.9935   11.9994   28.5308 H   0  0  0  0  0  0
  -49.0175   12.8118   27.2987 H   0  0  0  0  0  0
  -49.2424   13.1854   29.0412 H   0  0  0  0  0  0
  -44.4020   12.6430   28.6726 H   0  0  0  0  0  0
  -43.4338   12.3571   27.0920 H   0  0  0  0  0  0
  -43.3414   11.2402   25.6881 H   0  0  0  0  0  0
  -43.4960   10.5807   27.3518 H   0  0  0  0  0  0
  -45.3913   13.5258   26.0372 H   0  0  0  0  0  0
  -46.8472   12.5905   25.5553 H   0  0  0  0  0  0
  -45.3175   12.4104   24.6311 H   0  0  0  0  0  0
  -45.5295    9.2753   26.6369 H   0  0  0  0  0  0
  -45.4004    9.9438   24.9746 H   0  0  0  0  0  0
  -46.9301   10.1239   25.8988 H   0  0  0  0  0  0
  -39.3982   12.6915   30.2398 H   0  0  0  0  0  0
  -38.0471   13.8702   30.1312 H   0  0  0  0  0  0
  -39.3090   14.1551   32.2759 H   0  0  0  0  0  0
  -39.4763   15.6046   31.2281 H   0  0  0  0  0  0
  -41.6959   15.1373   32.0320 H   0  0  0  0  0  0
  -41.5158   13.3741   31.7400 H   0  0  0  0  0  0
  1  2  2  0  0  0
  1  6  1  0  0  0
  1  7  1  0  0  0
  2  3  1  0  0  0
  2 18  1  0  0  0
  3  4  2  0  0  0
  3 17  1  0  0  0
  4  5  1  0  0  0
  5  6  2  0  0  0
  5 16  1  0  0  0
  6 13  1  0  0  0
  7  8  2  0  0  0
  7 12  1  0  0  0
  8  9  1  0  0  0
  8 31  1  0  0  0
  9 10  2  0  0  0
  9 32  1  0  0  0
 10 11  1  0  0  0
 10 27  1  0  0  0
 11 12  2  0  0  0
 11 30  1  0  0  0
 12 33  1  0  0  0
 13 14  2  0  0  0
 13 34  1  0  0  0
 14 15  1  0  0  0
 14 35  1  0  0  0
 15 16  2  0  0  0
 15 36  1  0  0  0
 16 37  1  0  0  0
 17 38  1  0  0  0
 17 39  1  0  0  0
 17 40  1  0  0  0
 18 19  1  0  0  0
 18 22  1  0  0  0
 18 41  1  0  0  0
 19 20  2  0  0  0
 19 21  1  0  0  0
 22 23  1  0  0  0
 23 24  1  0  0  0
 23 25  1  0  0  0
 23 26  1  0  0  0
 24 42  1  0  0  0
 24 43  1  0  0  0
 24 44  1  0  0  0
 25 45  1  0  0  0
 25 46  1  0  0  0
 25 47  1  0  0  0
 26 48  1  0  0  0
 26 49  1  0  0  0
 26 50  1  0  0  0
 27 28  1  0  0  0
 28 29  1  0  0  0
 28 51  1  0  0  0
 28 52  1  0  0  0
 29 30  1  0  0  0
 29 53  1  0  0  0
 29 54  1  0  0  0
 30 55  1  0  0  0
 30 56  1  0  0  0
M  CHG  1  21  -1
M  END
> <s_m_source_file>
../4tsx_ligand.sdf

> <i_m_source_file_index>
1

> <s_epik_input>
W2NIXTFbY0hdW2NIXVtjSF1jKGMxMiljKGMoYyhuMilbQ0gzXSlbQ0BASF0oQyg9TylbT0hdKU9DKFtDSDNdKShbQ0gzXSlbQ0gzXSktYyhbY0hdW2NIXTMpW2NIXWMoYzM0KVtDSDJdW0NIMl1bQ0gyXU80

> <s_epik_cmdline>
J2VwaWtfYXBwJywgJy1pbWFlJywgJ2xpZ2FuZF9wcm8ubWFlJywgJy1vbWFlJywgJ2xpZ2FuZF9wcmVwLm1hZScsICctbXMnLCAnMScsICctcGgnLCAnNycsICctcGh0JywgJzAuNScsICctbnQn

> <r_lp_tautomer_probability>
1

> <r_epik_Ionization_Penalty>
  0.3387

> <r_epik_Ionization_Penalty_Charging>
  0.0001

> <r_epik_Ionization_Penalty_Neutral>
  0.3386

> <r_epik_State_Penalty>
  0.3342

> <r_epik_Charging_Adjusted_Penalty>
0.334214301817795

> <i_epik_Tot_Q>
-1

> <i_epik_Tot_abs_Q>
1

$$$$
