4tsz_ligand
                    3D
 Schrodinger Suite 2020-3.
101102  0  0  1  0            999 V2000
  -47.5560   15.2480  -48.7300 C   0  0  0  0  0  0
  -47.1150   16.3540  -48.3830 O   0  0  0  0  0  0
  -48.8490   15.1530  -49.5270 C   0  0  0  0  0  0
  -46.9550   14.0840  -48.4670 N   0  0  0  0  0  0
  -45.7180   13.9570  -47.6900 C   0  0  2  0  0  0
  -44.5610   14.8080  -48.2070 C   0  0  0  0  0  0
  -44.2150   14.7290  -49.3850 O   0  0  0  0  0  0
  -45.2920   12.4740  -47.5530 C   0  0  0  0  0  0
  -44.0390   12.2430  -46.6680 C   0  0  0  0  0  0
  -44.1870   12.6830  -45.2160 C   0  0  0  0  0  0
  -43.4070   13.4960  -44.6930 O   0  0  0  0  0  0
  -45.2020   12.1770  -44.5410 N   0  0  0  0  0  0
  -43.9640   15.6080  -47.3070 N   0  0  0  0  0  0
  -42.8150   16.4670  -47.6070 C   0  0  2  0  0  0
  -41.4830   15.7560  -47.3000 C   0  0  0  0  0  0
  -41.4650   14.7930  -46.5310 O   0  0  0  0  0  0
  -42.8350   17.8740  -46.9510 C   0  0  0  0  0  0
  -44.0830   18.6910  -47.2870 C   0  0  0  0  0  0
  -44.2680   19.8550  -46.3180 C   0  0  0  0  0  0
  -45.4980   20.7040  -46.6390 C   0  0  0  0  0  0
  -45.4580   21.2220  -48.0720 C   0  0  0  0  0  0
  -45.2780   20.0780  -49.0640 C   0  0  0  0  0  0
  -44.0520   19.2290  -48.7200 C   0  0  0  0  0  0
  -40.3820   16.2150  -47.9130 N   0  0  0  0  0  0
  -39.0560   15.6020  -47.7420 C   0  0  2  0  0  0
  -38.1090   16.4060  -46.8740 C   0  0  0  0  0  0
  -38.1490   17.6340  -46.8980 O   0  0  0  0  0  0
  -38.4070   15.3370  -49.1100 C   0  0  0  0  0  0
  -39.2520   14.4460  -49.9990 C   0  0  0  0  0  0
  -39.3170   13.2220  -49.7250 O   0  5  0  0  0  0
  -39.8860   14.9760  -50.9390 O   0  0  0  0  0  0
  -37.2300   15.7050  -46.1300 N   0  0  0  0  0  0
  -36.2140   16.3060  -45.2590 C   0  0  2  0  0  0
  -35.1240   16.9930  -46.0770 C   0  0  0  0  0  0
  -34.7810   18.1310  -45.7790 O   0  0  0  0  0  0
  -35.5790   15.2560  -44.3330 C   0  0  0  0  0  0
  -36.3470   14.9120  -43.0680 C   0  0  0  0  0  0
  -35.8160   13.6360  -42.4450 C   0  0  0  0  0  0
  -36.2830   16.0390  -42.0620 C   0  0  0  0  0  0
  -34.7430   16.7390  -47.3500 N   0  0  0  0  0  0
  -33.6290   18.5320  -50.2320 O   0  5  0  0  0  0
  -30.5870   13.7980  -43.3050 Cl  0  0  0  0  0  0
  -30.5550   15.5290  -45.3840 C   0  0  0  0  0  0
  -32.1550   13.7500  -45.5340 C   0  0  0  0  0  0
  -32.8230   12.2640  -44.9530 Cl  0  0  0  0  0  0
  -31.0360   16.0460  -46.5770 C   0  0  0  0  0  0
  -32.6360   14.2720  -46.7200 C   0  0  0  0  0  0
  -32.6660   16.0310  -48.5130 C   0  0  0  0  0  0
  -34.2860   17.5760  -49.6370 C   0  0  0  0  0  0
  -31.1270   14.3860  -44.8480 C   0  0  0  0  0  0
  -32.0890   15.4350  -47.2510 C   0  0  0  0  0  0
  -33.7020   17.1560  -48.2880 C   0  0  1  0  0  0
  -35.3150   17.0240  -50.0870 O   0  0  0  0  0  0
  -49.2567   16.1622  -49.6859 H   0  0  0  0  0  0
  -49.5787   14.5461  -48.9710 H   0  0  0  0  0  0
  -48.6461   14.6821  -50.5002 H   0  0  0  0  0  0
  -47.4442   13.1862  -48.8728 H   0  0  0  0  0  0
  -46.0088   14.3814  -46.7177 H   0  0  0  0  0  0
  -46.1127   11.8970  -47.1018 H   0  0  0  0  0  0
  -45.0603   12.0656  -48.5478 H   0  0  0  0  0  0
  -43.7960   11.1703  -46.6493 H   0  0  0  0  0  0
  -43.1887   12.8044  -47.0826 H   0  0  0  0  0  0
  -45.8803   11.4584  -45.0243 H   0  0  0  0  0  0
  -45.3696   12.4739  -43.4952 H   0  0  0  0  0  0
  -44.3893   15.5927  -46.2926 H   0  0  0  0  0  0
  -42.9547   16.6067  -48.6891 H   0  0  0  0  0  0
  -42.7972   17.7689  -45.8567 H   0  0  0  0  0  0
  -41.9636   18.4510  -47.2942 H   0  0  0  0  0  0
  -44.9347   18.0020  -47.1874 H   0  0  0  0  0  0
  -44.3860   19.4660  -45.2959 H   0  0  0  0  0  0
  -43.3864   20.5115  -46.3609 H   0  0  0  0  0  0
  -46.4061   20.0962  -46.5129 H   0  0  0  0  0  0
  -45.5364   21.5664  -45.9572 H   0  0  0  0  0  0
  -46.4005   21.7411  -48.3007 H   0  0  0  0  0  0
  -44.6170   21.9219  -48.1856 H   0  0  0  0  0  0
  -46.1676   19.4313  -49.0432 H   0  0  0  0  0  0
  -45.1461   20.4878  -50.0763 H   0  0  0  0  0  0
  -43.1600   19.8580  -48.8563 H   0  0  0  0  0  0
  -44.0184   18.3871  -49.4271 H   0  0  0  0  0  0
  -40.5029   17.0905  -48.5679 H   0  0  0  0  0  0
  -39.2743   14.6704  -47.1994 H   0  0  0  0  0  0
  -38.2577   16.2915  -49.6360 H   0  0  0  0  0  0
  -37.4353   14.8422  -48.9652 H   0  0  0  0  0  0
  -37.3106   14.6107  -46.2073 H   0  0  0  0  0  0
  -36.7635   17.0532  -44.6676 H   0  0  0  0  0  0
  -35.4615   14.3085  -44.8793 H   0  0  0  0  0  0
  -34.5932   15.6108  -43.9980 H   0  0  0  0  0  0
  -37.3997   14.7614  -43.3491 H   0  0  0  0  0  0
  -35.8652   12.8204  -43.1814 H   0  0  0  0  0  0
  -36.4259   13.3750  -41.5675 H   0  0  0  0  0  0
  -34.7717   13.7868  -42.1340 H   0  0  0  0  0  0
  -36.6694   16.9615  -42.5198 H   0  0  0  0  0  0
  -35.2394   16.1935  -41.7504 H   0  0  0  0  0  0
  -36.8936   15.7818  -41.1839 H   0  0  0  0  0  0
  -35.4993   16.0026  -47.6595 H   0  0  0  0  0  0
  -29.7293   16.0200  -44.8690 H   0  0  0  0  0  0
  -30.5822   16.9452  -46.9936 H   0  0  0  0  0  0
  -33.4495   13.7687  -47.2425 H   0  0  0  0  0  0
  -31.8557   16.4645  -49.1175 H   0  0  0  0  0  0
  -33.1742   15.2449  -49.0907 H   0  0  0  0  0  0
  -33.2450   18.0265  -47.7946 H   0  0  0  0  0  0
  1  2  2  0  0  0
  1  3  1  0  0  0
  1  4  1  0  0  0
  3 54  1  0  0  0
  3 55  1  0  0  0
  3 56  1  0  0  0
  4  5  1  0  0  0
  4 57  1  0  0  0
  5  6  1  0  0  0
  5  8  1  0  0  0
  5 58  1  0  0  0
  6  7  2  0  0  0
  6 13  1  0  0  0
  8  9  1  0  0  0
  8 59  1  0  0  0
  8 60  1  0  0  0
  9 10  1  0  0  0
  9 61  1  0  0  0
  9 62  1  0  0  0
 10 11  2  0  0  0
 10 12  1  0  0  0
 12 63  1  0  0  0
 12 64  1  0  0  0
 13 14  1  0  0  0
 13 65  1  0  0  0
 14 15  1  0  0  0
 14 17  1  0  0  0
 14 66  1  0  0  0
 15 16  2  0  0  0
 15 24  1  0  0  0
 17 18  1  0  0  0
 17 67  1  0  0  0
 17 68  1  0  0  0
 18 19  1  0  0  0
 18 23  1  0  0  0
 18 69  1  0  0  0
 19 20  1  0  0  0
 19 70  1  0  0  0
 19 71  1  0  0  0
 20 21  1  0  0  0
 20 72  1  0  0  0
 20 73  1  0  0  0
 21 22  1  0  0  0
 21 74  1  0  0  0
 21 75  1  0  0  0
 22 23  1  0  0  0
 22 76  1  0  0  0
 22 77  1  0  0  0
 23 78  1  0  0  0
 23 79  1  0  0  0
 24 25  1  0  0  0
 24 80  1  0  0  0
 25 26  1  0  0  0
 25 28  1  0  0  0
 25 81  1  0  0  0
 26 27  2  0  0  0
 26 32  1  0  0  0
 28 29  1  0  0  0
 28 82  1  0  0  0
 28 83  1  0  0  0
 29 30  1  0  0  0
 29 31  2  0  0  0
 32 33  1  0  0  0
 32 84  1  0  0  0
 33 34  1  0  0  0
 33 36  1  0  0  0
 33 85  1  0  0  0
 34 35  2  0  0  0
 34 40  1  0  0  0
 36 37  1  0  0  0
 36 86  1  0  0  0
 36 87  1  0  0  0
 37 38  1  0  0  0
 37 39  1  0  0  0
 37 88  1  0  0  0
 38 89  1  0  0  0
 38 90  1  0  0  0
 38 91  1  0  0  0
 39 92  1  0  0  0
 39 93  1  0  0  0
 39 94  1  0  0  0
 40 52  1  0  0  0
 40 95  1  0  0  0
 41 49  1  0  0  0
 42 50  1  0  0  0
 43 46  2  0  0  0
 43 50  1  0  0  0
 43 96  1  0  0  0
 44 45  1  0  0  0
 44 47  1  0  0  0
 44 50  2  0  0  0
 46 51  1  0  0  0
 46 97  1  0  0  0
 47 51  2  0  0  0
 47 98  1  0  0  0
 48 51  1  0  0  0
 48 52  1  0  0  0
 48 99  1  0  0  0
 48100  1  0  0  0
 49 52  1  0  0  0
 49 53  2  0  0  0
 52101  1  0  0  0
M  CHG  2  30  -1  41  -1
M  END
> <s_m_source_file>
../4tsz_ligand.sdf

> <i_m_source_file_index>
1

> <s_epik_input>
Tz1DKFtOSDJdKVtDSDJdW0NIMl1bQ0BIXShbTkhdQyg9TylbQ0gzXSlDKD1PKVtOSF1bQ0BASF0oW0NIMl1bQ0hdMVtDSDJdW0NIMl1bQ0gyXVtDSDJdW0NIMl0xKUMoPU8pW05IXVtDQEBIXShbQ0gyXUMoPU8pW09IXSlDKD1PKVtOSF1bQ0BASF0oW0NIMl1bQ0hdKFtDSDNdKVtDSDNdKUMoPU8pW05IXVtDQEhdKEMoPU8pW09IXSlbQ0gyXWMoW2NIXWMyQ2wpW2NIXVtjSF1jMkNs

> <s_epik_cmdline>
J2VwaWtfYXBwJywgJy1pbWFlJywgJ2xpZ2FuZF9wcm8ubWFlJywgJy1vbWFlJywgJ2xpZ2FuZF9wcmVwLm1hZScsICctbXMnLCAnMScsICctcGgnLCAnNycsICctcGh0JywgJzAuNScsICctbnQn

> <r_lp_tautomer_probability>
1

> <r_epik_Ionization_Penalty>
  0.0038

> <r_epik_Ionization_Penalty_Charging>
  0.0038

> <r_epik_Ionization_Penalty_Neutral>
  0.0000

> <r_epik_State_Penalty>
 -0.0000

> <r_epik_Charging_Adjusted_Penalty>
0.00383443595434272

> <i_epik_Tot_Q>
-2

> <i_epik_Tot_abs_Q>
2

$$$$
