4tt2_ligand
                    3D
 Schrodinger Suite 2020-3.
 85 84  0  0  1  0            999 V2000
   22.0920   -8.8010   12.1740 N   0  3  0  0  0  0
   22.8760   -7.8450   13.0080 C   0  0  2  0  0  0
   22.2250   -7.6500   14.3730 C   0  0  0  0  0  0
   21.0550   -7.9870   14.5670 O   0  0  0  0  0  0
   23.0100   -6.4910   12.2960 C   0  0  0  0  0  0
   23.9020   -6.5660   11.1930 O   0  0  0  0  0  0
   23.0020   -7.1200   15.3150 N   0  0  0  0  0  0
   22.4760   -6.6500   16.5940 C   0  0  0  0  0  0
   21.9360   -5.2410   16.4250 C   0  0  0  0  0  0
   22.0520   -4.6550   15.3480 O   0  0  0  0  0  0
   21.3470   -4.6870   17.4800 N   0  0  0  0  0  0
   20.7770   -3.3460   17.4040 C   0  0  2  0  0  0
   21.8410   -2.2870   17.1160 C   0  0  0  0  0  0
   23.0030   -2.4250   17.5010 O   0  0  0  0  0  0
   20.0460   -2.9920   18.6870 C   0  0  0  0  0  0
   18.7490   -3.7480   18.8880 C   0  0  0  0  0  0
   17.7590   -2.8850   19.6460 C   0  0  0  0  0  0
   17.1800   -3.5570   20.8030 N   0  0  0  0  0  0
   16.6970   -2.9310   21.8760 C   0  0  0  0  0  0
   16.7130   -1.6020   21.9630 N   0  0  0  0  0  0
   16.1960   -3.6400   22.8800 N   0  3  0  0  0  0
   21.4080   -1.2170   16.4590 N   0  0  0  0  0  0
   22.2970   -0.1880   15.9530 C   0  0  0  0  0  0
   22.3930   -0.3330   14.4510 C   0  0  0  0  0  0
   22.3000   -1.4430   13.9240 O   0  0  0  0  0  0
   15.6680    3.9370   13.1410 O   0  0  0  0  0  0
   16.0590    4.2550   12.0250 C   0  0  0  0  0  0
   15.2810    5.2120   11.1650 C   0  0  0  0  0  0
   17.1930    3.7890   11.4820 N   0  0  0  0  0  0
   18.0710    2.8520   12.1730 C   0  0  0  0  0  0
   19.4250    2.6950   11.4840 C   0  0  0  0  0  0
   20.3840    1.8390   12.3070 C   0  0  0  0  0  0
   21.8100    1.9250   11.7610 C   0  0  0  0  0  0
   22.7100    0.8220   12.3140 C   0  0  2  0  0  0
   22.5730    0.7930   13.7690 N   0  0  0  0  0  0
   24.1480    1.0790   11.9420 C   0  0  0  0  0  0
   24.9930    1.3270   12.8090 O   0  0  0  0  0  0
   24.4420    1.0090   10.6450 N   0  0  0  0  0  0
   25.7820    1.3140   10.1250 C   0  0  0  0  0  0
   26.8540    0.2740   10.4280 C   0  0  0  0  0  0
   26.6500   -0.6460   11.2280 O   0  0  0  0  0  0
   27.9714    0.3536    9.8511 O   0  5  0  0  0  0
   22.0075   -9.7630   12.7006 H   0  0  0  0  0  0
   22.6034   -8.9532   11.2121 H   0  0  0  0  0  0
   21.0869   -8.3918   11.9942 H   0  0  0  0  0  0
   23.8690   -8.2976   13.1462 H   0  0  0  0  0  0
   22.0247   -6.1730   11.9245 H   0  0  0  0  0  0
   23.3947   -5.7413   13.0031 H   0  0  0  0  0  0
   24.0998   -5.6717   10.5839 H   0  0  0  0  0  0
   24.0782   -7.0426   15.1011 H   0  0  0  0  0  0
   21.6672   -7.3178   16.9255 H   0  0  0  0  0  0
   23.2811   -6.6491   17.3435 H   0  0  0  0  0  0
   21.2930   -5.2551   18.4204 H   0  0  0  0  0  0
   20.0689   -3.4025   16.5641 H   0  0  0  0  0  0
   20.6896   -3.2179   19.5500 H   0  0  0  0  0  0
   19.7990   -1.9201   18.6845 H   0  0  0  0  0  0
   18.3234   -4.0127   17.9088 H   0  0  0  0  0  0
   18.9445   -4.6652   19.4629 H   0  0  0  0  0  0
   18.2651   -1.9777   20.0075 H   0  0  0  0  0  0
   16.9323   -2.6022   18.9778 H   0  0  0  0  0  0
   17.1205   -4.6551   20.8285 H   0  0  0  0  0  0
   17.1252   -1.0018   21.1385 H   0  0  0  0  0  0
   16.3140   -1.1047   22.8594 H   0  0  0  0  0  0
   16.1764   -4.7383   22.8217 H   0  0  0  0  0  0
   20.3223   -1.1305   16.3046 H   0  0  0  0  0  0
   21.8943    0.8030   16.2095 H   0  0  0  0  0  0
   23.2922   -0.3079   16.4061 H   0  0  0  0  0  0
   14.3748    5.5321   11.7000 H   0  0  0  0  0  0
   14.9961    4.7133   10.2268 H   0  0  0  0  0  0
   15.9030    6.0906   10.9390 H   0  0  0  0  0  0
   17.4509    4.1423   10.4727 H   0  0  0  0  0  0
   18.2538    3.2082   13.1975 H   0  0  0  0  0  0
   17.5945    1.8612   12.2088 H   0  0  0  0  0  0
   19.2847    2.2126   10.5054 H   0  0  0  0  0  0
   19.8814    3.6858   11.3423 H   0  0  0  0  0  0
   20.3858    2.1897   13.3496 H   0  0  0  0  0  0
   20.0585    0.7888   12.2740 H   0  0  0  0  0  0
   21.7894    1.8304   10.6653 H   0  0  0  0  0  0
   22.2505    2.8944   12.0371 H   0  0  0  0  0  0
   22.4135   -0.1621   11.9221 H   0  0  0  0  0  0
   22.6175    1.7295   14.3444 H   0  0  0  0  0  0
   23.6391    0.7103    9.9550 H   0  0  0  0  0  0
   25.7382    1.4052    9.0297 H   0  0  0  0  0  0
   26.1365    2.2610   10.5579 H   0  0  0  0  0  0
   15.8004   -3.1293   23.7703 H   0  0  0  0  0  0
  1  2  1  0  0  0
  1 43  1  0  0  0
  1 44  1  0  0  0
  1 45  1  0  0  0
  2  3  1  0  0  0
  2  5  1  0  0  0
  2 46  1  0  0  0
  3  4  2  0  0  0
  3  7  1  0  0  0
  5  6  1  0  0  0
  5 47  1  0  0  0
  5 48  1  0  0  0
  6 49  1  0  0  0
  7  8  1  0  0  0
  7 50  1  0  0  0
  8  9  1  0  0  0
  8 51  1  0  0  0
  8 52  1  0  0  0
  9 10  2  0  0  0
  9 11  1  0  0  0
 11 12  1  0  0  0
 11 53  1  0  0  0
 12 13  1  0  0  0
 12 15  1  0  0  0
 12 54  1  0  0  0
 13 14  2  0  0  0
 13 22  1  0  0  0
 15 16  1  0  0  0
 15 55  1  0  0  0
 15 56  1  0  0  0
 16 17  1  0  0  0
 16 57  1  0  0  0
 16 58  1  0  0  0
 17 18  1  0  0  0
 17 59  1  0  0  0
 17 60  1  0  0  0
 18 19  1  0  0  0
 18 61  1  0  0  0
 19 20  1  0  0  0
 19 21  2  0  0  0
 20 62  1  0  0  0
 20 63  1  0  0  0
 21 64  1  0  0  0
 21 85  1  0  0  0
 22 23  1  0  0  0
 22 65  1  0  0  0
 23 24  1  0  0  0
 23 66  1  0  0  0
 23 67  1  0  0  0
 24 25  2  0  0  0
 24 35  1  0  0  0
 26 27  2  0  0  0
 27 28  1  0  0  0
 27 29  1  0  0  0
 28 68  1  0  0  0
 28 69  1  0  0  0
 28 70  1  0  0  0
 29 30  1  0  0  0
 29 71  1  0  0  0
 30 31  1  0  0  0
 30 72  1  0  0  0
 30 73  1  0  0  0
 31 32  1  0  0  0
 31 74  1  0  0  0
 31 75  1  0  0  0
 32 33  1  0  0  0
 32 76  1  0  0  0
 32 77  1  0  0  0
 33 34  1  0  0  0
 33 78  1  0  0  0
 33 79  1  0  0  0
 34 35  1  0  0  0
 34 36  1  0  0  0
 34 80  1  0  0  0
 35 81  1  0  0  0
 36 37  2  0  0  0
 36 38  1  0  0  0
 38 39  1  0  0  0
 38 82  1  0  0  0
 39 40  1  0  0  0
 39 83  1  0  0  0
 39 84  1  0  0  0
 40 41  2  0  0  0
 40 42  1  0  0  0
M  CHG  3   1   1  21   1  42  -1
M  END
> <s_m_source_file>
../4tt2_ligand.sdf

> <i_m_source_file_index>
1

> <s_epik_input>
W09IXVtDSDJdW0NASF0oW05IMytdKUMoPU8pW05IXVtDSDJdQyg9TylbTkhdW0NAQEhdKFtDSDJdW0NIMl1bQ0gyXVtOSF0vQyhbTkgyXSk9TlxbSF0pQyg9TylbTkhdW0NIMl1DKD1PKVtOSF1bQ0BIXShDKD1PKVtOSF1bQ0gyXUMoPU8pW09IXSlbQ0gyXVtDSDJdW0NIMl1bQ0gyXVtOSF1DKD1PKVtDSDNd

> <s_epik_cmdline>
J2VwaWtfYXBwJywgJy1pbWFlJywgJ2xpZ2FuZF9wcm8ubWFlJywgJy1vbWFlJywgJ2xpZ2FuZF9wcmVwLm1hZScsICctbXMnLCAnMScsICctcGgnLCAnNycsICctcGh0JywgJzAuNScsICctbnQn

> <r_epik_Ionization_Penalty>
  0.1504

> <r_epik_Ionization_Penalty_Charging>
  0.1504

> <r_epik_Ionization_Penalty_Neutral>
  0.0000

> <r_epik_State_Penalty>
  0.1395

> <r_epik_Charging_Adjusted_Penalty>
0.289953621965523

> <i_epik_Tot_Q>
1

> <i_epik_Tot_abs_Q>
3

> <s_epik_Chemistry_Notes>
This compound has an imine and may undergo hydrolysis.

$$$$
