4tte_ligand
                    3D
 Schrodinger Suite 2020-3.
 32 33  0  0  1  0            999 V2000
  -12.1500   23.8040   12.5600 C   0  0  0  0  0  0
  -13.4110   24.1590   11.7580 C   0  0  0  0  0  0
  -14.4700   24.9110   12.2620 O   0  0  0  0  0  0
  -15.2830   25.0300   11.4020 N   0  0  0  0  0  0
  -14.8910   24.4030   10.3050 C   0  0  0  0  0  0
  -15.7220   24.3600    9.0050 C   0  0  0  0  0  0
  -13.7150   23.8350   10.5090 C   0  0  0  0  0  0
  -13.0040   23.1660    9.5860 C   0  0  0  0  0  0
  -13.5960   22.1950    8.7700 C   0  0  0  0  0  0
  -11.6570   23.5000    9.3750 C   0  0  0  0  0  0
  -10.9070   22.8500    8.3950 C   0  0  0  0  0  0
   -9.6320   23.1670    8.2190 N   0  0  0  0  0  0
  -11.4950   21.8720    7.5990 C   0  0  0  0  0  0
  -12.8470   21.5370    7.7830 C   0  0  0  0  0  0
  -13.4400   20.5650    6.9640 C   0  0  0  0  0  0
  -12.7840   20.0430    6.0560 O   0  0  0  0  0  0
  -14.7810   20.3450    7.1840 O   0  0  0  0  0  0
  -15.2890   19.0650    6.7830 C   0  0  0  0  0  0
  -12.2241   24.2348   13.5694 H   0  0  0  0  0  0
  -11.2646   24.2127   12.0510 H   0  0  0  0  0  0
  -12.0583   22.7103   12.6339 H   0  0  0  0  0  0
  -16.6540   24.9268    9.1467 H   0  0  0  0  0  0
  -15.9621   23.3154    8.7577 H   0  0  0  0  0  0
  -15.1421   24.8072    8.1842 H   0  0  0  0  0  0
  -14.6492   21.9477    8.9027 H   0  0  0  0  0  0
  -11.1922   24.2757    9.9836 H   0  0  0  0  0  0
   -9.1656   23.9400    8.8475 H   0  0  0  0  0  0
   -9.0403   22.6571    7.4445 H   0  0  0  0  0  0
  -10.9071   21.3660    6.8332 H   0  0  0  0  0  0
  -16.3642   19.0102    7.0086 H   0  0  0  0  0  0
  -14.7585   18.2721    7.3306 H   0  0  0  0  0  0
  -15.1338   18.9311    5.7023 H   0  0  0  0  0  0
  1  2  1  0  0  0
  1 19  1  0  0  0
  1 20  1  0  0  0
  1 21  1  0  0  0
  2  3  1  0  0  0
  2  7  2  0  0  0
  3  4  1  0  0  0
  4  5  2  0  0  0
  5  6  1  0  0  0
  5  7  1  0  0  0
  6 22  1  0  0  0
  6 23  1  0  0  0
  6 24  1  0  0  0
  7  8  1  0  0  0
  8  9  2  0  0  0
  8 10  1  0  0  0
  9 14  1  0  0  0
  9 25  1  0  0  0
 10 11  2  0  0  0
 10 26  1  0  0  0
 11 12  1  0  0  0
 11 13  1  0  0  0
 12 27  1  0  0  0
 12 28  1  0  0  0
 13 14  2  0  0  0
 13 29  1  0  0  0
 14 15  1  0  0  0
 15 16  2  0  0  0
 15 17  1  0  0  0
 17 18  1  0  0  0
 18 30  1  0  0  0
 18 31  1  0  0  0
 18 32  1  0  0  0
M  END
> <s_m_source_file>
../4tte_ligand.sdf

> <i_m_source_file_index>
1

> <s_epik_input>
W0NIM11jMW9uYyhbQ0gzXSljMS1jMltjSF1jKFtjSF1jKFtjSF0yKVtOSDJdKUMoPU8pT1tDSDNd

> <s_epik_cmdline>
J2VwaWtfYXBwJywgJy1pbWFlJywgJ2xpZ2FuZF9wcm8ubWFlJywgJy1vbWFlJywgJ2xpZ2FuZF9wcmVwLm1hZScsICctbXMnLCAnMScsICctcGgnLCAnNycsICctcGh0JywgJzAuNScsICctbnQn

> <r_lp_tautomer_probability>
1

> <r_epik_Ionization_Penalty>
  0.0002

> <r_epik_Ionization_Penalty_Charging>
  0.0000

> <r_epik_Ionization_Penalty_Neutral>
  0.0002

> <r_epik_State_Penalty>
 -0.0000

> <r_epik_Charging_Adjusted_Penalty>
0

> <i_epik_Tot_Q>
0

> <i_epik_Tot_abs_Q>
0

> <s_epik_Chemistry_Notes>
This compound has an ester and may undergo hydrolysis at high or low pH.

$$$$
