4ttv_ligand
                    3D
 Schrodinger Suite 2020-3.
 74 75  0  0  1  0            999 V2000
   34.0320  -11.9460   33.1570 C   0  0  1  0  0  0
   35.2030  -11.8220   34.0630 C   0  0  1  0  0  0
   35.0540  -10.3300   34.0430 C   0  0  0  0  0  0
   33.9420  -10.4520   33.0410 C   0  0  0  0  0  0
   34.3230  -12.6280   31.8520 C   0  0  2  0  0  0
   33.0000  -12.4000   31.1810 C   0  0  0  0  0  0
   32.4860  -13.5100   30.3520 C   0  0  0  0  0  0
   31.2760  -14.0010   30.4740 C   0  0  0  0  0  0
   31.1110  -15.0320   29.4940 C   0  0  0  0  0  0
   30.0630  -15.7540   29.1850 C   0  0  0  0  0  0
   28.9640  -15.6920   29.7440 C   0  0  0  0  0  0
   30.3300  -16.6730   28.0670 C   0  0  1  0  0  0
   30.3960  -18.0710   28.5790 C   0  0  1  0  0  0
   30.4840  -18.9650   27.3750 C   0  0  0  0  0  0
   31.6120  -18.2250   29.4510 C   0  0  0  0  0  0
   31.5700  -19.4940   30.2620 C   0  0  2  0  0  0
   30.2610  -19.6000   30.9860 C   0  0  0  0  0  0
   32.6810  -19.5070   31.2860 C   0  0  0  0  0  0
   34.0160  -19.0680   30.7370 C   0  0  2  0  0  0
   34.7630  -20.2180   30.1320 C   0  0  0  0  0  0
   34.7920  -18.4900   31.8890 C   0  0  0  0  0  0
   36.2650  -18.3290   31.6590 C   0  0  2  0  0  0
   36.9250  -18.6910   32.9560 C   0  0  0  0  0  0
   36.6160  -16.9110   31.2850 C   0  0  2  0  0  0
   36.0770  -15.9820   32.3440 C   0  0  0  0  0  0
   35.8330  -14.5560   31.9640 C   0  0  0  0  0  0
   36.7140  -13.8620   31.5840 O   0  0  0  0  0  0
   34.5220  -14.0050   32.0860 O   0  0  0  0  0  0
   34.8770  -12.3950   35.3770 C   0  0  0  0  0  0
   33.7840  -12.1460   35.8610 O   0  0  0  0  0  0
   35.7150  -13.1020   35.9230 O   0  5  0  0  0  0
   29.2980  -16.5510   27.1190 O   0  0  0  0  0  0
   35.9890  -16.6510   30.0540 O   0  0  0  0  0  0
   27.9400  -15.6440   30.2540 N   0  0  0  0  0  0
   33.1641  -12.5381   33.4828 H   0  0  0  0  0  0
   36.1719  -12.2900   33.8346 H   0  0  0  0  0  0
   34.8042   -9.9729   35.0530 H   0  0  0  0  0  0
   35.9986   -9.8715   33.7152 H   0  0  0  0  0  0
   34.1386  -10.1525   32.0010 H   0  0  0  0  0  0
   32.9344  -10.1215   33.3335 H   0  0  0  0  0  0
   35.2256  -12.3301   31.2983 H   0  0  0  0  0  0
   32.2301  -12.2105   31.9434 H   0  0  0  0  0  0
   33.0738  -11.5311   30.5105 H   0  0  0  0  0  0
   33.1754  -13.9261   29.6026 H   0  0  0  0  0  0
   30.5953  -13.6021   31.2405 H   0  0  0  0  0  0
   32.0597  -15.1820   28.9579 H   0  0  0  0  0  0
   31.2631  -16.4028   27.5509 H   0  0  0  0  0  0
   29.5109  -18.3212   29.1824 H   0  0  0  0  0  0
   29.5850  -18.8342   26.7547 H   0  0  0  0  0  0
   30.5552  -20.0132   27.7010 H   0  0  0  0  0  0
   31.3762  -18.7023   26.7877 H   0  0  0  0  0  0
   32.5138  -18.2501   28.8215 H   0  0  0  0  0  0
   31.6742  -17.3754   30.1469 H   0  0  0  0  0  0
   31.6850  -20.3421   29.5710 H   0  0  0  0  0  0
   29.4372  -19.5923   30.2571 H   0  0  0  0  0  0
   30.1515  -18.7473   31.6722 H   0  0  0  0  0  0
   30.2342  -20.5382   31.5597 H   0  0  0  0  0  0
   32.4264  -18.8264   32.1118 H   0  0  0  0  0  0
   32.8071  -20.5273   31.6773 H   0  0  0  0  0  0
   33.8784  -18.3280   29.9348 H   0  0  0  0  0  0
   34.1843  -20.6299   29.2921 H   0  0  0  0  0  0
   34.9124  -20.9988   30.8923 H   0  0  0  0  0  0
   35.7405  -19.8692   29.7676 H   0  0  0  0  0  0
   34.4039  -17.4886   32.1268 H   0  0  0  0  0  0
   34.6848  -19.1430   32.7677 H   0  0  0  0  0  0
   36.5969  -18.9721   30.8306 H   0  0  0  0  0  0
   36.6652  -19.7259   33.2232 H   0  0  0  0  0  0
   36.5776  -18.0099   33.7468 H   0  0  0  0  0  0
   38.0162  -18.6027   32.8493 H   0  0  0  0  0  0
   37.6944  -16.7482   31.1414 H   0  0  0  0  0  0
   35.1049  -16.3551   32.6987 H   0  0  0  0  0  0
   36.7826  -15.9380   33.1868 H   0  0  0  0  0  0
   29.1068  -15.5815   26.6359 H   0  0  0  0  0  0
   36.2603  -17.2376   29.1639 H   0  0  0  0  0  0
  1  2  1  0  0  0
  1  4  1  0  0  0
  1  5  1  0  0  0
  1 35  1  0  0  0
  2  3  1  0  0  0
  2 29  1  0  0  0
  2 36  1  0  0  0
  3  4  1  0  0  0
  3 37  1  0  0  0
  3 38  1  0  0  0
  4 39  1  0  0  0
  4 40  1  0  0  0
  5  6  1  0  0  0
  5 28  1  0  0  0
  5 41  1  0  0  0
  6  7  1  0  0  0
  6 42  1  0  0  0
  6 43  1  0  0  0
  7  8  2  0  0  0
  7 44  1  0  0  0
  8  9  1  0  0  0
  8 45  1  0  0  0
  9 10  2  0  0  0
  9 46  1  0  0  0
 10 11  1  0  0  0
 10 12  1  0  0  0
 11 34  3  0  0  0
 12 13  1  0  0  0
 12 32  1  0  0  0
 12 47  1  0  0  0
 13 14  1  0  0  0
 13 15  1  0  0  0
 13 48  1  0  0  0
 14 49  1  0  0  0
 14 50  1  0  0  0
 14 51  1  0  0  0
 15 16  1  0  0  0
 15 52  1  0  0  0
 15 53  1  0  0  0
 16 17  1  0  0  0
 16 18  1  0  0  0
 16 54  1  0  0  0
 17 55  1  0  0  0
 17 56  1  0  0  0
 17 57  1  0  0  0
 18 19  1  0  0  0
 18 58  1  0  0  0
 18 59  1  0  0  0
 19 20  1  0  0  0
 19 21  1  0  0  0
 19 60  1  0  0  0
 20 61  1  0  0  0
 20 62  1  0  0  0
 20 63  1  0  0  0
 21 22  1  0  0  0
 21 64  1  0  0  0
 21 65  1  0  0  0
 22 23  1  0  0  0
 22 24  1  0  0  0
 22 66  1  0  0  0
 23 67  1  0  0  0
 23 68  1  0  0  0
 23 69  1  0  0  0
 24 25  1  0  0  0
 24 33  1  0  0  0
 24 70  1  0  0  0
 25 26  1  0  0  0
 25 71  1  0  0  0
 25 72  1  0  0  0
 26 27  2  0  0  0
 26 28  1  0  0  0
 29 30  2  0  0  0
 29 31  1  0  0  0
 32 73  1  0  0  0
 33 74  1  0  0  0
M  CHG  1  31  -1
M  END
> <s_m_source_file>
../4ttv_ligand.sdf

> <i_m_source_file_index>
1

> <s_epik_input>
W0NIMl0xW0NIMl1bQ0BASF0oQyg9TylbT0hdKVtDQEBIXTFbQ0BASF0yW0NIMl0vW0NIXT1bQ0hdL1tDSF09QyhcQyNOKVtDQEhdKFtPSF0pW0NAQEhdKFtDSDNdKVtDSDJdW0NASF0oW0NIM10pW0NIMl1bQ0BIXShbQ0gzXSlbQ0gyXVtDQEhdKFtDSDNdKVtDQEBIXShbT0hdKVtDSDJdQyg9TylPMg==

> <s_epik_cmdline>
J2VwaWtfYXBwJywgJy1pbWFlJywgJ2xpZ2FuZF9wcm8ubWFlJywgJy1vbWFlJywgJ2xpZ2FuZF9wcmVwLm1hZScsICctbXMnLCAnMScsICctcGgnLCAnNycsICctcGh0JywgJzAuNScsICctbnQn

> <r_lp_tautomer_probability>
1

> <r_epik_Ionization_Penalty>
  0.0027

> <r_epik_Ionization_Penalty_Charging>
  0.0017

> <r_epik_Ionization_Penalty_Neutral>
  0.0011

> <r_epik_State_Penalty>
 -0.0000

> <r_epik_Charging_Adjusted_Penalty>
0.00168457001456078

> <i_epik_Tot_Q>
-1

> <i_epik_Tot_abs_Q>
1

> <s_epik_Chemistry_Notes>
This compound has an ester and may undergo hydrolysis at high or low pH.

$$$$
