4tu4_ligand
                    3D
 Schrodinger Suite 2020-3.
 41 43  0  0  1  0            999 V2000
  -11.9220   23.6620   12.5640 C   0  0  0  0  0  0
  -13.1590   23.8810   11.7070 C   0  0  0  0  0  0
  -13.3610   23.3600   10.3960 C   0  0  0  0  0  0
  -12.4200   22.5130    9.5780 C   0  0  0  0  0  0
  -12.5250   21.1270    9.4970 C   0  0  0  0  0  0
  -11.6170   20.4100    8.7080 C   0  0  0  0  0  0
  -11.6660   18.9930    8.5900 N   0  0  0  0  0  0
  -13.0340   18.1510    8.1800 S   0  0  0  0  0  0
  -13.5540   18.5060    6.5120 C   0  0  0  0  0  0
  -12.7080   18.2050    5.4410 C   0  0  0  0  0  0
  -13.1010   18.4690    4.1300 C   0  0  0  0  0  0
  -14.3420   19.0330    3.8850 C   0  0  0  0  0  0
  -15.1930   19.3380    4.9520 C   0  0  0  0  0  0
  -14.8040   19.0740    6.2640 C   0  0  0  0  0  0
  -14.0870   18.3580    9.1360 O   0  0  0  0  0  0
  -12.8280   16.7340    8.3640 O   0  0  0  0  0  0
  -10.6210   21.0840    8.0180 C   0  0  0  0  0  0
  -10.5180   22.4690    8.1090 C   0  0  0  0  0  0
   -9.4540   23.2030    7.3390 C   0  0  0  0  0  0
   -9.3110   24.4550    7.4060 O   0  5  0  0  0  0
   -8.7360   22.5400    6.5640 O   0  0  0  0  0  0
  -11.4160   23.1770    8.8840 C   0  0  0  0  0  0
  -14.6630   23.8840   10.0340 C   0  0  0  0  0  0
  -15.4030   23.6590    8.7350 C   0  0  0  0  0  0
  -15.1020   24.6090   11.0470 N   0  0  0  0  0  0
  -14.2330   24.6020   12.0250 O   0  0  0  0  0  0
  -11.2108   23.0198   12.0239 H   0  0  0  0  0  0
  -12.2110   23.1763   13.5077 H   0  0  0  0  0  0
  -11.4495   24.6315   12.7803 H   0  0  0  0  0  0
  -13.3089   20.6034   10.0442 H   0  0  0  0  0  0
  -10.7275   18.4546    8.7881 H   0  0  0  0  0  0
  -11.7318   17.7597    5.6327 H   0  0  0  0  0  0
  -12.4342   18.2325    3.3008 H   0  0  0  0  0  0
  -14.6551   19.2390    2.8615 H   0  0  0  0  0  0
  -16.1675   19.7854    4.7561 H   0  0  0  0  0  0
  -15.4727   19.3100    7.0918 H   0  0  0  0  0  0
   -9.9156   20.5268    7.4016 H   0  0  0  0  0  0
  -11.3365   24.2620    8.9514 H   0  0  0  0  0  0
  -14.8005   23.0162    8.0764 H   0  0  0  0  0  0
  -15.5800   24.6261    8.2416 H   0  0  0  0  0  0
  -16.3669   23.1711    8.9419 H   0  0  0  0  0  0
  1  2  1  0  0  0
  1 27  1  0  0  0
  1 28  1  0  0  0
  1 29  1  0  0  0
  2  3  2  0  0  0
  2 26  1  0  0  0
  3  4  1  0  0  0
  3 23  1  0  0  0
  4  5  2  0  0  0
  4 22  1  0  0  0
  5  6  1  0  0  0
  5 30  1  0  0  0
  6  7  1  0  0  0
  6 17  2  0  0  0
  7  8  1  0  0  0
  7 31  1  0  0  0
  8  9  1  0  0  0
  8 15  2  0  0  0
  8 16  2  0  0  0
  9 10  2  0  0  0
  9 14  1  0  0  0
 10 11  1  0  0  0
 10 32  1  0  0  0
 11 12  2  0  0  0
 11 33  1  0  0  0
 12 13  1  0  0  0
 12 34  1  0  0  0
 13 14  2  0  0  0
 13 35  1  0  0  0
 14 36  1  0  0  0
 17 18  1  0  0  0
 17 37  1  0  0  0
 18 19  1  0  0  0
 18 22  2  0  0  0
 19 20  1  0  0  0
 19 21  2  0  0  0
 22 38  1  0  0  0
 23 24  1  0  0  0
 23 25  2  0  0  0
 24 39  1  0  0  0
 24 40  1  0  0  0
 24 41  1  0  0  0
 25 26  1  0  0  0
M  CHG  1  20  -1
M  END
> <s_m_source_file>
../4tu4_ligand.sdf

> <i_m_source_file_index>
1

> <s_epik_input>
bzFuYyhbQ0gzXSljKGMxW0NIM10pLWMyW2NIXWMoW2NIXWMoW2NIXTIpQyg9TylbT0hdKVtOSF1TKD1PKSg9TyljM1tjSF1bY0hdW2NIXVtjSF1bY0hdMw==

> <s_epik_cmdline>
J2VwaWtfYXBwJywgJy1pbWFlJywgJ2xpZ2FuZF9wcm8ubWFlJywgJy1vbWFlJywgJ2xpZ2FuZF9wcmVwLm1hZScsICctbXMnLCAnMScsICctcGgnLCAnNycsICctcGh0JywgJzAuNScsICctbnQn

> <r_epik_Ionization_Penalty>
  0.0254

> <r_epik_Ionization_Penalty_Charging>
  0.0001

> <r_epik_Ionization_Penalty_Neutral>
  0.0253

> <r_epik_State_Penalty>
  0.0206

> <r_epik_Charging_Adjusted_Penalty>
0.0207076971497725

> <i_epik_Tot_Q>
-1

> <i_epik_Tot_abs_Q>
1

$$$$
