4tuh_ligand
                    3D
 Schrodinger Suite 2020-3.
 76 83  0  0  1  0            999 V2000
  -10.8650   17.3990   50.7200 C   0  0  0  0  0  0
  -11.3490   19.5290   51.4910 N   0  0  0  0  0  0
   -8.3840   20.4120   48.9210 O   0  0  0  0  0  0
   -9.7460   18.3160   49.8540 S   0  0  0  0  0  0
  -11.0230   16.0270   50.6690 C   0  0  0  0  0  0
   -9.9170   20.9990   50.3370 N   0  0  0  0  0  0
   -1.0850   22.8330   44.6990 O   0  5  0  0  0  0
   -4.5860   20.3780   47.1360 S   0  0  0  0  0  0
  -11.9880   15.4160   51.4570 C   0  0  0  0  0  0
   -5.5600   22.8930   47.1200 N   0  0  0  0  0  0
   -0.2360   20.9730   45.5210 O   0  0  0  0  0  0
  -12.7690   16.2040   52.3020 C   0  0  0  0  0  0
   -3.3830   22.5060   46.2430 N   0  0  0  0  0  0
   -1.2170   16.3480   47.3500 O   0  0  0  0  0  0
  -12.5990   17.5870   52.3550 C   0  0  0  0  0  0
    1.1550   11.5130   46.2160 N   0  0  0  0  0  0
  -11.6330   18.1990   51.5610 C   0  0  0  0  0  0
    0.4830   10.2930   46.3430 N   0  0  0  0  0  0
  -10.3080   19.7410   50.6690 C   0  0  0  0  0  0
   -8.9910   21.3370   49.4370 C   0  0  0  0  0  0
   -8.8490   22.7490   48.9660 C   0  0  0  0  0  0
   -9.9110   23.5890   49.2840 C   0  0  0  0  0  0
   -9.9620   24.8960   48.8150 C   0  0  0  0  0  0
   -8.9340   25.3410   47.9930 C   0  0  0  0  0  0
   -7.9060   24.4870   47.6200 C   0  0  0  0  0  0
   -7.8480   23.1890   48.1060 C   0  0  0  0  0  0
   -6.7190   22.2660   47.6970 C   0  0  0  0  0  0
   -5.4850   24.3410   46.9870 C   0  0  0  0  0  0
   -6.8230   25.0130   46.7100 C   0  0  0  0  0  0
   -4.5290   22.0840   46.8140 C   0  0  0  0  0  0
   -2.5010   21.5070   46.0550 C   0  0  0  0  0  0
   -1.1810   21.7890   45.4020 C   0  0  0  0  0  0
   -2.9890   20.2610   46.4750 C   0  0  0  0  0  0
   -2.2860   18.9190   46.4260 C   0  0  0  0  0  0
   -1.4500   18.6860   47.7000 C   0  0  0  0  0  0
   -0.4580   17.5570   47.5080 C   0  0  0  0  0  0
   -0.6560   15.1350   47.0610 C   0  0  0  0  0  0
   -1.4040   14.0040   46.7760 C   0  0  0  0  0  0
   -0.7610   12.8020   46.5040 C   0  0  0  0  0  0
    0.6260   12.7090   46.5250 C   0  0  0  0  0  0
    1.3850   13.8500   46.8080 C   0  0  0  0  0  0
    0.7370   15.0570   47.0870 C   0  0  0  0  0  0
    1.2830    9.3050   45.8950 C   0  0  0  0  0  0
    2.4800    9.9570   45.4540 C   0  0  0  0  0  0
    3.6370    9.4290   44.8960 C   0  0  0  0  0  0
    4.4780   11.5570   44.7720 C   0  0  0  0  0  0
    2.3690   11.3430   45.6580 C   0  0  0  0  0  0
    3.4070   12.1490   45.3010 N   0  0  0  0  0  0
    4.6420   10.2460   44.5600 N   0  0  0  0  0  0
  -10.3923   15.4274   50.0126 H   0  0  0  0  0  0
  -10.3789   21.8668   50.8306 H   0  0  0  0  0  0
  -12.1334   14.3365   51.4162 H   0  0  0  0  0  0
  -13.5238   15.7316   52.9306 H   0  0  0  0  0  0
  -13.2218   18.1883   53.0174 H   0  0  0  0  0  0
  -10.7187   23.2149   49.9131 H   0  0  0  0  0  0
  -10.7871   25.5551   49.0850 H   0  0  0  0  0  0
   -8.9351   26.3714   47.6376 H   0  0  0  0  0  0
   -7.1526   21.5603   46.9732 H   0  0  0  0  0  0
   -6.4270   21.7234   48.6082 H   0  0  0  0  0  0
   -5.0929   24.7749   47.9187 H   0  0  0  0  0  0
   -4.8160   24.5984   46.1527 H   0  0  0  0  0  0
   -7.0986   24.8205   45.6626 H   0  0  0  0  0  0
   -6.7072   26.0958   46.8656 H   0  0  0  0  0  0
   -3.0335   18.1163   46.3431 H   0  0  0  0  0  0
   -1.6161   18.8876   45.5541 H   0  0  0  0  0  0
   -0.8939   19.6026   47.9463 H   0  0  0  0  0  0
   -2.1180   18.4269   48.5347 H   0  0  0  0  0  0
    0.1990   17.4654   48.3855 H   0  0  0  0  0  0
    0.1526   17.7268   46.6089 H   0  0  0  0  0  0
   -2.4927   14.0566   46.7651 H   0  0  0  0  0  0
   -1.3540   11.9178   46.2704 H   0  0  0  0  0  0
    2.4738   13.7981   46.8109 H   0  0  0  0  0  0
    1.3242   15.9435   47.3266 H   0  0  0  0  0  0
    1.0655    8.2372   45.8729 H   0  0  0  0  0  0
    3.7259    8.3550   44.7327 H   0  0  0  0  0  0
    5.3039   12.2069   44.4828 H   0  0  0  0  0  0
  1  4  1  0  0  0
  1  5  1  0  0  0
  1 17  2  0  0  0
  2 17  1  0  0  0
  2 19  2  0  0  0
  3 20  2  0  0  0
  4 19  1  0  0  0
  5  9  2  0  0  0
  5 50  1  0  0  0
  6 19  1  0  0  0
  6 20  1  0  0  0
  6 51  1  0  0  0
  7 32  1  0  0  0
  8 30  1  0  0  0
  8 33  1  0  0  0
  9 12  1  0  0  0
  9 52  1  0  0  0
 10 27  1  0  0  0
 10 28  1  0  0  0
 10 30  1  0  0  0
 11 32  2  0  0  0
 12 15  2  0  0  0
 12 53  1  0  0  0
 13 30  2  0  0  0
 13 31  1  0  0  0
 14 36  1  0  0  0
 14 37  1  0  0  0
 15 17  1  0  0  0
 15 54  1  0  0  0
 16 18  1  0  0  0
 16 40  1  0  0  0
 16 47  1  0  0  0
 18 43  2  0  0  0
 20 21  1  0  0  0
 21 22  2  0  0  0
 21 26  1  0  0  0
 22 23  1  0  0  0
 22 55  1  0  0  0
 23 24  2  0  0  0
 23 56  1  0  0  0
 24 25  1  0  0  0
 24 57  1  0  0  0
 25 26  2  0  0  0
 25 29  1  0  0  0
 26 27  1  0  0  0
 27 58  1  0  0  0
 27 59  1  0  0  0
 28 29  1  0  0  0
 28 60  1  0  0  0
 28 61  1  0  0  0
 29 62  1  0  0  0
 29 63  1  0  0  0
 31 32  1  0  0  0
 31 33  2  0  0  0
 33 34  1  0  0  0
 34 35  1  0  0  0
 34 64  1  0  0  0
 34 65  1  0  0  0
 35 36  1  0  0  0
 35 66  1  0  0  0
 35 67  1  0  0  0
 36 68  1  0  0  0
 36 69  1  0  0  0
 37 38  2  0  0  0
 37 42  1  0  0  0
 38 39  1  0  0  0
 38 70  1  0  0  0
 39 40  2  0  0  0
 39 71  1  0  0  0
 40 41  1  0  0  0
 41 42  2  0  0  0
 41 72  1  0  0  0
 42 73  1  0  0  0
 43 44  1  0  0  0
 43 74  1  0  0  0
 44 45  2  0  0  0
 44 47  1  0  0  0
 45 49  1  0  0  0
 45 75  1  0  0  0
 46 48  1  0  0  0
 46 49  2  0  0  0
 46 76  1  0  0  0
 47 48  2  0  0  0
M  CHG  1   7  -1
M  END
> <s_m_source_file>
../4tuh_ligand.sdf

> <i_m_source_file_index>
1

> <s_epik_input>
W2NIXTFbY0hdW2NIXVtjSF1jKGMxMiluYyhzMilbTkhdQyg9TyljKFtjSF1bY0hdW2NIXTMpYyhjMzQpW0NIMl1OKFtDSDJdW0NIMl00KWM1c2MoYyhuNSlDKD1PKVtPSF0pW0NIMl1bQ0gyXVtDSDJdT2M2W2NIXVtjSF1jKFtjSF1bY0hdNiktbihuW2NIXTcpYyhjNzgpbltjSF1uW2NIXTg=

> <s_epik_cmdline>
J2VwaWtfYXBwJywgJy1pbWFlJywgJ2xpZ2FuZF9wcm8ubWFlJywgJy1vbWFlJywgJ2xpZ2FuZF9wcmVwLm1hZScsICctbXMnLCAnMScsICctcGgnLCAnNycsICctcGh0JywgJzAuNScsICctbnQn

> <r_epik_Ionization_Penalty>
  0.0122

> <r_epik_Ionization_Penalty_Charging>
  0.0022

> <r_epik_Ionization_Penalty_Neutral>
  0.0100

> <r_epik_State_Penalty>
  0.0075

> <r_epik_Charging_Adjusted_Penalty>
0.00964404840330709

> <i_epik_Tot_Q>
-1

> <i_epik_Tot_abs_Q>
1

$$$$
