4tv3_ligand
                    3D
 Schrodinger Suite 2020-3.
 58 61  0  0  1  0            999 V2000
  -16.2770    6.7940   26.9430 C   0  0  0  0  0  0
  -15.8980    5.6440   26.2850 C   0  0  0  0  0  0
  -14.8680    8.0310   25.4880 C   0  0  0  0  0  0
  -15.7640    8.0270   26.5540 C   0  0  0  0  0  0
  -15.5460   11.4460   28.1800 C   0  0  0  0  0  0
  -14.6170   12.4730   28.4330 C   0  0  0  0  0  0
  -16.8820   11.6490   28.6500 C   0  0  0  0  0  0
  -14.9940    5.7720   25.2350 C   0  0  0  0  0  0
  -16.2930   13.6830   29.4990 C   0  0  0  0  0  0
  -15.2730   10.2240   27.5000 C   0  0  0  0  0  0
  -16.1780    9.2630   27.2740 C   0  0  0  0  0  0
  -17.5640    9.4360   27.7420 C   0  0  0  0  0  0
  -20.2250   11.3090   27.8610 C   0  0  0  0  0  0
  -19.7200    9.9690   29.9710 C   0  0  0  0  0  0
  -21.5730   11.7180   28.4750 C   0  0  0  0  0  0
  -21.0600   10.4170   30.5610 C   0  0  0  0  0  0
  -19.2040   10.9950   28.9580 C   0  0  1  0  0  0
  -22.0770   10.6890   29.4710 C   0  0  1  0  0  0
  -13.1800   12.4220   28.0090 C   0  0  0  0  0  0
  -13.7380    4.6690   23.5470 C   0  0  0  0  0  0
  -25.0370    9.6250   29.0890 C   0  0  0  0  0  0
  -24.2870   10.0920   30.3110 C   0  0  0  0  0  0
  -14.4790    6.9250   24.8280 N   0  0  0  0  0  0
  -15.0090   13.5760   29.0900 N   0  0  0  0  0  0
  -17.2600   12.7570   29.3050 N   0  0  0  0  0  0
  -17.8470   10.6720   28.4320 N   0  0  0  0  0  0
  -16.6370   14.8000   30.1510 N   0  0  0  0  0  0
  -18.4420    8.5960   27.5670 O   0  0  0  0  0  0
  -25.4990   10.7130   28.2960 O   0  0  0  0  0  0
  -14.6590    4.6150   24.6310 O   0  0  0  0  0  0
  -23.3190   11.1150   30.0480 O   0  0  0  0  0  0
  -16.9821    6.7371   27.7722 H   0  0  0  0  0  0
  -16.2918    4.6702   26.5763 H   0  0  0  0  0  0
  -14.4567    8.9886   25.1688 H   0  0  0  0  0  0
  -14.2577   10.0600   27.1389 H   0  0  0  0  0  0
  -20.3630   10.4138   27.2368 H   0  0  0  0  0  0
  -19.8395   12.1321   27.2414 H   0  0  0  0  0  0
  -18.9805    9.8641   30.7786 H   0  0  0  0  0  0
  -19.8480    9.0017   29.4632 H   0  0  0  0  0  0
  -21.4608   12.6785   28.9992 H   0  0  0  0  0  0
  -22.3231   11.8212   27.6771 H   0  0  0  0  0  0
  -21.4536    9.6275   31.2181 H   0  0  0  0  0  0
  -20.9146   11.3394   31.1425 H   0  0  0  0  0  0
  -19.0410   11.9322   29.5104 H   0  0  0  0  0  0
  -22.2981    9.7517   28.9394 H   0  0  0  0  0  0
  -12.9859   11.4748   27.4844 H   0  0  0  0  0  0
  -12.5333   12.4889   28.8963 H   0  0  0  0  0  0
  -12.9664   13.2648   27.3352 H   0  0  0  0  0  0
  -13.5657    3.6533   23.1614 H   0  0  0  0  0  0
  -12.7858    5.0953   23.8958 H   0  0  0  0  0  0
  -14.1508    5.3001   22.7462 H   0  0  0  0  0  0
  -24.3747    9.0048   28.4671 H   0  0  0  0  0  0
  -25.9101    9.0321   29.3990 H   0  0  0  0  0  0
  -24.9983   10.5003   31.0440 H   0  0  0  0  0  0
  -23.7478    9.2432   30.7569 H   0  0  0  0  0  0
  -15.8867   15.5833   30.3338 H   0  0  0  0  0  0
  -17.6701   14.9348   30.5040 H   0  0  0  0  0  0
  -26.0633   10.5193   27.3719 H   0  0  0  0  0  0
  1  2  2  0  0  0
  1  4  1  0  0  0
  1 32  1  0  0  0
  2  8  1  0  0  0
  2 33  1  0  0  0
  3  4  2  0  0  0
  3 23  1  0  0  0
  3 34  1  0  0  0
  4 11  1  0  0  0
  5  6  1  0  0  0
  5  7  2  0  0  0
  5 10  1  0  0  0
  6 19  1  0  0  0
  6 24  2  0  0  0
  7 25  1  0  0  0
  7 26  1  0  0  0
  8 23  2  0  0  0
  8 30  1  0  0  0
  9 24  1  0  0  0
  9 25  2  0  0  0
  9 27  1  0  0  0
 10 11  2  0  0  0
 10 35  1  0  0  0
 11 12  1  0  0  0
 12 26  1  0  0  0
 12 28  2  0  0  0
 13 15  1  0  0  0
 13 17  1  0  0  0
 13 36  1  0  0  0
 13 37  1  0  0  0
 14 16  1  0  0  0
 14 17  1  0  0  0
 14 38  1  0  0  0
 14 39  1  0  0  0
 15 18  1  0  0  0
 15 40  1  0  0  0
 15 41  1  0  0  0
 16 18  1  0  0  0
 16 42  1  0  0  0
 16 43  1  0  0  0
 17 26  1  0  0  0
 17 44  1  0  0  0
 18 31  1  0  0  0
 18 45  1  0  0  0
 19 46  1  0  0  0
 19 47  1  0  0  0
 19 48  1  0  0  0
 20 30  1  0  0  0
 20 49  1  0  0  0
 20 50  1  0  0  0
 20 51  1  0  0  0
 21 22  1  0  0  0
 21 29  1  0  0  0
 21 52  1  0  0  0
 21 53  1  0  0  0
 22 31  1  0  0  0
 22 54  1  0  0  0
 22 55  1  0  0  0
 27 56  1  0  0  0
 27 57  1  0  0  0
 29 58  1  0  0  0
M  END
> <s_m_source_file>
../4tv3_ligand.sdf

> <i_m_source_file_index>
1

> <s_epik_input>
W2NIXTFuYyhPW0NIM10pW2NIXVtjSF1jMS1jKFtjSF0yKWMoPU8pbihjKGMyMyluYyhbTkgyXSluYzNbQ0gzXSlbQ0BIXTRbQ0gyXVtDSDJdW0NAQEhdKFtDSDJdW0NIMl00KU9bQ0gyXVtDSDJdW09IXQ==

> <s_epik_cmdline>
J2VwaWtfYXBwJywgJy1pbWFlJywgJ2xpZ2FuZF9wcm8ubWFlJywgJy1vbWFlJywgJ2xpZ2FuZF9wcmVwLm1hZScsICctbXMnLCAnMScsICctcGgnLCAnNycsICctcGh0JywgJzAuNScsICctbnQn

> <r_lp_tautomer_probability>
1

> <r_epik_Ionization_Penalty>
  0.0000

> <r_epik_Ionization_Penalty_Charging>
  0.0000

> <r_epik_Ionization_Penalty_Neutral>
  0.0000

> <r_epik_State_Penalty>
 -0.0000

> <r_epik_Charging_Adjusted_Penalty>
7.35531774939911e-07

> <i_epik_Tot_Q>
0

> <i_epik_Tot_abs_Q>
0

> <s_epik_Chemistry_Notes>
This compound has an imine and may undergo hydrolysis.

$$$$
