4tw6_ligand
                    3D
 Schrodinger Suite 2020-3.
 97100  0  0  1  0            999 V2000
  -12.0260    8.6260   -5.9170 C   0  0  0  0  0  0
  -13.2330    7.8510   -5.6910 O   0  0  0  0  0  0
  -13.7270    7.1770   -6.7480 C   0  0  0  0  0  0
  -13.1270    7.1420   -8.0250 C   0  0  0  0  0  0
  -14.8480    6.4410   -6.5940 C   0  0  0  0  0  0
  -15.4760    6.4170   -5.3150 O   0  0  0  0  0  0
  -16.4710    7.4080   -5.2630 C   0  0  0  0  0  0
  -15.3860    5.7180   -7.5890 C   0  0  0  0  0  0
  -16.5500    4.9740   -7.3400 O   0  0  0  0  0  0
  -17.0870    4.2690   -8.4130 C   0  0  0  0  0  0
  -14.7730    5.6620   -8.8580 C   0  0  0  0  0  0
  -13.5990    6.3830   -9.0340 C   0  0  0  0  0  0
  -12.8610    6.3610  -10.3790 C   0  0  2  0  0  0
  -13.7660    6.9900  -11.4670 C   0  0  0  0  0  0
  -13.0890    7.0260  -12.7530 C   0  0  0  0  0  0
  -12.9580    8.0880  -13.5540 C   0  0  0  0  0  0
  -12.5610    4.8840  -10.7520 C   0  0  0  0  0  0
  -13.2960    4.2300  -11.4590 O   0  0  0  0  0  0
  -11.4820    4.3190  -10.1820 N   0  0  0  0  0  0
  -10.6810    4.9460   -9.1570 C   0  0  0  0  0  0
   -9.1790    4.6260   -9.3030 C   0  0  0  0  0  0
   -8.9370    3.1470   -9.4770 C   0  0  0  0  0  0
   -9.7750    2.5990  -10.5920 C   0  0  0  0  0  0
  -11.2640    2.8870  -10.4110 C   0  0  1  0  0  0
  -11.7410    1.9980   -9.2400 C   0  0  0  0  0  0
  -11.4290    0.8430   -9.1930 O   0  0  0  0  0  0
  -12.5200    2.6020   -8.4000 O   0  0  0  0  0  0
  -12.8910    1.8630   -7.1420 C   0  0  2  0  0  0
  -14.3520    1.8730   -7.0120 C   0  0  0  0  0  0
  -14.8860    0.7830   -5.9180 C   0  0  0  0  0  0
  -14.8370   -0.5780   -6.3670 C   0  0  0  0  0  0
  -15.9390   -0.9570   -7.1850 C   0  0  0  0  0  0
  -13.8110   -1.4620   -6.1780 C   0  0  0  0  0  0
  -13.7240   -2.7290   -6.7160 C   0  0  0  0  0  0
  -14.7660   -3.1260   -7.5510 C   0  0  0  0  0  0
  -14.6870   -4.4320   -8.1410 O   0  0  0  0  0  0
  -13.7390   -5.3640   -7.8060 C   0  0  0  0  0  0
  -15.8350   -2.2310   -7.7230 C   0  0  0  0  0  0
  -17.0190   -2.7140   -8.4240 O   0  0  0  0  0  0
  -18.1150   -1.8600   -8.2350 C   0  0  0  0  0  0
  -12.0600    2.4570   -6.0170 C   0  0  0  0  0  0
  -11.1050    1.7260   -5.3790 C   0  0  0  0  0  0
  -12.2280    3.7990   -5.7390 C   0  0  0  0  0  0
  -11.4600    4.3750   -4.7890 C   0  0  0  0  0  0
  -10.4830    3.6390   -4.1660 C   0  0  0  0  0  0
  -10.3330    2.2750   -4.4440 C   0  0  0  0  0  0
   -9.3540    1.4870   -3.8910 O   0  0  0  0  0  0
   -8.4380    2.1140   -3.0260 C   0  0  0  0  0  0
   -9.0660    2.3530   -1.7600 C   0  0  0  0  0  0
   -8.3710    3.2440   -1.1650 O   0  5  0  0  0  0
  -10.1460    1.8370   -1.3540 O   0  0  0  0  0  0
  -11.7295    9.1238   -4.9820 H   0  0  0  0  0  0
  -12.2164    9.3836   -6.6914 H   0  0  0  0  0  0
  -11.2178    7.9576   -6.2488 H   0  0  0  0  0  0
  -12.2437    7.7553   -8.2030 H   0  0  0  0  0  0
  -16.9557    7.3894   -4.2757 H   0  0  0  0  0  0
  -17.2216    7.2153   -6.0437 H   0  0  0  0  0  0
  -16.0145    8.3950   -5.4289 H   0  0  0  0  0  0
  -17.9898    3.7331   -8.0846 H   0  0  0  0  0  0
  -16.3460    3.5458   -8.7842 H   0  0  0  0  0  0
  -17.3497    4.9709   -9.2182 H   0  0  0  0  0  0
  -15.2040    5.0755   -9.6694 H   0  0  0  0  0  0
  -11.9266    6.9357  -10.2983 H   0  0  0  0  0  0
  -14.6848    6.3939  -11.5693 H   0  0  0  0  0  0
  -14.0267    8.0187  -11.1774 H   0  0  0  0  0  0
  -12.6599    6.0574  -13.0492 H   0  0  0  0  0  0
  -13.3871    9.0566  -13.2578 H   0  0  0  0  0  0
  -12.4211    7.9934  -14.5094 H   0  0  0  0  0  0
  -10.8018    6.0379   -9.2140 H   0  0  0  0  0  0
  -11.0081    4.5920   -8.1682 H   0  0  0  0  0  0
   -8.7768    5.1482  -10.1836 H   0  0  0  0  0  0
   -8.6436    4.9604   -8.4022 H   0  0  0  0  0  0
   -7.8764    2.9742   -9.7122 H   0  0  0  0  0  0
   -9.1966    2.6210   -8.5465 H   0  0  0  0  0  0
   -9.4591    3.0504  -11.5441 H   0  0  0  0  0  0
   -9.6481    1.5076  -10.6438 H   0  0  0  0  0  0
  -11.8553    2.6971  -11.3189 H   0  0  0  0  0  0
  -12.6827    0.7829   -7.1396 H   0  0  0  0  0  0
  -14.6845    2.8704   -6.6886 H   0  0  0  0  0  0
  -14.8082    1.6315   -7.9834 H   0  0  0  0  0  0
  -14.2696    0.8438   -5.0089 H   0  0  0  0  0  0
  -15.9343    1.0004   -5.6654 H   0  0  0  0  0  0
  -16.7904   -0.3027   -7.3721 H   0  0  0  0  0  0
  -12.9865   -1.1355   -5.5442 H   0  0  0  0  0  0
  -12.8823   -3.3866   -6.4988 H   0  0  0  0  0  0
  -13.8967   -6.2769   -8.3990 H   0  0  0  0  0  0
  -13.8222   -5.6031   -6.7355 H   0  0  0  0  0  0
  -12.7375   -4.9597   -8.0147 H   0  0  0  0  0  0
  -18.9863   -2.2562   -8.7771 H   0  0  0  0  0  0
  -17.8695   -0.8583   -8.6176 H   0  0  0  0  0  0
  -18.3489   -1.7956   -7.1621 H   0  0  0  0  0  0
  -10.9706    0.6757   -5.6377 H   0  0  0  0  0  0
  -12.9708    4.3859   -6.2792 H   0  0  0  0  0  0
  -11.6152    5.4194   -4.5183 H   0  0  0  0  0  0
   -9.8183    4.1206   -3.4488 H   0  0  0  0  0  0
   -7.5625    1.4631   -2.8848 H   0  0  0  0  0  0
   -8.1168    3.0709   -3.4632 H   0  0  0  0  0  0
  1  2  1  0  0  0
  1 52  1  0  0  0
  1 53  1  0  0  0
  1 54  1  0  0  0
  2  3  1  0  0  0
  3  4  2  0  0  0
  3  5  1  0  0  0
  4 12  1  0  0  0
  4 55  1  0  0  0
  5  6  1  0  0  0
  5  8  2  0  0  0
  6  7  1  0  0  0
  7 56  1  0  0  0
  7 57  1  0  0  0
  7 58  1  0  0  0
  8  9  1  0  0  0
  8 11  1  0  0  0
  9 10  1  0  0  0
 10 59  1  0  0  0
 10 60  1  0  0  0
 10 61  1  0  0  0
 11 12  2  0  0  0
 11 62  1  0  0  0
 12 13  1  0  0  0
 13 14  1  0  0  0
 13 17  1  0  0  0
 13 63  1  0  0  0
 14 15  1  0  0  0
 14 64  1  0  0  0
 14 65  1  0  0  0
 15 16  2  0  0  0
 15 66  1  0  0  0
 16 67  1  0  0  0
 16 68  1  0  0  0
 17 18  2  0  0  0
 17 19  1  0  0  0
 19 20  1  0  0  0
 19 24  1  0  0  0
 20 21  1  0  0  0
 20 69  1  0  0  0
 20 70  1  0  0  0
 21 22  1  0  0  0
 21 71  1  0  0  0
 21 72  1  0  0  0
 22 23  1  0  0  0
 22 73  1  0  0  0
 22 74  1  0  0  0
 23 24  1  0  0  0
 23 75  1  0  0  0
 23 76  1  0  0  0
 24 25  1  0  0  0
 24 77  1  0  0  0
 25 26  2  0  0  0
 25 27  1  0  0  0
 27 28  1  0  0  0
 28 29  1  0  0  0
 28 41  1  0  0  0
 28 78  1  0  0  0
 29 30  1  0  0  0
 29 79  1  0  0  0
 29 80  1  0  0  0
 30 31  1  0  0  0
 30 81  1  0  0  0
 30 82  1  0  0  0
 31 32  2  0  0  0
 31 33  1  0  0  0
 32 38  1  0  0  0
 32 83  1  0  0  0
 33 34  2  0  0  0
 33 84  1  0  0  0
 34 35  1  0  0  0
 34 85  1  0  0  0
 35 36  1  0  0  0
 35 38  2  0  0  0
 36 37  1  0  0  0
 37 86  1  0  0  0
 37 87  1  0  0  0
 37 88  1  0  0  0
 38 39  1  0  0  0
 39 40  1  0  0  0
 40 89  1  0  0  0
 40 90  1  0  0  0
 40 91  1  0  0  0
 41 42  2  0  0  0
 41 43  1  0  0  0
 42 46  1  0  0  0
 42 92  1  0  0  0
 43 44  2  0  0  0
 43 93  1  0  0  0
 44 45  1  0  0  0
 44 94  1  0  0  0
 45 46  2  0  0  0
 45 95  1  0  0  0
 46 47  1  0  0  0
 47 48  1  0  0  0
 48 49  1  0  0  0
 48 96  1  0  0  0
 48 97  1  0  0  0
 49 50  1  0  0  0
 49 51  2  0  0  0
M  CHG  1  50  -1
M  END
> <s_m_source_file>
../4tw6_ligand.sdf

> <i_m_source_file_index>
1

> <s_epik_input>
W0NIM11PYzFjKE9bQ0gzXSlbY0hdYyhbY0hdYzFPW0NIM10pW0NASF0oW0NIMl1bQ0hdPVtDSDJdKUMoPU8pTjJbQ0gyXVtDSDJdW0NIMl1bQ0gyXVtDQEhdMkMoPU8pT1tDQEBIXShjM1tjSF1jKFtjSF1bY0hdW2NIXTMpT1tDSDJdQyg9TylbT0hdKVtDSDJdW0NIMl1jNFtjSF1jKE9bQ0gzXSljKFtjSF1bY0hdNClPW0NIM10=

> <s_epik_cmdline>
J2VwaWtfYXBwJywgJy1pbWFlJywgJ2xpZ2FuZF9wcm8ubWFlJywgJy1vbWFlJywgJ2xpZ2FuZF9wcmVwLm1hZScsICctbXMnLCAnMScsICctcGgnLCAnNycsICctcGh0JywgJzAuNScsICctbnQn

> <r_lp_tautomer_probability>
1

> <r_epik_Ionization_Penalty>
  0.0001

> <r_epik_Ionization_Penalty_Charging>
  0.0001

> <r_epik_Ionization_Penalty_Neutral>
  0.0000

> <r_epik_State_Penalty>
 -0.0000

> <r_epik_Charging_Adjusted_Penalty>
8.31208523378996e-05

> <i_epik_Tot_Q>
-1

> <i_epik_Tot_abs_Q>
1

> <s_epik_Chemistry_Notes>
This compound has an ester and may undergo hydrolysis at high or low pH.

$$$$
