4tw7_ligand
                    3D
 Schrodinger Suite 2020-3.
118123  0  0  1  0            999 V2000
   15.2590   -2.2620   19.9370 C   0  0  0  0  0  0
   16.4410   -3.1470   19.6580 C   0  0  0  0  0  0
   17.4710   -2.8570   20.5490 O   0  0  0  0  0  0
   17.8810   -1.4890   20.3570 C   0  0  0  0  0  0
   16.7200   -0.5680   20.6980 C   0  0  0  0  0  0
   15.6670   -0.8560   19.7820 N   0  0  0  0  0  0
   14.4990    0.0840   20.0340 C   0  0  0  0  0  0
   13.4340   -0.0230   18.9990 C   0  0  0  0  0  0
   13.8930    0.4820   17.8360 O   0  0  0  0  0  0
   13.0580    0.5440   16.7470 C   0  0  0  0  0  0
   13.6040    1.0620   15.5980 C   0  0  0  0  0  0
   11.7450    0.1220   16.7950 C   0  0  0  0  0  0
   10.9660    0.2370   15.6370 C   0  0  0  0  0  0
   11.5300    0.7600   14.5010 C   0  0  0  0  0  0
   12.8520    1.1670   14.4510 C   0  0  0  0  0  0
   13.3730    1.7310   13.1580 C   0  0  1  0  0  0
   13.3070    0.7030   12.0070 C   0  0  0  0  0  0
   14.4680   -0.2840   12.1390 C   0  0  0  0  0  0
   15.8060    0.2970   11.7580 C   0  0  0  0  0  0
   16.0850    0.4770   10.4330 C   0  0  0  0  0  0
   16.7060    0.6440   12.6890 C   0  0  0  0  0  0
   17.9220    1.2110   12.2740 C   0  0  0  0  0  0
   18.1940    1.4600   10.9290 C   0  0  0  0  0  0
   19.3720    1.9880   10.4530 O   0  0  0  0  0  0
   20.3390    1.9480   11.4310 C   0  0  0  0  0  0
   17.2880    1.0640    9.9970 C   0  0  0  0  0  0
   17.6070    1.3190    8.6620 O   0  0  0  0  0  0
   17.2590    0.0750    8.0170 C   0  0  0  0  0  0
   12.4940    2.8880   12.8310 O   0  0  0  0  0  0
   13.0580    4.0810   12.6450 C   0  0  0  0  0  0
   14.2740    4.2410   12.6380 O   0  0  0  0  0  0
   12.0870    5.2420   12.4310 C   0  0  2  0  0  0
   12.4030    6.2400   13.5200 C   0  0  0  0  0  0
   11.9150    5.7410   14.8850 C   0  0  0  0  0  0
   10.4430    5.5190   14.8680 C   0  0  0  0  0  0
   10.0860    4.4970   13.7690 C   0  0  0  0  0  0
   10.6910    4.8390   12.4390 N   0  0  0  0  0  0
   10.1420    4.5760   11.2130 C   0  0  0  0  0  0
   10.7390    4.7380   10.1890 O   0  0  0  0  0  0
    8.7520    3.9690   11.1960 C   0  0  1  0  0  0
    8.0650    4.3350    9.8100 C   0  0  1  0  0  0
    6.7510    3.6360    9.6130 C   0  0  0  0  0  0
    5.8290    4.1240    8.6090 C   0  0  0  0  0  0
    5.6110    5.6030    8.5160 C   0  0  0  0  0  0
    6.8100    6.3270    8.8470 C   0  0  0  0  0  0
    7.8630    5.8610    9.6640 C   0  0  0  0  0  0
    8.8080    2.4920   11.4480 C   0  0  0  0  0  0
    8.1070    1.9270   12.4800 C   0  0  0  0  0  0
    9.5390    1.7270   10.5360 C   0  0  0  0  0  0
    9.5870    0.3250   10.7340 C   0  0  0  0  0  0
   10.2580   -0.5390    9.8990 O   0  0  0  0  0  0
   10.8500   -0.0110    8.8180 C   0  0  0  0  0  0
    8.8810   -0.2590   11.7870 C   0  0  0  0  0  0
    8.8980   -1.6410   11.8950 O   0  0  0  0  0  0
   10.0320   -2.1270   12.6590 C   0  0  0  0  0  0
    8.1570    0.4980   12.6570 C   0  0  0  0  0  0
    7.5260   -0.1590   13.6890 O   0  0  0  0  0  0
    6.8230    0.6250   14.5700 C   0  0  0  0  0  0
   14.4512   -2.4946   19.2275 H   0  0  0  0  0  0
   14.9058   -2.4350   20.9643 H   0  0  0  0  0  0
   16.1461   -4.2003   19.7748 H   0  0  0  0  0  0
   16.7921   -2.9764   18.6296 H   0  0  0  0  0  0
   18.7347   -1.2665   21.0140 H   0  0  0  0  0  0
   18.1765   -1.3385   19.3082 H   0  0  0  0  0  0
   16.3944   -0.7558   21.7318 H   0  0  0  0  0  0
   17.0416    0.4793   20.5995 H   0  0  0  0  0  0
   14.0439   -0.1496   21.0078 H   0  0  0  0  0  0
   14.8590    1.1234   20.0374 H   0  0  0  0  0  0
   13.1621   -1.0798   18.8606 H   0  0  0  0  0  0
   12.5489    0.5438   19.3236 H   0  0  0  0  0  0
   14.6426    1.3929   15.5951 H   0  0  0  0  0  0
   11.3245   -0.2908   17.7120 H   0  0  0  0  0  0
    9.9246   -0.0850   15.6382 H   0  0  0  0  0  0
   10.9154    0.8585   13.6062 H   0  0  0  0  0  0
   14.4199    2.0416   13.2901 H   0  0  0  0  0  0
   12.3535    0.1569   12.0574 H   0  0  0  0  0  0
   13.3788    1.2272   11.0426 H   0  0  0  0  0  0
   14.5442   -0.6229   13.1827 H   0  0  0  0  0  0
   14.2894   -1.1498   11.4844 H   0  0  0  0  0  0
   15.3540    0.1564    9.6907 H   0  0  0  0  0  0
   16.4980    0.4891   13.7477 H   0  0  0  0  0  0
   18.6729    1.4631   13.0228 H   0  0  0  0  0  0
   21.2750    2.3724   11.0387 H   0  0  0  0  0  0
   20.5089    0.9049   11.7362 H   0  0  0  0  0  0
   20.0062    2.5347   12.2999 H   0  0  0  0  0  0
   17.4682    0.1495    6.9397 H   0  0  0  0  0  0
   16.1891   -0.1303    8.1694 H   0  0  0  0  0  0
   17.8545   -0.7419    8.4505 H   0  0  0  0  0  0
   12.1707    5.6767   11.4240 H   0  0  0  0  0  0
   13.4908    6.3952   13.5707 H   0  0  0  0  0  0
   11.9063    7.1958   13.2969 H   0  0  0  0  0  0
   12.4150    4.7920   15.1286 H   0  0  0  0  0  0
   12.1530    6.4892   15.6554 H   0  0  0  0  0  0
   10.1192    5.1323   15.8456 H   0  0  0  0  0  0
    9.9310    6.4706   14.6622 H   0  0  0  0  0  0
   10.4542    3.5021   14.0599 H   0  0  0  0  0  0
    8.9939    4.4612   13.6423 H   0  0  0  0  0  0
    8.1728    4.3536   12.0484 H   0  0  0  0  0  0
    8.7118    3.9753    8.9962 H   0  0  0  0  0  0
    6.9317    2.5887    9.3294 H   0  0  0  0  0  0
    6.1746    3.6681   10.5493 H   0  0  0  0  0  0
    6.1806    3.8231    7.6111 H   0  0  0  0  0  0
    4.8310    3.6983    8.7898 H   0  0  0  0  0  0
    5.3139    5.8660    7.4900 H   0  0  0  0  0  0
    4.8163    5.9012    9.2157 H   0  0  0  0  0  0
    6.8643    7.3300    8.3986 H   0  0  0  0  0  0
    8.5180    6.5787   10.1797 H   0  0  0  0  0  0
    7.5206    2.5485   13.1567 H   0  0  0  0  0  0
   10.0564    2.1942    9.6981 H   0  0  0  0  0  0
   11.3450   -0.8087    8.2447 H   0  0  0  0  0  0
   11.5977    0.7308    9.1351 H   0  0  0  0  0  0
   10.0929    0.4780    8.1874 H   0  0  0  0  0  0
    9.9948   -3.2251   12.7122 H   0  0  0  0  0  0
    9.9951   -1.7092   13.6759 H   0  0  0  0  0  0
   10.9656   -1.8151   12.1680 H   0  0  0  0  0  0
    6.3675   -0.0107   15.3436 H   0  0  0  0  0  0
    6.0333    1.1670   14.0290 H   0  0  0  0  0  0
    7.5050    1.3468   15.0432 H   0  0  0  0  0  0
  1  2  1  0  0  0
  1  6  1  0  0  0
  1 59  1  0  0  0
  1 60  1  0  0  0
  2  3  1  0  0  0
  2 61  1  0  0  0
  2 62  1  0  0  0
  3  4  1  0  0  0
  4  5  1  0  0  0
  4 63  1  0  0  0
  4 64  1  0  0  0
  5  6  1  0  0  0
  5 65  1  0  0  0
  5 66  1  0  0  0
  6  7  1  0  0  0
  7  8  1  0  0  0
  7 67  1  0  0  0
  7 68  1  0  0  0
  8  9  1  0  0  0
  8 69  1  0  0  0
  8 70  1  0  0  0
  9 10  1  0  0  0
 10 11  2  0  0  0
 10 12  1  0  0  0
 11 15  1  0  0  0
 11 71  1  0  0  0
 12 13  2  0  0  0
 12 72  1  0  0  0
 13 14  1  0  0  0
 13 73  1  0  0  0
 14 15  2  0  0  0
 14 74  1  0  0  0
 15 16  1  0  0  0
 16 17  1  0  0  0
 16 29  1  0  0  0
 16 75  1  0  0  0
 17 18  1  0  0  0
 17 76  1  0  0  0
 17 77  1  0  0  0
 18 19  1  0  0  0
 18 78  1  0  0  0
 18 79  1  0  0  0
 19 20  2  0  0  0
 19 21  1  0  0  0
 20 26  1  0  0  0
 20 80  1  0  0  0
 21 22  2  0  0  0
 21 81  1  0  0  0
 22 23  1  0  0  0
 22 82  1  0  0  0
 23 24  1  0  0  0
 23 26  2  0  0  0
 24 25  1  0  0  0
 25 83  1  0  0  0
 25 84  1  0  0  0
 25 85  1  0  0  0
 26 27  1  0  0  0
 27 28  1  0  0  0
 28 86  1  0  0  0
 28 87  1  0  0  0
 28 88  1  0  0  0
 29 30  1  0  0  0
 30 31  2  0  0  0
 30 32  1  0  0  0
 32 33  1  0  0  0
 32 37  1  0  0  0
 32 89  1  0  0  0
 33 34  1  0  0  0
 33 90  1  0  0  0
 33 91  1  0  0  0
 34 35  1  0  0  0
 34 92  1  0  0  0
 34 93  1  0  0  0
 35 36  1  0  0  0
 35 94  1  0  0  0
 35 95  1  0  0  0
 36 37  1  0  0  0
 36 96  1  0  0  0
 36 97  1  0  0  0
 37 38  1  0  0  0
 38 39  2  0  0  0
 38 40  1  0  0  0
 40 41  1  0  0  0
 40 47  1  0  0  0
 40 98  1  0  0  0
 41 42  1  0  0  0
 41 46  1  0  0  0
 41 99  1  0  0  0
 42 43  1  0  0  0
 42100  1  0  0  0
 42101  1  0  0  0
 43 44  1  0  0  0
 43102  1  0  0  0
 43103  1  0  0  0
 44 45  1  0  0  0
 44104  1  0  0  0
 44105  1  0  0  0
 45 46  2  0  0  0
 45106  1  0  0  0
 46107  1  0  0  0
 47 48  2  0  0  0
 47 49  1  0  0  0
 48 56  1  0  0  0
 48108  1  0  0  0
 49 50  2  0  0  0
 49109  1  0  0  0
 50 51  1  0  0  0
 50 53  1  0  0  0
 51 52  1  0  0  0
 52110  1  0  0  0
 52111  1  0  0  0
 52112  1  0  0  0
 53 54  1  0  0  0
 53 56  2  0  0  0
 54 55  1  0  0  0
 55113  1  0  0  0
 55114  1  0  0  0
 55115  1  0  0  0
 56 57  1  0  0  0
 57 58  1  0  0  0
 58116  1  0  0  0
 58117  1  0  0  0
 58118  1  0  0  0
M  END
> <s_m_source_file>
../4tw7_ligand.sdf

> <i_m_source_file_index>
1

> <s_epik_input>
W0NIMl0xW0NIMl1PW0NIMl1bQ0gyXVtOSCtdMVtDSDJdW0NIMl1PYzJbY0hdYyhbY0hdW2NIXVtjSF0yKVtDQEBIXShbQ0gyXVtDSDJdYzNbY0hdYyhPW0NIM10pYyhbY0hdW2NIXTMpT1tDSDNdKU9DKD1PKVtDQEBIXTRbQ0gyXVtDSDJdW0NIMl1bQ0gyXU40Qyg9TylbQ0BASF0oW0NASF01W0NIMl1bQ0gyXVtDSDJdW0NIXT1bQ0hdNSljNltjSF1jKE9bQ0gzXSljKE9bQ0gzXSljKFtjSF02KU9bQ0gzXQ==

> <s_epik_cmdline>
J2VwaWtfYXBwJywgJy1pbWFlJywgJ2xpZ2FuZF9wcm8ubWFlJywgJy1vbWFlJywgJ2xpZ2FuZF9wcmVwLm1hZScsICctbXMnLCAnMScsICctcGgnLCAnNycsICctcGh0JywgJzAuNScsICctbnQn

> <r_lp_tautomer_probability>
1

> <r_epik_Ionization_Penalty>
  0.0641

> <r_epik_Ionization_Penalty_Charging>
  0.0000

> <r_epik_Ionization_Penalty_Neutral>
  0.0641

> <r_epik_State_Penalty>
  0.0558

> <r_epik_Charging_Adjusted_Penalty>
0.0558297731723035

> <i_epik_Tot_Q>
0

> <i_epik_Tot_abs_Q>
0

> <s_epik_Chemistry_Notes>
This compound has an ester and may undergo hydrolysis at high or low pH.

$$$$
