4tw8_ligand
                    3D
 Schrodinger Suite 2020-3.
131138  0  0  1  0            999 V2000
    6.7510  -22.9770   60.2560 C   0  0  0  0  0  0
    6.2960  -23.7470   59.1870 C   0  0  0  0  0  0
    7.0990  -24.7720   58.6680 C   0  0  0  0  0  0
    6.6420  -25.5470   57.6010 C   0  0  0  0  0  0
    5.3830  -25.2950   57.0450 C   0  0  0  0  0  0
    4.9780  -25.9760   56.1040 O   0  0  0  0  0  0
    4.5750  -24.2750   57.5510 C   0  0  0  0  0  0
    5.0330  -23.5070   58.6210 C   0  0  0  0  0  0
    4.2540  -22.5000   59.1300 O   0  0  0  0  0  0
    4.6150  -21.8530   60.2850 C   0  0  0  0  0  0
    5.8700  -22.0850   60.8530 C   0  0  0  0  0  0
    6.2240  -21.4170   62.0240 C   0  0  0  0  0  0
    5.3230  -20.5270   62.6120 C   0  0  0  0  0  0
    4.0710  -20.3020   62.0280 C   0  0  0  0  0  0
    3.1700  -19.4330   62.5800 O   0  0  0  0  0  0
    3.6960  -20.9650   60.8500 C   0  0  0  0  0  0
    2.4460  -20.7520   60.2490 C   0  0  0  0  0  0
    2.6250  -19.9120   59.0490 N   0  0  0  0  0  0
    1.7240  -19.8050   58.0570 C   0  0  0  0  0  0
    0.6380  -20.3820   58.0300 O   0  0  0  0  0  0
    2.1420  -18.8700   56.9180 C   0  0  0  0  0  0
    2.0240  -19.5390   55.6540 O   0  0  0  0  0  0
    3.1960  -20.0340   55.1610 C   0  0  0  0  0  0
    4.4440  -19.5790   55.6120 C   0  0  0  0  0  0
    3.1380  -21.0160   54.1780 C   0  0  0  0  0  0
    4.3240  -21.5340   53.6610 C   0  0  0  0  0  0
    5.5670  -21.0810   54.1120 C   0  0  0  0  0  0
    5.6410  -20.1030   55.1090 C   0  0  0  0  0  0
    6.8860  -19.5950   55.5740 C   0  0  1  0  0  0
    7.8110  -20.6200   56.3060 C   0  0  0  0  0  0
    7.5360  -20.7240   57.8280 C   0  0  0  0  0  0
    8.3980  -20.0130   58.7130 C   0  0  0  0  0  0
    9.8010  -19.9440   58.6000 C   0  0  0  0  0  0
    7.7960  -19.3590   59.7880 C   0  0  0  0  0  0
    8.5380  -18.6380   60.7240 C   0  0  0  0  0  0
    9.9270  -18.5670   60.6110 C   0  0  0  0  0  0
   10.7160  -17.8680   61.4990 O   0  0  0  0  0  0
   10.5930  -18.3010   62.8920 C   0  0  0  0  0  0
   10.5660  -19.2230   59.5470 C   0  0  0  0  0  0
   11.9410  -19.1060   59.4730 O   0  0  0  0  0  0
   12.6930  -20.0060   60.3110 C   0  0  0  0  0  0
    7.5950  -19.0090   54.4460 O   0  0  0  0  0  0
    7.5410  -17.6390   54.3670 C   0  0  0  0  0  0
    7.2860  -16.9080   55.3240 O   0  0  0  0  0  0
    7.8560  -17.0780   53.1110 C   0  0  2  0  0  0
    7.1150  -15.7500   52.9060 C   0  0  0  0  0  0
    5.6330  -16.0230   52.6680 C   0  0  0  0  0  0
    5.4680  -16.7910   51.3710 C   0  0  0  0  0  0
    6.2090  -18.1300   51.4370 C   0  0  0  0  0  0
    7.5990  -18.0100   51.9740 N   0  0  0  0  0  0
    8.6420  -18.7160   51.4750 C   0  0  0  0  0  0
    9.7850  -18.6240   51.9220 O   0  0  0  0  0  0
    8.3660  -19.6780   50.3040 C   0  0  1  0  0  0
    9.6200  -19.7890   49.3850 C   0  0  1  0  0  0
    9.4380  -20.8340   48.2590 C   0  0  0  0  0  0
   10.6720  -20.8470   47.3580 C   0  0  0  0  0  0
   10.8800  -19.4750   46.7090 C   0  0  0  0  0  0
   10.5860  -18.4100   47.5740 C   0  0  0  0  0  0
    9.9730  -18.5470   48.8260 C   0  0  0  0  0  0
    7.9870  -20.9340   50.8040 C   0  0  0  0  0  0
    8.8440  -21.6780   51.6260 C   0  0  0  0  0  0
    6.7320  -21.4440   50.4640 C   0  0  0  0  0  0
    6.3320  -22.6950   50.9350 C   0  0  0  0  0  0
    5.1140  -23.2440   50.6400 O   0  0  0  0  0  0
    4.9840  -23.5980   49.2540 C   0  0  0  0  0  0
    7.1900  -23.4230   51.7640 C   0  0  0  0  0  0
    6.8040  -24.6520   52.2250 O   0  0  0  0  0  0
    6.1550  -24.6080   53.5000 C   0  0  0  0  0  0
    8.4480  -22.9260   52.1110 C   0  0  0  0  0  0
    9.2400  -23.7100   52.9110 O   0  0  0  0  0  0
    9.6360  -23.0840   54.1410 C   0  0  0  0  0  0
    7.7756  -23.0729   60.6154 H   0  0  0  0  0  0
    8.0818  -24.9641   59.0984 H   0  0  0  0  0  0
    7.2649  -26.3473   57.2015 H   0  0  0  0  0  0
    3.5956  -24.0809   57.1138 H   0  0  0  0  0  0
    7.1997  -21.5886   62.4786 H   0  0  0  0  0  0
    5.5957  -20.0054   63.5294 H   0  0  0  0  0  0
    3.4228  -18.8918   63.5037 H   0  0  0  0  0  0
    2.0076  -21.7192   59.9620 H   0  0  0  0  0  0
    1.7788  -20.2437   60.9607 H   0  0  0  0  0  0
    3.5438  -19.3203   58.9239 H   0  0  0  0  0  0
    1.4928  -17.9820   56.9157 H   0  0  0  0  0  0
    3.1873  -18.5597   57.0632 H   0  0  0  0  0  0
    4.4828  -18.7988   56.3722 H   0  0  0  0  0  0
    2.1753  -21.3767   53.8158 H   0  0  0  0  0  0
    4.2816  -22.3054   52.8920 H   0  0  0  0  0  0
    6.4821  -21.4915   53.6851 H   0  0  0  0  0  0
    6.5661  -18.8163   56.2820 H   0  0  0  0  0  0
    7.6619  -21.6211   55.8753 H   0  0  0  0  0  0
    8.8619  -20.3199   56.1811 H   0  0  0  0  0  0
    6.5267  -20.3441   58.0450 H   0  0  0  0  0  0
    7.6074  -21.7757   58.1425 H   0  0  0  0  0  0
   10.3016  -20.4510   57.7751 H   0  0  0  0  0  0
    6.7131  -19.4129   59.9002 H   0  0  0  0  0  0
    8.0320  -18.1295   61.5447 H   0  0  0  0  0  0
   11.2545  -17.6915   63.5252 H   0  0  0  0  0  0
   10.8806  -19.3596   62.9736 H   0  0  0  0  0  0
    9.5516  -18.1773   63.2238 H   0  0  0  0  0  0
   13.7689  -19.8245   60.1711 H   0  0  0  0  0  0
   12.4577  -21.0450   60.0369 H   0  0  0  0  0  0
   12.4262  -19.8353   61.3644 H   0  0  0  0  0  0
    8.9451  -16.9411   53.1823 H   0  0  0  0  0  0
    7.2320  -15.1227   53.8020 H   0  0  0  0  0  0
    7.5350  -15.2265   52.0345 H   0  0  0  0  0  0
    5.2311  -16.6172   53.5019 H   0  0  0  0  0  0
    5.0902  -15.0685   52.6028 H   0  0  0  0  0  0
    4.3999  -16.9841   51.1926 H   0  0  0  0  0  0
    5.8774  -16.1986   50.5395 H   0  0  0  0  0  0
    5.6590  -18.8215   52.0923 H   0  0  0  0  0  0
    6.2798  -18.5601   50.4270 H   0  0  0  0  0  0
    7.4826  -19.3672   49.7269 H   0  0  0  0  0  0
   10.4948  -20.0378   50.0037 H   0  0  0  0  0  0
    9.3020  -21.8313   48.7028 H   0  0  0  0  0  0
    8.5530  -20.5760   47.6588 H   0  0  0  0  0  0
   11.5605  -21.0964   47.9567 H   0  0  0  0  0  0
   10.5402  -21.5994   46.5665 H   0  0  0  0  0  0
   11.2203  -19.2722   45.6828 H   0  0  0  0  0  0
   10.8396  -17.3797   47.2839 H   0  0  0  0  0  0
    9.0714  -17.9275   48.7103 H   0  0  0  0  0  0
   10.6864  -18.0359   49.4892 H   0  0  0  0  0  0
    9.8245  -21.2805   51.8880 H   0  0  0  0  0  0
    6.0632  -20.8631   49.8289 H   0  0  0  0  0  0
    3.9888  -24.0323   49.0783 H   0  0  0  0  0  0
    5.7573  -24.3343   48.9895 H   0  0  0  0  0  0
    5.1064  -22.6985   48.6328 H   0  0  0  0  0  0
    5.8749  -25.6273   53.8042 H   0  0  0  0  0  0
    5.2512  -23.9849   53.4301 H   0  0  0  0  0  0
    6.8401  -24.1780   54.2455 H   0  0  0  0  0  0
   10.2650  -23.7769   54.7191 H   0  0  0  0  0  0
    8.7408  -22.8264   54.7261 H   0  0  0  0  0  0
   10.2055  -22.1692   53.9201 H   0  0  0  0  0  0
  1  2  2  0  0  0
  1 11  1  0  0  0
  1 72  1  0  0  0
  2  3  1  0  0  0
  2  8  1  0  0  0
  3  4  2  0  0  0
  3 73  1  0  0  0
  4  5  1  0  0  0
  4 74  1  0  0  0
  5  6  2  0  0  0
  5  7  1  0  0  0
  7  8  2  0  0  0
  7 75  1  0  0  0
  8  9  1  0  0  0
  9 10  1  0  0  0
 10 11  2  0  0  0
 10 16  1  0  0  0
 11 12  1  0  0  0
 12 13  2  0  0  0
 12 76  1  0  0  0
 13 14  1  0  0  0
 13 77  1  0  0  0
 14 15  1  0  0  0
 14 16  2  0  0  0
 15 78  1  0  0  0
 16 17  1  0  0  0
 17 18  1  0  0  0
 17 79  1  0  0  0
 17 80  1  0  0  0
 18 19  1  0  0  0
 18 81  1  0  0  0
 19 20  2  0  0  0
 19 21  1  0  0  0
 21 22  1  0  0  0
 21 82  1  0  0  0
 21 83  1  0  0  0
 22 23  1  0  0  0
 23 24  2  0  0  0
 23 25  1  0  0  0
 24 28  1  0  0  0
 24 84  1  0  0  0
 25 26  2  0  0  0
 25 85  1  0  0  0
 26 27  1  0  0  0
 26 86  1  0  0  0
 27 28  2  0  0  0
 27 87  1  0  0  0
 28 29  1  0  0  0
 29 30  1  0  0  0
 29 42  1  0  0  0
 29 88  1  0  0  0
 30 31  1  0  0  0
 30 89  1  0  0  0
 30 90  1  0  0  0
 31 32  1  0  0  0
 31 91  1  0  0  0
 31 92  1  0  0  0
 32 33  2  0  0  0
 32 34  1  0  0  0
 33 39  1  0  0  0
 33 93  1  0  0  0
 34 35  2  0  0  0
 34 94  1  0  0  0
 35 36  1  0  0  0
 35 95  1  0  0  0
 36 37  1  0  0  0
 36 39  2  0  0  0
 37 38  1  0  0  0
 38 96  1  0  0  0
 38 97  1  0  0  0
 38 98  1  0  0  0
 39 40  1  0  0  0
 40 41  1  0  0  0
 41 99  1  0  0  0
 41100  1  0  0  0
 41101  1  0  0  0
 42 43  1  0  0  0
 43 44  2  0  0  0
 43 45  1  0  0  0
 45 46  1  0  0  0
 45 50  1  0  0  0
 45102  1  0  0  0
 46 47  1  0  0  0
 46103  1  0  0  0
 46104  1  0  0  0
 47 48  1  0  0  0
 47105  1  0  0  0
 47106  1  0  0  0
 48 49  1  0  0  0
 48107  1  0  0  0
 48108  1  0  0  0
 49 50  1  0  0  0
 49109  1  0  0  0
 49110  1  0  0  0
 50 51  1  0  0  0
 51 52  2  0  0  0
 51 53  1  0  0  0
 53 54  1  0  0  0
 53 60  1  0  0  0
 53111  1  0  0  0
 54 55  1  0  0  0
 54 59  1  0  0  0
 54112  1  0  0  0
 55 56  1  0  0  0
 55113  1  0  0  0
 55114  1  0  0  0
 56 57  1  0  0  0
 56115  1  0  0  0
 56116  1  0  0  0
 57 58  2  0  0  0
 57117  1  0  0  0
 58 59  1  0  0  0
 58118  1  0  0  0
 59119  1  0  0  0
 59120  1  0  0  0
 60 61  2  0  0  0
 60 62  1  0  0  0
 61 69  1  0  0  0
 61121  1  0  0  0
 62 63  2  0  0  0
 62122  1  0  0  0
 63 64  1  0  0  0
 63 66  1  0  0  0
 64 65  1  0  0  0
 65123  1  0  0  0
 65124  1  0  0  0
 65125  1  0  0  0
 66 67  1  0  0  0
 66 69  2  0  0  0
 67 68  1  0  0  0
 68126  1  0  0  0
 68127  1  0  0  0
 68128  1  0  0  0
 69 70  1  0  0  0
 70 71  1  0  0  0
 71129  1  0  0  0
 71130  1  0  0  0
 71131  1  0  0  0
M  END
> <s_m_source_file>
../4tw8_ligand.sdf

> <i_m_source_file_index>
1

> <s_epik_input>
W2NIXTFbY0hdYyg9TylbY0hdYyhjMTIpb2MzYyhbY0hdMilbY0hdW2NIXWMoW09IXSljM1tDSDJdW05IXUMoPU8pW0NIMl1PYzRbY0hdYyhbY0hdW2NIXVtjSF00KVtDQEBIXShbQ0gyXVtDSDJdYzVbY0hdYyhPW0NIM10pYyhbY0hdW2NIXTUpT1tDSDNdKU9DKD1PKVtDQEBIXTZbQ0gyXVtDSDJdW0NIMl1bQ0gyXU42Qyg9TylbQ0BASF0oW0NASF03W0NIMl1bQ0gyXVtDSF09W0NIXVtDSDJdNyljOFtjSF1jKE9bQ0gzXSljKE9bQ0gzXSljKFtjSF04KU9bQ0gzXQ==

> <s_epik_cmdline>
J2VwaWtfYXBwJywgJy1pbWFlJywgJ2xpZ2FuZF9wcm8ubWFlJywgJy1vbWFlJywgJ2xpZ2FuZF9wcmVwLm1hZScsICctbXMnLCAnMScsICctcGgnLCAnNycsICctcGh0JywgJzAuNScsICctbnQn

> <r_lp_tautomer_probability>
1

> <r_epik_Ionization_Penalty>
  0.0420

> <r_epik_Ionization_Penalty_Charging>
  0.0000

> <r_epik_Ionization_Penalty_Neutral>
  0.0420

> <r_epik_State_Penalty>
  0.0355

> <r_epik_Charging_Adjusted_Penalty>
0.0354908293195354

> <i_epik_Tot_Q>
0

> <i_epik_Tot_abs_Q>
0

> <s_epik_Chemistry_Notes>
This compound has an ester and may undergo hydrolysis at high or low pH.

$$$$
