4twc_ligand
                    3D
 Schrodinger Suite 2020-3.
 45 48  0  0  1  0            999 V2000
    9.3220  -13.2930    6.2540 N   0  0  0  0  0  0
    8.7690  -12.6990    5.1990 C   0  0  0  0  0  0
   12.0620  -16.0750    5.4260 O   0  0  0  0  0  0
    5.9290   -9.3020    5.7970 N   0  0  0  0  0  0
    7.7840  -11.6220    5.4620 C   0  0  0  0  0  0
    6.0850   -9.0160    3.5760 N   0  0  0  0  0  0
   11.8670  -15.8330    6.5760 C   0  0  0  0  0  0
   12.6450  -16.3490    7.7320 C   0  0  0  0  0  0
    1.8750   -5.6690    6.5770 F   0  0  0  0  0  0
    3.1390   -5.2250    6.4000 C   0  0  0  0  0  0
    3.6340   -5.0410    7.6200 F   0  0  0  0  0  0
    3.0910   -4.0370    5.7780 F   0  0  0  0  0  0
    3.9620   -6.2410    5.6130 C   0  0  0  0  0  0
    4.5390   -7.3300    6.2510 C   0  0  0  0  0  0
    5.2680   -8.2070    5.4620 C   0  0  0  0  0  0
    6.4100   -9.7670    4.6280 C   0  0  0  0  0  0
    5.3730   -8.0210    4.1210 C   0  0  0  0  0  0
    4.7830   -6.9890    3.4720 C   0  0  0  0  0  0
    4.0770   -6.0680    4.2310 C   0  0  0  0  0  0
    7.2320  -10.8650    4.4410 N   0  0  0  0  0  0
    7.5010  -11.3990    6.6220 O   0  0  0  0  0  0
   10.1780  -14.2320    5.8570 C   0  0  0  0  0  0
   10.3310  -14.3200    4.2430 S   0  0  0  0  0  0
    9.2260  -13.1640    3.9800 C   0  0  0  0  0  0
   10.8680  -14.9520    6.8280 N   0  0  0  0  0  0
   11.9960  -16.6070    8.9350 C   0  0  0  0  0  0
   12.7030  -17.0390   10.0310 C   0  0  0  0  0  0
   14.0770  -17.2350    9.9370 C   0  0  0  0  0  0
   14.7460  -16.9610    8.7560 C   0  0  0  0  0  0
   14.0250  -16.5090    7.6550 C   0  0  0  0  0  0
   14.5960  -16.2290    6.4610 O   0  0  0  0  0  0
   15.9270  -15.8930    6.2140 C   0  0  0  0  0  0
   16.2300  -14.8720    7.0080 F   0  0  0  0  0  0
   15.9830  -15.5580    4.8990 F   0  0  0  0  0  0
   16.7630  -16.9110    6.4860 F   0  0  0  0  0  0
    4.4073   -7.4658    7.3346 H   0  0  0  0  0  0
    4.8731   -6.9030    2.3791 H   0  0  0  0  0  0
    3.6113   -5.2083    3.7493 H   0  0  0  0  0  0
    7.4381  -11.1231    3.3918 H   0  0  0  0  0  0
    8.8972  -12.8111    3.0025 H   0  0  0  0  0  0
   10.5490  -14.7637    7.8638 H   0  0  0  0  0  0
   10.9178  -16.4653    9.0088 H   0  0  0  0  0  0
   12.1880  -17.2279   10.9729 H   0  0  0  0  0  0
   14.6309  -17.6069   10.7990 H   0  0  0  0  0  0
   15.8253  -17.0978    8.6895 H   0  0  0  0  0  0
  1  2  1  0  0  0
  1 22  2  0  0  0
  2  5  1  0  0  0
  2 24  2  0  0  0
  3  7  2  0  0  0
  4 15  2  0  0  0
  4 16  1  0  0  0
  5 20  1  0  0  0
  5 21  2  0  0  0
  6 16  2  0  0  0
  6 17  1  0  0  0
  7  8  1  0  0  0
  7 25  1  0  0  0
  8 26  2  0  0  0
  8 30  1  0  0  0
  9 10  1  0  0  0
 10 11  1  0  0  0
 10 12  1  0  0  0
 10 13  1  0  0  0
 13 14  2  0  0  0
 13 19  1  0  0  0
 14 15  1  0  0  0
 14 36  1  0  0  0
 15 17  1  0  0  0
 16 20  1  0  0  0
 17 18  2  0  0  0
 18 19  1  0  0  0
 18 37  1  0  0  0
 19 38  1  0  0  0
 20 39  1  0  0  0
 22 23  1  0  0  0
 22 25  1  0  0  0
 23 24  1  0  0  0
 24 40  1  0  0  0
 25 41  1  0  0  0
 26 27  1  0  0  0
 26 42  1  0  0  0
 27 28  2  0  0  0
 27 43  1  0  0  0
 28 29  1  0  0  0
 28 44  1  0  0  0
 29 30  2  0  0  0
 29 45  1  0  0  0
 30 31  1  0  0  0
 31 32  1  0  0  0
 32 33  1  0  0  0
 32 34  1  0  0  0
 32 35  1  0  0  0
M  END
> <s_m_source_file>
../4twc_ligand.sdf

> <i_m_source_file_index>
1

> <s_epik_input>
RkMoRikoRilDKD1bQ0hdMSlbQ0gyXVtDSF09QyhDMTIpTj1DKE49MilbTkhdQyg9TyljM25jKHNbY0hdMylbTkhdQyg9TyljNFtjSF1bY0hdW2NIXVtjSF1jNE9DKEYpKEYpRg==

> <s_epik_cmdline>
J2VwaWtfYXBwJywgJy1pbWFlJywgJ2xpZ2FuZF9wcm8ubWFlJywgJy1vbWFlJywgJ2xpZ2FuZF9wcmVwLm1hZScsICctbXMnLCAnMScsICctcGgnLCAnNycsICctcGh0JywgJzAuNScsICctbnQn

> <r_epik_Ionization_Penalty>
  0.0491

> <r_epik_Ionization_Penalty_Charging>
  0.0000

> <r_epik_Ionization_Penalty_Neutral>
  0.0491

> <r_epik_State_Penalty>
  0.0419

> <r_epik_Charging_Adjusted_Penalty>
0.0418768669150375

> <i_epik_Tot_Q>
0

> <i_epik_Tot_abs_Q>
0

> <s_epik_Chemistry_Notes>
This compound has an imine and may undergo hydrolysis.

$$$$
