4twd_ligand
                    3D
 Schrodinger Suite 2020-3.
 35 37  0  0  1  0            999 V2000
 -125.2200  -42.2530  -68.8140 C   0  0  0  0  0  0
 -124.4700  -44.5040  -69.4830 C   0  0  0  0  0  0
 -125.2570  -46.4300  -68.2960 N   0  3  0  0  0  0
 -127.1790  -43.8700  -70.1100 C   0  0  2  0  0  0
 -126.3400  -42.8870  -68.0430 C   0  0  1  0  0  0
 -125.6360  -45.1140  -68.7490 C   0  0  2  0  0  0
 -124.8590  -43.1450  -69.9700 C   0  0  1  0  0  0
 -127.5300  -43.0300  -68.9270 C   0  0  0  0  0  0
 -126.8240  -45.2480  -69.6680 C   0  0  0  0  0  0
 -125.9690  -44.2540  -67.5540 C   0  0  0  0  0  0
 -126.0340  -43.2910  -70.8780 C   0  0  0  0  0  0
 -128.3720  -43.8640  -70.9750 C   0  0  0  0  0  0
 -126.6990  -41.9880  -66.9140 C   0  0  0  0  0  0
 -125.5430  -41.2706  -69.1889 H   0  0  0  0  0  0
 -124.3479  -42.1256  -68.1559 H   0  0  0  0  0  0
 -123.6102  -44.4220  -68.8018 H   0  0  0  0  0  0
 -124.2008  -45.1416  -70.3380 H   0  0  0  0  0  0
 -125.0134  -47.0604  -69.1639 H   0  0  0  0  0  0
 -126.0915  -46.8803  -67.7384 H   0  0  0  0  0  0
 -124.3772  -46.3528  -67.6403 H   0  0  0  0  0  0
 -124.0144  -42.6936  -70.5112 H   0  0  0  0  0  0
 -127.8538  -42.0352  -69.2668 H   0  0  0  0  0  0
 -128.3458  -43.5093  -68.3660 H   0  0  0  0  0  0
 -127.6791  -45.6955  -69.1403 H   0  0  0  0  0  0
 -126.5731  -45.8615  -70.5459 H   0  0  0  0  0  0
 -125.0963  -44.1809  -66.8883 H   0  0  0  0  0  0
 -126.8157  -44.6884  -67.0022 H   0  0  0  0  0  0
 -125.7757  -43.9606  -71.7116 H   0  0  0  0  0  0
 -126.3194  -42.3053  -71.2743 H   0  0  0  0  0  0
 -129.2256  -44.2873  -70.4253 H   0  0  0  0  0  0
 -128.1772  -44.4695  -71.8725 H   0  0  0  0  0  0
 -128.6037  -42.8308  -71.2729 H   0  0  0  0  0  0
 -126.9654  -40.9954  -67.3061 H   0  0  0  0  0  0
 -125.8407  -41.8947  -66.2324 H   0  0  0  0  0  0
 -127.5564  -42.4090  -66.3684 H   0  0  0  0  0  0
  1  5  1  0  0  0
  1  7  1  0  0  0
  1 14  1  0  0  0
  1 15  1  0  0  0
  2  6  1  0  0  0
  2  7  1  0  0  0
  2 16  1  0  0  0
  2 17  1  0  0  0
  3  6  1  0  0  0
  3 18  1  0  0  0
  3 19  1  0  0  0
  3 20  1  0  0  0
  4  8  1  0  0  0
  4  9  1  0  0  0
  4 11  1  0  0  0
  4 12  1  0  0  0
  5  8  1  0  0  0
  5 10  1  0  0  0
  5 13  1  0  0  0
  6  9  1  0  0  0
  6 10  1  0  0  0
  7 11  1  0  0  0
  7 21  1  0  0  0
  8 22  1  0  0  0
  8 23  1  0  0  0
  9 24  1  0  0  0
  9 25  1  0  0  0
 10 26  1  0  0  0
 10 27  1  0  0  0
 11 28  1  0  0  0
 11 29  1  0  0  0
 12 30  1  0  0  0
 12 31  1  0  0  0
 12 32  1  0  0  0
 13 33  1  0  0  0
 13 34  1  0  0  0
 13 35  1  0  0  0
M  CHG  1   3   1
M  END
> <s_m_source_file>
../4twd_ligand.sdf

> <i_m_source_file_index>
1

> <s_epik_input>
W0NIM11bQ0BAXTEyW0NIMl1bQ0BdMyhbQ0gzXSlbQ0gyXVtDQEhdKFtDSDJdMilbQ0gyXVtDQF0oW05IMytdKShbQ0gyXTEpW0NIMl0z

> <s_epik_cmdline>
J2VwaWtfYXBwJywgJy1pbWFlJywgJ2xpZ2FuZF9wcm8ubWFlJywgJy1vbWFlJywgJ2xpZ2FuZF9wcmVwLm1hZScsICctbXMnLCAnMScsICctcGgnLCAnNycsICctcGh0JywgJzAuNScsICctbnQn

> <r_lp_tautomer_probability>
1

> <r_epik_Ionization_Penalty>
  0.0001

> <r_epik_Ionization_Penalty_Charging>
  0.0001

> <r_epik_Ionization_Penalty_Neutral>
  0.0000

> <r_epik_State_Penalty>
 -0.0000

> <r_epik_Charging_Adjusted_Penalty>
0.000110926090638418

> <i_epik_Tot_Q>
1

> <i_epik_Tot_abs_Q>
1

$$$$
