4twt_ligand
                    3D
 Schrodinger Suite 2020-3.
176179  0  0  1  0            999 V2000
   -7.8440   64.4900  235.5540 N   0  3  0  0  0  0
   -9.0550   64.3300  234.6790 C   0  0  2  0  0  0
   -9.3480   65.5770  233.8560 C   0  0  0  0  0  0
   -9.1840   65.5660  232.6230 O   0  0  0  0  0  0
  -10.2800   63.9280  235.4980 C   0  0  0  0  0  0
   -9.7490   66.6540  234.5410 N   0  0  0  0  0  0
   -9.8550   67.9940  233.9370 C   0  0  2  0  0  0
   -9.1900   69.0950  234.7510 C   0  0  0  0  0  0
   -9.8540   69.7600  235.5410 O   0  0  0  0  0  0
  -11.2950   68.3550  233.7820 C   0  0  0  0  0  0
  -11.5070   69.8910  232.9020 S   0  0  0  0  0  0
   -7.8830   69.3290  234.5370 N   0  0  0  0  0  0
   -7.1300   70.2310  235.3850 C   0  0  2  0  0  0
   -7.4300   71.6570  235.0920 C   0  0  0  0  0  0
   -8.1610   71.9750  234.1410 O   0  0  0  0  0  0
   -5.6700   69.9610  235.0030 C   0  0  0  0  0  0
   -5.7060   68.7130  234.2010 C   0  0  0  0  0  0
   -7.0240   68.7620  233.5020 C   0  0  0  0  0  0
   -6.8680   72.5420  235.9010 N   0  0  0  0  0  0
   -7.1820   73.9240  235.6130 C   0  0  2  0  0  0
   -6.4460   74.3570  234.3510 C   0  0  0  0  0  0
   -5.3160   73.9050  234.1280 O   0  0  0  0  0  0
   -6.6760   74.6580  236.8540 C   0  0  0  0  0  0
   -5.5550   73.8200  237.3610 C   0  0  0  0  0  0
   -5.9320   72.4000  237.0300 C   0  0  0  0  0  0
   -7.1120   75.1640  233.5190 N   0  0  0  0  0  0
   -6.4910   75.8070  232.3660 C   0  0  2  0  0  0
   -7.0930   77.2130  232.1290 C   0  0  0  0  0  0
   -8.1660   77.5400  232.6360 O   0  0  0  0  0  0
   -6.6670   74.9500  231.1180 C   0  0  0  0  0  0
   -8.3910   74.7750  230.5930 S   0  0  0  0  0  0
   -6.4240   78.0010  231.2900 N   0  0  0  0  0  0
   -6.7790   79.4000  231.0460 C   0  0  2  0  0  0
   -8.1820   79.6060  230.4270 C   0  0  0  0  0  0
   -8.8060   80.6510  230.6410 O   0  0  0  0  0  0
   -5.7000   80.0860  230.1850 C   0  0  0  0  0  0
   -4.2070   79.9120  230.5700 C   0  0  0  0  0  0
   -3.3120   80.5490  229.5130 C   0  0  0  0  0  0
   -3.8320   80.4570  231.9360 C   0  0  0  0  0  0
   -8.6990   78.6190  229.7010 N   0  0  0  0  0  0
   -9.9900   78.7790  229.0150 C   0  0  2  0  0  0
  -11.2140   78.1850  229.7560 C   0  0  0  0  0  0
  -12.3680   78.3810  229.3300 O   0  0  0  0  0  0
   -9.8970   78.2450  227.5720 C   0  0  0  0  0  0
   -8.6090   78.6000  226.9280 C   0  0  0  0  0  0
   -8.2850   79.7890  226.3510 C   0  0  0  0  0  0
   -7.4290   77.7830  226.8420 C   0  0  0  0  0  0
   -6.9720   79.7670  225.9150 N   0  0  0  0  0  0
   -6.4320   78.5450  226.2010 C   0  0  0  0  0  0
   -7.1190   76.4880  227.2530 C   0  0  0  0  0  0
   -5.1650   78.0540  225.9560 C   0  0  0  0  0  0
   -5.8500   75.9950  227.0030 C   0  0  0  0  0  0
   -4.8870   76.7790  226.3620 C   0  0  0  0  0  0
  -10.9810   77.4940  230.8660 N   0  0  0  0  0  0
  -12.0410   76.6450  231.4280 C   0  0  2  0  0  0
  -13.3470   77.4010  231.7210 C   0  0  0  0  0  0
  -14.4440   76.8650  231.6000 O   0  0  0  0  0  0
  -11.5270   75.9300  232.6650 C   0  0  0  0  0  0
  -11.2350   76.8710  233.8260 C   0  0  0  0  0  0
  -10.1140   76.3980  234.7250 C   0  0  0  0  0  0
   -9.5520   75.3300  234.5030 O   0  0  0  0  0  0
   -9.7530   77.2070  235.7240 N   0  0  0  0  0  0
  -13.2110   78.6630  232.0750 N   0  0  0  0  0  0
  -14.3600   79.5240  232.3180 C   0  0  2  0  0  0
  -15.3890   79.4980  231.1830 C   0  0  0  0  0  0
  -16.5630   79.6920  231.4440 O   0  0  0  0  0  0
  -13.9160   80.9810  232.6610 C   0  0  0  0  0  0
  -13.0630   81.6000  231.5550 C   0  0  0  0  0  0
  -15.1070   81.8600  232.9410 C   0  0  0  0  0  0
  -14.9660   79.2450  229.9470 N   0  0  0  0  0  0
  -15.9100   79.2230  228.8140 C   0  0  2  0  0  0
  -16.6140   77.9080  228.5760 C   0  0  0  0  0  0
  -17.4590   77.8190  227.7000 O   0  0  0  0  0  0
  -15.1930   79.5740  227.5220 C   0  0  0  0  0  0
  -14.7930   81.0300  227.4640 C   0  0  0  0  0  0
  -13.8050   81.2140  226.3260 C   0  0  0  0  0  0
  -16.0250   81.9090  227.2960 C   0  0  0  0  0  0
  -16.2340   76.8690  229.3000 N   0  0  0  0  0  0
  -16.8770   75.5690  229.1270 C   0  0  2  0  0  0
  -17.4800   75.0580  230.4240 C   0  0  0  0  0  0
  -17.7490   73.8810  230.5530 O   0  0  0  0  0  0
  -15.8660   74.5720  228.5600 C   0  0  0  0  0  0
  -14.4560   74.1280  229.6400 S   0  0  0  0  0  0
  -17.6760   75.9490  231.3930 N   0  0  0  0  0  0
  -18.5440   75.6640  232.5490 C   0  0  0  0  0  0
  -17.8930   75.6800  233.9260 C   0  0  0  0  0  0
  -18.5840   75.5520  234.9460 O   0  0  0  0  0  0
  -16.6760   75.8130  234.0770 O   0  0  0  0  0  0
   -6.9809   64.7790  234.9363 H   0  0  0  0  0  0
   -7.6296   63.5377  236.0610 H   0  0  0  0  0  0
   -8.0350   65.2705  236.3052 H   0  0  0  0  0  0
   -8.8076   63.5200  233.9770 H   0  0  0  0  0  0
  -10.0491   63.0267  236.0848 H   0  0  0  0  0  0
  -11.1213   63.7191  234.8209 H   0  0  0  0  0  0
  -10.5518   64.7487  236.1781 H   0  0  0  0  0  0
  -10.0053   66.5064  235.6005 H   0  0  0  0  0  0
   -9.3420   67.9004  232.9685 H   0  0  0  0  0  0
  -11.8131   67.5633  233.2210 H   0  0  0  0  0  0
  -11.7552   68.4618  234.7754 H   0  0  0  0  0  0
  -12.5178   70.2820  232.7137 H   0  0  0  0  0  0
   -7.4104   70.0560  236.4342 H   0  0  0  0  0  0
   -5.2814   70.8078  234.4182 H   0  0  0  0  0  0
   -5.0686   69.8392  235.9160 H   0  0  0  0  0  0
   -4.8641   68.7077  233.4930 H   0  0  0  0  0  0
   -5.6271   67.8442  234.8710 H   0  0  0  0  0  0
   -7.4013   67.7692  233.2157 H   0  0  0  0  0  0
   -7.0251   69.4223  232.6222 H   0  0  0  0  0  0
   -8.2562   74.0724  235.4287 H   0  0  0  0  0  0
   -6.3364   75.6653  236.5712 H   0  0  0  0  0  0
   -7.4898   74.7386  237.5897 H   0  0  0  0  0  0
   -4.6212   74.1148  236.8600 H   0  0  0  0  0  0
   -5.4504   73.9652  238.4463 H   0  0  0  0  0  0
   -6.4399   71.8975  237.8664 H   0  0  0  0  0  0
   -5.0650   71.8010  236.7144 H   0  0  0  0  0  0
   -8.1767   75.3344  233.7365 H   0  0  0  0  0  0
   -5.4230   75.8788  232.6194 H   0  0  0  0  0  0
   -6.1142   75.4025  230.2816 H   0  0  0  0  0  0
   -6.2787   73.9388  231.3098 H   0  0  0  0  0  0
   -8.6369   74.1773  229.7029 H   0  0  0  0  0  0
   -5.5663   77.5521  230.7677 H   0  0  0  0  0  0
   -6.8045   79.8173  232.0634 H   0  0  0  0  0  0
   -5.7635   79.7133  229.1520 H   0  0  0  0  0  0
   -5.8617   81.1740  230.1928 H   0  0  0  0  0  0
   -4.0288   78.8282  230.6307 H   0  0  0  0  0  0
   -3.5802   80.1569  228.5208 H   0  0  0  0  0  0
   -2.2606   80.3094  229.7301 H   0  0  0  0  0  0
   -3.4495   81.6403  229.5254 H   0  0  0  0  0  0
   -4.4754   80.0001  232.7023 H   0  0  0  0  0  0
   -3.9689   81.5484  231.9455 H   0  0  0  0  0  0
   -2.7800   80.2175  232.1501 H   0  0  0  0  0  0
   -8.1456   77.6720  229.6179 H   0  0  0  0  0  0
  -10.1256   79.8705  229.0286 H   0  0  0  0  0  0
   -9.9852   77.1486  227.5804 H   0  0  0  0  0  0
  -10.7111   78.6737  226.9692 H   0  0  0  0  0  0
   -8.9623   80.6367  226.2472 H   0  0  0  0  0  0
   -7.8623   75.8745  227.7621 H   0  0  0  0  0  0
   -4.4119   78.6628  225.4556 H   0  0  0  0  0  0
   -5.5981   74.9801  227.3107 H   0  0  0  0  0  0
   -3.8946   76.3655  226.1823 H   0  0  0  0  0  0
  -10.0023   77.5541  231.3644 H   0  0  0  0  0  0
  -12.2607   75.9155  230.6346 H   0  0  0  0  0  0
  -12.2789   75.2039  233.0078 H   0  0  0  0  0  0
  -10.5924   75.4031  232.4222 H   0  0  0  0  0  0
  -10.9466   77.8577  233.4346 H   0  0  0  0  0  0
  -12.1347   76.9730  234.4506 H   0  0  0  0  0  0
  -10.2870   78.1553  235.8842 H   0  0  0  0  0  0
   -8.9216   76.9252  236.3869 H   0  0  0  0  0  0
  -12.1918   79.0617  232.1857 H   0  0  0  0  0  0
  -14.8338   79.0451  233.1876 H   0  0  0  0  0  0
  -13.3046   80.9489  233.5749 H   0  0  0  0  0  0
  -12.1956   80.9535  231.3557 H   0  0  0  0  0  0
  -12.7144   82.5935  231.8735 H   0  0  0  0  0  0
  -13.6649   81.6987  230.6396 H   0  0  0  0  0  0
  -15.7165   81.4087  233.7378 H   0  0  0  0  0  0
  -15.7123   81.9591  232.0279 H   0  0  0  0  0  0
  -14.7618   82.8539  233.2618 H   0  0  0  0  0  0
  -13.8969   79.0507  229.7760 H   0  0  0  0  0  0
  -16.6618   79.9630  229.1259 H   0  0  0  0  0  0
  -14.2802   78.9667  227.4326 H   0  0  0  0  0  0
  -15.8550   79.3689  226.6678 H   0  0  0  0  0  0
  -14.3072   81.3264  228.4054 H   0  0  0  0  0  0
  -12.9337   80.5623  226.4879 H   0  0  0  0  0  0
  -13.4767   82.2633  226.2916 H   0  0  0  0  0  0
  -14.2888   80.9497  225.3741 H   0  0  0  0  0  0
  -16.7111   81.7438  228.1398 H   0  0  0  0  0  0
  -16.5330   81.6523  226.3547 H   0  0  0  0  0  0
  -15.7209   82.9659  227.2721 H   0  0  0  0  0  0
  -15.4266   76.9895  230.0373 H   0  0  0  0  0  0
  -17.7021   75.7323  228.4181 H   0  0  0  0  0  0
  -16.3753   73.6248  228.3288 H   0  0  0  0  0  0
  -15.4213   74.9829  227.6416 H   0  0  0  0  0  0
  -13.6959   73.4155  229.2870 H   0  0  0  0  0  0
  -17.1679   76.9213  231.3132 H   0  0  0  0  0  0
  -19.3499   76.4112  232.5954 H   0  0  0  0  0  0
  -18.9805   74.6601  232.4411 H   0  0  0  0  0  0
  -18.1083   75.5643  235.9377 H   0  0  0  0  0  0
  1  2  1  0  0  0
  1 89  1  0  0  0
  1 90  1  0  0  0
  1 91  1  0  0  0
  2  3  1  0  0  0
  2  5  1  0  0  0
  2 92  1  0  0  0
  3  4  2  0  0  0
  3  6  1  0  0  0
  5 93  1  0  0  0
  5 94  1  0  0  0
  5 95  1  0  0  0
  6  7  1  0  0  0
  6 96  1  0  0  0
  7  8  1  0  0  0
  7 10  1  0  0  0
  7 97  1  0  0  0
  8  9  2  0  0  0
  8 12  1  0  0  0
 10 11  1  0  0  0
 10 98  1  0  0  0
 10 99  1  0  0  0
 11100  1  0  0  0
 12 13  1  0  0  0
 12 18  1  0  0  0
 13 14  1  0  0  0
 13 16  1  0  0  0
 13101  1  0  0  0
 14 15  2  0  0  0
 14 19  1  0  0  0
 16 17  1  0  0  0
 16102  1  0  0  0
 16103  1  0  0  0
 17 18  1  0  0  0
 17104  1  0  0  0
 17105  1  0  0  0
 18106  1  0  0  0
 18107  1  0  0  0
 19 20  1  0  0  0
 19 25  1  0  0  0
 20 21  1  0  0  0
 20 23  1  0  0  0
 20108  1  0  0  0
 21 22  2  0  0  0
 21 26  1  0  0  0
 23 24  1  0  0  0
 23109  1  0  0  0
 23110  1  0  0  0
 24 25  1  0  0  0
 24111  1  0  0  0
 24112  1  0  0  0
 25113  1  0  0  0
 25114  1  0  0  0
 26 27  1  0  0  0
 26115  1  0  0  0
 27 28  1  0  0  0
 27 30  1  0  0  0
 27116  1  0  0  0
 28 29  2  0  0  0
 28 32  1  0  0  0
 30 31  1  0  0  0
 30117  1  0  0  0
 30118  1  0  0  0
 31119  1  0  0  0
 32 33  1  0  0  0
 32120  1  0  0  0
 33 34  1  0  0  0
 33 36  1  0  0  0
 33121  1  0  0  0
 34 35  2  0  0  0
 34 40  1  0  0  0
 36 37  1  0  0  0
 36122  1  0  0  0
 36123  1  0  0  0
 37 38  1  0  0  0
 37 39  1  0  0  0
 37124  1  0  0  0
 38125  1  0  0  0
 38126  1  0  0  0
 38127  1  0  0  0
 39128  1  0  0  0
 39129  1  0  0  0
 39130  1  0  0  0
 40 41  1  0  0  0
 40131  1  0  0  0
 41 42  1  0  0  0
 41 44  1  0  0  0
 41132  1  0  0  0
 42 43  2  0  0  0
 42 54  1  0  0  0
 44 45  1  0  0  0
 44133  1  0  0  0
 44134  1  0  0  0
 45 46  2  0  0  0
 45 47  1  0  0  0
 46 48  1  0  0  0
 46135  1  0  0  0
 47 49  2  0  0  0
 47 50  1  0  0  0
 48 49  1  0  0  0
 49 51  1  0  0  0
 50 52  2  0  0  0
 50136  1  0  0  0
 51 53  2  0  0  0
 51137  1  0  0  0
 52 53  1  0  0  0
 52138  1  0  0  0
 53139  1  0  0  0
 54 55  1  0  0  0
 54140  1  0  0  0
 55 56  1  0  0  0
 55 58  1  0  0  0
 55141  1  0  0  0
 56 57  2  0  0  0
 56 63  1  0  0  0
 58 59  1  0  0  0
 58142  1  0  0  0
 58143  1  0  0  0
 59 60  1  0  0  0
 59144  1  0  0  0
 59145  1  0  0  0
 60 61  2  0  0  0
 60 62  1  0  0  0
 62146  1  0  0  0
 62147  1  0  0  0
 63 64  1  0  0  0
 63148  1  0  0  0
 64 65  1  0  0  0
 64 67  1  0  0  0
 64149  1  0  0  0
 65 66  2  0  0  0
 65 70  1  0  0  0
 67 68  1  0  0  0
 67 69  1  0  0  0
 67150  1  0  0  0
 68151  1  0  0  0
 68152  1  0  0  0
 68153  1  0  0  0
 69154  1  0  0  0
 69155  1  0  0  0
 69156  1  0  0  0
 70 71  1  0  0  0
 70157  1  0  0  0
 71 72  1  0  0  0
 71 74  1  0  0  0
 71158  1  0  0  0
 72 73  2  0  0  0
 72 78  1  0  0  0
 74 75  1  0  0  0
 74159  1  0  0  0
 74160  1  0  0  0
 75 76  1  0  0  0
 75 77  1  0  0  0
 75161  1  0  0  0
 76162  1  0  0  0
 76163  1  0  0  0
 76164  1  0  0  0
 77165  1  0  0  0
 77166  1  0  0  0
 77167  1  0  0  0
 78 79  1  0  0  0
 78168  1  0  0  0
 79 80  1  0  0  0
 79 82  1  0  0  0
 79169  1  0  0  0
 80 81  2  0  0  0
 80 84  1  0  0  0
 82 83  1  0  0  0
 82170  1  0  0  0
 82171  1  0  0  0
 83172  1  0  0  0
 84 85  1  0  0  0
 84173  1  0  0  0
 85 86  1  0  0  0
 85174  1  0  0  0
 85175  1  0  0  0
 86 87  1  0  0  0
 86 88  2  0  0  0
 87176  1  0  0  0
M  CHG  1   1   1
M  END
> <s_m_source_file>
../4twt_ligand.sdf

> <i_m_source_file_index>
1

> <s_epik_input>
W05IMytdW0NAQEhdKFtDSDNdKUMoPU8pW05IXVtDQEBIXShbQ0gyXVtTSF0pQyg9TylOMVtDQEBIXShbQ0gyXVtDSDJdW0NIMl0xKUMoPU8pTjJbQ0BASF0oW0NIMl1bQ0gyXVtDSDJdMilDKD1PKVtOSF1bQ0BASF0oW0NIMl1bU0hdKUMoPU8pW05IXVtDQEBIXShbQ0gyXVtDSF0oW0NIM10pW0NIM10pQyg9TylbTkhdW0NAQEhdKFtDSDJdYzNbY0hdW25IXWMoYzM0KVtjSF1bY0hdW2NIXVtjSF00KUMoPU8pW05IXVtDQEBIXShbQ0gyXVtDSDJdQyg9TylbTkgyXSlDKD1PKVtOSF1bQ0BASF0oW0NIXShbQ0gzXSlbQ0gzXSlDKD1PKVtOSF1bQ0BASF0oW0NIMl1bQ0hdKFtDSDNdKVtDSDNdKUMoPU8pW05IXVtDQEBIXShbQ0gyXVtTSF0pQyg9TylbTkhdW0NIMl1DKD1PKVtPSF0=

> <s_epik_cmdline>
J2VwaWtfYXBwJywgJy1pbWFlJywgJ2xpZ2FuZF9wcm8ubWFlJywgJy1vbWFlJywgJ2xpZ2FuZF9wcmVwLm1hZScsICctbXMnLCAnMScsICctcGgnLCAnNycsICctcGh0JywgJzAuNScsICctbnQn

> <s_epik_pKa_notes>
Molecule size exceeds maximum supported for generating protonation states

$$$$
