4tww_ligand
                    3D
 Schrodinger Suite 2020-3.
 58 61  0  0  1  0            999 V2000
    1.6270   18.8580  -11.4620 C   0  0  0  0  0  0
    1.8450   19.3870  -12.7420 C   0  0  0  0  0  0
    2.0390   20.7540  -12.9010 C   0  0  0  0  0  0
    2.0270   21.5950  -11.7770 C   0  0  0  0  0  0
    1.8160   21.0510  -10.4930 C   0  0  0  0  0  0
    1.6180   19.6780  -10.3350 C   0  0  0  0  0  0
    3.5490   17.1090  -10.0730 C   0  0  0  0  0  0
   -1.0140   15.4850   -5.4380 O   0  0  0  0  0  0
   -0.1980   15.3360   -6.3650 C   0  0  0  0  0  0
   -0.4100   14.3510   -7.5480 C   0  0  2  0  0  0
   -1.0440   13.0350   -7.1020 C   0  0  0  0  0  0
   -2.0920   12.4390   -8.0350 C   0  0  0  0  0  0
   -2.5760   11.1880   -7.9040 N   0  0  0  0  0  0
   -3.5330   10.9820   -8.8230 C   0  0  0  0  0  0
   -3.6390   12.1030   -9.5770 N   0  0  0  0  0  0
   -2.7640   13.0250   -9.1110 C   0  0  0  0  0  0
    0.8250   13.9830   -8.3250 N   0  0  1  0  0  0
    1.5170   15.1900   -8.8070 C   0  0  0  0  0  0
    1.8680   15.2340  -10.2820 C   0  0  2  0  0  0
    3.0230   14.2740  -10.6420 C   0  0  0  0  0  0
    4.3810   14.7090  -10.1410 C   0  0  1  0  0  0
    5.4540   13.8000  -10.7220 C   0  0  0  0  0  0
    6.8290   14.1590  -10.1880 C   0  0  0  0  0  0
    7.1470   15.6400  -10.4350 C   0  0  0  0  0  0
    6.0260   16.5770   -9.9770 C   0  0  0  0  0  0
    4.6530   16.1530  -10.5390 C   0  0  2  0  0  0
    2.2440   16.6440  -10.6000 N   0  0  0  0  0  0
    1.4300   17.3840  -11.3570 C   0  0  0  0  0  0
    0.5540   16.8990  -12.0500 O   0  0  0  0  0  0
    2.2990   23.4690  -12.0190 Br  0  0  0  0  0  0
    1.8623   18.7280  -13.6100 H   0  0  0  0  0  0
    2.1999   21.1716  -13.8949 H   0  0  0  0  0  0
    1.8075   21.7048   -9.6209 H   0  0  0  0  0  0
    1.4586   19.2532   -9.3439 H   0  0  0  0  0  0
    3.5177   17.1248   -8.9736 H   0  0  0  0  0  0
    3.7582   18.1216  -10.4485 H   0  0  0  0  0  0
    0.7345   15.9194   -6.3760 H   0  0  0  0  0  0
   -0.7830   12.5185   -6.1665 H   0  0  0  0  0  0
   -4.1216   10.0723   -8.9418 H   0  0  0  0  0  0
   -2.7005   14.0138   -9.5887 H   0  0  0  0  0  0
    1.5100   13.4157   -7.6777 H   0  0  0  0  0  0
    0.8854   16.0720   -8.6250 H   0  0  0  0  0  0
    2.4705   15.3048   -8.2707 H   0  0  0  0  0  0
    0.9914   14.9324  -10.8741 H   0  0  0  0  0  0
    2.8250   13.2830  -10.2076 H   0  0  0  0  0  0
    3.0994   14.1862  -11.7358 H   0  0  0  0  0  0
    4.3906   14.6348   -9.0435 H   0  0  0  0  0  0
    5.2355   12.7561  -10.4526 H   0  0  0  0  0  0
    5.4665   13.9011  -11.8173 H   0  0  0  0  0  0
    6.8635   13.9672   -9.1054 H   0  0  0  0  0  0
    7.5901   13.5463  -10.6933 H   0  0  0  0  0  0
    8.0587   15.9159   -9.8849 H   0  0  0  0  0  0
    7.3033   15.8070  -11.5110 H   0  0  0  0  0  0
    5.9656   16.5671   -8.8787 H   0  0  0  0  0  0
    6.2382   17.5993  -10.3233 H   0  0  0  0  0  0
    4.6553   16.2023  -11.6379 H   0  0  0  0  0  0
   -2.1741   10.5214   -7.1268 H   0  0  0  0  0  0
   -1.0630   14.9125   -8.2323 H   0  0  0  0  0  0
  1  2  2  0  0  0
  1  6  1  0  0  0
  1 28  1  0  0  0
  2  3  1  0  0  0
  2 31  1  0  0  0
  3  4  2  0  0  0
  3 32  1  0  0  0
  4  5  1  0  0  0
  4 30  1  0  0  0
  5  6  2  0  0  0
  5 33  1  0  0  0
  6 34  1  0  0  0
  7 26  1  0  0  0
  7 27  1  0  0  0
  7 35  1  0  0  0
  7 36  1  0  0  0
  8  9  2  0  0  0
  9 10  1  0  0  0
  9 37  1  0  0  0
 10 11  1  0  0  0
 10 17  1  0  0  0
 10 58  1  0  0  0
 11 12  2  0  0  0
 11 38  1  0  0  0
 12 13  1  0  0  0
 12 16  1  0  0  0
 13 14  1  0  0  0
 13 57  1  0  0  0
 14 15  1  0  0  0
 14 39  1  0  0  0
 15 16  2  0  0  0
 16 40  1  0  0  0
 17 18  1  0  0  0
 17 41  1  0  0  0
 18 19  1  0  0  0
 18 42  1  0  0  0
 18 43  1  0  0  0
 19 20  1  0  0  0
 19 27  1  0  0  0
 19 44  1  0  0  0
 20 21  1  0  0  0
 20 45  1  0  0  0
 20 46  1  0  0  0
 21 22  1  0  0  0
 21 26  1  0  0  0
 21 47  1  0  0  0
 22 23  1  0  0  0
 22 48  1  0  0  0
 22 49  1  0  0  0
 23 24  1  0  0  0
 23 50  1  0  0  0
 23 51  1  0  0  0
 24 25  1  0  0  0
 24 52  1  0  0  0
 24 53  1  0  0  0
 25 26  1  0  0  0
 25 54  1  0  0  0
 25 55  1  0  0  0
 26 56  1  0  0  0
 27 28  1  0  0  0
 28 29  2  0  0  0
M  END
> <s_m_source_file>
../4tww_ligand.sdf

> <i_m_source_file_index>
1

> <s_epik_input>
W2NIXTFbY0hdYyhCcilbY0hdW2NIXWMxQyg9TylOKFtDSDJdW0NASF0oW0NAQEhdMjMpW0NIMl1bQ0gyXVtDSDJdW0NIMl0zKVtDQEBIXShbQ0gyXTIpW0NIMl1bTkgyK11bQ0BIXShbQ0hdPU8pW0NIMl1DND1OW0NIMl1OPVtDSF00

> <s_epik_cmdline>
J2VwaWtfYXBwJywgJy1pbWFlJywgJ2xpZ2FuZF9wcm8ubWFlJywgJy1vbWFlJywgJ2xpZ2FuZF9wcmVwLm1hZScsICctbXMnLCAnMScsICctcGgnLCAnNycsICctcGh0JywgJzAuNScsICctbnQn

> <r_epik_Ionization_Penalty>
  0.0235

> <r_epik_Ionization_Penalty_Charging>
  0.0000

> <r_epik_Ionization_Penalty_Neutral>
  0.0235

> <r_epik_State_Penalty>
  0.0190

> <r_epik_Charging_Adjusted_Penalty>
0.0190499204099917

> <i_epik_Tot_Q>
0

> <i_epik_Tot_abs_Q>
0

> <s_epik_Chemistry_Notes>
This compound has an imine and may undergo hydrolysis.

$$$$
