4twy_ligand
                    3D
 Schrodinger Suite 2020-3.
 68 72  0  0  1  0            999 V2000
  -27.5370  -43.3130    0.9660 C   0  0  0  0  0  0
  -20.8330  -45.0940    1.0620 O   0  0  0  0  0  0
  -27.3390  -44.6640    1.1520 C   0  0  0  0  0  0
  -28.2490  -45.5930    0.6960 C   0  0  0  0  0  0
  -29.3660  -45.1490    0.0460 C   0  0  0  0  0  0
  -30.3740  -46.0720   -0.4860 C   0  0  0  0  0  0
  -31.0330  -45.6960   -1.6280 C   0  0  0  0  0  0
  -21.1690  -44.4050    2.0000 C   0  0  0  0  0  0
  -21.3890  -42.9200    1.8210 C   0  0  2  0  0  0
  -20.0340  -42.2660    2.0130 C   0  0  0  0  0  0
  -19.7540  -41.0340    1.2350 C   0  0  0  0  0  0
  -18.6940  -40.2660    1.4170 N   0  0  0  0  0  0
  -18.7440  -39.2730    0.5510 C   0  0  0  0  0  0
  -19.8390  -39.3950   -0.1740 N   0  0  0  0  0  0
  -20.4830  -40.4860    0.2240 C   0  0  0  0  0  0
  -22.2870  -42.4000    2.8650 N   0  0  1  0  0  0
  -23.6330  -42.9840    2.8290 C   0  0  0  0  0  0
  -24.6630  -41.8660    2.8720 C   0  0  2  0  0  0
  -24.7590  -41.2230    4.2470 C   0  0  0  0  0  0
  -25.2810  -42.1930    5.2730 C   0  0  1  0  0  0
  -25.3990  -41.5450    6.6240 C   0  0  0  0  0  0
  -26.0040  -42.4880    7.6370 C   0  0  0  0  0  0
  -27.3230  -43.0980    7.1800 C   0  0  0  0  0  0
  -27.1840  -43.6920    5.8070 C   0  0  0  0  0  0
  -26.6100  -42.7130    4.8150 C   0  0  2  0  0  0
  -26.3520  -43.4820    3.5550 C   0  0  0  0  0  0
  -25.9170  -42.5390    2.5710 N   0  0  0  0  0  0
  -26.5310  -42.3090    1.4480 C   0  0  0  0  0  0
  -26.2900  -41.3580    0.7780 O   0  0  0  0  0  0
  -28.6550  -42.8920    0.3120 C   0  0  0  0  0  0
  -29.5660  -43.8170   -0.1460 C   0  0  0  0  0  0
  -30.6380  -47.2690    0.1130 C   0  0  0  0  0  0
  -31.5890  -48.0960   -0.4390 C   0  0  0  0  0  0
  -32.2580  -47.7160   -1.5740 C   0  0  0  0  0  0
  -31.9800  -46.5160   -2.1720 C   0  0  0  0  0  0
  -26.4433  -45.0052    1.6710 H   0  0  0  0  0  0
  -28.0814  -46.6589    0.8505 H   0  0  0  0  0  0
  -30.8010  -44.7422   -2.1019 H   0  0  0  0  0  0
  -21.3163  -44.8590    2.9911 H   0  0  0  0  0  0
  -19.2724  -42.6701    2.6962 H   0  0  0  0  0  0
  -18.0019  -38.4810    0.4507 H   0  0  0  0  0  0
  -21.4252  -40.7771   -0.2634 H   0  0  0  0  0  0
  -21.8618  -42.6174    3.8559 H   0  0  0  0  0  0
  -23.7561  -43.5646    1.9029 H   0  0  0  0  0  0
  -23.7690  -43.6455    3.6973 H   0  0  0  0  0  0
  -24.4396  -41.0646    2.1523 H   0  0  0  0  0  0
  -23.7616  -40.8839    4.5636 H   0  0  0  0  0  0
  -25.4420  -40.3619    4.2022 H   0  0  0  0  0  0
  -24.5753  -43.0307    5.3745 H   0  0  0  0  0  0
  -24.4003  -41.2480    6.9767 H   0  0  0  0  0  0
  -26.0410  -40.6549    6.5490 H   0  0  0  0  0  0
  -25.3057  -43.3156    7.8303 H   0  0  0  0  0  0
  -26.1972  -41.9449    8.5739 H   0  0  0  0  0  0
  -27.6234  -43.8899    7.8819 H   0  0  0  0  0  0
  -28.0982  -42.3180    7.1537 H   0  0  0  0  0  0
  -26.5149  -44.5640    5.8508 H   0  0  0  0  0  0
  -28.1728  -44.0065    5.4417 H   0  0  0  0  0  0
  -27.3050  -41.8704    4.6846 H   0  0  0  0  0  0
  -25.5744  -44.2379    3.7395 H   0  0  0  0  0  0
  -27.2785  -43.9801    3.2332 H   0  0  0  0  0  0
  -28.8277  -41.8277    0.1520 H   0  0  0  0  0  0
  -30.4597  -43.4776   -0.6696 H   0  0  0  0  0  0
  -30.1035  -47.5657    1.0154 H   0  0  0  0  0  0
  -31.8112  -49.0559    0.0272 H   0  0  0  0  0  0
  -33.0151  -48.3727   -2.0025 H   0  0  0  0  0  0
  -32.5108  -46.2173   -3.0759 H   0  0  0  0  0  0
  -17.9596  -40.5179    2.1962 H   0  0  0  0  0  0
  -21.8547  -42.7061    0.8477 H   0  0  0  0  0  0
  1  3  2  0  0  0
  1 28  1  0  0  0
  1 30  1  0  0  0
  2  8  2  0  0  0
  3  4  1  0  0  0
  3 36  1  0  0  0
  4  5  2  0  0  0
  4 37  1  0  0  0
  5  6  1  0  0  0
  5 31  1  0  0  0
  6  7  2  0  0  0
  6 32  1  0  0  0
  7 35  1  0  0  0
  7 38  1  0  0  0
  8  9  1  0  0  0
  8 39  1  0  0  0
  9 10  1  0  0  0
  9 16  1  0  0  0
  9 68  1  0  0  0
 10 11  2  0  0  0
 10 40  1  0  0  0
 11 12  1  0  0  0
 11 15  1  0  0  0
 12 13  1  0  0  0
 12 67  1  0  0  0
 13 14  1  0  0  0
 13 41  1  0  0  0
 14 15  2  0  0  0
 15 42  1  0  0  0
 16 17  1  0  0  0
 16 43  1  0  0  0
 17 18  1  0  0  0
 17 44  1  0  0  0
 17 45  1  0  0  0
 18 19  1  0  0  0
 18 27  1  0  0  0
 18 46  1  0  0  0
 19 20  1  0  0  0
 19 47  1  0  0  0
 19 48  1  0  0  0
 20 21  1  0  0  0
 20 25  1  0  0  0
 20 49  1  0  0  0
 21 22  1  0  0  0
 21 50  1  0  0  0
 21 51  1  0  0  0
 22 23  1  0  0  0
 22 52  1  0  0  0
 22 53  1  0  0  0
 23 24  1  0  0  0
 23 54  1  0  0  0
 23 55  1  0  0  0
 24 25  1  0  0  0
 24 56  1  0  0  0
 24 57  1  0  0  0
 25 26  1  0  0  0
 25 58  1  0  0  0
 26 27  1  0  0  0
 26 59  1  0  0  0
 26 60  1  0  0  0
 27 28  1  0  0  0
 28 29  2  0  0  0
 30 31  2  0  0  0
 30 61  1  0  0  0
 31 62  1  0  0  0
 32 33  2  0  0  0
 32 63  1  0  0  0
 33 34  1  0  0  0
 33 64  1  0  0  0
 34 35  2  0  0  0
 34 65  1  0  0  0
 35 66  1  0  0  0
M  END
> <s_m_source_file>
../4twy_ligand.sdf

> <i_m_source_file_index>
1

> <s_epik_input>
W2NIXTFbY0hdW2NIXVtjSF1bY0hdYzEtYyhbY0hdW2NIXTIpW2NIXVtjSF1jMkMoPU8pTihbQ0gyXVtDQEhdKFtDQEBIXTM0KVtDSDJdW0NIMl1bQ0gyXVtDSDJdNClbQ0BASF0oW0NIMl0zKVtDSDJdW05IMitdW0NASF0oW0NIXT1PKVtDSDJdQzU9TltDSDJdTj1bQ0hdNQ==

> <s_epik_cmdline>
J2VwaWtfYXBwJywgJy1pbWFlJywgJ2xpZ2FuZF9wcm8ubWFlJywgJy1vbWFlJywgJ2xpZ2FuZF9wcmVwLm1hZScsICctbXMnLCAnMScsICctcGgnLCAnNycsICctcGh0JywgJzAuNScsICctbnQn

> <r_epik_Ionization_Penalty>
  0.0235

> <r_epik_Ionization_Penalty_Charging>
  0.0000

> <r_epik_Ionization_Penalty_Neutral>
  0.0235

> <r_epik_State_Penalty>
  0.0190

> <r_epik_Charging_Adjusted_Penalty>
0.0190499204099917

> <i_epik_Tot_Q>
0

> <i_epik_Tot_abs_Q>
0

> <s_epik_Chemistry_Notes>
This compound has an imine and may undergo hydrolysis.

$$$$
