4tx6_ligand
                    3D
 Schrodinger Suite 2020-3.
 30 32  0  0  1  0            999 V2000
   15.6110   41.2980   75.4350 C   0  0  0  0  0  0
   15.3440   39.8130   75.1550 C   0  0  0  0  0  0
   15.4800   39.3490   73.9000 N   0  0  0  0  0  0
   15.0540   38.9650   76.2300 N   0  0  0  0  0  0
   14.8240   37.5690   76.0710 C   0  0  0  0  0  0
   14.5920   36.8240   77.0520 O   0  0  0  0  0  0
   14.9270   37.0860   74.7490 C   0  0  0  0  0  0
   15.2530   38.0230   73.7010 C   0  0  0  0  0  0
   15.2570   37.3460   72.5560 O   0  0  0  0  0  0
   14.9700   35.9280   72.8400 N   0  0  0  0  0  0
   14.7920   35.7920   74.1630 C   0  0  0  0  0  0
   14.4670   34.6350   74.8470 C   0  0  0  0  0  0
   15.3420   34.1990   75.8530 C   0  0  0  0  0  0
   15.0370   33.0540   76.5790 C   0  0  0  0  0  0
   13.8600   32.3550   76.3150 C   0  0  0  0  0  0
   12.9720   32.7730   75.3030 C   0  0  0  0  0  0
   13.2670   33.9250   74.5600 C   0  0  0  0  0  0
   12.3810   34.3500   73.5940 O   0  0  0  0  0  0
   10.9450   34.0920   73.8380 C   0  0  0  0  0  0
   15.8208   41.8176   74.4884 H   0  0  0  0  0  0
   16.4772   41.3946   76.1061 H   0  0  0  0  0  0
   14.7264   41.7462   75.9111 H   0  0  0  0  0  0
   14.9959   39.3710   77.2507 H   0  0  0  0  0  0
   16.2555   34.7549   76.0640 H   0  0  0  0  0  0
   15.7176   32.7026   77.3545 H   0  0  0  0  0  0
   13.6218   31.4682   76.9024 H   0  0  0  0  0  0
   12.0638   32.2055   75.0998 H   0  0  0  0  0  0
   10.3544   34.4796   72.9948 H   0  0  0  0  0  0
   10.6344   34.5955   74.7653 H   0  0  0  0  0  0
   10.7784   33.0090   73.9353 H   0  0  0  0  0  0
  1  2  1  0  0  0
  1 20  1  0  0  0
  1 21  1  0  0  0
  1 22  1  0  0  0
  2  3  2  0  0  0
  2  4  1  0  0  0
  3  8  1  0  0  0
  4  5  1  0  0  0
  4 23  1  0  0  0
  5  6  2  0  0  0
  5  7  1  0  0  0
  7  8  2  0  0  0
  7 11  1  0  0  0
  8  9  1  0  0  0
  9 10  1  0  0  0
 10 11  2  0  0  0
 11 12  1  0  0  0
 12 13  2  0  0  0
 12 17  1  0  0  0
 13 14  1  0  0  0
 13 24  1  0  0  0
 14 15  2  0  0  0
 14 25  1  0  0  0
 15 16  1  0  0  0
 15 26  1  0  0  0
 16 17  2  0  0  0
 16 27  1  0  0  0
 17 18  1  0  0  0
 18 19  1  0  0  0
 19 28  1  0  0  0
 19 29  1  0  0  0
 19 30  1  0  0  0
M  END
> <s_m_source_file>
../4tx6_ligand.sdf

> <i_m_source_file_index>
1

> <s_epik_input>
Tz1jMVtuSF1jKFtDSDNdKW5jKGMxMilvbmMyLWMzW2NIXVtjSF1bY0hdW2NIXWMzT1tDSDNd

> <s_epik_cmdline>
J2VwaWtfYXBwJywgJy1pbWFlJywgJ2xpZ2FuZF9wcm8ubWFlJywgJy1vbWFlJywgJ2xpZ2FuZF9wcmVwLm1hZScsICctbXMnLCAnMScsICctcGgnLCAnNycsICctcGh0JywgJzAuNScsICctbnQn

> <r_lp_tautomer_probability>
1

> <r_epik_Ionization_Penalty>
  0.0832

> <r_epik_Ionization_Penalty_Charging>
  0.0832

> <r_epik_Ionization_Penalty_Neutral>
  0.0000

> <r_epik_State_Penalty>
  0.1008

> <r_epik_Charging_Adjusted_Penalty>
0.183966558908917

> <i_epik_Tot_Q>
0

> <i_epik_Tot_abs_Q>
0

$$$$
