4txc_ligand
                    3D
 Schrodinger Suite 2020-3.
 60 63  0  0  1  0            999 V2000
   63.6860   90.3670   17.5660 C   0  0  0  0  0  0
   64.4030   91.3850   16.8660 O   0  0  0  0  0  0
   63.8890   91.6980   15.6350 C   0  0  0  0  0  0
   62.7580   91.0770   15.1100 C   0  0  0  0  0  0
   64.5630   92.6890   14.9100 C   0  0  0  0  0  0
   65.6640   93.2230   15.4930 O   0  0  0  0  0  0
   64.1490   93.0830   13.6400 C   0  0  0  0  0  0
   63.0190   92.4540   13.1280 C   0  0  0  0  0  0
   62.3180   91.4800   13.8540 C   0  0  0  0  0  0
   61.1700   90.9040   13.3100 C   0  0  0  0  0  0
   60.5330   91.5620   12.2580 C   0  0  0  0  0  0
   59.3330   91.0630   11.7550 C   0  0  0  0  0  0
   60.5280   89.8910   13.8980 N   0  0  0  0  0  0
   59.4300   89.4510   13.3980 N   0  0  0  0  0  0
   58.7960   90.0020   12.3440 C   0  0  0  0  0  0
   57.6700   89.3240   12.0980 N   0  0  0  0  0  0
   57.6100   88.3260   13.0000 C   0  0  0  0  0  0
   58.6930   88.4060   13.7920 C   0  0  0  0  0  0
   58.9480   87.5650   14.8230 C   0  0  0  0  0  0
   60.0490   87.7280   15.6770 C   0  0  0  0  0  0
   58.0880   86.4970   15.0760 C   0  0  0  0  0  0
   58.3370   85.6170   16.1380 C   0  0  0  0  0  0
   59.4450   85.7910   16.9660 C   0  0  0  0  0  0
   60.2980   86.8670   16.7420 C   0  0  0  0  0  0
   61.4480   87.0470   17.5270 C   0  0  1  0  0  0
   61.3970   88.2780   18.2610 O   0  0  0  0  0  0
   61.6310   85.9120   18.4470 N   0  0  1  0  0  0
   62.9380   85.9590   19.1210 C   0  0  0  0  0  0
   64.0570   85.8860   18.0630 C   0  0  0  0  0  0
   65.3880   85.8820   18.6920 N   0  3  0  0  0  0
   65.5040   84.7000   19.5630 C   0  0  0  0  0  0
   65.5340   87.0900   19.5190 C   0  0  0  0  0  0
   64.1668   90.1822   18.5380 H   0  0  0  0  0  0
   63.6910   89.4409   16.9725 H   0  0  0  0  0  0
   62.6481   90.6940   17.7266 H   0  0  0  0  0  0
   62.2343   90.2996   15.6663 H   0  0  0  0  0  0
   65.9690   92.8938   16.4973 H   0  0  0  0  0  0
   64.6840   93.8465   13.0752 H   0  0  0  0  0  0
   62.6677   92.7262   12.1327 H   0  0  0  0  0  0
   60.9723   92.4634   11.8308 H   0  0  0  0  0  0
   58.8477   91.5324   10.8993 H   0  0  0  0  0  0
   56.8183   87.5805   13.0750 H   0  0  0  0  0  0
   60.7333   88.5578   15.5004 H   0  0  0  0  0  0
   57.2143   86.3452   14.4422 H   0  0  0  0  0  0
   57.6555   84.7858   16.3189 H   0  0  0  0  0  0
   59.6407   85.0922   17.7793 H   0  0  0  0  0  0
   62.2830   87.1159   16.8142 H   0  0  0  0  0  0
   61.2637   89.2310   17.7281 H   0  0  0  0  0  0
   60.8452   85.9333   19.2164 H   0  0  0  0  0  0
   63.0254   86.8985   19.6864 H   0  0  0  0  0  0
   63.0258   85.1065   19.8106 H   0  0  0  0  0  0
   63.9453   84.9635   17.4743 H   0  0  0  0  0  0
   63.9879   86.7576   17.3955 H   0  0  0  0  0  0
   66.1657   85.8602   17.9143 H   0  0  0  0  0  0
   65.3968   83.7872   18.9586 H   0  0  0  0  0  0
   64.7133   84.7287   20.3272 H   0  0  0  0  0  0
   66.4885   84.7014   20.0537 H   0  0  0  0  0  0
   65.4496   87.9828   18.8820 H   0  0  0  0  0  0
   66.5184   87.0815   20.0099 H   0  0  0  0  0  0
   64.7432   87.1088   20.2834 H   0  0  0  0  0  0
  1  2  1  0  0  0
  1 33  1  0  0  0
  1 34  1  0  0  0
  1 35  1  0  0  0
  2  3  1  0  0  0
  3  4  2  0  0  0
  3  5  1  0  0  0
  4  9  1  0  0  0
  4 36  1  0  0  0
  5  6  1  0  0  0
  5  7  2  0  0  0
  6 37  1  0  0  0
  7  8  1  0  0  0
  7 38  1  0  0  0
  8  9  2  0  0  0
  8 39  1  0  0  0
  9 10  1  0  0  0
 10 11  1  0  0  0
 10 13  2  0  0  0
 11 12  2  0  0  0
 11 40  1  0  0  0
 12 15  1  0  0  0
 12 41  1  0  0  0
 13 14  1  0  0  0
 14 15  1  0  0  0
 14 18  1  0  0  0
 15 16  2  0  0  0
 16 17  1  0  0  0
 17 18  2  0  0  0
 17 42  1  0  0  0
 18 19  1  0  0  0
 19 20  2  0  0  0
 19 21  1  0  0  0
 20 24  1  0  0  0
 20 43  1  0  0  0
 21 22  2  0  0  0
 21 44  1  0  0  0
 22 23  1  0  0  0
 22 45  1  0  0  0
 23 24  2  0  0  0
 23 46  1  0  0  0
 24 25  1  0  0  0
 25 26  1  0  0  0
 25 27  1  0  0  0
 25 47  1  0  0  0
 26 48  1  0  0  0
 27 28  1  0  0  0
 27 49  1  0  0  0
 28 29  1  0  0  0
 28 50  1  0  0  0
 28 51  1  0  0  0
 29 30  1  0  0  0
 29 52  1  0  0  0
 29 53  1  0  0  0
 30 31  1  0  0  0
 30 32  1  0  0  0
 30 54  1  0  0  0
 31 55  1  0  0  0
 31 56  1  0  0  0
 31 57  1  0  0  0
 32 58  1  0  0  0
 32 59  1  0  0  0
 32 60  1  0  0  0
M  CHG  1  30   1
M  END
> <s_m_source_file>
../4txc_ligand.sdf

> <i_m_source_file_index>
1

> <s_epik_input>
W0NIM11PYzFbY0hdYyhbY0hdW2NIXWMxW09IXSktYyhuMilbY0hdW2NIXWMobjIzKW5bY0hdYzMtYzRbY0hdYyhbY0hdW2NIXVtjSF00KVtDQEBIXShbT0hdKVtOSDIrXVtDSDJdW0NIMl1bTkgrXShbQ0gzXSlbQ0gzXQ==

> <s_epik_cmdline>
J2VwaWtfYXBwJywgJy1pbWFlJywgJ2xpZ2FuZF9wcm8ubWFlJywgJy1vbWFlJywgJ2xpZ2FuZF9wcmVwLm1hZScsICctbXMnLCAnMScsICctcGgnLCAnNycsICctcGh0JywgJzAuNScsICctbnQn

> <r_lp_tautomer_probability>
1

> <r_epik_Ionization_Penalty>
  0.0286

> <r_epik_Ionization_Penalty_Charging>
  0.0120

> <r_epik_Ionization_Penalty_Neutral>
  0.0167

> <r_epik_State_Penalty>
  0.3167

> <r_epik_Charging_Adjusted_Penalty>
0.328684568639305

> <i_epik_Tot_Q>
1

> <i_epik_Tot_abs_Q>
1

> <s_epik_Chemistry_Notes>
This compound contains an acetal/aminal-like group ( X-CH(R)-Y where X, Y are N, S, or O) that may be acid/base labile, releasing an aldehyde.

$$$$
