4txe_ligand
                    3D
 Schrodinger Suite 2020-3.
 49 51  0  0  1  0            999 V2000
   38.5880   23.4020   27.2770 C   0  0  0  0  0  0
   39.2930   24.7610   27.3810 C   0  0  0  0  0  0
   39.5460   25.5940   28.4600 C   0  0  0  0  0  0
   40.2300   26.8190   28.2800 C   0  0  0  0  0  0
   40.6910   27.1680   27.0340 C   0  0  0  0  0  0
   40.4000   26.3410   25.9560 C   0  0  0  0  0  0
   39.7020   25.1520   26.1190 C   0  0  0  0  0  0
   39.2680   24.0790   25.1220 C   0  0  0  0  0  0
   39.0410   22.8310   25.9380 C   0  0  0  0  0  0
   38.0370   21.8890   25.3810 N   0  3  0  0  0  0
   38.6470   21.4330   24.1050 C   0  0  0  0  0  0
   37.7240   20.6240   23.1880 C   0  0  2  0  0  0
   36.6130   20.0790   23.7480 O   0  0  0  0  0  0
   38.4770   19.5440   22.3670 C   0  0  0  0  0  0
   37.9670   18.1520   22.5060 O   0  0  0  0  0  0
   38.5090   17.3490   21.4630 C   0  0  0  0  0  0
   38.0920   16.0270   21.3130 C   0  0  0  0  0  0
   38.6170   15.2460   20.2540 C   0  0  0  0  0  0
   38.1310   13.7990   20.1340 C   0  0  0  0  0  0
   39.5940   15.7560   19.3590 C   0  0  0  0  0  0
   40.1950   14.9270   18.2110 C   0  0  0  0  0  0
   40.0140   17.0720   19.5050 C   0  0  0  0  0  0
   39.4650   17.8430   20.5310 C   0  0  0  0  0  0
   38.8963   22.7637   28.1181 H   0  0  0  0  0  0
   37.4986   23.5506   27.3097 H   0  0  0  0  0  0
   39.2147   25.3022   29.4566 H   0  0  0  0  0  0
   40.3909   27.4845   29.1281 H   0  0  0  0  0  0
   41.2748   28.0777   26.8934 H   0  0  0  0  0  0
   40.7277   26.6328   24.9582 H   0  0  0  0  0  0
   38.3451   24.3998   24.6168 H   0  0  0  0  0  0
   40.0618   23.9297   24.3753 H   0  0  0  0  0  0
   39.9364   22.1926   25.9628 H   0  0  0  0  0  0
   37.8809   21.0599   26.0869 H   0  0  0  0  0  0
   37.0862   22.4186   25.2214 H   0  0  0  0  0  0
   38.9761   22.3066   23.5232 H   0  0  0  0  0  0
   39.5125   20.7896   24.3217 H   0  0  0  0  0  0
   37.2016   21.3785   22.5815 H   0  0  0  0  0  0
   35.9501   20.6986   24.3699 H   0  0  0  0  0  0
   38.4155   19.7884   21.2963 H   0  0  0  0  0  0
   39.5321   19.5172   22.6770 H   0  0  0  0  0  0
   37.3677   15.5977   22.0052 H   0  0  0  0  0  0
   37.3802   13.5986   20.9125 H   0  0  0  0  0  0
   38.9826   13.1145   20.2610 H   0  0  0  0  0  0
   37.6811   13.6444   19.1422 H   0  0  0  0  0  0
   39.7665   13.9140   18.2269 H   0  0  0  0  0  0
   41.2862   14.8656   18.3353 H   0  0  0  0  0  0
   39.9620   15.4086   17.2499 H   0  0  0  0  0  0
   40.7587   17.4949   18.8307 H   0  0  0  0  0  0
   39.7860   18.8805   20.6237 H   0  0  0  0  0  0
  1  2  1  0  0  0
  1  9  1  0  0  0
  1 24  1  0  0  0
  1 25  1  0  0  0
  2  3  2  0  0  0
  2  7  1  0  0  0
  3  4  1  0  0  0
  3 26  1  0  0  0
  4  5  2  0  0  0
  4 27  1  0  0  0
  5  6  1  0  0  0
  5 28  1  0  0  0
  6  7  2  0  0  0
  6 29  1  0  0  0
  7  8  1  0  0  0
  8  9  1  0  0  0
  8 30  1  0  0  0
  8 31  1  0  0  0
  9 10  1  0  0  0
  9 32  1  0  0  0
 10 11  1  0  0  0
 10 33  1  0  0  0
 10 34  1  0  0  0
 11 12  1  0  0  0
 11 35  1  0  0  0
 11 36  1  0  0  0
 12 13  1  0  0  0
 12 14  1  0  0  0
 12 37  1  0  0  0
 13 38  1  0  0  0
 14 15  1  0  0  0
 14 39  1  0  0  0
 14 40  1  0  0  0
 15 16  1  0  0  0
 16 17  2  0  0  0
 16 23  1  0  0  0
 17 18  1  0  0  0
 17 41  1  0  0  0
 18 19  1  0  0  0
 18 20  2  0  0  0
 19 42  1  0  0  0
 19 43  1  0  0  0
 19 44  1  0  0  0
 20 21  1  0  0  0
 20 22  1  0  0  0
 21 45  1  0  0  0
 21 46  1  0  0  0
 21 47  1  0  0  0
 22 23  2  0  0  0
 22 48  1  0  0  0
 23 49  1  0  0  0
M  CHG  1  10   1
M  END
> <s_m_source_file>
../4txe_ligand.sdf

> <i_m_source_file_index>
1

> <s_epik_input>
W2NIXTFbY0hdW2NIXVtjSF1jKGMxMilbQ0gyXVtDSF0oW0NIMl0yKVtOSDIrXVtDSDJdW0NASF0oW09IXSlbQ0gyXU9jM1tjSF1jKFtDSDNdKWMoW0NIM10pW2NIXVtjSF0z

> <s_epik_cmdline>
J2VwaWtfYXBwJywgJy1pbWFlJywgJ2xpZ2FuZF9wcm8ubWFlJywgJy1vbWFlJywgJ2xpZ2FuZF9wcmVwLm1hZScsICctbXMnLCAnMScsICctcGgnLCAnNycsICctcGh0JywgJzAuNScsICctbnQn

> <r_lp_tautomer_probability>
1

> <r_epik_Ionization_Penalty>
  0.0101

> <r_epik_Ionization_Penalty_Charging>
  0.0101

> <r_epik_Ionization_Penalty_Neutral>
  0.0000

> <r_epik_State_Penalty>
  0.0077

> <r_epik_Charging_Adjusted_Penalty>
0.0177174153253884

> <i_epik_Tot_Q>
1

> <i_epik_Tot_abs_Q>
1

$$$$
