4ty1_ligand
                    3D
 Schrodinger Suite 2020-3.
 49 53  0  0  1  0            999 V2000
  -19.4360   29.0350    3.6560 C   0  0  0  0  0  0
  -19.9690   30.2770    2.8890 C   0  0  0  0  0  0
  -21.4510   30.5390    3.2100 C   0  0  0  0  0  0
  -19.1400   31.5100    3.2840 C   0  0  0  0  0  0
  -19.8540   30.0000    1.4780 N   0  0  0  0  0  0
  -20.1830   30.9760    0.5000 C   0  0  0  0  0  0
  -20.0560   30.7910   -0.8210 N   0  0  0  0  0  0
  -20.4530   31.9170   -1.4510 N   0  0  0  0  0  0
  -20.8450   32.7980   -0.5080 C   0  0  0  0  0  0
  -20.6660   32.2240    0.7220 O   0  0  0  0  0  0
  -21.2910   34.0960   -0.7700 C   0  0  0  0  0  0
  -21.4080   34.5210   -2.1090 C   0  0  0  0  0  0
  -21.8300   35.8110   -2.3990 C   0  0  0  0  0  0
  -22.1280   36.7060   -1.3310 C   0  0  0  0  0  0
  -22.5580   38.0180   -1.3690 N   0  0  0  0  0  0
  -22.7270   38.4600   -0.0910 C   0  0  0  0  0  0
  -22.3760   37.4440    0.8100 C   0  0  3  0  0  0
  -22.4890   37.5240    2.2050 C   0  0  0  0  0  0
  -22.9880   38.6450    2.8170 N   0  0  0  0  0  0
  -23.1560   38.7010    4.1770 C   0  0  0  0  0  0
  -22.8620   37.5720    4.9520 C   0  0  0  0  0  0
  -22.3870   36.4250    4.2930 C   0  0  0  0  0  0
  -22.2260   36.4290    2.9470 N   0  0  0  0  0  0
  -21.9910   35.1510    5.0140 C   0  0  0  0  0  0
  -22.4150   33.6930    4.9620 C   0  0  0  0  0  0
  -21.1130   34.1220    4.3230 C   0  0  0  0  0  0
  -22.0110   36.3120   -0.0060 C   0  0  0  0  0  0
  -21.5700   34.9800    0.2820 C   0  0  0  0  0  0
  -19.5096   29.2134    4.7389 H   0  0  0  0  0  0
  -18.3847   28.8594    3.3840 H   0  0  0  0  0  0
  -20.0364   28.1531    3.3880 H   0  0  0  0  0  0
  -21.5614   30.7528    4.2833 H   0  0  0  0  0  0
  -22.0451   29.6504    2.9501 H   0  0  0  0  0  0
  -21.8058   31.4010    2.6260 H   0  0  0  0  0  0
  -19.2484   31.6944    4.3630 H   0  0  0  0  0  0
  -19.4977   32.3869    2.7244 H   0  0  0  0  0  0
  -18.0808   31.3309    3.0472 H   0  0  0  0  0  0
  -19.5046   29.0140    1.1378 H   0  0  0  0  0  0
  -21.1661   33.8338   -2.9198 H   0  0  0  0  0  0
  -21.9325   36.1365   -3.4342 H   0  0  0  0  0  0
  -23.0906   39.4815    0.0941 H   0  0  0  0  0  0
  -23.5148   39.6151    4.6501 H   0  0  0  0  0  0
  -22.9975   37.5826    6.0335 H   0  0  0  0  0  0
  -22.0245   35.8525    5.8606 H   0  0  0  0  0  0
  -22.5190   33.3047    5.9859 H   0  0  0  0  0  0
  -23.3790   33.6099    4.4387 H   0  0  0  0  0  0
  -20.9884   34.3974    3.2653 H   0  0  0  0  0  0
  -20.1284   34.0921    4.8126 H   0  0  0  0  0  0
  -21.4517   34.6546    1.3156 H   0  0  0  0  0  0
  1  2  1  0  0  0
  1 29  1  0  0  0
  1 30  1  0  0  0
  1 31  1  0  0  0
  2  3  1  0  0  0
  2  4  1  0  0  0
  2  5  1  0  0  0
  3 32  1  0  0  0
  3 33  1  0  0  0
  3 34  1  0  0  0
  4 35  1  0  0  0
  4 36  1  0  0  0
  4 37  1  0  0  0
  5  6  1  0  0  0
  5 38  1  0  0  0
  6  7  2  0  0  0
  6 10  1  0  0  0
  7  8  1  0  0  0
  8  9  2  0  0  0
  9 10  1  0  0  0
  9 11  1  0  0  0
 11 12  2  0  0  0
 11 28  1  0  0  0
 12 13  1  0  0  0
 12 39  1  0  0  0
 13 14  2  0  0  0
 13 40  1  0  0  0
 14 15  1  0  0  0
 14 27  1  0  0  0
 15 16  2  0  0  0
 16 17  1  0  0  0
 16 41  1  0  0  0
 17 18  1  0  0  0
 17 27  1  0  0  0
 18 19  2  0  0  0
 18 23  1  0  0  0
 19 20  1  0  0  0
 20 21  2  0  0  0
 20 42  1  0  0  0
 21 22  1  0  0  0
 21 43  1  0  0  0
 22 23  2  0  0  0
 22 24  1  0  0  0
 24 25  1  0  0  0
 24 26  1  0  0  0
 24 44  1  0  0  0
 25 26  1  0  0  0
 25 45  1  0  0  0
 25 46  1  0  0  0
 26 47  1  0  0  0
 26 48  1  0  0  0
 27 28  2  0  0  0
 28 49  1  0  0  0
M  END
> <s_m_source_file>
../4ty1_ligand.sdf

> <i_m_source_file_index>
1

> <s_epik_input>
W0NIM11DKFtDSDNdKShbQ0gzXSlbTkhdYzFubmMobzEpLWMoW2NIXVtjSF0yKVtjSF1jKGMyMylbQ0hdKFtDSF09TjMpYzRuW2NIXVtjSF1jKG40KVtDSF01W0NIMl1bQ0gyXTU=

> <s_epik_cmdline>
J2VwaWtfYXBwJywgJy1pbWFlJywgJ2xpZ2FuZF9wcm8ubWFlJywgJy1vbWFlJywgJ2xpZ2FuZF9wcmVwLm1hZScsICctbXMnLCAnMScsICctcGgnLCAnNycsICctcGh0JywgJzAuNScsICctbnQn

> <r_lp_tautomer_probability>
1

> <r_epik_Ionization_Penalty>
  0.0014

> <r_epik_Ionization_Penalty_Charging>
  0.0000

> <r_epik_Ionization_Penalty_Neutral>
  0.0014

> <r_epik_State_Penalty>
 -0.0000

> <r_epik_Charging_Adjusted_Penalty>
0

> <i_epik_Tot_Q>
0

> <i_epik_Tot_abs_Q>
0

> <s_epik_Chemistry_Notes>
This compound contains an electron-poor aromatic ring that is susceptible to covalent hydrolysis at low pH, typically resulting in measured values for nitrogen ring protonation that are around two units higher than predicted values. This compound has an imine and may undergo hydrolysis.

$$$$
