4ty6_ligand
                    3D
 Schrodinger Suite 2020-3.
 64 67  0  0  1  0            999 V2000
   39.0220  -16.4390   27.8590 C   0  0  0  0  0  0
   38.2340  -17.5600   28.5660 C   0  0  1  0  0  0
   39.1690  -18.6170   29.1360 C   0  0  0  0  0  0
   38.0840  -15.3340   27.3360 C   0  0  0  0  0  0
   37.2080  -14.7530   28.4410 C   0  0  2  0  0  0
   36.4210  -15.8830   29.0870 C   0  0  0  0  0  0
   37.3430  -16.9660   29.6630 C   0  0  0  0  0  0
   36.2910  -13.6380   27.9290 C   0  0  0  0  0  0
   41.4320  -20.7600   28.9200 C   0  0  0  0  0  0
   39.9430  -20.9140   28.9150 C   0  0  1  0  0  0
   47.0600  -20.8330   30.6920 C   0  0  0  0  0  0
   40.2460  -23.4010   28.5920 C   0  0  0  0  0  0
   40.0220  -23.9040   29.8670 C   0  0  0  0  0  0
   40.7590  -24.9770   30.3470 C   0  0  0  0  0  0
   41.7310  -25.5590   29.5590 C   0  0  0  0  0  0
   41.9760  -25.0590   28.2940 C   0  0  0  0  0  0
   41.2350  -23.9870   27.8140 C   0  0  0  0  0  0
   42.2290  -21.0200   29.9430 N   0  0  0  0  0  0
   43.5090  -20.8470   29.4510 C   0  0  3  0  0  0
   43.4500  -20.4850   28.1350 C   0  0  0  0  0  0
   42.1290  -20.4180   27.8140 N   0  0  0  0  0  0
   39.2590  -19.7350   28.4120 N   0  0  0  0  0  0
   39.5270  -22.1610   28.1150 C   0  0  0  0  0  0
   39.7520  -18.4660   30.2140 O   0  0  0  0  0  0
   37.0100  -12.4680   27.4140 N   0  3  0  0  0  0
   44.6840  -21.0560   30.3130 C   0  0  0  0  0  0
   45.9240  -20.5300   29.9580 C   0  0  0  0  0  0
   46.9840  -21.6320   31.8310 C   0  0  0  0  0  0
   45.7340  -22.1270   32.2070 C   0  0  0  0  0  0
   44.6050  -21.8520   31.4530 C   0  0  0  0  0  0
   48.2820  -21.9580   32.5610 C   0  0  0  0  0  0
   49.3750  -21.5590   32.0880 O   0  0  0  0  0  0
   48.2210  -22.6690   33.6790 N   0  0  0  0  0  0
   39.7319  -15.9870   28.5673 H   0  0  0  0  0  0
   39.5736  -16.8605   27.0057 H   0  0  0  0  0  0
   37.5943  -18.0659   27.8279 H   0  0  0  0  0  0
   38.6831  -14.5163   26.9089 H   0  0  0  0  0  0
   37.4247  -15.7497   26.5598 H   0  0  0  0  0  0
   37.8547  -14.2875   29.1994 H   0  0  0  0  0  0
   35.8079  -15.4808   29.9070 H   0  0  0  0  0  0
   35.7675  -16.3508   28.3360 H   0  0  0  0  0  0
   36.7243  -17.7616   30.1036 H   0  0  0  0  0  0
   37.9736  -16.5168   30.4444 H   0  0  0  0  0  0
   35.6670  -14.0238   27.1094 H   0  0  0  0  0  0
   35.6453  -13.2891   28.7483 H   0  0  0  0  0  0
   48.0260  -20.4409   30.3739 H   0  0  0  0  0  0
   39.2579  -23.4503   30.4982 H   0  0  0  0  0  0
   40.5698  -25.3614   31.3493 H   0  0  0  0  0  0
   42.3026  -26.4087   29.9323 H   0  0  0  0  0  0
   42.7516  -25.5065   27.6725 H   0  0  0  0  0  0
   41.4325  -23.6010   26.8139 H   0  0  0  0  0  0
   44.2128  -20.2628   27.3743 H   0  0  0  0  0  0
   38.8091  -19.7785   27.4091 H   0  0  0  0  0  0
   38.4451  -22.3249   28.2278 H   0  0  0  0  0  0
   39.7663  -22.0113   27.0518 H   0  0  0  0  0  0
   36.2859  -11.7160   27.0673 H   0  0  0  0  0  0
   37.6525  -12.7727   26.5747 H   0  0  0  0  0  0
   37.6308  -12.0379   28.2137 H   0  0  0  0  0  0
   46.0019  -19.8721   29.0924 H   0  0  0  0  0  0
   45.6453  -22.7377   33.1055 H   0  0  0  0  0  0
   43.6424  -22.2639   31.7559 H   0  0  0  0  0  0
   47.2470  -23.0028   34.0660 H   0  0  0  0  0  0
   49.1444  -22.9248   34.2192 H   0  0  0  0  0  0
   41.8006  -21.3016   30.9163 H   0  0  0  0  0  0
  1  2  1  0  0  0
  1  4  1  0  0  0
  1 34  1  0  0  0
  1 35  1  0  0  0
  2  3  1  0  0  0
  2  7  1  0  0  0
  2 36  1  0  0  0
  3 22  1  0  0  0
  3 24  2  0  0  0
  4  5  1  0  0  0
  4 37  1  0  0  0
  4 38  1  0  0  0
  5  6  1  0  0  0
  5  8  1  0  0  0
  5 39  1  0  0  0
  6  7  1  0  0  0
  6 40  1  0  0  0
  6 41  1  0  0  0
  7 42  1  0  0  0
  7 43  1  0  0  0
  8 25  1  0  0  0
  8 44  1  0  0  0
  8 45  1  0  0  0
  9 10  2  0  0  0
  9 18  1  0  0  0
  9 21  1  0  0  0
 10 22  1  0  0  0
 10 23  1  0  0  0
 11 27  2  0  0  0
 11 28  1  0  0  0
 11 46  1  0  0  0
 12 13  2  0  0  0
 12 17  1  0  0  0
 12 23  1  0  0  0
 13 14  1  0  0  0
 13 47  1  0  0  0
 14 15  2  0  0  0
 14 48  1  0  0  0
 15 16  1  0  0  0
 15 49  1  0  0  0
 16 17  2  0  0  0
 16 50  1  0  0  0
 17 51  1  0  0  0
 18 19  1  0  0  0
 18 64  1  0  0  0
 19 20  1  0  0  0
 19 26  1  0  0  0
 20 21  2  0  0  0
 20 52  1  0  0  0
 22 53  1  0  0  0
 23 54  1  0  0  0
 23 55  1  0  0  0
 25 56  1  0  0  0
 25 57  1  0  0  0
 25 58  1  0  0  0
 26 27  1  0  0  0
 26 30  2  0  0  0
 27 59  1  0  0  0
 28 29  2  0  0  0
 28 31  1  0  0  0
 29 30  1  0  0  0
 29 60  1  0  0  0
 30 61  1  0  0  0
 31 32  2  0  0  0
 31 33  1  0  0  0
 33 62  1  0  0  0
 33 63  1  0  0  0
M  CHG  1  25   1
M  END
> <s_m_source_file>
../4ty6_ligand.sdf

> <i_m_source_file_index>
1

> <s_epik_input>
W0NIMl0xW0NIMl1bQ0BIXShbQ0gyXVtOSDMrXSlbQ0gyXVtDSDJdW0NASF0xQyg9TylbTkhdW0NAQEhdKFtDSDJdYzJbY0hdW2NIXVtjSF1bY0hdW2NIXTIpQzM9TltDSF0oW0NIXT1OMyljNFtjSF1bY0hdYyhbY0hdW2NIXTQpQyg9TylbTkgyXQ==

> <s_epik_cmdline>
J2VwaWtfYXBwJywgJy1pbWFlJywgJ2xpZ2FuZF9wcm8ubWFlJywgJy1vbWFlJywgJ2xpZ2FuZF9wcmVwLm1hZScsICctbXMnLCAnMScsICctcGgnLCAnNycsICctcGh0JywgJzAuNScsICctbnQn

> <r_lp_tautomer_probability>
1

> <r_epik_Ionization_Penalty>
  0.0004

> <r_epik_Ionization_Penalty_Charging>
  0.0004

> <r_epik_Ionization_Penalty_Neutral>
  0.0000

> <r_epik_State_Penalty>
 -0.0000

> <r_epik_Charging_Adjusted_Penalty>
0.000350807354231389

> <i_epik_Tot_Q>
1

> <i_epik_Tot_abs_Q>
1

> <s_epik_Chemistry_Notes>
This compound has an imine and may undergo hydrolysis.

$$$$
