4ty8_ligand
                    3D
 Schrodinger Suite 2020-3.
 20 21  0  0  1  0            999 V2000
    7.0680  -23.9150  -22.9150 C   0  0  0  0  0  0
    3.2420  -24.6810  -21.1460 C   0  0  0  0  0  0
    3.5160  -24.9830  -22.4750 C   0  0  0  0  0  0
    1.6480  -24.6870  -19.3990 C   0  0  0  0  0  0
    3.9420  -23.7880  -19.0200 C   0  0  0  0  0  0
    5.4760  -23.8540  -20.9440 C   0  0  0  0  0  0
    2.6850  -24.0710  -18.5410 C   0  0  0  0  0  0
    1.9670  -24.9800  -20.6890 O   0  0  0  0  0  0
    5.7430  -24.1710  -22.2790 C   0  0  0  0  0  0
    4.2290  -24.1010  -20.3550 C   0  0  0  0  0  0
    4.7520  -24.7390  -23.0480 C   0  0  0  0  0  0
    0.3930  -24.9690  -18.9630 O   0  0  0  0  0  0
    7.7472  -23.4621  -22.1777 H   0  0  0  0  0  0
    6.9401  -23.2292  -23.7655 H   0  0  0  0  0  0
    7.4936  -24.8649  -23.2707 H   0  0  0  0  0  0
    2.7307  -25.4271  -23.0866 H   0  0  0  0  0  0
    4.6956  -23.3320  -18.3780 H   0  0  0  0  0  0
    6.2632  -23.4001  -20.3420 H   0  0  0  0  0  0
    2.4460  -23.8360  -17.5038 H   0  0  0  0  0  0
    4.9380  -24.9925  -24.0917 H   0  0  0  0  0  0
  1  9  1  0  0  0
  1 13  1  0  0  0
  1 14  1  0  0  0
  1 15  1  0  0  0
  2  3  2  0  0  0
  2  8  1  0  0  0
  2 10  1  0  0  0
  3 11  1  0  0  0
  3 16  1  0  0  0
  4  7  1  0  0  0
  4  8  1  0  0  0
  4 12  2  0  0  0
  5  7  2  0  0  0
  5 10  1  0  0  0
  5 17  1  0  0  0
  6  9  1  0  0  0
  6 10  2  0  0  0
  6 18  1  0  0  0
  7 19  1  0  0  0
  9 11  2  0  0  0
 11 20  1  0  0  0
M  END
> <s_m_source_file>
../4ty8_ligand.sdf

> <i_m_source_file_index>
1

> <s_epik_input>
W2NIXTFbY0hdYyhbQ0gzXSlbY0hdYyhjMTIpW2NIXVtjSF1jKG8yKT1P

> <s_epik_cmdline>
J2VwaWtfYXBwJywgJy1pbWFlJywgJ2xpZ2FuZF9wcm8ubWFlJywgJy1vbWFlJywgJ2xpZ2FuZF9wcmVwLm1hZScsICctbXMnLCAnMScsICctcGgnLCAnNycsICctcGh0JywgJzAuNScsICctbnQn

> <r_lp_tautomer_probability>
1

> <r_epik_Ionization_Penalty>
  0.0000

> <r_epik_Ionization_Penalty_Charging>
  0.0000

> <r_epik_Ionization_Penalty_Neutral>
  0.0000

> <r_epik_State_Penalty>
 -0.0000

> <r_epik_Charging_Adjusted_Penalty>
0

> <i_epik_Tot_Q>
0

> <i_epik_Tot_abs_Q>
0

$$$$
