4ty9_ligand
                    3D
 Schrodinger Suite 2020-3.
 16 16  0  0  1  0            999 V2000
   -3.9800  -20.2860  -36.9490 C   0  0  0  0  0  0
   -0.9990  -18.0820  -35.0210 F   0  0  0  0  0  0
    0.4620  -18.8580  -36.5080 F   0  0  0  0  0  0
   -1.6960  -19.6390  -36.6030 C   0  0  0  0  0  0
   -2.9840  -19.8140  -36.1000 C   0  0  0  0  0  0
   -0.5980  -19.1350  -35.7240 C   0  0  0  0  0  0
   -0.3440  -20.0550  -34.8070 F   0  0  0  0  0  0
   -1.4400  -19.9540  -37.9380 C   0  0  0  0  0  0
   -2.3860  -20.4130  -38.7790 N   0  0  0  0  0  0
   -3.6240  -20.5640  -38.2670 C   0  0  0  0  0  0
   -4.6360  -21.0480  -39.1490 N   0  0  0  0  0  0
   -5.0008  -20.4328  -36.5962 H   0  0  0  0  0  0
   -3.2074  -19.5847  -35.0581 H   0  0  0  0  0  0
   -0.4268  -19.8223  -38.3178 H   0  0  0  0  0  0
   -5.6634  -21.1895  -38.7824 H   0  0  0  0  0  0
   -4.3887  -21.2796  -40.1955 H   0  0  0  0  0  0
  1  5  2  0  0  0
  1 10  1  0  0  0
  1 12  1  0  0  0
  2  6  1  0  0  0
  3  6  1  0  0  0
  4  5  1  0  0  0
  4  6  1  0  0  0
  4  8  2  0  0  0
  5 13  1  0  0  0
  6  7  1  0  0  0
  8  9  1  0  0  0
  8 14  1  0  0  0
  9 10  2  0  0  0
 10 11  1  0  0  0
 11 15  1  0  0  0
 11 16  1  0  0  0
M  END
> <s_m_source_file>
../4ty9_ligand.sdf

> <i_m_source_file_index>
1

> <s_epik_input>
W2NIXTFuYyhbTkgyXSlbY0hdW2NIXWMxQyhGKShGKUY=

> <s_epik_cmdline>
J2VwaWtfYXBwJywgJy1pbWFlJywgJ2xpZ2FuZF9wcm8ubWFlJywgJy1vbWFlJywgJ2xpZ2FuZF9wcmVwLm1hZScsICctbXMnLCAnMScsICctcGgnLCAnNycsICctcGh0JywgJzAuNScsICctbnQn

> <r_lp_tautomer_probability>
1

> <r_epik_Ionization_Penalty>
  0.0003

> <r_epik_Ionization_Penalty_Charging>
  0.0000

> <r_epik_Ionization_Penalty_Neutral>
  0.0003

> <r_epik_State_Penalty>
 -0.0000

> <r_epik_Charging_Adjusted_Penalty>
0

> <i_epik_Tot_Q>
0

> <i_epik_Tot_abs_Q>
0

$$$$
