4tya_ligand
                    3D
 Schrodinger Suite 2020-3.
 17 17  0  0  1  0            999 V2000
   -0.2300   21.5770   45.6060 O   0  5  0  0  0  0
    0.4370   21.0140   42.8820 C   0  0  0  0  0  0
    1.3770   21.4600   43.8100 C   0  0  0  0  0  0
    2.8380   20.9420   39.1130 F   0  0  0  0  0  0
    3.5240   19.0860   39.9450 F   0  0  0  0  0  0
    1.5270   22.8040   45.7750 O   0  0  0  0  0  0
    0.8680   21.9640   45.1300 C   0  0  0  0  0  0
    3.0990   20.9190   42.2220 C   0  0  0  0  0  0
    2.1530   20.4690   41.2920 C   0  0  0  0  0  0
    2.7310   21.4150   43.4810 C   0  0  0  0  0  0
    1.4880   19.3120   39.3700 F   0  0  0  0  0  0
    2.5140   19.9440   39.9240 C   0  0  0  0  0  0
    0.8190   20.5210   41.6440 C   0  0  0  0  0  0
   -0.6223   21.0539   43.1357 H   0  0  0  0  0  0
    4.1560   20.8824   41.9584 H   0  0  0  0  0  0
    3.4872   21.7579   44.1871 H   0  0  0  0  0  0
    0.0606   20.1718   40.9433 H   0  0  0  0  0  0
  1  7  1  0  0  0
  2  3  2  0  0  0
  2 13  1  0  0  0
  2 14  1  0  0  0
  3  7  1  0  0  0
  3 10  1  0  0  0
  4 12  1  0  0  0
  5 12  1  0  0  0
  6  7  2  0  0  0
  8  9  1  0  0  0
  8 10  2  0  0  0
  8 15  1  0  0  0
  9 12  1  0  0  0
  9 13  2  0  0  0
 10 16  1  0  0  0
 11 12  1  0  0  0
 13 17  1  0  0  0
M  CHG  1   1  -1
M  END
> <s_m_source_file>
../4tya_ligand.sdf

> <i_m_source_file_index>
1

> <s_epik_input>
W09IXUMoPU8pYzFbY0hdW2NIXWMoQyhGKShGKUYpW2NIXVtjSF0x

> <s_epik_cmdline>
J2VwaWtfYXBwJywgJy1pbWFlJywgJ2xpZ2FuZF9wcm8ubWFlJywgJy1vbWFlJywgJ2xpZ2FuZF9wcmVwLm1hZScsICctbXMnLCAnMScsICctcGgnLCAnNycsICctcGh0JywgJzAuNScsICctbnQn

> <r_lp_tautomer_probability>
1

> <r_epik_Ionization_Penalty>
  0.0002

> <r_epik_Ionization_Penalty_Charging>
  0.0002

> <r_epik_Ionization_Penalty_Neutral>
  0.0000

> <r_epik_State_Penalty>
 -0.0000

> <r_epik_Charging_Adjusted_Penalty>
0.000246937709644987

> <i_epik_Tot_Q>
-1

> <i_epik_Tot_abs_Q>
1

$$$$
