4tyb_ligand
                    3D
 Schrodinger Suite 2020-3.
 29 30  0  0  1  0            999 V2000
   -3.9240  -25.4160   17.3890 C   0  0  0  0  0  0
   -4.3060  -24.7490   18.5450 C   0  0  0  0  0  0
   -3.5210  -20.2280   20.4200 N   0  0  0  0  0  0
   -3.4570  -24.6590   16.2950 C   0  0  0  0  0  0
   -6.6230  -23.5270   22.4140 C   0  0  0  0  0  0
   -4.2210  -23.3460   18.6570 C   0  0  0  0  0  0
   -5.3330  -22.7610   22.2520 C   0  0  0  0  0  0
   -4.4820  -23.2710   21.1910 N   0  0  0  0  0  0
   -3.3880  -23.2540   16.3850 C   0  0  0  0  0  0
   -5.6820  -25.3710   21.4450 C   0  0  0  0  0  0
   -3.9790  -21.3280   20.2030 C   0  0  0  0  0  0
   -4.6720  -22.5890   19.9170 C   0  0  1  0  0  0
   -6.4800  -24.8970   22.4810 O   0  0  0  0  0  0
   -3.7710  -22.5920   17.5480 C   0  0  0  0  0  0
   -4.3250  -24.6580   21.5070 C   0  0  0  0  0  0
   -3.9839  -26.5027   17.3283 H   0  0  0  0  0  0
   -4.6822  -25.3260   19.3898 H   0  0  0  0  0  0
   -3.1488  -25.1612   15.3780 H   0  0  0  0  0  0
   -7.1202  -23.2152   23.3444 H   0  0  0  0  0  0
   -7.2826  -23.3195   21.5585 H   0  0  0  0  0  0
   -5.5576  -21.7104   22.0159 H   0  0  0  0  0  0
   -4.7566  -22.8114   23.1876 H   0  0  0  0  0  0
   -3.0297  -22.6778   15.5319 H   0  0  0  0  0  0
   -5.5405  -26.4560   21.5581 H   0  0  0  0  0  0
   -6.1704  -25.1635   20.4815 H   0  0  0  0  0  0
   -5.7362  -22.4470   19.6777 H   0  0  0  0  0  0
   -3.7247  -21.5044   17.6036 H   0  0  0  0  0  0
   -3.6397  -25.1236   20.7834 H   0  0  0  0  0  0
   -3.9110  -24.7584   22.5211 H   0  0  0  0  0  0
  1  2  2  0  0  0
  1  4  1  0  0  0
  1 16  1  0  0  0
  2  6  1  0  0  0
  2 17  1  0  0  0
  3 11  3  0  0  0
  4  9  2  0  0  0
  4 18  1  0  0  0
  5  7  1  0  0  0
  5 13  1  0  0  0
  5 19  1  0  0  0
  5 20  1  0  0  0
  6 12  1  0  0  0
  6 14  2  0  0  0
  7  8  1  0  0  0
  7 21  1  0  0  0
  7 22  1  0  0  0
  8 12  1  0  0  0
  8 15  1  0  0  0
  9 14  1  0  0  0
  9 23  1  0  0  0
 10 13  1  0  0  0
 10 15  1  0  0  0
 10 24  1  0  0  0
 10 25  1  0  0  0
 11 12  1  0  0  0
 12 26  1  0  0  0
 14 27  1  0  0  0
 15 28  1  0  0  0
 15 29  1  0  0  0
M  END
> <s_m_source_file>
../4tyb_ligand.sdf

> <i_m_source_file_index>
1

> <s_epik_input>
W2NIXTFbY0hdW2NIXVtjSF1bY0hdYzFbQ0BIXShDI04pW05IK10yW0NIMl1bQ0gyXU9bQ0gyXVtDSDJdMg==

> <s_epik_cmdline>
J2VwaWtfYXBwJywgJy1pbWFlJywgJ2xpZ2FuZF9wcm8ubWFlJywgJy1vbWFlJywgJ2xpZ2FuZF9wcmVwLm1hZScsICctbXMnLCAnMScsICctcGgnLCAnNycsICctcGh0JywgJzAuNScsICctbnQn

> <r_lp_tautomer_probability>
1

> <r_epik_Ionization_Penalty>
  0.0000

> <r_epik_Ionization_Penalty_Charging>
  0.0000

> <r_epik_Ionization_Penalty_Neutral>
  0.0000

> <r_epik_State_Penalty>
 -0.0000

> <r_epik_Charging_Adjusted_Penalty>
0

> <i_epik_Tot_Q>
0

> <i_epik_Tot_abs_Q>
0

$$$$
