4tyo_ligand
                    3D
 Schrodinger Suite 2020-3.
 42 45  0  0  1  0            999 V2000
   16.1950   -0.4420    0.4930 O   0  0  0  0  0  0
   15.2710    0.2610    0.0190 C   0  0  0  0  0  0
   14.6490    0.0450   -1.0560 O   0  5  0  0  0  0
   14.8860    1.5200    0.8080 C   0  0  1  0  0  0
   15.9070    2.6120    0.4720 C   0  0  0  0  0  0
   15.5950    3.9630    1.0020 C   0  0  0  0  0  0
   14.7580    4.8180    0.4450 N   0  0  0  0  0  0
   14.7490    5.9250    1.2980 C   0  0  0  0  0  0
   14.0160    7.1120    1.2480 C   0  0  0  0  0  0
   14.1880    8.0630    2.2450 C   0  0  0  0  0  0
   15.0870    7.8030    3.2590 C   0  0  0  0  0  0
   15.2170    8.7150    4.2620 F   0  0  0  0  0  0
   15.8230    6.6390    3.3520 C   0  0  0  0  0  0
   15.6240    5.6950    2.3590 C   0  0  0  0  0  0
   16.1240    4.4250    2.1540 N   0  0  0  0  0  0
   13.5220    1.9390    0.5010 N   0  0  0  0  0  0
   12.7390    2.5010    1.4340 C   0  0  0  0  0  0
   13.1020    2.6040    2.6060 O   0  0  0  0  0  0
   11.4340    3.0850    0.9750 C   0  0  0  0  0  0
   10.8230    4.0300    1.8040 C   0  0  0  0  0  0
    9.6640    4.6460    1.4320 C   0  0  0  0  0  0
    9.0560    4.3670    0.1890 C   0  0  0  0  0  0
    7.8970    5.0440   -0.2660 C   0  0  0  0  0  0
    7.3690    4.7710   -1.4910 C   0  0  0  0  0  0
    7.9500    3.8220   -2.3150 C   0  0  0  0  0  0
    9.0670    3.1440   -1.9160 C   0  0  0  0  0  0
    9.6560    3.4020   -0.6560 C   0  0  0  0  0  0
   10.8460    2.7660   -0.2290 C   0  0  0  0  0  0
   14.8542    1.3294    1.8909 H   0  0  0  0  0  0
   16.8885    2.3358    0.8847 H   0  0  0  0  0  0
   15.9850    2.7175   -0.6201 H   0  0  0  0  0  0
   13.3093    7.2877    0.4235 H   0  0  0  0  0  0
   13.6252    9.0081    2.2379 H   0  0  0  0  0  0
   16.5266    6.4712    4.1674 H   0  0  0  0  0  0
   13.1175    1.7961   -0.5119 H   0  0  0  0  0  0
   11.2794    4.2785    2.7621 H   0  0  0  0  0  0
    9.1996    5.3658    2.1060 H   0  0  0  0  0  0
    7.4235    5.7909    0.3712 H   0  0  0  0  0  0
    6.4799    5.3050   -1.8264 H   0  0  0  0  0  0
    7.5121    3.6139   -3.2912 H   0  0  0  0  0  0
    9.5088    2.3967   -2.5752 H   0  0  0  0  0  0
   11.3058    2.0095   -0.8649 H   0  0  0  0  0  0
  1  2  2  0  0  0
  2  3  1  0  0  0
  2  4  1  0  0  0
  4  5  1  0  0  0
  4 16  1  0  0  0
  4 29  1  0  0  0
  5  6  1  0  0  0
  5 30  1  0  0  0
  5 31  1  0  0  0
  6  7  2  0  0  0
  6 15  1  0  0  0
  7  8  1  0  0  0
  8  9  2  0  0  0
  8 14  1  0  0  0
  9 10  1  0  0  0
  9 32  1  0  0  0
 10 11  2  0  0  0
 10 33  1  0  0  0
 11 12  1  0  0  0
 11 13  1  0  0  0
 13 14  1  0  0  0
 13 34  1  0  0  0
 14 15  2  0  0  0
 16 17  1  0  0  0
 16 35  1  0  0  0
 17 18  2  0  0  0
 17 19  1  0  0  0
 19 20  2  0  0  0
 19 28  1  0  0  0
 20 21  1  0  0  0
 20 36  1  0  0  0
 21 22  2  0  0  0
 21 37  1  0  0  0
 22 23  1  0  0  0
 22 27  1  0  0  0
 23 24  2  0  0  0
 23 38  1  0  0  0
 24 25  1  0  0  0
 24 39  1  0  0  0
 25 26  2  0  0  0
 25 40  1  0  0  0
 26 27  1  0  0  0
 26 41  1  0  0  0
 27 28  2  0  0  0
 28 42  1  0  0  0
M  CHG  1   3  -1
M  END
> <s_m_source_file>
../4tyo_ligand.sdf

> <i_m_source_file_index>
1

> <s_epik_input>
W0NIXTFbQ0hdPUMoRilbQ0gyXUMoQz0xMik9TkMoPU4yKVtDSDJdW0NASF0oQyg9TylbT0hdKVtOSF1DKD1PKWMoW2NIXVtjSF0zKVtjSF1jKGMzNClbY0hdW2NIXVtjSF1bY0hdNA==

> <s_epik_cmdline>
J2VwaWtfYXBwJywgJy1pbWFlJywgJ2xpZ2FuZF9wcm8ubWFlJywgJy1vbWFlJywgJ2xpZ2FuZF9wcmVwLm1hZScsICctbXMnLCAnMScsICctcGgnLCAnNycsICctcGh0JywgJzAuNScsICctbnQn

> <r_lp_tautomer_probability>
1

> <r_epik_Ionization_Penalty>
  0.0057

> <r_epik_Ionization_Penalty_Charging>
  0.0000

> <r_epik_Ionization_Penalty_Neutral>
  0.0057

> <r_epik_State_Penalty>
 -0.0000

> <r_epik_Charging_Adjusted_Penalty>
1.99034718271422e-05

> <i_epik_Tot_Q>
-1

> <i_epik_Tot_abs_Q>
1

> <s_epik_Chemistry_Notes>
This compound has an imine and may undergo hydrolysis.

$$$$
