4tz2_ligand
                    3D
 Schrodinger Suite 2020-3.
 30 32  0  0  1  0            999 V2000
   21.8960  -43.5250   10.1350 C   0  0  0  0  0  0
   20.6300  -43.7010    9.5910 C   0  0  0  0  0  0
   19.7110  -42.7710   10.0580 N   0  0  0  0  0  0
   20.3090  -44.7140    8.6300 C   0  0  0  0  0  0
   21.3270  -45.5780    8.2640 C   0  0  0  0  0  0
   22.6050  -45.3970    8.8200 C   0  0  0  0  0  0
   22.9150  -44.3890    9.7600 C   0  0  0  0  0  0
   24.2710  -44.1670   10.3920 C   0  0  0  0  0  0
   25.4050  -44.8350   10.1250 N   0  3  0  0  0  0
   24.5130  -43.2080   11.3730 N   0  0  0  0  0  0
   25.8100  -43.3190   11.6750 N   0  0  0  0  0  0
   26.3770  -44.3170   10.9450 C   0  0  3  0  0  0
   27.8520  -44.6810   11.0010 C   0  0  0  0  0  0
   28.5920  -44.4110   12.1480 C   0  0  0  0  0  0
   29.9490  -44.7180   12.1680 C   0  0  0  0  0  0
   30.5660  -45.2700   11.0520 C   0  0  0  0  0  0
   29.8260  -45.5200    9.9020 C   0  0  0  0  0  0
   28.4700  -45.2150    9.8710 C   0  0  0  0  0  0
   22.0860  -42.7206   10.8455 H   0  0  0  0  0  0
   20.0190  -42.0168   10.7971 H   0  0  0  0  0  0
   18.6749  -42.7884    9.6889 H   0  0  0  0  0  0
   19.3085  -44.8005    8.2062 H   0  0  0  0  0  0
   21.1403  -46.3855    7.5561 H   0  0  0  0  0  0
   23.4018  -46.0723    8.5084 H   0  0  0  0  0  0
   28.1145  -43.9645   13.0202 H   0  0  0  0  0  0
   30.5334  -44.5237   13.0673 H   0  0  0  0  0  0
   31.6296  -45.5069   11.0782 H   0  0  0  0  0  0
   30.3081  -45.9544    9.0262 H   0  0  0  0  0  0
   27.8910  -45.3930    8.9648 H   0  0  0  0  0  0
   25.4095  -45.6286    9.3633 H   0  0  0  0  0  0
  1  2  2  0  0  0
  1  7  1  0  0  0
  1 19  1  0  0  0
  2  3  1  0  0  0
  2  4  1  0  0  0
  3 20  1  0  0  0
  3 21  1  0  0  0
  4  5  2  0  0  0
  4 22  1  0  0  0
  5  6  1  0  0  0
  5 23  1  0  0  0
  6  7  2  0  0  0
  6 24  1  0  0  0
  7  8  1  0  0  0
  8  9  2  0  0  0
  8 10  1  0  0  0
  9 12  1  0  0  0
  9 30  1  0  0  0
 10 11  2  0  0  0
 11 12  1  0  0  0
 12 13  1  0  0  0
 13 14  2  0  0  0
 13 18  1  0  0  0
 14 15  1  0  0  0
 14 25  1  0  0  0
 15 16  2  0  0  0
 15 26  1  0  0  0
 16 17  1  0  0  0
 16 27  1  0  0  0
 17 18  2  0  0  0
 17 28  1  0  0  0
 18 29  1  0  0  0
M  CHG  1   9   1
M  END
> <s_m_source_file>
../4tz2_ligand.sdf

> <i_m_source_file_index>
1

> <s_epik_input>
W05IMl1jMVtjSF1jKFtjSF1bY0hdW2NIXTEpQzI9TltDSF0oTj1OMiljM1tjSF1bY0hdW2NIXVtjSF1bY0hdMw==

> <s_epik_cmdline>
J2VwaWtfYXBwJywgJy1pbWFlJywgJ2xpZ2FuZF9wcm8ubWFlJywgJy1vbWFlJywgJ2xpZ2FuZF9wcmVwLm1hZScsICctbXMnLCAnMScsICctcGgnLCAnNycsICctcGh0JywgJzAuNScsICctbnQn

> <r_lp_tautomer_probability>
1

> <r_epik_Ionization_Penalty>
  0.0002

> <r_epik_Ionization_Penalty_Charging>
  0.0000

> <r_epik_Ionization_Penalty_Neutral>
  0.0002

> <r_epik_State_Penalty>
 -0.0000

> <r_epik_Charging_Adjusted_Penalty>
5.08579854252574e-08

> <i_epik_Tot_Q>
1

> <i_epik_Tot_abs_Q>
1

> <s_epik_Chemistry_Notes>
This compound has an imine and may undergo hydrolysis.

$$$$
