4tz8_ligand
                    3D
 Schrodinger Suite 2020-3.
 27 28  0  0  1  0            999 V2000
   28.4120  -45.5840  148.4800 C   0  0  0  0  0  0
   24.6220  -45.3670  148.6640 C   0  0  0  0  0  0
   25.0700  -46.4280  147.9030 C   0  0  0  0  0  0
   24.0740  -46.9540  147.0650 N   0  0  0  0  0  0
   22.9440  -45.0040  148.3530 S   0  0  0  0  0  0
   22.9130  -46.3170  147.1920 C   0  0  0  0  0  0
   25.2700  -44.5010  149.6620 C   0  0  0  0  0  0
   26.2760  -44.9920  150.3960 N   0  0  0  0  0  0
   26.4440  -47.0510  147.8590 C   0  0  0  0  0  0
   27.4880  -46.7210  148.9780 C   0  0  0  0  0  0
   24.8880  -43.3440  149.8280 O   0  0  0  0  0  0
   21.7800  -46.6490  146.4810 N   0  0  0  0  0  0
   26.8630  -46.3320  150.3470 C   0  0  0  0  0  0
   28.3670  -47.9670  149.2150 C   0  0  0  0  0  0
   27.8145  -44.6779  148.3008 H   0  0  0  0  0  0
   28.9006  -45.8921  147.5439 H   0  0  0  0  0  0
   29.1777  -45.3738  149.2413 H   0  0  0  0  0  0
   26.6659  -44.2463  151.1045 H   0  0  0  0  0  0
   26.3512  -48.1465  147.8961 H   0  0  0  0  0  0
   26.9502  -46.7572  146.9276 H   0  0  0  0  0  0
   21.8060  -47.4812  145.7621 H   0  0  0  0  0  0
   20.8497  -46.0818  146.6324 H   0  0  0  0  0  0
   27.6661  -46.4081  151.0948 H   0  0  0  0  0  0
   26.0869  -47.0805  150.5650 H   0  0  0  0  0  0
   28.8294  -48.2754  148.2658 H   0  0  0  0  0  0
   27.7443  -48.7866  149.6029 H   0  0  0  0  0  0
   29.1538  -47.7271  149.9453 H   0  0  0  0  0  0
  1 10  1  0  0  0
  1 15  1  0  0  0
  1 16  1  0  0  0
  1 17  1  0  0  0
  2  3  2  0  0  0
  2  5  1  0  0  0
  2  7  1  0  0  0
  3  4  1  0  0  0
  3  9  1  0  0  0
  4  6  2  0  0  0
  5  6  1  0  0  0
  6 12  1  0  0  0
  7  8  1  0  0  0
  7 11  2  0  0  0
  8 13  1  0  0  0
  8 18  1  0  0  0
  9 10  1  0  0  0
  9 19  1  0  0  0
  9 20  1  0  0  0
 10 13  1  0  0  0
 10 14  1  0  0  0
 12 21  1  0  0  0
 12 22  1  0  0  0
 13 23  1  0  0  0
 13 24  1  0  0  0
 14 25  1  0  0  0
 14 26  1  0  0  0
 14 27  1  0  0  0
M  END
> <s_m_source_file>
../4tz8_ligand.sdf

> <i_m_source_file_index>
1

> <s_epik_input>
Tz1DMVtOSF1bQ0gyXUMoW0NIM10pKFtDSDNdKVtDSDJdYyhjMTIpbmMoczIpW05IMl0=

> <s_epik_cmdline>
J2VwaWtfYXBwJywgJy1pbWFlJywgJ2xpZ2FuZF9wcm8ubWFlJywgJy1vbWFlJywgJ2xpZ2FuZF9wcmVwLm1hZScsICctbXMnLCAnMScsICctcGgnLCAnNycsICctcGh0JywgJzAuNScsICctbnQn

> <r_lp_tautomer_probability>
1

> <r_epik_Ionization_Penalty>
  0.0005

> <r_epik_Ionization_Penalty_Charging>
  0.0000

> <r_epik_Ionization_Penalty_Neutral>
  0.0005

> <r_epik_State_Penalty>
 -0.0000

> <r_epik_Charging_Adjusted_Penalty>
0

> <i_epik_Tot_Q>
0

> <i_epik_Tot_abs_Q>
0

$$$$
