4tzm_ligand
                    3D
 Schrodinger Suite 2020-3.
209209  0  0  1  0            999 V2000
 -120.4430   80.0330  128.6680 N   0  3  0  0  0  0
 -119.8660   81.3100  128.2680 C   0  0  2  0  0  0
 -120.6970   82.4790  128.7910 C   0  0  0  0  0  0
 -120.2010   83.3130  129.5510 O   0  0  0  0  0  0
 -119.7390   81.3840  126.7500 C   0  0  0  0  0  0
 -121.9640   82.5330  128.3860 N   0  0  0  0  0  0
 -122.8480   83.6300  128.7750 C   0  0  2  0  0  0
 -123.9750   83.1730  129.7030 C   0  0  0  0  0  0
 -124.6340   82.1640  129.4500 O   0  0  0  0  0  0
 -123.4350   84.3040  127.5320 C   0  0  0  0  0  0
 -124.2850   85.5280  127.8360 C   0  0  0  0  0  0
 -124.5650   86.3230  126.5770 C   0  0  0  0  0  0
 -125.5240   87.3960  126.8140 N   0  0  0  0  0  0
 -126.5780   87.6340  126.0410 C   0  0  0  0  0  0
 -126.8070   86.8760  124.9760 N   0  0  0  0  0  0
 -127.4020   88.6300  126.3300 N   0  0  0  0  0  0
 -124.1930   83.9310  130.7750 N   0  0  0  0  0  0
 -125.2070   83.5920  131.7700 C   0  0  2  0  0  0
 -126.1510   84.7650  132.0450 C   0  0  0  0  0  0
 -125.8550   85.9080  131.6940 O   0  0  0  0  0  0
 -124.5380   83.1430  133.0720 C   0  0  0  0  0  0
 -123.6020   81.9640  132.9070 C   0  0  0  0  0  0
 -124.0030   80.8240  132.2210 C   0  0  0  0  0  0
 -122.3130   81.9960  133.4250 C   0  0  0  0  0  0
 -123.1520   79.7450  132.0640 C   0  0  0  0  0  0
 -121.4530   80.9210  133.2710 C   0  0  0  0  0  0
 -121.8780   79.7990  132.5900 C   0  0  0  0  0  0
 -121.0300   78.7260  132.4330 O   0  0  0  0  0  0
 -127.2880   84.4740  132.6730 N   0  0  0  0  0  0
 -128.2420   85.5000  133.0530 C   0  0  0  0  0  0
 -128.8100   85.2510  134.4380 C   0  0  0  0  0  0
 -129.2530   84.1460  134.7450 O   0  0  0  0  0  0
 -128.7900   86.2790  135.2790 N   0  0  0  0  0  0
 -129.3120   86.1770  136.6400 C   0  0  2  0  0  0
 -130.4890   87.1270  136.8320 C   0  0  0  0  0  0
 -130.3980   88.3050  136.4840 O   0  0  0  0  0  0
 -128.2240   86.4960  137.6890 C   0  0  0  0  0  0
 -128.8140   86.5150  139.0870 C   0  0  0  0  0  0
 -127.0850   85.4950  137.5990 C   0  0  0  0  0  0
 -131.5880   86.6170  137.3830 N   0  0  0  0  0  0
 -132.7760   87.4340  137.6140 C   0  0  2  0  0  0
 -132.4580   88.6290  138.5090 C   0  0  0  0  0  0
 -131.6560   88.5260  139.4370 O   0  0  0  0  0  0
 -133.8960   86.5960  138.2350 C   0  0  0  0  0  0
 -133.5150   86.0900  139.5010 O   0  0  0  0  0  0
 -133.0830   89.7640  138.2170 N   0  0  0  0  0  0
 -132.8410   90.9820  138.9810 C   0  0  2  0  0  0
 -133.6080   90.9970  140.2960 C   0  0  0  0  0  0
 -133.1480   91.5680  141.2860 O   0  0  0  0  0  0
 -133.2040   92.2140  138.1500 C   0  0  0  0  0  0
 -134.4360   91.9970  137.2880 C   0  0  0  0  0  0
 -135.1810   91.0350  137.4800 O   0  0  0  0  0  0
 -134.6540   92.8920  136.3300 N   0  0  0  0  0  0
 -134.7830   90.3790  140.3050 N   0  0  0  0  0  0
 -135.5430   90.2610  141.5380 C   0  0  2  0  0  0
 -135.3350   88.8630  142.1120 C   0  0  0  0  0  0
 -135.2620   87.8760  141.3780 O   0  0  0  0  0  0
 -137.0550   90.5680  141.3230 C   0  0  2  0  0  0
 -137.6960   90.7600  142.5920 O   0  0  0  0  0  0
 -137.7530   89.4560  140.5510 C   0  0  0  0  0  0
 -135.1940   88.7900  143.4300 N   0  0  0  0  0  0
 -134.9240   87.5240  144.0910 C   0  0  2  0  0  0
 -135.7980   87.3780  145.3270 C   0  0  0  0  0  0
 -136.4530   88.3270  145.7510 O   0  0  0  0  0  0
 -133.4430   87.4120  144.4640 C   0  0  0  0  0  0
 -133.1230   88.2600  145.5510 O   0  0  0  0  0  0
 -135.8040   86.1830  145.9020 N   0  0  0  0  0  0
 -136.6710   85.8860  147.0320 C   0  0  2  0  0  0
 -135.8510   85.5620  148.2760 C   0  0  0  0  0  0
 -135.0360   84.6410  148.2680 O   0  0  0  0  0  0
 -137.6110   84.7110  146.6990 C   0  0  2  0  0  0
 -138.5020   85.0730  145.5060 C   0  0  0  0  0  0
 -138.4460   84.3220  147.9080 C   0  0  0  0  0  0
 -139.3230   83.9100  144.9670 C   0  0  0  0  0  0
 -136.0600   86.3270  149.3430 N   0  0  0  0  0  0
 -135.3600   86.0720  150.5990 C   0  0  2  0  0  0
 -136.2980   85.6910  151.7390 C   0  0  0  0  0  0
 -137.4170   86.1950  151.8340 O   0  0  0  0  0  0
 -134.5310   87.2940  151.0140 C   0  0  0  0  0  0
 -133.2690   87.4560  150.1830 C   0  0  0  0  0  0
 -133.2060   88.2920  149.2790 O   0  0  0  0  0  0
 -132.2560   86.6540  150.4860 N   0  0  0  0  0  0
 -135.8320   84.7880  152.5970 N   0  0  0  0  0  0
 -136.4960   84.5220  153.8660 C   0  0  2  0  0  0
 -135.5500   84.8780  155.0090 C   0  0  0  0  0  0
 -134.3960   84.4470  155.0290 O   0  0  0  0  0  0
 -136.9420   83.0610  153.9750 C   0  0  0  0  0  0
 -137.7110   82.7640  155.2590 C   0  0  0  0  0  0
 -138.2770   81.3500  155.2880 C   0  0  0  0  0  0
 -139.0860   81.0540  154.1080 N   0  0  0  0  0  0
 -140.3270   81.4940  153.9180 C   0  0  0  0  0  0
 -140.9120   82.2650  154.8260 N   0  0  0  0  0  0
 -140.9810   81.1690  152.8110 N   0  0  0  0  0  0
 -136.0430   85.6750  155.9520 N   0  0  0  0  0  0
 -135.2360   86.1290  157.0790 C   0  0  2  0  0  0
 -135.7220   85.5420  158.3990 C   0  0  0  0  0  0
 -136.9240   85.3860  158.6140 O   0  0  0  0  0  0
 -135.2420   87.6570  157.1580 C   0  0  0  0  0  0
 -134.1020   88.3290  156.4110 C   0  0  0  0  0  0
 -134.1170   89.8380  156.6160 C   0  0  0  0  0  0
 -134.9570   90.5330  155.5610 C   0  0  0  0  0  0
 -134.3380   90.4120  154.2120 N   0  3  0  0  0  0
 -134.8838   85.2126  159.2802 O   0  0  0  0  0  0
 -120.5275   79.9961  129.7641 H   0  0  0  0  0  0
 -119.7954   79.2137  128.3224 H   0  0  0  0  0  0
 -121.4416   79.9253  128.2194 H   0  0  0  0  0  0
 -118.8687   81.3365  128.7312 H   0  0  0  0  0  0
 -119.1382   80.5356  126.3905 H   0  0  0  0  0  0
 -119.2471   82.3269  126.4688 H   0  0  0  0  0  0
 -120.7400   81.3429  126.2959 H   0  0  0  0  0  0
 -122.3412   81.7244  127.7426 H   0  0  0  0  0  0
 -122.1957   84.3216  129.3283 H   0  0  0  0  0  0
 -122.6181   84.6315  126.8722 H   0  0  0  0  0  0
 -124.0756   83.5889  126.9951 H   0  0  0  0  0  0
 -125.2435   85.2097  128.2719 H   0  0  0  0  0  0
 -123.7543   86.1748  128.5501 H   0  0  0  0  0  0
 -123.6296   86.7714  126.2109 H   0  0  0  0  0  0
 -124.9780   85.6557  125.8062 H   0  0  0  0  0  0
 -125.3964   88.0672  127.6761 H   0  0  0  0  0  0
 -126.1247   86.0481  124.7332 H   0  0  0  0  0  0
 -127.6791   87.0756  124.3361 H   0  0  0  0  0  0
 -127.2151   89.2602  127.2120 H   0  0  0  0  0  0
 -123.5815   84.8369  130.8994 H   0  0  0  0  0  0
 -125.7797   82.7682  131.3190 H   0  0  0  0  0  0
 -123.9459   83.9729  133.4852 H   0  0  0  0  0  0
 -125.3098   82.8464  133.7975 H   0  0  0  0  0  0
 -125.0069   80.7793  131.7988 H   0  0  0  0  0  0
 -121.9729   82.8818  133.9615 H   0  0  0  0  0  0
 -123.4862   78.8569  131.5276 H   0  0  0  0  0  0
 -120.4458   80.9614  133.6857 H   0  0  0  0  0  0
 -121.3694   77.8316  131.8899 H   0  0  0  0  0  0
 -127.4947   83.4184  132.9032 H   0  0  0  0  0  0
 -127.7445   86.4811  133.0535 H   0  0  0  0  0  0
 -129.0743   85.5113  132.3338 H   0  0  0  0  0  0
 -128.3637   87.2286  134.9231 H   0  0  0  0  0  0
 -129.6421   85.1317  136.7315 H   0  0  0  0  0  0
 -127.8099   87.4955  137.4900 H   0  0  0  0  0  0
 -129.6354   87.2455  139.1284 H   0  0  0  0  0  0
 -128.0348   86.7980  139.8100 H   0  0  0  0  0  0
 -129.1995   85.5153  139.3359 H   0  0  0  0  0  0
 -126.6736   85.4985  136.5788 H   0  0  0  0  0  0
 -127.4607   84.4895  137.8394 H   0  0  0  0  0  0
 -126.2960   85.7722  138.3136 H   0  0  0  0  0  0
 -131.5879   85.5541  137.6662 H   0  0  0  0  0  0
 -133.0754   87.7907  136.6174 H   0  0  0  0  0  0
 -134.7932   87.2196  138.3619 H   0  0  0  0  0  0
 -134.1292   85.7482  137.5740 H   0  0  0  0  0  0
 -134.2142   85.4660  140.0770 H   0  0  0  0  0  0
 -133.7957   89.7728  137.3792 H   0  0  0  0  0  0
 -131.7634   90.9592  139.2009 H   0  0  0  0  0  0
 -133.4070   93.0619  138.8207 H   0  0  0  0  0  0
 -132.3663   92.4664  137.4832 H   0  0  0  0  0  0
 -133.9601   93.7351  136.1967 H   0  0  0  0  0  0
 -135.5283   92.7897  135.6703 H   0  0  0  0  0  0
 -135.1805   89.9548  139.3712 H   0  0  0  0  0  0
 -135.1206   91.0166  142.2167 H   0  0  0  0  0  0
 -137.1882   91.5124  140.7750 H   0  0  0  0  0  0
 -137.3227   91.5273  143.2862 H   0  0  0  0  0  0
 -137.2555   89.3156  139.5801 H   0  0  0  0  0  0
 -138.8061   89.7284  140.3874 H   0  0  0  0  0  0
 -137.7015   88.5209  141.1280 H   0  0  0  0  0  0
 -135.2853   89.7118  144.0233 H   0  0  0  0  0  0
 -135.1843   86.7455  143.3588 H   0  0  0  0  0  0
 -133.2142   86.3746  144.7493 H   0  0  0  0  0  0
 -132.8247   87.6997  143.6009 H   0  0  0  0  0  0
 -132.0940   88.2932  145.9383 H   0  0  0  0  0  0
 -135.1326   85.4073  145.5051 H   0  0  0  0  0  0
 -137.2448   86.8093  147.2002 H   0  0  0  0  0  0
 -137.0082   83.8306  146.4314 H   0  0  0  0  0  0
 -139.2115   85.8592  145.8035 H   0  0  0  0  0  0
 -137.8761   85.4380  144.6783 H   0  0  0  0  0  0
 -137.7809   84.0680  148.7466 H   0  0  0  0  0  0
 -139.0697   83.4511  147.6579 H   0  0  0  0  0  0
 -139.0916   85.1653  148.1944 H   0  0  0  0  0  0
 -139.9310   84.2532  144.1170 H   0  0  0  0  0  0
 -139.9833   83.5288  145.7599 H   0  0  0  0  0  0
 -138.6479   83.1076  144.6347 H   0  0  0  0  0  0
 -136.7722   87.1621  149.2700 H   0  0  0  0  0  0
 -134.7219   85.2076  150.3632 H   0  0  0  0  0  0
 -135.1346   88.2054  150.8912 H   0  0  0  0  0  0
 -134.2302   87.1925  152.0672 H   0  0  0  0  0  0
 -132.3582   85.9228  151.3014 H   0  0  0  0  0  0
 -131.3141   86.7204  149.9217 H   0  0  0  0  0  0
 -134.9200   84.2354  152.3270 H   0  0  0  0  0  0
 -137.3883   85.1652  153.8790 H   0  0  0  0  0  0
 -137.5994   82.8142  153.1283 H   0  0  0  0  0  0
 -136.0587   82.4056  153.9565 H   0  0  0  0  0  0
 -137.0396   82.8772  156.1230 H   0  0  0  0  0  0
 -138.5520   83.4667  155.3536 H   0  0  0  0  0  0
 -137.4506   80.6250  155.3258 H   0  0  0  0  0  0
 -138.9130   81.2278  156.1772 H   0  0  0  0  0  0
 -138.6747   80.4286  153.3019 H   0  0  0  0  0  0
 -140.3734   82.5372  155.7457 H   0  0  0  0  0  0
 -141.9355   82.6319  154.6589 H   0  0  0  0  0  0
 -140.5001   80.5302  152.0556 H   0  0  0  0  0  0
 -137.0927   85.9919  155.8641 H   0  0  0  0  0  0
 -134.2252   85.7501  156.8674 H   0  0  0  0  0  0
 -136.1783   88.0427  156.7284 H   0  0  0  0  0  0
 -135.1649   87.9701  158.2097 H   0  0  0  0  0  0
 -133.1419   87.9364  156.7772 H   0  0  0  0  0  0
 -134.1963   88.1219  155.3348 H   0  0  0  0  0  0
 -134.5386   90.0694  157.6053 H   0  0  0  0  0  0
 -133.0897   90.2265  156.5552 H   0  0  0  0  0  0
 -135.9574   90.0766  155.5296 H   0  0  0  0  0  0
 -135.0486   91.6005  155.8099 H   0  0  0  0  0  0
 -134.9695   90.9248  153.4715 H   0  0  0  0  0  0
 -134.2481   89.3490  153.9439 H   0  0  0  0  0  0
 -133.3393   90.8729  154.2242 H   0  0  0  0  0  0
 -135.2276   84.7884  160.2351 H   0  0  0  0  0  0
  1  2  1  0  0  0
  1104  1  0  0  0
  1105  1  0  0  0
  1106  1  0  0  0
  2  3  1  0  0  0
  2  5  1  0  0  0
  2107  1  0  0  0
  3  4  2  0  0  0
  3  6  1  0  0  0
  5108  1  0  0  0
  5109  1  0  0  0
  5110  1  0  0  0
  6  7  1  0  0  0
  6111  1  0  0  0
  7  8  1  0  0  0
  7 10  1  0  0  0
  7112  1  0  0  0
  8  9  2  0  0  0
  8 17  1  0  0  0
 10 11  1  0  0  0
 10113  1  0  0  0
 10114  1  0  0  0
 11 12  1  0  0  0
 11115  1  0  0  0
 11116  1  0  0  0
 12 13  1  0  0  0
 12117  1  0  0  0
 12118  1  0  0  0
 13 14  1  0  0  0
 13119  1  0  0  0
 14 15  1  0  0  0
 14 16  2  0  0  0
 15120  1  0  0  0
 15121  1  0  0  0
 16122  1  0  0  0
 17 18  1  0  0  0
 17123  1  0  0  0
 18 19  1  0  0  0
 18 21  1  0  0  0
 18124  1  0  0  0
 19 20  2  0  0  0
 19 29  1  0  0  0
 21 22  1  0  0  0
 21125  1  0  0  0
 21126  1  0  0  0
 22 23  2  0  0  0
 22 24  1  0  0  0
 23 25  1  0  0  0
 23127  1  0  0  0
 24 26  2  0  0  0
 24128  1  0  0  0
 25 27  2  0  0  0
 25129  1  0  0  0
 26 27  1  0  0  0
 26130  1  0  0  0
 27 28  1  0  0  0
 28131  1  0  0  0
 29 30  1  0  0  0
 29132  1  0  0  0
 30 31  1  0  0  0
 30133  1  0  0  0
 30134  1  0  0  0
 31 32  2  0  0  0
 31 33  1  0  0  0
 33 34  1  0  0  0
 33135  1  0  0  0
 34 35  1  0  0  0
 34 37  1  0  0  0
 34136  1  0  0  0
 35 36  2  0  0  0
 35 40  1  0  0  0
 37 38  1  0  0  0
 37 39  1  0  0  0
 37137  1  0  0  0
 38138  1  0  0  0
 38139  1  0  0  0
 38140  1  0  0  0
 39141  1  0  0  0
 39142  1  0  0  0
 39143  1  0  0  0
 40 41  1  0  0  0
 40144  1  0  0  0
 41 42  1  0  0  0
 41 44  1  0  0  0
 41145  1  0  0  0
 42 43  2  0  0  0
 42 46  1  0  0  0
 44 45  1  0  0  0
 44146  1  0  0  0
 44147  1  0  0  0
 45148  1  0  0  0
 46 47  1  0  0  0
 46149  1  0  0  0
 47 48  1  0  0  0
 47 50  1  0  0  0
 47150  1  0  0  0
 48 49  2  0  0  0
 48 54  1  0  0  0
 50 51  1  0  0  0
 50151  1  0  0  0
 50152  1  0  0  0
 51 52  2  0  0  0
 51 53  1  0  0  0
 53153  1  0  0  0
 53154  1  0  0  0
 54 55  1  0  0  0
 54155  1  0  0  0
 55 56  1  0  0  0
 55 58  1  0  0  0
 55156  1  0  0  0
 56 57  2  0  0  0
 56 61  1  0  0  0
 58 59  1  0  0  0
 58 60  1  0  0  0
 58157  1  0  0  0
 59158  1  0  0  0
 60159  1  0  0  0
 60160  1  0  0  0
 60161  1  0  0  0
 61 62  1  0  0  0
 61162  1  0  0  0
 62 63  1  0  0  0
 62 65  1  0  0  0
 62163  1  0  0  0
 63 64  2  0  0  0
 63 67  1  0  0  0
 65 66  1  0  0  0
 65164  1  0  0  0
 65165  1  0  0  0
 66166  1  0  0  0
 67 68  1  0  0  0
 67167  1  0  0  0
 68 69  1  0  0  0
 68 71  1  0  0  0
 68168  1  0  0  0
 69 70  2  0  0  0
 69 75  1  0  0  0
 71 72  1  0  0  0
 71 73  1  0  0  0
 71169  1  0  0  0
 72 74  1  0  0  0
 72170  1  0  0  0
 72171  1  0  0  0
 73172  1  0  0  0
 73173  1  0  0  0
 73174  1  0  0  0
 74175  1  0  0  0
 74176  1  0  0  0
 74177  1  0  0  0
 75 76  1  0  0  0
 75178  1  0  0  0
 76 77  1  0  0  0
 76 79  1  0  0  0
 76179  1  0  0  0
 77 78  2  0  0  0
 77 83  1  0  0  0
 79 80  1  0  0  0
 79180  1  0  0  0
 79181  1  0  0  0
 80 81  2  0  0  0
 80 82  1  0  0  0
 82182  1  0  0  0
 82183  1  0  0  0
 83 84  1  0  0  0
 83184  1  0  0  0
 84 85  1  0  0  0
 84 87  1  0  0  0
 84185  1  0  0  0
 85 86  2  0  0  0
 85 94  1  0  0  0
 87 88  1  0  0  0
 87186  1  0  0  0
 87187  1  0  0  0
 88 89  1  0  0  0
 88188  1  0  0  0
 88189  1  0  0  0
 89 90  1  0  0  0
 89190  1  0  0  0
 89191  1  0  0  0
 90 91  1  0  0  0
 90192  1  0  0  0
 91 92  1  0  0  0
 91 93  2  0  0  0
 92193  1  0  0  0
 92194  1  0  0  0
 93195  1  0  0  0
 94 95  1  0  0  0
 94196  1  0  0  0
 95 96  1  0  0  0
 95 98  1  0  0  0
 95197  1  0  0  0
 96 97  2  0  0  0
 96103  1  0  0  0
 98 99  1  0  0  0
 98198  1  0  0  0
 98199  1  0  0  0
 99100  1  0  0  0
 99200  1  0  0  0
 99201  1  0  0  0
100101  1  0  0  0
100202  1  0  0  0
100203  1  0  0  0
101102  1  0  0  0
101204  1  0  0  0
101205  1  0  0  0
102206  1  0  0  0
102207  1  0  0  0
102208  1  0  0  0
103209  1  0  0  0
M  CHG  2   1   1 102   1
M  END
> <s_m_source_file>
../4tzm_ligand.sdf

> <i_m_source_file_index>
1

> <s_epik_input>
W0hdL049QyhbTkgyXSlcW05IXVtDSDJdW0NIMl1bQ0gyXVtDQEhdKFtOSF1DKD1PKVtDQEBIXShbTkgzK10pW0NIM10pQyg9TylbTkhdW0NAQEhdKFtDSDJdYzFbY0hdW2NIXWMoW09IXSlbY0hdW2NIXTEpQyg9TylbTkhdW0NIMl1DKD1PKVtOSF1bQ0BASF0oW0NIXShbQ0gzXSlbQ0gzXSlDKD1PKVtOSF1bQ0BASF0oW0NIMl1bT0hdKUMoPU8pW05IXVtDQEBIXShbQ0gyXUMoPU8pW05IMl0pQyg9TylbTkhdW0NAQEhdKFtDQEhdKFtPSF0pW0NIM10pQyg9TylbTkhdW0NAQEhdKFtDSDJdW09IXSlDKD1PKVtOSF1bQ0BASF0oW0NAQEhdKFtDSDNdKVtDSDJdW0NIM10pQyg9TylbTkhdW0NAQEhdKFtDSDJdQyg9TylbTkgyXSlDKD1PKVtOSF1bQ0BASF0oW0NIMl1bQ0gyXVtDSDJdW05IXS9DKFtOSDJdKT1OXFtIXSlDKD1PKVtOSF1bQ0BIXShDKD1PKVtPSF0pW0NIMl1bQ0gyXVtDSDJdW0NIMl1bTkgzK10=

> <s_epik_cmdline>
J2VwaWtfYXBwJywgJy1pbWFlJywgJ2xpZ2FuZF9wcm8ubWFlJywgJy1vbWFlJywgJ2xpZ2FuZF9wcmVwLm1hZScsICctbXMnLCAnMScsICctcGgnLCAnNycsICctcGh0JywgJzAuNScsICctbnQn

> <s_epik_pKa_notes>
Molecule size exceeds maximum supported for generating protonation states

> <s_epik_Chemistry_Notes>
This compound has an imine and may undergo hydrolysis.

$$$$
