4tzn_ligand
                    3D
 Schrodinger Suite 2020-3.
145146  0  0  1  0            999 V2000
  247.5270  -87.1350  -30.8240 N   0  3  0  0  0  0
  246.9440  -88.1800  -29.9910 C   0  0  2  0  0  0
  247.7350  -89.4790  -30.1070 C   0  0  0  0  0  0
  248.1160  -90.0780  -29.1010 O   0  0  0  0  0  0
  245.4780  -88.4130  -30.3730 C   0  0  0  0  0  0
  244.8220  -89.5870  -29.6590 C   0  0  0  0  0  0
  243.0810  -89.7980  -30.1110 S   0  0  0  0  0  0
  242.3490  -88.3490  -29.3220 C   0  0  0  0  0  0
  247.9900  -89.9020  -31.3400 N   0  0  0  0  0  0
  248.6750  -91.1640  -31.5930 C   0  0  2  0  0  0
  249.9460  -90.9470  -32.4120 C   0  0  0  0  0  0
  249.9440  -90.1920  -33.3850 O   0  0  0  0  0  0
  247.7310  -92.1320  -32.3070 C   0  0  0  0  0  0
  248.2860  -93.5240  -32.5220 C   0  0  0  0  0  0
  247.2260  -94.4270  -33.1230 C   0  0  0  0  0  0
  247.7970  -95.6500  -33.6730 N   0  0  0  0  0  0
  247.3860  -96.2200  -34.8000 C   0  0  0  0  0  0
  246.4000  -95.6760  -35.5000 N   0  0  0  0  0  0
  247.9630  -97.3330  -35.2280 N   0  3  0  0  0  0
  251.0300  -91.6090  -32.0150 N   0  0  0  0  0  0
  252.3230  -91.4280  -32.6740 C   0  0  2  0  0  0
  253.0340  -92.7520  -32.9550 C   0  0  0  0  0  0
  252.6380  -93.8020  -32.4480 O   0  0  0  0  0  0
  253.2250  -90.5270  -31.8250 C   0  0  0  0  0  0
  252.6850  -89.1280  -31.6240 C   0  0  0  0  0  0
  252.6980  -88.2050  -32.6610 C   0  0  0  0  0  0
  252.1680  -88.7290  -30.3980 C   0  0  0  0  0  0
  252.2060  -86.9250  -32.4840 C   0  0  0  0  0  0
  251.6750  -87.4490  -30.2120 C   0  0  0  0  0  0
  251.6970  -86.5520  -31.2590 C   0  0  0  0  0  0
  251.2080  -85.2770  -31.0830 O   0  0  0  0  0  0
  254.0860  -92.6900  -33.7670 N   0  0  0  0  0  0
  254.8790  -93.8600  -34.1070 C   0  0  0  0  0  0
  256.3600  -93.5290  -34.1700 C   0  0  0  0  0  0
  256.7290  -92.3990  -34.4890 O   0  0  0  0  0  0
  257.2130  -94.5060  -33.8620 N   0  0  0  0  0  0
  258.6540  -94.2630  -33.7770 C   0  0  2  0  0  0
  259.4960  -95.3530  -34.4420 C   0  0  0  0  0  0
  259.0060  -96.4370  -34.7400 O   0  0  0  0  0  0
  259.0810  -94.1200  -32.3120 C   0  0  0  0  0  0
  258.2330  -93.1500  -31.5090 C   0  0  0  0  0  0
  259.0300  -92.3970  -30.4670 C   0  0  0  0  0  0
  260.1850  -92.7220  -30.1960 O   0  0  0  0  0  0
  258.4170  -91.3760  -29.8790 N   0  0  0  0  0  0
  260.7750  -95.0530  -34.6550 N   0  0  0  0  0  0
  261.7030  -95.9800  -35.2980 C   0  0  2  0  0  0
  263.1000  -95.8230  -34.6990 C   0  0  0  0  0  0
  263.3870  -94.8120  -34.0670 O   0  0  0  0  0  0
  261.7350  -95.7350  -36.8100 C   0  0  0  0  0  0
  262.6410  -96.6050  -37.4640 O   0  0  0  0  0  0
  263.9600  -96.8440  -34.8540 N   0  0  0  0  0  0
  265.3710  -96.6920  -34.4830 C   0  0  2  0  0  0
  266.3050  -96.5450  -35.6880 C   0  0  0  0  0  0
  266.1820  -97.2940  -36.6580 O   0  0  0  0  0  0
  265.6630  -97.9890  -33.7310 C   0  0  0  0  0  0
  264.7920  -99.0000  -34.4160 C   0  0  0  0  0  0
  263.5730  -98.2640  -34.9430 C   0  0  0  0  0  0
  267.2300  -95.5900  -35.6210 N   0  0  0  0  0  0
  268.2280  -95.4090  -36.6750 C   0  0  2  0  0  0
  269.6410  -95.4120  -36.0870 C   0  0  0  0  0  0
  270.0340  -96.3790  -35.4340 O   0  0  0  0  0  0
  267.9620  -94.1140  -37.4510 C   0  0  0  0  0  0
  268.6830  -94.0660  -38.7890 C   0  0  0  0  0  0
  269.7650  -94.6330  -38.9510 O   0  0  0  0  0  0
  268.0850  -93.3750  -39.7540 N   0  0  0  0  0  0
  270.3790  -94.3240  -36.3150 N   0  0  0  0  0  0
  271.7770  -94.1530  -35.8910 C   0  0  2  0  0  0
  272.6120  -95.4260  -35.9980 C   0  0  0  0  0  0
  273.8150  -95.4160  -35.7360 O   0  0  0  0  0  0
  271.8460  -93.6170  -34.4540 C   0  0  0  0  0  0
  271.4500  -94.6070  -33.3630 C   0  0  0  0  0  0
  271.6690  -93.9540  -31.6960 S   0  0  0  0  0  0
  273.3870  -94.3460  -31.3760 C   0  0  0  0  0  0
  272.0632  -96.5012  -36.3591 O   0  5  0  0  0  0
  248.5776  -86.9808  -30.5370 H   0  0  0  0  0  0
  246.9672  -86.1987  -30.6830 H   0  0  0  0  0  0
  247.4760  -87.4371  -31.8805 H   0  0  0  0  0  0
  247.0153  -87.8028  -28.9601 H   0  0  0  0  0  0
  244.8883  -87.5175  -30.1273 H   0  0  0  0  0  0
  245.4077  -88.6136  -31.4523 H   0  0  0  0  0  0
  245.3515  -90.5158  -29.9177 H   0  0  0  0  0  0
  244.8702  -89.4282  -28.5716 H   0  0  0  0  0  0
  241.2655  -88.3364  -29.5116 H   0  0  0  0  0  0
  242.8043  -87.4371  -29.7356 H   0  0  0  0  0  0
  242.5311  -88.3906  -28.2380 H   0  0  0  0  0  0
  247.6693  -89.2717  -32.1826 H   0  0  0  0  0  0
  248.9516  -91.5587  -30.6042 H   0  0  0  0  0  0
  246.8096  -92.2475  -31.7174 H   0  0  0  0  0  0
  247.4821  -91.7346  -33.3021 H   0  0  0  0  0  0
  249.1454  -93.4743  -33.2068 H   0  0  0  0  0  0
  248.6094  -93.9428  -31.5576 H   0  0  0  0  0  0
  246.4993  -94.7069  -32.3461 H   0  0  0  0  0  0
  246.7083  -93.8949  -33.9347 H   0  0  0  0  0  0
  248.6197  -96.1574  -33.1480 H   0  0  0  0  0  0
  245.9194  -94.7518  -35.1466 H   0  0  0  0  0  0
  246.0627  -96.1489  -36.4341 H   0  0  0  0  0  0
  248.7812  -97.7861  -34.6490 H   0  0  0  0  0  0
  250.9365  -92.3061  -31.1692 H   0  0  0  0  0  0
  252.0724  -90.9550  -33.6350 H   0  0  0  0  0  0
  253.3526  -90.9718  -30.8271 H   0  0  0  0  0  0
  254.2070  -90.4288  -32.3109 H   0  0  0  0  0  0
  253.1028  -88.4942  -33.6308 H   0  0  0  0  0  0
  252.1502  -89.4358  -29.5684 H   0  0  0  0  0  0
  252.2207  -86.2140  -33.3100 H   0  0  0  0  0  0
  251.2719  -87.1520  -29.2438 H   0  0  0  0  0  0
  251.2254  -84.5611  -31.9180 H   0  0  0  0  0  0
  254.3482  -91.7072  -34.1857 H   0  0  0  0  0  0
  254.7284  -94.6390  -33.3452 H   0  0  0  0  0  0
  254.5655  -94.2425  -35.0896 H   0  0  0  0  0  0
  256.8127  -95.5124  -33.6698 H   0  0  0  0  0  0
  258.7892  -93.3273  -34.3392 H   0  0  0  0  0  0
  259.0128  -95.0980  -31.8131 H   0  0  0  0  0  0
  260.1182  -93.7565  -32.2662 H   0  0  0  0  0  0
  257.7821  -92.4097  -32.1862 H   0  0  0  0  0  0
  257.4374  -93.7029  -30.9881 H   0  0  0  0  0  0
  257.3826  -91.1229  -30.1545 H   0  0  0  0  0  0
  258.9437  -90.7834  -29.1165 H   0  0  0  0  0  0
  261.1255  -94.0635  -34.3262 H   0  0  0  0  0  0
  261.3218  -96.9912  -35.0926 H   0  0  0  0  0  0
  260.7320  -95.9015  -37.2297 H   0  0  0  0  0  0
  262.0475  -94.6989  -37.0071 H   0  0  0  0  0  0
  262.7709  -96.5451  -38.5547 H   0  0  0  0  0  0
  265.5021  -95.7691  -33.8989 H   0  0  0  0  0  0
  266.7323  -98.2314  -33.8195 H   0  0  0  0  0  0
  265.4020  -97.8643  -32.6697 H   0  0  0  0  0  0
  265.3496  -99.4642  -35.2428 H   0  0  0  0  0  0
  264.4928  -99.7749  -33.6949 H   0  0  0  0  0  0
  262.6796  -98.4399  -34.3258 H   0  0  0  0  0  0
  263.3514  -98.5187  -35.9899 H   0  0  0  0  0  0
  267.2308  -94.9272  -34.7431 H   0  0  0  0  0  0
  268.1123  -96.2718  -37.3475 H   0  0  0  0  0  0
  266.8840  -94.0196  -37.6482 H   0  0  0  0  0  0
  268.3026  -93.2536  -36.8563 H   0  0  0  0  0  0
  267.1188  -92.8855  -39.5622 H   0  0  0  0  0  0
  268.5563  -93.2925  -40.7445 H   0  0  0  0  0  0
  269.8680  -93.5186  -36.8630 H   0  0  0  0  0  0
  272.1723  -93.4264  -36.6160 H   0  0  0  0  0  0
  272.8760  -93.3034  -34.2287 H   0  0  0  0  0  0
  271.1696  -92.7556  -34.3510 H   0  0  0  0  0  0
  270.3892  -94.8743  -33.4780 H   0  0  0  0  0  0
  272.0678  -95.5131  -33.4483 H   0  0  0  0  0  0
  273.6617  -93.9959  -30.3700 H   0  0  0  0  0  0
  274.0221  -93.8482  -32.1236 H   0  0  0  0  0  0
  273.5323  -95.4346  -31.4378 H   0  0  0  0  0  0
  247.6240  -97.8041  -36.1624 H   0  0  0  0  0  0
  1  2  1  0  0  0
  1 75  1  0  0  0
  1 76  1  0  0  0
  1 77  1  0  0  0
  2  3  1  0  0  0
  2  5  1  0  0  0
  2 78  1  0  0  0
  3  4  2  0  0  0
  3  9  1  0  0  0
  5  6  1  0  0  0
  5 79  1  0  0  0
  5 80  1  0  0  0
  6  7  1  0  0  0
  6 81  1  0  0  0
  6 82  1  0  0  0
  7  8  1  0  0  0
  8 83  1  0  0  0
  8 84  1  0  0  0
  8 85  1  0  0  0
  9 10  1  0  0  0
  9 86  1  0  0  0
 10 11  1  0  0  0
 10 13  1  0  0  0
 10 87  1  0  0  0
 11 12  2  0  0  0
 11 20  1  0  0  0
 13 14  1  0  0  0
 13 88  1  0  0  0
 13 89  1  0  0  0
 14 15  1  0  0  0
 14 90  1  0  0  0
 14 91  1  0  0  0
 15 16  1  0  0  0
 15 92  1  0  0  0
 15 93  1  0  0  0
 16 17  1  0  0  0
 16 94  1  0  0  0
 17 18  1  0  0  0
 17 19  2  0  0  0
 18 95  1  0  0  0
 18 96  1  0  0  0
 19 97  1  0  0  0
 19145  1  0  0  0
 20 21  1  0  0  0
 20 98  1  0  0  0
 21 22  1  0  0  0
 21 24  1  0  0  0
 21 99  1  0  0  0
 22 23  2  0  0  0
 22 32  1  0  0  0
 24 25  1  0  0  0
 24100  1  0  0  0
 24101  1  0  0  0
 25 26  2  0  0  0
 25 27  1  0  0  0
 26 28  1  0  0  0
 26102  1  0  0  0
 27 29  2  0  0  0
 27103  1  0  0  0
 28 30  2  0  0  0
 28104  1  0  0  0
 29 30  1  0  0  0
 29105  1  0  0  0
 30 31  1  0  0  0
 31106  1  0  0  0
 32 33  1  0  0  0
 32107  1  0  0  0
 33 34  1  0  0  0
 33108  1  0  0  0
 33109  1  0  0  0
 34 35  2  0  0  0
 34 36  1  0  0  0
 36 37  1  0  0  0
 36110  1  0  0  0
 37 38  1  0  0  0
 37 40  1  0  0  0
 37111  1  0  0  0
 38 39  2  0  0  0
 38 45  1  0  0  0
 40 41  1  0  0  0
 40112  1  0  0  0
 40113  1  0  0  0
 41 42  1  0  0  0
 41114  1  0  0  0
 41115  1  0  0  0
 42 43  2  0  0  0
 42 44  1  0  0  0
 44116  1  0  0  0
 44117  1  0  0  0
 45 46  1  0  0  0
 45118  1  0  0  0
 46 47  1  0  0  0
 46 49  1  0  0  0
 46119  1  0  0  0
 47 48  2  0  0  0
 47 51  1  0  0  0
 49 50  1  0  0  0
 49120  1  0  0  0
 49121  1  0  0  0
 50122  1  0  0  0
 51 52  1  0  0  0
 51 57  1  0  0  0
 52 53  1  0  0  0
 52 55  1  0  0  0
 52123  1  0  0  0
 53 54  2  0  0  0
 53 58  1  0  0  0
 55 56  1  0  0  0
 55124  1  0  0  0
 55125  1  0  0  0
 56 57  1  0  0  0
 56126  1  0  0  0
 56127  1  0  0  0
 57128  1  0  0  0
 57129  1  0  0  0
 58 59  1  0  0  0
 58130  1  0  0  0
 59 60  1  0  0  0
 59 62  1  0  0  0
 59131  1  0  0  0
 60 61  2  0  0  0
 60 66  1  0  0  0
 62 63  1  0  0  0
 62132  1  0  0  0
 62133  1  0  0  0
 63 64  2  0  0  0
 63 65  1  0  0  0
 65134  1  0  0  0
 65135  1  0  0  0
 66 67  1  0  0  0
 66136  1  0  0  0
 67 68  1  0  0  0
 67 70  1  0  0  0
 67137  1  0  0  0
 68 69  2  0  0  0
 68 74  1  0  0  0
 70 71  1  0  0  0
 70138  1  0  0  0
 70139  1  0  0  0
 71 72  1  0  0  0
 71140  1  0  0  0
 71141  1  0  0  0
 72 73  1  0  0  0
 73142  1  0  0  0
 73143  1  0  0  0
 73144  1  0  0  0
M  CHG  3   1   1  19   1  74  -1
M  END
> <s_m_source_file>
../4tzn_ligand.sdf

> <i_m_source_file_index>
1

> <s_epik_input>
W0NIM11TW0NIMl1bQ0gyXVtDQEhdKFtOSDMrXSlDKD1PKVtOSF1bQ0BASF0oW0NIMl1bQ0gyXVtDSDJdW05IXS9DKFtOSDJdKT1OXFtIXSlDKD1PKVtOSF1bQ0BASF0oW0NIMl1jMVtjSF1bY0hdYyhbT0hdKVtjSF1bY0hdMSlDKD1PKVtOSF1bQ0gyXUMoPU8pW05IXVtDQEBIXShbQ0gyXVtDSDJdQyg9TylbTkgyXSlDKD1PKVtOSF1bQ0BASF0oW0NIMl1bT0hdKUMoPU8pTjJbQ0BASF0oW0NIMl1bQ0gyXVtDSDJdMilDKD1PKVtOSF1bQ0BASF0oW0NIMl1DKD1PKVtOSDJdKUMoPU8pW05IXVtDQEhdKEMoPU8pW09IXSlbQ0gyXVtDSDJdU1tDSDNd

> <s_epik_cmdline>
J2VwaWtfYXBwJywgJy1pbWFlJywgJ2xpZ2FuZF9wcm8ubWFlJywgJy1vbWFlJywgJ2xpZ2FuZF9wcmVwLm1hZScsICctbXMnLCAnMScsICctcGgnLCAnNycsICctcGh0JywgJzAuNScsICctbnQn

> <r_lp_tautomer_probability>
0.999999999997365

> <r_epik_Ionization_Penalty>
  0.1651

> <r_epik_Ionization_Penalty_Charging>
  0.1643

> <r_epik_Ionization_Penalty_Neutral>
  0.0009

> <r_epik_State_Penalty>
  0.1535

> <r_epik_Charging_Adjusted_Penalty>
0.317761187388063

> <i_epik_Tot_Q>
1

> <i_epik_Tot_abs_Q>
3

> <s_epik_Chemistry_Notes>
This compound has an imine and may undergo hydrolysis.

$$$$
