4tzq_ligand
                    3D
 Schrodinger Suite 2020-3.
209209  0  0  1  0            999 V2000
  -48.2620   68.1890 -149.6910 N   0  3  0  0  0  0
  -48.7430   69.0410 -150.7720 C   0  0  2  0  0  0
  -48.6550   70.5140 -150.3910 C   0  0  0  0  0  0
  -48.0120   71.3060 -151.0830 O   0  0  0  0  0  0
  -50.1680   68.6720 -151.1440 C   0  0  0  0  0  0
  -49.2990   70.8810 -149.2870 N   0  0  0  0  0  0
  -49.2760   72.2670 -148.8330 C   0  0  2  0  0  0
  -48.9330   72.3800 -147.3480 C   0  0  0  0  0  0
  -49.4850   71.6610 -146.5110 O   0  0  0  0  0  0
  -50.6170   72.9390 -149.1220 C   0  0  0  0  0  0
  -50.6370   74.4250 -148.8220 C   0  0  0  0  0  0
  -51.6940   75.1330 -149.6460 C   0  0  0  0  0  0
  -52.0420   76.4220 -149.0620 N   0  0  0  0  0  0
  -53.0150   76.5940 -148.1740 C   0  0  0  0  0  0
  -53.7420   75.5580 -147.7710 N   0  0  0  0  0  0
  -53.2640   77.8010 -147.6890 N   0  0  0  0  0  0
  -48.0110   73.2870 -147.0350 N   0  0  0  0  0  0
  -47.5390   73.4640 -145.6680 C   0  0  2  0  0  0
  -47.5280   74.9280 -145.2550 C   0  0  0  0  0  0
  -47.5630   75.8270 -146.1020 O   0  0  0  0  0  0
  -46.1330   72.8840 -145.5030 C   0  0  0  0  0  0
  -45.9640   71.4960 -146.0690 C   0  0  0  0  0  0
  -46.4260   70.3850 -145.3800 C   0  0  0  0  0  0
  -45.3330   71.2970 -147.2890 C   0  0  0  0  0  0
  -46.2700   69.1140 -145.8910 C   0  0  0  0  0  0
  -45.1720   70.0290 -147.8080 C   0  0  0  0  0  0
  -45.6420   68.9420 -147.1040 C   0  0  0  0  0  0
  -45.4850   67.6780 -147.6180 O   0  0  0  0  0  0
  -47.4650   75.1530 -143.9450 N   0  0  0  0  0  0
  -47.3510   76.4900 -143.3970 C   0  0  0  0  0  0
  -46.2520   76.5440 -142.3540 C   0  0  0  0  0  0
  -46.0910   75.6130 -141.5600 O   0  0  0  0  0  0
  -45.4860   77.6310 -142.3630 N   0  0  0  0  0  0
  -44.4070   77.8210 -141.4010 C   0  0  2  0  0  0
  -44.6250   79.1160 -140.6200 C   0  0  0  0  0  0
  -44.8490   80.1770 -141.2090 O   0  0  0  0  0  0
  -43.0290   77.8510 -142.0930 C   0  0  0  0  0  0
  -41.9230   78.0890 -141.0730 C   0  0  0  0  0  0
  -42.7880   76.5530 -142.8520 C   0  0  0  0  0  0
  -44.5680   79.0180 -139.2950 N   0  0  0  0  0  0
  -44.7680   80.1740 -138.4280 C   0  0  2  0  0  0
  -43.6870   81.2230 -138.6300 C   0  0  0  0  0  0
  -42.5040   80.8920 -138.6830 O   0  0  0  0  0  0
  -44.7830   79.7430 -136.9630 C   0  0  0  0  0  0
  -43.4680   79.5230 -136.4820 O   0  0  0  0  0  0
  -44.0860   82.4850 -138.7340 N   0  0  0  0  0  0
  -43.1040   83.5580 -138.8240 C   0  0  2  0  0  0
  -42.3830   83.7390 -137.4920 C   0  0  0  0  0  0
  -41.2010   84.0830 -137.4530 O   0  0  0  0  0  0
  -43.7710   84.8590 -139.2610 C   0  0  0  0  0  0
  -45.1780   85.0060 -138.7130 C   0  0  0  0  0  0
  -45.4360   84.7270 -137.5410 O   0  0  0  0  0  0
  -46.0990   85.4410 -139.5640 N   0  0  0  0  0  0
  -43.1100   83.4930 -136.4060 N   0  0  0  0  0  0
  -42.5430   83.4920 -135.0620 C   0  0  2  0  0  0
  -41.6130   82.2940 -134.8770 C   0  0  0  0  0  0
  -41.9040   81.1960 -135.3540 O   0  0  0  0  0  0
  -43.6550   83.4520 -133.9890 C   0  0  2  0  0  0
  -44.4550   84.6340 -134.0910 O   0  0  0  0  0  0
  -43.0700   83.3680 -132.5890 C   0  0  0  0  0  0
  -40.4880   82.5100 -134.2010 N   0  0  0  0  0  0
  -39.5840   81.4180 -133.8600 C   0  0  2  0  0  0
  -38.8510   81.7130 -132.5590 C   0  0  0  0  0  0
  -38.8210   82.8540 -132.0960 O   0  0  0  0  0  0
  -38.5790   81.1670 -134.9850 C   0  0  0  0  0  0
  -37.6260   82.2100 -135.0620 O   0  0  0  0  0  0
  -38.2600   80.6740 -131.9790 N   0  0  0  0  0  0
  -37.5320   80.8050 -130.7230 C   0  0  2  0  0  0
  -36.0690   80.3880 -130.8880 C   0  0  0  0  0  0
  -35.7760   79.3010 -131.3930 O   0  0  0  0  0  0
  -38.1880   79.9650 -129.6190 C   0  0  2  0  0  0
  -39.6590   80.3540 -129.4680 C   0  0  0  0  0  0
  -37.4440   80.1360 -128.3090 C   0  0  0  0  0  0
  -40.4520   79.4270 -128.5750 C   0  0  0  0  0  0
  -35.1550   81.2540 -130.4590 N   0  0  0  0  0  0
  -33.7290   81.0260 -130.6600 C   0  0  2  0  0  0
  -32.9390   80.9390 -129.3610 C   0  0  0  0  0  0
  -33.0730   81.7950 -128.4850 O   0  0  0  0  0  0
  -33.1340   82.1370 -131.5300 C   0  0  0  0  0  0
  -32.9060   81.7010 -132.9620 C   0  0  0  0  0  0
  -33.8090   81.7670 -133.7940 O   0  0  0  0  0  0
  -31.6870   81.2600 -133.2590 N   0  0  0  0  0  0
  -32.1120   79.9040 -129.2500 N   0  0  0  0  0  0
  -31.1550   79.7950 -128.1540 C   0  0  2  0  0  0
  -29.7280   79.8530 -128.6840 C   0  0  0  0  0  0
  -29.3790   79.1300 -129.6170 O   0  0  0  0  0  0
  -31.3630   78.4990 -127.3680 C   0  0  0  0  0  0
  -32.4290   78.5780 -126.2920 C   0  0  0  0  0  0
  -32.1460   79.7000 -125.3100 C   0  0  0  0  0  0
  -32.9670   80.8790 -125.5710 N   0  0  0  0  0  0
  -32.6800   82.0990 -125.1280 C   0  0  0  0  0  0
  -31.5840   82.3030 -124.4100 N   0  0  0  0  0  0
  -33.4820   83.1160 -125.4100 N   0  0  0  0  0  0
  -28.9090   80.7140 -128.0870 N   0  0  0  0  0  0
  -27.5050   80.8340 -128.4670 C   0  0  2  0  0  0
  -26.6240   81.0190 -127.2420 C   0  0  0  0  0  0
  -27.0780   81.4690 -126.1950 O   0  0  0  0  0  0
  -27.2950   82.0010 -129.4340 C   0  0  0  0  0  0
  -27.7970   81.7400 -130.8410 C   0  0  0  0  0  0
  -27.2730   82.7750 -131.8270 C   0  0  0  0  0  0
  -26.6690   82.1190 -133.0690 C   0  0  0  0  0  0
  -26.0580   83.1300 -133.9830 N   0  3  0  0  0  0
  -25.4054   80.7044 -127.3032 O   0  0  0  0  0  0
  -47.2298   68.4696 -149.4346 H   0  0  0  0  0  0
  -48.2867   67.1378 -150.0140 H   0  0  0  0  0  0
  -48.9066   68.3168 -148.8089 H   0  0  0  0  0  0
  -48.0746   68.8442 -151.6232 H   0  0  0  0  0  0
  -50.2120   67.6070 -151.4156 H   0  0  0  0  0  0
  -50.4934   69.2823 -151.9994 H   0  0  0  0  0  0
  -50.8310   68.8594 -150.2865 H   0  0  0  0  0  0
  -49.8541   70.1237 -148.7140 H   0  0  0  0  0  0
  -48.4726   72.7399 -149.4169 H   0  0  0  0  0  0
  -50.8655   72.8186 -150.1868 H   0  0  0  0  0  0
  -51.4010   72.4724 -148.5075 H   0  0  0  0  0  0
  -50.8588   74.5809 -147.7559 H   0  0  0  0  0  0
  -49.6552   74.8603 -149.0597 H   0  0  0  0  0  0
  -51.3136   75.3006 -150.6644 H   0  0  0  0  0  0
  -52.6008   74.5120 -149.6909 H   0  0  0  0  0  0
  -51.4857   77.3255 -149.3523 H   0  0  0  0  0  0
  -53.5382   74.5540 -148.1716 H   0  0  0  0  0  0
  -54.5479   75.7040 -147.0367 H   0  0  0  0  0  0
  -52.6641   78.6614 -148.0203 H   0  0  0  0  0  0
  -47.6038   73.9128 -147.8428 H   0  0  0  0  0  0
  -48.2712   72.9162 -145.0566 H   0  0  0  0  0  0
  -45.4067   73.5315 -146.0162 H   0  0  0  0  0  0
  -45.8826   72.8281 -144.4333 H   0  0  0  0  0  0
  -46.9209   70.5187 -144.4181 H   0  0  0  0  0  0
  -44.9588   72.1561 -147.8458 H   0  0  0  0  0  0
  -46.6414   68.2511 -145.3383 H   0  0  0  0  0  0
  -44.6763   69.8881 -148.7685 H   0  0  0  0  0  0
  -45.8585   66.8069 -147.0597 H   0  0  0  0  0  0
  -47.5021   74.2839 -143.2717 H   0  0  0  0  0  0
  -47.1127   77.1981 -144.2044 H   0  0  0  0  0  0
  -48.3037   76.7763 -142.9276 H   0  0  0  0  0  0
  -45.6854   78.3992 -143.1246 H   0  0  0  0  0  0
  -44.4691   76.9505 -140.7314 H   0  0  0  0  0  0
  -43.0055   78.6789 -142.8169 H   0  0  0  0  0  0
  -42.1153   79.0298 -140.5364 H   0  0  0  0  0  0
  -40.9545   78.1535 -141.5906 H   0  0  0  0  0  0
  -41.9005   77.2556 -140.3554 H   0  0  0  0  0  0
  -43.5962   76.3998 -143.5823 H   0  0  0  0  0  0
  -42.7698   75.7119 -142.1434 H   0  0  0  0  0  0
  -41.8239   76.6098 -143.3786 H   0  0  0  0  0  0
  -44.3633   78.0303 -138.8562 H   0  0  0  0  0  0
  -45.7409   80.5874 -138.7323 H   0  0  0  0  0  0
  -45.2531   80.5294 -136.3543 H   0  0  0  0  0  0
  -45.3554   78.8092 -136.8613 H   0  0  0  0  0  0
  -43.3091   79.2065 -135.4406 H   0  0  0  0  0  0
  -45.1605   82.7198 -138.7522 H   0  0  0  0  0  0
  -42.3819   83.2398 -139.5904 H   0  0  0  0  0  0
  -43.1781   85.7134 -138.9026 H   0  0  0  0  0  0
  -43.8314   84.8894 -140.3589 H   0  0  0  0  0  0
  -45.8211   85.6776 -140.6017 H   0  0  0  0  0  0
  -47.1402   85.5649 -139.2316 H   0  0  0  0  0  0
  -44.1802   83.2844 -136.5516 H   0  0  0  0  0  0
  -41.9743   84.4313 -134.9967 H   0  0  0  0  0  0
  -44.3279   82.5983 -134.1578 H   0  0  0  0  0  0
  -44.9665   84.8722 -135.0353 H   0  0  0  0  0  0
  -42.4533   82.4612 -132.5031 H   0  0  0  0  0  0
  -43.8860   83.3277 -131.8525 H   0  0  0  0  0  0
  -42.4472   84.2544 -132.3981 H   0  0  0  0  0  0
  -40.2457   83.5394 -133.8984 H   0  0  0  0  0  0
  -40.2306   80.5373 -133.7321 H   0  0  0  0  0  0
  -38.0494   80.2209 -134.7992 H   0  0  0  0  0  0
  -39.1115   81.1067 -135.9457 H   0  0  0  0  0  0
  -36.8330   82.1753 -135.8235 H   0  0  0  0  0  0
  -38.3315   79.6941 -132.4736 H   0  0  0  0  0  0
  -37.5929   81.8757 -130.4785 H   0  0  0  0  0  0
  -38.1340   78.9004 -129.8905 H   0  0  0  0  0  0
  -39.7289   81.3619 -129.0331 H   0  0  0  0  0  0
  -40.1435   80.3464 -130.4555 H   0  0  0  0  0  0
  -36.3907   79.8499 -128.4455 H   0  0  0  0  0  0
  -37.9015   79.4949 -127.5411 H   0  0  0  0  0  0
  -37.5001   81.1872 -127.9900 H   0  0  0  0  0  0
  -41.4942   79.7743 -128.5192 H   0  0  0  0  0  0
  -40.0121   79.4239 -127.5668 H   0  0  0  0  0  0
  -40.4267   78.4083 -128.9893 H   0  0  0  0  0  0
  -35.4993   82.1612 -129.9408 H   0  0  0  0  0  0
  -33.6968   80.0438 -131.1542 H   0  0  0  0  0  0
  -33.8193   82.9973 -131.5454 H   0  0  0  0  0  0
  -32.1641   82.4482 -131.1147 H   0  0  0  0  0  0
  -30.9118   81.2195 -132.4797 H   0  0  0  0  0  0
  -31.4540   80.9358 -134.2840 H   0  0  0  0  0  0
  -32.1639   79.1156 -130.0153 H   0  0  0  0  0  0
  -31.3563   80.6626 -127.5085 H   0  0  0  0  0  0
  -31.6643   77.6965 -128.0573 H   0  0  0  0  0  0
  -30.4244   78.2191 -126.8673 H   0  0  0  0  0  0
  -33.4079   78.7624 -126.7586 H   0  0  0  0  0  0
  -32.4605   77.6290 -125.7366 H   0  0  0  0  0  0
  -32.3582   79.3545 -124.2875 H   0  0  0  0  0  0
  -31.0891   79.9953 -125.3853 H   0  0  0  0  0  0
  -33.8866   80.7877 -126.1676 H   0  0  0  0  0  0
  -30.9163   81.4612 -124.1742 H   0  0  0  0  0  0
  -31.3425   83.3140 -124.0502 H   0  0  0  0  0  0
  -34.3920   82.9502 -126.0054 H   0  0  0  0  0  0
  -29.3178   81.3467 -127.2854 H   0  0  0  0  0  0
  -27.2629   79.8812 -128.9604 H   0  0  0  0  0  0
  -27.8284   82.8874 -129.0602 H   0  0  0  0  0  0
  -26.2207   82.2248 -129.5108 H   0  0  0  0  0  0
  -27.4613   80.7460 -131.1716 H   0  0  0  0  0  0
  -28.8963   81.7778 -130.8510 H   0  0  0  0  0  0
  -28.0988   83.4273 -132.1473 H   0  0  0  0  0  0
  -26.4936   83.3814 -131.3425 H   0  0  0  0  0  0
  -25.8864   81.4085 -132.7645 H   0  0  0  0  0  0
  -27.4560   81.5835 -133.6203 H   0  0  0  0  0  0
  -25.6354   82.6215 -134.8621 H   0  0  0  0  0  0
  -25.2595   83.6690 -133.4521 H   0  0  0  0  0  0
  -26.8291   83.8440 -134.3079 H   0  0  0  0  0  0
  -24.7590   80.8342 -126.4227 H   0  0  0  0  0  0
  1  2  1  0  0  0
  1104  1  0  0  0
  1105  1  0  0  0
  1106  1  0  0  0
  2  3  1  0  0  0
  2  5  1  0  0  0
  2107  1  0  0  0
  3  4  2  0  0  0
  3  6  1  0  0  0
  5108  1  0  0  0
  5109  1  0  0  0
  5110  1  0  0  0
  6  7  1  0  0  0
  6111  1  0  0  0
  7  8  1  0  0  0
  7 10  1  0  0  0
  7112  1  0  0  0
  8  9  2  0  0  0
  8 17  1  0  0  0
 10 11  1  0  0  0
 10113  1  0  0  0
 10114  1  0  0  0
 11 12  1  0  0  0
 11115  1  0  0  0
 11116  1  0  0  0
 12 13  1  0  0  0
 12117  1  0  0  0
 12118  1  0  0  0
 13 14  1  0  0  0
 13119  1  0  0  0
 14 15  1  0  0  0
 14 16  2  0  0  0
 15120  1  0  0  0
 15121  1  0  0  0
 16122  1  0  0  0
 17 18  1  0  0  0
 17123  1  0  0  0
 18 19  1  0  0  0
 18 21  1  0  0  0
 18124  1  0  0  0
 19 20  2  0  0  0
 19 29  1  0  0  0
 21 22  1  0  0  0
 21125  1  0  0  0
 21126  1  0  0  0
 22 23  2  0  0  0
 22 24  1  0  0  0
 23 25  1  0  0  0
 23127  1  0  0  0
 24 26  2  0  0  0
 24128  1  0  0  0
 25 27  2  0  0  0
 25129  1  0  0  0
 26 27  1  0  0  0
 26130  1  0  0  0
 27 28  1  0  0  0
 28131  1  0  0  0
 29 30  1  0  0  0
 29132  1  0  0  0
 30 31  1  0  0  0
 30133  1  0  0  0
 30134  1  0  0  0
 31 32  2  0  0  0
 31 33  1  0  0  0
 33 34  1  0  0  0
 33135  1  0  0  0
 34 35  1  0  0  0
 34 37  1  0  0  0
 34136  1  0  0  0
 35 36  2  0  0  0
 35 40  1  0  0  0
 37 38  1  0  0  0
 37 39  1  0  0  0
 37137  1  0  0  0
 38138  1  0  0  0
 38139  1  0  0  0
 38140  1  0  0  0
 39141  1  0  0  0
 39142  1  0  0  0
 39143  1  0  0  0
 40 41  1  0  0  0
 40144  1  0  0  0
 41 42  1  0  0  0
 41 44  1  0  0  0
 41145  1  0  0  0
 42 43  2  0  0  0
 42 46  1  0  0  0
 44 45  1  0  0  0
 44146  1  0  0  0
 44147  1  0  0  0
 45148  1  0  0  0
 46 47  1  0  0  0
 46149  1  0  0  0
 47 48  1  0  0  0
 47 50  1  0  0  0
 47150  1  0  0  0
 48 49  2  0  0  0
 48 54  1  0  0  0
 50 51  1  0  0  0
 50151  1  0  0  0
 50152  1  0  0  0
 51 52  2  0  0  0
 51 53  1  0  0  0
 53153  1  0  0  0
 53154  1  0  0  0
 54 55  1  0  0  0
 54155  1  0  0  0
 55 56  1  0  0  0
 55 58  1  0  0  0
 55156  1  0  0  0
 56 57  2  0  0  0
 56 61  1  0  0  0
 58 59  1  0  0  0
 58 60  1  0  0  0
 58157  1  0  0  0
 59158  1  0  0  0
 60159  1  0  0  0
 60160  1  0  0  0
 60161  1  0  0  0
 61 62  1  0  0  0
 61162  1  0  0  0
 62 63  1  0  0  0
 62 65  1  0  0  0
 62163  1  0  0  0
 63 64  2  0  0  0
 63 67  1  0  0  0
 65 66  1  0  0  0
 65164  1  0  0  0
 65165  1  0  0  0
 66166  1  0  0  0
 67 68  1  0  0  0
 67167  1  0  0  0
 68 69  1  0  0  0
 68 71  1  0  0  0
 68168  1  0  0  0
 69 70  2  0  0  0
 69 75  1  0  0  0
 71 72  1  0  0  0
 71 73  1  0  0  0
 71169  1  0  0  0
 72 74  1  0  0  0
 72170  1  0  0  0
 72171  1  0  0  0
 73172  1  0  0  0
 73173  1  0  0  0
 73174  1  0  0  0
 74175  1  0  0  0
 74176  1  0  0  0
 74177  1  0  0  0
 75 76  1  0  0  0
 75178  1  0  0  0
 76 77  1  0  0  0
 76 79  1  0  0  0
 76179  1  0  0  0
 77 78  2  0  0  0
 77 83  1  0  0  0
 79 80  1  0  0  0
 79180  1  0  0  0
 79181  1  0  0  0
 80 81  2  0  0  0
 80 82  1  0  0  0
 82182  1  0  0  0
 82183  1  0  0  0
 83 84  1  0  0  0
 83184  1  0  0  0
 84 85  1  0  0  0
 84 87  1  0  0  0
 84185  1  0  0  0
 85 86  2  0  0  0
 85 94  1  0  0  0
 87 88  1  0  0  0
 87186  1  0  0  0
 87187  1  0  0  0
 88 89  1  0  0  0
 88188  1  0  0  0
 88189  1  0  0  0
 89 90  1  0  0  0
 89190  1  0  0  0
 89191  1  0  0  0
 90 91  1  0  0  0
 90192  1  0  0  0
 91 92  1  0  0  0
 91 93  2  0  0  0
 92193  1  0  0  0
 92194  1  0  0  0
 93195  1  0  0  0
 94 95  1  0  0  0
 94196  1  0  0  0
 95 96  1  0  0  0
 95 98  1  0  0  0
 95197  1  0  0  0
 96 97  2  0  0  0
 96103  1  0  0  0
 98 99  1  0  0  0
 98198  1  0  0  0
 98199  1  0  0  0
 99100  1  0  0  0
 99200  1  0  0  0
 99201  1  0  0  0
100101  1  0  0  0
100202  1  0  0  0
100203  1  0  0  0
101102  1  0  0  0
101204  1  0  0  0
101205  1  0  0  0
102206  1  0  0  0
102207  1  0  0  0
102208  1  0  0  0
103209  1  0  0  0
M  CHG  2   1   1 102   1
M  END
> <s_m_source_file>
../4tzq_ligand.sdf

> <i_m_source_file_index>
1

> <s_epik_input>
W0hdL049QyhbTkgyXSlcW05IXVtDSDJdW0NIMl1bQ0gyXVtDQEhdKFtOSF1DKD1PKVtDQEBIXShbTkgzK10pW0NIM10pQyg9TylbTkhdW0NAQEhdKFtDSDJdYzFbY0hdW2NIXWMoW09IXSlbY0hdW2NIXTEpQyg9TylbTkhdW0NIMl1DKD1PKVtOSF1bQ0BASF0oW0NIXShbQ0gzXSlbQ0gzXSlDKD1PKVtOSF1bQ0BASF0oW0NIMl1bT0hdKUMoPU8pW05IXVtDQEBIXShbQ0gyXUMoPU8pW05IMl0pQyg9TylbTkhdW0NAQEhdKFtDQEhdKFtPSF0pW0NIM10pQyg9TylbTkhdW0NAQEhdKFtDSDJdW09IXSlDKD1PKVtOSF1bQ0BASF0oW0NAQEhdKFtDSDNdKVtDSDJdW0NIM10pQyg9TylbTkhdW0NAQEhdKFtDSDJdQyg9TylbTkgyXSlDKD1PKVtOSF1bQ0BASF0oW0NIMl1bQ0gyXVtDSDJdW05IXS9DKFtOSDJdKT1OXFtIXSlDKD1PKVtOSF1bQ0BIXShDKD1PKVtPSF0pW0NIMl1bQ0gyXVtDSDJdW0NIMl1bTkgzK10=

> <s_epik_cmdline>
J2VwaWtfYXBwJywgJy1pbWFlJywgJ2xpZ2FuZF9wcm8ubWFlJywgJy1vbWFlJywgJ2xpZ2FuZF9wcmVwLm1hZScsICctbXMnLCAnMScsICctcGgnLCAnNycsICctcGh0JywgJzAuNScsICctbnQn

> <s_epik_pKa_notes>
Molecule size exceeds maximum supported for generating protonation states

> <s_epik_Chemistry_Notes>
This compound has an imine and may undergo hydrolysis.

$$$$
