4u01_ligand
                    3D
 Schrodinger Suite 2020-3.
 97103  0  0  1  0            999 V2000
   56.9890   29.1580  -20.6080 C   0  0  0  0  0  0
   56.6930   28.2590  -19.5880 C   0  0  0  0  0  0
   56.1980   29.1770  -21.7520 C   0  0  0  0  0  0
   55.6100   27.3900  -19.7230 C   0  0  0  0  0  0
   55.1280   28.3070  -21.8760 C   0  0  0  0  0  0
   54.8290   27.4160  -20.8680 C   0  0  0  0  0  0
   57.1470   27.3170  -17.4410 C   0  0  0  0  0  0
   57.6370   30.4320  -23.3770 C   0  0  0  0  0  0
   54.2300   25.6790  -18.9200 O   0  0  0  0  0  0
   57.9390   27.3040  -16.2280 C   0  0  0  0  0  0
   58.4470   26.9630  -14.0860 C   0  0  0  0  0  0
   59.4420   27.8550  -14.4410 C   0  0  0  0  0  0
   57.3300   25.2030  -12.6100 C   0  0  0  0  0  0
   53.8140   24.6340  -18.0540 C   0  0  1  0  0  0
   52.2990   24.5150  -18.0130 C   0  0  0  0  0  0
   49.6950   22.1370  -16.0000 C   0  0  0  0  0  0
   48.3520   21.6910  -17.9670 C   0  0  0  0  0  0
   48.3110   20.4510  -18.8700 C   0  0  0  0  0  0
   49.3230   19.3320  -18.5800 C   0  0  0  0  0  0
   49.7840   18.8340  -19.9650 C   0  0  0  0  0  0
   50.6330   17.5790  -19.9520 C   0  0  0  0  0  0
   51.9570   17.5480  -20.2000 C   0  0  0  0  0  0
   55.2120   16.4500  -16.1010 O   0  0  0  0  0  0
   56.1570   17.3380  -16.7300 S   0  0  0  0  0  0
   57.0030   16.5340  -17.5820 O   0  0  0  0  0  0
   57.1720   18.1580  -15.4750 C   0  0  0  0  0  0
   58.2520   17.2370  -14.9130 C   0  0  0  0  0  0
   58.5810   18.5150  -15.7720 C   0  0  0  0  0  0
   56.4040   18.8440  -14.3430 C   0  0  0  0  0  0
   55.4050   18.4720  -17.6270 N   0  0  0  0  0  0
   54.8390   18.1560  -18.8290 C   0  0  0  0  0  0
   54.9430   17.0220  -19.2100 O   0  5  0  0  0  0
   54.1530   19.1400  -19.7450 C   0  0  1  0  0  0
   54.1620   18.8710  -21.1910 C   0  0  0  0  0  0
   52.8300   18.7740  -20.4940 C   0  0  1  0  0  0
   49.6680   22.1580  -17.4730 N   0  0  0  0  0  0
   50.7550   22.5940  -18.2470 C   0  0  0  0  0  0
   50.6760   22.5840  -19.4760 O   0  0  0  0  0  0
   52.0750   23.0610  -17.6220 C   0  0  1  0  0  0
   54.1980   20.5280  -19.3100 N   0  0  0  0  0  0
   53.1320   21.0650  -18.6440 C   0  0  0  0  0  0
   52.1770   20.3770  -18.3720 O   0  0  0  0  0  0
   53.1650   22.3750  -18.2790 N   0  0  0  0  0  0
   54.2760   23.2840  -18.5760 C   0  0  0  0  0  0
   55.3060   26.4960  -18.7200 C   0  0  0  0  0  0
   56.3960   30.0450  -22.7900 O   0  0  0  0  0  0
   58.0150   29.9890  -20.4840 F   0  0  0  0  0  0
   56.0810   26.4610  -17.5700 C   0  0  0  0  0  0
   57.4510   28.2270  -18.4310 N   0  0  0  0  0  0
   59.1900   28.2430  -15.9580 S   0  0  0  0  0  0
   57.6840   26.5690  -15.1410 N   0  0  0  0  0  0
   58.4410   26.2510  -12.7380 C   0  0  0  0  0  0
   58.3630   27.2790  -11.5940 C   0  0  0  0  0  0
   54.5170   28.3270  -22.7784 H   0  0  0  0  0  0
   53.9835   26.7358  -20.9705 H   0  0  0  0  0  0
   57.4499   31.1457  -24.1928 H   0  0  0  0  0  0
   58.1464   29.5430  -23.7772 H   0  0  0  0  0  0
   58.2717   30.9057  -22.6137 H   0  0  0  0  0  0
   60.2451   28.2211  -13.8013 H   0  0  0  0  0  0
   57.4084   24.4826  -13.4376 H   0  0  0  0  0  0
   56.3500   25.7010  -12.6490 H   0  0  0  0  0  0
   57.4343   24.6733  -11.6516 H   0  0  0  0  0  0
   54.2663   24.9351  -17.0976 H   0  0  0  0  0  0
   51.8960   25.2180  -17.2691 H   0  0  0  0  0  0
   51.8855   24.7531  -19.0041 H   0  0  0  0  0  0
   48.7343   21.7582  -15.6210 H   0  0  0  0  0  0
   49.8621   23.1563  -15.6218 H   0  0  0  0  0  0
   50.5087   21.4808  -15.6575 H   0  0  0  0  0  0
   47.9315   22.5520  -18.5072 H   0  0  0  0  0  0
   47.7601   21.5032  -17.0591 H   0  0  0  0  0  0
   47.3216   19.9761  -18.7960 H   0  0  0  0  0  0
   48.4971   20.7500  -19.9121 H   0  0  0  0  0  0
   50.1623   19.7388  -17.9969 H   0  0  0  0  0  0
   48.8313   18.5326  -18.0062 H   0  0  0  0  0  0
   48.9039   18.6092  -20.5854 H   0  0  0  0  0  0
   50.3870   19.6139  -20.4530 H   0  0  0  0  0  0
   50.0950   16.6481  -19.7198 H   0  0  0  0  0  0
   52.4940   16.5880  -20.2014 H   0  0  0  0  0  0
   58.1778   17.2118  -13.8158 H   0  0  0  0  0  0
   58.1130   16.2219  -15.3133 H   0  0  0  0  0  0
   58.7356   18.5226  -16.8611 H   0  0  0  0  0  0
   58.8004   19.5125  -15.3636 H   0  0  0  0  0  0
   55.3837   18.4361  -14.2924 H   0  0  0  0  0  0
   56.3573   19.9261  -14.5348 H   0  0  0  0  0  0
   56.9191   18.6628  -13.3881 H   0  0  0  0  0  0
   54.5270   19.7596  -21.7270 H   0  0  0  0  0  0
   54.8243   18.0182  -21.4012 H   0  0  0  0  0  0
   51.8345   19.2002  -20.6873 H   0  0  0  0  0  0
   52.0789   22.8662  -16.5394 H   0  0  0  0  0  0
   55.0876   21.1408  -19.5175 H   0  0  0  0  0  0
   54.4697   23.3554  -19.6565 H   0  0  0  0  0  0
   55.1991   22.9865  -18.0569 H   0  0  0  0  0  0
   55.8448   25.7570  -16.7721 H   0  0  0  0  0  0
   59.3890   25.6964  -12.6771 H   0  0  0  0  0  0
   59.1696   28.0180  -11.7095 H   0  0  0  0  0  0
   58.4740   26.7628  -10.6290 H   0  0  0  0  0  0
   57.3897   27.7905  -11.6264 H   0  0  0  0  0  0
  1  2  2  0  0  0
  1  3  1  0  0  0
  1 47  1  0  0  0
  2  4  1  0  0  0
  2 49  1  0  0  0
  3  5  2  0  0  0
  3 46  1  0  0  0
  4  6  2  0  0  0
  4 45  1  0  0  0
  5  6  1  0  0  0
  5 54  1  0  0  0
  6 55  1  0  0  0
  7 10  1  0  0  0
  7 48  1  0  0  0
  7 49  2  0  0  0
  8 46  1  0  0  0
  8 56  1  0  0  0
  8 57  1  0  0  0
  8 58  1  0  0  0
  9 14  1  0  0  0
  9 45  1  0  0  0
 10 50  1  0  0  0
 10 51  2  0  0  0
 11 12  2  0  0  0
 11 51  1  0  0  0
 11 52  1  0  0  0
 12 50  1  0  0  0
 12 59  1  0  0  0
 13 52  1  0  0  0
 13 60  1  0  0  0
 13 61  1  0  0  0
 13 62  1  0  0  0
 14 15  1  0  0  0
 14 44  1  0  0  0
 14 63  1  0  0  0
 15 39  1  0  0  0
 15 64  1  0  0  0
 15 65  1  0  0  0
 16 36  1  0  0  0
 16 66  1  0  0  0
 16 67  1  0  0  0
 16 68  1  0  0  0
 17 18  1  0  0  0
 17 36  1  0  0  0
 17 69  1  0  0  0
 17 70  1  0  0  0
 18 19  1  0  0  0
 18 71  1  0  0  0
 18 72  1  0  0  0
 19 20  1  0  0  0
 19 73  1  0  0  0
 19 74  1  0  0  0
 20 21  1  0  0  0
 20 75  1  0  0  0
 20 76  1  0  0  0
 21 22  2  0  0  0
 21 77  1  0  0  0
 22 35  1  0  0  0
 22 78  1  0  0  0
 23 24  2  0  0  0
 24 25  2  0  0  0
 24 26  1  0  0  0
 24 30  1  0  0  0
 26 27  1  0  0  0
 26 28  1  0  0  0
 26 29  1  0  0  0
 27 28  1  0  0  0
 27 79  1  0  0  0
 27 80  1  0  0  0
 28 81  1  0  0  0
 28 82  1  0  0  0
 29 83  1  0  0  0
 29 84  1  0  0  0
 29 85  1  0  0  0
 30 31  2  0  0  0
 31 32  1  0  0  0
 31 33  1  0  0  0
 33 34  1  0  0  0
 33 35  1  0  0  0
 33 40  1  0  0  0
 34 35  1  0  0  0
 34 86  1  0  0  0
 34 87  1  0  0  0
 35 88  1  0  0  0
 36 37  1  0  0  0
 37 38  2  0  0  0
 37 39  1  0  0  0
 39 43  1  0  0  0
 39 89  1  0  0  0
 40 41  1  0  0  0
 40 90  1  0  0  0
 41 42  2  0  0  0
 41 43  1  0  0  0
 43 44  1  0  0  0
 44 91  1  0  0  0
 44 92  1  0  0  0
 45 48  2  0  0  0
 48 93  1  0  0  0
 52 53  1  0  0  0
 52 94  1  0  0  0
 53 95  1  0  0  0
 53 96  1  0  0  0
 53 97  1  0  0  0
M  CHG  1  32  -1
M  END
> <s_m_source_file>
../4u01_ligand.sdf

> <i_m_source_file_index>
1

> <s_epik_input>
W0NIM11bQ0hdKFtDSDNdKWMobjEpW2NIXXNjMS1jKG4yKVtjSF1jKGMoYzIzKVtjSF1bY0hdYyhjM0YpT1tDSDNdKU9bQ0BASF0oW0NIMl00KVtDSDJdTihDKD1PKVtOSF01KVtDQEBIXTRDKD1PKU4oW0NIM10pW0NIMl1bQ0gyXVtDSDJdW0NIMl0vW0NIXT1bQ0hdXFtDQEhdKFtDSDJdNilbQ0BdNTZDKD1PKVtOSF1TKD1PKSg9TylDNyhbQ0gzXSlbQ0gyXVtDSDJdNw==

> <s_epik_cmdline>
J2VwaWtfYXBwJywgJy1pbWFlJywgJ2xpZ2FuZF9wcm8ubWFlJywgJy1vbWFlJywgJ2xpZ2FuZF9wcmVwLm1hZScsICctbXMnLCAnMScsICctcGgnLCAnNycsICctcGh0JywgJzAuNScsICctbnQn

> <r_lp_tautomer_probability>
1

> <r_epik_Ionization_Penalty>
  0.0090

> <r_epik_Ionization_Penalty_Charging>
  0.0087

> <r_epik_Ionization_Penalty_Neutral>
  0.0003

> <r_epik_State_Penalty>
 -0.0000

> <r_epik_Charging_Adjusted_Penalty>
0.00874790197696613

> <i_epik_Tot_Q>
-1

> <i_epik_Tot_abs_Q>
1

$$$$
