4u03_ligand
                    3D
 Schrodinger Suite 2020-3.
 73 75  0  0  1  0            999 V2000
   68.2840    9.9160  168.9450 O   0  0  0  0  0  0
   67.0870   10.2850  169.0550 C   0  0  0  0  0  0
   66.2630    9.5980  169.7160 O   0  5  0  0  0  0
   66.6290   11.5580  168.4070 C   0  0  2  0  0  0
   65.5570   11.3080  167.3490 C   0  0  0  0  0  0
   65.2030   12.6520  166.6560 C   0  0  0  0  0  0
   64.0690   12.4290  165.6280 C   0  0  0  0  0  0
   63.3250   11.4840  165.7280 O   0  0  0  0  0  0
   67.7210   12.1890  167.7430 N   0  0  0  0  0  0
   68.4910   13.2070  168.4200 C   0  0  0  0  0  0
   68.2340   13.5330  169.5630 O   0  0  0  0  0  0
   69.6290   13.8880  167.6570 C   0  0  0  0  0  0
   70.1640   13.2590  166.3800 C   0  0  0  0  0  0
   71.1640   13.8860  165.7040 C   0  0  0  0  0  0
   71.7030   15.2040  166.2290 C   0  0  0  0  0  0
   71.2210   15.7710  167.3670 C   0  0  0  0  0  0
   70.1140   15.0680  168.1170 C   0  0  0  0  0  0
   72.7440   15.8600  165.5110 N   0  0  0  0  0  0
   72.8070   15.7390  164.0730 C   0  0  0  0  0  0
   71.5400   16.2650  163.4020 C   0  0  2  0  0  0
   71.6300   16.1960  161.9750 N   0  0  3  0  0  0
   71.3380   17.7250  163.6600 C   0  0  0  0  0  0
   72.3040   18.5690  163.0340 N   0  0  0  0  0  0
   72.9350   18.1530  161.8400 C   0  0  0  0  0  0
   72.6300   16.9890  161.3260 C   0  0  2  0  0  0
   73.8600   18.8990  161.1900 N   0  0  0  0  0  0
   74.5630   18.6570  160.0450 C   0  0  0  0  0  0
   75.5070   19.5960  159.5290 N   0  0  0  0  0  0
   74.3470   17.4990  159.4290 N   0  3  0  0  0  0
   73.3390   16.5550  160.0150 C   0  0  1  0  0  0
   73.0460   15.3210  159.4480 O   0  5  0  0  0  0
   63.9000   13.3210  164.5150 N   0  0  0  0  0  0
   62.8460   13.0940  163.5760 C   0  0  2  0  0  0
   63.3030   12.3100  162.3530 C   0  0  0  0  0  0
   62.6470   12.4050  161.2730 O   0  0  0  0  0  0
   64.3160   11.5440  162.3720 O   0  5  0  0  0  0
   62.2840   14.4730  163.2060 C   0  0  0  0  0  0
   61.1990   14.8450  164.2450 C   0  0  0  0  0  0
   59.9510   13.9620  164.0450 C   0  0  0  0  0  0
   59.1420   13.8080  164.9980 O   0  0  0  0  0  0
   59.7370   13.3760  162.9380 O   0  5  0  0  0  0
   70.6760   15.5010  161.1770 C   0  0  0  0  0  0
   66.2727   12.2229  169.2076 H   0  0  0  0  0  0
   65.9380   10.5959  166.6022 H   0  0  0  0  0  0
   64.6589   10.8912  167.8283 H   0  0  0  0  0  0
   64.8704   13.3781  167.4124 H   0  0  0  0  0  0
   66.0914   13.0428  166.1383 H   0  0  0  0  0  0
   67.9790   11.9012  166.7131 H   0  0  0  0  0  0
   69.7521   12.3194  166.0118 H   0  0  0  0  0  0
   71.5740   13.4464  164.7947 H   0  0  0  0  0  0
   71.6258   16.7152  167.7313 H   0  0  0  0  0  0
   69.7057   15.5085  169.0266 H   0  0  0  0  0  0
   73.4975   16.4564  166.0463 H   0  0  0  0  0  0
   73.6631   16.3163  163.6936 H   0  0  0  0  0  0
   72.9282   14.6806  163.7990 H   0  0  0  0  0  0
   70.7077   15.6417  163.7609 H   0  0  0  0  0  0
   70.3505   18.0306  163.2839 H   0  0  0  0  0  0
   71.3940   17.9174  164.7416 H   0  0  0  0  0  0
   72.5564   19.5419  163.4810 H   0  0  0  0  0  0
   72.5346   17.4182  162.3343 H   0  0  0  0  0  0
   75.6747   20.5501  160.0501 H   0  0  0  0  0  0
   74.9017   17.2521  158.5118 H   0  0  0  0  0  0
   72.5450   17.0372  159.4259 H   0  0  0  0  0  0
   64.5786   14.1768  164.3839 H   0  0  0  0  0  0
   62.1086   12.4553  164.0842 H   0  0  0  0  0  0
   63.0950   15.2159  163.2226 H   0  0  0  0  0  0
   61.8451   14.4318  162.1982 H   0  0  0  0  0  0
   61.5939   14.6882  165.2596 H   0  0  0  0  0  0
   60.9183   15.9012  164.1199 H   0  0  0  0  0  0
   69.9868   14.9455  161.8301 H   0  0  0  0  0  0
   71.1977   14.7975  160.5115 H   0  0  0  0  0  0
   70.1070   16.2234  160.5734 H   0  0  0  0  0  0
   76.0665   19.3652  158.6104 H   0  0  0  0  0  0
  1  2  2  0  0  0
  2  3  1  0  0  0
  2  4  1  0  0  0
  4  5  1  0  0  0
  4  9  1  0  0  0
  4 43  1  0  0  0
  5  6  1  0  0  0
  5 44  1  0  0  0
  5 45  1  0  0  0
  6  7  1  0  0  0
  6 46  1  0  0  0
  6 47  1  0  0  0
  7  8  2  0  0  0
  7 32  1  0  0  0
  9 10  1  0  0  0
  9 48  1  0  0  0
 10 11  2  0  0  0
 10 12  1  0  0  0
 12 13  2  0  0  0
 12 17  1  0  0  0
 13 14  1  0  0  0
 13 49  1  0  0  0
 14 15  2  0  0  0
 14 50  1  0  0  0
 15 16  1  0  0  0
 15 18  1  0  0  0
 16 17  2  0  0  0
 16 51  1  0  0  0
 17 52  1  0  0  0
 18 19  1  0  0  0
 18 53  1  0  0  0
 19 20  1  0  0  0
 19 54  1  0  0  0
 19 55  1  0  0  0
 20 21  1  0  0  0
 20 22  1  0  0  0
 20 56  1  0  0  0
 21 25  1  0  0  0
 21 42  1  0  0  0
 22 23  1  0  0  0
 22 57  1  0  0  0
 22 58  1  0  0  0
 23 24  1  0  0  0
 23 59  1  0  0  0
 24 25  1  0  0  0
 24 26  2  0  0  0
 25 30  1  0  0  0
 25 60  1  0  0  0
 26 27  1  0  0  0
 27 28  1  0  0  0
 27 29  2  0  0  0
 28 61  1  0  0  0
 28 73  1  0  0  0
 29 30  1  0  0  0
 29 62  1  0  0  0
 30 31  1  0  0  0
 30 63  1  0  0  0
 32 33  1  0  0  0
 32 64  1  0  0  0
 33 34  1  0  0  0
 33 37  1  0  0  0
 33 65  1  0  0  0
 34 35  2  0  0  0
 34 36  1  0  0  0
 37 38  1  0  0  0
 37 66  1  0  0  0
 37 67  1  0  0  0
 38 39  1  0  0  0
 38 68  1  0  0  0
 38 69  1  0  0  0
 39 40  2  0  0  0
 39 41  1  0  0  0
 42 70  1  0  0  0
 42 71  1  0  0  0
 42 72  1  0  0  0
M  CHG  5   3  -1  29   1  31  -1  36  -1  41  -1
M  END
> <s_m_source_file>
../4u03_ligand.sdf

> <i_m_source_file_index>
1

> <s_epik_input>
Tz1DKFtPSF0pW0NIMl1bQ0gyXVtDQEBIXShDKD1PKVtPSF0pW05IXUMoPU8pW0NIMl1bQ0gyXVtDQEBIXShDKD1PKVtPSF0pW05IXUMoPU8pYzFbY0hdW2NIXWMoW2NIXVtjSF0xKVtOSF1bQ0gyXVtDQEBIXShbQ0gyXVtOSF0yKVtOQEBIK10oW0NIM10pW0NASF0oQzI9MylbQ0hdKFtPSF0pW05IXUMoXE4zKT1OXFtIXQ==

> <s_epik_cmdline>
J2VwaWtfYXBwJywgJy1pbWFlJywgJ2xpZ2FuZF9wcm8ubWFlJywgJy1vbWFlJywgJ2xpZ2FuZF9wcmVwLm1hZScsICctbXMnLCAnMScsICctcGgnLCAnNycsICctcGh0JywgJzAuNScsICctbnQn

> <r_epik_Ionization_Penalty>
  0.4619

> <r_epik_Ionization_Penalty_Charging>
  0.3957

> <r_epik_Ionization_Penalty_Neutral>
  0.0662

> <r_epik_State_Penalty>
  0.4206

> <r_epik_Charging_Adjusted_Penalty>
0.816287012197793

> <i_epik_Tot_Q>
-3

> <i_epik_Tot_abs_Q>
5

> <s_epik_Chemistry_Notes>
This compound has an imine and may undergo hydrolysis. This compound contains an acetal/aminal-like group ( X-CH(R)-Y where X, Y are N, S, or O) that may be acid/base labile, releasing an aldehyde.

$$$$
