4u0a_ligand
                    3D
 Schrodinger Suite 2020-3.
207213  0  0  1  0            999 V2000
  -42.0040    5.8340   -4.0050 N   0  3  0  0  0  0
  -40.6140    6.1900   -3.7570 C   0  0  2  0  0  0
  -39.6250    5.3120   -4.5230 C   0  0  0  0  0  0
  -40.0130    4.2810   -5.0760 O   0  0  0  0  0  0
  -40.4730    5.9640   -2.2500 C   0  0  0  0  0  0
  -41.8360    6.2310   -1.6970 C   0  0  0  0  0  0
  -42.8370    6.0060   -2.8010 C   0  0  0  0  0  0
  -38.3620    5.7300   -4.5580 N   0  0  0  0  0  0
  -37.2940    4.9280   -5.1500 C   0  0  2  0  0  0
  -36.6910    4.0020   -4.0950 C   0  0  0  0  0  0
  -36.4130    2.8360   -4.3730 O   0  0  0  0  0  0
  -36.1950    5.8160   -5.7720 C   0  0  0  0  0  0
  -35.0150    4.9740   -6.2440 C   0  0  0  0  0  0
  -36.7710    6.6230   -6.9290 C   0  0  0  0  0  0
  -36.4970    4.5300   -2.8890 N   0  0  0  0  0  0
  -35.9210    3.7760   -1.7820 C   0  0  2  0  0  0
  -36.8820    3.7120   -0.6070 C   0  0  0  0  0  0
  -37.6090    4.6690   -0.3330 O   0  0  0  0  0  0
  -34.6160    4.4300   -1.3320 C   0  0  0  0  0  0
  -33.4970    4.3760   -2.3680 C   0  0  0  0  0  0
  -32.3180    5.2310   -1.9310 C   0  0  0  0  0  0
  -33.0790    2.9310   -2.6110 C   0  0  0  0  0  0
  -36.8570    2.5780    0.0910 N   0  0  0  0  0  0
  -37.7500    2.3180    1.2070 C   0  0  2  0  0  0
  -36.9420    2.0570    2.4680 C   0  0  0  0  0  0
  -35.7910    1.6280    2.3810 O   0  0  0  0  0  0
  -38.6340    1.1100    0.8990 C   0  0  0  0  0  0
  -39.4590    1.2730   -0.3420 C   0  0  0  0  0  0
  -38.9220    0.9860   -1.5910 C   0  0  0  0  0  0
  -40.7710    1.7270   -0.2650 C   0  0  0  0  0  0
  -39.6790    1.1410   -2.7400 C   0  0  0  0  0  0
  -41.5320    1.8850   -1.4110 C   0  0  0  0  0  0
  -40.9850    1.5910   -2.6500 C   0  0  0  0  0  0
  -37.5430    2.3030    3.6490 N   0  0  0  0  0  0
  -36.8360    2.0930    4.9140 C   0  0  2  0  0  0
  -36.3430    0.6630    5.1090 C   0  0  0  0  0  0
  -37.0870   -0.2880    4.8680 O   0  0  0  0  0  0
  -37.8910    2.4390    5.9710 C   0  0  0  0  0  0
  -38.8530    3.3360    5.2790 C   0  0  0  0  0  0
  -38.8950    2.8540    3.8620 C   0  0  0  0  0  0
  -35.0890    0.5240    5.5310 N   0  0  0  0  0  0
  -34.5100   -0.7810    5.8420 C   0  0  0  0  0  0
  -34.0500   -1.5840    4.6380 C   0  0  0  0  0  0
  -33.6280   -2.7340    4.7940 O   0  0  0  0  0  0
  -34.1280   -0.9900    3.4450 N   0  0  0  0  0  0
  -33.7180   -1.6530    2.2090 C   0  0  2  0  0  0
  -32.4320   -1.0100    1.6900 C   0  0  0  0  0  0
  -32.2660    0.2000    1.7950 O   0  0  0  0  0  0
  -34.8150   -1.5370    1.1460 C   0  0  0  0  0  0
  -36.1710   -2.1050    1.5540 C   0  0  0  0  0  0
  -36.1500   -3.6030    1.8100 C   0  0  0  0  0  0
  -35.2660   -4.3190    1.3350 O   0  0  0  0  0  0
  -37.1340   -4.0850    2.5610 N   0  0  0  0  0  0
  -31.5180   -1.8140    1.1170 N   0  0  0  0  0  0
  -30.2470   -1.2390    0.6610 C   0  0  2  0  0  0
  -30.3790   -0.1880   -0.4460 C   0  0  0  0  0  0
  -31.3620   -0.1720   -1.1970 O   0  0  0  0  0  0
  -29.4720   -2.4530    0.1260 C   0  0  0  0  0  0
  -30.1520   -3.6500    0.6910 C   0  0  0  0  0  0
  -31.5830   -3.2660    0.8810 C   0  0  0  0  0  0
  -29.3700    0.6710   -0.5410 N   0  0  0  0  0  0
  -29.2370    1.5690   -1.6790 C   0  0  2  0  0  0
  -29.0500    0.6980   -2.9210 C   0  0  0  0  0  0
  -28.2970   -0.2770   -2.8900 O   0  0  0  0  0  0
  -28.0540    2.5270   -1.4860 C   0  0  0  0  0  0
  -28.2270    3.4820   -0.3320 C   0  0  0  0  0  0
  -28.8440    4.7100   -0.5180 C   0  0  0  0  0  0
  -27.7870    3.1480    0.9410 C   0  0  0  0  0  0
  -29.0150    5.5870    0.5390 C   0  0  0  0  0  0
  -27.9530    4.0210    2.0050 C   0  0  0  0  0  0
  -28.5660    5.2440    1.8040 C   0  0  0  0  0  0
  -29.7760    1.0210   -3.9890 N   0  0  0  0  0  0
  -29.7310    0.2450   -5.2260 C   0  0  0  0  0  0
  -30.6750   -0.9480   -5.2740 C   0  0  0  0  0  0
  -30.7370   -1.6360   -6.2870 O   0  0  0  0  0  0
  -31.4140   -1.1930   -4.1900 N   0  0  0  0  0  0
  -32.3510   -2.3180   -4.1090 C   0  0  2  0  0  0
  -33.3890   -2.2420   -5.2290 C   0  0  0  0  0  0
  -34.1050   -1.2490   -5.3300 O   0  0  0  0  0  0
  -33.0630   -2.3070   -2.7470 C   0  0  0  0  0  0
  -34.1770   -3.3330   -2.5710 C   0  0  0  0  0  0
  -33.6660   -4.7570   -2.5100 C   0  0  0  0  0  0
  -32.6740   -5.0450   -1.8430 O   0  0  0  0  0  0
  -34.3520   -5.6610   -3.1980 N   0  0  0  0  0  0
  -33.4710   -3.2820   -6.0820 N   0  0  0  0  0  0
  -34.5360   -3.2530   -7.0920 C   0  0  2  0  0  0
  -35.9300   -3.3440   -6.4570 C   0  0  0  0  0  0
  -36.0900   -4.0220   -5.4420 O   0  0  0  0  0  0
  -34.2430   -4.4790   -7.9710 C   0  0  0  0  0  0
  -33.3190   -5.3360   -7.1780 C   0  0  0  0  0  0
  -32.5630   -4.4300   -6.2570 C   0  0  0  0  0  0
  -36.9270   -2.6460   -7.0350 N   0  0  0  0  0  0
  -38.2930   -2.6870   -6.5130 C   0  0  2  0  0  0
  -39.1070   -3.8520   -7.0790 C   0  0  0  0  0  0
  -38.6210   -4.5830   -7.9440 O   0  0  0  0  0  0
  -38.8720   -1.3570   -6.9880 C   0  0  0  0  0  0
  -38.1940   -1.1230   -8.2980 C   0  0  0  0  0  0
  -36.8160   -1.7230   -8.1810 C   0  0  0  0  0  0
  -40.3330   -4.0130   -6.5820 N   0  0  0  0  0  0
  -41.2700   -5.0290   -7.0770 C   0  0  2  0  0  0
  -40.6900   -6.4440   -7.0080 C   0  0  0  0  0  0
  -41.2170   -7.3760   -7.6200 O   0  0  0  0  0  0
  -41.7000   -4.7040   -8.5110 C   0  0  0  0  0  0
  -39.6594   -6.6596   -6.3160 O   0  0  0  0  0  0
  -42.4106    6.4758   -4.8005 H   0  0  0  0  0  0
  -42.0627    4.7810   -4.3176 H   0  0  0  0  0  0
  -40.4310    7.2177   -4.1040 H   0  0  0  0  0  0
  -40.1519    4.9287   -2.0630 H   0  0  0  0  0  0
  -39.7238    6.6593   -1.8434 H   0  0  0  0  0  0
  -42.0327    5.5454   -0.8596 H   0  0  0  0  0  0
  -41.8900    7.2702   -1.3405 H   0  0  0  0  0  0
  -43.5053    6.8689   -2.9377 H   0  0  0  0  0  0
  -43.4379    5.0991   -2.6382 H   0  0  0  0  0  0
  -38.1339    6.7139   -4.1222 H   0  0  0  0  0  0
  -37.7827    4.3391   -5.9401 H   0  0  0  0  0  0
  -35.8202    6.5148   -5.0096 H   0  0  0  0  0  0
  -34.6126    4.3992   -5.3969 H   0  0  0  0  0  0
  -34.2312    5.6334   -6.6450 H   0  0  0  0  0  0
  -35.3498    4.2819   -7.0307 H   0  0  0  0  0  0
  -37.6200    7.2234   -6.5704 H   0  0  0  0  0  0
  -37.1137    5.9383   -7.7188 H   0  0  0  0  0  0
  -35.9950    7.2898   -7.3331 H   0  0  0  0  0  0
  -36.7910    5.5802   -2.7451 H   0  0  0  0  0  0
  -35.7461    2.7627   -2.1726 H   0  0  0  0  0  0
  -34.7962    5.4918   -1.1080 H   0  0  0  0  0  0
  -34.2438    3.9229   -0.4296 H   0  0  0  0  0  0
  -33.8662    4.7900   -3.3179 H   0  0  0  0  0  0
  -32.6561    6.2645   -1.7652 H   0  0  0  0  0  0
  -31.5460    5.2189   -2.7145 H   0  0  0  0  0  0
  -31.8990    4.8280   -0.9972 H   0  0  0  0  0  0
  -33.9547    2.3438   -2.9247 H   0  0  0  0  0  0
  -32.6668    2.5076   -1.6832 H   0  0  0  0  0  0
  -32.3138    2.8985   -3.4005 H   0  0  0  0  0  0
  -36.1185    1.8205   -0.2105 H   0  0  0  0  0  0
  -38.3621    3.2238    1.3291 H   0  0  0  0  0  0
  -38.0030    0.2198    0.7601 H   0  0  0  0  0  0
  -39.3279    0.9406    1.7355 H   0  0  0  0  0  0
  -37.8929    0.6348   -1.6672 H   0  0  0  0  0  0
  -41.2048    1.9609    0.7072 H   0  0  0  0  0  0
  -39.2473    0.9091   -3.7136 H   0  0  0  0  0  0
  -42.5600    2.2402   -1.3387 H   0  0  0  0  0  0
  -41.5828    1.7140   -3.5531 H   0  0  0  0  0  0
  -35.9301    2.7169    4.9233 H   0  0  0  0  0  0
  -38.3769    1.5159    6.3199 H   0  0  0  0  0  0
  -37.4071    2.9425    6.8209 H   0  0  0  0  0  0
  -39.8388    3.2579    5.7607 H   0  0  0  0  0  0
  -38.4958    4.3745    5.3411 H   0  0  0  0  0  0
  -39.0755    3.6696    3.1463 H   0  0  0  0  0  0
  -39.6422    2.0611    3.7103 H   0  0  0  0  0  0
  -34.4833    1.4353    5.6432 H   0  0  0  0  0  0
  -33.6284   -0.6469    6.4860 H   0  0  0  0  0  0
  -35.2557   -1.3978    6.3650 H   0  0  0  0  0  0
  -34.5187    0.0378    3.4143 H   0  0  0  0  0  0
  -33.5538   -2.7098    2.4661 H   0  0  0  0  0  0
  -34.9781   -0.4770    0.9017 H   0  0  0  0  0  0
  -34.5063   -2.0788    0.2398 H   0  0  0  0  0  0
  -36.5088   -1.6178    2.4806 H   0  0  0  0  0  0
  -36.9025   -1.9184    0.7539 H   0  0  0  0  0  0
  -37.9013   -3.4073    2.9635 H   0  0  0  0  0  0
  -37.1816   -5.1619    2.7804 H   0  0  0  0  0  0
  -29.7960   -0.7089    1.5128 H   0  0  0  0  0  0
  -29.5081   -2.4556   -0.9734 H   0  0  0  0  0  0
  -28.4250   -2.3951    0.4583 H   0  0  0  0  0  0
  -30.0581   -4.4909   -0.0119 H   0  0  0  0  0  0
  -29.6841   -3.9193    1.6494 H   0  0  0  0  0  0
  -32.0375   -3.7592    1.7529 H   0  0  0  0  0  0
  -32.1931   -3.4654   -0.0124 H   0  0  0  0  0  0
  -28.6243    0.6933    0.2673 H   0  0  0  0  0  0
  -30.1553    2.1710   -1.7451 H   0  0  0  0  0  0
  -27.1394    1.9464   -1.2953 H   0  0  0  0  0  0
  -27.9209    3.1329   -2.3944 H   0  0  0  0  0  0
  -29.1991    4.9883   -1.5102 H   0  0  0  0  0  0
  -27.3038    2.1851    1.1067 H   0  0  0  0  0  0
  -29.5031    6.5479    0.3761 H   0  0  0  0  0  0
  -27.6008    3.7437    2.9986 H   0  0  0  0  0  0
  -28.6954    5.9351    2.6369 H   0  0  0  0  0  0
  -30.4258    1.9057   -3.9181 H   0  0  0  0  0  0
  -29.9987    0.8918   -6.0745 H   0  0  0  0  0  0
  -28.7156   -0.1516   -5.3733 H   0  0  0  0  0  0
  -31.2990   -0.5104   -3.3351 H   0  0  0  0  0  0
  -31.7419   -3.2260   -4.2296 H   0  0  0  0  0  0
  -32.3323   -2.5077   -1.9497 H   0  0  0  0  0  0
  -33.5242   -1.3220   -2.5823 H   0  0  0  0  0  0
  -34.7165   -3.1314   -1.6338 H   0  0  0  0  0  0
  -34.8755   -3.2648   -3.4181 H   0  0  0  0  0  0
  -35.2337   -5.3559   -3.7807 H   0  0  0  0  0  0
  -34.0389   -6.7154   -3.1856 H   0  0  0  0  0  0
  -34.5104   -2.2972   -7.6359 H   0  0  0  0  0  0
  -35.1835   -5.0048   -8.1922 H   0  0  0  0  0  0
  -33.7755   -4.1525   -8.9117 H   0  0  0  0  0  0
  -33.9023   -6.0726   -6.6060 H   0  0  0  0  0  0
  -32.6314   -5.8607   -7.8577 H   0  0  0  0  0  0
  -31.6150   -4.0842   -6.6948 H   0  0  0  0  0  0
  -32.3674   -4.8951   -5.2796 H   0  0  0  0  0  0
  -38.2742   -2.8307   -5.4226 H   0  0  0  0  0  0
  -39.9630   -1.4490   -7.0940 H   0  0  0  0  0  0
  -38.6399   -0.5725   -6.2526 H   0  0  0  0  0  0
  -38.7678   -1.6103   -9.1000 H   0  0  0  0  0  0
  -38.1365   -0.0420   -8.4932 H   0  0  0  0  0  0
  -36.0493   -0.9637   -7.9673 H   0  0  0  0  0  0
  -36.5315   -2.2882   -9.0808 H   0  0  0  0  0  0
  -40.6320   -3.3411   -5.7640 H   0  0  0  0  0  0
  -42.1276   -4.9706   -6.3906 H   0  0  0  0  0  0
  -42.1146   -3.6858   -8.5476 H   0  0  0  0  0  0
  -42.4657   -5.4237   -8.8362 H   0  0  0  0  0  0
  -40.8284   -4.7692   -9.1788 H   0  0  0  0  0  0
  -39.2361   -7.6734   -6.2609 H   0  0  0  0  0  0
  1  2  1  0  0  0
  1  7  1  0  0  0
  1105  1  0  0  0
  1106  1  0  0  0
  2  3  1  0  0  0
  2  5  1  0  0  0
  2107  1  0  0  0
  3  4  2  0  0  0
  3  8  1  0  0  0
  5  6  1  0  0  0
  5108  1  0  0  0
  5109  1  0  0  0
  6  7  1  0  0  0
  6110  1  0  0  0
  6111  1  0  0  0
  7112  1  0  0  0
  7113  1  0  0  0
  8  9  1  0  0  0
  8114  1  0  0  0
  9 10  1  0  0  0
  9 12  1  0  0  0
  9115  1  0  0  0
 10 11  2  0  0  0
 10 15  1  0  0  0
 12 13  1  0  0  0
 12 14  1  0  0  0
 12116  1  0  0  0
 13117  1  0  0  0
 13118  1  0  0  0
 13119  1  0  0  0
 14120  1  0  0  0
 14121  1  0  0  0
 14122  1  0  0  0
 15 16  1  0  0  0
 15123  1  0  0  0
 16 17  1  0  0  0
 16 19  1  0  0  0
 16124  1  0  0  0
 17 18  2  0  0  0
 17 23  1  0  0  0
 19 20  1  0  0  0
 19125  1  0  0  0
 19126  1  0  0  0
 20 21  1  0  0  0
 20 22  1  0  0  0
 20127  1  0  0  0
 21128  1  0  0  0
 21129  1  0  0  0
 21130  1  0  0  0
 22131  1  0  0  0
 22132  1  0  0  0
 22133  1  0  0  0
 23 24  1  0  0  0
 23134  1  0  0  0
 24 25  1  0  0  0
 24 27  1  0  0  0
 24135  1  0  0  0
 25 26  2  0  0  0
 25 34  1  0  0  0
 27 28  1  0  0  0
 27136  1  0  0  0
 27137  1  0  0  0
 28 29  2  0  0  0
 28 30  1  0  0  0
 29 31  1  0  0  0
 29138  1  0  0  0
 30 32  2  0  0  0
 30139  1  0  0  0
 31 33  2  0  0  0
 31140  1  0  0  0
 32 33  1  0  0  0
 32141  1  0  0  0
 33142  1  0  0  0
 34 35  1  0  0  0
 34 40  1  0  0  0
 35 36  1  0  0  0
 35 38  1  0  0  0
 35143  1  0  0  0
 36 37  2  0  0  0
 36 41  1  0  0  0
 38 39  1  0  0  0
 38144  1  0  0  0
 38145  1  0  0  0
 39 40  1  0  0  0
 39146  1  0  0  0
 39147  1  0  0  0
 40148  1  0  0  0
 40149  1  0  0  0
 41 42  1  0  0  0
 41150  1  0  0  0
 42 43  1  0  0  0
 42151  1  0  0  0
 42152  1  0  0  0
 43 44  2  0  0  0
 43 45  1  0  0  0
 45 46  1  0  0  0
 45153  1  0  0  0
 46 47  1  0  0  0
 46 49  1  0  0  0
 46154  1  0  0  0
 47 48  2  0  0  0
 47 54  1  0  0  0
 49 50  1  0  0  0
 49155  1  0  0  0
 49156  1  0  0  0
 50 51  1  0  0  0
 50157  1  0  0  0
 50158  1  0  0  0
 51 52  2  0  0  0
 51 53  1  0  0  0
 53159  1  0  0  0
 53160  1  0  0  0
 54 55  1  0  0  0
 54 60  1  0  0  0
 55 56  1  0  0  0
 55 58  1  0  0  0
 55161  1  0  0  0
 56 57  2  0  0  0
 56 61  1  0  0  0
 58 59  1  0  0  0
 58162  1  0  0  0
 58163  1  0  0  0
 59 60  1  0  0  0
 59164  1  0  0  0
 59165  1  0  0  0
 60166  1  0  0  0
 60167  1  0  0  0
 61 62  1  0  0  0
 61168  1  0  0  0
 62 63  1  0  0  0
 62 65  1  0  0  0
 62169  1  0  0  0
 63 64  2  0  0  0
 63 72  1  0  0  0
 65 66  1  0  0  0
 65170  1  0  0  0
 65171  1  0  0  0
 66 67  2  0  0  0
 66 68  1  0  0  0
 67 69  1  0  0  0
 67172  1  0  0  0
 68 70  2  0  0  0
 68173  1  0  0  0
 69 71  2  0  0  0
 69174  1  0  0  0
 70 71  1  0  0  0
 70175  1  0  0  0
 71176  1  0  0  0
 72 73  1  0  0  0
 72177  1  0  0  0
 73 74  1  0  0  0
 73178  1  0  0  0
 73179  1  0  0  0
 74 75  2  0  0  0
 74 76  1  0  0  0
 76 77  1  0  0  0
 76180  1  0  0  0
 77 78  1  0  0  0
 77 80  1  0  0  0
 77181  1  0  0  0
 78 79  2  0  0  0
 78 85  1  0  0  0
 80 81  1  0  0  0
 80182  1  0  0  0
 80183  1  0  0  0
 81 82  1  0  0  0
 81184  1  0  0  0
 81185  1  0  0  0
 82 83  2  0  0  0
 82 84  1  0  0  0
 84186  1  0  0  0
 84187  1  0  0  0
 85 86  1  0  0  0
 85 91  1  0  0  0
 86 87  1  0  0  0
 86 89  1  0  0  0
 86188  1  0  0  0
 87 88  2  0  0  0
 87 92  1  0  0  0
 89 90  1  0  0  0
 89189  1  0  0  0
 89190  1  0  0  0
 90 91  1  0  0  0
 90191  1  0  0  0
 90192  1  0  0  0
 91193  1  0  0  0
 91194  1  0  0  0
 92 93  1  0  0  0
 92 98  1  0  0  0
 93 94  1  0  0  0
 93 96  1  0  0  0
 93195  1  0  0  0
 94 95  2  0  0  0
 94 99  1  0  0  0
 96 97  1  0  0  0
 96196  1  0  0  0
 96197  1  0  0  0
 97 98  1  0  0  0
 97198  1  0  0  0
 97199  1  0  0  0
 98200  1  0  0  0
 98201  1  0  0  0
 99100  1  0  0  0
 99202  1  0  0  0
100101  1  0  0  0
100103  1  0  0  0
100203  1  0  0  0
101102  2  0  0  0
101104  1  0  0  0
103204  1  0  0  0
103205  1  0  0  0
103206  1  0  0  0
104207  1  0  0  0
M  CHG  1   1   1
M  END
> <s_m_source_file>
../4u0a_ligand.sdf

> <i_m_source_file_index>
1

> <s_epik_input>
W0NIMl0xW0NIMl1bQ0gyXVtOSDIrXVtDQEBIXTFDKD1PKVtOSF1bQ0BASF0oW0NIXShbQ0gzXSlbQ0gzXSlDKD1PKVtOSF1bQ0BASF0oW0NIMl1bQ0hdKFtDSDNdKVtDSDNdKUMoPU8pW05IXVtDQEBIXShbQ0gyXWMyW2NIXVtjSF1bY0hdW2NIXVtjSF0yKUMoPU8pTjNbQ0BASF0oW0NIMl1bQ0gyXVtDSDJdMylDKD1PKVtOSF1bQ0gyXUMoPU8pW05IXVtDQEBIXShbQ0gyXVtDSDJdQyg9TylbTkgyXSlDKD1PKU40W0NAQEhdKFtDSDJdW0NIMl1bQ0gyXTQpQyg9TylbTkhdW0NAQEhdKFtDSDJdYzVbY0hdW2NIXVtjSF1bY0hdW2NIXTUpQyg9TylbTkhdW0NIMl1DKD1PKVtOSF1bQ0BASF0oW0NIMl1bQ0gyXUMoPU8pW05IMl0pQyg9TylONltDQEBIXShbQ0gyXVtDSDJdW0NIMl02KUMoPU8pTjdbQ0BASF0oW0NIMl1bQ0gyXVtDSDJdNylDKD1PKVtOSF1bQ0BASF0oW0NIM10pQyg9TylbT0hd

> <s_epik_cmdline>
J2VwaWtfYXBwJywgJy1pbWFlJywgJ2xpZ2FuZF9wcm8ubWFlJywgJy1vbWFlJywgJ2xpZ2FuZF9wcmVwLm1hZScsICctbXMnLCAnMScsICctcGgnLCAnNycsICctcGh0JywgJzAuNScsICctbnQn

> <s_epik_pKa_notes>
Molecule size exceeds maximum supported for generating protonation states

$$$$
