4u0b_ligand
                    3D
 Schrodinger Suite 2020-3.
200206  0  0  1  0            999 V2000
   -7.6220   68.7740  -15.1550 N   0  3  0  0  0  0
   -8.3050   67.7590  -14.3550 C   0  0  2  0  0  0
   -8.4670   68.1590  -12.8870 C   0  0  0  0  0  0
   -7.8910   69.1560  -12.4450 O   0  0  0  0  0  0
   -7.3820   66.5440  -14.4810 C   0  0  0  0  0  0
   -6.0230   67.1290  -14.6690 C   0  0  0  0  0  0
   -6.2130   68.4240  -15.4110 C   0  0  0  0  0  0
   -9.2460   67.3760  -12.1470 N   0  0  0  0  0  0
   -9.4890   67.6390  -10.7280 C   0  0  2  0  0  0
   -8.2960   67.1870   -9.8890 C   0  0  0  0  0  0
   -7.8770   67.8890   -8.9690 O   0  0  0  0  0  0
  -10.7630   66.9210  -10.2220 C   0  0  0  0  0  0
  -10.9890   67.2020   -8.7390 C   0  0  0  0  0  0
  -11.9780   67.3470  -11.0380 C   0  0  0  0  0  0
   -7.7620   66.0110  -10.2170 N   0  0  0  0  0  0
   -6.6630   65.4060   -9.4710 C   0  0  2  0  0  0
   -5.4860   65.0880  -10.3900 C   0  0  0  0  0  0
   -5.6000   64.2450  -11.2820 O   0  0  0  0  0  0
   -7.1420   64.1230   -8.7850 C   0  0  0  0  0  0
   -8.2140   64.3000   -7.7060 C   0  0  0  0  0  0
   -8.8900   62.9790   -7.3760 C   0  0  0  0  0  0
   -7.6200   64.9210   -6.4510 C   0  0  0  0  0  0
   -4.3630   65.7700  -10.1700 N   0  0  0  0  0  0
   -3.1220   65.4620  -10.8760 C   0  0  2  0  0  0
   -2.4140   64.2990  -10.1810 C   0  0  0  0  0  0
   -2.5710   64.1200   -8.9710 O   0  0  0  0  0  0
   -2.1990   66.6780  -10.9090 C   0  0  0  0  0  0
   -2.7450   67.8340  -11.6940 C   0  0  0  0  0  0
   -3.5020   68.8180  -11.0700 C   0  0  0  0  0  0
   -2.4980   67.9430  -13.0560 C   0  0  0  0  0  0
   -4.0050   69.8880  -11.7910 C   0  0  0  0  0  0
   -2.9970   69.0110  -13.7830 C   0  0  0  0  0  0
   -3.7520   69.9850  -13.1490 C   0  0  0  0  0  0
   -1.6210   63.5120  -10.9340 N   0  0  0  0  0  0
   -0.9800   62.3420  -10.3310 C   0  0  2  0  0  0
    0.0210   62.7290   -9.2500 C   0  0  0  0  0  0
    0.8310   63.6300   -9.4630 O   0  0  0  0  0  0
   -0.2590   61.6730  -11.5100 C   0  0  0  0  0  0
   -0.7970   62.3150  -12.7440 C   0  0  0  0  0  0
   -1.2210   63.6900  -12.3400 C   0  0  0  0  0  0
   -0.0520   62.0590   -8.1010 N   0  0  0  0  0  0
    0.8390   62.3350   -6.9730 C   0  0  0  0  0  0
    0.1860   63.1090   -5.8400 C   0  0  0  0  0  0
    0.5820   62.9610   -4.6830 O   0  0  0  0  0  0
   -0.8080   63.9350   -6.1660 N   0  0  0  0  0  0
   -1.4930   64.7650   -5.1700 C   0  0  2  0  0  0
   -2.5090   63.9500   -4.3660 C   0  0  0  0  0  0
   -3.2260   63.1310   -4.9390 O   0  0  0  0  0  0
   -2.2140   65.9270   -5.8570 C   0  0  0  0  0  0
   -2.5870   64.1780   -3.0380 N   0  0  0  0  0  0
   -3.5870   63.4740   -2.2260 C   0  0  2  0  0  0
   -5.0300   63.7440   -2.6610 C   0  0  0  0  0  0
   -5.3160   64.7690   -3.2840 O   0  0  0  0  0  0
   -3.3590   64.0310   -0.8150 C   0  0  0  0  0  0
   -1.9710   64.5600   -0.8200 C   0  0  0  0  0  0
   -1.7220   65.0430   -2.2150 C   0  0  0  0  0  0
   -5.9240   62.8160   -2.3320 N   0  0  0  0  0  0
   -7.3480   62.9850   -2.6060 C   0  0  2  0  0  0
   -7.8830   64.1970   -1.8470 C   0  0  0  0  0  0
   -7.5780   64.3840   -0.6700 O   0  0  0  0  0  0
   -8.1330   61.7330   -2.2010 C   0  0  0  0  0  0
   -7.9470   60.5670   -3.1300 C   0  0  0  0  0  0
   -8.7520   60.4240   -4.2530 C   0  0  0  0  0  0
   -6.9800   59.6030   -2.8750 C   0  0  0  0  0  0
   -8.5890   59.3460   -5.1090 C   0  0  0  0  0  0
   -6.8110   58.5250   -3.7260 C   0  0  0  0  0  0
   -7.6180   58.3950   -4.8440 C   0  0  0  0  0  0
   -8.6650   65.0250   -2.5330 N   0  0  0  0  0  0
   -9.2720   66.2040   -1.9190 C   0  0  0  0  0  0
   -8.3410   67.3790   -1.6720 C   0  0  0  0  0  0
   -8.7360   68.3470   -1.0200 O   0  0  0  0  0  0
   -7.1130   67.3130   -2.1870 N   0  0  0  0  0  0
   -6.1620   68.4030   -1.9990 C   0  0  2  0  0  0
   -6.5490   69.5690   -2.9010 C   0  0  0  0  0  0
   -6.7950   69.3700   -4.0910 O   0  0  0  0  0  0
   -4.7340   67.9610   -2.3210 C   0  0  0  0  0  0
   -3.6800   68.9310   -1.8040 C   0  0  0  0  0  0
   -2.3460   68.7990   -2.5090 C   0  0  0  0  0  0
   -2.2750   68.8160   -3.7380 O   0  0  0  0  0  0
   -1.2750   68.6810   -1.7320 N   0  0  0  0  0  0
   -6.6030   70.7910   -2.3440 N   0  0  0  0  0  0
   -6.9740   71.9310   -3.1790 C   0  0  2  0  0  0
   -5.8780   72.2910   -4.1870 C   0  0  0  0  0  0
   -4.7040   72.0100   -3.9360 O   0  0  0  0  0  0
   -7.1730   73.0620   -2.1640 C   0  0  0  0  0  0
   -6.3320   72.6800   -0.9960 C   0  0  0  0  0  0
   -6.3630   71.1830   -0.9420 C   0  0  0  0  0  0
   -6.2590   72.8950   -5.3280 N   0  0  0  0  0  0
   -5.2780   73.3960   -6.2890 C   0  0  2  0  0  0
   -4.8410   74.8320   -5.9790 C   0  0  0  0  0  0
   -5.4390   75.4920   -5.1240 O   0  0  0  0  0  0
   -6.0400   73.3370   -7.6130 C   0  0  0  0  0  0
   -7.4640   73.5630   -7.2310 C   0  0  0  0  0  0
   -7.6400   73.0640   -5.8210 C   0  0  0  0  0  0
   -3.8040   75.2960   -6.6750 N   0  0  0  0  0  0
   -3.2780   76.6590   -6.5190 C   0  0  2  0  0  0
   -2.7900   76.9300   -5.0970 C   0  0  0  0  0  0
   -1.7990   76.3540   -4.6500 O   0  0  0  0  0  0
   -4.3330   77.6980   -6.9190 C   0  0  0  0  0  0
   -3.4102   77.7537   -4.3728 O   0  0  0  0  0  0
   -8.1301   68.8794  -16.1249 H   0  0  0  0  0  0
   -7.6443   69.7365  -14.6229 H   0  0  0  0  0  0
   -9.3263   67.6175  -14.7383 H   0  0  0  0  0  0
   -7.4459   65.9385  -13.5649 H   0  0  0  0  0  0
   -7.6912   65.9365  -15.3443 H   0  0  0  0  0  0
   -5.5599   67.3036  -13.6866 H   0  0  0  0  0  0
   -5.4007   66.4317  -15.2490 H   0  0  0  0  0  0
   -6.0544   68.3100  -16.4935 H   0  0  0  0  0  0
   -5.5612   69.2226  -15.0270 H   0  0  0  0  0  0
   -9.7143   66.5077  -12.6335 H   0  0  0  0  0  0
   -9.6124   68.7306  -10.6716 H   0  0  0  0  0  0
  -10.6358   65.8353  -10.3447 H   0  0  0  0  0  0
  -10.1031   66.8885   -8.1673 H   0  0  0  0  0  0
  -11.8684   66.6412   -8.3894 H   0  0  0  0  0  0
  -11.1584   68.2788   -8.5915 H   0  0  0  0  0  0
  -11.7967   67.1370  -12.1024 H   0  0  0  0  0  0
  -12.1520   68.4245  -10.9012 H   0  0  0  0  0  0
  -12.8620   66.7869  -10.6991 H   0  0  0  0  0  0
   -8.1843   65.4933  -11.0909 H   0  0  0  0  0  0
   -6.3594   66.1600   -8.7299 H   0  0  0  0  0  0
   -7.5732   63.4447   -9.5360 H   0  0  0  0  0  0
   -6.2906   63.6308   -8.2923 H   0  0  0  0  0  0
   -8.9830   64.9813   -8.0991 H   0  0  0  0  0  0
   -9.3133   62.5445   -8.2936 H   0  0  0  0  0  0
   -9.6951   63.1513   -6.6466 H   0  0  0  0  0  0
   -8.1507   62.2854   -6.9491 H   0  0  0  0  0  0
   -7.1356   65.8746   -6.7078 H   0  0  0  0  0  0
   -6.8752   64.2358   -6.0201 H   0  0  0  0  0  0
   -8.4196   65.1017   -5.7176 H   0  0  0  0  0  0
   -4.3882   66.5855   -9.4322 H   0  0  0  0  0  0
   -3.4143   65.1914  -11.9013 H   0  0  0  0  0  0
   -2.0251   67.0343   -9.8829 H   0  0  0  0  0  0
   -1.2392   66.3975  -11.3673 H   0  0  0  0  0  0
   -3.7022   68.7469  -10.0009 H   0  0  0  0  0  0
   -1.9046   67.1793  -13.5588 H   0  0  0  0  0  0
   -4.5991   70.6526  -11.2904 H   0  0  0  0  0  0
   -2.7963   69.0853  -14.8518 H   0  0  0  0  0  0
   -4.1462   70.8265  -13.7187 H   0  0  0  0  0  0
   -1.7399   61.7178   -9.8382 H   0  0  0  0  0  0
    0.8247   61.8377  -11.4182 H   0  0  0  0  0  0
   -0.4677   60.5930  -11.5023 H   0  0  0  0  0  0
   -0.0100   62.3508  -13.5117 H   0  0  0  0  0  0
   -1.6494   61.7301  -13.1198 H   0  0  0  0  0  0
   -2.0796   64.0563  -12.9219 H   0  0  0  0  0  0
   -0.4004   64.4202  -12.3981 H   0  0  0  0  0  0
   -0.8174   61.2733   -8.0179 H   0  0  0  0  0  0
    1.1999   61.3859   -6.5501 H   0  0  0  0  0  0
    1.6959   62.9312   -7.3199 H   0  0  0  0  0  0
   -1.1104   63.9817   -7.2226 H   0  0  0  0  0  0
   -0.6968   65.1305   -4.5048 H   0  0  0  0  0  0
   -1.4889   66.5170   -6.4368 H   0  0  0  0  0  0
   -2.6837   66.5680   -5.0965 H   0  0  0  0  0  0
   -2.9875   65.5311   -6.5315 H   0  0  0  0  0  0
   -3.4349   62.3908   -2.3420 H   0  0  0  0  0  0
   -4.0921   64.8255   -0.6115 H   0  0  0  0  0  0
   -3.4796   63.2233   -0.0780 H   0  0  0  0  0  0
   -1.8892   65.3816   -0.0932 H   0  0  0  0  0  0
   -1.2714   63.7567   -0.5456 H   0  0  0  0  0  0
   -0.6740   64.9124   -2.5225 H   0  0  0  0  0  0
   -2.0164   66.0938   -2.3531 H   0  0  0  0  0  0
   -5.5634   61.9007   -1.8399 H   0  0  0  0  0  0
   -7.4265   63.1428   -3.6918 H   0  0  0  0  0  0
   -7.8110   61.4057   -1.2014 H   0  0  0  0  0  0
   -9.2082   61.9644   -2.1823 H   0  0  0  0  0  0
   -9.5205   61.1678   -4.4634 H   0  0  0  0  0  0
   -6.3461   59.6969   -1.9932 H   0  0  0  0  0  0
   -9.2241   59.2471   -5.9893 H   0  0  0  0  0  0
   -6.0440   57.7794   -3.5168 H   0  0  0  0  0  0
   -7.4890   57.5453   -5.5144 H   0  0  0  0  0  0
   -8.8500   64.8005   -3.5938 H   0  0  0  0  0  0
  -10.0761   66.5821   -2.5674 H   0  0  0  0  0  0
   -9.6890   65.9329   -0.9379 H   0  0  0  0  0  0
   -6.8208   66.4208   -2.7603 H   0  0  0  0  0  0
   -6.2297   68.6785   -0.9362 H   0  0  0  0  0  0
   -4.5408   66.9810   -1.8602 H   0  0  0  0  0  0
   -4.6110   67.8841   -3.4114 H   0  0  0  0  0  0
   -4.0299   69.9638   -1.9485 H   0  0  0  0  0  0
   -3.5078   68.7487   -0.7330 H   0  0  0  0  0  0
   -1.3877   68.6706   -0.6378 H   0  0  0  0  0  0
   -0.2754   68.5937   -2.1828 H   0  0  0  0  0  0
   -7.8669   71.6838   -3.7719 H   0  0  0  0  0  0
   -6.8457   74.0141   -2.6071 H   0  0  0  0  0  0
   -8.2373   73.1297   -1.8944 H   0  0  0  0  0  0
   -5.3077   73.0526   -1.1442 H   0  0  0  0  0  0
   -6.7537   73.1209   -0.0807 H   0  0  0  0  0  0
   -7.1801   70.8043   -0.3104 H   0  0  0  0  0  0
   -5.4080   70.7571   -0.6005 H   0  0  0  0  0  0
   -4.3650   72.7836   -6.2519 H   0  0  0  0  0  0
   -5.6654   74.1216   -8.2869 H   0  0  0  0  0  0
   -5.8904   72.3517   -8.0786 H   0  0  0  0  0  0
   -7.6933   74.6372   -7.2897 H   0  0  0  0  0  0
   -8.1204   73.0099   -7.9189 H   0  0  0  0  0  0
   -8.1629   72.0969   -5.7855 H   0  0  0  0  0  0
   -8.1694   73.7905   -5.1870 H   0  0  0  0  0  0
   -3.3381   74.6055   -7.3935 H   0  0  0  0  0  0
   -2.4164   76.7008   -7.2016 H   0  0  0  0  0  0
   -4.6779   77.4946   -7.9435 H   0  0  0  0  0  0
   -3.8919   78.7046   -6.8736 H   0  0  0  0  0  0
   -5.1858   77.6398   -6.2267 H   0  0  0  0  0  0
   -3.0647   77.9540   -3.3478 H   0  0  0  0  0  0
  1  2  1  0  0  0
  1  7  1  0  0  0
  1101  1  0  0  0
  1102  1  0  0  0
  2  3  1  0  0  0
  2  5  1  0  0  0
  2103  1  0  0  0
  3  4  2  0  0  0
  3  8  1  0  0  0
  5  6  1  0  0  0
  5104  1  0  0  0
  5105  1  0  0  0
  6  7  1  0  0  0
  6106  1  0  0  0
  6107  1  0  0  0
  7108  1  0  0  0
  7109  1  0  0  0
  8  9  1  0  0  0
  8110  1  0  0  0
  9 10  1  0  0  0
  9 12  1  0  0  0
  9111  1  0  0  0
 10 11  2  0  0  0
 10 15  1  0  0  0
 12 13  1  0  0  0
 12 14  1  0  0  0
 12112  1  0  0  0
 13113  1  0  0  0
 13114  1  0  0  0
 13115  1  0  0  0
 14116  1  0  0  0
 14117  1  0  0  0
 14118  1  0  0  0
 15 16  1  0  0  0
 15119  1  0  0  0
 16 17  1  0  0  0
 16 19  1  0  0  0
 16120  1  0  0  0
 17 18  2  0  0  0
 17 23  1  0  0  0
 19 20  1  0  0  0
 19121  1  0  0  0
 19122  1  0  0  0
 20 21  1  0  0  0
 20 22  1  0  0  0
 20123  1  0  0  0
 21124  1  0  0  0
 21125  1  0  0  0
 21126  1  0  0  0
 22127  1  0  0  0
 22128  1  0  0  0
 22129  1  0  0  0
 23 24  1  0  0  0
 23130  1  0  0  0
 24 25  1  0  0  0
 24 27  1  0  0  0
 24131  1  0  0  0
 25 26  2  0  0  0
 25 34  1  0  0  0
 27 28  1  0  0  0
 27132  1  0  0  0
 27133  1  0  0  0
 28 29  2  0  0  0
 28 30  1  0  0  0
 29 31  1  0  0  0
 29134  1  0  0  0
 30 32  2  0  0  0
 30135  1  0  0  0
 31 33  2  0  0  0
 31136  1  0  0  0
 32 33  1  0  0  0
 32137  1  0  0  0
 33138  1  0  0  0
 34 35  1  0  0  0
 34 40  1  0  0  0
 35 36  1  0  0  0
 35 38  1  0  0  0
 35139  1  0  0  0
 36 37  2  0  0  0
 36 41  1  0  0  0
 38 39  1  0  0  0
 38140  1  0  0  0
 38141  1  0  0  0
 39 40  1  0  0  0
 39142  1  0  0  0
 39143  1  0  0  0
 40144  1  0  0  0
 40145  1  0  0  0
 41 42  1  0  0  0
 41146  1  0  0  0
 42 43  1  0  0  0
 42147  1  0  0  0
 42148  1  0  0  0
 43 44  2  0  0  0
 43 45  1  0  0  0
 45 46  1  0  0  0
 45149  1  0  0  0
 46 47  1  0  0  0
 46 49  1  0  0  0
 46150  1  0  0  0
 47 48  2  0  0  0
 47 50  1  0  0  0
 49151  1  0  0  0
 49152  1  0  0  0
 49153  1  0  0  0
 50 51  1  0  0  0
 50 56  1  0  0  0
 51 52  1  0  0  0
 51 54  1  0  0  0
 51154  1  0  0  0
 52 53  2  0  0  0
 52 57  1  0  0  0
 54 55  1  0  0  0
 54155  1  0  0  0
 54156  1  0  0  0
 55 56  1  0  0  0
 55157  1  0  0  0
 55158  1  0  0  0
 56159  1  0  0  0
 56160  1  0  0  0
 57 58  1  0  0  0
 57161  1  0  0  0
 58 59  1  0  0  0
 58 61  1  0  0  0
 58162  1  0  0  0
 59 60  2  0  0  0
 59 68  1  0  0  0
 61 62  1  0  0  0
 61163  1  0  0  0
 61164  1  0  0  0
 62 63  2  0  0  0
 62 64  1  0  0  0
 63 65  1  0  0  0
 63165  1  0  0  0
 64 66  2  0  0  0
 64166  1  0  0  0
 65 67  2  0  0  0
 65167  1  0  0  0
 66 67  1  0  0  0
 66168  1  0  0  0
 67169  1  0  0  0
 68 69  1  0  0  0
 68170  1  0  0  0
 69 70  1  0  0  0
 69171  1  0  0  0
 69172  1  0  0  0
 70 71  2  0  0  0
 70 72  1  0  0  0
 72 73  1  0  0  0
 72173  1  0  0  0
 73 74  1  0  0  0
 73 76  1  0  0  0
 73174  1  0  0  0
 74 75  2  0  0  0
 74 81  1  0  0  0
 76 77  1  0  0  0
 76175  1  0  0  0
 76176  1  0  0  0
 77 78  1  0  0  0
 77177  1  0  0  0
 77178  1  0  0  0
 78 79  2  0  0  0
 78 80  1  0  0  0
 80179  1  0  0  0
 80180  1  0  0  0
 81 82  1  0  0  0
 81 87  1  0  0  0
 82 83  1  0  0  0
 82 85  1  0  0  0
 82181  1  0  0  0
 83 84  2  0  0  0
 83 88  1  0  0  0
 85 86  1  0  0  0
 85182  1  0  0  0
 85183  1  0  0  0
 86 87  1  0  0  0
 86184  1  0  0  0
 86185  1  0  0  0
 87186  1  0  0  0
 87187  1  0  0  0
 88 89  1  0  0  0
 88 94  1  0  0  0
 89 90  1  0  0  0
 89 92  1  0  0  0
 89188  1  0  0  0
 90 91  2  0  0  0
 90 95  1  0  0  0
 92 93  1  0  0  0
 92189  1  0  0  0
 92190  1  0  0  0
 93 94  1  0  0  0
 93191  1  0  0  0
 93192  1  0  0  0
 94193  1  0  0  0
 94194  1  0  0  0
 95 96  1  0  0  0
 95195  1  0  0  0
 96 97  1  0  0  0
 96 99  1  0  0  0
 96196  1  0  0  0
 97 98  2  0  0  0
 97100  1  0  0  0
 99197  1  0  0  0
 99198  1  0  0  0
 99199  1  0  0  0
100200  1  0  0  0
M  CHG  1   1   1
M  END
> <s_m_source_file>
../4u0b_ligand.sdf

> <i_m_source_file_index>
1

> <s_epik_input>
W0NIMl0xW0NIMl1bQ0gyXVtOSDIrXVtDQEBIXTFDKD1PKVtOSF1bQ0BASF0oW0NIXShbQ0gzXSlbQ0gzXSlDKD1PKVtOSF1bQ0BASF0oW0NIMl1bQ0hdKFtDSDNdKVtDSDNdKUMoPU8pW05IXVtDQEBIXShbQ0gyXWMyW2NIXVtjSF1bY0hdW2NIXVtjSF0yKUMoPU8pTjNbQ0BASF0oW0NIMl1bQ0gyXVtDSDJdMylDKD1PKVtOSF1bQ0gyXUMoPU8pW05IXVtDQEBIXShbQ0gzXSlDKD1PKU40W0NAQEhdKFtDSDJdW0NIMl1bQ0gyXTQpQyg9TylbTkhdW0NAQEhdKFtDSDJdYzVbY0hdW2NIXVtjSF1bY0hdW2NIXTUpQyg9TylbTkhdW0NIMl1DKD1PKVtOSF1bQ0BASF0oW0NIMl1bQ0gyXUMoPU8pW05IMl0pQyg9TylONltDQEBIXShbQ0gyXVtDSDJdW0NIMl02KUMoPU8pTjdbQ0BASF0oW0NIMl1bQ0gyXVtDSDJdNylDKD1PKVtOSF1bQ0BASF0oW0NIM10pQyg9TylbT0hd

> <s_epik_cmdline>
J2VwaWtfYXBwJywgJy1pbWFlJywgJ2xpZ2FuZF9wcm8ubWFlJywgJy1vbWFlJywgJ2xpZ2FuZF9wcmVwLm1hZScsICctbXMnLCAnMScsICctcGgnLCAnNycsICctcGh0JywgJzAuNScsICctbnQn

> <s_epik_pKa_notes>
Molecule size exceeds maximum supported for generating protonation states

$$$$
