4u0c_ligand
                    3D
 Schrodinger Suite 2020-3.
123125  0  0  1  0            999 V2000
   -6.9180   64.3960    0.2880 N   0  3  0  0  0  0
   -8.3890   64.6380    0.3410 C   0  0  2  0  0  0
   -8.7210   66.0700   -0.0910 C   0  0  0  0  0  0
   -7.9100   66.9800    0.1010 O   0  0  0  0  0  0
   -8.9180   64.3800    1.7550 C   0  0  0  0  0  0
   -8.3720   65.3030    2.6820 O   0  0  0  0  0  0
   -9.9190   66.2770   -0.6690 N   0  0  0  0  0  0
  -10.3100   67.6270   -1.0920 C   0  0  2  0  0  0
  -10.4810   68.5860    0.0880 C   0  0  0  0  0  0
  -10.8160   68.1550    1.1920 O   0  0  0  0  0  0
  -11.6420   67.4030   -1.8190 C   0  0  0  0  0  0
  -12.1780   66.1220   -1.2790 C   0  0  0  0  0  0
  -10.9830   65.2850   -0.9150 C   0  0  0  0  0  0
  -10.2460   69.8730   -0.1530 N   0  0  0  0  0  0
  -10.2570   70.8850    0.9110 C   0  0  2  0  0  0
  -11.6490   71.3800    1.3350 C   0  0  0  0  0  0
  -11.7590   72.1200    2.3110 O   0  0  0  0  0  0
   -9.4160   72.0910    0.4830 C   0  0  0  0  0  0
   -9.9730   72.7160   -0.6610 O   0  0  0  0  0  0
  -12.6970   70.9940    0.6090 N   0  0  0  0  0  0
  -14.0580   71.4540    0.9150 C   0  0  0  0  0  0
  -14.4010   72.7370    0.1810 C   0  0  0  0  0  0
  -13.5280   73.3800   -0.4000 O   0  0  0  0  0  0
  -15.6740   73.1220    0.2300 N   0  0  0  0  0  0
  -16.1830   74.2310   -0.5840 C   0  0  2  0  0  0
  -16.7000   75.4210    0.2400 C   0  0  0  0  0  0
  -17.3350   76.3230   -0.3050 O   0  0  0  0  0  0
  -17.2800   73.7390   -1.5650 C   0  0  0  0  0  0
  -16.7470   72.5910   -2.4120 C   0  0  0  0  0  0
  -18.5570   73.3330   -0.8270 C   0  0  0  0  0  0
  -16.4090   75.4350    1.5410 N   0  0  0  0  0  0
  -16.8620   76.5180    2.4160 C   0  0  2  0  0  0
  -15.8990   77.7020    2.3450 C   0  0  0  0  0  0
  -15.0320   77.8740    3.2000 O   0  0  0  0  0  0
  -17.0290   76.0250    3.8560 C   0  0  0  0  0  0
  -18.2200   75.1260    4.0480 C   0  0  0  0  0  0
  -19.3970   75.6150    4.5980 C   0  0  0  0  0  0
  -18.1680   73.7930    3.6690 C   0  0  0  0  0  0
  -20.4980   74.7890    4.7710 C   0  0  0  0  0  0
  -19.2650   72.9630    3.8360 C   0  0  0  0  0  0
  -20.4320   73.4620    4.3900 C   0  0  0  0  0  0
  -16.0760   78.5150    1.3090 N   0  0  0  0  0  0
  -15.2200   79.6750    1.0550 C   0  0  2  0  0  0
  -15.1350   80.6030    2.2610 C   0  0  0  0  0  0
  -14.0550   81.0950    2.5940 O   0  0  0  0  0  0
  -15.7340   80.4720   -0.1600 C   0  0  2  0  0  0
  -15.8850   79.5850   -1.2760 O   0  0  0  0  0  0
  -14.7710   81.6110   -0.5260 C   0  0  0  0  0  0
  -16.2780   80.8380    2.9020 N   0  0  0  0  0  0
  -16.3620   81.7000    4.0720 C   0  0  2  0  0  0
  -16.5180   80.8740    5.3460 C   0  0  0  0  0  0
  -17.2340   79.8720    5.3620 O   0  0  0  0  0  0
  -17.5370   82.6660    3.9220 C   0  0  0  0  0  0
  -17.4740   83.5060    2.6790 C   0  0  0  0  0  0
  -16.8020   84.7190    2.6820 C   0  0  0  0  0  0
  -18.0830   83.0820    1.5050 C   0  0  0  0  0  0
  -16.7420   85.4960    1.5360 C   0  0  0  0  0  0
  -18.0250   83.8510    0.3570 C   0  0  0  0  0  0
  -17.3530   85.0590    0.3730 C   0  0  0  0  0  0
  -15.8460   81.3020    6.4140 N   0  0  0  0  0  0
  -15.9350   80.6300    7.7110 C   0  0  0  0  0  0
  -15.0990   79.3670    7.7870 C   0  0  0  0  0  0
  -14.1230   79.2140    7.0560 O   0  0  0  0  0  0
  -15.4087   78.4639    8.6093 O   0  5  0  0  0  0
   -6.5519   64.5848   -0.7320 H   0  0  0  0  0  0
   -6.7078   63.3526    0.5658 H   0  0  0  0  0  0
   -6.4096   65.0722    0.9911 H   0  0  0  0  0  0
   -8.8516   63.9312   -0.3635 H   0  0  0  0  0  0
  -10.0132   64.4824    1.7611 H   0  0  0  0  0  0
   -8.6431   63.3623    2.0693 H   0  0  0  0  0  0
   -8.6550   65.2489    3.7436 H   0  0  0  0  0  0
   -9.5175   68.0653   -1.7163 H   0  0  0  0  0  0
  -12.3202   68.2432   -1.6089 H   0  0  0  0  0  0
  -11.4622   67.3390   -2.9023 H   0  0  0  0  0  0
  -12.7997   66.3282   -0.3953 H   0  0  0  0  0  0
  -12.7878   65.6262   -2.0487 H   0  0  0  0  0  0
  -10.6787   64.6164   -1.7338 H   0  0  0  0  0  0
  -11.1516   64.6942   -0.0026 H   0  0  0  0  0  0
  -10.0383   70.1693   -1.1918 H   0  0  0  0  0  0
   -9.8269   70.3362    1.7617 H   0  0  0  0  0  0
   -9.3803   72.8228    1.3035 H   0  0  0  0  0  0
   -8.3951   71.7594    0.2428 H   0  0  0  0  0  0
   -9.4860   73.6012   -1.0961 H   0  0  0  0  0  0
  -12.5238   70.3136   -0.2378 H   0  0  0  0  0  0
  -14.7820   70.6820    0.6153 H   0  0  0  0  0  0
  -14.1476   71.6411    1.9953 H   0  0  0  0  0  0
  -16.3511   72.5808    0.9072 H   0  0  0  0  0  0
  -15.2824   74.5660   -1.1195 H   0  0  0  0  0  0
  -17.5537   74.5624   -2.2411 H   0  0  0  0  0  0
  -15.8308   72.9117   -2.9294 H   0  0  0  0  0  0
  -17.5049   72.3005   -3.1545 H   0  0  0  0  0  0
  -16.5204   71.7316   -1.7638 H   0  0  0  0  0  0
  -18.9177   74.1801   -0.2251 H   0  0  0  0  0  0
  -18.3435   72.4790   -0.1673 H   0  0  0  0  0  0
  -19.3280   73.0479   -1.5579 H   0  0  0  0  0  0
  -15.8138   74.6071    1.9536 H   0  0  0  0  0  0
  -17.8439   76.8262    2.0276 H   0  0  0  0  0  0
  -16.1358   75.4567    4.1549 H   0  0  0  0  0  0
  -17.1561   76.8877    4.5265 H   0  0  0  0  0  0
  -19.4569   76.6613    4.8977 H   0  0  0  0  0  0
  -17.2521   73.3929    3.2340 H   0  0  0  0  0  0
  -21.4146   75.1862    5.2071 H   0  0  0  0  0  0
  -19.2094   71.9179    3.5315 H   0  0  0  0  0  0
  -21.2954   72.8106    4.5251 H   0  0  0  0  0  0
  -16.9081   78.2857    0.6271 H   0  0  0  0  0  0
  -14.2280   79.2388    0.8659 H   0  0  0  0  0  0
  -16.7342   80.8831    0.0414 H   0  0  0  0  0  0
  -16.5418   78.7063   -1.1952 H   0  0  0  0  0  0
  -14.6596   82.2876    0.3341 H   0  0  0  0  0  0
  -15.1739   82.1707   -1.3830 H   0  0  0  0  0  0
  -13.7898   81.1905   -0.7913 H   0  0  0  0  0  0
  -17.1834   80.3493    2.5127 H   0  0  0  0  0  0
  -15.4105   82.2509    4.1071 H   0  0  0  0  0  0
  -18.4774   82.0965    3.8846 H   0  0  0  0  0  0
  -17.5585   83.3534    4.7805 H   0  0  0  0  0  0
  -16.3163   85.0647    3.5945 H   0  0  0  0  0  0
  -18.6139   82.1302    1.4882 H   0  0  0  0  0  0
  -16.2145   86.4498    1.5503 H   0  0  0  0  0  0
  -18.5075   83.5058   -0.5574 H   0  0  0  0  0  0
  -17.3042   85.6675   -0.5300 H   0  0  0  0  0  0
  -15.2086   82.1910    6.2977 H   0  0  0  0  0  0
  -15.5831   81.3097    8.5010 H   0  0  0  0  0  0
  -16.9802   80.3493    7.9076 H   0  0  0  0  0  0
  1  2  1  0  0  0
  1 65  1  0  0  0
  1 66  1  0  0  0
  1 67  1  0  0  0
  2  3  1  0  0  0
  2  5  1  0  0  0
  2 68  1  0  0  0
  3  4  2  0  0  0
  3  7  1  0  0  0
  5  6  1  0  0  0
  5 69  1  0  0  0
  5 70  1  0  0  0
  6 71  1  0  0  0
  7  8  1  0  0  0
  7 13  1  0  0  0
  8  9  1  0  0  0
  8 11  1  0  0  0
  8 72  1  0  0  0
  9 10  2  0  0  0
  9 14  1  0  0  0
 11 12  1  0  0  0
 11 73  1  0  0  0
 11 74  1  0  0  0
 12 13  1  0  0  0
 12 75  1  0  0  0
 12 76  1  0  0  0
 13 77  1  0  0  0
 13 78  1  0  0  0
 14 15  1  0  0  0
 14 79  1  0  0  0
 15 16  1  0  0  0
 15 18  1  0  0  0
 15 80  1  0  0  0
 16 17  2  0  0  0
 16 20  1  0  0  0
 18 19  1  0  0  0
 18 81  1  0  0  0
 18 82  1  0  0  0
 19 83  1  0  0  0
 20 21  1  0  0  0
 20 84  1  0  0  0
 21 22  1  0  0  0
 21 85  1  0  0  0
 21 86  1  0  0  0
 22 23  2  0  0  0
 22 24  1  0  0  0
 24 25  1  0  0  0
 24 87  1  0  0  0
 25 26  1  0  0  0
 25 28  1  0  0  0
 25 88  1  0  0  0
 26 27  2  0  0  0
 26 31  1  0  0  0
 28 29  1  0  0  0
 28 30  1  0  0  0
 28 89  1  0  0  0
 29 90  1  0  0  0
 29 91  1  0  0  0
 29 92  1  0  0  0
 30 93  1  0  0  0
 30 94  1  0  0  0
 30 95  1  0  0  0
 31 32  1  0  0  0
 31 96  1  0  0  0
 32 33  1  0  0  0
 32 35  1  0  0  0
 32 97  1  0  0  0
 33 34  2  0  0  0
 33 42  1  0  0  0
 35 36  1  0  0  0
 35 98  1  0  0  0
 35 99  1  0  0  0
 36 37  2  0  0  0
 36 38  1  0  0  0
 37 39  1  0  0  0
 37100  1  0  0  0
 38 40  2  0  0  0
 38101  1  0  0  0
 39 41  2  0  0  0
 39102  1  0  0  0
 40 41  1  0  0  0
 40103  1  0  0  0
 41104  1  0  0  0
 42 43  1  0  0  0
 42105  1  0  0  0
 43 44  1  0  0  0
 43 46  1  0  0  0
 43106  1  0  0  0
 44 45  2  0  0  0
 44 49  1  0  0  0
 46 47  1  0  0  0
 46 48  1  0  0  0
 46107  1  0  0  0
 47108  1  0  0  0
 48109  1  0  0  0
 48110  1  0  0  0
 48111  1  0  0  0
 49 50  1  0  0  0
 49112  1  0  0  0
 50 51  1  0  0  0
 50 53  1  0  0  0
 50113  1  0  0  0
 51 52  2  0  0  0
 51 60  1  0  0  0
 53 54  1  0  0  0
 53114  1  0  0  0
 53115  1  0  0  0
 54 55  2  0  0  0
 54 56  1  0  0  0
 55 57  1  0  0  0
 55116  1  0  0  0
 56 58  2  0  0  0
 56117  1  0  0  0
 57 59  2  0  0  0
 57118  1  0  0  0
 58 59  1  0  0  0
 58119  1  0  0  0
 59120  1  0  0  0
 60 61  1  0  0  0
 60121  1  0  0  0
 61 62  1  0  0  0
 61122  1  0  0  0
 61123  1  0  0  0
 62 63  2  0  0  0
 62 64  1  0  0  0
M  CHG  2   1   1  64  -1
M  END
> <s_m_source_file>
../4u0c_ligand.sdf

> <i_m_source_file_index>
1

> <s_epik_input>
W09IXVtDSDJdW0NASF0oW05IMytdKUMoPU8pTjFbQ0BASF0oW0NIMl1bQ0gyXVtDSDJdMSlDKD1PKVtOSF1bQ0BASF0oW0NIMl1bT0hdKUMoPU8pW05IXVtDSDJdQyg9TylbTkhdW0NAQEhdKFtDSF0oW0NIM10pW0NIM10pQyg9TylbTkhdW0NAQEhdKFtDSDJdYzJbY0hdW2NIXVtjSF1bY0hdW2NIXTIpQyg9TylbTkhdW0NAQEhdKFtDQEhdKFtPSF0pW0NIM10pQyg9TylbTkhdW0NASF0oQyg9TylbTkhdW0NIMl1DKD1PKVtPSF0pW0NIMl1jM1tjSF1bY0hdW2NIXVtjSF1bY0hdMw==

> <s_epik_cmdline>
J2VwaWtfYXBwJywgJy1pbWFlJywgJ2xpZ2FuZF9wcm8ubWFlJywgJy1vbWFlJywgJ2xpZ2FuZF9wcmVwLm1hZScsICctbXMnLCAnMScsICctcGgnLCAnNycsICctcGh0JywgJzAuNScsICctbnQn

> <r_epik_Ionization_Penalty>
  0.1415

> <r_epik_Ionization_Penalty_Charging>
  0.1415

> <r_epik_Ionization_Penalty_Neutral>
  0.0000

> <r_epik_State_Penalty>
  0.1306

> <r_epik_Charging_Adjusted_Penalty>
0.272043911269833

> <i_epik_Tot_Q>
0

> <i_epik_Tot_abs_Q>
2

$$$$
