4u0g_ligand
                    3D
 Schrodinger Suite 2020-3.
113117  0  0  1  0            999 V2000
  -75.8970   16.6220   54.3950 O   0  0  0  0  0  0
  -75.1790   15.6180   54.4970 C   0  0  0  0  0  0
  -73.8110   15.5460   53.9480 C   0  0  0  0  0  0
  -73.2780   16.5680   53.3260 C   0  0  0  0  0  0
  -71.9010   16.5780   52.7510 C   0  0  0  0  0  0
  -71.1220   17.8350   53.1010 C   0  0  1  0  0  0
  -70.9480   17.9280   54.6130 C   0  0  0  0  0  0
  -69.8220   17.8450   52.4060 C   0  0  0  0  0  0
  -69.8260   17.6900   50.9040 C   0  0  0  0  0  0
  -76.8530   14.9210   57.1600 C   0  0  0  0  0  0
  -75.6010   14.5040   55.1140 N   0  0  0  0  0  0
  -76.7010   14.1310   58.0870 O   0  0  0  0  0  0
  -79.8060   12.7390   51.4610 F   0  0  0  0  0  0
  -75.6840   10.5600   51.8470 F   0  0  0  0  0  0
  -76.9120   14.4130   55.7250 C   0  0  1  0  0  0
  -77.4250   12.9670   55.6820 C   0  0  0  0  0  0
  -77.5640   12.4550   54.2720 C   0  0  0  0  0  0
  -77.7460   11.6400   51.6020 C   0  0  0  0  0  0
  -78.6710   12.7990   53.5060 C   0  0  0  0  0  0
  -76.5570   11.6870   53.7020 C   0  0  0  0  0  0
  -78.7250   12.3850   52.2010 C   0  0  0  0  0  0
  -76.6780   11.3070   52.3920 C   0  0  0  0  0  0
  -76.9470   16.2450   57.3270 N   0  0  0  0  0  0
  -76.6850   16.8770   58.6080 C   0  0  2  0  0  0
  -77.8370   17.8370   58.9280 C   0  0  0  0  0  0
  -78.2440   18.6360   58.0850 O   0  0  0  0  0  0
  -75.2810   17.4930   58.6200 C   0  0  2  0  0  0
  -74.1890   16.5160   58.6590 O   0  0  0  0  0  0
  -75.0820   18.5160   59.7130 C   0  0  0  0  0  0
  -78.4170   17.7470   60.1420 N   0  0  0  0  0  0
  -78.0310   16.7560   61.1580 C   0  0  2  0  0  0
  -78.4460   15.3370   60.7440 C   0  0  0  0  0  0
  -79.2200   15.1930   59.8170 O   0  0  0  0  0  0
  -78.8000   17.2100   62.4040 C   0  0  0  0  0  0
  -80.0060   17.9270   61.8530 C   0  0  0  0  0  0
  -79.4900   18.6340   60.6220 C   0  0  0  0  0  0
  -77.9460   14.2760   61.4090 N   0  0  0  0  0  0
  -74.8700   12.7390   62.4330 O   0  0  0  0  0  0
  -76.7040   14.2510   62.1920 C   0  0  2  0  0  0
  -75.5960   13.3440   61.6500 C   0  0  0  0  0  0
  -77.0300   13.8810   63.6370 C   0  0  0  0  0  0
  -77.6950   12.5130   63.6900 C   0  0  1  0  0  0
  -77.9910   12.0940   65.1240 C   0  0  0  0  0  0
  -78.9460   12.5400   62.8340 C   0  0  0  0  0  0
  -78.6570   12.9920   61.4050 C   0  0  0  0  0  0
  -75.4740   13.2420   60.3200 N   0  0  0  0  0  0
  -74.5080   12.3350   59.7190 C   0  0  2  0  0  0
  -74.0140   12.8290   58.3530 C   0  0  0  0  0  0
  -73.9180   12.0440   57.4290 O   0  0  0  0  0  0
  -75.1230   10.9540   59.5460 C   0  0  0  0  0  0
  -73.2540   13.9340   58.4150 N   0  0  0  0  0  0
  -73.0020   14.6890   59.6400 C   0  0  2  0  0  0
  -73.9730   15.8500   59.8110 C   0  0  0  0  0  0
  -74.4970   16.1140   60.8540 O   0  0  0  0  0  0
  -71.5650   15.1760   59.4470 C   0  0  0  0  0  0
  -71.4240   15.3460   57.9400 C   0  0  0  0  0  0
  -72.4900   14.4770   57.2820 C   0  0  0  0  0  0
  -73.2375   14.6150   54.0679 H   0  0  0  0  0  0
  -73.8539   17.4968   53.2004 H   0  0  0  0  0  0
  -71.3364   15.7162   53.1365 H   0  0  0  0  0  0
  -71.9611   16.5161   51.6544 H   0  0  0  0  0  0
  -71.6582   18.7253   52.7407 H   0  0  0  0  0  0
  -71.9357   17.9179   55.0970 H   0  0  0  0  0  0
  -70.4256   18.8626   54.8652 H   0  0  0  0  0  0
  -70.3571   17.0706   54.9675 H   0  0  0  0  0  0
  -69.3123   18.8012   52.5955 H   0  0  0  0  0  0
  -69.2003   17.0178   52.7792 H   0  0  0  0  0  0
  -68.7919   17.7164   50.5299 H   0  0  0  0  0  0
  -70.4005   18.5120   50.4521 H   0  0  0  0  0  0
  -70.2885   16.7287   50.6358 H   0  0  0  0  0  0
  -74.9176   13.6427   55.1476 H   0  0  0  0  0  0
  -77.5685   15.0619   55.1267 H   0  0  0  0  0  0
  -76.7206   12.3120   56.2157 H   0  0  0  0  0  0
  -78.4123   12.9137   56.1640 H   0  0  0  0  0  0
  -77.8121   11.3303   50.5590 H   0  0  0  0  0  0
  -79.4817   13.3875   53.9354 H   0  0  0  0  0  0
  -75.6859   11.3920   54.2870 H   0  0  0  0  0  0
  -77.2319   16.8581   56.4593 H   0  0  0  0  0  0
  -76.6768   16.1013   59.3878 H   0  0  0  0  0  0
  -75.1825   17.9899   57.6436 H   0  0  0  0  0  0
  -75.9019   19.2488   59.6830 H   0  0  0  0  0  0
  -74.1228   19.0326   59.5614 H   0  0  0  0  0  0
  -75.0765   18.0117   60.6906 H   0  0  0  0  0  0
  -76.9386   16.7379   61.2860 H   0  0  0  0  0  0
  -79.0802   16.3307   63.0025 H   0  0  0  0  0  0
  -78.1633   17.8753   63.0057 H   0  0  0  0  0  0
  -80.7888   17.1937   61.6090 H   0  0  0  0  0  0
  -80.3873   18.6340   62.6045 H   0  0  0  0  0  0
  -79.0711   19.6247   60.8524 H   0  0  0  0  0  0
  -80.2596   18.7336   59.8424 H   0  0  0  0  0  0
  -76.3262   15.2794   62.0934 H   0  0  0  0  0  0
  -76.1019   13.8541   64.2269 H   0  0  0  0  0  0
  -77.7132   14.6309   64.0623 H   0  0  0  0  0  0
  -77.0100   11.7550   63.2823 H   0  0  0  0  0  0
  -77.0568   12.0890   65.7048 H   0  0  0  0  0  0
  -78.4307   11.0857   65.1280 H   0  0  0  0  0  0
  -78.6993   12.8047   65.5748 H   0  0  0  0  0  0
  -79.3831   11.5315   62.7916 H   0  0  0  0  0  0
  -79.6751   13.2374   63.2721 H   0  0  0  0  0  0
  -79.6087   13.1016   60.8643 H   0  0  0  0  0  0
  -78.0378   12.2315   60.9068 H   0  0  0  0  0  0
  -76.1208   13.8597   59.6796 H   0  0  0  0  0  0
  -73.6753   12.3197   60.4376 H   0  0  0  0  0  0
  -75.4816   10.5878   60.5193 H   0  0  0  0  0  0
  -74.3649   10.2620   59.1505 H   0  0  0  0  0  0
  -75.9670   11.0139   58.8431 H   0  0  0  0  0  0
  -73.1540   14.0547   60.5258 H   0  0  0  0  0  0
  -71.4247   16.1260   59.9834 H   0  0  0  0  0  0
  -70.8667   14.4243   59.8437 H   0  0  0  0  0  0
  -71.5712   16.4034   57.6749 H   0  0  0  0  0  0
  -70.4191   15.0261   57.6273 H   0  0  0  0  0  0
  -72.0522   13.6493   56.7047 H   0  0  0  0  0  0
  -73.1600   15.0615   56.6344 H   0  0  0  0  0  0
  1  2  2  0  0  0
  2  3  1  0  0  0
  2 11  1  0  0  0
  3  4  2  0  0  0
  3 58  1  0  0  0
  4  5  1  0  0  0
  4 59  1  0  0  0
  5  6  1  0  0  0
  5 60  1  0  0  0
  5 61  1  0  0  0
  6  7  1  0  0  0
  6  8  1  0  0  0
  6 62  1  0  0  0
  7 63  1  0  0  0
  7 64  1  0  0  0
  7 65  1  0  0  0
  8  9  1  0  0  0
  8 66  1  0  0  0
  8 67  1  0  0  0
  9 68  1  0  0  0
  9 69  1  0  0  0
  9 70  1  0  0  0
 10 12  2  0  0  0
 10 15  1  0  0  0
 10 23  1  0  0  0
 11 15  1  0  0  0
 11 71  1  0  0  0
 13 21  1  0  0  0
 14 22  1  0  0  0
 15 16  1  0  0  0
 15 72  1  0  0  0
 16 17  1  0  0  0
 16 73  1  0  0  0
 16 74  1  0  0  0
 17 19  2  0  0  0
 17 20  1  0  0  0
 18 21  2  0  0  0
 18 22  1  0  0  0
 18 75  1  0  0  0
 19 21  1  0  0  0
 19 76  1  0  0  0
 20 22  2  0  0  0
 20 77  1  0  0  0
 23 24  1  0  0  0
 23 78  1  0  0  0
 24 25  1  0  0  0
 24 27  1  0  0  0
 24 79  1  0  0  0
 25 26  2  0  0  0
 25 30  1  0  0  0
 27 28  1  0  0  0
 27 29  1  0  0  0
 27 80  1  0  0  0
 28 53  1  0  0  0
 29 81  1  0  0  0
 29 82  1  0  0  0
 29 83  1  0  0  0
 30 31  1  0  0  0
 30 36  1  0  0  0
 31 32  1  0  0  0
 31 34  1  0  0  0
 31 84  1  0  0  0
 32 33  2  0  0  0
 32 37  1  0  0  0
 34 35  1  0  0  0
 34 85  1  0  0  0
 34 86  1  0  0  0
 35 36  1  0  0  0
 35 87  1  0  0  0
 35 88  1  0  0  0
 36 89  1  0  0  0
 36 90  1  0  0  0
 37 39  1  0  0  0
 37 45  1  0  0  0
 38 40  2  0  0  0
 39 40  1  0  0  0
 39 41  1  0  0  0
 39 91  1  0  0  0
 40 46  1  0  0  0
 41 42  1  0  0  0
 41 92  1  0  0  0
 41 93  1  0  0  0
 42 43  1  0  0  0
 42 44  1  0  0  0
 42 94  1  0  0  0
 43 95  1  0  0  0
 43 96  1  0  0  0
 43 97  1  0  0  0
 44 45  1  0  0  0
 44 98  1  0  0  0
 44 99  1  0  0  0
 45100  1  0  0  0
 45101  1  0  0  0
 46 47  1  0  0  0
 46102  1  0  0  0
 47 48  1  0  0  0
 47 50  1  0  0  0
 47103  1  0  0  0
 48 49  2  0  0  0
 48 51  1  0  0  0
 50104  1  0  0  0
 50105  1  0  0  0
 50106  1  0  0  0
 51 52  1  0  0  0
 51 57  1  0  0  0
 52 53  1  0  0  0
 52 55  1  0  0  0
 52107  1  0  0  0
 53 54  2  0  0  0
 55 56  1  0  0  0
 55108  1  0  0  0
 55109  1  0  0  0
 56 57  1  0  0  0
 56110  1  0  0  0
 56111  1  0  0  0
 57112  1  0  0  0
 57113  1  0  0  0
M  END
> <s_m_source_file>
../4u0g_ligand.sdf

> <i_m_source_file_index>
1

> <s_epik_input>
W0NIM11bQ0gyXVtDQEhdKFtDSDNdKVtDSDJdXFtDSF09W0NIXVxDKD1PKVtOSF1bQ0BASF0oW0NIMl1jMVtjSF1jKEYpW2NIXWMoRilbY0hdMSlDKD1PKVtOSF1bQ0BIXShDMj1PKVtDQEBIXShbQ0gzXSlPQyg9TylbQ0BIXShbQ0gyXVtDSDJdW0NIMl0zKU4zQyg9TylbQ0BIXShbQ0gzXSlbTkhdQyg9TylbQ0BIXShbQ0gyXVtDQEBIXShbQ0gzXSlbQ0gyXVtDSDJdNClONEMoPU8pW0NAQEhdKE4yNSlbQ0gyXVtDSDJdW0NIMl01

> <s_epik_cmdline>
J2VwaWtfYXBwJywgJy1pbWFlJywgJ2xpZ2FuZF9wcm8ubWFlJywgJy1vbWFlJywgJ2xpZ2FuZF9wcmVwLm1hZScsICctbXMnLCAnMScsICctcGgnLCAnNycsICctcGh0JywgJzAuNScsICctbnQn

> <r_lp_tautomer_probability>
1

> <r_epik_Ionization_Penalty>
  0.0000

> <r_epik_Ionization_Penalty_Charging>
  0.0000

> <r_epik_Ionization_Penalty_Neutral>
  0.0000

> <r_epik_State_Penalty>
 -0.0000

> <r_epik_Charging_Adjusted_Penalty>
0

> <i_epik_Tot_Q>
0

> <i_epik_Tot_abs_Q>
0

> <s_epik_Chemistry_Notes>
This compound has an ester and may undergo hydrolysis at high or low pH.

$$$$
