4u0i_ligand
                    3D
 Schrodinger Suite 2020-3.
 67 71  0  0  1  0            999 V2000
   34.5450   14.9950   38.5350 N   0  0  0  0  0  0
   35.3820    6.6870   52.5870 N   0  3  1  0  0  0
   35.2620   10.9050   40.8230 C   0  0  0  0  0  0
   34.9380    9.6780   41.5510 C   0  0  0  0  0  0
   34.4960    8.4170   40.9130 C   0  0  0  0  0  0
   34.1880    7.2550   41.7570 C   0  0  0  0  0  0
   34.3190    7.3560   43.2100 C   0  0  0  0  0  0
   35.0580    9.7460   42.9550 C   0  0  0  0  0  0
   34.6850    7.7090   47.4910 C   0  0  0  0  0  0
   34.9570    6.4910   49.6580 C   0  0  0  0  0  0
   33.9920    8.8310   49.6560 C   0  0  0  0  0  0
   34.3120    7.4800   51.9630 C   0  0  0  0  0  0
   36.7400    7.3360   52.5280 C   0  0  0  0  0  0
   37.8400    6.3420   53.0320 C   0  0  0  0  0  0
   35.0350    6.1990   53.9750 C   0  0  0  0  0  0
   36.8240   15.9620   37.9630 C   0  0  0  0  0  0
   38.1890   15.6700   38.1020 C   0  0  0  0  0  0
   38.6010   14.4420   38.7700 C   0  0  0  0  0  0
   37.7650   13.5240   39.2940 N   0  0  0  0  0  0
   36.4350   13.8600   39.1340 N   0  0  0  0  0  0
   35.8650   15.0310   38.4970 C   0  0  0  0  0  0
   34.2230   13.8230   39.1930 C   0  0  0  0  0  0
   35.3520   13.1430   39.5490 C   0  0  0  0  0  0
   35.3660   11.9400   40.2250 C   0  0  0  0  0  0
   34.7600    8.6200   43.8100 C   0  0  0  0  0  0
   34.3390    8.2910   39.3860 C   0  0  0  0  0  0
   34.9140    8.8350   45.2770 C   0  0  0  0  0  0
   35.0780    9.9780   45.6940 O   0  0  0  0  0  0
   34.8330    7.7340   46.0670 N   0  0  0  0  0  0
   35.0950    6.5350   48.2150 C   0  0  0  0  0  0
   34.4140    7.6170   50.4070 C   0  0  0  0  0  0
   34.1410    8.8330   48.2360 C   0  0  0  0  0  0
   33.4080   10.1070   50.3060 C   0  0  0  0  0  0
   34.3540   10.7030   51.0250 F   0  0  0  0  0  0
   32.9700   10.9910   49.4120 F   0  0  0  0  0  0
   32.3530    9.7900   51.0610 F   0  0  0  0  0  0
   36.1900    5.3120   54.6120 C   0  0  0  0  0  0
   38.6690    5.1440   55.0120 C   0  0  0  0  0  0
   37.5700    5.9440   54.4460 N   0  0  1  0  0  0
   35.4366    5.8034   51.9341 H   0  0  0  0  0  0
   33.8626    6.3197   41.3015 H   0  0  0  0  0  0
   34.0906    6.4983   43.8427 H   0  0  0  0  0  0
   35.3868   10.6801   43.4104 H   0  0  0  0  0  0
   35.2668    5.5945   50.1951 H   0  0  0  0  0  0
   33.3386    7.0140   52.1757 H   0  0  0  0  0  0
   34.3266    8.5013   52.3715 H   0  0  0  0  0  0
   36.9642    7.6234   51.4902 H   0  0  0  0  0  0
   36.7462    8.2320   53.1661 H   0  0  0  0  0  0
   37.8389    5.4423   52.3992 H   0  0  0  0  0  0
   38.8256    6.8274   52.9774 H   0  0  0  0  0  0
   34.8663    7.0622   54.6356 H   0  0  0  0  0  0
   34.1220    5.5870   53.9309 H   0  0  0  0  0  0
   36.4971   16.8732   37.4620 H   0  0  0  0  0  0
   38.9384   16.3587   37.7120 H   0  0  0  0  0  0
   39.6709   14.2507   38.8524 H   0  0  0  0  0  0
   33.2067   13.4875   39.3995 H   0  0  0  0  0  0
   34.6085    9.2452   38.9097 H   0  0  0  0  0  0
   33.2952    8.0423   39.1440 H   0  0  0  0  0  0
   35.0012    7.4955   39.0137 H   0  0  0  0  0  0
   34.8925    6.7911   45.5036 H   0  0  0  0  0  0
   35.5086    5.6802   47.6798 H   0  0  0  0  0  0
   33.8319    9.7203   47.6835 H   0  0  0  0  0  0
   36.0028    5.1843   55.6884 H   0  0  0  0  0  0
   36.2074    4.3266   54.1234 H   0  0  0  0  0  0
   39.6235    5.6667   54.8513 H   0  0  0  0  0  0
   38.7007    4.1623   54.5168 H   0  0  0  0  0  0
   38.5038    5.0054   56.0907 H   0  0  0  0  0  0
  1 21  2  0  0  0
  1 22  1  0  0  0
  2 12  1  0  0  0
  2 13  1  0  0  0
  2 15  1  0  0  0
  2 40  1  0  0  0
  3  4  1  0  0  0
  3 24  3  0  0  0
  4  5  2  0  0  0
  4  8  1  0  0  0
  5  6  1  0  0  0
  5 26  1  0  0  0
  6  7  2  0  0  0
  6 41  1  0  0  0
  7 25  1  0  0  0
  7 42  1  0  0  0
  8 25  2  0  0  0
  8 43  1  0  0  0
  9 29  1  0  0  0
  9 30  2  0  0  0
  9 32  1  0  0  0
 10 30  1  0  0  0
 10 31  2  0  0  0
 10 44  1  0  0  0
 11 31  1  0  0  0
 11 32  2  0  0  0
 11 33  1  0  0  0
 12 31  1  0  0  0
 12 45  1  0  0  0
 12 46  1  0  0  0
 13 14  1  0  0  0
 13 47  1  0  0  0
 13 48  1  0  0  0
 14 39  1  0  0  0
 14 49  1  0  0  0
 14 50  1  0  0  0
 15 37  1  0  0  0
 15 51  1  0  0  0
 15 52  1  0  0  0
 16 17  2  0  0  0
 16 21  1  0  0  0
 16 53  1  0  0  0
 17 18  1  0  0  0
 17 54  1  0  0  0
 18 19  2  0  0  0
 18 55  1  0  0  0
 19 20  1  0  0  0
 20 21  1  0  0  0
 20 23  1  0  0  0
 22 23  2  0  0  0
 22 56  1  0  0  0
 23 24  1  0  0  0
 25 27  1  0  0  0
 26 57  1  0  0  0
 26 58  1  0  0  0
 26 59  1  0  0  0
 27 28  2  0  0  0
 27 29  1  0  0  0
 29 60  1  0  0  0
 30 61  1  0  0  0
 32 62  1  0  0  0
 33 34  1  0  0  0
 33 35  1  0  0  0
 33 36  1  0  0  0
 37 39  1  0  0  0
 37 63  1  0  0  0
 37 64  1  0  0  0
 38 39  1  0  0  0
 38 65  1  0  0  0
 38 66  1  0  0  0
 38 67  1  0  0  0
M  CHG  1   2   1
M  END
> <s_m_source_file>
../4u0i_ligand.sdf

> <i_m_source_file_index>
1

> <s_epik_input>
bjFbY0hdW2NIXVtjSF1jKG4xMiluW2NIXWMyQyNDYzNjKFtDSDNdKVtjSF1bY0hdYyhbY0hdMylDKD1PKVtOSF1jNFtjSF1bY0hdYyhjKFtjSF00KUMoRikoRilGKVtDSDJdW05ASCtdNVtDSDJdW0NIMl1bTkBIK10oW0NIM10pW0NIMl1bQ0gyXTU=

> <s_epik_cmdline>
J2VwaWtfYXBwJywgJy1pbWFlJywgJ2xpZ2FuZF9wcm8ubWFlJywgJy1vbWFlJywgJ2xpZ2FuZF9wcmVwLm1hZScsICctbXMnLCAnMScsICctcGgnLCAnNycsICctcGh0JywgJzAuNScsICctbnQn

> <r_lp_tautomer_probability>
1

> <r_epik_Ionization_Penalty>
  0.0174

> <r_epik_Ionization_Penalty_Charging>
  0.0155

> <r_epik_Ionization_Penalty_Neutral>
  0.0020

> <r_epik_State_Penalty>
 -0.0000

> <r_epik_Charging_Adjusted_Penalty>
0.0154526225118262

> <i_epik_Tot_Q>
1

> <i_epik_Tot_abs_Q>
1

$$$$
