4u0m_ligand
                    3D
 Schrodinger Suite 2020-3.
 73 75  0  0  1  0            999 V2000
   69.3290    9.9930  168.9000 O   0  0  0  0  0  0
   68.1370   10.3400  169.0750 C   0  0  0  0  0  0
   67.3610    9.6070  169.7470 O   0  5  0  0  0  0
   67.6380   11.6230  168.4870 C   0  0  2  0  0  0
   66.5760   11.3210  167.4380 C   0  0  0  0  0  0
   66.3970   12.5290  166.4960 C   0  0  0  0  0  0
   65.2230   12.2480  165.5380 C   0  0  0  0  0  0
   64.6080   11.2140  165.6370 O   0  0  0  0  0  0
   68.7230   12.3060  167.8500 N   0  0  0  0  0  0
   69.5660   13.2390  168.5720 C   0  0  0  0  0  0
   69.3770   13.4710  169.7540 O   0  0  0  0  0  0
   70.7040   13.9310  167.8030 C   0  0  0  0  0  0
   71.1930   13.3170  166.4970 C   0  0  0  0  0  0
   72.1940   13.9150  165.7960 C   0  0  0  0  0  0
   72.8240   15.1990  166.3190 C   0  0  0  0  0  0
   72.3880   15.7490  167.4790 C   0  0  0  0  0  0
   71.2580   15.0770  168.2680 C   0  0  0  0  0  0
   73.8810   15.8320  165.5730 N   0  0  0  0  0  0
   73.9070   15.7280  164.1410 C   0  0  0  0  0  0
   72.6640   16.3580  163.5320 C   0  0  2  0  0  0
   72.7400   16.2600  162.1030 N   0  0  3  0  0  0
   72.5720   17.8150  163.8710 C   0  0  0  0  0  0
   73.5480   18.6090  163.1980 N   0  0  0  0  0  0
   74.1330   18.1690  161.9830 C   0  0  0  0  0  0
   73.7570   17.0340  161.4350 C   0  0  1  0  0  0
   75.0960   18.8750  161.3340 N   0  0  0  0  0  0
   75.7860   18.6350  160.1730 C   0  0  0  0  0  0
   76.7750   19.5510  159.6860 N   0  0  0  0  0  0
   75.5020   17.5110  159.5160 N   0  3  0  0  0  0
   74.4480   16.5990  160.0940 C   0  0  1  0  0  0
   74.1060   15.4030  159.4500 O   0  5  0  0  0  0
   64.8700   13.2070  164.5200 N   0  0  0  0  0  0
   63.7930   12.9270  163.6330 C   0  0  2  0  0  0
   64.3490   12.2250  162.4260 C   0  0  0  0  0  0
   63.6230   12.0140  161.4150 O   0  5  0  0  0  0
   65.5430   11.8360  162.4180 O   0  0  0  0  0  0
   63.0920   14.2220  163.2160 C   0  0  0  0  0  0
   61.6900   14.3280  163.8630 C   0  0  0  0  0  0
   60.8290   13.0950  163.5380 C   0  0  0  0  0  0
   59.9050   12.7530  164.3190 O   0  0  0  0  0  0
   61.0500   12.4130  162.4950 O   0  5  0  0  0  0
   71.8340   15.4500  161.3530 C   0  0  0  0  0  0
   67.2587   12.2784  169.2848 H   0  0  0  0  0  0
   66.8835   10.4462  166.8463 H   0  0  0  0  0  0
   65.6185   11.1086  167.9361 H   0  0  0  0  0  0
   66.1833   13.4293  167.0908 H   0  0  0  0  0  0
   67.3197   12.6825  165.9172 H   0  0  0  0  0  0
   68.9352   12.1288  166.7853 H   0  0  0  0  0  0
   70.7406   12.3981  166.1241 H   0  0  0  0  0  0
   72.5443   13.4759  164.8619 H   0  0  0  0  0  0
   72.8405   16.6684  167.8505 H   0  0  0  0  0  0
   70.9020   15.5190  169.1986 H   0  0  0  0  0  0
   74.6673   16.3942  166.0980 H   0  0  0  0  0  0
   74.7951   16.2473  163.7517 H   0  0  0  0  0  0
   73.9458   14.6676  163.8510 H   0  0  0  0  0  0
   71.7678   15.8256  163.8833 H   0  0  0  0  0  0
   71.5797   18.1955  163.5872 H   0  0  0  0  0  0
   72.7209   17.9500  164.9525 H   0  0  0  0  0  0
   73.8563   19.5766  163.6206 H   0  0  0  0  0  0
   72.9793   17.5658  160.8672 H   0  0  0  0  0  0
   76.9933   20.4730  160.2448 H   0  0  0  0  0  0
   76.0305   17.2717  158.5815 H   0  0  0  0  0  0
   73.6737   17.1315  159.5223 H   0  0  0  0  0  0
   65.4280   14.1504  164.4270 H   0  0  0  0  0  0
   63.0977   12.2757  164.1828 H   0  0  0  0  0  0
   63.6943   15.0847  163.5369 H   0  0  0  0  0  0
   62.9777   14.2412  162.1221 H   0  0  0  0  0  0
   61.7950   14.4030  164.9554 H   0  0  0  0  0  0
   61.1769   15.2232  163.4817 H   0  0  0  0  0  0
   71.1406   14.9430  162.0401 H   0  0  0  0  0  0
   72.3999   14.6987  160.7827 H   0  0  0  0  0  0
   71.2637   16.0845  160.6586 H   0  0  0  0  0  0
   77.3158   19.3320  158.7535 H   0  0  0  0  0  0
  1  2  2  0  0  0
  2  3  1  0  0  0
  2  4  1  0  0  0
  4  5  1  0  0  0
  4  9  1  0  0  0
  4 43  1  0  0  0
  5  6  1  0  0  0
  5 44  1  0  0  0
  5 45  1  0  0  0
  6  7  1  0  0  0
  6 46  1  0  0  0
  6 47  1  0  0  0
  7  8  2  0  0  0
  7 32  1  0  0  0
  9 10  1  0  0  0
  9 48  1  0  0  0
 10 11  2  0  0  0
 10 12  1  0  0  0
 12 13  2  0  0  0
 12 17  1  0  0  0
 13 14  1  0  0  0
 13 49  1  0  0  0
 14 15  2  0  0  0
 14 50  1  0  0  0
 15 16  1  0  0  0
 15 18  1  0  0  0
 16 17  2  0  0  0
 16 51  1  0  0  0
 17 52  1  0  0  0
 18 19  1  0  0  0
 18 53  1  0  0  0
 19 20  1  0  0  0
 19 54  1  0  0  0
 19 55  1  0  0  0
 20 21  1  0  0  0
 20 22  1  0  0  0
 20 56  1  0  0  0
 21 25  1  0  0  0
 21 42  1  0  0  0
 22 23  1  0  0  0
 22 57  1  0  0  0
 22 58  1  0  0  0
 23 24  1  0  0  0
 23 59  1  0  0  0
 24 25  1  0  0  0
 24 26  2  0  0  0
 25 30  1  0  0  0
 25 60  1  0  0  0
 26 27  1  0  0  0
 27 28  1  0  0  0
 27 29  2  0  0  0
 28 61  1  0  0  0
 28 73  1  0  0  0
 29 30  1  0  0  0
 29 62  1  0  0  0
 30 31  1  0  0  0
 30 63  1  0  0  0
 32 33  1  0  0  0
 32 64  1  0  0  0
 33 34  1  0  0  0
 33 37  1  0  0  0
 33 65  1  0  0  0
 34 35  1  0  0  0
 34 36  2  0  0  0
 37 38  1  0  0  0
 37 66  1  0  0  0
 37 67  1  0  0  0
 38 39  1  0  0  0
 38 68  1  0  0  0
 38 69  1  0  0  0
 39 40  2  0  0  0
 39 41  1  0  0  0
 42 70  1  0  0  0
 42 71  1  0  0  0
 42 72  1  0  0  0
M  CHG  5   3  -1  29   1  31  -1  35  -1  41  -1
M  END
> <s_m_source_file>
../4u0m_ligand.sdf

> <i_m_source_file_index>
1

> <s_epik_input>
Tz1DKFtPSF0pW0NIMl1bQ0gyXVtDQEBIXShDKD1PKVtPSF0pW05IXUMoPU8pW0NIMl1bQ0gyXVtDQEBIXShDKD1PKVtPSF0pW05IXUMoPU8pYzFbY0hdW2NIXWMoW2NIXVtjSF0xKVtOSF1bQ0gyXVtDQEBIXShbQ0gyXVtOSF0yKVtOSCtdKFtDSDNdKVtDSF0oQzI9MylbQ0hdKFtPSF0pW05IXUMoXE4zKT1OXFtIXQ==

> <s_epik_cmdline>
J2VwaWtfYXBwJywgJy1pbWFlJywgJ2xpZ2FuZF9wcm8ubWFlJywgJy1vbWFlJywgJ2xpZ2FuZF9wcmVwLm1hZScsICctbXMnLCAnMScsICctcGgnLCAnNycsICctcGh0JywgJzAuNScsICctbnQn

> <r_epik_Ionization_Penalty>
  0.4619

> <r_epik_Ionization_Penalty_Charging>
  0.3957

> <r_epik_Ionization_Penalty_Neutral>
  0.0662

> <r_epik_State_Penalty>
  0.4206

> <r_epik_Charging_Adjusted_Penalty>
0.816287012197793

> <i_epik_Tot_Q>
-3

> <i_epik_Tot_abs_Q>
5

> <s_epik_Chemistry_Notes>
This compound has an imine and may undergo hydrolysis. This compound contains an acetal/aminal-like group ( X-CH(R)-Y where X, Y are N, S, or O) that may be acid/base labile, releasing an aldehyde.

$$$$
