4u0n_ligand
                    3D
 Schrodinger Suite 2020-3.
 74 76  0  0  1  0            999 V2000
  175.3970 -105.4160   35.0740 O   0  0  0  0  0  0
  175.4620 -104.1800   35.2690 C   0  0  0  0  0  0
  176.4100 -103.7200   35.9660 O   0  5  0  0  0  0
  174.3910 -103.2950   34.6980 C   0  0  2  0  0  0
  174.4170 -101.9300   35.3810 C   0  0  0  0  0  0
  175.6710 -101.1210   35.0100 C   0  0  0  0  0  0
  175.2990 -100.1710   33.8640 C   0  0  0  0  0  0
  174.4330 -100.4890   33.0820 O   0  0  0  0  0  0
  173.2000 -104.0710   34.9240 N   0  0  0  0  0  0
  172.0020 -103.6130   35.6070 C   0  0  0  0  0  0
  171.8670 -102.5070   36.0920 O   0  0  0  0  0  0
  170.8300 -104.5690   35.8220 C   0  0  0  0  0  0
  169.8200 -104.0790   36.8250 C   0  0  0  0  0  0
  168.7460 -104.8170   37.1400 C   0  0  0  0  0  0
  168.5450 -106.1640   36.4830 C   0  0  0  0  0  0
  169.4560 -106.6370   35.5950 C   0  0  0  0  0  0
  170.6840 -105.7820   35.2400 C   0  0  0  0  0  0
  167.3830 -106.8780   36.9110 N   0  0  0  0  0  0
  167.1030 -106.7090   38.3110 C   0  0  0  0  0  0
  166.1330 -107.6810   38.9470 C   0  0  2  0  0  0
  164.7640 -107.6030   38.4840 N   0  0  0  0  0  0
  166.1770 -107.3270   40.4070 C   0  0  0  0  0  0
  165.0040 -107.6370   41.1530 N   0  0  0  0  0  0
  163.9310 -108.3500   40.5710 C   0  0  0  0  0  0
  163.7860 -108.3470   39.2610 C   0  0  0  0  0  0
  163.0160 -109.0330   41.3160 N   0  3  0  0  0  0
  161.9140 -109.7680   40.9580 C   0  0  0  0  0  0
  161.1070 -110.4120   41.9570 N   0  0  0  0  0  0
  161.6420 -109.8660   39.6490 N   0  0  0  0  0  0
  162.5610 -109.1530   38.6730 C   0  0  3  0  0  0
  162.3100 -109.2300   37.2930 O   0  0  0  0  0  0
  175.9910  -98.9120   33.7470 N   0  0  0  0  0  0
  175.6570  -97.9920   32.7110 C   0  0  2  0  0  0
  176.9050  -97.6200   31.9450 C   0  0  0  0  0  0
  177.3590  -98.4200   31.0760 O   0  5  0  0  0  0
  177.5110  -96.5360   32.1500 O   0  0  0  0  0  0
  174.9610  -96.7930   33.3780 C   0  0  0  0  0  0
  174.2590  -97.2160   34.6970 C   0  0  0  0  0  0
  173.0470  -96.3150   34.9970 C   0  0  0  0  0  0
  171.8830  -96.7310   34.7690 O   0  0  0  0  0  0
  173.1990  -95.1570   35.4820 O   0  5  0  0  0  0
  164.3160 -106.8320   37.3550 C   0  0  0  0  0  0
  174.4594 -103.0797   33.6214 H   0  0  0  0  0  0
  173.5331 -101.3506   35.0761 H   0  0  0  0  0  0
  174.4077 -102.0659   36.4725 H   0  0  0  0  0  0
  176.0092 -100.5469   35.8853 H   0  0  0  0  0  0
  176.4691 -101.8075   34.6910 H   0  0  0  0  0  0
  173.1441 -105.1096   34.5659 H   0  0  0  0  0  0
  169.9641 -103.1097   37.3023 H   0  0  0  0  0  0
  168.0215 -104.4480   37.8659 H   0  0  0  0  0  0
  169.3182 -107.6163   35.1366 H   0  0  0  0  0  0
  171.4259 -106.1476   34.5300 H   0  0  0  0  0  0
  166.7275 -107.5073   36.2911 H   0  0  0  0  0  0
  168.0356 -106.8078   38.8860 H   0  0  0  0  0  0
  166.6715 -105.7115   38.4808 H   0  0  0  0  0  0
  166.3946 -108.7158   38.6809 H   0  0  0  0  0  0
  167.0026 -107.8693   40.8910 H   0  0  0  0  0  0
  166.3353 -106.2440   40.5171 H   0  0  0  0  0  0
  164.9204 -107.3205   42.2032 H   0  0  0  0  0  0
  163.2827 -108.9231   42.3775 H   0  0  0  0  0  0
  161.3628 -110.3078   43.0218 H   0  0  0  0  0  0
  160.7826 -110.4417   39.2749 H   0  0  0  0  0  0
  163.1873 -110.0546   38.6041 H   0  0  0  0  0  0
  162.9741 -108.7145   36.5836 H   0  0  0  0  0  0
  176.7842  -98.6644   34.4678 H   0  0  0  0  0  0
  174.9823  -98.4877   31.9975 H   0  0  0  0  0  0
  175.7069  -96.0184   33.6095 H   0  0  0  0  0  0
  174.2047  -96.3809   32.6938 H   0  0  0  0  0  0
  173.9101  -98.2555   34.6096 H   0  0  0  0  0  0
  174.9701  -97.1370   35.5325 H   0  0  0  0  0  0
  165.1779 -106.3365   36.8842 H   0  0  0  0  0  0
  163.5956 -106.0723   37.6925 H   0  0  0  0  0  0
  163.8320 -107.4977   36.6252 H   0  0  0  0  0  0
  160.2333 -111.0093   41.6571 H   0  0  0  0  0  0
  1  2  2  0  0  0
  2  3  1  0  0  0
  2  4  1  0  0  0
  4  5  1  0  0  0
  4  9  1  0  0  0
  4 43  1  0  0  0
  5  6  1  0  0  0
  5 44  1  0  0  0
  5 45  1  0  0  0
  6  7  1  0  0  0
  6 46  1  0  0  0
  6 47  1  0  0  0
  7  8  2  0  0  0
  7 32  1  0  0  0
  9 10  1  0  0  0
  9 48  1  0  0  0
 10 11  2  0  0  0
 10 12  1  0  0  0
 12 13  2  0  0  0
 12 17  1  0  0  0
 13 14  1  0  0  0
 13 49  1  0  0  0
 14 15  2  0  0  0
 14 50  1  0  0  0
 15 16  1  0  0  0
 15 18  1  0  0  0
 16 17  2  0  0  0
 16 51  1  0  0  0
 17 52  1  0  0  0
 18 19  1  0  0  0
 18 53  1  0  0  0
 19 20  1  0  0  0
 19 54  1  0  0  0
 19 55  1  0  0  0
 20 21  1  0  0  0
 20 22  1  0  0  0
 20 56  1  0  0  0
 21 25  1  0  0  0
 21 42  1  0  0  0
 22 23  1  0  0  0
 22 57  1  0  0  0
 22 58  1  0  0  0
 23 24  1  0  0  0
 23 59  1  0  0  0
 24 25  2  0  0  0
 24 26  1  0  0  0
 25 30  1  0  0  0
 26 27  2  0  0  0
 26 60  1  0  0  0
 27 28  1  0  0  0
 27 29  1  0  0  0
 28 61  1  0  0  0
 28 74  1  0  0  0
 29 30  1  0  0  0
 29 62  1  0  0  0
 30 31  1  0  0  0
 30 63  1  0  0  0
 31 64  1  0  0  0
 32 33  1  0  0  0
 32 65  1  0  0  0
 33 34  1  0  0  0
 33 37  1  0  0  0
 33 66  1  0  0  0
 34 35  1  0  0  0
 34 36  2  0  0  0
 37 38  1  0  0  0
 37 67  1  0  0  0
 37 68  1  0  0  0
 38 39  1  0  0  0
 38 69  1  0  0  0
 38 70  1  0  0  0
 39 40  2  0  0  0
 39 41  1  0  0  0
 42 71  1  0  0  0
 42 72  1  0  0  0
 42 73  1  0  0  0
M  CHG  4   3  -1  26   1  35  -1  41  -1
M  END
> <s_m_source_file>
../4u0n_ligand.sdf

> <i_m_source_file_index>
1

> <s_epik_input>
Tz1DKFtPSF0pW0NIMl1bQ0gyXVtDQEBIXShDKD1PKVtPSF0pW05IXUMoPU8pW0NIMl1bQ0gyXVtDQEBIXShDKD1PKVtPSF0pW05IXUMoPU8pYzFbY0hdW2NIXWMoW2NIXVtjSF0xKVtOSF1bQ0gyXVtDQEBIXShbQ0gyXVtOSF0yKU4oW0NIM10pQyg9QzIzKVtDSF0oW09IXSlbTkhdQyhcW05IXTMpPU5cW0hd

> <s_epik_cmdline>
J2VwaWtfYXBwJywgJy1pbWFlJywgJ2xpZ2FuZF9wcm8ubWFlJywgJy1vbWFlJywgJ2xpZ2FuZF9wcmVwLm1hZScsICctbXMnLCAnMScsICctcGgnLCAnNycsICctcGh0JywgJzAuNScsICctbnQn

> <r_epik_Ionization_Penalty>
  0.0441

> <r_epik_Ionization_Penalty_Charging>
  0.0043

> <r_epik_Ionization_Penalty_Neutral>
  0.0399

> <r_epik_State_Penalty>
  0.0335

> <r_epik_Charging_Adjusted_Penalty>
0.0377713252202201

> <i_epik_Tot_Q>
-2

> <i_epik_Tot_abs_Q>
4

> <s_epik_Chemistry_Notes>
This compound has an imine and may undergo hydrolysis. This compound contains an acetal/aminal-like group ( X-CH(R)-Y where X, Y are N, S, or O) that may be acid/base labile, releasing an aldehyde.

$$$$
