4u0s_ligand
                    3D
 Schrodinger Suite 2020-3.
 39 41  0  0  1  0            999 V2000
  -10.5560  -87.4830   94.4930 P   0  0  0  0  0  0
  -10.7100  -86.8200   93.1620 O   0  5  0  0  0  0
  -11.1370  -86.5250   95.5140 O   0  5  0  0  0  0
  -11.2490  -88.7770   94.4600 O   0  0  0  0  0  0
   -8.1040  -89.0660   94.5630 P   0  0  2  0  0  0
   -8.8970  -89.9880   93.6620 O   0  5  0  0  0  0
   -7.9750  -89.7590   95.8680 O   0  0  0  0  0  0
   -9.0040  -87.7560   94.7860 O   0  0  0  0  0  0
   -6.7890  -88.6480   93.8220 O   0  0  0  0  0  0
   -6.8420  -87.8860   92.6090 C   0  0  0  0  0  0
   -6.0920  -86.6060   92.8520 C   0  0  1  0  0  0
   -4.6850  -86.8890   92.8130 O   0  0  0  0  0  0
   -6.3190  -85.5490   91.7920 C   0  0  1  0  0  0
   -7.3260  -84.6770   92.2570 O   0  0  0  0  0  0
   -5.0240  -84.7600   91.7920 C   0  0  1  0  0  0
   -5.1900  -83.6270   92.6230 O   0  0  0  0  0  0
   -3.9940  -85.7540   92.3410 C   0  0  2  0  0  0
   -2.9970  -86.1940   91.3700 N   0  0  0  0  0  0
   -3.1940  -86.4450   90.0380 C   0  0  0  0  0  0
   -2.1000  -86.7490   89.3840 N   0  0  0  0  0  0
   -1.1140  -86.7070   90.3570 C   0  0  0  0  0  0
    0.2760  -86.9070   90.3030 C   0  0  0  0  0  0
    0.9330  -87.1680   89.1800 N   0  0  0  0  0  0
    0.9790  -86.7540   91.4480 N   0  0  0  0  0  0
    0.3230  -86.4090   92.5640 C   0  0  0  0  0  0
   -0.9860  -86.2080   92.7360 N   0  0  0  0  0  0
   -1.6530  -86.3710   91.5880 C   0  0  0  0  0  0
   -6.3739  -88.4592   91.7952 H   0  0  0  0  0  0
   -7.8911  -87.6762   92.3533 H   0  0  0  0  0  0
   -6.4079  -86.2343   93.8379 H   0  0  0  0  0  0
   -6.6485  -85.9355   90.8163 H   0  0  0  0  0  0
   -8.3636  -85.0317   92.3439 H   0  0  0  0  0  0
   -4.7249  -84.3089   90.8344 H   0  0  0  0  0  0
   -5.9018  -82.8374   92.3406 H   0  0  0  0  0  0
   -3.4251  -85.2975   93.1644 H   0  0  0  0  0  0
   -4.1743  -86.3962   89.5639 H   0  0  0  0  0  0
    0.3812  -87.2962   88.2371 H   0  0  0  0  0  0
    2.0294  -87.2561   89.1920 H   0  0  0  0  0  0
    0.9412  -86.2741   93.4515 H   0  0  0  0  0  0
  1  2  1  0  0  0
  1  3  1  0  0  0
  1  4  2  0  0  0
  1  8  1  0  0  0
  5  6  1  0  0  0
  5  7  2  0  0  0
  5  8  1  0  0  0
  5  9  1  0  0  0
  9 10  1  0  0  0
 10 11  1  0  0  0
 10 28  1  0  0  0
 10 29  1  0  0  0
 11 12  1  0  0  0
 11 13  1  0  0  0
 11 30  1  0  0  0
 12 17  1  0  0  0
 13 14  1  0  0  0
 13 15  1  0  0  0
 13 31  1  0  0  0
 14 32  1  0  0  0
 15 16  1  0  0  0
 15 17  1  0  0  0
 15 33  1  0  0  0
 16 34  1  0  0  0
 17 18  1  0  0  0
 17 35  1  0  0  0
 18 19  1  0  0  0
 18 27  1  0  0  0
 19 20  2  0  0  0
 19 36  1  0  0  0
 20 21  1  0  0  0
 21 22  2  0  0  0
 21 27  1  0  0  0
 22 23  1  0  0  0
 22 24  1  0  0  0
 23 37  1  0  0  0
 23 38  1  0  0  0
 24 25  2  0  0  0
 25 26  1  0  0  0
 25 39  1  0  0  0
 26 27  2  0  0  0
M  CHG  3   2  -1   3  -1   6  -1
M  END
> <s_m_source_file>
../4u0s_ligand.sdf

> <i_m_source_file_index>
1

> <s_epik_input>
W09IXVAoPU8pKFtPSF0pT1tQQEBdKD1PKShbT0hdKU9bQ0gyXVtDQEhdMU9bQ0BIXShbQ0BIXShbT0hdKVtDQEBIXTFbT0hdKW4oW2NIXW4yKWMoYzIzKW5bY0hdbmMzW05IMl0=

> <s_epik_cmdline>
J2VwaWtfYXBwJywgJy1pbWFlJywgJ2xpZ2FuZF9wcm8ubWFlJywgJy1vbWFlJywgJ2xpZ2FuZF9wcmVwLm1hZScsICctbXMnLCAnMScsICctcGgnLCAnNycsICctcGh0JywgJzAuNScsICctbnQn

> <r_lp_tautomer_probability>
0.999997216410988

> <r_epik_Ionization_Penalty>
  0.1037

> <r_epik_Ionization_Penalty_Charging>
  0.1033

> <r_epik_Ionization_Penalty_Neutral>
  0.0004

> <r_epik_State_Penalty>
  0.0922

> <r_epik_Charging_Adjusted_Penalty>
0.19546844050481

> <i_epik_Tot_Q>
-3

> <i_epik_Tot_abs_Q>
3

> <s_epik_Chemistry_Notes>
This compound contains an acetal/aminal-like group ( X-CH(R)-Y where X, Y are N, S, or O) that may be acid/base labile, releasing an aldehyde.

$$$$
