4u0u_ligand
                    3D
 Schrodinger Suite 2020-3.
 39 41  0  0  1  0            999 V2000
   87.7570   20.2120   17.7960 P   0  0  0  0  0  0
   87.0650   19.4070   16.7620 O   0  0  0  0  0  0
   86.6460   20.4790   18.8260 O   0  5  0  0  0  0
   89.0410   19.5790   18.3370 O   0  5  0  0  0  0
   89.2540   22.0280   16.1120 P   0  0  1  0  0  0
   89.6350   23.4280   16.4020 O   0  0  0  0  0  0
   90.4390   21.1300   16.4990 O   0  5  0  0  0  0
   88.0470   21.5920   17.0550 O   0  0  0  0  0  0
   88.8990   21.8010   14.5490 O   0  0  0  0  0  0
   87.8870   20.9340   13.9930 C   0  0  0  0  0  0
   86.7420   21.7720   13.4760 C   0  0  1  0  0  0
   87.2400   22.7380   12.5260 O   0  0  0  0  0  0
   85.6640   20.9940   12.7270 C   0  0  1  0  0  0
   84.6560   20.4900   13.6010 O   0  0  0  0  0  0
   85.0750   22.0440   11.7840 C   0  0  1  0  0  0
   83.9760   22.6770   12.4210 O   0  0  0  0  0  0
   86.2620   22.9940   11.5330 C   0  0  2  0  0  0
   86.8870   22.8620   10.2150 N   0  0  0  0  0  0
   87.7870   21.9010    9.8360 C   0  0  0  0  0  0
   88.1920   22.0050    8.5920 N   0  0  0  0  0  0
   87.5100   23.1140    8.1170 C   0  0  0  0  0  0
   87.4820   23.7440    6.8570 C   0  0  0  0  0  0
   88.2170   23.3470    5.8130 N   0  0  0  0  0  0
   86.6750   24.8220    6.7090 N   0  0  0  0  0  0
   85.9650   25.2440    7.7600 C   0  0  0  0  0  0
   85.9190   24.7340    8.9930 N   0  0  0  0  0  0
   86.7080   23.6590    9.1080 C   0  0  0  0  0  0
   88.3184   20.3497   13.1669 H   0  0  0  0  0  0
   87.5206   20.2506   14.7732 H   0  0  0  0  0  0
   86.3170   22.2609   14.3650 H   0  0  0  0  0  0
   86.0262   20.0701   12.2525 H   0  0  0  0  0  0
   84.9089   19.7230   14.3478 H   0  0  0  0  0  0
   84.6048   21.6738   10.8610 H   0  0  0  0  0  0
   83.0683   22.1006   12.6531 H   0  0  0  0  0  0
   85.9359   24.0429   11.5910 H   0  0  0  0  0  0
   88.1363   21.1181   10.5092 H   0  0  0  0  0  0
   88.8803   22.4745    5.9073 H   0  0  0  0  0  0
   88.1584   23.8928    4.8598 H   0  0  0  0  0  0
   85.3408   26.1208    7.5875 H   0  0  0  0  0  0
  1  2  2  0  0  0
  1  3  1  0  0  0
  1  4  1  0  0  0
  1  8  1  0  0  0
  5  6  2  0  0  0
  5  7  1  0  0  0
  5  8  1  0  0  0
  5  9  1  0  0  0
  9 10  1  0  0  0
 10 11  1  0  0  0
 10 28  1  0  0  0
 10 29  1  0  0  0
 11 12  1  0  0  0
 11 13  1  0  0  0
 11 30  1  0  0  0
 12 17  1  0  0  0
 13 14  1  0  0  0
 13 15  1  0  0  0
 13 31  1  0  0  0
 14 32  1  0  0  0
 15 16  1  0  0  0
 15 17  1  0  0  0
 15 33  1  0  0  0
 16 34  1  0  0  0
 17 18  1  0  0  0
 17 35  1  0  0  0
 18 19  1  0  0  0
 18 27  1  0  0  0
 19 20  2  0  0  0
 19 36  1  0  0  0
 20 21  1  0  0  0
 21 22  2  0  0  0
 21 27  1  0  0  0
 22 23  1  0  0  0
 22 24  1  0  0  0
 23 37  1  0  0  0
 23 38  1  0  0  0
 24 25  2  0  0  0
 25 26  1  0  0  0
 25 39  1  0  0  0
 26 27  2  0  0  0
M  CHG  3   3  -1   4  -1   7  -1
M  END
> <s_m_source_file>
../4u0u_ligand.sdf

> <i_m_source_file_index>
1

> <s_epik_input>
Tz1QKFtPSF0pKFtPSF0pT1tQQEBdKD1PKShbT0hdKU9bQ0gyXVtDQEhdMU9bQ0BIXShbQ0BIXShbT0hdKVtDQEBIXTFbT0hdKW4oW2NIXW4yKWMoYzIzKW5bY0hdbmMzW05IMl0=

> <s_epik_cmdline>
J2VwaWtfYXBwJywgJy1pbWFlJywgJ2xpZ2FuZF9wcm8ubWFlJywgJy1vbWFlJywgJ2xpZ2FuZF9wcmVwLm1hZScsICctbXMnLCAnMScsICctcGgnLCAnNycsICctcGh0JywgJzAuNScsICctbnQn

> <r_lp_tautomer_probability>
0.999997216410988

> <r_epik_Ionization_Penalty>
  0.1037

> <r_epik_Ionization_Penalty_Charging>
  0.1033

> <r_epik_Ionization_Penalty_Neutral>
  0.0004

> <r_epik_State_Penalty>
  0.0922

> <r_epik_Charging_Adjusted_Penalty>
0.19546844050481

> <i_epik_Tot_Q>
-3

> <i_epik_Tot_abs_Q>
3

> <s_epik_Chemistry_Notes>
This compound contains an acetal/aminal-like group ( X-CH(R)-Y where X, Y are N, S, or O) that may be acid/base labile, releasing an aldehyde.

$$$$
