4u0w_ligand
                    3D
 Schrodinger Suite 2020-3.
 33 33  0  0  1  0            999 V2000
  -41.9490   -8.6460   25.3990 C   0  0  1  0  0  0
  -41.3170   -7.8670   24.2540 C   0  0  1  0  0  0
  -42.2140   -7.7470   23.0660 C   0  0  2  0  0  0
  -42.7450   -9.0840   22.6820 C   0  0  1  0  0  0
  -43.5680   -9.5750   23.8490 C   0  0  1  0  0  0
  -44.3340  -10.8230   23.5280 C   0  0  0  0  0  0
  -40.1800   -5.5560   24.1310 C   0  0  0  0  0  0
  -39.8460   -4.2870   24.9010 C   0  0  0  0  0  0
  -40.9200   -6.5780   24.8130 N   0  0  0  0  0  0
  -42.8960   -7.8660   26.0250 O   0  0  0  0  0  0
  -41.5040   -7.2390   21.9180 O   0  0  0  0  0  0
  -43.5550   -8.9930   21.5040 O   0  0  0  0  0  0
  -42.6570   -9.8670   24.9460 O   0  0  0  0  0  0
  -45.0670  -11.1200   24.7180 O   0  0  0  0  0  0
  -39.8200   -5.6790   22.9770 O   0  0  0  0  0  0
  -46.1970  -12.2460   24.7060 P   0  0  0  0  0  0
  -47.2570  -11.9520   23.6640 O   0  5  0  0  0  0
  -45.5090  -13.5580   24.3930 O   0  0  0  0  0  0
  -46.8160  -12.2400   26.0880 O   0  5  0  0  0  0
  -41.1735   -8.9022   26.1358 H   0  0  0  0  0  0
  -40.4241   -8.3640   23.8470 H   0  0  0  0  0  0
  -43.0162   -7.0394   23.3225 H   0  0  0  0  0  0
  -41.9335   -9.7740   22.4073 H   0  0  0  0  0  0
  -44.2875   -8.7953   24.1396 H   0  0  0  0  0  0
  -45.0022  -10.6339   22.6749 H   0  0  0  0  0  0
  -43.6308  -11.6290   23.2713 H   0  0  0  0  0  0
  -40.2518   -4.3594   25.9209 H   0  0  0  0  0  0
  -40.2908   -3.4203   24.3901 H   0  0  0  0  0  0
  -38.7540   -4.1638   24.9487 H   0  0  0  0  0  0
  -41.1897   -6.3208   25.8479 H   0  0  0  0  0  0
  -42.6118   -6.8934   26.4531 H   0  0  0  0  0  0
  -41.0189   -6.2528   21.9635 H   0  0  0  0  0  0
  -43.1122   -8.6501   20.5572 H   0  0  0  0  0  0
  1  2  1  0  0  0
  1 10  1  0  0  0
  1 13  1  0  0  0
  1 20  1  0  0  0
  2  3  1  0  0  0
  2  9  1  0  0  0
  2 21  1  0  0  0
  3  4  1  0  0  0
  3 11  1  0  0  0
  3 22  1  0  0  0
  4  5  1  0  0  0
  4 12  1  0  0  0
  4 23  1  0  0  0
  5  6  1  0  0  0
  5 13  1  0  0  0
  5 24  1  0  0  0
  6 14  1  0  0  0
  6 25  1  0  0  0
  6 26  1  0  0  0
  7  8  1  0  0  0
  7  9  1  0  0  0
  7 15  2  0  0  0
  8 27  1  0  0  0
  8 28  1  0  0  0
  8 29  1  0  0  0
  9 30  1  0  0  0
 10 31  1  0  0  0
 11 32  1  0  0  0
 12 33  1  0  0  0
 14 16  1  0  0  0
 16 17  1  0  0  0
 16 18  2  0  0  0
 16 19  1  0  0  0
M  CHG  2  17  -1  19  -1
M  END
> <s_m_source_file>
../4u0w_ligand.sdf

> <i_m_source_file_index>
1

> <s_epik_input>
W0NIM11DKD1PKVtOSF1bQ0BASF0oW0NASF0xW09IXSlbQ0BASF0oW09IXSlbQ0BIXShbT0hdKVtDQEhdKE8xKVtDSDJdT1AoPU8pKFtPSF0pW09IXQ==

> <s_epik_cmdline>
J2VwaWtfYXBwJywgJy1pbWFlJywgJ2xpZ2FuZF9wcm8ubWFlJywgJy1vbWFlJywgJ2xpZ2FuZF9wcmVwLm1hZScsICctbXMnLCAnMScsICctcGgnLCAnNycsICctcGh0JywgJzAuNScsICctbnQn

> <r_epik_Ionization_Penalty>
  0.1038

> <r_epik_Ionization_Penalty_Charging>
  0.1038

> <r_epik_Ionization_Penalty_Neutral>
  0.0000

> <r_epik_State_Penalty>
  0.0937

> <r_epik_Charging_Adjusted_Penalty>
0.197469068483883

> <i_epik_Tot_Q>
-2

> <i_epik_Tot_abs_Q>
2

> <s_epik_Chemistry_Notes>
This compound contains an acetal/aminal-like group ( X-CH(R)-Y where X, Y are N, S, or O) that may be acid/base labile, releasing an aldehyde.

$$$$
