4u0x_ligand
                    3D
 Schrodinger Suite 2020-3.
 34 35  0  0  1  0            999 V2000
   -6.1440  -12.2450   -9.1060 B   0  0  0  0  0  0
   -6.1200  -13.2120   -7.8560 O   0  0  0  0  0  0
   -6.5310  -10.8400   -8.6980 O   0  0  0  0  0  0
   -2.8690  -11.4190   -8.5630 N   0  0  0  0  0  0
   -3.6300  -10.5760   -7.7600 N   0  0  0  0  0  0
   -2.6890   -9.6460   -7.2780 N   0  0  0  0  0  0
   -4.7860  -12.0490   -9.9670 C   0  0  2  0  0  0
   -3.5720  -12.4910   -9.1850 C   0  0  0  0  0  0
   -4.6180  -10.7170  -10.5170 N   0  0  0  0  0  0
   -3.8360  -10.4800  -11.6000 C   0  0  0  0  0  0
   -3.9160   -9.1070  -12.1810 C   0  0  0  0  0  0
   -2.6610   -8.3670  -11.7760 C   0  0  0  0  0  0
   -1.4730   -8.2180  -12.4480 C   0  0  0  0  0  0
   -0.5740   -7.4450  -11.7240 C   0  0  0  0  0  0
   -1.0380   -7.0050  -10.4890 C   0  0  0  0  0  0
   -3.0700  -11.2780  -12.1680 O   0  0  0  0  0  0
   -1.4720   -9.9710   -7.8140 C   0  0  0  0  0  0
   -1.5940  -11.0830   -8.6250 C   0  0  0  0  0  0
   -0.1790   -9.2730   -7.5900 C   0  0  0  0  0  0
    0.7440   -9.4230   -8.4520 O   0  5  0  0  0  0
   -0.0960   -8.5940   -6.5310 O   0  0  0  0  0  0
   -2.6240   -7.5800  -10.2090 S   0  0  0  0  0  0
   -7.0309  -13.3597   -7.2573 H   0  0  0  0  0  0
   -7.4338  -10.6721   -8.0924 H   0  0  0  0  0  0
   -4.8064  -12.6385  -10.8955 H   0  0  0  0  0  0
   -2.9024  -13.0105   -9.8863 H   0  0  0  0  0  0
   -3.9176  -13.1978   -8.4162 H   0  0  0  0  0  0
   -5.1328   -9.8620  -10.0545 H   0  0  0  0  0  0
   -3.9844   -9.1760  -13.2767 H   0  0  0  0  0  0
   -4.8071   -8.5945  -11.7895 H   0  0  0  0  0  0
   -1.2622   -8.6509  -13.4248 H   0  0  0  0  0  0
    0.4202   -7.2017  -12.0959 H   0  0  0  0  0  0
   -0.4715   -6.3824   -9.7980 H   0  0  0  0  0  0
   -0.8070  -11.5764   -9.1934 H   0  0  0  0  0  0
  1  2  1  0  0  0
  1  3  1  0  0  0
  1  7  1  0  0  0
  2 23  1  0  0  0
  3 24  1  0  0  0
  4  5  1  0  0  0
  4  8  1  0  0  0
  4 18  1  0  0  0
  5  6  2  0  0  0
  6 17  1  0  0  0
  7  8  1  0  0  0
  7  9  1  0  0  0
  7 25  1  0  0  0
  8 26  1  0  0  0
  8 27  1  0  0  0
  9 10  1  0  0  0
  9 28  1  0  0  0
 10 11  1  0  0  0
 10 16  2  0  0  0
 11 12  1  0  0  0
 11 29  1  0  0  0
 11 30  1  0  0  0
 12 13  2  0  0  0
 12 22  1  0  0  0
 13 14  1  0  0  0
 13 31  1  0  0  0
 14 15  2  0  0  0
 14 32  1  0  0  0
 15 22  1  0  0  0
 15 33  1  0  0  0
 17 18  2  0  0  0
 17 19  1  0  0  0
 18 34  1  0  0  0
 19 20  1  0  0  0
 19 21  2  0  0  0
M  CHG  1  20  -1
M  END
> <s_m_source_file>
../4u0x_ligand.sdf

> <i_m_source_file_index>
1

> <s_epik_input>
W08tXUMoPU8pYyhbY0hdMSlubm4xW0NIMl1bQ0BASF0oQihbT0hdKVtPSF0pW05IXUMoPU8pW0NIMl1jMltjSF1bY0hdW2NIXXMy

> <s_epik_cmdline>
J2VwaWtfYXBwJywgJy1pbWFlJywgJ2xpZ2FuZF9wcm8ubWFlJywgJy1vbWFlJywgJ2xpZ2FuZF9wcmVwLm1hZScsICctbXMnLCAnMScsICctcGgnLCAnNycsICctcGh0JywgJzAuNScsICctbnQn

> <r_lp_tautomer_probability>
1

> <r_epik_Ionization_Penalty>
  0.0002

> <r_epik_Ionization_Penalty_Charging>
  0.0002

> <r_epik_Ionization_Penalty_Neutral>
  0.0000

> <r_epik_State_Penalty>
 -0.0000

> <r_epik_Charging_Adjusted_Penalty>
0.000150448694971854

> <i_epik_Tot_Q>
-1

> <i_epik_Tot_abs_Q>
1

> <s_epik_Chemistry_Notes>
This compound contains a Lewis acid (boronic acid) which adds nucleophiles to form tetrahedral complexes, lowering the experimental pKa

$$$$
