4u1b_ligand
                    3D
 Schrodinger Suite 2020-3.
 32 31  0  0  1  0            999 V2000
   21.8140   -2.2070   12.1460 O   0  0  0  0  0  0
   21.2330   -2.6550   10.8920 P   0  0  0  0  0  0
   19.6990   -3.1120   10.8740 O   0  5  0  0  0  0
   21.3160   -1.2960   10.1010 O   0  5  0  0  0  0
   22.3080   -3.7340    9.8600 C   0  0  1  0  0  0
   23.5800   -2.9230    9.4330 N   0  3  0  0  0  0
   22.2890   -5.1830   10.4800 C   0  0  0  0  0  0
   23.3920   -6.1540    9.9670 C   0  0  0  0  0  0
   23.2830   -7.5250   10.5780 C   0  0  0  0  0  0
   23.7390   -8.6790    9.7210 C   0  0  0  0  0  0
   22.1020   -5.3680   12.0330 C   0  0  0  0  0  0
   21.6950   -6.7470   12.6580 C   0  0  0  0  0  0
   20.8110   -6.8060   13.9430 C   0  0  0  0  0  0
   22.1590   -4.1032    8.8346 H   0  0  0  0  0  0
   23.2742   -1.9444    9.0345 H   0  0  0  0  0  0
   24.1268   -3.4800    8.6579 H   0  0  0  0  0  0
   24.2314   -2.7757   10.3071 H   0  0  0  0  0  0
   21.3242   -5.4853   10.0466 H   0  0  0  0  0  0
   23.3067   -6.2620    8.8756 H   0  0  0  0  0  0
   24.3832   -5.7490   10.2190 H   0  0  0  0  0  0
   23.8934   -7.5686   11.4921 H   0  0  0  0  0  0
   22.2322   -7.7323   10.8286 H   0  0  0  0  0  0
   23.6104   -9.6205   10.2752 H   0  0  0  0  0  0
   24.8002   -8.5473    9.4632 H   0  0  0  0  0  0
   23.1390   -8.7109    8.7996 H   0  0  0  0  0  0
   23.0458   -5.1326   12.5466 H   0  0  0  0  0  0
   21.3116   -4.6916   12.3903 H   0  0  0  0  0  0
   21.1218   -7.3287   11.9211 H   0  0  0  0  0  0
   22.6010   -7.3036   12.9398 H   0  0  0  0  0  0
   20.6375   -7.8561   14.2208 H   0  0  0  0  0  0
   19.8466   -6.3143   13.7475 H   0  0  0  0  0  0
   21.3259   -6.2892   14.7663 H   0  0  0  0  0  0
  1  2  2  0  0  0
  2  3  1  0  0  0
  2  4  1  0  0  0
  2  5  1  0  0  0
  5  6  1  0  0  0
  5  7  1  0  0  0
  5 14  1  0  0  0
  6 15  1  0  0  0
  6 16  1  0  0  0
  6 17  1  0  0  0
  7  8  1  0  0  0
  7 11  1  0  0  0
  7 18  1  0  0  0
  8  9  1  0  0  0
  8 19  1  0  0  0
  8 20  1  0  0  0
  9 10  1  0  0  0
  9 21  1  0  0  0
  9 22  1  0  0  0
 10 23  1  0  0  0
 10 24  1  0  0  0
 10 25  1  0  0  0
 11 12  1  0  0  0
 11 26  1  0  0  0
 11 27  1  0  0  0
 12 13  1  0  0  0
 12 28  1  0  0  0
 12 29  1  0  0  0
 13 30  1  0  0  0
 13 31  1  0  0  0
 13 32  1  0  0  0
M  CHG  3   3  -1   4  -1   6   1
M  END
> <s_m_source_file>
../4u1b_ligand.sdf

> <i_m_source_file_index>
1

> <s_epik_input>
Tz1QKFtPSF0pKFtPSF0pW0NAQEhdKFtOSDMrXSlbQ0hdKFtDSDJdW0NIMl1bQ0gzXSlbQ0gyXVtDSDJdW0NIM10=

> <s_epik_cmdline>
J2VwaWtfYXBwJywgJy1pbWFlJywgJ2xpZ2FuZF9wcm8ubWFlJywgJy1vbWFlJywgJ2xpZ2FuZF9wcmVwLm1hZScsICctbXMnLCAnMScsICctcGgnLCAnNycsICctcGh0JywgJzAuNScsICctbnQn

> <r_lp_tautomer_probability>
1

> <r_epik_Ionization_Penalty>
  0.1015

> <r_epik_Ionization_Penalty_Charging>
  0.1015

> <r_epik_Ionization_Penalty_Neutral>
  0.0000

> <r_epik_State_Penalty>
 -0.0000

> <r_epik_Charging_Adjusted_Penalty>
0.101549683623382

> <i_epik_Tot_Q>
-1

> <i_epik_Tot_abs_Q>
3

$$$$
