4u2w_ligand
                    3D
 Schrodinger Suite 2020-3.
224230  0  0  1  0            999 V2000
   -4.6260  -10.7950   11.1170 N   0  3  0  0  0  0
   -5.7330  -11.8030   10.9750 C   0  0  0  0  0  0
   -7.1060  -11.1500   10.6920 C   0  0  0  0  0  0
   -7.2010   -9.9300   10.5360 O   0  0  0  0  0  0
   -8.1830  -11.9620   10.7270 N   0  0  0  0  0  0
   -9.4960  -11.4340   10.5120 C   0  0  2  0  0  0
  -10.0130  -10.7280   11.6940 C   0  0  0  0  0  0
   -9.9980  -11.2950   12.8190 O   0  0  0  0  0  0
  -10.4360  -12.6170   10.2590 C   0  0  0  0  0  0
  -12.1150  -12.0950    9.7250 S   0  0  0  0  0  0
  -10.5730   -9.5660   11.5030 N   0  0  0  0  0  0
  -11.1710   -8.8000   12.5240 C   0  0  2  0  0  0
  -12.4080   -8.1250   12.0070 C   0  0  0  0  0  0
  -12.4310   -7.5250   10.9040 O   0  0  0  0  0  0
  -10.2370   -7.6690   13.1040 C   0  0  0  0  0  0
   -9.0280   -8.2390   13.7930 C   0  0  0  0  0  0
   -7.8190   -8.6230   13.2850 C   0  0  0  0  0  0
   -9.0080   -8.7090   15.1830 C   0  0  0  0  0  0
   -7.0160   -9.1910   14.2530 N   0  0  0  0  0  0
   -7.7220   -9.3330   15.4120 C   0  0  0  0  0  0
   -9.8930   -8.8870   16.1990 C   0  0  0  0  0  0
   -7.3220   -9.8850   16.6530 C   0  0  0  0  0  0
   -9.5190   -9.3200   17.4180 C   0  0  0  0  0  0
   -8.2260   -9.8610   17.6660 C   0  0  0  0  0  0
  -13.4560   -8.1070   12.8440 N   0  0  0  0  0  0
  -14.5780   -7.2590   12.5900 C   0  0  2  0  0  0
  -14.1620   -5.8060   12.7560 C   0  0  0  0  0  0
  -13.2140   -5.4720   13.4450 O   0  0  0  0  0  0
  -15.7940   -7.5570   13.4800 C   0  0  2  0  0  0
  -15.4620   -7.1900   14.8030 O   0  0  0  0  0  0
  -16.2170   -8.9600   13.3800 C   0  0  0  0  0  0
  -14.9330   -4.9050   12.1380 N   0  0  0  0  0  0
  -14.6080   -3.4730   12.1270 C   0  0  2  0  0  0
  -15.3810   -2.6280   13.2110 C   0  0  0  0  0  0
  -15.6740   -1.4940   13.0000 O   0  0  0  0  0  0
  -14.6760   -2.9250   10.7440 C   0  0  0  0  0  0
  -13.4800   -3.4610    9.9630 C   0  0  0  0  0  0
  -13.5270   -3.0310    8.5210 C   0  0  0  0  0  0
  -12.3620   -3.6310    7.7910 C   0  0  0  0  0  0
  -12.4530   -3.2490    6.2980 N   0  3  0  0  0  0
  -15.6240   -3.2380   14.3590 N   0  0  0  0  0  0
  -16.2960   -2.6290   15.5010 C   0  0  2  0  0  0
  -15.2780   -2.0830   16.4770 C   0  0  0  0  0  0
  -14.0950   -2.4340   16.4190 O   0  0  0  0  0  0
  -17.2100   -3.6870   16.1330 C   0  0  0  0  0  0
  -16.4900   -4.8970   16.3220 O   0  0  0  0  0  0
  -15.7800   -1.3160   17.4410 N   0  0  0  0  0  0
  -15.0550   -0.9940   18.6630 C   0  0  2  0  0  0
  -15.6300   -1.8220   19.8180 C   0  0  0  0  0  0
  -16.7580   -1.5880   20.1940 O   0  0  0  0  0  0
  -15.2250    0.4270   19.0900 C   0  0  2  0  0  0
  -14.8490    1.3640   18.0180 C   0  0  0  0  0  0
  -14.4650    0.7020   20.3310 C   0  0  0  0  0  0
  -13.5050    1.2510   17.4980 C   0  0  0  0  0  0
  -14.9360   -2.7930   20.3490 N   0  0  0  0  0  0
  -13.6170   -3.2530   19.9510 C   0  0  2  0  0  0
  -13.7480   -4.2420   18.7800 C   0  0  0  0  0  0
  -14.8800   -4.8080   18.5430 O   0  0  0  0  0  0
  -13.1750   -4.0460   21.1840 C   0  0  0  0  0  0
  -14.4140   -4.6330   21.6960 C   0  0  0  0  0  0
  -15.4820   -3.5800   21.4660 C   0  0  0  0  0  0
  -12.6810   -4.5380   18.0850 N   0  0  0  0  0  0
  -12.7420   -5.5490   17.0330 C   0  0  2  0  0  0
  -12.9270   -6.9440   17.6340 C   0  0  0  0  0  0
  -12.3980   -7.2200   18.7170 O   0  0  0  0  0  0
  -11.3820   -5.4100   16.3500 C   0  0  0  0  0  0
  -10.4840   -4.8130   17.3900 C   0  0  0  0  0  0
  -11.3650   -3.8960   18.1580 C   0  0  0  0  0  0
  -13.5980   -7.8040   16.8630 N   0  0  0  0  0  0
  -13.8820   -9.1800   17.2390 C   0  0  2  0  0  0
  -13.1700  -10.1090   16.2900 C   0  0  0  0  0  0
  -13.1060   -9.8410   15.0950 O   0  0  0  0  0  0
  -15.4360   -9.4100   17.2810 C   0  0  0  0  0  0
  -16.1930   -8.3760   18.0810 C   0  0  0  0  0  0
  -12.6160  -11.2050   16.7550 N   0  0  0  0  0  0
  -11.9490  -12.1460   15.8380 C   0  0  2  0  0  0
  -12.9200  -12.8950   14.9960 C   0  0  0  0  0  0
  -14.0460  -13.1860   15.4120 O   0  0  0  0  0  0
  -11.2350  -13.0910   16.8130 C   0  0  0  0  0  0
  -12.1100  -13.0930   18.0280 C   0  0  0  0  0  0
  -12.6800  -11.6980   18.1530 C   0  0  0  0  0  0
  -12.4690  -13.3080   13.8020 N   0  0  0  0  0  0
  -13.2780  -14.0530   12.8970 C   0  0  2  0  0  0
  -12.4720  -15.1100   12.2590 C   0  0  0  0  0  0
  -11.2470  -15.1080   12.2470 O   0  0  0  0  0  0
  -14.0100  -13.1230   11.9320 C   0  0  0  0  0  0
  -13.1440  -11.6310   11.4020 S   0  0  0  0  0  0
  -13.1790  -16.1550   11.7640 N   0  0  0  0  0  0
  -12.5370  -17.3100   11.1720 C   0  0  2  0  0  0
  -11.5090  -17.9440   12.1200 C   0  0  0  0  0  0
  -10.4770  -18.4170   11.7070 O   0  0  0  0  0  0
  -11.9650  -17.0860    9.7620 C   0  0  0  0  0  0
  -13.0020  -16.5860    8.8390 C   0  0  0  0  0  0
  -13.9460  -17.4110    8.2190 C   0  0  0  0  0  0
  -13.1100  -15.2410    8.5660 C   0  0  0  0  0  0
  -14.9260  -16.8410    7.3840 C   0  0  0  0  0  0
  -14.0540  -14.6960    7.7340 C   0  0  0  0  0  0
  -14.9750  -15.4980    7.1910 C   0  0  0  0  0  0
  -11.9100  -18.0440   13.3960 N   0  0  0  0  0  0
  -11.1620  -18.7160   14.4060 C   0  0  2  0  0  0
  -11.3000  -20.2320   14.2470 C   0  0  0  0  0  0
  -12.4650  -20.6980   14.0400 O   0  0  0  0  0  0
  -11.5720  -18.2300   15.8550 C   0  0  0  0  0  0
  -10.7870  -18.9100   16.9300 C   0  0  0  0  0  0
  -11.4310  -16.7560   15.9960 C   0  0  0  0  0  0
  -10.2140  -20.9380   14.2460 N   0  0  0  0  0  0
  -10.2850  -22.3790   14.0450 C   0  0  2  0  0  0
  -10.7180  -23.1100   15.3160 C   0  0  0  0  0  0
  -10.5650  -22.5950   16.4210 O   0  0  0  0  0  0
   -8.9350  -22.8960   13.6190 C   0  0  0  0  0  0
   -8.3760  -22.1140   12.4340 C   0  0  0  0  0  0
  -11.2270  -24.2270   15.2570 O   0  0  0  0  0  0
   -3.6784  -11.3168   11.3163 H   0  0  0  0  0  0
   -4.8534  -10.1159   11.9520 H   0  0  0  0  0  0
   -4.5366  -10.2151   10.1866 H   0  0  0  0  0  0
   -5.5056  -12.4821   10.1400 H   0  0  0  0  0  0
   -5.8224  -12.3830   11.9054 H   0  0  0  0  0  0
   -8.0473  -13.0360   10.9223 H   0  0  0  0  0  0
   -9.3924  -10.7112    9.6893 H   0  0  0  0  0  0
  -10.0165  -13.2560    9.4680 H   0  0  0  0  0  0
  -10.5456  -13.2026   11.1837 H   0  0  0  0  0  0
  -10.5602   -9.1902   10.4693 H   0  0  0  0  0  0
  -11.3957   -9.5920   13.2536 H   0  0  0  0  0  0
   -9.8929   -7.0214   12.2841 H   0  0  0  0  0  0
  -10.7987   -7.0684   13.8346 H   0  0  0  0  0  0
   -7.5249   -8.4962   12.2431 H   0  0  0  0  0  0
  -10.9463   -8.6709   16.0202 H   0  0  0  0  0  0
   -6.3285  -10.3120   16.7897 H   0  0  0  0  0  0
  -10.2297   -9.2540   18.2418 H   0  0  0  0  0  0
   -7.9663  -10.2489   18.6510 H   0  0  0  0  0  0
  -13.4458   -8.7540   13.7335 H   0  0  0  0  0  0
  -14.8340   -7.5031   11.5484 H   0  0  0  0  0  0
  -16.6868   -6.9713   13.2157 H   0  0  0  0  0  0
  -15.1281   -6.1651   15.0221 H   0  0  0  0  0  0
  -16.4635   -9.1950   12.3340 H   0  0  0  0  0  0
  -17.1035   -9.1215   14.0109 H   0  0  0  0  0  0
  -15.4007   -9.6142   13.7202 H   0  0  0  0  0  0
  -15.8366   -5.2679   11.6263 H   0  0  0  0  0  0
  -13.5407   -3.4373   12.3906 H   0  0  0  0  0  0
  -15.6143   -3.2461   10.2681 H   0  0  0  0  0  0
  -14.6419   -1.8262   10.7829 H   0  0  0  0  0  0
  -12.5498   -3.0805   10.4101 H   0  0  0  0  0  0
  -13.4813   -4.5604    9.9992 H   0  0  0  0  0  0
  -14.4667   -3.3770    8.0657 H   0  0  0  0  0  0
  -13.4740   -1.9338    8.4636 H   0  0  0  0  0  0
  -11.4242   -3.2441    8.2162 H   0  0  0  0  0  0
  -12.3879   -4.7257    7.8959 H   0  0  0  0  0  0
  -11.6016   -3.6855    5.7553 H   0  0  0  0  0  0
  -12.4292   -2.1538    6.1976 H   0  0  0  0  0  0
  -13.3930   -3.6355    5.8773 H   0  0  0  0  0  0
  -15.2779   -4.2806   14.4163 H   0  0  0  0  0  0
  -16.8884   -1.7732   15.1452 H   0  0  0  0  0  0
  -17.5722   -3.3244   17.1063 H   0  0  0  0  0  0
  -18.0671   -3.8746   15.4696 H   0  0  0  0  0  0
  -16.9894   -5.7705   16.7666 H   0  0  0  0  0  0
  -16.7934   -0.9189   17.2819 H   0  0  0  0  0  0
  -14.0033   -1.1879   18.4054 H   0  0  0  0  0  0
  -16.2911    0.5976   19.3006 H   0  0  0  0  0  0
  -15.5159    1.2205   17.1550 H   0  0  0  0  0  0
  -14.9411    2.3969   18.3848 H   0  0  0  0  0  0
  -14.7667   -0.0120   21.1115 H   0  0  0  0  0  0
  -14.6756    1.7269   20.6704 H   0  0  0  0  0  0
  -13.3883    0.5953   20.1328 H   0  0  0  0  0  0
  -13.3529    2.0019   16.7087 H   0  0  0  0  0  0
  -13.3571    0.2444   17.0799 H   0  0  0  0  0  0
  -12.7823    1.4208   18.3097 H   0  0  0  0  0  0
  -12.9742   -2.4099   19.6577 H   0  0  0  0  0  0
  -12.4472   -4.8144   20.8842 H   0  0  0  0  0  0
  -12.7098   -3.3642   21.9111 H   0  0  0  0  0  0
  -14.6358   -5.5591   21.1454 H   0  0  0  0  0  0
  -14.2969   -4.8614   22.7656 H   0  0  0  0  0  0
  -15.6262   -2.9264   22.3390 H   0  0  0  0  0  0
  -16.4480   -4.0152   21.1702 H   0  0  0  0  0  0
  -13.5970   -5.3795   16.3620 H   0  0  0  0  0  0
  -11.0292   -6.4016   16.0302 H   0  0  0  0  0  0
  -11.4779   -4.7543   15.4720 H   0  0  0  0  0  0
  -10.0730   -5.6134   18.0227 H   0  0  0  0  0  0
   -9.6602   -4.2750   16.8981 H   0  0  0  0  0  0
  -11.4200   -2.8946   17.7062 H   0  0  0  0  0  0
  -11.0583   -3.8070   19.2106 H   0  0  0  0  0  0
  -13.9422   -7.4168   15.8926 H   0  0  0  0  0  0
  -13.4485   -9.3486   18.2358 H   0  0  0  0  0  0
  -15.8382   -9.3844   16.2575 H   0  0  0  0  0  0
  -15.6496  -10.3891   17.7345 H   0  0  0  0  0  0
  -17.2676   -8.6100   18.0590 H   0  0  0  0  0  0
  -16.0256   -7.3802   17.6447 H   0  0  0  0  0  0
  -15.8370   -8.3849   19.1218 H   0  0  0  0  0  0
  -11.3091  -11.6246   15.1109 H   0  0  0  0  0  0
  -11.1532  -14.0906   16.3612 H   0  0  0  0  0  0
  -10.2287  -12.7029   17.0292 H   0  0  0  0  0  0
  -12.9126  -13.8344   17.9006 H   0  0  0  0  0  0
  -11.5090  -13.3515   18.9123 H   0  0  0  0  0  0
  -12.0765  -11.0446   18.8002 H   0  0  0  0  0  0
  -13.7248  -11.6909   18.4969 H   0  0  0  0  0  0
  -11.4341  -13.0515   13.5314 H   0  0  0  0  0  0
  -14.0344  -14.5824   13.4949 H   0  0  0  0  0  0
  -14.2469  -13.6680   11.0063 H   0  0  0  0  0  0
  -14.9416  -12.7702   12.3984 H   0  0  0  0  0  0
  -14.2763  -16.1057   11.8230 H   0  0  0  0  0  0
  -13.4004  -17.9814   11.0548 H   0  0  0  0  0  0
  -11.1515  -16.3471    9.8095 H   0  0  0  0  0  0
  -11.5745  -18.0365    9.3694 H   0  0  0  0  0  0
  -13.9232  -18.4886    8.3812 H   0  0  0  0  0  0
  -12.3991  -14.5656    9.0420 H   0  0  0  0  0  0
  -15.6525  -17.4843    6.8876 H   0  0  0  0  0  0
  -14.0533  -13.6274    7.5192 H   0  0  0  0  0  0
  -15.7743  -15.0691    6.5866 H   0  0  0  0  0  0
  -12.8717  -17.5722   13.6461 H   0  0  0  0  0  0
  -10.1240  -18.4293   14.1817 H   0  0  0  0  0  0
  -12.6287  -18.4736   16.0393 H   0  0  0  0  0  0
  -10.8910  -20.0001   16.8261 H   0  0  0  0  0  0
  -11.1661  -18.5976   17.9142 H   0  0  0  0  0  0
   -9.7263  -18.6326   16.8407 H   0  0  0  0  0  0
  -12.0085  -16.2551   15.2051 H   0  0  0  0  0  0
  -10.3702  -16.4790   15.9068 H   0  0  0  0  0  0
  -11.8100  -16.4439   16.9804 H   0  0  0  0  0  0
   -9.2392  -20.4511   14.3966 H   0  0  0  0  0  0
  -11.0336  -22.5252   13.2524 H   0  0  0  0  0  0
   -8.2272  -22.8064   14.4563 H   0  0  0  0  0  0
   -9.0230  -23.9522   13.3247 H   0  0  0  0  0  0
   -7.3931  -22.5223   12.1561 H   0  0  0  0  0  0
   -8.2680  -21.0551   12.7116 H   0  0  0  0  0  0
   -9.0639  -22.2009   11.5800 H   0  0  0  0  0  0
  -11.5337  -24.7411   16.1798 H   0  0  0  0  0  0
  1  2  1  0  0  0
  1113  1  0  0  0
  1114  1  0  0  0
  1115  1  0  0  0
  2  3  1  0  0  0
  2116  1  0  0  0
  2117  1  0  0  0
  3  4  2  0  0  0
  3  5  1  0  0  0
  5  6  1  0  0  0
  5118  1  0  0  0
  6  7  1  0  0  0
  6  9  1  0  0  0
  6119  1  0  0  0
  7  8  2  0  0  0
  7 11  1  0  0  0
  9 10  1  0  0  0
  9120  1  0  0  0
  9121  1  0  0  0
 10 87  1  0  0  0
 11 12  1  0  0  0
 11122  1  0  0  0
 12 13  1  0  0  0
 12 15  1  0  0  0
 12123  1  0  0  0
 13 14  2  0  0  0
 13 25  1  0  0  0
 15 16  1  0  0  0
 15124  1  0  0  0
 15125  1  0  0  0
 16 17  2  0  0  0
 16 18  1  0  0  0
 17 19  1  0  0  0
 17126  1  0  0  0
 18 20  2  0  0  0
 18 21  1  0  0  0
 19 20  1  0  0  0
 20 22  1  0  0  0
 21 23  2  0  0  0
 21127  1  0  0  0
 22 24  2  0  0  0
 22128  1  0  0  0
 23 24  1  0  0  0
 23129  1  0  0  0
 24130  1  0  0  0
 25 26  1  0  0  0
 25131  1  0  0  0
 26 27  1  0  0  0
 26 29  1  0  0  0
 26132  1  0  0  0
 27 28  2  0  0  0
 27 32  1  0  0  0
 29 30  1  0  0  0
 29 31  1  0  0  0
 29133  1  0  0  0
 30134  1  0  0  0
 31135  1  0  0  0
 31136  1  0  0  0
 31137  1  0  0  0
 32 33  1  0  0  0
 32138  1  0  0  0
 33 34  1  0  0  0
 33 36  1  0  0  0
 33139  1  0  0  0
 34 35  2  0  0  0
 34 41  1  0  0  0
 36 37  1  0  0  0
 36140  1  0  0  0
 36141  1  0  0  0
 37 38  1  0  0  0
 37142  1  0  0  0
 37143  1  0  0  0
 38 39  1  0  0  0
 38144  1  0  0  0
 38145  1  0  0  0
 39 40  1  0  0  0
 39146  1  0  0  0
 39147  1  0  0  0
 40148  1  0  0  0
 40149  1  0  0  0
 40150  1  0  0  0
 41 42  1  0  0  0
 41151  1  0  0  0
 42 43  1  0  0  0
 42 45  1  0  0  0
 42152  1  0  0  0
 43 44  2  0  0  0
 43 47  1  0  0  0
 45 46  1  0  0  0
 45153  1  0  0  0
 45154  1  0  0  0
 46155  1  0  0  0
 47 48  1  0  0  0
 47156  1  0  0  0
 48 49  1  0  0  0
 48 51  1  0  0  0
 48157  1  0  0  0
 49 50  2  0  0  0
 49 55  1  0  0  0
 51 52  1  0  0  0
 51 53  1  0  0  0
 51158  1  0  0  0
 52 54  1  0  0  0
 52159  1  0  0  0
 52160  1  0  0  0
 53161  1  0  0  0
 53162  1  0  0  0
 53163  1  0  0  0
 54164  1  0  0  0
 54165  1  0  0  0
 54166  1  0  0  0
 55 56  1  0  0  0
 55 61  1  0  0  0
 56 57  1  0  0  0
 56 59  1  0  0  0
 56167  1  0  0  0
 57 58  2  0  0  0
 57 62  1  0  0  0
 59 60  1  0  0  0
 59168  1  0  0  0
 59169  1  0  0  0
 60 61  1  0  0  0
 60170  1  0  0  0
 60171  1  0  0  0
 61172  1  0  0  0
 61173  1  0  0  0
 62 63  1  0  0  0
 62 68  1  0  0  0
 63 64  1  0  0  0
 63 66  1  0  0  0
 63174  1  0  0  0
 64 65  2  0  0  0
 64 69  1  0  0  0
 66 67  1  0  0  0
 66175  1  0  0  0
 66176  1  0  0  0
 67 68  1  0  0  0
 67177  1  0  0  0
 67178  1  0  0  0
 68179  1  0  0  0
 68180  1  0  0  0
 69 70  1  0  0  0
 69181  1  0  0  0
 70 71  1  0  0  0
 70 73  1  0  0  0
 70182  1  0  0  0
 71 72  2  0  0  0
 71 75  1  0  0  0
 73 74  1  0  0  0
 73183  1  0  0  0
 73184  1  0  0  0
 74185  1  0  0  0
 74186  1  0  0  0
 74187  1  0  0  0
 75 76  1  0  0  0
 75 81  1  0  0  0
 76 77  1  0  0  0
 76 79  1  0  0  0
 76188  1  0  0  0
 77 78  2  0  0  0
 77 82  1  0  0  0
 79 80  1  0  0  0
 79189  1  0  0  0
 79190  1  0  0  0
 80 81  1  0  0  0
 80191  1  0  0  0
 80192  1  0  0  0
 81193  1  0  0  0
 81194  1  0  0  0
 82 83  1  0  0  0
 82195  1  0  0  0
 83 84  1  0  0  0
 83 86  1  0  0  0
 83196  1  0  0  0
 84 85  2  0  0  0
 84 88  1  0  0  0
 86 87  1  0  0  0
 86197  1  0  0  0
 86198  1  0  0  0
 88 89  1  0  0  0
 88199  1  0  0  0
 89 90  1  0  0  0
 89 92  1  0  0  0
 89200  1  0  0  0
 90 91  2  0  0  0
 90 99  1  0  0  0
 92 93  1  0  0  0
 92201  1  0  0  0
 92202  1  0  0  0
 93 94  2  0  0  0
 93 95  1  0  0  0
 94 96  1  0  0  0
 94203  1  0  0  0
 95 97  2  0  0  0
 95204  1  0  0  0
 96 98  2  0  0  0
 96205  1  0  0  0
 97 98  1  0  0  0
 97206  1  0  0  0
 98207  1  0  0  0
 99100  1  0  0  0
 99208  1  0  0  0
100101  1  0  0  0
100103  1  0  0  0
100209  1  0  0  0
101102  2  0  0  0
101106  1  0  0  0
103104  1  0  0  0
103105  1  0  0  0
103210  1  0  0  0
104211  1  0  0  0
104212  1  0  0  0
104213  1  0  0  0
105214  1  0  0  0
105215  1  0  0  0
105216  1  0  0  0
106107  1  0  0  0
106217  1  0  0  0
107108  1  0  0  0
107110  1  0  0  0
107218  1  0  0  0
108109  2  0  0  0
108112  1  0  0  0
110111  1  0  0  0
110219  1  0  0  0
110220  1  0  0  0
111221  1  0  0  0
111222  1  0  0  0
111223  1  0  0  0
112224  1  0  0  0
M  CHG  2   1   1  40   1
M  END
> <s_m_source_file>
../4u2w_ligand.sdf

> <i_m_source_file_index>
1

> <s_epik_input>
W0NIM11bQ0gyXVtDQEhdKFtDSDNdKVtDQEBIXShDMT1PKVtOSF1DKD1PKVtDQEhdKFtDSDJdW09IXSlbTkhdQyg9TylbQ0BIXShbQ0gyXVtDSDJdW0NIMl1bQ0gyXVtOSDMrXSlbTkhdQyg9TylbQ0BIXShbQ0BIXShbT0hdKVtDSDNdKVtOSF1DKD1PKVtDQEhdKFtDSDJdYzJbY0hdW25IXWMoYzIzKVtjSF1bY0hdW2NIXVtjSF0zKVtOSF1DKD1PKVtDQEBIXShbTkhdQyg9TylbQ0gyXVtOSDMrXSlbQ0gyXVNTW0NIMl1bQ0BASF0oQyg9TylbTkhdW0NAQEhdKFtDSDJdYzRbY0hdW2NIXVtjSF1bY0hdW2NIXTQpQyg9TylbTkhdW0NAQEhdKFtDSF0oW0NIM10pW0NIM10pQyg9TylbTkhdW0NASF0oQyg9TylbT0hdKVtDSDJdW0NIM10pW05IXUMoPU8pW0NASF0oW0NIMl1bQ0gyXVtDSDJdNSlONUMoPU8pW0NASF0oW0NIMl1bQ0gzXSlbTkhdQyg9TylbQ0BIXShbQ0gyXVtDSDJdW0NIMl02KU42Qyg9TylbQ0BASF0oTjE3KVtDSDJdW0NIMl1bQ0gyXTc=

> <s_epik_cmdline>
J2VwaWtfYXBwJywgJy1pbWFlJywgJ2xpZ2FuZF9wcm8ubWFlJywgJy1vbWFlJywgJ2xpZ2FuZF9wcmVwLm1hZScsICctbXMnLCAnMScsICctcGgnLCAnNycsICctcGh0JywgJzAuNScsICctbnQn

> <s_epik_pKa_notes>
Molecule size exceeds maximum supported for generating protonation states

$$$$
