4u2y_ligand
                    3D
 Schrodinger Suite 2020-3.
 46 47  0  0  1  0            999 V2000
   27.3770  -29.4670  278.9870 O   0  0  0  0  0  0
   27.2450  -30.7450  279.6140 C   0  0  0  0  0  0
   25.8170  -31.0760  280.0380 C   0  0  2  0  0  0
   23.8070  -30.1220  280.4210 C   0  0  2  0  0  0
   23.0010  -30.3880  281.5160 C   0  0  0  0  0  0
   22.4760  -29.0960  281.9220 O   0  0  0  0  0  0
   23.6710  -31.2280  279.2710 C   0  0  1  0  0  0
   22.5290  -30.8150  278.3730 O   0  0  0  0  0  0
   24.7930  -31.1390  278.7190 C   0  0  2  0  0  0
   25.1430  -32.2780  277.8500 O   0  0  0  0  0  0
   24.7000  -32.0300  276.5420 C   0  0  2  0  0  0
   24.3670  -33.3570  275.9370 C   0  0  2  0  0  0
   23.3400  -33.9690  276.7540 O   0  0  0  0  0  0
   25.5910  -34.1920  275.8300 C   0  0  1  0  0  0
   25.3160  -35.5290  275.3250 O   0  0  0  0  0  0
   26.5740  -33.5070  274.9590 C   0  0  2  0  0  0
   27.7510  -34.3480  274.7720 O   0  0  0  0  0  0
   26.9350  -32.2140  275.6360 C   0  0  1  0  0  0
   28.0290  -31.4480  274.9630 C   0  0  0  0  0  0
   27.5060  -30.7740  273.8310 O   0  0  0  0  0  0
   25.7540  -31.3280  275.7860 O   0  0  0  0  0  0
   25.2970  -30.1390  280.7830 N   0  3  0  0  0  0
   28.3628  -29.1237  278.6402 H   0  0  0  0  0  0
   27.5698  -31.5310  278.9163 H   0  0  0  0  0  0
   27.8705  -30.7761  280.5183 H   0  0  0  0  0  0
   25.8983  -31.9209  280.7377 H   0  0  0  0  0  0
   23.4116  -29.1197  280.1995 H   0  0  0  0  0  0
   22.1965  -31.0775  281.2203 H   0  0  0  0  0  0
   23.6043  -30.8485  282.3122 H   0  0  0  0  0  0
   21.7961  -29.0248  282.7837 H   0  0  0  0  0  0
   23.5932  -32.3066  279.4722 H   0  0  0  0  0  0
   21.4950  -30.8504  278.7466 H   0  0  0  0  0  0
   24.6150  -30.3160  278.0112 H   0  0  0  0  0  0
   23.8206  -31.3704  276.5820 H   0  0  0  0  0  0
   23.9573  -33.2642  274.9204 H   0  0  0  0  0  0
   22.3825  -33.4514  276.9129 H   0  0  0  0  0  0
   26.0017  -34.3377  276.8400 H   0  0  0  0  0  0
   24.6046  -36.1809  275.8532 H   0  0  0  0  0  0
   26.1638  -33.3348  273.9530 H   0  0  0  0  0  0
   27.6532  -35.3314  274.2888 H   0  0  0  0  0  0
   27.3055  -32.5109  276.6283 H   0  0  0  0  0  0
   28.4483  -30.7133  275.6661 H   0  0  0  0  0  0
   28.8199  -32.1425  274.6434 H   0  0  0  0  0  0
   28.1663  -30.1550  273.2058 H   0  0  0  0  0  0
   25.4535  -30.3848  281.8437 H   0  0  0  0  0  0
   25.7806  -29.1779  280.5541 H   0  0  0  0  0  0
  1  2  1  0  0  0
  1 23  1  0  0  0
  2  3  1  0  0  0
  2 24  1  0  0  0
  2 25  1  0  0  0
  3  9  1  0  0  0
  3 22  1  0  0  0
  3 26  1  0  0  0
  4  5  1  0  0  0
  4  7  1  0  0  0
  4 22  1  0  0  0
  4 27  1  0  0  0
  5  6  1  0  0  0
  5 28  1  0  0  0
  5 29  1  0  0  0
  6 30  1  0  0  0
  7  8  1  0  0  0
  7  9  1  0  0  0
  7 31  1  0  0  0
  8 32  1  0  0  0
  9 10  1  0  0  0
  9 33  1  0  0  0
 10 11  1  0  0  0
 11 12  1  0  0  0
 11 21  1  0  0  0
 11 34  1  0  0  0
 12 13  1  0  0  0
 12 14  1  0  0  0
 12 35  1  0  0  0
 13 36  1  0  0  0
 14 15  1  0  0  0
 14 16  1  0  0  0
 14 37  1  0  0  0
 15 38  1  0  0  0
 16 17  1  0  0  0
 16 18  1  0  0  0
 16 39  1  0  0  0
 17 40  1  0  0  0
 18 19  1  0  0  0
 18 21  1  0  0  0
 18 41  1  0  0  0
 19 20  1  0  0  0
 19 42  1  0  0  0
 19 43  1  0  0  0
 20 44  1  0  0  0
 22 45  1  0  0  0
 22 46  1  0  0  0
M  CHG  1  22   1
M  END
> <s_m_source_file>
../4u2y_ligand.sdf

> <i_m_source_file_index>
1

> <s_epik_input>
W09IXVtDSDJdW0NAQEhdKFtOSDIrXTEpW0NAQEhdKFtPSF0pW0NAQEhdKFtDQEhdMVtDSDJdW09IXSlPW0NAQEhdMltDQEhdKFtPSF0pW0NAQEhdKFtPSF0pW0NASF0oW09IXSlbQ0BIXShPMilbQ0gyXVtPSF0=

> <s_epik_cmdline>
J2VwaWtfYXBwJywgJy1pbWFlJywgJ2xpZ2FuZF9wcm8ubWFlJywgJy1vbWFlJywgJ2xpZ2FuZF9wcmVwLm1hZScsICctbXMnLCAnMScsICctcGgnLCAnNycsICctcGh0JywgJzAuNScsICctbnQn

> <r_epik_Ionization_Penalty>
  0.0225

> <r_epik_Ionization_Penalty_Charging>
  0.0224

> <r_epik_Ionization_Penalty_Neutral>
  0.0000

> <r_epik_State_Penalty>
  0.0181

> <r_epik_Charging_Adjusted_Penalty>
0.0405599021066586

> <i_epik_Tot_Q>
1

> <i_epik_Tot_abs_Q>
1

> <s_epik_Chemistry_Notes>
This compound contains an acetal/aminal-like group ( X-CH(R)-Y where X, Y are N, S, or O) that may be acid/base labile, releasing an aldehyde.

$$$$
