4u45_ligand
                    3D
 Schrodinger Suite 2020-3.
 33 36  0  0  1  0            999 V2000
  -21.3570    8.8040  -16.1800 C   0  0  0  0  0  0
  -22.2480    7.7620  -15.9890 C   0  0  0  0  0  0
  -22.5140    6.9180  -17.0620 C   0  0  0  0  0  0
  -26.2420    2.3540  -16.6190 C   0  0  0  0  0  0
  -24.3230    5.4610  -16.0290 C   0  0  0  0  0  0
  -25.0510    4.2440  -16.1960 C   0  0  0  0  0  0
  -25.1760    3.1890  -17.0880 C   0  0  0  0  0  0
  -26.7480    2.8740  -15.4430 C   0  0  0  0  0  0
  -20.7300    9.0410  -17.3350 N   0  3  0  0  0  0
  -21.8810    7.1570  -18.2760 C   0  0  0  0  0  0
  -21.0000    8.2190  -18.3540 C   0  0  0  0  0  0
  -23.3740    5.7980  -16.9580 N   0  0  0  0  0  0
  -26.0410    4.0280  -15.1730 N   0  0  0  0  0  0
  -26.2800    4.8860  -14.1200 N   0  0  0  0  0  0
  -25.5060    5.9740  -14.1390 C   0  0  0  0  0  0
  -24.5570    6.2960  -15.0200 N   0  0  0  0  0  0
  -26.7640    1.1740  -17.2520 C   0  0  0  0  0  0
  -27.8020    0.3710  -16.8070 C   0  0  0  0  0  0
  -27.9500   -0.6180  -17.6920 N   0  3  0  0  0  0
  -27.0620   -0.5310  -18.7040 N   0  0  0  0  0  0
  -26.3440    0.5550  -18.4440 C   0  0  0  0  0  0
  -21.1557    9.4688  -15.3400 H   0  0  0  0  0  0
  -22.7285    7.6070  -15.0230 H   0  0  0  0  0  0
  -24.5738    3.0252  -17.9817 H   0  0  0  0  0  0
  -27.5536    2.4523  -14.8420 H   0  0  0  0  0  0
  -22.0740    6.5245  -19.1425 H   0  0  0  0  0  0
  -20.4950    8.3970  -19.3034 H   0  0  0  0  0  0
  -23.3398    5.0056  -17.7202 H   0  0  0  0  0  0
  -25.6702    6.6893  -13.3331 H   0  0  0  0  0  0
  -28.3272    0.6185  -15.8727 H   0  0  0  0  0  0
  -25.5397    0.8598  -19.1297 H   0  0  0  0  0  0
  -28.6807   -1.4400  -17.6706 H   0  0  0  0  0  0
  -20.0269    9.8830  -17.4164 H   0  0  0  0  0  0
  1  2  2  0  0  0
  1  9  1  0  0  0
  1 22  1  0  0  0
  2  3  1  0  0  0
  2 23  1  0  0  0
  3 10  2  0  0  0
  3 12  1  0  0  0
  4  7  1  0  0  0
  4  8  2  0  0  0
  4 17  1  0  0  0
  5  6  1  0  0  0
  5 12  1  0  0  0
  5 16  2  0  0  0
  6  7  2  0  0  0
  6 13  1  0  0  0
  7 24  1  0  0  0
  8 13  1  0  0  0
  8 25  1  0  0  0
  9 11  2  0  0  0
  9 33  1  0  0  0
 10 11  1  0  0  0
 10 26  1  0  0  0
 11 27  1  0  0  0
 12 28  1  0  0  0
 13 14  1  0  0  0
 14 15  2  0  0  0
 15 16  1  0  0  0
 15 29  1  0  0  0
 17 18  2  0  0  0
 17 21  1  0  0  0
 18 19  1  0  0  0
 18 30  1  0  0  0
 19 20  1  0  0  0
 19 32  1  0  0  0
 20 21  2  0  0  0
 21 31  1  0  0  0
M  CHG  2   9   1  19   1
M  END
> <s_m_source_file>
../4u45_ligand.sdf

> <i_m_source_file_index>
1

> <s_epik_input>
W2NIXTFbY0hdbltjSF1bY0hdYzFbTkhdYzJuW2NIXW5uKGMyMylbY0hdYyhbY0hdMyktYzRbY0hdW25IXW5bY0hdNA==

> <s_epik_cmdline>
J2VwaWtfYXBwJywgJy1pbWFlJywgJ2xpZ2FuZF9wcm8ubWFlJywgJy1vbWFlJywgJ2xpZ2FuZF9wcmVwLm1hZScsICctbXMnLCAnMScsICctcGgnLCAnNycsICctcGh0JywgJzAuNScsICctbnQn

> <r_lp_tautomer_probability>
0.9999999999368

> <r_epik_Ionization_Penalty>
  0.2874

> <r_epik_Ionization_Penalty_Charging>
  0.2872

> <r_epik_Ionization_Penalty_Neutral>
  0.0002

> <r_epik_State_Penalty>
  0.4107

> <r_epik_Charging_Adjusted_Penalty>
0.697874843008367

> <i_epik_Tot_Q>
2

> <i_epik_Tot_abs_Q>
2

> <s_epik_Chemistry_Notes>
This compound has an imine and may undergo hydrolysis.

$$$$
