4u58_ligand
                    3D
 Schrodinger Suite 2020-3.
 47 48  0  0  1  0            999 V2000
    0.6220   31.2290   13.2400 C   0  0  0  0  0  0
    0.0690   29.9960   13.5680 C   0  0  0  0  0  0
   -1.1920   29.7070   13.0620 C   0  0  0  0  0  0
   -1.8480   30.5630   12.2970 N   0  0  0  0  0  0
   -1.3390   31.7330   11.9720 C   0  0  0  0  0  0
   -0.0930   32.1120   12.4410 C   0  0  0  0  0  0
    0.5060   33.4630   12.0730 C   0  0  0  0  0  0
    0.1640   34.0870   10.8760 C   0  0  0  0  0  0
    0.7270   35.3150   10.5510 C   0  0  0  0  0  0
    1.4020   34.0650   12.9420 C   0  0  0  0  0  0
    1.9600   35.2950   12.6150 C   0  0  0  0  0  0
    1.6190   35.9220   11.4310 C   0  0  0  0  0  0
    2.2680   37.2610   11.0900 C   0  0  0  0  0  0
    2.2420   37.6740    9.9810 O   0  0  0  0  0  0
    2.9470   38.0080   12.1250 N   0  0  0  0  0  0
    3.5780   39.2640   11.7970 C   0  0  2  0  0  0
    5.0840   39.0350   11.6480 C   0  0  0  0  0  0
    5.7320   39.7850   10.9950 O   0  0  0  0  0  0
    5.7260   37.8970   12.2850 N   0  0  0  0  0  0
    3.3110   40.2580   12.9150 C   0  0  0  0  0  0
    1.8180   40.5600   13.0470 C   0  0  0  0  0  0
    1.2740   41.4360   11.9210 C   0  0  0  0  0  0
    0.8290   42.8130   12.4190 C   0  0  0  0  0  0
    0.8820   43.7760   11.3270 N   0  3  0  0  0  0
    1.6113   31.5011   13.6079 H   0  0  0  0  0  0
    0.6038   29.2845   14.1972 H   0  0  0  0  0  0
   -1.6530   28.7489   13.3020 H   0  0  0  0  0  0
   -1.9031   32.4083   11.3287 H   0  0  0  0  0  0
   -0.5437   33.6132   10.1957 H   0  0  0  0  0  0
    0.4711   35.8017    9.6099 H   0  0  0  0  0  0
    1.6682   33.5754   13.8788 H   0  0  0  0  0  0
    2.6693   35.7673   13.2947 H   0  0  0  0  0  0
    2.9850   37.6261   13.1559 H   0  0  0  0  0  0
    3.1363   39.6207   10.8548 H   0  0  0  0  0  0
    5.1310   37.1983   12.8915 H   0  0  0  0  0  0
    6.8068   37.7346   12.1606 H   0  0  0  0  0  0
    3.6690   39.8423   13.8684 H   0  0  0  0  0  0
    3.8403   41.1988   12.7034 H   0  0  0  0  0  0
    1.2509   39.6175   13.0353 H   0  0  0  0  0  0
    1.6330   41.0876   13.9943 H   0  0  0  0  0  0
    2.0560   41.5849   11.1619 H   0  0  0  0  0  0
    0.4050   40.9434   11.4604 H   0  0  0  0  0  0
   -0.2018   42.7504   12.7979 H   0  0  0  0  0  0
    1.4973   43.1441   13.2275 H   0  0  0  0  0  0
    0.5610   44.7627   11.6923 H   0  0  0  0  0  0
    0.2129   43.4493   10.5173 H   0  0  0  0  0  0
    1.9121   43.8430   10.9470 H   0  0  0  0  0  0
  1  2  2  0  0  0
  1  6  1  0  0  0
  1 25  1  0  0  0
  2  3  1  0  0  0
  2 26  1  0  0  0
  3  4  2  0  0  0
  3 27  1  0  0  0
  4  5  1  0  0  0
  5  6  2  0  0  0
  5 28  1  0  0  0
  6  7  1  0  0  0
  7  8  2  0  0  0
  7 10  1  0  0  0
  8  9  1  0  0  0
  8 29  1  0  0  0
  9 12  2  0  0  0
  9 30  1  0  0  0
 10 11  2  0  0  0
 10 31  1  0  0  0
 11 12  1  0  0  0
 11 32  1  0  0  0
 12 13  1  0  0  0
 13 14  2  0  0  0
 13 15  1  0  0  0
 15 16  1  0  0  0
 15 33  1  0  0  0
 16 17  1  0  0  0
 16 20  1  0  0  0
 16 34  1  0  0  0
 17 18  2  0  0  0
 17 19  1  0  0  0
 19 35  1  0  0  0
 19 36  1  0  0  0
 20 21  1  0  0  0
 20 37  1  0  0  0
 20 38  1  0  0  0
 21 22  1  0  0  0
 21 39  1  0  0  0
 21 40  1  0  0  0
 22 23  1  0  0  0
 22 41  1  0  0  0
 22 42  1  0  0  0
 23 24  1  0  0  0
 23 43  1  0  0  0
 23 44  1  0  0  0
 24 45  1  0  0  0
 24 46  1  0  0  0
 24 47  1  0  0  0
M  CHG  1  24   1
M  END
> <s_m_source_file>
../4u58_ligand.sdf

> <i_m_source_file_index>
1

> <s_epik_input>
W2NIXTFuW2NIXVtjSF1bY0hdYzEtYzJbY0hdW2NIXWMoW2NIXVtjSF0yKUMoPU8pW05IXVtDQEhdKEMoPU8pW05IMl0pW0NIMl1bQ0gyXVtDSDJdW0NIMl1bTkgzK10=

> <s_epik_cmdline>
J2VwaWtfYXBwJywgJy1pbWFlJywgJ2xpZ2FuZF9wcm8ubWFlJywgJy1vbWFlJywgJ2xpZ2FuZF9wcmVwLm1hZScsICctbXMnLCAnMScsICctcGgnLCAnNycsICctcGh0JywgJzAuNScsICctbnQn

> <r_lp_tautomer_probability>
1

> <r_epik_Ionization_Penalty>
  0.0029

> <r_epik_Ionization_Penalty_Charging>
  0.0004

> <r_epik_Ionization_Penalty_Neutral>
  0.0025

> <r_epik_State_Penalty>
 -0.0000

> <r_epik_Charging_Adjusted_Penalty>
0.000439670988345182

> <i_epik_Tot_Q>
1

> <i_epik_Tot_abs_Q>
1

$$$$
