4u5j_ligand
                    3D
 Schrodinger Suite 2020-3.
 43 46  0  0  1  0            999 V2000
   -9.9220   26.9370    7.9160 C   0  0  0  0  0  0
  -10.2330   28.5000    7.8030 C   0  0  0  0  0  0
  -11.2460   28.6150    6.9090 C   0  0  0  0  0  0
  -11.9880   27.1340    6.7970 C   0  0  0  0  0  0
  -11.0620   26.1780    7.1160 C   0  0  0  0  0  0
  -10.4760   25.4700    5.8710 C   0  0  1  0  0  0
  -11.5650   24.6940    5.1580 C   0  0  0  0  0  0
  -11.4280   23.2100    5.4960 C   0  0  0  0  0  0
  -12.5950   22.7910    6.1840 N   0  3  0  0  0  0
   -9.8050   26.3380    4.9580 N   0  0  0  0  0  0
   -8.4850   26.5440    4.9920 C   0  0  0  0  0  0
  -10.3460   27.0060    3.9620 N   0  0  0  0  0  0
   -9.4100   27.7040    3.3000 C   0  0  0  0  0  0
   -8.1570   27.4300    3.9270 C   0  0  0  0  0  0
   -6.7910   27.9610    3.6250 C   0  0  0  0  0  0
   -6.6240   29.0140    2.8050 N   0  0  0  0  0  0
   -5.4140   29.5000    2.5700 C   0  0  0  0  0  0
   -4.3250   28.9760    3.1280 N   0  0  0  0  0  0
   -4.4000   27.8950    3.9890 C   0  0  0  0  0  0
   -5.6420   27.3540    4.2710 C   0  0  0  0  0  0
   -5.4050   26.2520    5.1970 C   0  0  0  0  0  0
   -4.0180   26.2290    5.3960 C   0  0  0  0  0  0
   -3.4550   27.1960    4.6820 N   0  0  0  0  0  0
   -8.9347   26.7271    7.4787 H   0  0  0  0  0  0
   -9.9252   26.6381    8.9746 H   0  0  0  0  0  0
   -9.8114   29.3996    8.2752 H   0  0  0  0  0  0
  -11.4362   29.5789    6.4143 H   0  0  0  0  0  0
  -12.8350   27.0943    7.4977 H   0  0  0  0  0  0
  -12.3540   26.9839    5.7706 H   0  0  0  0  0  0
  -11.6503   25.4375    7.6778 H   0  0  0  0  0  0
   -9.6513   24.8128    6.1840 H   0  0  0  0  0  0
  -12.5497   25.0581    5.4864 H   0  0  0  0  0  0
  -11.4652   24.8360    4.0718 H   0  0  0  0  0  0
  -11.3137   22.6315    4.5674 H   0  0  0  0  0  0
  -10.5441   23.0591    6.1332 H   0  0  0  0  0  0
  -12.5098   21.7231    6.4338 H   0  0  0  0  0  0
  -13.4750   22.9486    5.5430 H   0  0  0  0  0  0
  -12.7054   23.3763    7.1088 H   0  0  0  0  0  0
   -7.7851   26.1113    5.7069 H   0  0  0  0  0  0
   -9.5756   28.3578    2.4437 H   0  0  0  0  0  0
   -5.3072   30.3535    1.9005 H   0  0  0  0  0  0
   -6.1479   25.5884    5.6395 H   0  0  0  0  0  0
   -3.3939   25.5679    6.0153 H   0  0  0  0  0  0
  1  2  1  0  0  0
  1  5  1  0  0  0
  1 24  1  0  0  0
  1 25  1  0  0  0
  2  3  2  0  0  0
  2 26  1  0  0  0
  3  4  1  0  0  0
  3 27  1  0  0  0
  4  5  1  0  0  0
  4 28  1  0  0  0
  4 29  1  0  0  0
  5  6  1  0  0  0
  5 30  1  0  0  0
  6  7  1  0  0  0
  6 10  1  0  0  0
  6 31  1  0  0  0
  7  8  1  0  0  0
  7 32  1  0  0  0
  7 33  1  0  0  0
  8  9  1  0  0  0
  8 34  1  0  0  0
  8 35  1  0  0  0
  9 36  1  0  0  0
  9 37  1  0  0  0
  9 38  1  0  0  0
 10 11  1  0  0  0
 10 12  1  0  0  0
 11 14  2  0  0  0
 11 39  1  0  0  0
 12 13  2  0  0  0
 13 14  1  0  0  0
 13 40  1  0  0  0
 14 15  1  0  0  0
 15 16  2  0  0  0
 15 20  1  0  0  0
 16 17  1  0  0  0
 17 18  2  0  0  0
 17 41  1  0  0  0
 18 19  1  0  0  0
 19 20  2  0  0  0
 19 23  1  0  0  0
 20 21  1  0  0  0
 21 22  1  0  0  0
 21 42  1  0  0  0
 22 23  2  0  0  0
 22 43  1  0  0  0
M  CHG  1   9   1
M  END
> <s_m_source_file>
../4u5j_ligand.sdf

> <i_m_source_file_index>
1

> <s_epik_input>
W0NIMl0xW0NIXT1bQ0hdW0NIMl1bQ0hdMVtDQEBIXShbQ0gyXVtDSDJdW05IMytdKW4yW2NIXWMoW2NIXW4yKS1jKG5bY0hdbjMpYyhjMzQpW0NIMl1bQ0hdPU40

> <s_epik_cmdline>
J2VwaWtfYXBwJywgJy1pbWFlJywgJ2xpZ2FuZF9wcm8ubWFlJywgJy1vbWFlJywgJ2xpZ2FuZF9wcmVwLm1hZScsICctbXMnLCAnMScsICctcGgnLCAnNycsICctcGh0JywgJzAuNScsICctbnQn

> <r_epik_Ionization_Penalty>
  0.0229

> <r_epik_Ionization_Penalty_Charging>
  0.0009

> <r_epik_Ionization_Penalty_Neutral>
  0.0220

> <r_epik_State_Penalty>
  0.0177

> <r_epik_Charging_Adjusted_Penalty>
0.0186045464983875

> <i_epik_Tot_Q>
1

> <i_epik_Tot_abs_Q>
1

> <s_epik_Chemistry_Notes>
This compound has an imine and may undergo hydrolysis.

$$$$
