4u5l_ligand
                    3D
 Schrodinger Suite 2020-3.
 48 49  0  0  1  0            999 V2000
    2.2370   37.7880   11.4050 C   0  0  0  0  0  0
    1.3280   34.4980   13.1450 C   0  0  0  0  0  0
   -0.0130   32.4690   12.3490 C   0  0  0  0  0  0
    0.1580   30.2220   13.1320 C   0  0  0  0  0  0
   -1.2770   32.1810   11.8380 C   0  0  0  0  0  0
    0.3770   34.4880   10.9270 C   0  0  0  0  0  0
    0.9110   35.7430   10.7120 C   0  0  0  0  0  0
    3.2580   40.3310    7.9050 N   0  0  0  0  0  0
    3.4260   39.7190    9.2210 C   0  0  0  0  0  0
    3.5650   38.1820    9.3440 C   0  0  2  0  0  0
    2.5030   37.4750    8.4770 C   0  0  0  0  0  0
    2.9900   36.8480    7.1600 C   0  0  0  0  0  0
    1.9700   37.0190    6.0210 C   0  0  0  0  0  0
    1.9430   38.4500    5.4430 C   0  0  0  0  0  0
    0.9850   38.6300    4.3500 N   0  3  0  0  0  0
    3.5440   37.7100   10.7440 N   0  0  1  0  0  0
    1.6570   36.3910   11.6980 C   0  0  0  0  0  0
    1.8630   35.7660   12.9270 C   0  0  0  0  0  0
    0.5810   33.8650   12.1520 C   0  0  0  0  0  0
    0.7360   31.4830   12.9960 C   0  0  0  0  0  0
   -1.1150   30.0000   12.6120 C   0  0  0  0  0  0
   -1.7790   30.9690   11.9940 N   0  0  0  0  0  0
    3.4570   40.4270   10.1810 O   0  0  0  0  0  0
    2.3403   38.3251   12.3594 H   0  0  0  0  0  0
    1.5296   38.3255   10.7564 H   0  0  0  0  0  0
    1.4946   33.9972   14.0987 H   0  0  0  0  0  0
    0.6951   29.4201   13.6386 H   0  0  0  0  0  0
   -1.8464   32.9488   11.3143 H   0  0  0  0  0  0
   -0.1978   33.9919   10.1450 H   0  0  0  0  0  0
    0.7470   36.2371    9.7543 H   0  0  0  0  0  0
    3.2264   39.6996    7.0048 H   0  0  0  0  0  0
    3.1632   41.4232    7.8144 H   0  0  0  0  0  0
    4.5698   37.8876    9.0069 H   0  0  0  0  0  0
    2.0510   36.6518    9.0497 H   0  0  0  0  0  0
    1.7223   38.1960    8.1930 H   0  0  0  0  0  0
    3.9301   37.3283    6.8509 H   0  0  0  0  0  0
    3.1595   35.7712    7.3072 H   0  0  0  0  0  0
    2.2197   36.3321    5.1990 H   0  0  0  0  0  0
    0.9609   36.7915    6.3952 H   0  0  0  0  0  0
    1.6691   39.1608    6.2365 H   0  0  0  0  0  0
    2.9379   38.7053    5.0494 H   0  0  0  0  0  0
    1.0257   39.6701    3.9944 H   0  0  0  0  0  0
   -0.0295   38.4053    4.7109 H   0  0  0  0  0  0
    1.2393   37.9498    3.5238 H   0  0  0  0  0  0
    4.2707   38.3253   11.2948 H   0  0  0  0  0  0
    2.4364   36.2639   13.7090 H   0  0  0  0  0  0
    1.7345   31.6919   13.3799 H   0  0  0  0  0  0
   -1.5726   29.0160   12.7141 H   0  0  0  0  0  0
  1 16  1  0  0  0
  1 17  1  0  0  0
  1 24  1  0  0  0
  1 25  1  0  0  0
  2 18  2  0  0  0
  2 19  1  0  0  0
  2 26  1  0  0  0
  3  5  2  0  0  0
  3 19  1  0  0  0
  3 20  1  0  0  0
  4 20  2  0  0  0
  4 21  1  0  0  0
  4 27  1  0  0  0
  5 22  1  0  0  0
  5 28  1  0  0  0
  6  7  1  0  0  0
  6 19  2  0  0  0
  6 29  1  0  0  0
  7 17  2  0  0  0
  7 30  1  0  0  0
  8  9  1  0  0  0
  8 31  1  0  0  0
  8 32  1  0  0  0
  9 10  1  0  0  0
  9 23  2  0  0  0
 10 11  1  0  0  0
 10 16  1  0  0  0
 10 33  1  0  0  0
 11 12  1  0  0  0
 11 34  1  0  0  0
 11 35  1  0  0  0
 12 13  1  0  0  0
 12 36  1  0  0  0
 12 37  1  0  0  0
 13 14  1  0  0  0
 13 38  1  0  0  0
 13 39  1  0  0  0
 14 15  1  0  0  0
 14 40  1  0  0  0
 14 41  1  0  0  0
 15 42  1  0  0  0
 15 43  1  0  0  0
 15 44  1  0  0  0
 16 45  1  0  0  0
 17 18  1  0  0  0
 18 46  1  0  0  0
 20 47  1  0  0  0
 21 22  2  0  0  0
 21 48  1  0  0  0
M  CHG  1  15   1
M  END
> <s_m_source_file>
../4u5l_ligand.sdf

> <i_m_source_file_index>
1

> <s_epik_input>
W05IMytdW0NIMl1bQ0gyXVtDSDJdW0NIMl1bQ0BASF0oQyg9TylbTkgyXSlbTkgyK11bQ0gyXWMxW2NIXVtjSF1jKFtjSF1bY0hdMSktYzJbY0hdbltjSF1bY0hdW2NIXTI=

> <s_epik_cmdline>
J2VwaWtfYXBwJywgJy1pbWFlJywgJ2xpZ2FuZF9wcm8ubWFlJywgJy1vbWFlJywgJ2xpZ2FuZF9wcmVwLm1hZScsICctbXMnLCAnMScsICctcGgnLCAnNycsICctcGh0JywgJzAuNScsICctbnQn

> <r_epik_Ionization_Penalty>
  0.1983

> <r_epik_Ionization_Penalty_Charging>
  0.0004

> <r_epik_Ionization_Penalty_Neutral>
  0.1979

> <r_epik_State_Penalty>
  0.1819

> <r_epik_Charging_Adjusted_Penalty>
0.182256162861955

> <i_epik_Tot_Q>
1

> <i_epik_Tot_abs_Q>
1

$$$$
