4u5n_ligand
                    3D
 Schrodinger Suite 2020-3.
 91 93  0  0  1  0            999 V2000
    2.7450   37.3560    9.1040 N   0  0  1  0  0  0
    2.4160   36.5020    7.9500 C   0  0  2  0  0  0
    3.2500   28.7560   10.5440 C   0  0  0  0  0  0
   -4.3020   24.8580    7.5590 C   0  0  0  0  0  0
   -3.5610   25.2300    6.4490 C   0  0  0  0  0  0
   -3.7180   24.8120    8.8130 C   0  0  0  0  0  0
   -0.0890   30.2440   12.9030 C   0  0  0  0  0  0
   -1.3170   29.8460   12.4050 C   0  0  0  0  0  0
   -2.2290   25.5580    6.6050 C   0  0  0  0  0  0
   -2.3780   25.1400    8.9650 C   0  0  0  0  0  0
    0.3940   31.4950   12.5460 C   0  0  0  0  0  0
    0.0410   35.5050    9.7990 C   0  0  0  0  0  0
    1.6340   35.5170   11.6120 C   0  0  0  0  0  0
   -0.4330   34.2610   10.1840 C   0  0  0  0  0  0
    1.1580   34.2730   12.0110 C   0  0  0  0  0  0
   -1.5970   31.8190   11.2560 C   0  0  0  0  0  0
    2.4720   32.5810    7.6780 C   0  0  0  0  0  0
    2.8920   35.0610    8.1830 C   0  0  0  0  0  0
    3.8100   34.8230    8.8970 O   0  0  0  0  0  0
    2.1810   25.9120    5.0830 N   0  0  0  0  0  0
    0.3170   24.6800    5.5970 O   0  0  0  0  0  0
    0.1700   32.1170    7.5620 O   0  0  0  0  0  0
    0.6010   28.3520    9.2680 O   0  0  0  0  0  0
    4.5980   30.3870    9.5500 O   0  0  0  0  0  0
    2.9080   37.0300    6.6050 C   0  0  0  0  0  0
    1.6150   37.4980   10.0490 C   0  0  0  0  0  0
   -0.1370   25.8630    8.0300 C   0  0  0  0  0  0
    0.9390   25.6690    5.8090 C   0  0  0  0  0  0
    1.2440   31.6620    7.7740 C   0  0  0  0  0  0
    1.7610   28.0740    8.5300 C   0  0  2  0  0  0
    1.0750   36.1330   10.5000 C   0  0  0  0  0  0
   -1.6240   25.5100    7.8600 C   0  0  0  0  0  0
    0.1300   33.6620   11.3000 C   0  0  0  0  0  0
   -0.3800   32.2940   11.7220 C   0  0  0  0  0  0
    3.1770   29.8530    9.7310 C   0  0  1  0  0  0
    0.4260   26.6700    6.8500 C   0  0  2  0  0  0
    2.4520   29.4320    8.4330 C   0  0  2  0  0  0
   -2.0320   30.6280   11.6160 N   0  0  0  0  0  0
    2.1460   33.9910    7.5280 N   0  0  0  0  0  0
    1.2920   30.2520    8.1330 N   0  0  0  0  0  0
    1.4910   27.6430    7.1520 N   0  0  1  0  0  0
    2.1380   38.2920    6.2260 C   0  0  0  0  0  0
    1.2830   38.0950    4.9860 C   0  0  0  0  0  0
    0.8350   39.4140    4.3540 C   0  0  0  0  0  0
   -0.3790   39.2030    3.5800 N   0  3  0  0  0  0
    3.5916   36.9191    9.6539 H   0  0  0  0  0  0
    1.3177   36.5520    7.9144 H   0  0  0  0  0  0
    3.7629   29.0260   11.4789 H   0  0  0  0  0  0
    3.8115   27.9589   10.0347 H   0  0  0  0  0  0
    2.2343   28.4006   10.7724 H   0  0  0  0  0  0
   -5.3545   24.5992    7.4437 H   0  0  0  0  0  0
   -4.0247   25.2634    5.4631 H   0  0  0  0  0  0
   -4.3097   24.5185    9.6801 H   0  0  0  0  0  0
    0.4852   29.5907   13.5599 H   0  0  0  0  0  0
   -1.7043   28.8623   12.6704 H   0  0  0  0  0  0
   -1.6432   25.8582    5.7362 H   0  0  0  0  0  0
   -1.9176   25.1070    9.9525 H   0  0  0  0  0  0
    1.3625   31.8413   12.9068 H   0  0  0  0  0  0
   -0.3998   36.0023    8.9350 H   0  0  0  0  0  0
    2.4370   36.0033   12.1659 H   0  0  0  0  0  0
   -1.2272   33.7669    9.6243 H   0  0  0  0  0  0
    1.5899   33.7769   12.8801 H   0  0  0  0  0  0
   -2.1980   32.4351   10.5872 H   0  0  0  0  0  0
    3.0757   32.4830    8.5923 H   0  0  0  0  0  0
    3.0779   32.2935    6.8061 H   0  0  0  0  0  0
    2.5349   25.1831    4.3391 H   0  0  0  0  0  0
    2.7635   26.8241    5.2796 H   0  0  0  0  0  0
    0.6807   28.6836   10.3138 H   0  0  0  0  0  0
    5.1808   30.7076   10.4261 H   0  0  0  0  0  0
    3.9799   37.2673    6.6741 H   0  0  0  0  0  0
    2.7512   36.2644    5.8309 H   0  0  0  0  0  0
    1.9495   38.0491   10.9403 H   0  0  0  0  0  0
    0.7971   38.0496    9.5624 H   0  0  0  0  0  0
   -0.0050   26.4657    8.9407 H   0  0  0  0  0  0
    0.4522   24.9379    8.1140 H   0  0  0  0  0  0
    2.2709   27.2425    9.0385 H   0  0  0  0  0  0
    2.5793   30.6178   10.2486 H   0  0  0  0  0  0
   -0.3794   27.3325    6.5001 H   0  0  0  0  0  0
    3.2384   29.5137    7.6682 H   0  0  0  0  0  0
    1.2995   34.2955    6.8950 H   0  0  0  0  0  0
    0.2845   29.8115    8.1628 H   0  0  0  0  0  0
    1.2166   28.5162    6.5419 H   0  0  0  0  0  0
    1.4746   38.5796    7.0550 H   0  0  0  0  0  0
    2.8477   39.1079    6.0243 H   0  0  0  0  0  0
    1.8568   37.5397    4.2294 H   0  0  0  0  0  0
    0.3789   37.5269    5.2504 H   0  0  0  0  0  0
    0.6377   40.1516    5.1458 H   0  0  0  0  0  0
    1.6278   39.7909    3.6911 H   0  0  0  0  0  0
   -0.6959   40.1546    3.1283 H   0  0  0  0  0  0
   -1.1745   38.8278    4.2407 H   0  0  0  0  0  0
   -0.1843   38.4671    2.7859 H   0  0  0  0  0  0
  1  2  1  0  0  0
  1 26  1  0  0  0
  1 46  1  0  0  0
  2 18  1  0  0  0
  2 25  1  0  0  0
  2 47  1  0  0  0
  3 35  1  0  0  0
  3 48  1  0  0  0
  3 49  1  0  0  0
  3 50  1  0  0  0
  4  5  2  0  0  0
  4  6  1  0  0  0
  4 51  1  0  0  0
  5  9  1  0  0  0
  5 52  1  0  0  0
  6 10  2  0  0  0
  6 53  1  0  0  0
  7  8  2  0  0  0
  7 11  1  0  0  0
  7 54  1  0  0  0
  8 38  1  0  0  0
  8 55  1  0  0  0
  9 32  2  0  0  0
  9 56  1  0  0  0
 10 32  1  0  0  0
 10 57  1  0  0  0
 11 34  2  0  0  0
 11 58  1  0  0  0
 12 14  2  0  0  0
 12 31  1  0  0  0
 12 59  1  0  0  0
 13 15  1  0  0  0
 13 31  2  0  0  0
 13 60  1  0  0  0
 14 33  1  0  0  0
 14 61  1  0  0  0
 15 33  2  0  0  0
 15 62  1  0  0  0
 16 34  1  0  0  0
 16 38  2  0  0  0
 16 63  1  0  0  0
 17 29  1  0  0  0
 17 39  1  0  0  0
 17 64  1  0  0  0
 17 65  1  0  0  0
 18 19  2  0  0  0
 18 39  1  0  0  0
 20 28  1  0  0  0
 20 66  1  0  0  0
 20 67  1  0  0  0
 21 28  2  0  0  0
 22 29  2  0  0  0
 23 30  1  0  0  0
 23 68  1  0  0  0
 24 35  1  0  0  0
 24 69  1  0  0  0
 25 42  1  0  0  0
 25 70  1  0  0  0
 25 71  1  0  0  0
 26 31  1  0  0  0
 26 72  1  0  0  0
 26 73  1  0  0  0
 27 32  1  0  0  0
 27 36  1  0  0  0
 27 74  1  0  0  0
 27 75  1  0  0  0
 28 36  1  0  0  0
 29 40  1  0  0  0
 30 37  1  0  0  0
 30 41  1  0  0  0
 30 76  1  0  0  0
 33 34  1  0  0  0
 35 37  1  0  0  0
 35 77  1  0  0  0
 36 41  1  0  0  0
 36 78  1  0  0  0
 37 40  1  0  0  0
 37 79  1  0  0  0
 39 80  1  0  0  0
 40 81  1  0  0  0
 41 82  1  0  0  0
 42 43  1  0  0  0
 42 83  1  0  0  0
 42 84  1  0  0  0
 43 44  1  0  0  0
 43 85  1  0  0  0
 43 86  1  0  0  0
 44 45  1  0  0  0
 44 87  1  0  0  0
 44 88  1  0  0  0
 45 89  1  0  0  0
 45 90  1  0  0  0
 45 91  1  0  0  0
M  CHG  1  45   1
M  END
> <s_m_source_file>
../4u5n_ligand.sdf

> <i_m_source_file_index>
1

> <s_epik_input>
W2NIXTFuW2NIXVtjSF1bY0hdYzEtYyhbY0hdW2NIXTIpW2NIXVtjSF1jMltDSDJdW05IMitdW0NAQEhdKFtDSDJdW0NIMl1bQ0gyXVtDSDJdW05IMytdKUMoPU8pW05IXVtDSDJdQyg9TylbTkhdW0NAQEhdKFtDQEBIXShbQ0gzXSlbT0hdKVtDQEBIXShbT0hdKVtOSDIrXVtDQEBIXShDKD1PKVtOSDJdKVtDSDJdYzNbY0hdW2NIXVtjSF1bY0hdW2NIXTM=

> <s_epik_cmdline>
J2VwaWtfYXBwJywgJy1pbWFlJywgJ2xpZ2FuZF9wcm8ubWFlJywgJy1vbWFlJywgJ2xpZ2FuZF9wcmVwLm1hZScsICctbXMnLCAnMScsICctcGgnLCAnNycsICctcGh0JywgJzAuNScsICctbnQn

> <r_epik_Ionization_Penalty>
  0.3432

> <r_epik_Ionization_Penalty_Charging>
  0.0004

> <r_epik_Ionization_Penalty_Neutral>
  0.3429

> <r_epik_State_Penalty>
  0.3562

> <r_epik_Charging_Adjusted_Penalty>
0.356602006581699

> <i_epik_Tot_Q>
1

> <i_epik_Tot_abs_Q>
1

> <s_epik_Chemistry_Notes>
This compound contains an acetal/aminal-like group ( X-CH(R)-Y where X, Y are N, S, or O) that may be acid/base labile, releasing an aldehyde.

$$$$
