4u5s_ligand
                    3D
 Schrodinger Suite 2020-3.
 90 91  0  0  1  0            999 V2000
    2.7030   28.5600    3.0220 C   0  0  0  0  0  0
    3.5320   29.5770    2.5350 C   0  0  0  0  0  0
    4.9230   29.5200    2.7690 C   0  0  0  0  0  0
    5.4670   28.4310    3.4820 C   0  0  0  0  0  0
    4.6160   27.4260    3.9520 C   0  0  0  0  0  0
    3.2260   27.4730    3.7230 C   0  0  0  0  0  0
    2.2430   26.3580    4.2390 C   0  0  0  0  0  0
    2.3090   26.1810    5.7780 C   0  0  2  0  0  0
    1.0100   25.6760    6.3840 C   0  0  0  0  0  0
    1.0100   25.2420    7.4870 O   0  0  0  0  0  0
   -0.2340   25.7220    5.6120 N   0  0  0  0  0  0
    2.7060   27.4950    6.2660 N   0  0  0  0  0  0
    2.4020   28.1990    7.5250 C   0  0  0  0  0  0
    1.6980   27.7660    8.3910 O   0  0  0  0  0  0
    3.0720   29.5800    7.6370 C   0  0  2  0  0  0
    4.6010   29.4250    7.7000 C   0  0  2  0  0  0
    5.0190   28.0700    8.3010 C   0  0  0  0  0  0
    5.1620   30.4550    8.4700 O   0  0  0  0  0  0
    2.5660   30.3140    8.7940 N   0  3  0  0  0  0
    1.6340   31.3480    8.3050 C   0  0  0  0  0  0
    1.2090   32.2570    9.4710 C   0  0  2  0  0  0
    1.5880   33.6520    9.2510 N   0  0  0  0  0  0
    2.9510   34.2330    9.1930 C   0  0  0  0  0  0
    3.9530   33.6050    9.3310 O   0  0  0  0  0  0
    2.9790   35.7440    8.9740 C   0  0  2  0  0  0
    2.0320   36.1530    9.9970 N   0  0  0  0  0  0
    2.4130   37.0570   11.0820 C   0  0  0  0  0  0
    3.5070   37.5190   11.1050 O   0  0  0  0  0  0
    1.3910   37.4230   12.1740 C   0  0  0  0  0  0
    2.4910   36.0290    7.5480 C   0  0  0  0  0  0
    2.0090   37.4900    7.3210 C   0  0  0  0  0  0
    1.5800   37.7360    5.8460 C   0  0  0  0  0  0
    0.7580   39.0430    5.6790 C   0  0  0  0  0  0
   -0.0100   39.0500    4.4250 N   0  3  0  0  0  0
    1.7800   31.7710   10.8110 C   0  0  0  0  0  0
    1.3430   32.6490   11.8480 O   0  0  0  0  0  0
   -0.0570   32.6240   12.1240 C   0  0  0  0  0  0
   -0.3990   31.2870   12.8360 C   0  0  0  0  0  0
    0.4700   30.7500   13.7980 C   0  0  0  0  0  0
    0.1160   29.5440   14.4030 C   0  0  0  0  0  0
   -1.0810   28.9250   14.0330 C   0  0  0  0  0  0
   -1.8860   29.4610   13.1150 N   0  0  0  0  0  0
   -1.5800   30.6100   12.5200 C   0  0  0  0  0  0
    1.6282   28.6183    2.8503 H   0  0  0  0  0  0
    3.1051   30.4103    1.9769 H   0  0  0  0  0  0
    5.5734   30.3134    2.4007 H   0  0  0  0  0  0
    6.5400   28.3736    3.6647 H   0  0  0  0  0  0
    5.0367   26.5879    4.5076 H   0  0  0  0  0  0
    1.2105   26.6269    3.9712 H   0  0  0  0  0  0
    2.5036   25.3957    3.7742 H   0  0  0  0  0  0
    3.0425   25.4338    6.1152 H   0  0  0  0  0  0
   -0.2316   26.1252    4.5886 H   0  0  0  0  0  0
   -1.1706   25.3533    6.0557 H   0  0  0  0  0  0
    3.3460   28.1412    5.6473 H   0  0  0  0  0  0
    2.7971   30.2045    6.7742 H   0  0  0  0  0  0
    5.0244   29.5559    6.6932 H   0  0  0  0  0  0
    4.5842   27.2545    7.7044 H   0  0  0  0  0  0
    4.6555   28.0006    9.3369 H   0  0  0  0  0  0
    6.1158   27.9872    8.2909 H   0  0  0  0  0  0
    4.9786   31.5056    8.2005 H   0  0  0  0  0  0
    2.0437   29.6199    9.4688 H   0  0  0  0  0  0
    3.4065   30.7816    9.3279 H   0  0  0  0  0  0
    2.1308   31.9539    7.5330 H   0  0  0  0  0  0
    0.7435   30.8656    7.8757 H   0  0  0  0  0  0
    0.1096   32.2570    9.5078 H   0  0  0  0  0  0
    0.8109   34.4163    9.1030 H   0  0  0  0  0  0
    3.9337   36.2771    9.0941 H   0  0  0  0  0  0
    0.9970   35.7814    9.9686 H   0  0  0  0  0  0
    0.4437   36.8985   11.9803 H   0  0  0  0  0  0
    1.2173   38.5092   12.1644 H   0  0  0  0  0  0
    1.7819   37.1228   13.1574 H   0  0  0  0  0  0
    3.3094   35.8443    6.8366 H   0  0  0  0  0  0
    1.6437   35.3686    7.3115 H   0  0  0  0  0  0
    1.1452   37.6962    7.9702 H   0  0  0  0  0  0
    2.8246   38.1871    7.5636 H   0  0  0  0  0  0
    2.4754   37.8145    5.2119 H   0  0  0  0  0  0
    0.9582   36.8971    5.5002 H   0  0  0  0  0  0
    0.0517   39.1415    6.5165 H   0  0  0  0  0  0
    1.4396   39.9063    5.6708 H   0  0  0  0  0  0
   -0.5757   39.9901    4.3468 H   0  0  0  0  0  0
   -0.7083   38.2001    4.4180 H   0  0  0  0  0  0
    0.6796   38.9650    3.5722 H   0  0  0  0  0  0
    1.4223   30.7507   11.0135 H   0  0  0  0  0  0
    2.8790   31.7715   10.7631 H   0  0  0  0  0  0
   -0.3176   33.4717   12.7748 H   0  0  0  0  0  0
   -0.6181   32.6998   11.1809 H   0  0  0  0  0  0
    1.3952   31.2607   14.0649 H   0  0  0  0  0  0
    0.7637   29.0910   15.1535 H   0  0  0  0  0  0
   -1.3627   27.9837   14.5050 H   0  0  0  0  0  0
   -2.2584   31.0289   11.7768 H   0  0  0  0  0  0
  1  2  2  0  0  0
  1  6  1  0  0  0
  1 44  1  0  0  0
  2  3  1  0  0  0
  2 45  1  0  0  0
  3  4  2  0  0  0
  3 46  1  0  0  0
  4  5  1  0  0  0
  4 47  1  0  0  0
  5  6  2  0  0  0
  5 48  1  0  0  0
  6  7  1  0  0  0
  7  8  1  0  0  0
  7 49  1  0  0  0
  7 50  1  0  0  0
  8  9  1  0  0  0
  8 12  1  0  0  0
  8 51  1  0  0  0
  9 10  2  0  0  0
  9 11  1  0  0  0
 11 52  1  0  0  0
 11 53  1  0  0  0
 12 13  1  0  0  0
 12 54  1  0  0  0
 13 14  2  0  0  0
 13 15  1  0  0  0
 15 16  1  0  0  0
 15 19  1  0  0  0
 15 55  1  0  0  0
 16 17  1  0  0  0
 16 18  1  0  0  0
 16 56  1  0  0  0
 17 57  1  0  0  0
 17 58  1  0  0  0
 17 59  1  0  0  0
 18 60  1  0  0  0
 19 20  1  0  0  0
 19 61  1  0  0  0
 19 62  1  0  0  0
 20 21  1  0  0  0
 20 63  1  0  0  0
 20 64  1  0  0  0
 21 22  1  0  0  0
 21 35  1  0  0  0
 21 65  1  0  0  0
 22 23  1  0  0  0
 22 66  1  0  0  0
 23 24  2  0  0  0
 23 25  1  0  0  0
 25 26  1  0  0  0
 25 30  1  0  0  0
 25 67  1  0  0  0
 26 27  1  0  0  0
 26 68  1  0  0  0
 27 28  2  0  0  0
 27 29  1  0  0  0
 29 69  1  0  0  0
 29 70  1  0  0  0
 29 71  1  0  0  0
 30 31  1  0  0  0
 30 72  1  0  0  0
 30 73  1  0  0  0
 31 32  1  0  0  0
 31 74  1  0  0  0
 31 75  1  0  0  0
 32 33  1  0  0  0
 32 76  1  0  0  0
 32 77  1  0  0  0
 33 34  1  0  0  0
 33 78  1  0  0  0
 33 79  1  0  0  0
 34 80  1  0  0  0
 34 81  1  0  0  0
 34 82  1  0  0  0
 35 36  1  0  0  0
 35 83  1  0  0  0
 35 84  1  0  0  0
 36 37  1  0  0  0
 37 38  1  0  0  0
 37 85  1  0  0  0
 37 86  1  0  0  0
 38 39  2  0  0  0
 38 43  1  0  0  0
 39 40  1  0  0  0
 39 87  1  0  0  0
 40 41  2  0  0  0
 40 88  1  0  0  0
 41 42  1  0  0  0
 41 89  1  0  0  0
 42 43  2  0  0  0
 43 90  1  0  0  0
M  CHG  2  19   1  34   1
M  END
> <s_m_source_file>
../4u5s_ligand.sdf

> <i_m_source_file_index>
1

> <s_epik_input>
W2NIXTFbY0hdW2NIXVtjSF1bY0hdYzFbQ0gyXVtDQEhdKEMoPU8pW05IMl0pW05IXUMoPU8pW0NASF0oW0NASF0oW0NIM10pW09IXSlbTkgyK11bQ0gyXVtDQEhdKFtOSF1DKD1PKVtDQEhdKFtOSF1DKD1PKVtDSDNdKVtDSDJdW0NIMl1bQ0gyXVtDSDJdW05IMytdKVtDSDJdT1tDSDJdYzJbY0hdW2NIXVtjSF1uW2NIXTI=

> <s_epik_cmdline>
J2VwaWtfYXBwJywgJy1pbWFlJywgJ2xpZ2FuZF9wcm8ubWFlJywgJy1vbWFlJywgJ2xpZ2FuZF9wcmVwLm1hZScsICctbXMnLCAnMScsICctcGgnLCAnNycsICctcGh0JywgJzAuNScsICctbnQn

> <r_epik_Ionization_Penalty>
  0.2756

> <r_epik_Ionization_Penalty_Charging>
  0.2705

> <r_epik_Ionization_Penalty_Neutral>
  0.0051

> <r_epik_State_Penalty>
  0.2622

> <r_epik_Charging_Adjusted_Penalty>
0.532707145626216

> <i_epik_Tot_Q>
2

> <i_epik_Tot_abs_Q>
2

$$$$
