4u5u_ligand
                    3D
 Schrodinger Suite 2020-3.
 48 49  0  0  1  0            999 V2000
   -0.9830   29.9830   13.0820 C   0  0  0  0  0  0
   -0.0290   34.3250   10.6340 C   0  0  0  0  0  0
    0.4640   33.7400   11.7940 C   0  0  0  0  0  0
    0.0130   32.4740   12.1990 C   0  0  0  0  0  0
    0.6040   31.8030   13.2640 C   0  0  0  0  0  0
    0.1410   30.5520   13.6730 C   0  0  0  0  0  0
    0.4100   35.5910   10.2500 C   0  0  0  0  0  0
    1.2730   36.3430   11.0480 C   0  0  0  0  0  0
    1.7290   35.7960   12.2380 C   0  0  0  0  0  0
    1.2960   34.5120   12.6030 C   0  0  0  0  0  0
    2.6020   36.4320   13.1480 C   0  0  0  0  0  0
   -1.6250   30.6750   12.0520 N   0  0  0  0  0  0
   -1.1310   31.9230   11.6230 C   0  0  0  0  0  0
    3.6420   37.4750   12.8700 N   0  0  1  0  0  0
    3.4100   38.8820   12.3960 C   0  0  2  0  0  0
    2.2540   39.5630   13.1660 C   0  0  0  0  0  0
    1.3830   40.2000   12.5670 O   0  0  0  0  0  0
    2.3050   39.4490   14.4930 N   0  0  0  0  0  0
    3.2310   39.2150   10.9010 C   0  0  0  0  0  0
    4.5280   38.8820   10.1600 C   0  0  0  0  0  0
    4.4100   39.3270    8.7000 C   0  0  0  0  0  0
    4.1750   40.8490    8.6740 C   0  0  0  0  0  0
    5.2780   41.5900    9.3130 N   0  3  0  0  0  0
   -1.3558   29.0149   13.4166 H   0  0  0  0  0  0
   -0.7595   33.7936   10.0240 H   0  0  0  0  0  0
    1.4426   32.2618   13.7878 H   0  0  0  0  0  0
    0.6651   30.0149   14.4635 H   0  0  0  0  0  0
    0.0699   36.0048    9.3007 H   0  0  0  0  0  0
    1.5831   37.3421   10.7417 H   0  0  0  0  0  0
    1.6237   34.1017   13.5582 H   0  0  0  0  0  0
    2.0134   36.9666   13.9081 H   0  0  0  0  0  0
    3.2344   35.6771   13.6380 H   0  0  0  0  0  0
   -1.6494   32.4641   10.8314 H   0  0  0  0  0  0
    4.2170   37.6729   13.7866 H   0  0  0  0  0  0
    4.4232   39.2430   12.6266 H   0  0  0  0  0  0
    3.1095   38.8655   14.9644 H   0  0  0  0  0  0
    1.5425   39.9385   15.1168 H   0  0  0  0  0  0
    2.4038   38.6184   10.4890 H   0  0  0  0  0  0
    3.0028   40.2852   10.7885 H   0  0  0  0  0  0
    5.3682   39.4080   10.6370 H   0  0  0  0  0  0
    4.7047   37.7970   10.1996 H   0  0  0  0  0  0
    5.3390   39.0802    8.1652 H   0  0  0  0  0  0
    3.5646   38.8072    8.2254 H   0  0  0  0  0  0
    4.0917   41.1894    7.6313 H   0  0  0  0  0  0
    3.2454   41.0858    9.2123 H   0  0  0  0  0  0
    5.0676   42.6689    9.2711 H   0  0  0  0  0  0
    6.2178   41.3788    8.7818 H   0  0  0  0  0  0
    5.3715   41.2751   10.3628 H   0  0  0  0  0  0
  1  6  2  0  0  0
  1 12  1  0  0  0
  1 24  1  0  0  0
  2  3  2  0  0  0
  2  7  1  0  0  0
  2 25  1  0  0  0
  3  4  1  0  0  0
  3 10  1  0  0  0
  4  5  2  0  0  0
  4 13  1  0  0  0
  5  6  1  0  0  0
  5 26  1  0  0  0
  6 27  1  0  0  0
  7  8  2  0  0  0
  7 28  1  0  0  0
  8  9  1  0  0  0
  8 29  1  0  0  0
  9 10  2  0  0  0
  9 11  1  0  0  0
 10 30  1  0  0  0
 11 14  1  0  0  0
 11 31  1  0  0  0
 11 32  1  0  0  0
 12 13  2  0  0  0
 13 33  1  0  0  0
 14 15  1  0  0  0
 14 34  1  0  0  0
 15 16  1  0  0  0
 15 19  1  0  0  0
 15 35  1  0  0  0
 16 17  2  0  0  0
 16 18  1  0  0  0
 18 36  1  0  0  0
 18 37  1  0  0  0
 19 20  1  0  0  0
 19 38  1  0  0  0
 19 39  1  0  0  0
 20 21  1  0  0  0
 20 40  1  0  0  0
 20 41  1  0  0  0
 21 22  1  0  0  0
 21 42  1  0  0  0
 21 43  1  0  0  0
 22 23  1  0  0  0
 22 44  1  0  0  0
 22 45  1  0  0  0
 23 46  1  0  0  0
 23 47  1  0  0  0
 23 48  1  0  0  0
M  CHG  1  23   1
M  END
> <s_m_source_file>
../4u5u_ligand.sdf

> <i_m_source_file_index>
1

> <s_epik_input>
W2NIXTFuW2NIXVtjSF1bY0hdYzEtYzJbY0hdW2NIXVtjSF1jKFtjSF0yKVtDSDJdW05IMitdW0NASF0oQyg9TylbTkgyXSlbQ0gyXVtDSDJdW0NIMl1bQ0gyXVtOSDMrXQ==

> <s_epik_cmdline>
J2VwaWtfYXBwJywgJy1pbWFlJywgJ2xpZ2FuZF9wcm8ubWFlJywgJy1vbWFlJywgJ2xpZ2FuZF9wcmVwLm1hZScsICctbXMnLCAnMScsICctcGgnLCAnNycsICctcGh0JywgJzAuNScsICctbnQn

> <r_epik_Ionization_Penalty>
  0.1942

> <r_epik_Ionization_Penalty_Charging>
  0.0004

> <r_epik_Ionization_Penalty_Neutral>
  0.1938

> <r_epik_State_Penalty>
  0.1788

> <r_epik_Charging_Adjusted_Penalty>
0.179199613562196

> <i_epik_Tot_Q>
1

> <i_epik_Tot_abs_Q>
1

$$$$
