4u5v_ligand
                    3D
 Schrodinger Suite 2020-3.
 46 47  0  0  1  0            999 V2000
    4.3780   39.0960   11.3880 N   0  0  0  0  0  0
    4.5850   38.3490   10.2960 C   0  0  0  0  0  0
    3.5180   37.2670    9.9080 C   0  0  2  0  0  0
    3.5490   36.8600    8.3610 C   0  0  0  0  0  0
    2.3540   37.5020    7.6290 C   0  0  0  0  0  0
    2.3980   37.4620    6.0720 C   0  0  0  0  0  0
    1.3740   38.5930    5.7250 C   0  0  0  0  0  0
    0.8560   38.6320    4.3160 N   0  3  0  0  0  0
    2.1920   37.7220   10.4450 N   0  3  0  0  0  0
    1.8560   37.0710   11.7170 C   0  0  0  0  0  0
    1.2230   35.7480   11.3450 C   0  0  0  0  0  0
    0.5270   35.3980   10.0810 C   0  0  0  0  0  0
   -0.3240   34.1850   10.3120 C   0  0  0  0  0  0
    0.1760   33.4940   11.5360 C   0  0  0  0  0  0
   -0.3150   32.2950   12.0090 C   0  0  0  0  0  0
    0.4420   31.6070   12.9570 C   0  0  0  0  0  0
   -0.0120   30.4050   13.4780 C   0  0  0  0  0  0
   -1.2470   29.9060   13.0600 C   0  0  0  0  0  0
   -2.0300   30.6130   12.1090 N   0  0  0  0  0  0
   -1.5560   31.8250   11.5630 C   0  0  0  0  0  0
    1.2970   34.4250   12.2890 S   0  0  0  0  0  0
    5.6050   38.4730    9.6360 O   0  0  0  0  0  0
    3.4540   38.9724   11.9719 H   0  0  0  0  0  0
    5.1320   39.8332   11.7011 H   0  0  0  0  0  0
    3.7095   36.3181   10.4303 H   0  0  0  0  0  0
    4.4865   37.2140    7.9075 H   0  0  0  0  0  0
    3.4873   35.7656    8.2684 H   0  0  0  0  0  0
    1.4265   36.9869    7.9194 H   0  0  0  0  0  0
    2.2842   38.5650    7.9031 H   0  0  0  0  0  0
    3.4217   37.6721    5.7286 H   0  0  0  0  0  0
    2.0911   36.4653    5.7220 H   0  0  0  0  0  0
    0.4851   38.4917    6.3650 H   0  0  0  0  0  0
    1.8397   39.5746    5.8969 H   0  0  0  0  0  0
    0.1499   39.4685    4.2080 H   0  0  0  0  0  0
    0.3420   37.6866    4.0880 H   0  0  0  0  0  0
    1.6966   38.7694    3.6200 H   0  0  0  0  0  0
    2.2181   38.8087   10.6138 H   0  0  0  0  0  0
    1.4008   37.4826    9.7193 H   0  0  0  0  0  0
    2.7727   36.9240   12.3070 H   0  0  0  0  0  0
    1.1555   37.7054   12.2798 H   0  0  0  0  0  0
    0.6196   35.9359    9.1375 H   0  0  0  0  0  0
   -1.1620   33.8641    9.6933 H   0  0  0  0  0  0
    1.3957   32.0165   13.2901 H   0  0  0  0  0  0
    0.5876   29.8567   14.2046 H   0  0  0  0  0  0
   -1.6141   28.9641   13.4677 H   0  0  0  0  0  0
   -2.1350   32.3750   10.8212 H   0  0  0  0  0  0
  1  2  1  0  0  0
  1 23  1  0  0  0
  1 24  1  0  0  0
  2  3  1  0  0  0
  2 22  2  0  0  0
  3  4  1  0  0  0
  3  9  1  0  0  0
  3 25  1  0  0  0
  4  5  1  0  0  0
  4 26  1  0  0  0
  4 27  1  0  0  0
  5  6  1  0  0  0
  5 28  1  0  0  0
  5 29  1  0  0  0
  6  7  1  0  0  0
  6 30  1  0  0  0
  6 31  1  0  0  0
  7  8  1  0  0  0
  7 32  1  0  0  0
  7 33  1  0  0  0
  8 34  1  0  0  0
  8 35  1  0  0  0
  8 36  1  0  0  0
  9 10  1  0  0  0
  9 37  1  0  0  0
  9 38  1  0  0  0
 10 11  1  0  0  0
 10 39  1  0  0  0
 10 40  1  0  0  0
 11 12  2  0  0  0
 11 21  1  0  0  0
 12 13  1  0  0  0
 12 41  1  0  0  0
 13 14  2  0  0  0
 13 42  1  0  0  0
 14 15  1  0  0  0
 14 21  1  0  0  0
 15 16  2  0  0  0
 15 20  1  0  0  0
 16 17  1  0  0  0
 16 43  1  0  0  0
 17 18  2  0  0  0
 17 44  1  0  0  0
 18 19  1  0  0  0
 18 45  1  0  0  0
 19 20  2  0  0  0
 20 46  1  0  0  0
M  CHG  2   8   1   9   1
M  END
> <s_m_source_file>
../4u5v_ligand.sdf

> <i_m_source_file_index>
1

> <s_epik_input>
W05IMytdW0NIMl1bQ0gyXVtDSDJdW0NIMl1bQ0BASF0oQyg9TylbTkgyXSlbTkgyK11bQ0gyXWMxW2NIXVtjSF1jKHMxKS1jMltjSF1bY0hdW2NIXW5bY0hdMg==

> <s_epik_cmdline>
J2VwaWtfYXBwJywgJy1pbWFlJywgJ2xpZ2FuZF9wcm8ubWFlJywgJy1vbWFlJywgJ2xpZ2FuZF9wcmVwLm1hZScsICctbXMnLCAnMScsICctcGgnLCAnNycsICctcGh0JywgJzAuNScsICctbnQn

> <r_epik_Ionization_Penalty>
  0.2573

> <r_epik_Ionization_Penalty_Charging>
  0.2545

> <r_epik_Ionization_Penalty_Neutral>
  0.0027

> <r_epik_State_Penalty>
  0.2454

> <r_epik_Charging_Adjusted_Penalty>
0.499947863893023

> <i_epik_Tot_Q>
2

> <i_epik_Tot_abs_Q>
2

$$$$
