4u69_ligand
                    3D
 Schrodinger Suite 2020-3.
 26 25  0  0  1  0            999 V2000
   22.3340   -2.2570   12.6010 O   0  0  0  0  0  0
   21.7360   -2.6270   11.2900 P   0  0  0  0  0  0
   20.2920   -3.1470   11.3050 O   0  5  0  0  0  0
   21.8200   -1.2710   10.4660 O   0  5  0  0  0  0
   22.8680   -3.7470   10.3920 C   0  0  1  0  0  0
   24.0170   -2.9660    9.8980 N   0  3  0  0  0  0
   23.2980   -4.9780   11.2000 C   0  0  1  0  0  0
   22.1820   -5.5700   12.1330 C   0  0  0  0  0  0
   23.9020   -6.0210   10.2860 C   0  0  0  0  0  0
   24.6700   -7.1530   11.0280 C   0  0  0  0  0  0
   24.1270   -8.4900   10.6310 C   0  0  0  0  0  0
   22.5301   -4.2535    9.4758 H   0  0  0  0  0  0
   23.6528   -2.0986    9.3279 H   0  0  0  0  0  0
   24.6375   -3.5988    9.2464 H   0  0  0  0  0  0
   24.6178   -2.6180   10.7512 H   0  0  0  0  0  0
   24.0991   -4.6344   11.8710 H   0  0  0  0  0  0
   21.7786   -4.7722   12.7738 H   0  0  0  0  0  0
   22.6126   -6.3631   12.7620 H   0  0  0  0  0  0
   21.3732   -5.9894   11.5166 H   0  0  0  0  0  0
   23.1042   -6.5024    9.7013 H   0  0  0  0  0  0
   24.6177   -5.5399    9.6031 H   0  0  0  0  0  0
   25.7372   -7.1049   10.7658 H   0  0  0  0  0  0
   24.5532   -7.0244   12.1142 H   0  0  0  0  0  0
   24.6771   -9.2813   11.1613 H   0  0  0  0  0  0
   24.2445   -8.6259    9.5458 H   0  0  0  0  0  0
   23.0604   -8.5454   10.8942 H   0  0  0  0  0  0
  1  2  2  0  0  0
  2  3  1  0  0  0
  2  4  1  0  0  0
  2  5  1  0  0  0
  5  6  1  0  0  0
  5  7  1  0  0  0
  5 12  1  0  0  0
  6 13  1  0  0  0
  6 14  1  0  0  0
  6 15  1  0  0  0
  7  8  1  0  0  0
  7  9  1  0  0  0
  7 16  1  0  0  0
  8 17  1  0  0  0
  8 18  1  0  0  0
  8 19  1  0  0  0
  9 10  1  0  0  0
  9 20  1  0  0  0
  9 21  1  0  0  0
 10 11  1  0  0  0
 10 22  1  0  0  0
 10 23  1  0  0  0
 11 24  1  0  0  0
 11 25  1  0  0  0
 11 26  1  0  0  0
M  CHG  3   3  -1   4  -1   6   1
M  END
> <s_m_source_file>
../4u69_ligand.sdf

> <i_m_source_file_index>
1

> <s_epik_input>
Tz1QKFtPSF0pKFtPSF0pW0NAQEhdKFtOSDMrXSlbQ0BASF0oW0NIM10pW0NIMl1bQ0gyXVtDSDNd

> <s_epik_cmdline>
J2VwaWtfYXBwJywgJy1pbWFlJywgJ2xpZ2FuZF9wcm8ubWFlJywgJy1vbWFlJywgJ2xpZ2FuZF9wcmVwLm1hZScsICctbXMnLCAnMScsICctcGgnLCAnNycsICctcGh0JywgJzAuNScsICctbnQn

> <r_lp_tautomer_probability>
1

> <r_epik_Ionization_Penalty>
  0.1000

> <r_epik_Ionization_Penalty_Charging>
  0.1000

> <r_epik_Ionization_Penalty_Neutral>
  0.0000

> <r_epik_State_Penalty>
 -0.0000

> <r_epik_Charging_Adjusted_Penalty>
0.100034905935811

> <i_epik_Tot_Q>
-1

> <i_epik_Tot_abs_Q>
3

$$$$
