4u6c_ligand
                    3D
 Schrodinger Suite 2020-3.
 30 30  0  0  1  0            999 V2000
   22.1400   -2.2300   12.4160 O   0  5  0  0  0  0
   21.4250   -2.4610   11.0310 P   0  0  0  0  0  0
   21.2720   -1.2070   10.3490 O   0  0  0  0  0  0
   20.0030   -3.0490   11.1970 O   0  5  0  0  0  0
   22.2870   -3.5930    9.9370 C   0  0  1  0  0  0
   23.6130   -3.1450    9.5080 N   0  3  0  0  0  0
   22.1150   -4.5890   11.0210 C   0  0  0  0  0  0
   23.3410   -5.2490   11.3480 C   0  0  0  0  0  0
   23.3740   -6.4380   10.4970 C   0  0  0  0  0  0
   22.0580   -7.1200   10.1530 C   0  0  0  0  0  0
   22.4690   -8.5520    9.8860 C   0  0  0  0  0  0
   23.7250   -8.7550   10.7150 C   0  0  0  0  0  0
   24.0500   -7.4460   11.3900 C   0  0  0  0  0  0
   22.1150   -3.9371    8.9065 H   0  0  0  0  0  0
   23.5069   -2.4097    8.6968 H   0  0  0  0  0  0
   24.1926   -4.0076    9.1475 H   0  0  0  0  0  0
   24.1358   -2.6811   10.3574 H   0  0  0  0  0  0
   21.7462   -4.0852   11.9266 H   0  0  0  0  0  0
   21.3894   -5.3531   10.7052 H   0  0  0  0  0  0
   24.1864   -4.5773   11.1378 H   0  0  0  0  0  0
   23.3408   -5.5152   12.4153 H   0  0  0  0  0  0
   23.8276   -6.1003    9.5535 H   0  0  0  0  0  0
   21.3663   -7.0324   11.0038 H   0  0  0  0  0  0
   21.6151   -6.6376    9.2692 H   0  0  0  0  0  0
   21.6605   -9.2297   10.1976 H   0  0  0  0  0  0
   22.6637   -8.6833    8.8114 H   0  0  0  0  0  0
   23.5455   -9.5374   11.4670 H   0  0  0  0  0  0
   24.5525   -9.0609   10.0580 H   0  0  0  0  0  0
   25.1301   -7.2405   11.4229 H   0  0  0  0  0  0
   23.6322   -7.3751   12.4051 H   0  0  0  0  0  0
  1  2  1  0  0  0
  2  3  2  0  0  0
  2  4  1  0  0  0
  2  5  1  0  0  0
  5  6  1  0  0  0
  5  7  1  0  0  0
  5 14  1  0  0  0
  6 15  1  0  0  0
  6 16  1  0  0  0
  6 17  1  0  0  0
  7  8  1  0  0  0
  7 18  1  0  0  0
  7 19  1  0  0  0
  8  9  1  0  0  0
  8 20  1  0  0  0
  8 21  1  0  0  0
  9 10  1  0  0  0
  9 13  1  0  0  0
  9 22  1  0  0  0
 10 11  1  0  0  0
 10 23  1  0  0  0
 10 24  1  0  0  0
 11 12  1  0  0  0
 11 25  1  0  0  0
 11 26  1  0  0  0
 12 13  1  0  0  0
 12 27  1  0  0  0
 12 28  1  0  0  0
 13 29  1  0  0  0
 13 30  1  0  0  0
M  CHG  3   1  -1   4  -1   6   1
M  END
> <s_m_source_file>
../4u6c_ligand.sdf

> <i_m_source_file_index>
1

> <s_epik_input>
W09IXVAoPU8pKFtPSF0pW0NAQEhdKFtOSDMrXSlbQ0gyXVtDSDJdW0NIXTFbQ0gyXVtDSDJdW0NIMl1bQ0gyXTE=

> <s_epik_cmdline>
J2VwaWtfYXBwJywgJy1pbWFlJywgJ2xpZ2FuZF9wcm8ubWFlJywgJy1vbWFlJywgJ2xpZ2FuZF9wcmVwLm1hZScsICctbXMnLCAnMScsICctcGgnLCAnNycsICctcGh0JywgJzAuNScsICctbnQn

> <r_lp_tautomer_probability>
1

> <r_epik_Ionization_Penalty>
  0.1042

> <r_epik_Ionization_Penalty_Charging>
  0.1042

> <r_epik_Ionization_Penalty_Neutral>
  0.0000

> <r_epik_State_Penalty>
 -0.0000

> <r_epik_Charging_Adjusted_Penalty>
0.104197731350078

> <i_epik_Tot_Q>
-1

> <i_epik_Tot_abs_Q>
3

$$$$
