4u6e_ligand
                    3D
 Schrodinger Suite 2020-3.
 21 21  0  0  1  0            999 V2000
  -20.3360  -15.6720  -11.3220 O   0  0  0  0  0  0
  -21.7060  -15.1050  -11.2160 P   0  0  0  0  0  0
  -22.3530  -14.8960  -12.6660 O   0  5  0  0  0  0
  -21.7000  -13.7300  -10.3720 O   0  5  0  0  0  0
  -22.7050  -16.2140  -10.1590 C   0  0  1  0  0  0
  -23.9700  -15.5790   -9.8250 N   0  3  0  0  0  0
  -22.9870  -17.5750  -10.6920 C   0  0  0  0  0  0
  -22.3670  -18.0770  -11.8350 C   0  0  0  0  0  0
  -22.6540  -19.3690  -12.2780 C   0  0  0  0  0  0
  -23.5590  -20.1690  -11.5810 C   0  0  0  0  0  0
  -24.1770  -19.6680  -10.4380 C   0  0  0  0  0  0
  -23.8910  -18.3720   -9.9940 C   0  0  0  0  0  0
  -22.2813  -16.5101   -9.1880 H   0  0  0  0  0  0
  -23.7806  -14.5704   -9.4288 H   0  0  0  0  0  0
  -24.4923  -16.1792   -9.0654 H   0  0  0  0  0  0
  -24.5938  -15.5070  -10.7281 H   0  0  0  0  0  0
  -21.6564  -17.4592  -12.3841 H   0  0  0  0  0  0
  -22.1679  -19.7550  -13.1740 H   0  0  0  0  0  0
  -23.7808  -21.1782  -11.9280 H   0  0  0  0  0  0
  -24.8855  -20.2870   -9.8876 H   0  0  0  0  0  0
  -24.3775  -17.9850   -9.0987 H   0  0  0  0  0  0
  1  2  2  0  0  0
  2  3  1  0  0  0
  2  4  1  0  0  0
  2  5  1  0  0  0
  5  6  1  0  0  0
  5  7  1  0  0  0
  5 13  1  0  0  0
  6 14  1  0  0  0
  6 15  1  0  0  0
  6 16  1  0  0  0
  7  8  2  0  0  0
  7 12  1  0  0  0
  8  9  1  0  0  0
  8 17  1  0  0  0
  9 10  2  0  0  0
  9 18  1  0  0  0
 10 11  1  0  0  0
 10 19  1  0  0  0
 11 12  2  0  0  0
 11 20  1  0  0  0
 12 21  1  0  0  0
M  CHG  3   3  -1   4  -1   6   1
M  END
> <s_m_source_file>
../4u6e_ligand.sdf

> <i_m_source_file_index>
1

> <s_epik_input>
Tz1QKFtPSF0pKFtPSF0pW0NAQEhdKFtOSDMrXSljMVtjSF1bY0hdW2NIXVtjSF1bY0hdMQ==

> <s_epik_cmdline>
J2VwaWtfYXBwJywgJy1pbWFlJywgJ2xpZ2FuZF9wcm8ubWFlJywgJy1vbWFlJywgJ2xpZ2FuZF9wcmVwLm1hZScsICctbXMnLCAnMScsICctcGgnLCAnNycsICctcGh0JywgJzAuNScsICctbnQn

> <r_lp_tautomer_probability>
1

> <r_epik_Ionization_Penalty>
  0.0435

> <r_epik_Ionization_Penalty_Charging>
  0.0435

> <r_epik_Ionization_Penalty_Neutral>
  0.0000

> <r_epik_State_Penalty>
 -0.0000

> <r_epik_Charging_Adjusted_Penalty>
0.0434982785081973

> <i_epik_Tot_Q>
-1

> <i_epik_Tot_abs_Q>
3

$$$$
