4u6r_ligand
                    3D
 Schrodinger Suite 2020-3.
 75 80  0  0  1  0            999 V2000
   -5.8090  -25.0130   -1.3470 C   0  0  0  0  0  0
   -6.0270  -26.3520   -1.9840 C   0  0  0  0  0  0
   -5.8250  -26.2620   -3.4490 C   0  0  2  0  0  0
   -5.8460  -27.5850   -3.9960 N   0  3  0  0  0  0
   -4.4990  -25.6340   -3.7900 C   0  0  0  0  0  0
   -4.2310  -24.3560   -3.0500 C   0  0  0  0  0  0
   -4.4170  -24.5260   -1.5680 C   0  0  1  0  0  0
   -4.2350  -23.2890   -0.8490 N   0  0  0  0  0  0
   -3.0750  -22.7990   -0.5950 C   0  0  0  0  0  0
   -2.0490  -23.5780   -0.5640 N   0  0  0  0  0  0
   -2.9510  -21.5190   -0.3670 N   0  0  0  0  0  0
   -1.8020  -20.9870   -0.1180 C   0  0  0  0  0  0
   -0.7070  -21.7950   -0.0750 C   0  0  0  0  0  0
   -0.8610  -23.1290   -0.3210 C   0  0  0  0  0  0
    0.1590  -24.0500   -0.2680 C   0  0  0  0  0  0
   -0.2250  -25.3510   -0.1510 C   0  0  0  0  0  0
    0.7090  -26.3290   -0.0710 C   0  0  0  0  0  0
    2.0040  -25.9490   -0.0900 C   0  0  0  0  0  0
    2.3530  -24.7040   -0.1800 N   0  0  0  0  0  0
    1.4900  -23.7330   -0.2620 C   0  0  0  0  0  0
    1.8780  -22.4560   -0.3680 O   0  0  0  0  0  0
    3.0820  -22.0140   -0.0530 C   0  0  0  0  0  0
    4.0670  -21.8960   -0.9860 C   0  0  0  0  0  0
    3.8770  -22.3310   -2.4000 C   0  0  0  0  0  0
    5.2910  -21.4320   -0.6350 C   0  0  0  0  0  0
    3.3200  -21.5910    1.2020 C   0  0  0  0  0  0
    2.3310  -21.6780    2.1300 C   0  0  0  0  0  0
    2.5390  -21.2870    3.4220 C   0  0  0  0  0  0
    3.7520  -20.7830    3.7820 C   0  0  0  0  0  0
    4.7520  -20.6930    2.8490 C   0  0  0  0  0  0
    4.5380  -21.1020    1.5620 C   0  0  0  0  0  0
    5.5370  -21.0210    0.6330 C   0  0  0  0  0  0
    6.7070  -20.5460    0.9210 N   0  0  0  0  0  0
    7.1740  -19.1170    0.3540 S   0  0  0  0  0  0
    6.3990  -18.6530   -0.7860 O   0  0  0  0  0  0
    8.5580  -19.2170    0.0800 O   0  0  0  0  0  0
    6.9240  -17.8440    1.3730 C   0  0  0  0  0  0
    5.9650  -16.9700    0.9380 C   0  0  0  0  0  0
    5.6800  -15.8730    1.7120 C   0  0  0  0  0  0
    6.3310  -15.6600    2.9020 C   0  0  0  0  0  0
    7.2830  -16.5280    3.3320 C   0  0  0  0  0  0
    7.5720  -17.6060    2.5660 C   0  0  0  0  0  0
    8.7560  -18.6210    3.1830 Cl  0  0  0  0  0  0
   -6.5076  -24.2824   -1.7809 H   0  0  0  0  0  0
   -5.9844  -25.0893   -0.2638 H   0  0  0  0  0  0
   -5.3131  -27.0772   -1.5665 H   0  0  0  0  0  0
   -7.0539  -26.6910   -1.7828 H   0  0  0  0  0  0
   -6.6494  -25.6752   -3.8803 H   0  0  0  0  0  0
   -6.8072  -28.0645   -3.7590 H   0  0  0  0  0  0
   -5.0252  -28.1745   -3.5615 H   0  0  0  0  0  0
   -5.7217  -27.5324   -5.0877 H   0  0  0  0  0  0
   -3.6873  -26.3336   -3.5416 H   0  0  0  0  0  0
   -4.4681  -25.4035   -4.8651 H   0  0  0  0  0  0
   -3.1953  -24.0351   -3.2356 H   0  0  0  0  0  0
   -4.9245  -23.5772   -3.4001 H   0  0  0  0  0  0
   -3.6556  -25.2100   -1.1650 H   0  0  0  0  0  0
   -5.1103  -22.7252   -0.4941 H   0  0  0  0  0  0
   -1.7101  -19.9146    0.0541 H   0  0  0  0  0  0
    0.2765  -21.3835    0.1521 H   0  0  0  0  0  0
   -1.2844  -25.6058   -0.1217 H   0  0  0  0  0  0
    0.4265  -27.3790    0.0055 H   0  0  0  0  0  0
    2.7797  -26.7122   -0.0278 H   0  0  0  0  0  0
    2.8437  -22.6810   -2.5402 H   0  0  0  0  0  0
    4.5756  -23.1493   -2.6289 H   0  0  0  0  0  0
    4.0716  -21.4835   -3.0736 H   0  0  0  0  0  0
    6.0856  -21.3889   -1.3799 H   0  0  0  0  0  0
    1.3552  -22.0664    1.8383 H   0  0  0  0  0  0
    1.7409  -21.3776    4.1588 H   0  0  0  0  0  0
    3.9265  -20.4531    4.8061 H   0  0  0  0  0  0
    5.7246  -20.2926    3.1350 H   0  0  0  0  0  0
    7.3835  -21.1316    1.5609 H   0  0  0  0  0  0
    5.4396  -17.1411   -0.0016 H   0  0  0  0  0  0
    4.9260  -15.1606    1.3772 H   0  0  0  0  0  0
    6.0819  -14.7877    3.5062 H   0  0  0  0  0  0
    7.8037  -16.3600    4.2747 H   0  0  0  0  0  0
  1  2  1  0  0  0
  1  7  1  0  0  0
  1 44  1  0  0  0
  1 45  1  0  0  0
  2  3  1  0  0  0
  2 46  1  0  0  0
  2 47  1  0  0  0
  3  4  1  0  0  0
  3  5  1  0  0  0
  3 48  1  0  0  0
  4 49  1  0  0  0
  4 50  1  0  0  0
  4 51  1  0  0  0
  5  6  1  0  0  0
  5 52  1  0  0  0
  5 53  1  0  0  0
  6  7  1  0  0  0
  6 54  1  0  0  0
  6 55  1  0  0  0
  7  8  1  0  0  0
  7 56  1  0  0  0
  8  9  1  0  0  0
  8 57  1  0  0  0
  9 10  2  0  0  0
  9 11  1  0  0  0
 10 14  1  0  0  0
 11 12  2  0  0  0
 12 13  1  0  0  0
 12 58  1  0  0  0
 13 14  2  0  0  0
 13 59  1  0  0  0
 14 15  1  0  0  0
 15 16  2  0  0  0
 15 20  1  0  0  0
 16 17  1  0  0  0
 16 60  1  0  0  0
 17 18  2  0  0  0
 17 61  1  0  0  0
 18 19  1  0  0  0
 18 62  1  0  0  0
 19 20  2  0  0  0
 20 21  1  0  0  0
 21 22  1  0  0  0
 22 23  2  0  0  0
 22 26  1  0  0  0
 23 24  1  0  0  0
 23 25  1  0  0  0
 24 63  1  0  0  0
 24 64  1  0  0  0
 24 65  1  0  0  0
 25 32  2  0  0  0
 25 66  1  0  0  0
 26 27  2  0  0  0
 26 31  1  0  0  0
 27 28  1  0  0  0
 27 67  1  0  0  0
 28 29  2  0  0  0
 28 68  1  0  0  0
 29 30  1  0  0  0
 29 69  1  0  0  0
 30 31  2  0  0  0
 30 70  1  0  0  0
 31 32  1  0  0  0
 32 33  1  0  0  0
 33 34  1  0  0  0
 33 71  1  0  0  0
 34 35  2  0  0  0
 34 36  2  0  0  0
 34 37  1  0  0  0
 37 38  2  0  0  0
 37 42  1  0  0  0
 38 39  1  0  0  0
 38 72  1  0  0  0
 39 40  2  0  0  0
 39 73  1  0  0  0
 40 41  1  0  0  0
 40 74  1  0  0  0
 41 42  2  0  0  0
 41 75  1  0  0  0
 42 43  1  0  0  0
M  CHG  1   4   1
M  END
> <s_m_source_file>
../4u6r_ligand.sdf

> <i_m_source_file_index>
1

> <s_epik_input>
W05IMytdW0NASF0xW0NIMl1bQ0gyXVtDQEBIXShbQ0gyXVtDSDJdMSlbTkhdYzJuYyhbY0hdW2NIXW4yKS1jM1tjSF1bY0hdW2NIXW5jM09jNGMoW0NIM10pW2NIXWMoYyhjNDUpW2NIXVtjSF1bY0hdW2NIXTUpW05IXVMoPU8pKD1PKWM2W2NIXVtjSF1bY0hdW2NIXWM2Q2w=

> <s_epik_cmdline>
J2VwaWtfYXBwJywgJy1pbWFlJywgJ2xpZ2FuZF9wcm8ubWFlJywgJy1vbWFlJywgJ2xpZ2FuZF9wcmVwLm1hZScsICctbXMnLCAnMScsICctcGgnLCAnNycsICctcGh0JywgJzAuNScsICctbnQn

> <r_lp_tautomer_probability>
0.999999987636

> <r_epik_Ionization_Penalty>
  0.0495

> <r_epik_Ionization_Penalty_Charging>
  0.0002

> <r_epik_Ionization_Penalty_Neutral>
  0.0492

> <r_epik_State_Penalty>
  0.0416

> <r_epik_Charging_Adjusted_Penalty>
0.04185947407861

> <i_epik_Tot_Q>
1

> <i_epik_Tot_abs_Q>
1

$$$$
