4u6w_ligand
                    3D
 Schrodinger Suite 2020-3.
 32 31  0  0  1  0            999 V2000
   22.0220   -2.2030   12.4430 O   0  0  0  0  0  0
   21.6350   -2.6570   11.1120 P   0  0  0  0  0  0
   20.1820   -3.3310   11.0440 O   0  5  0  0  0  0
   21.6640   -1.3300   10.2850 O   0  5  0  0  0  0
   22.8070   -3.7730   10.2500 C   0  0  1  0  0  0
   23.7650   -2.9880    9.4270 N   0  3  0  0  0  0
   23.4800   -4.8010   11.1860 C   0  0  0  0  0  0
   24.8790   -5.0420   10.6530 C   0  0  0  0  0  0
   25.5980   -6.1730   11.3510 C   0  0  0  0  0  0
   26.9400   -5.7560   11.8320 C   0  0  0  0  0  0
   22.7200   -6.1250   11.3060 C   0  0  0  0  0  0
   23.3580   -7.4170   10.7300 C   0  0  0  0  0  0
   22.3710   -8.4360   10.2640 C   0  0  0  0  0  0
   22.4429   -4.4654    9.4767 H   0  0  0  0  0  0
   23.2099   -2.2824    8.7914 H   0  0  0  0  0  0
   24.3492   -3.6711    8.7930 H   0  0  0  0  0  0
   24.4445   -2.4298   10.0879 H   0  0  0  0  0  0
   23.5058   -4.3943   12.2077 H   0  0  0  0  0  0
   24.8256   -5.2935    9.5835 H   0  0  0  0  0  0
   25.4838   -4.1329   10.7861 H   0  0  0  0  0  0
   25.0068   -6.5039   12.2176 H   0  0  0  0  0  0
   25.7260   -7.0128   10.6522 H   0  0  0  0  0  0
   27.4299   -6.6041   12.3328 H   0  0  0  0  0  0
   26.8324   -4.9231   12.5424 H   0  0  0  0  0  0
   27.5516   -5.4320   10.9770 H   0  0  0  0  0  0
   22.5476   -6.3539   12.3680 H   0  0  0  0  0  0
   21.7535   -6.0413   10.7874 H   0  0  0  0  0  0
   23.9879   -7.1609    9.8653 H   0  0  0  0  0  0
   23.9750   -7.8976   11.5035 H   0  0  0  0  0  0
   22.9068   -9.3137    9.8735 H   0  0  0  0  0  0
   21.7460   -8.0041    9.4685 H   0  0  0  0  0  0
   21.7331   -8.7408   11.1067 H   0  0  0  0  0  0
  1  2  2  0  0  0
  2  3  1  0  0  0
  2  4  1  0  0  0
  2  5  1  0  0  0
  5  6  1  0  0  0
  5  7  1  0  0  0
  5 14  1  0  0  0
  6 15  1  0  0  0
  6 16  1  0  0  0
  6 17  1  0  0  0
  7  8  1  0  0  0
  7 11  1  0  0  0
  7 18  1  0  0  0
  8  9  1  0  0  0
  8 19  1  0  0  0
  8 20  1  0  0  0
  9 10  1  0  0  0
  9 21  1  0  0  0
  9 22  1  0  0  0
 10 23  1  0  0  0
 10 24  1  0  0  0
 10 25  1  0  0  0
 11 12  1  0  0  0
 11 26  1  0  0  0
 11 27  1  0  0  0
 12 13  1  0  0  0
 12 28  1  0  0  0
 12 29  1  0  0  0
 13 30  1  0  0  0
 13 31  1  0  0  0
 13 32  1  0  0  0
M  CHG  3   3  -1   4  -1   6   1
M  END
> <s_m_source_file>
../4u6w_ligand.sdf

> <i_m_source_file_index>
1

> <s_epik_input>
Tz1QKFtPSF0pKFtPSF0pW0NAQEhdKFtOSDMrXSlbQ0hdKFtDSDJdW0NIMl1bQ0gzXSlbQ0gyXVtDSDJdW0NIM10=

> <s_epik_cmdline>
J2VwaWtfYXBwJywgJy1pbWFlJywgJ2xpZ2FuZF9wcm8ubWFlJywgJy1vbWFlJywgJ2xpZ2FuZF9wcmVwLm1hZScsICctbXMnLCAnMScsICctcGgnLCAnNycsICctcGh0JywgJzAuNScsICctbnQn

> <r_lp_tautomer_probability>
1

> <r_epik_Ionization_Penalty>
  0.1015

> <r_epik_Ionization_Penalty_Charging>
  0.1015

> <r_epik_Ionization_Penalty_Neutral>
  0.0000

> <r_epik_State_Penalty>
 -0.0000

> <r_epik_Charging_Adjusted_Penalty>
0.101549683623382

> <i_epik_Tot_Q>
-1

> <i_epik_Tot_abs_Q>
3

$$$$
