4u6x_ligand
                    3D
 Schrodinger Suite 2020-3.
174174  0  0  1  0            999 V2000
  -15.2970    0.9290    8.4990 N   0  3  0  0  0  0
  -15.8100    2.2110    8.0320 C   0  0  2  0  0  0
  -15.4450    3.3340    9.0010 C   0  0  0  0  0  0
  -15.4280    3.1440   10.2260 O   0  0  0  0  0  0
  -17.3200    2.1450    7.8380 C   0  0  0  0  0  0
  -15.1640    4.5110    8.4490 N   0  0  0  0  0  0
  -14.7750    5.6670    9.2550 C   0  0  2  0  0  0
  -15.8950    6.1460   10.1680 C   0  0  0  0  0  0
  -17.0910    5.9620    9.8810 O   0  0  0  0  0  0
  -14.3620    6.8230    8.3340 C   0  0  0  0  0  0
  -13.0870    6.6380    7.5200 C   0  0  0  0  0  0
  -12.9850    7.7680    6.4870 C   0  0  0  0  0  0
  -11.8710    6.6600    8.4440 C   0  0  0  0  0  0
  -15.5180    6.7900   11.2700 N   0  0  0  0  0  0
  -16.5270    7.4290   12.0970 C   0  0  2  0  0  0
  -17.1690    8.5670   11.3050 C   0  0  0  0  0  0
  -16.5040    9.2310   10.4990 O   0  0  0  0  0  0
  -15.9250    7.9680   13.3950 C   0  0  0  0  0  0
  -16.9990    8.5110   14.3300 C   0  0  0  0  0  0
  -16.4260    9.2790   15.4960 C   0  0  0  0  0  0
  -15.2020    9.3380   15.6730 O   0  0  0  0  0  0
  -17.3030    9.8790   16.3000 N   0  0  0  0  0  0
  -18.4600    8.7900   11.5130 N   0  0  0  0  0  0
  -19.1420    9.8600   10.8020 C   0  0  2  0  0  0
  -19.3650   11.0110   11.7790 C   0  0  0  0  0  0
  -20.4710   11.2160   12.2660 O   0  0  0  0  0  0
  -20.4700    9.3610   10.2310 C   0  0  0  0  0  0
  -20.9320   10.1700    9.0220 C   0  0  0  0  0  0
  -20.4580   11.3170    8.8400 O   0  0  0  0  0  0
  -21.7820    9.6630    8.2570 O   0  0  0  0  0  0
  -18.2960   11.7420   12.0760 N   0  0  0  0  0  0
  -18.3480   12.8160   13.0640 C   0  0  2  0  0  0
  -19.1610   14.0050   12.5600 C   0  0  0  0  0  0
  -20.0810   13.8460   11.7540 O   0  0  0  0  0  0
  -16.9330   13.2530   13.4530 C   0  0  0  0  0  0
  -21.8720   16.6500   17.1760 N   0  3  0  0  0  0
  -21.1160   17.2750   16.0960 C   0  0  2  0  0  0
  -19.6370   16.9010   16.1170 C   0  0  0  0  0  0
  -19.1690   16.2070   17.0240 O   0  0  0  0  0  0
  -21.2540   18.7970   16.1490 C   0  0  0  0  0  0
  -22.6140   19.3120   15.7140 C   0  0  0  0  0  0
  -22.4850   20.6280   14.9530 C   0  0  0  0  0  0
  -23.8470   21.1680   14.5280 C   0  0  0  0  0  0
  -23.7390   22.5080   13.8760 N   0  3  0  0  0  0
  -18.9110   17.3670   15.1020 N   0  0  0  0  0  0
  -17.4640   17.1900   15.0190 C   0  0  2  0  0  0
  -16.7850   17.7470   16.2680 C   0  0  0  0  0  0
  -17.2700   18.6960   16.8860 O   0  0  0  0  0  0
  -16.9110   17.9130   13.7870 C   0  0  0  0  0  0
  -17.3460   17.3340   12.4370 C   0  0  0  0  0  0
  -16.1760   16.7590   11.6490 C   0  0  0  0  0  0
  -16.3120   16.5570   10.4150 O   0  0  0  0  0  0
  -15.1170   16.5060   12.2710 O   0  0  0  0  0  0
  -15.6550   17.1540   16.6350 N   0  0  0  0  0  0
  -14.8940   17.6090   17.7970 C   0  0  2  0  0  0
  -13.5200   18.0300   17.3210 C   0  0  0  0  0  0
  -12.9170   17.3600   16.4620 O   0  0  0  0  0  0
  -14.7690   16.4780   18.8170 C   0  0  0  0  0  0
  -14.3980   15.1630   18.1840 C   0  0  0  0  0  0
  -15.3690   14.3520   17.6180 C   0  0  0  0  0  0
  -13.0780   14.7310   18.1520 C   0  0  0  0  0  0
  -15.0390   13.1520   17.0370 C   0  0  0  0  0  0
  -12.7330   13.5310   17.5710 C   0  0  0  0  0  0
  -13.7190   12.7440   17.0170 C   0  0  0  0  0  0
  -13.3880   11.5450   16.4330 O   0  0  0  0  0  0
  -13.0260   19.1350   17.8730 N   0  0  0  0  0  0
  -11.7690   19.7160   17.4230 C   0  0  2  0  0  0
  -10.7720   19.8580   18.5560 C   0  0  0  0  0  0
  -11.1540   20.1020   19.7020 O   0  0  0  0  0  0
  -12.0230   21.0960   16.7980 C   0  0  0  0  0  0
  -13.0400   21.0740   15.7070 C   0  0  0  0  0  0
  -12.6690   20.7490   14.4070 C   0  0  0  0  0  0
  -14.3720   21.3470   15.9760 C   0  0  0  0  0  0
  -13.6240   20.6980   13.3830 C   0  0  0  0  0  0
  -15.3210   21.3120   14.9660 C   0  0  0  0  0  0
  -14.9480   20.9830   13.6680 C   0  0  0  0  0  0
   -9.4900   19.6920   18.2360 N   0  0  0  0  0  0
   -8.4310   19.9310   19.2190 C   0  0  2  0  0  0
   -8.5830   21.3280   19.8420 C   0  0  0  0  0  0
   -8.9640   22.2840   19.1600 O   0  0  0  0  0  0
   -7.0440   19.7810   18.5700 C   0  0  2  0  0  0
   -6.7830   18.3150   18.1760 C   0  0  0  0  0  0
   -5.9230   20.3320   19.4810 C   0  0  0  0  0  0
   -6.7800   17.3220   19.3280 C   0  0  0  0  0  0
   -8.3350   21.5570   21.0380 O   0  0  0  0  0  0
  -14.2073    0.9969    8.6328 H   0  0  0  0  0  0
  -15.5276    0.1498    7.7576 H   0  0  0  0  0  0
  -15.7690    0.6729    9.4590 H   0  0  0  0  0  0
  -15.3175    2.3863    7.0642 H   0  0  0  0  0  0
  -17.5646    1.3321    7.1384 H   0  0  0  0  0  0
  -17.6793    3.1010    7.4294 H   0  0  0  0  0  0
  -17.8061    1.9542    8.8062 H   0  0  0  0  0  0
  -15.2307    4.6009    7.3547 H   0  0  0  0  0  0
  -13.9417    5.3028    9.8739 H   0  0  0  0  0  0
  -15.1582    7.0077    7.5979 H   0  0  0  0  0  0
  -14.2001    7.7303    8.9344 H   0  0  0  0  0  0
  -13.1183    5.6654    7.0071 H   0  0  0  0  0  0
  -13.8651    7.7425    5.8276 H   0  0  0  0  0  0
  -12.0730    7.6347    5.8866 H   0  0  0  0  0  0
  -12.9438    8.7368    7.0063 H   0  0  0  0  0  0
  -11.9547    5.8465    9.1797 H   0  0  0  0  0  0
  -11.8267    7.6258    8.9687 H   0  0  0  0  0  0
  -10.9559    6.5236    7.8490 H   0  0  0  0  0  0
  -14.4575    6.8421   11.5575 H   0  0  0  0  0  0
  -17.2592    6.6447   12.3395 H   0  0  0  0  0  0
  -15.3897    7.1595   13.9144 H   0  0  0  0  0  0
  -15.2231    8.7826   13.1631 H   0  0  0  0  0  0
  -17.6607    9.1906   13.7729 H   0  0  0  0  0  0
  -17.5888    7.6756   14.7354 H   0  0  0  0  0  0
  -18.3811    9.7953   16.0981 H   0  0  0  0  0  0
  -16.9489   10.4580   17.1656 H   0  0  0  0  0  0
  -19.0149    8.1625   12.2260 H   0  0  0  0  0  0
  -18.4942   10.1716    9.9694 H   0  0  0  0  0  0
  -20.3622    8.3132    9.9141 H   0  0  0  0  0  0
  -21.2508    9.4323   11.0025 H   0  0  0  0  0  0
  -20.7797   11.9140    7.9739 H   0  0  0  0  0  0
  -17.3533   11.5195   11.5545 H   0  0  0  0  0  0
  -18.8633   12.3811   13.9331 H   0  0  0  0  0  0
  -18.9175   15.0138   12.9247 H   0  0  0  0  0  0
  -16.3660   12.3817   13.8127 H   0  0  0  0  0  0
  -16.9888   14.0087   14.2503 H   0  0  0  0  0  0
  -16.4276   13.6825   12.5754 H   0  0  0  0  0  0
  -21.7585   15.5574   17.1184 H   0  0  0  0  0  0
  -22.9355   16.9138   17.0795 H   0  0  0  0  0  0
  -21.4919   17.0076   18.1443 H   0  0  0  0  0  0
  -21.5771   16.8628   15.1864 H   0  0  0  0  0  0
  -21.0913   19.1442   17.1800 H   0  0  0  0  0  0
  -20.5067   19.2563   15.4852 H   0  0  0  0  0  0
  -23.0936   18.5713   15.0572 H   0  0  0  0  0  0
  -23.2438   19.4784   16.6004 H   0  0  0  0  0  0
  -22.0001   21.3773   15.5960 H   0  0  0  0  0  0
  -21.8769   20.4712   14.0499 H   0  0  0  0  0  0
  -24.3094   20.4735   13.8112 H   0  0  0  0  0  0
  -24.4942   21.2672   15.4119 H   0  0  0  0  0  0
  -24.7414   22.8571   13.5872 H   0  0  0  0  0  0
  -23.1057   22.4298   12.9800 H   0  0  0  0  0  0
  -23.2905   23.2236   14.5808 H   0  0  0  0  0  0
  -19.4460   17.9042   14.3050 H   0  0  0  0  0  0
  -17.3038   16.1043   14.9445 H   0  0  0  0  0  0
  -17.2425   18.9618   13.7978 H   0  0  0  0  0  0
  -15.8117   17.8757   13.8026 H   0  0  0  0  0  0
  -18.0745   16.5265   12.6020 H   0  0  0  0  0  0
  -17.8082   18.1264   11.8300 H   0  0  0  0  0  0
  -15.4776   16.1423    9.8303 H   0  0  0  0  0  0
  -15.2947   16.3010   16.0412 H   0  0  0  0  0  0
  -15.4312   18.4570   18.2468 H   0  0  0  0  0  0
  -13.9894   16.7305   19.5508 H   0  0  0  0  0  0
  -15.7301   16.3434   19.3349 H   0  0  0  0  0  0
  -16.4110   14.6716   17.6342 H   0  0  0  0  0  0
  -12.3007   15.3536   18.5951 H   0  0  0  0  0  0
  -15.8135   12.5255   16.5945 H   0  0  0  0  0  0
  -11.6923   13.2076   17.5497 H   0  0  0  0  0  0
  -14.1724   10.9140   15.9897 H   0  0  0  0  0  0
  -13.5912   19.6107   18.6880 H   0  0  0  0  0  0
  -11.3758   18.9961   16.6901 H   0  0  0  0  0  0
  -12.3844   21.7884   17.5726 H   0  0  0  0  0  0
  -11.0866   21.4822   16.3690 H   0  0  0  0  0  0
  -11.6248   20.5317   14.1822 H   0  0  0  0  0  0
  -14.6769   21.5920   16.9934 H   0  0  0  0  0  0
  -13.3259   20.4354   12.3680 H   0  0  0  0  0  0
  -16.3623   21.5431   15.1903 H   0  0  0  0  0  0
  -15.6966   20.9495   12.8764 H   0  0  0  0  0  0
   -9.2315   19.3705   17.2163 H   0  0  0  0  0  0
   -8.5657   19.1594   19.9913 H   0  0  0  0  0  0
   -7.0401   20.3844   17.6503 H   0  0  0  0  0  0
   -7.5628   17.9789   17.4767 H   0  0  0  0  0  0
   -5.7980   18.2349   17.6929 H   0  0  0  0  0  0
   -6.1428   21.3780   19.7411 H   0  0  0  0  0  0
   -4.9608   20.2805   18.9504 H   0  0  0  0  0  0
   -5.8678   19.7295   20.3997 H   0  0  0  0  0  0
   -6.5858   16.3111   18.9402 H   0  0  0  0  0  0
   -7.7584   17.3403   19.8304 H   0  0  0  0  0  0
   -5.9936   17.5964   20.0466 H   0  0  0  0  0  0
   -8.4582   22.5733   21.4405 H   0  0  0  0  0  0
  1  2  1  0  0  0
  1 86  1  0  0  0
  1 87  1  0  0  0
  1 88  1  0  0  0
  2  3  1  0  0  0
  2  5  1  0  0  0
  2 89  1  0  0  0
  3  4  2  0  0  0
  3  6  1  0  0  0
  5 90  1  0  0  0
  5 91  1  0  0  0
  5 92  1  0  0  0
  6  7  1  0  0  0
  6 93  1  0  0  0
  7  8  1  0  0  0
  7 10  1  0  0  0
  7 94  1  0  0  0
  8  9  2  0  0  0
  8 14  1  0  0  0
 10 11  1  0  0  0
 10 95  1  0  0  0
 10 96  1  0  0  0
 11 12  1  0  0  0
 11 13  1  0  0  0
 11 97  1  0  0  0
 12 98  1  0  0  0
 12 99  1  0  0  0
 12100  1  0  0  0
 13101  1  0  0  0
 13102  1  0  0  0
 13103  1  0  0  0
 14 15  1  0  0  0
 14104  1  0  0  0
 15 16  1  0  0  0
 15 18  1  0  0  0
 15105  1  0  0  0
 16 17  2  0  0  0
 16 23  1  0  0  0
 18 19  1  0  0  0
 18106  1  0  0  0
 18107  1  0  0  0
 19 20  1  0  0  0
 19108  1  0  0  0
 19109  1  0  0  0
 20 21  2  0  0  0
 20 22  1  0  0  0
 22110  1  0  0  0
 22111  1  0  0  0
 23 24  1  0  0  0
 23112  1  0  0  0
 24 25  1  0  0  0
 24 27  1  0  0  0
 24113  1  0  0  0
 25 26  2  0  0  0
 25 31  1  0  0  0
 27 28  1  0  0  0
 27114  1  0  0  0
 27115  1  0  0  0
 28 29  1  0  0  0
 28 30  2  0  0  0
 29116  1  0  0  0
 31 32  1  0  0  0
 31117  1  0  0  0
 32 33  1  0  0  0
 32 35  1  0  0  0
 32118  1  0  0  0
 33 34  2  0  0  0
 33119  1  0  0  0
 35120  1  0  0  0
 35121  1  0  0  0
 35122  1  0  0  0
 36 37  1  0  0  0
 36123  1  0  0  0
 36124  1  0  0  0
 36125  1  0  0  0
 37 38  1  0  0  0
 37 40  1  0  0  0
 37126  1  0  0  0
 38 39  2  0  0  0
 38 45  1  0  0  0
 40 41  1  0  0  0
 40127  1  0  0  0
 40128  1  0  0  0
 41 42  1  0  0  0
 41129  1  0  0  0
 41130  1  0  0  0
 42 43  1  0  0  0
 42131  1  0  0  0
 42132  1  0  0  0
 43 44  1  0  0  0
 43133  1  0  0  0
 43134  1  0  0  0
 44135  1  0  0  0
 44136  1  0  0  0
 44137  1  0  0  0
 45 46  1  0  0  0
 45138  1  0  0  0
 46 47  1  0  0  0
 46 49  1  0  0  0
 46139  1  0  0  0
 47 48  2  0  0  0
 47 54  1  0  0  0
 49 50  1  0  0  0
 49140  1  0  0  0
 49141  1  0  0  0
 50 51  1  0  0  0
 50142  1  0  0  0
 50143  1  0  0  0
 51 52  1  0  0  0
 51 53  2  0  0  0
 52144  1  0  0  0
 54 55  1  0  0  0
 54145  1  0  0  0
 55 56  1  0  0  0
 55 58  1  0  0  0
 55146  1  0  0  0
 56 57  2  0  0  0
 56 66  1  0  0  0
 58 59  1  0  0  0
 58147  1  0  0  0
 58148  1  0  0  0
 59 60  2  0  0  0
 59 61  1  0  0  0
 60 62  1  0  0  0
 60149  1  0  0  0
 61 63  2  0  0  0
 61150  1  0  0  0
 62 64  2  0  0  0
 62151  1  0  0  0
 63 64  1  0  0  0
 63152  1  0  0  0
 64 65  1  0  0  0
 65153  1  0  0  0
 66 67  1  0  0  0
 66154  1  0  0  0
 67 68  1  0  0  0
 67 70  1  0  0  0
 67155  1  0  0  0
 68 69  2  0  0  0
 68 77  1  0  0  0
 70 71  1  0  0  0
 70156  1  0  0  0
 70157  1  0  0  0
 71 72  2  0  0  0
 71 73  1  0  0  0
 72 74  1  0  0  0
 72158  1  0  0  0
 73 75  2  0  0  0
 73159  1  0  0  0
 74 76  2  0  0  0
 74160  1  0  0  0
 75 76  1  0  0  0
 75161  1  0  0  0
 76162  1  0  0  0
 77 78  1  0  0  0
 77163  1  0  0  0
 78 79  1  0  0  0
 78 81  1  0  0  0
 78164  1  0  0  0
 79 80  2  0  0  0
 79 85  1  0  0  0
 81 82  1  0  0  0
 81 83  1  0  0  0
 81165  1  0  0  0
 82 84  1  0  0  0
 82166  1  0  0  0
 82167  1  0  0  0
 83168  1  0  0  0
 83169  1  0  0  0
 83170  1  0  0  0
 84171  1  0  0  0
 84172  1  0  0  0
 84173  1  0  0  0
 85174  1  0  0  0
M  CHG  3   1   1  36   1  44   1
M  END
> <s_m_source_file>
../4u6x_ligand.sdf

> <i_m_source_file_index>
1

> <s_epik_input>
W05IMytdW0NAQEhdKFtDSDNdKUMoPU8pW05IXVtDQEBIXShbQ0gyXVtDSF0oW0NIM10pW0NIM10pQyg9TylbTkhdW0NAQEhdKFtDSDJdW0NIMl1DKD1PKVtOSDJdKUMoPU8pW05IXVtDQEBIXShbQ0gyXUMoPU8pW09IXSlDKD1PKVtOSF1bQ0BIXShbQ0hdPU8pW0NIM10uW05IMytdW0NIMl1bQ0gyXVtDSDJdW0NIMl1bQ0BIXShbTkgzK10pQyg9TylbTkhdW0NAQEhdKFtDSDJdW0NIMl1DKD1PKVtPSF0pQyg9TylbTkhdW0NAQEhdKFtDSDJdYzFbY0hdW2NIXWMoW09IXSlbY0hdW2NIXTEpQyg9TylbTkhdW0NASF0oQyg9TylbTkhdW0NASF0oQyg9TylbT0hdKVtDQEBIXShbQ0gzXSlbQ0gyXVtDSDNdKVtDSDJdYzJbY0hdW2NIXVtjSF1bY0hdW2NIXTI=

> <s_epik_cmdline>
J2VwaWtfYXBwJywgJy1pbWFlJywgJ2xpZ2FuZF9wcm8ubWFlJywgJy1vbWFlJywgJ2xpZ2FuZF9wcmVwLm1hZScsICctbXMnLCAnMScsICctcGgnLCAnNycsICctcGh0JywgJzAuNScsICctbnQn

> <s_epik_pKa_notes>
Molecule size exceeds maximum supported for generating protonation states

$$$$
