4u6y_ligand
                    3D
 Schrodinger Suite 2020-3.
246248  0  0  1  0            999 V2000
  -15.2470    1.0000    7.9130 N   0  3  0  0  0  0
  -16.3260    2.0200    7.7760 C   0  0  2  0  0  0
  -15.9900    3.1680    8.7450 C   0  0  0  0  0  0
  -15.9540    2.9860    9.9670 O   0  0  0  0  0  0
  -17.6260    1.3380    8.1840 C   0  0  0  0  0  0
  -18.8800    2.1520    7.9610 C   0  0  0  0  0  0
  -19.5500    2.1320    6.7310 C   0  0  0  0  0  0
  -19.4010    2.9290    9.0070 C   0  0  0  0  0  0
  -20.7210    2.8310    6.5700 C   0  0  0  0  0  0
  -20.6140    3.6160    8.8450 C   0  0  0  0  0  0
  -21.2590    3.5720    7.6110 C   0  0  0  0  0  0
  -15.7210    4.3370    8.1760 N   0  0  0  0  0  0
  -15.3020    5.4670    8.9830 C   0  0  2  0  0  0
  -16.4170    5.9760    9.8790 C   0  0  0  0  0  0
  -17.6030    5.9250    9.5700 O   0  0  0  0  0  0
  -14.8680    6.5960    8.0260 C   0  0  0  0  0  0
  -13.5560    6.4280    7.2730 C   0  0  0  0  0  0
  -13.4600    7.5160    6.1980 C   0  0  0  0  0  0
  -12.3720    6.5430    8.2340 C   0  0  0  0  0  0
  -16.0030    6.6130   10.9740 N   0  0  0  0  0  0
  -16.9350    7.3830   11.7900 C   0  0  2  0  0  0
  -17.2210    8.7450   11.1640 C   0  0  0  0  0  0
  -16.4990    9.2060   10.3040 O   0  0  0  0  0  0
  -16.2970    7.5880   13.1670 C   0  0  0  0  0  0
  -17.2690    8.0680   14.1860 C   0  0  0  0  0  0
  -18.4950    8.0830   13.9630 O   0  0  0  0  0  0
  -16.7420    8.4600   15.3490 N   0  0  0  0  0  0
  -18.3110    9.3580   11.5800 N   0  0  0  0  0  0
  -18.5260   10.7760   11.2450 C   0  0  2  0  0  0
  -17.7040   11.6800   12.1480 C   0  0  0  0  0  0
  -17.2660   11.2690   13.2250 O   0  0  0  0  0  0
  -20.0020   11.0970   11.3780 C   0  0  0  0  0  0
  -20.8770   10.0020   10.7000 C   0  0  0  0  0  0
  -21.1410   10.3100    9.2230 C   0  0  0  0  0  0
  -21.6760    9.0770    8.4860 C   0  0  0  0  0  0
  -22.2640    9.4050    7.1410 N   0  3  0  0  0  0
  -17.5270   12.9410   11.7660 N   0  0  0  0  0  0
  -16.8140   13.8900   12.6280 C   0  0  2  0  0  0
  -17.6210   14.2390   13.8870 C   0  0  0  0  0  0
  -18.8490   14.1620   13.8760 O   0  0  0  0  0  0
  -16.4700   15.1640   11.8530 C   0  0  0  0  0  0
  -17.5690   15.5770   10.8940 C   0  0  0  0  0  0
  -18.7550   15.5050   11.2800 O   0  0  0  0  0  0
  -17.2470   15.9730    9.7540 O   0  0  0  0  0  0
  -16.9360   14.6210   14.9670 N   0  0  0  0  0  0
  -17.6270   14.9880   16.2120 C   0  0  2  0  0  0
  -18.5790   16.1270   15.9110 C   0  0  0  0  0  0
  -18.1470   17.1130   15.3540 O   0  0  0  0  0  0
  -16.6290   15.4340   17.2840 C   0  0  0  0  0  0
  -15.6420   14.3400   17.6560 C   0  0  0  0  0  0
  -14.5620   14.9330   18.5520 C   0  0  0  0  0  0
  -16.4040   13.1950   18.3200 C   0  0  0  0  0  0
  -19.8560   15.9630   16.2480 N   0  0  0  0  0  0
  -20.8720   16.9530   15.9350 C   0  0  2  0  0  0
  -21.8210   17.1090   17.1200 C   0  0  0  0  0  0
  -22.2560   16.1020   17.7050 O   0  0  0  0  0  0
  -21.6810   16.5200   14.6970 C   0  0  0  0  0  0
  -22.6190   17.6120   14.1880 C   0  0  0  0  0  0
  -23.5540   17.1230   13.1000 C   0  0  0  0  0  0
  -23.1540   16.2070   12.3590 O   0  0  0  0  0  0
  -24.6900   17.6470   12.9940 O   0  0  0  0  0  0
  -22.1840   18.3580   17.4360 N   0  0  0  0  0  0
  -23.1280   18.6280   18.5130 C   0  0  2  0  0  0
  -24.0020   19.7810   18.0890 C   0  0  0  0  0  0
  -23.4810   20.8220   17.6890 O   0  0  0  0  0  0
  -22.4030   18.9930   19.8470 C   0  0  0  0  0  0
  -23.4260   19.4100   20.9320 C   0  0  0  0  0  0
  -21.5590   17.8270   20.3390 C   0  0  0  0  0  0
  -25.3230   19.5940   18.1600 N   0  0  0  0  0  0
  -26.2620   20.6650   17.8310 C   0  0  2  0  0  0
  -26.0320   21.2050   16.4130 C   0  0  0  0  0  0
  -26.0310   22.4100   16.1990 O   0  0  0  0  0  0
  -26.1480   21.7960   18.8690 C   0  0  0  0  0  0
  -26.6470   21.3750   20.2670 C   0  0  0  0  0  0
  -27.5160   20.4770   20.3460 O   0  0  0  0  0  0
  -26.1730   21.9400   21.2820 O   0  0  0  0  0  0
  -25.8150   20.3030   15.4590 N   0  0  0  0  0  0
  -25.6100   20.6750   14.0680 C   0  0  0  0  0  0
  -24.2320   21.2070   13.6860 C   0  0  0  0  0  0
  -23.9760   21.4930   12.5020 O   0  0  0  0  0  0
  -23.3360   21.3420   14.6650 N   0  0  0  0  0  0
  -22.0410   21.9740   14.4120 C   0  0  2  0  0  0
  -20.9190   21.0710   14.8210 C   0  0  0  0  0  0
  -20.9790   20.4240   15.8550 O   0  0  0  0  0  0
  -21.9560   23.3000   15.1360 C   0  0  0  0  0  0
  -22.9010   24.3130   14.5800 C   0  0  0  0  0  0
  -24.2680   24.2190   14.7400 N   0  0  0  0  0  0
  -22.6850   25.4010   13.7980 C   0  0  0  0  0  0
  -24.8530   25.2270   14.1130 C   0  0  0  0  0  0
  -23.9160   25.9550   13.5280 N   0  0  0  0  0  0
  -19.9040   21.0180   13.9760 N   0  0  0  0  0  0
  -18.7680   20.1470   14.2430 C   0  0  2  0  0  0
  -17.9030   20.6820   15.3800 C   0  0  0  0  0  0
  -17.8810   21.8860   15.6440 O   0  0  0  0  0  0
  -17.9640   19.9020   12.9520 C   0  0  0  0  0  0
  -18.7740   19.2410   11.8660 C   0  0  0  0  0  0
  -19.1160   17.8990   11.9650 C   0  0  0  0  0  0
  -19.2100   19.9620   10.7570 C   0  0  0  0  0  0
  -19.8730   17.2880   10.9740 C   0  0  0  0  0  0
  -19.9620   19.3620    9.7680 C   0  0  0  0  0  0
  -20.2980   18.0230    9.8730 C   0  0  0  0  0  0
  -17.2590   19.7700   16.1060 N   0  0  0  0  0  0
  -16.4730   20.1350   17.2680 C   0  0  2  0  0  0
  -15.0530   19.6370   17.0510 C   0  0  0  0  0  0
  -14.8390   18.4400   16.9830 O   0  0  0  0  0  0
  -17.0290   19.4650   18.5470 C   0  0  0  0  0  0
  -16.1620   19.8560   19.7460 C   0  0  0  0  0  0
  -18.4860   19.8710   18.7630 C   0  0  0  0  0  0
  -14.1000   20.5520   16.9180 N   0  0  0  0  0  0
  -12.7060   20.2170   16.6020 C   0  0  2  0  0  0
  -11.8390   20.4330   17.8560 C   0  0  0  0  0  0
  -12.3650   20.7710   18.9120 O   0  0  0  0  0  0
  -12.2190   21.0630   15.4000 C   0  0  2  0  0  0
  -12.2680   22.4530   15.7430 O   0  0  0  0  0  0
  -13.1630   20.8770   14.1920 C   0  0  0  0  0  0
  -10.5270   20.2270   17.7660 N   0  0  0  0  0  0
   -9.6820   20.4200   18.9450 C   0  0  2  0  0  0
   -9.6480   21.8310   19.4910 C   0  0  0  0  0  0
   -9.9990   22.8050   18.7850 O   0  0  0  0  0  0
   -8.2610   20.1050   18.5950 C   0  0  0  0  0  0
   -8.0290   18.6930   18.3470 C   0  0  0  0  0  0
   -6.2660   18.5990   17.9400 S   0  0  0  0  0  0
   -6.1770   16.8250   18.0420 C   0  0  0  0  0  0
   -9.2130   21.9820   20.6540 O   0  0  0  0  0  0
  -14.2826    1.4460    7.6283 H   0  0  0  0  0  0
  -15.4644    0.1457    7.2551 H   0  0  0  0  0  0
  -15.1981    0.6560    8.9567 H   0  0  0  0  0  0
  -16.4043    2.3970    6.7456 H   0  0  0  0  0  0
  -17.7497    0.4096    7.6071 H   0  0  0  0  0  0
  -17.5945    1.1010    9.2577 H   0  0  0  0  0  0
  -19.1404    1.5596    5.8987 H   0  0  0  0  0  0
  -18.8604    2.9994    9.9509 H   0  0  0  0  0  0
  -21.2352    2.8028    5.6093 H   0  0  0  0  0  0
  -21.0458    4.1767    9.6740 H   0  0  0  0  0  0
  -22.1888    4.1214    7.4636 H   0  0  0  0  0  0
  -15.8176    4.4455    7.0856 H   0  0  0  0  0  0
  -14.4902    5.0921    9.6236 H   0  0  0  0  0  0
  -15.6313    6.7283    7.2450 H   0  0  0  0  0  0
  -14.7556    7.5329    8.5913 H   0  0  0  0  0  0
  -13.5327    5.4312    6.8084 H   0  0  0  0  0  0
  -14.3139    7.4282    5.5102 H   0  0  0  0  0  0
  -12.5223    7.3943    5.6359 H   0  0  0  0  0  0
  -13.4749    8.5064    6.6764 H   0  0  0  0  0  0
  -12.4464    5.7599    9.0029 H   0  0  0  0  0  0
  -12.3852    7.5320    8.7154 H   0  0  0  0  0  0
  -11.4327    6.4199    7.6749 H   0  0  0  0  0  0
  -14.9424    6.5523   11.2595 H   0  0  0  0  0  0
  -17.8687    6.8034   11.8373 H   0  0  0  0  0  0
  -15.8795    6.6347   13.5232 H   0  0  0  0  0  0
  -15.4930    8.3348   13.0911 H   0  0  0  0  0  0
  -15.6526    8.4282   15.4977 H   0  0  0  0  0  0
  -17.3974    8.8146   16.1581 H   0  0  0  0  0  0
  -19.0589    8.8140   12.1756 H   0  0  0  0  0  0
  -18.1935   10.9222   10.2067 H   0  0  0  0  0  0
  -20.2706   11.1524   12.4433 H   0  0  0  0  0  0
  -20.2120   12.0633   10.8962 H   0  0  0  0  0  0
  -20.3626    9.0316   10.7614 H   0  0  0  0  0  0
  -21.8466    9.9363   11.2153 H   0  0  0  0  0  0
  -21.8853   11.1161    9.1439 H   0  0  0  0  0  0
  -20.2043   10.6273    8.7415 H   0  0  0  0  0  0
  -20.8564    8.3609    8.3265 H   0  0  0  0  0  0
  -22.4648    8.6031    9.0887 H   0  0  0  0  0  0
  -22.6284    8.4825    6.6653 H   0  0  0  0  0  0
  -21.4926    9.8650    6.5059 H   0  0  0  0  0  0
  -23.1010   10.1073    7.2682 H   0  0  0  0  0  0
  -17.9211   13.2704   10.7933 H   0  0  0  0  0  0
  -15.8947   13.3631   12.9235 H   0  0  0  0  0  0
  -16.3100   15.9913   12.5600 H   0  0  0  0  0  0
  -15.5538   15.0004   11.2667 H   0  0  0  0  0  0
  -19.5720   15.7984   10.6045 H   0  0  0  0  0  0
  -15.8378   14.6589   14.9157 H   0  0  0  0  0  0
  -18.1673   14.0951   16.5595 H   0  0  0  0  0  0
  -16.0540   16.2956   16.9139 H   0  0  0  0  0  0
  -17.1738   15.7211   18.1955 H   0  0  0  0  0  0
  -15.1404   13.9336   16.7653 H   0  0  0  0  0  0
  -14.0514   15.7491   18.0198 H   0  0  0  0  0  0
  -13.8323   14.1522   18.8126 H   0  0  0  0  0  0
  -15.0225   15.3258   19.4705 H   0  0  0  0  0  0
  -17.1663   12.8109   17.6262 H   0  0  0  0  0  0
  -16.8924   13.5615   19.2350 H   0  0  0  0  0  0
  -15.7022   12.3879   18.5771 H   0  0  0  0  0  0
  -20.1321   15.0410   16.7806 H   0  0  0  0  0  0
  -20.3246   17.8877   15.7432 H   0  0  0  0  0  0
  -20.9911   16.2633   13.8796 H   0  0  0  0  0  0
  -22.2943   15.6421   14.9484 H   0  0  0  0  0  0
  -23.2361   17.9823   15.0199 H   0  0  0  0  0  0
  -22.0262   18.4409   13.7740 H   0  0  0  0  0  0
  -25.3824   17.3053   12.2105 H   0  0  0  0  0  0
  -21.7522   19.1907   16.8614 H   0  0  0  0  0  0
  -23.7153   17.7061   18.6364 H   0  0  0  0  0  0
  -21.7196   19.8352   19.6633 H   0  0  0  0  0  0
  -24.0286   20.2530   20.5630 H   0  0  0  0  0  0
  -22.8904   19.7134   21.8436 H   0  0  0  0  0  0
  -24.0856   18.5598   21.1601 H   0  0  0  0  0  0
  -20.8376   17.5417   19.5591 H   0  0  0  0  0  0
  -22.2122   16.9713   20.5650 H   0  0  0  0  0  0
  -21.0169   18.1249   21.2486 H   0  0  0  0  0  0
  -25.6998   18.6093   18.4738 H   0  0  0  0  0  0
  -27.2578   20.1993   17.8706 H   0  0  0  0  0  0
  -25.0954   22.1008   18.9651 H   0  0  0  0  0  0
  -26.7504   22.6562   18.5416 H   0  0  0  0  0  0
  -26.5194   21.6501   22.2850 H   0  0  0  0  0  0
  -25.7937   19.2435   15.7539 H   0  0  0  0  0  0
  -25.7752   19.7975   13.4256 H   0  0  0  0  0  0
  -26.3190   21.4696   13.7926 H   0  0  0  0  0  0
  -23.5800   20.9717   15.6717 H   0  0  0  0  0  0
  -21.9721   22.1377   13.3264 H   0  0  0  0  0  0
  -22.2008   23.1540   16.1984 H   0  0  0  0  0  0
  -20.9359   23.7018   15.0467 H   0  0  0  0  0  0
  -21.7733   25.8609   13.3890 H   0  0  0  0  0  0
  -25.9247   25.4239   14.0836 H   0  0  0  0  0  0
  -19.9208   21.6368   13.0667 H   0  0  0  0  0  0
  -19.2039   19.1975   14.5873 H   0  0  0  0  0  0
  -17.6010   20.8628   12.5582 H   0  0  0  0  0  0
  -17.1069   19.2486   13.1722 H   0  0  0  0  0  0
  -18.7875   17.3200   12.8281 H   0  0  0  0  0  0
  -18.9529   21.0176   10.6690 H   0  0  0  0  0  0
  -20.1338   16.2331   11.0592 H   0  0  0  0  0  0
  -20.2911   19.9413    8.9053 H   0  0  0  0  0  0
  -20.8940   17.5464    9.0947 H   0  0  0  0  0  0
  -17.3354   18.7154   15.8028 H   0  0  0  0  0  0
  -16.5288   21.2313   17.3395 H   0  0  0  0  0  0
  -17.0036   18.3700   18.4455 H   0  0  0  0  0  0
  -15.1214   19.5513   19.5609 H   0  0  0  0  0  0
  -16.5365   19.3520   20.6492 H   0  0  0  0  0  0
  -16.2050   20.9457   19.8897 H   0  0  0  0  0  0
  -19.0822   19.5774   17.8865 H   0  0  0  0  0  0
  -18.5466   20.9608   18.8993 H   0  0  0  0  0  0
  -18.8781   19.3671   19.6587 H   0  0  0  0  0  0
  -14.3955   21.6025   17.0561 H   0  0  0  0  0  0
  -12.6756   19.1537   16.3219 H   0  0  0  0  0  0
  -11.1751   20.8105   15.1623 H   0  0  0  0  0  0
  -11.6700   22.8333   16.5843 H   0  0  0  0  0  0
  -13.1629   19.8205   13.8859 H   0  0  0  0  0  0
  -12.8154   21.5012   13.3556 H   0  0  0  0  0  0
  -14.1830   21.1769   14.4742 H   0  0  0  0  0  0
  -10.0773   19.9134   16.8124 H   0  0  0  0  0  0
  -10.1392   19.7432   19.6818 H   0  0  0  0  0  0
   -9.9677   23.8238   19.1987 H   0  0  0  0  0  0
   -7.9780   20.6519   17.6835 H   0  0  0  0  0  0
   -7.6036   20.4078   19.4233 H   0  0  0  0  0  0
   -8.2758   18.1166   19.2508 H   0  0  0  0  0  0
   -8.6640   18.3579   17.5136 H   0  0  0  0  0  0
   -5.1502   16.4963   17.8239 H   0  0  0  0  0  0
   -6.8675   16.3806   17.3101 H   0  0  0  0  0  0
   -6.4583   16.5014   19.0550 H   0  0  0  0  0  0
  1  2  1  0  0  0
  1125  1  0  0  0
  1126  1  0  0  0
  1127  1  0  0  0
  2  3  1  0  0  0
  2  5  1  0  0  0
  2128  1  0  0  0
  3  4  2  0  0  0
  3 12  1  0  0  0
  5  6  1  0  0  0
  5129  1  0  0  0
  5130  1  0  0  0
  6  7  2  0  0  0
  6  8  1  0  0  0
  7  9  1  0  0  0
  7131  1  0  0  0
  8 10  2  0  0  0
  8132  1  0  0  0
  9 11  2  0  0  0
  9133  1  0  0  0
 10 11  1  0  0  0
 10134  1  0  0  0
 11135  1  0  0  0
 12 13  1  0  0  0
 12136  1  0  0  0
 13 14  1  0  0  0
 13 16  1  0  0  0
 13137  1  0  0  0
 14 15  2  0  0  0
 14 20  1  0  0  0
 16 17  1  0  0  0
 16138  1  0  0  0
 16139  1  0  0  0
 17 18  1  0  0  0
 17 19  1  0  0  0
 17140  1  0  0  0
 18141  1  0  0  0
 18142  1  0  0  0
 18143  1  0  0  0
 19144  1  0  0  0
 19145  1  0  0  0
 19146  1  0  0  0
 20 21  1  0  0  0
 20147  1  0  0  0
 21 22  1  0  0  0
 21 24  1  0  0  0
 21148  1  0  0  0
 22 23  2  0  0  0
 22 28  1  0  0  0
 24 25  1  0  0  0
 24149  1  0  0  0
 24150  1  0  0  0
 25 26  2  0  0  0
 25 27  1  0  0  0
 27151  1  0  0  0
 27152  1  0  0  0
 28 29  1  0  0  0
 28153  1  0  0  0
 29 30  1  0  0  0
 29 32  1  0  0  0
 29154  1  0  0  0
 30 31  2  0  0  0
 30 37  1  0  0  0
 32 33  1  0  0  0
 32155  1  0  0  0
 32156  1  0  0  0
 33 34  1  0  0  0
 33157  1  0  0  0
 33158  1  0  0  0
 34 35  1  0  0  0
 34159  1  0  0  0
 34160  1  0  0  0
 35 36  1  0  0  0
 35161  1  0  0  0
 35162  1  0  0  0
 36163  1  0  0  0
 36164  1  0  0  0
 36165  1  0  0  0
 37 38  1  0  0  0
 37166  1  0  0  0
 38 39  1  0  0  0
 38 41  1  0  0  0
 38167  1  0  0  0
 39 40  2  0  0  0
 39 45  1  0  0  0
 41 42  1  0  0  0
 41168  1  0  0  0
 41169  1  0  0  0
 42 43  1  0  0  0
 42 44  2  0  0  0
 43170  1  0  0  0
 45 46  1  0  0  0
 45171  1  0  0  0
 46 47  1  0  0  0
 46 49  1  0  0  0
 46172  1  0  0  0
 47 48  2  0  0  0
 47 53  1  0  0  0
 49 50  1  0  0  0
 49173  1  0  0  0
 49174  1  0  0  0
 50 51  1  0  0  0
 50 52  1  0  0  0
 50175  1  0  0  0
 51176  1  0  0  0
 51177  1  0  0  0
 51178  1  0  0  0
 52179  1  0  0  0
 52180  1  0  0  0
 52181  1  0  0  0
 53 54  1  0  0  0
 53182  1  0  0  0
 54 55  1  0  0  0
 54 57  1  0  0  0
 54183  1  0  0  0
 55 56  2  0  0  0
 55 62  1  0  0  0
 57 58  1  0  0  0
 57184  1  0  0  0
 57185  1  0  0  0
 58 59  1  0  0  0
 58186  1  0  0  0
 58187  1  0  0  0
 59 60  2  0  0  0
 59 61  1  0  0  0
 61188  1  0  0  0
 62 63  1  0  0  0
 62189  1  0  0  0
 63 64  1  0  0  0
 63 66  1  0  0  0
 63190  1  0  0  0
 64 65  2  0  0  0
 64 69  1  0  0  0
 66 67  1  0  0  0
 66 68  1  0  0  0
 66191  1  0  0  0
 67192  1  0  0  0
 67193  1  0  0  0
 67194  1  0  0  0
 68195  1  0  0  0
 68196  1  0  0  0
 68197  1  0  0  0
 69 70  1  0  0  0
 69198  1  0  0  0
 70 71  1  0  0  0
 70 73  1  0  0  0
 70199  1  0  0  0
 71 72  2  0  0  0
 71 77  1  0  0  0
 73 74  1  0  0  0
 73200  1  0  0  0
 73201  1  0  0  0
 74 75  2  0  0  0
 74 76  1  0  0  0
 76202  1  0  0  0
 77 78  1  0  0  0
 77203  1  0  0  0
 78 79  1  0  0  0
 78204  1  0  0  0
 78205  1  0  0  0
 79 80  2  0  0  0
 79 81  1  0  0  0
 81 82  1  0  0  0
 81206  1  0  0  0
 82 83  1  0  0  0
 82 85  1  0  0  0
 82207  1  0  0  0
 83 84  2  0  0  0
 83 91  1  0  0  0
 85 86  1  0  0  0
 85208  1  0  0  0
 85209  1  0  0  0
 86 87  2  0  0  0
 86 88  1  0  0  0
 87 89  1  0  0  0
 88 90  2  0  0  0
 88210  1  0  0  0
 89 90  1  0  0  0
 89211  1  0  0  0
 91 92  1  0  0  0
 91212  1  0  0  0
 92 93  1  0  0  0
 92 95  1  0  0  0
 92213  1  0  0  0
 93 94  2  0  0  0
 93102  1  0  0  0
 95 96  1  0  0  0
 95214  1  0  0  0
 95215  1  0  0  0
 96 97  2  0  0  0
 96 98  1  0  0  0
 97 99  1  0  0  0
 97216  1  0  0  0
 98100  2  0  0  0
 98217  1  0  0  0
 99101  2  0  0  0
 99218  1  0  0  0
100101  1  0  0  0
100219  1  0  0  0
101220  1  0  0  0
102103  1  0  0  0
102221  1  0  0  0
103104  1  0  0  0
103106  1  0  0  0
103222  1  0  0  0
104105  2  0  0  0
104109  1  0  0  0
106107  1  0  0  0
106108  1  0  0  0
106223  1  0  0  0
107224  1  0  0  0
107225  1  0  0  0
107226  1  0  0  0
108227  1  0  0  0
108228  1  0  0  0
108229  1  0  0  0
109110  1  0  0  0
109230  1  0  0  0
110111  1  0  0  0
110113  1  0  0  0
110231  1  0  0  0
111112  2  0  0  0
111116  1  0  0  0
113114  1  0  0  0
113115  1  0  0  0
113232  1  0  0  0
114233  1  0  0  0
115234  1  0  0  0
115235  1  0  0  0
115236  1  0  0  0
116117  1  0  0  0
116237  1  0  0  0
117118  1  0  0  0
117120  1  0  0  0
117238  1  0  0  0
118119  1  0  0  0
118124  2  0  0  0
119239  1  0  0  0
120121  1  0  0  0
120240  1  0  0  0
120241  1  0  0  0
121122  1  0  0  0
121242  1  0  0  0
121243  1  0  0  0
122123  1  0  0  0
123244  1  0  0  0
123245  1  0  0  0
123246  1  0  0  0
M  CHG  2   1   1  36   1
M  END
> <s_m_source_file>
../4u6y_ligand.sdf

> <i_m_source_file_index>
1

> <s_epik_input>
W2NIXTFbY0hdW2NIXVtjSF1bY0hdYzFbQ0gyXVtDQEhdKFtOSDMrXSlDKD1PKVtOSF1bQ0BASF0oW0NIMl1bQ0hdKFtDSDNdKVtDSDNdKUMoPU8pW05IXVtDQEBIXShbQ0gyXUMoPU8pW05IMl0pQyg9TylbTkhdW0NAQEhdKFtDSDJdW0NIMl1bQ0gyXVtDSDJdW05IMytdKUMoPU8pW05IXVtDQEBIXShbQ0gyXUMoPU8pW09IXSlDKD1PKVtOSF1bQ0BASF0oW0NIMl1bQ0hdKFtDSDNdKVtDSDNdKUMoPU8pW05IXVtDQEBIXShbQ0gyXVtDSDJdQyg9TylbT0hdKUMoPU8pW05IXVtDQEBIXShbQ0hdKFtDSDNdKVtDSDNdKUMoPU8pW05IXVtDQEBIXShbQ0gyXUMoPU8pW09IXSlDKD1PKVtOSF1bQ0gyXUMoPU8pW05IXVtDQEBIXShbQ0gyXUMyPU5bQ0gyXU49W0NIXTIpQyg9TylbTkhdW0NAQEhdKFtDSDJdYzNbY0hdW2NIXVtjSF1bY0hdW2NIXTMpQyg9TylbTkhdW0NAQEhdKFtDSF0oW0NIM10pW0NIM10pQyg9TylbTkhdW0NAQEhdKFtDQEhdKFtPSF0pW0NIM10pQyg9TylbTkhdW0NASF0oQyg9TylbT0hdKVtDSDJdW0NIMl1TW0NIM10=

> <s_epik_cmdline>
J2VwaWtfYXBwJywgJy1pbWFlJywgJ2xpZ2FuZF9wcm8ubWFlJywgJy1vbWFlJywgJ2xpZ2FuZF9wcmVwLm1hZScsICctbXMnLCAnMScsICctcGgnLCAnNycsICctcGh0JywgJzAuNScsICctbnQn

> <s_epik_pKa_notes>
Molecule size exceeds maximum supported for generating protonation states

> <s_epik_Chemistry_Notes>
This compound has an imine and may undergo hydrolysis.

$$$$
