4u6z_ligand
                    3D
 Schrodinger Suite 2020-3.
 26 25  0  0  1  0            999 V2000
   21.8290   -2.2160   12.0950 O   0  5  0  0  0  0
   21.2380   -2.4930   10.7310 P   0  0  0  0  0  0
   19.8900   -3.2450   10.9220 O   0  5  0  0  0  0
   21.0290   -1.3930    9.9600 O   0  0  0  0  0  0
   22.3770   -3.6270    9.8660 C   0  0  1  0  0  0
   23.5770   -2.9960    9.3980 N   0  3  0  0  0  0
   22.7210   -4.8040   10.7450 C   0  0  2  0  0  0
   23.7300   -4.4590   11.7990 C   0  0  0  0  0  0
   23.1100   -6.0400    9.9860 C   0  0  0  0  0  0
   23.0310   -7.2790   10.8580 C   0  0  0  0  0  0
   23.0750   -8.5750   10.0950 C   0  0  0  0  0  0
   22.0723   -4.0694    8.9061 H   0  0  0  0  0  0
   23.3157   -2.1399    8.7586 H   0  0  0  0  0  0
   24.1695   -3.7192    8.8184 H   0  0  0  0  0  0
   24.1661   -2.6450   10.2581 H   0  0  0  0  0  0
   21.7848   -5.0580   11.2637 H   0  0  0  0  0  0
   23.4092   -3.5508   12.3304 H   0  0  0  0  0  0
   24.7075   -4.2816   11.3267 H   0  0  0  0  0  0
   23.8135   -5.2915   12.5131 H   0  0  0  0  0  0
   22.4315   -6.1737    9.1306 H   0  0  0  0  0  0
   24.1429   -5.9369    9.6221 H   0  0  0  0  0  0
   23.8787   -7.2887   11.5590 H   0  0  0  0  0  0
   22.0876   -7.2698   11.4236 H   0  0  0  0  0  0
   23.0128   -9.4175   10.7995 H   0  0  0  0  0  0
   24.0177   -8.6369    9.5316 H   0  0  0  0  0  0
   22.2266   -8.6180    9.3962 H   0  0  0  0  0  0
  1  2  1  0  0  0
  2  3  1  0  0  0
  2  4  2  0  0  0
  2  5  1  0  0  0
  5  6  1  0  0  0
  5  7  1  0  0  0
  5 12  1  0  0  0
  6 13  1  0  0  0
  6 14  1  0  0  0
  6 15  1  0  0  0
  7  8  1  0  0  0
  7  9  1  0  0  0
  7 16  1  0  0  0
  8 17  1  0  0  0
  8 18  1  0  0  0
  8 19  1  0  0  0
  9 10  1  0  0  0
  9 20  1  0  0  0
  9 21  1  0  0  0
 10 11  1  0  0  0
 10 22  1  0  0  0
 10 23  1  0  0  0
 11 24  1  0  0  0
 11 25  1  0  0  0
 11 26  1  0  0  0
M  CHG  3   1  -1   3  -1   6   1
M  END
> <s_m_source_file>
../4u6z_ligand.sdf

> <i_m_source_file_index>
1

> <s_epik_input>
W09IXVAoPU8pKFtPSF0pW0NAQEhdKFtOSDMrXSlbQ0BIXShbQ0gzXSlbQ0gyXVtDSDJdW0NIM10=

> <s_epik_cmdline>
J2VwaWtfYXBwJywgJy1pbWFlJywgJ2xpZ2FuZF9wcm8ubWFlJywgJy1vbWFlJywgJ2xpZ2FuZF9wcmVwLm1hZScsICctbXMnLCAnMScsICctcGgnLCAnNycsICctcGh0JywgJzAuNScsICctbnQn

> <r_lp_tautomer_probability>
1

> <r_epik_Ionization_Penalty>
  0.1000

> <r_epik_Ionization_Penalty_Charging>
  0.1000

> <r_epik_Ionization_Penalty_Neutral>
  0.0000

> <r_epik_State_Penalty>
 -0.0000

> <r_epik_Charging_Adjusted_Penalty>
0.100034905935811

> <i_epik_Tot_Q>
-1

> <i_epik_Tot_abs_Q>
3

$$$$
