4u70_ligand
                    3D
 Schrodinger Suite 2020-3.
 30 30  0  0  1  0            999 V2000
   20.5450   -3.0990   11.4820 O   0  0  0  0  0  0
   21.9050   -2.5740   11.3950 P   0  0  0  0  0  0
   22.5600   -2.1420   12.7660 O   0  5  0  0  0  0
   21.9010   -1.2670   10.4750 O   0  5  0  0  0  0
   23.0560   -3.6050   10.5720 C   0  0  1  0  0  0
   24.1810   -2.9310   10.0350 N   0  3  0  0  0  0
   23.4780   -4.6950   11.5730 C   0  0  0  0  0  0
   23.8740   -6.0470   11.0400 C   0  0  0  0  0  0
   24.4610   -6.6090   12.3460 C   0  0  0  0  0  0
   25.4390   -7.6230   11.7560 C   0  0  0  0  0  0
   24.6210   -8.7840   11.2020 C   0  0  0  0  0  0
   23.6640   -8.3580   10.1370 C   0  0  0  0  0  0
   22.9080   -7.0740   10.5700 C   0  0  0  0  0  0
   22.7617   -4.0620    9.6157 H   0  0  0  0  0  0
   23.8431   -2.1612    9.3257 H   0  0  0  0  0  0
   24.8261   -3.6529    9.5128 H   0  0  0  0  0  0
   24.7470   -2.4558   10.8497 H   0  0  0  0  0  0
   24.3538   -4.3506   12.1425 H   0  0  0  0  0  0
   22.6476   -4.8987   12.2651 H   0  0  0  0  0  0
   24.4099   -5.8831   10.0934 H   0  0  0  0  0  0
   24.9376   -5.7961   12.9134 H   0  0  0  0  0  0
   23.6553   -7.0534   12.9488 H   0  0  0  0  0  0
   26.0212   -7.1467   10.9533 H   0  0  0  0  0  0
   26.1209   -7.9759   12.5437 H   0  0  0  0  0  0
   25.2974   -9.5343   10.7668 H   0  0  0  0  0  0
   24.0386   -9.2429   12.0146 H   0  0  0  0  0  0
   24.2167   -8.1520    9.2085 H   0  0  0  0  0  0
   22.9332   -9.1605    9.9583 H   0  0  0  0  0  0
   22.2116   -7.3223   11.3845 H   0  0  0  0  0  0
   22.3433   -6.6807    9.7119 H   0  0  0  0  0  0
  1  2  2  0  0  0
  2  3  1  0  0  0
  2  4  1  0  0  0
  2  5  1  0  0  0
  5  6  1  0  0  0
  5  7  1  0  0  0
  5 14  1  0  0  0
  6 15  1  0  0  0
  6 16  1  0  0  0
  6 17  1  0  0  0
  7  8  1  0  0  0
  7 18  1  0  0  0
  7 19  1  0  0  0
  8  9  1  0  0  0
  8 13  1  0  0  0
  8 20  1  0  0  0
  9 10  1  0  0  0
  9 21  1  0  0  0
  9 22  1  0  0  0
 10 11  1  0  0  0
 10 23  1  0  0  0
 10 24  1  0  0  0
 11 12  1  0  0  0
 11 25  1  0  0  0
 11 26  1  0  0  0
 12 13  1  0  0  0
 12 27  1  0  0  0
 12 28  1  0  0  0
 13 29  1  0  0  0
 13 30  1  0  0  0
M  CHG  3   3  -1   4  -1   6   1
M  END
> <s_m_source_file>
../4u70_ligand.sdf

> <i_m_source_file_index>
1

> <s_epik_input>
Tz1QKFtPSF0pKFtPSF0pW0NAQEhdKFtOSDMrXSlbQ0gyXVtDSF0xW0NIMl1bQ0gyXVtDSDJdW0NIMl1bQ0gyXTE=

> <s_epik_cmdline>
J2VwaWtfYXBwJywgJy1pbWFlJywgJ2xpZ2FuZF9wcm8ubWFlJywgJy1vbWFlJywgJ2xpZ2FuZF9wcmVwLm1hZScsICctbXMnLCAnMScsICctcGgnLCAnNycsICctcGh0JywgJzAuNScsICctbnQn

> <r_lp_tautomer_probability>
1

> <r_epik_Ionization_Penalty>
  0.1015

> <r_epik_Ionization_Penalty_Charging>
  0.1015

> <r_epik_Ionization_Penalty_Neutral>
  0.0000

> <r_epik_State_Penalty>
 -0.0000

> <r_epik_Charging_Adjusted_Penalty>
0.101525282380341

> <i_epik_Tot_Q>
-1

> <i_epik_Tot_abs_Q>
3

$$$$
