4u71_ligand
                    3D
 Schrodinger Suite 2020-3.
 27 27  0  0  1  0            999 V2000
    2.5960   -3.3340   12.7750 O   0  0  0  0  0  0
    1.2630   -2.6880   12.8350 P   0  0  0  0  0  0
    1.3750   -1.2780   13.6390 O   0  5  0  0  0  0
    0.5620   -2.4180   11.4360 O   0  5  0  0  0  0
    0.1920   -3.6720   13.9460 C   0  0  1  0  0  0
   -0.8500   -2.8140   14.4610 N   0  3  0  0  0  0
   -0.2440   -5.0340   13.3540 C   0  0  0  0  0  0
   -1.5950   -4.9630   12.6780 C   0  0  0  0  0  0
   -1.9170   -6.2640   12.0050 C   0  0  0  0  0  0
   -1.4160   -7.5060   12.6880 C   0  0  0  0  0  0
   -0.1040   -7.4430   13.3600 C   0  0  0  0  0  0
   -0.1220   -6.1940   14.1990 C   0  0  0  0  0  0
    0.5250   -4.0647   14.9180 H   0  0  0  0  0  0
   -0.4032   -1.8863   14.8480 H   0  0  0  0  0  0
   -1.3828   -3.3309   15.2728 H   0  0  0  0  0  0
   -1.5574   -2.5715   13.6543 H   0  0  0  0  0  0
    0.5263   -5.2992   12.6148 H   0  0  0  0  0  0
   -2.3698   -4.7486   13.4288 H   0  0  0  0  0  0
   -1.5854   -4.1636   11.9225 H   0  0  0  0  0  0
   -3.0085   -6.3779   11.9304 H   0  0  0  0  0  0
   -1.4776   -6.2738   10.9966 H   0  0  0  0  0  0
   -2.1262   -7.8045   13.4732 H   0  0  0  0  0  0
   -1.3219   -8.3172   11.9510 H   0  0  0  0  0  0
    0.0310   -8.3379   13.9853 H   0  0  0  0  0  0
    0.6937   -7.4003   12.6038 H   0  0  0  0  0  0
    0.8132   -6.1315   14.7747 H   0  0  0  0  0  0
   -0.9763   -6.2353   14.8907 H   0  0  0  0  0  0
  1  2  2  0  0  0
  2  3  1  0  0  0
  2  4  1  0  0  0
  2  5  1  0  0  0
  5  6  1  0  0  0
  5  7  1  0  0  0
  5 13  1  0  0  0
  6 14  1  0  0  0
  6 15  1  0  0  0
  6 16  1  0  0  0
  7  8  1  0  0  0
  7 12  1  0  0  0
  7 17  1  0  0  0
  8  9  1  0  0  0
  8 18  1  0  0  0
  8 19  1  0  0  0
  9 10  1  0  0  0
  9 20  1  0  0  0
  9 21  1  0  0  0
 10 11  1  0  0  0
 10 22  1  0  0  0
 10 23  1  0  0  0
 11 12  1  0  0  0
 11 24  1  0  0  0
 11 25  1  0  0  0
 12 26  1  0  0  0
 12 27  1  0  0  0
M  CHG  3   3  -1   4  -1   6   1
M  END
> <s_m_source_file>
../4u71_ligand.sdf

> <i_m_source_file_index>
1

> <s_epik_input>
Tz1QKFtPSF0pKFtPSF0pW0NAQEhdKFtOSDMrXSlbQ0hdMVtDSDJdW0NIMl1bQ0gyXVtDSDJdW0NIMl0x

> <s_epik_cmdline>
J2VwaWtfYXBwJywgJy1pbWFlJywgJ2xpZ2FuZF9wcm8ubWFlJywgJy1vbWFlJywgJ2xpZ2FuZF9wcmVwLm1hZScsICctbXMnLCAnMScsICctcGgnLCAnNycsICctcGh0JywgJzAuNScsICctbnQn

> <r_lp_tautomer_probability>
1

> <r_epik_Ionization_Penalty>
  0.0991

> <r_epik_Ionization_Penalty_Charging>
  0.0991

> <r_epik_Ionization_Penalty_Neutral>
  0.0000

> <r_epik_State_Penalty>
 -0.0000

> <r_epik_Charging_Adjusted_Penalty>
0.099143661741405

> <i_epik_Tot_Q>
-1

> <i_epik_Tot_abs_Q>
3

$$$$
