4u73_ligand
                    3D
 Schrodinger Suite 2020-3.
 21 21  0  0  1  0            999 V2000
   22.3290   -2.3310   12.7250 O   0  5  0  0  0  0
   21.8670   -2.6160   11.3020 P   0  0  0  0  0  0
   21.7660   -1.4690   10.6080 O   0  0  0  0  0  0
   20.5380   -3.3280   11.2420 O   0  5  0  0  0  0
   23.1940   -3.6020   10.4920 C   0  0  1  0  0  0
   24.1970   -2.9390    9.7350 N   0  3  0  0  0  0
   23.4570   -4.9940   10.8910 C   0  0  0  0  0  0
   24.5160   -5.6780   10.3450 C   0  0  0  0  0  0
   24.7650   -6.9970   10.6740 C   0  0  0  0  0  0
   23.9430   -7.6910   11.5130 C   0  0  0  0  0  0
   22.8910   -7.0080   12.0650 C   0  0  0  0  0  0
   22.6330   -5.6820   11.7430 C   0  0  0  0  0  0
   23.3222   -4.1420    9.5423 H   0  0  0  0  0  0
   23.8682   -1.9139    9.5091 H   0  0  0  0  0  0
   24.3679   -3.4848    8.7954 H   0  0  0  0  0  0
   25.1313   -2.9051   10.3145 H   0  0  0  0  0  0
   25.1727   -5.1704    9.6385 H   0  0  0  0  0  0
   25.6388   -7.4946   10.2532 H   0  0  0  0  0  0
   24.1157   -8.7441   11.7349 H   0  0  0  0  0  0
   22.2402   -7.5185   12.7749 H   0  0  0  0  0  0
   21.7648   -5.1825   12.1730 H   0  0  0  0  0  0
  1  2  1  0  0  0
  2  3  2  0  0  0
  2  4  1  0  0  0
  2  5  1  0  0  0
  5  6  1  0  0  0
  5  7  1  0  0  0
  5 13  1  0  0  0
  6 14  1  0  0  0
  6 15  1  0  0  0
  6 16  1  0  0  0
  7  8  2  0  0  0
  7 12  1  0  0  0
  8  9  1  0  0  0
  8 17  1  0  0  0
  9 10  2  0  0  0
  9 18  1  0  0  0
 10 11  1  0  0  0
 10 19  1  0  0  0
 11 12  2  0  0  0
 11 20  1  0  0  0
 12 21  1  0  0  0
M  CHG  3   1  -1   4  -1   6   1
M  END
> <s_m_source_file>
../4u73_ligand.sdf

> <i_m_source_file_index>
1

> <s_epik_input>
W09IXVAoPU8pKFtPSF0pW0NAQEhdKFtOSDMrXSljMVtjSF1bY0hdW2NIXVtjSF1bY0hdMQ==

> <s_epik_cmdline>
J2VwaWtfYXBwJywgJy1pbWFlJywgJ2xpZ2FuZF9wcm8ubWFlJywgJy1vbWFlJywgJ2xpZ2FuZF9wcmVwLm1hZScsICctbXMnLCAnMScsICctcGgnLCAnNycsICctcGh0JywgJzAuNScsICctbnQn

> <r_lp_tautomer_probability>
1

> <r_epik_Ionization_Penalty>
  0.0435

> <r_epik_Ionization_Penalty_Charging>
  0.0435

> <r_epik_Ionization_Penalty_Neutral>
  0.0000

> <r_epik_State_Penalty>
 -0.0000

> <r_epik_Charging_Adjusted_Penalty>
0.0434982785081973

> <i_epik_Tot_Q>
-1

> <i_epik_Tot_abs_Q>
3

$$$$
