4u7q_ligand
                    3D
 Schrodinger Suite 2020-3.
108112  0  0  1  0            999 V2000
  -17.3330   -1.5070   -2.7790 C   0  0  0  0  0  0
  -16.8480   -0.1230   -6.4440 C   0  0  0  0  0  0
  -18.4700    2.1320  -11.9570 C   0  0  1  0  0  0
  -17.8570    3.2190  -16.9150 C   0  0  0  0  0  0
  -18.2340   -0.0640   -4.3000 C   0  0  0  0  0  0
  -17.2150   -0.5340   -5.0150 C   0  0  0  0  0  0
  -18.6360   -0.8290   -9.3780 N   0  0  0  0  0  0
  -18.5980   -0.6420  -10.8350 C   0  0  2  0  0  0
  -19.5740    1.6390  -11.0340 C   0  0  0  0  0  0
  -17.6850    1.1670  -14.1040 C   0  0  0  0  0  0
  -18.0170    1.0190  -15.6200 C   0  0  1  0  0  0
  -15.6840   12.3560  -18.4320 C   0  0  0  0  0  0
  -16.2170   12.2030  -19.8450 C   0  0  0  0  0  0
  -17.4550   11.3840  -19.8640 N   0  0  0  0  0  0
  -18.4630   11.8880  -18.9150 C   0  0  0  0  0  0
  -19.6360   12.2820  -19.7860 C   0  0  0  0  0  0
  -17.2050   10.1020  -19.5430 C   0  0  0  0  0  0
  -15.9180    9.6300  -19.3170 C   0  0  0  0  0  0
  -18.2540    9.2090  -19.4360 C   0  0  0  0  0  0
  -18.0050    7.8860  -19.0490 C   0  0  0  0  0  0
  -16.7150    7.4110  -18.8260 C   0  0  0  0  0  0
  -15.6720    8.3130  -18.9740 C   0  0  0  0  0  0
  -14.3930    7.9190  -18.8040 O   0  0  0  0  0  0
  -14.1170    6.6320  -18.4800 C   0  0  0  0  0  0
  -12.9460    6.2900  -18.3010 O   0  0  0  0  0  0
  -15.1550    5.7040  -18.2950 C   0  0  0  0  0  0
  -16.4830    6.0860  -18.4470 C   0  0  0  0  0  0
  -17.5460    5.1900  -18.2720 C   0  0  0  0  0  0
  -16.9960    4.1330  -17.4580 O   0  0  0  0  0  0
  -19.0590    3.4520  -16.9010 O   0  0  0  0  0  0
  -17.3160    2.1090  -16.3380 N   0  0  0  0  0  0
  -17.4950   -0.3360  -16.1320 C   0  0  0  0  0  0
  -17.9590   -0.5920  -17.5860 C   0  0  0  0  0  0
  -17.9210   -1.4840  -15.2120 C   0  0  0  0  0  0
  -16.6160    0.7300  -13.6190 O   0  0  0  0  0  0
  -18.6240    1.8150  -13.3850 N   0  0  0  0  0  0
  -18.5650    3.6410  -11.8770 C   0  0  0  0  0  0
  -17.3750    3.9300  -11.2860 C   0  0  0  0  0  0
  -16.4400    4.6820  -11.9790 C   0  0  0  0  0  0
  -15.2340    4.9770  -11.3920 C   0  0  0  0  0  0
  -14.9810    4.5460  -10.0960 C   0  0  0  0  0  0
  -15.9280    3.7980   -9.3990 C   0  0  0  0  0  0
  -17.1380    3.4860   -9.9900 C   0  0  0  0  0  0
  -19.8320    0.1650  -11.3020 C   0  0  2  0  0  0
  -21.0320   -0.1660  -10.5950 O   0  0  0  0  0  0
  -18.6550   -2.0050  -11.4550 C   0  0  0  0  0  0
  -17.9040   -2.9200  -10.7000 C   0  0  0  0  0  0
  -18.4480   -3.4710   -9.5320 C   0  0  0  0  0  0
  -17.7470   -4.4080   -8.7680 C   0  0  0  0  0  0
  -16.4830   -4.8470   -9.1630 C   0  0  0  0  0  0
  -15.9330   -4.3150  -10.3290 C   0  0  0  0  0  0
  -16.6420   -3.3630  -11.1040 C   0  0  0  0  0  0
  -17.6000   -0.5720   -8.5640 C   0  0  0  0  0  0
  -16.5260   -0.1420   -9.0040 O   0  0  0  0  0  0
  -17.7890   -0.8030   -7.2500 O   0  0  0  0  0  0
  -16.3740   -1.6010   -4.1370 S   0  0  0  0  0  0
  -18.3000   -0.6110   -3.0540 N   0  0  0  0  0  0
  -17.2035   -2.0618   -1.8498 H   0  0  0  0  0  0
  -16.9304    0.9693   -6.5439 H   0  0  0  0  0  0
  -15.8156   -0.4342   -6.6614 H   0  0  0  0  0  0
  -17.5287    1.6457  -11.6613 H   0  0  0  0  0  0
  -18.9400    0.6788   -4.6713 H   0  0  0  0  0  0
  -19.5519   -1.1999   -8.8948 H   0  0  0  0  0  0
  -17.6650   -0.1204  -11.0947 H   0  0  0  0  0  0
  -19.2644    1.7743   -9.9872 H   0  0  0  0  0  0
  -20.4929    2.2138  -11.2218 H   0  0  0  0  0  0
  -19.0959    1.1002  -15.8184 H   0  0  0  0  0  0
  -14.7688   12.9659  -18.4494 H   0  0  0  0  0  0
  -15.4553   11.3633  -18.0169 H   0  0  0  0  0  0
  -16.4417   12.8496  -17.8057 H   0  0  0  0  0  0
  -16.4457   13.1957  -20.2601 H   0  0  0  0  0  0
  -15.4593   11.7094  -20.4713 H   0  0  0  0  0  0
  -18.7280   11.0914  -18.2042 H   0  0  0  0  0  0
  -18.0519   12.7477  -18.3656 H   0  0  0  0  0  0
  -20.4464   12.6744  -19.1541 H   0  0  0  0  0  0
  -19.9952   11.4008  -20.3378 H   0  0  0  0  0  0
  -19.3190   13.0572  -20.4992 H   0  0  0  0  0  0
  -15.0777   10.3177  -19.4128 H   0  0  0  0  0  0
  -19.2720    9.5330  -19.6521 H   0  0  0  0  0  0
  -18.8475    7.2069  -18.9183 H   0  0  0  0  0  0
  -14.9169    4.6740  -18.0296 H   0  0  0  0  0  0
  -18.3794    5.7034  -17.7701 H   0  0  0  0  0  0
  -17.8800    4.8212  -19.2530 H   0  0  0  0  0  0
  -16.2226    2.0771  -16.4538 H   0  0  0  0  0  0
  -16.3958   -0.2979  -16.1149 H   0  0  0  0  0  0
  -17.6413    0.2451  -18.2250 H   0  0  0  0  0  0
  -19.0554   -0.6771  -17.6114 H   0  0  0  0  0  0
  -17.5101   -1.5260  -17.9551 H   0  0  0  0  0  0
  -17.5799   -1.2781  -14.1867 H   0  0  0  0  0  0
  -17.4719   -2.4236  -15.5661 H   0  0  0  0  0  0
  -19.0172   -1.5748  -15.2224 H   0  0  0  0  0  0
  -19.5402    2.1092  -13.9180 H   0  0  0  0  0  0
  -18.6700    4.0560  -12.8903 H   0  0  0  0  0  0
  -19.4406    3.9218  -11.2732 H   0  0  0  0  0  0
  -16.6607    5.0378  -12.9854 H   0  0  0  0  0  0
  -14.4813    5.5449  -11.9388 H   0  0  0  0  0  0
  -14.0328    4.7952   -9.6196 H   0  0  0  0  0  0
  -15.7141    3.4582   -8.3856 H   0  0  0  0  0  0
  -17.8883    2.9058   -9.4529 H   0  0  0  0  0  0
  -20.0448   -0.0799  -12.3531 H   0  0  0  0  0  0
  -21.4291   -1.1910  -10.6352 H   0  0  0  0  0  0
  -19.6999   -2.3465  -11.4943 H   0  0  0  0  0  0
  -18.2449   -1.9614  -12.4748 H   0  0  0  0  0  0
  -19.4426   -3.1611   -9.2114 H   0  0  0  0  0  0
  -18.1926   -4.8000   -7.8537 H   0  0  0  0  0  0
  -15.9393   -5.5868   -8.5754 H   0  0  0  0  0  0
  -14.9420   -4.6364  -10.6496 H   0  0  0  0  0  0
  -16.1997   -2.9740  -12.0211 H   0  0  0  0  0  0
  1 56  1  0  0  0
  1 57  2  0  0  0
  1 58  1  0  0  0
  2  6  1  0  0  0
  2 55  1  0  0  0
  2 59  1  0  0  0
  2 60  1  0  0  0
  3  9  1  0  0  0
  3 36  1  0  0  0
  3 37  1  0  0  0
  3 61  1  0  0  0
  4 29  1  0  0  0
  4 30  2  0  0  0
  4 31  1  0  0  0
  5  6  2  0  0  0
  5 57  1  0  0  0
  5 62  1  0  0  0
  6 56  1  0  0  0
  7  8  1  0  0  0
  7 53  1  0  0  0
  7 63  1  0  0  0
  8 44  1  0  0  0
  8 46  1  0  0  0
  8 64  1  0  0  0
  9 44  1  0  0  0
  9 65  1  0  0  0
  9 66  1  0  0  0
 10 11  1  0  0  0
 10 35  2  0  0  0
 10 36  1  0  0  0
 11 31  1  0  0  0
 11 32  1  0  0  0
 11 67  1  0  0  0
 12 13  1  0  0  0
 12 68  1  0  0  0
 12 69  1  0  0  0
 12 70  1  0  0  0
 13 14  1  0  0  0
 13 71  1  0  0  0
 13 72  1  0  0  0
 14 15  1  0  0  0
 14 17  1  0  0  0
 15 16  1  0  0  0
 15 73  1  0  0  0
 15 74  1  0  0  0
 16 75  1  0  0  0
 16 76  1  0  0  0
 16 77  1  0  0  0
 17 18  1  0  0  0
 17 19  2  0  0  0
 18 22  2  0  0  0
 18 78  1  0  0  0
 19 20  1  0  0  0
 19 79  1  0  0  0
 20 21  2  0  0  0
 20 80  1  0  0  0
 21 22  1  0  0  0
 21 27  1  0  0  0
 22 23  1  0  0  0
 23 24  1  0  0  0
 24 25  2  0  0  0
 24 26  1  0  0  0
 26 27  2  0  0  0
 26 81  1  0  0  0
 27 28  1  0  0  0
 28 29  1  0  0  0
 28 82  1  0  0  0
 28 83  1  0  0  0
 31 84  1  0  0  0
 32 33  1  0  0  0
 32 34  1  0  0  0
 32 85  1  0  0  0
 33 86  1  0  0  0
 33 87  1  0  0  0
 33 88  1  0  0  0
 34 89  1  0  0  0
 34 90  1  0  0  0
 34 91  1  0  0  0
 36 92  1  0  0  0
 37 38  1  0  0  0
 37 93  1  0  0  0
 37 94  1  0  0  0
 38 39  2  0  0  0
 38 43  1  0  0  0
 39 40  1  0  0  0
 39 95  1  0  0  0
 40 41  2  0  0  0
 40 96  1  0  0  0
 41 42  1  0  0  0
 41 97  1  0  0  0
 42 43  2  0  0  0
 42 98  1  0  0  0
 43 99  1  0  0  0
 44 45  1  0  0  0
 44100  1  0  0  0
 45101  1  0  0  0
 46 47  1  0  0  0
 46102  1  0  0  0
 46103  1  0  0  0
 47 48  2  0  0  0
 47 52  1  0  0  0
 48 49  1  0  0  0
 48104  1  0  0  0
 49 50  2  0  0  0
 49105  1  0  0  0
 50 51  1  0  0  0
 50106  1  0  0  0
 51 52  2  0  0  0
 51107  1  0  0  0
 52108  1  0  0  0
 53 54  2  0  0  0
 53 55  1  0  0  0
M  END
> <s_m_source_file>
../4u7q_ligand.sdf

> <i_m_source_file_index>
1

> <s_epik_input>
czFbY0hdbltjSF1jMVtDSDJdT0MoPU8pW05IXVtDQEBIXShbQ0gyXWMyW2NIXVtjSF1bY0hdW2NIXVtjSF0yKVtDQEBIXShbT0hdKVtDSDJdW0NASF0oW0NIMl1jM1tjSF1bY0hdW2NIXVtjSF1bY0hdMylbTkhdQyg9TylbQ0BIXShbQ0hdKFtDSDNdKVtDSDNdKVtOSF1DKD1PKU9bQ0gyXWM0W2NIXWMoPU8pb2MoYzQ1KVtjSF1jKFtjSF1bY0hdNSlOKFtDSDJdW0NIM10pW0NIMl1bQ0gzXQ==

> <s_epik_cmdline>
J2VwaWtfYXBwJywgJy1pbWFlJywgJ2xpZ2FuZF9wcm8ubWFlJywgJy1vbWFlJywgJ2xpZ2FuZF9wcmVwLm1hZScsICctbXMnLCAnMScsICctcGgnLCAnNycsICctcGh0JywgJzAuNScsICctbnQn

> <r_lp_tautomer_probability>
1

> <r_epik_Ionization_Penalty>
  0.0000

> <r_epik_Ionization_Penalty_Charging>
  0.0000

> <r_epik_Ionization_Penalty_Neutral>
  0.0000

> <r_epik_State_Penalty>
 -0.0000

> <r_epik_Charging_Adjusted_Penalty>
4.75110055344514e-10

> <i_epik_Tot_Q>
0

> <i_epik_Tot_abs_Q>
0

> <s_epik_Chemistry_Notes>
This compound has an ester and may undergo hydrolysis at high or low pH. This compound has an imine and may undergo hydrolysis.

$$$$
