4u7t_ligand
                    3D
 Schrodinger Suite 2020-3.
170169  0  0  1  0            999 V2000
   16.0830  106.0810   -0.0920 N   0  3  0  0  0  0
   14.8800  105.6130   -0.7630 C   0  0  2  0  0  0
   13.9970  104.8520    0.2020 C   0  0  0  0  0  0
   13.5350  105.4020    1.1990 O   0  0  0  0  0  0
   15.2350  104.7320   -1.9700 C   0  0  0  0  0  0
   13.7730  103.5780   -0.1020 N   0  0  0  0  0  0
   12.9180  102.7290    0.7160 C   0  0  2  0  0  0
   13.5280  102.3970    2.0720 C   0  0  0  0  0  0
   14.7480  102.3970    2.2420 O   0  0  0  0  0  0
   12.5830  101.4500   -0.0370 C   0  0  0  0  0  0
   11.7340  101.6920   -1.2720 C   0  0  0  0  0  0
   11.4120  100.3780   -1.9600 C   0  0  0  0  0  0
   10.8650   99.4100   -1.0140 N   0  0  0  0  0  0
   10.8840   98.0940   -1.2000 C   0  0  0  0  0  0
   11.4330   97.5880   -2.2980 N   0  0  0  0  0  0
   10.3610   97.2860   -0.2860 N   0  0  0  0  0  0
   12.6530  102.1020    3.0290 N   0  0  0  0  0  0
   13.0380  101.9050    4.4220 C   0  0  2  0  0  0
   12.3350  100.7010    5.0240 C   0  0  0  0  0  0
   11.1370  100.5010    4.8060 O   0  0  0  0  0  0
   12.6960  103.1460    5.2660 C   0  0  2  0  0  0
   13.7330  104.1310    5.1300 O   0  0  0  0  0  0
   12.4850  102.7740    6.7460 C   0  0  0  0  0  0
   13.0770   99.8920    5.7740 N   0  0  0  0  0  0
   12.4450   98.8360    6.5550 C   0  0  2  0  0  0
   12.9390   98.8140    8.0010 C   0  0  0  0  0  0
   13.8030   99.6050    8.4020 O   0  0  0  0  0  0
   12.6620   97.4700    5.8950 C   0  0  0  0  0  0
   14.0390   96.8830    6.0790 C   0  0  0  0  0  0
   14.1340   95.5130    5.4300 C   0  0  0  0  0  0
   15.5450   94.9600    5.5000 C   0  0  0  0  0  0
   15.6150   93.5960    4.9050 N   0  3  0  0  0  0
   12.3570   97.9130    8.7830 N   0  0  0  0  0  0
   12.7460   97.7450   10.1690 C   0  0  2  0  0  0
   13.3080   96.3390   10.3550 C   0  0  0  0  0  0
   12.7360   95.3660    9.8620 O   0  0  0  0  0  0
   11.5530   97.9860   11.0920 C   0  0  0  0  0  0
   11.8920   98.7400   12.3760 C   0  0  0  0  0  0
   12.0460  100.2430   12.1650 C   0  0  0  0  0  0
   12.0050  100.7310   11.0350 O   0  0  0  0  0  0
   12.2120  100.9850   13.2620 N   0  0  0  0  0  0
   14.4170   96.2420   11.0850 N   0  0  0  0  0  0
   15.1770   94.9970   11.2230 C   0  0  2  0  0  0
   14.5420   93.9870   12.1680 C   0  0  0  0  0  0
   13.7860   94.3550   13.0690 O   0  0  0  0  0  0
   16.5880   95.2890   11.7350 C   0  0  2  0  0  0
   16.4870   96.0650   12.9350 O   0  0  0  0  0  0
   17.3790   96.0840   10.7020 C   0  0  0  0  0  0
   14.8840   92.7150   11.9820 N   0  0  0  0  0  0
   14.3930   91.6530   12.8630 C   0  0  2  0  0  0
   15.3340   91.4570   14.0470 C   0  0  0  0  0  0
   16.5170   91.1880   13.8480 O   0  0  0  0  0  0
   14.2290   90.3490   12.0940 C   0  0  0  0  0  0
   14.8120   91.5850   15.2700 N   0  0  0  0  0  0
   15.6540   91.5080   16.4700 C   0  0  2  0  0  0
   16.3350   90.1540   16.4890 C   0  0  0  0  0  0
   15.8110   89.1830   15.9300 O   0  0  0  0  0  0
   14.8610   91.7060   17.7690 C   0  0  0  0  0  0
   13.9750   90.5320   18.1600 C   0  0  0  0  0  0
   13.3760   90.7300   19.5440 C   0  0  0  0  0  0
   12.3700   91.7870   19.5730 N   0  0  0  0  0  0
   11.7450   92.1960   20.6730 C   0  0  0  0  0  0
   12.0280   91.6420   21.8460 N   0  0  0  0  0  0
   10.8370   93.1630   20.6020 N   0  0  0  0  0  0
   17.5020   90.0930   17.1240 N   0  0  0  0  0  0
   18.3970   88.9560   16.9480 C   0  0  2  0  0  0
   18.4640   88.0380   18.1710 C   0  0  0  0  0  0
   18.3040   88.4820   19.3110 O   0  0  0  0  0  0
   19.7930   89.4820   16.5980 C   0  0  0  0  0  0
   19.7540   90.8220   15.8550 C   0  0  0  0  0  0
   21.0990   91.5480   15.8320 C   0  0  0  0  0  0
   22.1050   90.9100   14.8840 C   0  0  0  0  0  0
   23.2870   91.8030   14.6310 N   0  3  0  0  0  0
   18.7360   86.7610   17.9130 N   0  0  0  0  0  0
   18.8300   85.7380   18.9540 C   0  0  2  0  0  0
   19.9410   86.0290   19.9670 C   0  0  0  0  0  0
   19.7180   86.6760   20.9900 O   0  0  0  0  0  0
   19.0600   84.3670   18.3120 C   0  0  0  0  0  0
   18.1210   84.1090   17.2750 O   0  0  0  0  0  0
   21.1048   85.5981   19.7492 O   0  0  0  0  0  0
   15.8031  106.7085    0.7671 H   0  0  0  0  0  0
   16.6890  106.6712   -0.7952 H   0  0  0  0  0  0
   16.6664  105.2172    0.2594 H   0  0  0  0  0  0
   14.3573  106.5221   -1.0952 H   0  0  0  0  0  0
   15.8763  105.2984   -2.6614 H   0  0  0  0  0  0
   14.3126  104.4314   -2.4884 H   0  0  0  0  0  0
   15.7704  103.8353   -1.6246 H   0  0  0  0  0  0
   14.2556  103.1686   -1.0017 H   0  0  0  0  0  0
   12.0171  103.3365    0.8874 H   0  0  0  0  0  0
   13.5134  100.9617   -0.3624 H   0  0  0  0  0  0
   12.0243  100.7710    0.6239 H   0  0  0  0  0  0
   10.7938  102.1828   -0.9802 H   0  0  0  0  0  0
   12.2826  102.3380   -1.9733 H   0  0  0  0  0  0
   10.6707  100.5518   -2.7538 H   0  0  0  0  0  0
   12.3294   99.9601   -2.4002 H   0  0  0  0  0  0
   10.4009   99.7567   -0.0789 H   0  0  0  0  0  0
   11.8663   98.2580   -3.0552 H   0  0  0  0  0  0
   11.4545   96.4988   -2.4504 H   0  0  0  0  0  0
    9.9063   97.7056    0.6235 H   0  0  0  0  0  0
   11.5982  102.0078    2.7313 H   0  0  0  0  0  0
   14.1228  101.7275    4.3818 H   0  0  0  0  0  0
   11.7895  103.6334    4.8779 H   0  0  0  0  0  0
   14.0082  104.5059    4.1331 H   0  0  0  0  0  0
   11.6879  102.0200    6.8245 H   0  0  0  0  0  0
   12.1973  103.6720    7.3124 H   0  0  0  0  0  0
   13.4191  102.3644    7.1579 H   0  0  0  0  0  0
   14.1691  100.0203    5.8047 H   0  0  0  0  0  0
   11.3772   99.1000    6.5510 H   0  0  0  0  0  0
   11.9516   96.7428    6.3151 H   0  0  0  0  0  0
   12.4996   97.5568    4.8105 H   0  0  0  0  0  0
   14.7850   97.5462    5.6168 H   0  0  0  0  0  0
   14.2539   96.7816    7.1530 H   0  0  0  0  0  0
   13.4607   94.8143    5.9482 H   0  0  0  0  0  0
   13.8418   95.5873    4.3721 H   0  0  0  0  0  0
   16.2262   95.6219    4.9451 H   0  0  0  0  0  0
   15.8647   94.9028    6.5510 H   0  0  0  0  0  0
   16.6469   93.2205    4.9692 H   0  0  0  0  0  0
   15.3056   93.6397    3.8503 H   0  0  0  0  0  0
   14.9441   92.9207    5.4562 H   0  0  0  0  0  0
   11.5614   97.2854    8.3551 H   0  0  0  0  0  0
   13.5182   98.4998   10.3787 H   0  0  0  0  0  0
   10.7935   98.5796   10.5621 H   0  0  0  0  0  0
   11.1202   97.0201   11.3916 H   0  0  0  0  0  0
   11.0900   98.5877   13.1133 H   0  0  0  0  0  0
   12.8412   98.3620   12.7835 H   0  0  0  0  0  0
   12.2424  100.5050   14.2513 H   0  0  0  0  0  0
   12.3184  102.0765   13.1768 H   0  0  0  0  0  0
   14.7569   97.1537   11.5981 H   0  0  0  0  0  0
   15.1646   94.5889   10.2016 H   0  0  0  0  0  0
   17.1139   94.3562   11.9866 H   0  0  0  0  0  0
   15.9491   95.6631   13.8063 H   0  0  0  0  0  0
   17.4637   95.4982    9.7748 H   0  0  0  0  0  0
   18.3844   96.2968   11.0944 H   0  0  0  0  0  0
   16.8596   97.0305   10.4916 H   0  0  0  0  0  0
   15.5517   92.4690   11.1432 H   0  0  0  0  0  0
   13.4108   91.9923   13.2239 H   0  0  0  0  0  0
   13.5483   90.5074   11.2445 H   0  0  0  0  0  0
   13.8108   89.5804   12.7606 H   0  0  0  0  0  0
   15.2094   90.0173   11.7214 H   0  0  0  0  0  0
   13.7290   91.7510   15.3677 H   0  0  0  0  0  0
   16.3802   92.3293   16.3802 H   0  0  0  0  0  0
   15.5590   91.8686   18.6035 H   0  0  0  0  0  0
   14.2019   92.5807   17.6666 H   0  0  0  0  0  0
   13.1545   90.4341   17.4339 H   0  0  0  0  0  0
   14.5719   89.6080   18.1655 H   0  0  0  0  0  0
   12.8954   89.7967   19.8724 H   0  0  0  0  0  0
   14.1722   91.0015   20.2528 H   0  0  0  0  0  0
   12.0853   92.3009   18.6431 H   0  0  0  0  0  0
   12.7793   90.8410   21.9090 H   0  0  0  0  0  0
   10.5997   93.6245   19.6321 H   0  0  0  0  0  0
   10.3224   93.5022   21.5131 H   0  0  0  0  0  0
   17.7876   90.9196   17.7912 H   0  0  0  0  0  0
   17.9528   88.3733   16.1276 H   0  0  0  0  0  0
   20.3724   89.6269   17.5217 H   0  0  0  0  0  0
   20.3076   88.7549   15.9526 H   0  0  0  0  0  0
   19.4538   90.6534   14.8103 H   0  0  0  0  0  0
   19.0283   91.4902   16.3417 H   0  0  0  0  0  0
   20.9486   92.5883   15.5078 H   0  0  0  0  0  0
   21.5383   91.5381   16.8404 H   0  0  0  0  0  0
   22.4730   89.9690   15.3190 H   0  0  0  0  0  0
   21.6192   90.7026   13.9191 H   0  0  0  0  0  0
   23.9843   91.3022   13.9432 H   0  0  0  0  0  0
   23.7978   92.0134   15.5822 H   0  0  0  0  0  0
   22.9440   92.7470   14.1824 H   0  0  0  0  0  0
   18.8932   86.4890   16.8588 H   0  0  0  0  0  0
   17.8618   85.7823   19.4742 H   0  0  0  0  0  0
   20.0714   84.3289   17.8813 H   0  0  0  0  0  0
   18.9571   83.5824   19.0761 H   0  0  0  0  0  0
   18.1614   83.1602   16.7200 H   0  0  0  0  0  0
   21.9104   85.8013   20.4701 H   0  0  0  0  0  0
  1  2  1  0  0  0
  1 81  1  0  0  0
  1 82  1  0  0  0
  1 83  1  0  0  0
  2  3  1  0  0  0
  2  5  1  0  0  0
  2 84  1  0  0  0
  3  4  2  0  0  0
  3  6  1  0  0  0
  5 85  1  0  0  0
  5 86  1  0  0  0
  5 87  1  0  0  0
  6  7  1  0  0  0
  6 88  1  0  0  0
  7  8  1  0  0  0
  7 10  1  0  0  0
  7 89  1  0  0  0
  8  9  2  0  0  0
  8 17  1  0  0  0
 10 11  1  0  0  0
 10 90  1  0  0  0
 10 91  1  0  0  0
 11 12  1  0  0  0
 11 92  1  0  0  0
 11 93  1  0  0  0
 12 13  1  0  0  0
 12 94  1  0  0  0
 12 95  1  0  0  0
 13 14  1  0  0  0
 13 96  1  0  0  0
 14 15  1  0  0  0
 14 16  2  0  0  0
 15 97  1  0  0  0
 15 98  1  0  0  0
 16 99  1  0  0  0
 17 18  1  0  0  0
 17100  1  0  0  0
 18 19  1  0  0  0
 18 21  1  0  0  0
 18101  1  0  0  0
 19 20  2  0  0  0
 19 24  1  0  0  0
 21 22  1  0  0  0
 21 23  1  0  0  0
 21102  1  0  0  0
 22103  1  0  0  0
 23104  1  0  0  0
 23105  1  0  0  0
 23106  1  0  0  0
 24 25  1  0  0  0
 24107  1  0  0  0
 25 26  1  0  0  0
 25 28  1  0  0  0
 25108  1  0  0  0
 26 27  2  0  0  0
 26 33  1  0  0  0
 28 29  1  0  0  0
 28109  1  0  0  0
 28110  1  0  0  0
 29 30  1  0  0  0
 29111  1  0  0  0
 29112  1  0  0  0
 30 31  1  0  0  0
 30113  1  0  0  0
 30114  1  0  0  0
 31 32  1  0  0  0
 31115  1  0  0  0
 31116  1  0  0  0
 32117  1  0  0  0
 32118  1  0  0  0
 32119  1  0  0  0
 33 34  1  0  0  0
 33120  1  0  0  0
 34 35  1  0  0  0
 34 37  1  0  0  0
 34121  1  0  0  0
 35 36  2  0  0  0
 35 42  1  0  0  0
 37 38  1  0  0  0
 37122  1  0  0  0
 37123  1  0  0  0
 38 39  1  0  0  0
 38124  1  0  0  0
 38125  1  0  0  0
 39 40  2  0  0  0
 39 41  1  0  0  0
 41126  1  0  0  0
 41127  1  0  0  0
 42 43  1  0  0  0
 42128  1  0  0  0
 43 44  1  0  0  0
 43 46  1  0  0  0
 43129  1  0  0  0
 44 45  2  0  0  0
 44 49  1  0  0  0
 46 47  1  0  0  0
 46 48  1  0  0  0
 46130  1  0  0  0
 47131  1  0  0  0
 48132  1  0  0  0
 48133  1  0  0  0
 48134  1  0  0  0
 49 50  1  0  0  0
 49135  1  0  0  0
 50 51  1  0  0  0
 50 53  1  0  0  0
 50136  1  0  0  0
 51 52  2  0  0  0
 51 54  1  0  0  0
 53137  1  0  0  0
 53138  1  0  0  0
 53139  1  0  0  0
 54 55  1  0  0  0
 54140  1  0  0  0
 55 56  1  0  0  0
 55 58  1  0  0  0
 55141  1  0  0  0
 56 57  2  0  0  0
 56 65  1  0  0  0
 58 59  1  0  0  0
 58142  1  0  0  0
 58143  1  0  0  0
 59 60  1  0  0  0
 59144  1  0  0  0
 59145  1  0  0  0
 60 61  1  0  0  0
 60146  1  0  0  0
 60147  1  0  0  0
 61 62  1  0  0  0
 61148  1  0  0  0
 62 63  2  0  0  0
 62 64  1  0  0  0
 63149  1  0  0  0
 64150  1  0  0  0
 64151  1  0  0  0
 65 66  1  0  0  0
 65152  1  0  0  0
 66 67  1  0  0  0
 66 69  1  0  0  0
 66153  1  0  0  0
 67 68  2  0  0  0
 67 74  1  0  0  0
 69 70  1  0  0  0
 69154  1  0  0  0
 69155  1  0  0  0
 70 71  1  0  0  0
 70156  1  0  0  0
 70157  1  0  0  0
 71 72  1  0  0  0
 71158  1  0  0  0
 71159  1  0  0  0
 72 73  1  0  0  0
 72160  1  0  0  0
 72161  1  0  0  0
 73162  1  0  0  0
 73163  1  0  0  0
 73164  1  0  0  0
 74 75  1  0  0  0
 74165  1  0  0  0
 75 76  1  0  0  0
 75 78  1  0  0  0
 75166  1  0  0  0
 76 77  2  0  0  0
 76 80  1  0  0  0
 78 79  1  0  0  0
 78167  1  0  0  0
 78168  1  0  0  0
 79169  1  0  0  0
 80170  1  0  0  0
M  CHG  3   1   1  32   1  73   1
M  END
> <s_m_source_file>
../4u7t_ligand.sdf

> <i_m_source_file_index>
1

> <s_epik_input>
W0hdL049QyhbTkgyXSlcW05IXVtDSDJdW0NIMl1bQ0gyXVtDQEhdKFtOSF1DKD1PKVtDQEBIXShbTkgzK10pW0NIM10pQyg9TylbTkhdW0NAQEhdKFtDQEhdKFtPSF0pW0NIM10pQyg9TylbTkhdW0NAQEhdKFtDSDJdW0NIMl1bQ0gyXVtDSDJdW05IMytdKUMoPU8pW05IXVtDQEBIXShbQ0gyXVtDSDJdQyg9TylbTkgyXSlDKD1PKVtOSF1bQ0BASF0oW0NASF0oW09IXSlbQ0gzXSlDKD1PKVtOSF1bQ0BASF0oW0NIM10pQyg9TylbTkhdW0NAQEhdKFtDSDJdW0NIMl1bQ0gyXVtOSF0vQyg9TlxbSF0pW05IMl0pQyg9TylbTkhdW0NASF0oQyg9TylbTkhdW0NASF0oQyg9TylbT0hdKVtDSDJdW09IXSlbQ0gyXVtDSDJdW0NIMl1bQ0gyXVtOSDMrXQ==

> <s_epik_cmdline>
J2VwaWtfYXBwJywgJy1pbWFlJywgJ2xpZ2FuZF9wcm8ubWFlJywgJy1vbWFlJywgJ2xpZ2FuZF9wcmVwLm1hZScsICctbXMnLCAnMScsICctcGgnLCAnNycsICctcGh0JywgJzAuNScsICctbnQn

> <s_epik_pKa_notes>
Molecule size exceeds maximum supported for generating protonation states

> <s_epik_Chemistry_Notes>
This compound has an imine and may undergo hydrolysis.

$$$$
