4u7v_ligand
                    3D
 Schrodinger Suite 2020-3.
 74 76  0  0  1  0            999 V2000
    9.4130   15.9410    4.3890 C   0  0  0  0  0  0
    8.8940   15.6080    5.5640 C   0  0  0  0  0  0
   10.1710   13.8340    4.5600 C   0  0  0  0  0  0
    8.0100   16.5270    6.4510 C   0  0  0  0  0  0
    8.8220   16.6610    8.5070 C   0  0  0  0  0  0
    9.7330   16.7940   10.8790 C   0  0  2  0  0  0
    9.3430   17.9940   11.7980 C   0  0  2  0  0  0
    7.9640   18.5020   11.4980 C   0  0  0  0  0  0
    6.8790   17.5940   11.9990 C   0  0  2  0  0  0
   10.1090   14.9420    3.8330 N   0  0  0  0  0  0
    7.3320   16.0990   13.8890 C   0  0  0  0  0  0
    7.4770   16.0240   15.4520 C   0  0  1  0  0  0
    4.1610   16.5720   11.1820 C   0  0  0  0  0  0
    3.1330   15.7170   11.5240 C   0  0  0  0  0  0
    2.4890   15.8370   12.7780 C   0  0  0  0  0  0
    2.8660   16.8200   13.6660 C   0  0  0  0  0  0
    3.8930   17.6380   13.3180 C   0  0  0  0  0  0
    4.5240   17.5120   12.1010 C   0  0  0  0  0  0
    5.5620   18.3580   11.8290 C   0  0  0  0  0  0
    7.0690   17.3420   13.4120 N   0  0  0  0  0  0
    7.5380   15.1090   13.1480 O   0  0  0  0  0  0
    7.0610   14.6760   15.9470 N   0  3  0  0  0  0
    8.9380   16.3920   15.8780 C   0  0  0  0  0  0
    9.9580   15.3710   15.3210 C   0  0  0  0  0  0
    9.0500   16.5310   17.3990 C   0  0  0  0  0  0
   10.2460   19.1150   11.5400 O   0  0  0  0  0  0
   11.2170   16.3990   11.1950 C   0  0  0  0  0  0
   11.5170   15.2210   10.4780 C   0  0  0  0  0  0
   12.0090   15.2530    9.1760 C   0  0  0  0  0  0
   12.2870   14.0430    8.5230 C   0  0  0  0  0  0
   12.0840   12.8080    9.1610 C   0  0  0  0  0  0
   11.5780   12.8090   10.4510 C   0  0  0  0  0  0
   11.3200   13.9910   11.1030 C   0  0  0  0  0  0
    9.5480   17.2590    9.4790 N   0  0  0  0  0  0
    8.1490   15.6400    8.6850 O   0  0  0  0  0  0
    8.8270   17.2800    7.2860 O   0  0  0  0  0  0
    9.2740   14.1170    5.9360 S   0  0  0  0  0  0
    9.2865   16.9203    3.9274 H   0  0  0  0  0  0
   10.7043   12.9177    4.3069 H   0  0  0  0  0  0
    7.4195   17.1978    5.8096 H   0  0  0  0  0  0
    7.3319   15.9089    7.0577 H   0  0  0  0  0  0
    9.0963   15.9045   10.9946 H   0  0  0  0  0  0
    9.4044   17.6877   12.8527 H   0  0  0  0  0  0
    7.8231   19.4834   11.9745 H   0  0  0  0  0  0
    7.8386   18.6014   10.4097 H   0  0  0  0  0  0
    6.9078   16.6194   11.4897 H   0  0  0  0  0  0
    6.7841   16.7208   15.9463 H   0  0  0  0  0  0
    4.6623   16.4990   10.2169 H   0  0  0  0  0  0
    2.8153   14.9445   10.8237 H   0  0  0  0  0  0
    1.6885   15.1464   13.0433 H   0  0  0  0  0  0
    2.3545   16.9382   14.6213 H   0  0  0  0  0  0
    4.2235   18.4081   14.0150 H   0  0  0  0  0  0
    5.5402   19.2103   12.5241 H   0  0  0  0  0  0
    5.4822   18.7257   10.7954 H   0  0  0  0  0  0
    7.0015   18.1705   14.1324 H   0  0  0  0  0  0
    6.0312   14.4676   15.6214 H   0  0  0  0  0  0
    7.1089   14.6581   17.0458 H   0  0  0  0  0  0
    7.7369   13.9106   15.5379 H   0  0  0  0  0  0
    9.1965   17.3741   15.4553 H   0  0  0  0  0  0
    9.8464   15.2997   14.2290 H   0  0  0  0  0  0
    9.7745   14.3853   15.7735 H   0  0  0  0  0  0
   10.9784   15.7020   15.5645 H   0  0  0  0  0  0
    8.3108   17.2634   17.7557 H   0  0  0  0  0  0
   10.0617   16.8731   17.6624 H   0  0  0  0  0  0
    8.8579   15.5564   17.8714 H   0  0  0  0  0  0
   11.3292   18.9942   11.6887 H   0  0  0  0  0  0
   11.8874   17.2139   10.8843 H   0  0  0  0  0  0
   11.3279   16.2247   12.2754 H   0  0  0  0  0  0
   12.1758   16.2046    8.6713 H   0  0  0  0  0  0
   12.6675   14.0614    7.5017 H   0  0  0  0  0  0
   12.3187   11.8721    8.6539 H   0  0  0  0  0  0
   11.3825   11.8620   10.9541 H   0  0  0  0  0  0
   10.9540   13.9660   12.1294 H   0  0  0  0  0  0
   10.0318   18.1866    9.1391 H   0  0  0  0  0  0
  1  2  2  0  0  0
  1 10  1  0  0  0
  1 38  1  0  0  0
  2  4  1  0  0  0
  2 37  1  0  0  0
  3 10  2  0  0  0
  3 37  1  0  0  0
  3 39  1  0  0  0
  4 36  1  0  0  0
  4 40  1  0  0  0
  4 41  1  0  0  0
  5 34  1  0  0  0
  5 35  2  0  0  0
  5 36  1  0  0  0
  6  7  1  0  0  0
  6 27  1  0  0  0
  6 34  1  0  0  0
  6 42  1  0  0  0
  7  8  1  0  0  0
  7 26  1  0  0  0
  7 43  1  0  0  0
  8  9  1  0  0  0
  8 44  1  0  0  0
  8 45  1  0  0  0
  9 19  1  0  0  0
  9 20  1  0  0  0
  9 46  1  0  0  0
 11 12  1  0  0  0
 11 20  1  0  0  0
 11 21  2  0  0  0
 12 22  1  0  0  0
 12 23  1  0  0  0
 12 47  1  0  0  0
 13 14  2  0  0  0
 13 18  1  0  0  0
 13 48  1  0  0  0
 14 15  1  0  0  0
 14 49  1  0  0  0
 15 16  2  0  0  0
 15 50  1  0  0  0
 16 17  1  0  0  0
 16 51  1  0  0  0
 17 18  2  0  0  0
 17 52  1  0  0  0
 18 19  1  0  0  0
 19 53  1  0  0  0
 19 54  1  0  0  0
 20 55  1  0  0  0
 22 56  1  0  0  0
 22 57  1  0  0  0
 22 58  1  0  0  0
 23 24  1  0  0  0
 23 25  1  0  0  0
 23 59  1  0  0  0
 24 60  1  0  0  0
 24 61  1  0  0  0
 24 62  1  0  0  0
 25 63  1  0  0  0
 25 64  1  0  0  0
 25 65  1  0  0  0
 26 66  1  0  0  0
 27 28  1  0  0  0
 27 67  1  0  0  0
 27 68  1  0  0  0
 28 29  2  0  0  0
 28 33  1  0  0  0
 29 30  1  0  0  0
 29 69  1  0  0  0
 30 31  2  0  0  0
 30 70  1  0  0  0
 31 32  1  0  0  0
 31 71  1  0  0  0
 32 33  2  0  0  0
 32 72  1  0  0  0
 33 73  1  0  0  0
 34 74  1  0  0  0
M  CHG  1  22   1
M  END
> <s_m_source_file>
../4u7v_ligand.sdf

> <i_m_source_file_index>
1

> <s_epik_input>
czFbY0hdbltjSF1jMVtDSDJdT0MoPU8pW05IXVtDQEBIXShbQ0gyXWMyW2NIXVtjSF1bY0hdW2NIXVtjSF0yKVtDQEBIXShbT0hdKVtDSDJdW0NAQEhdKFtOSF1DKD1PKVtDQEBIXShbTkgzK10pW0NIXShbQ0gzXSlbQ0gzXSlbQ0gyXWMzW2NIXVtjSF1bY0hdW2NIXVtjSF0z

> <s_epik_cmdline>
J2VwaWtfYXBwJywgJy1pbWFlJywgJ2xpZ2FuZF9wcm8ubWFlJywgJy1vbWFlJywgJ2xpZ2FuZF9wcmVwLm1hZScsICctbXMnLCAnMScsICctcGgnLCAnNycsICctcGh0JywgJzAuNScsICctbnQn

> <r_epik_Ionization_Penalty>
  0.0750

> <r_epik_Ionization_Penalty_Charging>
  0.0750

> <r_epik_Ionization_Penalty_Neutral>
  0.0000

> <r_epik_State_Penalty>
  0.0661

> <r_epik_Charging_Adjusted_Penalty>
0.141100033667518

> <i_epik_Tot_Q>
1

> <i_epik_Tot_abs_Q>
1

> <s_epik_Chemistry_Notes>
This compound has an ester and may undergo hydrolysis at high or low pH.

$$$$
