4u82_ligand
                    3D
 Schrodinger Suite 2020-3.
 53 52  0  0  1  0            999 V2000
   21.4110    2.1480    9.8650 C   0  0  0  0  0  0
   20.5410    0.6130   10.3620 S   0  0  0  0  0  0
   22.5290    1.5180    9.2330 C   0  0  0  0  0  0
   23.8620    2.0430    9.4880 C   0  0  0  0  0  0
   24.1370    3.3300   10.3870 C   0  0  0  0  0  0
   24.8470    1.2280    8.7000 C   0  0  0  0  0  0
   25.8200    0.6460    9.6460 C   0  0  0  0  0  0
   26.9950    0.4100    8.6600 C   0  0  0  0  0  0
   27.2030   -1.0330    8.2380 C   0  0  2  0  0  0
   28.2400   -1.3810    7.2640 C   0  0  0  0  0  0
   26.2580   -2.1290    8.7160 C   0  0  0  0  0  0
   29.5850   -0.7460    7.5690 C   0  0  0  0  0  0
   30.5240   -1.5750    6.7490 C   0  0  0  0  0  0
   31.1780   -0.8560    5.6010 C   0  0  0  0  0  0
   32.0830   -1.6170    4.6720 C   0  0  0  0  0  0
   30.7320    0.5180    5.1960 C   0  0  0  0  0  0
   19.8450    1.3210   12.1160 P   0  0  2  0  0  0
   19.3010    2.7930   12.0430 O   0  5  0  0  0  0
   20.9260    1.1940   13.1870 O   0  0  0  0  0  0
   18.6160    0.3630   12.4320 O   0  0  0  0  0  0
   17.1940    0.5850   13.0850 P   0  0  0  0  0  0
   17.5020    0.8490   14.5860 O   0  5  0  0  0  0
   16.6100    1.9450   12.4720 O   0  5  0  0  0  0
   16.3420   -0.5680   12.7590 O   0  0  0  0  0  0
   20.7641    2.7365    9.1978 H   0  0  0  0  0  0
   21.6498    2.7405   10.7605 H   0  0  0  0  0  0
   22.3967    0.6536    8.5657 H   0  0  0  0  0  0
   23.1906    3.6806   10.8246 H   0  0  0  0  0  0
   24.5703    4.1265    9.7642 H   0  0  0  0  0  0
   24.8398    3.0711   11.1926 H   0  0  0  0  0  0
   24.3151    0.4287    8.1631 H   0  0  0  0  0  0
   25.3628    1.8758    7.9759 H   0  0  0  0  0  0
   26.0329    1.3711   10.4453 H   0  0  0  0  0  0
   25.4008   -0.2713   10.0852 H   0  0  0  0  0  0
   26.8210    0.9843    7.7381 H   0  0  0  0  0  0
   27.9358    0.7394    9.1252 H   0  0  0  0  0  0
   28.1303   -1.0250    8.8296 H   0  0  0  0  0  0
   28.3824   -2.4717    7.2540 H   0  0  0  0  0  0
   27.9321   -1.0423    6.2638 H   0  0  0  0  0  0
   25.5441   -1.7079    9.4392 H   0  0  0  0  0  0
   26.8387   -2.9295    9.1977 H   0  0  0  0  0  0
   25.7092   -2.5406    7.8561 H   0  0  0  0  0  0
   29.5691    0.3108    7.2640 H   0  0  0  0  0  0
   29.7859   -0.8131    8.6484 H   0  0  0  0  0  0
   31.3374   -1.9484    7.3885 H   0  0  0  0  0  0
   29.9785   -2.4260    6.3152 H   0  0  0  0  0  0
   31.9187   -0.4533    6.3075 H   0  0  0  0  0  0
   32.3167   -2.5985    5.1102 H   0  0  0  0  0  0
   33.0144   -1.0512    4.5223 H   0  0  0  0  0  0
   31.5800   -1.7580    3.7040 H   0  0  0  0  0  0
   30.0801    0.9369    5.9768 H   0  0  0  0  0  0
   30.1772    0.4588    4.2480 H   0  0  0  0  0  0
   31.6116    1.1656    5.0663 H   0  0  0  0  0  0
  1  2  1  0  0  0
  1  3  1  0  0  0
  1 25  1  0  0  0
  1 26  1  0  0  0
  2 17  1  0  0  0
  3  4  2  0  0  0
  3 27  1  0  0  0
  4  5  1  0  0  0
  4  6  1  0  0  0
  5 28  1  0  0  0
  5 29  1  0  0  0
  5 30  1  0  0  0
  6  7  1  0  0  0
  6 31  1  0  0  0
  6 32  1  0  0  0
  7  8  1  0  0  0
  7 33  1  0  0  0
  7 34  1  0  0  0
  8  9  1  0  0  0
  8 35  1  0  0  0
  8 36  1  0  0  0
  9 10  1  0  0  0
  9 11  1  0  0  0
  9 37  1  0  0  0
 10 12  1  0  0  0
 10 38  1  0  0  0
 10 39  1  0  0  0
 11 40  1  0  0  0
 11 41  1  0  0  0
 11 42  1  0  0  0
 12 13  1  0  0  0
 12 43  1  0  0  0
 12 44  1  0  0  0
 13 14  1  0  0  0
 13 45  1  0  0  0
 13 46  1  0  0  0
 14 15  1  0  0  0
 14 16  1  0  0  0
 14 47  1  0  0  0
 15 48  1  0  0  0
 15 49  1  0  0  0
 15 50  1  0  0  0
 16 51  1  0  0  0
 16 52  1  0  0  0
 16 53  1  0  0  0
 17 18  1  0  0  0
 17 19  2  0  0  0
 17 20  1  0  0  0
 20 21  1  0  0  0
 21 22  1  0  0  0
 21 23  1  0  0  0
 21 24  2  0  0  0
M  CHG  3  18  -1  22  -1  23  -1
M  END
> <s_m_source_file>
../4u82_ligand.sdf

> <i_m_source_file_index>
1

> <s_epik_input>
W09IXVAoPU8pKFtPSF0pT1tQQF0oPU8pKFtPSF0pU1tDSDJdL1tDSF09QyhcW0NIM10pW0NIMl1bQ0gyXVtDSDJdW0NAQEhdKFtDSDNdKVtDSDJdW0NIMl1bQ0gyXVtDSF0oW0NIM10pW0NIM10=

> <s_epik_cmdline>
J2VwaWtfYXBwJywgJy1pbWFlJywgJ2xpZ2FuZF9wcm8ubWFlJywgJy1vbWFlJywgJ2xpZ2FuZF9wcmVwLm1hZScsICctbXMnLCAnMScsICctcGgnLCAnNycsICctcGh0JywgJzAuNScsICctbnQn

> <r_epik_Ionization_Penalty>
  0.0928

> <r_epik_Ionization_Penalty_Charging>
  0.0928

> <r_epik_Ionization_Penalty_Neutral>
  0.0000

> <r_epik_State_Penalty>
  0.0831

> <r_epik_Charging_Adjusted_Penalty>
0.1759679418286

> <i_epik_Tot_Q>
-3

> <i_epik_Tot_abs_Q>
3

$$$$
