4u8w_ligand
                    3D
 Schrodinger Suite 2020-3.
 75 78  0  0  1  0            999 V2000
    8.1200   14.3640   14.0400 N   0  0  0  0  0  0
    8.6160   15.5270   14.4980 C   0  0  0  0  0  0
    9.9580   15.7910   14.2760 C   0  0  0  0  0  0
   10.4380   16.9770   14.7700 C   0  0  0  0  0  0
    9.7590   17.8810   15.5280 C   0  0  0  0  0  0
    8.4360   17.5950   15.8000 C   0  0  0  0  0  0
    7.8820   16.4070   15.2720 C   0  0  0  0  0  0
   10.6360   19.2810   16.1110 S   0  0  0  0  0  0
   11.7290   19.5890   15.1730 O   0  0  0  0  0  0
    9.6700   20.3680   16.3650 O   0  0  0  0  0  0
   11.3090   18.9140   17.5620 N   0  0  1  0  0  0
   10.3870   18.6230   18.6110 C   0  0  0  0  0  0
   10.6960   19.3110   19.9550 C   0  0  0  0  0  0
   10.5800   20.8280   19.7950 C   0  0  0  0  0  0
    9.7310   18.8150   21.0340 C   0  0  0  0  0  0
   12.5780   18.2440   17.5410 C   0  0  0  0  0  0
   13.7160   19.1140   18.0820 C   0  0  1  0  0  0
   14.8340   18.2810   18.4180 O   0  0  0  0  0  0
   14.1420   20.2460   17.1460 C   0  0  1  0  0  0
   15.0230   21.1710   17.8500 N   0  0  0  0  0  0
   14.7090   22.4150   18.2090 C   0  0  0  0  0  0
   13.6230   22.9950   18.0240 O   0  0  0  0  0  0
   15.7350   23.0140   18.8630 O   0  0  0  0  0  0
   15.5470   24.4120   19.1320 C   0  0  1  0  0  0
   16.1420   24.6350   20.5260 C   0  0  0  0  0  0
   17.5590   24.6860   20.3330 O   0  0  0  0  0  0
   17.8340   25.1790   19.0210 C   0  0  1  0  0  0
   18.6480   24.2230   18.3390 O   0  0  0  0  0  0
   18.0170   23.7510   17.1640 C   0  0  0  0  0  0
   16.8660   24.6830   16.9190 C   0  0  0  0  0  0
   16.5170   25.2510   18.2830 C   0  0  1  0  0  0
   14.8670   19.6860   15.9250 C   0  0  0  0  0  0
   16.6380   21.1150   14.8070 C   0  0  0  0  0  0
   17.0340   22.1650   13.9850 C   0  0  0  0  0  0
   16.0780   22.9240   13.3080 C   0  0  0  0  0  0
   14.7660   22.5390   13.4270 C   0  0  0  0  0  0
   14.3360   21.5190   14.2620 C   0  0  0  0  0  0
   15.2950   20.8020   14.9700 C   0  0  0  0  0  0
   15.8160   24.1230   16.3170 F   0  0  0  0  0  0
   17.3350   25.6280   16.1030 F   0  0  0  0  0  0
    8.7489   13.7010   13.4276 H   0  0  0  0  0  0
    7.0854   14.0757   14.2777 H   0  0  0  0  0  0
   10.5985   15.0928   13.7371 H   0  0  0  0  0  0
   11.4728   17.2216   14.5302 H   0  0  0  0  0  0
    7.8330   18.2697   16.4077 H   0  0  0  0  0  0
    6.8378   16.1758   15.4826 H   0  0  0  0  0  0
    9.3790   18.9479   18.3138 H   0  0  0  0  0  0
   10.3811   17.5401   18.8041 H   0  0  0  0  0  0
   11.7214   19.0654   20.2685 H   0  0  0  0  0  0
   11.2788   21.1691   19.0170 H   0  0  0  0  0  0
   10.8262   21.3172   20.7490 H   0  0  0  0  0  0
    9.5517   21.0884   19.5040 H   0  0  0  0  0  0
    9.8259   17.7240   21.1373 H   0  0  0  0  0  0
    8.6995   19.0679   20.7476 H   0  0  0  0  0  0
    9.9740   19.2966   21.9926 H   0  0  0  0  0  0
   12.5240   17.3370   18.1610 H   0  0  0  0  0  0
   12.8291   17.9666   16.5066 H   0  0  0  0  0  0
   13.3825   19.5831   19.0194 H   0  0  0  0  0  0
   14.6957   17.4179   19.0857 H   0  0  0  0  0  0
   13.2581   20.8206   16.8321 H   0  0  0  0  0  0
   16.0403   20.8580   18.1276 H   0  0  0  0  0  0
   14.4794   24.6166   18.9639 H   0  0  0  0  0  0
   15.7589   25.5787   20.9415 H   0  0  0  0  0  0
   15.8559   23.8016   21.1844 H   0  0  0  0  0  0
   18.3738   26.1345   19.0959 H   0  0  0  0  0  0
   18.7333   23.7719   16.3295 H   0  0  0  0  0  0
   17.6697   22.7195   17.3234 H   0  0  0  0  0  0
   16.0529   26.2372   18.1343 H   0  0  0  0  0  0
   15.7654   19.1409   16.2501 H   0  0  0  0  0  0
   14.1982   19.0006   15.3838 H   0  0  0  0  0  0
   17.3932   20.5292   15.3310 H   0  0  0  0  0  0
   18.0930   22.3955   13.8693 H   0  0  0  0  0  0
   16.3623   23.7886   12.7083 H   0  0  0  0  0  0
   14.0198   23.0649   12.8314 H   0  0  0  0  0  0
   13.2759   21.2855   14.3609 H   0  0  0  0  0  0
  1  2  1  0  0  0
  1 41  1  0  0  0
  1 42  1  0  0  0
  2  3  2  0  0  0
  2  7  1  0  0  0
  3  4  1  0  0  0
  3 43  1  0  0  0
  4  5  2  0  0  0
  4 44  1  0  0  0
  5  6  1  0  0  0
  5  8  1  0  0  0
  6  7  2  0  0  0
  6 45  1  0  0  0
  7 46  1  0  0  0
  8  9  2  0  0  0
  8 10  2  0  0  0
  8 11  1  0  0  0
 11 12  1  0  0  0
 11 16  1  0  0  0
 12 13  1  0  0  0
 12 47  1  0  0  0
 12 48  1  0  0  0
 13 14  1  0  0  0
 13 15  1  0  0  0
 13 49  1  0  0  0
 14 50  1  0  0  0
 14 51  1  0  0  0
 14 52  1  0  0  0
 15 53  1  0  0  0
 15 54  1  0  0  0
 15 55  1  0  0  0
 16 17  1  0  0  0
 16 56  1  0  0  0
 16 57  1  0  0  0
 17 18  1  0  0  0
 17 19  1  0  0  0
 17 58  1  0  0  0
 18 59  1  0  0  0
 19 20  1  0  0  0
 19 32  1  0  0  0
 19 60  1  0  0  0
 20 21  1  0  0  0
 20 61  1  0  0  0
 21 22  2  0  0  0
 21 23  1  0  0  0
 23 24  1  0  0  0
 24 25  1  0  0  0
 24 31  1  0  0  0
 24 62  1  0  0  0
 25 26  1  0  0  0
 25 63  1  0  0  0
 25 64  1  0  0  0
 26 27  1  0  0  0
 27 28  1  0  0  0
 27 31  1  0  0  0
 27 65  1  0  0  0
 28 29  1  0  0  0
 29 30  1  0  0  0
 29 66  1  0  0  0
 29 67  1  0  0  0
 30 31  1  0  0  0
 30 39  1  0  0  0
 30 40  1  0  0  0
 31 68  1  0  0  0
 32 38  1  0  0  0
 32 69  1  0  0  0
 32 70  1  0  0  0
 33 34  2  0  0  0
 33 38  1  0  0  0
 33 71  1  0  0  0
 34 35  1  0  0  0
 34 72  1  0  0  0
 35 36  2  0  0  0
 35 73  1  0  0  0
 36 37  1  0  0  0
 36 74  1  0  0  0
 37 38  2  0  0  0
 37 75  1  0  0  0
M  END
> <s_m_source_file>
../4u8w_ligand.sdf

> <i_m_source_file_index>
1

> <s_epik_input>
W05IMl1jMVtjSF1bY0hdYyhbY0hdW2NIXTEpUyg9TykoPU8pTihbQ0gyXVtDSF0oW0NIM10pW0NIM10pW0NIMl1bQ0BASF0oW09IXSlbQ0BASF0oW05IXUMoPU8pT1tDQEBIXShbQ0gyXU8yKVtDQEBIXShbQ0BASF0yMylDKEYpKEYpW0NIMl1PMylbQ0gyXWM0W2NIXVtjSF1bY0hdW2NIXVtjSF00

> <s_epik_cmdline>
J2VwaWtfYXBwJywgJy1pbWFlJywgJ2xpZ2FuZF9wcm8ubWFlJywgJy1vbWFlJywgJ2xpZ2FuZF9wcmVwLm1hZScsICctbXMnLCAnMScsICctcGgnLCAnNycsICctcGh0JywgJzAuNScsICctbnQn

> <r_lp_tautomer_probability>
1

> <r_epik_Ionization_Penalty>
  0.0000

> <r_epik_Ionization_Penalty_Charging>
  0.0000

> <r_epik_Ionization_Penalty_Neutral>
  0.0000

> <r_epik_State_Penalty>
 -0.0000

> <r_epik_Charging_Adjusted_Penalty>
0

> <i_epik_Tot_Q>
0

> <i_epik_Tot_abs_Q>
0

> <s_epik_Chemistry_Notes>
This compound has an ester and may undergo hydrolysis at high or low pH. This compound contains an acetal/aminal-like group ( X-CH(R)-Y where X, Y are N, S, or O) that may be acid/base labile, releasing an aldehyde.

$$$$
