4u90_ligand
                    3D
 Schrodinger Suite 2020-3.
154156  0  0  1  0            999 V2000
   15.8520  112.8490  112.1740 N   0  3  0  0  0  0
   15.3420  113.8870  111.2830 C   0  0  2  0  0  0
   15.9670  113.7110  109.9130 C   0  0  0  0  0  0
   17.1140  113.3510  109.7950 O   0  0  0  0  0  0
   15.7020  115.2840  111.7980 C   0  0  0  0  0  0
   15.2350  116.3910  110.8840 C   0  0  0  0  0  0
   13.9450  116.8920  110.9940 C   0  0  0  0  0  0
   16.0700  116.8870  109.8640 C   0  0  0  0  0  0
   13.4890  117.8860  110.1250 C   0  0  0  0  0  0
   15.6250  117.8800  109.0010 C   0  0  0  0  0  0
   14.3330  118.3780  109.1330 C   0  0  0  0  0  0
   15.1720  113.8860  108.8810 N   0  0  0  0  0  0
   15.7050  114.0990  107.5510 C   0  0  2  0  0  0
   14.7340  114.9620  106.7420 C   0  0  0  0  0  0
   13.5150  114.8120  106.8730 O   0  0  0  0  0  0
   15.9350  112.7600  106.8570 C   0  0  0  0  0  0
   17.0690  112.8030  105.8270 C   0  0  0  0  0  0
   17.9560  111.9230  105.8200 O   0  0  0  0  0  0
   17.0360  113.7940  104.9410 N   0  0  0  0  0  0
   15.2880  115.8000  105.8860 N   0  0  0  0  0  0
   14.5090  116.6760  105.0570 C   0  0  2  0  0  0
   14.0080  115.9750  103.7820 C   0  0  0  0  0  0
   13.0800  116.4370  103.1320 O   0  0  0  0  0  0
   15.3080  117.9210  104.6990 C   0  0  2  0  0  0
   14.3720  118.9620  104.0670 C   0  0  0  0  0  0
   16.4340  117.5820  103.7490 C   0  0  0  0  0  0
   13.2940  119.4570  105.0040 C   0  0  0  0  0  0
   14.6400  114.8700  103.4290 N   0  0  0  0  0  0
   14.1900  114.0390  102.3270 C   0  0  2  0  0  0
   13.2590  112.9430  102.8500 C   0  0  0  0  0  0
   13.5920  112.2730  103.7790 O   0  0  0  0  0  0
   15.3800  113.4240  101.6000 C   0  0  0  0  0  0
   14.9230  112.3550  100.6390 C   0  0  0  0  0  0
   16.1700  114.5000  100.8840 C   0  0  0  0  0  0
   12.0860  112.7820  102.2380 N   0  0  0  0  0  0
   11.1230  111.7600  102.6120 C   0  0  0  0  0  0
   11.6470  110.3210  102.5850 C   0  0  0  0  0  0
   12.4940  109.9800  101.7490 O   0  0  0  0  0  0
   11.1220  109.5130  103.5040 N   0  0  0  0  0  0
   11.4900  108.1150  103.6390 C   0  0  2  0  0  0
   10.3330  107.1370  103.3260 C   0  0  0  0  0  0
    9.1350  107.4950  103.2890 O   0  0  0  0  0  0
   11.8900  107.8130  105.0810 C   0  0  2  0  0  0
   10.7880  108.2010  105.9220 O   0  0  0  0  0  0
   13.1520  108.5730  105.4860 C   0  0  0  0  0  0
   10.6750  105.8630  103.1910 N   0  0  0  0  0  0
    9.6420  104.8390  103.2310 C   0  0  2  0  0  0
    9.5660  104.3460  104.6560 C   0  0  0  0  0  0
   10.4600  104.5660  105.4560 O   0  0  0  0  0  0
    9.9150  103.6590  102.2770 C   0  0  2  0  0  0
   11.2290  103.1830  102.4920 O   0  0  0  0  0  0
    9.7940  104.1100  100.8440 C   0  0  0  0  0  0
    8.4420  103.7610  105.0150 N   0  0  0  0  0  0
    8.2570  103.2900  106.3850 C   0  0  2  0  0  0
    8.7360  101.8370  106.5060 C   0  0  0  0  0  0
    8.3990  101.0670  105.6330 O   0  0  0  0  0  0
    6.7900  103.3790  106.6720 C   0  0  0  0  0  0
    6.3260  103.1730  108.1160 C   0  0  0  0  0  0
    6.8740  103.8870  109.1480 C   0  0  0  0  0  0
    5.3000  102.2600  108.4060 C   0  0  0  0  0  0
    6.4320  103.7120  110.4220 C   0  0  0  0  0  0
    4.8600  102.0640  109.6880 C   0  0  0  0  0  0
    5.4160  102.8280  110.6810 C   0  0  0  0  0  0
    4.9950  102.6500  111.9730 O   0  0  0  0  0  0
    9.5370  101.4980  107.5500 N   0  0  0  0  0  0
   10.0480  100.1300  107.8110 C   0  0  2  0  0  0
    9.0280   99.1850  108.4500 C   0  0  0  0  0  0
    9.3010   98.0230  108.5210 O   0  0  0  0  0  0
   11.1860  100.3460  108.8270 C   0  0  0  0  0  0
   11.4300  101.8060  108.8620 C   0  0  0  0  0  0
   10.1220  102.4540  108.4980 C   0  0  0  0  0  0
    7.8790   99.6810  108.9090 N   0  0  0  0  0  0
    7.0270   98.8920  109.7710 C   0  0  2  0  0  0
    5.6120   98.7170  109.2390 C   0  0  0  0  0  0
    4.7930   98.2530  110.0310 O   0  0  0  0  0  0
    6.9880   99.4750  111.1910 C   0  0  0  0  0  0
    8.6140   99.5450  111.9960 S   0  0  0  0  0  0
    5.2880   98.9720  108.0540 O   0  0  0  0  0  0
   15.5784  111.8596  111.7787 H   0  0  0  0  0  0
   15.4146  112.9777  113.1751 H   0  0  0  0  0  0
   16.9472  112.9277  112.2395 H   0  0  0  0  0  0
   14.2505  113.7534  111.2567 H   0  0  0  0  0  0
   15.2346  115.4442  112.7808 H   0  0  0  0  0  0
   16.7945  115.3694  111.8933 H   0  0  0  0  0  0
   13.2807  116.5055  111.7669 H   0  0  0  0  0  0
   17.0775  116.4867  109.7506 H   0  0  0  0  0  0
   12.4756  118.2752  110.2232 H   0  0  0  0  0  0
   16.2847  118.2670  108.2244 H   0  0  0  0  0  0
   13.9798  119.1567  108.4570 H   0  0  0  0  0  0
   14.0839  113.8686  109.0412 H   0  0  0  0  0  0
   16.6657  114.6186  107.6815 H   0  0  0  0  0  0
   16.1950  111.9983  107.6068 H   0  0  0  0  0  0
   15.0179  112.4578  106.3301 H   0  0  0  0  0  0
   16.2347  114.5463  104.9868 H   0  0  0  0  0  0
   17.8100  113.8615  104.1623 H   0  0  0  0  0  0
   16.3860  115.8127  105.8202 H   0  0  0  0  0  0
   13.6533  116.9398  105.6958 H   0  0  0  0  0  0
   15.7634  118.3270  105.6143 H   0  0  0  0  0  0
   14.9579  119.8373  103.7499 H   0  0  0  0  0  0
   13.8697  118.5210  103.1934 H   0  0  0  0  0  0
   17.0949  116.8364  104.2150 H   0  0  0  0  0  0
   17.0095  118.4918  103.5230 H   0  0  0  0  0  0
   16.0169  117.1712  102.8178 H   0  0  0  0  0  0
   12.6667  120.1957  104.4836 H   0  0  0  0  0  0
   13.7596  119.9259  105.8834 H   0  0  0  0  0  0
   12.6714  118.6096  105.3268 H   0  0  0  0  0  0
   15.5355  114.5866  104.0015 H   0  0  0  0  0  0
   13.6497  114.7096  101.6427 H   0  0  0  0  0  0
   16.0427  112.9431  102.3346 H   0  0  0  0  0  0
   14.3535  111.5893  101.1861 H   0  0  0  0  0  0
   15.7994  111.8903  100.1637 H   0  0  0  0  0  0
   14.2829  112.8059   99.8664 H   0  0  0  0  0  0
   16.4892  115.2638  101.6084 H   0  0  0  0  0  0
   15.5390  114.9666  100.1132 H   0  0  0  0  0  0
   17.0555  114.0509  100.4105 H   0  0  0  0  0  0
   11.8623  113.4722  101.4112 H   0  0  0  0  0  0
   10.7730  111.9441  103.6384 H   0  0  0  0  0  0
   10.2673  111.7922  101.9215 H   0  0  0  0  0  0
   10.3750  109.9530  104.1811 H   0  0  0  0  0  0
   12.3118  108.0288  102.9129 H   0  0  0  0  0  0
   12.0680  106.7373  105.2264 H   0  0  0  0  0  0
    9.7958  107.7508  105.7710 H   0  0  0  0  0  0
   13.9870  108.2691  104.8376 H   0  0  0  0  0  0
   13.3984  108.3430  106.5331 H   0  0  0  0  0  0
   12.9792  109.6541  105.3789 H   0  0  0  0  0  0
   11.7278  105.5770  103.0499 H   0  0  0  0  0  0
    8.7127  105.3293  102.9054 H   0  0  0  0  0  0
    9.2404  102.8120  102.4706 H   0  0  0  0  0  0
   11.5219  102.8053  103.4827 H   0  0  0  0  0  0
    8.7755  104.4834  100.6619 H   0  0  0  0  0  0
    9.9988  103.2619  100.1742 H   0  0  0  0  0  0
   10.5194  104.9139  100.6501 H   0  0  0  0  0  0
    7.6394  103.6282  104.2746 H   0  0  0  0  0  0
    8.8310  103.9284  107.0727 H   0  0  0  0  0  0
    6.4218  104.3774  106.3935 H   0  0  0  0  0  0
    6.2552  102.6151  106.0885 H   0  0  0  0  0  0
    7.6716  104.6020  108.9464 H   0  0  0  0  0  0
    4.8436  101.6948  107.5933 H   0  0  0  0  0  0
    6.8855  104.2747  111.2379 H   0  0  0  0  0  0
    4.0918  101.3237  109.9117 H   0  0  0  0  0  0
    5.4309  103.2549  112.7818 H   0  0  0  0  0  0
   10.3211   99.6860  106.8424 H   0  0  0  0  0  0
   10.8733   99.9716  109.8129 H   0  0  0  0  0  0
   12.0821   99.8011  108.4952 H   0  0  0  0  0  0
   11.7515  102.0999  109.8721 H   0  0  0  0  0  0
   12.2164  102.0638  108.1374 H   0  0  0  0  0  0
   10.2542  103.4272  108.0027 H   0  0  0  0  0  0
    9.4514  102.5705  109.3622 H   0  0  0  0  0  0
    7.5812  100.7014  108.6258 H   0  0  0  0  0  0
    7.5211   97.9095  109.7497 H   0  0  0  0  0  0
    6.5959  100.5021  111.1550 H   0  0  0  0  0  0
    6.3356   98.8555  111.8239 H   0  0  0  0  0  0
    8.7057   99.9451  113.0166 H   0  0  0  0  0  0
    4.2486   98.8264  107.7245 H   0  0  0  0  0  0
  1  2  1  0  0  0
  1 79  1  0  0  0
  1 80  1  0  0  0
  1 81  1  0  0  0
  2  3  1  0  0  0
  2  5  1  0  0  0
  2 82  1  0  0  0
  3  4  2  0  0  0
  3 12  1  0  0  0
  5  6  1  0  0  0
  5 83  1  0  0  0
  5 84  1  0  0  0
  6  7  2  0  0  0
  6  8  1  0  0  0
  7  9  1  0  0  0
  7 85  1  0  0  0
  8 10  2  0  0  0
  8 86  1  0  0  0
  9 11  2  0  0  0
  9 87  1  0  0  0
 10 11  1  0  0  0
 10 88  1  0  0  0
 11 89  1  0  0  0
 12 13  1  0  0  0
 12 90  1  0  0  0
 13 14  1  0  0  0
 13 16  1  0  0  0
 13 91  1  0  0  0
 14 15  2  0  0  0
 14 20  1  0  0  0
 16 17  1  0  0  0
 16 92  1  0  0  0
 16 93  1  0  0  0
 17 18  2  0  0  0
 17 19  1  0  0  0
 19 94  1  0  0  0
 19 95  1  0  0  0
 20 21  1  0  0  0
 20 96  1  0  0  0
 21 22  1  0  0  0
 21 24  1  0  0  0
 21 97  1  0  0  0
 22 23  2  0  0  0
 22 28  1  0  0  0
 24 25  1  0  0  0
 24 26  1  0  0  0
 24 98  1  0  0  0
 25 27  1  0  0  0
 25 99  1  0  0  0
 25100  1  0  0  0
 26101  1  0  0  0
 26102  1  0  0  0
 26103  1  0  0  0
 27104  1  0  0  0
 27105  1  0  0  0
 27106  1  0  0  0
 28 29  1  0  0  0
 28107  1  0  0  0
 29 30  1  0  0  0
 29 32  1  0  0  0
 29108  1  0  0  0
 30 31  2  0  0  0
 30 35  1  0  0  0
 32 33  1  0  0  0
 32 34  1  0  0  0
 32109  1  0  0  0
 33110  1  0  0  0
 33111  1  0  0  0
 33112  1  0  0  0
 34113  1  0  0  0
 34114  1  0  0  0
 34115  1  0  0  0
 35 36  1  0  0  0
 35116  1  0  0  0
 36 37  1  0  0  0
 36117  1  0  0  0
 36118  1  0  0  0
 37 38  2  0  0  0
 37 39  1  0  0  0
 39 40  1  0  0  0
 39119  1  0  0  0
 40 41  1  0  0  0
 40 43  1  0  0  0
 40120  1  0  0  0
 41 42  2  0  0  0
 41 46  1  0  0  0
 43 44  1  0  0  0
 43 45  1  0  0  0
 43121  1  0  0  0
 44122  1  0  0  0
 45123  1  0  0  0
 45124  1  0  0  0
 45125  1  0  0  0
 46 47  1  0  0  0
 46126  1  0  0  0
 47 48  1  0  0  0
 47 50  1  0  0  0
 47127  1  0  0  0
 48 49  2  0  0  0
 48 53  1  0  0  0
 50 51  1  0  0  0
 50 52  1  0  0  0
 50128  1  0  0  0
 51129  1  0  0  0
 52130  1  0  0  0
 52131  1  0  0  0
 52132  1  0  0  0
 53 54  1  0  0  0
 53133  1  0  0  0
 54 55  1  0  0  0
 54 57  1  0  0  0
 54134  1  0  0  0
 55 56  2  0  0  0
 55 65  1  0  0  0
 57 58  1  0  0  0
 57135  1  0  0  0
 57136  1  0  0  0
 58 59  2  0  0  0
 58 60  1  0  0  0
 59 61  1  0  0  0
 59137  1  0  0  0
 60 62  2  0  0  0
 60138  1  0  0  0
 61 63  2  0  0  0
 61139  1  0  0  0
 62 63  1  0  0  0
 62140  1  0  0  0
 63 64  1  0  0  0
 64141  1  0  0  0
 65 66  1  0  0  0
 65 71  1  0  0  0
 66 67  1  0  0  0
 66 69  1  0  0  0
 66142  1  0  0  0
 67 68  2  0  0  0
 67 72  1  0  0  0
 69 70  1  0  0  0
 69143  1  0  0  0
 69144  1  0  0  0
 70 71  1  0  0  0
 70145  1  0  0  0
 70146  1  0  0  0
 71147  1  0  0  0
 71148  1  0  0  0
 72 73  1  0  0  0
 72149  1  0  0  0
 73 74  1  0  0  0
 73 76  1  0  0  0
 73150  1  0  0  0
 74 75  2  0  0  0
 74 78  1  0  0  0
 76 77  1  0  0  0
 76151  1  0  0  0
 76152  1  0  0  0
 77153  1  0  0  0
 78154  1  0  0  0
M  CHG  1   1   1
M  END
> <s_m_source_file>
../4u90_ligand.sdf

> <i_m_source_file_index>
1

> <s_epik_input>
W2NIXTFbY0hdW2NIXVtjSF1bY0hdYzFbQ0gyXVtDQEhdKFtOSDMrXSlDKD1PKVtOSF1bQ0BASF0oW0NIMl1DKD1PKVtOSDJdKUMoPU8pW05IXVtDQEBIXShbQ0BASF0oW0NIM10pW0NIMl1bQ0gzXSlDKD1PKVtOSF1bQ0BASF0oW0NIXShbQ0gzXSlbQ0gzXSlDKD1PKVtOSF1bQ0gyXUMoPU8pW05IXVtDQEBIXShbQ0BIXShbT0hdKVtDSDNdKUMoPU8pW05IXVtDQEBIXShbQ0BIXShbT0hdKVtDSDNdKUMoPU8pW05IXVtDQEBIXShbQ0gyXWMyW2NIXVtjSF1jKFtPSF0pW2NIXVtjSF0yKUMoPU8pTjNbQ0BASF0oW0NIMl1bQ0gyXVtDSDJdMylDKD1PKVtOSF1bQ0BIXShDKD1PKVtPSF0pW0NIMl1bU0hd

> <s_epik_cmdline>
J2VwaWtfYXBwJywgJy1pbWFlJywgJ2xpZ2FuZF9wcm8ubWFlJywgJy1vbWFlJywgJ2xpZ2FuZF9wcmVwLm1hZScsICctbXMnLCAnMScsICctcGgnLCAnNycsICctcGh0JywgJzAuNScsICctbnQn

> <s_epik_pKa_notes>
Molecule size exceeds maximum supported for generating protonation states

$$$$
