4u91_ligand
                    3D
 Schrodinger Suite 2020-3.
168169  0  0  1  0            999 V2000
   25.8050   35.8890  221.7500 N   0  3  0  0  0  0
   26.7920   35.0160  221.1250 C   0  0  2  0  0  0
   26.5140   34.8620  219.6410 C   0  0  0  0  0  0
   25.3790   34.6390  219.2410 O   0  0  0  0  0  0
   26.7890   33.6360  221.7880 C   0  0  0  0  0  0
   27.6170   32.6160  221.0640 C   0  0  0  0  0  0
   28.9490   32.4400  221.3740 C   0  0  0  0  0  0
   27.0630   31.8380  220.0690 C   0  0  0  0  0  0
   29.7130   31.5090  220.7090 C   0  0  0  0  0  0
   27.8220   30.9050  219.3980 C   0  0  0  0  0  0
   29.1500   30.7410  219.7200 C   0  0  0  0  0  0
   27.5500   35.0000  218.8270 N   0  0  0  0  0  0
   27.4280   34.7150  217.4060 C   0  0  2  0  0  0
   28.5540   33.8310  216.8940 C   0  0  0  0  0  0
   29.7180   34.0430  217.2110 O   0  0  0  0  0  0
   27.3540   36.0000  216.5870 C   0  0  0  0  0  0
   27.2080   35.7070  215.2140 O   0  0  0  0  0  0
   28.1920   32.8460  216.0880 N   0  0  0  0  0  0
   29.1680   32.0160  215.4090 C   0  0  2  0  0  0
   29.8270   32.7740  214.2590 C   0  0  0  0  0  0
   30.8190   32.3260  213.7010 O   0  0  0  0  0  0
   28.5620   30.6940  214.9170 C   0  0  2  0  0  0
   29.6660   29.6670  214.6880 C   0  0  0  0  0  0
   27.7500   30.9090  213.6560 C   0  0  0  0  0  0
   30.6920   29.6310  215.7940 C   0  0  0  0  0  0
   29.2450   33.9120  213.8940 N   0  0  0  0  0  0
   29.7830   34.7490  212.8290 C   0  0  2  0  0  0
   30.6620   35.8550  213.3990 C   0  0  0  0  0  0
   30.2710   36.5540  214.3220 O   0  0  0  0  0  0
   28.6640   35.3910  211.9900 C   0  0  0  0  0  0
   29.2510   36.3410  210.9640 C   0  0  0  0  0  0
   27.8250   34.3220  211.3140 C   0  0  0  0  0  0
   31.8520   36.0120  212.8390 N   0  0  0  0  0  0
   32.8000   36.9730  213.3620 C   0  0  0  0  0  0
   32.2930   38.3990  213.2940 C   0  0  0  0  0  0
   31.6840   38.8090  212.3210 O   0  0  0  0  0  0
   32.5320   39.1460  214.3600 N   0  0  0  0  0  0
   32.1100   40.5340  214.4470 C   0  0  2  0  0  0
   33.0370   41.4860  213.7050 C   0  0  0  0  0  0
   34.2160   41.2070  213.5210 O   0  0  0  0  0  0
   31.9860   40.9600  215.9080 C   0  0  0  0  0  0
   33.2630   41.0920  216.4940 O   0  0  0  0  0  0
   32.4850   42.6130  213.2780 N   0  0  0  0  0  0
   33.2780   43.7140  212.7580 C   0  0  2  0  0  0
   34.0010   44.4060  213.9050 C   0  0  0  0  0  0
   33.5270   44.3660  215.0420 O   0  0  0  0  0  0
   32.3880   44.7080  212.0200 C   0  0  0  0  0  0
   31.9160   44.2490  210.6450 C   0  0  0  0  0  0
   30.5370   44.7990  210.3270 C   0  0  0  0  0  0
   32.9220   44.6470  209.5800 C   0  0  0  0  0  0
   35.2000   45.0620  213.5730 N   0  0  0  0  0  0
   35.8050   45.7710  214.7190 C   0  0  2  0  0  0
   34.8380   46.8170  215.2710 C   0  0  0  0  0  0
   34.1750   47.5200  214.5130 O   0  0  0  0  0  0
   37.0400   46.4410  214.1190 C   0  0  0  0  0  0
   37.4780   45.5030  213.0670 C   0  0  0  0  0  0
   36.1820   45.2160  212.3910 C   0  0  0  0  0  0
   34.7700   46.9080  216.5970 N   0  0  0  0  0  0
   33.6290   47.4910  217.2920 C   0  0  2  0  0  0
   33.3400   48.9610  216.9830 C   0  0  0  0  0  0
   32.1820   49.3430  216.8260 O   0  0  0  0  0  0
   33.7540   47.2590  218.8070 C   0  0  0  0  0  0
   34.3110   48.4240  219.6120 C   0  0  0  0  0  0
   33.6310   48.5160  220.9670 C   0  0  0  0  0  0
   34.5720   48.8130  222.0410 N   0  0  0  0  0  0
   35.7680   48.2480  222.1670 C   0  0  0  0  0  0
   36.5530   48.5830  223.1810 N   0  0  0  0  0  0
   36.1800   47.3500  221.2840 N   0  0  0  0  0  0
   34.3780   49.7820  216.8940 N   0  0  0  0  0  0
   34.1730   51.1800  216.5440 C   0  0  2  0  0  0
   35.2140   51.6700  215.5500 C   0  0  0  0  0  0
   36.4080   51.7080  215.8390 O   0  0  0  0  0  0
   34.1200   52.0700  217.7860 C   0  0  0  0  0  0
   32.7070   52.5160  218.1160 C   0  0  0  0  0  0
   31.7790   52.1530  217.3640 O   0  0  0  0  0  0
   32.5190   53.2250  219.1250 O   0  0  0  0  0  0
   34.7310   52.0340  214.3700 N   0  0  0  0  0  0
   35.5760   52.4460  213.2680 C   0  0  2  0  0  0
   34.7160   52.7760  212.0550 C   0  0  0  0  0  0
   33.6780   53.4270  212.1790 O   0  0  0  0  0  0
   36.5380   51.3120  212.9270 C   0  0  0  0  0  0
   38.2780   51.7650  213.0260 S   0  0  0  0  0  0
   35.0380   52.4080  210.9240 O   0  0  0  0  0  0
   25.8235   36.8735  221.2597 H   0  0  0  0  0  0
   26.0431   36.0065  222.8175 H   0  0  0  0  0  0
   24.8040   35.4455  221.6442 H   0  0  0  0  0  0
   27.7584   35.5198  221.2744 H   0  0  0  0  0  0
   27.1910   33.7187  222.8086 H   0  0  0  0  0  0
   25.7593   33.2514  221.8296 H   0  0  0  0  0  0
   29.4031   33.0472  222.1571 H   0  0  0  0  0  0
   26.0115   31.9631  219.8105 H   0  0  0  0  0  0
   30.7643   31.3812  220.9671 H   0  0  0  0  0  0
   27.3716   30.2974  218.6131 H   0  0  0  0  0  0
   29.7533   30.0032  219.1911 H   0  0  0  0  0  0
   28.5128   35.3354  219.2400 H   0  0  0  0  0  0
   26.4803   34.1613  217.3334 H   0  0  0  0  0  0
   26.4908   36.5963  216.9176 H   0  0  0  0  0  0
   28.2773   36.5803  216.7311 H   0  0  0  0  0  0
   27.1388   36.5247  214.4814 H   0  0  0  0  0  0
   27.1173   32.6646  215.9394 H   0  0  0  0  0  0
   29.9145   31.8009  216.1878 H   0  0  0  0  0  0
   27.8742   30.3034  215.6814 H   0  0  0  0  0  0
   29.2233   28.6626  214.6162 H   0  0  0  0  0  0
   30.1968   29.9014  213.7535 H   0  0  0  0  0  0
   26.9628   31.6526  213.8492 H   0  0  0  0  0  0
   27.2892   29.9582  213.3501 H   0  0  0  0  0  0
   28.4086   31.2723  212.8533 H   0  0  0  0  0  0
   31.4536   28.8717  215.5630 H   0  0  0  0  0  0
   30.1984   29.3781  216.7439 H   0  0  0  0  0  0
   31.1719   30.6170  215.8812 H   0  0  0  0  0  0
   28.3297   34.2158  214.4231 H   0  0  0  0  0  0
   30.3780   34.0523  212.2202 H   0  0  0  0  0  0
   28.0020   35.9720  212.6489 H   0  0  0  0  0  0
   29.8540   37.1059  211.4753 H   0  0  0  0  0  0
   28.4369   36.8278  210.4070 H   0  0  0  0  0  0
   29.8879   35.7784  210.2655 H   0  0  0  0  0  0
   27.4100   33.6455  212.0757 H   0  0  0  0  0  0
   28.4540   33.7482  210.6175 H   0  0  0  0  0  0
   27.0030   34.7976  210.7590 H   0  0  0  0  0  0
   32.1157   35.3993  211.9643 H   0  0  0  0  0  0
   33.0114   36.7428  214.4167 H   0  0  0  0  0  0
   33.7328   36.9213  212.7813 H   0  0  0  0  0  0
   33.0704   38.6812  215.1991 H   0  0  0  0  0  0
   31.1325   40.5420  213.9427 H   0  0  0  0  0  0
   31.4649   41.9270  215.9650 H   0  0  0  0  0  0
   31.4143   40.2021  216.4637 H   0  0  0  0  0  0
   33.3561   41.3939  217.5477 H   0  0  0  0  0  0
   31.3895   42.6992  213.3267 H   0  0  0  0  0  0
   34.0021   43.2728  212.0573 H   0  0  0  0  0  0
   31.4840   44.9031  212.6155 H   0  0  0  0  0  0
   32.9370   45.6490  211.8678 H   0  0  0  0  0  0
   31.8388   43.1517  210.6512 H   0  0  0  0  0  0
   29.8308   44.4954  211.1138 H   0  0  0  0  0  0
   30.1988   44.4030  209.3581 H   0  0  0  0  0  0
   30.5824   45.8970  210.2787 H   0  0  0  0  0  0
   33.9094   44.2355  209.8363 H   0  0  0  0  0  0
   32.9845   45.7439  209.5263 H   0  0  0  0  0  0
   32.6009   44.2499  208.6057 H   0  0  0  0  0  0
   36.0370   45.0778  215.5410 H   0  0  0  0  0  0
   36.7617   47.4232  213.7094 H   0  0  0  0  0  0
   37.8022   46.5725  214.9011 H   0  0  0  0  0  0
   38.2137   45.9989  212.4167 H   0  0  0  0  0  0
   37.9374   44.6185  213.5324 H   0  0  0  0  0  0
   36.2059   44.2822  211.8101 H   0  0  0  0  0  0
   35.8507   46.0417  211.7442 H   0  0  0  0  0  0
   35.6240   46.5196  217.1713 H   0  0  0  0  0  0
   32.7910   46.9292  216.8537 H   0  0  0  0  0  0
   32.7612   47.0417  219.2278 H   0  0  0  0  0  0
   34.4255   46.4079  218.9935 H   0  0  0  0  0  0
   35.3907   48.2804  219.7657 H   0  0  0  0  0  0
   34.1402   49.3628  219.0647 H   0  0  0  0  0  0
   32.8765   49.3161  220.9450 H   0  0  0  0  0  0
   33.1427   47.5578  221.1980 H   0  0  0  0  0  0
   34.3083   49.5480  222.8157 H   0  0  0  0  0  0
   36.2143   49.3281  223.9159 H   0  0  0  0  0  0
   37.5432   48.1159  223.2876 H   0  0  0  0  0  0
   35.5312   47.0695  220.4412 H   0  0  0  0  0  0
   35.3940   49.4061  217.0848 H   0  0  0  0  0  0
   33.1897   51.1948  216.0511 H   0  0  0  0  0  0
   34.5128   51.5158  218.6512 H   0  0  0  0  0  0
   34.7306   52.9696  217.6188 H   0  0  0  0  0  0
   30.7450   52.4610  217.5783 H   0  0  0  0  0  0
   33.6380   52.0139  214.2473 H   0  0  0  0  0  0
   36.1227   53.3407  213.6006 H   0  0  0  0  0  0
   36.3819   50.4764  213.6251 H   0  0  0  0  0  0
   36.3517   50.9700  211.8983 H   0  0  0  0  0  0
   39.0542   51.0193  212.7993 H   0  0  0  0  0  0
   34.4015   52.6578  210.0623 H   0  0  0  0  0  0
  1  2  1  0  0  0
  1 84  1  0  0  0
  1 85  1  0  0  0
  1 86  1  0  0  0
  2  3  1  0  0  0
  2  5  1  0  0  0
  2 87  1  0  0  0
  3  4  2  0  0  0
  3 12  1  0  0  0
  5  6  1  0  0  0
  5 88  1  0  0  0
  5 89  1  0  0  0
  6  7  2  0  0  0
  6  8  1  0  0  0
  7  9  1  0  0  0
  7 90  1  0  0  0
  8 10  2  0  0  0
  8 91  1  0  0  0
  9 11  2  0  0  0
  9 92  1  0  0  0
 10 11  1  0  0  0
 10 93  1  0  0  0
 11 94  1  0  0  0
 12 13  1  0  0  0
 12 95  1  0  0  0
 13 14  1  0  0  0
 13 16  1  0  0  0
 13 96  1  0  0  0
 14 15  2  0  0  0
 14 18  1  0  0  0
 16 17  1  0  0  0
 16 97  1  0  0  0
 16 98  1  0  0  0
 17 99  1  0  0  0
 18 19  1  0  0  0
 18100  1  0  0  0
 19 20  1  0  0  0
 19 22  1  0  0  0
 19101  1  0  0  0
 20 21  2  0  0  0
 20 26  1  0  0  0
 22 23  1  0  0  0
 22 24  1  0  0  0
 22102  1  0  0  0
 23 25  1  0  0  0
 23103  1  0  0  0
 23104  1  0  0  0
 24105  1  0  0  0
 24106  1  0  0  0
 24107  1  0  0  0
 25108  1  0  0  0
 25109  1  0  0  0
 25110  1  0  0  0
 26 27  1  0  0  0
 26111  1  0  0  0
 27 28  1  0  0  0
 27 30  1  0  0  0
 27112  1  0  0  0
 28 29  2  0  0  0
 28 33  1  0  0  0
 30 31  1  0  0  0
 30 32  1  0  0  0
 30113  1  0  0  0
 31114  1  0  0  0
 31115  1  0  0  0
 31116  1  0  0  0
 32117  1  0  0  0
 32118  1  0  0  0
 32119  1  0  0  0
 33 34  1  0  0  0
 33120  1  0  0  0
 34 35  1  0  0  0
 34121  1  0  0  0
 34122  1  0  0  0
 35 36  2  0  0  0
 35 37  1  0  0  0
 37 38  1  0  0  0
 37123  1  0  0  0
 38 39  1  0  0  0
 38 41  1  0  0  0
 38124  1  0  0  0
 39 40  2  0  0  0
 39 43  1  0  0  0
 41 42  1  0  0  0
 41125  1  0  0  0
 41126  1  0  0  0
 42127  1  0  0  0
 43 44  1  0  0  0
 43128  1  0  0  0
 44 45  1  0  0  0
 44 47  1  0  0  0
 44129  1  0  0  0
 45 46  2  0  0  0
 45 51  1  0  0  0
 47 48  1  0  0  0
 47130  1  0  0  0
 47131  1  0  0  0
 48 49  1  0  0  0
 48 50  1  0  0  0
 48132  1  0  0  0
 49133  1  0  0  0
 49134  1  0  0  0
 49135  1  0  0  0
 50136  1  0  0  0
 50137  1  0  0  0
 50138  1  0  0  0
 51 52  1  0  0  0
 51 57  1  0  0  0
 52 53  1  0  0  0
 52 55  1  0  0  0
 52139  1  0  0  0
 53 54  2  0  0  0
 53 58  1  0  0  0
 55 56  1  0  0  0
 55140  1  0  0  0
 55141  1  0  0  0
 56 57  1  0  0  0
 56142  1  0  0  0
 56143  1  0  0  0
 57144  1  0  0  0
 57145  1  0  0  0
 58 59  1  0  0  0
 58146  1  0  0  0
 59 60  1  0  0  0
 59 62  1  0  0  0
 59147  1  0  0  0
 60 61  2  0  0  0
 60 69  1  0  0  0
 62 63  1  0  0  0
 62148  1  0  0  0
 62149  1  0  0  0
 63 64  1  0  0  0
 63150  1  0  0  0
 63151  1  0  0  0
 64 65  1  0  0  0
 64152  1  0  0  0
 64153  1  0  0  0
 65 66  1  0  0  0
 65154  1  0  0  0
 66 67  1  0  0  0
 66 68  2  0  0  0
 67155  1  0  0  0
 67156  1  0  0  0
 68157  1  0  0  0
 69 70  1  0  0  0
 69158  1  0  0  0
 70 71  1  0  0  0
 70 73  1  0  0  0
 70159  1  0  0  0
 71 72  2  0  0  0
 71 77  1  0  0  0
 73 74  1  0  0  0
 73160  1  0  0  0
 73161  1  0  0  0
 74 75  1  0  0  0
 74 76  2  0  0  0
 75162  1  0  0  0
 77 78  1  0  0  0
 77163  1  0  0  0
 78 79  1  0  0  0
 78 81  1  0  0  0
 78164  1  0  0  0
 79 80  2  0  0  0
 79 83  1  0  0  0
 81 82  1  0  0  0
 81165  1  0  0  0
 81166  1  0  0  0
 82167  1  0  0  0
 83168  1  0  0  0
M  CHG  1   1   1
M  END
> <s_m_source_file>
../4u91_ligand.sdf

> <i_m_source_file_index>
1

> <s_epik_input>
W2NIXTFbY0hdW2NIXVtjSF1bY0hdYzFbQ0gyXVtDQEhdKFtOSDMrXSlDKD1PKVtOSF1bQ0BASF0oW0NIMl1bT0hdKUMoPU8pW05IXVtDQEBIXShbQ0BASF0oW0NIM10pW0NIMl1bQ0gzXSlDKD1PKVtOSF1bQ0BASF0oW0NIXShbQ0gzXSlbQ0gzXSlDKD1PKVtOSF1bQ0gyXUMoPU8pW05IXVtDQEBIXShbQ0gyXVtPSF0pQyg9TylbTkhdW0NAQEhdKFtDSDJdW0NIXShbQ0gzXSlbQ0gzXSlDKD1PKU4yW0NAQEhdKFtDSDJdW0NIMl1bQ0gyXTIpQyg9TylbTkhdW0NAQEhdKFtDSDJdW0NIMl1bQ0gyXVtOSF0vQyhbTkgyXSk9TlxbSF0pQyg9TylbTkhdW0NAQEhdKFtDSDJdQyg9TylbT0hdKUMoPU8pW05IXVtDQEhdKEMoPU8pW09IXSlbQ0gyXVtTSF0=

> <s_epik_cmdline>
J2VwaWtfYXBwJywgJy1pbWFlJywgJ2xpZ2FuZF9wcm8ubWFlJywgJy1vbWFlJywgJ2xpZ2FuZF9wcmVwLm1hZScsICctbXMnLCAnMScsICctcGgnLCAnNycsICctcGh0JywgJzAuNScsICctbnQn

> <s_epik_pKa_notes>
Molecule size exceeds maximum supported for generating protonation states

> <s_epik_Chemistry_Notes>
This compound has an imine and may undergo hydrolysis.

$$$$
