4u93_ligand
                    3D
 Schrodinger Suite 2020-3.
 46 49  0  0  1  0            999 V2000
   24.8490   22.3840   10.0560 F   0  0  0  0  0  0
   26.0370   22.9900   10.2460 C   0  0  0  0  0  0
   26.3390   23.5050   11.5060 C   0  0  0  0  0  0
   27.5600   24.1350   11.7130 C   0  0  0  0  0  0
   27.8350   24.6740   13.0750 C   0  0  0  0  0  0
   29.0770   24.5500   13.5970 N   0  0  0  0  0  0
   29.3740   25.0230   14.8370 C   0  0  0  0  0  0
   30.6430   24.8830   15.3270 O   0  0  0  0  0  0
   31.6530   24.3150   14.4800 C   0  0  0  0  0  0
   28.3940   25.6480   15.6190 C   0  0  0  0  0  0
   27.1190   25.7830   15.0930 C   0  0  0  0  0  0
   26.8320   25.2830   13.8190 C   0  0  0  0  0  0
   26.9290   23.0990    9.1890 C   0  0  0  0  0  0
   28.1490   23.7390    9.3930 C   0  0  0  0  0  0
   28.4750   24.2530   10.6570 C   0  0  0  0  0  0
   29.8070   24.9180   10.7920 C   0  0  2  0  0  0
   30.0420   25.8170    9.6630 N   0  0  0  0  0  0
   31.2250   26.3580    9.4130 C   0  0  0  0  0  0
   31.3550   27.2070    8.5270 O   0  0  0  0  0  0
   30.9440   23.8830   10.7570 C   0  0  0  0  0  0
   32.3000   24.5780   10.7280 C   0  0  0  0  0  0
   33.3650   23.9990   11.3360 N   0  0  0  0  0  0
   34.5800   24.6060   11.2940 C   0  0  0  0  0  0
   35.6340   23.9910   11.8840 N   0  0  0  0  0  0
   34.7380   25.8190   10.7020 N   0  0  0  0  0  0
   33.7070   26.4230   10.0850 C   0  0  0  0  0  0
   32.4460   25.8070   10.1030 C   0  0  0  0  0  0
   33.9880   27.7630    9.4500 C   0  0  0  0  0  0
   25.6226   23.4141   12.3225 H   0  0  0  0  0  0
   32.6079   24.2745   15.0245 H   0  0  0  0  0  0
   31.7698   24.9374   13.5806 H   0  0  0  0  0  0
   31.3552   23.2978   14.1858 H   0  0  0  0  0  0
   28.6286   26.0190   16.6167 H   0  0  0  0  0  0
   26.3400   26.2788   15.6722 H   0  0  0  0  0  0
   25.8250   25.3707   13.4111 H   0  0  0  0  0  0
   26.6780   22.6887    8.2108 H   0  0  0  0  0  0
   28.8533   23.8409    8.5674 H   0  0  0  0  0  0
   29.7782   25.4952   11.7280 H   0  0  0  0  0  0
   29.2176   26.0689    8.9797 H   0  0  0  0  0  0
   30.8884   23.2468   11.6526 H   0  0  0  0  0  0
   30.8439   23.2586    9.8569 H   0  0  0  0  0  0
   35.5009   23.0092   12.3618 H   0  0  0  0  0  0
   36.6224   24.4737   11.8850 H   0  0  0  0  0  0
   35.0518   28.0128    9.5764 H   0  0  0  0  0  0
   33.3703   28.5344    9.9331 H   0  0  0  0  0  0
   33.7467   27.7184    8.3777 H   0  0  0  0  0  0
  1  2  1  0  0  0
  2  3  2  0  0  0
  2 13  1  0  0  0
  3  4  1  0  0  0
  3 29  1  0  0  0
  4  5  1  0  0  0
  4 15  2  0  0  0
  5  6  2  0  0  0
  5 12  1  0  0  0
  6  7  1  0  0  0
  7  8  1  0  0  0
  7 10  2  0  0  0
  8  9  1  0  0  0
  9 30  1  0  0  0
  9 31  1  0  0  0
  9 32  1  0  0  0
 10 11  1  0  0  0
 10 33  1  0  0  0
 11 12  2  0  0  0
 11 34  1  0  0  0
 12 35  1  0  0  0
 13 14  2  0  0  0
 13 36  1  0  0  0
 14 15  1  0  0  0
 14 37  1  0  0  0
 15 16  1  0  0  0
 16 17  1  0  0  0
 16 20  1  0  0  0
 16 38  1  0  0  0
 17 18  1  0  0  0
 17 39  1  0  0  0
 18 19  2  0  0  0
 18 27  1  0  0  0
 20 21  1  0  0  0
 20 40  1  0  0  0
 20 41  1  0  0  0
 21 22  2  0  0  0
 21 27  1  0  0  0
 22 23  1  0  0  0
 23 24  1  0  0  0
 23 25  2  0  0  0
 24 42  1  0  0  0
 24 43  1  0  0  0
 25 26  1  0  0  0
 26 27  2  0  0  0
 26 28  1  0  0  0
 28 44  1  0  0  0
 28 45  1  0  0  0
 28 46  1  0  0  0
M  END
> <s_m_source_file>
../4u93_ligand.sdf

> <i_m_source_file_index>
1

> <s_epik_input>
W2NIXTFbY0hdW2NIXWMoT1tDSDNdKW5jMS1jKFtjSF1jMkYpYyhbY0hdW2NIXTIpW0NAQEhdKFtDSDJdMylbTkhdQyg9TyljKGMzNCljKFtDSDNdKW5jKG40KVtOSDJd

> <s_epik_cmdline>
J2VwaWtfYXBwJywgJy1pbWFlJywgJ2xpZ2FuZF9wcm8ubWFlJywgJy1vbWFlJywgJ2xpZ2FuZF9wcmVwLm1hZScsICctbXMnLCAnMScsICctcGgnLCAnNycsICctcGh0JywgJzAuNScsICctbnQn

> <r_lp_tautomer_probability>
1

> <r_epik_Ionization_Penalty>
  0.0002

> <r_epik_Ionization_Penalty_Charging>
  0.0000

> <r_epik_Ionization_Penalty_Neutral>
  0.0002

> <r_epik_State_Penalty>
 -0.0000

> <r_epik_Charging_Adjusted_Penalty>
0

> <i_epik_Tot_Q>
0

> <i_epik_Tot_abs_Q>
0

$$$$
