4uac_ligand
                    3D
 Schrodinger Suite 2020-3.
 90 93  0  0  1  0            999 V2000
   22.3150   66.1510   27.7300 C   0  0  2  0  0  0
   22.2570   67.3520   28.8500 C   0  0  1  0  0  0
   22.7560   66.9640   29.9860 C   0  0  2  0  0  0
   21.9070   65.7970   30.7410 C   0  0  1  0  0  0
   21.6340   64.6790   29.8660 C   0  0  1  0  0  0
   21.1630   63.3510   30.3740 C   0  0  0  0  0  0
   21.8450   64.9070   28.2090 C   0  0  0  0  0  0
   23.0600   68.4710   28.2800 O   0  0  0  0  0  0
   22.7920   68.1140   30.9660 O   0  0  0  0  0  0
   22.5610   65.3430   31.9340 O   0  0  0  0  0  0
   20.2300   62.8880   29.4380 O   0  0  0  0  0  0
   25.4350   65.4630   23.4290 C   0  0  2  0  0  0
   25.0790   66.8420   23.9060 C   0  0  1  0  0  0
   24.9660   66.8860   25.3900 C   0  0  2  0  0  0
   23.9070   65.9220   25.8340 C   0  0  1  0  0  0
   24.3220   64.5370   25.3890 C   0  0  1  0  0  0
   23.3120   63.4630   25.6850 C   0  0  0  0  0  0
   23.7260   66.0160   27.2860 N   0  3  0  0  0  0
   26.1060   67.7530   23.4510 O   0  0  0  0  0  0
   24.6320   68.2140   25.8460 O   0  0  0  0  0  0
   24.4330   64.4950   23.9330 O   0  0  0  0  0  0
   30.3360   63.7300   22.3330 C   0  0  2  0  0  0
   29.6980   64.9220   21.6880 C   0  0  1  0  0  0
   28.6630   65.5260   22.5760 C   0  0  2  0  0  0
   27.6150   64.5260   22.9630 C   0  0  1  0  0  0
   28.2580   63.2810   23.5450 C   0  0  1  0  0  0
   27.2160   62.1990   23.7290 C   0  0  0  0  0  0
   30.7290   65.8820   21.3750 O   0  0  0  0  0  0
   28.0520   66.6630   21.9100 O   0  0  0  0  0  0
   26.6920   65.0870   23.9400 O   0  0  0  0  0  0
   29.2920   62.7500   22.6570 O   0  0  0  0  0  0
   27.8000   61.0390   24.3570 O   0  0  0  0  0  0
   34.8890   63.6670   25.0410 C   0  0  1  0  0  0
   34.6750   64.4640   23.7700 C   0  0  1  0  0  0
   33.2590   64.8930   23.6070 C   0  0  2  0  0  0
   32.3330   63.7220   23.6200 C   0  0  1  0  0  0
   32.5130   62.9450   24.9110 C   0  0  1  0  0  0
   31.7760   61.6450   24.8910 C   0  0  0  0  0  0
   34.7400   64.4820   26.1520 O   0  0  0  0  0  0
   35.6100   65.5690   23.6860 O   0  0  0  0  0  0
   33.1410   65.5560   22.3180 O   0  0  0  0  0  0
   30.9780   64.1610   23.4910 O   0  0  0  0  0  0
   33.9140   62.5640   25.0880 O   0  0  0  0  0  0
   31.9410   60.9960   26.1610 O   0  0  0  0  0  0
   21.6519   66.2847   26.8626 H   0  0  0  0  0  0
   21.2868   67.6873   29.2452 H   0  0  0  0  0  0
   23.7251   66.6900   29.5436 H   0  0  0  0  0  0
   20.9170   66.1230   31.0927 H   0  0  0  0  0  0
   22.6779   64.3466   29.9650 H   0  0  0  0  0  0
   22.0189   62.6647   30.4546 H   0  0  0  0  0  0
   20.7018   63.4798   31.3643 H   0  0  0  0  0  0
   20.8537   64.6996   27.7796 H   0  0  0  0  0  0
   22.5459   64.1121   27.9143 H   0  0  0  0  0  0
   22.7731   68.9191   27.3173 H   0  0  0  0  0  0
   23.3129   69.0460   30.7014 H   0  0  0  0  0  0
   22.8439   66.0645   32.7147 H   0  0  0  0  0  0
   19.7341   61.9178   29.5893 H   0  0  0  0  0  0
   25.5093   65.4373   22.3318 H   0  0  0  0  0  0
   24.1144   67.1640   23.4867 H   0  0  0  0  0  0
   25.9418   66.6420   25.8352 H   0  0  0  0  0  0
   22.9245   66.1705   25.4062 H   0  0  0  0  0  0
   25.2730   64.3423   25.9065 H   0  0  0  0  0  0
   23.1470   63.4042   26.7710 H   0  0  0  0  0  0
   23.6868   62.4961   25.3181 H   0  0  0  0  0  0
   22.3635   63.7032   25.1824 H   0  0  0  0  0  0
   24.3012   66.8916   27.6213 H   0  0  0  0  0  0
   24.1611   65.1035   27.7196 H   0  0  0  0  0  0
   26.3219   67.8461   22.3764 H   0  0  0  0  0  0
   25.2970   69.0588   25.6135 H   0  0  0  0  0  0
   31.1081   63.2527   21.7116 H   0  0  0  0  0  0
   29.2084   64.6347   20.7458 H   0  0  0  0  0  0
   29.1521   65.8921   23.4907 H   0  0  0  0  0  0
   27.0269   64.2840   22.0655 H   0  0  0  0  0  0
   28.7394   63.5531   24.4959 H   0  0  0  0  0  0
   26.4019   62.5782   24.3642 H   0  0  0  0  0  0
   26.8111   61.9093   22.7481 H   0  0  0  0  0  0
   31.5703   65.5941   20.7275 H   0  0  0  0  0  0
   28.6784   67.4955   21.5570 H   0  0  0  0  0  0
   27.1790   60.1553   24.5655 H   0  0  0  0  0  0
   35.9139   63.2771   25.1276 H   0  0  0  0  0  0
   34.9027   63.8353   22.8965 H   0  0  0  0  0  0
   32.9865   65.5794   24.4223 H   0  0  0  0  0  0
   32.5231   63.0861   22.7428 H   0  0  0  0  0  0
   32.1648   63.5954   25.7269 H   0  0  0  0  0  0
   30.7080   61.8318   24.7054 H   0  0  0  0  0  0
   32.1808   61.0063   24.0921 H   0  0  0  0  0  0
   35.3898   65.3601   26.2811 H   0  0  0  0  0  0
   36.6895   65.3852   23.7905 H   0  0  0  0  0  0
   33.7446   66.4499   22.1020 H   0  0  0  0  0  0
   31.4699   60.0191   26.3448 H   0  0  0  0  0  0
  1  2  1  0  0  0
  1  7  1  0  0  0
  1 18  1  0  0  0
  1 45  1  0  0  0
  2  3  1  0  0  0
  2  8  1  0  0  0
  2 46  1  0  0  0
  3  4  1  0  0  0
  3  9  1  0  0  0
  3 47  1  0  0  0
  4  5  1  0  0  0
  4 10  1  0  0  0
  4 48  1  0  0  0
  5  6  1  0  0  0
  5  7  1  0  0  0
  5 49  1  0  0  0
  6 11  1  0  0  0
  6 50  1  0  0  0
  6 51  1  0  0  0
  7 52  1  0  0  0
  7 53  1  0  0  0
  8 54  1  0  0  0
  9 55  1  0  0  0
 10 56  1  0  0  0
 11 57  1  0  0  0
 12 13  1  0  0  0
 12 21  1  0  0  0
 12 30  1  0  0  0
 12 58  1  0  0  0
 13 14  1  0  0  0
 13 19  1  0  0  0
 13 59  1  0  0  0
 14 15  1  0  0  0
 14 20  1  0  0  0
 14 60  1  0  0  0
 15 16  1  0  0  0
 15 18  1  0  0  0
 15 61  1  0  0  0
 16 17  1  0  0  0
 16 21  1  0  0  0
 16 62  1  0  0  0
 17 63  1  0  0  0
 17 64  1  0  0  0
 17 65  1  0  0  0
 18 66  1  0  0  0
 18 67  1  0  0  0
 19 68  1  0  0  0
 20 69  1  0  0  0
 22 23  1  0  0  0
 22 31  1  0  0  0
 22 42  1  0  0  0
 22 70  1  0  0  0
 23 24  1  0  0  0
 23 28  1  0  0  0
 23 71  1  0  0  0
 24 25  1  0  0  0
 24 29  1  0  0  0
 24 72  1  0  0  0
 25 26  1  0  0  0
 25 30  1  0  0  0
 25 73  1  0  0  0
 26 27  1  0  0  0
 26 31  1  0  0  0
 26 74  1  0  0  0
 27 32  1  0  0  0
 27 75  1  0  0  0
 27 76  1  0  0  0
 28 77  1  0  0  0
 29 78  1  0  0  0
 32 79  1  0  0  0
 33 34  1  0  0  0
 33 39  1  0  0  0
 33 43  1  0  0  0
 33 80  1  0  0  0
 34 35  1  0  0  0
 34 40  1  0  0  0
 34 81  1  0  0  0
 35 36  1  0  0  0
 35 41  1  0  0  0
 35 82  1  0  0  0
 36 37  1  0  0  0
 36 42  1  0  0  0
 36 83  1  0  0  0
 37 38  1  0  0  0
 37 43  1  0  0  0
 37 84  1  0  0  0
 38 44  1  0  0  0
 38 85  1  0  0  0
 38 86  1  0  0  0
 39 87  1  0  0  0
 40 88  1  0  0  0
 41 89  1  0  0  0
 44 90  1  0  0  0
M  CHG  1  18   1
M  END
> <s_m_source_file>
../4uac_ligand.sdf

> <i_m_source_file_index>
1

> <s_epik_input>
W09IXVtDSDJdW0NIXShbQ0gyXTEpW0NAQEhdKFtPSF0pW0NASF0oW09IXSlbQ0BASF0oW09IXSlbQ0BIXTFbTkgyK11bQ0BIXShbQ0BIXShPMilbQ0gzXSlbQ0BIXShbT0hdKVtDQEBIXShbT0hdKVtDQEhdMk9bQ0BIXShbQ0BIXShPMylbQ0gyXVtPSF0pW0NASF0oW09IXSlbQ0BASF0oW09IXSlbQ0BIXTNPW0NASF0oW0NASF0oTzQpW0NIMl1bT0hdKVtDQEhdKFtPSF0pW0NAQEhdKFtPSF0pW0NASF00W09IXQ==

> <s_epik_cmdline>
J2VwaWtfYXBwJywgJy1pbWFlJywgJ2xpZ2FuZF9wcm8ubWFlJywgJy1vbWFlJywgJ2xpZ2FuZF9wcmVwLm1hZScsICctbXMnLCAnMScsICctcGgnLCAnNycsICctcGh0JywgJzAuNScsICctbnQn

> <r_epik_Ionization_Penalty>
  0.0178

> <r_epik_Ionization_Penalty_Charging>
  0.0177

> <r_epik_Ionization_Penalty_Neutral>
  0.0000

> <r_epik_State_Penalty>
  0.0141

> <r_epik_Charging_Adjusted_Penalty>
0.0318220296493959

> <i_epik_Tot_Q>
1

> <i_epik_Tot_abs_Q>
1

> <s_epik_Chemistry_Notes>
This compound contains an acetal/aminal-like group ( X-CH(R)-Y where X, Y are N, S, or O) that may be acid/base labile, releasing an aldehyde.

$$$$
