4uau_ligand
                    3D
 Schrodinger Suite 2020-3.
 26 25  0  0  1  0            999 V2000
    1.3140   30.5220   47.5930 C   0  0  0  0  0  0
   -0.1160   30.0010   47.4800 C   0  0  0  0  0  0
   -1.2510   30.8730   47.0300 C   0  0  2  0  0  0
   -1.5110   31.9070   48.1270 C   0  0  1  0  0  0
   -2.8460   32.6120   47.9920 C   0  0  0  0  0  0
    1.7170   31.4470   46.5380 O   0  0  0  0  0  0
   -0.3390   28.8340   47.8360 O   0  0  0  0  0  0
   -2.3840   30.0190   46.8120 O   0  0  0  0  0  0
   -1.5250   31.2530   49.4080 O   0  0  0  0  0  0
   -3.0470   33.1600   46.6870 O   0  0  0  0  0  0
    3.2400   31.4030   45.9240 P   0  0  0  0  0  0
   -4.3850   32.7920   45.8720 P   0  0  0  0  0  0
    3.1650   30.2570   44.9290 O   0  5  0  0  0  0
    4.1390   31.1400   47.1140 O   0  5  0  0  0  0
    3.4330   32.7660   45.3120 O   0  0  0  0  0  0
   -4.4640   33.8190   44.7890 O   0  0  0  0  0  0
   -5.5530   32.8370   46.8370 O   0  5  0  0  0  0
   -4.2190   31.4040   45.3220 O   0  5  0  0  0  0
    1.4347   31.0580   48.5459 H   0  0  0  0  0  0
    2.0164   29.6762   47.5566 H   0  0  0  0  0  0
   -1.0643   31.3737   46.0685 H   0  0  0  0  0  0
   -0.6949   32.6437   48.0903 H   0  0  0  0  0  0
   -3.6593   31.8977   48.1880 H   0  0  0  0  0  0
   -2.9000   33.4371   48.7174 H   0  0  0  0  0  0
   -2.3374   29.2272   46.0498 H   0  0  0  0  0  0
   -0.6530   30.6685   49.7367 H   0  0  0  0  0  0
  1  2  1  0  0  0
  1  6  1  0  0  0
  1 19  1  0  0  0
  1 20  1  0  0  0
  2  3  1  0  0  0
  2  7  2  0  0  0
  3  4  1  0  0  0
  3  8  1  0  0  0
  3 21  1  0  0  0
  4  5  1  0  0  0
  4  9  1  0  0  0
  4 22  1  0  0  0
  5 10  1  0  0  0
  5 23  1  0  0  0
  5 24  1  0  0  0
  6 11  1  0  0  0
  8 25  1  0  0  0
  9 26  1  0  0  0
 10 12  1  0  0  0
 11 13  1  0  0  0
 11 14  1  0  0  0
 11 15  2  0  0  0
 12 16  2  0  0  0
 12 17  1  0  0  0
 12 18  1  0  0  0
M  CHG  4  13  -1  14  -1  17  -1  18  -1
M  END
> <s_m_source_file>
../4uau_ligand.sdf

> <i_m_source_file_index>
1

> <s_epik_input>
W09IXVAoPU8pKFtPSF0pT1tDSDJdQyg9TylbQ0BASF0oW09IXSlbQ0BIXShbT0hdKVtDSDJdT1AoPU8pKFtPSF0pW09IXQ==

> <s_epik_cmdline>
J2VwaWtfYXBwJywgJy1pbWFlJywgJ2xpZ2FuZF9wcm8ubWFlJywgJy1vbWFlJywgJ2xpZ2FuZF9wcmVwLm1hZScsICctbXMnLCAnMScsICctcGgnLCAnNycsICctcGh0JywgJzAuNScsICctbnQn

> <r_lp_tautomer_probability>
1

> <r_epik_Ionization_Penalty>
  0.1759

> <r_epik_Ionization_Penalty_Charging>
  0.1759

> <r_epik_Ionization_Penalty_Neutral>
  0.0000

> <r_epik_State_Penalty>
 -0.0000

> <r_epik_Charging_Adjusted_Penalty>
0.175943890879081

> <i_epik_Tot_Q>
-4

> <i_epik_Tot_abs_Q>
4

$$$$
