4ucc_ligand
                    3D
 Schrodinger Suite 2020-3.
 26 27  0  0  1  0            999 V2000
  -21.8460   17.8660  -15.8120 O   0  0  0  0  0  0
  -21.1860   17.6730  -16.8650 C   0  0  0  0  0  0
  -20.0030   17.2470  -16.9130 O   0  5  0  0  0  0
  -21.9210   17.9610  -18.1760 C   0  0  0  0  0  0
  -23.2270   18.3740  -18.3010 C   0  0  0  0  0  0
  -23.4450   18.5340  -19.6660 C   0  0  0  0  0  0
  -24.7460   19.0260  -20.3230 C   0  0  0  0  0  0
  -24.9320   18.7240  -21.5260 O   0  0  0  0  0  0
  -25.5260   19.6990  -19.6070 O   0  5  0  0  0  0
  -22.3440   18.2310  -20.3790 N   0  0  0  0  0  0
  -21.4150   17.8810  -19.4400 N   0  0  0  0  0  0
  -20.0950   17.4430  -19.9030 C   0  0  0  0  0  0
  -20.0090   15.9660  -20.2150 C   0  0  0  0  0  0
  -21.1430   15.1500  -20.1880 C   0  0  0  0  0  0
  -18.8020   15.3570  -20.5390 C   0  0  0  0  0  0
  -17.3630   16.3140  -20.6650 Cl  0  0  0  0  0  0
  -18.6990   14.0080  -20.7990 C   0  0  0  0  0  0
  -19.8500   13.2450  -20.7780 C   0  0  0  0  0  0
  -19.7540   11.5520  -21.1820 Cl  0  0  0  0  0  0
  -21.0730   13.8000  -20.4800 C   0  0  0  0  0  0
  -23.9434   18.5414  -17.4968 H   0  0  0  0  0  0
  -19.8312   17.9842  -20.8236 H   0  0  0  0  0  0
  -19.3453   17.6539  -19.1261 H   0  0  0  0  0  0
  -22.1070   15.5885  -19.9303 H   0  0  0  0  0  0
  -17.7322   13.5537  -21.0161 H   0  0  0  0  0  0
  -21.9730   13.1852  -20.4741 H   0  0  0  0  0  0
  1  2  2  0  0  0
  2  3  1  0  0  0
  2  4  1  0  0  0
  4  5  2  0  0  0
  4 11  1  0  0  0
  5  6  1  0  0  0
  5 21  1  0  0  0
  6  7  1  0  0  0
  6 10  2  0  0  0
  7  8  2  0  0  0
  7  9  1  0  0  0
 10 11  1  0  0  0
 11 12  1  0  0  0
 12 13  1  0  0  0
 12 22  1  0  0  0
 12 23  1  0  0  0
 13 14  2  0  0  0
 13 15  1  0  0  0
 14 20  1  0  0  0
 14 24  1  0  0  0
 15 16  1  0  0  0
 15 17  2  0  0  0
 17 18  1  0  0  0
 17 25  1  0  0  0
 18 19  1  0  0  0
 18 20  2  0  0  0
 20 26  1  0  0  0
M  CHG  2   3  -1   9  -1
M  END
> <s_m_source_file>
../4ucc_ligand.sdf

> <i_m_source_file_index>
1

> <s_epik_input>
Tz1DKFtPSF0pYzFbY0hdYyhDKD1PKVtPSF0pbm4xW0NIMl1jMltjSF1bY0hdYyhDbClbY0hdYzJDbA==

> <s_epik_cmdline>
J2VwaWtfYXBwJywgJy1pbWFlJywgJ2xpZ2FuZF9wcm8ubWFlJywgJy1vbWFlJywgJ2xpZ2FuZF9wcmVwLm1hZScsICctbXMnLCAnMScsICctcGgnLCAnNycsICctcGh0JywgJzAuNScsICctbnQn

> <r_lp_tautomer_probability>
1

> <r_epik_Ionization_Penalty>
  0.0009

> <r_epik_Ionization_Penalty_Charging>
  0.0009

> <r_epik_Ionization_Penalty_Neutral>
  0.0000

> <r_epik_State_Penalty>
 -0.0000

> <r_epik_Charging_Adjusted_Penalty>
0.000943638328079749

> <i_epik_Tot_Q>
-2

> <i_epik_Tot_abs_Q>
2

$$$$
