4ucd_ligand
                    3D
 Schrodinger Suite 2020-3.
 26 27  0  0  1  0            999 V2000
  -17.1650   16.2970  -20.3950 Cl  0  0  0  0  0  0
  -18.6240   15.3580  -20.3740 C   0  0  0  0  0  0
  -18.5330   13.9870  -20.5670 C   0  0  0  0  0  0
  -19.6820   13.2170  -20.5040 C   0  0  0  0  0  0
  -19.8390   15.9900  -20.1430 C   0  0  0  0  0  0
  -20.9840   15.1920  -20.1520 C   0  0  0  0  0  0
  -20.9030   13.8190  -20.3090 C   0  0  0  0  0  0
  -19.9110   17.4770  -19.8860 C   0  0  0  0  0  0
  -21.2320   17.9180  -19.4330 N   0  0  0  0  0  0
  -22.1530   18.2640  -20.3800 N   0  0  0  0  0  0
  -23.2510   18.5830  -19.6770 C   0  0  0  0  0  0
  -24.5190   19.0800  -20.3430 C   0  0  0  0  0  0
  -24.7390   18.6520  -21.4990 O   0  0  0  0  0  0
  -25.2450   19.8820  -19.7000 O   0  5  0  0  0  0
  -23.0430   18.4370  -18.3100 C   0  0  0  0  0  0
  -21.7430   18.0170  -18.1730 C   0  0  0  0  0  0
  -21.0380   17.7310  -16.8520 C   0  0  0  0  0  0
  -19.8460   17.3340  -16.8820 O   0  0  0  0  0  0
  -21.7240   17.9200  -15.8130 O   0  5  0  0  0  0
  -17.5678   13.5213  -20.7660 H   0  0  0  0  0  0
  -19.6188   12.1339  -20.6089 H   0  0  0  0  0  0
  -21.9616   15.6592  -20.0330 H   0  0  0  0  0  0
  -21.8090   13.2137  -20.2780 H   0  0  0  0  0  0
  -19.1833   17.7502  -19.1076 H   0  0  0  0  0  0
  -19.6778   18.0211  -20.8131 H   0  0  0  0  0  0
  -23.7631   18.6185  -17.5121 H   0  0  0  0  0  0
  1  2  1  0  0  0
  2  3  2  0  0  0
  2  5  1  0  0  0
  3  4  1  0  0  0
  3 20  1  0  0  0
  4  7  2  0  0  0
  4 21  1  0  0  0
  5  6  2  0  0  0
  5  8  1  0  0  0
  6  7  1  0  0  0
  6 22  1  0  0  0
  7 23  1  0  0  0
  8  9  1  0  0  0
  8 24  1  0  0  0
  8 25  1  0  0  0
  9 10  1  0  0  0
  9 16  1  0  0  0
 10 11  2  0  0  0
 11 12  1  0  0  0
 11 15  1  0  0  0
 12 13  2  0  0  0
 12 14  1  0  0  0
 15 16  2  0  0  0
 15 26  1  0  0  0
 16 17  1  0  0  0
 17 18  2  0  0  0
 17 19  1  0  0  0
M  CHG  2  14  -1  19  -1
M  END
> <s_m_source_file>
../4ucd_ligand.sdf

> <i_m_source_file_index>
1

> <s_epik_input>
Q2xjMVtjSF1bY0hdW2NIXVtjSF1jMVtDSDJdbjJuYyhDKD1PKVtPSF0pW2NIXWMyQyg9TylbT0hd

> <s_epik_cmdline>
J2VwaWtfYXBwJywgJy1pbWFlJywgJ2xpZ2FuZF9wcm8ubWFlJywgJy1vbWFlJywgJ2xpZ2FuZF9wcmVwLm1hZScsICctbXMnLCAnMScsICctcGgnLCAnNycsICctcGh0JywgJzAuNScsICctbnQn

> <r_lp_tautomer_probability>
1

> <r_epik_Ionization_Penalty>
  0.0009

> <r_epik_Ionization_Penalty_Charging>
  0.0009

> <r_epik_Ionization_Penalty_Neutral>
  0.0000

> <r_epik_State_Penalty>
 -0.0000

> <r_epik_Charging_Adjusted_Penalty>
0.000943638328079617

> <i_epik_Tot_Q>
-2

> <i_epik_Tot_abs_Q>
2

$$$$
