4uce_ligand
                    3D
 Schrodinger Suite 2020-3.
 26 27  0  0  1  0            999 V2000
  -15.8530   14.6120  -20.6030 F   0  0  0  0  0  0
  -17.1440   14.5540  -20.2010 C   0  0  0  0  0  0
  -17.7380   15.7040  -19.7650 C   0  0  0  0  0  0
  -17.8080   13.3630  -20.2920 C   0  0  0  0  0  0
  -19.1520   13.3390  -19.9640 C   0  0  0  0  0  0
  -19.8010   14.4840  -19.5120 C   0  0  0  0  0  0
  -19.0660   15.6550  -19.3930 C   0  0  0  0  0  0
  -21.2680   14.4550  -19.1500 C   0  0  0  0  0  0
  -22.0130   15.6100  -19.6650 N   0  0  0  0  0  0
  -21.9350   16.7940  -18.9740 N   0  0  0  0  0  0
  -22.7780   17.6150  -19.6250 C   0  0  0  0  0  0
  -23.1790   19.0040  -19.1220 C   0  0  0  0  0  0
  -23.4050   19.8580  -20.0100 O   0  0  0  0  0  0
  -23.2960   19.1840  -17.8830 O   0  5  0  0  0  0
  -23.3490   16.9880  -20.7280 C   0  0  0  0  0  0
  -22.8700   15.7000  -20.7220 C   0  0  0  0  0  0
  -23.3280   14.5690  -21.6650 C   0  0  0  0  0  0
  -23.3730   13.3900  -21.2340 O   0  5  0  0  0  0
  -23.6770   14.9250  -22.8120 O   0  0  0  0  0  0
  -17.1771   16.6371  -19.7122 H   0  0  0  0  0  0
  -17.2934   12.4576  -20.6139 H   0  0  0  0  0  0
  -19.7113   12.4085  -20.0612 H   0  0  0  0  0  0
  -19.5456   16.5511  -18.9991 H   0  0  0  0  0  0
  -21.7307   13.5483  -19.5669 H   0  0  0  0  0  0
  -21.3755   14.4513  -18.0553 H   0  0  0  0  0  0
  -24.0364   17.4288  -21.4500 H   0  0  0  0  0  0
  1  2  1  0  0  0
  2  3  2  0  0  0
  2  4  1  0  0  0
  3  7  1  0  0  0
  3 20  1  0  0  0
  4  5  2  0  0  0
  4 21  1  0  0  0
  5  6  1  0  0  0
  5 22  1  0  0  0
  6  7  2  0  0  0
  6  8  1  0  0  0
  7 23  1  0  0  0
  8  9  1  0  0  0
  8 24  1  0  0  0
  8 25  1  0  0  0
  9 10  1  0  0  0
  9 16  1  0  0  0
 10 11  2  0  0  0
 11 12  1  0  0  0
 11 15  1  0  0  0
 12 13  2  0  0  0
 12 14  1  0  0  0
 15 16  2  0  0  0
 15 26  1  0  0  0
 16 17  1  0  0  0
 17 18  1  0  0  0
 17 19  2  0  0  0
M  CHG  2  14  -1  18  -1
M  END
> <s_m_source_file>
../4uce_ligand.sdf

> <i_m_source_file_index>
1

> <s_epik_input>
RmMxW2NIXVtjSF1jKFtjSF1bY0hdMSlbQ0gyXW4ybmMoQyg9TylbT0hdKVtjSF1jMkMoPU8pW09IXQ==

> <s_epik_cmdline>
J2VwaWtfYXBwJywgJy1pbWFlJywgJ2xpZ2FuZF9wcm8ubWFlJywgJy1vbWFlJywgJ2xpZ2FuZF9wcmVwLm1hZScsICctbXMnLCAnMScsICctcGgnLCAnNycsICctcGh0JywgJzAuNScsICctbnQn

> <r_lp_tautomer_probability>
1

> <r_epik_Ionization_Penalty>
  0.0009

> <r_epik_Ionization_Penalty_Charging>
  0.0009

> <r_epik_Ionization_Penalty_Neutral>
  0.0000

> <r_epik_State_Penalty>
 -0.0000

> <r_epik_Charging_Adjusted_Penalty>
0.000943638328079749

> <i_epik_Tot_Q>
-2

> <i_epik_Tot_abs_Q>
2

$$$$
