4uco_ligand
                    3D
 Schrodinger Suite 2020-3.
 40 42  0  0  1  0            999 V2000
  112.1760   85.9380   28.5990 O   0  0  0  0  0  0
  111.6810   87.0460   28.8500 C   0  0  0  0  0  0
  111.7880   87.6090   30.0520 N   0  0  0  0  0  0
  110.9240   87.7780   27.7810 C   0  0  0  0  0  0
  110.8070   89.1440   27.8220 C   0  0  0  0  0  0
  110.3120   87.0760   26.6010 C   0  0  0  0  0  0
  110.4050   85.7440   26.5170 N   0  0  0  0  0  0
  109.6350   87.7190   25.6560 N   0  0  0  0  0  0
  109.5220   89.0770   25.7500 C   0  0  0  0  0  0
  108.8280   89.6620   24.7300 N   0  0  0  0  0  0
  108.6930   90.9840   24.8160 C   0  0  0  0  0  0
  107.8840   91.6220   23.6530 C   0  0  0  0  0  0
  107.8080   93.1510   23.7510 C   0  0  0  0  0  0
  106.4490   91.0710   23.6180 C   0  0  0  0  0  0
  108.5400   91.2760   22.3110 C   0  0  0  0  0  0
  110.0750   89.8250   26.8210 C   0  0  0  0  0  0
  109.8500   91.2430   26.7680 C   0  0  0  0  0  0
  109.1660   91.8080   25.7550 N   0  0  0  0  0  0
  110.3360   92.2470   27.7240 C   0  0  0  0  0  0
  110.0330   93.5580   27.4480 N   0  0  0  0  0  0
  110.5670   94.3630   28.4000 C   0  0  0  0  0  0
  111.2080   93.5840   29.3150 C   0  0  0  0  0  0
  111.1030   92.2520   28.8780 C   0  0  0  0  0  0
  112.3375   87.0939   30.8537 H   0  0  0  0  0  0
  111.3269   88.5892   30.2433 H   0  0  0  0  0  0
  111.2791   89.7062   28.6277 H   0  0  0  0  0  0
  110.9586   85.1819   27.2835 H   0  0  0  0  0  0
  109.9279   85.2110   25.6814 H   0  0  0  0  0  0
  107.3407   93.4344   24.7056 H   0  0  0  0  0  0
  107.2061   93.5423   22.9176 H   0  0  0  0  0  0
  108.8227   93.5726   23.7001 H   0  0  0  0  0  0
  105.9446   91.3011   24.5681 H   0  0  0  0  0  0
  106.4782   89.9810   23.4729 H   0  0  0  0  0  0
  105.8976   91.5368   22.7880 H   0  0  0  0  0  0
  109.5723   91.6559   22.2987 H   0  0  0  0  0  0
  107.9688   91.7398   21.4933 H   0  0  0  0  0  0
  108.5495   90.1841   22.1783 H   0  0  0  0  0  0
  110.4952   95.4503   28.4281 H   0  0  0  0  0  0
  111.7410   93.8161   30.2489 H   0  0  0  0  0  0
  111.5927   91.4468   29.4453 H   0  0  0  0  0  0
  1  2  2  0  0  0
  2  3  1  0  0  0
  2  4  1  0  0  0
  3 24  1  0  0  0
  3 25  1  0  0  0
  4  5  2  0  0  0
  4  6  1  0  0  0
  5 16  1  0  0  0
  5 26  1  0  0  0
  6  7  1  0  0  0
  6  8  2  0  0  0
  7 27  1  0  0  0
  7 28  1  0  0  0
  8  9  1  0  0  0
  9 10  1  0  0  0
  9 16  2  0  0  0
 10 11  2  0  0  0
 11 12  1  0  0  0
 11 18  1  0  0  0
 12 13  1  0  0  0
 12 14  1  0  0  0
 12 15  1  0  0  0
 13 29  1  0  0  0
 13 30  1  0  0  0
 13 31  1  0  0  0
 14 32  1  0  0  0
 14 33  1  0  0  0
 14 34  1  0  0  0
 15 35  1  0  0  0
 15 36  1  0  0  0
 15 37  1  0  0  0
 16 17  1  0  0  0
 17 18  2  0  0  0
 17 19  1  0  0  0
 19 20  2  0  0  0
 19 23  1  0  0  0
 20 21  1  0  0  0
 21 22  1  0  0  0
 21 38  1  0  0  0
 22 23  2  0  0  0
 22 39  1  0  0  0
 23 40  1  0  0  0
M  END
> <s_m_source_file>
../4uco_ligand.sdf

> <i_m_source_file_index>
1

> <s_epik_input>
Tz1DKFtOSDJdKWMoYyhuMSlbTkgyXSlbY0hdYyhjMTIpYyhuYyhuMilDKFtDSDNdKShbQ0gzXSlbQ0gzXSlDMz1OW0NIMl1bQ0hdPVtDSF0z

> <s_epik_cmdline>
J2VwaWtfYXBwJywgJy1pbWFlJywgJ2xpZ2FuZF9wcm8ubWFlJywgJy1vbWFlJywgJ2xpZ2FuZF9wcmVwLm1hZScsICctbXMnLCAnMScsICctcGgnLCAnNycsICctcGh0JywgJzAuNScsICctbnQn

> <r_lp_tautomer_probability>
1

> <r_epik_Ionization_Penalty>
  0.0001

> <r_epik_Ionization_Penalty_Charging>
  0.0000

> <r_epik_Ionization_Penalty_Neutral>
  0.0001

> <r_epik_State_Penalty>
 -0.0000

> <r_epik_Charging_Adjusted_Penalty>
0

> <i_epik_Tot_Q>
0

> <i_epik_Tot_abs_Q>
0

> <s_epik_Chemistry_Notes>
This compound has an imine and may undergo hydrolysis. This compound contains an electron-poor aromatic ring that is susceptible to covalent hydrolysis at low pH, typically resulting in measured values for nitrogen ring protonation that are around two units higher than predicted values.

$$$$
