4ucr_ligand
                    3D
 Schrodinger Suite 2020-3.
 25 26  0  0  1  0            999 V2000
   17.3440   94.6070   14.9730 O   0  0  0  0  0  0
   18.5110   94.9750   15.1550 C   0  0  0  0  0  0
   19.1110   94.8600   16.3280 N   0  0  0  0  0  0
   19.2780   95.6120   14.0190 C   0  0  0  0  0  0
   20.6460   95.7470   14.0570 C   0  0  0  0  0  0
   18.5520   96.1030   12.9310 C   0  0  0  0  0  0
   19.1930   96.7450   11.8980 C   0  0  0  0  0  0
   18.4840   97.1600   10.8220 O   0  0  0  0  0  0
   20.6060   96.9100   11.9220 C   0  0  0  0  0  0
   21.3360   96.4130   13.0260 C   0  0  0  0  0  0
   22.7390   96.5610   12.9880 C   0  0  0  0  0  0
   23.3320   97.1720   11.9240 C   0  0  0  0  0  0
   21.2200   97.5130   10.8440 N   0  0  0  0  0  0
   22.5440   97.6350   10.8540 C   0  0  0  0  0  0
   23.1700   98.3610    9.7000 C   0  0  0  0  0  0
   18.5798   94.4010   17.1748 H   0  0  0  0  0  0
   20.1412   95.2234   16.4568 H   0  0  0  0  0  0
   21.2039   95.3327   14.8968 H   0  0  0  0  0  0
   17.4698   95.9762   12.9009 H   0  0  0  0  0  0
   17.3915   97.0335   10.8011 H   0  0  0  0  0  0
   23.3487   96.1864   13.8102 H   0  0  0  0  0  0
   24.4140   97.3018   11.9018 H   0  0  0  0  0  0
   24.2615   98.3894    9.8333 H   0  0  0  0  0  0
   22.7789   99.3882    9.6575 H   0  0  0  0  0  0
   22.9285   97.8376    8.7631 H   0  0  0  0  0  0
  1  2  2  0  0  0
  2  3  1  0  0  0
  2  4  1  0  0  0
  3 16  1  0  0  0
  3 17  1  0  0  0
  4  5  2  0  0  0
  4  6  1  0  0  0
  5 10  1  0  0  0
  5 18  1  0  0  0
  6  7  2  0  0  0
  6 19  1  0  0  0
  7  8  1  0  0  0
  7  9  1  0  0  0
  8 20  1  0  0  0
  9 10  2  0  0  0
  9 13  1  0  0  0
 10 11  1  0  0  0
 11 12  2  0  0  0
 11 21  1  0  0  0
 12 14  1  0  0  0
 12 22  1  0  0  0
 13 14  2  0  0  0
 14 15  1  0  0  0
 15 23  1  0  0  0
 15 24  1  0  0  0
 15 25  1  0  0  0
M  END
> <s_m_source_file>
../4ucr_ligand.sdf

> <i_m_source_file_index>
1

> <s_epik_input>
W09IXWMxW2NIXWMoQyg9TylbTkgyXSlbY0hdYyhjMTIpW2NIXVtjSF1jKG4yKVtDSDNd

> <s_epik_cmdline>
J2VwaWtfYXBwJywgJy1pbWFlJywgJ2xpZ2FuZF9wcm8ubWFlJywgJy1vbWFlJywgJ2xpZ2FuZF9wcmVwLm1hZScsICctbXMnLCAnMScsICctcGgnLCAnNycsICctcGh0JywgJzAuNScsICctbnQn

> <r_epik_Ionization_Penalty>
  0.0805

> <r_epik_Ionization_Penalty_Charging>
  0.0000

> <r_epik_Ionization_Penalty_Neutral>
  0.0805

> <r_epik_State_Penalty>
  0.0691

> <r_epik_Charging_Adjusted_Penalty>
0.0691358317107772

> <i_epik_Tot_Q>
0

> <i_epik_Tot_abs_Q>
0

$$$$
