4ucs_ligand
                    3D
 Schrodinger Suite 2020-3.
 21 22  0  0  1  0            999 V2000
   18.1970   94.0110   14.4650 C   0  0  0  0  0  0
   19.0990   93.8310   15.4280 N   0  0  0  0  0  0
   17.0210   93.5820   14.4980 O   0  0  0  0  0  0
   19.9300   95.7290   12.0180 C   0  0  0  0  0  0
   18.6590   94.6840   13.3370 N   0  0  0  0  0  0
   21.0120   96.9220   10.2270 O   0  0  0  0  0  0
   17.9360   95.0350   12.2100 C   0  0  0  0  0  0
   19.9510   95.1450   13.2090 N   0  0  0  0  0  0
   21.1170   96.3460   11.4610 C   0  0  0  0  0  0
   18.7270   95.6750   11.3380 N   0  0  0  0  0  0
   22.2620   97.4130    9.9230 C   0  0  0  0  0  0
   16.6480   94.7550   12.0350 N   0  0  0  0  0  0
   23.1070   97.1820   10.9160 C   0  0  0  0  0  0
   22.3830   96.4580   11.9160 C   0  0  0  0  0  0
   18.8179   93.3083   16.3542 H   0  0  0  0  0  0
   20.1252   94.2050   15.2973 H   0  0  0  0  0  0
   22.5201   97.9213    8.9939 H   0  0  0  0  0  0
   16.0894   94.2227   12.8190 H   0  0  0  0  0  0
   16.1410   95.0557   11.1062 H   0  0  0  0  0  0
   24.1530   97.4850   10.9628 H   0  0  0  0  0  0
   22.7756   96.0736   12.8574 H   0  0  0  0  0  0
  1  2  1  0  0  0
  1  3  2  0  0  0
  1  5  1  0  0  0
  2 15  1  0  0  0
  2 16  1  0  0  0
  4  8  2  0  0  0
  4  9  1  0  0  0
  4 10  1  0  0  0
  5  7  1  0  0  0
  5  8  1  0  0  0
  6  9  1  0  0  0
  6 11  1  0  0  0
  7 10  2  0  0  0
  7 12  1  0  0  0
  9 14  2  0  0  0
 11 13  2  0  0  0
 11 17  1  0  0  0
 12 18  1  0  0  0
 12 19  1  0  0  0
 13 14  1  0  0  0
 13 20  1  0  0  0
 14 21  1  0  0  0
M  END
> <s_m_source_file>
../4ucs_ligand.sdf

> <i_m_source_file_index>
1

> <s_epik_input>
W05IMl1DKD1PKW4oYyhuMSlbTkgyXSluYzEtYzJvW2NIXVtjSF1bY0hdMg==

> <s_epik_cmdline>
J2VwaWtfYXBwJywgJy1pbWFlJywgJ2xpZ2FuZF9wcm8ubWFlJywgJy1vbWFlJywgJ2xpZ2FuZF9wcmVwLm1hZScsICctbXMnLCAnMScsICctcGgnLCAnNycsICctcGh0JywgJzAuNScsICctbnQn

> <r_lp_tautomer_probability>
1

> <r_epik_Ionization_Penalty>
  0.0007

> <r_epik_Ionization_Penalty_Charging>
  0.0000

> <r_epik_Ionization_Penalty_Neutral>
  0.0007

> <r_epik_State_Penalty>
 -0.0000

> <r_epik_Charging_Adjusted_Penalty>
0

> <i_epik_Tot_Q>
0

> <i_epik_Tot_abs_Q>
0

$$$$
