4uct_ligand
                    3D
 Schrodinger Suite 2020-3.
 28 29  0  0  1  0            999 V2000
  112.2840   87.3200   26.4630 N   0  0  0  0  0  0
  112.0320   88.6310   26.4420 C   0  0  0  0  0  0
  112.2620   89.4730   27.4130 N   0  0  0  0  0  0
  111.8400   90.7110   26.9450 N   0  0  0  0  0  0
  111.8510   91.9210   27.5480 C   0  0  0  0  0  0
  111.5040   89.2540   25.3540 N   0  0  0  0  0  0
  111.3440   90.5820   25.6320 C   0  0  0  0  0  0
  110.8620   91.5890   24.9130 N   0  0  0  0  0  0
  110.8840   92.7730   25.5130 C   0  0  0  0  0  0
  111.3810   93.0000   26.8170 C   0  0  0  0  0  0
  111.3600   94.3550   27.4760 C   0  0  0  0  0  0
  110.4070   93.8600   24.8690 O   0  0  0  0  0  0
  109.8250   93.8770   23.5220 C   0  0  0  0  0  0
  109.5490   95.3210   23.2450 C   0  0  0  0  0  0
  108.5460   93.0490   23.4480 C   0  0  0  0  0  0
  112.7116   86.8565   27.3643 H   0  0  0  0  0  0
  112.0640   86.7034   25.5790 H   0  0  0  0  0  0
  112.2150   92.0427   28.5682 H   0  0  0  0  0  0
  111.7983   94.2802   28.4821 H   0  0  0  0  0  0
  110.3214   94.7088   27.5539 H   0  0  0  0  0  0
  111.9450   95.0651   26.8730 H   0  0  0  0  0  0
  110.5311   93.4423   22.7992 H   0  0  0  0  0  0
  110.4874   95.8918   23.3052 H   0  0  0  0  0  0
  108.8365   95.7073   23.9887 H   0  0  0  0  0  0
  109.1202   95.4256   22.2374 H   0  0  0  0  0  0
  108.7795   91.9943   23.6555 H   0  0  0  0  0  0
  108.1100   93.1370   22.4419 H   0  0  0  0  0  0
  107.8263   93.4187   24.1932 H   0  0  0  0  0  0
  1  2  1  0  0  0
  1 16  1  0  0  0
  1 17  1  0  0  0
  2  3  2  0  0  0
  2  6  1  0  0  0
  3  4  1  0  0  0
  4  5  1  0  0  0
  4  7  1  0  0  0
  5 10  2  0  0  0
  5 18  1  0  0  0
  6  7  2  0  0  0
  7  8  1  0  0  0
  8  9  2  0  0  0
  9 10  1  0  0  0
  9 12  1  0  0  0
 10 11  1  0  0  0
 11 19  1  0  0  0
 11 20  1  0  0  0
 11 21  1  0  0  0
 12 13  1  0  0  0
 13 14  1  0  0  0
 13 15  1  0  0  0
 13 22  1  0  0  0
 14 23  1  0  0  0
 14 24  1  0  0  0
 14 25  1  0  0  0
 15 26  1  0  0  0
 15 27  1  0  0  0
 15 28  1  0  0  0
M  END
> <s_m_source_file>
../4uct_ligand.sdf

> <i_m_source_file_index>
1

> <s_epik_input>
W05IMl1jKG4xKW5jKG4xMiluYyhjKFtjSF0yKVtDSDNdKU9bQ0hdKFtDSDNdKVtDSDNd

> <s_epik_cmdline>
J2VwaWtfYXBwJywgJy1pbWFlJywgJ2xpZ2FuZF9wcm8ubWFlJywgJy1vbWFlJywgJ2xpZ2FuZF9wcmVwLm1hZScsICctbXMnLCAnMScsICctcGgnLCAnNycsICctcGh0JywgJzAuNScsICctbnQn

> <r_lp_tautomer_probability>
1

> <r_epik_Ionization_Penalty>
  0.0001

> <r_epik_Ionization_Penalty_Charging>
  0.0000

> <r_epik_Ionization_Penalty_Neutral>
  0.0001

> <r_epik_State_Penalty>
 -0.0000

> <r_epik_Charging_Adjusted_Penalty>
0

> <i_epik_Tot_Q>
0

> <i_epik_Tot_abs_Q>
0

$$$$
