4ucu_ligand
                    3D
 Schrodinger Suite 2020-3.
 20 21  0  0  1  0            999 V2000
  110.7380   96.0760   22.8540 O   0  0  0  0  0  0
  111.0010   94.8990   23.1150 C   0  0  0  0  0  0
  110.8690   93.9270   22.2560 O   0  5  0  0  0  0
  111.5030   94.4670   24.4680 C   0  0  0  0  0  0
  111.7460   93.1740   24.6170 N   0  0  0  0  0  0
  112.2060   92.7420   25.8320 C   0  0  0  0  0  0
  112.4020   93.6190   26.9270 C   0  0  0  0  0  0
  112.8500   93.0730   28.1570 C   0  0  0  0  0  0
  113.0910   91.7320   28.2800 C   0  0  0  0  0  0
  112.9080   90.8720   27.2070 C   0  0  0  0  0  0
  112.4600   91.3530   25.9960 C   0  0  0  0  0  0
  112.2330   90.5160   24.9510 O   0  0  0  0  0  0
  112.1220   94.9860   26.7000 C   0  0  0  0  0  0
  111.6830   95.4100   25.4810 C   0  0  0  0  0  0
  113.0040   93.7291   29.0137 H   0  0  0  0  0  0
  113.4319   91.3333   29.2354 H   0  0  0  0  0  0
  113.1199   89.8091   27.3226 H   0  0  0  0  0  0
  111.8754   90.9183   23.9917 H   0  0  0  0  0  0
  112.2582   95.7068   27.5062 H   0  0  0  0  0  0
  111.4766   96.4650   25.3010 H   0  0  0  0  0  0
  1  2  2  0  0  0
  2  3  1  0  0  0
  2  4  1  0  0  0
  4  5  2  0  0  0
  4 14  1  0  0  0
  5  6  1  0  0  0
  6  7  2  0  0  0
  6 11  1  0  0  0
  7  8  1  0  0  0
  7 13  1  0  0  0
  8  9  2  0  0  0
  8 15  1  0  0  0
  9 10  1  0  0  0
  9 16  1  0  0  0
 10 11  2  0  0  0
 10 17  1  0  0  0
 11 12  1  0  0  0
 12 18  1  0  0  0
 13 14  2  0  0  0
 13 19  1  0  0  0
 14 20  1  0  0  0
M  CHG  1   3  -1
M  END
> <s_m_source_file>
../4ucu_ligand.sdf

> <i_m_source_file_index>
1

> <s_epik_input>
Tz1DKFtPSF0pYyhuMSlbY0hdW2NIXWMoYzEyKVtjSF1bY0hdW2NIXWMyW09IXQ==

> <s_epik_cmdline>
J2VwaWtfYXBwJywgJy1pbWFlJywgJ2xpZ2FuZF9wcm8ubWFlJywgJy1vbWFlJywgJ2xpZ2FuZF9wcmVwLm1hZScsICctbXMnLCAnMScsICctcGgnLCAnNycsICctcGh0JywgJzAuNScsICctbnQn

> <r_lp_tautomer_probability>
1

> <r_epik_Ionization_Penalty>
  0.0358

> <r_epik_Ionization_Penalty_Charging>
  0.0003

> <r_epik_Ionization_Penalty_Neutral>
  0.0355

> <r_epik_State_Penalty>
 -0.0000

> <r_epik_Charging_Adjusted_Penalty>
0.000284487210824075

> <i_epik_Tot_Q>
-1

> <i_epik_Tot_abs_Q>
1

$$$$
