4ucv_ligand
                    3D
 Schrodinger Suite 2020-3.
 27 28  0  0  1  0            999 V2000
  112.0490   89.7050   25.0020 O   0  0  0  0  0  0
  112.3290   90.6750   25.9090 C   0  0  0  0  0  0
  113.0280   90.3760   27.0610 C   0  0  0  0  0  0
  113.3390   91.3650   27.9840 C   0  0  0  0  0  0
  111.9720   92.0220   25.6270 C   0  0  0  0  0  0
  112.2510   93.0120   26.5700 C   0  0  0  0  0  0
  112.9240   92.6650   27.7800 C   0  0  0  0  0  0
  113.2400   93.7200   28.5880 O   0  0  0  0  0  0
  114.4100   93.6200   29.4030 C   0  0  0  0  0  0
  111.8550   94.3040   26.3590 N   0  0  0  0  0  0
  111.1840   94.5780   25.2570 C   0  0  0  0  0  0
  110.7640   96.0010   25.0460 C   0  0  0  0  0  0
  110.8650   93.5390   24.3040 C   0  0  0  0  0  0
  111.2390   92.2910   24.5130 N   0  0  0  0  0  0
  110.0860   93.8190   23.0550 C   0  0  0  0  0  0
  112.3217   88.6603   25.2121 H   0  0  0  0  0  0
  113.3402   89.3487   27.2486 H   0  0  0  0  0  0
  113.9143   91.1132   28.8749 H   0  0  0  0  0  0
  114.5271   94.5422   29.9911 H   0  0  0  0  0  0
  115.2926   93.4795   28.7617 H   0  0  0  0  0  0
  114.3106   92.7614   30.0834 H   0  0  0  0  0  0
  111.1113   96.6148   25.8901 H   0  0  0  0  0  0
  109.6672   96.0538   24.9811 H   0  0  0  0  0  0
  111.2052   96.3788   24.1119 H   0  0  0  0  0  0
  109.8414   94.8904   23.0079 H   0  0  0  0  0  0
  109.1566   93.2307   23.0629 H   0  0  0  0  0  0
  110.6882   93.5414   22.1773 H   0  0  0  0  0  0
  1  2  1  0  0  0
  1 16  1  0  0  0
  2  3  2  0  0  0
  2  5  1  0  0  0
  3  4  1  0  0  0
  3 17  1  0  0  0
  4  7  2  0  0  0
  4 18  1  0  0  0
  5  6  2  0  0  0
  5 14  1  0  0  0
  6  7  1  0  0  0
  6 10  1  0  0  0
  7  8  1  0  0  0
  8  9  1  0  0  0
  9 19  1  0  0  0
  9 20  1  0  0  0
  9 21  1  0  0  0
 10 11  2  0  0  0
 11 12  1  0  0  0
 11 13  1  0  0  0
 12 22  1  0  0  0
 12 23  1  0  0  0
 12 24  1  0  0  0
 13 14  2  0  0  0
 13 15  1  0  0  0
 15 25  1  0  0  0
 15 26  1  0  0  0
 15 27  1  0  0  0
M  END
> <s_m_source_file>
../4ucv_ligand.sdf

> <i_m_source_file_index>
1

> <s_epik_input>
W09IXWMxW2NIXVtjSF1jKE9bQ0gzXSljKGMxMiluYyhbQ0gzXSljKG4yKVtDSDNd

> <s_epik_cmdline>
J2VwaWtfYXBwJywgJy1pbWFlJywgJ2xpZ2FuZF9wcm8ubWFlJywgJy1vbWFlJywgJ2xpZ2FuZF9wcmVwLm1hZScsICctbXMnLCAnMScsICctcGgnLCAnNycsICctcGh0JywgJzAuNScsICctbnQn

> <r_epik_Ionization_Penalty>
  0.0508

> <r_epik_Ionization_Penalty_Charging>
  0.0000

> <r_epik_Ionization_Penalty_Neutral>
  0.0508

> <r_epik_State_Penalty>
  0.0434

> <r_epik_Charging_Adjusted_Penalty>
0.043444415926174

> <i_epik_Tot_Q>
0

> <i_epik_Tot_abs_Q>
0

$$$$
