4uda_ligand
                    3D
 Schrodinger Suite 2020-3.
 57 60  0  0  1  0            999 V2000
    0.0550  -15.1190    1.3980 C   0  0  0  0  0  0
    1.3910  -15.0480    1.4260 C   0  0  0  0  0  0
    2.0620  -14.2380    0.3930 C   0  0  0  0  0  0
    1.2600  -13.6140   -0.6960 C   0  0  0  0  0  0
   -0.0810  -13.7380   -0.6850 C   0  0  0  0  0  0
   -0.8820  -13.1230   -1.8080 C   0  0  0  0  0  0
   -1.9490  -14.0680   -2.3530 C   0  0  0  0  0  0
   -2.7230  -14.7540   -1.2310 C   0  0  2  0  0  0
   -1.7740  -15.4790   -0.2500 C   0  0  1  0  0  0
   -0.8450  -14.4320    0.4170 C   0  0  1  0  0  0
   -2.4870  -16.4490    0.7260 C   0  0  2  0  0  0
   -3.5790  -17.2960    0.0870 C   0  0  0  0  0  0
   -4.5930  -16.4490   -0.6860 C   0  0  1  0  0  0
   -3.8270  -15.6750   -1.7510 C   0  0  1  0  0  0
   -4.8850  -15.1310   -2.6830 C   0  0  0  0  0  0
   -5.9860  -16.1730   -2.6330 C   0  0  2  0  0  0
   -5.5800  -17.2240   -1.5750 C   0  0  2  0  0  0
   -5.3700  -15.5430    0.2890 C   0  0  0  0  0  0
   -1.5430  -13.3330    1.2290 C   0  0  0  0  0  0
   -6.7370  -17.8250   -0.7750 C   0  0  0  0  0  0
   -6.5220  -19.1180   -0.0200 C   0  0  0  0  0  0
   -6.2540  -16.6660   -4.0430 C   0  0  0  0  0  0
   -1.0010  -16.3300   -1.0110 F   0  0  0  0  0  0
    3.2810  -14.1310    0.4280 O   0  0  0  0  0  0
   -3.0270  -15.8010    1.8720 O   0  0  0  0  0  0
   -4.9430  -18.3420   -2.2100 O   0  0  0  0  0  0
   -7.8390  -17.3050   -0.7130 O   0  0  0  0  0  0
   -7.6110  -19.2500    0.8890 O   0  0  0  0  0  0
   -0.4793  -15.7257    2.1440 H   0  0  0  0  0  0
    1.9541  -15.5846    2.2038 H   0  0  0  0  0  0
    1.7541  -13.0555   -1.5047 H   0  0  0  0  0  0
   -1.3876  -12.2165   -1.4440 H   0  0  0  0  0  0
   -0.2088  -12.8595   -2.6370 H   0  0  0  0  0  0
   -2.6624  -13.4999   -2.9681 H   0  0  0  0  0  0
   -1.4713  -14.8445   -2.9685 H   0  0  0  0  0  0
   -3.2389  -13.9538   -0.6801 H   0  0  0  0  0  0
   -1.7021  -17.1075    1.1265 H   0  0  0  0  0  0
   -3.1251  -18.0100   -0.6160 H   0  0  0  0  0  0
   -4.1213  -17.8466    0.8698 H   0  0  0  0  0  0
   -3.1629  -16.3123   -2.3533 H   0  0  0  0  0  0
   -5.2249  -14.1501   -2.3192 H   0  0  0  0  0  0
   -4.4628  -15.0213   -3.6928 H   0  0  0  0  0  0
   -6.9623  -15.7774   -2.3162 H   0  0  0  0  0  0
   -4.6595  -14.9913    0.9221 H   0  0  0  0  0  0
   -6.0226  -16.1612    0.9230 H   0  0  0  0  0  0
   -5.9825  -14.8298   -0.2822 H   0  0  0  0  0  0
   -0.7880  -12.6538    1.6515 H   0  0  0  0  0  0
   -2.1215  -13.7912    2.0447 H   0  0  0  0  0  0
   -2.2199  -12.7662    0.5728 H   0  0  0  0  0  0
   -6.5019  -19.9581   -0.7298 H   0  0  0  0  0  0
   -5.5653  -19.0721    0.5209 H   0  0  0  0  0  0
   -6.5306  -15.8149   -4.6826 H   0  0  0  0  0  0
   -7.0776  -17.3949   -4.0262 H   0  0  0  0  0  0
   -5.3480  -17.1455   -4.4421 H   0  0  0  0  0  0
   -2.3930  -15.1374    2.4784 H   0  0  0  0  0  0
   -4.0668  -18.1820   -2.8555 H   0  0  0  0  0  0
   -7.6701  -20.1249    1.5531 H   0  0  0  0  0  0
  1  2  2  0  0  0
  1 10  1  0  0  0
  1 29  1  0  0  0
  2  3  1  0  0  0
  2 30  1  0  0  0
  3  4  1  0  0  0
  3 24  2  0  0  0
  4  5  2  0  0  0
  4 31  1  0  0  0
  5  6  1  0  0  0
  5 10  1  0  0  0
  6  7  1  0  0  0
  6 32  1  0  0  0
  6 33  1  0  0  0
  7  8  1  0  0  0
  7 34  1  0  0  0
  7 35  1  0  0  0
  8  9  1  0  0  0
  8 14  1  0  0  0
  8 36  1  0  0  0
  9 10  1  0  0  0
  9 11  1  0  0  0
  9 23  1  0  0  0
 10 19  1  0  0  0
 11 12  1  0  0  0
 11 25  1  0  0  0
 11 37  1  0  0  0
 12 13  1  0  0  0
 12 38  1  0  0  0
 12 39  1  0  0  0
 13 14  1  0  0  0
 13 17  1  0  0  0
 13 18  1  0  0  0
 14 15  1  0  0  0
 14 40  1  0  0  0
 15 16  1  0  0  0
 15 41  1  0  0  0
 15 42  1  0  0  0
 16 17  1  0  0  0
 16 22  1  0  0  0
 16 43  1  0  0  0
 17 20  1  0  0  0
 17 26  1  0  0  0
 18 44  1  0  0  0
 18 45  1  0  0  0
 18 46  1  0  0  0
 19 47  1  0  0  0
 19 48  1  0  0  0
 19 49  1  0  0  0
 20 21  1  0  0  0
 20 27  2  0  0  0
 21 28  1  0  0  0
 21 50  1  0  0  0
 21 51  1  0  0  0
 22 52  1  0  0  0
 22 53  1  0  0  0
 22 54  1  0  0  0
 25 55  1  0  0  0
 26 56  1  0  0  0
 28 57  1  0  0  0
M  END
> <s_m_source_file>
../4uda_ligand.sdf

> <i_m_source_file_index>
1

> <s_epik_input>
W0NIXT0xQyg9TylbQ0hdPVtDSF1bQ0BAXTIoW0NIM10pQzFbQ0gyXVtDSDJdW0NASF0oW0NAQF0yM0YpW0NASF00W0NAXShbQ0gzXSkoW0NIMl1bQ0BASF0zW09IXSlbQ0BdKFtPSF0pKFtDQEBIXShbQ0gyXTQpW0NIM10pQyg9TylbQ0gyXVtPSF0=

> <s_epik_cmdline>
J2VwaWtfYXBwJywgJy1pbWFlJywgJ2xpZ2FuZF9wcm8ubWFlJywgJy1vbWFlJywgJ2xpZ2FuZF9wcmVwLm1hZScsICctbXMnLCAnMScsICctcGgnLCAnNycsICctcGh0JywgJzAuNScsICctbnQn

> <r_lp_tautomer_probability>
1

> <r_epik_Ionization_Penalty>
  0.0000

> <r_epik_Ionization_Penalty_Charging>
  0.0000

> <r_epik_Ionization_Penalty_Neutral>
  0.0000

> <r_epik_State_Penalty>
 -0.0000

> <r_epik_Charging_Adjusted_Penalty>
0

> <i_epik_Tot_Q>
0

> <i_epik_Tot_abs_Q>
0

$$$$
