4udb_ligand
                    3D
 Schrodinger Suite 2020-3.
 72 77  0  0  1  0            999 V2000
  -25.7680    1.4550    1.4950 C   0  0  0  0  0  0
  -27.1310    1.5260    2.2100 C   0  0  2  0  0  0
  -28.2830    1.7540    1.2250 C   0  0  0  0  0  0
  -28.2380    3.1190    0.5490 C   0  0  1  0  0  0
  -28.1190    4.3110    1.5230 C   0  0  1  0  0  0
  -27.1220    4.0770    2.6920 C   0  0  2  0  0  0
  -27.2150    2.6480    3.2410 C   0  0  2  0  0  0
  -26.3440    2.1580    4.3820 C   0  0  0  0  0  0
  -26.5520    0.6450    4.3840 C   0  0  2  0  0  0
  -27.3040    0.2860    3.1070 C   0  0  1  0  0  0
  -28.6720    0.0860    3.5160 O   0  0  0  0  0  0
  -28.6310   -0.2130    4.9070 C   0  0  1  0  0  0
  -27.4210    0.2950    5.4560 O   0  0  0  0  0  0
  -29.7380    0.4350    5.6980 C   0  0  0  0  0  0
  -30.7070    1.2700    4.8990 C   0  0  0  0  0  0
  -31.6900    1.9710    5.8180 C   0  0  0  0  0  0
  -32.3910    1.0030    6.7450 C   0  0  0  0  0  0
  -31.4090    0.1060    7.4750 C   0  0  0  0  0  0
  -30.4870   -0.6020    6.5010 C   0  0  0  0  0  0
  -26.8080   -1.0270    2.5000 C   0  0  0  0  0  0
  -25.7210   -1.4950    2.8020 O   0  0  0  0  0  0
  -27.6940   -1.7740    1.5230 C   0  0  0  0  0  0
  -26.8740   -2.6100    0.7060 O   0  0  0  0  0  0
  -27.3850    5.1320    3.7740 C   0  0  0  0  0  0
  -27.2790    6.5600    3.2370 C   0  0  0  0  0  0
  -28.0800    6.7080    1.9790 C   0  0  0  0  0  0
  -28.9730    7.7010    1.8980 C   0  0  0  0  0  0
  -29.8050    7.8390    0.6680 C   0  0  0  0  0  0
  -30.5930    8.7610    0.5510 O   0  0  0  0  0  0
  -29.7120    6.8360   -0.4170 C   0  0  0  0  0  0
  -28.8050    5.8650   -0.2690 C   0  0  0  0  0  0
  -27.8590    5.6950    0.8830 C   0  0  2  0  0  0
  -26.4550    5.9080    0.2970 C   0  0  0  0  0  0
  -27.2200    3.0930   -0.4550 O   0  0  0  0  0  0
  -25.6436    2.3403    0.8541 H   0  0  0  0  0  0
  -25.7250    0.5460    0.8770 H   0  0  0  0  0  0
  -24.9623    1.4280    2.2434 H   0  0  0  0  0  0
  -28.2449    0.9913    0.4333 H   0  0  0  0  0  0
  -29.2419    1.6806    1.7589 H   0  0  0  0  0  0
  -29.1733    3.2894   -0.0043 H   0  0  0  0  0  0
  -29.1429    4.3488    1.9234 H   0  0  0  0  0  0
  -26.0860    4.1842    2.3382 H   0  0  0  0  0  0
  -28.2167    2.8229    3.6606 H   0  0  0  0  0  0
  -25.2965    2.4316    4.1873 H   0  0  0  0  0  0
  -26.6757    2.6227    5.3222 H   0  0  0  0  0  0
  -25.6036    0.1054    4.5229 H   0  0  0  0  0  0
  -28.6778   -1.3113    4.9455 H   0  0  0  0  0  0
  -29.2248    1.1489    6.3590 H   0  0  0  0  0  0
  -30.1523    2.0273    4.3256 H   0  0  0  0  0  0
  -31.2652    0.6223    4.2069 H   0  0  0  0  0  0
  -31.1543    2.7084    6.4338 H   0  0  0  0  0  0
  -32.4545    2.4829    5.2152 H   0  0  0  0  0  0
  -32.9667    1.5652    7.4950 H   0  0  0  0  0  0
  -33.0721    0.3653    6.1624 H   0  0  0  0  0  0
  -30.7980    0.7122    8.1600 H   0  0  0  0  0  0
  -31.9618   -0.6517    8.0498 H   0  0  0  0  0  0
  -31.0773   -1.2352    5.8223 H   0  0  0  0  0  0
  -29.7695   -1.2263    7.0537 H   0  0  0  0  0  0
  -28.4163   -2.3892    2.0796 H   0  0  0  0  0  0
  -28.2353   -1.0525    0.8934 H   0  0  0  0  0  0
  -27.3321   -3.2384   -0.0720 H   0  0  0  0  0  0
  -28.3987    4.9968    4.1792 H   0  0  0  0  0  0
  -26.6485    5.0188    4.5832 H   0  0  0  0  0  0
  -27.6625    7.2643    3.9899 H   0  0  0  0  0  0
  -26.2261    6.7929    3.0199 H   0  0  0  0  0  0
  -29.0884    8.4065    2.7341 H   0  0  0  0  0  0
  -30.3469    6.8634   -1.3149 H   0  0  0  0  0  0
  -28.7007    5.0876   -1.0402 H   0  0  0  0  0  0
  -25.7045    5.7969    1.0935 H   0  0  0  0  0  0
  -26.3866    6.9181   -0.1330 H   0  0  0  0  0  0
  -26.2687    5.1614   -0.4891 H   0  0  0  0  0  0
  -27.2065    2.2873   -1.2038 H   0  0  0  0  0  0
  1  2  1  0  0  0
  1 35  1  0  0  0
  1 36  1  0  0  0
  1 37  1  0  0  0
  2  3  1  0  0  0
  2  7  1  0  0  0
  2 10  1  0  0  0
  3  4  1  0  0  0
  3 38  1  0  0  0
  3 39  1  0  0  0
  4  5  1  0  0  0
  4 34  1  0  0  0
  4 40  1  0  0  0
  5  6  1  0  0  0
  5 32  1  0  0  0
  5 41  1  0  0  0
  6  7  1  0  0  0
  6 24  1  0  0  0
  6 42  1  0  0  0
  7  8  1  0  0  0
  7 43  1  0  0  0
  8  9  1  0  0  0
  8 44  1  0  0  0
  8 45  1  0  0  0
  9 10  1  0  0  0
  9 13  1  0  0  0
  9 46  1  0  0  0
 10 11  1  0  0  0
 10 20  1  0  0  0
 11 12  1  0  0  0
 12 13  1  0  0  0
 12 14  1  0  0  0
 12 47  1  0  0  0
 14 15  1  0  0  0
 14 19  1  0  0  0
 14 48  1  0  0  0
 15 16  1  0  0  0
 15 49  1  0  0  0
 15 50  1  0  0  0
 16 17  1  0  0  0
 16 51  1  0  0  0
 16 52  1  0  0  0
 17 18  1  0  0  0
 17 53  1  0  0  0
 17 54  1  0  0  0
 18 19  1  0  0  0
 18 55  1  0  0  0
 18 56  1  0  0  0
 19 57  1  0  0  0
 19 58  1  0  0  0
 20 21  2  0  0  0
 20 22  1  0  0  0
 22 23  1  0  0  0
 22 59  1  0  0  0
 22 60  1  0  0  0
 23 61  1  0  0  0
 24 25  1  0  0  0
 24 62  1  0  0  0
 24 63  1  0  0  0
 25 26  1  0  0  0
 25 64  1  0  0  0
 25 65  1  0  0  0
 26 27  2  0  0  0
 26 32  1  0  0  0
 27 28  1  0  0  0
 27 66  1  0  0  0
 28 29  2  0  0  0
 28 30  1  0  0  0
 30 31  2  0  0  0
 30 67  1  0  0  0
 31 32  1  0  0  0
 31 68  1  0  0  0
 32 33  1  0  0  0
 33 69  1  0  0  0
 33 70  1  0  0  0
 33 71  1  0  0  0
 34 72  1  0  0  0
M  END
> <s_m_source_file>
../4udb_ligand.sdf

> <i_m_source_file_index>
1

> <s_epik_input>
W0NIXTE9W0NIXUMoPU8pW0NIXT1DKFtDSDJdW0NIMl0yKVtDQEBdMShbQ0gzXSlbQ0BASF0oW0NASF0oW0NIMl0zKVtPSF0pW0NAQEhdMltDQEBIXShbQ0BdMzRbQ0gzXSlbQ0gyXVtDQEBIXTVbQ0BAXTQoQyg9TylbQ0gyXVtPSF0pT1tDQEBIXShPNSlbQ0hdNltDSDJdW0NIMl1bQ0gyXVtDSDJdW0NIMl02

> <s_epik_cmdline>
J2VwaWtfYXBwJywgJy1pbWFlJywgJ2xpZ2FuZF9wcm8ubWFlJywgJy1vbWFlJywgJ2xpZ2FuZF9wcmVwLm1hZScsICctbXMnLCAnMScsICctcGgnLCAnNycsICctcGh0JywgJzAuNScsICctbnQn

> <r_lp_tautomer_probability>
1

> <r_epik_Ionization_Penalty>
  0.0000

> <r_epik_Ionization_Penalty_Charging>
  0.0000

> <r_epik_Ionization_Penalty_Neutral>
  0.0000

> <r_epik_State_Penalty>
 -0.0000

> <r_epik_Charging_Adjusted_Penalty>
0

> <i_epik_Tot_Q>
0

> <i_epik_Tot_abs_Q>
0

> <s_epik_Chemistry_Notes>
This compound contains an acetal/aminal-like group ( X-CH(R)-Y where X, Y are N, S, or O) that may be acid/base labile, releasing an aldehyde.

$$$$
