4ufj_ligand
                    3D
 Schrodinger Suite 2020-3.
 22 22  0  0  1  0            999 V2000
   75.9280   90.8550   19.7240 O   0  0  0  0  0  0
   76.9860   90.2920   19.4270 C   0  0  0  0  0  0
   78.0820   90.3150   20.4840 C   0  0  1  0  0  0
   77.5270   90.1090   21.7730 O   0  0  0  0  0  0
   79.1660   89.2790   20.2010 C   0  0  1  0  0  0
   78.6830   87.9810   20.5310 O   0  0  0  0  0  0
   79.5990   89.3380   18.7360 C   0  0  1  0  0  0
   80.7100   88.3550   18.4330 C   0  0  0  0  0  0
   81.2020   88.5400   17.1210 O   0  0  0  0  0  0
   78.4030   89.0370   17.8220 C   0  0  0  0  0  0
   77.1760   89.7290   18.2410 N   0  0  0  0  0  0
   78.5316   91.3181   20.5244 H   0  0  0  0  0  0
   76.7283   90.7703   22.1400 H   0  0  0  0  0  0
   80.0366   89.4348   20.8551 H   0  0  0  0  0  0
   78.3301   87.7684   21.5509 H   0  0  0  0  0  0
   79.9891   90.3494   18.5492 H   0  0  0  0  0  0
   81.5354   88.5037   19.1448 H   0  0  0  0  0  0
   80.3265   87.3282   18.5257 H   0  0  0  0  0  0
   82.0151   87.9026   16.7435 H   0  0  0  0  0  0
   78.6356   89.3583   16.7960 H   0  0  0  0  0  0
   78.1981   87.9563   17.8302 H   0  0  0  0  0  0
   76.3255   89.8088   17.5479 H   0  0  0  0  0  0
  1  2  2  0  0  0
  2  3  1  0  0  0
  2 11  1  0  0  0
  3  4  1  0  0  0
  3  5  1  0  0  0
  3 12  1  0  0  0
  4 13  1  0  0  0
  5  6  1  0  0  0
  5  7  1  0  0  0
  5 14  1  0  0  0
  6 15  1  0  0  0
  7  8  1  0  0  0
  7 10  1  0  0  0
  7 16  1  0  0  0
  8  9  1  0  0  0
  8 17  1  0  0  0
  8 18  1  0  0  0
  9 19  1  0  0  0
 10 11  1  0  0  0
 10 20  1  0  0  0
 10 21  1  0  0  0
 11 22  1  0  0  0
M  END
> <s_m_source_file>
../4ufj_ligand.sdf

> <i_m_source_file_index>
1

> <s_epik_input>
Tz1DMVtDQEBIXShbT0hdKVtDQEBIXShbT0hdKVtDQEBIXShbQ0gyXVtPSF0pW0NIMl1bTkhdMQ==

> <s_epik_cmdline>
J2VwaWtfYXBwJywgJy1pbWFlJywgJ2xpZ2FuZF9wcm8ubWFlJywgJy1vbWFlJywgJ2xpZ2FuZF9wcmVwLm1hZScsICctbXMnLCAnMScsICctcGgnLCAnNycsICctcGh0JywgJzAuNScsICctbnQn

> <r_lp_tautomer_probability>
1

> <r_epik_Ionization_Penalty>
  0.0000

> <r_epik_Ionization_Penalty_Charging>
  0.0000

> <r_epik_Ionization_Penalty_Neutral>
  0.0000

> <r_epik_State_Penalty>
 -0.0000

> <r_epik_Charging_Adjusted_Penalty>
0

> <i_epik_Tot_Q>
0

> <i_epik_Tot_abs_Q>
0

$$$$
