4ufl_ligand
                    3D
 Schrodinger Suite 2020-3.
 28 29  0  0  1  0            999 V2000
   80.7530   88.1080   16.9320 O   0  0  0  0  0  0
   80.0430   87.7450   18.0860 C   0  0  0  0  0  0
   79.0480   88.8960   18.3900 C   0  0  2  0  0  0
   78.7980   89.1420   19.9100 C   0  0  2  0  0  0
   78.8690   87.8940   20.5280 O   0  0  0  0  0  0
   77.4500   89.8000   20.3030 C   0  0  2  0  0  0
   77.1700   89.3350   21.5950 O   0  0  0  0  0  0
   76.3050   89.4370   19.3160 C   0  0  2  0  0  0
   76.1100   87.9140   19.2540 C   0  0  0  0  0  0
   76.9850   87.4240   18.0970 C   0  0  0  0  0  0
   77.7150   88.6900   17.6240 C   0  0  1  0  0  0
   76.7010   89.7390   17.9360 N   0  3  0  0  0  0
   81.5223   87.4352   16.5252 H   0  0  0  0  0  0
   79.5035   86.8039   17.9037 H   0  0  0  0  0  0
   80.7457   87.6089   18.9213 H   0  0  0  0  0  0
   79.5324   89.8113   18.0192 H   0  0  0  0  0  0
   79.5943   89.7902   20.3047 H   0  0  0  0  0  0
   79.7526   87.2560   20.3792 H   0  0  0  0  0  0
   77.5068   90.8966   20.3679 H   0  0  0  0  0  0
   77.8860   89.5132   22.4109 H   0  0  0  0  0  0
   75.4130   90.0056   19.6175 H   0  0  0  0  0  0
   76.4240   87.4650   20.2079 H   0  0  0  0  0  0
   75.0488   87.6872   19.0738 H   0  0  0  0  0  0
   77.6815   86.6558   18.4639 H   0  0  0  0  0  0
   76.3466   86.9947   17.3108 H   0  0  0  0  0  0
   77.9968   88.6975   16.5607 H   0  0  0  0  0  0
   75.8203   89.6768   17.2799 H   0  0  0  0  0  0
   77.1222   90.7541   17.8892 H   0  0  0  0  0  0
  1  2  1  0  0  0
  1 13  1  0  0  0
  2  3  1  0  0  0
  2 14  1  0  0  0
  2 15  1  0  0  0
  3  4  1  0  0  0
  3 11  1  0  0  0
  3 16  1  0  0  0
  4  5  1  0  0  0
  4  6  1  0  0  0
  4 17  1  0  0  0
  5 18  1  0  0  0
  6  7  1  0  0  0
  6  8  1  0  0  0
  6 19  1  0  0  0
  7 20  1  0  0  0
  8  9  1  0  0  0
  8 12  1  0  0  0
  8 21  1  0  0  0
  9 10  1  0  0  0
  9 22  1  0  0  0
  9 23  1  0  0  0
 10 11  1  0  0  0
 10 24  1  0  0  0
 10 25  1  0  0  0
 11 12  1  0  0  0
 11 26  1  0  0  0
 12 27  1  0  0  0
 12 28  1  0  0  0
M  CHG  1  12   1
M  END
> <s_m_source_file>
../4ufl_ligand.sdf

> <i_m_source_file_index>
1

> <s_epik_input>
W0NIMl0xW0NIMl1bQ0BASF0oW05IMitdMilbQ0BIXShbQ0gyXVtPSF0pW0NASF0oW09IXSlbQ0BIXShbT0hdKVtDQEhdMTI=

> <s_epik_cmdline>
J2VwaWtfYXBwJywgJy1pbWFlJywgJ2xpZ2FuZF9wcm8ubWFlJywgJy1vbWFlJywgJ2xpZ2FuZF9wcmVwLm1hZScsICctbXMnLCAnMScsICctcGgnLCAnNycsICctcGh0JywgJzAuNScsICctbnQn

> <r_lp_tautomer_probability>
1

> <r_epik_Ionization_Penalty>
  0.0004

> <r_epik_Ionization_Penalty_Charging>
  0.0004

> <r_epik_Ionization_Penalty_Neutral>
  0.0000

> <r_epik_State_Penalty>
 -0.0000

> <r_epik_Charging_Adjusted_Penalty>
0.00035573091660067

> <i_epik_Tot_Q>
1

> <i_epik_Tot_abs_Q>
1

$$$$
