4ufz_ligand
                    3D
 Schrodinger Suite 2020-3.
 38 40  0  0  1  0            999 V2000
  114.5310   88.3180   29.2710 N   0  0  0  0  0  0
  113.9740   89.0710   28.6260 C   0  0  0  0  0  0
  113.2980   89.9910   27.7570 C   0  0  0  0  0  0
  113.2530   91.3610   28.0980 C   0  0  0  0  0  0
  113.8110   91.8110   29.2690 N   0  0  0  0  0  0
  112.7620   89.5190   26.5290 C   0  0  0  0  0  0
  112.8190   88.2120   26.2030 N   0  0  0  0  0  0
  112.1590   90.3260   25.6660 N   0  0  0  0  0  0
  112.0800   91.6550   25.9570 C   0  0  0  0  0  0
  111.4410   92.3850   24.9990 N   0  0  0  0  0  0
  111.3370   93.6910   25.2180 C   0  0  0  0  0  0
  110.6130   94.5030   24.1360 C   0  0  0  0  0  0
  109.6200   93.7010   23.2880 C   0  0  0  0  0  0
  111.6950   95.0660   23.2100 C   0  0  0  0  0  0
  109.8400   95.6790   24.7530 C   0  0  0  0  0  0
  112.6170   92.2970   27.1860 C   0  0  0  0  0  0
  112.4130   93.7250   27.2280 C   0  0  0  0  0  0
  111.7930   94.3920   26.2450 N   0  0  0  0  0  0
  112.9000   94.5930   28.3210 C   0  0  0  0  0  0
  111.7100   95.5680   29.1150 S   0  0  0  0  0  0
  112.9480   96.2500   30.0850 C   0  0  0  0  0  0
  114.1390   95.7350   29.7470 C   0  0  0  0  0  0
  114.1320   94.8030   28.7320 N   0  0  0  0  0  0
  114.2918   91.1007   29.9577 H   0  0  0  0  0  0
  113.7772   92.8818   29.5185 H   0  0  0  0  0  0
  113.3072   87.4968   26.8813 H   0  0  0  0  0  0
  112.3773   87.8609   25.2588 H   0  0  0  0  0  0
  110.1376   92.8466   22.8274 H   0  0  0  0  0  0
  109.2055   94.3469   22.4999 H   0  0  0  0  0  0
  108.8042   93.3338   23.9280 H   0  0  0  0  0  0
  112.2593   94.2366   22.7588 H   0  0  0  0  0  0
  112.3794   95.7023   23.7902 H   0  0  0  0  0  0
  111.2234   95.6635   22.4159 H   0  0  0  0  0  0
  109.0573   95.2924   25.4223 H   0  0  0  0  0  0
  109.3767   96.2738   23.9520 H   0  0  0  0  0  0
  110.5327   96.3126   25.3264 H   0  0  0  0  0  0
  112.7897   96.9952   30.8645 H   0  0  0  0  0  0
  115.0598   96.0363   30.2464 H   0  0  0  0  0  0
  1  2  3  0  0  0
  2  3  1  0  0  0
  3  4  2  0  0  0
  3  6  1  0  0  0
  4  5  1  0  0  0
  4 16  1  0  0  0
  5 24  1  0  0  0
  5 25  1  0  0  0
  6  7  1  0  0  0
  6  8  2  0  0  0
  7 26  1  0  0  0
  7 27  1  0  0  0
  8  9  1  0  0  0
  9 10  1  0  0  0
  9 16  2  0  0  0
 10 11  2  0  0  0
 11 12  1  0  0  0
 11 18  1  0  0  0
 12 13  1  0  0  0
 12 14  1  0  0  0
 12 15  1  0  0  0
 13 28  1  0  0  0
 13 29  1  0  0  0
 13 30  1  0  0  0
 14 31  1  0  0  0
 14 32  1  0  0  0
 14 33  1  0  0  0
 15 34  1  0  0  0
 15 35  1  0  0  0
 15 36  1  0  0  0
 16 17  1  0  0  0
 17 18  2  0  0  0
 17 19  1  0  0  0
 19 20  1  0  0  0
 19 23  2  0  0  0
 20 21  1  0  0  0
 21 22  2  0  0  0
 21 37  1  0  0  0
 22 23  1  0  0  0
 22 38  1  0  0  0
M  END
> <s_m_source_file>
../4ufz_ligand.sdf

> <i_m_source_file_index>
1

> <s_epik_input>
TiNDYyhjKG4xKVtOSDJdKWMoW05IMl0pYyhjMTIpYyhuYyhuMilDKFtDSDNdKShbQ0gzXSlbQ0gzXSktYzNzW2NIXVtjSF1uMw==

> <s_epik_cmdline>
J2VwaWtfYXBwJywgJy1pbWFlJywgJ2xpZ2FuZF9wcm8ubWFlJywgJy1vbWFlJywgJ2xpZ2FuZF9wcmVwLm1hZScsICctbXMnLCAnMScsICctcGgnLCAnNycsICctcGh0JywgJzAuNScsICctbnQn

> <r_lp_tautomer_probability>
1

> <r_epik_Ionization_Penalty>
  0.0025

> <r_epik_Ionization_Penalty_Charging>
  0.0000

> <r_epik_Ionization_Penalty_Neutral>
  0.0025

> <r_epik_State_Penalty>
 -0.0000

> <r_epik_Charging_Adjusted_Penalty>
0

> <i_epik_Tot_Q>
0

> <i_epik_Tot_abs_Q>
0

$$$$
