4uia_ligand
                    3D
 Schrodinger Suite 2020-3.
 69 69  0  0  1  0            999 V2000
   69.0940   41.4490   43.7730 C   0  0  0  0  0  0
   69.9210   42.6440   44.3030 C   0  0  0  0  0  0
   69.1830   43.4340   45.4110 C   0  0  0  0  0  0
   68.6880   42.5220   46.5580 C   0  0  0  0  0  0
   67.8330   41.3400   46.0440 C   0  0  0  0  0  0
   68.5640   40.5580   44.9240 C   0  0  0  0  0  0
   67.9600   39.1890   44.4990 C   0  0  0  0  0  0
   66.5080   39.1100   43.9220 C   0  0  2  0  0  0
   66.2850   39.9770   42.6640 C   0  0  0  0  0  0
   66.8320   39.6720   41.6040 O   0  0  0  0  0  0
   65.4060   40.9770   42.7910 N   0  0  0  0  0  0
   65.0260   41.8620   41.6760 C   0  0  0  0  0  0
   64.9940   43.3300   42.1420 C   0  0  0  0  0  0
   65.0260   44.3760   41.0010 C   0  0  0  0  0  0
   63.8010   44.3480   40.0750 C   0  0  0  0  0  0
   66.3490   44.4190   40.2250 C   0  0  0  0  0  0
   65.4940   39.3560   44.9690 N   0  0  0  0  0  0
   64.3340   38.6940   45.0290 C   0  0  0  0  0  0
   64.0520   37.7910   44.2340 O   0  0  0  0  0  0
   63.5160   39.0550   46.0240 N   0  0  0  0  0  0
   62.1990   38.4370   46.2790 C   0  0  2  0  0  0
   61.2070   38.7860   45.1590 C   0  0  0  0  0  0
   61.1860   39.9680   44.7480 O   0  5  0  0  0  0
   60.5030   37.8490   44.7300 O   0  0  0  0  0  0
   61.6480   38.9090   47.6260 C   0  0  0  0  0  0
   60.8570   37.8010   48.3250 C   0  0  0  0  0  0
   59.8570   38.3980   49.3150 C   0  0  0  0  0  0
   58.9420   37.3190   49.8890 C   0  0  0  0  0  0
   57.7580   37.1610   49.0300 N   0  3  0  0  0  0
   68.2315   41.8242   43.2026 H   0  0  0  0  0  0
   69.7241   40.8283   43.1190 H   0  0  0  0  0  0
   70.8682   42.2762   44.7244 H   0  0  0  0  0  0
   70.1325   43.3387   43.4768 H   0  0  0  0  0  0
   69.8636   44.1825   45.8429 H   0  0  0  0  0  0
   68.3074   43.9406   44.9789 H   0  0  0  0  0  0
   69.5532   42.1069   47.0957 H   0  0  0  0  0  0
   68.0714   43.1099   47.2539 H   0  0  0  0  0  0
   67.6262   40.6487   46.8743 H   0  0  0  0  0  0
   66.8839   41.7223   45.6402 H   0  0  0  0  0  0
   69.4733   40.2146   45.4391 H   0  0  0  0  0  0
   68.5810   38.7441   43.7075 H   0  0  0  0  0  0
   67.9339   38.5143   45.3674 H   0  0  0  0  0  0
   66.3211   38.0737   43.6038 H   0  0  0  0  0  0
   64.9605   41.1237   43.7860 H   0  0  0  0  0  0
   65.7584   41.7607   40.8615 H   0  0  0  0  0  0
   64.0279   41.5811   41.3086 H   0  0  0  0  0  0
   64.0721   43.5133   42.7134 H   0  0  0  0  0  0
   65.8670   43.5312   42.7802 H   0  0  0  0  0  0
   64.9642   45.3407   41.5259 H   0  0  0  0  0  0
   62.8837   44.3177   40.6813 H   0  0  0  0  0  0
   63.8464   43.4554   39.4338 H   0  0  0  0  0  0
   63.7956   45.2509   39.4467 H   0  0  0  0  0  0
   67.1896   44.4377   40.9342 H   0  0  0  0  0  0
   66.3775   45.3228   39.5987 H   0  0  0  0  0  0
   66.4283   43.5273   39.5858 H   0  0  0  0  0  0
   65.6779   40.1129   45.7457 H   0  0  0  0  0  0
   63.8782   39.8656   46.6734 H   0  0  0  0  0  0
   62.3696   37.3505   46.3001 H   0  0  0  0  0  0
   62.4815   39.2078   48.2787 H   0  0  0  0  0  0
   60.9798   39.7684   47.4680 H   0  0  0  0  0  0
   60.3083   37.2129   47.5746 H   0  0  0  0  0  0
   61.5502   37.1439   48.8706 H   0  0  0  0  0  0
   60.4014   38.8751   50.1433 H   0  0  0  0  0  0
   59.2376   39.1489   48.8027 H   0  0  0  0  0  0
   59.4863   36.3643   49.9373 H   0  0  0  0  0  0
   58.6215   37.6099   50.9003 H   0  0  0  0  0  0
   57.1028   36.3827   49.4483 H   0  0  0  0  0  0
   58.0754   36.8683   48.0183 H   0  0  0  0  0  0
   57.2106   38.1139   48.9812 H   0  0  0  0  0  0
  1  2  1  0  0  0
  1  6  1  0  0  0
  1 30  1  0  0  0
  1 31  1  0  0  0
  2  3  1  0  0  0
  2 32  1  0  0  0
  2 33  1  0  0  0
  3  4  1  0  0  0
  3 34  1  0  0  0
  3 35  1  0  0  0
  4  5  1  0  0  0
  4 36  1  0  0  0
  4 37  1  0  0  0
  5  6  1  0  0  0
  5 38  1  0  0  0
  5 39  1  0  0  0
  6  7  1  0  0  0
  6 40  1  0  0  0
  7  8  1  0  0  0
  7 41  1  0  0  0
  7 42  1  0  0  0
  8  9  1  0  0  0
  8 17  1  0  0  0
  8 43  1  0  0  0
  9 10  2  0  0  0
  9 11  1  0  0  0
 11 12  1  0  0  0
 11 44  1  0  0  0
 12 13  1  0  0  0
 12 45  1  0  0  0
 12 46  1  0  0  0
 13 14  1  0  0  0
 13 47  1  0  0  0
 13 48  1  0  0  0
 14 15  1  0  0  0
 14 16  1  0  0  0
 14 49  1  0  0  0
 15 50  1  0  0  0
 15 51  1  0  0  0
 15 52  1  0  0  0
 16 53  1  0  0  0
 16 54  1  0  0  0
 16 55  1  0  0  0
 17 18  1  0  0  0
 17 56  1  0  0  0
 18 19  2  0  0  0
 18 20  1  0  0  0
 20 21  1  0  0  0
 20 57  1  0  0  0
 21 22  1  0  0  0
 21 25  1  0  0  0
 21 58  1  0  0  0
 22 23  1  0  0  0
 22 24  2  0  0  0
 25 26  1  0  0  0
 25 59  1  0  0  0
 25 60  1  0  0  0
 26 27  1  0  0  0
 26 61  1  0  0  0
 26 62  1  0  0  0
 27 28  1  0  0  0
 27 63  1  0  0  0
 27 64  1  0  0  0
 28 29  1  0  0  0
 28 65  1  0  0  0
 28 66  1  0  0  0
 29 67  1  0  0  0
 29 68  1  0  0  0
 29 69  1  0  0  0
M  CHG  2  23  -1  29   1
M  END
> <s_m_source_file>
../4uia_ligand.sdf

> <i_m_source_file_index>
1

> <s_epik_input>
W0NIMl0xW0NIMl1bQ0gyXVtDSDJdW0NIMl1bQ0hdMVtDSDJdW0NASF0oQyg9TylbTkhdW0NIMl1bQ0gyXVtDSF0oW0NIM10pW0NIM10pW05IXUMoPU8pW05IXVtDQEhdKEMoPU8pW09IXSlbQ0gyXVtDSDJdW0NIMl1bQ0gyXVtOSDMrXQ==

> <s_epik_cmdline>
J2VwaWtfYXBwJywgJy1pbWFlJywgJ2xpZ2FuZF9wcm8ubWFlJywgJy1vbWFlJywgJ2xpZ2FuZF9wcmVwLm1hZScsICctbXMnLCAnMScsICctcGgnLCAnNycsICctcGh0JywgJzAuNScsICctbnQn

> <r_lp_tautomer_probability>
1

> <r_epik_Ionization_Penalty>
  0.0013

> <r_epik_Ionization_Penalty_Charging>
  0.0012

> <r_epik_Ionization_Penalty_Neutral>
  0.0001

> <r_epik_State_Penalty>
 -0.0000

> <r_epik_Charging_Adjusted_Penalty>
0.00123448825562808

> <i_epik_Tot_Q>
0

> <i_epik_Tot_abs_Q>
2

$$$$
