4uib_ligand
                    3D
 Schrodinger Suite 2020-3.
 80 82  0  0  1  0            999 V2000
   65.9280   38.4330   43.5540 C   0  0  1  0  0  0
   64.9340   38.3820   44.6290 N   0  0  0  0  0  0
   65.4780   39.2590   42.3220 C   0  0  0  0  0  0
   63.6680   37.8260   44.4880 C   0  0  0  0  0  0
   62.9210   37.8660   45.6860 N   0  0  0  0  0  0
   63.2270   37.3600   43.4180 O   0  0  0  0  0  0
   65.9450   39.0270   41.2080 O   0  0  0  0  0  0
   64.5460   40.2780   42.5500 N   0  0  0  0  0  0
   67.3170   38.8890   44.0920 C   0  0  0  0  0  0
   67.5930   40.3740   44.3280 C   0  0  0  0  0  0
   69.0890   40.6440   44.4740 C   0  0  0  0  0  0
   69.4110   42.1140   44.7470 C   0  0  0  0  0  0
   68.6650   42.6310   45.9690 C   0  0  0  0  0  0
   67.1680   42.3850   45.8370 C   0  0  0  0  0  0
   66.8630   40.9110   45.5610 C   0  0  0  0  0  0
   61.5760   37.3080   45.8090 C   0  0  2  0  0  0
   60.6660   38.0520   44.8180 C   0  0  0  0  0  0
   60.7120   39.2300   44.5300 O   0  0  0  0  0  0
   59.7780   37.2470   44.2100 O   0  5  0  0  0  0
   61.0910   37.6150   47.2470 C   0  0  0  0  0  0
   59.7380   36.9970   47.5370 C   0  0  0  0  0  0
   59.2320   37.2480   48.9360 C   0  0  0  0  0  0
   57.7240   37.1330   49.0500 C   0  0  0  0  0  0
   57.1250   36.0680   48.2460 N   0  3  0  0  0  0
   64.0380   41.1640   41.4810 C   0  0  1  0  0  0
   62.5580   41.6790   41.7240 C   0  0  0  0  0  0
   64.8280   42.5300   41.2790 C   0  0  1  0  0  0
   62.6910   43.2080   41.5570 C   0  0  2  0  0  0
   63.7810   43.3480   40.4580 C   0  0  0  0  0  0
   63.3860   43.7570   42.8180 C   0  0  0  0  0  0
   64.8490   43.3060   42.6240 C   0  0  0  0  0  0
   64.1860   44.8070   40.1470 C   0  0  0  0  0  0
   63.3900   42.7310   39.0960 C   0  0  0  0  0  0
   66.2420   42.3670   40.6920 C   0  0  0  0  0  0
   65.9749   37.3831   43.2291 H   0  0  0  0  0  0
   65.1720   38.7996   45.6184 H   0  0  0  0  0  0
   63.3986   38.3462   46.5528 H   0  0  0  0  0  0
   64.1911   40.4038   43.5836 H   0  0  0  0  0  0
   67.5011   38.4245   45.0720 H   0  0  0  0  0  0
   68.1027   38.5806   43.3866 H   0  0  0  0  0  0
   67.2125   40.9005   43.4403 H   0  0  0  0  0  0
   69.4877   40.0548   45.3130 H   0  0  0  0  0  0
   69.6057   40.3571   43.5462 H   0  0  0  0  0  0
   70.4907   42.2259   44.9252 H   0  0  0  0  0  0
   69.1181   42.7211   43.8777 H   0  0  0  0  0  0
   69.0303   42.1128   46.8679 H   0  0  0  0  0  0
   68.8375   43.7123   46.0736 H   0  0  0  0  0  0
   66.6650   42.6752   46.7712 H   0  0  0  0  0  0
   66.7699   42.9842   45.0048 H   0  0  0  0  0  0
   65.7770   40.8147   45.4150 H   0  0  0  0  0  0
   67.1664   40.3340   46.4470 H   0  0  0  0  0  0
   61.6095   36.2301   45.5920 H   0  0  0  0  0  0
   61.8138   37.2120   47.9716 H   0  0  0  0  0  0
   61.0059   38.7035   47.3807 H   0  0  0  0  0  0
   58.9902   37.4098   46.8439 H   0  0  0  0  0  0
   59.7972   35.9065   47.4055 H   0  0  0  0  0  0
   59.6761   36.5134   49.6238 H   0  0  0  0  0  0
   59.5145   38.2632   49.2515 H   0  0  0  0  0  0
   57.4497   36.9315   50.0960 H   0  0  0  0  0  0
   57.2587   38.0749   48.7238 H   0  0  0  0  0  0
   56.0352   36.0649   48.3951 H   0  0  0  0  0  0
   57.5402   35.0974   48.5553 H   0  0  0  0  0  0
   57.3492   36.2408   47.1830 H   0  0  0  0  0  0
   64.1713   40.4352   40.6679 H   0  0  0  0  0  0
   61.8861   41.2290   40.9783 H   0  0  0  0  0  0
   62.2306   41.3907   42.7338 H   0  0  0  0  0  0
   61.7256   43.6989   41.3647 H   0  0  0  0  0  0
   63.2792   44.8514   42.8484 H   0  0  0  0  0  0
   62.9213   43.3182   43.7133 H   0  0  0  0  0  0
   65.1862   42.6360   43.4286 H   0  0  0  0  0  0
   65.5386   44.1593   42.5443 H   0  0  0  0  0  0
   64.4793   45.3127   41.0788 H   0  0  0  0  0  0
   63.3337   45.3358   39.6955 H   0  0  0  0  0  0
   65.0332   44.8107   39.4454 H   0  0  0  0  0  0
   63.0877   41.6834   39.2413 H   0  0  0  0  0  0
   64.2518   42.7727   38.4137 H   0  0  0  0  0  0
   62.5522   43.2978   38.6637 H   0  0  0  0  0  0
   66.1835   41.8140   39.7429 H   0  0  0  0  0  0
   66.8719   41.8111   41.4020 H   0  0  0  0  0  0
   66.6808   43.3595   40.5117 H   0  0  0  0  0  0
  1  2  1  0  0  0
  1  3  1  0  0  0
  1  9  1  0  0  0
  1 35  1  0  0  0
  2  4  1  0  0  0
  2 36  1  0  0  0
  3  7  2  0  0  0
  3  8  1  0  0  0
  4  5  1  0  0  0
  4  6  2  0  0  0
  5 16  1  0  0  0
  5 37  1  0  0  0
  8 25  1  0  0  0
  8 38  1  0  0  0
  9 10  1  0  0  0
  9 39  1  0  0  0
  9 40  1  0  0  0
 10 11  1  0  0  0
 10 15  1  0  0  0
 10 41  1  0  0  0
 11 12  1  0  0  0
 11 42  1  0  0  0
 11 43  1  0  0  0
 12 13  1  0  0  0
 12 44  1  0  0  0
 12 45  1  0  0  0
 13 14  1  0  0  0
 13 46  1  0  0  0
 13 47  1  0  0  0
 14 15  1  0  0  0
 14 48  1  0  0  0
 14 49  1  0  0  0
 15 50  1  0  0  0
 15 51  1  0  0  0
 16 17  1  0  0  0
 16 20  1  0  0  0
 16 52  1  0  0  0
 17 18  2  0  0  0
 17 19  1  0  0  0
 20 21  1  0  0  0
 20 53  1  0  0  0
 20 54  1  0  0  0
 21 22  1  0  0  0
 21 55  1  0  0  0
 21 56  1  0  0  0
 22 23  1  0  0  0
 22 57  1  0  0  0
 22 58  1  0  0  0
 23 24  1  0  0  0
 23 59  1  0  0  0
 23 60  1  0  0  0
 24 61  1  0  0  0
 24 62  1  0  0  0
 24 63  1  0  0  0
 25 26  1  0  0  0
 25 27  1  0  0  0
 25 64  1  0  0  0
 26 28  1  0  0  0
 26 65  1  0  0  0
 26 66  1  0  0  0
 27 29  1  0  0  0
 27 31  1  0  0  0
 27 34  1  0  0  0
 28 29  1  0  0  0
 28 30  1  0  0  0
 28 67  1  0  0  0
 29 32  1  0  0  0
 29 33  1  0  0  0
 30 31  1  0  0  0
 30 68  1  0  0  0
 30 69  1  0  0  0
 31 70  1  0  0  0
 31 71  1  0  0  0
 32 72  1  0  0  0
 32 73  1  0  0  0
 32 74  1  0  0  0
 33 75  1  0  0  0
 33 76  1  0  0  0
 33 77  1  0  0  0
 34 78  1  0  0  0
 34 79  1  0  0  0
 34 80  1  0  0  0
M  CHG  2  19  -1  24   1
M  END
> <s_m_source_file>
../4uib_ligand.sdf

> <i_m_source_file_index>
1

> <s_epik_input>
W0NIMl0xW0NIMl1bQ0gyXVtDSDJdW0NIMl1bQ0hdMVtDSDJdW0NASF0oQyg9TylbTkhdW0NASF0oW0NAQF0yM1tDSDNdKVtDSDJdW0NASF0oQzIoW0NIM10pW0NIM10pW0NIMl1bQ0gyXTMpW05IXUMoPU8pW05IXVtDQEhdKEMoPU8pW09IXSlbQ0gyXVtDSDJdW0NIMl1bQ0gyXVtOSDMrXQ==

> <s_epik_cmdline>
J2VwaWtfYXBwJywgJy1pbWFlJywgJ2xpZ2FuZF9wcm8ubWFlJywgJy1vbWFlJywgJ2xpZ2FuZF9wcmVwLm1hZScsICctbXMnLCAnMScsICctcGgnLCAnNycsICctcGh0JywgJzAuNScsICctbnQn

> <r_lp_tautomer_probability>
1

> <r_epik_Ionization_Penalty>
  0.0013

> <r_epik_Ionization_Penalty_Charging>
  0.0012

> <r_epik_Ionization_Penalty_Neutral>
  0.0001

> <r_epik_State_Penalty>
 -0.0000

> <r_epik_Charging_Adjusted_Penalty>
0.0012355073030193

> <i_epik_Tot_Q>
0

> <i_epik_Tot_abs_Q>
2

$$$$
