4uil_ligand
                    3D
 Schrodinger Suite 2020-3.
 49 52  0  0  1  0            999 V2000
   -2.7130    0.5430  -46.3040 O   0  0  0  0  0  0
   -2.9000    1.2190  -45.0860 C   0  0  1  0  0  0
   -1.9640    2.4710  -45.0010 C   0  0  1  0  0  0
   -0.4580    2.1350  -44.9740 N   0  3  1  0  0  0
    0.0910    1.8380  -46.3790 C   0  0  0  0  0  0
   -0.0850    3.0730  -47.2650 C   0  0  0  0  0  0
    0.3240    3.4370  -44.4120 C   0  0  0  0  0  0
   -0.0330    4.6290  -45.2950 C   0  0  2  0  0  0
   -0.7900    5.6570  -44.5130 C   0  0  0  0  0  0
   -0.4510    6.9400  -44.4500 C   0  0  0  0  0  0
   -0.8550    4.1600  -46.5110 C   0  0  2  0  0  0
   -2.1880    3.5420  -46.0810 C   0  0  0  0  0  0
   -4.3170    1.6560  -44.8670 C   0  0  0  0  0  0
   -5.1720    1.8410  -45.9750 C   0  0  0  0  0  0
   -6.4770    2.2550  -45.7620 C   0  0  0  0  0  0
   -7.0260    2.5120  -44.5440 N   0  0  0  0  0  0
   -6.1940    2.3410  -43.4480 C   0  0  0  0  0  0
   -4.8200    1.9130  -43.5640 C   0  0  0  0  0  0
   -4.0660    1.7690  -42.3860 C   0  0  0  0  0  0
   -6.7480    2.6060  -42.1750 C   0  0  0  0  0  0
   -5.9740    2.4550  -41.0260 C   0  0  0  0  0  0
   -4.6580    2.0420  -41.1530 C   0  0  0  0  0  0
   -3.8290    1.8710  -40.0560 O   0  0  0  0  0  0
   -2.7630    2.7730  -39.9400 C   0  0  0  0  0  0
   -1.7148    0.1721  -46.5796 H   0  0  0  0  0  0
   -2.6683    0.4206  -44.3656 H   0  0  0  0  0  0
   -2.2575    2.9095  -44.0358 H   0  0  0  0  0  0
   -0.3383    1.2177  -44.3789 H   0  0  0  0  0  0
    1.1593    1.5851  -46.3093 H   0  0  0  0  0  0
   -0.4585    0.9911  -46.8159 H   0  0  0  0  0  0
    0.9030    3.4638  -47.5497 H   0  0  0  0  0  0
   -0.6453    2.7977  -48.1707 H   0  0  0  0  0  0
    0.0150    3.6306  -43.3742 H   0  0  0  0  0  0
    1.4085    3.2555  -44.4439 H   0  0  0  0  0  0
    0.8956    5.1100  -45.6362 H   0  0  0  0  0  0
   -1.6750    5.2946  -43.9695 H   0  0  0  0  0  0
    0.4340    7.3024  -44.9935 H   0  0  0  0  0  0
   -1.0553    7.6399  -43.8543 H   0  0  0  0  0  0
   -1.0393    5.0394  -47.1456 H   0  0  0  0  0  0
   -2.6678    3.0834  -46.9582 H   0  0  0  0  0  0
   -2.8365    4.3356  -45.6815 H   0  0  0  0  0  0
   -4.8095    1.6601  -46.9869 H   0  0  0  0  0  0
   -7.1128    2.3848  -46.6378 H   0  0  0  0  0  0
   -3.0261    1.4463  -42.4360 H   0  0  0  0  0  0
   -7.7854    2.9300  -42.0916 H   0  0  0  0  0  0
   -6.3977    2.6587  -40.0426 H   0  0  0  0  0  0
   -2.1806    2.5381  -39.0369 H   0  0  0  0  0  0
   -3.1561    3.7977  -39.8666 H   0  0  0  0  0  0
   -2.1155    2.6912  -40.8255 H   0  0  0  0  0  0
  1  2  1  0  0  0
  1 25  1  0  0  0
  2  3  1  0  0  0
  2 13  1  0  0  0
  2 26  1  0  0  0
  3  4  1  0  0  0
  3 12  1  0  0  0
  3 27  1  0  0  0
  4  5  1  0  0  0
  4  7  1  0  0  0
  4 28  1  0  0  0
  5  6  1  0  0  0
  5 29  1  0  0  0
  5 30  1  0  0  0
  6 11  1  0  0  0
  6 31  1  0  0  0
  6 32  1  0  0  0
  7  8  1  0  0  0
  7 33  1  0  0  0
  7 34  1  0  0  0
  8  9  1  0  0  0
  8 11  1  0  0  0
  8 35  1  0  0  0
  9 10  2  0  0  0
  9 36  1  0  0  0
 10 37  1  0  0  0
 10 38  1  0  0  0
 11 12  1  0  0  0
 11 39  1  0  0  0
 12 40  1  0  0  0
 12 41  1  0  0  0
 13 14  2  0  0  0
 13 18  1  0  0  0
 14 15  1  0  0  0
 14 42  1  0  0  0
 15 16  2  0  0  0
 15 43  1  0  0  0
 16 17  1  0  0  0
 17 18  2  0  0  0
 17 20  1  0  0  0
 18 19  1  0  0  0
 19 22  2  0  0  0
 19 44  1  0  0  0
 20 21  2  0  0  0
 20 45  1  0  0  0
 21 22  1  0  0  0
 21 46  1  0  0  0
 22 23  1  0  0  0
 23 24  1  0  0  0
 24 47  1  0  0  0
 24 48  1  0  0  0
 24 49  1  0  0  0
M  CHG  1   4   1
M  END
> <s_m_source_file>
../4uil_ligand.sdf

> <i_m_source_file_index>
1

> <s_epik_input>
W2NIXTFbY0hdYyhPW0NIM10pW2NIXWMoYzEyKWMoW2NIXVtjSF1uMilbQ0BASF0oW09IXSlbQ0BASF0oW05AQEgrXTM0KVtDSDJdW0NASF0oW0NIMl1bQ0gyXTMpW0NASF0oW0NIMl00KVtDSF09W0NIMl0=

> <s_epik_cmdline>
J2VwaWtfYXBwJywgJy1pbWFlJywgJ2xpZ2FuZF9wcm8ubWFlJywgJy1vbWFlJywgJ2xpZ2FuZF9wcmVwLm1hZScsICctbXMnLCAnMScsICctcGgnLCAnNycsICctcGh0JywgJzAuNScsICctbnQn

> <r_lp_tautomer_probability>
1

> <r_epik_Ionization_Penalty>
  0.0256

> <r_epik_Ionization_Penalty_Charging>
  0.0240

> <r_epik_Ionization_Penalty_Neutral>
  0.0015

> <r_epik_State_Penalty>
 -0.0000

> <r_epik_Charging_Adjusted_Penalty>
0.0240249761842029

> <i_epik_Tot_Q>
1

> <i_epik_Tot_abs_Q>
1

$$$$
