4uin_ligand
                    3D
 Schrodinger Suite 2020-3.
 49 52  0  0  1  0            999 V2000
    4.7180   -7.6830  -57.3950 O   0  0  0  0  0  0
    4.4460   -7.3750  -56.0490 C   0  0  1  0  0  0
    5.6570   -7.7890  -55.1600 C   0  0  1  0  0  0
    5.7700   -9.3150  -54.9680 N   0  3  1  0  0  0
    6.3790  -10.0130  -56.1950 C   0  0  0  0  0  0
    7.7790   -9.4530  -56.4460 C   0  0  0  0  0  0
    6.7500   -9.5690  -53.7020 C   0  0  0  0  0  0
    8.1110   -8.9300  -54.0080 C   0  0  2  0  0  0
    8.5890   -7.8670  -53.0450 C   0  0  0  0  0  0
    7.9860   -7.3890  -51.9520 C   0  0  0  0  0  0
    8.0940   -8.3440  -55.4390 C   0  0  2  0  0  0
    7.0220   -7.2660  -55.6220 C   0  0  0  0  0  0
    4.1130   -5.9300  -55.8220 C   0  0  0  0  0  0
    4.5680   -4.9560  -56.7420 C   0  0  0  0  0  0
    4.2650   -3.6210  -56.5350 C   0  0  0  0  0  0
    3.5430   -3.1530  -55.4830 N   0  0  0  0  0  0
    3.0920   -4.0950  -54.5670 C   0  0  0  0  0  0
    3.3560   -5.5120  -54.6930 C   0  0  0  0  0  0
    2.8550   -6.3920  -53.7070 C   0  0  0  0  0  0
    2.3410   -3.6190  -53.4690 C   0  0  0  0  0  0
    1.8610   -4.5170  -52.5190 C   0  0  0  0  0  0
    2.1110   -5.8770  -52.6410 C   0  0  0  0  0  0
    1.6260   -6.7630  -51.6730 O   0  0  0  0  0  0
    1.4730   -8.1560  -51.8770 C   0  0  0  0  0  0
    4.9749   -8.7133  -57.6824 H   0  0  0  0  0  0
    3.5278   -7.9523  -55.8654 H   0  0  0  0  0  0
    5.4357   -7.3008  -54.1994 H   0  0  0  0  0  0
    4.7495   -9.7118  -54.8622 H   0  0  0  0  0  0
    6.4416  -11.0951  -56.0077 H   0  0  0  0  0  0
    5.7440   -9.8292  -57.0742 H   0  0  0  0  0  0
    8.5207  -10.2581  -56.3382 H   0  0  0  0  0  0
    7.8316   -9.0400  -57.4642 H   0  0  0  0  0  0
    6.3129   -9.1113  -52.8023 H   0  0  0  0  0  0
    6.8694  -10.6507  -53.5419 H   0  0  0  0  0  0
    8.8376   -9.7454  -53.8772 H   0  0  0  0  0  0
    9.5731   -7.4776  -53.3450 H   0  0  0  0  0  0
    7.0019   -7.7784  -51.6520 H   0  0  0  0  0  0
    8.4738   -6.6063  -51.3525 H   0  0  0  0  0  0
    9.0843   -7.8980  -55.6132 H   0  0  0  0  0  0
    6.9681   -6.9901  -56.6855 H   0  0  0  0  0  0
    7.2964   -6.3822  -55.0274 H   0  0  0  0  0  0
    5.1548   -5.2556  -57.6104 H   0  0  0  0  0  0
    4.6297   -2.8974  -57.2641 H   0  0  0  0  0  0
    3.0469   -7.4627  -53.7770 H   0  0  0  0  0  0
    2.1381   -2.5530  -53.3659 H   0  0  0  0  0  0
    1.2833   -4.1484  -51.6713 H   0  0  0  0  0  0
    1.0750   -8.6190  -50.9620 H   0  0  0  0  0  0
    2.4498   -8.6007  -52.1180 H   0  0  0  0  0  0
    0.7753   -8.3302  -52.7094 H   0  0  0  0  0  0
  1  2  1  0  0  0
  1 25  1  0  0  0
  2  3  1  0  0  0
  2 13  1  0  0  0
  2 26  1  0  0  0
  3  4  1  0  0  0
  3 12  1  0  0  0
  3 27  1  0  0  0
  4  5  1  0  0  0
  4  7  1  0  0  0
  4 28  1  0  0  0
  5  6  1  0  0  0
  5 29  1  0  0  0
  5 30  1  0  0  0
  6 11  1  0  0  0
  6 31  1  0  0  0
  6 32  1  0  0  0
  7  8  1  0  0  0
  7 33  1  0  0  0
  7 34  1  0  0  0
  8  9  1  0  0  0
  8 11  1  0  0  0
  8 35  1  0  0  0
  9 10  2  0  0  0
  9 36  1  0  0  0
 10 37  1  0  0  0
 10 38  1  0  0  0
 11 12  1  0  0  0
 11 39  1  0  0  0
 12 40  1  0  0  0
 12 41  1  0  0  0
 13 14  2  0  0  0
 13 18  1  0  0  0
 14 15  1  0  0  0
 14 42  1  0  0  0
 15 16  2  0  0  0
 15 43  1  0  0  0
 16 17  1  0  0  0
 17 18  2  0  0  0
 17 20  1  0  0  0
 18 19  1  0  0  0
 19 22  2  0  0  0
 19 44  1  0  0  0
 20 21  2  0  0  0
 20 45  1  0  0  0
 21 22  1  0  0  0
 21 46  1  0  0  0
 22 23  1  0  0  0
 23 24  1  0  0  0
 24 47  1  0  0  0
 24 48  1  0  0  0
 24 49  1  0  0  0
M  CHG  1   4   1
M  END
> <s_m_source_file>
../4uin_ligand.sdf

> <i_m_source_file_index>
1

> <s_epik_input>
W2NIXTFbY0hdYyhPW0NIM10pW2NIXWMoYzEyKWMoW2NIXVtjSF1uMilbQ0BASF0oW09IXSlbQ0BASF0oW05AQEgrXTM0KVtDSDJdW0NASF0oW0NIMl1bQ0gyXTMpW0NASF0oW0NIMl00KVtDSF09W0NIMl0=

> <s_epik_cmdline>
J2VwaWtfYXBwJywgJy1pbWFlJywgJ2xpZ2FuZF9wcm8ubWFlJywgJy1vbWFlJywgJ2xpZ2FuZF9wcmVwLm1hZScsICctbXMnLCAnMScsICctcGgnLCAnNycsICctcGh0JywgJzAuNScsICctbnQn

> <r_lp_tautomer_probability>
1

> <r_epik_Ionization_Penalty>
  0.0256

> <r_epik_Ionization_Penalty_Charging>
  0.0240

> <r_epik_Ionization_Penalty_Neutral>
  0.0015

> <r_epik_State_Penalty>
 -0.0000

> <r_epik_Charging_Adjusted_Penalty>
0.0240249761842029

> <i_epik_Tot_Q>
1

> <i_epik_Tot_abs_Q>
1

$$$$
