4uiu_ligand
                    3D
 Schrodinger Suite 2020-3.
 56 59  0  0  1  0            999 V2000
   -5.8220   18.0850   17.4410 O   0  0  0  0  0  0
   -4.4840   18.0840   17.9660 S   0  0  0  0  0  0
   -4.2100   18.8720   19.1360 O   0  0  0  0  0  0
   -3.9620   16.4200   18.2410 C   0  0  0  0  0  0
   -2.4580   16.3480   18.5650 C   0  0  0  0  0  0
   -3.3510   18.5200   16.6850 C   0  0  0  0  0  0
   -1.9090   18.3630   17.1740 C   0  0  0  0  0  0
   -1.4950   16.9490   17.5490 C   0  0  0  0  0  0
   -1.3780   16.1030   16.3610 N   0  0  0  0  0  0
   -0.2880   16.0940   15.5710 C   0  0  0  0  0  0
    0.7600   16.6720   15.8630 O   0  0  0  0  0  0
   -0.3870   15.3200   14.3130 C   0  0  0  0  0  0
   -1.4000   14.5930   13.7580 C   0  0  0  0  0  0
    1.0030   15.3610   13.2680 S   0  0  0  0  0  0
    0.1750   14.4300   12.0510 C   0  0  0  0  0  0
   -1.0970   14.0850   12.4660 C   0  0  0  0  0  0
   -1.9570   13.3290   11.5690 C   0  0  0  0  0  0
   -3.0650   12.9160   11.8850 O   0  0  0  0  0  0
   -1.4620   13.0360   10.3030 N   0  0  0  0  0  0
   -2.3450   12.3150    9.3870 C   0  0  0  0  0  0
   -0.2170   13.4070    9.9120 C   0  0  0  0  0  0
    0.6550   14.0680   10.7110 C   0  0  0  0  0  0
    2.0320   14.3460   10.2270 C   0  0  0  0  0  0
    2.6580   15.5590   10.4990 C   0  0  0  0  0  0
    3.9420   15.8130   10.0520 C   0  0  0  0  0  0
    2.7030   13.3880    9.4710 C   0  0  0  0  0  0
    3.9770   13.6370    8.9980 C   0  0  0  0  0  0
    4.6890   12.7830    8.1990 O   0  0  0  0  0  0
    3.9580   11.9250    7.3250 C   0  0  0  0  0  0
    4.6120   14.8550    9.3060 C   0  0  0  0  0  0
    5.8970   14.9820    8.8550 O   0  0  0  0  0  0
    6.8720   15.4640    9.7740 C   0  0  0  0  0  0
   -4.5217   15.9953   19.0874 H   0  0  0  0  0  0
   -4.1531   15.8217   17.3379 H   0  0  0  0  0  0
   -2.2599   16.8807   19.5068 H   0  0  0  0  0  0
   -2.1551   15.2956   18.6684 H   0  0  0  0  0  0
   -3.5089   17.8634   15.8167 H   0  0  0  0  0  0
   -3.5175   19.5662   16.3886 H   0  0  0  0  0  0
   -1.2164   18.6897   16.3843 H   0  0  0  0  0  0
   -1.7574   18.9791   18.0726 H   0  0  0  0  0  0
   -0.4863   16.9754   17.9869 H   0  0  0  0  0  0
   -2.2045   15.4344   16.0783 H   0  0  0  0  0  0
   -2.3522   14.4184   14.2589 H   0  0  0  0  0  0
   -3.3019   12.1068    9.8880 H   0  0  0  0  0  0
   -1.8718   11.3669    9.0917 H   0  0  0  0  0  0
   -2.5255   12.9290    8.4923 H   0  0  0  0  0  0
    0.0994   13.1595    8.8987 H   0  0  0  0  0  0
    2.1287   16.3198   11.0726 H   0  0  0  0  0  0
    4.4251   16.7619   10.2850 H   0  0  0  0  0  0
    2.2201   12.4359    9.2511 H   0  0  0  0  0  0
    4.6599   11.3020    6.7512 H   0  0  0  0  0  0
    3.3568   12.5328    6.6328 H   0  0  0  0  0  0
    3.2936   11.2785    7.9171 H   0  0  0  0  0  0
    7.8518   15.5138    9.2765 H   0  0  0  0  0  0
    6.9324   14.7826   10.6354 H   0  0  0  0  0  0
    6.5850   16.4679   10.1201 H   0  0  0  0  0  0
  1  2  2  0  0  0
  2  3  2  0  0  0
  2  4  1  0  0  0
  2  6  1  0  0  0
  4  5  1  0  0  0
  4 33  1  0  0  0
  4 34  1  0  0  0
  5  8  1  0  0  0
  5 35  1  0  0  0
  5 36  1  0  0  0
  6  7  1  0  0  0
  6 37  1  0  0  0
  6 38  1  0  0  0
  7  8  1  0  0  0
  7 39  1  0  0  0
  7 40  1  0  0  0
  8  9  1  0  0  0
  8 41  1  0  0  0
  9 10  1  0  0  0
  9 42  1  0  0  0
 10 11  2  0  0  0
 10 12  1  0  0  0
 12 13  2  0  0  0
 12 14  1  0  0  0
 13 16  1  0  0  0
 13 43  1  0  0  0
 14 15  1  0  0  0
 15 16  2  0  0  0
 15 22  1  0  0  0
 16 17  1  0  0  0
 17 18  2  0  0  0
 17 19  1  0  0  0
 19 20  1  0  0  0
 19 21  1  0  0  0
 20 44  1  0  0  0
 20 45  1  0  0  0
 20 46  1  0  0  0
 21 22  2  0  0  0
 21 47  1  0  0  0
 22 23  1  0  0  0
 23 24  2  0  0  0
 23 26  1  0  0  0
 24 25  1  0  0  0
 24 48  1  0  0  0
 25 30  2  0  0  0
 25 49  1  0  0  0
 26 27  2  0  0  0
 26 50  1  0  0  0
 27 28  1  0  0  0
 27 30  1  0  0  0
 28 29  1  0  0  0
 29 51  1  0  0  0
 29 52  1  0  0  0
 29 53  1  0  0  0
 30 31  1  0  0  0
 31 32  1  0  0  0
 32 54  1  0  0  0
 32 55  1  0  0  0
 32 56  1  0  0  0
M  END
> <s_m_source_file>
../4uiu_ligand.sdf

> <i_m_source_file_index>
1

> <s_epik_input>
Tz1TMSg9TylbQ0gyXVtDSDJdW0NIXShbQ0gyXVtDSDJdMSlbTkhdQyg9TyljKHMyKVtjSF1jKGMyMyljKD1PKW4oW0NIM10pW2NIXWMzLWM0W2NIXVtjSF1jKE9bQ0gzXSljKFtjSF00KU9bQ0gzXQ==

> <s_epik_cmdline>
J2VwaWtfYXBwJywgJy1pbWFlJywgJ2xpZ2FuZF9wcm8ubWFlJywgJy1vbWFlJywgJ2xpZ2FuZF9wcmVwLm1hZScsICctbXMnLCAnMScsICctcGgnLCAnNycsICctcGh0JywgJzAuNScsICctbnQn

> <r_lp_tautomer_probability>
1

> <r_epik_Ionization_Penalty>
  0.0000

> <r_epik_Ionization_Penalty_Charging>
  0.0000

> <r_epik_Ionization_Penalty_Neutral>
  0.0000

> <r_epik_State_Penalty>
 -0.0000

> <r_epik_Charging_Adjusted_Penalty>
6.3669264231234e-08

> <i_epik_Tot_Q>
0

> <i_epik_Tot_abs_Q>
0

$$$$
