4uiv_ligand
                    3D
 Schrodinger Suite 2020-3.
 53 56  0  0  1  0            999 V2000
   -1.4670   10.3450    9.3720 C   0  0  0  0  0  0
   -0.6790   11.2610   10.2340 N   0  0  0  0  0  0
    0.5390   11.6900    9.8260 C   0  0  0  0  0  0
    1.3190   12.5410   10.5580 C   0  0  0  0  0  0
    2.6650   12.9400   10.0380 C   0  0  0  0  0  0
    3.4870   11.9960    9.4060 C   0  0  0  0  0  0
    4.7370   12.3660    8.9150 C   0  0  0  0  0  0
    5.1520   13.6860    9.0020 C   0  0  0  0  0  0
    4.3320   14.6470    9.5990 C   0  0  0  0  0  0
    3.0990   14.2680   10.1200 C   0  0  0  0  0  0
    4.7800   16.0730    9.7090 C   0  0  0  0  0  0
    4.6910   16.5780   10.9510 F   0  0  0  0  0  0
    4.0270   16.8630    9.0090 F   0  0  0  0  0  0
    6.0320   16.2230    9.2370 F   0  0  0  0  0  0
    0.7790   13.0050   11.7900 C   0  0  0  0  0  0
    1.5620   14.0650   12.9290 S   0  0  0  0  0  0
    0.2080   14.0050   14.0060 C   0  0  0  0  0  0
   -0.7760   13.1590   13.5290 C   0  0  0  0  0  0
   -0.4810   12.5620   12.2810 C   0  0  0  0  0  0
   -1.2490   11.6510   11.4460 C   0  0  0  0  0  0
   -2.3620   11.2640   11.7580 O   0  0  0  0  0  0
    0.1160   14.7880   15.2740 C   0  0  0  0  0  0
    1.0960   15.1060   15.9660 N   0  3  0  0  0  0
   -1.0830   15.2030   15.4880 N   0  0  0  0  0  0
   -1.6090   16.0450   16.5550 C   0  0  0  0  0  0
   -2.3110   17.2270   15.9310 C   0  0  0  0  0  0
   -2.7760   18.2370   16.9660 C   0  0  0  0  0  0
   -3.9480   17.4630   18.0350 S   0  0  0  0  0  0
   -4.2280   18.3370   19.1380 O   0  0  0  0  0  0
   -5.0580   16.9960   17.2550 O   0  0  0  0  0  0
   -3.0270   16.0750   18.6160 C   0  0  0  0  0  0
   -2.5430   15.2460   17.4320 C   0  0  0  0  0  0
   -0.8989   10.1239    8.4563 H   0  0  0  0  0  0
   -2.4212   10.8228    9.1052 H   0  0  0  0  0  0
   -1.6648    9.4094    9.9157 H   0  0  0  0  0  0
    0.9163   11.3390    8.8655 H   0  0  0  0  0  0
    3.1458   10.9664    9.2983 H   0  0  0  0  0  0
    5.3884   11.6182    8.4627 H   0  0  0  0  0  0
    6.1238   13.9758    8.6023 H   0  0  0  0  0  0
    2.4637   15.0139   10.5976 H   0  0  0  0  0  0
   -1.7027   12.9678   14.0700 H   0  0  0  0  0  0
    2.0931   14.7108   15.7220 H   0  0  0  0  0  0
   -1.7556   14.8233   14.7048 H   0  0  0  0  0  0
   -0.7675   16.3930   17.1721 H   0  0  0  0  0  0
   -1.6240   17.7393   15.2414 H   0  0  0  0  0  0
   -3.1945   16.8779   15.3764 H   0  0  0  0  0  0
   -1.9126   18.5859   17.5516 H   0  0  0  0  0  0
   -3.2447   19.0929   16.4584 H   0  0  0  0  0  0
   -2.1592   16.4265   19.1935 H   0  0  0  0  0  0
   -3.6674   15.4530   19.2586 H   0  0  0  0  0  0
   -3.4168   14.9289   16.8438 H   0  0  0  0  0  0
   -2.0173   14.3589   17.8150 H   0  0  0  0  0  0
    0.9674   15.7831   16.8234 H   0  0  0  0  0  0
  1  2  1  0  0  0
  1 33  1  0  0  0
  1 34  1  0  0  0
  1 35  1  0  0  0
  2  3  1  0  0  0
  2 20  1  0  0  0
  3  4  2  0  0  0
  3 36  1  0  0  0
  4  5  1  0  0  0
  4 15  1  0  0  0
  5  6  2  0  0  0
  5 10  1  0  0  0
  6  7  1  0  0  0
  6 37  1  0  0  0
  7  8  2  0  0  0
  7 38  1  0  0  0
  8  9  1  0  0  0
  8 39  1  0  0  0
  9 10  2  0  0  0
  9 11  1  0  0  0
 10 40  1  0  0  0
 11 12  1  0  0  0
 11 13  1  0  0  0
 11 14  1  0  0  0
 15 16  1  0  0  0
 15 19  2  0  0  0
 16 17  1  0  0  0
 17 18  2  0  0  0
 17 22  1  0  0  0
 18 19  1  0  0  0
 18 41  1  0  0  0
 19 20  1  0  0  0
 20 21  2  0  0  0
 22 23  2  0  0  0
 22 24  1  0  0  0
 23 42  1  0  0  0
 23 53  1  0  0  0
 24 25  1  0  0  0
 24 43  1  0  0  0
 25 26  1  0  0  0
 25 32  1  0  0  0
 25 44  1  0  0  0
 26 27  1  0  0  0
 26 45  1  0  0  0
 26 46  1  0  0  0
 27 28  1  0  0  0
 27 47  1  0  0  0
 27 48  1  0  0  0
 28 29  2  0  0  0
 28 30  2  0  0  0
 28 31  1  0  0  0
 31 32  1  0  0  0
 31 49  1  0  0  0
 31 50  1  0  0  0
 32 51  1  0  0  0
 32 52  1  0  0  0
M  CHG  1  23   1
M  END
> <s_m_source_file>
../4uiv_ligand.sdf

> <i_m_source_file_index>
1

> <s_epik_input>
RkMoRikoRiljKFtjSF0xKVtjSF1bY0hdW2NIXWMxLWMyW2NIXW4oW0NIM10pYyg9TyljKGMyMylbY0hdYyhzMykvQyg9TlxbSF0pW05IXVtDSF0oW0NIMl1bQ0gyXTQpW0NIMl1bQ0gyXVM0KD1PKT1P

> <s_epik_cmdline>
J2VwaWtfYXBwJywgJy1pbWFlJywgJ2xpZ2FuZF9wcm8ubWFlJywgJy1vbWFlJywgJ2xpZ2FuZF9wcmVwLm1hZScsICctbXMnLCAnMScsICctcGgnLCAnNycsICctcGh0JywgJzAuNScsICctbnQn

> <r_lp_tautomer_probability>
1

> <r_epik_Ionization_Penalty>
  0.0137

> <r_epik_Ionization_Penalty_Charging>
  0.0137

> <r_epik_Ionization_Penalty_Neutral>
  0.0000

> <r_epik_State_Penalty>
 -0.0000

> <r_epik_Charging_Adjusted_Penalty>
0.0137269746890156

> <i_epik_Tot_Q>
1

> <i_epik_Tot_abs_Q>
1

> <s_epik_Chemistry_Notes>
This compound has an imine and may undergo hydrolysis.

$$$$
