4uiw_ligand
                    3D
 Schrodinger Suite 2020-3.
 56 59  0  0  1  0            999 V2000
   -2.7760   11.7730    8.3110 C   0  0  0  0  0  0
   -1.7550   10.9550    9.0700 C   0  0  0  0  0  0
   -1.0070   11.8680    9.9400 N   0  0  0  0  0  0
    0.2130   12.3480    9.5360 C   0  0  0  0  0  0
    0.9720   13.2050   10.2590 C   0  0  0  0  0  0
    2.2970   13.6510    9.7170 C   0  0  0  0  0  0
    3.1390   12.7430    9.0790 C   0  0  0  0  0  0
    4.3670   13.1530    8.5790 C   0  0  0  0  0  0
    4.7560   14.4710    8.6970 C   0  0  0  0  0  0
    3.9250   15.3960    9.3150 C   0  0  0  0  0  0
    2.7010   14.9790    9.8320 C   0  0  0  0  0  0
    4.3350   16.8310    9.4280 C   0  0  0  0  0  0
    5.5980   17.0390    9.0310 F   0  0  0  0  0  0
    4.1970   17.3130   10.6720 F   0  0  0  0  0  0
    3.5640   17.6020    8.7100 F   0  0  0  0  0  0
    0.4080   13.6360   11.5150 C   0  0  0  0  0  0
    1.1400   14.7290   12.6540 S   0  0  0  0  0  0
   -0.2180   14.6090   13.7110 C   0  0  0  0  0  0
   -1.1610   13.7560   13.2250 C   0  0  0  0  0  0
   -0.8490   13.1640   11.9860 C   0  0  0  0  0  0
   -1.5950   12.2360   11.1510 C   0  0  0  0  0  0
   -2.6980   11.8050   11.4980 O   0  0  0  0  0  0
   -0.3840   15.3600   14.9370 C   0  0  0  0  0  0
    0.7040   15.6840   15.6570 N   0  3  0  0  0  0
   -1.5550   15.8060   15.1510 N   0  0  0  0  0  0
   -2.0230   16.6330   16.2420 C   0  0  0  0  0  0
   -2.8000   17.7960   15.6730 C   0  0  0  0  0  0
   -3.2670   18.7400   16.7610 C   0  0  0  0  0  0
   -4.4550   17.9490   17.7990 S   0  0  0  0  0  0
   -5.5510   17.4910   16.9940 O   0  0  0  0  0  0
   -4.7500   18.8030   18.9120 O   0  0  0  0  0  0
   -3.5340   16.5540   18.3680 C   0  0  0  0  0  0
   -2.8640   15.8150   17.2060 C   0  0  0  0  0  0
   -3.3546   11.1133    7.6477 H   0  0  0  0  0  0
   -2.2606   12.5366    7.7100 H   0  0  0  0  0  0
   -3.4553   12.2640    9.0234 H   0  0  0  0  0  0
   -2.2704   10.1914    9.6710 H   0  0  0  0  0  0
   -1.0757   10.4640    8.3577 H   0  0  0  0  0  0
    0.5962   12.0181    8.5704 H   0  0  0  0  0  0
    2.8311   11.7029    8.9717 H   0  0  0  0  0  0
    5.0247   12.4327    8.0925 H   0  0  0  0  0  0
    5.7214   14.7883    8.3028 H   0  0  0  0  0  0
    2.0528   15.6989   10.3316 H   0  0  0  0  0  0
   -2.0896   13.5466   13.7560 H   0  0  0  0  0  0
    1.6819   15.2499   15.4015 H   0  0  0  0  0  0
   -2.2548   15.4835   14.3659 H   0  0  0  0  0  0
   -1.1372   17.0043   16.7781 H   0  0  0  0  0  0
   -2.1608   18.3582   14.9763 H   0  0  0  0  0  0
   -3.6838   17.4195   15.1372 H   0  0  0  0  0  0
   -2.4067   19.0479   17.3734 H   0  0  0  0  0  0
   -3.7278   19.6278   16.3033 H   0  0  0  0  0  0
   -2.7522   16.8903   19.0649 H   0  0  0  0  0  0
   -4.2087   15.8548   18.8836 H   0  0  0  0  0  0
   -3.6865   15.3331   16.6571 H   0  0  0  0  0  0
   -2.2364   15.0441   17.6770 H   0  0  0  0  0  0
    0.6164   16.3832   16.5016 H   0  0  0  0  0  0
  1  2  1  0  0  0
  1 34  1  0  0  0
  1 35  1  0  0  0
  1 36  1  0  0  0
  2  3  1  0  0  0
  2 37  1  0  0  0
  2 38  1  0  0  0
  3  4  1  0  0  0
  3 21  1  0  0  0
  4  5  2  0  0  0
  4 39  1  0  0  0
  5  6  1  0  0  0
  5 16  1  0  0  0
  6  7  2  0  0  0
  6 11  1  0  0  0
  7  8  1  0  0  0
  7 40  1  0  0  0
  8  9  2  0  0  0
  8 41  1  0  0  0
  9 10  1  0  0  0
  9 42  1  0  0  0
 10 11  2  0  0  0
 10 12  1  0  0  0
 11 43  1  0  0  0
 12 13  1  0  0  0
 12 14  1  0  0  0
 12 15  1  0  0  0
 16 17  1  0  0  0
 16 20  2  0  0  0
 17 18  1  0  0  0
 18 19  2  0  0  0
 18 23  1  0  0  0
 19 20  1  0  0  0
 19 44  1  0  0  0
 20 21  1  0  0  0
 21 22  2  0  0  0
 23 24  2  0  0  0
 23 25  1  0  0  0
 24 45  1  0  0  0
 24 56  1  0  0  0
 25 26  1  0  0  0
 25 46  1  0  0  0
 26 27  1  0  0  0
 26 33  1  0  0  0
 26 47  1  0  0  0
 27 28  1  0  0  0
 27 48  1  0  0  0
 27 49  1  0  0  0
 28 29  1  0  0  0
 28 50  1  0  0  0
 28 51  1  0  0  0
 29 30  2  0  0  0
 29 31  2  0  0  0
 29 32  1  0  0  0
 32 33  1  0  0  0
 32 52  1  0  0  0
 32 53  1  0  0  0
 33 54  1  0  0  0
 33 55  1  0  0  0
M  CHG  1  24   1
M  END
> <s_m_source_file>
../4uiw_ligand.sdf

> <i_m_source_file_index>
1

> <s_epik_input>
RkMoRikoRiljKFtjSF0xKVtjSF1bY0hdW2NIXWMxLWMyW2NIXW4oW0NIMl1bQ0gzXSljKD1PKWMoYzIzKVtjSF1jKHMzKS9DKD1OXFtIXSlbTkhdW0NIXShbQ0gyXVtDSDJdNClbQ0gyXVtDSDJdUzQoPU8pPU8=

> <s_epik_cmdline>
J2VwaWtfYXBwJywgJy1pbWFlJywgJ2xpZ2FuZF9wcm8ubWFlJywgJy1vbWFlJywgJ2xpZ2FuZF9wcmVwLm1hZScsICctbXMnLCAnMScsICctcGgnLCAnNycsICctcGh0JywgJzAuNScsICctbnQn

> <r_lp_tautomer_probability>
1

> <r_epik_Ionization_Penalty>
  0.0137

> <r_epik_Ionization_Penalty_Charging>
  0.0137

> <r_epik_Ionization_Penalty_Neutral>
  0.0000

> <r_epik_State_Penalty>
 -0.0000

> <r_epik_Charging_Adjusted_Penalty>
0.0137269652483548

> <i_epik_Tot_Q>
1

> <i_epik_Tot_abs_Q>
1

> <s_epik_Chemistry_Notes>
This compound has an imine and may undergo hydrolysis.

$$$$
