4uiz_ligand
                    3D
 Schrodinger Suite 2020-3.
 58 61  0  0  1  0            999 V2000
   32.1590   52.5450    2.3320 C   0  0  0  0  0  0
   31.5810   52.4690    1.0260 O   0  0  0  0  0  0
   30.3130   51.9660    0.9220 C   0  0  0  0  0  0
   29.5720   51.4930    1.9900 C   0  0  0  0  0  0
   28.2950   51.0160    1.7750 C   0  0  0  0  0  0
   27.7350   51.0040    0.4980 C   0  0  0  0  0  0
   28.4860   51.4590   -0.5770 C   0  0  0  0  0  0
   29.7520   51.9690   -0.3700 C   0  0  0  0  0  0
   30.5420   52.4570   -1.3700 O   0  0  0  0  0  0
   30.2260   52.0450   -2.6960 C   0  0  0  0  0  0
   26.3600   50.4780    0.2940 C   0  0  0  0  0  0
   25.9180   49.4620    1.0710 C   0  0  0  0  0  0
   24.6800   48.9350    0.9760 N   0  0  0  0  0  0
   24.2890   47.8260    1.8470 C   0  0  0  0  0  0
   23.7340   49.3950    0.0600 C   0  0  0  0  0  0
   22.5920   48.8890    0.0470 O   0  0  0  0  0  0
   24.1210   50.5250   -0.7990 C   0  0  0  0  0  0
   23.4010   51.2250   -1.8240 C   0  0  0  0  0  0
   24.1260   52.2260   -2.4220 C   0  0  0  0  0  0
   25.7260   52.3250   -1.7740 S   0  0  0  0  0  0
   25.4290   51.0240   -0.6630 C   0  0  0  0  0  0
   24.0150   53.2600   -3.5110 C   0  0  0  0  0  0
   25.0040   53.9340   -3.7620 O   0  0  0  0  0  0
   22.8760   53.3900   -4.2320 N   0  0  0  0  0  0
   22.8500   54.3890   -5.3070 C   0  0  0  0  0  0
   21.8220   55.4580   -5.0100 C   0  0  0  0  0  0
   20.4910   54.8310   -4.8220 N   0  0  0  0  0  0
   20.5100   53.7550   -3.8140 C   0  0  0  0  0  0
   21.5760   52.7370   -4.1590 C   0  0  0  0  0  0
   19.2370   55.8660   -4.6880 S   0  0  0  0  0  0
   19.3250   56.9820   -6.0360 C   0  0  0  0  0  0
   19.4340   56.6020   -3.4820 O   0  0  0  0  0  0
   18.0450   55.0950   -4.8220 O   0  0  0  0  0  0
   33.1727   52.9660    2.2604 H   0  0  0  0  0  0
   32.2106   51.5370    2.7693 H   0  0  0  0  0  0
   31.5382   53.1905    2.9707 H   0  0  0  0  0  0
   29.9940   51.4970    2.9950 H   0  0  0  0  0  0
   27.7140   50.6421    2.6181 H   0  0  0  0  0  0
   28.0757   51.4136   -1.5858 H   0  0  0  0  0  0
   30.9332   52.5057   -3.4014 H   0  0  0  0  0  0
   29.2021   52.3614   -2.9441 H   0  0  0  0  0  0
   30.2986   50.9497   -2.7667 H   0  0  0  0  0  0
   26.5993   49.0471    1.8138 H   0  0  0  0  0  0
   25.1264   47.5698    2.5127 H   0  0  0  0  0  0
   24.0281   46.9516    1.2326 H   0  0  0  0  0  0
   23.4186   48.1230    2.4504 H   0  0  0  0  0  0
   22.3748   50.9846   -2.1018 H   0  0  0  0  0  0
   23.8405   54.8595   -5.3944 H   0  0  0  0  0  0
   22.5920   53.8985   -6.2572 H   0  0  0  0  0  0
   22.1057   55.9947   -4.0927 H   0  0  0  0  0  0
   21.7765   56.1665   -5.8502 H   0  0  0  0  0  0
   20.7271   54.1835   -2.8244 H   0  0  0  0  0  0
   19.5295   53.2569   -3.7908 H   0  0  0  0  0  0
   21.3407   52.2789   -5.1310 H   0  0  0  0  0  0
   21.6000   51.9580   -3.3828 H   0  0  0  0  0  0
   20.2393   57.5877   -5.9515 H   0  0  0  0  0  0
   18.4453   57.6423   -6.0234 H   0  0  0  0  0  0
   19.3456   56.4166   -6.9793 H   0  0  0  0  0  0
  1  2  1  0  0  0
  1 34  1  0  0  0
  1 35  1  0  0  0
  1 36  1  0  0  0
  2  3  1  0  0  0
  3  4  2  0  0  0
  3  8  1  0  0  0
  4  5  1  0  0  0
  4 37  1  0  0  0
  5  6  2  0  0  0
  5 38  1  0  0  0
  6  7  1  0  0  0
  6 11  1  0  0  0
  7  8  2  0  0  0
  7 39  1  0  0  0
  8  9  1  0  0  0
  9 10  1  0  0  0
 10 40  1  0  0  0
 10 41  1  0  0  0
 10 42  1  0  0  0
 11 12  2  0  0  0
 11 21  1  0  0  0
 12 13  1  0  0  0
 12 43  1  0  0  0
 13 14  1  0  0  0
 13 15  1  0  0  0
 14 44  1  0  0  0
 14 45  1  0  0  0
 14 46  1  0  0  0
 15 16  2  0  0  0
 15 17  1  0  0  0
 17 18  1  0  0  0
 17 21  2  0  0  0
 18 19  2  0  0  0
 18 47  1  0  0  0
 19 20  1  0  0  0
 19 22  1  0  0  0
 20 21  1  0  0  0
 22 23  2  0  0  0
 22 24  1  0  0  0
 24 25  1  0  0  0
 24 29  1  0  0  0
 25 26  1  0  0  0
 25 48  1  0  0  0
 25 49  1  0  0  0
 26 27  1  0  0  0
 26 50  1  0  0  0
 26 51  1  0  0  0
 27 28  1  0  0  0
 27 30  1  0  0  0
 28 29  1  0  0  0
 28 52  1  0  0  0
 28 53  1  0  0  0
 29 54  1  0  0  0
 29 55  1  0  0  0
 30 31  1  0  0  0
 30 32  2  0  0  0
 30 33  2  0  0  0
 31 56  1  0  0  0
 31 57  1  0  0  0
 31 58  1  0  0  0
M  END
> <s_m_source_file>
../4uiz_ligand.sdf

> <i_m_source_file_index>
1

> <s_epik_input>
W0NIM11PYzFbY0hdW2NIXWMoW2NIXWMxT1tDSDNdKS1jKFtjSF1uKFtDSDNdKWMyPU8pYyhjMjMpc2MoW2NIXTMpQyg9TylONFtDSDJdW0NIMl1OKFtDSDJdW0NIMl00KVMoPU8pKD1PKVtDSDNd

> <s_epik_cmdline>
J2VwaWtfYXBwJywgJy1pbWFlJywgJ2xpZ2FuZF9wcm8ubWFlJywgJy1vbWFlJywgJ2xpZ2FuZF9wcmVwLm1hZScsICctbXMnLCAnMScsICctcGgnLCAnNycsICctcGh0JywgJzAuNScsICctbnQn

> <r_lp_tautomer_probability>
1

> <r_epik_Ionization_Penalty>
  0.0000

> <r_epik_Ionization_Penalty_Charging>
  0.0000

> <r_epik_Ionization_Penalty_Neutral>
  0.0000

> <r_epik_State_Penalty>
 -0.0000

> <r_epik_Charging_Adjusted_Penalty>
4.52344771943272e-08

> <i_epik_Tot_Q>
0

> <i_epik_Tot_abs_Q>
0

$$$$
