4um1_ligand
                    3D
 Schrodinger Suite 2020-3.
 36 37  0  0  1  0            999 V2000
   14.2820   30.5390  -15.2490 C   0  0  0  0  0  0
   14.1880   31.3740  -14.0170 N   0  3  0  0  0  0
   15.3010   31.3400  -13.0270 C   0  0  0  0  0  0
   16.5360   32.1270  -13.5100 C   0  0  0  0  0  0
   17.0910   31.6070  -14.8430 C   0  0  0  0  0  0
   16.2180   32.0900  -15.9230 N   0  0  0  0  0  0
   15.2610   31.0360  -16.3450 C   0  0  0  0  0  0
   16.9000   35.6300  -18.0660 C   0  0  0  0  0  0
   17.8360   35.2440  -17.0910 C   0  0  0  0  0  0
   17.6020   34.0390  -16.3540 C   0  0  0  0  0  0
   16.4550   33.2470  -16.6070 C   0  0  0  0  0  0
   15.6030   33.7560  -17.6260 C   0  0  0  0  0  0
   15.8120   34.8990  -18.3330 N   0  0  0  0  0  0
   18.9090   36.0880  -16.8670 O   0  0  0  0  0  0
   18.8680   36.7500  -15.5980 C   0  0  0  0  0  0
   20.2720   36.7480  -15.0130 C   0  0  0  0  0  0
   14.6179   29.5264  -14.9809 H   0  0  0  0  0  0
   13.2943   30.4823  -15.7298 H   0  0  0  0  0  0
   14.1050   32.4342  -14.2981 H   0  0  0  0  0  0
   13.3000   31.0771  -13.4397 H   0  0  0  0  0  0
   14.9625   31.7843  -12.0794 H   0  0  0  0  0  0
   15.6067   30.2975  -12.8546 H   0  0  0  0  0  0
   16.2658   33.1842  -13.6490 H   0  0  0  0  0  0
   17.3369   32.0488  -12.7601 H   0  0  0  0  0  0
   18.1142   31.9844  -14.9863 H   0  0  0  0  0  0
   17.1043   30.5071  -14.8306 H   0  0  0  0  0  0
   15.8694   30.1924  -16.7031 H   0  0  0  0  0  0
   14.6884   31.4574  -17.1844 H   0  0  0  0  0  0
   17.0658   36.5531  -18.6214 H   0  0  0  0  0  0
   18.3142   33.7276  -15.5899 H   0  0  0  0  0  0
   14.7068   33.1814  -17.8601 H   0  0  0  0  0  0
   18.5178   37.7837  -15.7349 H   0  0  0  0  0  0
   18.1791   36.2152  -14.9275 H   0  0  0  0  0  0
   20.2627   37.2530  -14.0358 H   0  0  0  0  0  0
   20.9536   37.2791  -15.6937 H   0  0  0  0  0  0
   20.6150   35.7105  -14.8864 H   0  0  0  0  0  0
  1  2  1  0  0  0
  1  7  1  0  0  0
  1 17  1  0  0  0
  1 18  1  0  0  0
  2  3  1  0  0  0
  2 19  1  0  0  0
  2 20  1  0  0  0
  3  4  1  0  0  0
  3 21  1  0  0  0
  3 22  1  0  0  0
  4  5  1  0  0  0
  4 23  1  0  0  0
  4 24  1  0  0  0
  5  6  1  0  0  0
  5 25  1  0  0  0
  5 26  1  0  0  0
  6  7  1  0  0  0
  6 11  1  0  0  0
  7 27  1  0  0  0
  7 28  1  0  0  0
  8  9  2  0  0  0
  8 13  1  0  0  0
  8 29  1  0  0  0
  9 10  1  0  0  0
  9 14  1  0  0  0
 10 11  2  0  0  0
 10 30  1  0  0  0
 11 12  1  0  0  0
 12 13  2  0  0  0
 12 31  1  0  0  0
 14 15  1  0  0  0
 15 16  1  0  0  0
 15 32  1  0  0  0
 15 33  1  0  0  0
 16 34  1  0  0  0
 16 35  1  0  0  0
 16 36  1  0  0  0
M  CHG  1   2   1
M  END
> <s_m_source_file>
../4um1_ligand.sdf

> <i_m_source_file_index>
1

> <s_epik_input>
W0NIMl0xW0NIMl1bTkgyK11bQ0gyXVtDSDJdW0NIMl1OMWMoW2NIXTIpW2NIXW5bY0hdYzJPW0NIMl1bQ0gzXQ==

> <s_epik_cmdline>
J2VwaWtfYXBwJywgJy1pbWFlJywgJ2xpZ2FuZF9wcm8ubWFlJywgJy1vbWFlJywgJ2xpZ2FuZF9wcmVwLm1hZScsICctbXMnLCAnMScsICctcGgnLCAnNycsICctcGh0JywgJzAuNScsICctbnQn

> <r_lp_tautomer_probability>
1

> <r_epik_Ionization_Penalty>
  0.0149

> <r_epik_Ionization_Penalty_Charging>
  0.0073

> <r_epik_Ionization_Penalty_Neutral>
  0.0076

> <r_epik_State_Penalty>
 -0.0000

> <r_epik_Charging_Adjusted_Penalty>
0.0073000854733926

> <i_epik_Tot_Q>
1

> <i_epik_Tot_abs_Q>
1

$$$$
