4um3_ligand
                    3D
 Schrodinger Suite 2020-3.
 29 30  0  0  1  0            999 V2000
  -53.2170   64.4710  -26.4310 C   0  0  0  0  0  0
  -51.9880   65.1380  -26.6820 C   0  0  0  0  0  0
  -51.4290   65.8550  -25.5760 C   0  0  0  0  0  0
  -52.1590   65.9310  -24.3850 C   0  0  0  0  0  0
  -53.3460   65.1810  -24.2330 C   0  0  0  0  0  0
  -53.8810   64.4810  -25.2660 N   0  0  0  0  0  0
  -54.2300   65.1400  -22.7390 Br  0  0  0  0  0  0
  -51.4640   65.1200  -27.9650 N   0  0  0  0  0  0
  -51.7540   64.0150  -28.8900 C   0  0  0  0  0  0
  -50.5130   63.6100  -29.6860 C   0  0  0  0  0  0
  -49.4280   63.2350  -28.7770 N   0  3  0  0  0  0
  -48.4230   64.2840  -28.4340 C   0  0  0  0  0  0
  -48.9330   65.6480  -27.8910 C   0  0  0  0  0  0
  -50.3630   66.0310  -28.3440 C   0  0  0  0  0  0
  -53.6561   63.9049  -27.2525 H   0  0  0  0  0  0
  -50.4529   66.3327  -25.6603 H   0  0  0  0  0  0
  -51.8112   66.5699  -23.5733 H   0  0  0  0  0  0
  -52.1021   63.1412  -28.3197 H   0  0  0  0  0  0
  -52.5359   64.3256  -29.5986 H   0  0  0  0  0  0
  -50.7547   62.7521  -30.3307 H   0  0  0  0  0  0
  -50.1846   64.4554  -30.3085 H   0  0  0  0  0  0
  -49.8512   62.9120  -27.8144 H   0  0  0  0  0  0
  -48.8487   62.4104  -29.2180 H   0  0  0  0  0  0
  -47.7488   63.9042  -27.6522 H   0  0  0  0  0  0
  -47.8384   64.5387  -29.3303 H   0  0  0  0  0  0
  -48.9437   65.6240  -26.7913 H   0  0  0  0  0  0
  -48.2650   66.4520  -28.2337 H   0  0  0  0  0  0
  -50.3110   66.1071  -29.4401 H   0  0  0  0  0  0
  -50.5475   67.0272  -27.9156 H   0  0  0  0  0  0
  1  2  2  0  0  0
  1  6  1  0  0  0
  1 15  1  0  0  0
  2  3  1  0  0  0
  2  8  1  0  0  0
  3  4  2  0  0  0
  3 16  1  0  0  0
  4  5  1  0  0  0
  4 17  1  0  0  0
  5  6  2  0  0  0
  5  7  1  0  0  0
  8  9  1  0  0  0
  8 14  1  0  0  0
  9 10  1  0  0  0
  9 18  1  0  0  0
  9 19  1  0  0  0
 10 11  1  0  0  0
 10 20  1  0  0  0
 10 21  1  0  0  0
 11 12  1  0  0  0
 11 22  1  0  0  0
 11 23  1  0  0  0
 12 13  1  0  0  0
 12 24  1  0  0  0
 12 25  1  0  0  0
 13 14  1  0  0  0
 13 26  1  0  0  0
 13 27  1  0  0  0
 14 28  1  0  0  0
 14 29  1  0  0  0
M  CHG  1  11   1
M  END
> <s_m_source_file>
../4um3_ligand.sdf

> <i_m_source_file_index>
1

> <s_epik_input>
W2NIXTFbY0hdYyhCciluW2NIXWMxTjJbQ0gyXVtDSDJdW05IMitdW0NIMl1bQ0gyXVtDSDJdMg==

> <s_epik_cmdline>
J2VwaWtfYXBwJywgJy1pbWFlJywgJ2xpZ2FuZF9wcm8ubWFlJywgJy1vbWFlJywgJ2xpZ2FuZF9wcmVwLm1hZScsICctbXMnLCAnMScsICctcGgnLCAnNycsICctcGh0JywgJzAuNScsICctbnQn

> <r_lp_tautomer_probability>
1

> <r_epik_Ionization_Penalty>
  0.0073

> <r_epik_Ionization_Penalty_Charging>
  0.0073

> <r_epik_Ionization_Penalty_Neutral>
  0.0000

> <r_epik_State_Penalty>
 -0.0000

> <r_epik_Charging_Adjusted_Penalty>
0.0073000854733926

> <i_epik_Tot_Q>
1

> <i_epik_Tot_abs_Q>
1

$$$$
