4um9_ligand
                    3D
 Schrodinger Suite 2020-3.
184184  0  0  1  0            999 V2000
   39.0810   32.2950   80.2240 C   0  0  0  0  0  0
   38.2350   32.2700   79.3300 O   0  0  0  0  0  0
   39.7980   33.3760   80.5130 N   0  0  0  0  0  0
   40.7170   33.9680   79.5480 C   0  0  2  0  0  0
   42.0370   34.3760   80.2000 C   0  0  0  0  0  0
   42.1640   35.4760   80.7390 O   0  0  0  0  0  0
   40.0760   35.1780   78.8700 C   0  0  0  0  0  0
   40.9590   35.8340   77.8560 C   0  0  0  0  0  0
   41.5100   35.1470   76.7970 N   0  0  0  0  0  0
   41.3940   37.1110   77.7450 C   0  0  0  0  0  0
   42.2440   35.9740   76.0730 C   0  0  0  0  0  0
   42.1910   37.1720   76.6270 N   0  0  0  0  0  0
   43.0170   33.4810   80.1410 N   0  0  0  0  0  0
   44.3210   33.7290   80.7250 C   0  0  0  0  0  0
   45.2060   32.5020   80.6310 C   0  0  0  0  0  0
   44.7920   31.4700   80.1040 O   0  0  0  0  0  0
   46.4250   32.6100   81.1470 N   0  0  0  0  0  0
   47.3730   31.5010   81.1020 C   0  0  2  0  0  0
   47.3030   30.6380   82.3660 C   0  0  0  0  0  0
   47.5810   31.1090   83.4690 O   0  0  0  0  0  0
   48.7930   32.0310   80.8950 C   0  0  0  0  0  0
   49.7580   31.0090   80.3220 C   0  0  0  0  0  0
   51.1010   31.6370   79.9880 C   0  0  0  0  0  0
   51.9690   30.7190   79.2550 N   0  0  0  0  0  0
   53.2970   30.7680   79.2830 C   0  0  0  0  0  0
   53.9090   31.6890   80.0150 N   0  0  0  0  0  0
   54.0140   29.8970   78.5860 N   0  0  0  0  0  0
   46.9270   29.3740   82.1930 N   0  0  0  0  0  0
   46.7320   28.4590   83.3040 C   0  0  0  0  0  0
   45.2880   28.3900   83.7720 C   0  0  0  0  0  0
   44.4450   29.1580   83.3130 O   0  0  0  0  0  0
   45.0050   27.4720   84.6930 N   0  0  0  0  0  0
   43.6560   27.3020   85.2330 C   0  0  2  0  0  0
   43.3020   28.4270   86.2080 C   0  0  0  0  0  0
   42.1260   28.7310   86.4230 O   0  0  0  0  0  0
   43.5220   25.9360   85.9150 C   0  0  0  0  0  0
   42.1180   25.6710   86.4340 C   0  0  0  0  0  0
   41.2270   25.3550   85.6170 O   0  0  0  0  0  0
   41.9040   25.7630   87.6600 O   0  0  0  0  0  0
   44.3280   29.0320   86.8020 N   0  0  0  0  0  0
   44.1510   30.1500   87.7260 C   0  0  2  0  0  0
   44.1620   31.5080   87.0270 C   0  0  0  0  0  0
   44.2130   32.5430   87.6880 O   0  0  0  0  0  0
   45.2350   30.1310   88.8030 C   0  0  0  0  0  0
   45.1780   28.9990   89.8240 C   0  0  0  0  0  0
   46.3790   29.0680   90.7490 C   0  0  0  0  0  0
   43.8820   29.0770   90.6130 C   0  0  0  0  0  0
   44.1210   31.4970   85.6970 N   0  0  0  0  0  0
   44.2090   32.7130   84.9010 C   0  0  0  0  0  0
   43.1780   33.7900   85.2030 C   0  0  0  0  0  0
   43.5320   34.9590   85.3710 O   0  0  0  0  0  0
   41.9050   33.4060   85.2610 N   0  0  0  0  0  0
   40.8360   34.3590   85.5400 C   0  0  2  0  0  0
   40.9510   34.9520   86.9430 C   0  0  0  0  0  0
   40.7960   36.1590   87.1270 O   0  0  0  0  0  0
   39.4670   33.6940   85.3740 C   0  0  0  0  0  0
   39.2150   33.1070   83.9920 C   0  0  0  0  0  0
   38.0580   33.8060   83.2860 C   0  0  0  0  0  0
   38.3980   35.1630   82.8640 N   0  0  0  0  0  0
   37.5790   35.9640   82.1870 C   0  0  0  0  0  0
   36.3660   35.5460   81.8530 N   0  0  0  0  0  0
   37.9730   37.1830   81.8430 N   0  0  0  0  0  0
   41.2300   34.1010   87.9270 N   0  0  0  0  0  0
   41.2970   34.5380   89.3190 C   0  0  2  0  0  0
   42.5480   35.3550   89.6000 C   0  0  0  0  0  0
   42.5540   36.2140   90.4810 O   0  0  0  0  0  0
   41.2520   33.3350   90.2630 C   0  0  0  0  0  0
   39.8780   32.7760   90.6280 C   0  0  0  0  0  0
   40.0320   31.6040   91.5740 C   0  0  0  0  0  0
   39.0120   33.8520   91.2590 C   0  0  0  0  0  0
   43.6080   35.0790   88.8500 N   0  0  0  0  0  0
   44.8610   35.8040   88.9990 C   0  0  2  0  0  0
   44.7070   37.2300   88.4800 C   0  0  0  0  0  0
   45.4050   38.1450   88.9200 O   0  0  0  0  0  0
   45.9830   35.0720   88.2660 C   0  0  0  0  0  0
   47.3740   35.5830   88.5620 C   0  0  0  0  0  0
   48.4060   34.7000   87.8890 C   0  0  0  0  0  0
   48.2950   33.2690   88.3910 C   0  0  0  0  0  0
   49.3410   32.3940   87.7990 N   0  3  0  0  0  0
   43.7850   37.4020   87.5360 N   0  0  0  0  0  0
   43.4750   38.7120   86.9730 C   0  0  2  0  0  0
   42.3420   39.3930   87.7400 C   0  0  0  0  0  0
   41.3590   38.7550   88.1110 O   0  0  0  0  0  0
   43.1140   38.5860   85.4900 C   0  0  0  0  0  0
   44.2710   38.1280   84.6080 C   0  0  0  0  0  0
   43.9000   38.1520   83.1310 C   0  0  0  0  0  0
   45.0830   37.7610   82.2570 C   0  0  0  0  0  0
   44.7530   37.8190   80.8060 N   0  3  0  0  0  0
   42.4880   40.6920   87.9800 N   0  0  0  0  0  0
   39.2716   31.3944   80.8262 H   0  0  0  0  0  0
   39.6842   33.8246   81.5109 H   0  0  0  0  0  0
   40.9041   33.1684   78.8162 H   0  0  0  0  0  0
   39.1578   34.8643   78.3519 H   0  0  0  0  0  0
   39.8285   35.9350   79.6287 H   0  0  0  0  0  0
   41.2249   38.0141   78.3499 H   0  0  0  0  0  0
   42.7987   35.7120   75.1720 H   0  0  0  0  0  0
   42.8156   32.5281   79.6297 H   0  0  0  0  0  0
   44.8106   34.5565   80.1907 H   0  0  0  0  0  0
   44.2030   33.9961   81.7855 H   0  0  0  0  0  0
   46.7142   33.5621   81.6160 H   0  0  0  0  0  0
   47.0586   30.8941   80.2401 H   0  0  0  0  0  0
   48.7691   32.8808   80.1969 H   0  0  0  0  0  0
   49.2056   32.3607   81.8599 H   0  0  0  0  0  0
   49.9219   30.2071   81.0569 H   0  0  0  0  0  0
   49.3350   30.5814   79.4010 H   0  0  0  0  0  0
   50.9434   32.5303   79.3657 H   0  0  0  0  0  0
   51.6132   31.9239   80.9183 H   0  0  0  0  0  0
   51.5297   29.9263   78.6316 H   0  0  0  0  0  0
   53.3177   32.4132   80.5945 H   0  0  0  0  0  0
   55.0079   31.7287   80.0426 H   0  0  0  0  0  0
   53.5100   29.1316   77.9776 H   0  0  0  0  0  0
   46.7630   29.0293   81.1613 H   0  0  0  0  0  0
   47.0332   27.4453   83.0013 H   0  0  0  0  0  0
   47.3442   28.7837   84.1583 H   0  0  0  0  0  0
   45.8244   26.8295   85.0477 H   0  0  0  0  0  0
   42.9853   27.3573   84.3629 H   0  0  0  0  0  0
   43.7696   25.1413   85.1959 H   0  0  0  0  0  0
   44.2115   25.8841   86.7705 H   0  0  0  0  0  0
   40.2033   25.1583   85.9683 H   0  0  0  0  0  0
   45.3383   28.6608   86.5749 H   0  0  0  0  0  0
   43.1528   29.9766   88.1545 H   0  0  0  0  0  0
   46.2234   30.0499   88.3270 H   0  0  0  0  0  0
   45.1856   31.0603   89.3894 H   0  0  0  0  0  0
   45.2067   28.0322   89.3001 H   0  0  0  0  0  0
   47.3030   29.0097   90.1551 H   0  0  0  0  0  0
   46.3449   28.2273   91.4575 H   0  0  0  0  0  0
   46.3596   30.0170   91.3049 H   0  0  0  0  0  0
   43.0281   29.0251   89.9215 H   0  0  0  0  0  0
   43.8472   30.0261   91.1680 H   0  0  0  0  0  0
   43.8324   28.2363   91.3207 H   0  0  0  0  0  0
   44.0162   30.5210   85.2005 H   0  0  0  0  0  0
   45.1918   33.1822   85.0557 H   0  0  0  0  0  0
   44.0849   32.4643   83.8367 H   0  0  0  0  0  0
   41.6664   32.3454   85.0934 H   0  0  0  0  0  0
   40.9798   35.1557   84.7953 H   0  0  0  0  0  0
   39.3704   32.8688   86.0950 H   0  0  0  0  0  0
   38.6748   34.4350   85.5566 H   0  0  0  0  0  0
   40.1181   33.2220   83.3746 H   0  0  0  0  0  0
   38.9690   32.0390   84.0865 H   0  0  0  0  0  0
   37.7755   33.2335   82.3902 H   0  0  0  0  0  0
   37.1969   33.8690   83.9675 H   0  0  0  0  0  0
   39.3862   35.5823   83.1042 H   0  0  0  0  0  0
   36.0350   34.5359   82.1361 H   0  0  0  0  0  0
   38.9786   37.5341   82.1180 H   0  0  0  0  0  0
   37.2942   37.8428   81.2828 H   0  0  0  0  0  0
   41.4123   33.0466   87.6722 H   0  0  0  0  0  0
   40.4116   35.1777   89.4488 H   0  0  0  0  0  0
   41.7975   32.4935   89.8109 H   0  0  0  0  0  0
   41.7207   33.6032   91.2213 H   0  0  0  0  0  0
   39.3781   32.4263   89.7127 H   0  0  0  0  0  0
   40.6609   30.8336   91.1039 H   0  0  0  0  0  0
   39.0415   31.1818   91.7989 H   0  0  0  0  0  0
   40.5055   31.9452   92.5064 H   0  0  0  0  0  0
   38.9092   34.6960   90.5611 H   0  0  0  0  0  0
   39.4818   34.2014   92.1902 H   0  0  0  0  0  0
   38.0178   33.4380   91.4828 H   0  0  0  0  0  0
   43.5215   34.2785   88.1005 H   0  0  0  0  0  0
   45.0802   35.8278   90.0767 H   0  0  0  0  0  0
   45.9705   34.0082   88.5454 H   0  0  0  0  0  0
   45.8351   35.1676   87.1802 H   0  0  0  0  0  0
   47.4754   36.6107   88.1832 H   0  0  0  0  0  0
   47.5443   35.5743   89.6487 H   0  0  0  0  0  0
   48.2433   34.7096   86.8011 H   0  0  0  0  0  0
   49.4143   35.0788   88.1123 H   0  0  0  0  0  0
   48.4106   33.2542   89.4848 H   0  0  0  0  0  0
   47.3098   32.8610   88.1209 H   0  0  0  0  0  0
   49.2259   31.3711   88.1867 H   0  0  0  0  0  0
   50.3359   32.7783   88.0681 H   0  0  0  0  0  0
   49.2351   32.3852   86.7041 H   0  0  0  0  0  0
   43.2483   36.5098   87.1811 H   0  0  0  0  0  0
   44.3970   39.2999   87.0921 H   0  0  0  0  0  0
   42.3039   37.8514   85.3710 H   0  0  0  0  0  0
   42.7819   39.5631   85.1092 H   0  0  0  0  0  0
   45.1329   38.7947   84.7585 H   0  0  0  0  0  0
   44.5520   37.0990   84.8768 H   0  0  0  0  0  0
   43.0798   37.4424   82.9474 H   0  0  0  0  0  0
   43.5776   39.1656   82.8503 H   0  0  0  0  0  0
   45.9208   38.4487   82.4448 H   0  0  0  0  0  0
   45.3919   36.7328   82.4965 H   0  0  0  0  0  0
   45.6359   37.5291   80.2173 H   0  0  0  0  0  0
   44.4542   38.8433   80.5386 H   0  0  0  0  0  0
   43.9252   37.1274   80.5903 H   0  0  0  0  0  0
   43.3867   41.2189   87.6270 H   0  0  0  0  0  0
   41.7101   41.2402   88.5317 H   0  0  0  0  0  0
  1  2  2  0  0  0
  1  3  1  0  0  0
  1 90  1  0  0  0
  3  4  1  0  0  0
  3 91  1  0  0  0
  4  5  1  0  0  0
  4  7  1  0  0  0
  4 92  1  0  0  0
  5  6  2  0  0  0
  5 13  1  0  0  0
  7  8  1  0  0  0
  7 93  1  0  0  0
  7 94  1  0  0  0
  8  9  2  0  0  0
  8 10  1  0  0  0
  9 11  1  0  0  0
 10 12  2  0  0  0
 10 95  1  0  0  0
 11 12  1  0  0  0
 11 96  1  0  0  0
 13 14  1  0  0  0
 13 97  1  0  0  0
 14 15  1  0  0  0
 14 98  1  0  0  0
 14 99  1  0  0  0
 15 16  2  0  0  0
 15 17  1  0  0  0
 17 18  1  0  0  0
 17100  1  0  0  0
 18 19  1  0  0  0
 18 21  1  0  0  0
 18101  1  0  0  0
 19 20  2  0  0  0
 19 28  1  0  0  0
 21 22  1  0  0  0
 21102  1  0  0  0
 21103  1  0  0  0
 22 23  1  0  0  0
 22104  1  0  0  0
 22105  1  0  0  0
 23 24  1  0  0  0
 23106  1  0  0  0
 23107  1  0  0  0
 24 25  1  0  0  0
 24108  1  0  0  0
 25 26  1  0  0  0
 25 27  2  0  0  0
 26109  1  0  0  0
 26110  1  0  0  0
 27111  1  0  0  0
 28 29  1  0  0  0
 28112  1  0  0  0
 29 30  1  0  0  0
 29113  1  0  0  0
 29114  1  0  0  0
 30 31  2  0  0  0
 30 32  1  0  0  0
 32 33  1  0  0  0
 32115  1  0  0  0
 33 34  1  0  0  0
 33 36  1  0  0  0
 33116  1  0  0  0
 34 35  2  0  0  0
 34 40  1  0  0  0
 36 37  1  0  0  0
 36117  1  0  0  0
 36118  1  0  0  0
 37 38  1  0  0  0
 37 39  2  0  0  0
 38119  1  0  0  0
 40 41  1  0  0  0
 40120  1  0  0  0
 41 42  1  0  0  0
 41 44  1  0  0  0
 41121  1  0  0  0
 42 43  2  0  0  0
 42 48  1  0  0  0
 44 45  1  0  0  0
 44122  1  0  0  0
 44123  1  0  0  0
 45 46  1  0  0  0
 45 47  1  0  0  0
 45124  1  0  0  0
 46125  1  0  0  0
 46126  1  0  0  0
 46127  1  0  0  0
 47128  1  0  0  0
 47129  1  0  0  0
 47130  1  0  0  0
 48 49  1  0  0  0
 48131  1  0  0  0
 49 50  1  0  0  0
 49132  1  0  0  0
 49133  1  0  0  0
 50 51  2  0  0  0
 50 52  1  0  0  0
 52 53  1  0  0  0
 52134  1  0  0  0
 53 54  1  0  0  0
 53 56  1  0  0  0
 53135  1  0  0  0
 54 55  2  0  0  0
 54 63  1  0  0  0
 56 57  1  0  0  0
 56136  1  0  0  0
 56137  1  0  0  0
 57 58  1  0  0  0
 57138  1  0  0  0
 57139  1  0  0  0
 58 59  1  0  0  0
 58140  1  0  0  0
 58141  1  0  0  0
 59 60  1  0  0  0
 59142  1  0  0  0
 60 61  2  0  0  0
 60 62  1  0  0  0
 61143  1  0  0  0
 62144  1  0  0  0
 62145  1  0  0  0
 63 64  1  0  0  0
 63146  1  0  0  0
 64 65  1  0  0  0
 64 67  1  0  0  0
 64147  1  0  0  0
 65 66  2  0  0  0
 65 71  1  0  0  0
 67 68  1  0  0  0
 67148  1  0  0  0
 67149  1  0  0  0
 68 69  1  0  0  0
 68 70  1  0  0  0
 68150  1  0  0  0
 69151  1  0  0  0
 69152  1  0  0  0
 69153  1  0  0  0
 70154  1  0  0  0
 70155  1  0  0  0
 70156  1  0  0  0
 71 72  1  0  0  0
 71157  1  0  0  0
 72 73  1  0  0  0
 72 75  1  0  0  0
 72158  1  0  0  0
 73 74  2  0  0  0
 73 80  1  0  0  0
 75 76  1  0  0  0
 75159  1  0  0  0
 75160  1  0  0  0
 76 77  1  0  0  0
 76161  1  0  0  0
 76162  1  0  0  0
 77 78  1  0  0  0
 77163  1  0  0  0
 77164  1  0  0  0
 78 79  1  0  0  0
 78165  1  0  0  0
 78166  1  0  0  0
 79167  1  0  0  0
 79168  1  0  0  0
 79169  1  0  0  0
 80 81  1  0  0  0
 80170  1  0  0  0
 81 82  1  0  0  0
 81 84  1  0  0  0
 81171  1  0  0  0
 82 83  2  0  0  0
 82 89  1  0  0  0
 84 85  1  0  0  0
 84172  1  0  0  0
 84173  1  0  0  0
 85 86  1  0  0  0
 85174  1  0  0  0
 85175  1  0  0  0
 86 87  1  0  0  0
 86176  1  0  0  0
 86177  1  0  0  0
 87 88  1  0  0  0
 87178  1  0  0  0
 87179  1  0  0  0
 88180  1  0  0  0
 88181  1  0  0  0
 88182  1  0  0  0
 89183  1  0  0  0
 89184  1  0  0  0
M  CHG  2  79   1  88   1
M  END
> <s_m_source_file>
../4um9_ligand.sdf

> <i_m_source_file_index>
1

> <s_epik_input>
W0NIXTE9TltDSDJdTj1DMVtDSDJdW0NASF0oW05IXVtDSF09TylDKD1PKVtOSF1bQ0gyXUMoPU8pW05IXVtDQEBIXShbQ0gyXVtDSDJdW0NIMl1bTkhdL0MoW05IMl0pPU5cW0hdKUMoPU8pW05IXVtDSDJdQyg9TylbTkhdW0NAQEhdKFtDSDJdQyg9TylbT0hdKUMoPU8pW05IXVtDQEBIXShbQ0gyXVtDSF0oW0NIM10pW0NIM10pQyg9TylbTkhdW0NIMl1DKD1PKVtOSF1bQ0BASF0oW0NIMl1bQ0gyXVtDSDJdW05IXS9DKD1OXFtIXSlbTkgyXSlDKD1PKVtOSF1bQ0BASF0oW0NIMl1bQ0hdKFtDSDNdKVtDSDNdKUMoPU8pW05IXVtDQEBIXShbQ0gyXVtDSDJdW0NIMl1bQ0gyXVtOSDMrXSlDKD1PKVtOSF1bQ0BIXShDKD1PKVtOSDJdKVtDSDJdW0NIMl1bQ0gyXVtDSDJdW05IMytd

> <s_epik_cmdline>
J2VwaWtfYXBwJywgJy1pbWFlJywgJ2xpZ2FuZF9wcm8ubWFlJywgJy1vbWFlJywgJ2xpZ2FuZF9wcmVwLm1hZScsICctbXMnLCAnMScsICctcGgnLCAnNycsICctcGh0JywgJzAuNScsICctbnQn

> <s_epik_pKa_notes>
Molecule size exceeds maximum supported for generating protonation states

> <s_epik_Chemistry_Notes>
This compound has an imine and may undergo hydrolysis.

$$$$
