4uma_ligand
                    3D
 Schrodinger Suite 2020-3.
 17 16  0  0  1  0            999 V2000
   -5.2090  -84.8430    0.4120 C   0  0  0  0  0  0
   -4.6600  -85.5600   -0.4430 O   0  5  0  0  0  0
   -4.5850  -83.9800    0.9960 O   0  0  0  0  0  0
   -6.6830  -84.9990    0.7740 C   0  0  2  0  0  0
   -7.3630  -83.9210    1.6140 C   0  0  0  0  0  0
   -7.2600  -86.3130    0.4820 C   0  0  0  0  0  0
   -8.9860  -86.7260    0.7840 P   0  0  0  0  0  0
   -9.0490  -88.2980    0.6640 O   0  5  0  0  0  0
   -9.2940  -86.4360    2.2710 O   0  0  0  0  0  0
   -9.9360  -86.0380   -0.1660 O   0  0  0  0  0  0
   -7.4873  -84.7025    0.0846 H   0  0  0  0  0  0
   -6.7112  -83.0369    1.6733 H   0  0  0  0  0  0
   -7.5488  -84.3082    2.6267 H   0  0  0  0  0  0
   -8.3190  -83.6412    1.1473 H   0  0  0  0  0  0
   -7.1548  -86.5293   -0.5914 H   0  0  0  0  0  0
   -6.7326  -87.0827    1.0646 H   0  0  0  0  0  0
   -8.6696  -86.8821    3.0591 H   0  0  0  0  0  0
  1  2  1  0  0  0
  1  3  2  0  0  0
  1  4  1  0  0  0
  4  5  1  0  0  0
  4  6  1  0  0  0
  4 11  1  0  0  0
  5 12  1  0  0  0
  5 13  1  0  0  0
  5 14  1  0  0  0
  6  7  1  0  0  0
  6 15  1  0  0  0
  6 16  1  0  0  0
  7  8  1  0  0  0
  7  9  1  0  0  0
  7 10  2  0  0  0
  9 17  1  0  0  0
M  CHG  2   2  -1   8  -1
M  END
> <s_m_source_file>
../4uma_ligand.sdf

> <i_m_source_file_index>
1

> <s_epik_input>
W09IXUMoPU8pW0NASF0oW0NIM10pW0NIMl1QKD1PKShbT0hdKVtPSF0=

> <s_epik_cmdline>
J2VwaWtfYXBwJywgJy1pbWFlJywgJ2xpZ2FuZF9wcm8ubWFlJywgJy1vbWFlJywgJ2xpZ2FuZF9wcmVwLm1hZScsICctbXMnLCAnMScsICctcGgnLCAnNycsICctcGh0JywgJzAuNScsICctbnQn

> <r_epik_Ionization_Penalty>
  0.0508

> <r_epik_Ionization_Penalty_Charging>
  0.0011

> <r_epik_Ionization_Penalty_Neutral>
  0.0498

> <r_epik_State_Penalty>
  0.0426

> <r_epik_Charging_Adjusted_Penalty>
0.0436108294215307

> <i_epik_Tot_Q>
-2

> <i_epik_Tot_abs_Q>
2

$$$$
