4umb_ligand
                    3D
 Schrodinger Suite 2020-3.
 14 13  0  0  1  0            999 V2000
   45.2510  -22.7690   -3.1840 C   0  0  0  0  0  0
   44.5030  -23.1800   -2.2720 O   0  0  0  0  0  0
   45.9830  -21.7570   -3.1410 O   0  5  0  0  0  0
   45.2140  -23.5940   -4.4550 C   0  0  1  0  0  0
   43.9030  -23.2080   -5.1490 C   0  0  0  0  0  0
   46.3310  -23.3010   -5.3120 O   0  0  0  0  0  0
   46.6820  -24.3070   -6.5450 P   0  0  0  0  0  0
   46.1840  -23.4840   -7.8140 O   0  5  0  0  0  0
   48.2820  -24.3260   -6.6820 O   0  5  0  0  0  0
   45.9440  -25.6160   -6.4710 O   0  0  0  0  0  0
   45.3263  -24.6698   -4.2547 H   0  0  0  0  0  0
   43.0559  -23.4361   -4.4854 H   0  0  0  0  0  0
   43.8009  -23.7792   -6.0835 H   0  0  0  0  0  0
   43.9115  -22.1317   -5.3761 H   0  0  0  0  0  0
  1  2  2  0  0  0
  1  3  1  0  0  0
  1  4  1  0  0  0
  4  5  1  0  0  0
  4  6  1  0  0  0
  4 11  1  0  0  0
  5 12  1  0  0  0
  5 13  1  0  0  0
  5 14  1  0  0  0
  6  7  1  0  0  0
  7  8  1  0  0  0
  7  9  1  0  0  0
  7 10  2  0  0  0
M  CHG  3   3  -1   8  -1   9  -1
M  END
> <s_m_source_file>
../4umb_ligand.sdf

> <i_m_source_file_index>
1

> <s_epik_input>
Tz1DKFtPSF0pW0NAQEhdKFtDSDNdKU9QKD1PKShbT0hdKVtPSF0=

> <s_epik_cmdline>
J2VwaWtfYXBwJywgJy1pbWFlJywgJ2xpZ2FuZF9wcm8ubWFlJywgJy1vbWFlJywgJ2xpZ2FuZF9wcmVwLm1hZScsICctbXMnLCAnMScsICctcGgnLCAnNycsICctcGh0JywgJzAuNScsICctbnQn

> <r_epik_Ionization_Penalty>
  0.1457

> <r_epik_Ionization_Penalty_Charging>
  0.1457

> <r_epik_Ionization_Penalty_Neutral>
  0.0000

> <r_epik_State_Penalty>
  0.1346

> <r_epik_Charging_Adjusted_Penalty>
0.28033412605676

> <i_epik_Tot_Q>
-3

> <i_epik_Tot_abs_Q>
3

$$$$
