4umc_ligand
                    3D
 Schrodinger Suite 2020-3.
 14 13  0  0  1  0            999 V2000
  -27.2070  -16.0320  -37.7930 C   0  0  0  0  0  0
  -27.5550  -16.9140  -36.9720 O   0  0  0  0  0  0
  -28.0020  -15.2760  -38.4360 O   0  5  0  0  0  0
  -25.6580  -15.9390  -38.0500 C   0  0  2  0  0  0
  -25.2520  -14.9390  -39.1610 C   0  0  0  0  0  0
  -25.1500  -17.2820  -38.3500 O   0  0  0  0  0  0
  -23.5420  -17.7070  -38.5790 P   0  0  0  0  0  0
  -23.4780  -19.3010  -38.5320 O   0  5  0  0  0  0
  -23.2500  -17.2990  -40.1350 O   0  5  0  0  0  0
  -22.6260  -17.1790  -37.5480 O   0  0  0  0  0  0
  -25.1546  -15.5933  -37.1351 H   0  0  0  0  0  0
  -25.6426  -13.9403  -38.9160 H   0  0  0  0  0  0
  -25.6699  -15.2703  -40.1231 H   0  0  0  0  0  0
  -24.1552  -14.8962  -39.2329 H   0  0  0  0  0  0
  1  2  2  0  0  0
  1  3  1  0  0  0
  1  4  1  0  0  0
  4  5  1  0  0  0
  4  6  1  0  0  0
  4 11  1  0  0  0
  5 12  1  0  0  0
  5 13  1  0  0  0
  5 14  1  0  0  0
  6  7  1  0  0  0
  7  8  1  0  0  0
  7  9  1  0  0  0
  7 10  2  0  0  0
M  CHG  3   3  -1   8  -1   9  -1
M  END
> <s_m_source_file>
../4umc_ligand.sdf

> <i_m_source_file_index>
1

> <s_epik_input>
Tz1DKFtPSF0pW0NASF0oW0NIM10pT1AoPU8pKFtPSF0pW09IXQ==

> <s_epik_cmdline>
J2VwaWtfYXBwJywgJy1pbWFlJywgJ2xpZ2FuZF9wcm8ubWFlJywgJy1vbWFlJywgJ2xpZ2FuZF9wcmVwLm1hZScsICctbXMnLCAnMScsICctcGgnLCAnNycsICctcGh0JywgJzAuNScsICctbnQn

> <r_epik_Ionization_Penalty>
  0.1457

> <r_epik_Ionization_Penalty_Charging>
  0.1457

> <r_epik_Ionization_Penalty_Neutral>
  0.0000

> <r_epik_State_Penalty>
  0.1346

> <r_epik_Charging_Adjusted_Penalty>
0.28033412605676

> <i_epik_Tot_Q>
-3

> <i_epik_Tot_abs_Q>
3

$$$$
