4umj_ligand
                    3D
 Schrodinger Suite 2020-3.
 40 39  0  0  1  0            999 V2000
   14.5150   21.5730   -6.1580 P   0  0  0  0  0  0
   15.6990   21.3010   -7.0620 O   0  5  0  0  0  0
   14.2420   20.3950   -5.2500 O   0  0  0  0  0  0
   14.7390   22.9400   -5.4990 O   0  5  0  0  0  0
   13.0240   21.6730   -7.2070 C   0  0  1  0  0  0
   12.9120   20.0360   -8.0610 P   0  0  0  0  0  0
   14.0680   19.8470   -8.9820 O   0  5  0  0  0  0
   11.7190   20.0870   -8.9490 O   0  0  0  0  0  0
   12.6400   18.9630   -7.0330 O   0  0  0  0  0  0
   11.9400   21.9080   -6.3700 O   0  0  0  0  0  0
   13.0560   22.7660   -8.2420 C   0  0  0  0  0  0
   13.6090   24.1340   -7.8440 C   0  0  0  0  0  0
   12.8740   24.8990   -6.8250 N   0  3  1  0  0  0
   13.5960   26.1940   -6.7410 C   0  0  0  0  0  0
   14.0580   26.7320   -8.1060 C   0  0  0  0  0  0
   14.8140   28.0310   -8.0620 C   0  0  0  0  0  0
   15.9580   27.8800   -9.0500 C   0  0  0  0  0  0
   16.5230   29.1350   -9.6070 C   0  0  0  0  0  0
   11.5070   25.0660   -7.3310 C   0  0  0  0  0  0
   13.3892   18.7403   -6.2590 H   0  0  0  0  0  0
   11.7301   21.2220   -5.5361 H   0  0  0  0  0  0
   13.6789   22.4486   -9.0913 H   0  0  0  0  0  0
   12.0334   22.9688   -8.5929 H   0  0  0  0  0  0
   14.6247   24.0151   -7.4386 H   0  0  0  0  0  0
   13.6413   24.7878   -8.7280 H   0  0  0  0  0  0
   12.8123   24.4208   -5.8363 H   0  0  0  0  0  0
   12.9365   26.9532   -6.2952 H   0  0  0  0  0  0
   14.4926   26.0740   -6.1151 H   0  0  0  0  0  0
   14.7251   25.9985   -8.5825 H   0  0  0  0  0  0
   13.1817   26.9024   -8.7487 H   0  0  0  0  0  0
   14.1446   28.8548   -8.3505 H   0  0  0  0  0  0
   15.1885   28.2029   -7.0421 H   0  0  0  0  0  0
   16.7977   27.3631   -8.5624 H   0  0  0  0  0  0
   15.6193   27.2928   -9.9163 H   0  0  0  0  0  0
   17.3384   28.8922  -10.3042 H   0  0  0  0  0  0
   16.9138   29.7564   -8.7878 H   0  0  0  0  0  0
   15.7353   29.6861  -10.1416 H   0  0  0  0  0  0
   11.0106   24.0854   -7.3768 H   0  0  0  0  0  0
   11.5402   25.5076   -8.3379 H   0  0  0  0  0  0
   10.9454   25.7302   -6.6576 H   0  0  0  0  0  0
  1  2  1  0  0  0
  1  3  2  0  0  0
  1  4  1  0  0  0
  1  5  1  0  0  0
  5  6  1  0  0  0
  5 10  1  0  0  0
  5 11  1  0  0  0
  6  7  1  0  0  0
  6  8  2  0  0  0
  6  9  1  0  0  0
  9 20  1  0  0  0
 10 21  1  0  0  0
 11 12  1  0  0  0
 11 22  1  0  0  0
 11 23  1  0  0  0
 12 13  1  0  0  0
 12 24  1  0  0  0
 12 25  1  0  0  0
 13 14  1  0  0  0
 13 19  1  0  0  0
 13 26  1  0  0  0
 14 15  1  0  0  0
 14 27  1  0  0  0
 14 28  1  0  0  0
 15 16  1  0  0  0
 15 29  1  0  0  0
 15 30  1  0  0  0
 16 17  1  0  0  0
 16 31  1  0  0  0
 16 32  1  0  0  0
 17 18  1  0  0  0
 17 33  1  0  0  0
 17 34  1  0  0  0
 18 35  1  0  0  0
 18 36  1  0  0  0
 18 37  1  0  0  0
 19 38  1  0  0  0
 19 39  1  0  0  0
 19 40  1  0  0  0
M  CHG  4   2  -1   4  -1   7  -1  13   1
M  END
> <s_m_source_file>
../4umj_ligand.sdf

> <i_m_source_file_index>
1

> <s_epik_input>
W09IXVAoPU8pKFtPSF0pQyhbT0hdKShQKD1PKShbT0hdKVtPSF0pW0NIMl1bQ0gyXVtOQEgrXShbQ0gzXSlbQ0gyXVtDSDJdW0NIMl1bQ0gyXVtDSDNd

> <s_epik_cmdline>
J2VwaWtfYXBwJywgJy1pbWFlJywgJ2xpZ2FuZF9wcm8ubWFlJywgJy1vbWFlJywgJ2xpZ2FuZF9wcmVwLm1hZScsICctbXMnLCAnMScsICctcGgnLCAnNycsICctcGh0JywgJzAuNScsICctbnQn

> <r_epik_Ionization_Penalty>
  0.1195

> <r_epik_Ionization_Penalty_Charging>
  0.1194

> <r_epik_Ionization_Penalty_Neutral>
  0.0001

> <r_epik_State_Penalty>
  0.1072

> <r_epik_Charging_Adjusted_Penalty>
0.226650289505363

> <i_epik_Tot_Q>
-2

> <i_epik_Tot_abs_Q>
4

$$$$
