4umn_ligand
                    3D
 Schrodinger Suite 2020-3.
222227  0  0  1  0            999 V2000
    5.5860   14.5960  138.6050 C   0  0  0  0  0  0
    4.4740   15.1090  138.5880 O   0  0  0  0  0  0
    5.9330   13.4950  139.5700 C   0  0  0  0  0  0
    6.5530   14.9830  137.7730 N   0  0  0  0  0  0
    6.3500   16.0410  136.7920 C   0  0  2  0  0  0
    5.4230   15.6390  135.6740 C   0  0  0  0  0  0
    5.6010   14.5570  135.1400 O   0  0  0  0  0  0
    7.7120   16.4220  136.2270 C   0  0  2  0  0  0
    8.5790   16.7970  137.2970 O   0  0  0  0  0  0
    7.6200   17.5700  135.2300 C   0  0  0  0  0  0
    4.5050   16.4470  135.3300 N   0  0  0  0  0  0
    3.5630   16.1260  134.2590 C   0  0  2  0  0  0
    4.2130   16.1490  132.8710 C   0  0  0  0  0  0
    5.2190   16.8390  132.6560 O   0  0  0  0  0  0
    2.4330   17.1640  134.3280 C   0  0  0  0  0  0
    2.8800   18.4790  134.0450 O   0  0  0  0  0  0
    3.6280   15.4010  131.9380 N   0  0  0  0  0  0
    4.0250   15.4880  130.5340 C   0  0  2  0  0  0
    3.8910   16.9270  130.0400 C   0  0  0  0  0  0
    4.8120   17.4190  129.3840 O   0  0  0  0  0  0
    3.1950   14.5680  129.6280 C   0  0  0  0  0  0
    3.3680   14.8660  128.1590 C   0  0  0  0  0  0
    4.5440   14.5310  127.5070 C   0  0  0  0  0  0
    2.3770   15.5230  127.4450 C   0  0  0  0  0  0
    4.7180   14.8220  126.1650 C   0  0  0  0  0  0
    2.5430   15.8180  126.1010 C   0  0  0  0  0  0
    3.7160   15.4700  125.4610 C   0  0  0  0  0  0
    4.3790   20.6530  129.7240 O   0  0  0  0  0  0
    3.7860   19.9190  130.5640 C   0  0  0  0  0  0
    2.5670   19.1480  130.0840 C   0  0  1  0  0  0
    1.3530   19.5790  130.9170 C   0  0  0  0  0  0
    2.4150   19.4590  128.5950 C   0  0  0  0  0  0
    2.8260   17.7260  130.2880 N   0  0  0  0  0  0
    1.1530   19.0400  127.8400 C   0  0  0  0  0  0
    1.1890   19.5860  126.3980 C   0  0  0  0  0  0
    2.0550   20.8480  126.3110 C   0  0  0  0  0  0
    1.8940   21.6860  125.0670 C   0  0  0  0  0  0
    2.2650   23.1280  125.4010 C   0  0  0  0  0  0
    3.7540   23.4310  125.3080 C   0  0  0  0  0  0
    4.4140   19.7930  131.7520 N   0  0  0  0  0  0
    5.6160   20.5430  132.2020 C   0  0  2  0  0  0
    6.8630   20.1630  131.4090 C   0  0  0  0  0  0
    7.6190   21.0410  131.0000 O   0  0  0  0  0  0
    5.8490   20.3510  133.7000 C   0  0  0  0  0  0
    7.0270   21.1540  134.2250 C   0  0  0  0  0  0
    7.0200   21.3370  135.7310 C   0  0  0  0  0  0
    6.1490   20.7710  136.4250 O   0  0  0  0  0  0
    7.9050   22.0600  136.2180 O   0  0  0  0  0  0
    7.0840   18.8680  131.1950 N   0  0  0  0  0  0
    8.2280   18.4220  130.4060 C   0  0  2  0  0  0
    8.2100   19.0450  129.0060 C   0  0  0  0  0  0
    9.2240   19.5670  128.5430 O   0  0  0  0  0  0
    8.2610   16.8990  130.2800 C   0  0  0  0  0  0
    8.7810   16.1680  131.4970 C   0  0  0  0  0  0
   10.0710   16.3940  131.9740 C   0  0  0  0  0  0
    7.9960   15.2210  132.1500 C   0  0  0  0  0  0
   10.5570   15.7100  133.0790 C   0  0  0  0  0  0
    8.4740   14.5300  133.2530 C   0  0  0  0  0  0
    9.7510   14.7770  133.7130 C   0  0  0  0  0  0
   10.2160   14.0980  134.8110 O   0  0  0  0  0  0
    7.0580   18.9900  128.3450 N   0  0  0  0  0  0
    6.9310   19.5530  127.0020 C   0  0  2  0  0  0
    7.0640   21.0720  127.0400 C   0  0  0  0  0  0
    7.6860   21.6600  126.1610 O   0  0  0  0  0  0
    5.6120   19.1520  126.3470 C   0  0  0  0  0  0
    5.6500   19.2730  124.8570 C   0  0  0  0  0  0
    5.2030   20.3220  124.1040 C   0  0  0  0  0  0
    6.1780   18.3140  123.9330 C   0  0  0  0  0  0
    5.4110   20.0710  122.7690 N   0  0  0  0  0  0
    6.0120   18.8480  122.6360 C   0  0  0  0  0  0
    6.7760   17.0580  124.0740 C   0  0  0  0  0  0
    6.4180   18.1670  121.4910 C   0  0  0  0  0  0
    7.1830   16.3820  122.9340 C   0  0  0  0  0  0
    6.9990   16.9370  121.6580 C   0  0  0  0  0  0
    6.4810   21.6890  128.0680 N   0  0  0  0  0  0
    6.6310   23.1200  128.3340 C   0  0  2  0  0  0
    8.1060   23.5200  128.4520 C   0  0  0  0  0  0
    8.5230   24.5480  127.9100 O   0  0  0  0  0  0
    5.8630   23.4750  129.6140 C   0  0  0  0  0  0
    5.9950   24.8950  130.1140 C   0  0  0  0  0  0
    7.0010   25.2490  131.0090 C   0  0  0  0  0  0
    5.0800   25.8760  129.7350 C   0  0  0  0  0  0
    7.1110   26.5430  131.4860 C   0  0  0  0  0  0
    5.1840   27.1720  130.2070 C   0  0  0  0  0  0
    6.1990   27.4970  131.0850 C   0  0  0  0  0  0
    6.3020   28.7780  131.5550 O   0  0  0  0  0  0
    8.8930   22.7070  129.1530 N   0  0  0  0  0  0
   10.3210   22.9740  129.3060 C   0  0  2  0  0  0
   11.0590   22.7430  127.9890 C   0  0  0  0  0  0
   12.0200   23.4480  127.6760 O   0  0  0  0  0  0
   10.9190   22.1300  130.4390 C   0  0  0  0  0  0
   10.4750   22.5530  131.8450 C   0  0  0  0  0  0
   10.8110   21.4830  132.8760 C   0  0  0  0  0  0
   11.0870   23.8930  132.2370 C   0  0  0  0  0  0
   10.5980   21.7670  127.2120 N   0  0  0  0  0  0
   11.0830   21.5790  125.8460 C   0  0  2  0  0  0
   10.7670   22.7990  124.9620 C   0  0  0  0  0  0
   11.6710   23.2780  124.2540 O   0  0  0  0  0  0
   10.4890   20.3090  125.2320 C   0  0  0  0  0  0
   10.7660   20.0670  123.7460 C   0  0  0  0  0  0
   12.1990   19.6110  123.5400 C   0  0  0  0  0  0
    9.7830   19.0540  123.1900 C   0  0  0  0  0  0
   10.2030   25.7700  124.4400 C   0  0  0  0  0  0
    9.6530   23.4330  124.8460 N   0  0  0  0  0  0
   10.5680   26.5300  123.5190 O   0  0  0  0  0  0
    9.2400   24.6450  124.1340 C   0  0  1  0  0  0
    7.8880   25.1540  124.6150 C   0  0  0  0  0  0
    5.4820   25.0470  124.2350 C   0  0  0  0  0  0
    4.1230   24.4600  124.5390 C   0  0  0  0  0  0
    6.7050   24.1920  124.5350 C   0  0  0  0  0  0
    9.2280   24.3600  122.6360 C   0  0  0  0  0  0
   10.6600   25.9530  125.7730 N   0  0  0  0  0  0
    5.0583   13.2680  140.1972 H   0  0  0  0  0  0
    6.7686   13.8172  140.2088 H   0  0  0  0  0  0
    6.2258   12.5950  139.0095 H   0  0  0  0  0  0
    7.5274   14.4775  137.8430 H   0  0  0  0  0  0
    5.8615   16.8671  137.3295 H   0  0  0  0  0  0
    8.1623   15.5459  135.7375 H   0  0  0  0  0  0
    8.7722   16.0938  138.1206 H   0  0  0  0  0  0
    6.9525   17.2851  134.4034 H   0  0  0  0  0  0
    8.6215   17.7918  134.8328 H   0  0  0  0  0  0
    7.2195   18.4620  135.7339 H   0  0  0  0  0  0
    4.4289   17.4081  135.8597 H   0  0  0  0  0  0
    3.2192   15.0975  134.4436 H   0  0  0  0  0  0
    1.6544   16.9077  133.5944 H   0  0  0  0  0  0
    1.9983   17.1662  135.3384 H   0  0  0  0  0  0
    2.1680   19.3173  134.0612 H   0  0  0  0  0  0
    2.8307   14.7069  132.2421 H   0  0  0  0  0  0
    5.0734   15.1552  130.5309 H   0  0  0  0  0  0
    3.4960   13.5228  129.7924 H   0  0  0  0  0  0
    2.1275   14.6841  129.8668 H   0  0  0  0  0  0
    5.3416   14.0323  128.0576 H   0  0  0  0  0  0
    1.4542   15.8116  127.9482 H   0  0  0  0  0  0
    5.6434   14.5413  125.6620 H   0  0  0  0  0  0
    1.7495   16.3235  125.5506 H   0  0  0  0  0  0
    3.8532   15.7043  124.4054 H   0  0  0  0  0  0
    1.1623   20.6509  130.7597 H   0  0  0  0  0  0
    1.5555   19.3951  131.9825 H   0  0  0  0  0  0
    0.4708   19.0001  130.6061 H   0  0  0  0  0  0
    2.4619   20.5472  128.4411 H   0  0  0  0  0  0
    3.2276   18.9740  128.0343 H   0  0  0  0  0  0
    2.0510   17.0839  130.7319 H   0  0  0  0  0  0
    1.0925   17.9421  127.8079 H   0  0  0  0  0  0
    0.2675   19.4411  128.3548 H   0  0  0  0  0  0
    1.6094   18.8223  125.7272 H   0  0  0  0  0  0
    0.1676   19.8357  126.0748 H   0  0  0  0  0  0
    1.8202   21.5127  127.1554 H   0  0  0  0  0  0
    3.1177   20.5669  126.3503 H   0  0  0  0  0  0
    2.5568   21.3017  124.2777 H   0  0  0  0  0  0
    0.8497   21.6374  124.7247 H   0  0  0  0  0  0
    1.7546   23.8088  124.7038 H   0  0  0  0  0  0
    1.9543   23.3574  126.4310 H   0  0  0  0  0  0
    4.5149   22.8426  125.8417 H   0  0  0  0  0  0
    3.9500   19.0484  132.4156 H   0  0  0  0  0  0
    5.3936   21.6008  131.9980 H   0  0  0  0  0  0
    4.9538   20.6697  134.2541 H   0  0  0  0  0  0
    6.0495   19.2894  133.9068 H   0  0  0  0  0  0
    7.9651   20.6432  133.9623 H   0  0  0  0  0  0
    7.0171   22.1572  133.7740 H   0  0  0  0  0  0
    6.1440   20.9037  137.5170 H   0  0  0  0  0  0
    6.3895   18.1299  131.6226 H   0  0  0  0  0  0
    9.1009   18.7730  130.9759 H   0  0  0  0  0  0
    7.2430   16.5240  130.0985 H   0  0  0  0  0  0
    8.9117   16.6146  129.4399 H   0  0  0  0  0  0
   10.7088   17.1204  131.4704 H   0  0  0  0  0  0
    6.9880   15.0194  131.7876 H   0  0  0  0  0  0
   11.5648   15.9047  133.4458 H   0  0  0  0  0  0
    7.8439   13.7952  133.7542 H   0  0  0  0  0  0
   11.2328   14.2880  135.1853 H   0  0  0  0  0  0
    6.1917   18.5110  128.8248 H   0  0  0  0  0  0
    7.7638   19.1165  126.4311 H   0  0  0  0  0  0
    5.3828   18.1052  126.5951 H   0  0  0  0  0  0
    4.8058   19.8018  126.7182 H   0  0  0  0  0  0
    4.7471   21.2274  124.5045 H   0  0  0  0  0  0
    6.9194   16.6188  125.0612 H   0  0  0  0  0  0
    6.2788   18.5963  120.4988 H   0  0  0  0  0  0
    7.6536   15.4035  123.0302 H   0  0  0  0  0  0
    7.3252   16.3778  120.7811 H   0  0  0  0  0  0
    5.8626   21.0679  128.7327 H   0  0  0  0  0  0
    6.2029   23.6395  127.4640 H   0  0  0  0  0  0
    4.7868   23.3145  129.4523 H   0  0  0  0  0  0
    6.2093   22.8349  130.4389 H   0  0  0  0  0  0
    7.7141   24.4938  131.3395 H   0  0  0  0  0  0
    4.2685   25.6173  129.0549 H   0  0  0  0  0  0
    7.9136   26.8071  132.1746 H   0  0  0  0  0  0
    4.4699   27.9313  129.8882 H   0  0  0  0  0  0
    7.1080   29.0440  132.2547 H   0  0  0  0  0  0
    8.4463   21.8181  129.6224 H   0  0  0  0  0  0
   10.3940   24.0385  129.5733 H   0  0  0  0  0  0
   10.6202   21.0792  130.3104 H   0  0  0  0  0  0
   12.0161   22.2051  130.4124 H   0  0  0  0  0  0
    9.3817   22.6732  131.8316 H   0  0  0  0  0  0
   10.3597   20.5268  132.5725 H   0  0  0  0  0  0
   10.4129   21.7813  133.8571 H   0  0  0  0  0  0
   11.9030   21.3683  132.9428 H   0  0  0  0  0  0
   10.8315   24.6484  131.4793 H   0  0  0  0  0  0
   12.1806   23.7922  132.3001 H   0  0  0  0  0  0
   10.6905   24.2053  133.2144 H   0  0  0  0  0  0
    9.8323   21.0918  127.6216 H   0  0  0  0  0  0
   12.1728   21.4712  125.9491 H   0  0  0  0  0  0
   10.8865   19.4276  125.7565 H   0  0  0  0  0  0
    9.3937   20.3315  125.3310 H   0  0  0  0  0  0
   10.6334   21.0075  123.1911 H   0  0  0  0  0  0
   12.8864   20.3643  123.9524 H   0  0  0  0  0  0
   12.3933   19.4871  122.4644 H   0  0  0  0  0  0
   12.3558   18.6511  124.0539 H   0  0  0  0  0  0
    8.7558   19.4117  123.3539 H   0  0  0  0  0  0
    9.9215   18.0899  123.7012 H   0  0  0  0  0  0
    9.9590   18.9259  122.1118 H   0  0  0  0  0  0
    8.9205   22.8685  125.4417 H   0  0  0  0  0  0
    7.9598   25.4399  125.6748 H   0  0  0  0  0  0
    7.5923   26.0295  124.0183 H   0  0  0  0  0  0
    5.5489   25.2804  123.1621 H   0  0  0  0  0  0
    5.6229   25.9678  124.8200 H   0  0  0  0  0  0
    3.3634   25.0388  123.9931 H   0  0  0  0  0  0
    6.8818   23.4593  123.7338 H   0  0  0  0  0  0
    6.5944   23.6662  125.4948 H   0  0  0  0  0  0
   10.2178   23.9951  122.3243 H   0  0  0  0  0  0
    8.9887   25.2838  122.0889 H   0  0  0  0  0  0
    8.4688   23.5955  122.4143 H   0  0  0  0  0  0
   11.3606   26.7680  126.0072 H   0  0  0  0  0  0
   10.3132   25.2796  126.5707 H   0  0  0  0  0  0
  1  2  2  0  0  0
  1  3  1  0  0  0
  1  4  1  0  0  0
  3113  1  0  0  0
  3114  1  0  0  0
  3115  1  0  0  0
  4  5  1  0  0  0
  4116  1  0  0  0
  5  6  1  0  0  0
  5  8  1  0  0  0
  5117  1  0  0  0
  6  7  2  0  0  0
  6 11  1  0  0  0
  8  9  1  0  0  0
  8 10  1  0  0  0
  8118  1  0  0  0
  9119  1  0  0  0
 10120  1  0  0  0
 10121  1  0  0  0
 10122  1  0  0  0
 11 12  1  0  0  0
 11123  1  0  0  0
 12 13  1  0  0  0
 12 15  1  0  0  0
 12124  1  0  0  0
 13 14  2  0  0  0
 13 17  1  0  0  0
 15 16  1  0  0  0
 15125  1  0  0  0
 15126  1  0  0  0
 16127  1  0  0  0
 17 18  1  0  0  0
 17128  1  0  0  0
 18 19  1  0  0  0
 18 21  1  0  0  0
 18129  1  0  0  0
 19 20  2  0  0  0
 19 33  1  0  0  0
 21 22  1  0  0  0
 21130  1  0  0  0
 21131  1  0  0  0
 22 23  2  0  0  0
 22 24  1  0  0  0
 23 25  1  0  0  0
 23132  1  0  0  0
 24 26  2  0  0  0
 24133  1  0  0  0
 25 27  2  0  0  0
 25134  1  0  0  0
 26 27  1  0  0  0
 26135  1  0  0  0
 27136  1  0  0  0
 28 29  2  0  0  0
 29 30  1  0  0  0
 29 40  1  0  0  0
 30 31  1  0  0  0
 30 32  1  0  0  0
 30 33  1  0  0  0
 31137  1  0  0  0
 31138  1  0  0  0
 31139  1  0  0  0
 32 34  1  0  0  0
 32140  1  0  0  0
 32141  1  0  0  0
 33142  1  0  0  0
 34 35  1  0  0  0
 34143  1  0  0  0
 34144  1  0  0  0
 35 36  1  0  0  0
 35145  1  0  0  0
 35146  1  0  0  0
 36 37  1  0  0  0
 36147  1  0  0  0
 36148  1  0  0  0
 37 38  1  0  0  0
 37149  1  0  0  0
 37150  1  0  0  0
 38 39  1  0  0  0
 38151  1  0  0  0
 38152  1  0  0  0
 39109  2  0  0  0
 39153  1  0  0  0
 40 41  1  0  0  0
 40154  1  0  0  0
 41 42  1  0  0  0
 41 44  1  0  0  0
 41155  1  0  0  0
 42 43  2  0  0  0
 42 49  1  0  0  0
 44 45  1  0  0  0
 44156  1  0  0  0
 44157  1  0  0  0
 45 46  1  0  0  0
 45158  1  0  0  0
 45159  1  0  0  0
 46 47  1  0  0  0
 46 48  2  0  0  0
 47160  1  0  0  0
 49 50  1  0  0  0
 49161  1  0  0  0
 50 51  1  0  0  0
 50 53  1  0  0  0
 50162  1  0  0  0
 51 52  2  0  0  0
 51 61  1  0  0  0
 53 54  1  0  0  0
 53163  1  0  0  0
 53164  1  0  0  0
 54 55  2  0  0  0
 54 56  1  0  0  0
 55 57  1  0  0  0
 55165  1  0  0  0
 56 58  2  0  0  0
 56166  1  0  0  0
 57 59  2  0  0  0
 57167  1  0  0  0
 58 59  1  0  0  0
 58168  1  0  0  0
 59 60  1  0  0  0
 60169  1  0  0  0
 61 62  1  0  0  0
 61170  1  0  0  0
 62 63  1  0  0  0
 62 65  1  0  0  0
 62171  1  0  0  0
 63 64  2  0  0  0
 63 75  1  0  0  0
 65 66  1  0  0  0
 65172  1  0  0  0
 65173  1  0  0  0
 66 67  2  0  0  0
 66 68  1  0  0  0
 67 69  1  0  0  0
 67174  1  0  0  0
 68 70  2  0  0  0
 68 71  1  0  0  0
 69 70  1  0  0  0
 70 72  1  0  0  0
 71 73  2  0  0  0
 71175  1  0  0  0
 72 74  2  0  0  0
 72176  1  0  0  0
 73 74  1  0  0  0
 73177  1  0  0  0
 74178  1  0  0  0
 75 76  1  0  0  0
 75179  1  0  0  0
 76 77  1  0  0  0
 76 79  1  0  0  0
 76180  1  0  0  0
 77 78  2  0  0  0
 77 87  1  0  0  0
 79 80  1  0  0  0
 79181  1  0  0  0
 79182  1  0  0  0
 80 81  2  0  0  0
 80 82  1  0  0  0
 81 83  1  0  0  0
 81183  1  0  0  0
 82 84  2  0  0  0
 82184  1  0  0  0
 83 85  2  0  0  0
 83185  1  0  0  0
 84 85  1  0  0  0
 84186  1  0  0  0
 85 86  1  0  0  0
 86187  1  0  0  0
 87 88  1  0  0  0
 87188  1  0  0  0
 88 89  1  0  0  0
 88 91  1  0  0  0
 88189  1  0  0  0
 89 90  2  0  0  0
 89 95  1  0  0  0
 91 92  1  0  0  0
 91190  1  0  0  0
 91191  1  0  0  0
 92 93  1  0  0  0
 92 94  1  0  0  0
 92192  1  0  0  0
 93193  1  0  0  0
 93194  1  0  0  0
 93195  1  0  0  0
 94196  1  0  0  0
 94197  1  0  0  0
 94198  1  0  0  0
 95 96  1  0  0  0
 95199  1  0  0  0
 96 97  1  0  0  0
 96 99  1  0  0  0
 96200  1  0  0  0
 97 98  2  0  0  0
 97104  1  0  0  0
 99100  1  0  0  0
 99201  1  0  0  0
 99202  1  0  0  0
100101  1  0  0  0
100102  1  0  0  0
100203  1  0  0  0
101204  1  0  0  0
101205  1  0  0  0
101206  1  0  0  0
102207  1  0  0  0
102208  1  0  0  0
102209  1  0  0  0
103105  2  0  0  0
103106  1  0  0  0
103112  1  0  0  0
104106  1  0  0  0
104210  1  0  0  0
106107  1  0  0  0
106111  1  0  0  0
107110  1  0  0  0
107211  1  0  0  0
107212  1  0  0  0
108109  1  0  0  0
108110  1  0  0  0
108213  1  0  0  0
108214  1  0  0  0
109215  1  0  0  0
110216  1  0  0  0
110217  1  0  0  0
111218  1  0  0  0
111219  1  0  0  0
111220  1  0  0  0
112221  1  0  0  0
112222  1  0  0  0
M  END
> <s_m_source_file>
../4umn_ligand.sdf

> <i_m_source_file_index>
1

> <s_epik_input>
Tz1DKFtDSDNdKVtOSF1bQ0BASF0oW0NASF0oW09IXSlbQ0gzXSlDKD1PKVtOSF1bQ0BASF0oW0NIMl1bT0hdKUMoPU8pW05IXVtDQEBIXShbQ0gyXWMxW2NIXVtjSF1bY0hdW2NIXVtjSF0xKUMoPU8pW05IXVtDQEBdMihbQ0gzXSlDKD1PKVtOSF1bQ0BASF0oW0NIMl1bQ0gyXUMoPU8pW09IXSlDKD1PKVtOSF1bQ0BASF0oW0NIMl1jM1tjSF1bY0hdYyhbT0hdKVtjSF1bY0hdMylDKD1PKVtOSF1bQ0BASF0oW0NIMl1jNFtjSF1bbkhdYyhjNDUpW2NIXVtjSF1bY0hdW2NIXTUpQyg9TylbTkhdW0NAQEhdKFtDSDJdYzZbY0hdW2NIXWMoW09IXSlbY0hdW2NIXTYpQyg9TylbTkhdW0NAQEhdKFtDSDJdW0NIXShbQ0gzXSlbQ0gzXSlDKD1PKVtOSF1bQ0BASF0oW0NIMl1bQ0hdKFtDSDNdKVtDSDNdKUMoPU8pW05IXVtDQF0oW0NIM10pKEMoPU8pW05IMl0pW0NIMl1bQ0gyXVtDSDJdXFtDSF09W0NIXVxbQ0gyXVtDSDJdW0NIMl1bQ0gyXVtDSDJdW0NIMl0y

> <s_epik_cmdline>
J2VwaWtfYXBwJywgJy1pbWFlJywgJ2xpZ2FuZF9wcm8ubWFlJywgJy1vbWFlJywgJ2xpZ2FuZF9wcmVwLm1hZScsICctbXMnLCAnMScsICctcGgnLCAnNycsICctcGh0JywgJzAuNScsICctbnQn

> <s_epik_pKa_notes>
Molecule size exceeds maximum supported for generating protonation states

$$$$
