4umt_ligand
                    3D
 Schrodinger Suite 2020-3.
 55 58  0  0  1  0            999 V2000
   36.8120   20.0690   23.4470 C   0  0  0  0  0  0
   36.6350   21.4770   23.2560 O   0  0  0  0  0  0
   35.7430   21.8990   22.2990 C   0  0  0  0  0  0
   35.0260   21.0630   21.4570 C   0  0  0  0  0  0
   34.1420   21.5850   20.5170 C   0  0  0  0  0  0
   33.4550   20.7110   19.7050 O   0  0  0  0  0  0
   32.6060   21.2040   18.6250 C   0  0  0  0  0  0
   32.0420   20.0130   17.9580 C   0  0  0  0  0  0
   31.5800   19.0460   17.4190 C   0  0  0  0  0  0
   31.0340   17.8850   16.7730 C   0  0  0  0  0  0
   29.6590   17.6740   16.7260 C   0  0  0  0  0  0
   29.1430   16.5540   16.1030 C   0  0  0  0  0  0
   29.9950   15.6120   15.5080 C   0  0  0  0  0  0
   29.5210   14.4630   14.8660 C   0  0  0  0  0  0
   30.4170   13.5820   14.3060 C   0  0  0  0  0  0
   31.7410   13.7650   14.3410 N   0  0  0  0  0  0
   32.2120   14.8590   14.9530 C   0  0  0  0  0  0
   31.3860   15.8160   15.5520 C   0  0  0  0  0  0
   31.8850   16.9530   16.1850 C   0  0  0  0  0  0
   33.9770   22.9570   20.4210 C   0  0  0  0  0  0
   34.6870   23.8030   21.2570 C   0  0  0  0  0  0
   35.5780   23.2920   22.2080 C   0  0  0  0  0  0
   36.3480   24.2420   23.1050 C   0  0  0  0  0  0
   36.0970   24.0990   24.5850 N   0  3  0  0  0  0
   34.7050   24.5130   24.9410 C   0  0  0  0  0  0
   34.4790   24.3530   26.4390 C   0  0  0  0  0  0
   35.4460   25.1940   27.1910 N   0  0  1  0  0  0
   36.8520   24.8280   26.8640 C   0  0  0  0  0  0
   37.0950   24.9130   25.3590 C   0  0  0  0  0  0
   37.5529   19.8971   24.2417 H   0  0  0  0  0  0
   37.1664   19.6137   22.5105 H   0  0  0  0  0  0
   35.8527   19.6147   23.7355 H   0  0  0  0  0  0
   35.1561   19.9834   21.5320 H   0  0  0  0  0  0
   31.8081   21.8344   19.0445 H   0  0  0  0  0  0
   33.2117   21.7972   17.9241 H   0  0  0  0  0  0
   28.9845   18.3975   17.1840 H   0  0  0  0  0  0
   28.0642   16.4011   16.0736 H   0  0  0  0  0  0
   28.4502   14.2673   14.8099 H   0  0  0  0  0  0
   30.0290   12.6923   13.8101 H   0  0  0  0  0  0
   33.2908   15.0111   14.9860 H   0  0  0  0  0  0
   32.9622   17.1157   16.2204 H   0  0  0  0  0  0
   33.2871   23.3717   19.6861 H   0  0  0  0  0  0
   34.5500   24.8811   21.1732 H   0  0  0  0  0  0
   37.4276   24.0882   22.9610 H   0  0  0  0  0  0
   36.0881   25.2797   22.8490 H   0  0  0  0  0  0
   36.2076   23.0386   24.8557 H   0  0  0  0  0  0
   34.5535   25.5665   24.6633 H   0  0  0  0  0  0
   33.9849   23.8834   24.3977 H   0  0  0  0  0  0
   33.4549   24.6657   26.6908 H   0  0  0  0  0  0
   34.6202   23.2991   26.7206 H   0  0  0  0  0  0
   35.2910   26.2517   26.9319 H   0  0  0  0  0  0
   37.5390   25.5188   27.3748 H   0  0  0  0  0  0
   37.0504   23.7992   27.1988 H   0  0  0  0  0  0
   38.1098   24.5425   25.1519 H   0  0  0  0  0  0
   37.0211   25.9680   25.0566 H   0  0  0  0  0  0
  1  2  1  0  0  0
  1 30  1  0  0  0
  1 31  1  0  0  0
  1 32  1  0  0  0
  2  3  1  0  0  0
  3  4  2  0  0  0
  3 22  1  0  0  0
  4  5  1  0  0  0
  4 33  1  0  0  0
  5  6  1  0  0  0
  5 20  2  0  0  0
  6  7  1  0  0  0
  7  8  1  0  0  0
  7 34  1  0  0  0
  7 35  1  0  0  0
  8  9  3  0  0  0
  9 10  1  0  0  0
 10 11  2  0  0  0
 10 19  1  0  0  0
 11 12  1  0  0  0
 11 36  1  0  0  0
 12 13  2  0  0  0
 12 37  1  0  0  0
 13 14  1  0  0  0
 13 18  1  0  0  0
 14 15  2  0  0  0
 14 38  1  0  0  0
 15 16  1  0  0  0
 15 39  1  0  0  0
 16 17  2  0  0  0
 17 18  1  0  0  0
 17 40  1  0  0  0
 18 19  2  0  0  0
 19 41  1  0  0  0
 20 21  1  0  0  0
 20 42  1  0  0  0
 21 22  2  0  0  0
 21 43  1  0  0  0
 22 23  1  0  0  0
 23 24  1  0  0  0
 23 44  1  0  0  0
 23 45  1  0  0  0
 24 25  1  0  0  0
 24 29  1  0  0  0
 24 46  1  0  0  0
 25 26  1  0  0  0
 25 47  1  0  0  0
 25 48  1  0  0  0
 26 27  1  0  0  0
 26 49  1  0  0  0
 26 50  1  0  0  0
 27 28  1  0  0  0
 27 51  1  0  0  0
 28 29  1  0  0  0
 28 52  1  0  0  0
 28 53  1  0  0  0
 29 54  1  0  0  0
 29 55  1  0  0  0
M  CHG  1  24   1
M  END
> <s_m_source_file>
../4umt_ligand.sdf

> <i_m_source_file_index>
1

> <s_epik_input>
W0NIMl0xW0NIMl1bTkgyK11bQ0gyXVtDSDJdW05IK10xW0NIMl1jMltjSF1bY0hdYyhbY0hdYzJPW0NIM10pT1tDSDJdQyNDYyhbY0hdW2NIXTMpW2NIXWMoYzM0KVtjSF1uW2NIXVtjSF00

> <s_epik_cmdline>
J2VwaWtfYXBwJywgJy1pbWFlJywgJ2xpZ2FuZF9wcm8ubWFlJywgJy1vbWFlJywgJ2xpZ2FuZF9wcmVwLm1hZScsICctbXMnLCAnMScsICctcGgnLCAnNycsICctcGh0JywgJzAuNScsICctbnQn

> <r_lp_tautomer_probability>
1

> <r_epik_Ionization_Penalty>
  0.0536

> <r_epik_Ionization_Penalty_Charging>
  0.0155

> <r_epik_Ionization_Penalty_Neutral>
  0.0382

> <r_epik_State_Penalty>
 -0.0000

> <r_epik_Charging_Adjusted_Penalty>
0.0154526225118262

> <i_epik_Tot_Q>
1

> <i_epik_Tot_abs_Q>
1

$$$$
