4unn_ligand
                    3D
 Schrodinger Suite 2020-3.
 41 43  0  0  1  0            999 V2000
    4.2130   21.3100   -8.2960 C   0  0  0  0  0  0
    2.3610   13.7160   -7.9140 C   0  0  0  0  0  0
    2.6110   15.0500   -8.2240 C   0  0  0  0  0  0
    7.8010   19.1770   -7.8690 C   0  0  0  0  0  0
    6.7430   20.9110   -6.6050 C   0  0  0  0  0  0
    9.0500   19.6910   -7.5670 C   0  0  0  0  0  0
    8.0130   21.4330   -6.3000 C   0  0  0  0  0  0
    3.2500   12.9900   -7.1520 C   0  0  0  0  0  0
    4.6700   14.9200   -7.0070 C   0  0  0  0  0  0
    6.6260   19.7680   -7.4020 C   0  0  0  0  0  0
    3.7750   15.6620   -7.7830 C   0  0  0  0  0  0
    9.1750   20.8190   -6.7840 C   0  0  0  0  0  0
    4.4100   13.5930   -6.7100 C   0  0  0  0  0  0
    5.1700   17.7380   -7.6330 C   0  0  0  0  0  0
    4.2000   19.8970   -8.1990 C   0  0  3  0  0  0
    5.3000   19.1450   -7.7290 C   0  0  0  0  0  0
    4.0160   17.1000   -7.9900 C   0  0  2  0  0  0
    2.9580   19.2610   -8.5600 C   0  0  0  0  0  0
   10.5440   21.3370   -6.4610 C   0  0  0  0  0  0
    6.2960   13.5160   -5.1630 C   0  0  0  0  0  0
    4.1510   22.4500   -8.3130 N   0  0  0  0  0  0
    2.9430   17.8840   -8.4290 N   0  0  0  0  0  0
    1.9540   19.8390   -8.9750 O   0  0  0  0  0  0
   10.8370   22.5150   -6.3930 O   0  0  0  0  0  0
   11.4250   20.4030   -6.2590 O   0  5  0  0  0  0
    5.3010   12.8610   -5.9440 O   0  0  0  0  0  0
    1.4507   13.2401   -8.2787 H   0  0  0  0  0  0
    1.8901   15.6150   -8.8149 H   0  0  0  0  0  0
    7.7329   18.2839   -8.4902 H   0  0  0  0  0  0
    5.8478   21.3987   -6.2191 H   0  0  0  0  0  0
    9.9435   19.1994   -7.9518 H   0  0  0  0  0  0
    8.0938   22.3257   -5.6798 H   0  0  0  0  0  0
    3.0394   11.9504   -6.9009 H   0  0  0  0  0  0
    5.5796   15.3898   -6.6328 H   0  0  0  0  0  0
    6.0104   17.1319   -7.2638 H   0  0  0  0  0  0
    5.2754   19.6886   -8.2990 H   0  0  0  0  0  0
    4.8801   17.1864   -8.6651 H   0  0  0  0  0  0
    6.8987   12.7645   -4.6319 H   0  0  0  0  0  0
    5.8105   14.1797   -4.4324 H   0  0  0  0  0  0
    6.9471   14.1095   -5.8216 H   0  0  0  0  0  0
    1.9900   17.4080   -8.7031 H   0  0  0  0  0  0
  1 15  1  0  0  0
  1 21  3  0  0  0
  2  3  2  0  0  0
  2  8  1  0  0  0
  2 27  1  0  0  0
  3 11  1  0  0  0
  3 28  1  0  0  0
  4  6  2  0  0  0
  4 10  1  0  0  0
  4 29  1  0  0  0
  5  7  1  0  0  0
  5 10  2  0  0  0
  5 30  1  0  0  0
  6 12  1  0  0  0
  6 31  1  0  0  0
  7 12  2  0  0  0
  7 32  1  0  0  0
  8 13  2  0  0  0
  8 33  1  0  0  0
  9 11  2  0  0  0
  9 13  1  0  0  0
  9 34  1  0  0  0
 10 16  1  0  0  0
 11 17  1  0  0  0
 12 19  1  0  0  0
 13 26  1  0  0  0
 14 16  2  0  0  0
 14 17  1  0  0  0
 14 35  1  0  0  0
 15 16  1  0  0  0
 15 18  1  0  0  0
 15 36  1  0  0  0
 17 22  1  0  0  0
 17 37  1  0  0  0
 18 22  1  0  0  0
 18 23  2  0  0  0
 19 24  2  0  0  0
 19 25  1  0  0  0
 20 26  1  0  0  0
 20 38  1  0  0  0
 20 39  1  0  0  0
 20 40  1  0  0  0
 22 41  1  0  0  0
M  CHG  1  25  -1
M  END
> <s_m_source_file>
../4unn_ligand.sdf

> <i_m_source_file_index>
1

> <s_epik_input>
W2NIXTFbY0hdYyhDKD1PKVtPSF0pW2NIXVtjSF1jMUMoW0NIXTJDI04pPVtDSF1bQ0BIXShbTkhdQzI9TyljM1tjSF1bY0hdW2NIXWMoW2NIXTMpT1tDSDNd

> <s_epik_cmdline>
J2VwaWtfYXBwJywgJy1pbWFlJywgJ2xpZ2FuZF9wcm8ubWFlJywgJy1vbWFlJywgJ2xpZ2FuZF9wcmVwLm1hZScsICctbXMnLCAnMScsICctcGgnLCAnNycsICctcGh0JywgJzAuNScsICctbnQn

> <r_lp_tautomer_probability>
1

> <r_epik_Ionization_Penalty>
  0.0005

> <r_epik_Ionization_Penalty_Charging>
  0.0004

> <r_epik_Ionization_Penalty_Neutral>
  0.0000

> <r_epik_State_Penalty>
 -0.0000

> <r_epik_Charging_Adjusted_Penalty>
0.000434952404172226

> <i_epik_Tot_Q>
-1

> <i_epik_Tot_abs_Q>
1

$$$$
