4unp_ligand
                    3D
 Schrodinger Suite 2020-3.
 29 30  0  0  1  0            999 V2000
   41.8050   32.3730   55.9920 C   0  0  0  0  0  0
   43.0690   31.8060   57.9360 C   0  0  0  0  0  0
   42.4600   31.4280   56.7420 C   0  0  0  0  0  0
   41.7690   33.6670   56.4540 C   0  0  0  0  0  0
   43.0030   33.1410   58.3270 C   0  0  0  0  0  0
   43.7330   30.7810   58.6950 C   0  0  0  0  0  0
   43.7630   29.4990   58.2620 C   0  0  0  0  0  0
   43.1190   29.1040   57.0140 C   0  0  0  0  0  0
   43.6760   33.6680   59.5620 C   0  0  0  0  0  0
   43.2760   35.7710   55.4730 C   0  0  0  0  0  0
   41.0470   34.7410   55.6760 C   0  0  0  0  0  0
   41.9350   35.5970   54.8220 C   0  0  0  0  0  0
   42.3560   34.0450   57.5890 N   0  0  0  0  0  0
   42.4890   30.1060   56.3320 N   0  0  0  0  0  0
   43.1280   27.9490   56.5600 O   0  0  0  0  0  0
   41.3244   32.1033   55.0516 H   0  0  0  0  0  0
   44.2203   31.0408   59.6348 H   0  0  0  0  0  0
   44.2789   28.7462   58.8580 H   0  0  0  0  0  0
   44.1745   32.8411   60.0891 H   0  0  0  0  0  0
   42.9242   34.1240   60.2230 H   0  0  0  0  0  0
   44.4221   34.4248   59.2783 H   0  0  0  0  0  0
   43.9143   36.4001   54.8352 H   0  0  0  0  0  0
   43.7486   34.7869   55.6077 H   0  0  0  0  0  0
   43.1479   36.2535   56.4532 H   0  0  0  0  0  0
   40.3111   34.2751   55.0041 H   0  0  0  0  0  0
   40.5302   35.4153   56.3747 H   0  0  0  0  0  0
   41.4624   36.5811   54.6873 H   0  0  0  0  0  0
   42.0631   35.1145   53.8418 H   0  0  0  0  0  0
   41.9828   29.8073   55.4022 H   0  0  0  0  0  0
  1  3  2  0  0  0
  1  4  1  0  0  0
  1 16  1  0  0  0
  2  3  1  0  0  0
  2  5  2  0  0  0
  2  6  1  0  0  0
  3 14  1  0  0  0
  4 11  1  0  0  0
  4 13  2  0  0  0
  5  9  1  0  0  0
  5 13  1  0  0  0
  6  7  2  0  0  0
  6 17  1  0  0  0
  7  8  1  0  0  0
  7 18  1  0  0  0
  8 14  1  0  0  0
  8 15  2  0  0  0
  9 19  1  0  0  0
  9 20  1  0  0  0
  9 21  1  0  0  0
 10 12  1  0  0  0
 10 22  1  0  0  0
 10 23  1  0  0  0
 10 24  1  0  0  0
 11 12  1  0  0  0
 11 25  1  0  0  0
 11 26  1  0  0  0
 12 27  1  0  0  0
 12 28  1  0  0  0
 14 29  1  0  0  0
M  END
> <s_m_source_file>
../4unp_ligand.sdf

> <i_m_source_file_index>
1

> <s_epik_input>
W0NIM11jMW5jKFtDSDJdW0NIMl1bQ0gzXSlbY0hdYyhjMTIpW25IXWMoPU8pW2NIXVtjSF0y

> <s_epik_cmdline>
J2VwaWtfYXBwJywgJy1pbWFlJywgJ2xpZ2FuZF9wcm8ubWFlJywgJy1vbWFlJywgJ2xpZ2FuZF9wcmVwLm1hZScsICctbXMnLCAnMScsICctcGgnLCAnNycsICctcGh0JywgJzAuNScsICctbnQn

> <r_epik_Ionization_Penalty>
  0.0151

> <r_epik_Ionization_Penalty_Charging>
  0.0002

> <r_epik_Ionization_Penalty_Neutral>
  0.0149

> <r_epik_State_Penalty>
  0.0117

> <r_epik_Charging_Adjusted_Penalty>
0.0118654930135458

> <i_epik_Tot_Q>
0

> <i_epik_Tot_abs_Q>
0

$$$$
