4unr_ligand
                    3D
 Schrodinger Suite 2020-3.
 42 46  0  0  1  0            999 V2000
   53.8870   35.9040    8.0300 C   0  0  0  0  0  0
   48.0670   30.7890    7.6690 C   0  0  0  0  0  0
   47.0370   31.2470    6.8890 C   0  0  0  0  0  0
   49.1680   31.5860    7.8810 C   0  0  0  0  0  0
   52.3470   37.8020    6.2120 C   0  0  0  0  0  0
   50.5950   38.0690    7.7790 C   0  0  0  0  0  0
   52.3300   39.1610    5.9430 C   0  0  0  0  0  0
   50.5690   39.4310    7.5170 C   0  0  0  0  0  0
   45.2360   33.9930    5.7810 C   0  0  0  0  0  0
   45.4160   32.2010    4.3570 C   0  0  0  0  0  0
   47.1170   32.4930    6.3230 C   0  0  0  0  0  0
   45.9790   32.9010    5.5200 C   0  0  0  0  0  0
   51.4890   37.2380    7.1270 C   0  0  0  0  0  0
   49.2490   32.8380    7.3240 C   0  0  0  0  0  0
   51.4460   39.9780    6.6020 C   0  0  0  0  0  0
   48.2160   33.3010    6.5360 C   0  0  0  0  0  0
   52.6430   35.2450    7.8520 C   0  0  0  0  0  0
   51.4980   35.8070    7.4150 C   0  0  0  0  0  0
   50.4020   33.6840    7.5320 C   0  0  0  0  0  0
   50.3400   34.9900    7.2530 C   0  0  0  0  0  0
   52.6960   33.8000    8.1610 C   0  0  0  0  0  0
   51.4540   41.4280    6.2770 C   0  0  0  0  0  0
   48.3170   34.6540    5.9110 C   0  0  0  0  0  0
   49.0880   35.6250    6.7620 C   0  0  0  0  0  0
   54.8660   36.5170    8.1290 N   0  0  0  0  0  0
   44.2440   34.2290    5.0260 N   0  0  0  0  0  0
   44.2400   33.1740    4.1060 N   0  0  0  0  0  0
   51.5520   33.1150    7.9860 N   0  0  0  0  0  0
   53.7210   33.2690    8.5670 O   0  5  0  0  0  0
   51.9460   41.8990    5.2540 O   0  0  0  0  0  0
   50.8610   42.1450    7.2660 O   0  5  0  0  0  0
   48.0139   29.7978    8.1192 H   0  0  0  0  0  0
   46.1590   30.6237    6.7197 H   0  0  0  0  0  0
   49.9869   31.2185    8.4994 H   0  0  0  0  0  0
   53.0575   37.1645    5.6858 H   0  0  0  0  0  0
   49.9024   37.6480    8.5078 H   0  0  0  0  0  0
   53.0178   39.5807    5.2089 H   0  0  0  0  0  0
   49.8544   40.0708    8.0348 H   0  0  0  0  0  0
   45.4971   34.6468    6.6262 H   0  0  0  0  0  0
   45.7259   31.2928    3.8401 H   0  0  0  0  0  0
   47.8804   34.9091    4.9454 H   0  0  0  0  0  0
   48.7751   36.6448    6.9861 H   0  0  0  0  0  0
  1 17  1  0  0  0
  1 25  3  0  0  0
  2  3  2  0  0  0
  2  4  1  0  0  0
  2 32  1  0  0  0
  3 11  1  0  0  0
  3 33  1  0  0  0
  4 14  2  0  0  0
  4 34  1  0  0  0
  5  7  2  0  0  0
  5 13  1  0  0  0
  5 35  1  0  0  0
  6  8  1  0  0  0
  6 13  2  0  0  0
  6 36  1  0  0  0
  7 15  1  0  0  0
  7 37  1  0  0  0
  8 15  2  0  0  0
  8 38  1  0  0  0
  9 12  2  0  0  0
  9 26  1  0  0  0
  9 39  1  0  0  0
 10 12  1  0  0  0
 10 27  1  0  0  0
 10 40  1  0  0  0
 11 12  1  0  0  0
 11 16  2  0  0  0
 13 18  1  0  0  0
 14 16  1  0  0  0
 14 19  1  0  0  0
 15 22  1  0  0  0
 16 23  1  0  0  0
 17 18  2  0  0  0
 17 21  1  0  0  0
 18 20  1  0  0  0
 19 20  2  0  0  0
 19 28  1  0  0  0
 20 24  1  0  0  0
 21 28  2  0  0  0
 21 29  1  0  0  0
 22 30  2  0  0  0
 22 31  1  0  0  0
 23 24  2  0  0  0
 23 41  1  0  0  0
 24 42  1  0  0  0
 26 27  2  0  0  0
M  CHG  2  29  -1  31  -1
M  END
> <s_m_source_file>
../4unr_ligand.sdf

> <i_m_source_file_index>
1

> <s_epik_input>
W2NIXTFbY0hdYyhDKD1PKVtPSF0pW2NIXVtjSF1jMS1jMmMoQyNOKWMoPU8pW25IXWMzYzJbY0hdW2NIXWMoYzM0KWMoW2NIXVtjSF1bY0hdNClDNT1bQ0hdTj1OW0NIMl01

> <s_epik_cmdline>
J2VwaWtfYXBwJywgJy1pbWFlJywgJ2xpZ2FuZF9wcm8ubWFlJywgJy1vbWFlJywgJ2xpZ2FuZF9wcmVwLm1hZScsICctbXMnLCAnMScsICctcGgnLCAnNycsICctcGh0JywgJzAuNScsICctbnQn

> <r_epik_Ionization_Penalty>
  0.2575

> <r_epik_Ionization_Penalty_Charging>
  0.0008

> <r_epik_Ionization_Penalty_Neutral>
  0.2567

> <r_epik_State_Penalty>
  0.2482

> <r_epik_Charging_Adjusted_Penalty>
0.249064533180726

> <i_epik_Tot_Q>
-2

> <i_epik_Tot_abs_Q>
2

$$$$
