4uns_ligand
                    3D
 Schrodinger Suite 2020-3.
 45 47  0  0  1  0            999 V2000
    4.1110   20.8670   -8.0070 C   0  0  0  0  0  0
    7.3750   19.1320   -7.8400 C   0  0  0  0  0  0
    6.3850   20.2820   -6.0440 C   0  0  0  0  0  0
    8.5690   19.7720   -7.5720 C   0  0  0  0  0  0
    7.5730   20.9300   -5.7740 C   0  0  0  0  0  0
    3.2800   15.4250   -7.8080 C   0  0  0  0  0  0
    6.2630   19.3780   -7.0750 C   0  0  0  0  0  0
    4.7710   17.2500   -7.3750 C   0  0  0  0  0  0
    3.5620   16.7640   -7.8200 C   0  0  0  0  0  0
    8.6800   20.6800   -6.5410 C   0  0  0  0  0  0
    4.2290   14.5670   -7.3350 C   0  0  0  0  0  0
    5.6730   16.3080   -6.9060 C   0  0  0  0  0  0
    4.0100   19.4720   -7.8970 C   0  0  0  0  0  0
    5.0060   18.6880   -7.4270 C   0  0  0  0  0  0
    2.7140   18.9490   -8.3560 C   0  0  0  0  0  0
    7.0360   16.6600   -6.3760 C   0  0  0  0  0  0
    4.0970   12.5200   -5.9500 C   0  0  0  0  0  0
    9.2830   23.6920   -5.1250 C   0  0  0  0  0  0
    3.9140   13.0940   -7.3290 C   0  0  0  0  0  0
    4.2010   22.0160   -8.1040 N   0  0  0  0  0  0
    5.4090   14.9920   -6.8850 N   0  0  0  0  0  0
    2.5640   17.5940   -8.2960 N   0  0  0  0  0  0
    9.9760   21.2920   -6.3840 N   0  0  0  0  0  0
    1.8630   19.7250   -8.7820 O   0  0  0  0  0  0
   11.7350   22.9530   -5.5000 O   0  0  0  0  0  0
   10.3710   21.6420   -3.8390 O   0  0  0  0  0  0
   10.4620   22.3660   -5.1080 S   0  0  0  0  0  0
    7.3155   18.4247   -8.6672 H   0  0  0  0  0  0
    5.5156   20.4926   -5.4212 H   0  0  0  0  0  0
    9.4414   19.5547   -8.1883 H   0  0  0  0  0  0
    7.6305   21.6412   -4.9500 H   0  0  0  0  0  0
    2.3205   15.0532   -8.1676 H   0  0  0  0  0  0
    7.1783   17.7497   -6.4250 H   0  0  0  0  0  0
    7.8056   16.1620   -6.9840 H   0  0  0  0  0  0
    7.1208   16.3258   -5.3314 H   0  0  0  0  0  0
    3.8626   11.4454   -5.9661 H   0  0  0  0  0  0
    3.4229   13.0318   -5.2474 H   0  0  0  0  0  0
    5.1392   12.6633   -5.6286 H   0  0  0  0  0  0
    9.3542   24.2337   -6.0797 H   0  0  0  0  0  0
    9.4954   24.3821   -4.2951 H   0  0  0  0  0  0
    8.2686   23.2822   -5.0107 H   0  0  0  0  0  0
    2.8712   12.9408   -7.6437 H   0  0  0  0  0  0
    4.5874   12.5722   -8.0249 H   0  0  0  0  0  0
    1.6114   17.1664   -8.6419 H   0  0  0  0  0  0
   10.6897   21.0198   -7.1755 H   0  0  0  0  0  0
  1 13  1  0  0  0
  1 20  3  0  0  0
  2  4  2  0  0  0
  2  7  1  0  0  0
  2 28  1  0  0  0
  3  5  1  0  0  0
  3  7  2  0  0  0
  3 29  1  0  0  0
  4 10  1  0  0  0
  4 30  1  0  0  0
  5 10  2  0  0  0
  5 31  1  0  0  0
  6  9  2  0  0  0
  6 11  1  0  0  0
  6 32  1  0  0  0
  7 14  1  0  0  0
  8  9  1  0  0  0
  8 12  2  0  0  0
  8 14  1  0  0  0
  9 22  1  0  0  0
 10 23  1  0  0  0
 11 19  1  0  0  0
 11 21  2  0  0  0
 12 16  1  0  0  0
 12 21  1  0  0  0
 13 14  2  0  0  0
 13 15  1  0  0  0
 15 22  1  0  0  0
 15 24  2  0  0  0
 16 33  1  0  0  0
 16 34  1  0  0  0
 16 35  1  0  0  0
 17 19  1  0  0  0
 17 36  1  0  0  0
 17 37  1  0  0  0
 17 38  1  0  0  0
 18 27  1  0  0  0
 18 39  1  0  0  0
 18 40  1  0  0  0
 18 41  1  0  0  0
 19 42  1  0  0  0
 19 43  1  0  0  0
 22 44  1  0  0  0
 23 27  1  0  0  0
 23 45  1  0  0  0
 25 27  2  0  0  0
 26 27  2  0  0  0
M  END
> <s_m_source_file>
../4uns_ligand.sdf

> <i_m_source_file_index>
1

> <s_epik_input>
W0NIM11TKD1PKSg9TylbTkhdYyhbY0hdW2NIXTEpW2NIXVtjSF1jMS1jMmMoQyNOKWMoPU8pW25IXWMoYzIzKVtjSF1jKFtDSDJdW0NIM10pbmMzW0NIM10=

> <s_epik_cmdline>
J2VwaWtfYXBwJywgJy1pbWFlJywgJ2xpZ2FuZF9wcm8ubWFlJywgJy1vbWFlJywgJ2xpZ2FuZF9wcmVwLm1hZScsICctbXMnLCAnMScsICctcGgnLCAnNycsICctcGh0JywgJzAuNScsICctbnQn

> <r_lp_tautomer_probability>
1

> <r_epik_Ionization_Penalty>
  0.2991

> <r_epik_Ionization_Penalty_Charging>
  0.2223

> <r_epik_Ionization_Penalty_Neutral>
  0.0768

> <r_epik_State_Penalty>
 -0.0000

> <r_epik_Charging_Adjusted_Penalty>
0.22233583359119

> <i_epik_Tot_Q>
0

> <i_epik_Tot_abs_Q>
0

$$$$
