4uoh_ligand
                    3D
 Schrodinger Suite 2020-3.
 39 41  0  0  1  0            999 V2000
   10.6210  -19.1180    4.7320 P   0  0  0  0  0  0
   10.6230  -18.5270    5.9820 O   0  0  0  0  0  0
    9.6610  -20.1480    4.5990 O   0  5  0  0  0  0
   11.9270  -19.5270    4.3290 O   0  5  0  0  0  0
   11.1080  -16.8560    3.1950 P   0  0  2  0  0  0
   10.5880  -16.5900    1.8970 O   0  0  0  0  0  0
   12.5200  -17.0960    3.3480 O   0  5  0  0  0  0
   10.2480  -17.9940    3.7820 O   0  0  0  0  0  0
   10.8130  -15.6090    3.9860 O   0  0  0  0  0  0
   11.2870  -15.3090    5.2370 C   0  0  0  0  0  0
   10.1990  -14.7960    6.1540 C   0  0  1  0  0  0
    9.7200  -13.5740    5.6950 O   0  0  0  0  0  0
    9.0150  -15.7170    6.3090 C   0  0  1  0  0  0
    9.1740  -16.7490    7.2140 O   0  0  0  0  0  0
    7.9690  -14.7580    6.7160 C   0  0  1  0  0  0
    7.9590  -14.6030    8.0860 O   0  0  0  0  0  0
    8.4050  -13.4500    6.1160 C   0  0  2  0  0  0
    7.5670  -13.2540    4.9620 N   0  0  0  0  0  0
    7.5550  -14.0310    3.8980 C   0  0  0  0  0  0
    6.6780  -13.6190    3.0130 N   0  0  0  0  0  0
    6.1200  -12.5590    3.5250 C   0  0  0  0  0  0
    5.0790  -11.6570    3.0890 C   0  0  0  0  0  0
    4.4990  -11.8210    1.9080 N   0  0  0  0  0  0
    4.7710  -10.6960    3.8970 N   0  0  0  0  0  0
    5.3640  -10.5810    5.0680 C   0  0  0  0  0  0
    6.3110  -11.3460    5.5450 N   0  0  0  0  0  0
    6.7020  -12.3380    4.8230 C   0  0  0  0  0  0
   11.7186  -16.2127    5.6920 H   0  0  0  0  0  0
   12.0618  -14.5320    5.1590 H   0  0  0  0  0  0
   10.6620  -14.6253    7.1371 H   0  0  0  0  0  0
    8.7920  -16.3538    5.4402 H   0  0  0  0  0  0
    9.9231  -17.5328    7.0283 H   0  0  0  0  0  0
    6.9555  -15.1050    6.4661 H   0  0  0  0  0  0
    7.6676  -15.4439    8.7325 H   0  0  0  0  0  0
    8.3764  -12.5867    6.7970 H   0  0  0  0  0  0
    8.1929  -14.9054    3.7692 H   0  0  0  0  0  0
    4.7995  -12.6568    1.2590 H   0  0  0  0  0  0
    3.7174  -11.1213    1.5772 H   0  0  0  0  0  0
    5.0302   -9.7625    5.7058 H   0  0  0  0  0  0
  1  2  2  0  0  0
  1  3  1  0  0  0
  1  4  1  0  0  0
  1  8  1  0  0  0
  5  6  2  0  0  0
  5  7  1  0  0  0
  5  8  1  0  0  0
  5  9  1  0  0  0
  9 10  1  0  0  0
 10 11  1  0  0  0
 10 28  1  0  0  0
 10 29  1  0  0  0
 11 12  1  0  0  0
 11 13  1  0  0  0
 11 30  1  0  0  0
 12 17  1  0  0  0
 13 14  1  0  0  0
 13 15  1  0  0  0
 13 31  1  0  0  0
 14 32  1  0  0  0
 15 16  1  0  0  0
 15 17  1  0  0  0
 15 33  1  0  0  0
 16 34  1  0  0  0
 17 18  1  0  0  0
 17 35  1  0  0  0
 18 19  1  0  0  0
 18 27  1  0  0  0
 19 20  2  0  0  0
 19 36  1  0  0  0
 20 21  1  0  0  0
 21 22  2  0  0  0
 21 27  1  0  0  0
 22 23  1  0  0  0
 22 24  1  0  0  0
 23 37  1  0  0  0
 23 38  1  0  0  0
 24 25  2  0  0  0
 25 26  1  0  0  0
 25 39  1  0  0  0
 26 27  2  0  0  0
M  CHG  3   3  -1   4  -1   7  -1
M  END
> <s_m_source_file>
../4uoh_ligand.sdf

> <i_m_source_file_index>
1

> <s_epik_input>
Tz1QKFtPSF0pKFtPSF0pT1tQQF0oPU8pKFtPSF0pT1tDSDJdW0NASF0xT1tDQEhdKFtDQEhdKFtPSF0pW0NAQEhdMVtPSF0pbihbY0hdbjIpYyhjMjMpbltjSF1uYzNbTkgyXQ==

> <s_epik_cmdline>
J2VwaWtfYXBwJywgJy1pbWFlJywgJ2xpZ2FuZF9wcm8ubWFlJywgJy1vbWFlJywgJ2xpZ2FuZF9wcmVwLm1hZScsICctbXMnLCAnMScsICctcGgnLCAnNycsICctcGh0JywgJzAuNScsICctbnQn

> <r_lp_tautomer_probability>
0.999997216410988

> <r_epik_Ionization_Penalty>
  0.1037

> <r_epik_Ionization_Penalty_Charging>
  0.1033

> <r_epik_Ionization_Penalty_Neutral>
  0.0004

> <r_epik_State_Penalty>
  0.0922

> <r_epik_Charging_Adjusted_Penalty>
0.19546844050481

> <i_epik_Tot_Q>
-3

> <i_epik_Tot_abs_Q>
3

> <s_epik_Chemistry_Notes>
This compound contains an acetal/aminal-like group ( X-CH(R)-Y where X, Y are N, S, or O) that may be acid/base labile, releasing an aldehyde.

$$$$
