4urk_ligand
                    3D
 Schrodinger Suite 2020-3.
 53 56  0  0  1  0            999 V2000
   41.5330   16.3210   33.5580 C   0  0  0  0  0  0
   41.2280   15.2610   32.8100 C   0  0  0  0  0  0
   42.1820   14.6350   32.0500 N   0  0  0  0  0  0
   43.5040   15.0830   32.0510 C   0  0  0  0  0  0
   44.4220   14.4990   31.3560 N   0  0  0  0  0  0
   44.1300   13.4110   30.5850 C   0  0  0  0  0  0
   42.8890   12.9090   30.5120 C   0  0  0  0  0  0
   41.8060   13.5360   31.2910 C   0  0  0  0  0  0
   40.6870   13.0440   31.2110 O   0  0  0  0  0  0
   45.1570   12.8400   29.8690 N   0  0  0  0  0  0
   44.8760   12.1650   28.6110 C   0  0  0  0  0  0
   46.0750   11.3380   28.2230 C   0  0  0  0  0  0
   47.2300   12.1690   28.1760 O   0  0  0  0  0  0
   47.5480   12.6160   29.4870 C   0  0  0  0  0  0
   46.4400   13.5350   29.9240 C   0  0  0  0  0  0
   43.8690   16.2760   32.8820 C   0  0  0  0  0  0
   42.8730   16.8260   33.5900 C   0  0  0  0  0  0
   45.2980   16.7560   32.9050 C   0  0  1  0  0  0
   45.6560   17.4770   31.6320 C   0  0  0  0  0  0
   40.5220   17.0200   34.3860 C   0  0  0  0  0  0
   45.5260   17.7050   33.9810 N   0  0  0  0  0  0
   46.1940   17.1890   35.1140 C   0  0  0  0  0  0
   47.8340   17.4510   36.8690 C   0  0  0  0  0  0
   47.1860   17.9280   35.7480 C   0  0  0  0  0  0
   47.4800   16.2250   37.3890 C   0  0  0  0  0  0
   45.8500   15.9670   35.6710 C   0  0  0  0  0  0
   46.4880   15.4790   36.7910 C   0  0  0  0  0  0
   47.6270   19.2430   35.2410 C   0  0  0  0  0  0
   46.5430   20.0600   35.1510 O   0  5  0  0  0  0
   48.7900   19.5180   34.9690 O   0  0  0  0  0  0
   40.2045   14.8861   32.8023 H   0  0  0  0  0  0
   42.6825   12.0441   29.8816 H   0  0  0  0  0  0
   43.9982   11.5134   28.7326 H   0  0  0  0  0  0
   44.6719   12.9133   27.8310 H   0  0  0  0  0  0
   46.2267   10.5412   28.9660 H   0  0  0  0  0  0
   45.9060   10.8890   27.2331 H   0  0  0  0  0  0
   47.6218   11.7504   30.1617 H   0  0  0  0  0  0
   48.5095   13.1500   29.4692 H   0  0  0  0  0  0
   46.4126   14.4087   29.2563 H   0  0  0  0  0  0
   46.6332   13.8671   30.9547 H   0  0  0  0  0  0
   43.0912   17.6920   34.2150 H   0  0  0  0  0  0
   45.9267   15.8684   33.0691 H   0  0  0  0  0  0
   45.5030   16.8051   30.7746 H   0  0  0  0  0  0
   46.7105   17.7878   31.6708 H   0  0  0  0  0  0
   45.0160   18.3647   31.5210 H   0  0  0  0  0  0
   39.5455   16.5283   34.2651 H   0  0  0  0  0  0
   40.4465   18.0692   34.0644 H   0  0  0  0  0  0
   40.8236   16.9813   35.4431 H   0  0  0  0  0  0
   45.1847   18.7456   33.8781 H   0  0  0  0  0  0
   48.6208   18.0402   37.3401 H   0  0  0  0  0  0
   47.9863   15.8443   38.2760 H   0  0  0  0  0  0
   45.0559   15.3780   35.2122 H   0  0  0  0  0  0
   46.2093   14.5084   37.2013 H   0  0  0  0  0  0
  1  2  2  0  0  0
  1 17  1  0  0  0
  1 20  1  0  0  0
  2  3  1  0  0  0
  2 31  1  0  0  0
  3  4  1  0  0  0
  3  8  1  0  0  0
  4  5  2  0  0  0
  4 16  1  0  0  0
  5  6  1  0  0  0
  6  7  2  0  0  0
  6 10  1  0  0  0
  7  8  1  0  0  0
  7 32  1  0  0  0
  8  9  2  0  0  0
 10 11  1  0  0  0
 10 15  1  0  0  0
 11 12  1  0  0  0
 11 33  1  0  0  0
 11 34  1  0  0  0
 12 13  1  0  0  0
 12 35  1  0  0  0
 12 36  1  0  0  0
 13 14  1  0  0  0
 14 15  1  0  0  0
 14 37  1  0  0  0
 14 38  1  0  0  0
 15 39  1  0  0  0
 15 40  1  0  0  0
 16 17  2  0  0  0
 16 18  1  0  0  0
 17 41  1  0  0  0
 18 19  1  0  0  0
 18 21  1  0  0  0
 18 42  1  0  0  0
 19 43  1  0  0  0
 19 44  1  0  0  0
 19 45  1  0  0  0
 20 46  1  0  0  0
 20 47  1  0  0  0
 20 48  1  0  0  0
 21 22  1  0  0  0
 21 49  1  0  0  0
 22 24  2  0  0  0
 22 26  1  0  0  0
 23 24  1  0  0  0
 23 25  2  0  0  0
 23 50  1  0  0  0
 24 28  1  0  0  0
 25 27  1  0  0  0
 25 51  1  0  0  0
 26 27  2  0  0  0
 26 52  1  0  0  0
 27 53  1  0  0  0
 28 29  1  0  0  0
 28 30  2  0  0  0
M  CHG  1  29  -1
M  END
> <s_m_source_file>
../4urk_ligand.sdf

> <i_m_source_file_index>
1

> <s_epik_input>
W2NIXTFbY0hdW2NIXVtjSF1jKEMoPU8pW09IXSljMVtOSF1bQ0BIXShbQ0gzXSljKFtjSF1jKFtjSF0yKVtDSDNdKWMobjIzKW5jKFtjSF1jMz1PKU40W0NIMl1bQ0gyXU9bQ0gyXVtDSDJdNA==

> <s_epik_cmdline>
J2VwaWtfYXBwJywgJy1pbWFlJywgJ2xpZ2FuZF9wcm8ubWFlJywgJy1vbWFlJywgJ2xpZ2FuZF9wcmVwLm1hZScsICctbXMnLCAnMScsICctcGgnLCAnNycsICctcGh0JywgJzAuNScsICctbnQn

> <r_lp_tautomer_probability>
1

> <r_epik_Ionization_Penalty>
  0.0015

> <r_epik_Ionization_Penalty_Charging>
  0.0015

> <r_epik_Ionization_Penalty_Neutral>
  0.0000

> <r_epik_State_Penalty>
 -0.0000

> <r_epik_Charging_Adjusted_Penalty>
0.00145420043509781

> <i_epik_Tot_Q>
-1

> <i_epik_Tot_abs_Q>
1

> <s_epik_Chemistry_Notes>
This compound has an imine and may undergo hydrolysis.

$$$$
