4url_ligand
                    3D
 Schrodinger Suite 2020-3.
122127  0  0  1  0            999 V2000
   24.5240  -17.9320    1.7460 C   0  0  2  0  0  0
   23.1520  -18.5530    2.0230 C   0  0  2  0  0  0
   23.1580  -19.6300    3.0870 C   0  0  0  0  0  0
   25.3340  -18.7200    0.7150 C   0  0  2  0  0  0
   16.1380   -9.8250   -5.4990 Cl  0  0  0  0  0  0
   15.3650   -8.4090   -6.1030 C   0  0  0  0  0  0
   14.7400   -7.4120   -5.2620 C   0  0  0  0  0  0
   14.7080   -7.4960   -3.5390 Cl  0  0  0  0  0  0
   14.2360   -6.4480   -6.1350 C   0  0  3  0  0  0
   13.5530   -5.1500   -5.8380 C   0  0  0  0  0  0
   14.5160   -6.8320   -7.4270 N   0  0  0  0  0  0
   15.2210   -8.0110   -7.4270 C   0  0  0  0  0  0
   15.7040   -8.6550   -8.6660 C   0  0  0  0  0  0
   15.4300   -8.1790   -9.7610 O   0  0  0  0  0  0
   16.4330   -9.7690   -8.4890 N   0  0  0  0  0  0
   17.3640  -10.3830   -9.4850 C   0  0  1  0  0  0
   18.8250   -9.8600   -9.2550 C   0  0  0  0  0  0
   17.1930  -11.9900   -9.4940 C   0  0  1  0  0  0
   17.8180  -12.7150   -8.2780 C   0  0  0  0  0  0
   15.7800  -12.2030   -9.3860 O   0  0  0  0  0  0
   17.8210  -12.6330  -10.8380 C   0  0  2  0  0  0
   16.9710  -12.2000  -11.8940 O   0  0  0  0  0  0
   17.9150  -14.1540  -10.8490 C   0  0  1  0  0  0
   18.7980  -14.6710  -11.9590 C   0  0  0  0  0  0
   18.5190  -14.6250   -9.6270 O   0  0  0  0  0  0
   17.8860  -14.2220   -8.4200 C   0  0  1  0  0  0
   18.5550  -14.7710   -7.3000 O   0  0  0  0  0  0
   18.4410  -16.2020   -7.1000 C   0  0  2  0  0  0
   17.0670  -16.4420   -6.4890 C   0  0  0  0  0  0
   16.9310  -17.8670   -5.9490 C   0  0  0  0  0  0
   18.0590  -18.1860   -5.0090 C   0  0  0  0  0  0
   17.8650  -18.4310   -3.7240 C   0  0  0  0  0  0
   19.4090  -18.1070   -5.7220 C   0  0  1  0  0  0
   19.6290  -16.6370   -6.1880 C   0  0  1  0  0  0
   21.0030  -16.4300   -6.7880 C   0  0  0  0  0  0
   22.0320  -17.2670   -6.6680 C   0  0  0  0  0  0
   21.9750  -18.5830   -5.9410 C   0  0  2  0  0  0
   22.0980  -19.7370   -6.9420 C   0  0  0  0  0  0
   20.7060  -18.6180   -5.0480 C   0  0  2  0  0  0
   20.5280  -20.0070   -4.3780 C   0  0  0  0  0  0
   19.7300  -20.9270   -4.9560 O   0  5  0  0  0  0
   21.1090  -20.3650   -3.1800 C   0  0  0  0  0  0
   21.9430  -19.5100   -2.3250 C   0  0  0  0  0  0
   22.2830  -18.3380   -2.4840 O   0  0  0  0  0  0
   20.9720  -21.6660   -2.5360 C   0  0  0  0  0  0
   20.4450  -22.6770   -2.9650 O   0  0  0  0  0  0
   21.6990  -21.6140   -1.1760 C   0  0  2  0  0  0
   20.8010  -21.8660    0.0600 C   0  0  0  0  0  0
   19.3490  -21.4400   -0.1660 C   0  0  0  0  0  0
   20.8830  -23.3130    0.5130 C   0  0  0  0  0  0
   22.3140  -20.2870   -1.1800 N   0  0  0  0  0  0
   23.2900  -19.8820   -0.0970 C   0  0  1  0  0  0
   24.5490  -19.1390   -0.5210 C   0  0  2  0  0  0
   25.3030  -20.0600   -1.3060 O   0  0  0  0  0  0
   26.0890  -19.4710   -2.3420 C   0  0  0  0  0  0
   22.5460  -19.0920    0.8290 O   0  0  0  0  0  0
   25.2780  -17.8570    2.9770 O   0  0  0  0  0  0
   26.1670  -16.8300    3.3010 C   0  0  0  0  0  0
   26.4880  -16.6530    4.4570 O   0  0  0  0  0  0
   26.5920  -16.1170    2.2590 N   0  0  0  0  0  0
   25.9780  -19.8650    1.3180 O   0  0  0  0  0  0
   27.3190  -19.9970    1.1620 C   0  0  0  0  0  0
   27.9950  -19.2230    0.5360 O   0  0  0  0  0  0
   27.8150  -21.2170    1.8580 C   0  0  0  0  0  0
   24.3763  -16.9056    1.3790 H   0  0  0  0  0  0
   22.5104  -17.7260    2.3613 H   0  0  0  0  0  0
   23.6172  -19.2355    4.0054 H   0  0  0  0  0  0
   23.7365  -20.4948    2.7300 H   0  0  0  0  0  0
   22.1247  -19.9421    3.2986 H   0  0  0  0  0  0
   26.1447  -18.0585    0.3757 H   0  0  0  0  0  0
   13.4275   -5.0422   -4.7505 H   0  0  0  0  0  0
   12.5664   -5.1352   -6.3243 H   0  0  0  0  0  0
   14.1631   -4.3186   -6.2209 H   0  0  0  0  0  0
   16.2971  -10.2361   -7.5024 H   0  0  0  0  0  0
   17.0722  -10.0009  -10.4744 H   0  0  0  0  0  0
   18.8269   -8.7601   -9.2674 H   0  0  0  0  0  0
   19.4795  -10.2369  -10.0547 H   0  0  0  0  0  0
   19.1930  -10.2163   -8.2815 H   0  0  0  0  0  0
   18.8478  -12.3585   -8.1281 H   0  0  0  0  0  0
   17.2219  -12.5025   -7.3783 H   0  0  0  0  0  0
   15.2302  -11.8146   -8.5160 H   0  0  0  0  0  0
   18.8497  -12.3022  -11.0439 H   0  0  0  0  0  0
   16.7825  -11.1266  -12.0434 H   0  0  0  0  0  0
   16.8911  -14.5458  -10.9394 H   0  0  0  0  0  0
   18.3943  -14.3471  -12.9296 H   0  0  0  0  0  0
   18.8274  -15.7700  -11.9224 H   0  0  0  0  0  0
   19.8156  -14.2726  -11.8337 H   0  0  0  0  0  0
   16.8836  -14.6728   -8.4647 H   0  0  0  0  0  0
   18.4929  -16.7471   -8.0540 H   0  0  0  0  0  0
   16.9076  -15.7394   -5.6578 H   0  0  0  0  0  0
   16.2928  -16.2859   -7.2547 H   0  0  0  0  0  0
   15.9780  -17.9648   -5.4084 H   0  0  0  0  0  0
   16.9524  -18.5800   -6.7863 H   0  0  0  0  0  0
   16.8430  -18.4643   -3.3186 H   0  0  0  0  0  0
   18.7257  -18.6015   -3.0605 H   0  0  0  0  0  0
   19.2660  -18.8605   -6.5106 H   0  0  0  0  0  0
   19.6570  -15.9545   -5.3258 H   0  0  0  0  0  0
   21.1158  -15.4985   -7.3621 H   0  0  0  0  0  0
   23.0033  -17.0125   -7.1172 H   0  0  0  0  0  0
   22.8442  -18.6844   -5.2745 H   0  0  0  0  0  0
   23.0249  -19.6212   -7.5230 H   0  0  0  0  0  0
   21.2344  -19.7251   -7.6232 H   0  0  0  0  0  0
   22.1230  -20.6929   -6.3983 H   0  0  0  0  0  0
   20.8876  -17.8750   -4.2574 H   0  0  0  0  0  0
   22.4688  -22.3937   -1.0784 H   0  0  0  0  0  0
   21.1846  -21.2411    0.8800 H   0  0  0  0  0  0
   19.3216  -20.3900   -0.4926 H   0  0  0  0  0  0
   18.7852  -21.5469    0.7725 H   0  0  0  0  0  0
   18.8963  -22.0768   -0.9403 H   0  0  0  0  0  0
   21.9364  -23.5898    0.6670 H   0  0  0  0  0  0
   20.4416  -23.9636   -0.2563 H   0  0  0  0  0  0
   20.3304  -23.4337    1.4565 H   0  0  0  0  0  0
   23.6656  -20.8011    0.3764 H   0  0  0  0  0  0
   24.3499  -18.2539   -1.1431 H   0  0  0  0  0  0
   26.6290  -20.2599   -2.8861 H   0  0  0  0  0  0
   26.8120  -18.7697   -1.9000 H   0  0  0  0  0  0
   25.4316  -18.9296   -3.0382 H   0  0  0  0  0  0
   26.2390  -16.3596    1.2458 H   0  0  0  0  0  0
   27.2959  -15.2856    2.4118 H   0  0  0  0  0  0
   26.9724  -21.7290    2.3457 H   0  0  0  0  0  0
   28.5582  -20.9298    2.6164 H   0  0  0  0  0  0
   28.2807  -21.8930    1.1258 H   0  0  0  0  0  0
  1  2  1  0  0  0
  1  4  1  0  0  0
  1 57  1  0  0  0
  1 65  1  0  0  0
  2  3  1  0  0  0
  2 56  1  0  0  0
  2 66  1  0  0  0
  3 67  1  0  0  0
  3 68  1  0  0  0
  3 69  1  0  0  0
  4 53  1  0  0  0
  4 61  1  0  0  0
  4 70  1  0  0  0
  5  6  1  0  0  0
  6  7  2  0  0  0
  6 12  1  0  0  0
  7  8  1  0  0  0
  7  9  1  0  0  0
  9 10  1  0  0  0
  9 11  1  0  0  0
 10 71  1  0  0  0
 10 72  1  0  0  0
 10 73  1  0  0  0
 11 12  2  0  0  0
 12 13  1  0  0  0
 13 14  2  0  0  0
 13 15  1  0  0  0
 15 16  1  0  0  0
 15 74  1  0  0  0
 16 17  1  0  0  0
 16 18  1  0  0  0
 16 75  1  0  0  0
 17 76  1  0  0  0
 17 77  1  0  0  0
 17 78  1  0  0  0
 18 19  1  0  0  0
 18 20  1  0  0  0
 18 21  1  0  0  0
 19 26  1  0  0  0
 19 79  1  0  0  0
 19 80  1  0  0  0
 20 81  1  0  0  0
 21 22  1  0  0  0
 21 23  1  0  0  0
 21 82  1  0  0  0
 22 83  1  0  0  0
 23 24  1  0  0  0
 23 25  1  0  0  0
 23 84  1  0  0  0
 24 85  1  0  0  0
 24 86  1  0  0  0
 24 87  1  0  0  0
 25 26  1  0  0  0
 26 27  1  0  0  0
 26 88  1  0  0  0
 27 28  1  0  0  0
 28 29  1  0  0  0
 28 34  1  0  0  0
 28 89  1  0  0  0
 29 30  1  0  0  0
 29 90  1  0  0  0
 29 91  1  0  0  0
 30 31  1  0  0  0
 30 92  1  0  0  0
 30 93  1  0  0  0
 31 32  2  0  0  0
 31 33  1  0  0  0
 32 94  1  0  0  0
 32 95  1  0  0  0
 33 34  1  0  0  0
 33 39  1  0  0  0
 33 96  1  0  0  0
 34 35  1  0  0  0
 34 97  1  0  0  0
 35 36  2  0  0  0
 35 98  1  0  0  0
 36 37  1  0  0  0
 36 99  1  0  0  0
 37 38  1  0  0  0
 37 39  1  0  0  0
 37100  1  0  0  0
 38101  1  0  0  0
 38102  1  0  0  0
 38103  1  0  0  0
 39 40  1  0  0  0
 39104  1  0  0  0
 40 41  1  0  0  0
 40 42  2  0  0  0
 42 43  1  0  0  0
 42 45  1  0  0  0
 43 44  2  0  0  0
 43 51  1  0  0  0
 45 46  2  0  0  0
 45 47  1  0  0  0
 47 48  1  0  0  0
 47 51  1  0  0  0
 47105  1  0  0  0
 48 49  1  0  0  0
 48 50  1  0  0  0
 48106  1  0  0  0
 49107  1  0  0  0
 49108  1  0  0  0
 49109  1  0  0  0
 50110  1  0  0  0
 50111  1  0  0  0
 50112  1  0  0  0
 51 52  1  0  0  0
 52 53  1  0  0  0
 52 56  1  0  0  0
 52113  1  0  0  0
 53 54  1  0  0  0
 53114  1  0  0  0
 54 55  1  0  0  0
 55115  1  0  0  0
 55116  1  0  0  0
 55117  1  0  0  0
 57 58  1  0  0  0
 58 59  2  0  0  0
 58 60  1  0  0  0
 60118  1  0  0  0
 60119  1  0  0  0
 61 62  1  0  0  0
 62 63  2  0  0  0
 62 64  1  0  0  0
 64120  1  0  0  0
 64121  1  0  0  0
 64122  1  0  0  0
M  CHG  1  41  -1
M  END
> <s_m_source_file>
../4url_ligand.sdf

> <i_m_source_file_index>
1

> <s_epik_input>
Tz1DKFtOSDJdKU9bQ0BASF0xW0NASF0oW0NIM10pT1tDQEhdKFtDQEhdKE9bQ0gzXSlbQ0BASF0xT0MoPU8pW0NIM10pTihbQ0BIXShDMj1PKVtDSF0oW0NIM10pW0NIM10pQyg9TykvQzI9QyhbT0hdKVxbQ0BIXTNbQ0BASF0oW0NIM10pW0NIXT1bQ0hdW0NASF0oW0NAQEhdMzQpW0NAQEhdKFtDSDJdW0NIMl1DND1bQ0gyXSlPW0NASF0oT1tDQEhdKFtDSDNdKVtDQEhdNVtPSF0pW0NIMl1bQ0BAXTUoW09IXSlbQ0BIXShbQ0gzXSlbTkhdQyg9TylDNj1OW0NIXShbQ0gzXSlDKENsKT1DNkNs

> <s_epik_cmdline>
J2VwaWtfYXBwJywgJy1pbWFlJywgJ2xpZ2FuZF9wcm8ubWFlJywgJy1vbWFlJywgJ2xpZ2FuZF9wcmVwLm1hZScsICctbXMnLCAnMScsICctcGgnLCAnNycsICctcGh0JywgJzAuNScsICctbnQn

> <r_epik_Ionization_Penalty>
  0.1101

> <r_epik_Ionization_Penalty_Charging>
  0.0007

> <r_epik_Ionization_Penalty_Neutral>
  0.1094

> <r_epik_State_Penalty>
  0.0991

> <r_epik_Charging_Adjusted_Penalty>
0.0998622330574843

> <i_epik_Tot_Q>
-1

> <i_epik_Tot_abs_Q>
1

> <s_epik_Chemistry_Notes>
This compound has an ester and may undergo hydrolysis at high or low pH. This compound has an imine and may undergo hydrolysis. This compound contains an acetal/aminal-like group ( X-CH(R)-Y where X, Y are N, S, or O) that may be acid/base labile, releasing an aldehyde.

$$$$
