4urm_ligand
                    3D
 Schrodinger Suite 2020-3.
122127  0  0  1  0            999 V2000
   38.0370   -3.1510   21.4030 C   0  0  2  0  0  0
   37.6370   -1.6960   21.1580 C   0  0  2  0  0  0
   37.1570   -1.4100   19.7510 C   0  0  0  0  0  0
   39.4470   -3.4410   20.8990 C   0  0  2  0  0  0
   38.0940    1.2280   34.1380 Cl  0  0  0  0  0  0
   37.9040    1.5720   35.8150 C   0  0  0  0  0  0
   36.6500    1.8840   36.4010 C   0  0  0  0  0  0
   35.2070    2.0290   35.4740 Cl  0  0  0  0  0  0
   36.8980    2.0430   37.7730 C   0  0  3  0  0  0
   35.9670    2.2790   38.9180 C   0  0  0  0  0  0
   38.2320    1.8730   37.9860 N   0  0  0  0  0  0
   38.8660    1.5720   36.8100 C   0  0  0  0  0  0
   40.3250    1.3480   36.8210 C   0  0  0  0  0  0
   40.9610    1.5220   37.8550 O   0  0  0  0  0  0
   40.8930    0.9980   35.6590 N   0  0  0  0  0  0
   42.2540    0.3620   35.4990 C   0  0  1  0  0  0
   42.0700   -1.1570   35.3140 C   0  0  0  0  0  0
   43.0570    1.1030   34.3250 C   0  0  1  0  0  0
   42.3580    0.9410   32.9410 C   0  0  0  0  0  0
   43.0160    2.4910   34.6970 O   0  0  0  0  0  0
   44.5870    0.6500   34.1770 C   0  0  2  0  0  0
   45.2070    1.1300   35.3580 O   0  0  0  0  0  0
   45.2200    1.3180   32.9620 C   0  0  1  0  0  0
   46.6630    0.9190   32.7580 C   0  0  0  0  0  0
   44.5020    0.9460   31.7670 O   0  0  0  0  0  0
   43.1440    1.3750   31.7200 C   0  0  1  0  0  0
   42.4760    0.9390   30.5390 O   0  0  0  0  0  0
   42.9370    1.5520   29.3040 C   0  0  2  0  0  0
   42.4210    2.9870   29.2900 C   0  0  0  0  0  0
   42.6300    3.6580   27.9260 C   0  0  0  0  0  0
   42.1430    2.7530   26.8270 C   0  0  0  0  0  0
   41.0920    3.0400   26.0790 C   0  0  0  0  0  0
   42.9460    1.4630   26.7740 C   0  0  1  0  0  0
   42.5650    0.6460   28.0440 C   0  0  1  0  0  0
   43.3390   -0.6430   28.0560 C   0  0  0  0  0  0
   43.8300   -1.2560   26.9810 C   0  0  0  0  0  0
   43.7160   -0.7640   25.5630 C   0  0  2  0  0  0
   45.0890   -0.6860   24.8930 C   0  0  0  0  0  0
   42.8860    0.5390   25.5240 C   0  0  2  0  0  0
   43.1600    1.3000   24.1790 C   0  0  0  0  0  0
   44.1530    2.2220   24.0920 O   0  5  0  0  0  0
   42.4360    1.0580   23.0360 C   0  0  0  0  0  0
   41.4110    0.0440   22.9450 C   0  0  0  0  0  0
   41.0040   -0.7320   23.8000 O   0  0  0  0  0  0
   42.5390    1.7060   21.7290 C   0  0  0  0  0  0
   43.4130    2.4480   21.3100 O   0  0  0  0  0  0
   41.3700    1.1810   20.8300 C   0  0  2  0  0  0
   40.2300    2.2250   20.6730 C   0  0  0  0  0  0
   40.7530    3.6490   20.4960 C   0  0  0  0  0  0
   39.2640    1.8620   19.5390 C   0  0  0  0  0  0
   40.8920    0.0570   21.6390 N   0  0  0  0  0  0
   40.0690   -1.0750   21.0980 C   0  0  1  0  0  0
   40.4350   -2.4850   21.5460 C   0  0  2  0  0  0
   41.7960   -2.9010   21.3690 O   0  0  0  0  0  0
   42.5260   -2.3260   20.2770 C   0  0  0  0  0  0
   38.7230   -0.7910   21.4590 O   0  0  0  0  0  0
   37.0990   -4.0310   20.7480 O   0  0  0  0  0  0
   36.7470   -5.2980   21.2620 C   0  0  0  0  0  0
   35.6310   -5.7350   21.0910 O   0  0  0  0  0  0
   37.7320   -5.9330   21.8920 N   0  0  0  0  0  0
   39.5020   -3.2560   19.4650 O   0  0  0  0  0  0
   39.8300   -4.3140   18.6890 C   0  0  0  0  0  0
   39.7930   -5.4560   19.0670 O   0  0  0  0  0  0
   40.2400   -3.8610   17.3300 C   0  0  0  0  0  0
   37.9818   -3.3696   22.4797 H   0  0  0  0  0  0
   36.8174   -1.4809   21.8594 H   0  0  0  0  0  0
   36.3287   -2.0893   19.5010 H   0  0  0  0  0  0
   37.9844   -1.5645   19.0428 H   0  0  0  0  0  0
   36.8092   -0.3684   19.6869 H   0  0  0  0  0  0
   39.7154   -4.4875   21.1060 H   0  0  0  0  0  0
   34.9404    2.3903   38.5389 H   0  0  0  0  0  0
   36.2634    3.1959   39.4486 H   0  0  0  0  0  0
   36.0120    1.4245   39.6093 H   0  0  0  0  0  0
   40.2779    1.2114   34.7723 H   0  0  0  0  0  0
   42.8299    0.4722   36.4297 H   0  0  0  0  0  0
   41.5104   -1.5653   36.1685 H   0  0  0  0  0  0
   43.0559   -1.6414   35.2561 H   0  0  0  0  0  0
   41.5124   -1.3484   34.3853 H   0  0  0  0  0  0
   42.1143   -0.1188   32.7751 H   0  0  0  0  0  0
   41.4334    1.5367   32.9252 H   0  0  0  0  0  0
   42.0482    2.9916   34.8479 H   0  0  0  0  0  0
   44.7741   -0.4312   34.1000 H   0  0  0  0  0  0
   44.8801    0.7590   36.3406 H   0  0  0  0  0  0
   45.1504    2.4069   33.1012 H   0  0  0  0  0  0
   47.2472    1.1867   33.6508 H   0  0  0  0  0  0
   47.0690    1.4466   31.8824 H   0  0  0  0  0  0
   46.7233   -0.1668   32.5923 H   0  0  0  0  0  0
   43.2249    2.4696   31.6467 H   0  0  0  0  0  0
   44.0344    1.6203   29.3357 H   0  0  0  0  0  0
   41.3441    2.9916   29.5143 H   0  0  0  0  0  0
   42.9561    3.5765   30.0490 H   0  0  0  0  0  0
   42.0679    4.6029   27.8923 H   0  0  0  0  0  0
   43.7006    3.8628   27.7783 H   0  0  0  0  0  0
   40.5803    4.0066   26.1971 H   0  0  0  0  0  0
   40.7289    2.3123   25.3383 H   0  0  0  0  0  0
   43.9786    1.8373   26.7134 H   0  0  0  0  0  0
   41.5069    0.3453   28.0426 H   0  0  0  0  0  0
   43.4882   -1.0799   29.0544 H   0  0  0  0  0  0
   44.3732   -2.2063   27.0898 H   0  0  0  0  0  0
   43.1657   -1.5086   24.9691 H   0  0  0  0  0  0
   45.5936   -1.6599   24.9765 H   0  0  0  0  0  0
   45.6960    0.0853   25.3896 H   0  0  0  0  0  0
   44.9646   -0.4273   23.8311 H   0  0  0  0  0  0
   41.8419    0.1964   25.5742 H   0  0  0  0  0  0
   41.6649    0.8887   19.8114 H   0  0  0  0  0  0
   39.6613    2.2111   21.6145 H   0  0  0  0  0  0
   41.4433    3.8908   21.3176 H   0  0  0  0  0  0
   39.9085    4.3538   20.5071 H   0  0  0  0  0  0
   41.2839    3.7279   19.5358 H   0  0  0  0  0  0
   38.8985    0.8346   19.6835 H   0  0  0  0  0  0
   39.7879    1.9326   18.5744 H   0  0  0  0  0  0
   38.4126    2.5584   19.5456 H   0  0  0  0  0  0
   40.1961   -1.0799   20.0054 H   0  0  0  0  0  0
   40.4289   -2.5178   22.6455 H   0  0  0  0  0  0
   43.5475   -2.7339   20.2637 H   0  0  0  0  0  0
   42.5689   -1.2337   20.3994 H   0  0  0  0  0  0
   42.0216   -2.5693   19.3302 H   0  0  0  0  0  0
   38.7161   -5.4532   21.9985 H   0  0  0  0  0  0
   37.5622   -6.9377   22.3064 H   0  0  0  0  0  0
   40.1752   -2.7643   17.2740 H   0  0  0  0  0  0
   39.5723   -4.3067   16.5780 H   0  0  0  0  0  0
   41.2752   -4.1776   17.1348 H   0  0  0  0  0  0
  1  2  1  0  0  0
  1  4  1  0  0  0
  1 57  1  0  0  0
  1 65  1  0  0  0
  2  3  1  0  0  0
  2 56  1  0  0  0
  2 66  1  0  0  0
  3 67  1  0  0  0
  3 68  1  0  0  0
  3 69  1  0  0  0
  4 53  1  0  0  0
  4 61  1  0  0  0
  4 70  1  0  0  0
  5  6  1  0  0  0
  6  7  2  0  0  0
  6 12  1  0  0  0
  7  8  1  0  0  0
  7  9  1  0  0  0
  9 10  1  0  0  0
  9 11  1  0  0  0
 10 71  1  0  0  0
 10 72  1  0  0  0
 10 73  1  0  0  0
 11 12  2  0  0  0
 12 13  1  0  0  0
 13 14  2  0  0  0
 13 15  1  0  0  0
 15 16  1  0  0  0
 15 74  1  0  0  0
 16 17  1  0  0  0
 16 18  1  0  0  0
 16 75  1  0  0  0
 17 76  1  0  0  0
 17 77  1  0  0  0
 17 78  1  0  0  0
 18 19  1  0  0  0
 18 20  1  0  0  0
 18 21  1  0  0  0
 19 26  1  0  0  0
 19 79  1  0  0  0
 19 80  1  0  0  0
 20 81  1  0  0  0
 21 22  1  0  0  0
 21 23  1  0  0  0
 21 82  1  0  0  0
 22 83  1  0  0  0
 23 24  1  0  0  0
 23 25  1  0  0  0
 23 84  1  0  0  0
 24 85  1  0  0  0
 24 86  1  0  0  0
 24 87  1  0  0  0
 25 26  1  0  0  0
 26 27  1  0  0  0
 26 88  1  0  0  0
 27 28  1  0  0  0
 28 29  1  0  0  0
 28 34  1  0  0  0
 28 89  1  0  0  0
 29 30  1  0  0  0
 29 90  1  0  0  0
 29 91  1  0  0  0
 30 31  1  0  0  0
 30 92  1  0  0  0
 30 93  1  0  0  0
 31 32  2  0  0  0
 31 33  1  0  0  0
 32 94  1  0  0  0
 32 95  1  0  0  0
 33 34  1  0  0  0
 33 39  1  0  0  0
 33 96  1  0  0  0
 34 35  1  0  0  0
 34 97  1  0  0  0
 35 36  2  0  0  0
 35 98  1  0  0  0
 36 37  1  0  0  0
 36 99  1  0  0  0
 37 38  1  0  0  0
 37 39  1  0  0  0
 37100  1  0  0  0
 38101  1  0  0  0
 38102  1  0  0  0
 38103  1  0  0  0
 39 40  1  0  0  0
 39104  1  0  0  0
 40 41  1  0  0  0
 40 42  2  0  0  0
 42 43  1  0  0  0
 42 45  1  0  0  0
 43 44  2  0  0  0
 43 51  1  0  0  0
 45 46  2  0  0  0
 45 47  1  0  0  0
 47 48  1  0  0  0
 47 51  1  0  0  0
 47105  1  0  0  0
 48 49  1  0  0  0
 48 50  1  0  0  0
 48106  1  0  0  0
 49107  1  0  0  0
 49108  1  0  0  0
 49109  1  0  0  0
 50110  1  0  0  0
 50111  1  0  0  0
 50112  1  0  0  0
 51 52  1  0  0  0
 52 53  1  0  0  0
 52 56  1  0  0  0
 52113  1  0  0  0
 53 54  1  0  0  0
 53114  1  0  0  0
 54 55  1  0  0  0
 55115  1  0  0  0
 55116  1  0  0  0
 55117  1  0  0  0
 57 58  1  0  0  0
 58 59  2  0  0  0
 58 60  1  0  0  0
 60118  1  0  0  0
 60119  1  0  0  0
 61 62  1  0  0  0
 62 63  2  0  0  0
 62 64  1  0  0  0
 64120  1  0  0  0
 64121  1  0  0  0
 64122  1  0  0  0
M  CHG  1  41  -1
M  END
> <s_m_source_file>
../4urm_ligand.sdf

> <i_m_source_file_index>
1

> <s_epik_input>
Tz1DKFtOSDJdKU9bQ0BASF0xW0NASF0oW0NIM10pT1tDQEhdKFtDQEhdKE9bQ0gzXSlbQ0BASF0xT0MoPU8pW0NIM10pTihbQ0BIXShDMj1PKVtDSF0oW0NIM10pW0NIM10pQyg9TykvQzI9QyhbT0hdKVxbQ0BIXTNbQ0BASF0oW0NIM10pW0NIXT1bQ0hdW0NASF0oW0NAQEhdMzQpW0NAQEhdKFtDSDJdW0NIMl1DND1bQ0gyXSlPW0NASF0oT1tDQEhdKFtDSDNdKVtDQEhdNVtPSF0pW0NIMl1bQ0BAXTUoW09IXSlbQ0BIXShbQ0gzXSlbTkhdQyg9TylDNj1OW0NIXShbQ0gzXSlDKENsKT1DNkNs

> <s_epik_cmdline>
J2VwaWtfYXBwJywgJy1pbWFlJywgJ2xpZ2FuZF9wcm8ubWFlJywgJy1vbWFlJywgJ2xpZ2FuZF9wcmVwLm1hZScsICctbXMnLCAnMScsICctcGgnLCAnNycsICctcGh0JywgJzAuNScsICctbnQn

> <r_epik_Ionization_Penalty>
  0.1101

> <r_epik_Ionization_Penalty_Charging>
  0.0007

> <r_epik_Ionization_Penalty_Neutral>
  0.1094

> <r_epik_State_Penalty>
  0.0991

> <r_epik_Charging_Adjusted_Penalty>
0.0998622330574843

> <i_epik_Tot_Q>
-1

> <i_epik_Tot_abs_Q>
1

> <s_epik_Chemistry_Notes>
This compound has an ester and may undergo hydrolysis at high or low pH. This compound has an imine and may undergo hydrolysis. This compound contains an acetal/aminal-like group ( X-CH(R)-Y where X, Y are N, S, or O) that may be acid/base labile, releasing an aldehyde.

$$$$
