4urn_ligand
                    3D
 Schrodinger Suite 2020-3.
 79 82  0  0  1  0            999 V2000
  -30.3150    2.2170    3.2210 C   0  0  0  0  0  0
  -30.4790    3.1370    2.1470 O   0  0  0  0  0  0
  -26.4050    1.5070    0.6200 N   0  0  0  0  0  0
  -27.3600    2.1960    0.0040 C   0  0  0  0  0  0
  -27.1760    3.0470   -0.8450 O   0  0  0  0  0  0
  -28.5800    1.8320    0.4540 O   0  0  0  0  0  0
  -30.8890    2.5420    0.9190 C   0  0  2  0  0  0
  -29.7360    2.5110   -0.0830 C   0  0  2  0  0  0
  -30.1870    1.9120   -1.4110 C   0  0  1  0  0  0
  -30.6120    0.5640   -1.2800 O   0  0  0  0  0  0
  -31.2960    2.7670   -2.0130 C   0  0  1  0  0  0
  -32.3600    3.0380   -1.0900 O   0  0  0  0  0  0
  -32.1250    3.3550    0.3120 C   0  0  0  0  0  0
  -31.9490    4.8680    0.3910 C   0  0  0  0  0  0
  -33.3910    2.9360    1.0380 C   0  0  0  0  0  0
  -30.6570    3.9260   -2.5100 O   0  0  0  0  0  0
  -31.3500    4.8460   -3.2640 C   0  0  0  0  0  0
  -30.5550    5.8910   -3.7550 C   0  0  0  0  0  0
  -29.0590    5.9090   -3.5280 C   0  0  0  0  0  0
  -31.1870    6.8660   -4.5260 C   0  0  0  0  0  0
  -32.5560    6.8290   -4.8090 C   0  0  0  0  0  0
  -33.3170    5.7840   -4.2800 C   0  0  0  0  0  0
  -32.7220    4.7900   -3.5210 C   0  0  0  0  0  0
  -30.3640    7.8400   -5.0600 O   0  0  0  0  0  0
  -30.8200    8.8070   -5.9320 C   0  0  0  0  0  0
  -29.9930    9.5960   -6.3250 O   0  0  0  0  0  0
  -32.3010    8.7770   -6.2980 C   0  0  0  0  0  0
  -33.1000    7.8330   -5.7100 C   0  0  0  0  0  0
  -34.4150    7.7870   -5.8840 O   0  5  0  0  0  0
  -32.6060    9.7060   -7.3200 N   0  0  0  0  0  0
  -32.8100    9.3560   -8.6440 C   0  0  0  0  0  0
  -32.8500    8.1840   -9.0210 O   0  0  0  0  0  0
  -33.0030   10.4830   -9.6120 C   0  0  0  0  0  0
  -33.4920   11.7250   -9.2080 C   0  0  0  0  0  0
  -33.7280   12.7510  -10.1280 C   0  0  0  0  0  0
  -33.4690   12.5020  -11.4820 C   0  0  0  0  0  0
  -33.7300   13.4550  -12.4160 O   0  0  0  0  0  0
  -32.9650   11.2680  -11.8880 C   0  0  0  0  0  0
  -32.7320   10.2710  -10.9610 C   0  0  0  0  0  0
  -34.2170   14.1180   -9.6780 C   0  0  0  0  0  0
  -34.9910   14.1960   -8.3900 C   0  0  0  0  0  0
  -36.1620   14.7820   -8.1720 C   0  0  0  0  0  0
  -36.8020   14.7780   -6.8180 C   0  0  0  0  0  0
  -36.9630   15.4780   -9.2360 C   0  0  0  0  0  0
  -29.9993    2.7601    4.1240 H   0  0  0  0  0  0
  -29.5494    1.4739    2.9535 H   0  0  0  0  0  0
  -31.2697    1.7063    3.4153 H   0  0  0  0  0  0
  -25.3491    1.6841    0.3677 H   0  0  0  0  0  0
  -26.6705    0.7596    1.3822 H   0  0  0  0  0  0
  -31.1344    1.5086    1.2049 H   0  0  0  0  0  0
  -29.3687    3.5333   -0.2560 H   0  0  0  0  0  0
  -29.3269    1.8278   -2.0916 H   0  0  0  0  0  0
  -29.9294   -0.1896   -0.8604 H   0  0  0  0  0  0
  -31.8484    2.3026   -2.8432 H   0  0  0  0  0  0
  -31.0293    5.1583   -0.1381 H   0  0  0  0  0  0
  -31.8778    5.1743    1.4451 H   0  0  0  0  0  0
  -32.8129    5.3625   -0.0770 H   0  0  0  0  0  0
  -33.5062    1.8439    0.9737 H   0  0  0  0  0  0
  -34.2596    3.4244    0.5721 H   0  0  0  0  0  0
  -33.3244    3.2361    2.0942 H   0  0  0  0  0  0
  -28.7738    5.0552   -2.8958 H   0  0  0  0  0  0
  -28.7753    6.8467   -3.0277 H   0  0  0  0  0  0
  -28.5405    5.8382   -4.4955 H   0  0  0  0  0  0
  -34.3904    5.7505   -4.4665 H   0  0  0  0  0  0
  -33.3206    3.9689   -3.1265 H   0  0  0  0  0  0
  -32.6933   10.7764   -7.0821 H   0  0  0  0  0  0
  -33.6947   11.8998   -8.1514 H   0  0  0  0  0  0
  -34.1281   14.4330  -12.1076 H   0  0  0  0  0  0
  -32.7536   11.0887  -12.9422 H   0  0  0  0  0  0
  -32.3329    9.3109  -11.2881 H   0  0  0  0  0  0
  -33.3556   14.7876   -9.5377 H   0  0  0  0  0  0
  -34.8870   14.5378  -10.4428 H   0  0  0  0  0  0
  -34.4694   13.6861   -7.5666 H   0  0  0  0  0  0
  -36.1502   14.2507   -6.1059 H   0  0  0  0  0  0
  -37.7742   14.2663   -6.8735 H   0  0  0  0  0  0
  -36.9517   15.8141   -6.4802 H   0  0  0  0  0  0
  -36.4205   15.4327  -10.1919 H   0  0  0  0  0  0
  -37.1162   16.5293   -8.9508 H   0  0  0  0  0  0
  -37.9386   14.9815   -9.3441 H   0  0  0  0  0  0
  1  2  1  0  0  0
  1 45  1  0  0  0
  1 46  1  0  0  0
  1 47  1  0  0  0
  2  7  1  0  0  0
  3  4  1  0  0  0
  3 48  1  0  0  0
  3 49  1  0  0  0
  4  5  2  0  0  0
  4  6  1  0  0  0
  6  8  1  0  0  0
  7  8  1  0  0  0
  7 13  1  0  0  0
  7 50  1  0  0  0
  8  9  1  0  0  0
  8 51  1  0  0  0
  9 10  1  0  0  0
  9 11  1  0  0  0
  9 52  1  0  0  0
 10 53  1  0  0  0
 11 12  1  0  0  0
 11 16  1  0  0  0
 11 54  1  0  0  0
 12 13  1  0  0  0
 13 14  1  0  0  0
 13 15  1  0  0  0
 14 55  1  0  0  0
 14 56  1  0  0  0
 14 57  1  0  0  0
 15 58  1  0  0  0
 15 59  1  0  0  0
 15 60  1  0  0  0
 16 17  1  0  0  0
 17 18  2  0  0  0
 17 23  1  0  0  0
 18 19  1  0  0  0
 18 20  1  0  0  0
 19 61  1  0  0  0
 19 62  1  0  0  0
 19 63  1  0  0  0
 20 21  2  0  0  0
 20 24  1  0  0  0
 21 22  1  0  0  0
 21 28  1  0  0  0
 22 23  2  0  0  0
 22 64  1  0  0  0
 23 65  1  0  0  0
 24 25  1  0  0  0
 25 26  2  0  0  0
 25 27  1  0  0  0
 27 28  2  0  0  0
 27 30  1  0  0  0
 28 29  1  0  0  0
 30 31  1  0  0  0
 30 66  1  0  0  0
 31 32  2  0  0  0
 31 33  1  0  0  0
 33 34  2  0  0  0
 33 39  1  0  0  0
 34 35  1  0  0  0
 34 67  1  0  0  0
 35 36  2  0  0  0
 35 40  1  0  0  0
 36 37  1  0  0  0
 36 38  1  0  0  0
 37 68  1  0  0  0
 38 39  2  0  0  0
 38 69  1  0  0  0
 39 70  1  0  0  0
 40 41  1  0  0  0
 40 71  1  0  0  0
 40 72  1  0  0  0
 41 42  2  0  0  0
 41 73  1  0  0  0
 42 43  1  0  0  0
 42 44  1  0  0  0
 43 74  1  0  0  0
 43 75  1  0  0  0
 43 76  1  0  0  0
 44 77  1  0  0  0
 44 78  1  0  0  0
 44 79  1  0  0  0
M  CHG  1  29  -1
M  END
> <s_m_source_file>
../4urn_ligand.sdf

> <i_m_source_file_index>
1

> <s_epik_input>
W0NIM11PW0NAQEhdKEMxKFtDSDNdKVtDSDNdKVtDQEBIXShPQyg9TylbTkgyXSlbQ0BASF0oW09IXSlbQ0BASF0oTzEpT2MoYzJbQ0gzXSlbY0hdW2NIXWMoYzIzKWMoW09IXSljKGMobzMpPU8pW05IXUMoPU8pYzRbY0hdYyhjKFtPSF0pW2NIXVtjSF00KVtDSDJdW0NIXT1DKFtDSDNdKVtDSDNd

> <s_epik_cmdline>
J2VwaWtfYXBwJywgJy1pbWFlJywgJ2xpZ2FuZF9wcm8ubWFlJywgJy1vbWFlJywgJ2xpZ2FuZF9wcmVwLm1hZScsICctbXMnLCAnMScsICctcGgnLCAnNycsICctcGh0JywgJzAuNScsICctbnQn

> <r_lp_tautomer_probability>
0.999999999997365

> <r_epik_Ionization_Penalty>
  0.0217

> <r_epik_Ionization_Penalty_Charging>
  0.0130

> <r_epik_Ionization_Penalty_Neutral>
  0.0087

> <r_epik_State_Penalty>
  0.0101

> <r_epik_Charging_Adjusted_Penalty>
0.0230599336544368

> <i_epik_Tot_Q>
-1

> <i_epik_Tot_abs_Q>
1

> <s_epik_Chemistry_Notes>
This compound has an ester and may undergo hydrolysis at high or low pH. This compound contains an acetal/aminal-like group ( X-CH(R)-Y where X, Y are N, S, or O) that may be acid/base labile, releasing an aldehyde.

$$$$
