4uro_ligand
                    3D
 Schrodinger Suite 2020-3.
 79 82  0  0  1  0            999 V2000
   -0.7950   -7.0430  -12.1600 C   0  0  0  0  0  0
   -1.1130   -5.6570  -12.1620 O   0  0  0  0  0  0
   -0.6770   -5.7060   -7.4090 N   0  0  0  0  0  0
   -0.8760   -4.7700   -8.3230 C   0  0  0  0  0  0
   -1.4090   -3.7020   -8.1220 O   0  0  0  0  0  0
   -0.4000   -5.1630   -9.5240 O   0  0  0  0  0  0
   -0.0020   -4.8060  -11.9010 C   0  0  2  0  0  0
   -0.1170   -4.1500  -10.5220 C   0  0  2  0  0  0
    1.1330   -3.3100  -10.2560 C   0  0  1  0  0  0
    2.3320   -4.0730  -10.2660 O   0  0  0  0  0  0
    1.2360   -2.2190  -11.3160 C   0  0  1  0  0  0
    1.1710   -2.7180  -12.6630 O   0  0  0  0  0  0
    0.2110   -3.7340  -13.0640 C   0  0  0  0  0  0
   -1.0710   -3.0370  -13.4970 C   0  0  0  0  0  0
    0.8760   -4.3960  -14.2580 C   0  0  0  0  0  0
    0.1510   -1.3580  -11.0680 O   0  0  0  0  0  0
    0.0650   -0.1490  -11.7070 C   0  0  0  0  0  0
   -1.0560    0.5930  -11.3310 C   0  0  0  0  0  0
   -2.0090    0.0810  -10.2770 C   0  0  0  0  0  0
   -1.2140    1.8410  -11.9250 C   0  0  0  0  0  0
   -0.2800    2.3740  -12.8250 C   0  0  0  0  0  0
    0.8160    1.5890  -13.1860 C   0  0  0  0  0  0
    0.9910    0.3310  -12.6400 C   0  0  0  0  0  0
   -2.3490    2.5330  -11.5530 O   0  0  0  0  0  0
   -2.6330    3.7990  -12.0010 C   0  0  0  0  0  0
   -3.6850    4.2350  -11.6170 O   0  0  0  0  0  0
   -1.6040    4.4410  -12.9560 C   0  0  0  0  0  0
   -0.4980    3.7300  -13.3270 C   0  0  0  0  0  0
    0.4280    4.2120  -14.1790 O   0  5  0  0  0  0
   -2.0020    5.7150  -13.4380 N   0  0  0  0  0  0
   -3.2510    6.0520  -13.9140 C   0  0  0  0  0  0
   -3.9100    6.9730  -13.4350 O   0  0  0  0  0  0
   -3.7890    5.1980  -15.0190 C   0  0  0  0  0  0
   -2.9340    4.4000  -15.7770 C   0  0  0  0  0  0
   -3.4220    3.4780  -16.7030 C   0  0  0  0  0  0
   -4.8100    3.3690  -16.8610 C   0  0  0  0  0  0
   -5.3290    2.3700  -17.6210 O   0  0  0  0  0  0
   -5.6700    4.2060  -16.1470 C   0  0  0  0  0  0
   -5.1620    5.1090  -15.2310 C   0  0  0  0  0  0
   -2.4110    2.6580  -17.4830 C   0  0  0  0  0  0
   -2.6740    1.1910  -17.2930 C   0  0  0  0  0  0
   -1.8850    0.2820  -16.7440 C   0  0  0  0  0  0
   -0.4860    0.5530  -16.2760 C   0  0  0  0  0  0
   -2.3670   -1.1120  -16.4900 C   0  0  0  0  0  0
   -1.7031   -7.6278  -12.3684 H   0  0  0  0  0  0
   -0.3946   -7.3259  -11.1753 H   0  0  0  0  0  0
   -0.0414   -7.2474  -12.9348 H   0  0  0  0  0  0
   -1.0080   -5.5422   -6.3729 H   0  0  0  0  0  0
   -0.1805   -6.6479   -7.6854 H   0  0  0  0  0  0
    0.8292   -5.5256  -11.8641 H   0  0  0  0  0  0
   -0.9871   -3.4834  -10.4295 H   0  0  0  0  0  0
    1.0930   -2.9166   -9.2295 H   0  0  0  0  0  0
    2.4544   -4.9143   -9.5679 H   0  0  0  0  0  0
    2.1864   -1.6660  -11.2864 H   0  0  0  0  0  0
   -1.5428   -2.5619  -12.6242 H   0  0  0  0  0  0
   -1.7615   -3.7755  -13.9304 H   0  0  0  0  0  0
   -0.8352   -2.2699  -14.2493 H   0  0  0  0  0  0
    1.8003   -4.8957  -13.9325 H   0  0  0  0  0  0
    1.1178   -3.6331  -15.0126 H   0  0  0  0  0  0
    0.1915   -5.1387  -14.6937 H   0  0  0  0  0  0
   -1.6920   -0.9208   -9.9516 H   0  0  0  0  0  0
   -3.0244    0.0261  -10.6964 H   0  0  0  0  0  0
   -2.0046    0.7649   -9.4154 H   0  0  0  0  0  0
    1.5406    1.9712  -13.9050 H   0  0  0  0  0  0
    1.8432   -0.2819  -12.9338 H   0  0  0  0  0  0
   -1.2820    6.5465  -13.4540 H   0  0  0  0  0  0
   -1.8568    4.4989  -15.6428 H   0  0  0  0  0  0
   -4.6599    1.7053  -18.1872 H   0  0  0  0  0  0
   -6.7458    4.1474  -16.3123 H   0  0  0  0  0  0
   -5.8400    5.7542  -14.6723 H   0  0  0  0  0  0
   -2.4884    2.9017  -18.5529 H   0  0  0  0  0  0
   -1.3967    2.8907  -17.1264 H   0  0  0  0  0  0
   -3.6621    0.9005  -17.6794 H   0  0  0  0  0  0
   -0.2189    1.5957  -16.5030 H   0  0  0  0  0  0
    0.2107   -0.1245  -16.7913 H   0  0  0  0  0  0
   -0.4238    0.3866  -15.1904 H   0  0  0  0  0  0
   -3.3960   -1.2180  -16.8640 H   0  0  0  0  0  0
   -2.3469   -1.3157  -15.4092 H   0  0  0  0  0  0
   -1.7123   -1.8268  -17.0101 H   0  0  0  0  0  0
  1  2  1  0  0  0
  1 45  1  0  0  0
  1 46  1  0  0  0
  1 47  1  0  0  0
  2  7  1  0  0  0
  3  4  1  0  0  0
  3 48  1  0  0  0
  3 49  1  0  0  0
  4  5  2  0  0  0
  4  6  1  0  0  0
  6  8  1  0  0  0
  7  8  1  0  0  0
  7 13  1  0  0  0
  7 50  1  0  0  0
  8  9  1  0  0  0
  8 51  1  0  0  0
  9 10  1  0  0  0
  9 11  1  0  0  0
  9 52  1  0  0  0
 10 53  1  0  0  0
 11 12  1  0  0  0
 11 16  1  0  0  0
 11 54  1  0  0  0
 12 13  1  0  0  0
 13 14  1  0  0  0
 13 15  1  0  0  0
 14 55  1  0  0  0
 14 56  1  0  0  0
 14 57  1  0  0  0
 15 58  1  0  0  0
 15 59  1  0  0  0
 15 60  1  0  0  0
 16 17  1  0  0  0
 17 18  2  0  0  0
 17 23  1  0  0  0
 18 19  1  0  0  0
 18 20  1  0  0  0
 19 61  1  0  0  0
 19 62  1  0  0  0
 19 63  1  0  0  0
 20 21  2  0  0  0
 20 24  1  0  0  0
 21 22  1  0  0  0
 21 28  1  0  0  0
 22 23  2  0  0  0
 22 64  1  0  0  0
 23 65  1  0  0  0
 24 25  1  0  0  0
 25 26  2  0  0  0
 25 27  1  0  0  0
 27 28  2  0  0  0
 27 30  1  0  0  0
 28 29  1  0  0  0
 30 31  1  0  0  0
 30 66  1  0  0  0
 31 32  2  0  0  0
 31 33  1  0  0  0
 33 34  2  0  0  0
 33 39  1  0  0  0
 34 35  1  0  0  0
 34 67  1  0  0  0
 35 36  2  0  0  0
 35 40  1  0  0  0
 36 37  1  0  0  0
 36 38  1  0  0  0
 37 68  1  0  0  0
 38 39  2  0  0  0
 38 69  1  0  0  0
 39 70  1  0  0  0
 40 41  1  0  0  0
 40 71  1  0  0  0
 40 72  1  0  0  0
 41 42  2  0  0  0
 41 73  1  0  0  0
 42 43  1  0  0  0
 42 44  1  0  0  0
 43 74  1  0  0  0
 43 75  1  0  0  0
 43 76  1  0  0  0
 44 77  1  0  0  0
 44 78  1  0  0  0
 44 79  1  0  0  0
M  CHG  1  29  -1
M  END
> <s_m_source_file>
../4uro_ligand.sdf

> <i_m_source_file_index>
1

> <s_epik_input>
W0NIM11PW0NAQEhdKEMxKFtDSDNdKVtDSDNdKVtDQEBIXShPQyg9TylbTkgyXSlbQ0BASF0oW09IXSlbQ0BASF0oTzEpT2MoYzJbQ0gzXSlbY0hdW2NIXWMoYzIzKWMoW09IXSljKGMobzMpPU8pW05IXUMoPU8pYzRbY0hdYyhjKFtPSF0pW2NIXVtjSF00KVtDSDJdW0NIXT1DKFtDSDNdKVtDSDNd

> <s_epik_cmdline>
J2VwaWtfYXBwJywgJy1pbWFlJywgJ2xpZ2FuZF9wcm8ubWFlJywgJy1vbWFlJywgJ2xpZ2FuZF9wcmVwLm1hZScsICctbXMnLCAnMScsICctcGgnLCAnNycsICctcGh0JywgJzAuNScsICctbnQn

> <r_lp_tautomer_probability>
0.999999999997365

> <r_epik_Ionization_Penalty>
  0.0217

> <r_epik_Ionization_Penalty_Charging>
  0.0130

> <r_epik_Ionization_Penalty_Neutral>
  0.0087

> <r_epik_State_Penalty>
  0.0101

> <r_epik_Charging_Adjusted_Penalty>
0.0230599336544368

> <i_epik_Tot_Q>
-1

> <i_epik_Tot_abs_Q>
1

> <s_epik_Chemistry_Notes>
This compound has an ester and may undergo hydrolysis at high or low pH. This compound contains an acetal/aminal-like group ( X-CH(R)-Y where X, Y are N, S, or O) that may be acid/base labile, releasing an aldehyde.

$$$$
