4urv_ligand
                    3D
 Schrodinger Suite 2020-3.
 29 30  0  0  1  0            999 V2000
   44.6850   42.2550   73.7790 Br  0  0  0  0  0  0
   45.2670   41.4970   75.4250 C   0  0  0  0  0  0
   45.8670   42.3090   76.3740 C   0  0  0  0  0  0
   46.2650   41.7550   77.5800 C   0  0  0  0  0  0
   45.0560   40.1500   75.6700 C   0  0  0  0  0  0
   45.4570   39.6170   76.8860 C   0  0  0  0  0  0
   46.0550   40.4080   77.8650 C   0  0  0  0  0  0
   46.5420   39.7990   79.1790 C   0  0  0  0  0  0
   45.7350   38.6690   79.5310 O   0  0  0  0  0  0
   46.4550   40.8210   80.3210 C   0  0  0  0  0  0
   47.0670   40.3010   81.6050 C   0  0  0  0  0  0
   48.4740   39.9270   81.3870 N   0  3  0  0  0  0
   48.5760   38.8720   80.3640 C   0  0  0  0  0  0
   47.9880   39.3070   79.0380 C   0  0  0  0  0  0
   46.0237   43.3691   76.1745 H   0  0  0  0  0  0
   46.7531   42.3871   78.3218 H   0  0  0  0  0  0
   44.5820   39.5186   74.9185 H   0  0  0  0  0  0
   45.3009   38.5559   77.0802 H   0  0  0  0  0  0
   44.6527   38.7924   79.6842 H   0  0  0  0  0  0
   46.9916   41.7375   80.0345 H   0  0  0  0  0  0
   45.3998   41.0606   80.5190 H   0  0  0  0  0  0
   47.0193   41.0832   82.3769 H   0  0  0  0  0  0
   46.5092   39.4159   81.9449 H   0  0  0  0  0  0
   49.0394   40.8079   81.0488 H   0  0  0  0  0  0
   48.9044   39.5543   82.3282 H   0  0  0  0  0  0
   49.6342   38.6183   80.2032 H   0  0  0  0  0  0
   48.0322   37.9782   80.7036 H   0  0  0  0  0  0
   48.0175   38.4471   78.3526 H   0  0  0  0  0  0
   48.6136   40.1177   78.6363 H   0  0  0  0  0  0
  1  2  1  0  0  0
  2  3  2  0  0  0
  2  5  1  0  0  0
  3  4  1  0  0  0
  3 15  1  0  0  0
  4  7  2  0  0  0
  4 16  1  0  0  0
  5  6  2  0  0  0
  5 17  1  0  0  0
  6  7  1  0  0  0
  6 18  1  0  0  0
  7  8  1  0  0  0
  8  9  1  0  0  0
  8 10  1  0  0  0
  8 14  1  0  0  0
  9 19  1  0  0  0
 10 11  1  0  0  0
 10 20  1  0  0  0
 10 21  1  0  0  0
 11 12  1  0  0  0
 11 22  1  0  0  0
 11 23  1  0  0  0
 12 13  1  0  0  0
 12 24  1  0  0  0
 12 25  1  0  0  0
 13 14  1  0  0  0
 13 26  1  0  0  0
 13 27  1  0  0  0
 14 28  1  0  0  0
 14 29  1  0  0  0
M  CHG  1  12   1
M  END
> <s_m_source_file>
../4urv_ligand.sdf

> <i_m_source_file_index>
1

> <s_epik_input>
QnJjMVtjSF1bY0hdYyhbY0hdW2NIXTEpQzIoW09IXSlbQ0gyXVtDSDJdW05IMitdW0NIMl1bQ0gyXTI=

> <s_epik_cmdline>
J2VwaWtfYXBwJywgJy1pbWFlJywgJ2xpZ2FuZF9wcm8ubWFlJywgJy1vbWFlJywgJ2xpZ2FuZF9wcmVwLm1hZScsICctbXMnLCAnMScsICctcGgnLCAnNycsICctcGh0JywgJzAuNScsICctbnQn

> <r_lp_tautomer_probability>
1

> <r_epik_Ionization_Penalty>
  0.0018

> <r_epik_Ionization_Penalty_Charging>
  0.0018

> <r_epik_Ionization_Penalty_Neutral>
  0.0000

> <r_epik_State_Penalty>
 -0.0000

> <r_epik_Charging_Adjusted_Penalty>
0.00177417510483221

> <i_epik_Tot_Q>
1

> <i_epik_Tot_abs_Q>
1

$$$$
