4urw_ligand
                    3D
 Schrodinger Suite 2020-3.
 44 46  0  0  1  0            999 V2000
   45.6810   42.3410   77.6380 C   0  0  0  0  0  0
   45.3120   41.5370   76.4160 C   0  0  0  0  0  0
   45.5720   42.0500   75.1410 C   0  0  0  0  0  0
   45.2320   41.3450   74.0000 C   0  0  0  0  0  0
   44.6120   40.1120   74.1130 C   0  0  0  0  0  0
   44.2980   39.5720   75.3650 C   0  0  0  0  0  0
   43.6100   38.2350   75.4490 C   0  0  0  0  0  0
   44.6590   40.2890   76.5270 C   0  0  0  0  0  0
   44.4250   39.7170   77.8810 C   0  0  0  0  0  0
   43.1850   39.7210   78.3880 N   0  0  0  0  0  0
   43.1060   39.1930   79.6190 C   0  0  0  0  0  0
   41.5410   39.0640   80.4000 S   0  0  0  0  0  0
   40.4640   39.9160   79.2570 C   0  0  0  0  0  0
   45.5210   39.2460   78.4950 N   0  0  0  0  0  0
   45.3030   38.7290   79.7220 C   0  0  0  0  0  0
   44.1080   38.6760   80.3420 N   0  0  0  0  0  0
   46.3880   38.2950   80.4150 N   0  0  0  0  0  0
   47.6950   38.9320   80.2170 C   0  0  0  0  0  0
   48.8140   37.9640   80.5060 C   0  0  0  0  0  0
   48.6940   37.4610   81.8860 N   0  3  0  0  0  0
   47.3960   36.8030   82.0950 C   0  0  0  0  0  0
   46.2560   37.7430   81.7680 C   0  0  0  0  0  0
   46.1774   43.2724   77.3280 H   0  0  0  0  0  0
   46.3638   41.7545   78.2703 H   0  0  0  0  0  0
   44.7709   42.5823   78.2067 H   0  0  0  0  0  0
   46.0517   43.0240   75.0444 H   0  0  0  0  0  0
   45.4514   41.7587   73.0157 H   0  0  0  0  0  0
   44.3643   39.5524   73.2110 H   0  0  0  0  0  0
   43.4214   37.8553   74.4340 H   0  0  0  0  0  0
   42.6543   38.3473   75.9819 H   0  0  0  0  0  0
   44.2518   37.5259   75.9924 H   0  0  0  0  0  0
   39.4343   39.9022   79.6438 H   0  0  0  0  0  0
   40.4952   39.4128   78.2794 H   0  0  0  0  0  0
   40.7994   40.9575   79.1442 H   0  0  0  0  0  0
   47.7826   39.2730   79.1749 H   0  0  0  0  0  0
   47.7892   39.7939   80.8940 H   0  0  0  0  0  0
   48.7579   37.1187   79.8043 H   0  0  0  0  0  0
   49.7808   38.4752   80.3877 H   0  0  0  0  0  0
   49.4947   36.7325   82.0816 H   0  0  0  0  0  0
   48.7818   38.3006   82.5912 H   0  0  0  0  0  0
   47.3238   35.9193   81.4439 H   0  0  0  0  0  0
   47.3076   36.4919   83.1464 H   0  0  0  0  0  0
   46.2593   38.5635   82.5007 H   0  0  0  0  0  0
   45.3109   37.1856   81.8460 H   0  0  0  0  0  0
  1  2  1  0  0  0
  1 23  1  0  0  0
  1 24  1  0  0  0
  1 25  1  0  0  0
  2  3  2  0  0  0
  2  8  1  0  0  0
  3  4  1  0  0  0
  3 26  1  0  0  0
  4  5  2  0  0  0
  4 27  1  0  0  0
  5  6  1  0  0  0
  5 28  1  0  0  0
  6  7  1  0  0  0
  6  8  2  0  0  0
  7 29  1  0  0  0
  7 30  1  0  0  0
  7 31  1  0  0  0
  8  9  1  0  0  0
  9 10  2  0  0  0
  9 14  1  0  0  0
 10 11  1  0  0  0
 11 12  1  0  0  0
 11 16  2  0  0  0
 12 13  1  0  0  0
 13 32  1  0  0  0
 13 33  1  0  0  0
 13 34  1  0  0  0
 14 15  2  0  0  0
 15 16  1  0  0  0
 15 17  1  0  0  0
 17 18  1  0  0  0
 17 22  1  0  0  0
 18 19  1  0  0  0
 18 35  1  0  0  0
 18 36  1  0  0  0
 19 20  1  0  0  0
 19 37  1  0  0  0
 19 38  1  0  0  0
 20 21  1  0  0  0
 20 39  1  0  0  0
 20 40  1  0  0  0
 21 22  1  0  0  0
 21 41  1  0  0  0
 21 42  1  0  0  0
 22 43  1  0  0  0
 22 44  1  0  0  0
M  CHG  1  20   1
M  END
> <s_m_source_file>
../4urw_ligand.sdf

> <i_m_source_file_index>
1

> <s_epik_input>
W0NIM11jMVtjSF1bY0hdW2NIXWMoW0NIM10pYzEtYzJuYyhTW0NIM10pbmMobjIpTjNbQ0gyXVtDSDJdW05IMitdW0NIMl1bQ0gyXTM=

> <s_epik_cmdline>
J2VwaWtfYXBwJywgJy1pbWFlJywgJ2xpZ2FuZF9wcm8ubWFlJywgJy1vbWFlJywgJ2xpZ2FuZF9wcmVwLm1hZScsICctbXMnLCAnMScsICctcGgnLCAnNycsICctcGh0JywgJzAuNScsICctbnQn

> <r_lp_tautomer_probability>
1

> <r_epik_Ionization_Penalty>
  0.0086

> <r_epik_Ionization_Penalty_Charging>
  0.0086

> <r_epik_Ionization_Penalty_Neutral>
  0.0000

> <r_epik_State_Penalty>
 -0.0000

> <r_epik_Charging_Adjusted_Penalty>
0.00857161421072162

> <i_epik_Tot_Q>
1

> <i_epik_Tot_abs_Q>
1

$$$$
