4urx_ligand
                    3D
 Schrodinger Suite 2020-3.
 26 27  0  0  1  0            999 V2000
   44.2210   43.6590   80.3970 C   0  0  0  0  0  0
   46.9220   39.6980   78.8740 N   0  3  0  0  0  0
   42.9980   44.8090   81.2920 Br  0  0  0  0  0  0
   45.3090   43.1700   81.0790 C   0  0  0  0  0  0
   46.1700   42.2990   80.4370 C   0  0  0  0  0  0
   46.0130   42.0000   79.0930 C   0  0  0  0  0  0
   46.9800   41.0820   78.3900 C   0  0  0  0  0  0
   45.6940   39.0120   78.4600 C   0  0  0  0  0  0
   46.0200   37.5480   78.6380 C   0  0  0  0  0  0
   47.4970   37.4490   78.5000 C   0  0  0  0  0  0
   47.9980   38.8670   78.3190 C   0  0  0  0  0  0
   44.9370   42.5490   78.4150 C   0  0  0  0  0  0
   44.0200   43.3540   79.0650 C   0  0  0  0  0  0
   46.9927   39.7981   79.9672 H   0  0  0  0  0  0
   45.4910   43.4648   82.1125 H   0  0  0  0  0  0
   46.9850   41.8404   80.9969 H   0  0  0  0  0  0
   47.9920   41.4833   78.5474 H   0  0  0  0  0  0
   46.7390   41.1056   77.3170 H   0  0  0  0  0  0
   44.8604   39.3332   79.1018 H   0  0  0  0  0  0
   45.4687   39.2634   77.4131 H   0  0  0  0  0  0
   45.4237   36.6438   78.8302 H   0  0  0  0  0  0
   47.9886   36.4659   78.5419 H   0  0  0  0  0  0
   48.1482   39.1212   77.2594 H   0  0  0  0  0  0
   48.9285   39.0519   78.8758 H   0  0  0  0  0  0
   44.8113   42.3430   77.3520 H   0  0  0  0  0  0
   43.1509   43.7424   78.5339 H   0  0  0  0  0  0
  1  3  1  0  0  0
  1  4  2  0  0  0
  1 13  1  0  0  0
  2  7  1  0  0  0
  2  8  1  0  0  0
  2 11  1  0  0  0
  2 14  1  0  0  0
  4  5  1  0  0  0
  4 15  1  0  0  0
  5  6  2  0  0  0
  5 16  1  0  0  0
  6  7  1  0  0  0
  6 12  1  0  0  0
  7 17  1  0  0  0
  7 18  1  0  0  0
  8  9  1  0  0  0
  8 19  1  0  0  0
  8 20  1  0  0  0
  9 10  2  0  0  0
  9 21  1  0  0  0
 10 11  1  0  0  0
 10 22  1  0  0  0
 11 23  1  0  0  0
 11 24  1  0  0  0
 12 13  2  0  0  0
 12 25  1  0  0  0
 13 26  1  0  0  0
M  CHG  1   2   1
M  END
> <s_m_source_file>
../4urx_ligand.sdf

> <i_m_source_file_index>
1

> <s_epik_input>
QnJjMVtjSF1bY0hdYyhbY0hdW2NIXTEpW0NIMl1bTkgrXTJbQ0gyXVtDSF09W0NIXVtDSDJdMg==

> <s_epik_cmdline>
J2VwaWtfYXBwJywgJy1pbWFlJywgJ2xpZ2FuZF9wcm8ubWFlJywgJy1vbWFlJywgJ2xpZ2FuZF9wcmVwLm1hZScsICctbXMnLCAnMScsICctcGgnLCAnNycsICctcGh0JywgJzAuNScsICctbnQn

> <r_lp_tautomer_probability>
1

> <r_epik_Ionization_Penalty>
  0.0027

> <r_epik_Ionization_Penalty_Charging>
  0.0027

> <r_epik_Ionization_Penalty_Neutral>
  0.0000

> <r_epik_State_Penalty>
 -0.0000

> <r_epik_Charging_Adjusted_Penalty>
0.0027020118714599

> <i_epik_Tot_Q>
1

> <i_epik_Tot_abs_Q>
1

$$$$
