4ury_ligand
                    3D
 Schrodinger Suite 2020-3.
 25 26  0  0  1  0            999 V2000
   56.8590   39.2320   63.4430 C   0  0  0  0  0  0
   58.0660   39.0550   62.8280 N   0  0  0  0  0  0
   52.0360   38.6630   65.2120 O   0  0  0  0  0  0
   52.8430   39.8100   65.4980 S   0  0  0  0  0  0
   55.7170   38.5640   62.9880 C   0  0  0  0  0  0
   52.1260   41.1500   64.8860 N   0  0  0  0  0  0
   53.1030   40.1870   66.8570 O   0  0  0  0  0  0
   54.4950   38.7360   63.6110 C   0  0  0  0  0  0
   52.1220   40.5490   62.6710 O   0  5  0  0  0  0
   54.3930   39.6120   64.6820 C   0  0  0  0  0  0
   55.5150   40.2680   65.1710 C   0  0  0  0  0  0
   56.7340   40.0900   64.5420 C   0  0  0  0  0  0
   51.8590   41.3580   63.5610 C   0  0  0  0  0  0
   51.1470   42.6570   63.2890 C   0  0  0  0  0  0
   50.0370   42.6190   62.2970 C   0  0  0  0  0  0
   51.2910   43.2900   61.9410 C   0  0  0  0  0  0
   58.1496   38.3776   61.9653 H   0  0  0  0  0  0
   58.9542   39.5898   63.1955 H   0  0  0  0  0  0
   55.7920   37.8975   62.1288 H   0  0  0  0  0  0
   53.6191   38.1881   63.2638 H   0  0  0  0  0  0
   55.4358   40.9175   66.0428 H   0  0  0  0  0  0
   57.6101   40.6257   64.9074 H   0  0  0  0  0  0
   51.2740   43.0091   64.3233 H   0  0  0  0  0  0
   49.2082   42.5829   61.5746 H   0  0  0  0  0  0
   51.4031   43.7573   60.9515 H   0  0  0  0  0  0
  1  2  1  0  0  0
  1  5  2  0  0  0
  1 12  1  0  0  0
  2 17  1  0  0  0
  2 18  1  0  0  0
  3  4  2  0  0  0
  4  6  1  0  0  0
  4  7  2  0  0  0
  4 10  1  0  0  0
  5  8  1  0  0  0
  5 19  1  0  0  0
  6 13  2  0  0  0
  8 10  2  0  0  0
  8 20  1  0  0  0
  9 13  1  0  0  0
 10 11  1  0  0  0
 11 12  2  0  0  0
 11 21  1  0  0  0
 12 22  1  0  0  0
 13 14  1  0  0  0
 14 15  1  0  0  0
 14 16  1  0  0  0
 14 23  1  0  0  0
 15 16  2  0  0  0
 15 24  1  0  0  0
 16 25  1  0  0  0
M  CHG  1   9  -1
M  END
> <s_m_source_file>
../4ury_ligand.sdf

> <i_m_source_file_index>
1

> <s_epik_input>
W05IMl1jMVtjSF1bY0hdYyhbY0hdW2NIXTEpUyg9TykoPU8pW05IXUMoPU8pW0NIXTJbQ0hdPVtDSF0y

> <s_epik_cmdline>
J2VwaWtfYXBwJywgJy1pbWFlJywgJ2xpZ2FuZF9wcm8ubWFlJywgJy1vbWFlJywgJ2xpZ2FuZF9wcmVwLm1hZScsICctbXMnLCAnMScsICctcGgnLCAnNycsICctcGh0JywgJzAuNScsICctbnQn

> <r_epik_Ionization_Penalty>
  0.0228

> <r_epik_Ionization_Penalty_Charging>
  0.0219

> <r_epik_Ionization_Penalty_Neutral>
  0.0009

> <r_epik_State_Penalty>
  0.0176

> <r_epik_Charging_Adjusted_Penalty>
0.0394639429866335

> <i_epik_Tot_Q>
-1

> <i_epik_Tot_abs_Q>
1

$$$$
