4urz_ligand
                    3D
 Schrodinger Suite 2020-3.
 31 32  0  0  1  0            999 V2000
   57.3840   39.3920   64.0290 C   0  0  0  0  0  0
   58.5990   39.2930   63.4420 N   0  0  0  0  0  0
   53.5140   40.0480   67.3840 O   0  0  0  0  0  0
   53.2980   39.6950   66.0150 S   0  0  0  0  0  0
   57.1890   40.2170   65.1450 C   0  0  0  0  0  0
   52.4900   41.0210   65.3430 N   0  0  0  0  0  0
   52.5680   38.5080   65.6930 O   0  0  0  0  0  0
   55.9490   40.3040   65.7570 C   0  0  0  0  0  0
   52.6500   40.2950   63.2500 O   0  0  0  0  0  0
   54.8820   39.5770   65.2470 C   0  0  0  0  0  0
   55.0630   38.7170   64.1710 C   0  0  0  0  0  0
   56.2960   38.6540   63.5500 C   0  0  0  0  0  0
   51.8350   42.0400   66.2090 C   0  0  0  0  0  0
   51.9860   43.4380   65.6600 C   0  0  0  0  0  0
   51.3210   43.5640   64.3090 C   0  0  0  0  0  0
   51.7750   42.4840   63.3470 C   0  0  0  0  0  0
   52.3290   41.2240   63.9660 C   0  0  0  0  0  0
   59.4460   39.8788   63.8286 H   0  0  0  0  0  0
   58.7398   38.6267   62.5782 H   0  0  0  0  0  0
   58.0240   40.7979   65.5367 H   0  0  0  0  0  0
   55.8123   40.9387   66.6326 H   0  0  0  0  0  0
   54.2387   38.0966   63.8192 H   0  0  0  0  0  0
   56.4230   38.0193   62.6730 H   0  0  0  0  0  0
   50.7604   41.8183   66.2875 H   0  0  0  0  0  0
   52.2885   42.0159   67.2109 H   0  0  0  0  0  0
   51.5196   44.1556   66.3510 H   0  0  0  0  0  0
   53.0545   43.6756   65.5507 H   0  0  0  0  0  0
   50.2306   43.4806   64.4278 H   0  0  0  0  0  0
   51.5681   44.5411   63.8684 H   0  0  0  0  0  0
   50.9252   42.1660   62.7251 H   0  0  0  0  0  0
   52.5735   42.8795   62.7021 H   0  0  0  0  0  0
  1  2  1  0  0  0
  1  5  2  0  0  0
  1 12  1  0  0  0
  2 18  1  0  0  0
  2 19  1  0  0  0
  3  4  2  0  0  0
  4  6  1  0  0  0
  4  7  2  0  0  0
  4 10  1  0  0  0
  5  8  1  0  0  0
  5 20  1  0  0  0
  6 13  1  0  0  0
  6 17  1  0  0  0
  8 10  2  0  0  0
  8 21  1  0  0  0
  9 17  2  0  0  0
 10 11  1  0  0  0
 11 12  2  0  0  0
 11 22  1  0  0  0
 12 23  1  0  0  0
 13 14  1  0  0  0
 13 24  1  0  0  0
 13 25  1  0  0  0
 14 15  1  0  0  0
 14 26  1  0  0  0
 14 27  1  0  0  0
 15 16  1  0  0  0
 15 28  1  0  0  0
 15 29  1  0  0  0
 16 17  1  0  0  0
 16 30  1  0  0  0
 16 31  1  0  0  0
M  END
> <s_m_source_file>
../4urz_ligand.sdf

> <i_m_source_file_index>
1

> <s_epik_input>
W05IMl1jMVtjSF1bY0hdYyhbY0hdW2NIXTEpUyg9TykoPU8pTjJbQ0gyXVtDSDJdW0NIMl1bQ0gyXUMyPU8=

> <s_epik_cmdline>
J2VwaWtfYXBwJywgJy1pbWFlJywgJ2xpZ2FuZF9wcm8ubWFlJywgJy1vbWFlJywgJ2xpZ2FuZF9wcmVwLm1hZScsICctbXMnLCAnMScsICctcGgnLCAnNycsICctcGh0JywgJzAuNScsICctbnQn

> <r_lp_tautomer_probability>
1

> <r_epik_Ionization_Penalty>
  0.0000

> <r_epik_Ionization_Penalty_Charging>
  0.0000

> <r_epik_Ionization_Penalty_Neutral>
  0.0000

> <r_epik_State_Penalty>
 -0.0000

> <r_epik_Charging_Adjusted_Penalty>
0

> <i_epik_Tot_Q>
0

> <i_epik_Tot_abs_Q>
0

$$$$
