4us4_ligand
                    3D
 Schrodinger Suite 2020-3.
 27 28  0  0  1  0            999 V2000
  -14.0650  -16.4980   27.9150 N   0  3  0  0  0  0
  -14.5580  -16.1250   26.5950 C   0  0  2  0  0  0
  -13.9160  -14.8250   26.1260 C   0  0  0  0  0  0
  -14.1290  -14.3840   24.9970 O   0  0  0  0  0  0
  -16.0840  -15.9900   26.6070 C   0  0  0  0  0  0
  -16.7780  -17.1620   27.2340 C   0  0  0  0  0  0
  -16.9440  -18.4040   26.6910 C   0  0  0  0  0  0
  -17.3970  -17.2030   28.5250 C   0  0  0  0  0  0
  -17.6280  -19.2160   27.5650 N   0  3  0  0  0  0
  -17.9170  -18.5010   28.6980 C   0  0  0  0  0  0
  -17.5630  -16.2680   29.5510 C   0  0  0  0  0  0
  -18.5900  -18.8870   29.8550 C   0  0  0  0  0  0
  -18.2290  -16.6520   30.6980 C   0  0  0  0  0  0
  -18.7340  -17.9500   30.8420 C   0  0  0  0  0  0
  -13.1700  -14.1860   26.8690 O   0  5  0  0  0  0
  -12.9692  -16.5896   27.8847 H   0  0  0  0  0  0
  -14.5054  -17.4612   28.2122 H   0  0  0  0  0  0
  -14.3484  -15.7247   28.6442 H   0  0  0  0  0  0
  -14.2558  -16.9458   25.9280 H   0  0  0  0  0  0
  -16.3683  -15.0930   27.1767 H   0  0  0  0  0  0
  -16.4523  -15.9005   25.5744 H   0  0  0  0  0  0
  -16.5486  -18.6232   25.6882 H   0  0  0  0  0  0
  -17.1740  -15.2550   29.4475 H   0  0  0  0  0  0
  -18.9864  -19.8959   29.9697 H   0  0  0  0  0  0
  -18.3640  -15.9322   31.5053 H   0  0  0  0  0  0
  -19.2537  -18.2203   31.7612 H   0  0  0  0  0  0
  -17.8507  -20.2572   27.2888 H   0  0  0  0  0  0
  1  2  1  0  0  0
  1 16  1  0  0  0
  1 17  1  0  0  0
  1 18  1  0  0  0
  2  3  1  0  0  0
  2  5  1  0  0  0
  2 19  1  0  0  0
  3  4  2  0  0  0
  3 15  1  0  0  0
  5  6  1  0  0  0
  5 20  1  0  0  0
  5 21  1  0  0  0
  6  7  2  0  0  0
  6  8  1  0  0  0
  7  9  1  0  0  0
  7 22  1  0  0  0
  8 10  2  0  0  0
  8 11  1  0  0  0
  9 10  1  0  0  0
  9 27  1  0  0  0
 10 12  1  0  0  0
 11 13  2  0  0  0
 11 23  1  0  0  0
 12 14  2  0  0  0
 12 24  1  0  0  0
 13 14  1  0  0  0
 13 25  1  0  0  0
 14 26  1  0  0  0
M  CHG  3   1   1   9   1  15  -1
M  END
> <s_m_source_file>
../4us4_ligand.sdf

> <i_m_source_file_index>
1

> <s_epik_input>
Tz1DKFtPSF0pW0NAQEhdKFtOSDMrXSlbQ0gyXWMxW2NIXVtuSF1jKGMxMilbY0hdW2NIXVtjSF1bY0hdMg==

> <s_epik_cmdline>
J2VwaWtfYXBwJywgJy1pbWFlJywgJ2xpZ2FuZF9wcm8ubWFlJywgJy1vbWFlJywgJ2xpZ2FuZF9wcmVwLm1hZScsICctbXMnLCAnMScsICctcGgnLCAnNycsICctcGh0JywgJzAuNScsICctbnQn

> <r_lp_tautomer_probability>
1

> <r_epik_Ionization_Penalty>
  0.0030

> <r_epik_Ionization_Penalty_Charging>
  0.0030

> <r_epik_Ionization_Penalty_Neutral>
  0.0000

> <r_epik_State_Penalty>
 -0.0000

> <r_epik_Charging_Adjusted_Penalty>
0.00304110655313935

> <i_epik_Tot_Q>
1

> <i_epik_Tot_abs_Q>
3

$$$$
