4usi_ligand
                    3D
 Schrodinger Suite 2020-3.
 14 13  0  0  1  0            999 V2000
    4.6670   12.4300    1.9680 C   0  0  0  0  0  0
    5.7690   12.6910    2.4410 O   0  0  0  0  0  0
    3.5340   12.6790    2.6530 O   0  5  0  0  0  0
    4.6280   11.8570    0.7230 C   0  0  0  0  0  0
    5.7300   11.5820    0.1730 O   0  0  0  0  0  0
    3.2610   11.5240    0.1210 C   0  0  0  0  0  0
    3.3120   10.5840   -1.1200 C   0  0  0  0  0  0
    3.2880    9.0950   -0.7040 C   0  0  0  0  0  0
    3.4600    8.7140    0.4310 O   0  0  0  0  0  0
    2.9790    8.1560   -1.4840 O   0  5  0  0  0  0
    2.6400   11.0213    0.8771 H   0  0  0  0  0  0
    2.7664   12.4521   -0.2015 H   0  0  0  0  0  0
    2.4421   10.7797   -1.7641 H   0  0  0  0  0  0
    4.2366   10.7728   -1.6852 H   0  0  0  0  0  0
  1  2  2  0  0  0
  1  3  1  0  0  0
  1  4  1  0  0  0
  4  5  2  0  0  0
  4  6  1  0  0  0
  6  7  1  0  0  0
  6 11  1  0  0  0
  6 12  1  0  0  0
  7  8  1  0  0  0
  7 13  1  0  0  0
  7 14  1  0  0  0
  8  9  2  0  0  0
  8 10  1  0  0  0
M  CHG  2   3  -1  10  -1
M  END
> <s_m_source_file>
../4usi_ligand.sdf

> <i_m_source_file_index>
1

> <s_epik_input>
Tz1DKFtPSF0pQyg9TylbQ0gyXVtDSDJdQyg9TylbT0hd

> <s_epik_cmdline>
J2VwaWtfYXBwJywgJy1pbWFlJywgJ2xpZ2FuZF9wcm8ubWFlJywgJy1vbWFlJywgJ2xpZ2FuZF9wcmVwLm1hZScsICctbXMnLCAnMScsICctcGgnLCAnNycsICctcGh0JywgJzAuNScsICctbnQn

> <r_lp_tautomer_probability>
1

> <r_epik_Ionization_Penalty>
  0.0013

> <r_epik_Ionization_Penalty_Charging>
  0.0013

> <r_epik_Ionization_Penalty_Neutral>
  0.0000

> <r_epik_State_Penalty>
 -0.0000

> <r_epik_Charging_Adjusted_Penalty>
0.00129329390835398

> <i_epik_Tot_Q>
-2

> <i_epik_Tot_abs_Q>
2

$$$$
