4usw_ligand
                    3D
 Schrodinger Suite 2020-3.
 43 45  0  0  1  0            999 V2000
  -23.8530  -36.5320    0.6170 P   0  0  0  0  0  0
  -23.5980  -35.7560    1.8800 O   0  5  0  0  0  0
  -22.6710  -36.6300   -0.3000 O   0  0  0  0  0  0
  -24.5790  -37.8460    0.7280 O   0  5  0  0  0  0
  -24.6000  -34.1160   -0.6060 P   0  0  1  0  0  0
  -23.1750  -33.7390   -0.9560 O   0  5  0  0  0  0
  -25.5900  -33.8690   -1.7250 O   0  0  0  0  0  0
  -24.8930  -35.6310   -0.1860 O   0  0  0  0  0  0
  -24.8020  -31.7250    1.1590 P   0  0  1  0  0  0
  -25.6050  -30.8390    0.2230 O   0  0  0  0  0  0
  -25.1820  -31.6030    2.6260 O   0  5  0  0  0  0
  -24.9400  -33.3340    0.7890 O   0  0  0  0  0  0
  -23.2090  -31.4250    1.0200 O   0  0  0  0  0  0
  -22.2370  -32.2090    1.7310 C   0  0  0  0  0  0
  -21.5680  -31.3990    2.8350 C   0  0  1  0  0  0
  -20.6370  -32.1540    3.6360 O   0  0  0  0  0  0
  -20.7880  -30.2560    2.2190 C   0  0  1  0  0  0
  -21.4360  -29.0490    2.5620 O   0  0  0  0  0  0
  -19.4030  -30.2840    2.8210 C   0  0  1  0  0  0
  -19.0120  -28.9910    3.3150 O   0  0  0  0  0  0
  -19.4710  -31.3560    3.9130 C   0  0  2  0  0  0
  -18.1570  -32.0960    3.9430 N   0  0  0  0  0  0
  -16.9870  -31.4210    3.9750 C   0  0  0  0  0  0
  -15.9210  -32.2570    4.0010 N   0  0  0  0  0  0
  -16.3710  -33.5150    3.9760 C   0  0  0  0  0  0
  -15.7130  -34.8510    3.9900 C   0  0  0  0  0  0
  -14.3630  -35.0020    4.0410 N   0  0  0  0  0  0
  -16.5440  -35.9140    3.9680 N   0  0  0  0  0  0
  -17.8840  -35.7910    3.9310 C   0  0  0  0  0  0
  -18.5360  -34.6050    3.9140 N   0  0  0  0  0  0
  -17.8550  -33.4250    3.9410 C   0  0  0  0  0  0
  -22.7310  -33.0794    2.1875 H   0  0  0  0  0  0
  -21.4608  -32.5530    1.0316 H   0  0  0  0  0  0
  -22.3574  -31.0793    3.5312 H   0  0  0  0  0  0
  -20.7577  -30.2814    1.1197 H   0  0  0  0  0  0
  -22.4592  -28.8543    2.2083 H   0  0  0  0  0  0
  -18.6078  -30.4704    2.0842 H   0  0  0  0  0  0
  -18.9282  -28.1401    2.6229 H   0  0  0  0  0  0
  -19.6367  -30.9986    4.9400 H   0  0  0  0  0  0
  -16.9099  -30.3337    3.9794 H   0  0  0  0  0  0
  -13.7108  -34.1164    4.0579 H   0  0  0  0  0  0
  -13.9228  -36.0098    4.0654 H   0  0  0  0  0  0
  -18.4809  -36.7029    3.9137 H   0  0  0  0  0  0
  1  2  1  0  0  0
  1  3  2  0  0  0
  1  4  1  0  0  0
  1  8  1  0  0  0
  5  6  1  0  0  0
  5  7  2  0  0  0
  5  8  1  0  0  0
  5 12  1  0  0  0
  9 10  2  0  0  0
  9 11  1  0  0  0
  9 12  1  0  0  0
  9 13  1  0  0  0
 13 14  1  0  0  0
 14 15  1  0  0  0
 14 32  1  0  0  0
 14 33  1  0  0  0
 15 16  1  0  0  0
 15 17  1  0  0  0
 15 34  1  0  0  0
 16 21  1  0  0  0
 17 18  1  0  0  0
 17 19  1  0  0  0
 17 35  1  0  0  0
 18 36  1  0  0  0
 19 20  1  0  0  0
 19 21  1  0  0  0
 19 37  1  0  0  0
 20 38  1  0  0  0
 21 22  1  0  0  0
 21 39  1  0  0  0
 22 23  1  0  0  0
 22 31  1  0  0  0
 23 24  2  0  0  0
 23 40  1  0  0  0
 24 25  1  0  0  0
 25 26  2  0  0  0
 25 31  1  0  0  0
 26 27  1  0  0  0
 26 28  1  0  0  0
 27 41  1  0  0  0
 27 42  1  0  0  0
 28 29  2  0  0  0
 29 30  1  0  0  0
 29 43  1  0  0  0
 30 31  2  0  0  0
M  CHG  4   2  -1   4  -1   6  -1  11  -1
M  END
> <s_m_source_file>
../4usw_ligand.sdf

> <i_m_source_file_index>
1

> <s_epik_input>
W09IXVAoPU8pKFtPSF0pT1tQQF0oPU8pKFtPSF0pT1tQQEBdKD1PKShbT0hdKU9bQ0gyXVtDQEhdMU9bQ0BIXShbQ0BIXShbT0hdKVtDQEBIXTFbT0hdKW4oW2NIXW4yKWMoYzIzKW5bY0hdbmMzW05IMl0=

> <s_epik_cmdline>
J2VwaWtfYXBwJywgJy1pbWFlJywgJ2xpZ2FuZF9wcm8ubWFlJywgJy1vbWFlJywgJ2xpZ2FuZF9wcmVwLm1hZScsICctbXMnLCAnMScsICctcGgnLCAnNycsICctcGh0JywgJzAuNScsICctbnQn

> <r_lp_tautomer_probability>
0.999997216410988

> <r_epik_Ionization_Penalty>
  0.0818

> <r_epik_Ionization_Penalty_Charging>
  0.0813

> <r_epik_Ionization_Penalty_Neutral>
  0.0004

> <r_epik_State_Penalty>
  0.0708

> <r_epik_Charging_Adjusted_Penalty>
0.152157994418768

> <i_epik_Tot_Q>
-4

> <i_epik_Tot_abs_Q>
4

> <s_epik_Chemistry_Notes>
This compound contains an acetal/aminal-like group ( X-CH(R)-Y where X, Y are N, S, or O) that may be acid/base labile, releasing an aldehyde.

$$$$
