4utn_ligand
                    3D
 Schrodinger Suite 2020-3.
146147  0  0  1  0            999 V2000
   32.9030   26.3060   12.4040 C   0  0  0  0  0  0
   33.1120   27.4320   11.9510 O   0  0  0  0  0  0
   33.5860   25.9080   13.5520 C   0  0  0  0  0  0
   34.5620   24.9140   13.4860 C   0  0  0  0  0  0
   35.2540   24.5210   14.6190 C   0  0  0  0  0  0
   34.9290   25.1430   15.8160 C   0  0  0  0  0  0
   33.9510   26.1360   15.8920 C   0  0  0  0  0  0
   33.2770   26.5260   14.7530 C   0  0  0  0  0  0
   32.0570   25.3760   11.8760 N   0  0  0  0  0  0
   31.1600   25.5520   10.6990 C   0  0  0  0  0  0
   31.5580   24.5480    9.6430 C   0  0  0  0  0  0
   32.7250   24.1590    9.4950 O   0  0  0  0  0  0
   30.5370   24.1550    8.8870 N   0  0  0  0  0  0
   30.5960   23.0050    8.0030 C   0  0  2  0  0  0
   31.4590   23.3180    6.8030 C   0  0  0  0  0  0
   31.4020   24.3990    6.2540 O   0  0  0  0  0  0
   29.1890   22.5870    7.5130 C   0  0  0  0  0  0
   29.2700   21.3320    6.6440 C   0  0  0  0  0  0
   28.2750   22.3470    8.7010 C   0  0  0  0  0  0
   32.2470   22.3440    6.3900 N   0  0  0  0  0  0
   33.1730   22.5440    5.3080 C   0  0  2  0  0  0
   32.5180   22.0190    4.0480 C   0  0  0  0  0  0
   32.1960   20.8320    3.9520 O   0  0  0  0  0  0
   34.4740   21.7960    5.5900 C   0  0  0  0  0  0
   35.7290   22.4410    5.0070 C   0  0  0  0  0  0
   36.5180   23.1770    6.0770 C   0  0  0  0  0  0
   36.5780   21.3870    4.3030 C   0  0  0  0  0  0
   32.3440   21.2710    1.3780 C   0  0  0  0  0  0
   32.2950   22.9320    3.1050 N   0  0  0  0  0  0
   33.5490   21.1020    1.3360 O   0  0  0  0  0  0
   31.7590   22.6210    1.7790 C   0  0  1  0  0  0
   32.1150   23.8030    0.8280 C   0  0  0  0  0  0
   31.0810   23.8590   -1.5000 C   0  0  0  0  0  0
   31.8330   24.6310   -2.5830 C   0  0  0  0  0  0
   32.2780   23.4370   -0.6400 C   0  0  0  0  0  0
   29.9920   25.5380   -5.8190 C   0  0  0  0  0  0
   31.1720   26.4570   -6.2710 C   0  0  0  0  0  0
   31.1670   26.7570   -7.7610 C   0  0  0  0  0  0
   30.7200   24.6060   -4.8190 C   0  0  0  0  0  0
   31.0320   23.4560   -5.1320 O   0  0  0  0  0  0
   30.9970   25.1850   -3.6300 N   0  0  0  0  0  0
   31.6430   27.8610   -8.0760 O   0  0  0  0  0  0
   30.7180   25.9300   -8.5830 O   0  5  0  0  0  0
   31.4630   20.3050    1.1640 N   0  0  0  0  0  0
   31.8030   18.9670    0.6550 C   0  0  2  0  0  0
   32.6360   18.0850    1.6080 C   0  0  0  0  0  0
   33.2230   17.0550    1.2080 O   0  0  0  0  0  0
   32.3830   19.0600   -0.7610 C   0  0  0  0  0  0
   31.2640   18.9270   -1.7860 C   0  0  0  0  0  0
   31.7340   18.9790   -3.2140 C   0  0  0  0  0  0
   32.7140   18.2770   -3.5540 O   0  0  0  0  0  0
   31.1160   19.7360   -3.9990 O   0  5  0  0  0  0
   32.6030   18.4740    2.8840 N   0  0  0  0  0  0
   33.4040   17.8600    3.9260 C   0  0  2  0  0  0
   34.9340   17.9050    3.6760 C   0  0  0  0  0  0
   35.6600   17.1030    4.2590 O   0  0  0  0  0  0
   32.9620   16.4110    4.1150 C   0  0  0  0  0  0
   31.4520   16.1730    4.2590 C   0  0  0  0  0  0
   30.6670   16.9140    5.1600 C   0  0  0  0  0  0
   30.8240   15.1520    3.5320 C   0  0  0  0  0  0
   29.3050   16.6620    5.2900 C   0  0  0  0  0  0
   29.4740   14.8920    3.6690 C   0  0  0  0  0  0
   28.7240   15.6450    4.5380 C   0  0  0  0  0  0
   27.4000   15.3500    4.6400 O   0  0  0  0  0  0
   35.4190   18.8330    2.8390 N   0  0  0  0  0  0
   36.8350   18.9140    2.4540 C   0  0  0  0  0  0
   37.3360   17.9350    1.3930 C   0  0  0  0  0  0
   38.4980   18.0100    0.9990 O   0  0  0  0  0  0
   36.4850   17.0230    0.9190 N   0  0  0  0  0  0
   36.9030   16.0230   -0.0890 C   0  0  2  0  0  0
   37.2200   16.6780   -1.4370 C   0  0  0  0  0  0
   36.3190   16.9920   -2.2210 O   0  0  0  0  0  0
   35.8260   14.9250   -0.3010 C   0  0  0  0  0  0
   36.1990   13.9850   -1.4620 C   0  0  0  0  0  0
   35.6120   14.1460    0.9910 C   0  0  0  0  0  0
   38.4199   16.9001   -1.7510 O   0  5  0  0  0  0
   34.7830   24.4401   12.5296 H   0  0  0  0  0  0
   36.0250   23.7520   14.5724 H   0  0  0  0  0  0
   35.4534   24.8472   16.7246 H   0  0  0  0  0  0
   33.7201   26.6026   16.8496 H   0  0  0  0  0  0
   32.5161   27.3052   14.7971 H   0  0  0  0  0  0
   32.0787   24.4158   12.4122 H   0  0  0  0  0  0
   30.1168   25.3836   11.0046 H   0  0  0  0  0  0
   31.2666   26.5740   10.3063 H   0  0  0  0  0  0
   29.6141   24.7496    8.9550 H   0  0  0  0  0  0
   31.0531   22.2128    8.6140 H   0  0  0  0  0  0
   28.7578   23.3961    6.9052 H   0  0  0  0  0  0
   29.9349   21.5208    5.7883 H   0  0  0  0  0  0
   28.2653   21.0741    6.2778 H   0  0  0  0  0  0
   29.6681   20.4980    7.2406 H   0  0  0  0  0  0
   28.2267   23.2576    9.3163 H   0  0  0  0  0  0
   28.6694   21.5167    9.3052 H   0  0  0  0  0  0
   27.2666   22.0928    8.3424 H   0  0  0  0  0  0
   32.1869   21.3654    6.8887 H   0  0  0  0  0  0
   33.3779   23.6221    5.2319 H   0  0  0  0  0  0
   34.6303   21.7290    6.6768 H   0  0  0  0  0  0
   34.4141   20.7831    5.1651 H   0  0  0  0  0  0
   35.4292   23.1948    4.2641 H   0  0  0  0  0  0
   35.8721   23.9256    6.5591 H   0  0  0  0  0  0
   37.3808   23.6797    5.6157 H   0  0  0  0  0  0
   36.8722   22.4584    6.8308 H   0  0  0  0  0  0
   35.9720   20.8788    3.5385 H   0  0  0  0  0  0
   36.9328   20.6505    5.0390 H   0  0  0  0  0  0
   37.4414   21.8718    3.8239 H   0  0  0  0  0  0
   32.5384   23.9715    3.3699 H   0  0  0  0  0  0
   30.6643   22.5150    1.7983 H   0  0  0  0  0  0
   31.3194   24.5614    0.8720 H   0  0  0  0  0  0
   33.0681   24.2528    1.1430 H   0  0  0  0  0  0
   30.3713   24.5316   -0.9961 H   0  0  0  0  0  0
   30.5318   23.0239   -1.9593 H   0  0  0  0  0  0
   32.3685   25.4762   -2.1259 H   0  0  0  0  0  0
   32.5548   23.9628   -3.0755 H   0  0  0  0  0  0
   33.1717   23.9344   -1.0448 H   0  0  0  0  0  0
   32.3900   22.3469   -0.7359 H   0  0  0  0  0  0
   29.2050   26.1523   -5.3572 H   0  0  0  0  0  0
   29.5810   25.0122   -6.6934 H   0  0  0  0  0  0
   31.1118   27.4186   -5.7403 H   0  0  0  0  0  0
   32.1287   25.9677   -6.0358 H   0  0  0  0  0  0
   30.5204   26.1667   -3.4916 H   0  0  0  0  0  0
   30.4171   20.5567    1.3936 H   0  0  0  0  0  0
   30.8244   18.4663    0.6130 H   0  0  0  0  0  0
   32.8811   20.0322   -0.8901 H   0  0  0  0  0  0
   33.1130   18.2511   -0.9121 H   0  0  0  0  0  0
   30.7523   17.9632   -1.6473 H   0  0  0  0  0  0
   30.5436   19.7473   -1.6510 H   0  0  0  0  0  0
   31.9248   19.3047    3.1291 H   0  0  0  0  0  0
   33.1763   18.4866    4.8009 H   0  0  0  0  0  0
   33.2806   15.8144    3.2475 H   0  0  0  0  0  0
   33.4205   16.0039    5.0283 H   0  0  0  0  0  0
   31.1307   17.6945    5.7633 H   0  0  0  0  0  0
   31.4147   14.5490    2.8424 H   0  0  0  0  0  0
   28.6986   17.2554    5.9743 H   0  0  0  0  0  0
   29.0075   14.0943    3.0909 H   0  0  0  0  0  0
   26.7591   15.9264    5.3234 H   0  0  0  0  0  0
   34.6969   19.5579    2.4352 H   0  0  0  0  0  0
   37.0483   19.9145    2.0496 H   0  0  0  0  0  0
   37.4659   18.7332    3.3367 H   0  0  0  0  0  0
   35.4513   17.0259    1.2951 H   0  0  0  0  0  0
   37.8187   15.5900    0.3401 H   0  0  0  0  0  0
   34.8720   15.4043   -0.5657 H   0  0  0  0  0  0
   36.3467   14.5751   -2.3785 H   0  0  0  0  0  0
   35.3885   13.2584   -1.6203 H   0  0  0  0  0  0
   37.1283   13.4501   -1.2166 H   0  0  0  0  0  0
   35.3475   14.8430    1.7999 H   0  0  0  0  0  0
   36.5369   13.6122    1.2548 H   0  0  0  0  0  0
   34.7971   13.4205    0.8510 H   0  0  0  0  0  0
  1  2  2  0  0  0
  1  3  1  0  0  0
  1  9  1  0  0  0
  3  4  2  0  0  0
  3  8  1  0  0  0
  4  5  1  0  0  0
  4 77  1  0  0  0
  5  6  2  0  0  0
  5 78  1  0  0  0
  6  7  1  0  0  0
  6 79  1  0  0  0
  7  8  2  0  0  0
  7 80  1  0  0  0
  8 81  1  0  0  0
  9 10  1  0  0  0
  9 82  1  0  0  0
 10 11  1  0  0  0
 10 83  1  0  0  0
 10 84  1  0  0  0
 11 12  2  0  0  0
 11 13  1  0  0  0
 13 14  1  0  0  0
 13 85  1  0  0  0
 14 15  1  0  0  0
 14 17  1  0  0  0
 14 86  1  0  0  0
 15 16  2  0  0  0
 15 20  1  0  0  0
 17 18  1  0  0  0
 17 19  1  0  0  0
 17 87  1  0  0  0
 18 88  1  0  0  0
 18 89  1  0  0  0
 18 90  1  0  0  0
 19 91  1  0  0  0
 19 92  1  0  0  0
 19 93  1  0  0  0
 20 21  1  0  0  0
 20 94  1  0  0  0
 21 22  1  0  0  0
 21 24  1  0  0  0
 21 95  1  0  0  0
 22 23  2  0  0  0
 22 29  1  0  0  0
 24 25  1  0  0  0
 24 96  1  0  0  0
 24 97  1  0  0  0
 25 26  1  0  0  0
 25 27  1  0  0  0
 25 98  1  0  0  0
 26 99  1  0  0  0
 26100  1  0  0  0
 26101  1  0  0  0
 27102  1  0  0  0
 27103  1  0  0  0
 27104  1  0  0  0
 28 30  2  0  0  0
 28 31  1  0  0  0
 28 44  1  0  0  0
 29 31  1  0  0  0
 29105  1  0  0  0
 31 32  1  0  0  0
 31106  1  0  0  0
 32 35  1  0  0  0
 32107  1  0  0  0
 32108  1  0  0  0
 33 34  1  0  0  0
 33 35  1  0  0  0
 33109  1  0  0  0
 33110  1  0  0  0
 34 41  1  0  0  0
 34111  1  0  0  0
 34112  1  0  0  0
 35113  1  0  0  0
 35114  1  0  0  0
 36 37  1  0  0  0
 36 39  1  0  0  0
 36115  1  0  0  0
 36116  1  0  0  0
 37 38  1  0  0  0
 37117  1  0  0  0
 37118  1  0  0  0
 38 42  2  0  0  0
 38 43  1  0  0  0
 39 40  2  0  0  0
 39 41  1  0  0  0
 41119  1  0  0  0
 44 45  1  0  0  0
 44120  1  0  0  0
 45 46  1  0  0  0
 45 48  1  0  0  0
 45121  1  0  0  0
 46 47  2  0  0  0
 46 53  1  0  0  0
 48 49  1  0  0  0
 48122  1  0  0  0
 48123  1  0  0  0
 49 50  1  0  0  0
 49124  1  0  0  0
 49125  1  0  0  0
 50 51  2  0  0  0
 50 52  1  0  0  0
 53 54  1  0  0  0
 53126  1  0  0  0
 54 55  1  0  0  0
 54 57  1  0  0  0
 54127  1  0  0  0
 55 56  2  0  0  0
 55 65  1  0  0  0
 57 58  1  0  0  0
 57128  1  0  0  0
 57129  1  0  0  0
 58 59  2  0  0  0
 58 60  1  0  0  0
 59 61  1  0  0  0
 59130  1  0  0  0
 60 62  2  0  0  0
 60131  1  0  0  0
 61 63  2  0  0  0
 61132  1  0  0  0
 62 63  1  0  0  0
 62133  1  0  0  0
 63 64  1  0  0  0
 64134  1  0  0  0
 65 66  1  0  0  0
 65135  1  0  0  0
 66 67  1  0  0  0
 66136  1  0  0  0
 66137  1  0  0  0
 67 68  2  0  0  0
 67 69  1  0  0  0
 69 70  1  0  0  0
 69138  1  0  0  0
 70 71  1  0  0  0
 70 73  1  0  0  0
 70139  1  0  0  0
 71 72  2  0  0  0
 71 76  1  0  0  0
 73 74  1  0  0  0
 73 75  1  0  0  0
 73140  1  0  0  0
 74141  1  0  0  0
 74142  1  0  0  0
 74143  1  0  0  0
 75144  1  0  0  0
 75145  1  0  0  0
 75146  1  0  0  0
M  CHG  3  43  -1  52  -1  76  -1
M  END
> <s_m_source_file>
../4utn_ligand.sdf

> <i_m_source_file_index>
1

> <s_epik_input>
W2NIXTFbY0hdW2NIXVtjSF1bY0hdYzFDKD1PKVtOSF1bQ0gyXUMoPU8pW05IXVtDQEBIXShbQ0hdKFtDSDNdKVtDSDNdKUMoPU8pW05IXVtDQEBIXShbQ0gyXVtDSF0oW0NIM10pW0NIM10pQyg9TylbTkhdW0NAQEhdKFtDSDJdW0NIMl1bQ0gyXVtDSDJdW05IXUMoPU8pW0NIMl1bQ0gyXUMoPU8pW09IXSlDKD1PKVtOSF1bQ0BASF0oW0NIMl1bQ0gyXUMoPU8pW09IXSlDKD1PKVtOSF1bQ0BASF0oW0NIMl1jMltjSF1bY0hdYyhbT0hdKVtjSF1bY0hdMilDKD1PKVtOSF1bQ0gyXUMoPU8pW05IXVtDQEhdKEMoPU8pW09IXSlbQ0hdKFtDSDNdKVtDSDNd

> <s_epik_cmdline>
J2VwaWtfYXBwJywgJy1pbWFlJywgJ2xpZ2FuZF9wcm8ubWFlJywgJy1vbWFlJywgJ2xpZ2FuZF9wcmVwLm1hZScsICctbXMnLCAnMScsICctcGgnLCAnNycsICctcGh0JywgJzAuNScsICctbnQn

> <r_lp_tautomer_probability>
0.999999999997365

> <r_epik_Ionization_Penalty>
  0.0204

> <r_epik_Ionization_Penalty_Charging>
  0.0196

> <r_epik_Ionization_Penalty_Neutral>
  0.0009

> <r_epik_State_Penalty>
  0.0140

> <r_epik_Charging_Adjusted_Penalty>
0.0335640313092894

> <i_epik_Tot_Q>
-3

> <i_epik_Tot_abs_Q>
3

$$$$
