4utr_ligand
                    3D
 Schrodinger Suite 2020-3.
137138  0  0  1  0            999 V2000
   32.9800   25.9770   12.7470 C   0  0  0  0  0  0
   32.3870   27.0540   12.7670 O   0  0  0  0  0  0
   33.8940   25.6840   13.7690 C   0  0  0  0  0  0
   34.9480   24.7720   13.5920 C   0  0  0  0  0  0
   35.8210   24.5180   14.6440 C   0  0  0  0  0  0
   35.6240   25.1790   15.8640 C   0  0  0  0  0  0
   34.5730   26.0820   16.0490 C   0  0  0  0  0  0
   33.7070   26.3270   14.9970 C   0  0  0  0  0  0
   32.7570   25.0430   11.7880 N   0  0  0  0  0  0
   31.7390   25.2750   10.7210 C   0  0  0  0  0  0
   31.9770   24.1950    9.7050 C   0  0  0  0  0  0
   33.0910   23.6550    9.5690 O   0  0  0  0  0  0
   30.9090   23.8620    8.9910 N   0  0  0  0  0  0
   30.9710   22.7500    8.0620 C   0  0  2  0  0  0
   31.8180   23.1220    6.8440 C   0  0  0  0  0  0
   31.4890   24.0280    6.1110 O   0  0  0  0  0  0
   29.5760   22.2830    7.5910 C   0  0  0  0  0  0
   29.7270   21.0130    6.7520 C   0  0  0  0  0  0
   28.6340   22.0580    8.7720 C   0  0  0  0  0  0
   32.9270   22.4280    6.6570 N   0  0  0  0  0  0
   33.7130   22.5660    5.4500 C   0  0  2  0  0  0
   32.9120   22.1130    4.2540 C   0  0  0  0  0  0
   32.3640   21.0170    4.2270 O   0  0  0  0  0  0
   34.9890   21.7440    5.5270 C   0  0  0  0  0  0
   36.3030   22.5020    5.7130 C   0  0  0  0  0  0
   36.2030   23.7000    6.6470 C   0  0  0  0  0  0
   37.3540   21.5190    6.2100 C   0  0  0  0  0  0
   32.8420   22.9880    3.2680 N   0  0  0  0  0  0
   32.2660   22.6690    1.9690 C   0  0  2  0  0  0
   32.7270   21.2710    1.5380 C   0  0  0  0  0  0
   33.9130   21.0230    1.3600 O   0  0  0  0  0  0
   32.7890   23.7490    0.9890 C   0  0  0  0  0  0
   32.5930   23.3370   -0.4430 C   0  0  0  0  0  0
   31.2340   23.7880   -0.9620 C   0  0  0  0  0  0
   31.7920   24.6880   -2.0300 C   0  0  0  0  0  0
   30.8230   24.9690   -3.0270 N   0  3  0  0  0  0
   31.7810   20.3690    1.3610 N   0  0  0  0  0  0
   32.0830   19.0180    0.8750 C   0  0  2  0  0  0
   32.9960   18.2400    1.8220 C   0  0  0  0  0  0
   33.8140   17.4120    1.3970 O   0  0  0  0  0  0
   32.6850   19.0770   -0.5200 C   0  0  0  0  0  0
   31.6730   18.7770   -1.5850 C   0  0  0  0  0  0
   32.3480   18.5640   -2.9030 C   0  0  0  0  0  0
   33.1630   17.6090   -3.0240 O   0  5  0  0  0  0
   32.0690   19.3710   -3.8060 O   0  0  0  0  0  0
   32.8350   18.5320    3.1120 N   0  0  0  0  0  0
   33.6270   17.9350    4.1670 C   0  0  2  0  0  0
   35.1600   18.1490    4.0110 C   0  0  0  0  0  0
   35.9460   17.4510    4.6560 O   0  0  0  0  0  0
   33.2720   16.4530    4.2610 C   0  0  0  0  0  0
   31.7800   16.1640    4.4090 C   0  0  0  0  0  0
   31.0120   16.7910    5.3820 C   0  0  0  0  0  0
   31.1540   15.2180    3.6160 C   0  0  0  0  0  0
   29.6650   16.5030    5.5350 C   0  0  0  0  0  0
   29.8040   14.9130    3.7670 C   0  0  0  0  0  0
   29.0550   15.5650    4.7170 C   0  0  0  0  0  0
   27.7040   15.2480    4.8610 O   0  0  0  0  0  0
   35.5680   19.1380    3.2100 N   0  0  0  0  0  0
   36.9600   19.3210    2.8460 C   0  0  0  0  0  0
   37.5820   18.2600    1.9280 C   0  0  0  0  0  0
   38.7810   18.2980    1.6990 O   0  0  0  0  0  0
   36.7900   17.3260    1.3890 N   0  0  0  0  0  0
   37.3290   16.1530    0.6300 C   0  0  2  0  0  0
   38.2520   16.5530   -0.5240 C   0  0  0  0  0  0
   38.1360   17.6570   -1.0580 O   0  0  0  0  0  0
   36.1870   15.1860    0.1350 C   0  0  0  0  0  0
   36.0290   15.1560   -1.3940 C   0  0  0  0  0  0
   36.3910   13.7800    0.7060 C   0  0  0  0  0  0
   39.1340   15.7496   -0.9293 O   0  5  0  0  0  0
   35.0806   24.2665   12.6355 H   0  0  0  0  0  0
   36.6457   23.8158   14.5217 H   0  0  0  0  0  0
   36.3080   24.9840   16.6900 H   0  0  0  0  0  0
   34.4375   26.5852   17.0063 H   0  0  0  0  0  0
   32.8777   27.0225   15.1260 H   0  0  0  0  0  0
   33.3354   24.1074   11.8023 H   0  0  0  0  0  0
   30.7306   25.2056   11.1550 H   0  0  0  0  0  0
   31.8836   26.2756   10.2876 H   0  0  0  0  0  0
   29.9751   24.4318    9.1052 H   0  0  0  0  0  0
   31.4474   21.9558    8.6555 H   0  0  0  0  0  0
   29.1156   23.0666    6.9713 H   0  0  0  0  0  0
   30.4097   21.2077    5.9118 H   0  0  0  0  0  0
   28.7433   20.7115    6.3629 H   0  0  0  0  0  0
   30.1366   20.2066    7.3780 H   0  0  0  0  0  0
   28.5470   22.9875    9.3538 H   0  0  0  0  0  0
   29.0350   21.2598    9.4139 H   0  0  0  0  0  0
   27.6417   21.7647    8.3988 H   0  0  0  0  0  0
   33.2485   21.7324    7.4462 H   0  0  0  0  0  0
   33.9490   23.6383    5.3832 H   0  0  0  0  0  0
   34.9282   21.0516    6.3796 H   0  0  0  0  0  0
   35.1122   21.1701    4.5967 H   0  0  0  0  0  0
   36.5870   22.9268    4.7389 H   0  0  0  0  0  0
   35.4394   24.3962    6.2699 H   0  0  0  0  0  0
   37.1756   24.2119    6.6922 H   0  0  0  0  0  0
   35.9218   23.3575    7.6538 H   0  0  0  0  0  0
   37.4097   20.6627    5.5218 H   0  0  0  0  0  0
   37.0789   21.1649    7.2145 H   0  0  0  0  0  0
   38.3327   22.0192    6.2528 H   0  0  0  0  0  0
   33.2424   23.9944    3.4599 H   0  0  0  0  0  0
   31.1688   22.6683    2.0478 H   0  0  0  0  0  0
   32.2458   24.6906    1.1571 H   0  0  0  0  0  0
   33.8636   23.9101    1.1603 H   0  0  0  0  0  0
   33.3766   23.7927   -1.0662 H   0  0  0  0  0  0
   32.6535   22.2414   -0.5209 H   0  0  0  0  0  0
   30.6670   22.9133   -1.3134 H   0  0  0  0  0  0
   30.6785   24.2839   -0.1524 H   0  0  0  0  0  0
   32.1137   25.6378   -1.5779 H   0  0  0  0  0  0
   32.6536   24.1992   -2.5081 H   0  0  0  0  0  0
   31.2628   25.6277   -3.7904 H   0  0  0  0  0  0
   29.9574   25.4680   -2.5667 H   0  0  0  0  0  0
   30.4974   24.0293   -3.4970 H   0  0  0  0  0  0
   30.7427   20.6525    1.5883 H   0  0  0  0  0  0
   31.1078   18.5099    0.8445 H   0  0  0  0  0  0
   33.0867   20.0844   -0.7037 H   0  0  0  0  0  0
   33.4962   18.3384   -0.6009 H   0  0  0  0  0  0
   31.1172   17.8665   -1.3166 H   0  0  0  0  0  0
   30.9731   19.6209   -1.6739 H   0  0  0  0  0  0
   32.0542   19.2665    3.3589 H   0  0  0  0  0  0
   33.3146   18.4781    5.0711 H   0  0  0  0  0  0
   33.6074   15.9371    3.3492 H   0  0  0  0  0  0
   33.7703   16.0114    5.1366 H   0  0  0  0  0  0
   31.4786   17.5250    6.0390 H   0  0  0  0  0  0
   31.7333   14.6980    2.8530 H   0  0  0  0  0  0
   29.0834   17.0158    6.3011 H   0  0  0  0  0  0
   29.3414   14.1574    3.1320 H   0  0  0  0  0  0
   27.0957   15.7640    5.6184 H   0  0  0  0  0  0
   34.8032   19.8277    2.8234 H   0  0  0  0  0  0
   37.0777   20.2778    2.3163 H   0  0  0  0  0  0
   37.5791   19.3267    3.7552 H   0  0  0  0  0  0
   35.7043   17.4441    1.5206 H   0  0  0  0  0  0
   37.9622   15.6468    1.3735 H   0  0  0  0  0  0
   35.2251   15.5657    0.5099 H   0  0  0  0  0  0
   35.8848   16.1804   -1.7679 H   0  0  0  0  0  0
   35.1560   14.5421   -1.6604 H   0  0  0  0  0  0
   36.9332   14.7240   -1.8476 H   0  0  0  0  0  0
   36.5000   13.8404    1.7989 H   0  0  0  0  0  0
   37.2984   13.3357    0.2710 H   0  0  0  0  0  0
   35.5212   13.1539    0.4582 H   0  0  0  0  0  0
  1  2  2  0  0  0
  1  3  1  0  0  0
  1  9  1  0  0  0
  3  4  2  0  0  0
  3  8  1  0  0  0
  4  5  1  0  0  0
  4 70  1  0  0  0
  5  6  2  0  0  0
  5 71  1  0  0  0
  6  7  1  0  0  0
  6 72  1  0  0  0
  7  8  2  0  0  0
  7 73  1  0  0  0
  8 74  1  0  0  0
  9 10  1  0  0  0
  9 75  1  0  0  0
 10 11  1  0  0  0
 10 76  1  0  0  0
 10 77  1  0  0  0
 11 12  2  0  0  0
 11 13  1  0  0  0
 13 14  1  0  0  0
 13 78  1  0  0  0
 14 15  1  0  0  0
 14 17  1  0  0  0
 14 79  1  0  0  0
 15 16  2  0  0  0
 15 20  1  0  0  0
 17 18  1  0  0  0
 17 19  1  0  0  0
 17 80  1  0  0  0
 18 81  1  0  0  0
 18 82  1  0  0  0
 18 83  1  0  0  0
 19 84  1  0  0  0
 19 85  1  0  0  0
 19 86  1  0  0  0
 20 21  1  0  0  0
 20 87  1  0  0  0
 21 22  1  0  0  0
 21 24  1  0  0  0
 21 88  1  0  0  0
 22 23  2  0  0  0
 22 28  1  0  0  0
 24 25  1  0  0  0
 24 89  1  0  0  0
 24 90  1  0  0  0
 25 26  1  0  0  0
 25 27  1  0  0  0
 25 91  1  0  0  0
 26 92  1  0  0  0
 26 93  1  0  0  0
 26 94  1  0  0  0
 27 95  1  0  0  0
 27 96  1  0  0  0
 27 97  1  0  0  0
 28 29  1  0  0  0
 28 98  1  0  0  0
 29 30  1  0  0  0
 29 32  1  0  0  0
 29 99  1  0  0  0
 30 31  2  0  0  0
 30 37  1  0  0  0
 32 33  1  0  0  0
 32100  1  0  0  0
 32101  1  0  0  0
 33 34  1  0  0  0
 33102  1  0  0  0
 33103  1  0  0  0
 34 35  1  0  0  0
 34104  1  0  0  0
 34105  1  0  0  0
 35 36  1  0  0  0
 35106  1  0  0  0
 35107  1  0  0  0
 36108  1  0  0  0
 36109  1  0  0  0
 36110  1  0  0  0
 37 38  1  0  0  0
 37111  1  0  0  0
 38 39  1  0  0  0
 38 41  1  0  0  0
 38112  1  0  0  0
 39 40  2  0  0  0
 39 46  1  0  0  0
 41 42  1  0  0  0
 41113  1  0  0  0
 41114  1  0  0  0
 42 43  1  0  0  0
 42115  1  0  0  0
 42116  1  0  0  0
 43 44  1  0  0  0
 43 45  2  0  0  0
 46 47  1  0  0  0
 46117  1  0  0  0
 47 48  1  0  0  0
 47 50  1  0  0  0
 47118  1  0  0  0
 48 49  2  0  0  0
 48 58  1  0  0  0
 50 51  1  0  0  0
 50119  1  0  0  0
 50120  1  0  0  0
 51 52  2  0  0  0
 51 53  1  0  0  0
 52 54  1  0  0  0
 52121  1  0  0  0
 53 55  2  0  0  0
 53122  1  0  0  0
 54 56  2  0  0  0
 54123  1  0  0  0
 55 56  1  0  0  0
 55124  1  0  0  0
 56 57  1  0  0  0
 57125  1  0  0  0
 58 59  1  0  0  0
 58126  1  0  0  0
 59 60  1  0  0  0
 59127  1  0  0  0
 59128  1  0  0  0
 60 61  2  0  0  0
 60 62  1  0  0  0
 62 63  1  0  0  0
 62129  1  0  0  0
 63 64  1  0  0  0
 63 66  1  0  0  0
 63130  1  0  0  0
 64 65  2  0  0  0
 64 69  1  0  0  0
 66 67  1  0  0  0
 66 68  1  0  0  0
 66131  1  0  0  0
 67132  1  0  0  0
 67133  1  0  0  0
 67134  1  0  0  0
 68135  1  0  0  0
 68136  1  0  0  0
 68137  1  0  0  0
M  CHG  3  36   1  44  -1  69  -1
M  END
> <s_m_source_file>
../4utr_ligand.sdf

> <i_m_source_file_index>
1

> <s_epik_input>
W2NIXTFbY0hdW2NIXVtjSF1bY0hdYzFDKD1PKVtOSF1bQ0gyXUMoPU8pW05IXVtDQEBIXShbQ0hdKFtDSDNdKVtDSDNdKUMoPU8pW05IXVtDQEBIXShbQ0gyXVtDSF0oW0NIM10pW0NIM10pQyg9TylbTkhdW0NAQEhdKFtDSDJdW0NIMl1bQ0gyXVtDSDJdW05IMytdKUMoPU8pW05IXVtDQEBIXShbQ0gyXVtDSDJdQyg9TylbT0hdKUMoPU8pW05IXVtDQEBIXShbQ0gyXWMyW2NIXVtjSF1jKFtPSF0pW2NIXVtjSF0yKUMoPU8pW05IXVtDSDJdQyg9TylbTkhdW0NASF0oQyg9TylbT0hdKVtDSF0oW0NIM10pW0NIM10=

> <s_epik_cmdline>
J2VwaWtfYXBwJywgJy1pbWFlJywgJ2xpZ2FuZF9wcm8ubWFlJywgJy1vbWFlJywgJ2xpZ2FuZF9wcmVwLm1hZScsICctbXMnLCAnMScsICctcGgnLCAnNycsICctcGh0JywgJzAuNScsICctbnQn

> <r_lp_tautomer_probability>
1

> <r_epik_Ionization_Penalty>
  0.0032

> <r_epik_Ionization_Penalty_Charging>
  0.0024

> <r_epik_Ionization_Penalty_Neutral>
  0.0009

> <r_epik_State_Penalty>
 -0.0000

> <r_epik_Charging_Adjusted_Penalty>
0.00237574302823145

> <i_epik_Tot_Q>
-1

> <i_epik_Tot_abs_Q>
3

$$$$
