4utv_ligand
                    3D
 Schrodinger Suite 2020-3.
137138  0  0  1  0            999 V2000
   35.7580   25.6680   11.2650 C   0  0  0  0  0  0
   35.0890   26.6990   11.3980 O   0  0  0  0  0  0
   36.6480   25.3100   12.2680 C   0  0  0  0  0  0
   37.6900   24.4290   12.0090 C   0  0  0  0  0  0
   38.5220   24.0610   13.0460 C   0  0  0  0  0  0
   38.2950   24.5860   14.3150 C   0  0  0  0  0  0
   37.2470   25.4560   14.5680 C   0  0  0  0  0  0
   36.4140   25.8150   13.5360 C   0  0  0  0  0  0
   35.6010   24.7450   10.2590 N   0  0  0  0  0  0
   34.6090   24.9510    9.1630 C   0  0  0  0  0  0
   34.7680   23.8120    8.2040 C   0  0  0  0  0  0
   35.8210   23.1930    8.0870 O   0  0  0  0  0  0
   33.6690   23.5070    7.5320 N   0  0  0  0  0  0
   33.6200   22.4460    6.5590 C   0  0  2  0  0  0
   34.2950   22.8380    5.2600 C   0  0  0  0  0  0
   33.8890   23.8050    4.6210 O   0  0  0  0  0  0
   32.1810   22.1130    6.1890 C   0  0  0  0  0  0
   32.1670   20.8370    5.3570 C   0  0  0  0  0  0
   31.3170   21.9910    7.4390 C   0  0  0  0  0  0
   35.3280   22.0940    4.8890 N   0  0  0  0  0  0
   36.0080   22.2520    3.6070 C   0  0  2  0  0  0
   35.0810   21.7660    2.4960 C   0  0  0  0  0  0
   34.4060   20.7720    2.6920 O   0  0  0  0  0  0
   37.2780   21.3870    3.5960 C   0  0  0  0  0  0
   38.3930   21.8740    4.5160 C   0  0  0  0  0  0
   39.4300   20.7800    4.7100 C   0  0  0  0  0  0
   39.0410   23.1480    3.9870 C   0  0  0  0  0  0
   35.0620   22.4260    1.3320 N   0  0  0  0  0  0
   34.1930   21.9540    0.2460 C   0  0  2  0  0  0
   34.7960   20.6790   -0.2580 C   0  0  0  0  0  0
   35.9990   20.5290   -0.2620 O   0  0  0  0  0  0
   33.7730   22.9370   -0.8750 C   0  0  0  0  0  0
   34.9380   23.5440   -1.6760 C   0  0  0  0  0  0
   34.2010   24.3730   -2.7590 C   0  0  0  0  0  0
   34.4690   23.5910   -3.9910 C   0  0  0  0  0  0
   34.5660   24.3850   -5.2310 N   0  3  0  0  0  0
   33.9350   19.7460   -0.6500 N   0  0  0  0  0  0
   34.3350   18.3770   -1.0080 C   0  0  2  0  0  0
   35.0930   17.6670    0.1120 C   0  0  0  0  0  0
   35.7320   16.6600   -0.1330 O   0  0  0  0  0  0
   35.2260   18.3830   -2.2190 C   0  0  0  0  0  0
   34.7930   19.3750   -3.2600 C   0  0  0  0  0  0
   33.7890   18.7800   -4.2030 C   0  0  0  0  0  0
   33.0110   17.8910   -3.7390 O   0  5  0  0  0  0
   33.8210   19.2010   -5.3940 O   0  0  0  0  0  0
   35.0070   18.2030    1.3300 N   0  0  0  0  0  0
   35.6430   17.5970    2.4920 C   0  0  2  0  0  0
   37.1430   17.6530    2.3340 C   0  0  0  0  0  0
   37.8500   16.8620    2.9420 O   0  0  0  0  0  0
   35.2170   16.1380    2.6650 C   0  0  0  0  0  0
   33.7430   15.9340    2.9290 C   0  0  0  0  0  0
   33.0830   16.6430    3.9270 C   0  0  0  0  0  0
   33.0230   15.0190    2.1950 C   0  0  0  0  0  0
   31.7450   16.4380    4.1880 C   0  0  0  0  0  0
   31.6900   14.8000    2.4430 C   0  0  0  0  0  0
   31.0530   15.5170    3.4400 C   0  0  0  0  0  0
   29.7090   15.2940    3.6650 O   0  0  0  0  0  0
   37.6130   18.5790    1.5020 N   0  0  0  0  0  0
   39.0340   18.7470    1.2480 C   0  0  0  0  0  0
   39.5490   17.6980    0.2830 C   0  0  0  0  0  0
   40.7380   17.6400    0.0260 O   0  0  0  0  0  0
   38.6660   16.8590   -0.2540 N   0  0  0  0  0  0
   39.0990   15.8000   -1.1860 C   0  0  2  0  0  0
   38.9920   16.2070   -2.6660 C   0  0  0  0  0  0
   39.2890   17.3450   -3.0440 O   0  0  0  0  0  0
   38.2940   14.4930   -0.9840 C   0  0  0  0  0  0
   38.2620   13.6780   -2.2800 C   0  0  0  0  0  0
   38.8610   13.6850    0.1840 C   0  0  0  0  0  0
   38.5929   15.3614   -3.5106 O   0  5  0  0  0  0
   37.8475   24.0356   11.0048 H   0  0  0  0  0  0
   39.3460   23.3685   12.8740 H   0  0  0  0  0  0
   38.9598   24.3050   15.1318 H   0  0  0  0  0  0
   37.0856   25.8501   15.5714 H   0  0  0  0  0  0
   35.5773   26.4906   13.7136 H   0  0  0  0  0  0
   36.2253   23.8394   10.2727 H   0  0  0  0  0  0
   33.5933   24.9631    9.5852 H   0  0  0  0  0  0
   34.8094   25.9098    8.6625 H   0  0  0  0  0  0
   32.7683   24.1024    7.7424 H   0  0  0  0  0  0
   34.1443   21.6247    7.0694 H   0  0  0  0  0  0
   31.7521   22.9273    5.5865 H   0  0  0  0  0  0
   32.8017   20.9715    4.4687 H   0  0  0  0  0  0
   31.1366   20.6164    5.0414 H   0  0  0  0  0  0
   32.5526   20.0018    5.9601 H   0  0  0  0  0  0
   31.3577   22.9326    8.0062 H   0  0  0  0  0  0
   31.6929   21.1689    8.0657 H   0  0  0  0  0  0
   30.2770   21.7835    7.1470 H   0  0  0  0  0  0
   35.6683   21.3280    5.6014 H   0  0  0  0  0  0
   36.2465   23.3199    3.4938 H   0  0  0  0  0  0
   37.0280   20.3645    3.9154 H   0  0  0  0  0  0
   37.6955   21.3615    2.5786 H   0  0  0  0  0  0
   37.9490   22.1131    5.4936 H   0  0  0  0  0  0
   38.9388   19.8727    5.0916 H   0  0  0  0  0  0
   40.1884   21.1175    5.4317 H   0  0  0  0  0  0
   39.9133   20.5580    3.7471 H   0  0  0  0  0  0
   38.2717   23.9232    3.8552 H   0  0  0  0  0  0
   39.5219   22.9404    3.0197 H   0  0  0  0  0  0
   39.7970   23.4999    4.7043 H   0  0  0  0  0  0
   35.6913   23.3163    1.1854 H   0  0  0  0  0  0
   33.2252   21.7884    0.7419 H   0  0  0  0  0  0
   33.1307   22.4145   -1.5992 H   0  0  0  0  0  0
   33.2195   23.7798   -0.4353 H   0  0  0  0  0  0
   35.5569   24.1637   -1.0105 H   0  0  0  0  0  0
   35.5518   22.7357   -2.1001 H   0  0  0  0  0  0
   33.1307   24.4302   -2.5117 H   0  0  0  0  0  0
   34.6238   25.3879   -2.7948 H   0  0  0  0  0  0
   35.4250   23.0571   -3.8857 H   0  0  0  0  0  0
   33.6584   22.8641   -4.1475 H   0  0  0  0  0  0
   34.7651   23.7153   -6.0806 H   0  0  0  0  0  0
   35.3859   25.1123   -5.1375 H   0  0  0  0  0  0
   33.6193   24.9193   -5.3992 H   0  0  0  0  0  0
   32.8763   20.0405   -0.7000 H   0  0  0  0  0  0
   33.3809   17.8690   -1.2120 H   0  0  0  0  0  0
   36.2522   18.6406   -1.9179 H   0  0  0  0  0  0
   35.2196   17.3861   -2.6839 H   0  0  0  0  0  0
   34.3352   20.2461   -2.7684 H   0  0  0  0  0  0
   35.6675   19.7004   -3.8426 H   0  0  0  0  0  0
   34.4321   19.1342    1.4408 H   0  0  0  0  0  0
   35.3139   18.1959    3.3539 H   0  0  0  0  0  0
   35.4556   15.5755    1.7503 H   0  0  0  0  0  0
   35.7552   15.6975    3.5172 H   0  0  0  0  0  0
   33.6352   17.3760    4.5151 H   0  0  0  0  0  0
   33.5194   14.4583    1.4030 H   0  0  0  0  0  0
   31.2434   16.9988    4.9767 H   0  0  0  0  0  0
   31.1371   14.0654    1.8576 H   0  0  0  0  0  0
   29.1830   15.8533    4.4528 H   0  0  0  0  0  0
   36.8835   19.2304    0.9985 H   0  0  0  0  0  0
   39.2136   19.7411    0.8126 H   0  0  0  0  0  0
   39.5889   18.6551    2.1933 H   0  0  0  0  0  0
   37.6019   16.9625    0.0049 H   0  0  0  0  0  0
   40.1574   15.6749   -0.9137 H   0  0  0  0  0  0
   37.2529   14.7385   -0.7276 H   0  0  0  0  0  0
   37.8486   14.2953   -3.0912 H   0  0  0  0  0  0
   37.6308   12.7883   -2.1382 H   0  0  0  0  0  0
   39.2836   13.3649   -2.5416 H   0  0  0  0  0  0
   38.8657   14.3064    1.0916 H   0  0  0  0  0  0
   39.8889   13.3720   -0.0515 H   0  0  0  0  0  0
   38.2362   12.7954    0.3519 H   0  0  0  0  0  0
  1  2  2  0  0  0
  1  3  1  0  0  0
  1  9  1  0  0  0
  3  4  2  0  0  0
  3  8  1  0  0  0
  4  5  1  0  0  0
  4 70  1  0  0  0
  5  6  2  0  0  0
  5 71  1  0  0  0
  6  7  1  0  0  0
  6 72  1  0  0  0
  7  8  2  0  0  0
  7 73  1  0  0  0
  8 74  1  0  0  0
  9 10  1  0  0  0
  9 75  1  0  0  0
 10 11  1  0  0  0
 10 76  1  0  0  0
 10 77  1  0  0  0
 11 12  2  0  0  0
 11 13  1  0  0  0
 13 14  1  0  0  0
 13 78  1  0  0  0
 14 15  1  0  0  0
 14 17  1  0  0  0
 14 79  1  0  0  0
 15 16  2  0  0  0
 15 20  1  0  0  0
 17 18  1  0  0  0
 17 19  1  0  0  0
 17 80  1  0  0  0
 18 81  1  0  0  0
 18 82  1  0  0  0
 18 83  1  0  0  0
 19 84  1  0  0  0
 19 85  1  0  0  0
 19 86  1  0  0  0
 20 21  1  0  0  0
 20 87  1  0  0  0
 21 22  1  0  0  0
 21 24  1  0  0  0
 21 88  1  0  0  0
 22 23  2  0  0  0
 22 28  1  0  0  0
 24 25  1  0  0  0
 24 89  1  0  0  0
 24 90  1  0  0  0
 25 26  1  0  0  0
 25 27  1  0  0  0
 25 91  1  0  0  0
 26 92  1  0  0  0
 26 93  1  0  0  0
 26 94  1  0  0  0
 27 95  1  0  0  0
 27 96  1  0  0  0
 27 97  1  0  0  0
 28 29  1  0  0  0
 28 98  1  0  0  0
 29 30  1  0  0  0
 29 32  1  0  0  0
 29 99  1  0  0  0
 30 31  2  0  0  0
 30 37  1  0  0  0
 32 33  1  0  0  0
 32100  1  0  0  0
 32101  1  0  0  0
 33 34  1  0  0  0
 33102  1  0  0  0
 33103  1  0  0  0
 34 35  1  0  0  0
 34104  1  0  0  0
 34105  1  0  0  0
 35 36  1  0  0  0
 35106  1  0  0  0
 35107  1  0  0  0
 36108  1  0  0  0
 36109  1  0  0  0
 36110  1  0  0  0
 37 38  1  0  0  0
 37111  1  0  0  0
 38 39  1  0  0  0
 38 41  1  0  0  0
 38112  1  0  0  0
 39 40  2  0  0  0
 39 46  1  0  0  0
 41 42  1  0  0  0
 41113  1  0  0  0
 41114  1  0  0  0
 42 43  1  0  0  0
 42115  1  0  0  0
 42116  1  0  0  0
 43 44  1  0  0  0
 43 45  2  0  0  0
 46 47  1  0  0  0
 46117  1  0  0  0
 47 48  1  0  0  0
 47 50  1  0  0  0
 47118  1  0  0  0
 48 49  2  0  0  0
 48 58  1  0  0  0
 50 51  1  0  0  0
 50119  1  0  0  0
 50120  1  0  0  0
 51 52  2  0  0  0
 51 53  1  0  0  0
 52 54  1  0  0  0
 52121  1  0  0  0
 53 55  2  0  0  0
 53122  1  0  0  0
 54 56  2  0  0  0
 54123  1  0  0  0
 55 56  1  0  0  0
 55124  1  0  0  0
 56 57  1  0  0  0
 57125  1  0  0  0
 58 59  1  0  0  0
 58126  1  0  0  0
 59 60  1  0  0  0
 59127  1  0  0  0
 59128  1  0  0  0
 60 61  2  0  0  0
 60 62  1  0  0  0
 62 63  1  0  0  0
 62129  1  0  0  0
 63 64  1  0  0  0
 63 66  1  0  0  0
 63130  1  0  0  0
 64 65  2  0  0  0
 64 69  1  0  0  0
 66 67  1  0  0  0
 66 68  1  0  0  0
 66131  1  0  0  0
 67132  1  0  0  0
 67133  1  0  0  0
 67134  1  0  0  0
 68135  1  0  0  0
 68136  1  0  0  0
 68137  1  0  0  0
M  CHG  3  36   1  44  -1  69  -1
M  END
> <s_m_source_file>
../4utv_ligand.sdf

> <i_m_source_file_index>
1

> <s_epik_input>
W2NIXTFbY0hdW2NIXVtjSF1bY0hdYzFDKD1PKVtOSF1bQ0gyXUMoPU8pW05IXVtDQEBIXShbQ0hdKFtDSDNdKVtDSDNdKUMoPU8pW05IXVtDQEBIXShbQ0gyXVtDSF0oW0NIM10pW0NIM10pQyg9TylbTkhdW0NAQEhdKFtDSDJdW0NIMl1bQ0gyXVtDSDJdW05IMytdKUMoPU8pW05IXVtDQEBIXShbQ0gyXVtDSDJdQyg9TylbT0hdKUMoPU8pW05IXVtDQEBIXShbQ0gyXWMyW2NIXVtjSF1jKFtPSF0pW2NIXVtjSF0yKUMoPU8pW05IXVtDSDJdQyg9TylbTkhdW0NASF0oQyg9TylbT0hdKVtDSF0oW0NIM10pW0NIM10=

> <s_epik_cmdline>
J2VwaWtfYXBwJywgJy1pbWFlJywgJ2xpZ2FuZF9wcm8ubWFlJywgJy1vbWFlJywgJ2xpZ2FuZF9wcmVwLm1hZScsICctbXMnLCAnMScsICctcGgnLCAnNycsICctcGh0JywgJzAuNScsICctbnQn

> <r_lp_tautomer_probability>
1

> <r_epik_Ionization_Penalty>
  0.0032

> <r_epik_Ionization_Penalty_Charging>
  0.0024

> <r_epik_Ionization_Penalty_Neutral>
  0.0009

> <r_epik_State_Penalty>
 -0.0000

> <r_epik_Charging_Adjusted_Penalty>
0.00237574302823145

> <i_epik_Tot_Q>
-1

> <i_epik_Tot_abs_Q>
3

$$$$
