4utx_ligand
                    3D
 Schrodinger Suite 2020-3.
137138  0  0  1  0            999 V2000
  -32.9580  -26.0870   12.4620 C   0  0  0  0  0  0
  -32.6130  -27.2470   12.2790 O   0  0  0  0  0  0
  -33.8540  -25.7830   13.5000 C   0  0  0  0  0  0
  -34.9930  -24.9740   13.2880 C   0  0  0  0  0  0
  -35.8970  -24.7100   14.3080 C   0  0  0  0  0  0
  -35.6470  -25.2840   15.5470 C   0  0  0  0  0  0
  -34.5320  -26.1050   15.7640 C   0  0  0  0  0  0
  -33.6310  -26.3560   14.7430 C   0  0  0  0  0  0
  -32.5830  -25.1030   11.6290 N   0  0  0  0  0  0
  -31.6720  -25.3540   10.4720 C   0  0  0  0  0  0
  -31.9680  -24.2080    9.5530 C   0  0  0  0  0  0
  -33.0620  -23.6040    9.5560 O   0  0  0  0  0  0
  -30.9660  -23.8850    8.7650 N   0  0  0  0  0  0
  -31.0400  -22.7460    7.8820 C   0  0  2  0  0  0
  -31.8930  -23.0830    6.6360 C   0  0  0  0  0  0
  -31.5280  -23.9360    5.8190 O   0  0  0  0  0  0
  -29.6230  -22.3340    7.4510 C   0  0  0  0  0  0
  -29.6820  -21.1350    6.5160 C   0  0  0  0  0  0
  -28.7380  -22.0720    8.6670 C   0  0  0  0  0  0
  -33.0420  -22.4270    6.4950 N   0  0  0  0  0  0
  -33.7710  -22.4840    5.2280 C   0  0  2  0  0  0
  -32.8440  -21.9350    4.1380 C   0  0  0  0  0  0
  -32.0750  -21.0180    4.3880 O   0  0  0  0  0  0
  -35.0710  -21.6610    5.2720 C   0  0  0  0  0  0
  -36.2890  -22.2070    6.0400 C   0  0  0  0  0  0
  -37.5630  -21.5620    5.5060 C   0  0  0  0  0  0
  -36.4040  -23.7210    5.9480 C   0  0  0  0  0  0
  -32.9020  -22.5150    2.9410 N   0  0  0  0  0  0
  -32.0030  -22.1440    1.8680 C   0  0  2  0  0  0
  -32.5890  -20.8920    1.2170 C   0  0  0  0  0  0
  -33.8030  -20.7340    1.1090 O   0  0  0  0  0  0
  -31.6890  -23.3240    0.9750 C   0  0  0  0  0  0
  -32.5320  -23.3250   -0.2620 C   0  0  0  0  0  0
  -31.6880  -24.1610   -1.2420 C   0  0  0  0  0  0
  -32.4020  -23.9250   -2.5360 C   0  0  0  0  0  0
  -31.8070  -24.8530   -3.4940 N   0  3  0  0  0  0
  -31.6960  -19.9850    0.8440 N   0  0  0  0  0  0
  -32.0360  -18.5900    0.4870 C   0  0  2  0  0  0
  -32.8630  -17.8070    1.5460 C   0  0  0  0  0  0
  -33.4180  -16.7240    1.2820 O   0  0  0  0  0  0
  -32.5970  -18.5380   -0.9390 C   0  0  0  0  0  0
  -31.4420  -18.7040   -1.9190 C   0  0  0  0  0  0
  -31.8590  -18.9900   -3.3360 C   0  0  0  0  0  0
  -32.9290  -18.4730   -3.7310 O   0  0  0  0  0  0
  -31.1020  -19.7160   -4.0510 O   0  5  0  0  0  0
  -32.8310  -18.3450    2.7640 N   0  0  0  0  0  0
  -33.5020  -17.8040    3.9190 C   0  0  2  0  0  0
  -35.0070  -17.9680    3.8180 C   0  0  0  0  0  0
  -35.7550  -17.1200    4.3290 O   0  0  0  0  0  0
  -33.1060  -16.3400    4.1220 C   0  0  0  0  0  0
  -31.5970  -16.1140    4.3000 C   0  0  0  0  0  0
  -30.8890  -16.7840    5.2940 C   0  0  0  0  0  0
  -30.8990  -15.2030    3.5130 C   0  0  0  0  0  0
  -29.5340  -16.5720    5.4760 C   0  0  0  0  0  0
  -29.5550  -14.9780    3.6980 C   0  0  0  0  0  0
  -28.8710  -15.6720    4.6740 C   0  0  0  0  0  0
  -27.5140  -15.4890    4.8810 O   0  0  0  0  0  0
  -35.4530  -19.0580    3.1800 N   0  0  0  0  0  0
  -36.8810  -19.2720    2.8920 C   0  0  0  0  0  0
  -37.4270  -18.4110    1.7520 C   0  0  0  0  0  0
  -38.3880  -18.7940    1.1150 O   0  0  0  0  0  0
  -36.7720  -17.2920    1.4530 N   0  0  0  0  0  0
  -37.3680  -16.1400    0.7200 C   0  0  2  0  0  0
  -38.1780  -16.5440   -0.4970 C   0  0  0  0  0  0
  -37.5850  -16.9110   -1.5010 O   0  0  0  0  0  0
  -36.2570  -15.0910    0.3140 C   0  0  0  0  0  0
  -36.5270  -14.4080   -1.0350 C   0  0  0  0  0  0
  -36.0530  -14.0660    1.4390 C   0  0  0  0  0  0
  -39.4371  -16.5022   -0.4736 O   0  5  0  0  0  0
  -35.1659  -24.5471   12.3001 H   0  0  0  0  0  0
  -36.7688  -24.0769   14.1425 H   0  0  0  0  0  0
  -36.3343  -25.0916   16.3708 H   0  0  0  0  0  0
  -34.3726  -26.5502   16.7461 H   0  0  0  0  0  0
  -32.7625  -26.9922   14.9131 H   0  0  0  0  0  0
  -32.9661  -24.0893   11.8176 H   0  0  0  0  0  0
  -30.6287  -25.3570   10.8207 H   0  0  0  0  0  0
  -31.9110  -26.3288   10.0219 H   0  0  0  0  0  0
  -30.0573  -24.5044    8.7888 H   0  0  0  0  0  0
  -31.5165  -21.9514    8.4750 H   0  0  0  0  0  0
  -29.1582  -23.1589    6.8911 H   0  0  0  0  0  0
  -30.3289  -21.3706    5.6581 H   0  0  0  0  0  0
  -28.6691  -20.8993    6.1577 H   0  0  0  0  0  0
  -30.0907  -20.2684    7.0564 H   0  0  0  0  0  0
  -28.7265  -22.9637    9.3111 H   0  0  0  0  0  0
  -29.1357  -21.2163    9.2324 H   0  0  0  0  0  0
  -27.7141  -21.8472    8.3337 H   0  0  0  0  0  0
  -33.4434  -21.8406    7.3346 H   0  0  0  0  0  0
  -34.0340  -23.5396    5.0648 H   0  0  0  0  0  0
  -34.8716  -20.6853    5.7392 H   0  0  0  0  0  0
  -35.4430  -21.5081    4.2482 H   0  0  0  0  0  0
  -36.1585  -21.9605    7.1040 H   0  0  0  0  0  0
  -37.4762  -20.4675    5.5741 H   0  0  0  0  0  0
  -38.4229  -21.8995    6.1032 H   0  0  0  0  0  0
  -37.7090  -21.8536    4.4555 H   0  0  0  0  0  0
  -35.4833  -24.1828    6.3340 H   0  0  0  0  0  0
  -36.5490  -24.0145    4.8979 H   0  0  0  0  0  0
  -37.2629  -24.0604    6.5456 H   0  0  0  0  0  0
  -33.6595  -23.2959    2.7786 H   0  0  0  0  0  0
  -31.0099  -21.8904    2.2674 H   0  0  0  0  0  0
  -30.6322  -23.2839    0.6726 H   0  0  0  0  0  0
  -31.8784  -24.2590    1.5227 H   0  0  0  0  0  0
  -33.5071  -23.7834   -0.0408 H   0  0  0  0  0  0
  -32.6824  -22.2904   -0.6041 H   0  0  0  0  0  0
  -30.6529  -23.7888   -1.2442 H   0  0  0  0  0  0
  -31.6980  -25.2151   -0.9276 H   0  0  0  0  0  0
  -33.4760  -24.1225   -2.4035 H   0  0  0  0  0  0
  -32.2572  -22.8806   -2.8495 H   0  0  0  0  0  0
  -32.2916  -24.7293   -4.4737 H   0  0  0  0  0  0
  -31.9501  -25.8853   -3.1419 H   0  0  0  0  0  0
  -30.7313  -24.6434   -3.5879 H   0  0  0  0  0  0
  -30.6496  -20.3224    0.8084 H   0  0  0  0  0  0
  -31.0659  -18.0716    0.4963 H   0  0  0  0  0  0
  -33.3256  -19.3506   -1.0762 H   0  0  0  0  0  0
  -33.0925  -17.5697   -1.1030 H   0  0  0  0  0  0
  -30.8455  -17.7801   -1.9425 H   0  0  0  0  0  0
  -30.8066  -19.5427   -1.5982 H   0  0  0  0  0  0
  -32.2393  -19.2680    2.8538 H   0  0  0  0  0  0
  -33.1503  -18.4134    4.7645 H   0  0  0  0  0  0
  -33.4193  -15.7508    3.2476 H   0  0  0  0  0  0
  -33.5993  -15.9484    5.0238 H   0  0  0  0  0  0
  -31.4119  -17.4886    5.9408 H   0  0  0  0  0  0
  -31.4289  -14.6560    2.7332 H   0  0  0  0  0  0
  -28.9941  -17.1156    6.2513 H   0  0  0  0  0  0
  -29.0316  -14.2529    3.0748 H   0  0  0  0  0  0
  -26.9961  -16.0574    5.6676 H   0  0  0  0  0  0
  -34.7107  -19.8077    2.8685 H   0  0  0  0  0  0
  -37.0447  -20.3225    2.6097 H   0  0  0  0  0  0
  -37.4750  -19.0361    3.7873 H   0  0  0  0  0  0
  -35.7240  -17.2502    1.7844 H   0  0  0  0  0  0
  -38.0927  -15.7304    1.4390 H   0  0  0  0  0  0
  -35.3058  -15.6236    0.1669 H   0  0  0  0  0  0
  -36.6672  -15.1738   -1.8121 H   0  0  0  0  0  0
  -35.6719  -13.7688   -1.3000 H   0  0  0  0  0  0
  -37.4353  -13.7923   -0.9589 H   0  0  0  0  0  0
  -35.8629  -14.5934    2.3855 H   0  0  0  0  0  0
  -36.9567  -13.4469    1.5393 H   0  0  0  0  0  0
  -35.1932  -13.4235    1.1982 H   0  0  0  0  0  0
  1  2  2  0  0  0
  1  3  1  0  0  0
  1  9  1  0  0  0
  3  4  2  0  0  0
  3  8  1  0  0  0
  4  5  1  0  0  0
  4 70  1  0  0  0
  5  6  2  0  0  0
  5 71  1  0  0  0
  6  7  1  0  0  0
  6 72  1  0  0  0
  7  8  2  0  0  0
  7 73  1  0  0  0
  8 74  1  0  0  0
  9 10  1  0  0  0
  9 75  1  0  0  0
 10 11  1  0  0  0
 10 76  1  0  0  0
 10 77  1  0  0  0
 11 12  2  0  0  0
 11 13  1  0  0  0
 13 14  1  0  0  0
 13 78  1  0  0  0
 14 15  1  0  0  0
 14 17  1  0  0  0
 14 79  1  0  0  0
 15 16  2  0  0  0
 15 20  1  0  0  0
 17 18  1  0  0  0
 17 19  1  0  0  0
 17 80  1  0  0  0
 18 81  1  0  0  0
 18 82  1  0  0  0
 18 83  1  0  0  0
 19 84  1  0  0  0
 19 85  1  0  0  0
 19 86  1  0  0  0
 20 21  1  0  0  0
 20 87  1  0  0  0
 21 22  1  0  0  0
 21 24  1  0  0  0
 21 88  1  0  0  0
 22 23  2  0  0  0
 22 28  1  0  0  0
 24 25  1  0  0  0
 24 89  1  0  0  0
 24 90  1  0  0  0
 25 26  1  0  0  0
 25 27  1  0  0  0
 25 91  1  0  0  0
 26 92  1  0  0  0
 26 93  1  0  0  0
 26 94  1  0  0  0
 27 95  1  0  0  0
 27 96  1  0  0  0
 27 97  1  0  0  0
 28 29  1  0  0  0
 28 98  1  0  0  0
 29 30  1  0  0  0
 29 32  1  0  0  0
 29 99  1  0  0  0
 30 31  2  0  0  0
 30 37  1  0  0  0
 32 33  1  0  0  0
 32100  1  0  0  0
 32101  1  0  0  0
 33 34  1  0  0  0
 33102  1  0  0  0
 33103  1  0  0  0
 34 35  1  0  0  0
 34104  1  0  0  0
 34105  1  0  0  0
 35 36  1  0  0  0
 35106  1  0  0  0
 35107  1  0  0  0
 36108  1  0  0  0
 36109  1  0  0  0
 36110  1  0  0  0
 37 38  1  0  0  0
 37111  1  0  0  0
 38 39  1  0  0  0
 38 41  1  0  0  0
 38112  1  0  0  0
 39 40  2  0  0  0
 39 46  1  0  0  0
 41 42  1  0  0  0
 41113  1  0  0  0
 41114  1  0  0  0
 42 43  1  0  0  0
 42115  1  0  0  0
 42116  1  0  0  0
 43 44  2  0  0  0
 43 45  1  0  0  0
 46 47  1  0  0  0
 46117  1  0  0  0
 47 48  1  0  0  0
 47 50  1  0  0  0
 47118  1  0  0  0
 48 49  2  0  0  0
 48 58  1  0  0  0
 50 51  1  0  0  0
 50119  1  0  0  0
 50120  1  0  0  0
 51 52  2  0  0  0
 51 53  1  0  0  0
 52 54  1  0  0  0
 52121  1  0  0  0
 53 55  2  0  0  0
 53122  1  0  0  0
 54 56  2  0  0  0
 54123  1  0  0  0
 55 56  1  0  0  0
 55124  1  0  0  0
 56 57  1  0  0  0
 57125  1  0  0  0
 58 59  1  0  0  0
 58126  1  0  0  0
 59 60  1  0  0  0
 59127  1  0  0  0
 59128  1  0  0  0
 60 61  2  0  0  0
 60 62  1  0  0  0
 62 63  1  0  0  0
 62129  1  0  0  0
 63 64  1  0  0  0
 63 66  1  0  0  0
 63130  1  0  0  0
 64 65  2  0  0  0
 64 69  1  0  0  0
 66 67  1  0  0  0
 66 68  1  0  0  0
 66131  1  0  0  0
 67132  1  0  0  0
 67133  1  0  0  0
 67134  1  0  0  0
 68135  1  0  0  0
 68136  1  0  0  0
 68137  1  0  0  0
M  CHG  3  36   1  45  -1  69  -1
M  END
> <s_m_source_file>
../4utx_ligand.sdf

> <i_m_source_file_index>
1

> <s_epik_input>
W2NIXTFbY0hdW2NIXVtjSF1bY0hdYzFDKD1PKVtOSF1bQ0gyXUMoPU8pW05IXVtDQEBIXShbQ0hdKFtDSDNdKVtDSDNdKUMoPU8pW05IXVtDQEBIXShbQ0gyXVtDSF0oW0NIM10pW0NIM10pQyg9TylbTkhdW0NAQEhdKFtDSDJdW0NIMl1bQ0gyXVtDSDJdW05IMytdKUMoPU8pW05IXVtDQEBIXShbQ0gyXVtDSDJdQyg9TylbT0hdKUMoPU8pW05IXVtDQEBIXShbQ0gyXWMyW2NIXVtjSF1jKFtPSF0pW2NIXVtjSF0yKUMoPU8pW05IXVtDSDJdQyg9TylbTkhdW0NASF0oQyg9TylbT0hdKVtDSF0oW0NIM10pW0NIM10=

> <s_epik_cmdline>
J2VwaWtfYXBwJywgJy1pbWFlJywgJ2xpZ2FuZF9wcm8ubWFlJywgJy1vbWFlJywgJ2xpZ2FuZF9wcmVwLm1hZScsICctbXMnLCAnMScsICctcGgnLCAnNycsICctcGh0JywgJzAuNScsICctbnQn

> <r_lp_tautomer_probability>
1

> <r_epik_Ionization_Penalty>
  0.0032

> <r_epik_Ionization_Penalty_Charging>
  0.0024

> <r_epik_Ionization_Penalty_Neutral>
  0.0009

> <r_epik_State_Penalty>
 -0.0000

> <r_epik_Charging_Adjusted_Penalty>
0.00237574302823145

> <i_epik_Tot_Q>
-1

> <i_epik_Tot_abs_Q>
3

$$$$
