4uu5_ligand
                    3D
 Schrodinger Suite 2020-3.
242246  0  0  1  0            999 V2000
    3.2060  -34.5370  -14.4570 N   0  3  0  0  0  0
    3.9830  -33.3100  -14.3010 C   0  0  2  0  0  0
    5.1520  -33.5070  -13.3420 C   0  0  0  0  0  0
    6.2580  -33.0590  -13.6060 O   0  0  0  0  0  0
    3.1040  -32.1190  -13.8500 C   0  0  0  0  0  0
    2.2920  -31.4470  -14.9650 C   0  0  0  0  0  0
    1.8610  -29.6860  -14.7250 S   0  0  0  0  0  0
    3.2540  -29.1000  -13.7570 C   0  0  0  0  0  0
    4.9010  -34.2080  -12.2410 N   0  0  0  0  0  0
    5.9030  -34.4080  -11.1840 C   0  0  2  0  0  0
    7.2150  -35.0430  -11.6520 C   0  0  0  0  0  0
    8.0920  -35.3470  -10.8380 O   0  0  0  0  0  0
    5.3080  -35.2580  -10.0580 C   0  0  0  0  0  0
    4.5260  -36.4120  -10.5810 C   0  0  0  0  0  0
    3.1760  -36.4680  -10.7740 C   0  0  0  0  0  0
    5.0470  -37.6720  -11.0130 C   0  0  0  0  0  0
    2.8220  -37.6920  -11.2860 N   0  0  0  0  0  0
    3.9530  -38.4500  -11.4440 C   0  0  0  0  0  0
    6.3310  -38.2220  -11.0690 C   0  0  0  0  0  0
    4.1040  -39.7480  -11.9260 C   0  0  0  0  0  0
    6.4790  -39.5100  -11.5480 C   0  0  0  0  0  0
    5.3740  -40.2590  -11.9720 C   0  0  0  0  0  0
    7.3600  -35.2280  -12.9600 N   0  0  0  0  0  0
    8.5190  -35.9240  -13.4800 C   0  0  2  0  0  0
    9.2240  -35.2460  -14.6670 C   0  0  0  0  0  0
   10.4260  -35.3890  -14.8410 O   0  0  0  0  0  0
    8.1260  -37.3590  -13.7650 C   0  0  0  0  0  0
    9.2370  -38.3430  -13.4620 C   0  0  0  0  0  0
   10.3950  -37.9630  -13.2970 O   0  0  0  0  0  0
    8.8860  -39.6190  -13.3930 N   0  0  0  0  0  0
    8.4980  -34.4600  -15.4490 N   0  0  0  0  0  0
    9.1620  -33.6260  -16.4530 C   0  0  2  0  0  0
    9.7270  -32.2960  -15.9100 C   0  0  0  0  0  0
   10.6550  -31.7370  -16.4900 O   0  0  0  0  0  0
    8.2430  -33.3470  -17.6490 C   0  0  0  0  0  0
    6.9710  -32.5770  -17.3100 C   0  0  0  0  0  0
    6.1890  -32.2440  -18.5590 C   0  0  0  0  0  0
    6.0990  -33.3970  -16.3690 C   0  0  0  0  0  0
    9.1970  -31.8100  -14.7930 N   0  0  0  0  0  0
    9.5780  -30.5030  -14.3230 C   0  0  2  0  0  0
   11.0040  -30.5240  -13.7810 C   0  0  0  0  0  0
   11.4230  -31.4510  -13.0760 O   0  0  0  0  0  0
    8.6290  -30.0500  -13.2100 C   0  0  0  0  0  0
    7.1510  -29.9860  -13.6420 C   0  0  0  0  0  0
    6.8840  -28.9120  -15.0440 S   0  0  0  0  0  0
    6.9270  -27.3150  -14.3030 C   0  0  0  0  0  0
   11.7590  -29.4690  -14.0790 N   0  0  0  0  0  0
   13.1070  -29.3610  -13.5070 C   0  0  2  0  0  0
   13.0540  -29.3090  -11.9600 C   0  0  0  0  0  0
   12.1280  -28.7600  -11.3880 O   0  0  0  0  0  0
   13.5630  -28.0130  -14.0120 C   0  0  0  0  0  0
   12.8110  -27.8350  -15.3110 C   0  0  0  0  0  0
   11.4500  -28.3830  -15.0250 C   0  0  0  0  0  0
   14.0410  -29.8780  -11.2830 N   0  0  0  0  0  0
   14.0280  -29.8290   -9.8000 C   0  0  2  0  0  0
   14.4310  -28.4500   -9.2870 C   0  0  0  0  0  0
   14.9590  -27.6400  -10.0490 O   0  0  0  0  0  0
   15.0950  -30.8560   -9.4110 C   0  0  0  0  0  0
   16.0670  -30.7780  -10.5860 C   0  0  0  0  0  0
   15.1820  -30.6270  -11.8250 C   0  0  0  0  0  0
   14.2200  -28.1910   -7.9960 N   0  0  0  0  0  0
   14.5750  -26.8640   -7.4880 C   0  0  2  0  0  0
   16.0870  -26.7280   -7.4350 C   0  0  0  0  0  0
   16.8310  -27.6680   -7.1790 O   0  0  0  0  0  0
   14.0130  -26.8580   -6.0670 C   0  0  0  0  0  0
   12.9940  -27.8650   -6.0780 C   0  0  0  0  0  0
   13.4110  -28.9590   -7.0490 C   0  0  0  0  0  0
   16.5460  -25.5060   -7.6180 N   0  0  0  0  0  0
   17.9600  -25.1930   -7.3900 C   0  0  2  0  0  0
   18.2810  -25.1610   -5.8920 C   0  0  0  0  0  0
   17.4990  -24.6670   -5.1020 O   0  0  0  0  0  0
   18.2700  -23.8420   -7.9780 C   0  0  0  0  0  0
   19.4610  -25.6250   -5.5320 N   0  0  0  0  0  0
   19.9060  -25.5580   -4.1570 C   0  0  1  0  0  0
   21.2640  -26.2680   -4.0910 C   0  0  0  0  0  0
   21.8250  -26.4590   -2.7060 C   0  0  0  0  0  0
   21.1060  -27.8010   -1.7880 S   0  0  2  0  0  0
   19.8890  -28.3920   -2.4450 O   0  0  0  0  0  0
   20.8250  -26.8770   -0.3340 C   0  0  0  0  0  0
   20.0770  -24.0770   -3.7450 C   0  0  0  0  0  0
   20.6200  -23.2330   -4.4710 O   0  0  0  0  0  0
   19.6280  -23.7580   -2.5310 N   0  0  0  0  0  0
   19.6610  -22.3860   -1.9720 C   0  0  2  0  0  0
   20.5730  -22.4240   -0.7480 C   0  0  0  0  0  0
   20.4720  -23.3700    0.0710 O   0  0  0  0  0  0
   18.2400  -22.0370   -1.5070 C   0  0  0  0  0  0
   18.0930  -20.6770   -0.8500 C   0  0  0  0  0  0
   16.7080  -20.3970   -0.3660 C   0  0  0  0  0  0
   16.1080  -21.2410    0.3340 O   0  0  0  0  0  0
   16.2470  -19.2690   -0.6040 O   0  0  0  0  0  0
   21.4610  -21.4520   -0.5910 N   0  0  0  0  0  0
   22.2970  -21.3700    0.6100 C   0  0  2  0  0  0
   22.2270  -19.9400    1.1840 C   0  0  0  0  0  0
   22.1480  -18.9480    0.4500 O   0  0  0  0  0  0
   23.7740  -21.7050    0.3220 C   0  0  0  0  0  0
   24.0460  -23.1030   -0.1600 C   0  0  0  0  0  0
   23.5580  -24.2290    0.7300 C   0  0  0  0  0  0
   24.1430  -24.2340    2.0620 N   0  0  0  0  0  0
   25.3100  -24.8150    2.3640 C   0  0  0  0  0  0
   26.0280  -25.4600    1.4470 N   0  0  0  0  0  0
   25.7110  -24.7690    3.6080 N   0  0  0  0  0  0
   22.3270  -19.8600    2.5160 N   0  0  0  0  0  0
   22.2450  -18.5820    3.2590 C   0  0  2  0  0  0
   23.6100  -17.9270    3.3540 C   0  0  0  0  0  0
   24.5890  -18.5670    3.7810 O   0  0  0  0  0  0
   21.7170  -18.8570    4.6990 C   0  0  0  0  0  0
   21.6370  -17.6980    5.6730 C   0  0  0  0  0  0
   20.6370  -16.6850    5.1370 C   0  0  0  0  0  0
   21.2740  -18.2260    7.0320 C   0  0  0  0  0  0
   23.6240  -16.6260    3.0650 N   0  0  0  0  0  0
   24.7950  -15.7590    3.2830 C   0  0  2  0  0  0
   24.5110  -14.5500    4.1930 C   0  0  0  0  0  0
   23.2870  -14.2220    4.3320 O   0  0  0  0  0  0
   25.4410  -15.3350    1.9560 C   0  0  2  0  0  0
   24.5540  -14.3860    1.1260 C   0  0  0  0  0  0
   25.9100  -16.5350    1.1570 C   0  0  0  0  0  0
   25.2820  -13.7440   -0.0310 C   0  0  0  0  0  0
   25.5200  -13.9640    4.6950 O   0  0  0  0  0  0
    3.8701  -35.3533  -14.7774 H   0  0  0  0  0  0
    2.4238  -34.3818  -15.2147 H   0  0  0  0  0  0
    2.7390  -34.7999  -13.4964 H   0  0  0  0  0  0
    4.3754  -33.1223  -15.3113 H   0  0  0  0  0  0
    2.3784  -32.4628  -13.0981 H   0  0  0  0  0  0
    3.7423  -31.3370  -13.4128 H   0  0  0  0  0  0
    2.8582  -31.4889  -15.9071 H   0  0  0  0  0  0
    1.3341  -31.9733  -15.0892 H   0  0  0  0  0  0
    3.1227  -28.0305  -13.5358 H   0  0  0  0  0  0
    4.1835  -29.2452  -14.3270 H   0  0  0  0  0  0
    3.3095  -29.6652  -12.8149 H   0  0  0  0  0  0
    3.8975  -34.6466  -12.1377 H   0  0  0  0  0  0
    6.1309  -33.3803  -10.8649 H   0  0  0  0  0  0
    6.1192  -35.6513   -9.4277 H   0  0  0  0  0  0
    4.6362  -34.6379   -9.4463 H   0  0  0  0  0  0
    2.4799  -35.6586  -10.5537 H   0  0  0  0  0  0
    7.1973  -37.6471  -10.7417 H   0  0  0  0  0  0
    3.2454  -40.3341  -12.2537 H   0  0  0  0  0  0
    7.4745  -39.9512  -11.5967 H   0  0  0  0  0  0
    5.5281  -41.2709  -12.3468 H   0  0  0  0  0  0
    6.5916  -34.8480  -13.6493 H   0  0  0  0  0  0
    9.2493  -35.8714  -12.6591 H   0  0  0  0  0  0
    7.2581  -37.6312  -13.1464 H   0  0  0  0  0  0
    7.8654  -37.4635  -14.8286 H   0  0  0  0  0  0
    7.8366  -39.9099  -13.5480 H   0  0  0  0  0  0
    9.6441  -40.3873  -13.1807 H   0  0  0  0  0  0
    7.4031  -34.4316  -15.3474 H   0  0  0  0  0  0
   10.0060  -34.2686  -16.7440 H   0  0  0  0  0  0
    8.7857  -32.7504  -18.3970 H   0  0  0  0  0  0
    7.9272  -34.2998  -18.0989 H   0  0  0  0  0  0
    7.2579  -31.6328  -16.8240 H   0  0  0  0  0  0
    6.8189  -31.6516  -19.2389 H   0  0  0  0  0  0
    5.2950  -31.6632  -18.2879 H   0  0  0  0  0  0
    5.8838  -33.1748  -19.0595 H   0  0  0  0  0  0
    6.6683  -33.6395  -15.4595 H   0  0  0  0  0  0
    5.7938  -34.3277  -16.8696 H   0  0  0  0  0  0
    5.2050  -32.8162  -16.0980 H   0  0  0  0  0  0
    8.4666  -32.4067  -14.2269 H   0  0  0  0  0  0
    9.5065  -29.8510  -15.2060 H   0  0  0  0  0  0
    8.6926  -30.7521  -12.3656 H   0  0  0  0  0  0
    8.9146  -29.0430  -12.8719 H   0  0  0  0  0  0
    6.8064  -30.9929  -13.9203 H   0  0  0  0  0  0
    6.5414  -29.6073  -12.8084 H   0  0  0  0  0  0
    6.7719  -26.5479  -15.0759 H   0  0  0  0  0  0
    7.9046  -27.1596  -13.8232 H   0  0  0  0  0  0
    6.1314  -27.2400  -13.5471 H   0  0  0  0  0  0
   13.7301  -30.2129  -13.8169 H   0  0  0  0  0  0
   13.3050  -27.2387  -13.2745 H   0  0  0  0  0  0
   14.6525  -28.0273  -14.1627 H   0  0  0  0  0  0
   12.7793  -26.7671  -15.5729 H   0  0  0  0  0  0
   13.3213  -28.3934  -16.1096 H   0  0  0  0  0  0
   10.9551  -28.8009  -15.9140 H   0  0  0  0  0  0
   10.7820  -27.6548  -14.5418 H   0  0  0  0  0  0
   13.0218  -30.0346   -9.4058 H   0  0  0  0  0  0
   15.5543  -30.5634   -8.4552 H   0  0  0  0  0  0
   14.6291  -31.8469   -9.3058 H   0  0  0  0  0  0
   16.7320  -29.9117  -10.4548 H   0  0  0  0  0  0
   16.6678  -31.6986  -10.6267 H   0  0  0  0  0  0
   14.8313  -31.5885  -12.2280 H   0  0  0  0  0  0
   15.6554  -30.0435  -12.6284 H   0  0  0  0  0  0
   14.1760  -26.0694   -8.1357 H   0  0  0  0  0  0
   14.8162  -27.0959   -5.3541 H   0  0  0  0  0  0
   13.6031  -25.8630   -5.8390 H   0  0  0  0  0  0
   12.8803  -28.2826   -5.0667 H   0  0  0  0  0  0
   12.0413  -27.4191   -6.3998 H   0  0  0  0  0  0
   12.5664  -29.4225   -7.5799 H   0  0  0  0  0  0
   14.0303  -29.7435   -6.5896 H   0  0  0  0  0  0
   15.8538  -24.7164   -7.9459 H   0  0  0  0  0  0
   18.5377  -25.9824   -7.8931 H   0  0  0  0  0  0
   18.0441  -23.8501   -9.0545 H   0  0  0  0  0  0
   19.3354  -23.6128   -7.8286 H   0  0  0  0  0  0
   17.6569  -23.0761   -7.4804 H   0  0  0  0  0  0
   20.1116  -26.0695   -6.2996 H   0  0  0  0  0  0
   19.1481  -26.0502   -3.5298 H   0  0  0  0  0  0
   21.1749  -27.2716   -4.5324 H   0  0  0  0  0  0
   22.0099  -25.6857   -4.6519 H   0  0  0  0  0  0
   22.9039  -26.6629   -2.7723 H   0  0  0  0  0  0
   21.6600  -25.5464   -2.1145 H   0  0  0  0  0  0
   19.9943  -28.9859   -3.3649 H   0  0  0  0  0  0
   21.7835  -26.4989    0.0511 H   0  0  0  0  0  0
   20.3534  -27.5201    0.4237 H   0  0  0  0  0  0
   20.1610  -26.0298   -0.5606 H   0  0  0  0  0  0
   19.2150  -24.5850   -1.9348 H   0  0  0  0  0  0
   20.0241  -21.6752   -2.7290 H   0  0  0  0  0  0
   17.5595  -22.0433   -2.3712 H   0  0  0  0  0  0
   17.9027  -22.7800   -0.7693 H   0  0  0  0  0  0
   18.7647  -20.6150    0.0189 H   0  0  0  0  0  0
   18.3550  -19.8903   -1.5728 H   0  0  0  0  0  0
   15.0880  -21.0348    0.6904 H   0  0  0  0  0  0
   21.5634  -20.6976   -1.3850 H   0  0  0  0  0  0
   21.8725  -22.1231    1.2902 H   0  0  0  0  0  0
   24.1575  -21.0309   -0.4581 H   0  0  0  0  0  0
   24.3651  -21.5763    1.2407 H   0  0  0  0  0  0
   23.5592  -23.2561   -1.1345 H   0  0  0  0  0  0
   25.1311  -23.2501   -0.2650 H   0  0  0  0  0  0
   22.4682  -24.1500    0.8570 H   0  0  0  0  0  0
   23.8040  -25.1957    0.2664 H   0  0  0  0  0  0
   23.6205  -23.7393    2.8940 H   0  0  0  0  0  0
   25.6837  -25.4940    0.4028 H   0  0  0  0  0  0
   26.9655  -25.9590    1.7335 H   0  0  0  0  0  0
   25.1119  -24.2340    4.3596 H   0  0  0  0  0  0
   22.4770  -20.8040    3.0604 H   0  0  0  0  0  0
   21.5753  -17.9276    2.6818 H   0  0  0  0  0  0
   20.6909  -19.2497    4.6445 H   0  0  0  0  0  0
   22.3662  -19.5949    5.1929 H   0  0  0  0  0  0
   22.6056  -17.1892    5.7870 H   0  0  0  0  0  0
   20.9608  -16.3403    4.1438 H   0  0  0  0  0  0
   20.5812  -15.8268    5.8228 H   0  0  0  0  0  0
   19.6459  -17.1553    5.0568 H   0  0  0  0  0  0
   22.0347  -18.9501    7.3592 H   0  0  0  0  0  0
   20.2932  -18.7215    6.9828 H   0  0  0  0  0  0
   21.2284  -17.3929    7.7489 H   0  0  0  0  0  0
   22.6992  -16.2055    2.6431 H   0  0  0  0  0  0
   25.4890  -16.4161    3.8277 H   0  0  0  0  0  0
   23.0156  -13.3671    4.9688 H   0  0  0  0  0  0
   26.3443  -14.7620    2.2124 H   0  0  0  0  0  0
   23.7042  -14.9477    0.7110 H   0  0  0  0  0  0
   24.1792  -13.5771    1.7704 H   0  0  0  0  0  0
   26.5366  -17.1771    1.7935 H   0  0  0  0  0  0
   26.4962  -16.1928    0.2914 H   0  0  0  0  0  0
   25.0375  -17.1058    0.8064 H   0  0  0  0  0  0
   24.5925  -13.0832   -0.5768 H   0  0  0  0  0  0
   25.6543  -14.5259   -0.7092 H   0  0  0  0  0  0
   26.1294  -13.1553    0.3503 H   0  0  0  0  0  0
  1  2  1  0  0  0
  1119  1  0  0  0
  1120  1  0  0  0
  1121  1  0  0  0
  2  3  1  0  0  0
  2  5  1  0  0  0
  2122  1  0  0  0
  3  4  2  0  0  0
  3  9  1  0  0  0
  5  6  1  0  0  0
  5123  1  0  0  0
  5124  1  0  0  0
  6  7  1  0  0  0
  6125  1  0  0  0
  6126  1  0  0  0
  7  8  1  0  0  0
  8127  1  0  0  0
  8128  1  0  0  0
  8129  1  0  0  0
  9 10  1  0  0  0
  9130  1  0  0  0
 10 11  1  0  0  0
 10 13  1  0  0  0
 10131  1  0  0  0
 11 12  2  0  0  0
 11 23  1  0  0  0
 13 14  1  0  0  0
 13132  1  0  0  0
 13133  1  0  0  0
 14 15  2  0  0  0
 14 16  1  0  0  0
 15 17  1  0  0  0
 15134  1  0  0  0
 16 18  2  0  0  0
 16 19  1  0  0  0
 17 18  1  0  0  0
 18 20  1  0  0  0
 19 21  2  0  0  0
 19135  1  0  0  0
 20 22  2  0  0  0
 20136  1  0  0  0
 21 22  1  0  0  0
 21137  1  0  0  0
 22138  1  0  0  0
 23 24  1  0  0  0
 23139  1  0  0  0
 24 25  1  0  0  0
 24 27  1  0  0  0
 24140  1  0  0  0
 25 26  2  0  0  0
 25 31  1  0  0  0
 27 28  1  0  0  0
 27141  1  0  0  0
 27142  1  0  0  0
 28 29  2  0  0  0
 28 30  1  0  0  0
 30143  1  0  0  0
 30144  1  0  0  0
 31 32  1  0  0  0
 31145  1  0  0  0
 32 33  1  0  0  0
 32 35  1  0  0  0
 32146  1  0  0  0
 33 34  2  0  0  0
 33 39  1  0  0  0
 35 36  1  0  0  0
 35147  1  0  0  0
 35148  1  0  0  0
 36 37  1  0  0  0
 36 38  1  0  0  0
 36149  1  0  0  0
 37150  1  0  0  0
 37151  1  0  0  0
 37152  1  0  0  0
 38153  1  0  0  0
 38154  1  0  0  0
 38155  1  0  0  0
 39 40  1  0  0  0
 39156  1  0  0  0
 40 41  1  0  0  0
 40 43  1  0  0  0
 40157  1  0  0  0
 41 42  2  0  0  0
 41 47  1  0  0  0
 43 44  1  0  0  0
 43158  1  0  0  0
 43159  1  0  0  0
 44 45  1  0  0  0
 44160  1  0  0  0
 44161  1  0  0  0
 45 46  1  0  0  0
 46162  1  0  0  0
 46163  1  0  0  0
 46164  1  0  0  0
 47 48  1  0  0  0
 47 53  1  0  0  0
 48 49  1  0  0  0
 48 51  1  0  0  0
 48165  1  0  0  0
 49 50  2  0  0  0
 49 54  1  0  0  0
 51 52  1  0  0  0
 51166  1  0  0  0
 51167  1  0  0  0
 52 53  1  0  0  0
 52168  1  0  0  0
 52169  1  0  0  0
 53170  1  0  0  0
 53171  1  0  0  0
 54 55  1  0  0  0
 54 60  1  0  0  0
 55 56  1  0  0  0
 55 58  1  0  0  0
 55172  1  0  0  0
 56 57  2  0  0  0
 56 61  1  0  0  0
 58 59  1  0  0  0
 58173  1  0  0  0
 58174  1  0  0  0
 59 60  1  0  0  0
 59175  1  0  0  0
 59176  1  0  0  0
 60177  1  0  0  0
 60178  1  0  0  0
 61 62  1  0  0  0
 61 67  1  0  0  0
 62 63  1  0  0  0
 62 65  1  0  0  0
 62179  1  0  0  0
 63 64  2  0  0  0
 63 68  1  0  0  0
 65 66  1  0  0  0
 65180  1  0  0  0
 65181  1  0  0  0
 66 67  1  0  0  0
 66182  1  0  0  0
 66183  1  0  0  0
 67184  1  0  0  0
 67185  1  0  0  0
 68 69  1  0  0  0
 68186  1  0  0  0
 69 70  1  0  0  0
 69 72  1  0  0  0
 69187  1  0  0  0
 70 71  2  0  0  0
 70 73  1  0  0  0
 72188  1  0  0  0
 72189  1  0  0  0
 72190  1  0  0  0
 73 74  1  0  0  0
 73191  1  0  0  0
 74 75  1  0  0  0
 74 80  1  0  0  0
 74192  1  0  0  0
 75 76  1  0  0  0
 75193  1  0  0  0
 75194  1  0  0  0
 76 77  1  0  0  0
 76195  1  0  0  0
 76196  1  0  0  0
 77 78  1  0  0  0
 77 79  1  0  0  0
 78197  1  0  0  0
 79198  1  0  0  0
 79199  1  0  0  0
 79200  1  0  0  0
 80 81  2  0  0  0
 80 82  1  0  0  0
 82 83  1  0  0  0
 82201  1  0  0  0
 83 84  1  0  0  0
 83 86  1  0  0  0
 83202  1  0  0  0
 84 85  2  0  0  0
 84 91  1  0  0  0
 86 87  1  0  0  0
 86203  1  0  0  0
 86204  1  0  0  0
 87 88  1  0  0  0
 87205  1  0  0  0
 87206  1  0  0  0
 88 89  1  0  0  0
 88 90  2  0  0  0
 89207  1  0  0  0
 91 92  1  0  0  0
 91208  1  0  0  0
 92 93  1  0  0  0
 92 95  1  0  0  0
 92209  1  0  0  0
 93 94  2  0  0  0
 93102  1  0  0  0
 95 96  1  0  0  0
 95210  1  0  0  0
 95211  1  0  0  0
 96 97  1  0  0  0
 96212  1  0  0  0
 96213  1  0  0  0
 97 98  1  0  0  0
 97214  1  0  0  0
 97215  1  0  0  0
 98 99  1  0  0  0
 98216  1  0  0  0
 99100  1  0  0  0
 99101  2  0  0  0
100217  1  0  0  0
100218  1  0  0  0
101219  1  0  0  0
102103  1  0  0  0
102220  1  0  0  0
103104  1  0  0  0
103106  1  0  0  0
103221  1  0  0  0
104105  2  0  0  0
104110  1  0  0  0
106107  1  0  0  0
106222  1  0  0  0
106223  1  0  0  0
107108  1  0  0  0
107109  1  0  0  0
107224  1  0  0  0
108225  1  0  0  0
108226  1  0  0  0
108227  1  0  0  0
109228  1  0  0  0
109229  1  0  0  0
109230  1  0  0  0
110111  1  0  0  0
110231  1  0  0  0
111112  1  0  0  0
111114  1  0  0  0
111232  1  0  0  0
112113  1  0  0  0
112118  2  0  0  0
113233  1  0  0  0
114115  1  0  0  0
114116  1  0  0  0
114234  1  0  0  0
115117  1  0  0  0
115235  1  0  0  0
115236  1  0  0  0
116237  1  0  0  0
116238  1  0  0  0
116239  1  0  0  0
117240  1  0  0  0
117241  1  0  0  0
117242  1  0  0  0
M  CHG  1   1   1
M  END
> <s_m_source_file>
../4uu5_ligand.sdf

> <i_m_source_file_index>
1

> <s_epik_input>
W2NIXTFbY0hdW2NIXVtjSF1jKGMxMilbbkhdW2NIXWMyW0NIMl1bQ0BIXShbTkhdQyg9TylbQ0BASF0oW05IMytdKVtDSDJdW0NIMl1TW0NIM10pQyg9TylbTkhdW0NAQEhdKFtDSDJdQyg9TylbTkgyXSlDKD1PKVtOSF1bQ0BASF0oW0NIMl1bQ0hdKFtDSDNdKVtDSDNdKUMoPU8pW05IXVtDQEBIXShbQ0gyXVtDSDJdU1tDSDNdKUMoPU8pTjNbQ0BASF0oW0NIMl1bQ0gyXVtDSDJdMylDKD1PKU40W0NAQEhdKFtDSDJdW0NIMl1bQ0gyXTQpQyg9TylONVtDQEBIXShbQ0gyXVtDSDJdW0NIMl01KUMoPU8pW05IXVtDQEBIXShbQ0gzXSlDKD1PKVtOSF1bQ0BASF0oW0NIMl1bQ0gyXVtTQEhdKFtPSF0pW0NIM10pQyg9TylbTkhdW0NAQEhdKFtDSDJdW0NIMl1DKD1PKVtPSF0pQyg9TylbTkhdW0NAQEhdKFtDSDJdW0NIMl1bQ0gyXVtOSF0vQyhbTkgyXSk9TlxbSF0pQyg9TylbTkhdW0NAQEhdKFtDSDJdW0NIXShbQ0gzXSlbQ0gzXSlDKD1PKVtOSF1bQ0BIXShDKD1PKVtPSF0pW0NAQEhdKFtDSDNdKVtDSDJdW0NIM10=

> <s_epik_cmdline>
J2VwaWtfYXBwJywgJy1pbWFlJywgJ2xpZ2FuZF9wcm8ubWFlJywgJy1vbWFlJywgJ2xpZ2FuZF9wcmVwLm1hZScsICctbXMnLCAnMScsICctcGgnLCAnNycsICctcGh0JywgJzAuNScsICctbnQn

> <s_epik_pKa_notes>
Molecule size exceeds maximum supported for generating protonation states

> <s_epik_Chemistry_Notes>
This compound has an imine and may undergo hydrolysis.

$$$$
