4uu7_ligand
                    3D
 Schrodinger Suite 2020-3.
137138  0  0  1  0            999 V2000
  -33.3440  -26.3460   12.0550 C   0  0  0  0  0  0
  -33.7580  -27.2960   11.3780 O   0  0  0  0  0  0
  -33.9120  -26.0910   13.3010 C   0  0  0  0  0  0
  -34.8350  -25.0590   13.4250 C   0  0  0  0  0  0
  -35.4180  -24.7860   14.6470 C   0  0  0  0  0  0
  -35.0690  -25.5580   15.7470 C   0  0  0  0  0  0
  -34.1530  -26.5930   15.6320 C   0  0  0  0  0  0
  -33.5700  -26.8650   14.4050 C   0  0  0  0  0  0
  -32.4010  -25.4450   11.6660 N   0  0  0  0  0  0
  -31.6280  -25.5460   10.3820 C   0  0  0  0  0  0
  -31.8540  -24.2910    9.5610 C   0  0  0  0  0  0
  -32.9420  -23.7060    9.5390 O   0  0  0  0  0  0
  -30.7930  -23.8760    8.8800 N   0  0  0  0  0  0
  -30.8370  -22.7200    8.0010 C   0  0  2  0  0  0
  -31.6220  -23.0440    6.7330 C   0  0  0  0  0  0
  -31.4000  -24.0760    6.1120 O   0  0  0  0  0  0
  -29.4170  -22.3220    7.5770 C   0  0  0  0  0  0
  -29.4450  -21.0260    6.7910 C   0  0  0  0  0  0
  -28.5090  -22.2030    8.7890 C   0  0  0  0  0  0
  -32.5410  -22.1700    6.3380 N   0  0  0  0  0  0
  -33.2730  -22.3780    5.0900 C   0  0  2  0  0  0
  -32.4600  -21.9370    3.8760 C   0  0  0  0  0  0
  -31.9160  -20.8360    3.8550 O   0  0  0  0  0  0
  -34.6040  -21.6220    5.0980 C   0  0  0  0  0  0
  -35.7520  -22.3560    5.7820 C   0  0  0  0  0  0
  -37.0590  -22.1590    5.0220 C   0  0  0  0  0  0
  -35.4230  -23.8310    5.8820 C   0  0  0  0  0  0
  -32.3860  -22.8000    2.8660 N   0  0  0  0  0  0
  -31.8020  -22.4230    1.5980 C   0  0  2  0  0  0
  -32.3690  -21.0200    1.2710 C   0  0  0  0  0  0
  -33.5430  -20.7570    1.5260 O   0  0  0  0  0  0
  -32.2070  -23.4400    0.5320 C   0  0  0  0  0  0
  -31.2080  -23.2960   -0.5800 C   0  0  0  0  0  0
  -31.9330  -23.9220   -1.7650 C   0  0  0  0  0  0
  -31.1330  -23.4240   -2.9450 C   0  0  0  0  0  0
  -30.7870  -24.6010   -3.7320 N   0  3  0  0  0  0
  -31.5350  -20.1480    0.7010 N   0  0  0  0  0  0
  -31.8500  -18.7140    0.4850 C   0  0  2  0  0  0
  -32.7440  -18.0420    1.5690 C   0  0  0  0  0  0
  -33.4100  -17.0240    1.3090 O   0  0  0  0  0  0
  -32.3920  -18.4820   -0.9480 C   0  0  0  0  0  0
  -31.4220  -17.7050   -1.8530 C   0  0  0  0  0  0
  -31.4280  -18.1660   -3.3060 C   0  0  0  0  0  0
  -31.1390  -19.3600   -3.5580 O   0  0  0  0  0  0
  -31.6960  -17.3240   -4.1960 O   0  5  0  0  0  0
  -32.7010  -18.6000    2.7820 N   0  0  0  0  0  0
  -33.4610  -18.1170    3.9590 C   0  0  2  0  0  0
  -34.9880  -18.2550    3.8290 C   0  0  0  0  0  0
  -35.7260  -17.8530    4.7250 O   0  0  0  0  0  0
  -33.1220  -16.6610    4.2910 C   0  0  0  0  0  0
  -31.6390  -16.3280    4.4180 C   0  0  0  0  0  0
  -30.8320  -16.9370    5.3850 C   0  0  0  0  0  0
  -31.0520  -15.3780    3.5880 C   0  0  0  0  0  0
  -29.4840  -16.6230    5.4910 C   0  0  0  0  0  0
  -29.7130  -15.0590    3.6950 C   0  0  0  0  0  0
  -28.9310  -15.6770    4.6430 C   0  0  0  0  0  0
  -27.5920  -15.3320    4.7350 O   0  0  0  0  0  0
  -35.4730  -18.8120    2.7230 N   0  0  0  0  0  0
  -36.9000  -19.0150    2.5530 C   0  0  0  0  0  0
  -37.5780  -17.8700    1.8260 C   0  0  0  0  0  0
  -38.8100  -17.8540    1.7000 O   0  0  0  0  0  0
  -36.7910  -16.9030    1.3490 N   0  0  0  0  0  0
  -37.3360  -15.7580    0.5800 C   0  0  2  0  0  0
  -38.1810  -16.2100   -0.6230 C   0  0  0  0  0  0
  -39.3250  -15.7840   -0.7980 O   0  0  0  0  0  0
  -36.2040  -14.8510    0.0440 C   0  0  0  0  0  0
  -36.4780  -14.4340   -1.4030 C   0  0  0  0  0  0
  -35.9960  -13.6510    0.9570 C   0  0  0  0  0  0
  -37.6950  -17.0314   -1.4456 O   0  5  0  0  0  0
  -35.1002  -24.4617   12.5527 H   0  0  0  0  0  0
  -36.1413  -23.9766   14.7463 H   0  0  0  0  0  0
  -35.5219  -25.3474   16.7158 H   0  0  0  0  0  0
  -33.8923  -27.1912   16.5051 H   0  0  0  0  0  0
  -32.8503  -27.6776   14.3057 H   0  0  0  0  0  0
  -32.2179  -24.6062   12.3537 H   0  0  0  0  0  0
  -30.5563  -25.6512   10.6065 H   0  0  0  0  0  0
  -31.9717  -26.4238    9.8151 H   0  0  0  0  0  0
  -29.8567  -24.4410    8.9992 H   0  0  0  0  0  0
  -31.3303  -21.9340    8.5916 H   0  0  0  0  0  0
  -29.0020  -23.1036    6.9237 H   0  0  0  0  0  0
  -30.1083  -21.1392    5.9208 H   0  0  0  0  0  0
  -28.4284  -20.7831    6.4481 H   0  0  0  0  0  0
  -29.8186  -20.2153    7.4338 H   0  0  0  0  0  0
  -28.5068  -23.1548    9.3404 H   0  0  0  0  0  0
  -28.8765  -21.4001    9.4450 H   0  0  0  0  0  0
  -27.4863  -21.9679    8.4592 H   0  0  0  0  0  0
  -32.7497  -21.2850    6.9571 H   0  0  0  0  0  0
  -33.4386  -23.4650    5.0575 H   0  0  0  0  0  0
  -34.4793  -20.6656    5.6270 H   0  0  0  0  0  0
  -34.9227  -21.4296    4.0629 H   0  0  0  0  0  0
  -35.8801  -21.9461    6.7947 H   0  0  0  0  0  0
  -37.2866  -21.0848    4.9563 H   0  0  0  0  0  0
  -37.8730  -22.6745    5.5527 H   0  0  0  0  0  0
  -36.9603  -22.5756    4.0087 H   0  0  0  0  0  0
  -34.4790  -23.9596    6.4318 H   0  0  0  0  0  0
  -35.3192  -24.2528    4.8714 H   0  0  0  0  0  0
  -36.2319  -24.3517    6.4154 H   0  0  0  0  0  0
  -32.7797  -23.8170    3.0095 H   0  0  0  0  0  0
  -30.7056  -22.4293    1.6861 H   0  0  0  0  0  0
  -32.1795  -24.4522    0.9617 H   0  0  0  0  0  0
  -33.2258  -23.2179    0.1816 H   0  0  0  0  0  0
  -30.9821  -22.2305   -0.7343 H   0  0  0  0  0  0
  -30.2846  -23.8319   -0.3151 H   0  0  0  0  0  0
  -31.9130  -25.0177   -1.6698 H   0  0  0  0  0  0
  -32.9765  -23.5744   -1.7817 H   0  0  0  0  0  0
  -31.7438  -22.7225   -3.5322 H   0  0  0  0  0  0
  -30.2292  -22.9107   -2.5849 H   0  0  0  0  0  0
  -30.1996  -24.2951   -4.6103 H   0  0  0  0  0  0
  -31.7074  -25.1040   -4.0635 H   0  0  0  0  0  0
  -30.1929  -25.2922   -3.1161 H   0  0  0  0  0  0
  -30.5621  -20.5513    0.3835 H   0  0  0  0  0  0
  -30.8612  -18.2465    0.6023 H   0  0  0  0  0  0
  -32.5846  -19.4525   -1.4287 H   0  0  0  0  0  0
  -33.3277  -17.9058   -0.8973 H   0  0  0  0  0  0
  -31.6915  -16.6385   -1.8491 H   0  0  0  0  0  0
  -30.3949  -17.8250   -1.4780 H   0  0  0  0  0  0
  -32.0441  -19.4775    2.8738 H   0  0  0  0  0  0
  -33.1131  -18.7958    4.7516 H   0  0  0  0  0  0
  -33.5143  -16.0039    3.5009 H   0  0  0  0  0  0
  -33.5780  -16.3888    5.2543 H   0  0  0  0  0  0
  -31.2681  -17.6687    6.0651 H   0  0  0  0  0  0
  -31.6620  -14.8751    2.8376 H   0  0  0  0  0  0
  -28.8635  -17.1183    6.2378 H   0  0  0  0  0  0
  -29.2751  -14.3167    3.0276 H   0  0  0  0  0  0
  -26.9500  -15.8148    5.4865 H   0  0  0  0  0  0
  -34.7753  -19.1204    1.9305 H   0  0  0  0  0  0
  -37.0730  -19.9310    1.9691 H   0  0  0  0  0  0
  -37.3765  -19.1136    3.5395 H   0  0  0  0  0  0
  -35.7100  -16.9723    1.5404 H   0  0  0  0  0  0
  -37.9662  -15.2354    1.3147 H   0  0  0  0  0  0
  -35.2577  -15.4118    0.0424 H   0  0  0  0  0  0
  -36.6211  -15.3317   -2.0224 H   0  0  0  0  0  0
  -35.6238  -13.8565   -1.7861 H   0  0  0  0  0  0
  -37.3860  -13.8142   -1.4403 H   0  0  0  0  0  0
  -35.8031  -13.9995    1.9824 H   0  0  0  0  0  0
  -36.8984  -13.0220    0.9471 H   0  0  0  0  0  0
  -35.1362  -13.0643    0.6013 H   0  0  0  0  0  0
  1  2  2  0  0  0
  1  3  1  0  0  0
  1  9  1  0  0  0
  3  4  2  0  0  0
  3  8  1  0  0  0
  4  5  1  0  0  0
  4 70  1  0  0  0
  5  6  2  0  0  0
  5 71  1  0  0  0
  6  7  1  0  0  0
  6 72  1  0  0  0
  7  8  2  0  0  0
  7 73  1  0  0  0
  8 74  1  0  0  0
  9 10  1  0  0  0
  9 75  1  0  0  0
 10 11  1  0  0  0
 10 76  1  0  0  0
 10 77  1  0  0  0
 11 12  2  0  0  0
 11 13  1  0  0  0
 13 14  1  0  0  0
 13 78  1  0  0  0
 14 15  1  0  0  0
 14 17  1  0  0  0
 14 79  1  0  0  0
 15 16  2  0  0  0
 15 20  1  0  0  0
 17 18  1  0  0  0
 17 19  1  0  0  0
 17 80  1  0  0  0
 18 81  1  0  0  0
 18 82  1  0  0  0
 18 83  1  0  0  0
 19 84  1  0  0  0
 19 85  1  0  0  0
 19 86  1  0  0  0
 20 21  1  0  0  0
 20 87  1  0  0  0
 21 22  1  0  0  0
 21 24  1  0  0  0
 21 88  1  0  0  0
 22 23  2  0  0  0
 22 28  1  0  0  0
 24 25  1  0  0  0
 24 89  1  0  0  0
 24 90  1  0  0  0
 25 26  1  0  0  0
 25 27  1  0  0  0
 25 91  1  0  0  0
 26 92  1  0  0  0
 26 93  1  0  0  0
 26 94  1  0  0  0
 27 95  1  0  0  0
 27 96  1  0  0  0
 27 97  1  0  0  0
 28 29  1  0  0  0
 28 98  1  0  0  0
 29 30  1  0  0  0
 29 32  1  0  0  0
 29 99  1  0  0  0
 30 31  2  0  0  0
 30 37  1  0  0  0
 32 33  1  0  0  0
 32100  1  0  0  0
 32101  1  0  0  0
 33 34  1  0  0  0
 33102  1  0  0  0
 33103  1  0  0  0
 34 35  1  0  0  0
 34104  1  0  0  0
 34105  1  0  0  0
 35 36  1  0  0  0
 35106  1  0  0  0
 35107  1  0  0  0
 36108  1  0  0  0
 36109  1  0  0  0
 36110  1  0  0  0
 37 38  1  0  0  0
 37111  1  0  0  0
 38 39  1  0  0  0
 38 41  1  0  0  0
 38112  1  0  0  0
 39 40  2  0  0  0
 39 46  1  0  0  0
 41 42  1  0  0  0
 41113  1  0  0  0
 41114  1  0  0  0
 42 43  1  0  0  0
 42115  1  0  0  0
 42116  1  0  0  0
 43 44  2  0  0  0
 43 45  1  0  0  0
 46 47  1  0  0  0
 46117  1  0  0  0
 47 48  1  0  0  0
 47 50  1  0  0  0
 47118  1  0  0  0
 48 49  2  0  0  0
 48 58  1  0  0  0
 50 51  1  0  0  0
 50119  1  0  0  0
 50120  1  0  0  0
 51 52  2  0  0  0
 51 53  1  0  0  0
 52 54  1  0  0  0
 52121  1  0  0  0
 53 55  2  0  0  0
 53122  1  0  0  0
 54 56  2  0  0  0
 54123  1  0  0  0
 55 56  1  0  0  0
 55124  1  0  0  0
 56 57  1  0  0  0
 57125  1  0  0  0
 58 59  1  0  0  0
 58126  1  0  0  0
 59 60  1  0  0  0
 59127  1  0  0  0
 59128  1  0  0  0
 60 61  2  0  0  0
 60 62  1  0  0  0
 62 63  1  0  0  0
 62129  1  0  0  0
 63 64  1  0  0  0
 63 66  1  0  0  0
 63130  1  0  0  0
 64 65  2  0  0  0
 64 69  1  0  0  0
 66 67  1  0  0  0
 66 68  1  0  0  0
 66131  1  0  0  0
 67132  1  0  0  0
 67133  1  0  0  0
 67134  1  0  0  0
 68135  1  0  0  0
 68136  1  0  0  0
 68137  1  0  0  0
M  CHG  3  36   1  45  -1  69  -1
M  END
> <s_m_source_file>
../4uu7_ligand.sdf

> <i_m_source_file_index>
1

> <s_epik_input>
W2NIXTFbY0hdW2NIXVtjSF1bY0hdYzFDKD1PKVtOSF1bQ0gyXUMoPU8pW05IXVtDQEBIXShbQ0hdKFtDSDNdKVtDSDNdKUMoPU8pW05IXVtDQEBIXShbQ0gyXVtDSF0oW0NIM10pW0NIM10pQyg9TylbTkhdW0NAQEhdKFtDSDJdW0NIMl1bQ0gyXVtDSDJdW05IMytdKUMoPU8pW05IXVtDQEBIXShbQ0gyXVtDSDJdQyg9TylbT0hdKUMoPU8pW05IXVtDQEBIXShbQ0gyXWMyW2NIXVtjSF1jKFtPSF0pW2NIXVtjSF0yKUMoPU8pW05IXVtDSDJdQyg9TylbTkhdW0NASF0oQyg9TylbT0hdKVtDSF0oW0NIM10pW0NIM10=

> <s_epik_cmdline>
J2VwaWtfYXBwJywgJy1pbWFlJywgJ2xpZ2FuZF9wcm8ubWFlJywgJy1vbWFlJywgJ2xpZ2FuZF9wcmVwLm1hZScsICctbXMnLCAnMScsICctcGgnLCAnNycsICctcGh0JywgJzAuNScsICctbnQn

> <r_lp_tautomer_probability>
1

> <r_epik_Ionization_Penalty>
  0.0032

> <r_epik_Ionization_Penalty_Charging>
  0.0024

> <r_epik_Ionization_Penalty_Neutral>
  0.0009

> <r_epik_State_Penalty>
 -0.0000

> <r_epik_Charging_Adjusted_Penalty>
0.00237574302823145

> <i_epik_Tot_Q>
-1

> <i_epik_Tot_abs_Q>
3

$$$$
