4uu8_ligand
                    3D
 Schrodinger Suite 2020-3.
137138  0  0  1  0            999 V2000
  -32.6720  -26.1100   12.6500 C   0  0  0  0  0  0
  -32.1610  -27.2250   12.7580 O   0  0  0  0  0  0
  -33.6070  -25.7600   13.6440 C   0  0  0  0  0  0
  -34.6890  -24.9010   13.3750 C   0  0  0  0  0  0
  -35.6010  -24.5970   14.3580 C   0  0  0  0  0  0
  -35.4030  -25.1770   15.6060 C   0  0  0  0  0  0
  -34.3400  -26.0360   15.8940 C   0  0  0  0  0  0
  -33.4320  -26.3340   14.9060 C   0  0  0  0  0  0
  -32.4250  -25.2290   11.6020 N   0  0  0  0  0  0
  -31.4320  -25.4780   10.5130 C   0  0  0  0  0  0
  -31.6480  -24.3660    9.5360 C   0  0  0  0  0  0
  -32.6890  -23.7160    9.5390 O   0  0  0  0  0  0
  -30.6360  -24.0980    8.7200 N   0  0  0  0  0  0
  -30.6640  -22.9220    7.8640 C   0  0  2  0  0  0
  -31.4510  -23.1960    6.6030 C   0  0  0  0  0  0
  -31.0100  -23.9220    5.7350 O   0  0  0  0  0  0
  -29.2640  -22.4690    7.4570 C   0  0  0  0  0  0
  -29.3480  -21.2760    6.5160 C   0  0  0  0  0  0
  -28.4590  -22.0820    8.6750 C   0  0  0  0  0  0
  -32.6280  -22.6120    6.5060 N   0  0  0  0  0  0
  -33.3810  -22.6870    5.2760 C   0  0  2  0  0  0
  -32.5460  -22.1380    4.1140 C   0  0  0  0  0  0
  -32.0060  -21.0250    4.1880 O   0  0  0  0  0  0
  -34.7080  -21.9220    5.3810 C   0  0  0  0  0  0
  -35.9580  -22.7910    5.3040 C   0  0  0  0  0  0
  -36.0090  -23.8000    6.4320 C   0  0  0  0  0  0
  -37.2030  -21.9130    5.2880 C   0  0  0  0  0  0
  -32.4400  -22.9630    3.0670 N   0  0  0  0  0  0
  -31.8640  -22.6110    1.8020 C   0  0  2  0  0  0
  -32.3400  -21.2330    1.4230 C   0  0  0  0  0  0
  -33.4970  -20.9440    1.5400 O   0  0  0  0  0  0
  -32.3570  -23.5810    0.6970 C   0  0  0  0  0  0
  -31.3550  -23.4020   -0.4330 C   0  0  0  0  0  0
  -31.8180  -24.2600   -1.5590 C   0  0  0  0  0  0
  -30.6030  -24.2970   -2.4470 C   0  0  0  0  0  0
  -31.1400  -24.8750   -3.6630 N   0  3  0  0  0  0
  -31.4350  -20.3900    0.9540 N   0  0  0  0  0  0
  -31.7480  -19.0110    0.5740 C   0  0  2  0  0  0
  -32.5860  -18.2000    1.5920 C   0  0  0  0  0  0
  -33.2810  -17.2370    1.2540 O   0  0  0  0  0  0
  -32.3180  -18.9980   -0.8350 C   0  0  0  0  0  0
  -31.2000  -18.6900   -1.8270 C   0  0  0  0  0  0
  -31.5210  -19.1280   -3.2310 C   0  0  0  0  0  0
  -32.7060  -19.1110   -3.5820 O   0  0  0  0  0  0
  -30.5910  -19.5010   -3.9700 O   0  5  0  0  0  0
  -32.4020  -18.5760    2.8570 N   0  0  0  0  0  0
  -33.1770  -18.0980    3.9790 C   0  0  2  0  0  0
  -34.6820  -18.2240    3.7640 C   0  0  0  0  0  0
  -35.4130  -17.3670    4.2130 O   0  0  0  0  0  0
  -32.8250  -16.6520    4.2600 C   0  0  0  0  0  0
  -31.3350  -16.3370    4.4120 C   0  0  0  0  0  0
  -30.5510  -16.9830    5.3620 C   0  0  0  0  0  0
  -30.7330  -15.3580    3.6280 C   0  0  0  0  0  0
  -29.2070  -16.6740    5.4990 C   0  0  0  0  0  0
  -29.4020  -15.0400    3.7540 C   0  0  0  0  0  0
  -28.6260  -15.6980    4.6810 C   0  0  0  0  0  0
  -27.2600  -15.3680    4.8010 O   0  0  0  0  0  0
  -35.1600  -19.2770    3.0980 N   0  0  0  0  0  0
  -36.5910  -19.4490    2.8430 C   0  0  0  0  0  0
  -37.2520  -18.4270    1.9150 C   0  0  0  0  0  0
  -38.4690  -18.4810    1.7290 O   0  0  0  0  0  0
  -36.4930  -17.4910    1.3310 N   0  0  0  0  0  0
  -37.0680  -16.5040    0.3680 C   0  0  2  0  0  0
  -37.7050  -17.2320   -0.8160 C   0  0  0  0  0  0
  -37.1000  -18.1570   -1.3760 O   0  0  0  0  0  0
  -36.0060  -15.4770   -0.1590 C   0  0  0  0  0  0
  -36.1830  -15.1660   -1.6540 C   0  0  0  0  0  0
  -36.0220  -14.1870    0.6720 C   0  0  0  0  0  0
  -38.8475  -16.8906   -1.2231 O   0  5  0  0  0  0
  -34.8049  -24.4732   12.3792 H   0  0  0  0  0  0
  -36.4422  -23.9306   14.1673 H   0  0  0  0  0  0
  -36.1138  -24.9497   16.4004 H   0  0  0  0  0  0
  -34.2318  -26.4649   16.8902 H   0  0  0  0  0  0
  -32.5942  -27.0031   15.1025 H   0  0  0  0  0  0
  -33.0153  -24.3008   11.6064 H   0  0  0  0  0  0
  -30.4154  -25.4598   10.9326 H   0  0  0  0  0  0
  -31.6240  -26.4617   10.0596 H   0  0  0  0  0  0
  -29.7700  -24.7758    8.6952 H   0  0  0  0  0  0
  -31.1548  -22.1587    8.4857 H   0  0  0  0  0  0
  -28.7603  -23.3050    6.9496 H   0  0  0  0  0  0
  -29.9334  -21.5513    5.6263 H   0  0  0  0  0  0
  -28.3342  -20.9781    6.2102 H   0  0  0  0  0  0
  -29.8371  -20.4363    7.0313 H   0  0  0  0  0  0
  -28.3944  -22.9405    9.3597 H   0  0  0  0  0  0
  -28.9496  -21.2409    9.1867 H   0  0  0  0  0  0
  -27.4467  -21.7828    8.3656 H   0  0  0  0  0  0
  -33.0366  -22.0651    7.3685 H   0  0  0  0  0  0
  -33.5826  -23.7601    5.1423 H   0  0  0  0  0  0
  -34.7505  -21.3921    6.3440 H   0  0  0  0  0  0
  -34.7779  -21.1945    4.5589 H   0  0  0  0  0  0
  -35.9219  -23.3708    4.3699 H   0  0  0  0  0  0
  -35.0977  -24.4158    6.4146 H   0  0  0  0  0  0
  -36.8905  -24.4460    6.3065 H   0  0  0  0  0  0
  -36.0759  -23.2712    7.3942 H   0  0  0  0  0  0
  -37.1336  -21.1935    4.4589 H   0  0  0  0  0  0
  -37.2799  -21.3684    6.2406 H   0  0  0  0  0  0
  -38.0944  -22.5432    5.1529 H   0  0  0  0  0  0
  -32.8352  -23.9768    3.2283 H   0  0  0  0  0  0
  -30.7756  -22.6505    1.9563 H   0  0  0  0  0  0
  -32.3596  -24.6097    1.0866 H   0  0  0  0  0  0
  -33.3764  -23.3019    0.3921 H   0  0  0  0  0  0
  -31.3269  -22.3444   -0.7340 H   0  0  0  0  0  0
  -30.3568  -23.7124   -0.0905 H   0  0  0  0  0  0
  -32.0994  -25.2509   -1.1732 H   0  0  0  0  0  0
  -32.6895  -23.7933   -2.0413 H   0  0  0  0  0  0
  -30.2198  -23.2754   -2.5868 H   0  0  0  0  0  0
  -29.8258  -24.9193   -1.9793 H   0  0  0  0  0  0
  -30.3398  -24.9603   -4.4129 H   0  0  0  0  0  0
  -31.9408  -24.2297   -4.0532 H   0  0  0  0  0  0
  -31.5469  -25.8736   -3.4457 H   0  0  0  0  0  0
  -30.4068  -20.7680    0.8547 H   0  0  0  0  0  0
  -30.7669  -18.5137    0.5839 H   0  0  0  0  0  0
  -32.7531  -19.9821   -1.0636 H   0  0  0  0  0  0
  -33.0985  -18.2263   -0.9077 H   0  0  0  0  0  0
  -31.0180  -17.6054   -1.8492 H   0  0  0  0  0  0
  -30.2813  -19.2097   -1.5171 H   0  0  0  0  0  0
  -31.5927  -19.3035    3.0176 H   0  0  0  0  0  0
  -32.8805  -18.7584    4.8072 H   0  0  0  0  0  0
  -33.1864  -16.0198    3.4356 H   0  0  0  0  0  0
  -33.2998  -16.3351    5.2003 H   0  0  0  0  0  0
  -30.9984  -17.7404    6.0056 H   0  0  0  0  0  0
  -31.3356  -14.8269    2.8912 H   0  0  0  0  0  0
  -28.6022  -17.1911    6.2439 H   0  0  0  0  0  0
  -28.9621  -14.2689    3.1216 H   0  0  0  0  0  0
  -26.6313  -15.8880    5.5388 H   0  0  0  0  0  0
  -34.4427  -20.0288    2.7369 H   0  0  0  0  0  0
  -36.7652  -20.4307    2.3783 H   0  0  0  0  0  0
  -37.1424  -19.3900    3.7930 H   0  0  0  0  0  0
  -35.4211  -17.4601    1.5760 H   0  0  0  0  0  0
  -37.8395  -15.9732    0.9451 H   0  0  0  0  0  0
  -35.0106  -15.9323   -0.0503 H   0  0  0  0  0  0
  -36.1682  -16.1043   -2.2279 H   0  0  0  0  0  0
  -35.3629  -14.5159   -1.9929 H   0  0  0  0  0  0
  -37.1445  -14.6552   -1.8109 H   0  0  0  0  0  0
  -35.8940  -14.4347    1.7361 H   0  0  0  0  0  0
  -36.9826  -13.6705    0.5288 H   0  0  0  0  0  0
  -35.2009  -13.5312    0.3468 H   0  0  0  0  0  0
  1  2  2  0  0  0
  1  3  1  0  0  0
  1  9  1  0  0  0
  3  4  2  0  0  0
  3  8  1  0  0  0
  4  5  1  0  0  0
  4 70  1  0  0  0
  5  6  2  0  0  0
  5 71  1  0  0  0
  6  7  1  0  0  0
  6 72  1  0  0  0
  7  8  2  0  0  0
  7 73  1  0  0  0
  8 74  1  0  0  0
  9 10  1  0  0  0
  9 75  1  0  0  0
 10 11  1  0  0  0
 10 76  1  0  0  0
 10 77  1  0  0  0
 11 12  2  0  0  0
 11 13  1  0  0  0
 13 14  1  0  0  0
 13 78  1  0  0  0
 14 15  1  0  0  0
 14 17  1  0  0  0
 14 79  1  0  0  0
 15 16  2  0  0  0
 15 20  1  0  0  0
 17 18  1  0  0  0
 17 19  1  0  0  0
 17 80  1  0  0  0
 18 81  1  0  0  0
 18 82  1  0  0  0
 18 83  1  0  0  0
 19 84  1  0  0  0
 19 85  1  0  0  0
 19 86  1  0  0  0
 20 21  1  0  0  0
 20 87  1  0  0  0
 21 22  1  0  0  0
 21 24  1  0  0  0
 21 88  1  0  0  0
 22 23  2  0  0  0
 22 28  1  0  0  0
 24 25  1  0  0  0
 24 89  1  0  0  0
 24 90  1  0  0  0
 25 26  1  0  0  0
 25 27  1  0  0  0
 25 91  1  0  0  0
 26 92  1  0  0  0
 26 93  1  0  0  0
 26 94  1  0  0  0
 27 95  1  0  0  0
 27 96  1  0  0  0
 27 97  1  0  0  0
 28 29  1  0  0  0
 28 98  1  0  0  0
 29 30  1  0  0  0
 29 32  1  0  0  0
 29 99  1  0  0  0
 30 31  2  0  0  0
 30 37  1  0  0  0
 32 33  1  0  0  0
 32100  1  0  0  0
 32101  1  0  0  0
 33 34  1  0  0  0
 33102  1  0  0  0
 33103  1  0  0  0
 34 35  1  0  0  0
 34104  1  0  0  0
 34105  1  0  0  0
 35 36  1  0  0  0
 35106  1  0  0  0
 35107  1  0  0  0
 36108  1  0  0  0
 36109  1  0  0  0
 36110  1  0  0  0
 37 38  1  0  0  0
 37111  1  0  0  0
 38 39  1  0  0  0
 38 41  1  0  0  0
 38112  1  0  0  0
 39 40  2  0  0  0
 39 46  1  0  0  0
 41 42  1  0  0  0
 41113  1  0  0  0
 41114  1  0  0  0
 42 43  1  0  0  0
 42115  1  0  0  0
 42116  1  0  0  0
 43 44  2  0  0  0
 43 45  1  0  0  0
 46 47  1  0  0  0
 46117  1  0  0  0
 47 48  1  0  0  0
 47 50  1  0  0  0
 47118  1  0  0  0
 48 49  2  0  0  0
 48 58  1  0  0  0
 50 51  1  0  0  0
 50119  1  0  0  0
 50120  1  0  0  0
 51 52  2  0  0  0
 51 53  1  0  0  0
 52 54  1  0  0  0
 52121  1  0  0  0
 53 55  2  0  0  0
 53122  1  0  0  0
 54 56  2  0  0  0
 54123  1  0  0  0
 55 56  1  0  0  0
 55124  1  0  0  0
 56 57  1  0  0  0
 57125  1  0  0  0
 58 59  1  0  0  0
 58126  1  0  0  0
 59 60  1  0  0  0
 59127  1  0  0  0
 59128  1  0  0  0
 60 61  2  0  0  0
 60 62  1  0  0  0
 62 63  1  0  0  0
 62129  1  0  0  0
 63 64  1  0  0  0
 63 66  1  0  0  0
 63130  1  0  0  0
 64 65  2  0  0  0
 64 69  1  0  0  0
 66 67  1  0  0  0
 66 68  1  0  0  0
 66131  1  0  0  0
 67132  1  0  0  0
 67133  1  0  0  0
 67134  1  0  0  0
 68135  1  0  0  0
 68136  1  0  0  0
 68137  1  0  0  0
M  CHG  3  36   1  45  -1  69  -1
M  END
> <s_m_source_file>
../4uu8_ligand.sdf

> <i_m_source_file_index>
1

> <s_epik_input>
W2NIXTFbY0hdW2NIXVtjSF1bY0hdYzFDKD1PKVtOSF1bQ0gyXUMoPU8pW05IXVtDQEBIXShbQ0hdKFtDSDNdKVtDSDNdKUMoPU8pW05IXVtDQEBIXShbQ0gyXVtDSF0oW0NIM10pW0NIM10pQyg9TylbTkhdW0NAQEhdKFtDSDJdW0NIMl1bQ0gyXVtDSDJdW05IMytdKUMoPU8pW05IXVtDQEBIXShbQ0gyXVtDSDJdQyg9TylbT0hdKUMoPU8pW05IXVtDQEBIXShbQ0gyXWMyW2NIXVtjSF1jKFtPSF0pW2NIXVtjSF0yKUMoPU8pW05IXVtDSDJdQyg9TylbTkhdW0NASF0oQyg9TylbT0hdKVtDSF0oW0NIM10pW0NIM10=

> <s_epik_cmdline>
J2VwaWtfYXBwJywgJy1pbWFlJywgJ2xpZ2FuZF9wcm8ubWFlJywgJy1vbWFlJywgJ2xpZ2FuZF9wcmVwLm1hZScsICctbXMnLCAnMScsICctcGgnLCAnNycsICctcGh0JywgJzAuNScsICctbnQn

> <r_lp_tautomer_probability>
1

> <r_epik_Ionization_Penalty>
  0.0032

> <r_epik_Ionization_Penalty_Charging>
  0.0024

> <r_epik_Ionization_Penalty_Neutral>
  0.0009

> <r_epik_State_Penalty>
 -0.0000

> <r_epik_Charging_Adjusted_Penalty>
0.00237574302823145

> <i_epik_Tot_Q>
-1

> <i_epik_Tot_abs_Q>
3

$$$$
