4uua_ligand
                    3D
 Schrodinger Suite 2020-3.
137138  0  0  1  0            999 V2000
  -32.8870  -26.0550   12.4380 C   0  0  0  0  0  0
  -32.2050  -27.0710   12.4790 O   0  0  0  0  0  0
  -33.8050  -25.7910   13.4700 C   0  0  0  0  0  0
  -34.9720  -25.0190   13.2380 C   0  0  0  0  0  0
  -35.8450  -24.7630   14.2620 C   0  0  0  0  0  0
  -35.5180  -25.2900   15.5080 C   0  0  0  0  0  0
  -34.3720  -26.0570   15.7790 C   0  0  0  0  0  0
  -33.4980  -26.3070   14.7410 C   0  0  0  0  0  0
  -32.7380  -25.1300   11.4590 N   0  0  0  0  0  0
  -31.7470  -25.3500   10.3760 C   0  0  0  0  0  0
  -31.9840  -24.2220    9.4200 C   0  0  0  0  0  0
  -33.0730  -23.6170    9.3510 O   0  0  0  0  0  0
  -30.9120  -23.9200    8.7010 N   0  0  0  0  0  0
  -30.8460  -22.7570    7.8480 C   0  0  2  0  0  0
  -31.6190  -23.0270    6.5660 C   0  0  0  0  0  0
  -31.3050  -23.9430    5.8270 O   0  0  0  0  0  0
  -29.3890  -22.4470    7.4910 C   0  0  0  0  0  0
  -29.3120  -21.2700    6.5310 C   0  0  0  0  0  0
  -28.5700  -22.2060    8.7480 C   0  0  0  0  0  0
  -32.6440  -22.2390    6.3120 N   0  0  0  0  0  0
  -33.4210  -22.4070    5.1000 C   0  0  2  0  0  0
  -32.6190  -21.8060    3.9640 C   0  0  0  0  0  0
  -32.1270  -20.6850    4.0890 O   0  0  0  0  0  0
  -34.8040  -21.7250    5.2060 C   0  0  0  0  0  0
  -35.9990  -22.6850    5.3010 C   0  0  0  0  0  0
  -35.8960  -23.6660    6.4500 C   0  0  0  0  0  0
  -37.2970  -21.9090    5.4120 C   0  0  0  0  0  0
  -32.5010  -22.5570    2.8630 N   0  0  0  0  0  0
  -31.7680  -22.1060    1.6880 C   0  0  2  0  0  0
  -32.4910  -20.8610    1.0970 C   0  0  0  0  0  0
  -33.6980  -20.7710    1.1110 O   0  0  0  0  0  0
  -31.4460  -23.2900    0.7580 C   0  0  0  0  0  0
  -32.1020  -23.1460   -0.5990 C   0  0  0  0  0  0
  -31.3260  -24.1010   -1.5170 C   0  0  0  0  0  0
  -31.9220  -23.8480   -2.8960 C   0  0  0  0  0  0
  -31.5040  -25.0000   -3.6950 N   0  3  0  0  0  0
  -31.7130  -19.8910    0.6390 N   0  0  0  0  0  0
  -32.2010  -18.5630    0.2390 C   0  0  2  0  0  0
  -32.9430  -17.8000    1.3540 C   0  0  0  0  0  0
  -33.4990  -16.7130    1.1210 O   0  0  0  0  0  0
  -33.0570  -18.6410   -1.0320 C   0  0  0  0  0  0
  -32.3670  -19.2940   -2.2330 C   0  0  0  0  0  0
  -31.3310  -18.4290   -2.9440 C   0  0  0  0  0  0
  -31.0350  -17.2830   -2.5230 O   0  5  0  0  0  0
  -30.8080  -18.9300   -3.9640 O   0  0  0  0  0  0
  -32.8700  -18.3460    2.5690 N   0  0  0  0  0  0
  -33.6330  -17.8800    3.7320 C   0  0  2  0  0  0
  -35.1650  -18.1020    3.5920 C   0  0  0  0  0  0
  -35.9550  -17.4020    4.2250 O   0  0  0  0  0  0
  -33.2920  -16.4100    4.0530 C   0  0  0  0  0  0
  -31.8120  -16.1380    4.2170 C   0  0  0  0  0  0
  -31.0550  -16.8710    5.1450 C   0  0  0  0  0  0
  -31.1570  -15.1610    3.4570 C   0  0  0  0  0  0
  -29.6870  -16.6400    5.3060 C   0  0  0  0  0  0
  -29.7920  -14.9140    3.6120 C   0  0  0  0  0  0
  -29.0640  -15.6580    4.5400 C   0  0  0  0  0  0
  -27.7140  -15.4700    4.7390 O   0  0  0  0  0  0
  -35.5760  -19.0970    2.8040 N   0  0  0  0  0  0
  -37.0010  -19.3730    2.5590 C   0  0  0  0  0  0
  -37.7040  -18.5120    1.5090 C   0  0  0  0  0  0
  -38.8160  -18.8400    1.1050 O   0  0  0  0  0  0
  -37.0540  -17.4310    1.0570 N   0  0  0  0  0  0
  -37.6720  -16.4240    0.1740 C   0  0  2  0  0  0
  -37.8710  -16.9720   -1.2270 C   0  0  0  0  0  0
  -36.9160  -17.0050   -2.0140 O   0  0  0  0  0  0
  -36.7850  -15.1600    0.0250 C   0  0  0  0  0  0
  -37.4730  -14.1400   -0.8940 C   0  0  0  0  0  0
  -36.4480  -14.5600    1.3840 C   0  0  0  0  0  0
  -39.0031  -17.3915   -1.5876 O   0  5  0  0  0  0
  -35.1749  -24.6279   12.2410 H   0  0  0  0  0  0
  -36.7505  -24.1759   14.1087 H   0  0  0  0  0  0
  -36.2010  -25.0934   16.3344 H   0  0  0  0  0  0
  -34.1792  -26.4431   16.7799 H   0  0  0  0  0  0
  -32.5916  -26.8904   14.9026 H   0  0  0  0  0  0
  -33.3508  -24.2166   11.4665 H   0  0  0  0  0  0
  -30.7314  -25.3250   10.7978 H   0  0  0  0  0  0
  -31.9260  -26.3296    9.9086 H   0  0  0  0  0  0
  -30.0492  -24.5985    8.7736 H   0  0  0  0  0  0
  -31.2981  -21.9354    8.4230 H   0  0  0  0  0  0
  -28.9493  -23.3153    6.9785 H   0  0  0  0  0  0
  -29.9167  -21.4853    5.6377 H   0  0  0  0  0  0
  -28.2654  -21.1065    6.2346 H   0  0  0  0  0  0
  -29.6982  -20.3670    7.0264 H   0  0  0  0  0  0
  -28.6531  -23.0786    9.4126 H   0  0  0  0  0  0
  -28.9484  -21.3127    9.2665 H   0  0  0  0  0  0
  -27.5156  -22.0523    8.4748 H   0  0  0  0  0  0
  -32.9082  -21.4481    7.0295 H   0  0  0  0  0  0
  -33.5671  -23.4888    4.9643 H   0  0  0  0  0  0
  -34.8344  -21.0959    6.1078 H   0  0  0  0  0  0
  -34.9737  -21.0998    4.3170 H   0  0  0  0  0  0
  -35.9990  -23.2832    4.3779 H   0  0  0  0  0  0
  -34.9542  -24.2284    6.3686 H   0  0  0  0  0  0
  -36.7447  -24.3648    6.4127 H   0  0  0  0  0  0
  -35.9143  -23.1174    7.4033 H   0  0  0  0  0  0
  -37.3709  -21.1967    4.5770 H   0  0  0  0  0  0
  -37.3156  -21.3600    6.3650 H   0  0  0  0  0  0
  -38.1460  -22.6074    5.3745 H   0  0  0  0  0  0
  -32.9815  -23.5465    2.8652 H   0  0  0  0  0  0
  -30.7686  -21.7623    1.9929 H   0  0  0  0  0  0
  -30.3582  -23.3522    0.6068 H   0  0  0  0  0  0
  -31.8067  -24.2235    1.2146 H   0  0  0  0  0  0
  -33.1632  -23.4261   -0.5248 H   0  0  0  0  0  0
  -32.0210  -22.1022   -0.9365 H   0  0  0  0  0  0
  -30.2540  -23.8578   -1.4769 H   0  0  0  0  0  0
  -31.4796  -25.1374   -1.1819 H   0  0  0  0  0  0
  -33.0170  -23.7811   -2.8155 H   0  0  0  0  0  0
  -31.5257  -22.9044   -3.2993 H   0  0  0  0  0  0
  -31.8956  -24.8982   -4.7179 H   0  0  0  0  0  0
  -31.8968  -25.9223   -3.2421 H   0  0  0  0  0  0
  -30.4054  -25.0456   -3.7258 H   0  0  0  0  0  0
  -30.6413  -20.1280    0.5664 H   0  0  0  0  0  0
  -31.2659  -18.0213    0.0335 H   0  0  0  0  0  0
  -33.9630  -19.2306   -0.8282 H   0  0  0  0  0  0
  -33.3428  -17.6258   -1.3445 H   0  0  0  0  0  0
  -31.8405  -20.2022   -1.9042 H   0  0  0  0  0  0
  -33.1206  -19.5604   -2.9887 H   0  0  0  0  0  0
  -32.1828  -19.1992    2.6680 H   0  0  0  0  0  0
  -33.2780  -18.5286    4.5465 H   0  0  0  0  0  0
  -33.6505  -15.7641    3.2380 H   0  0  0  0  0  0
  -33.7801  -16.1175    4.9944 H   0  0  0  0  0  0
  -31.5438  -17.6341    5.7507 H   0  0  0  0  0  0
  -31.7249  -14.5814    2.7293 H   0  0  0  0  0  0
  -29.1119  -17.2234    6.0251 H   0  0  0  0  0  0
  -29.3000  -14.1472    3.0136 H   0  0  0  0  0  0
  -27.1775  -16.0788    5.4816 H   0  0  0  0  0  0
  -34.8052  -19.7222    2.3296 H   0  0  0  0  0  0
  -37.1198  -20.4118    2.2173 H   0  0  0  0  0  0
  -37.5683  -19.2261    3.4899 H   0  0  0  0  0  0
  -36.0080  -17.3143    1.3767 H   0  0  0  0  0  0
  -38.6329  -16.2099    0.6647 H   0  0  0  0  0  0
  -35.8236  -15.4365   -0.4324 H   0  0  0  0  0  0
  -37.6985  -14.6120   -1.8617 H   0  0  0  0  0  0
  -36.8054  -13.2802   -1.0521 H   0  0  0  0  0  0
  -38.4078  -13.7973   -0.4264 H   0  0  0  0  0  0
  -35.9582  -15.3209    2.0095 H   0  0  0  0  0  0
  -37.3724  -14.2215    1.8748 H   0  0  0  0  0  0
  -35.7700  -13.7044    1.2491 H   0  0  0  0  0  0
  1  2  2  0  0  0
  1  3  1  0  0  0
  1  9  1  0  0  0
  3  4  2  0  0  0
  3  8  1  0  0  0
  4  5  1  0  0  0
  4 70  1  0  0  0
  5  6  2  0  0  0
  5 71  1  0  0  0
  6  7  1  0  0  0
  6 72  1  0  0  0
  7  8  2  0  0  0
  7 73  1  0  0  0
  8 74  1  0  0  0
  9 10  1  0  0  0
  9 75  1  0  0  0
 10 11  1  0  0  0
 10 76  1  0  0  0
 10 77  1  0  0  0
 11 12  2  0  0  0
 11 13  1  0  0  0
 13 14  1  0  0  0
 13 78  1  0  0  0
 14 15  1  0  0  0
 14 17  1  0  0  0
 14 79  1  0  0  0
 15 16  2  0  0  0
 15 20  1  0  0  0
 17 18  1  0  0  0
 17 19  1  0  0  0
 17 80  1  0  0  0
 18 81  1  0  0  0
 18 82  1  0  0  0
 18 83  1  0  0  0
 19 84  1  0  0  0
 19 85  1  0  0  0
 19 86  1  0  0  0
 20 21  1  0  0  0
 20 87  1  0  0  0
 21 22  1  0  0  0
 21 24  1  0  0  0
 21 88  1  0  0  0
 22 23  2  0  0  0
 22 28  1  0  0  0
 24 25  1  0  0  0
 24 89  1  0  0  0
 24 90  1  0  0  0
 25 26  1  0  0  0
 25 27  1  0  0  0
 25 91  1  0  0  0
 26 92  1  0  0  0
 26 93  1  0  0  0
 26 94  1  0  0  0
 27 95  1  0  0  0
 27 96  1  0  0  0
 27 97  1  0  0  0
 28 29  1  0  0  0
 28 98  1  0  0  0
 29 30  1  0  0  0
 29 32  1  0  0  0
 29 99  1  0  0  0
 30 31  2  0  0  0
 30 37  1  0  0  0
 32 33  1  0  0  0
 32100  1  0  0  0
 32101  1  0  0  0
 33 34  1  0  0  0
 33102  1  0  0  0
 33103  1  0  0  0
 34 35  1  0  0  0
 34104  1  0  0  0
 34105  1  0  0  0
 35 36  1  0  0  0
 35106  1  0  0  0
 35107  1  0  0  0
 36108  1  0  0  0
 36109  1  0  0  0
 36110  1  0  0  0
 37 38  1  0  0  0
 37111  1  0  0  0
 38 39  1  0  0  0
 38 41  1  0  0  0
 38112  1  0  0  0
 39 40  2  0  0  0
 39 46  1  0  0  0
 41 42  1  0  0  0
 41113  1  0  0  0
 41114  1  0  0  0
 42 43  1  0  0  0
 42115  1  0  0  0
 42116  1  0  0  0
 43 44  1  0  0  0
 43 45  2  0  0  0
 46 47  1  0  0  0
 46117  1  0  0  0
 47 48  1  0  0  0
 47 50  1  0  0  0
 47118  1  0  0  0
 48 49  2  0  0  0
 48 58  1  0  0  0
 50 51  1  0  0  0
 50119  1  0  0  0
 50120  1  0  0  0
 51 52  2  0  0  0
 51 53  1  0  0  0
 52 54  1  0  0  0
 52121  1  0  0  0
 53 55  2  0  0  0
 53122  1  0  0  0
 54 56  2  0  0  0
 54123  1  0  0  0
 55 56  1  0  0  0
 55124  1  0  0  0
 56 57  1  0  0  0
 57125  1  0  0  0
 58 59  1  0  0  0
 58126  1  0  0  0
 59 60  1  0  0  0
 59127  1  0  0  0
 59128  1  0  0  0
 60 61  2  0  0  0
 60 62  1  0  0  0
 62 63  1  0  0  0
 62129  1  0  0  0
 63 64  1  0  0  0
 63 66  1  0  0  0
 63130  1  0  0  0
 64 65  2  0  0  0
 64 69  1  0  0  0
 66 67  1  0  0  0
 66 68  1  0  0  0
 66131  1  0  0  0
 67132  1  0  0  0
 67133  1  0  0  0
 67134  1  0  0  0
 68135  1  0  0  0
 68136  1  0  0  0
 68137  1  0  0  0
M  CHG  3  36   1  44  -1  69  -1
M  END
> <s_m_source_file>
../4uua_ligand.sdf

> <i_m_source_file_index>
1

> <s_epik_input>
W2NIXTFbY0hdW2NIXVtjSF1bY0hdYzFDKD1PKVtOSF1bQ0gyXUMoPU8pW05IXVtDQEBIXShbQ0hdKFtDSDNdKVtDSDNdKUMoPU8pW05IXVtDQEBIXShbQ0gyXVtDSF0oW0NIM10pW0NIM10pQyg9TylbTkhdW0NAQEhdKFtDSDJdW0NIMl1bQ0gyXVtDSDJdW05IMytdKUMoPU8pW05IXVtDQEBIXShbQ0gyXVtDSDJdQyg9TylbT0hdKUMoPU8pW05IXVtDQEBIXShbQ0gyXWMyW2NIXVtjSF1jKFtPSF0pW2NIXVtjSF0yKUMoPU8pW05IXVtDSDJdQyg9TylbTkhdW0NASF0oQyg9TylbT0hdKVtDSF0oW0NIM10pW0NIM10=

> <s_epik_cmdline>
J2VwaWtfYXBwJywgJy1pbWFlJywgJ2xpZ2FuZF9wcm8ubWFlJywgJy1vbWFlJywgJ2xpZ2FuZF9wcmVwLm1hZScsICctbXMnLCAnMScsICctcGgnLCAnNycsICctcGh0JywgJzAuNScsICctbnQn

> <r_lp_tautomer_probability>
1

> <r_epik_Ionization_Penalty>
  0.0032

> <r_epik_Ionization_Penalty_Charging>
  0.0024

> <r_epik_Ionization_Penalty_Neutral>
  0.0009

> <r_epik_State_Penalty>
 -0.0000

> <r_epik_Charging_Adjusted_Penalty>
0.00237574302823145

> <i_epik_Tot_Q>
-1

> <i_epik_Tot_abs_Q>
3

$$$$
