4uub_ligand
                    3D
 Schrodinger Suite 2020-3.
137138  0  0  1  0            999 V2000
  -32.7910  -26.0390   12.5940 C   0  0  0  0  0  0
  -32.1740  -27.0920   12.7290 O   0  0  0  0  0  0
  -33.7930  -25.7090   13.5060 C   0  0  0  0  0  0
  -34.9250  -24.9960   13.0860 C   0  0  0  0  0  0
  -35.9250  -24.6820   13.9720 C   0  0  0  0  0  0
  -35.7630  -25.0910   15.2830 C   0  0  0  0  0  0
  -34.6440  -25.8050   15.7300 C   0  0  0  0  0  0
  -33.6450  -26.1250   14.8300 C   0  0  0  0  0  0
  -32.5880  -25.1750   11.5680 N   0  0  0  0  0  0
  -31.5400  -25.3840   10.5260 C   0  0  0  0  0  0
  -31.8020  -24.2790    9.5400 C   0  0  0  0  0  0
  -32.8790  -23.6490    9.5140 O   0  0  0  0  0  0
  -30.8000  -24.0270    8.7200 N   0  0  0  0  0  0
  -30.8490  -22.8690    7.8760 C   0  0  2  0  0  0
  -31.6320  -23.1490    6.6020 C   0  0  0  0  0  0
  -31.3000  -24.0300    5.8380 O   0  0  0  0  0  0
  -29.4540  -22.4350    7.4920 C   0  0  0  0  0  0
  -29.5330  -21.1390    6.6940 C   0  0  0  0  0  0
  -28.6180  -22.2890    8.7410 C   0  0  0  0  0  0
  -32.6860  -22.3980    6.3840 N   0  0  0  0  0  0
  -33.3510  -22.4610    5.1150 C   0  0  2  0  0  0
  -32.4770  -21.8680    4.0330 C   0  0  0  0  0  0
  -31.9430  -20.7700    4.1680 O   0  0  0  0  0  0
  -34.6710  -21.6880    5.1180 C   0  0  0  0  0  0
  -35.8470  -22.3260    5.8370 C   0  0  0  0  0  0
  -37.1040  -21.7380    5.2270 C   0  0  0  0  0  0
  -35.8770  -23.8390    5.7380 C   0  0  0  0  0  0
  -32.4020  -22.5920    2.9290 N   0  0  0  0  0  0
  -31.7060  -22.1390    1.7600 C   0  0  2  0  0  0
  -32.4520  -20.9300    1.1840 C   0  0  0  0  0  0
  -33.6640  -20.8810    1.2350 O   0  0  0  0  0  0
  -31.5030  -23.3440    0.8760 C   0  0  0  0  0  0
  -32.0170  -23.0460   -0.4660 C   0  0  0  0  0  0
  -31.2270  -24.0310   -1.3190 C   0  0  0  0  0  0
  -31.8810  -23.7370   -2.6300 C   0  0  0  0  0  0
  -31.5260  -24.8150   -3.5370 N   0  3  0  0  0  0
  -31.6890  -19.9590    0.6770 N   0  0  0  0  0  0
  -32.1480  -18.5820    0.3490 C   0  0  2  0  0  0
  -32.7540  -17.8040    1.5430 C   0  0  0  0  0  0
  -33.3600  -16.7280    1.3600 O   0  0  0  0  0  0
  -33.1410  -18.5790   -0.8260 C   0  0  0  0  0  0
  -32.6790  -19.3300   -2.0700 C   0  0  0  0  0  0
  -31.9030  -18.4920   -3.0760 C   0  0  0  0  0  0
  -32.5200  -17.5990   -3.7030 O   0  0  0  0  0  0
  -30.6900  -18.7650   -3.2740 O   0  5  0  0  0  0
  -32.5710  -18.3370    2.7530 N   0  0  0  0  0  0
  -33.3130  -17.8850    3.9310 C   0  0  2  0  0  0
  -34.8240  -18.1530    3.8100 C   0  0  0  0  0  0
  -35.6080  -17.6430    4.6100 O   0  0  0  0  0  0
  -33.0290  -16.4010    4.2190 C   0  0  0  0  0  0
  -31.5320  -16.0900    4.3200 C   0  0  0  0  0  0
  -30.7380  -16.7530    5.2620 C   0  0  0  0  0  0
  -30.9060  -15.1500    3.4850 C   0  0  0  0  0  0
  -29.3840  -16.4940    5.3770 C   0  0  0  0  0  0
  -29.5570  -14.8820    3.6100 C   0  0  0  0  0  0
  -28.7980  -15.5690    4.5600 C   0  0  0  0  0  0
  -27.4360  -15.3670    4.7310 O   0  0  0  0  0  0
  -35.2200  -18.9800    2.8360 N   0  0  0  0  0  0
  -36.6220  -19.3080    2.5760 C   0  0  0  0  0  0
  -37.3960  -18.2480    1.8130 C   0  0  0  0  0  0
  -38.6040  -18.3800    1.6490 O   0  0  0  0  0  0
  -36.7140  -17.2070    1.3330 N   0  0  0  0  0  0
  -37.3850  -16.0340    0.7280 C   0  0  2  0  0  0
  -38.0420  -16.3950   -0.6050 C   0  0  0  0  0  0
  -37.4320  -17.0690   -1.4280 O   0  0  0  0  0  0
  -36.4050  -14.8190    0.5570 C   0  0  0  0  0  0
  -36.6490  -14.0420   -0.7490 C   0  0  0  0  0  0
  -36.4800  -13.8940    1.7810 C   0  0  0  0  0  0
  -39.2113  -15.9995   -0.8579 O   0  5  0  0  0  0
  -35.0117  -24.6877   12.0441 H   0  0  0  0  0  0
  -36.8113  -24.1323   13.6550 H   0  0  0  0  0  0
  -36.5437  -24.8460   16.0031 H   0  0  0  0  0  0
  -34.5620  -26.1046   16.7748 H   0  0  0  0  0  0
  -32.7658  -26.6868   15.1456 H   0  0  0  0  0  0
  -33.2378  -24.2885   11.5244 H   0  0  0  0  0  0
  -30.5442  -25.3070   10.9869 H   0  0  0  0  0  0
  -31.6610  -26.3818   10.0792 H   0  0  0  0  0  0
  -29.9302  -24.6993    8.6814 H   0  0  0  0  0  0
  -31.3498  -22.1083    8.4928 H   0  0  0  0  0  0
  -28.9720  -23.1965    6.8612 H   0  0  0  0  0  0
  -30.1506  -21.2974    5.7976 H   0  0  0  0  0  0
  -28.5207  -20.8319    6.3923 H   0  0  0  0  0  0
  -29.9847  -20.3523    7.3161 H   0  0  0  0  0  0
  -28.5925  -23.2480    9.2793 H   0  0  0  0  0  0
  -29.0583  -21.5165    9.3887 H   0  0  0  0  0  0
  -27.5943  -21.9961    8.4648 H   0  0  0  0  0  0
  -33.0599  -21.7230    7.1679 H   0  0  0  0  0  0
  -33.5162  -23.5390    4.9717 H   0  0  0  0  0  0
  -34.5235  -20.7124    5.6043 H   0  0  0  0  0  0
  -35.0082  -21.5342    4.0823 H   0  0  0  0  0  0
  -35.7634  -22.1099    6.9123 H   0  0  0  0  0  0
  -37.0708  -20.6412    5.3046 H   0  0  0  0  0  0
  -37.9849  -22.1172    5.7656 H   0  0  0  0  0  0
  -37.1684  -22.0289    4.1681 H   0  0  0  0  0  0
  -34.9607  -24.2538    6.1834 H   0  0  0  0  0  0
  -35.9377  -24.1361    4.6806 H   0  0  0  0  0  0
  -36.7543  -24.2244    6.2782 H   0  0  0  0  0  0
  -32.8979  -23.5739    2.9279 H   0  0  0  0  0  0
  -30.6961  -21.7730    1.9972 H   0  0  0  0  0  0
  -30.4301  -23.5795    0.8178 H   0  0  0  0  0  0
  -32.0447  -24.2035    1.2977 H   0  0  0  0  0  0
  -33.1025  -23.2223   -0.4904 H   0  0  0  0  0  0
  -31.8108  -21.9940   -0.7124 H   0  0  0  0  0  0
  -30.1565  -23.7828   -1.2692 H   0  0  0  0  0  0
  -31.3846  -25.0520   -0.9411 H   0  0  0  0  0  0
  -32.9714  -23.6891   -2.4932 H   0  0  0  0  0  0
  -31.5168  -22.7724   -3.0133 H   0  0  0  0  0  0
  -31.9896  -24.6361   -4.5184 H   0  0  0  0  0  0
  -31.8871  -25.7708   -3.1296 H   0  0  0  0  0  0
  -30.4325  -24.8542   -3.6497 H   0  0  0  0  0  0
  -30.6412  -20.2454    0.5036 H   0  0  0  0  0  0
  -31.2068  -18.0899    0.0625 H   0  0  0  0  0  0
  -34.0844  -19.0482   -0.5100 H   0  0  0  0  0  0
  -33.3342  -17.5427   -1.1402 H   0  0  0  0  0  0
  -32.0186  -20.1584   -1.7740 H   0  0  0  0  0  0
  -33.5541  -19.7310   -2.6024 H   0  0  0  0  0  0
  -31.8302  -19.1448    2.8462 H   0  0  0  0  0  0
  -32.9198  -18.5044    4.7506 H   0  0  0  0  0  0
  -33.4458  -15.7841    3.4093 H   0  0  0  0  0  0
  -33.4957  -16.1169    5.1737 H   0  0  0  0  0  0
  -31.1968  -17.4906    5.9204 H   0  0  0  0  0  0
  -31.4916  -14.6260    2.7296 H   0  0  0  0  0  0
  -28.7865  -17.0263    6.1171 H   0  0  0  0  0  0
  -29.0861  -14.1366    2.9692 H   0  0  0  0  0  0
  -26.8873  -15.9364    5.4956 H   0  0  0  0  0  0
  -34.4274  -19.4216    2.2141 H   0  0  0  0  0  0
  -36.6782  -20.2306    1.9797 H   0  0  0  0  0  0
  -37.1471  -19.4562    3.5311 H   0  0  0  0  0  0
  -35.6164  -17.2398    1.3980 H   0  0  0  0  0  0
  -38.1787  -15.7793    1.4458 H   0  0  0  0  0  0
  -35.3771  -15.2044    0.4866 H   0  0  0  0  0  0
  -36.5884  -14.7324   -1.6032 H   0  0  0  0  0  0
  -35.8857  -13.2573   -0.8569 H   0  0  0  0  0  0
  -37.6473  -13.5809   -0.7203 H   0  0  0  0  0  0
  -36.3015  -14.4798    2.6948 H   0  0  0  0  0  0
  -37.4769  -13.4317    1.8307 H   0  0  0  0  0  0
  -35.7153  -13.1081    1.6941 H   0  0  0  0  0  0
  1  2  2  0  0  0
  1  3  1  0  0  0
  1  9  1  0  0  0
  3  4  2  0  0  0
  3  8  1  0  0  0
  4  5  1  0  0  0
  4 70  1  0  0  0
  5  6  2  0  0  0
  5 71  1  0  0  0
  6  7  1  0  0  0
  6 72  1  0  0  0
  7  8  2  0  0  0
  7 73  1  0  0  0
  8 74  1  0  0  0
  9 10  1  0  0  0
  9 75  1  0  0  0
 10 11  1  0  0  0
 10 76  1  0  0  0
 10 77  1  0  0  0
 11 12  2  0  0  0
 11 13  1  0  0  0
 13 14  1  0  0  0
 13 78  1  0  0  0
 14 15  1  0  0  0
 14 17  1  0  0  0
 14 79  1  0  0  0
 15 16  2  0  0  0
 15 20  1  0  0  0
 17 18  1  0  0  0
 17 19  1  0  0  0
 17 80  1  0  0  0
 18 81  1  0  0  0
 18 82  1  0  0  0
 18 83  1  0  0  0
 19 84  1  0  0  0
 19 85  1  0  0  0
 19 86  1  0  0  0
 20 21  1  0  0  0
 20 87  1  0  0  0
 21 22  1  0  0  0
 21 24  1  0  0  0
 21 88  1  0  0  0
 22 23  2  0  0  0
 22 28  1  0  0  0
 24 25  1  0  0  0
 24 89  1  0  0  0
 24 90  1  0  0  0
 25 26  1  0  0  0
 25 27  1  0  0  0
 25 91  1  0  0  0
 26 92  1  0  0  0
 26 93  1  0  0  0
 26 94  1  0  0  0
 27 95  1  0  0  0
 27 96  1  0  0  0
 27 97  1  0  0  0
 28 29  1  0  0  0
 28 98  1  0  0  0
 29 30  1  0  0  0
 29 32  1  0  0  0
 29 99  1  0  0  0
 30 31  2  0  0  0
 30 37  1  0  0  0
 32 33  1  0  0  0
 32100  1  0  0  0
 32101  1  0  0  0
 33 34  1  0  0  0
 33102  1  0  0  0
 33103  1  0  0  0
 34 35  1  0  0  0
 34104  1  0  0  0
 34105  1  0  0  0
 35 36  1  0  0  0
 35106  1  0  0  0
 35107  1  0  0  0
 36108  1  0  0  0
 36109  1  0  0  0
 36110  1  0  0  0
 37 38  1  0  0  0
 37111  1  0  0  0
 38 39  1  0  0  0
 38 41  1  0  0  0
 38112  1  0  0  0
 39 40  2  0  0  0
 39 46  1  0  0  0
 41 42  1  0  0  0
 41113  1  0  0  0
 41114  1  0  0  0
 42 43  1  0  0  0
 42115  1  0  0  0
 42116  1  0  0  0
 43 44  2  0  0  0
 43 45  1  0  0  0
 46 47  1  0  0  0
 46117  1  0  0  0
 47 48  1  0  0  0
 47 50  1  0  0  0
 47118  1  0  0  0
 48 49  2  0  0  0
 48 58  1  0  0  0
 50 51  1  0  0  0
 50119  1  0  0  0
 50120  1  0  0  0
 51 52  2  0  0  0
 51 53  1  0  0  0
 52 54  1  0  0  0
 52121  1  0  0  0
 53 55  2  0  0  0
 53122  1  0  0  0
 54 56  2  0  0  0
 54123  1  0  0  0
 55 56  1  0  0  0
 55124  1  0  0  0
 56 57  1  0  0  0
 57125  1  0  0  0
 58 59  1  0  0  0
 58126  1  0  0  0
 59 60  1  0  0  0
 59127  1  0  0  0
 59128  1  0  0  0
 60 61  2  0  0  0
 60 62  1  0  0  0
 62 63  1  0  0  0
 62129  1  0  0  0
 63 64  1  0  0  0
 63 66  1  0  0  0
 63130  1  0  0  0
 64 65  2  0  0  0
 64 69  1  0  0  0
 66 67  1  0  0  0
 66 68  1  0  0  0
 66131  1  0  0  0
 67132  1  0  0  0
 67133  1  0  0  0
 67134  1  0  0  0
 68135  1  0  0  0
 68136  1  0  0  0
 68137  1  0  0  0
M  CHG  3  36   1  45  -1  69  -1
M  END
> <s_m_source_file>
../4uub_ligand.sdf

> <i_m_source_file_index>
1

> <s_epik_input>
W2NIXTFbY0hdW2NIXVtjSF1bY0hdYzFDKD1PKVtOSF1bQ0gyXUMoPU8pW05IXVtDQEBIXShbQ0hdKFtDSDNdKVtDSDNdKUMoPU8pW05IXVtDQEBIXShbQ0gyXVtDSF0oW0NIM10pW0NIM10pQyg9TylbTkhdW0NAQEhdKFtDSDJdW0NIMl1bQ0gyXVtDSDJdW05IMytdKUMoPU8pW05IXVtDQEBIXShbQ0gyXVtDSDJdQyg9TylbT0hdKUMoPU8pW05IXVtDQEBIXShbQ0gyXWMyW2NIXVtjSF1jKFtPSF0pW2NIXVtjSF0yKUMoPU8pW05IXVtDSDJdQyg9TylbTkhdW0NASF0oQyg9TylbT0hdKVtDSF0oW0NIM10pW0NIM10=

> <s_epik_cmdline>
J2VwaWtfYXBwJywgJy1pbWFlJywgJ2xpZ2FuZF9wcm8ubWFlJywgJy1vbWFlJywgJ2xpZ2FuZF9wcmVwLm1hZScsICctbXMnLCAnMScsICctcGgnLCAnNycsICctcGh0JywgJzAuNScsICctbnQn

> <r_lp_tautomer_probability>
1

> <r_epik_Ionization_Penalty>
  0.0032

> <r_epik_Ionization_Penalty_Charging>
  0.0024

> <r_epik_Ionization_Penalty_Neutral>
  0.0009

> <r_epik_State_Penalty>
 -0.0000

> <r_epik_Charging_Adjusted_Penalty>
0.00237574302823145

> <i_epik_Tot_Q>
-1

> <i_epik_Tot_abs_Q>
3

$$$$
