4uuq_ligand
                    3D
 Schrodinger Suite 2020-3.
 37 38  0  0  1  0            999 V2000
   28.4460   53.2410    7.3600 C   0  0  0  0  0  0
   29.0870   54.3000    9.4250 C   0  0  0  0  0  0
   29.0030   54.2850    6.6620 C   0  0  0  0  0  0
   29.6450   55.3370    8.7170 C   0  0  0  0  0  0
   28.4970   53.2730    8.7320 C   0  0  0  0  0  0
   29.5980   55.3220    7.3430 C   0  0  0  0  0  0
   20.7190   52.5670   12.1020 C   0  0  0  0  0  0
   23.6470   53.8430   10.4050 C   0  0  0  0  0  0
   23.5020   51.4240   10.1070 C   0  0  0  0  0  0
   22.1650   53.9190   10.6810 C   0  0  0  0  0  0
   22.0190   51.4390   10.3800 C   0  0  0  0  0  0
   23.8810   52.7180    9.4330 C   0  0  0  0  0  0
   25.3020   52.6940    8.9160 C   0  0  0  0  0  0
   21.6270   52.6390   11.0740 N   0  0  0  0  0  0
   26.2430   52.5600   10.0400 N   0  0  3  0  0  0
   20.1790   53.4910   12.6940 O   0  0  0  0  0  0
   27.6610   50.8290    8.7200 O   0  0  0  0  0  0
   28.5790   51.8320   10.8620 O   0  0  0  0  0  0
   27.7910   51.9340    9.6500 S   0  0  0  0  0  0
   30.2970   56.6310    6.4680 Cl  0  0  0  0  0  0
   27.9753   52.4080    6.8378 H   0  0  0  0  0  0
   29.1125   54.2933   10.5147 H   0  0  0  0  0  0
   28.9737   54.2918    5.5724 H   0  0  0  0  0  0
   30.1215   56.1656    9.2409 H   0  0  0  0  0  0
   20.4912   51.5275   12.3804 H   0  0  0  0  0  0
   23.9889   54.7954    9.9737 H   0  0  0  0  0  0
   24.1857   53.6517   11.3448 H   0  0  0  0  0  0
   24.0485   51.3225   11.0562 H   0  0  0  0  0  0
   23.7455   50.5752    9.4511 H   0  0  0  0  0  0
   21.9798   54.6360   11.4944 H   0  0  0  0  0  0
   21.6395   54.2506    9.7733 H   0  0  0  0  0  0
   21.4704   51.3903    9.4278 H   0  0  0  0  0  0
   21.7518   50.5719   11.0019 H   0  0  0  0  0  0
   23.2469   52.8695    8.5470 H   0  0  0  0  0  0
   25.4293   51.8411    8.2331 H   0  0  0  0  0  0
   25.5120   53.6297    8.3771 H   0  0  0  0  0  0
   25.9993   53.0027   11.0171 H   0  0  0  0  0  0
  1  3  2  0  0  0
  1  5  1  0  0  0
  1 21  1  0  0  0
  2  4  1  0  0  0
  2  5  2  0  0  0
  2 22  1  0  0  0
  3  6  1  0  0  0
  3 23  1  0  0  0
  4  6  2  0  0  0
  4 24  1  0  0  0
  5 19  1  0  0  0
  6 20  1  0  0  0
  7 14  1  0  0  0
  7 16  2  0  0  0
  7 25  1  0  0  0
  8 10  1  0  0  0
  8 12  1  0  0  0
  8 26  1  0  0  0
  8 27  1  0  0  0
  9 11  1  0  0  0
  9 12  1  0  0  0
  9 28  1  0  0  0
  9 29  1  0  0  0
 10 14  1  0  0  0
 10 30  1  0  0  0
 10 31  1  0  0  0
 11 14  1  0  0  0
 11 32  1  0  0  0
 11 33  1  0  0  0
 12 13  1  0  0  0
 12 34  1  0  0  0
 13 15  1  0  0  0
 13 35  1  0  0  0
 13 36  1  0  0  0
 15 19  1  0  0  0
 15 37  1  0  0  0
 17 19  2  0  0  0
 18 19  2  0  0  0
M  END
> <s_m_source_file>
../4uuq_ligand.sdf

> <i_m_source_file_index>
1

> <s_epik_input>
W2NIXTFbY0hdYyhDbClbY0hdW2NIXWMxUyg9TykoPU8pW05IXVtDSDJdW0NIXTJbQ0gyXVtDSDJdTihbQ0hdPU8pW0NIMl1bQ0gyXTI=

> <s_epik_cmdline>
J2VwaWtfYXBwJywgJy1pbWFlJywgJ2xpZ2FuZF9wcm8ubWFlJywgJy1vbWFlJywgJ2xpZ2FuZF9wcmVwLm1hZScsICctbXMnLCAnMScsICctcGgnLCAnNycsICctcGh0JywgJzAuNScsICctbnQn

> <r_lp_tautomer_probability>
1

> <r_epik_Ionization_Penalty>
  0.0001

> <r_epik_Ionization_Penalty_Charging>
  0.0000

> <r_epik_Ionization_Penalty_Neutral>
  0.0001

> <r_epik_State_Penalty>
 -0.0000

> <r_epik_Charging_Adjusted_Penalty>
0

> <i_epik_Tot_Q>
0

> <i_epik_Tot_abs_Q>
0

$$$$
