4uv8_ligand
                    3D
 Schrodinger Suite 2020-3.
121128  0  0  1  0            999 V2000
   -6.3880   65.6770   90.9150 P   0  0  1  0  0  0
   -8.1360   57.9650   86.1530 N   0  0  0  0  0  0
   -9.1190   57.0440   86.3310 C   0  0  0  0  0  0
   -9.5130   56.7410   87.4800 O   0  0  0  0  0  0
   -9.6650   56.4340   85.2670 N   0  0  0  0  0  0
   -9.2550   56.7250   84.0230 C   0  0  0  0  0  0
   -9.8040   56.1440   83.0630 O   0  0  0  0  0  0
   -7.8690   57.9240   82.4820 N   0  0  0  0  0  0
   -7.2950   59.6710   80.9940 C   0  0  0  0  0  0
   -6.7310   60.9210   80.7550 C   0  0  0  0  0  0
   -6.1230   61.6820   81.8880 C   0  0  0  0  0  0
   -6.1260   61.1340   83.1710 C   0  0  0  0  0  0
   -6.5420   67.6670   88.8630 P   0  0  1  0  0  0
   -6.1280   59.9980   85.8520 C   0  0  0  0  0  0
   -7.7000   58.2810   84.9030 C   0  0  1  0  0  0
   -6.7130   59.2780   84.7050 N   0  0  0  0  0  0
   -4.0990   77.9810   90.5050 N   0  0  0  0  0  0
   -5.6030   68.1050   87.7600 O   0  0  0  0  0  0
   -6.0340   73.4160   88.9640 C   0  0  1  0  0  0
   -5.2390   65.0190   91.6400 O   0  5  0  0  0  0
   -7.1010   60.9410   86.5730 C   0  0  2  0  0  0
   -7.8590   61.6990   85.6270 O   0  0  0  0  0  0
   -5.2810   77.3930   90.7840 C   0  0  0  0  0  0
   -7.8940   67.0720   88.5310 O   0  5  0  0  0  0
   -6.3690   72.6300   87.7110 C   0  0  2  0  0  0
   -7.1620   73.3920   86.7970 O   0  0  0  0  0  0
   -7.4580   66.3950   91.7010 O   0  0  0  0  0  0
   -6.3430   61.9110   87.4730 C   0  0  2  0  0  0
   -5.3960   61.1810   88.2570 O   0  0  0  0  0  0
   -5.6330   76.1920   90.2900 N   0  0  0  0  0  0
   -7.1310   71.4480   88.2890 C   0  0  2  0  0  0
   -8.5280   71.7280   88.3580 O   0  0  0  0  0  0
   -5.7190   66.6900   89.8500 O   0  0  0  0  0  0
   -7.2260   62.7130   88.4250 C   0  0  2  0  0  0
   -8.4130   63.1780   87.7670 O   0  0  0  0  0  0
   -4.7960   75.4960   89.4750 C   0  0  0  0  0  0
   -6.6370   71.3060   89.7170 C   0  0  2  0  0  0
   -5.7750   72.4150   89.9510 O   0  0  0  0  0  0
   -7.8710   57.2490   83.8260 C   0  0  1  0  0  0
   -6.4300   63.9030   88.9510 C   0  0  0  0  0  0
   -7.1240   64.5580   90.0160 O   0  0  0  0  0  0
   -3.4910   76.0730   89.1210 C   0  0  0  0  0  0
   -5.8800   70.0070   89.9330 C   0  0  0  0  0  0
   -6.8080   68.9230   89.8380 O   0  0  0  0  0  0
   -7.2970   59.1290   82.2740 C   0  0  0  0  0  0
   -3.1730   77.4020   89.7030 C   0  0  0  0  0  0
   -1.9990   78.0180   89.4380 N   0  0  0  0  0  0
   -2.8790   75.1810   88.3120 N   0  0  0  0  0  0
   -6.7460   61.4780   79.3540 C   0  0  0  0  0  0
   -3.7230   74.1260   88.1590 C   0  0  0  0  0  0
   -5.5040   63.0400   81.6670 C   0  0  0  0  0  0
   -6.6890   59.8770   83.4140 C   0  0  0  0  0  0
   -4.8650   74.3210   88.8490 N   0  0  0  0  0  0
   -4.0050   55.5550   84.1800 N   0  3  0  0  0  0
   -7.0410   52.7430   81.1510 C   0  0  0  0  0  0
   -0.4280   52.8370   86.5600 C   0  0  0  0  0  0
   -7.9430   52.8100   82.2120 C   0  0  0  0  0  0
   -6.1030   53.7590   80.9700 C   0  0  0  0  0  0
   -0.7640   53.9720   85.8200 C   0  0  0  0  0  0
   -1.4450   52.0080   87.0330 C   0  0  0  0  0  0
   -7.8970   53.8930   83.0870 C   0  0  0  0  0  0
   -6.0650   54.8470   81.8430 C   0  0  0  0  0  0
   -2.1050   54.2760   85.5560 C   0  0  0  0  0  0
   -2.7850   52.3140   86.7690 C   0  0  0  0  0  0
   -6.3030   55.5330   85.1310 C   0  0  0  0  0  0
   -6.9190   56.0180   83.7960 C   0  0  1  0  0  0
   -4.5050   53.6930   85.7980 C   0  0  0  0  0  0
   -4.8820   54.9600   84.9950 C   0  0  0  0  0  0
   -6.9640   54.9230   82.9110 C   0  0  0  0  0  0
   -3.1320   53.4510   86.0290 C   0  0  0  0  0  0
   -7.6919   58.4568   87.0311 H   0  0  0  0  0  0
  -10.4585   55.6856   85.4093 H   0  0  0  0  0  0
   -8.3466   57.4349   81.6202 H   0  0  0  0  0  0
   -7.7390   59.1123   80.1701 H   0  0  0  0  0  0
   -5.6835   61.6932   83.9954 H   0  0  0  0  0  0
   -5.7732   59.2720   86.5983 H   0  0  0  0  0  0
   -5.2830   60.6120   85.5072 H   0  0  0  0  0  0
   -8.5071   59.0265   84.9561 H   0  0  0  0  0  0
   -6.8602   74.0827   89.2520 H   0  0  0  0  0  0
   -7.8307   60.3523   87.1482 H   0  0  0  0  0  0
   -8.4811   61.1830   84.8809 H   0  0  0  0  0  0
   -5.9809   77.9134   91.4378 H   0  0  0  0  0  0
   -5.5139   72.3735   87.0683 H   0  0  0  0  0  0
   -6.7345   74.2774   86.3037 H   0  0  0  0  0  0
   -5.8014   62.6118   86.8206 H   0  0  0  0  0  0
   -4.6574   60.5320   87.7637 H   0  0  0  0  0  0
   -7.0349   70.5487   87.6629 H   0  0  0  0  0  0
   -9.1064   71.8721   87.4335 H   0  0  0  0  0  0
   -7.5955   62.0723   89.2392 H   0  0  0  0  0  0
   -9.1139   62.4563   87.3222 H   0  0  0  0  0  0
   -7.4667   71.3414   90.4383 H   0  0  0  0  0  0
   -5.4566   63.5554   89.3274 H   0  0  0  0  0  0
   -6.2715   64.6265   88.1377 H   0  0  0  0  0  0
   -5.1010   69.9042   89.1632 H   0  0  0  0  0  0
   -5.4125   70.0162   90.9287 H   0  0  0  0  0  0
   -1.7825   79.0022   89.8789 H   0  0  0  0  0  0
   -1.2603   77.5349   88.7815 H   0  0  0  0  0  0
   -7.2376   60.7613   78.6797 H   0  0  0  0  0  0
   -5.7132   61.6497   79.0166 H   0  0  0  0  0  0
   -7.2981   62.4293   79.3436 H   0  0  0  0  0  0
   -3.5058   73.2420   87.5595 H   0  0  0  0  0  0
   -5.5896   63.3135   80.6050 H   0  0  0  0  0  0
   -4.4424   63.0100   81.9535 H   0  0  0  0  0  0
   -6.0287   63.7865   82.2814 H   0  0  0  0  0  0
   -4.2979   56.4552   83.6198 H   0  0  0  0  0  0
   -7.0689   51.8974   80.4637 H   0  0  0  0  0  0
    0.6162   52.6016   86.7656 H   0  0  0  0  0  0
   -8.6798   52.0197   82.3560 H   0  0  0  0  0  0
   -5.3959   53.7030   80.1424 H   0  0  0  0  0  0
    0.0231   54.6262   85.4451 H   0  0  0  0  0  0
   -1.1952   51.1181   87.6107 H   0  0  0  0  0  0
   -8.5973   53.9396   83.9209 H   0  0  0  0  0  0
   -5.3324   55.6398   81.6918 H   0  0  0  0  0  0
   -2.3519   55.1650   84.9757 H   0  0  0  0  0  0
   -3.5699   51.6577   87.1449 H   0  0  0  0  0  0
   -6.2464   56.3754   85.8361 H   0  0  0  0  0  0
   -6.9328   54.7389   85.5584 H   0  0  0  0  0  0
   -6.3247   56.5624   83.0473 H   0  0  0  0  0  0
   -4.9634   53.7420   86.7967 H   0  0  0  0  0  0
   -4.8723   52.8010   85.2693 H   0  0  0  0  0  0
   -2.9905   55.1443   84.0696 H   0  0  0  0  0  0
  1 20  1  0  0  0
  1 27  2  0  0  0
  1 33  1  0  0  0
  1 41  1  0  0  0
  2  3  1  0  0  0
  2 15  1  0  0  0
  2 71  1  0  0  0
  3  4  2  0  0  0
  3  5  1  0  0  0
  5  6  1  0  0  0
  5 72  1  0  0  0
  6  7  2  0  0  0
  6 39  1  0  0  0
  8 39  1  0  0  0
  8 45  1  0  0  0
  8 73  1  0  0  0
  9 10  2  0  0  0
  9 45  1  0  0  0
  9 74  1  0  0  0
 10 11  1  0  0  0
 10 49  1  0  0  0
 11 12  2  0  0  0
 11 51  1  0  0  0
 12 52  1  0  0  0
 12 75  1  0  0  0
 13 18  2  0  0  0
 13 24  1  0  0  0
 13 33  1  0  0  0
 13 44  1  0  0  0
 14 16  1  0  0  0
 14 21  1  0  0  0
 14 76  1  0  0  0
 14 77  1  0  0  0
 15 16  1  0  0  0
 15 39  1  0  0  0
 15 78  1  0  0  0
 16 52  1  0  0  0
 17 23  1  0  0  0
 17 46  2  0  0  0
 19 25  1  0  0  0
 19 38  1  0  0  0
 19 53  1  0  0  0
 19 79  1  0  0  0
 21 22  1  0  0  0
 21 28  1  0  0  0
 21 80  1  0  0  0
 22 81  1  0  0  0
 23 30  2  0  0  0
 23 82  1  0  0  0
 25 26  1  0  0  0
 25 31  1  0  0  0
 25 83  1  0  0  0
 26 84  1  0  0  0
 28 29  1  0  0  0
 28 34  1  0  0  0
 28 85  1  0  0  0
 29 86  1  0  0  0
 30 36  1  0  0  0
 31 32  1  0  0  0
 31 37  1  0  0  0
 31 87  1  0  0  0
 32 88  1  0  0  0
 34 35  1  0  0  0
 34 40  1  0  0  0
 34 89  1  0  0  0
 35 90  1  0  0  0
 36 42  2  0  0  0
 36 53  1  0  0  0
 37 38  1  0  0  0
 37 43  1  0  0  0
 37 91  1  0  0  0
 39 66  1  0  0  0
 40 41  1  0  0  0
 40 92  1  0  0  0
 40 93  1  0  0  0
 42 46  1  0  0  0
 42 48  1  0  0  0
 43 44  1  0  0  0
 43 94  1  0  0  0
 43 95  1  0  0  0
 45 52  2  0  0  0
 46 47  1  0  0  0
 47 96  1  0  0  0
 47 97  1  0  0  0
 48 50  2  0  0  0
 49 98  1  0  0  0
 49 99  1  0  0  0
 49100  1  0  0  0
 50 53  1  0  0  0
 50101  1  0  0  0
 51102  1  0  0  0
 51103  1  0  0  0
 51104  1  0  0  0
 54 68  2  0  0  0
 54105  1  0  0  0
 54121  1  0  0  0
 55 57  2  0  0  0
 55 58  1  0  0  0
 55106  1  0  0  0
 56 59  2  0  0  0
 56 60  1  0  0  0
 56107  1  0  0  0
 57 61  1  0  0  0
 57108  1  0  0  0
 58 62  2  0  0  0
 58109  1  0  0  0
 59 63  1  0  0  0
 59110  1  0  0  0
 60 64  2  0  0  0
 60111  1  0  0  0
 61 69  2  0  0  0
 61112  1  0  0  0
 62 69  1  0  0  0
 62113  1  0  0  0
 63 70  2  0  0  0
 63114  1  0  0  0
 64 70  1  0  0  0
 64115  1  0  0  0
 65 66  1  0  0  0
 65 68  1  0  0  0
 65116  1  0  0  0
 65117  1  0  0  0
 66 69  1  0  0  0
 66118  1  0  0  0
 67 68  1  0  0  0
 67 70  1  0  0  0
 67119  1  0  0  0
 67120  1  0  0  0
M  CHG  3  20  -1  24  -1  54   1
M  END
> <s_m_source_file>
../4uv8_ligand.sdf

> <i_m_source_file_index>
1

> <s_epik_input>
bjFbY0hdbmMoW05IMl0pYyhjMTIpbltjSF1uMltDQEhdM1tDQEhdKFtPSF0pW0NASF0oW09IXSlbQ0BIXShPMylbQ0gyXU9bUEBdKD1PKShbT0hdKU9bUEBdKD1PKShbT0hdKU9bQ0gyXVtDQEBIXShbT0hdKVtDQEBIXShbT0hdKVtDQEBIXShbT0hdKVtDSDJdTihjNGMoW05IXTUpW2NIXWMoW0NIM10pYyhbY0hdNClbQ0gzXSlbQ0BIXShbTkhdQyg9TylbTkhdQzY9TylbQ0BdNTZbQ0BIXShjN1tjSF1bY0hdW2NIXVtjSF1bY0hdNylbQ0gyXS9DKD1OXFtIXSlbQ0gyXWM4W2NIXVtjSF1bY0hdW2NIXVtjSF04

> <s_epik_cmdline>
J2VwaWtfYXBwJywgJy1pbWFlJywgJ2xpZ2FuZF9wcm8ubWFlJywgJy1vbWFlJywgJ2xpZ2FuZF9wcmVwLm1hZScsICctbXMnLCAnMScsICctcGgnLCAnNycsICctcGh0JywgJzAuNScsICctbnQn

> <r_lp_tautomer_probability>
0.999997216410988

> <r_epik_Ionization_Penalty>
  0.1120

> <r_epik_Ionization_Penalty_Charging>
  0.1099

> <r_epik_Ionization_Penalty_Neutral>
  0.0022

> <r_epik_State_Penalty>
  0.1839

> <r_epik_Charging_Adjusted_Penalty>
0.293738133094302

> <i_epik_Tot_Q>
-1

> <i_epik_Tot_abs_Q>
3

> <s_epik_Chemistry_Notes>
This compound has an imine and may undergo hydrolysis. This compound contains an acetal/aminal-like group ( X-CH(R)-Y where X, Y are N, S, or O) that may be acid/base labile, releasing an aldehyde.

$$$$
