4uv9_ligand
                    3D
 Schrodinger Suite 2020-3.
114120  0  0  1  0            999 V2000
   -6.6440   67.4570   88.3170 P   0  0  2  0  0  0
   -5.7220   67.8690   87.1840 O   0  5  0  0  0  0
   -7.9720   66.8010   88.0170 O   0  0  0  0  0  0
   -6.9710   68.7400   89.2350 O   0  0  0  0  0  0
   -6.0300   69.8050   89.3720 C   0  0  0  0  0  0
   -6.7220   71.1320   89.1020 C   0  0  1  0  0  0
   -5.8250   72.2150   89.3420 O   0  0  0  0  0  0
   -7.1760   71.2690   87.6580 C   0  0  1  0  0  0
   -8.5740   71.5630   87.6750 O   0  0  0  0  0  0
   -6.3850   72.4400   87.1040 C   0  0  1  0  0  0
   -7.1510   73.2140   86.1810 O   0  0  0  0  0  0
   -6.0690   73.2190   88.3610 C   0  0  2  0  0  0
   -4.8830   74.0920   88.2760 N   0  0  0  0  0  0
   -3.7120   73.8500   87.6490 C   0  0  0  0  0  0
   -2.8510   74.8900   87.8100 N   0  0  0  0  0  0
   -3.4850   75.8120   88.5640 C   0  0  0  0  0  0
   -3.1610   77.1450   89.1200 C   0  0  0  0  0  0
   -1.9540   77.7120   88.8840 N   0  0  0  0  0  0
   -4.1140   77.7660   89.8610 N   0  0  0  0  0  0
   -5.3250   77.2130   90.1020 C   0  0  0  0  0  0
   -5.6860   76.0080   89.6280 N   0  0  0  0  0  0
   -4.8230   75.2790   88.8720 C   0  0  0  0  0  0
   -8.5160   57.9860   85.5740 N   0  0  0  0  0  0
   -9.4670   57.0240   85.7180 C   0  0  0  0  0  0
   -9.9050   56.7280   86.8560 O   0  0  0  0  0  0
   -9.9660   56.4020   84.6340 N   0  0  0  0  0  0
   -9.5200   56.6900   83.3990 C   0  0  0  0  0  0
  -10.0120   56.0910   82.4130 O   0  0  0  0  0  0
   -8.1280   57.2110   83.2620 C   0  0  1  0  0  0
   -8.1070   57.8740   81.9190 N   0  0  0  0  0  0
   -7.4930   59.0540   81.6940 C   0  0  0  0  0  0
   -7.4190   59.5510   80.3950 C   0  0  0  0  0  0
   -6.8040   60.7710   80.1380 C   0  0  0  0  0  0
   -6.7390   61.2820   78.7200 C   0  0  0  0  0  0
   -6.2190   61.5460   81.2730 C   0  0  0  0  0  0
   -5.5490   62.8730   81.0290 C   0  0  0  0  0  0
   -6.2940   61.0460   82.5750 C   0  0  0  0  0  0
   -6.9140   59.8200   82.8340 C   0  0  0  0  0  0
   -7.0190   59.2680   84.1370 N   0  0  0  0  0  0
   -8.0100   58.2680   84.3320 C   0  0  2  0  0  0
   -6.3360   59.9190   85.2700 C   0  0  0  0  0  0
   -7.2710   60.8540   86.0370 C   0  0  2  0  0  0
   -7.9990   61.6670   85.1150 O   0  0  0  0  0  0
   -6.4930   61.7640   86.9800 C   0  0  2  0  0  0
   -5.6170   60.9700   87.7830 O   0  0  0  0  0  0
   -7.3790   62.5770   87.9150 C   0  0  2  0  0  0
   -8.5340   63.0840   87.2320 O   0  0  0  0  0  0
   -6.5540   63.7310   88.4720 C   0  0  0  0  0  0
   -7.2500   64.4250   89.5110 O   0  0  0  0  0  0
   -6.4700   65.5220   90.3980 P   0  0  2  0  0  0
   -5.3070   64.8420   91.0840 O   0  0  0  0  0  0
   -7.5130   66.2580   91.2110 O   0  5  0  0  0  0
   -5.7990   66.5270   89.3270 O   0  0  0  0  0  0
   -8.0560   53.7440   82.8570 C   0  0  0  0  0  0
   -8.1320   52.6040   82.0570 C   0  0  0  0  0  0
   -7.3770   52.5360   80.8870 C   0  0  0  0  0  0
   -6.5560   53.6040   80.5230 C   0  0  0  0  0  0
   -6.4870   54.7470   81.3200 C   0  0  0  0  0  0
   -7.2380   54.8260   82.4950 C   0  0  0  0  0  0
   -7.1670   55.9840   83.2980 C   0  0  2  0  0  0
   -6.4480   55.6080   84.6140 C   0  0  0  0  0  0
   -5.0420   55.0310   84.3860 C   0  0  0  0  0  0
   -4.1990   55.6300   83.5440 N   0  3  0  0  0  0
   -4.5820   53.7840   85.1400 C   0  0  0  0  0  0
   -3.3540   54.0330   85.7470 C   0  0  0  0  0  0
   -5.6229   69.8054   90.3939 H   0  0  0  0  0  0
   -5.2109   69.6656   88.6511 H   0  0  0  0  0  0
   -7.5691   71.2119   89.7991 H   0  0  0  0  0  0
   -7.0718   70.3647   87.0404 H   0  0  0  0  0  0
   -9.2888   70.8153   88.0492 H   0  0  0  0  0  0
   -5.5172   72.1729   86.4830 H   0  0  0  0  0  0
   -7.4567   72.7780   85.2185 H   0  0  0  0  0  0
   -6.8953   73.8940   88.6288 H   0  0  0  0  0  0
   -3.4870   72.9425   87.0888 H   0  0  0  0  0  0
   -1.2052   77.1799   88.2789 H   0  0  0  0  0  0
   -1.7224   78.7047   89.2975 H   0  0  0  0  0  0
   -6.0401   77.7696   90.7078 H   0  0  0  0  0  0
   -8.1531   58.5374   86.4539 H   0  0  0  0  0  0
  -10.7533   55.6426   84.7494 H   0  0  0  0  0  0
   -8.6070   57.3978   81.0627 H   0  0  0  0  0  0
   -7.8472   58.9782   79.5724 H   0  0  0  0  0  0
   -7.2266   60.5608   78.0476 H   0  0  0  0  0  0
   -5.6872   61.4069   78.4231 H   0  0  0  0  0  0
   -7.2558   62.2509   78.6554 H   0  0  0  0  0  0
   -5.5815   63.1081   79.9549 H   0  0  0  0  0  0
   -4.5018   62.8216   81.3616 H   0  0  0  0  0  0
   -6.0746   63.6582   81.5923 H   0  0  0  0  0  0
   -5.8646   61.6177   83.3978 H   0  0  0  0  0  0
   -8.8172   59.0136   84.3826 H   0  0  0  0  0  0
   -5.9685   59.1512   85.9668 H   0  0  0  0  0  0
   -5.4876   60.5107   84.8958 H   0  0  0  0  0  0
   -8.0103   60.2625   86.5969 H   0  0  0  0  0  0
   -8.6287   61.1968   84.3454 H   0  0  0  0  0  0
   -5.8871   62.4491   86.3688 H   0  0  0  0  0  0
   -4.8866   60.3014   87.3040 H   0  0  0  0  0  0
   -7.7957   61.9414   88.7102 H   0  0  0  0  0  0
   -9.2463   62.3880   86.7648 H   0  0  0  0  0  0
   -5.6121   63.3420   88.8860 H   0  0  0  0  0  0
   -6.3326   64.4460   87.6659 H   0  0  0  0  0  0
   -8.6398   53.7955   83.7760 H   0  0  0  0  0  0
   -8.7764   51.7731   82.3442 H   0  0  0  0  0  0
   -7.4280   51.6484   80.2564 H   0  0  0  0  0  0
   -5.9644   53.5448   79.6095 H   0  0  0  0  0  0
   -5.8468   55.5786   81.0256 H   0  0  0  0  0  0
   -6.6356   56.5052   82.4881 H   0  0  0  0  0  0
   -6.3435   56.5039   85.2436 H   0  0  0  0  0  0
   -7.0375   54.8497   85.1502 H   0  0  0  0  0  0
   -4.5163   56.5285   82.9944 H   0  0  0  0  0  0
   -5.3247   53.5258   85.9092 H   0  0  0  0  0  0
   -4.4784   52.9464   84.4346 H   0  0  0  0  0  0
   -3.0242   53.1346   86.2893 H   0  0  0  0  0  0
   -3.4570   54.8703   86.4529 H   0  0  0  0  0  0
   -2.6106   54.2909   84.9783 H   0  0  0  0  0  0
   -3.1863   55.2256   83.3991 H   0  0  0  0  0  0
  1  2  1  0  0  0
  1  3  2  0  0  0
  1  4  1  0  0  0
  1 53  1  0  0  0
  4  5  1  0  0  0
  5  6  1  0  0  0
  5 66  1  0  0  0
  5 67  1  0  0  0
  6  7  1  0  0  0
  6  8  1  0  0  0
  6 68  1  0  0  0
  7 12  1  0  0  0
  8  9  1  0  0  0
  8 10  1  0  0  0
  8 69  1  0  0  0
  9 70  1  0  0  0
 10 11  1  0  0  0
 10 12  1  0  0  0
 10 71  1  0  0  0
 11 72  1  0  0  0
 12 13  1  0  0  0
 12 73  1  0  0  0
 13 14  1  0  0  0
 13 22  1  0  0  0
 14 15  2  0  0  0
 14 74  1  0  0  0
 15 16  1  0  0  0
 16 17  2  0  0  0
 16 22  1  0  0  0
 17 18  1  0  0  0
 17 19  1  0  0  0
 18 75  1  0  0  0
 18 76  1  0  0  0
 19 20  2  0  0  0
 20 21  1  0  0  0
 20 77  1  0  0  0
 21 22  2  0  0  0
 23 24  1  0  0  0
 23 40  1  0  0  0
 23 78  1  0  0  0
 24 25  2  0  0  0
 24 26  1  0  0  0
 26 27  1  0  0  0
 26 79  1  0  0  0
 27 28  2  0  0  0
 27 29  1  0  0  0
 29 30  1  0  0  0
 29 40  1  0  0  0
 29 60  1  0  0  0
 30 31  1  0  0  0
 30 80  1  0  0  0
 31 32  2  0  0  0
 31 38  1  0  0  0
 32 33  1  0  0  0
 32 81  1  0  0  0
 33 34  1  0  0  0
 33 35  2  0  0  0
 34 82  1  0  0  0
 34 83  1  0  0  0
 34 84  1  0  0  0
 35 36  1  0  0  0
 35 37  1  0  0  0
 36 85  1  0  0  0
 36 86  1  0  0  0
 36 87  1  0  0  0
 37 38  2  0  0  0
 37 88  1  0  0  0
 38 39  1  0  0  0
 39 40  1  0  0  0
 39 41  1  0  0  0
 40 89  1  0  0  0
 41 42  1  0  0  0
 41 90  1  0  0  0
 41 91  1  0  0  0
 42 43  1  0  0  0
 42 44  1  0  0  0
 42 92  1  0  0  0
 43 93  1  0  0  0
 44 45  1  0  0  0
 44 46  1  0  0  0
 44 94  1  0  0  0
 45 95  1  0  0  0
 46 47  1  0  0  0
 46 48  1  0  0  0
 46 96  1  0  0  0
 47 97  1  0  0  0
 48 49  1  0  0  0
 48 98  1  0  0  0
 48 99  1  0  0  0
 49 50  1  0  0  0
 50 51  2  0  0  0
 50 52  1  0  0  0
 50 53  1  0  0  0
 54 55  2  0  0  0
 54 59  1  0  0  0
 54100  1  0  0  0
 55 56  1  0  0  0
 55101  1  0  0  0
 56 57  2  0  0  0
 56102  1  0  0  0
 57 58  1  0  0  0
 57103  1  0  0  0
 58 59  2  0  0  0
 58104  1  0  0  0
 59 60  1  0  0  0
 60 61  1  0  0  0
 60105  1  0  0  0
 61 62  1  0  0  0
 61106  1  0  0  0
 61107  1  0  0  0
 62 63  2  0  0  0
 62 64  1  0  0  0
 63108  1  0  0  0
 63114  1  0  0  0
 64 65  1  0  0  0
 64109  1  0  0  0
 64110  1  0  0  0
 65111  1  0  0  0
 65112  1  0  0  0
 65113  1  0  0  0
M  CHG  3   2  -1  52  -1  63   1
M  END
> <s_m_source_file>
../4uv9_ligand.sdf

> <i_m_source_file_index>
1

> <s_epik_input>
W05IMl1jMW5bY0hdbmMoYzEyKW4oW2NIXW4yKVtDQEBIXShbQ0BIXShbT0hdKVtDQEBIXTNbT0hdKU9bQ0BASF0zW0NIMl1PW1BAQF0oPU8pKFtPSF0pT1tQQEBdKD1PKShbT0hdKU9bQ0gyXVtDQEBIXShbT0hdKVtDQEBIXShbT0hdKVtDQEBIXShbT0hdKVtDSDJdTihjNGMoW05IXTUpW2NIXWMoW0NIM10pYyhbQ0gzXSlbY0hdNClbQ0BIXShbTkhdQyg9TylbTkhdQzY9TylbQ0BdNTZbQ0BASF0oW0NIMl0vQyg9TlxbSF0pW0NIMl1bQ0gzXSljN1tjSF1bY0hdW2NIXVtjSF1bY0hdNw==

> <s_epik_cmdline>
J2VwaWtfYXBwJywgJy1pbWFlJywgJ2xpZ2FuZF9wcm8ubWFlJywgJy1vbWFlJywgJ2xpZ2FuZF9wcmVwLm1hZScsICctbXMnLCAnMScsICctcGgnLCAnNycsICctcGh0JywgJzAuNScsICctbnQn

> <r_lp_tautomer_probability>
0.999997216410988

> <r_epik_Ionization_Penalty>
  0.0369

> <r_epik_Ionization_Penalty_Charging>
  0.0359

> <r_epik_Ionization_Penalty_Neutral>
  0.0010

> <r_epik_State_Penalty>
  0.0575

> <r_epik_Charging_Adjusted_Penalty>
0.0934188668499958

> <i_epik_Tot_Q>
-1

> <i_epik_Tot_abs_Q>
3

> <s_epik_Chemistry_Notes>
This compound has an imine and may undergo hydrolysis. This compound contains an acetal/aminal-like group ( X-CH(R)-Y where X, Y are N, S, or O) that may be acid/base labile, releasing an aldehyde.

$$$$
