4uva_ligand
                    3D
 Schrodinger Suite 2020-3.
111117  0  0  1  0            999 V2000
   -6.3920   66.1570   90.4580 P   0  0  1  0  0  0
   -8.3710   58.5030   85.6480 N   0  0  0  0  0  0
   -9.3280   57.5480   85.7980 C   0  0  0  0  0  0
   -9.7690   57.2500   86.9310 O   0  0  0  0  0  0
   -9.8230   56.9180   84.7230 N   0  0  0  0  0  0
   -9.3730   57.2000   83.4920 C   0  0  0  0  0  0
   -9.8760   56.5940   82.5200 O   0  0  0  0  0  0
   -7.9580   58.3890   81.9970 N   0  0  0  0  0  0
   -7.3460   60.1130   80.4960 C   0  0  0  0  0  0
   -6.7730   61.3590   80.2600 C   0  0  0  0  0  0
   -6.2020   62.1380   81.3980 C   0  0  0  0  0  0
   -6.2450   61.6110   82.6870 C   0  0  0  0  0  0
   -6.5830   68.1430   88.3970 P   0  0  1  0  0  0
   -6.2540   60.4670   85.3730 C   0  0  0  0  0  0
   -7.8730   58.7860   84.4100 C   0  0  1  0  0  0
   -6.8870   59.7890   84.2270 N   0  0  0  0  0  0
   -4.0050   78.4220   89.9870 N   0  0  0  0  0  0
   -5.6130   68.5860   87.3210 O   0  5  0  0  0  0
   -6.0120   73.8630   88.5090 C   0  0  1  0  0  0
   -5.2200   65.5220   91.1630 O   0  0  0  0  0  0
   -7.1850   61.4490   86.0960 C   0  0  2  0  0  0
   -7.8540   62.2820   85.1470 O   0  0  0  0  0  0
   -5.1950   77.8540   90.2810 C   0  0  0  0  0  0
   -7.9060   67.5030   88.0310 O   0  0  0  0  0  0
   -6.3280   73.0740   87.2510 C   0  0  2  0  0  0
   -7.0890   73.8460   86.3180 O   0  0  0  0  0  0
   -7.4800   66.8340   91.2550 O   0  5  0  0  0  0
   -6.4020   62.3340   87.0620 C   0  0  2  0  0  0
   -5.5810   61.5070   87.8880 O   0  0  0  0  0  0
   -5.5690   76.6520   89.8080 N   0  0  0  0  0  0
   -7.1080   71.8940   87.8050 C   0  0  2  0  0  0
   -8.5090   72.1610   87.7900 O   0  0  0  0  0  0
   -5.7510   67.1950   89.4030 O   0  0  0  0  0  0
   -7.2630   63.1940   87.9860 C   0  0  2  0  0  0
   -8.4560   63.6650   87.3390 O   0  0  0  0  0  0
   -4.7480   75.9340   88.9940 C   0  0  0  0  0  0
   -6.6750   71.7760   89.2570 C   0  0  2  0  0  0
   -5.7900   72.8670   89.5110 O   0  0  0  0  0  0
   -7.9860   57.7300   83.3460 C   0  0  1  0  0  0
   -6.4400   64.3810   88.4810 C   0  0  0  0  0  0
   -7.1190   65.0370   89.5540 O   0  0  0  0  0  0
   -3.4350   76.4890   88.6230 C   0  0  0  0  0  0
   -5.9760   70.4570   89.5410 C   0  0  0  0  0  0
   -6.9190   69.4000   89.3490 O   0  0  0  0  0  0
   -7.3870   59.5920   81.7850 C   0  0  0  0  0  0
   -3.0940   77.8220   89.1880 C   0  0  0  0  0  0
   -1.9120   78.4170   88.9080 N   0  0  0  0  0  0
   -2.8400   75.5800   87.8200 N   0  0  0  0  0  0
   -6.7390   61.9010   78.8540 C   0  0  0  0  0  0
   -3.7010   74.5370   87.6900 C   0  0  0  0  0  0
   -5.5770   63.4940   81.1780 C   0  0  0  0  0  0
   -6.8150   60.3600   82.9290 C   0  0  0  0  0  0
   -4.8330   74.7540   88.3870 N   0  0  0  0  0  0
   -4.0850   56.1230   83.7330 N   0  3  0  0  0  0
   -7.0800   53.1690   80.7710 C   0  0  0  0  0  0
   -7.9300   53.2050   81.8740 C   0  0  0  0  0  0
   -6.2150   54.2350   80.5220 C   0  0  0  0  0  0
   -7.9060   54.3090   82.7240 C   0  0  0  0  0  0
   -6.1960   55.3420   81.3710 C   0  0  0  0  0  0
   -6.3960   56.0590   84.6830 C   0  0  0  0  0  0
   -7.0220   56.5060   83.3410 C   0  0  1  0  0  0
   -4.4870   54.3570   85.4200 C   0  0  0  0  0  0
   -4.9540   55.5320   84.5560 C   0  0  0  0  0  0
   -7.0440   55.3880   82.4810 C   0  0  0  0  0  0
   -7.9988   59.0476   86.5283 H   0  0  0  0  0  0
  -10.6091   56.1582   84.8443 H   0  0  0  0  0  0
   -8.4159   57.8888   81.1309 H   0  0  0  0  0  0
   -7.7647   59.5426   79.6668 H   0  0  0  0  0  0
   -5.8285   62.1825   83.5165 H   0  0  0  0  0  0
   -5.9312   59.7170   86.1101 H   0  0  0  0  0  0
   -5.3808   61.0381   85.0246 H   0  0  0  0  0  0
   -8.6921   59.5199   84.4297 H   0  0  0  0  0  0
   -6.8318   74.5385   88.7946 H   0  0  0  0  0  0
   -7.9722   60.8946   86.6278 H   0  0  0  0  0  0
   -8.4758   61.8299   84.3603 H   0  0  0  0  0  0
   -5.8831   78.3945   90.9310 H   0  0  0  0  0  0
   -5.4615   72.8045   86.6293 H   0  0  0  0  0  0
   -6.6411   74.7304   85.8414 H   0  0  0  0  0  0
   -5.7647   62.9938   86.4549 H   0  0  0  0  0  0
   -4.8744   60.8000   87.4289 H   0  0  0  0  0  0
   -6.9793   70.9841   87.2004 H   0  0  0  0  0  0
   -9.0351   72.2846   86.8319 H   0  0  0  0  0  0
   -7.6415   62.5788   88.8156 H   0  0  0  0  0  0
   -9.1737   62.9458   86.9175 H   0  0  0  0  0  0
   -7.5340   71.8581   89.9391 H   0  0  0  0  0  0
   -5.4616   64.0259   88.8368 H   0  0  0  0  0  0
   -6.2935   65.0947   87.6569 H   0  0  0  0  0  0
   -5.1275   70.3358   88.8516 H   0  0  0  0  0  0
   -5.6094   70.4522   90.5781 H   0  0  0  0  0  0
   -1.6778   79.4032   89.3353 H   0  0  0  0  0  0
   -1.1849   77.9147   88.2530 H   0  0  0  0  0  0
   -7.2076   61.1774   78.1707 H   0  0  0  0  0  0
   -5.6950   62.0686   78.5508 H   0  0  0  0  0  0
   -7.2896   62.8524   78.8144 H   0  0  0  0  0  0
   -3.5019   73.6426   87.0996 H   0  0  0  0  0  0
   -5.6283   63.7525   80.1100 H   0  0  0  0  0  0
   -4.5252   63.4694   81.4992 H   0  0  0  0  0  0
   -6.1220   64.2484   81.7644 H   0  0  0  0  0  0
   -4.4077   56.9680   83.1070 H   0  0  0  0  0  0
   -7.0907   52.3081   80.1025 H   0  0  0  0  0  0
   -8.6091   52.3755   82.0708 H   0  0  0  0  0  0
   -5.5500   54.2028   79.6589 H   0  0  0  0  0  0
   -8.5669   54.3342   83.5904 H   0  0  0  0  0  0
   -5.5190   56.1719   81.1684 H   0  0  0  0  0  0
   -6.3704   56.9115   85.3776 H   0  0  0  0  0  0
   -7.0006   55.2496   85.1181 H   0  0  0  0  0  0
   -6.4522   57.0457   82.5702 H   0  0  0  0  0  0
   -3.4365   54.1268   85.1890 H   0  0  0  0  0  0
   -5.1106   53.4758   85.2086 H   0  0  0  0  0  0
   -4.5785   54.6244   86.4831 H   0  0  0  0  0  0
   -3.0462   55.7650   83.6808 H   0  0  0  0  0  0
  1 20  2  0  0  0
  1 27  1  0  0  0
  1 33  1  0  0  0
  1 41  1  0  0  0
  2  3  1  0  0  0
  2 15  1  0  0  0
  2 65  1  0  0  0
  3  4  2  0  0  0
  3  5  1  0  0  0
  5  6  1  0  0  0
  5 66  1  0  0  0
  6  7  2  0  0  0
  6 39  1  0  0  0
  8 39  1  0  0  0
  8 45  1  0  0  0
  8 67  1  0  0  0
  9 10  2  0  0  0
  9 45  1  0  0  0
  9 68  1  0  0  0
 10 11  1  0  0  0
 10 49  1  0  0  0
 11 12  2  0  0  0
 11 51  1  0  0  0
 12 52  1  0  0  0
 12 69  1  0  0  0
 13 18  1  0  0  0
 13 24  2  0  0  0
 13 33  1  0  0  0
 13 44  1  0  0  0
 14 16  1  0  0  0
 14 21  1  0  0  0
 14 70  1  0  0  0
 14 71  1  0  0  0
 15 16  1  0  0  0
 15 39  1  0  0  0
 15 72  1  0  0  0
 16 52  1  0  0  0
 17 23  1  0  0  0
 17 46  2  0  0  0
 19 25  1  0  0  0
 19 38  1  0  0  0
 19 53  1  0  0  0
 19 73  1  0  0  0
 21 22  1  0  0  0
 21 28  1  0  0  0
 21 74  1  0  0  0
 22 75  1  0  0  0
 23 30  2  0  0  0
 23 76  1  0  0  0
 25 26  1  0  0  0
 25 31  1  0  0  0
 25 77  1  0  0  0
 26 78  1  0  0  0
 28 29  1  0  0  0
 28 34  1  0  0  0
 28 79  1  0  0  0
 29 80  1  0  0  0
 30 36  1  0  0  0
 31 32  1  0  0  0
 31 37  1  0  0  0
 31 81  1  0  0  0
 32 82  1  0  0  0
 34 35  1  0  0  0
 34 40  1  0  0  0
 34 83  1  0  0  0
 35 84  1  0  0  0
 36 42  2  0  0  0
 36 53  1  0  0  0
 37 38  1  0  0  0
 37 43  1  0  0  0
 37 85  1  0  0  0
 39 61  1  0  0  0
 40 41  1  0  0  0
 40 86  1  0  0  0
 40 87  1  0  0  0
 42 46  1  0  0  0
 42 48  1  0  0  0
 43 44  1  0  0  0
 43 88  1  0  0  0
 43 89  1  0  0  0
 45 52  2  0  0  0
 46 47  1  0  0  0
 47 90  1  0  0  0
 47 91  1  0  0  0
 48 50  2  0  0  0
 49 92  1  0  0  0
 49 93  1  0  0  0
 49 94  1  0  0  0
 50 53  1  0  0  0
 50 95  1  0  0  0
 51 96  1  0  0  0
 51 97  1  0  0  0
 51 98  1  0  0  0
 54 63  2  0  0  0
 54 99  1  0  0  0
 54111  1  0  0  0
 55 56  2  0  0  0
 55 57  1  0  0  0
 55100  1  0  0  0
 56 58  1  0  0  0
 56101  1  0  0  0
 57 59  2  0  0  0
 57102  1  0  0  0
 58 64  2  0  0  0
 58103  1  0  0  0
 59 64  1  0  0  0
 59104  1  0  0  0
 60 61  1  0  0  0
 60 63  1  0  0  0
 60105  1  0  0  0
 60106  1  0  0  0
 61 64  1  0  0  0
 61107  1  0  0  0
 62 63  1  0  0  0
 62108  1  0  0  0
 62109  1  0  0  0
 62110  1  0  0  0
M  CHG  3  18  -1  27  -1  54   1
M  END
> <s_m_source_file>
../4uva_ligand.sdf

> <i_m_source_file_index>
1

> <s_epik_input>
W2NIXTFbY0hdW2NIXVtjSF1bY0hdYzFbQ0BIXShbQ0gyXS9DKD1OXFtIXSlbQ0gzXSlbQ0BdMjNbQ0BASF0oW05IXUMoPU8pW05IXUMyPU8pTihjNGMoW05IXTMpW2NIXWMoW0NIM10pYyhbY0hdNClbQ0gzXSlbQ0gyXVtDQEhdKFtPSF0pW0NASF0oW09IXSlbQ0BIXShbT0hdKVtDSDJdT1tQQF0oPU8pKFtPSF0pT1tQQF0oPU8pKFtPSF0pT1tDSDJdW0NAQEhdKE81KVtDQEBIXShbT0hdKVtDQEBIXShbT0hdKVtDQEBIXTVuNltjSF1uYyhjNjcpYyhbTkgyXSluW2NIXW43

> <s_epik_cmdline>
J2VwaWtfYXBwJywgJy1pbWFlJywgJ2xpZ2FuZF9wcm8ubWFlJywgJy1vbWFlJywgJ2xpZ2FuZF9wcmVwLm1hZScsICctbXMnLCAnMScsICctcGgnLCAnNycsICctcGh0JywgJzAuNScsICctbnQn

> <r_lp_tautomer_probability>
0.999997216410988

> <r_epik_Ionization_Penalty>
  0.0500

> <r_epik_Ionization_Penalty_Charging>
  0.0488

> <r_epik_Ionization_Penalty_Neutral>
  0.0012

> <r_epik_State_Penalty>
  0.0796

> <r_epik_Charging_Adjusted_Penalty>
0.128405394948614

> <i_epik_Tot_Q>
-1

> <i_epik_Tot_abs_Q>
3

> <s_epik_Chemistry_Notes>
This compound has an imine and may undergo hydrolysis. This compound contains an acetal/aminal-like group ( X-CH(R)-Y where X, Y are N, S, or O) that may be acid/base labile, releasing an aldehyde.

$$$$
