4uvb_ligand
                    3D
 Schrodinger Suite 2020-3.
111118  0  0  1  0            999 V2000
   -6.4190   66.1290   90.4290 P   0  0  1  0  0  0
   -8.3790   58.4280   85.5300 N   0  0  0  0  0  0
   -9.4080   57.5650   85.7180 C   0  0  0  0  0  0
   -9.7650   57.2560   86.8770 O   0  0  0  0  0  0
  -10.0220   57.0020   84.6710 N   0  0  0  0  0  0
   -9.6720   57.2890   83.4100 C   0  0  0  0  0  0
  -10.3190   56.7230   82.5070 O   0  0  0  0  0  0
   -8.2050   58.5390   81.7770 N   0  0  0  0  0  0
   -7.5050   60.3590   80.4030 C   0  0  0  0  0  0
   -6.8730   61.5810   80.2300 C   0  0  0  0  0  0
   -6.2400   62.2480   81.4050 C   0  0  0  0  0  0
   -6.2890   61.6320   82.6540 C   0  0  0  0  0  0
   -6.6650   68.1190   88.3910 P   0  0  2  0  0  0
   -6.3620   60.4150   85.2810 C   0  0  0  0  0  0
   -7.9940   58.7920   84.2720 C   0  0  1  0  0  0
   -6.9680   59.7510   84.1030 N   0  0  0  0  0  0
   -4.1040   78.4440   89.9910 N   0  0  0  0  0  0
   -8.0040   67.4840   88.0790 O   0  5  0  0  0  0
   -6.0520   73.8600   88.4930 C   0  0  1  0  0  0
   -5.2240   65.5610   91.1550 O   0  5  0  0  0  0
   -7.2820   61.3860   86.0460 C   0  0  2  0  0  0
   -8.0180   62.2070   85.1340 O   0  0  0  0  0  0
   -5.2970   77.8720   90.2630 C   0  0  0  0  0  0
   -5.7570   68.5800   87.2730 O   0  0  0  0  0  0
   -6.3600   73.0720   87.2360 C   0  0  2  0  0  0
   -7.1240   73.8380   86.3030 O   0  0  0  0  0  0
   -7.5220   66.8040   91.2030 O   0  0  0  0  0  0
   -6.4810   62.2820   86.9950 C   0  0  2  0  0  0
   -5.6390   61.4530   87.7980 O   0  0  0  0  0  0
   -5.6510   76.6650   89.7860 N   0  0  0  0  0  0
   -7.1440   71.8940   87.7880 C   0  0  2  0  0  0
   -8.5410   72.1880   87.7970 O   0  0  0  0  0  0
   -5.8020   67.1420   89.3350 O   0  0  0  0  0  0
   -7.3110   63.1570   87.9450 C   0  0  2  0  0  0
   -8.5210   63.6330   87.3330 O   0  0  0  0  0  0
   -4.8080   75.9460   88.9940 C   0  0  0  0  0  0
   -6.6970   71.7540   89.2320 C   0  0  2  0  0  0
   -5.8290   72.8590   89.4880 O   0  0  0  0  0  0
   -8.3170   57.8710   83.1300 C   0  0  1  0  0  0
   -6.4820   64.3450   88.4350 C   0  0  0  0  0  0
   -7.1160   64.9570   89.5630 O   0  0  0  0  0  0
   -3.4920   76.5070   88.6480 C   0  0  0  0  0  0
   -5.9790   70.4370   89.4890 C   0  0  0  0  0  0
   -6.9220   69.3660   89.3820 O   0  0  0  0  0  0
   -7.5590   59.7340   81.6490 C   0  0  0  0  0  0
   -3.1720   77.8430   89.2150 C   0  0  0  0  0  0
   -1.9880   78.4480   88.9640 N   0  0  0  0  0  0
   -2.8760   75.5970   87.8630 N   0  0  0  0  0  0
   -6.8470   62.2010   78.8550 C   0  0  0  0  0  0
   -3.7250   74.5450   87.7180 C   0  0  0  0  0  0
   -5.5450   63.5780   81.2610 C   0  0  0  0  0  0
   -6.9210   60.3960   82.8310 C   0  0  0  0  0  0
   -4.8750   74.7580   88.3900 N   0  0  0  0  0  0
   -6.7250   57.6230   79.9730 N   0  3  0  0  0  0
   -3.9280   54.6540   84.3800 C   0  0  0  0  0  0
   -5.0550   54.7750   85.1960 C   0  0  0  0  0  0
   -3.9360   55.2200   83.1040 C   0  0  0  0  0  0
   -6.1810   55.4630   84.7360 C   0  0  0  0  0  0
   -5.0580   55.9090   82.6420 C   0  0  0  0  0  0
   -7.6940   56.2650   81.6100 C   0  0  0  0  0  0
   -7.3140   56.7140   83.0190 C   0  0  1  0  0  0
   -9.0720   57.2770   79.8090 C   0  0  0  0  0  0
   -7.8970   57.5250   80.7740 C   0  0  1  0  0  0
   -6.1850   56.0290   83.4590 C   0  0  0  0  0  0
   -7.8528   58.8356   86.4058 H   0  0  0  0  0  0
  -10.8378   56.2823   84.8336 H   0  0  0  0  0  0
   -7.9709   59.8750   79.5446 H   0  0  0  0  0  0
   -5.8259   62.1226   83.5101 H   0  0  0  0  0  0
   -6.0443   59.6532   86.0081 H   0  0  0  0  0  0
   -5.4893   61.0035   84.9616 H   0  0  0  0  0  0
   -8.7569   59.5741   84.3992 H   0  0  0  0  0  0
   -6.8771   74.5332   88.7688 H   0  0  0  0  0  0
   -8.0375   60.8138   86.6044 H   0  0  0  0  0  0
   -8.6581   61.7425   84.3695 H   0  0  0  0  0  0
   -6.0024   78.4109   90.8955 H   0  0  0  0  0  0
   -5.4879   72.8076   86.6199 H   0  0  0  0  0  0
   -6.6798   74.7226   85.8233 H   0  0  0  0  0  0
   -5.8660   62.9446   86.3683 H   0  0  0  0  0  0
   -4.9523   60.7392   87.3195 H   0  0  0  0  0  0
   -7.0311   70.9877   87.1749 H   0  0  0  0  0  0
   -9.0790   72.3314   86.8483 H   0  0  0  0  0  0
   -7.6626   62.5392   88.7844 H   0  0  0  0  0  0
   -9.2466   62.9172   86.9193 H   0  0  0  0  0  0
   -7.5477   71.8078   89.9273 H   0  0  0  0  0  0
   -5.4808   63.9970   88.7291 H   0  0  0  0  0  0
   -6.3900   65.0860   87.6272 H   0  0  0  0  0  0
   -5.1795   70.3040   88.7452 H   0  0  0  0  0  0
   -5.5424   70.4483   90.4986 H   0  0  0  0  0  0
   -1.7736   79.4372   89.3948 H   0  0  0  0  0  0
   -1.2399   77.9507   88.3292 H   0  0  0  0  0  0
   -7.3694   61.5421   78.1458 H   0  0  0  0  0  0
   -5.8038   62.3335   78.5322 H   0  0  0  0  0  0
   -7.3489   63.1794   78.8844 H   0  0  0  0  0  0
   -3.5057   73.6495   87.1366 H   0  0  0  0  0  0
   -5.6042   63.9112   80.2143 H   0  0  0  0  0  0
   -4.4898   63.4738   81.5536 H   0  0  0  0  0  0
   -6.0340   64.3194   81.9100 H   0  0  0  0  0  0
   -5.8530   57.8011   80.6194 H   0  0  0  0  0  0
   -6.8334   58.4580   79.2652 H   0  0  0  0  0  0
   -6.5826   56.6856   79.4153 H   0  0  0  0  0  0
   -3.0472   54.1206   84.7375 H   0  0  0  0  0  0
   -5.0563   54.3326   86.1922 H   0  0  0  0  0  0
   -3.0592   55.1230   82.4637 H   0  0  0  0  0  0
   -7.0586   55.5582   85.3755 H   0  0  0  0  0  0
   -5.0552   56.3525   81.6463 H   0  0  0  0  0  0
   -6.8849   55.6488   81.1908 H   0  0  0  0  0  0
   -8.6211   55.6744   81.6509 H   0  0  0  0  0  0
   -7.0019   56.6857   84.0734 H   0  0  0  0  0  0
   -9.2373   58.1742   79.1944 H   0  0  0  0  0  0
   -9.9812   57.0561   80.3875 H   0  0  0  0  0  0
   -8.8364   56.4236   79.1561 H   0  0  0  0  0  0
  1 20  1  0  0  0
  1 27  2  0  0  0
  1 33  1  0  0  0
  1 41  1  0  0  0
  2  3  1  0  0  0
  2 15  1  0  0  0
  2 65  1  0  0  0
  3  4  2  0  0  0
  3  5  1  0  0  0
  5  6  1  0  0  0
  5 66  1  0  0  0
  6  7  2  0  0  0
  6 39  1  0  0  0
  8 39  1  0  0  0
  8 45  1  0  0  0
  8 63  1  0  0  0
  9 10  2  0  0  0
  9 45  1  0  0  0
  9 67  1  0  0  0
 10 11  1  0  0  0
 10 49  1  0  0  0
 11 12  2  0  0  0
 11 51  1  0  0  0
 12 52  1  0  0  0
 12 68  1  0  0  0
 13 18  1  0  0  0
 13 24  2  0  0  0
 13 33  1  0  0  0
 13 44  1  0  0  0
 14 16  1  0  0  0
 14 21  1  0  0  0
 14 69  1  0  0  0
 14 70  1  0  0  0
 15 16  1  0  0  0
 15 39  1  0  0  0
 15 71  1  0  0  0
 16 52  1  0  0  0
 17 23  1  0  0  0
 17 46  2  0  0  0
 19 25  1  0  0  0
 19 38  1  0  0  0
 19 53  1  0  0  0
 19 72  1  0  0  0
 21 22  1  0  0  0
 21 28  1  0  0  0
 21 73  1  0  0  0
 22 74  1  0  0  0
 23 30  2  0  0  0
 23 75  1  0  0  0
 25 26  1  0  0  0
 25 31  1  0  0  0
 25 76  1  0  0  0
 26 77  1  0  0  0
 28 29  1  0  0  0
 28 34  1  0  0  0
 28 78  1  0  0  0
 29 79  1  0  0  0
 30 36  1  0  0  0
 31 32  1  0  0  0
 31 37  1  0  0  0
 31 80  1  0  0  0
 32 81  1  0  0  0
 34 35  1  0  0  0
 34 40  1  0  0  0
 34 82  1  0  0  0
 35 83  1  0  0  0
 36 42  2  0  0  0
 36 53  1  0  0  0
 37 38  1  0  0  0
 37 43  1  0  0  0
 37 84  1  0  0  0
 39 61  1  0  0  0
 40 41  1  0  0  0
 40 85  1  0  0  0
 40 86  1  0  0  0
 42 46  1  0  0  0
 42 48  1  0  0  0
 43 44  1  0  0  0
 43 87  1  0  0  0
 43 88  1  0  0  0
 45 52  2  0  0  0
 46 47  1  0  0  0
 47 89  1  0  0  0
 47 90  1  0  0  0
 48 50  2  0  0  0
 49 91  1  0  0  0
 49 92  1  0  0  0
 49 93  1  0  0  0
 50 53  1  0  0  0
 50 94  1  0  0  0
 51 95  1  0  0  0
 51 96  1  0  0  0
 51 97  1  0  0  0
 54 63  1  0  0  0
 54 98  1  0  0  0
 54 99  1  0  0  0
 54100  1  0  0  0
 55 56  2  0  0  0
 55 57  1  0  0  0
 55101  1  0  0  0
 56 58  1  0  0  0
 56102  1  0  0  0
 57 59  2  0  0  0
 57103  1  0  0  0
 58 64  2  0  0  0
 58104  1  0  0  0
 59 64  1  0  0  0
 59105  1  0  0  0
 60 61  1  0  0  0
 60 63  1  0  0  0
 60106  1  0  0  0
 60107  1  0  0  0
 61 64  1  0  0  0
 61108  1  0  0  0
 62 63  1  0  0  0
 62109  1  0  0  0
 62110  1  0  0  0
 62111  1  0  0  0
M  CHG  3  18  -1  20  -1  54   1
M  END
> <s_m_source_file>
../4uvb_ligand.sdf

> <i_m_source_file_index>
1

> <s_epik_input>
bjFbY0hdbmMoW05IMl0pYyhjMTIpbltjSF1uMltDQEhdM1tDQEhdKFtPSF0pW0NASF0oW09IXSlbQ0BIXShPMylbQ0gyXU9bUEBdKD1PKShbT0hdKU9bUEBdKD1PKShbT0hdKU9bQ0gyXVtDQEBIXShbT0hdKVtDQEBIXShbT0hdKVtDQEBIXShbT0hdKVtDSDJdTihbQ0BASF00W05IXUMoPU8pW05IXUM1PU8pYyhbY0hdYyhbQ0gzXSljKFtjSF02KVtDSDNdKWM2TihbQ0BAXTQ1NylbQ0BdKFtOSDMrXSkoW0NIM10pW0NIMl1bQ0BIXTdjOFtjSF1bY0hdW2NIXVtjSF1bY0hdOA==

> <s_epik_cmdline>
J2VwaWtfYXBwJywgJy1pbWFlJywgJ2xpZ2FuZF9wcm8ubWFlJywgJy1vbWFlJywgJ2xpZ2FuZF9wcmVwLm1hZScsICctbXMnLCAnMScsICctcGgnLCAnNycsICctcGh0JywgJzAuNScsICctbnQn

> <r_lp_tautomer_probability>
0.999997216372483

> <r_epik_Ionization_Penalty>
  0.0166

> <r_epik_Ionization_Penalty_Charging>
  0.0101

> <r_epik_Ionization_Penalty_Neutral>
  0.0065

> <r_epik_State_Penalty>
  0.0072

> <r_epik_Charging_Adjusted_Penalty>
0.0172684044697197

> <i_epik_Tot_Q>
-1

> <i_epik_Tot_abs_Q>
3

> <s_epik_Chemistry_Notes>
This compound contains an acetal/aminal-like group ( X-CH(R)-Y where X, Y are N, S, or O) that may be acid/base labile, releasing an aldehyde.

$$$$
