4uvc_ligand
                    3D
 Schrodinger Suite 2020-3.
118125  0  0  1  0            999 V2000
   -6.4900   65.7070   90.5900 P   0  0  1  0  0  0
   -8.6400   58.1400   85.8140 N   0  3  0  0  0  0
   -9.6340   57.2140   85.9670 C   0  0  0  0  0  0
  -10.0210   56.8760   87.1130 O   0  5  0  0  0  0
  -10.2420   56.6450   84.9070 N   0  0  0  0  0  0
  -10.0370   57.0600   83.6490 C   0  0  0  0  0  0
  -10.5110   56.3850   82.7070 O   0  0  0  0  0  0
   -8.3820   58.2610   82.0130 N   0  0  0  0  0  0
   -7.6760   60.0950   80.6520 C   0  0  0  0  0  0
   -7.0050   61.2920   80.4850 C   0  0  0  0  0  0
   -6.3500   61.9290   81.6550 C   0  0  0  0  0  0
   -6.4100   61.3060   82.9090 C   0  0  0  0  0  0
   -6.6280   67.6350   88.4810 P   0  0  1  0  0  0
   -6.4190   60.0120   85.5280 C   0  0  0  0  0  0
   -8.1850   58.5000   84.5780 C   0  0  0  0  0  0
   -7.1480   59.4480   84.3670 N   0  0  0  0  0  0
   -4.0120   77.8930   89.9550 N   0  0  0  0  0  0
   -5.6330   68.1020   87.4300 O   0  0  0  0  0  0
   -6.0690   73.3350   88.5960 C   0  0  1  0  0  0
   -5.3230   65.0170   91.2770 O   0  5  0  0  0  0
   -7.3230   60.9550   86.3330 C   0  0  2  0  0  0
   -8.1490   61.7090   85.4370 O   0  0  0  0  0  0
   -5.2360   77.3680   90.2240 C   0  0  0  0  0  0
   -7.9320   66.9440   88.1110 O   0  5  0  0  0  0
   -6.3900   72.5270   87.3700 C   0  0  2  0  0  0
   -7.0070   73.3550   86.3930 O   0  0  0  0  0  0
   -7.5550   66.4160   91.4080 O   0  0  0  0  0  0
   -6.5390   61.9300   87.2040 C   0  0  2  0  0  0
   -5.6930   61.1960   88.0870 O   0  0  0  0  0  0
   -5.6360   76.1560   89.7880 N   0  0  0  0  0  0
   -7.2960   71.4510   87.9580 C   0  0  2  0  0  0
   -8.6810   71.8320   87.9900 O   0  0  0  0  0  0
   -5.8120   66.7450   89.5520 O   0  0  0  0  0  0
   -7.4520   62.8160   88.0460 C   0  0  2  0  0  0
   -8.5580   63.3340   87.2800 O   0  0  0  0  0  0
   -4.7890   75.3880   89.0410 C   0  0  0  0  0  0
   -6.8370   71.3180   89.3990 C   0  0  2  0  0  0
   -5.8610   72.3370   89.5870 O   0  0  0  0  0  0
   -8.8390   57.8940   83.3880 C   0  0  1  0  0  0
   -6.6190   63.9590   88.6320 C   0  0  0  0  0  0
   -7.3030   64.6520   89.6870 O   0  0  0  0  0  0
   -3.4350   75.8860   88.7030 C   0  0  0  0  0  0
   -6.2110   69.9660   89.6830 C   0  0  0  0  0  0
   -7.1140   68.9280   89.3130 O   0  0  0  0  0  0
   -7.7420   59.4600   81.8950 C   0  0  0  0  0  0
   -3.0850   77.2230   89.2190 C   0  0  0  0  0  0
   -1.8680   77.7340   88.9380 N   0  0  0  0  0  0
   -2.8120   74.9390   87.9670 N   0  0  0  0  0  0
   -6.9530   61.9340   79.1250 C   0  0  0  0  0  0
   -3.6950   73.9080   87.8450 C   0  0  0  0  0  0
   -5.6300   63.2430   81.4810 C   0  0  0  0  0  0
   -7.0800   60.0890   83.0890 C   0  0  0  0  0  0
   -4.8680   74.1820   88.4750 N   0  0  0  0  0  0
   -6.3580   57.7930   81.2880 N   0  3  0  0  0  0
   -6.6480   50.9290   81.5080 C   0  0  0  0  0  0
   -9.2630   56.2410   77.6030 C   0  0  0  0  0  0
   -7.7320   51.7380   81.1360 C   0  0  0  0  0  0
   -5.4100   51.5040   81.8230 C   0  0  0  0  0  0
   -8.0810   56.9650   77.7200 C   0  0  0  0  0  0
   -9.9030   55.8050   78.7590 C   0  0  0  0  0  0
   -7.5760   53.1270   81.0790 C   0  0  0  0  0  0
   -5.2540   52.8960   81.7660 C   0  0  0  0  0  0
   -7.5550   57.2450   78.9820 C   0  0  0  0  0  0
   -9.3770   56.0900   80.0210 C   0  0  0  0  0  0
   -6.1490   55.0770   81.3560 C   0  0  0  0  0  0
   -7.3000   55.7740   82.1090 C   0  0  0  0  0  0
   -6.3340   53.7040   81.3960 C   0  0  0  0  0  0
   -8.1940   56.8210   80.1570 C   0  0  0  0  0  0
   -7.6470   57.1130   81.4340 C   0  0  1  0  0  0
   -8.1654   59.6354   79.7933 H   0  0  0  0  0  0
   -5.9247   61.7788   83.7629 H   0  0  0  0  0  0
   -6.0857   59.1944   86.1841 H   0  0  0  0  0  0
   -5.5444   60.5767   85.1727 H   0  0  0  0  0  0
   -6.8704   74.0414   88.8582 H   0  0  0  0  0  0
   -7.9853   60.3511   86.9707 H   0  0  0  0  0  0
   -8.7990   61.1883   84.7184 H   0  0  0  0  0  0
   -5.9306   77.9568   90.8232 H   0  0  0  0  0  0
   -5.5468   72.1342   86.7829 H   0  0  0  0  0  0
   -6.4321   74.1601   85.9120 H   0  0  0  0  0  0
   -5.8977   62.5502   86.5605 H   0  0  0  0  0  0
   -4.9523   60.4917   87.6803 H   0  0  0  0  0  0
   -7.2822   70.5366   87.3468 H   0  0  0  0  0  0
   -9.2305   71.9876   87.0499 H   0  0  0  0  0  0
   -7.9431   62.2213   88.8303 H   0  0  0  0  0  0
   -9.2585   62.6426   86.7888 H   0  0  0  0  0  0
   -7.6687   71.4635   90.1041 H   0  0  0  0  0  0
   -8.3095   57.0480   82.9254 H   0  0  0  0  0  0
   -5.6816   63.5561   89.0432 H   0  0  0  0  0  0
   -6.3890   64.6880   87.8410 H   0  0  0  0  0  0
   -5.2818   69.8631   89.1033 H   0  0  0  0  0  0
   -5.9844   69.8850   90.7563 H   0  0  0  0  0  0
   -1.5892   78.7294   89.3141 H   0  0  0  0  0  0
   -1.1548   77.1551   88.3328 H   0  0  0  0  0  0
   -7.4953   61.3065   78.4024 H   0  0  0  0  0  0
   -5.9047   62.0363   78.8077 H   0  0  0  0  0  0
   -7.4210   62.9284   79.1708 H   0  0  0  0  0  0
   -3.4870   72.9813   87.3101 H   0  0  0  0  0  0
   -5.6975   63.5618   80.4304 H   0  0  0  0  0  0
   -4.5730   63.1217   81.7602 H   0  0  0  0  0  0
   -6.0945   64.0038   82.1256 H   0  0  0  0  0  0
   -5.9450   58.0136   82.2834 H   0  0  0  0  0  0
   -6.4997   58.7324   80.7335 H   0  0  0  0  0  0
   -5.6612   57.1438   80.7375 H   0  0  0  0  0  0
   -6.7697   49.8467   81.5522 H   0  0  0  0  0  0
   -9.6812   56.0188   76.6213 H   0  0  0  0  0  0
   -8.6932   51.2855   80.8920 H   0  0  0  0  0  0
   -4.5708   50.8711   82.1115 H   0  0  0  0  0  0
   -7.5652   57.3139   76.8254 H   0  0  0  0  0  0
  -10.8275   55.2332   78.6785 H   0  0  0  0  0  0
   -8.4149   53.7599   80.7897 H   0  0  0  0  0  0
   -4.2925   53.3479   82.0097 H   0  0  0  0  0  0
   -6.6242   57.8073   79.0567 H   0  0  0  0  0  0
   -9.8964   55.7374   80.9120 H   0  0  0  0  0  0
   -6.1381   55.4148   80.3092 H   0  0  0  0  0  0
   -5.1913   55.3316   81.8334 H   0  0  0  0  0  0
   -8.1892   55.1265   82.1000 H   0  0  0  0  0  0
   -6.9957   55.9645   83.1488 H   0  0  0  0  0  0
   -8.2055   58.5978   86.7149 H   0  0  0  0  0  0
  1 20  1  0  0  0
  1 27  2  0  0  0
  1 33  1  0  0  0
  1 41  1  0  0  0
  2  3  1  0  0  0
  2 15  2  0  0  0
  2118  1  0  0  0
  3  4  1  0  0  0
  3  5  2  0  0  0
  5  6  1  0  0  0
  6  7  2  0  0  0
  6 39  1  0  0  0
  8 39  1  0  0  0
  8 45  1  0  0  0
  8 69  1  0  0  0
  9 10  2  0  0  0
  9 45  1  0  0  0
  9 70  1  0  0  0
 10 11  1  0  0  0
 10 49  1  0  0  0
 11 12  2  0  0  0
 11 51  1  0  0  0
 12 52  1  0  0  0
 12 71  1  0  0  0
 13 18  2  0  0  0
 13 24  1  0  0  0
 13 33  1  0  0  0
 13 44  1  0  0  0
 14 16  1  0  0  0
 14 21  1  0  0  0
 14 72  1  0  0  0
 14 73  1  0  0  0
 15 16  1  0  0  0
 15 39  1  0  0  0
 16 52  1  0  0  0
 17 23  1  0  0  0
 17 46  2  0  0  0
 19 25  1  0  0  0
 19 38  1  0  0  0
 19 53  1  0  0  0
 19 74  1  0  0  0
 21 22  1  0  0  0
 21 28  1  0  0  0
 21 75  1  0  0  0
 22 76  1  0  0  0
 23 30  2  0  0  0
 23 77  1  0  0  0
 25 26  1  0  0  0
 25 31  1  0  0  0
 25 78  1  0  0  0
 26 79  1  0  0  0
 28 29  1  0  0  0
 28 34  1  0  0  0
 28 80  1  0  0  0
 29 81  1  0  0  0
 30 36  1  0  0  0
 31 32  1  0  0  0
 31 37  1  0  0  0
 31 82  1  0  0  0
 32 83  1  0  0  0
 34 35  1  0  0  0
 34 40  1  0  0  0
 34 84  1  0  0  0
 35 85  1  0  0  0
 36 42  2  0  0  0
 36 53  1  0  0  0
 37 38  1  0  0  0
 37 43  1  0  0  0
 37 86  1  0  0  0
 39 87  1  0  0  0
 40 41  1  0  0  0
 40 88  1  0  0  0
 40 89  1  0  0  0
 42 46  1  0  0  0
 42 48  1  0  0  0
 43 44  1  0  0  0
 43 90  1  0  0  0
 43 91  1  0  0  0
 45 52  2  0  0  0
 46 47  1  0  0  0
 47 92  1  0  0  0
 47 93  1  0  0  0
 48 50  2  0  0  0
 49 94  1  0  0  0
 49 95  1  0  0  0
 49 96  1  0  0  0
 50 53  1  0  0  0
 50 97  1  0  0  0
 51 98  1  0  0  0
 51 99  1  0  0  0
 51100  1  0  0  0
 54 69  1  0  0  0
 54101  1  0  0  0
 54102  1  0  0  0
 54103  1  0  0  0
 55 57  2  0  0  0
 55 58  1  0  0  0
 55104  1  0  0  0
 56 59  2  0  0  0
 56 60  1  0  0  0
 56105  1  0  0  0
 57 61  1  0  0  0
 57106  1  0  0  0
 58 62  2  0  0  0
 58107  1  0  0  0
 59 63  1  0  0  0
 59108  1  0  0  0
 60 64  2  0  0  0
 60109  1  0  0  0
 61 67  2  0  0  0
 61110  1  0  0  0
 62 67  1  0  0  0
 62111  1  0  0  0
 63 68  2  0  0  0
 63112  1  0  0  0
 64 68  1  0  0  0
 64113  1  0  0  0
 65 66  1  0  0  0
 65 67  1  0  0  0
 65114  1  0  0  0
 65115  1  0  0  0
 66 69  1  0  0  0
 66116  1  0  0  0
 66117  1  0  0  0
 68 69  1  0  0  0
M  CHG  5   2   1   4  -1  20  -1  24  -1  54   1
M  END
> <s_m_source_file>
../4uvc_ligand.sdf

> <i_m_source_file_index>
1

> <s_epik_input>
bjFbY0hdbmMoW05IMl0pYyhjMTIpbltjSF1uMltDQEhdM1tDQEhdKFtPSF0pW0NASF0oW09IXSlbQ0BIXShPMylbQ0gyXU9bUEBdKD1PKShbT0hdKU9bUEBdKD1PKShbT0hdKU9bQ0gyXVtDQEBIXShbT0hdKVtDQEBIXShbT0hdKVtDQEBIXShbT0hdKVtDSDJdTjRjKFtjSF1jKFtDSDNdKWMoW2NIXTUpW0NIM10pYzVOKFtDQEBIXShDNDYpQyg9TylbTkhdQyhOPTYpPU8pW0NAXShbTkgzK10pKGM3W2NIXVtjSF1bY0hdW2NIXVtjSF03KVtDSDJdW0NIMl1jOFtjSF1bY0hdW2NIXVtjSF1bY0hdOA==

> <s_epik_cmdline>
J2VwaWtfYXBwJywgJy1pbWFlJywgJ2xpZ2FuZF9wcm8ubWFlJywgJy1vbWFlJywgJ2xpZ2FuZF9wcmVwLm1hZScsICctbXMnLCAnMScsICctcGgnLCAnNycsICctcGh0JywgJzAuNScsICctbnQn

> <r_lp_tautomer_probability>
8.12709093639394e-15

> <r_epik_Ionization_Penalty>
  0.5451

> <r_epik_Ionization_Penalty_Charging>
  0.5445

> <r_epik_Ionization_Penalty_Neutral>
  0.0006

> <r_epik_State_Penalty>
  0.3784

> <r_epik_Charging_Adjusted_Penalty>
0.922921017718623

> <i_epik_Tot_Q>
-1

> <i_epik_Tot_abs_Q>
5

> <s_epik_Chemistry_Notes>
This compound has an imine and may undergo hydrolysis. This compound contains an acetal/aminal-like group ( X-CH(R)-Y where X, Y are N, S, or O) that may be acid/base labile, releasing an aldehyde.

$$$$
