4uvu_ligand
                    3D
 Schrodinger Suite 2020-3.
 47 50  0  0  1  0            999 V2000
  -37.8950  -10.8990    4.4850 C   0  0  0  0  0  0
  -38.7960  -10.4820    3.3520 C   0  0  0  0  0  0
  -39.6690   -9.4880    4.1550 C   0  0  0  0  0  0
  -39.9030  -10.1580    5.5100 C   0  0  0  0  0  0
  -38.8110  -11.1070    5.5850 N   0  3  0  0  0  0
  -38.0220  -10.5120    6.6480 C   0  0  0  0  0  0
  -38.2220  -11.0260    7.9510 C   0  0  0  0  0  0
  -37.7760  -10.1920    8.9670 C   0  0  0  0  0  0
  -37.8460  -10.5860   10.2840 C   0  0  0  0  0  0
  -38.7230  -12.2940    8.2910 C   0  0  0  0  0  0
  -38.7990  -12.6880    9.6440 C   0  0  0  0  0  0
  -38.3090  -11.8520   10.6600 C   0  0  0  0  0  0
  -38.3740  -12.1210   12.0420 C   0  0  0  0  0  0
  -39.2190  -13.0960   12.5710 C   0  0  0  0  0  0
  -39.2780  -13.2900   13.9480 C   0  0  0  0  0  0
  -40.1130  -14.2910   14.4890 C   0  0  0  0  0  0
  -40.9220  -15.1310   13.6710 C   0  0  0  0  0  0
  -40.1800  -14.4410   15.8830 C   0  0  0  0  0  0
  -39.4360  -13.6270   16.7190 C   0  0  0  0  0  0
  -38.5770  -12.6480   16.1710 C   0  0  0  0  0  0
  -38.5030  -12.4720   14.8010 C   0  0  0  0  0  0
  -37.6330  -11.4930   14.2650 C   0  0  0  0  0  0
  -36.8780  -10.7840   14.9370 O   0  0  0  0  0  0
  -37.5770  -11.3460   12.9200 N   0  0  0  0  0  0
  -37.3583  -11.8181    4.2074 H   0  0  0  0  0  0
  -37.1692  -10.0983    4.6900 H   0  0  0  0  0  0
  -38.1922  -10.0331    2.5495 H   0  0  0  0  0  0
  -39.3268  -11.3631    2.9623 H   0  0  0  0  0  0
  -39.1322   -8.5341    4.2644 H   0  0  0  0  0  0
  -40.6154   -9.3170    3.6211 H   0  0  0  0  0  0
  -39.8641   -9.3995    6.3057 H   0  0  0  0  0  0
  -40.8903  -10.6429    5.5137 H   0  0  0  0  0  0
  -39.1736  -12.1434    5.6513 H   0  0  0  0  0  0
  -36.9523  -10.6513    6.4326 H   0  0  0  0  0  0
  -38.2459   -9.4370    6.7131 H   0  0  0  0  0  0
  -37.3654   -9.2133    8.7189 H   0  0  0  0  0  0
  -37.5303   -9.8887   11.0600 H   0  0  0  0  0  0
  -39.0540  -12.9754    7.5073 H   0  0  0  0  0  0
  -39.2420  -13.6498    9.9025 H   0  0  0  0  0  0
  -39.8324  -13.7053   11.9072 H   0  0  0  0  0  0
  -40.7514  -14.8861   12.6123 H   0  0  0  0  0  0
  -41.9821  -14.9722   13.9179 H   0  0  0  0  0  0
  -40.6572  -16.1833   13.8512 H   0  0  0  0  0  0
  -40.8255  -15.2075   16.3120 H   0  0  0  0  0  0
  -39.5126  -13.7411   17.8003 H   0  0  0  0  0  0
  -37.9698  -12.0285   16.8310 H   0  0  0  0  0  0
  -36.8834  -10.5946   12.5146 H   0  0  0  0  0  0
  1  2  1  0  0  0
  1  5  1  0  0  0
  1 25  1  0  0  0
  1 26  1  0  0  0
  2  3  1  0  0  0
  2 27  1  0  0  0
  2 28  1  0  0  0
  3  4  1  0  0  0
  3 29  1  0  0  0
  3 30  1  0  0  0
  4  5  1  0  0  0
  4 31  1  0  0  0
  4 32  1  0  0  0
  5  6  1  0  0  0
  5 33  1  0  0  0
  6  7  1  0  0  0
  6 34  1  0  0  0
  6 35  1  0  0  0
  7  8  2  0  0  0
  7 10  1  0  0  0
  8  9  1  0  0  0
  8 36  1  0  0  0
  9 12  2  0  0  0
  9 37  1  0  0  0
 10 11  2  0  0  0
 10 38  1  0  0  0
 11 12  1  0  0  0
 11 39  1  0  0  0
 12 13  1  0  0  0
 13 14  2  0  0  0
 13 24  1  0  0  0
 14 15  1  0  0  0
 14 40  1  0  0  0
 15 16  2  0  0  0
 15 21  1  0  0  0
 16 17  1  0  0  0
 16 18  1  0  0  0
 17 41  1  0  0  0
 17 42  1  0  0  0
 17 43  1  0  0  0
 18 19  2  0  0  0
 18 44  1  0  0  0
 19 20  1  0  0  0
 19 45  1  0  0  0
 20 21  2  0  0  0
 20 46  1  0  0  0
 21 22  1  0  0  0
 22 23  2  0  0  0
 22 24  1  0  0  0
 24 47  1  0  0  0
M  CHG  1   5   1
M  END
> <s_m_source_file>
../4uvu_ligand.sdf

> <i_m_source_file_index>
1

> <s_epik_input>
W0NIMl0xW0NIMl1bQ0gyXVtDSDJdW05IK10xW0NIMl1jMltjSF1bY0hdYyhbY0hdW2NIXTIpLWMoW2NIXTMpW25IXWMoPU8pYyhjMzQpW2NIXVtjSF1bY0hdYzRbQ0gzXQ==

> <s_epik_cmdline>
J2VwaWtfYXBwJywgJy1pbWFlJywgJ2xpZ2FuZF9wcm8ubWFlJywgJy1vbWFlJywgJ2xpZ2FuZF9wcmVwLm1hZScsICctbXMnLCAnMScsICctcGgnLCAnNycsICctcGh0JywgJzAuNScsICctbnQn

> <r_epik_Ionization_Penalty>
  0.0109

> <r_epik_Ionization_Penalty_Charging>
  0.0109

> <r_epik_Ionization_Penalty_Neutral>
  0.0000

> <r_epik_State_Penalty>
  0.0081

> <r_epik_Charging_Adjusted_Penalty>
0.0189209900722973

> <i_epik_Tot_Q>
1

> <i_epik_Tot_abs_Q>
1

$$$$
