4uvw_ligand
                    3D
 Schrodinger Suite 2020-3.
 34 36  0  0  1  0            999 V2000
  -41.6650  -12.8050   11.2540 C   0  0  0  0  0  0
  -40.8920  -12.1160   12.2460 C   0  0  0  0  0  0
  -41.0610  -12.3460   13.6420 C   0  0  0  0  0  0
  -41.9790  -13.3090   14.1980 C   0  0  0  0  0  0
  -42.8180  -14.1700   13.4250 C   0  0  0  0  0  0
  -42.1080  -13.4560   15.5880 C   0  0  0  0  0  0
  -41.3320  -12.6780   16.4550 C   0  0  0  0  0  0
  -40.4420  -11.7500   15.9320 C   0  0  0  0  0  0
  -40.2850  -11.5770   14.5580 C   0  0  0  0  0  0
  -39.3470  -10.6380   14.0920 C   0  0  0  0  0  0
  -38.6290   -9.9670   14.8500 O   0  0  0  0  0  0
  -39.1890  -10.4350   12.7140 N   0  0  0  0  0  0
  -39.9600  -11.1440   11.7740 C   0  0  0  0  0  0
  -39.7090  -10.8670   10.4050 C   0  0  0  0  0  0
  -39.5840  -11.8790    9.4430 C   0  0  0  0  0  0
  -39.2700  -11.5650    8.1110 C   0  0  0  0  0  0
  -39.1080  -10.2310    7.7130 C   0  0  0  0  0  0
  -39.2040   -9.2320    8.6760 C   0  0  0  0  0  0
  -39.4980   -9.5570    9.9810 C   0  0  0  0  0  0
  -42.3392  -13.5210   11.7467 H   0  0  0  0  0  0
  -40.9904  -13.3452   10.5735 H   0  0  0  0  0  0
  -42.2583  -12.0773   10.6809 H   0  0  0  0  0  0
  -42.6477  -13.9834   12.3544 H   0  0  0  0  0  0
  -43.8719  -13.9706   13.6689 H   0  0  0  0  0  0
  -42.5800  -15.2186   13.6568 H   0  0  0  0  0  0
  -42.8155  -14.1791   15.9939 H   0  0  0  0  0  0
  -41.4260  -12.8001   17.5341 H   0  0  0  0  0  0
  -39.8499  -11.1401   16.6143 H   0  0  0  0  0  0
  -38.4495   -9.7084   12.3463 H   0  0  0  0  0  0
  -39.7320  -12.9196    9.7318 H   0  0  0  0  0  0
  -39.1513  -12.3653    7.3805 H   0  0  0  0  0  0
  -38.9109   -9.9816    6.6704 H   0  0  0  0  0  0
  -39.0462   -8.1902    8.3970 H   0  0  0  0  0  0
  -39.5688   -8.7540   10.7147 H   0  0  0  0  0  0
  1  2  1  0  0  0
  1 20  1  0  0  0
  1 21  1  0  0  0
  1 22  1  0  0  0
  2  3  1  0  0  0
  2 13  2  0  0  0
  3  4  2  0  0  0
  3  9  1  0  0  0
  4  5  1  0  0  0
  4  6  1  0  0  0
  5 23  1  0  0  0
  5 24  1  0  0  0
  5 25  1  0  0  0
  6  7  2  0  0  0
  6 26  1  0  0  0
  7  8  1  0  0  0
  7 27  1  0  0  0
  8  9  2  0  0  0
  8 28  1  0  0  0
  9 10  1  0  0  0
 10 11  2  0  0  0
 10 12  1  0  0  0
 12 13  1  0  0  0
 12 29  1  0  0  0
 13 14  1  0  0  0
 14 15  2  0  0  0
 14 19  1  0  0  0
 15 16  1  0  0  0
 15 30  1  0  0  0
 16 17  2  0  0  0
 16 31  1  0  0  0
 17 18  1  0  0  0
 17 32  1  0  0  0
 18 19  2  0  0  0
 18 33  1  0  0  0
 19 34  1  0  0  0
M  END
> <s_m_source_file>
../4uvw_ligand.sdf

> <i_m_source_file_index>
1

> <s_epik_input>
W2NIXTFbY0hdW2NIXVtjSF1bY0hdYzEtYyhjMltDSDNdKVtuSF1jKD1PKWMoYzIzKVtjSF1bY0hdW2NIXWMzW0NIM10=

> <s_epik_cmdline>
J2VwaWtfYXBwJywgJy1pbWFlJywgJ2xpZ2FuZF9wcm8ubWFlJywgJy1vbWFlJywgJ2xpZ2FuZF9wcmVwLm1hZScsICctbXMnLCAnMScsICctcGgnLCAnNycsICctcGh0JywgJzAuNScsICctbnQn

> <r_lp_tautomer_probability>
1

> <r_epik_Ionization_Penalty>
  0.0000

> <r_epik_Ionization_Penalty_Charging>
  0.0000

> <r_epik_Ionization_Penalty_Neutral>
  0.0000

> <r_epik_State_Penalty>
 -0.0000

> <r_epik_Charging_Adjusted_Penalty>
3.7448665740557e-05

> <i_epik_Tot_Q>
0

> <i_epik_Tot_abs_Q>
0

$$$$
