4uvy_ligand
                    3D
 Schrodinger Suite 2020-3.
 32 34  0  0  1  0            999 V2000
  -39.9880  -13.6410   16.8730 C   0  0  0  0  0  0
  -40.7360  -14.4440   16.0140 C   0  0  0  0  0  0
  -40.6900  -14.2380   14.6290 C   0  0  0  0  0  0
  -39.8890  -13.1960   14.1100 C   0  0  0  0  0  0
  -39.1400  -12.3880   15.0030 C   0  0  0  0  0  0
  -39.1800  -12.6090   16.3740 C   0  0  0  0  0  0
  -38.3370  -11.3690   14.5030 C   0  0  0  0  0  0
  -38.3080  -11.1450   13.1250 N   0  0  0  0  0  0
  -37.6570  -10.6650   15.2410 O   0  0  0  0  0  0
  -38.9960  -11.6400   10.7830 C   0  0  0  0  0  0
  -39.6070  -12.4570    9.8110 C   0  0  0  0  0  0
  -39.5580  -12.1360    8.4410 C   0  0  0  0  0  0
  -38.9380  -10.9700    7.9920 C   0  0  0  0  0  0
  -38.3480  -10.1320    8.9350 C   0  0  0  0  0  0
  -38.3800  -10.4630   10.2930 C   0  0  0  0  0  0
  -38.8840  -10.5640    6.2360 Cl  0  0  0  0  0  0
  -39.0430  -11.9300   12.1880 C   0  0  0  0  0  0
  -39.8420  -12.9620   12.7260 C   0  0  0  0  0  0
  -41.7650  -16.3280   14.1830 C   0  0  0  0  0  0
  -41.4160  -15.0050   13.7290 O   0  0  0  0  0  0
  -40.0316  -13.8175   17.9477 H   0  0  0  0  0  0
  -41.3612  -15.2379   16.4226 H   0  0  0  0  0  0
  -38.5923  -11.9897   17.0516 H   0  0  0  0  0  0
  -37.6961  -10.3289   12.7132 H   0  0  0  0  0  0
  -40.1302  -13.3593   10.1274 H   0  0  0  0  0  0
  -40.0134  -12.8118    7.7172 H   0  0  0  0  0  0
  -37.8586   -9.2130    8.6125 H   0  0  0  0  0  0
  -37.9101   -9.7853   11.0058 H   0  0  0  0  0  0
  -40.4322  -13.5875   12.0562 H   0  0  0  0  0  0
  -42.3352  -16.8464   13.3981 H   0  0  0  0  0  0
  -42.3782  -16.2534   15.0931 H   0  0  0  0  0  0
  -40.8478  -16.8936   14.4042 H   0  0  0  0  0  0
  1  2  2  0  0  0
  1  6  1  0  0  0
  1 21  1  0  0  0
  2  3  1  0  0  0
  2 22  1  0  0  0
  3  4  2  0  0  0
  3 20  1  0  0  0
  4  5  1  0  0  0
  4 18  1  0  0  0
  5  6  2  0  0  0
  5  7  1  0  0  0
  6 23  1  0  0  0
  7  8  1  0  0  0
  7  9  2  0  0  0
  8 17  1  0  0  0
  8 24  1  0  0  0
 10 11  2  0  0  0
 10 15  1  0  0  0
 10 17  1  0  0  0
 11 12  1  0  0  0
 11 25  1  0  0  0
 12 13  2  0  0  0
 12 26  1  0  0  0
 13 14  1  0  0  0
 13 16  1  0  0  0
 14 15  2  0  0  0
 14 27  1  0  0  0
 15 28  1  0  0  0
 17 18  2  0  0  0
 18 29  1  0  0  0
 19 20  1  0  0  0
 19 30  1  0  0  0
 19 31  1  0  0  0
 19 32  1  0  0  0
M  END
> <s_m_source_file>
../4uvy_ligand.sdf

> <i_m_source_file_index>
1

> <s_epik_input>
W0NIM11PYzFbY0hdW2NIXVtjSF1jKGMxMiljKD1PKVtuSF1jKFtjSF0yKS1jM1tjSF1bY0hdYyhDbClbY0hdW2NIXTM=

> <s_epik_cmdline>
J2VwaWtfYXBwJywgJy1pbWFlJywgJ2xpZ2FuZF9wcm8ubWFlJywgJy1vbWFlJywgJ2xpZ2FuZF9wcmVwLm1hZScsICctbXMnLCAnMScsICctcGgnLCAnNycsICctcGh0JywgJzAuNScsICctbnQn

> <r_lp_tautomer_probability>
1

> <r_epik_Ionization_Penalty>
  0.0001

> <r_epik_Ionization_Penalty_Charging>
  0.0001

> <r_epik_Ionization_Penalty_Neutral>
  0.0000

> <r_epik_State_Penalty>
 -0.0000

> <r_epik_Charging_Adjusted_Penalty>
0.000136306652598391

> <i_epik_Tot_Q>
0

> <i_epik_Tot_abs_Q>
0

$$$$
