4uwg_ligand
                    3D
 Schrodinger Suite 2020-3.
 53 55  0  0  1  0            999 V2000
   18.7570  -16.8840  -24.4970 C   0  0  3  0  0  0
   18.1610  -15.6910  -24.1590 N   0  0  0  0  0  0
   18.0100  -18.0700  -24.6350 N   0  0  0  0  0  0
   16.7440  -15.5940  -23.9340 C   0  0  0  0  0  0
   20.2260  -16.8870  -24.6960 N   0  0  2  0  0  0
   16.5680  -18.0200  -24.4770 C   0  0  0  0  0  0
   15.9680  -16.7700  -24.0980 C   0  0  0  0  0  0
   20.8280  -18.1440  -25.1820 C   0  0  2  0  0  0
   20.9050  -18.1820  -26.6940 C   0  0  0  0  0  0
   16.2810  -14.3710  -23.7350 N   0  0  0  0  0  0
   18.6660  -19.4080  -24.8310 C   0  0  0  0  0  0
   20.1690  -19.3770  -24.5410 C   0  0  0  0  0  0
   15.9800  -19.0530  -24.7700 O   0  0  0  0  0  0
   21.4010  -19.3350  -27.1380 F   0  0  0  0  0  0
   19.7230  -18.0200  -27.2800 F   0  0  0  0  0  0
   21.6890  -17.2220  -27.1590 F   0  0  0  0  0  0
   15.3130  -11.8840  -22.8220 O   0  0  0  0  0  0
   20.9840  -16.2300  -23.6290 C   0  0  0  0  0  0
   17.2050  -13.2350  -23.5340 C   0  0  0  0  0  0
   14.8640  -13.9960  -23.9160 C   0  0  0  0  0  0
   21.2050  -14.7550  -23.7450 C   0  0  0  0  0  0
   21.4570  -14.2230  -22.4430 O   0  0  0  0  0  0
   14.4510  -13.0160  -22.8490 C   0  0  0  0  0  0
   16.6440  -12.2900  -22.5020 C   0  0  0  0  0  0
   21.1350  -12.8410  -22.2060 C   0  0  0  0  0  0
   22.0850  -12.0050  -23.0090 C   0  0  0  0  0  0
   21.3040  -12.6120  -20.7550 C   0  0  0  0  0  0
   15.4637  -17.0116  -23.1507 H   0  0  0  0  0  0
   15.2149  -16.6059  -24.8828 H   0  0  0  0  0  0
   21.8740  -18.1316  -24.8419 H   0  0  0  0  0  0
   18.2073  -20.1439  -24.1542 H   0  0  0  0  0  0
   18.5305  -19.7337  -25.8729 H   0  0  0  0  0  0
   20.6261  -20.2907  -24.9488 H   0  0  0  0  0  0
   20.3177  -19.3475  -23.4515 H   0  0  0  0  0  0
   20.4644  -16.3712  -22.6698 H   0  0  0  0  0  0
   21.9902  -16.6705  -23.5693 H   0  0  0  0  0  0
   18.1791  -13.6114  -23.1883 H   0  0  0  0  0  0
   17.3363  -12.6965  -24.4842 H   0  0  0  0  0  0
   14.7308  -13.5325  -24.9047 H   0  0  0  0  0  0
   14.2347  -14.8954  -23.8449 H   0  0  0  0  0  0
   22.0685  -14.5640  -24.3991 H   0  0  0  0  0  0
   20.3088  -14.2825  -24.1735 H   0  0  0  0  0  0
   14.4847  -13.5258  -21.8749 H   0  0  0  0  0  0
   13.4216  -12.6881  -23.0558 H   0  0  0  0  0  0
   17.2957  -11.4051  -22.4539 H   0  0  0  0  0  0
   16.6473  -12.8012  -21.5280 H   0  0  0  0  0  0
   20.1001  -12.6133  -22.5012 H   0  0  0  0  0  0
   21.9307  -12.2013  -24.0803 H   0  0  0  0  0  0
   23.1194  -12.2597  -22.7348 H   0  0  0  0  0  0
   21.9022  -10.9404  -22.8013 H   0  0  0  0  0  0
   20.5925  -13.2404  -20.1993 H   0  0  0  0  0  0
   21.1140  -11.5529  -20.5264 H   0  0  0  0  0  0
   22.3312  -12.8723  -20.4599 H   0  0  0  0  0  0
  1  2  1  0  0  0
  1  3  1  0  0  0
  1  5  1  0  0  0
  2  4  2  0  0  0
  3  6  1  0  0  0
  3 11  1  0  0  0
  4  7  1  0  0  0
  4 10  1  0  0  0
  5  8  1  0  0  0
  5 18  1  0  0  0
  6  7  1  0  0  0
  6 13  2  0  0  0
  7 28  1  0  0  0
  7 29  1  0  0  0
  8  9  1  0  0  0
  8 12  1  0  0  0
  8 30  1  0  0  0
  9 14  1  0  0  0
  9 15  1  0  0  0
  9 16  1  0  0  0
 10 19  1  0  0  0
 10 20  1  0  0  0
 11 12  1  0  0  0
 11 31  1  0  0  0
 11 32  1  0  0  0
 12 33  1  0  0  0
 12 34  1  0  0  0
 17 23  1  0  0  0
 17 24  1  0  0  0
 18 21  1  0  0  0
 18 35  1  0  0  0
 18 36  1  0  0  0
 19 24  1  0  0  0
 19 37  1  0  0  0
 19 38  1  0  0  0
 20 23  1  0  0  0
 20 39  1  0  0  0
 20 40  1  0  0  0
 21 22  1  0  0  0
 21 41  1  0  0  0
 21 42  1  0  0  0
 22 25  1  0  0  0
 23 43  1  0  0  0
 23 44  1  0  0  0
 24 45  1  0  0  0
 24 46  1  0  0  0
 25 26  1  0  0  0
 25 27  1  0  0  0
 25 47  1  0  0  0
 26 48  1  0  0  0
 26 49  1  0  0  0
 26 50  1  0  0  0
 27 51  1  0  0  0
 27 52  1  0  0  0
 27 53  1  0  0  0
M  END
> <s_m_source_file>
../4uwg_ligand.sdf

> <i_m_source_file_index>
1

> <s_epik_input>
W0NIM11bQ0hdKFtDSDNdKU9bQ0gyXVtDSDJdTjFbQ0BIXShDKEYpKEYpRilbQ0gyXVtDSDJdTihbQ0hdMTIpQyg9TylbQ0gyXUMoW05IXTIpPVtOK10zW0NIMl1bQ0gyXU9bQ0gyXVtDSDJdMw==

> <s_epik_cmdline>
J2VwaWtfYXBwJywgJy1pbWFlJywgJ2xpZ2FuZF9wcm8ubWFlJywgJy1vbWFlJywgJ2xpZ2FuZF9wcmVwLm1hZScsICctbXMnLCAnMScsICctcGgnLCAnNycsICctcGh0JywgJzAuNScsICctbnQn

> <r_lp_tautomer_probability>
1

> <r_epik_Ionization_Penalty>
  0.0002

> <r_epik_Ionization_Penalty_Charging>
  0.0000

> <r_epik_Ionization_Penalty_Neutral>
  0.0002

> <r_epik_State_Penalty>
 -0.0000

> <r_epik_Charging_Adjusted_Penalty>
0

> <i_epik_Tot_Q>
0

> <i_epik_Tot_abs_Q>
0

> <s_epik_Chemistry_Notes>
This compound has an imine and may undergo hydrolysis.

$$$$
