4uwh_ligand
                    3D
 Schrodinger Suite 2020-3.
 54 57  0  0  1  0            999 V2000
   23.0710  -10.1100  -20.9490 C   0  0  0  0  0  0
   21.8600  -10.6990  -20.5360 C   0  0  0  0  0  0
   24.0210  -10.8650  -21.6800 C   0  0  0  0  0  0
   21.6020  -12.0540  -20.8670 C   0  0  0  0  0  0
   23.7710  -12.2230  -22.0130 C   0  0  0  0  0  0
   22.5540  -12.8340  -21.6100 C   0  0  0  0  0  0
   16.7210  -15.9400  -22.6570 C   0  0  0  0  0  0
   17.4220  -14.7640  -22.5230 C   0  0  0  0  0  0
   17.4300  -17.1920  -23.0780 C   0  0  0  0  0  0
   19.4710  -15.8110  -23.1590 C   0  0  3  0  0  0
   21.0510  -18.1650  -23.3250 C   0  0  0  0  0  0
   19.5760  -18.2670  -23.7080 C   0  0  0  0  0  0
   17.6980  -12.3000  -22.0370 C   0  0  0  0  0  0
   15.3840  -13.2410  -22.3810 C   0  0  0  0  0  0
   17.0860  -11.2850  -21.0890 C   0  0  0  0  0  0
   14.8830  -12.1010  -21.4930 C   0  0  0  0  0  0
   21.6610  -16.8540  -23.8650 C   0  0  1  0  0  0
   21.5590  -14.4070  -23.3010 C   0  0  0  0  0  0
   22.3010  -14.2870  -21.9670 C   0  0  2  0  0  0
   21.7480  -16.8460  -25.3860 C   0  0  0  0  0  0
   18.7870  -14.7590  -22.7710 N   0  0  0  0  0  0
   16.8230  -13.5260  -22.1430 N   0  0  0  0  0  0
   18.8170  -17.0610  -23.3040 N   0  0  0  0  0  0
   20.8520  -15.6990  -23.4310 N   0  0  3  0  0  0
   16.8010  -18.2320  -23.1940 O   0  0  0  0  0  0
   15.7800  -10.9860  -21.5740 O   0  0  0  0  0  0
   21.5730  -14.9000  -20.9150 O   0  0  0  0  0  0
   22.3840  -17.9520  -25.8030 F   0  0  0  0  0  0
   20.5420  -16.8330  -26.0050 F   0  0  0  0  0  0
   22.4570  -15.7690  -25.8180 F   0  0  0  0  0  0
   23.2782   -9.0681  -20.7049 H   0  0  0  0  0  0
   21.1303  -10.1208  -19.9692 H   0  0  0  0  0  0
   24.9555  -10.3979  -21.9908 H   0  0  0  0  0  0
   20.6645  -12.5123  -20.5521 H   0  0  0  0  0  0
   24.5100  -12.7937  -22.5754 H   0  0  0  0  0  0
   15.6399  -15.9619  -22.4552 H   0  0  0  0  0  0
   21.1471  -18.1788  -22.2293 H   0  0  0  0  0  0
   21.6005  -19.0169  -23.7520 H   0  0  0  0  0  0
   19.4874  -18.3810  -24.7985 H   0  0  0  0  0  0
   19.1275  -19.1395  -23.2105 H   0  0  0  0  0  0
   17.8042  -11.8514  -23.0357 H   0  0  0  0  0  0
   18.6878  -12.6008  -21.6631 H   0  0  0  0  0  0
   14.8086  -14.1534  -22.1658 H   0  0  0  0  0  0
   15.2541  -12.9665  -23.4382 H   0  0  0  0  0  0
   17.0334  -11.7134  -20.0772 H   0  0  0  0  0  0
   17.7083  -10.3781  -21.0712 H   0  0  0  0  0  0
   13.8838  -11.7867  -21.8288 H   0  0  0  0  0  0
   14.8276  -12.4459  -20.4499 H   0  0  0  0  0  0
   22.6732  -16.7415  -23.4493 H   0  0  0  0  0  0
   20.8153  -13.6004  -23.3807 H   0  0  0  0  0  0
   22.2783  -14.3257  -24.1293 H   0  0  0  0  0  0
   23.2464  -14.8463  -22.0253 H   0  0  0  0  0  0
   19.3655  -13.8320  -22.6448 H   0  0  0  0  0  0
   21.9771  -14.8969  -19.8919 H   0  0  0  0  0  0
  1  2  2  0  0  0
  1  3  1  0  0  0
  1 31  1  0  0  0
  2  4  1  0  0  0
  2 32  1  0  0  0
  3  5  2  0  0  0
  3 33  1  0  0  0
  4  6  2  0  0  0
  4 34  1  0  0  0
  5  6  1  0  0  0
  5 35  1  0  0  0
  6 19  1  0  0  0
  7  8  2  0  0  0
  7  9  1  0  0  0
  7 36  1  0  0  0
  8 21  1  0  0  0
  8 22  1  0  0  0
  9 23  1  0  0  0
  9 25  2  0  0  0
 10 21  1  0  0  0
 10 23  1  0  0  0
 10 24  1  0  0  0
 11 12  1  0  0  0
 11 17  1  0  0  0
 11 37  1  0  0  0
 11 38  1  0  0  0
 12 23  1  0  0  0
 12 39  1  0  0  0
 12 40  1  0  0  0
 13 15  1  0  0  0
 13 22  1  0  0  0
 13 41  1  0  0  0
 13 42  1  0  0  0
 14 16  1  0  0  0
 14 22  1  0  0  0
 14 43  1  0  0  0
 14 44  1  0  0  0
 15 26  1  0  0  0
 15 45  1  0  0  0
 15 46  1  0  0  0
 16 26  1  0  0  0
 16 47  1  0  0  0
 16 48  1  0  0  0
 17 20  1  0  0  0
 17 24  1  0  0  0
 17 49  1  0  0  0
 18 19  1  0  0  0
 18 24  1  0  0  0
 18 50  1  0  0  0
 18 51  1  0  0  0
 19 27  1  0  0  0
 19 52  1  0  0  0
 20 28  1  0  0  0
 20 29  1  0  0  0
 20 30  1  0  0  0
 21 53  1  0  0  0
 27 54  1  0  0  0
M  END
> <s_m_source_file>
../4uwh_ligand.sdf

> <i_m_source_file_index>
1

> <s_epik_input>
W2NIXTFbY0hdW2NIXVtjSF1bY0hdYzFbQ0BASF0oW09IXSlbQ0gyXU4yW0NASF0oQyhGKShGKUYpW0NIMl1bQ0gyXU4oW0NIXTIzKUMoPU8pW0NIXT1DKFtOSF0zKU40W0NIMl1bQ0gyXU9bQ0gyXVtDSDJdNA==

> <s_epik_cmdline>
J2VwaWtfYXBwJywgJy1pbWFlJywgJ2xpZ2FuZF9wcm8ubWFlJywgJy1vbWFlJywgJ2xpZ2FuZF9wcmVwLm1hZScsICctbXMnLCAnMScsICctcGgnLCAnNycsICctcGh0JywgJzAuNScsICctbnQn

> <r_lp_tautomer_probability>
1

> <r_epik_Ionization_Penalty>
  0.0000

> <r_epik_Ionization_Penalty_Charging>
  0.0000

> <r_epik_Ionization_Penalty_Neutral>
  0.0000

> <r_epik_State_Penalty>
 -0.0000

> <r_epik_Charging_Adjusted_Penalty>
0

> <i_epik_Tot_Q>
0

> <i_epik_Tot_abs_Q>
0

$$$$
