4uwk_ligand
                    3D
 Schrodinger Suite 2020-3.
 53 56  0  0  1  0            999 V2000
   20.6730  -18.3380  -25.4760 C   0  0  1  0  0  0
   18.8020  -17.0550  -24.4420 C   0  0  3  0  0  0
   18.0450  -18.2130  -24.3920 N   0  0  0  0  0  0
   20.2220  -17.1360  -24.7560 N   0  0  1  0  0  0
   18.2810  -15.8370  -24.1500 N   0  0  0  0  0  0
   16.6500  -18.1220  -24.0680 C   0  0  0  0  0  0
   18.5760  -19.5550  -24.7550 C   0  0  0  0  0  0
   16.9360  -15.6820  -23.6890 C   0  0  0  0  0  0
   16.1290  -16.8230  -23.6970 C   0  0  0  0  0  0
   16.0330  -19.1720  -24.1220 O   0  0  0  0  0  0
   20.1010  -19.6290  -24.8650 C   0  0  0  0  0  0
   15.0870  -14.0590  -23.6480 C   0  0  2  0  0  0
   14.6770  -12.9030  -22.7710 C   0  0  0  0  0  0
   15.5550  -11.7830  -22.9190 O   0  0  0  0  0  0
   16.8970  -12.0770  -22.4940 C   0  0  0  0  0  0
   17.4780  -13.4010  -22.9790 C   0  0  2  0  0  0
   16.5100  -14.4570  -23.4180 N   0  0  0  0  0  0
   20.4510  -18.2000  -26.9700 C   0  0  0  0  0  0
   19.2360  -17.7650  -27.2810 F   0  0  0  0  0  0
   20.6210  -19.3540  -27.6080 F   0  0  0  0  0  0
   21.3060  -17.3370  -27.5030 F   0  0  0  0  0  0
   22.1450  -15.1980  -21.8220 S   0  0  0  0  0  0
   21.4610  -15.6510  -23.2790 C   0  0  0  0  0  0
   21.3410  -14.6520  -24.1830 C   0  0  0  0  0  0
   21.8150  -13.4250  -23.6770 C   0  0  0  0  0  0
   22.2950  -13.5700  -22.4210 C   0  0  0  0  0  0
   22.9490  -12.2770  -21.5710 Cl  0  0  0  0  0  0
   21.0360  -16.9910  -23.5060 C   0  0  0  0  0  0
   14.7640  -13.8190  -25.1170 C   0  0  0  0  0  0
   18.4450  -13.8680  -21.9060 C   0  0  0  0  0  0
   21.7629  -18.3809  -25.3333 H   0  0  0  0  0  0
   18.2757  -20.2871  -23.9909 H   0  0  0  0  0  0
   18.1710  -19.8576  -25.7319 H   0  0  0  0  0  0
   15.3140  -16.5456  -24.3817 H   0  0  0  0  0  0
   15.7450  -16.8625  -22.6670 H   0  0  0  0  0  0
   20.3676  -20.4854  -25.5018 H   0  0  0  0  0  0
   20.5205  -19.7757  -23.8588 H   0  0  0  0  0  0
   14.4875  -14.9260  -23.3335 H   0  0  0  0  0  0
   13.6601  -12.5813  -23.0401 H   0  0  0  0  0  0
   14.6951  -13.2178  -21.7172 H   0  0  0  0  0  0
   17.5772  -11.2935  -22.8592 H   0  0  0  0  0  0
   16.9343  -12.1119  -21.3952 H   0  0  0  0  0  0
   17.9794  -13.2296  -23.9430 H   0  0  0  0  0  0
   20.9272  -14.7806  -25.1832 H   0  0  0  0  0  0
   21.7971  -12.4833  -24.2256 H   0  0  0  0  0  0
   20.4361  -17.3054  -22.6393 H   0  0  0  0  0  0
   21.9344  -17.6216  -23.5782 H   0  0  0  0  0  0
   13.7072  -13.5308  -25.2177 H   0  0  0  0  0  0
   14.9488  -14.7406  -25.6884 H   0  0  0  0  0  0
   15.4027  -13.0122  -25.5058 H   0  0  0  0  0  0
   19.1204  -13.0426  -21.6367 H   0  0  0  0  0  0
   19.0347  -14.7147  -22.2872 H   0  0  0  0  0  0
   17.8806  -14.1851  -21.0166 H   0  0  0  0  0  0
  1  4  1  0  0  0
  1 11  1  0  0  0
  1 18  1  0  0  0
  1 31  1  0  0  0
  2  3  1  0  0  0
  2  4  1  0  0  0
  2  5  1  0  0  0
  3  6  1  0  0  0
  3  7  1  0  0  0
  4 28  1  0  0  0
  5  8  2  0  0  0
  6  9  1  0  0  0
  6 10  2  0  0  0
  7 11  1  0  0  0
  7 32  1  0  0  0
  7 33  1  0  0  0
  8  9  1  0  0  0
  8 17  1  0  0  0
  9 34  1  0  0  0
  9 35  1  0  0  0
 11 36  1  0  0  0
 11 37  1  0  0  0
 12 13  1  0  0  0
 12 17  1  0  0  0
 12 29  1  0  0  0
 12 38  1  0  0  0
 13 14  1  0  0  0
 13 39  1  0  0  0
 13 40  1  0  0  0
 14 15  1  0  0  0
 15 16  1  0  0  0
 15 41  1  0  0  0
 15 42  1  0  0  0
 16 17  1  0  0  0
 16 30  1  0  0  0
 16 43  1  0  0  0
 18 19  1  0  0  0
 18 20  1  0  0  0
 18 21  1  0  0  0
 22 23  1  0  0  0
 22 26  1  0  0  0
 23 24  2  0  0  0
 23 28  1  0  0  0
 24 25  1  0  0  0
 24 44  1  0  0  0
 25 26  2  0  0  0
 25 45  1  0  0  0
 26 27  1  0  0  0
 28 46  1  0  0  0
 28 47  1  0  0  0
 29 48  1  0  0  0
 29 49  1  0  0  0
 29 50  1  0  0  0
 30 51  1  0  0  0
 30 52  1  0  0  0
 30 53  1  0  0  0
M  END
> <s_m_source_file>
../4uwk_ligand.sdf

> <i_m_source_file_index>
1

> <s_epik_input>
W2NIXTFbY0hdYyhDbClzYzFbQ0gyXU4yW0NASF0oQyhGKShGKUYpW0NIMl1bQ0gyXU4oW0NIXTIzKUMoPU8pW0NIMl1DKFtOSF0zKT1bTitdNFtDQEhdKFtDSDNdKVtDSDJdT1tDSDJdW0NASF00W0NIM10=

> <s_epik_cmdline>
J2VwaWtfYXBwJywgJy1pbWFlJywgJ2xpZ2FuZF9wcm8ubWFlJywgJy1vbWFlJywgJ2xpZ2FuZF9wcmVwLm1hZScsICctbXMnLCAnMScsICctcGgnLCAnNycsICctcGh0JywgJzAuNScsICctbnQn

> <r_lp_tautomer_probability>
1

> <r_epik_Ionization_Penalty>
  0.0001

> <r_epik_Ionization_Penalty_Charging>
  0.0000

> <r_epik_Ionization_Penalty_Neutral>
  0.0001

> <r_epik_State_Penalty>
 -0.0000

> <r_epik_Charging_Adjusted_Penalty>
0

> <i_epik_Tot_Q>
0

> <i_epik_Tot_abs_Q>
0

> <s_epik_Chemistry_Notes>
This compound has an imine and may undergo hydrolysis.

$$$$
