4uwl_ligand
                    3D
 Schrodinger Suite 2020-3.
 54 56  0  0  1  0            999 V2000
  -30.5910   16.8560   -7.0370 C   0  0  0  0  0  0
  -29.7620   15.7320   -7.1110 C   0  0  0  0  0  0
  -28.4270   15.8450   -6.8820 N   0  0  0  0  0  0
  -30.0580   18.1380   -6.6640 C   0  0  0  0  0  0
  -30.7170   19.1700   -6.5340 O   0  0  0  0  0  0
  -28.6760   18.1740   -6.4280 N   0  0  0  0  0  0
  -27.8930   16.9850   -6.5270 C   0  0  3  0  0  0
  -26.4520   17.0200   -6.2720 N   0  0  3  0  0  0
  -25.8660   18.2690   -5.7560 C   0  0  1  0  0  0
  -26.5650   19.5040   -6.3360 C   0  0  0  0  0  0
  -28.0760   19.4770   -6.0730 C   0  0  0  0  0  0
  -30.3180   14.4060   -7.4980 N   0  0  0  0  0  0
  -25.8830   18.2900   -4.1650 C   0  0  0  0  0  0
  -27.0980   18.1440   -3.6480 F   0  0  0  0  0  0
  -25.1470   17.2910   -3.6970 F   0  0  0  0  0  0
  -25.3820   19.4090   -3.6570 F   0  0  0  0  0  0
  -29.3560   13.2950   -7.4460 C   0  0  0  0  0  0
  -29.8110   12.1620   -8.3290 C   0  0  0  0  0  0
  -31.1360   11.7380   -8.0030 O   0  0  0  0  0  0
  -32.1010   12.8140   -8.1190 C   0  0  0  0  0  0
  -31.7540   13.9960   -7.2580 C   0  0  1  0  0  0
  -32.0420   13.7800   -5.7800 C   0  0  0  0  0  0
  -25.6590   15.8070   -6.3840 C   0  0  0  0  0  0
  -25.3080   15.4640   -7.8170 C   0  0  0  0  0  0
  -25.4940   16.2800   -8.6940 O   0  0  0  0  0  0
  -24.7400   14.0820   -8.0600 C   0  0  0  0  0  0
  -25.7630   13.2190   -8.7750 C   0  0  0  0  0  0
  -23.4410   14.1790   -8.8450 C   0  0  0  0  0  0
  -31.0459   17.0415   -8.0212 H   0  0  0  0  0  0
  -31.3830   16.6792   -6.2944 H   0  0  0  0  0  0
  -24.8378   18.2635   -6.1469 H   0  0  0  0  0  0
  -26.1494   20.4115   -5.8736 H   0  0  0  0  0  0
  -26.4036   19.5398   -7.4235 H   0  0  0  0  0  0
  -28.5435   20.2716   -6.6731 H   0  0  0  0  0  0
  -28.2425   19.6784   -5.0045 H   0  0  0  0  0  0
  -28.3724   13.6452   -7.7921 H   0  0  0  0  0  0
  -29.2722   12.9306   -6.4115 H   0  0  0  0  0  0
  -29.8004   12.4887   -9.3793 H   0  0  0  0  0  0
  -29.1326   11.3050   -8.2047 H   0  0  0  0  0  0
  -32.1435   13.1574   -9.1632 H   0  0  0  0  0  0
  -33.0930   12.4516   -7.8115 H   0  0  0  0  0  0
  -32.4182   14.8152   -7.5706 H   0  0  0  0  0  0
  -31.7640   14.6829   -5.2165 H   0  0  0  0  0  0
  -31.4561   12.9242   -5.4135 H   0  0  0  0  0  0
  -33.1141   13.5768   -5.6412 H   0  0  0  0  0  0
  -24.7177   15.9318   -5.8287 H   0  0  0  0  0  0
  -26.2226   14.9605   -5.9648 H   0  0  0  0  0  0
  -24.5154   13.6081   -7.0930 H   0  0  0  0  0  0
  -26.6857   13.1734   -8.1779 H   0  0  0  0  0  0
  -25.3597   12.2039   -8.9048 H   0  0  0  0  0  0
  -25.9851   13.6542   -9.7605 H   0  0  0  0  0  0
  -22.7272   14.8107   -8.2960 H   0  0  0  0  0  0
  -23.6409   14.6234   -9.8312 H   0  0  0  0  0  0
  -23.0155   13.1731   -8.9755 H   0  0  0  0  0  0
  1  2  1  0  0  0
  1  4  1  0  0  0
  1 29  1  0  0  0
  1 30  1  0  0  0
  2  3  2  0  0  0
  2 12  1  0  0  0
  3  7  1  0  0  0
  4  5  2  0  0  0
  4  6  1  0  0  0
  6  7  1  0  0  0
  6 11  1  0  0  0
  7  8  1  0  0  0
  8  9  1  0  0  0
  8 23  1  0  0  0
  9 10  1  0  0  0
  9 13  1  0  0  0
  9 31  1  0  0  0
 10 11  1  0  0  0
 10 32  1  0  0  0
 10 33  1  0  0  0
 11 34  1  0  0  0
 11 35  1  0  0  0
 12 17  1  0  0  0
 12 21  1  0  0  0
 13 14  1  0  0  0
 13 15  1  0  0  0
 13 16  1  0  0  0
 17 18  1  0  0  0
 17 36  1  0  0  0
 17 37  1  0  0  0
 18 19  1  0  0  0
 18 38  1  0  0  0
 18 39  1  0  0  0
 19 20  1  0  0  0
 20 21  1  0  0  0
 20 40  1  0  0  0
 20 41  1  0  0  0
 21 22  1  0  0  0
 21 42  1  0  0  0
 22 43  1  0  0  0
 22 44  1  0  0  0
 22 45  1  0  0  0
 23 24  1  0  0  0
 23 46  1  0  0  0
 23 47  1  0  0  0
 24 25  2  0  0  0
 24 26  1  0  0  0
 26 27  1  0  0  0
 26 28  1  0  0  0
 26 48  1  0  0  0
 27 49  1  0  0  0
 27 50  1  0  0  0
 27 51  1  0  0  0
 28 52  1  0  0  0
 28 53  1  0  0  0
 28 54  1  0  0  0
M  END
> <s_m_source_file>
../4uwl_ligand.sdf

> <i_m_source_file_index>
1

> <s_epik_input>
W0NIM11bQ0hdKFtDSDNdKUMoPU8pW0NIMl1OKFtDQEhdKEMoRikoRilGKVtDSDJdW0NIMl0xKVtDSF0oTjEyKU49QyhbQ0gyXUMyPU8pTjNbQ0gyXVtDSDJdT1tDSDJdW0NASF0zW0NIM10=

> <s_epik_cmdline>
J2VwaWtfYXBwJywgJy1pbWFlJywgJ2xpZ2FuZF9wcm8ubWFlJywgJy1vbWFlJywgJ2xpZ2FuZF9wcmVwLm1hZScsICctbXMnLCAnMScsICctcGgnLCAnNycsICctcGh0JywgJzAuNScsICctbnQn

> <r_lp_tautomer_probability>
1

> <r_epik_Ionization_Penalty>
  0.0001

> <r_epik_Ionization_Penalty_Charging>
  0.0000

> <r_epik_Ionization_Penalty_Neutral>
  0.0001

> <r_epik_State_Penalty>
 -0.0000

> <r_epik_Charging_Adjusted_Penalty>
0

> <i_epik_Tot_Q>
0

> <i_epik_Tot_abs_Q>
0

> <s_epik_Chemistry_Notes>
This compound has an imine and may undergo hydrolysis.

$$$$
