4ux4_ligand
                    3D
 Schrodinger Suite 2020-3.
 35 37  0  0  1  0            999 V2000
  -39.0360  -10.4270    6.3270 C   0  0  0  0  0  0
  -39.0120  -10.7140    7.8100 C   0  0  0  0  0  0
  -38.5370   -9.7740    8.7610 C   0  0  0  0  0  0
  -38.5170  -10.0920   10.1150 C   0  0  0  0  0  0
  -38.9600  -11.3390   10.5560 C   0  0  0  0  0  0
  -39.4740  -12.2910    9.5790 C   0  0  0  0  0  0
  -39.4730  -11.9770    8.2660 C   0  0  0  0  0  0
  -39.0060  -11.6470   12.0600 C   0  0  0  0  0  0
  -39.9150  -12.6740   12.5750 C   0  0  0  0  0  0
  -39.9870  -12.9360   14.0640 C   0  0  0  0  0  0
  -39.2090  -12.1600   14.9410 C   0  0  0  0  0  0
  -39.2760  -12.3670   16.3510 C   0  0  0  0  0  0
  -40.1560  -13.3370   16.7960 C   0  0  0  0  0  0
  -40.9080  -14.1050   15.9010 C   0  0  0  0  0  0
  -40.8020  -13.8850   14.5320 N   0  0  0  0  0  0
  -41.6680  -14.7060   13.6470 C   0  0  0  0  0  0
  -38.2700  -11.1140   14.3880 C   0  0  0  0  0  0
  -37.5230  -10.4440   15.1070 O   0  0  0  0  0  0
  -38.2520  -10.8740   12.9500 N   0  0  0  0  0  0
  -38.6492   -9.4138    6.1433 H   0  0  0  0  0  0
  -40.0693  -10.4977    5.9565 H   0  0  0  0  0  0
  -38.4070  -11.1605    5.8014 H   0  0  0  0  0  0
  -38.1858   -8.7971    8.4286 H   0  0  0  0  0  0
  -38.1524   -9.3612   10.8369 H   0  0  0  0  0  0
  -39.8590  -13.2560    9.9085 H   0  0  0  0  0  0
  -39.8332  -12.7076    7.5417 H   0  0  0  0  0  0
  -40.5374  -13.2475   11.8882 H   0  0  0  0  0  0
  -38.6711  -11.7998   17.0738 H   0  0  0  0  0  0
  -40.2759  -13.5178   17.8744 H   0  0  0  0  0  0
  -40.6462  -15.1668   16.0192 H   0  0  0  0  0  0
  -41.9792  -13.9662   16.1089 H   0  0  0  0  0  0
  -41.4844  -14.4319   12.5976 H   0  0  0  0  0  0
  -42.7240  -14.5225   13.8946 H   0  0  0  0  0  0
  -41.4368  -15.7714   13.7936 H   0  0  0  0  0  0
  -37.6212  -10.0567   12.5705 H   0  0  0  0  0  0
  1  2  1  0  0  0
  1 20  1  0  0  0
  1 21  1  0  0  0
  1 22  1  0  0  0
  2  3  2  0  0  0
  2  7  1  0  0  0
  3  4  1  0  0  0
  3 23  1  0  0  0
  4  5  2  0  0  0
  4 24  1  0  0  0
  5  6  1  0  0  0
  5  8  1  0  0  0
  6  7  2  0  0  0
  6 25  1  0  0  0
  7 26  1  0  0  0
  8  9  2  0  0  0
  8 19  1  0  0  0
  9 10  1  0  0  0
  9 27  1  0  0  0
 10 11  2  0  0  0
 10 15  1  0  0  0
 11 12  1  0  0  0
 11 17  1  0  0  0
 12 13  2  0  0  0
 12 28  1  0  0  0
 13 14  1  0  0  0
 13 29  1  0  0  0
 14 15  1  0  0  0
 14 30  1  0  0  0
 14 31  1  0  0  0
 15 16  1  0  0  0
 16 32  1  0  0  0
 16 33  1  0  0  0
 16 34  1  0  0  0
 17 18  2  0  0  0
 17 19  1  0  0  0
 19 35  1  0  0  0
M  END
> <s_m_source_file>
../4ux4_ligand.sdf

> <i_m_source_file_index>
1

> <s_epik_input>
W0NIM11jMVtjSF1bY0hdYyhbY0hdW2NIXTEpLWMoW2NIXTIpW25IXWMoPU8pYyhjMjMpW0NIXT1bQ0hdW0NIMl1OM1tDSDNd

> <s_epik_cmdline>
J2VwaWtfYXBwJywgJy1pbWFlJywgJ2xpZ2FuZF9wcm8ubWFlJywgJy1vbWFlJywgJ2xpZ2FuZF9wcmVwLm1hZScsICctbXMnLCAnMScsICctcGgnLCAnNycsICctcGh0JywgJzAuNScsICctbnQn

> <r_lp_tautomer_probability>
1

> <r_epik_Ionization_Penalty>
  0.0008

> <r_epik_Ionization_Penalty_Charging>
  0.0000

> <r_epik_Ionization_Penalty_Neutral>
  0.0008

> <r_epik_State_Penalty>
 -0.0000

> <r_epik_Charging_Adjusted_Penalty>
9.86997486000823e-07

> <i_epik_Tot_Q>
0

> <i_epik_Tot_abs_Q>
0

$$$$
