4ux6_ligand
                    3D
 Schrodinger Suite 2020-3.
 43 44  0  0  1  0            999 V2000
   19.1080   69.8170   21.1080 C   0  0  0  0  0  0
   20.1800   67.7170   22.0680 N   0  3  0  0  0  0
   21.0980   69.3640   24.1530 O   0  0  0  0  0  0
   19.8730   69.2130   22.1150 C   0  0  0  0  0  0
   22.2090   70.7240   30.3550 N   0  3  0  0  0  0
   19.8200   67.1220   21.0140 O   0  0  0  0  0  0
   20.3700   70.0020   23.1960 C   0  0  0  0  0  0
   24.7000   73.4100   30.6720 N   0  0  0  0  0  0
   20.7820   67.1470   23.0450 O   0  5  0  0  0  0
   20.0930   71.4240   23.2520 C   0  0  0  0  0  0
   24.7520   71.2280   31.3150 O   0  0  0  0  0  0
   19.3390   72.0130   22.2450 C   0  0  0  0  0  0
   18.8430   71.2360   21.1840 C   0  0  0  0  0  0
   21.8010   69.9440   25.1880 C   0  0  0  0  0  0
   21.3020   69.6690   26.4300 C   0  0  0  0  0  0
   21.9860   70.1710   27.6020 C   0  0  0  0  0  0
   23.1840   70.9540   27.4280 C   0  0  0  0  0  0
   23.6870   71.2540   26.1130 C   0  0  0  0  0  0
   22.9940   70.7540   24.9750 C   0  0  0  0  0  0
   19.0570   73.4260   22.2860 C   0  0  0  0  0  0
   23.9500   71.4470   28.6600 C   0  0  0  0  0  0
   23.1030   71.8410   29.8970 C   0  0  2  0  0  0
   24.0450   72.2380   31.0190 C   0  0  2  0  0  0
   18.7185   69.2254   20.2795 H   0  0  0  0  0  0
   21.5288   70.4405   29.5383 H   0  0  0  0  0  0
   21.6211   71.0573   31.2229 H   0  0  0  0  0  0
   22.8226   69.8563   30.6391 H   0  0  0  0  0  0
   25.1098   73.3139   29.6557 H   0  0  0  0  0  0
   23.9902   74.2498   30.7032 H   0  0  0  0  0  0
   20.4732   72.0259   24.0774 H   0  0  0  0  0  0
   25.5072   71.2997   32.1116 H   0  0  0  0  0  0
   18.2479   71.7119   20.4046 H   0  0  0  0  0  0
   20.3943   69.0751   26.5371 H   0  0  0  0  0  0
   21.6018   69.9606   28.6001 H   0  0  0  0  0  0
   24.5871   71.8564   25.9905 H   0  0  0  0  0  0
   23.3473   70.9718   23.9671 H   0  0  0  0  0  0
   19.5217   73.8668   23.1803 H   0  0  0  0  0  0
   17.9687   73.5817   22.3237 H   0  0  0  0  0  0
   19.4654   73.9077   21.3853 H   0  0  0  0  0  0
   24.6341   70.6582   29.0063 H   0  0  0  0  0  0
   24.5287   72.3447   28.3970 H   0  0  0  0  0  0
   22.4331   72.6748   29.6403 H   0  0  0  0  0  0
   23.6806   72.4419   32.0367 H   0  0  0  0  0  0
  1  4  2  0  0  0
  1 13  1  0  0  0
  1 24  1  0  0  0
  2  4  1  0  0  0
  2  6  2  0  0  0
  2  9  1  0  0  0
  3  7  1  0  0  0
  3 14  1  0  0  0
  4  7  1  0  0  0
  5 22  1  0  0  0
  5 25  1  0  0  0
  5 26  1  0  0  0
  5 27  1  0  0  0
  7 10  2  0  0  0
  8 23  1  0  0  0
  8 28  1  0  0  0
  8 29  1  0  0  0
 10 12  1  0  0  0
 10 30  1  0  0  0
 11 23  1  0  0  0
 11 31  1  0  0  0
 12 13  2  0  0  0
 12 20  1  0  0  0
 13 32  1  0  0  0
 14 15  2  0  0  0
 14 19  1  0  0  0
 15 16  1  0  0  0
 15 33  1  0  0  0
 16 17  2  0  0  0
 16 34  1  0  0  0
 17 18  1  0  0  0
 17 21  1  0  0  0
 18 19  2  0  0  0
 18 35  1  0  0  0
 19 36  1  0  0  0
 20 37  1  0  0  0
 20 38  1  0  0  0
 20 39  1  0  0  0
 21 22  1  0  0  0
 21 40  1  0  0  0
 21 41  1  0  0  0
 22 23  1  0  0  0
 22 42  1  0  0  0
 23 43  1  0  0  0
M  CHG  3   2   1   5   1   9  -1
M  END
> <s_m_source_file>
../4ux6_ligand.sdf

> <i_m_source_file_index>
1

> <s_epik_input>
Tz1bTitdKFtPLV0pYzFbY0hdW2NIXWMoW0NIM10pW2NIXWMxT2MyW2NIXVtjSF1jKFtjSF1bY0hdMilbQ0gyXVtDQEBIXShbTkgzK10pW0NASF0oW05IMytdKVtPSF0=

> <s_epik_cmdline>
J2VwaWtfYXBwJywgJy1pbWFlJywgJ2xpZ2FuZF9wcm8ubWFlJywgJy1vbWFlJywgJ2xpZ2FuZF9wcmVwLm1hZScsICctbXMnLCAnMScsICctcGgnLCAnNycsICctcGh0JywgJzAuNScsICctbnQn

> <r_lp_tautomer_probability>
1

> <r_epik_Ionization_Penalty>
  0.1009

> <r_epik_Ionization_Penalty_Charging>
  0.0225

> <r_epik_Ionization_Penalty_Neutral>
  0.0784

> <r_epik_State_Penalty>
 -0.0000

> <r_epik_Charging_Adjusted_Penalty>
0.0225276854560628

> <i_epik_Tot_Q>
1

> <i_epik_Tot_abs_Q>
3

> <s_epik_Chemistry_Notes>
This compound contains an acetal/aminal-like group ( X-CH(R)-Y where X, Y are N, S, or O) that may be acid/base labile, releasing an aldehyde.

$$$$
