4uxh_ligand
                    3D
 Schrodinger Suite 2020-3.
 80 84  0  0  1  0            999 V2000
   13.6260  -24.7590    7.0960 N   0  0  0  0  0  0
   13.3550  -23.9490    8.1350 C   0  0  0  0  0  0
   13.0010  -26.0130    6.9600 C   0  0  0  0  0  0
   13.2800  -26.7450    5.9760 O   0  0  0  0  0  0
   12.1080  -26.3960    7.8860 N   0  0  0  0  0  0
   11.7770  -25.6100    8.9330 C   0  0  0  0  0  0
   10.9370  -25.9540    9.7720 O   0  0  0  0  0  0
   12.4340  -24.3150    9.0910 C   0  0  0  0  0  0
   12.1130  -23.4080   10.2550 C   0  0  0  0  0  0
   17.1260  -22.4030    7.2100 C   0  0  0  0  0  0
   16.6750  -23.3490    6.1250 C   0  0  1  0  0  0
   15.9540  -24.4700    6.6450 O   0  0  0  0  0  0
   14.6280  -24.3810    6.1020 C   0  0  2  0  0  0
   14.4160  -22.9660    5.5830 C   0  0  0  0  0  0
   15.8060  -22.6380    5.1130 C   0  0  2  0  0  0
   16.0380  -23.2180    3.8180 O   0  0  0  0  0  0
   19.1960  -22.0890    8.8110 P   0  0  2  0  0  0
   19.9060  -23.1510    9.5520 O   0  0  0  0  0  0
   18.3050  -21.1050    9.5600 O   0  5  0  0  0  0
   18.1850  -23.0270    7.9660 O   0  0  0  0  0  0
   19.9940  -21.4710    7.5950 O   0  0  0  0  0  0
   20.8530  -20.1540    7.4960 P   0  0  2  0  0  0
   20.5320  -19.2750    6.3400 O   0  0  0  0  0  0
   22.2300  -20.7410    7.5740 O   0  5  0  0  0  0
   20.6280  -19.3830    8.9030 O   0  0  0  0  0  0
   21.1420  -17.8950    9.2490 P   0  0  1  0  0  0
   20.7450  -17.7920   10.7060 O   0  5  0  0  0  0
   22.5900  -17.7700    8.8320 O   0  0  0  0  0  0
   20.1900  -17.0480    8.2920 O   0  0  0  0  0  0
   20.1360  -15.4850    8.0930 P   0  0  2  0  0  0
   20.1970  -14.7530    9.4220 O   0  5  0  0  0  0
   18.9320  -15.2280    7.3080 O   0  0  0  0  0  0
   21.4980  -15.2760    7.2940 O   0  0  0  0  0  0
   21.8110  -13.8680    6.5760 P   0  0  2  0  0  0
   23.1810  -13.4380    6.8950 O   0  0  0  0  0  0
   20.6540  -12.9900    6.9190 O   0  5  0  0  0  0
   21.5710  -14.2690    5.0180 O   0  0  0  0  0  0
   22.5030  -14.4260    3.9660 C   0  0  0  0  0  0
   22.6710  -15.8890    3.5530 C   0  0  1  0  0  0
   24.0310  -15.9760    3.1290 O   0  0  0  0  0  0
   24.8170  -16.8640    3.9090 C   0  0  2  0  0  0
   23.8880  -17.4540    4.9310 C   0  0  2  0  0  0
   23.9650  -18.8590    4.7590 O   0  0  0  0  0  0
   22.5010  -16.9330    4.6430 C   0  0  2  0  0  0
   21.6370  -17.9980    4.2420 O   0  0  0  0  0  0
   25.9540  -16.1580    4.5600 N   0  0  0  0  0  0
   27.2530  -16.4170    4.3560 C   0  0  0  0  0  0
   27.9520  -17.3000    3.5900 N   0  0  0  0  0  0
   29.3000  -17.3080    3.6070 C   0  0  0  0  0  0
   30.0240  -16.4540    4.3680 N   0  0  0  0  0  0
   29.4580  -15.5190    5.1860 C   0  0  0  0  0  0
   30.1880  -14.6640    5.9620 N   0  0  0  0  0  0
   27.9840  -15.4650    5.2140 C   0  0  0  0  0  0
   27.0710  -14.7200    5.8620 N   0  0  0  0  0  0
   25.8510  -15.1470    5.4540 C   0  0  0  0  0  0
   13.8701  -22.9923    8.2212 H   0  0  0  0  0  0
   11.6197  -27.3785    7.8060 H   0  0  0  0  0  0
   12.7156  -22.4906   10.1820 H   0  0  0  0  0  0
   12.3452  -23.9252   11.1977 H   0  0  0  0  0  0
   11.0445  -23.1476   10.2331 H   0  0  0  0  0  0
   17.4939  -21.4716    6.7548 H   0  0  0  0  0  0
   16.2791  -22.1767    7.8745 H   0  0  0  0  0  0
   17.5754  -23.7727    5.6562 H   0  0  0  0  0  0
   14.5397  -25.1282    5.2996 H   0  0  0  0  0  0
   13.6668  -22.9792    4.7777 H   0  0  0  0  0  0
   14.0617  -22.3239    6.4029 H   0  0  0  0  0  0
   15.9981  -21.5620    4.9887 H   0  0  0  0  0  0
   17.0081  -23.0785    3.3187 H   0  0  0  0  0  0
   22.1616  -13.8608    3.0863 H   0  0  0  0  0  0
   23.4849  -14.0476    4.2865 H   0  0  0  0  0  0
   21.9328  -16.1288    2.7736 H   0  0  0  0  0  0
   25.2517  -17.6190    3.2374 H   0  0  0  0  0  0
   24.1570  -17.2464    5.9772 H   0  0  0  0  0  0
   24.9162  -19.3832    4.9337 H   0  0  0  0  0  0
   21.9895  -16.5330    5.5309 H   0  0  0  0  0  0
   20.5858  -17.7897    3.9940 H   0  0  0  0  0  0
   29.8274  -18.0302    2.9838 H   0  0  0  0  0  0
   31.2871  -14.7045    5.9409 H   0  0  0  0  0  0
   29.6768  -13.9350    6.6079 H   0  0  0  0  0  0
   24.9063  -14.7290    5.8019 H   0  0  0  0  0  0
  1  2  1  0  0  0
  1  3  1  0  0  0
  1 13  1  0  0  0
  2  8  2  0  0  0
  2 56  1  0  0  0
  3  4  2  0  0  0
  3  5  1  0  0  0
  5  6  1  0  0  0
  5 57  1  0  0  0
  6  7  2  0  0  0
  6  8  1  0  0  0
  8  9  1  0  0  0
  9 58  1  0  0  0
  9 59  1  0  0  0
  9 60  1  0  0  0
 10 11  1  0  0  0
 10 20  1  0  0  0
 10 61  1  0  0  0
 10 62  1  0  0  0
 11 12  1  0  0  0
 11 15  1  0  0  0
 11 63  1  0  0  0
 12 13  1  0  0  0
 13 14  1  0  0  0
 13 64  1  0  0  0
 14 15  1  0  0  0
 14 65  1  0  0  0
 14 66  1  0  0  0
 15 16  1  0  0  0
 15 67  1  0  0  0
 16 68  1  0  0  0
 17 18  2  0  0  0
 17 19  1  0  0  0
 17 20  1  0  0  0
 17 21  1  0  0  0
 21 22  1  0  0  0
 22 23  2  0  0  0
 22 24  1  0  0  0
 22 25  1  0  0  0
 25 26  1  0  0  0
 26 27  1  0  0  0
 26 28  2  0  0  0
 26 29  1  0  0  0
 29 30  1  0  0  0
 30 31  1  0  0  0
 30 32  2  0  0  0
 30 33  1  0  0  0
 33 34  1  0  0  0
 34 35  2  0  0  0
 34 36  1  0  0  0
 34 37  1  0  0  0
 37 38  1  0  0  0
 38 39  1  0  0  0
 38 69  1  0  0  0
 38 70  1  0  0  0
 39 40  1  0  0  0
 39 44  1  0  0  0
 39 71  1  0  0  0
 40 41  1  0  0  0
 41 42  1  0  0  0
 41 46  1  0  0  0
 41 72  1  0  0  0
 42 43  1  0  0  0
 42 44  1  0  0  0
 42 73  1  0  0  0
 43 74  1  0  0  0
 44 45  1  0  0  0
 44 75  1  0  0  0
 45 76  1  0  0  0
 46 47  1  0  0  0
 46 55  1  0  0  0
 47 48  1  0  0  0
 47 53  2  0  0  0
 48 49  2  0  0  0
 49 50  1  0  0  0
 49 77  1  0  0  0
 50 51  2  0  0  0
 51 52  1  0  0  0
 51 53  1  0  0  0
 52 78  1  0  0  0
 52 79  1  0  0  0
 53 54  1  0  0  0
 54 55  2  0  0  0
 55 80  1  0  0  0
M  CHG  5  19  -1  24  -1  27  -1  31  -1  36  -1
M  END
> <s_m_source_file>
../4uxh_ligand.sdf

> <i_m_source_file_index>
1

> <s_epik_input>
Tz1jMVtuSF1jKD1PKWMoW0NIM10pW2NIXW4xW0NAQEhdKFtDSDJdW0NAQEhdMltPSF0pT1tDQEBIXTJbQ0gyXU9bUEBdKD1PKShbT0hdKU9bUEBdKD1PKShbT0hdKU9bUEBdKD1PKShbT0hdKU9bUEBAXSg9TykoW09IXSlPW1BAXSg9TykoW09IXSlPW0NIMl1bQ0BIXTNPW0NASF0oW0NASF0oW09IXSlbQ0BASF0zW09IXSluNFtjSF1uYyhjNDUpYyhbTkgyXSluW2NIXW41

> <s_epik_cmdline>
J2VwaWtfYXBwJywgJy1pbWFlJywgJ2xpZ2FuZF9wcm8ubWFlJywgJy1vbWFlJywgJ2xpZ2FuZF9wcmVwLm1hZScsICctbXMnLCAnMScsICctcGgnLCAnNycsICctcGh0JywgJzAuNScsICctbnQn

> <r_lp_tautomer_probability>
1

> <r_epik_Ionization_Penalty>
  0.0028

> <r_epik_Ionization_Penalty_Charging>
  0.0024

> <r_epik_Ionization_Penalty_Neutral>
  0.0004

> <r_epik_State_Penalty>
 -0.0000

> <r_epik_Charging_Adjusted_Penalty>
0.00238803718471536

> <i_epik_Tot_Q>
-5

> <i_epik_Tot_abs_Q>
5

> <s_epik_Chemistry_Notes>
This compound contains an acetal/aminal-like group ( X-CH(R)-Y where X, Y are N, S, or O) that may be acid/base labile, releasing an aldehyde.

$$$$
