4uxj_ligand
                    3D
 Schrodinger Suite 2020-3.
 42 43  0  0  1  0            999 V2000
   22.5470  -11.5770   69.7380 P   0  0  2  0  0  0
   22.3080  -11.2950   71.1900 O   0  0  0  0  0  0
   23.3560  -12.8170   69.4300 O   0  5  0  0  0  0
   23.1890  -10.3360   68.9700 O   0  0  0  0  0  0
   24.6780   -9.8420   69.2500 P   0  0  2  0  0  0
   24.5580   -8.3340   69.2960 O   0  0  0  0  0  0
   25.7120  -10.4330   68.3050 O   0  5  0  0  0  0
   24.9180  -10.4990   70.6940 O   0  0  0  0  0  0
   26.1860  -11.4560   71.0170 P   0  0  0  0  0  0
   27.4330  -10.7910   70.4530 O   0  5  0  0  0  0
   25.7810  -12.7570   70.3530 O   0  0  0  0  0  0
   26.2300  -11.5370   72.5310 O   0  5  0  0  0  0
   21.1130  -11.7040   68.9890 O   0  0  0  0  0  0
   20.0160  -10.7940   69.1070 C   0  0  0  0  0  0
   19.1140  -10.8060   67.8730 C   0  0  1  0  0  0
   17.7250  -10.8270   68.2370 O   0  0  0  0  0  0
   19.2760   -9.6080   66.9620 C   0  0  1  0  0  0
   19.4950  -10.1020   65.6450 O   0  0  0  0  0  0
   17.9780   -8.8300   66.9930 C   0  0  0  0  0  0
   16.9670   -9.7190   67.6960 C   0  0  2  0  0  0
   16.2590   -8.9860   68.7570 N   0  0  0  0  0  0
   14.8500   -8.9330   68.8560 C   0  0  0  0  0  0
   14.1250   -9.4960   68.0370 O   0  0  0  0  0  0
   14.2230   -8.2790   69.8320 N   0  0  0  0  0  0
   14.9170   -7.6440   70.7880 C   0  0  0  0  0  0
   14.3290   -7.0250   71.7130 O   0  0  0  0  0  0
   16.4000   -7.6840   70.7280 C   0  0  0  0  0  0
   17.2400   -6.9730   71.7460 C   0  0  0  0  0  0
   17.0030   -8.3740   69.6870 C   0  0  0  0  0  0
   19.4035  -11.0692   69.9782 H   0  0  0  0  0  0
   20.4001   -9.7715   69.2371 H   0  0  0  0  0  0
   19.3673  -11.7328   67.3375 H   0  0  0  0  0  0
   20.1366   -8.9742   67.2221 H   0  0  0  0  0  0
   20.3937  -10.6962   65.4228 H   0  0  0  0  0  0
   18.1274   -7.8893   67.5432 H   0  0  0  0  0  0
   17.6599   -8.6064   65.9640 H   0  0  0  0  0  0
   16.1798  -10.1004   67.0290 H   0  0  0  0  0  0
   13.1236   -8.2554   69.8604 H   0  0  0  0  0  0
   16.5867   -6.4880   72.4863 H   0  0  0  0  0  0
   17.8560   -6.2113   71.2457 H   0  0  0  0  0  0
   17.8936   -7.6981   72.2530 H   0  0  0  0  0  0
   18.0904   -8.4184   69.6254 H   0  0  0  0  0  0
  1  2  2  0  0  0
  1  3  1  0  0  0
  1  4  1  0  0  0
  1 13  1  0  0  0
  4  5  1  0  0  0
  5  6  2  0  0  0
  5  7  1  0  0  0
  5  8  1  0  0  0
  8  9  1  0  0  0
  9 10  1  0  0  0
  9 11  2  0  0  0
  9 12  1  0  0  0
 13 14  1  0  0  0
 14 15  1  0  0  0
 14 30  1  0  0  0
 14 31  1  0  0  0
 15 16  1  0  0  0
 15 17  1  0  0  0
 15 32  1  0  0  0
 16 20  1  0  0  0
 17 18  1  0  0  0
 17 19  1  0  0  0
 17 33  1  0  0  0
 18 34  1  0  0  0
 19 20  1  0  0  0
 19 35  1  0  0  0
 19 36  1  0  0  0
 20 21  1  0  0  0
 20 37  1  0  0  0
 21 22  1  0  0  0
 21 29  1  0  0  0
 22 23  2  0  0  0
 22 24  1  0  0  0
 24 25  1  0  0  0
 24 38  1  0  0  0
 25 26  2  0  0  0
 25 27  1  0  0  0
 27 28  1  0  0  0
 27 29  2  0  0  0
 28 39  1  0  0  0
 28 40  1  0  0  0
 28 41  1  0  0  0
 29 42  1  0  0  0
M  CHG  4   3  -1   7  -1  10  -1  12  -1
M  END
> <s_m_source_file>
../4uxj_ligand.sdf

> <i_m_source_file_index>
1

> <s_epik_input>
W09IXVAoPU8pKFtPSF0pT1tQQEBdKD1PKShbT0hdKU9bUEBdKD1PKShbT0hdKU9bQ0gyXVtDQEhdMU9bQ0BIXShbQ0gyXVtDQEBIXTFbT0hdKW4yYyg9TylbbkhdYyg9TyljKFtDSDNdKVtjSF0y

> <s_epik_cmdline>
J2VwaWtfYXBwJywgJy1pbWFlJywgJ2xpZ2FuZF9wcm8ubWFlJywgJy1vbWFlJywgJ2xpZ2FuZF9wcmVwLm1hZScsICctbXMnLCAnMScsICctcGgnLCAnNycsICctcGh0JywgJzAuNScsICctbnQn

> <r_lp_tautomer_probability>
0.999537046341301

> <r_epik_Ionization_Penalty>
  0.0827

> <r_epik_Ionization_Penalty_Charging>
  0.0827

> <r_epik_Ionization_Penalty_Neutral>
  0.0000

> <r_epik_State_Penalty>
  0.0709

> <r_epik_Charging_Adjusted_Penalty>
0.153602835498398

> <i_epik_Tot_Q>
-4

> <i_epik_Tot_abs_Q>
4

> <s_epik_Chemistry_Notes>
This compound contains an acetal/aminal-like group ( X-CH(R)-Y where X, Y are N, S, or O) that may be acid/base labile, releasing an aldehyde.

$$$$
