4uxl_ligand
                    3D
 Schrodinger Suite 2020-3.
 49 52  0  0  1  0            999 V2000
   47.0900  -19.0200   -5.8250 C   0  0  0  0  0  0
   39.6680  -19.3730   -2.3630 C   0  0  0  0  0  0
   38.7270  -18.3180   -2.5260 C   0  0  0  0  0  0
   42.5860  -19.6380   -5.9930 C   0  0  0  0  0  0
   38.5090  -18.8770   -4.9030 C   0  0  0  0  0  0
   44.0990  -18.0200   -6.9560 C   0  0  0  0  0  0
   46.1990  -19.3000   -4.7610 C   0  0  0  0  0  0
   43.8320  -18.9690   -5.9170 C   0  0  0  0  0  0
   44.7910  -19.2860   -4.7630 C   0  0  0  0  0  0
   40.0550  -20.2110   -3.4660 C   0  0  0  0  0  0
   39.4610  -19.9590   -4.7770 C   0  0  0  0  0  0
   41.6380  -19.3800   -7.0450 C   0  0  0  0  0  0
   38.1390  -18.0630   -3.7960 C   0  0  0  0  0  0
   44.4500  -19.6560   -3.3590 C   0  0  0  0  0  0
   42.0350  -18.4160   -8.0110 C   0  0  0  0  0  0
   41.0410  -21.3210   -3.2130 C   0  0  0  0  0  0
   43.0670  -19.8090   -2.7030 C   0  0  0  0  0  0
   39.7790  -20.8070   -6.0520 C   0  0  1  0  0  0
   38.4740  -21.3880   -6.6120 C   0  0  0  0  0  0
   47.9240  -19.7900   -2.9680 C   0  0  0  0  0  0
   43.2410  -22.3140   -2.6420 C   0  0  0  0  0  0
   47.8180  -18.7620   -6.6960 N   0  0  0  0  0  0
   43.2290  -17.7530   -7.9740 N   0  0  0  0  0  0
   45.5310  -19.8450   -2.6920 N   0  0  0  0  0  0
   46.5490  -19.6540   -3.4450 N   0  0  0  0  0  0
   42.3790  -21.1320   -2.8740 N   0  0  0  0  0  0
   41.1630  -18.1170   -9.0750 N   0  0  0  0  0  0
   40.5840  -22.4760   -3.3230 O   0  0  0  0  0  0
   40.3990  -20.0190   -7.1580 O   0  0  0  0  0  0
   37.2500  -17.0780   -3.9480 F   0  0  0  0  0  0
   40.1052  -19.5499   -1.3803 H   0  0  0  0  0  0
   38.4545  -17.7000   -1.6705 H   0  0  0  0  0  0
   42.3363  -20.3737   -5.2285 H   0  0  0  0  0  0
   38.0609  -18.6790   -5.8767 H   0  0  0  0  0  0
   45.0469  -17.4824   -6.9329 H   0  0  0  0  0  0
   43.1577  -19.6592   -1.6170 H   0  0  0  0  0  0
   42.3783  -19.0596   -3.1202 H   0  0  0  0  0  0
   40.5110  -21.5769   -5.7667 H   0  0  0  0  0  0
   37.9731  -21.9818   -5.8332 H   0  0  0  0  0  0
   38.6998  -22.0313   -7.4752 H   0  0  0  0  0  0
   37.8136  -20.5674   -6.9290 H   0  0  0  0  0  0
   48.6207  -19.5778   -3.7923 H   0  0  0  0  0  0
   48.0865  -20.8157   -2.6054 H   0  0  0  0  0  0
   48.0994  -19.0788   -2.1474 H   0  0  0  0  0  0
   42.6525  -23.2316   -2.7896 H   0  0  0  0  0  0
   43.6288  -22.2887   -1.6129 H   0  0  0  0  0  0
   44.0817  -22.2995   -3.3512 H   0  0  0  0  0  0
   40.1900  -18.6249   -9.1480 H   0  0  0  0  0  0
   41.4546  -17.3755   -9.8333 H   0  0  0  0  0  0
  1  7  1  0  0  0
  1 22  3  0  0  0
  2  3  2  0  0  0
  2 10  1  0  0  0
  2 31  1  0  0  0
  3 13  1  0  0  0
  3 32  1  0  0  0
  4  8  2  0  0  0
  4 12  1  0  0  0
  4 33  1  0  0  0
  5 11  1  0  0  0
  5 13  2  0  0  0
  5 34  1  0  0  0
  6  8  1  0  0  0
  6 23  2  0  0  0
  6 35  1  0  0  0
  7  9  2  0  0  0
  7 25  1  0  0  0
  8  9  1  0  0  0
  9 14  1  0  0  0
 10 11  2  0  0  0
 10 16  1  0  0  0
 11 18  1  0  0  0
 12 15  2  0  0  0
 12 29  1  0  0  0
 13 30  1  0  0  0
 14 17  1  0  0  0
 14 24  2  0  0  0
 15 23  1  0  0  0
 15 27  1  0  0  0
 16 26  1  0  0  0
 16 28  2  0  0  0
 17 26  1  0  0  0
 17 36  1  0  0  0
 17 37  1  0  0  0
 18 19  1  0  0  0
 18 29  1  0  0  0
 18 38  1  0  0  0
 19 39  1  0  0  0
 19 40  1  0  0  0
 19 41  1  0  0  0
 20 25  1  0  0  0
 20 42  1  0  0  0
 20 43  1  0  0  0
 20 44  1  0  0  0
 21 26  1  0  0  0
 21 45  1  0  0  0
 21 46  1  0  0  0
 21 47  1  0  0  0
 24 25  1  0  0  0
 27 48  1  0  0  0
 27 49  1  0  0  0
M  END
> <s_m_source_file>
../4uxl_ligand.sdf

> <i_m_source_file_index>
1

> <s_epik_input>
TiNDYzFuKFtDSDNdKW5jKGMxYzIzKVtDSDJdTihbQ0gzXSlDKD1PKWM0YyhbY0hdYyhGKVtjSF1bY0hdNClbQ0BASF0oW0NIM10pT2MoW2NIXTIpYyhbTkgyXSluW2NIXTM=

> <s_epik_cmdline>
J2VwaWtfYXBwJywgJy1pbWFlJywgJ2xpZ2FuZF9wcm8ubWFlJywgJy1vbWFlJywgJ2xpZ2FuZF9wcmVwLm1hZScsICctbXMnLCAnMScsICctcGgnLCAnNycsICctcGh0JywgJzAuNScsICctbnQn

> <r_lp_tautomer_probability>
0.999999404453161

> <r_epik_Ionization_Penalty>
  0.3417

> <r_epik_Ionization_Penalty_Charging>
  0.0000

> <r_epik_Ionization_Penalty_Neutral>
  0.3417

> <r_epik_State_Penalty>
  0.3362

> <r_epik_Charging_Adjusted_Penalty>
0.336176661284146

> <i_epik_Tot_Q>
0

> <i_epik_Tot_abs_Q>
0

$$$$
