4uxq_ligand
                    3D
 Schrodinger Suite 2020-3.
 67 71  0  0  1  0            999 V2000
    2.9280   -0.9870    6.5170 N   0  0  0  0  0  0
   -1.1290   -3.2240   21.9190 N   0  3  1  0  0  0
    1.3100   -3.7980   10.0600 C   0  0  0  0  0  0
    0.5840   -4.4930   11.0730 C   0  0  0  0  0  0
   -0.1620   -5.6410   10.8280 C   0  0  0  0  0  0
   -0.8450   -6.2510   11.8660 C   0  0  0  0  0  0
   -0.7580   -5.7500   13.1510 C   0  0  0  0  0  0
    0.6510   -3.9710   12.3460 C   0  0  0  0  0  0
   -0.9380   -3.8660   16.9090 C   0  0  0  0  0  0
   -1.3280   -4.2080   19.2150 C   0  0  0  0  0  0
   -1.1570   -1.9670   18.3820 C   0  0  0  0  0  0
   -1.5710   -2.3360   20.8320 C   0  0  0  0  0  0
    0.3010   -3.0080   22.2200 C   0  0  0  0  0  0
    0.6500   -4.0100   23.2870 C   0  0  0  0  0  0
   -2.1180   -3.1550   23.0330 C   0  0  0  0  0  0
    5.3440   -1.4890    6.3130 C   0  0  0  0  0  0
    6.3430   -2.2080    6.8350 C   0  0  0  0  0  0
    5.9620   -3.0930    7.9470 C   0  0  0  0  0  0
    4.7760   -3.2550    8.4480 N   0  0  0  0  0  0
    3.8590   -2.4990    7.8560 N   0  0  0  0  0  0
    4.0460   -1.6050    6.8380 C   0  0  0  0  0  0
    1.9840   -1.5000    7.3660 C   0  0  0  0  0  0
    2.5460   -2.4440    8.1990 C   0  0  0  0  0  0
    1.9040   -3.2000    9.2090 C   0  0  0  0  0  0
   -0.0100   -4.6100   13.3690 C   0  0  0  0  0  0
   -0.2300   -6.2350    9.4570 C   0  0  0  0  0  0
    0.0990   -3.9680   14.6820 C   0  0  0  0  0  0
    0.9150   -3.0650   14.7990 O   0  0  0  0  0  0
   -0.7730   -4.4400   15.6350 N   0  0  0  0  0  0
   -1.1070   -4.7320   17.9640 C   0  0  0  0  0  0
   -1.3510   -2.8420   19.4390 C   0  0  0  0  0  0
   -0.9660   -2.4990   17.1180 C   0  0  0  0  0  0
   -1.1670   -0.4690   18.5630 C   0  0  0  0  0  0
   -0.9870    0.1800   17.3880 F   0  0  0  0  0  0
   -2.2980    0.0510   19.1430 F   0  0  0  0  0  0
   -0.1470   -0.0270   19.3390 F   0  0  0  0  0  0
   -1.6400   -3.9270   24.2580 C   0  0  0  0  0  0
    0.3200   -4.3240   25.6810 C   0  0  0  0  0  0
   -0.1920   -3.6560   24.4640 N   0  0  1  0  0  0
   -1.1281   -4.2834   21.6228 H   0  0  0  0  0  0
   -1.4554   -7.1322   11.6686 H   0  0  0  0  0  0
   -1.2698   -6.2450   13.9763 H   0  0  0  0  0  0
    1.2210   -3.0625   12.5403 H   0  0  0  0  0  0
   -1.4895   -4.8859   20.0532 H   0  0  0  0  0  0
   -2.6521   -2.1546   20.9235 H   0  0  0  0  0  0
   -1.0318   -1.3795   20.8978 H   0  0  0  0  0  0
    0.8960   -3.1707   21.3092 H   0  0  0  0  0  0
    0.4493   -1.9777   22.5757 H   0  0  0  0  0  0
    0.4253   -5.0242   22.9252 H   0  0  0  0  0  0
    1.7214   -3.9345   23.5246 H   0  0  0  0  0  0
   -2.2711   -2.1050   23.3228 H   0  0  0  0  0  0
   -3.0739   -3.5871   22.7020 H   0  0  0  0  0  0
    5.5366   -0.8128    5.4801 H   0  0  0  0  0  0
    7.3657   -2.1433    6.4637 H   0  0  0  0  0  0
    6.7638   -3.6764    8.3995 H   0  0  0  0  0  0
    0.9352   -1.2036    7.3811 H   0  0  0  0  0  0
    0.3668   -5.6249    8.7631 H   0  0  0  0  0  0
   -1.2764   -6.2574    9.1186 H   0  0  0  0  0  0
    0.1696   -7.2596    9.4811 H   0  0  0  0  0  0
   -1.3628   -5.3235   15.3492 H   0  0  0  0  0  0
   -1.0665   -5.8105   17.8112 H   0  0  0  0  0  0
   -0.8350   -1.8266   16.2701 H   0  0  0  0  0  0
   -2.2085   -3.6012   25.1415 H   0  0  0  0  0  0
   -1.7974   -5.0037   24.0973 H   0  0  0  0  0  0
    1.3906   -4.1007   25.7989 H   0  0  0  0  0  0
    0.1802   -5.4112   25.5889 H   0  0  0  0  0  0
   -0.2302   -3.9567   26.5599 H   0  0  0  0  0  0
  1 21  2  0  0  0
  1 22  1  0  0  0
  2 12  1  0  0  0
  2 13  1  0  0  0
  2 15  1  0  0  0
  2 40  1  0  0  0
  3  4  1  0  0  0
  3 24  3  0  0  0
  4  5  2  0  0  0
  4  8  1  0  0  0
  5  6  1  0  0  0
  5 26  1  0  0  0
  6  7  2  0  0  0
  6 41  1  0  0  0
  7 25  1  0  0  0
  7 42  1  0  0  0
  8 25  2  0  0  0
  8 43  1  0  0  0
  9 29  1  0  0  0
  9 30  2  0  0  0
  9 32  1  0  0  0
 10 30  1  0  0  0
 10 31  2  0  0  0
 10 44  1  0  0  0
 11 31  1  0  0  0
 11 32  2  0  0  0
 11 33  1  0  0  0
 12 31  1  0  0  0
 12 45  1  0  0  0
 12 46  1  0  0  0
 13 14  1  0  0  0
 13 47  1  0  0  0
 13 48  1  0  0  0
 14 39  1  0  0  0
 14 49  1  0  0  0
 14 50  1  0  0  0
 15 37  1  0  0  0
 15 51  1  0  0  0
 15 52  1  0  0  0
 16 17  2  0  0  0
 16 21  1  0  0  0
 16 53  1  0  0  0
 17 18  1  0  0  0
 17 54  1  0  0  0
 18 19  2  0  0  0
 18 55  1  0  0  0
 19 20  1  0  0  0
 20 21  1  0  0  0
 20 23  1  0  0  0
 22 23  2  0  0  0
 22 56  1  0  0  0
 23 24  1  0  0  0
 25 27  1  0  0  0
 26 57  1  0  0  0
 26 58  1  0  0  0
 26 59  1  0  0  0
 27 28  2  0  0  0
 27 29  1  0  0  0
 29 60  1  0  0  0
 30 61  1  0  0  0
 32 62  1  0  0  0
 33 34  1  0  0  0
 33 35  1  0  0  0
 33 36  1  0  0  0
 37 39  1  0  0  0
 37 63  1  0  0  0
 37 64  1  0  0  0
 38 39  1  0  0  0
 38 65  1  0  0  0
 38 66  1  0  0  0
 38 67  1  0  0  0
M  CHG  1   2   1
M  END
> <s_m_source_file>
../4uxq_ligand.sdf

> <i_m_source_file_index>
1

> <s_epik_input>
bjFbY0hdW2NIXVtjSF1jKG4xMiluW2NIXWMyQyNDYzNjKFtDSDNdKVtjSF1bY0hdYyhbY0hdMylDKD1PKVtOSF1jNFtjSF1bY0hdYyhjKFtjSF00KUMoRikoRilGKVtDSDJdW05ASCtdNVtDSDJdW0NIMl1bTkBIK10oW0NIM10pW0NIMl1bQ0gyXTU=

> <s_epik_cmdline>
J2VwaWtfYXBwJywgJy1pbWFlJywgJ2xpZ2FuZF9wcm8ubWFlJywgJy1vbWFlJywgJ2xpZ2FuZF9wcmVwLm1hZScsICctbXMnLCAnMScsICctcGgnLCAnNycsICctcGh0JywgJzAuNScsICctbnQn

> <r_lp_tautomer_probability>
1

> <r_epik_Ionization_Penalty>
  0.0174

> <r_epik_Ionization_Penalty_Charging>
  0.0155

> <r_epik_Ionization_Penalty_Neutral>
  0.0020

> <r_epik_State_Penalty>
 -0.0000

> <r_epik_Charging_Adjusted_Penalty>
0.0154526225118262

> <i_epik_Tot_Q>
1

> <i_epik_Tot_abs_Q>
1

$$$$
