4uy1_ligand
                    3D
 Schrodinger Suite 2020-3.
 25 26  0  0  1  0            999 V2000
    0.0720   -4.5100   -3.6340 C   0  0  0  0  0  0
    0.4990   -3.9360   -2.3460 C   0  0  0  0  0  0
   -0.3070   -3.4180   -1.3600 C   0  0  0  0  0  0
    0.4200   -2.9370   -0.2360 C   0  0  0  0  0  0
    1.7860   -3.0950   -0.3630 C   0  0  0  0  0  0
    2.8280   -2.7160    0.5940 C   0  0  0  0  0  0
    2.1600   -3.8190   -1.8920 S   0  0  0  0  0  0
   -0.3080   -2.3550    0.8660 C   0  0  0  0  0  0
    0.0830   -1.2250    1.6350 C   0  0  0  0  0  0
   -0.9630   -1.0610    2.5220 C   0  0  3  0  0  0
   -1.8540   -2.0550    2.2280 N   0  0  0  0  0  0
   -1.4910   -2.8590    1.2210 N   0  0  0  0  0  0
   -1.2300   -0.1270    3.5650 C   0  0  0  0  0  0
   -2.1280   -0.3330    4.3550 O   0  0  0  0  0  0
   -0.4300    0.9960    3.6120 N   0  0  0  0  0  0
   -1.0254   -4.4800   -3.7029 H   0  0  0  0  0  0
    0.4154   -5.5528   -3.7025 H   0  0  0  0  0  0
    0.5073   -3.9257   -4.4581 H   0  0  0  0  0  0
   -1.3939   -3.3798   -1.4323 H   0  0  0  0  0  0
    2.3621   -2.2779    1.4890 H   0  0  0  0  0  0
    3.4996   -1.9777    0.1315 H   0  0  0  0  0  0
    3.4049   -3.6078    0.8802 H   0  0  0  0  0  0
    1.0391   -0.7224    1.4271 H   0  0  0  0  0  0
    0.3705    1.1324    2.8700 H   0  0  0  0  0  0
   -0.5927    1.7549    4.3914 H   0  0  0  0  0  0
  1  2  1  0  0  0
  1 16  1  0  0  0
  1 17  1  0  0  0
  1 18  1  0  0  0
  2  3  2  0  0  0
  2  7  1  0  0  0
  3  4  1  0  0  0
  3 19  1  0  0  0
  4  5  2  0  0  0
  4  8  1  0  0  0
  5  6  1  0  0  0
  5  7  1  0  0  0
  6 20  1  0  0  0
  6 21  1  0  0  0
  6 22  1  0  0  0
  8  9  2  0  0  0
  8 12  1  0  0  0
  9 10  1  0  0  0
  9 23  1  0  0  0
 10 11  1  0  0  0
 10 13  1  0  0  0
 11 12  2  0  0  0
 13 14  2  0  0  0
 13 15  1  0  0  0
 15 24  1  0  0  0
 15 25  1  0  0  0
M  END
> <s_m_source_file>
../4uy1_ligand.sdf

> <i_m_source_file_index>
1

> <s_epik_input>
W0NIM11jMVtjSF1jKGMoczEpW0NIM10pQzI9W0NIXVtDSF0oTj1OMilDKD1PKVtOSDJd

> <s_epik_cmdline>
J2VwaWtfYXBwJywgJy1pbWFlJywgJ2xpZ2FuZF9wcm8ubWFlJywgJy1vbWFlJywgJ2xpZ2FuZF9wcmVwLm1hZScsICctbXMnLCAnMScsICctcGgnLCAnNycsICctcGh0JywgJzAuNScsICctbnQn

> <r_lp_tautomer_probability>
1

> <r_epik_Ionization_Penalty>
  0.0000

> <r_epik_Ionization_Penalty_Charging>
  0.0000

> <r_epik_Ionization_Penalty_Neutral>
  0.0000

> <r_epik_State_Penalty>
 -0.0000

> <r_epik_Charging_Adjusted_Penalty>
0

> <i_epik_Tot_Q>
0

> <i_epik_Tot_abs_Q>
0

$$$$
