4uye_ligand
                    3D
 Schrodinger Suite 2020-3.
 55 58  0  0  1  0            999 V2000
   10.2030   44.6420   22.1400 C   0  0  0  0  0  0
    9.1160   43.8890   21.5880 O   0  0  0  0  0  0
    9.1220   42.5390   21.7890 C   0  0  0  0  0  0
   10.0840   41.9210   22.5760 C   0  0  0  0  0  0
   10.0400   40.5500   22.7520 C   0  0  0  0  0  0
    9.0500   39.8070   22.1510 C   0  0  0  0  0  0
    8.0920   40.4110   21.3620 C   0  0  0  0  0  0
    8.1070   41.7950   21.1600 C   0  0  0  0  0  0
    6.9940   42.3110   20.2830 C   0  0  0  0  0  0
    6.3110   41.5670   19.5970 O   0  0  0  0  0  0
    6.8050   43.6480   20.2820 N   0  0  0  0  0  0
    5.8630   44.4800   19.6150 C   0  0  0  0  0  0
    5.1660   44.0360   18.4820 C   0  0  0  0  0  0
    4.2530   44.8830   17.8760 C   0  0  0  0  0  0
    3.4230   44.7520   16.7640 N   0  0  0  0  0  0
    3.2630   43.5540   15.9250 C   0  0  0  0  0  0
    2.7180   45.9260   16.5710 C   0  0  0  0  0  0
    1.9200   46.1540   15.6860 O   0  0  0  0  0  0
    3.1290   46.7940   17.5530 N   0  0  0  0  0  0
    2.6280   48.1690   17.7090 C   0  0  0  0  0  0
    4.0810   46.1700   18.3560 C   0  0  0  0  0  0
    4.7650   46.5820   19.4510 C   0  0  0  0  0  0
    5.7070   45.7760   20.1360 C   0  0  0  0  0  0
    6.3730   46.2250   21.2600 N   0  0  0  0  0  0
    5.7910   45.7010   22.4980 C   0  0  0  0  0  0
    6.7330   45.8310   23.6660 C   0  0  0  0  0  0
    7.2380   47.2520   23.8010 C   0  0  0  0  0  0
    7.8120   47.7630   22.4950 C   0  0  0  0  0  0
    6.8340   47.6050   21.3550 C   0  0  0  0  0  0
   10.0688   45.7076   21.9025 H   0  0  0  0  0  0
   11.1509   44.2869   21.7095 H   0  0  0  0  0  0
   10.2237   44.5095   23.2318 H   0  0  0  0  0  0
   10.8675   42.5113   23.0513 H   0  0  0  0  0  0
   10.7915   40.0567   23.3684 H   0  0  0  0  0  0
    9.0219   38.7276   22.2999 H   0  0  0  0  0  0
    7.3175   39.8045   20.8925 H   0  0  0  0  0  0
    7.4587   44.2963   20.8840 H   0  0  0  0  0  0
    5.3406   43.0367   18.0832 H   0  0  0  0  0  0
    3.9348   42.7612   16.2859 H   0  0  0  0  0  0
    3.5133   43.8003   14.8826 H   0  0  0  0  0  0
    2.2213   43.2048   15.9793 H   0  0  0  0  0  0
    1.8833   48.3788   16.9270 H   0  0  0  0  0  0
    3.4651   48.8768   17.6176 H   0  0  0  0  0  0
    2.1612   48.2790   18.6989 H   0  0  0  0  0  0
    4.5801   47.5889   19.8251 H   0  0  0  0  0  0
    4.8722   46.2572   22.7353 H   0  0  0  0  0  0
    5.5513   44.6353   22.3681 H   0  0  0  0  0  0
    6.2088   45.5537   24.5924 H   0  0  0  0  0  0
    7.5946   45.1633   23.5183 H   0  0  0  0  0  0
    6.4076   47.9096   24.0976 H   0  0  0  0  0  0
    8.0269   47.2896   24.5667 H   0  0  0  0  0  0
    8.0573   48.8306   22.5951 H   0  0  0  0  0  0
    8.7238   47.1988   22.2495 H   0  0  0  0  0  0
    7.3321   47.8906   20.4167 H   0  0  0  0  0  0
    5.9737   48.2678   21.5298 H   0  0  0  0  0  0
  1  2  1  0  0  0
  1 30  1  0  0  0
  1 31  1  0  0  0
  1 32  1  0  0  0
  2  3  1  0  0  0
  3  4  2  0  0  0
  3  8  1  0  0  0
  4  5  1  0  0  0
  4 33  1  0  0  0
  5  6  2  0  0  0
  5 34  1  0  0  0
  6  7  1  0  0  0
  6 35  1  0  0  0
  7  8  2  0  0  0
  7 36  1  0  0  0
  8  9  1  0  0  0
  9 10  2  0  0  0
  9 11  1  0  0  0
 11 12  1  0  0  0
 11 37  1  0  0  0
 12 13  2  0  0  0
 12 23  1  0  0  0
 13 14  1  0  0  0
 13 38  1  0  0  0
 14 15  1  0  0  0
 14 21  2  0  0  0
 15 16  1  0  0  0
 15 17  1  0  0  0
 16 39  1  0  0  0
 16 40  1  0  0  0
 16 41  1  0  0  0
 17 18  2  0  0  0
 17 19  1  0  0  0
 19 20  1  0  0  0
 19 21  1  0  0  0
 20 42  1  0  0  0
 20 43  1  0  0  0
 20 44  1  0  0  0
 21 22  1  0  0  0
 22 23  2  0  0  0
 22 45  1  0  0  0
 23 24  1  0  0  0
 24 25  1  0  0  0
 24 29  1  0  0  0
 25 26  1  0  0  0
 25 46  1  0  0  0
 25 47  1  0  0  0
 26 27  1  0  0  0
 26 48  1  0  0  0
 26 49  1  0  0  0
 27 28  1  0  0  0
 27 50  1  0  0  0
 27 51  1  0  0  0
 28 29  1  0  0  0
 28 52  1  0  0  0
 28 53  1  0  0  0
 29 54  1  0  0  0
 29 55  1  0  0  0
M  END
> <s_m_source_file>
../4uye_ligand.sdf

> <i_m_source_file_index>
1

> <s_epik_input>
W0NIM11PYzFbY0hdW2NIXVtjSF1bY0hdYzFDKD1PKVtOSF1jKFtjSF0yKWMoW2NIXWMoYzIzKW4oW0NIM10pYyg9TyluM1tDSDNdKU40W0NIMl1bQ0gyXVtDSDJdW0NIMl1bQ0gyXTQ=

> <s_epik_cmdline>
J2VwaWtfYXBwJywgJy1pbWFlJywgJ2xpZ2FuZF9wcm8ubWFlJywgJy1vbWFlJywgJ2xpZ2FuZF9wcmVwLm1hZScsICctbXMnLCAnMScsICctcGgnLCAnNycsICctcGh0JywgJzAuNScsICctbnQn

> <r_lp_tautomer_probability>
1

> <r_epik_Ionization_Penalty>
  0.0001

> <r_epik_Ionization_Penalty_Charging>
  0.0000

> <r_epik_Ionization_Penalty_Neutral>
  0.0001

> <r_epik_State_Penalty>
 -0.0000

> <r_epik_Charging_Adjusted_Penalty>
1.66037282380073e-09

> <i_epik_Tot_Q>
0

> <i_epik_Tot_abs_Q>
0

$$$$
