4uyg_ligand
                    3D
 Schrodinger Suite 2020-3.
 53 56  0  0  1  0            999 V2000
    3.1010  -27.5500   14.5380 C   0  0  0  0  0  0
    4.0960  -26.4420   14.8150 C   0  0  1  0  0  0
    5.1410  -26.8400   15.8900 C   0  0  0  0  0  0
    6.6060  -26.6570   15.4670 C   0  0  1  0  0  0
    7.5680  -27.3220   16.3430 N   0  0  0  0  0  0
    8.8030  -26.7390   16.6760 C   0  0  0  0  0  0
    9.2650  -25.6040   16.0050 C   0  0  0  0  0  0
   10.4740  -25.0150   16.3650 C   0  0  0  0  0  0
   11.2170  -25.5360   17.3940 C   0  0  0  0  0  0
   12.7260  -24.7520   17.8020 Cl  0  0  0  0  0  0
   10.7890  -26.6550   18.0900 C   0  0  0  0  0  0
    9.5810  -27.2560   17.7390 C   0  0  0  0  0  0
    6.7700  -27.1280   14.0660 C   0  0  0  0  0  0
    7.8370  -27.9610   13.7150 C   0  0  0  0  0  0
    7.9700  -28.4400   12.4060 C   0  0  0  0  0  0
    7.0200  -28.0560   11.4650 C   0  0  0  0  0  0
    5.9340  -27.2730   11.8110 C   0  0  0  0  0  0
    5.8260  -26.8090   13.1030 C   0  0  0  0  0  0
    4.7490  -25.9930   13.5610 N   0  0  0  0  0  0
    4.2790  -24.8840   12.9450 C   0  0  0  0  0  0
    4.6950  -24.6160   11.5300 C   0  0  0  0  0  0
    3.5470  -24.1080   13.5320 O   0  0  0  0  0  0
    9.1010  -29.3350   12.0170 C   0  0  0  0  0  0
    9.6430  -29.2950   10.7230 C   0  0  0  0  0  0
   10.8040  -29.9950   10.4030 C   0  0  0  0  0  0
   11.4420  -30.7970   11.3580 C   0  0  0  0  0  0
   10.8940  -30.8680   12.6340 C   0  0  0  0  0  0
    9.7320  -30.1630   12.9520 C   0  0  0  0  0  0
   12.6830  -31.5610   11.0190 C   0  0  0  0  0  0
   13.3350  -32.1290   11.9790 O   0  5  0  0  0  0
   13.0500  -31.6700    9.8570 O   0  0  0  0  0  0
    2.6311  -27.8651   15.4814 H   0  0  0  0  0  0
    3.6222  -28.4058   14.0841 H   0  0  0  0  0  0
    2.3272  -27.1837   13.8474 H   0  0  0  0  0  0
    3.5227  -25.5800   15.1869 H   0  0  0  0  0  0
    4.9931  -26.2256   16.7903 H   0  0  0  0  0  0
    5.0167  -27.9024   16.1466 H   0  0  0  0  0  0
    6.8791  -25.5946   15.5492 H   0  0  0  0  0  0
    7.3356  -28.3110   16.7648 H   0  0  0  0  0  0
    8.6749  -25.1768   15.1942 H   0  0  0  0  0  0
   10.8316  -24.1368   15.8274 H   0  0  0  0  0  0
   11.3904  -27.0611   18.9033 H   0  0  0  0  0  0
    9.2330  -28.1311   18.2878 H   0  0  0  0  0  0
    8.5732  -28.2405   14.4687 H   0  0  0  0  0  0
    7.1344  -28.3800   10.4306 H   0  0  0  0  0  0
    5.1732  -27.0262   11.0705 H   0  0  0  0  0  0
    5.3508  -25.4271   11.1808 H   0  0  0  0  0  0
    5.2368  -23.6599   11.4820 H   0  0  0  0  0  0
    3.8026  -24.5643   10.8890 H   0  0  0  0  0  0
    9.1457  -28.7046    9.9534 H   0  0  0  0  0  0
   11.2205  -29.9179    9.3987 H   0  0  0  0  0  0
   11.3773  -31.4812   13.3946 H   0  0  0  0  0  0
    9.3067  -30.2596   13.9509 H   0  0  0  0  0  0
  1  2  1  0  0  0
  1 32  1  0  0  0
  1 33  1  0  0  0
  1 34  1  0  0  0
  2  3  1  0  0  0
  2 19  1  0  0  0
  2 35  1  0  0  0
  3  4  1  0  0  0
  3 36  1  0  0  0
  3 37  1  0  0  0
  4  5  1  0  0  0
  4 13  1  0  0  0
  4 38  1  0  0  0
  5  6  1  0  0  0
  5 39  1  0  0  0
  6  7  2  0  0  0
  6 12  1  0  0  0
  7  8  1  0  0  0
  7 40  1  0  0  0
  8  9  2  0  0  0
  8 41  1  0  0  0
  9 10  1  0  0  0
  9 11  1  0  0  0
 11 12  2  0  0  0
 11 42  1  0  0  0
 12 43  1  0  0  0
 13 14  2  0  0  0
 13 18  1  0  0  0
 14 15  1  0  0  0
 14 44  1  0  0  0
 15 16  2  0  0  0
 15 23  1  0  0  0
 16 17  1  0  0  0
 16 45  1  0  0  0
 17 18  2  0  0  0
 17 46  1  0  0  0
 18 19  1  0  0  0
 19 20  1  0  0  0
 20 21  1  0  0  0
 20 22  2  0  0  0
 21 47  1  0  0  0
 21 48  1  0  0  0
 21 49  1  0  0  0
 23 24  2  0  0  0
 23 28  1  0  0  0
 24 25  1  0  0  0
 24 50  1  0  0  0
 25 26  2  0  0  0
 25 51  1  0  0  0
 26 27  1  0  0  0
 26 29  1  0  0  0
 27 28  2  0  0  0
 27 52  1  0  0  0
 28 53  1  0  0  0
 29 30  1  0  0  0
 29 31  2  0  0  0
M  CHG  1  30  -1
M  END
> <s_m_source_file>
../4uyg_ligand.sdf

> <i_m_source_file_index>
1

> <s_epik_input>
W2NIXTFbY0hdYyhDbClbY0hdW2NIXWMxW05IXVtDQEBIXTJbQ0gyXVtDQEhdKFtDSDNdKU4oQyg9TylbQ0gzXSljKGMyMylbY0hdW2NIXWMoW2NIXTMpLWM0W2NIXVtjSF1jKFtjSF1bY0hdNClDKD1PKVtPSF0=

> <s_epik_cmdline>
J2VwaWtfYXBwJywgJy1pbWFlJywgJ2xpZ2FuZF9wcm8ubWFlJywgJy1vbWFlJywgJ2xpZ2FuZF9wcmVwLm1hZScsICctbXMnLCAnMScsICctcGgnLCAnNycsICctcGh0JywgJzAuNScsICctbnQn

> <r_lp_tautomer_probability>
1

> <r_epik_Ionization_Penalty>
  0.0010

> <r_epik_Ionization_Penalty_Charging>
  0.0009

> <r_epik_Ionization_Penalty_Neutral>
  0.0001

> <r_epik_State_Penalty>
 -0.0000

> <r_epik_Charging_Adjusted_Penalty>
0.000897220209749139

> <i_epik_Tot_Q>
-1

> <i_epik_Tot_abs_Q>
1

$$$$
