4uyh_ligand
                    3D
 Schrodinger Suite 2020-3.
 70 74  0  0  1  0            999 V2000
   21.4990    8.4690   -8.0190 O   0  0  0  0  0  0
   20.3860    8.9080   -8.2690 C   0  0  0  0  0  0
   19.3060    8.9610   -7.2210 C   0  0  0  0  0  0
   20.0990    9.3580   -9.5280 N   0  0  0  0  0  0
   21.2150    9.3300  -10.5200 C   0  0  1  0  0  0
   21.2310    8.0140  -11.2870 C   0  0  0  0  0  0
   18.8120    9.7850   -9.9860 C   0  0  0  0  0  0
   18.8320   10.9190  -10.7350 C   0  0  0  0  0  0
   20.1260   11.6110  -11.0650 C   0  0  2  0  0  0
   19.9270   12.5740  -12.1400 N   0  0  0  0  0  0
   19.6410   13.8900  -11.9090 C   0  0  0  0  0  0
   19.6720   14.7730  -12.9930 C   0  0  0  0  0  0
   19.4100   16.1290  -12.8080 C   0  0  0  0  0  0
   19.1190   16.6150  -11.5350 C   0  0  0  0  0  0
   19.0900   15.7490  -10.4440 C   0  0  0  0  0  0
   19.3470   14.3920  -10.6320 C   0  0  0  0  0  0
   21.1810   10.5700  -11.4200 C   0  0  0  0  0  0
   17.6280    9.1010   -9.6850 C   0  0  0  0  0  0
   16.4300    9.5970  -10.1890 C   0  0  0  0  0  0
   16.4200   10.7570  -10.9830 C   0  0  0  0  0  0
   17.6340   11.4100  -11.2640 C   0  0  0  0  0  0
   15.1430   11.2750  -11.5570 C   0  0  0  0  0  0
   13.9080   11.0600  -10.9360 C   0  0  0  0  0  0
   12.7330   11.5390  -11.5120 C   0  0  0  0  0  0
   12.7880   12.2180  -12.7280 C   0  0  0  0  0  0
   14.0060   12.4260  -13.3630 C   0  0  0  0  0  0
   15.1740   11.9500  -12.7850 C   0  0  0  0  0  0
   11.5330   12.7610  -13.3540 C   0  0  0  0  0  0
   11.2160   14.1010  -12.8650 N   0  3  0  0  0  0
   11.9470   15.1260  -13.5980 C   0  0  0  0  0  0
   11.7740   16.4230  -12.8100 C   0  0  0  0  0  0
   10.3040   16.8240  -12.7500 C   0  0  0  0  0  0
    9.4500   15.6710  -12.2380 C   0  0  0  0  0  0
    9.8160   14.3710  -12.9440 C   0  0  0  0  0  0
   19.6964    8.5653   -6.2718 H   0  0  0  0  0  0
   18.4489    8.3533   -7.5467 H   0  0  0  0  0  0
   18.9838   10.0031   -7.0790 H   0  0  0  0  0  0
   22.1596    9.3700   -9.9577 H   0  0  0  0  0  0
   21.2552    7.1753  -10.5757 H   0  0  0  0  0  0
   22.1226    7.9752  -11.9301 H   0  0  0  0  0  0
   20.3267    7.9412  -11.9091 H   0  0  0  0  0  0
   20.4671   12.2107  -10.2083 H   0  0  0  0  0  0
   20.0053   12.2515  -13.1888 H   0  0  0  0  0  0
   19.9028   14.3977  -13.9900 H   0  0  0  0  0  0
   19.4327   16.8095  -13.6591 H   0  0  0  0  0  0
   18.9134   17.6759  -11.3923 H   0  0  0  0  0  0
   18.8673   16.1310   -9.4477 H   0  0  0  0  0  0
   19.3193   13.7142   -9.7788 H   0  0  0  0  0  0
   22.1521   11.0844  -11.3723 H   0  0  0  0  0  0
   20.9783   10.2648  -12.4572 H   0  0  0  0  0  0
   17.6445    8.2011   -9.0702 H   0  0  0  0  0  0
   15.4944    9.0836   -9.9671 H   0  0  0  0  0  0
   17.6410   12.2992  -11.8944 H   0  0  0  0  0  0
   13.8645   10.5134   -9.9940 H   0  0  0  0  0  0
   11.7759   11.3835  -11.0142 H   0  0  0  0  0  0
   14.0439   12.9612  -14.3118 H   0  0  0  0  0  0
   16.1269   12.1027  -13.2918 H   0  0  0  0  0  0
   11.6608   12.8138  -14.4453 H   0  0  0  0  0  0
   10.6879   12.0984  -13.1155 H   0  0  0  0  0  0
   11.5031   14.1377  -11.8038 H   0  0  0  0  0  0
   13.0079   14.8431  -13.6643 H   0  0  0  0  0  0
   11.5289   15.2210  -14.6110 H   0  0  0  0  0  0
   12.1464   16.2815  -11.7847 H   0  0  0  0  0  0
   12.3427   17.2277  -13.2989 H   0  0  0  0  0  0
   10.1854   17.6819  -12.0718 H   0  0  0  0  0  0
    9.9583   17.1019  -13.7566 H   0  0  0  0  0  0
    9.6131   15.5456  -11.1574 H   0  0  0  0  0  0
    8.3884   15.8895  -12.4256 H   0  0  0  0  0  0
    9.5178   14.4553  -13.9995 H   0  0  0  0  0  0
    9.2571   13.5510  -12.4695 H   0  0  0  0  0  0
  1  2  2  0  0  0
  2  3  1  0  0  0
  2  4  1  0  0  0
  3 35  1  0  0  0
  3 36  1  0  0  0
  3 37  1  0  0  0
  4  5  1  0  0  0
  4  7  1  0  0  0
  5  6  1  0  0  0
  5 17  1  0  0  0
  5 38  1  0  0  0
  6 39  1  0  0  0
  6 40  1  0  0  0
  6 41  1  0  0  0
  7  8  2  0  0  0
  7 18  1  0  0  0
  8  9  1  0  0  0
  8 21  1  0  0  0
  9 10  1  0  0  0
  9 17  1  0  0  0
  9 42  1  0  0  0
 10 11  1  0  0  0
 10 43  1  0  0  0
 11 12  2  0  0  0
 11 16  1  0  0  0
 12 13  1  0  0  0
 12 44  1  0  0  0
 13 14  2  0  0  0
 13 45  1  0  0  0
 14 15  1  0  0  0
 14 46  1  0  0  0
 15 16  2  0  0  0
 15 47  1  0  0  0
 16 48  1  0  0  0
 17 49  1  0  0  0
 17 50  1  0  0  0
 18 19  2  0  0  0
 18 51  1  0  0  0
 19 20  1  0  0  0
 19 52  1  0  0  0
 20 21  2  0  0  0
 20 22  1  0  0  0
 21 53  1  0  0  0
 22 23  2  0  0  0
 22 27  1  0  0  0
 23 24  1  0  0  0
 23 54  1  0  0  0
 24 25  2  0  0  0
 24 55  1  0  0  0
 25 26  1  0  0  0
 25 28  1  0  0  0
 26 27  2  0  0  0
 26 56  1  0  0  0
 27 57  1  0  0  0
 28 29  1  0  0  0
 28 58  1  0  0  0
 28 59  1  0  0  0
 29 30  1  0  0  0
 29 34  1  0  0  0
 29 60  1  0  0  0
 30 31  1  0  0  0
 30 61  1  0  0  0
 30 62  1  0  0  0
 31 32  1  0  0  0
 31 63  1  0  0  0
 31 64  1  0  0  0
 32 33  1  0  0  0
 32 65  1  0  0  0
 32 66  1  0  0  0
 33 34  1  0  0  0
 33 67  1  0  0  0
 33 68  1  0  0  0
 34 69  1  0  0  0
 34 70  1  0  0  0
M  CHG  1  29   1
M  END
> <s_m_source_file>
../4uyh_ligand.sdf

> <i_m_source_file_index>
1

> <s_epik_input>
W2NIXTFbY0hdW2NIXVtjSF1bY0hdYzFbTkhdW0NASF0oW0NIMl1bQ0BIXShbQ0gzXSlOMkMoPU8pW0NIM10pYyhjMjMpW2NIXWMoW2NIXVtjSF0zKS1jNFtjSF1bY0hdYyhbY0hdW2NIXTQpW0NIMl1bTkgrXTVbQ0gyXVtDSDJdW0NIMl1bQ0gyXVtDSDJdNQ==

> <s_epik_cmdline>
J2VwaWtfYXBwJywgJy1pbWFlJywgJ2xpZ2FuZF9wcm8ubWFlJywgJy1vbWFlJywgJ2xpZ2FuZF9wcmVwLm1hZScsICctbXMnLCAnMScsICctcGgnLCAnNycsICctcGh0JywgJzAuNScsICctbnQn

> <r_lp_tautomer_probability>
1

> <r_epik_Ionization_Penalty>
  0.0094

> <r_epik_Ionization_Penalty_Charging>
  0.0090

> <r_epik_Ionization_Penalty_Neutral>
  0.0004

> <r_epik_State_Penalty>
 -0.0000

> <r_epik_Charging_Adjusted_Penalty>
0.0090299598650569

> <i_epik_Tot_Q>
1

> <i_epik_Tot_abs_Q>
1

$$$$
