4uyn_ligand
                    3D
 Schrodinger Suite 2020-3.
 54 59  0  0  1  0            999 V2000
   25.4110   -9.6610   10.6710 O   0  0  0  0  0  0
   25.9580   -8.5840   10.8560 C   0  0  0  0  0  0
   26.4170   -7.8300    9.7000 O   0  0  0  0  0  0
   26.2070   -8.3370    8.3840 C   0  0  0  0  0  0
   24.9280   -7.7550    7.8170 C   0  0  0  0  0  0
   26.1730   -8.0290   12.2290 C   0  0  0  0  0  0
   26.8620   -6.7120   12.3820 C   0  0  0  0  0  0
   25.8380   -8.5320   13.4480 N   0  0  0  0  0  0
   26.2500   -7.6750   14.4320 C   0  0  0  0  0  0
   26.8890   -6.5600   13.8250 C   0  0  3  0  0  0
   27.4950   -5.4250   14.4970 C   0  0  1  0  0  0
   28.0630   -4.4790   13.5240 C   0  0  3  0  0  0
   28.7410   -3.2480   14.0530 C   0  0  0  0  0  0
   28.7940   -3.0500   15.2560 O   0  0  0  0  0  0
   29.3300   -2.2580   13.0900 C   0  0  0  0  0  0
   29.7560   -2.9510   11.7940 C   0  0  0  0  0  0
   28.5790   -3.6740   11.1070 C   0  0  0  0  0  0
   27.9780   -4.7060   12.0460 C   0  0  0  0  0  0
   27.3880   -5.8080   11.5340 N   0  0  0  0  0  0
   26.4440   -4.8210   15.3340 C   0  0  0  0  0  0
   26.0710   -5.4190   16.4910 O   0  0  0  0  0  0
   25.0660   -4.6130   16.8840 C   0  0  0  0  0  0
   24.8140   -3.5230   16.0440 C   0  0  0  0  0  0
   25.7340   -3.6670   15.0070 C   0  0  0  0  0  0
   24.2070   -5.0090   18.3470 S   0  0  0  0  0  0
   25.0490   -4.4760   19.7740 C   0  0  0  0  0  0
   24.6620   -4.7490   21.0210 N   0  0  0  0  0  0
   25.5660   -4.0870   21.7780 C   0  0  0  0  0  0
   25.6930   -3.9470   23.1530 C   0  0  0  0  0  0
   26.7150   -3.1530   23.6690 C   0  0  0  0  0  0
   27.6210   -2.5160   22.8220 C   0  0  0  0  0  0
   27.5180   -2.6720   21.4510 C   0  0  0  0  0  0
   26.4810   -3.4460   20.9280 C   0  0  0  0  0  0
   26.1360   -3.7110   19.6590 N   0  0  0  0  0  0
   27.0546   -8.0542    7.7425 H   0  0  0  0  0  0
   26.1258   -9.4333    8.4220 H   0  0  0  0  0  0
   24.7658   -8.1460    6.8017 H   0  0  0  0  0  0
   25.0093   -6.6587    7.7791 H   0  0  0  0  0  0
   24.0805   -8.0379    8.4586 H   0  0  0  0  0  0
   26.0603   -7.9180   15.4879 H   0  0  0  0  0  0
   28.3397   -5.7469   15.1238 H   0  0  0  0  0  0
   27.1059   -3.9378   13.4914 H   0  0  0  0  0  0
   28.5812   -1.4882   12.8517 H   0  0  0  0  0  0
   30.2116   -1.7834   13.5455 H   0  0  0  0  0  0
   30.1546   -2.2034   11.0924 H   0  0  0  0  0  0
   30.5333   -3.6971   12.0155 H   0  0  0  0  0  0
   27.8058   -2.9400   10.8359 H   0  0  0  0  0  0
   28.9390   -4.1796   10.1989 H   0  0  0  0  0  0
   24.0675   -2.7390   16.1716 H   0  0  0  0  0  0
   25.8679   -3.0233   14.1376 H   0  0  0  0  0  0
   24.9901   -4.4607   23.8254 H   0  0  0  0  0  0
   26.8021   -3.0317   24.7588 H   0  0  0  0  0  0
   28.4197   -1.8879   23.2434 H   0  0  0  0  0  0
   28.2389   -2.1956   20.7866 H   0  0  0  0  0  0
  1  2  2  0  0  0
  2  3  1  0  0  0
  2  6  1  0  0  0
  3  4  1  0  0  0
  4  5  1  0  0  0
  4 35  1  0  0  0
  4 36  1  0  0  0
  5 37  1  0  0  0
  5 38  1  0  0  0
  5 39  1  0  0  0
  6  7  2  0  0  0
  6  8  1  0  0  0
  7 10  1  0  0  0
  7 19  1  0  0  0
  8  9  2  0  0  0
  9 10  1  0  0  0
  9 40  1  0  0  0
 10 11  1  0  0  0
 11 12  1  0  0  0
 11 20  1  0  0  0
 11 41  1  0  0  0
 12 13  1  0  0  0
 12 18  1  0  0  0
 12 42  1  0  0  0
 13 14  2  0  0  0
 13 15  1  0  0  0
 15 16  1  0  0  0
 15 43  1  0  0  0
 15 44  1  0  0  0
 16 17  1  0  0  0
 16 45  1  0  0  0
 16 46  1  0  0  0
 17 18  1  0  0  0
 17 47  1  0  0  0
 17 48  1  0  0  0
 18 19  2  0  0  0
 20 21  1  0  0  0
 20 24  2  0  0  0
 21 22  1  0  0  0
 22 23  2  0  0  0
 22 25  1  0  0  0
 23 24  1  0  0  0
 23 49  1  0  0  0
 24 50  1  0  0  0
 25 26  1  0  0  0
 26 27  2  0  0  0
 26 34  1  0  0  0
 27 28  1  0  0  0
 28 29  2  0  0  0
 28 33  1  0  0  0
 29 30  1  0  0  0
 29 51  1  0  0  0
 30 31  2  0  0  0
 30 52  1  0  0  0
 31 32  1  0  0  0
 31 53  1  0  0  0
 32 33  1  0  0  0
 32 54  1  0  0  0
 33 34  2  0  0  0
M  END
> <s_m_source_file>
../4uyn_ligand.sdf

> <i_m_source_file_index>
1

> <s_epik_input>
W0NIM11bQ0gyXU9DKD1PKUM9MU49W0NIXVtDSF0oQzEyKVtDQEBIXShbQ0hdM0MoPU4yKVtDSDJdW0NIMl1bQ0gyXUMzPU8pYzRvYyhbY0hdW2NIXTQpU0MoPU41KU49QyhDNT02KVtDSDJdW0NIXT1bQ0hdW0NIXTY=

> <s_epik_cmdline>
J2VwaWtfYXBwJywgJy1pbWFlJywgJ2xpZ2FuZF9wcm8ubWFlJywgJy1vbWFlJywgJ2xpZ2FuZF9wcmVwLm1hZScsICctbXMnLCAnMScsICctcGgnLCAnNycsICctcGh0JywgJzAuNScsICctbnQn

> <r_lp_tautomer_probability>
1

> <r_epik_Ionization_Penalty>
  0.0100

> <r_epik_Ionization_Penalty_Charging>
  0.0000

> <r_epik_Ionization_Penalty_Neutral>
  0.0100

> <r_epik_State_Penalty>
 -0.0000

> <r_epik_Charging_Adjusted_Penalty>
0

> <i_epik_Tot_Q>
0

> <i_epik_Tot_abs_Q>
0

> <s_epik_Chemistry_Notes>
This compound has an ester and may undergo hydrolysis at high or low pH. This compound has an imine and may undergo hydrolysis.

$$$$
