4uzd_ligand
                    3D
 Schrodinger Suite 2020-3.
 58 63  0  0  1  0            999 V2000
   58.2740  -10.1280   44.4100 C   0  0  1  0  0  0
   58.2770  -11.4630   41.8630 N   0  0  0  0  0  0
   57.4840  -11.9840   42.8500 C   0  0  0  0  0  0
   57.4960  -11.4070   44.1580 C   0  0  0  0  0  0
   56.6470  -12.1780   44.9210 C   0  0  0  0  0  0
   56.1330  -13.1600   44.1370 N   0  0  0  0  0  0
   56.6450  -13.0630   42.8680 C   0  0  0  0  0  0
   59.0910   -9.6710   43.2050 C   0  0  0  0  0  0
   59.1060  -10.3810   42.0390 C   0  0  0  0  0  0
   59.9350  -10.0000   40.8530 C   0  0  0  0  0  0
   60.4040   -8.5500   40.8280 C   0  0  0  0  0  0
   60.8030   -8.0300   42.1960 C   0  0  0  0  0  0
   59.8580   -8.4200   43.3030 C   0  0  0  0  0  0
   59.7800   -7.7060   44.2910 O   0  0  0  0  0  0
   56.2560  -14.0180   41.8430 C   0  0  0  0  0  0
   55.4370  -14.8980   42.0380 O   0  0  0  0  0  0
   56.8930  -13.7780   40.6740 O   0  0  0  0  0  0
   56.6850  -14.7260   39.5790 C   0  0  0  0  0  0
   55.6820  -14.2060   38.6450 C   0  0  0  0  0  0
   57.3420   -9.0420   44.9580 C   0  0  0  0  0  0
   56.9560   -9.0710   46.2930 C   0  0  0  0  0  0
   55.7600   -8.4810   46.6930 C   0  0  0  0  0  0
   54.9860   -7.7760   45.7900 C   0  0  0  0  0  0
   55.4310   -7.6440   44.4890 C   0  0  0  0  0  0
   56.6010   -8.2620   44.0790 C   0  0  0  0  0  0
   58.0480   -6.1040   52.4430 C   0  0  0  0  0  0
   58.9450   -5.7130   51.4420 C   0  0  0  0  0  0
   58.7780   -6.1400   50.1310 C   0  0  0  0  0  0
   56.9710   -6.9370   52.1590 C   0  0  0  0  0  0
   56.7830   -7.3500   50.8410 C   0  0  0  0  0  0
   57.6840   -6.9480   49.8490 C   0  0  0  0  0  0
   57.1670   -7.4150   48.6540 N   0  3  0  0  0  0
   56.0080   -8.0640   48.9890 C   0  0  0  0  0  0
   55.7250   -8.0590   50.2730 N   0  0  0  0  0  0
   55.2550   -8.6540   48.0100 O   0  0  0  0  0  0
   59.0289  -10.3512   45.1784 H   0  0  0  0  0  0
   58.2736  -11.9136   40.8595 H   0  0  0  0  0  0
   56.4251  -12.0253   45.9772 H   0  0  0  0  0  0
   60.8413  -10.6228   40.8238 H   0  0  0  0  0  0
   59.3527  -10.1567   39.9330 H   0  0  0  0  0  0
   61.2798   -8.4592   40.1686 H   0  0  0  0  0  0
   59.5934   -7.9089   40.4513 H   0  0  0  0  0  0
   61.7945   -8.4244   42.4633 H   0  0  0  0  0  0
   60.8394   -6.9308   42.1742 H   0  0  0  0  0  0
   57.6326  -14.8795   39.0419 H   0  0  0  0  0  0
   56.3349  -15.6859   39.9865 H   0  0  0  0  0  0
   55.5343  -14.9265   37.8270 H   0  0  0  0  0  0
   56.0284  -13.2475   38.2312 H   0  0  0  0  0  0
   54.7307  -14.0538   39.1759 H   0  0  0  0  0  0
   57.5932   -9.5584   47.0309 H   0  0  0  0  0  0
   54.0401   -7.3316   46.0996 H   0  0  0  0  0  0
   54.8568   -7.0486   43.7791 H   0  0  0  0  0  0
   56.9450   -8.1346   43.0526 H   0  0  0  0  0  0
   58.1962   -5.7494   53.4630 H   0  0  0  0  0  0
   59.7847   -5.0656   51.6945 H   0  0  0  0  0  0
   59.4814   -5.8509   49.3501 H   0  0  0  0  0  0
   56.2908   -7.2589   52.9475 H   0  0  0  0  0  0
   57.6994   -7.2210   47.7112 H   0  0  0  0  0  0
  1  4  1  0  0  0
  1  8  1  0  0  0
  1 20  1  0  0  0
  1 36  1  0  0  0
  2  3  1  0  0  0
  2  9  1  0  0  0
  2 37  1  0  0  0
  3  4  2  0  0  0
  3  7  1  0  0  0
  4  5  1  0  0  0
  5  6  1  0  0  0
  5 38  1  0  0  0
  6  7  2  0  0  0
  7 15  1  0  0  0
  8  9  2  0  0  0
  8 13  1  0  0  0
  9 10  1  0  0  0
 10 11  1  0  0  0
 10 39  1  0  0  0
 10 40  1  0  0  0
 11 12  1  0  0  0
 11 41  1  0  0  0
 11 42  1  0  0  0
 12 13  1  0  0  0
 12 43  1  0  0  0
 12 44  1  0  0  0
 13 14  2  0  0  0
 15 16  2  0  0  0
 15 17  1  0  0  0
 17 18  1  0  0  0
 18 19  1  0  0  0
 18 45  1  0  0  0
 18 46  1  0  0  0
 19 47  1  0  0  0
 19 48  1  0  0  0
 19 49  1  0  0  0
 20 21  2  0  0  0
 20 25  1  0  0  0
 21 22  1  0  0  0
 21 50  1  0  0  0
 22 23  2  0  0  0
 22 35  1  0  0  0
 23 24  1  0  0  0
 23 51  1  0  0  0
 24 25  2  0  0  0
 24 52  1  0  0  0
 25 53  1  0  0  0
 26 27  2  0  0  0
 26 29  1  0  0  0
 26 54  1  0  0  0
 27 28  1  0  0  0
 27 55  1  0  0  0
 28 31  2  0  0  0
 28 56  1  0  0  0
 29 30  2  0  0  0
 29 57  1  0  0  0
 30 31  1  0  0  0
 30 34  1  0  0  0
 31 32  1  0  0  0
 32 33  1  0  0  0
 32 58  1  0  0  0
 33 34  2  0  0  0
 33 35  1  0  0  0
M  CHG  1  32   1
M  END
> <s_m_source_file>
../4uzd_ligand.sdf

> <i_m_source_file_index>
1

> <s_epik_input>
W0NIM11bQ0gyXU9DKD1PKUMxPU5bQ0gyXUMoPUMxMilbQ0BASF0oQzM9QyhbTkhdMilbQ0gyXVtDSDJdW0NIMl1DMz1PKWM0W2NIXWMoW2NIXVtjSF1bY0hdNClPYyhuNSlbbkhdYyhjNTYpW2NIXVtjSF1bY0hdW2NIXTY=

> <s_epik_cmdline>
J2VwaWtfYXBwJywgJy1pbWFlJywgJ2xpZ2FuZF9wcm8ubWFlJywgJy1vbWFlJywgJ2xpZ2FuZF9wcmVwLm1hZScsICctbXMnLCAnMScsICctcGgnLCAnNycsICctcGh0JywgJzAuNScsICctbnQn

> <r_epik_Ionization_Penalty>
  0.0000

> <r_epik_Ionization_Penalty_Charging>
  0.0000

> <r_epik_Ionization_Penalty_Neutral>
  0.0000

> <r_epik_State_Penalty>
  0.4107

> <r_epik_Charging_Adjusted_Penalty>
0.41067983895256

> <i_epik_Tot_Q>
1

> <i_epik_Tot_abs_Q>
1

> <s_epik_Chemistry_Notes>
This compound has an ester and may undergo hydrolysis at high or low pH. This compound has an imine and may undergo hydrolysis.

$$$$
