4uzh_ligand
                    3D
 Schrodinger Suite 2020-3.
 33 36  0  0  1  0            999 V2000
   26.7620   -5.7270    7.7610 C   0  0  0  0  0  0
   26.9500   -4.2600    7.7620 N   0  3  0  0  0  0
   27.9860   -3.7950    8.7070 C   0  0  0  0  0  0
   27.7050   -4.2720   10.1430 C   0  0  0  0  0  0
   26.4680   -6.2330    9.1710 C   0  0  0  0  0  0
   26.8980   -5.5640   10.3150 C   0  0  0  0  0  0
   26.5880   -6.0850   11.7670 C   0  0  1  0  0  0
   28.1090   -3.6520   11.0810 O   0  5  0  0  0  0
   25.8280   -5.0710   12.6700 C   0  0  0  0  0  0
   26.0370   -5.0140   14.0820 C   0  0  0  0  0  0
   24.8780   -4.1480   12.1200 C   0  0  0  0  0  0
   25.3510   -4.0980   14.9140 C   0  0  0  0  0  0
   26.9100   -5.8460   14.6760 F   0  0  0  0  0  0
   24.1840   -3.2230   12.9430 C   0  0  0  0  0  0
   24.4200   -3.2000   14.3380 C   0  0  0  0  0  0
   25.3940   -8.0120   10.4910 C   0  0  0  0  0  0
   25.7810   -7.4020   11.7430 C   0  0  0  0  0  0
   24.7140   -9.1320   10.6950 N   0  0  0  0  0  0
   25.6900   -7.5020    9.2820 N   0  0  0  0  0  0
   25.2990   -8.2090   12.7040 C   0  0  0  0  0  0
   24.5870   -9.3670   12.1070 N   0  0  0  0  0  0
   26.8076   -6.4355    6.9208 H   0  0  0  0  0  0
   27.2505   -3.9282    6.7572 H   0  0  0  0  0  0
   26.0064   -3.7696    8.0431 H   0  0  0  0  0  0
   28.9663   -4.1871    8.3984 H   0  0  0  0  0  0
   28.0147   -2.6954    8.7077 H   0  0  0  0  0  0
   27.5767   -6.2565   12.2177 H   0  0  0  0  0  0
   24.6849   -4.1571   11.0473 H   0  0  0  0  0  0
   25.5374   -4.0837   15.9879 H   0  0  0  0  0  0
   23.4688   -2.5299   12.5001 H   0  0  0  0  0  0
   23.8849   -2.4907   14.9694 H   0  0  0  0  0  0
   25.3564   -8.0239    8.3730 H   0  0  0  0  0  0
   25.4149   -8.0369   13.7741 H   0  0  0  0  0  0
  1  2  1  0  0  0
  1  5  2  0  0  0
  1 22  1  0  0  0
  2  3  1  0  0  0
  2 23  1  0  0  0
  2 24  1  0  0  0
  3  4  1  0  0  0
  3 25  1  0  0  0
  3 26  1  0  0  0
  4  6  2  0  0  0
  4  8  1  0  0  0
  5  6  1  0  0  0
  5 19  1  0  0  0
  6  7  1  0  0  0
  7  9  1  0  0  0
  7 17  1  0  0  0
  7 27  1  0  0  0
  9 10  2  0  0  0
  9 11  1  0  0  0
 10 12  1  0  0  0
 10 13  1  0  0  0
 11 14  2  0  0  0
 11 28  1  0  0  0
 12 15  2  0  0  0
 12 29  1  0  0  0
 14 15  1  0  0  0
 14 30  1  0  0  0
 15 31  1  0  0  0
 16 17  2  0  0  0
 16 18  1  0  0  0
 16 19  1  0  0  0
 17 20  1  0  0  0
 18 21  2  0  0  0
 19 32  1  0  0  0
 20 21  1  0  0  0
 20 33  1  0  0  0
M  CHG  2   2   1   8  -1
M  END
> <s_m_source_file>
../4uzh_ligand.sdf

> <i_m_source_file_index>
1

> <s_epik_input>
W0NIMl0xW05IMitdW0NIMl1DKD1PKUMoPUMxMilbQ0BIXShDMz1DKFtOSF0yKU49TltDSDJdMyljNGMoRilbY0hdW2NIXVtjSF1bY0hdNA==

> <s_epik_cmdline>
J2VwaWtfYXBwJywgJy1pbWFlJywgJ2xpZ2FuZF9wcm8ubWFlJywgJy1vbWFlJywgJ2xpZ2FuZF9wcmVwLm1hZScsICctbXMnLCAnMScsICctcGgnLCAnNycsICctcGh0JywgJzAuNScsICctbnQn

> <r_lp_tautomer_probability>
1

> <r_epik_Ionization_Penalty>
  0.0386

> <r_epik_Ionization_Penalty_Charging>
  0.0386

> <r_epik_Ionization_Penalty_Neutral>
  0.0000

> <r_epik_State_Penalty>
 -0.0000

> <r_epik_Charging_Adjusted_Penalty>
0.038625177104952

> <i_epik_Tot_Q>
0

> <i_epik_Tot_abs_Q>
2

> <s_epik_Chemistry_Notes>
This compound has an imine and may undergo hydrolysis.

$$$$
