4v01_ligand
                    3D
 Schrodinger Suite 2020-3.
 67 71  0  0  1  0            999 V2000
   87.5270   -1.0350    9.3780 N   0  0  0  0  0  0
   86.1450    0.6980   25.2140 N   0  3  1  0  0  0
   88.6280    1.5950   13.2710 C   0  0  0  0  0  0
   89.0850    2.0320   14.5640 C   0  0  0  0  0  0
   90.1840    2.8590   14.7050 C   0  0  0  0  0  0
   90.6160    3.2310   15.9590 C   0  0  0  0  0  0
   89.9700    2.7710   17.0890 C   0  0  0  0  0  0
   88.4420    1.5710   15.6940 C   0  0  0  0  0  0
   88.1410    1.2030   20.5500 C   0  0  0  0  0  0
   87.7200    1.4630   22.8920 C   0  0  0  0  0  0
   87.1200   -0.5710   21.8060 C   0  0  0  0  0  0
   86.6770   -0.3210   24.2720 C   0  0  0  0  0  0
   84.8130    1.2230   24.8390 C   0  0  0  0  0  0
   84.6190    2.4880   25.6440 C   0  0  0  0  0  0
   86.1980    0.2840   26.6470 C   0  0  0  0  0  0
   85.8320    0.2520    8.1240 C   0  0  0  0  0  0
   85.1300    1.3880    8.0900 C   0  0  0  0  0  0
   85.3960    2.3170    9.2090 C   0  0  0  0  0  0
   86.2230    2.1310   10.1880 N   0  0  0  0  0  0
   86.8770    0.9500   10.1180 N   0  0  0  0  0  0
   86.7410   -0.0030    9.1550 C   0  0  0  0  0  0
   88.1870   -0.7320   10.5420 C   0  0  0  0  0  0
   87.8060    0.4990   11.0150 C   0  0  0  0  0  0
   88.2520    1.1390   12.2180 C   0  0  0  0  0  0
   88.8810    1.9390   16.9460 C   0  0  0  0  0  0
   90.8980    3.3380   13.4960 C   0  0  0  0  0  0
   88.1480    1.4090   18.1140 C   0  0  0  0  0  0
   87.1850    0.6870   17.9100 O   0  0  0  0  0  0
   88.6400    1.7560   19.3560 N   0  0  0  0  0  0
   88.1960    1.9660   21.6990 C   0  0  0  0  0  0
   87.1790    0.1930   22.9590 C   0  0  0  0  0  0
   87.6020   -0.0650   20.6150 C   0  0  0  0  0  0
   86.5530   -1.9500   21.8310 C   0  0  0  0  0  0
   87.2060   -2.7300   22.7220 F   0  0  0  0  0  0
   85.2390   -2.0060   22.1320 F   0  0  0  0  0  0
   86.6350   -2.6340   20.6690 F   0  0  0  0  0  0
   85.8220    1.4380   27.5690 C   0  0  0  0  0  0
   84.0810    3.1610   27.9440 C   0  0  0  0  0  0
   84.5730    2.0690   27.0750 N   0  0  1  0  0  0
   86.8405    1.5434   25.1060 H   0  0  0  0  0  0
   91.4751    3.8942   16.0599 H   0  0  0  0  0  0
   90.3166    3.0619   18.0806 H   0  0  0  0  0  0
   87.5804    0.9108   15.5950 H   0  0  0  0  0  0
   87.7712    2.0746   23.7928 H   0  0  0  0  0  0
   87.5252   -0.8438   24.7381 H   0  0  0  0  0  0
   85.8861   -1.0468   24.0319 H   0  0  0  0  0  0
   84.7923    1.4329   23.7594 H   0  0  0  0  0  0
   84.0428    0.4762   25.0821 H   0  0  0  0  0  0
   85.4599    3.1726   25.4594 H   0  0  0  0  0  0
   83.6785    2.9731   25.3437 H   0  0  0  0  0  0
   85.4933   -0.5436   26.8158 H   0  0  0  0  0  0
   87.2174   -0.0459   26.8959 H   0  0  0  0  0  0
   85.6939   -0.4877    7.3355 H   0  0  0  0  0  0
   84.4158    1.6128    7.2979 H   0  0  0  0  0  0
   84.8392    3.2541    9.2100 H   0  0  0  0  0  0
   88.9161   -1.3816   11.0262 H   0  0  0  0  0  0
   90.4069    2.9369   12.5971 H   0  0  0  0  0  0
   91.9427    2.9949   13.5271 H   0  0  0  0  0  0
   90.8738    4.4374   13.4674 H   0  0  0  0  0  0
   89.4537    2.4954   19.3903 H   0  0  0  0  0  0
   88.6175    2.9706   21.6635 H   0  0  0  0  0  0
   87.5559   -0.6762   19.7136 H   0  0  0  0  0  0
   85.6649    1.0564   28.5887 H   0  0  0  0  0  0
   86.6333    2.1808   27.5764 H   0  0  0  0  0  0
   83.1572    3.5801   27.5186 H   0  0  0  0  0  0
   84.8450    3.9496   28.0100 H   0  0  0  0  0  0
   83.8750    2.7650   28.9494 H   0  0  0  0  0  0
  1 21  2  0  0  0
  1 22  1  0  0  0
  2 12  1  0  0  0
  2 13  1  0  0  0
  2 15  1  0  0  0
  2 40  1  0  0  0
  3  4  1  0  0  0
  3 24  3  0  0  0
  4  5  2  0  0  0
  4  8  1  0  0  0
  5  6  1  0  0  0
  5 26  1  0  0  0
  6  7  2  0  0  0
  6 41  1  0  0  0
  7 25  1  0  0  0
  7 42  1  0  0  0
  8 25  2  0  0  0
  8 43  1  0  0  0
  9 29  1  0  0  0
  9 30  2  0  0  0
  9 32  1  0  0  0
 10 30  1  0  0  0
 10 31  2  0  0  0
 10 44  1  0  0  0
 11 31  1  0  0  0
 11 32  2  0  0  0
 11 33  1  0  0  0
 12 31  1  0  0  0
 12 45  1  0  0  0
 12 46  1  0  0  0
 13 14  1  0  0  0
 13 47  1  0  0  0
 13 48  1  0  0  0
 14 39  1  0  0  0
 14 49  1  0  0  0
 14 50  1  0  0  0
 15 37  1  0  0  0
 15 51  1  0  0  0
 15 52  1  0  0  0
 16 17  2  0  0  0
 16 21  1  0  0  0
 16 53  1  0  0  0
 17 18  1  0  0  0
 17 54  1  0  0  0
 18 19  2  0  0  0
 18 55  1  0  0  0
 19 20  1  0  0  0
 20 21  1  0  0  0
 20 23  1  0  0  0
 22 23  2  0  0  0
 22 56  1  0  0  0
 23 24  1  0  0  0
 25 27  1  0  0  0
 26 57  1  0  0  0
 26 58  1  0  0  0
 26 59  1  0  0  0
 27 28  2  0  0  0
 27 29  1  0  0  0
 29 60  1  0  0  0
 30 61  1  0  0  0
 32 62  1  0  0  0
 33 34  1  0  0  0
 33 35  1  0  0  0
 33 36  1  0  0  0
 37 39  1  0  0  0
 37 63  1  0  0  0
 37 64  1  0  0  0
 38 39  1  0  0  0
 38 65  1  0  0  0
 38 66  1  0  0  0
 38 67  1  0  0  0
M  CHG  1   2   1
M  END
> <s_m_source_file>
../4v01_ligand.sdf

> <i_m_source_file_index>
1

> <s_epik_input>
bjFbY0hdW2NIXVtjSF1jKG4xMiluW2NIXWMyQyNDYzNjKFtDSDNdKVtjSF1bY0hdYyhbY0hdMylDKD1PKVtOSF1jNFtjSF1bY0hdYyhjKFtjSF00KUMoRikoRilGKVtDSDJdW05ASCtdNVtDSDJdW0NIMl1bTkBIK10oW0NIM10pW0NIMl1bQ0gyXTU=

> <s_epik_cmdline>
J2VwaWtfYXBwJywgJy1pbWFlJywgJ2xpZ2FuZF9wcm8ubWFlJywgJy1vbWFlJywgJ2xpZ2FuZF9wcmVwLm1hZScsICctbXMnLCAnMScsICctcGgnLCAnNycsICctcGh0JywgJzAuNScsICctbnQn

> <r_lp_tautomer_probability>
1

> <r_epik_Ionization_Penalty>
  0.0174

> <r_epik_Ionization_Penalty_Charging>
  0.0155

> <r_epik_Ionization_Penalty_Neutral>
  0.0020

> <r_epik_State_Penalty>
 -0.0000

> <r_epik_Charging_Adjusted_Penalty>
0.0154526225118262

> <i_epik_Tot_Q>
1

> <i_epik_Tot_abs_Q>
1

$$$$
