4v04_ligand
                    3D
 Schrodinger Suite 2020-3.
 67 71  0  0  1  0            999 V2000
   87.3620   -0.8800    9.4030 N   0  0  0  0  0  0
   85.9390    0.6900   25.2760 N   0  3  1  0  0  0
   88.3420    1.6940   13.3250 C   0  0  0  0  0  0
   88.8380    2.0420   14.6170 C   0  0  0  0  0  0
   89.9180    2.9050   14.7390 C   0  0  0  0  0  0
   90.4040    3.1610   16.0120 C   0  0  0  0  0  0
   89.8570    2.5550   17.1260 C   0  0  0  0  0  0
   88.3010    1.4220   15.7220 C   0  0  0  0  0  0
   88.0860    0.8470   20.6330 C   0  0  0  0  0  0
   87.6090    1.2560   22.9390 C   0  0  0  0  0  0
   87.0070   -0.8390   21.9710 C   0  0  0  0  0  0
   86.4490   -0.4200   24.4190 C   0  0  0  0  0  0
   84.6120    1.1880   24.8200 C   0  0  0  0  0  0
   84.1980    2.3870   25.6430 C   0  0  0  0  0  0
   85.8570    0.3150   26.6980 C   0  0  0  0  0  0
   85.5710    0.3820    8.2110 C   0  0  0  0  0  0
   84.8410    1.4950    8.3090 C   0  0  0  0  0  0
   85.0460    2.3900    9.4020 C   0  0  0  0  0  0
   85.9110    2.2260   10.3550 N   0  0  0  0  0  0
   86.6440    1.0680   10.2180 N   0  0  0  0  0  0
   86.5180    0.1260    9.2110 C   0  0  0  0  0  0
   88.0290   -0.6000   10.5640 C   0  0  0  0  0  0
   87.6140    0.6040   11.0650 C   0  0  0  0  0  0
   88.0130    1.2500   12.2600 C   0  0  0  0  0  0
   88.8020    1.6770   16.9960 C   0  0  0  0  0  0
   90.5340    3.5470   13.5460 C   0  0  0  0  0  0
   88.1530    0.9510   18.1330 C   0  0  0  0  0  0
   87.2810    0.1370   17.9070 O   0  0  0  0  0  0
   88.5990    1.2740   19.4050 N   0  0  0  0  0  0
   88.1230    1.6790   21.7270 C   0  0  0  0  0  0
   87.0300    0.0040   23.0790 C   0  0  0  0  0  0
   87.5400   -0.4090   20.7670 C   0  0  0  0  0  0
   86.3940   -2.2090   22.0080 C   0  0  0  0  0  0
   85.0870   -2.1510   22.3780 F   0  0  0  0  0  0
   87.0430   -3.0830   22.8340 F   0  0  0  0  0  0
   86.3740   -2.8420   20.8100 F   0  0  0  0  0  0
   85.4470    1.4960   27.5490 C   0  0  0  0  0  0
   83.6600    3.1550   27.9290 C   0  0  0  0  0  0
   84.1430    2.0350   27.0950 N   0  0  1  0  0  0
   86.6773    1.5005   25.1865 H   0  0  0  0  0  0
   91.2352    3.8551   16.1362 H   0  0  0  0  0  0
   90.2620    2.7723   18.1144 H   0  0  0  0  0  0
   87.4737    0.7231   15.5985 H   0  0  0  0  0  0
   87.6600    1.9202   23.8017 H   0  0  0  0  0  0
   87.2502   -0.9548   24.9501 H   0  0  0  0  0  0
   85.6283   -1.1174   24.1954 H   0  0  0  0  0  0
   84.6740    1.4801   23.7613 H   0  0  0  0  0  0
   83.8616    0.3923   24.9374 H   0  0  0  0  0  0
   84.9265    3.1987   25.5005 H   0  0  0  0  0  0
   83.2027    2.7269   25.3208 H   0  0  0  0  0  0
   85.1125   -0.4850   26.8239 H   0  0  0  0  0  0
   86.8397   -0.0414   27.0405 H   0  0  0  0  0  0
   85.4344   -0.3072    7.3777 H   0  0  0  0  0  0
   84.0879    1.7207    7.5540 H   0  0  0  0  0  0
   84.4247    3.2848    9.4390 H   0  0  0  0  0  0
   88.7810   -1.2419   11.0229 H   0  0  0  0  0  0
   90.0074    3.2162   12.6387 H   0  0  0  0  0  0
   91.5936    3.2588   13.4806 H   0  0  0  0  0  0
   90.4563    4.6405   13.6370 H   0  0  0  0  0  0
   89.4645    1.9523   19.3764 H   0  0  0  0  0  0
   88.5585    2.6743   21.6387 H   0  0  0  0  0  0
   87.5267   -1.0795   19.9077 H   0  0  0  0  0  0
   85.3565    1.1781   28.5982 H   0  0  0  0  0  0
   86.2076    2.2867   27.4698 H   0  0  0  0  0  0
   82.6929    3.5093   27.5427 H   0  0  0  0  0  0
   84.3905    3.9768   27.8980 H   0  0  0  0  0  0
   83.5371    2.8127   28.9671 H   0  0  0  0  0  0
  1 21  2  0  0  0
  1 22  1  0  0  0
  2 12  1  0  0  0
  2 13  1  0  0  0
  2 15  1  0  0  0
  2 40  1  0  0  0
  3  4  1  0  0  0
  3 24  3  0  0  0
  4  5  2  0  0  0
  4  8  1  0  0  0
  5  6  1  0  0  0
  5 26  1  0  0  0
  6  7  2  0  0  0
  6 41  1  0  0  0
  7 25  1  0  0  0
  7 42  1  0  0  0
  8 25  2  0  0  0
  8 43  1  0  0  0
  9 29  1  0  0  0
  9 30  2  0  0  0
  9 32  1  0  0  0
 10 30  1  0  0  0
 10 31  2  0  0  0
 10 44  1  0  0  0
 11 31  1  0  0  0
 11 32  2  0  0  0
 11 33  1  0  0  0
 12 31  1  0  0  0
 12 45  1  0  0  0
 12 46  1  0  0  0
 13 14  1  0  0  0
 13 47  1  0  0  0
 13 48  1  0  0  0
 14 39  1  0  0  0
 14 49  1  0  0  0
 14 50  1  0  0  0
 15 37  1  0  0  0
 15 51  1  0  0  0
 15 52  1  0  0  0
 16 17  2  0  0  0
 16 21  1  0  0  0
 16 53  1  0  0  0
 17 18  1  0  0  0
 17 54  1  0  0  0
 18 19  2  0  0  0
 18 55  1  0  0  0
 19 20  1  0  0  0
 20 21  1  0  0  0
 20 23  1  0  0  0
 22 23  2  0  0  0
 22 56  1  0  0  0
 23 24  1  0  0  0
 25 27  1  0  0  0
 26 57  1  0  0  0
 26 58  1  0  0  0
 26 59  1  0  0  0
 27 28  2  0  0  0
 27 29  1  0  0  0
 29 60  1  0  0  0
 30 61  1  0  0  0
 32 62  1  0  0  0
 33 34  1  0  0  0
 33 35  1  0  0  0
 33 36  1  0  0  0
 37 39  1  0  0  0
 37 63  1  0  0  0
 37 64  1  0  0  0
 38 39  1  0  0  0
 38 65  1  0  0  0
 38 66  1  0  0  0
 38 67  1  0  0  0
M  CHG  1   2   1
M  END
> <s_m_source_file>
../4v04_ligand.sdf

> <i_m_source_file_index>
1

> <s_epik_input>
bjFbY0hdW2NIXVtjSF1jKG4xMiluW2NIXWMyQyNDYzNjKFtDSDNdKVtjSF1bY0hdYyhbY0hdMylDKD1PKVtOSF1jNFtjSF1bY0hdYyhjKFtjSF00KUMoRikoRilGKVtDSDJdW05ASCtdNVtDSDJdW0NIMl1bTkBIK10oW0NIM10pW0NIMl1bQ0gyXTU=

> <s_epik_cmdline>
J2VwaWtfYXBwJywgJy1pbWFlJywgJ2xpZ2FuZF9wcm8ubWFlJywgJy1vbWFlJywgJ2xpZ2FuZF9wcmVwLm1hZScsICctbXMnLCAnMScsICctcGgnLCAnNycsICctcGh0JywgJzAuNScsICctbnQn

> <r_lp_tautomer_probability>
1

> <r_epik_Ionization_Penalty>
  0.0174

> <r_epik_Ionization_Penalty_Charging>
  0.0155

> <r_epik_Ionization_Penalty_Neutral>
  0.0020

> <r_epik_State_Penalty>
 -0.0000

> <r_epik_Charging_Adjusted_Penalty>
0.0154526225118262

> <i_epik_Tot_Q>
1

> <i_epik_Tot_abs_Q>
1

$$$$
