4v05_ligand
                    3D
 Schrodinger Suite 2020-3.
 68 71  0  0  1  0            999 V2000
   79.1170    2.5080    2.1840 C   0  0  0  0  0  0
   81.9550    0.7140    3.9420 N   0  0  0  0  0  0
   85.7280    2.6210    8.7860 O   0  0  0  0  0  0
   79.9480    1.3960    2.8060 C   0  0  1  0  0  0
   80.2020    0.3580    1.7900 N   0  3  0  0  0  0
   91.8050    3.6390   16.3710 O   0  0  0  0  0  0
   81.2200    1.8520    3.3960 C   0  0  0  0  0  0
   86.6080    0.5580    8.3700 N   0  0  0  0  0  0
   88.7910    0.2910   18.0050 O   0  0  0  0  0  0
   82.2490   -0.3680    3.0070 C   0  0  0  0  0  0
   89.0970   -0.4620   10.6940 N   0  0  0  0  0  0
   80.9660   -0.7980    2.2940 C   0  0  2  0  0  0
   88.3710   -0.5600    9.5440 N   0  3  0  0  0  0
   81.2060   -1.7740    1.1550 C   0  0  0  0  0  0
   82.9100    1.0030    4.9220 C   0  0  0  0  0  0
   84.1890    0.4410    4.8620 C   0  0  0  0  0  0
   85.0960    0.6400    5.8840 C   0  0  0  0  0  0
   84.7490    1.3680    7.0190 C   0  0  0  0  0  0
   83.4640    1.8940    7.1030 C   0  0  0  0  0  0
   82.5500    1.6970    6.0840 C   0  0  0  0  0  0
   85.7270    1.5830    8.1300 C   0  0  0  0  0  0
   87.4900    0.4690    9.4270 C   0  0  3  0  0  0
   87.6910    1.2880   10.5060 C   0  0  0  0  0  0
   88.6950    0.6620   11.2640 C   0  0  0  0  0  0
   89.3150    1.1320   12.5520 C   0  0  0  0  0  0
   88.3700    1.9620   13.4400 C   0  0  0  0  0  0
   88.9590    2.0570   14.8290 C   0  0  0  0  0  0
   88.4690    1.2600   15.8610 C   0  0  0  0  0  0
   89.0560    1.3100   17.1190 C   0  0  0  0  0  0
   90.1610    2.1130   17.3520 C   0  0  0  0  0  0
   90.6660    2.8780   16.3110 C   0  0  0  0  0  0
   90.0780    2.8510   15.0570 C   0  0  0  0  0  0
   92.6160    3.5680   17.5520 C   0  0  0  0  0  0
   89.0220    0.5180   19.4070 C   0  0  0  0  0  0
   78.1901    2.0850    1.7693 H   0  0  0  0  0  0
   79.6923    2.9895    1.3796 H   0  0  0  0  0  0
   78.8677    3.2536    2.9534 H   0  0  0  0  0  0
   79.3878    0.9688    3.6508 H   0  0  0  0  0  0
   79.2436   -0.0260    1.4106 H   0  0  0  0  0  0
   80.7781    0.7913    0.9591 H   0  0  0  0  0  0
   81.0079    2.5716    4.2005 H   0  0  0  0  0  0
   81.8251    2.3400    2.6177 H   0  0  0  0  0  0
   86.6546   -0.2995    7.6826 H   0  0  0  0  0  0
   82.9804   -0.0206    2.2624 H   0  0  0  0  0  0
   82.6647   -1.2251    3.5570 H   0  0  0  0  0  0
   80.3460   -1.2963    3.0537 H   0  0  0  0  0  0
   80.2448   -2.0386    0.6902 H   0  0  0  0  0  0
   81.6867   -2.6829    1.5461 H   0  0  0  0  0  0
   81.8603   -1.3073    0.4040 H   0  0  0  0  0  0
   84.4732   -0.1609    3.9988 H   0  0  0  0  0  0
   86.0987    0.2208    5.8009 H   0  0  0  0  0  0
   83.1739    2.4685    7.9827 H   0  0  0  0  0  0
   81.5372    2.0866    6.1865 H   0  0  0  0  0  0
   87.2571    2.2395   10.8470 H   0  0  0  0  0  0
   89.6338    0.2617   13.1444 H   0  0  0  0  0  0
   90.1876    1.7638   12.3298 H   0  0  0  0  0  0
   88.2580    2.9701   13.0143 H   0  0  0  0  0  0
   87.3861    1.4723   13.4865 H   0  0  0  0  0  0
   87.6235    0.5960   15.6811 H   0  0  0  0  0  0
   90.6259    2.1430   18.3374 H   0  0  0  0  0  0
   90.4927    3.4526   14.2482 H   0  0  0  0  0  0
   93.4850    4.2332   17.4406 H   0  0  0  0  0  0
   92.9620    2.5340   17.6976 H   0  0  0  0  0  0
   92.0229    3.8823   18.4235 H   0  0  0  0  0  0
   88.7623   -0.3888   19.9729 H   0  0  0  0  0  0
   88.3977    1.3560   19.7505 H   0  0  0  0  0  0
   90.0826    0.7603   19.5693 H   0  0  0  0  0  0
   88.5429   -1.4000    8.8549 H   0  0  0  0  0  0
  1  4  1  0  0  0
  1 35  1  0  0  0
  1 36  1  0  0  0
  1 37  1  0  0  0
  2  7  1  0  0  0
  2 10  1  0  0  0
  2 15  1  0  0  0
  3 21  2  0  0  0
  4  5  1  0  0  0
  4  7  1  0  0  0
  4 38  1  0  0  0
  5 12  1  0  0  0
  5 39  1  0  0  0
  5 40  1  0  0  0
  6 31  1  0  0  0
  6 33  1  0  0  0
  7 41  1  0  0  0
  7 42  1  0  0  0
  8 21  1  0  0  0
  8 22  1  0  0  0
  8 43  1  0  0  0
  9 29  1  0  0  0
  9 34  1  0  0  0
 10 12  1  0  0  0
 10 44  1  0  0  0
 10 45  1  0  0  0
 11 13  2  0  0  0
 11 24  1  0  0  0
 12 14  1  0  0  0
 12 46  1  0  0  0
 13 22  1  0  0  0
 13 68  1  0  0  0
 14 47  1  0  0  0
 14 48  1  0  0  0
 14 49  1  0  0  0
 15 16  2  0  0  0
 15 20  1  0  0  0
 16 17  1  0  0  0
 16 50  1  0  0  0
 17 18  2  0  0  0
 17 51  1  0  0  0
 18 19  1  0  0  0
 18 21  1  0  0  0
 19 20  2  0  0  0
 19 52  1  0  0  0
 20 53  1  0  0  0
 22 23  1  0  0  0
 23 24  2  0  0  0
 23 54  1  0  0  0
 24 25  1  0  0  0
 25 26  1  0  0  0
 25 55  1  0  0  0
 25 56  1  0  0  0
 26 27  1  0  0  0
 26 57  1  0  0  0
 26 58  1  0  0  0
 27 28  2  0  0  0
 27 32  1  0  0  0
 28 29  1  0  0  0
 28 59  1  0  0  0
 29 30  2  0  0  0
 30 31  1  0  0  0
 30 60  1  0  0  0
 31 32  2  0  0  0
 32 61  1  0  0  0
 33 62  1  0  0  0
 33 63  1  0  0  0
 33 64  1  0  0  0
 34 65  1  0  0  0
 34 66  1  0  0  0
 34 67  1  0  0  0
M  CHG  2   5   1  13   1
M  END
> <s_m_source_file>
../4v05_ligand.sdf

> <i_m_source_file_index>
1

> <s_epik_input>
W0NIMl0xW0NASF0oW0NIM10pW05IMitdW0NASF0oW0NIM10pW0NIMl1OMWMyW2NIXVtjSF1jKFtjSF1bY0hdMilDKD1PKVtOSF1bQ0hdM049TkMoPVtDSF0zKVtDSDJdW0NIMl1jNFtjSF1jKE9bQ0gzXSlbY0hdYyhbY0hdNClPW0NIM10=

> <s_epik_cmdline>
J2VwaWtfYXBwJywgJy1pbWFlJywgJ2xpZ2FuZF9wcm8ubWFlJywgJy1vbWFlJywgJ2xpZ2FuZF9wcmVwLm1hZScsICctbXMnLCAnMScsICctcGgnLCAnNycsICctcGh0JywgJzAuNScsICctbnQn

> <r_lp_tautomer_probability>
1

> <r_epik_Ionization_Penalty>
  0.0088

> <r_epik_Ionization_Penalty_Charging>
  0.0086

> <r_epik_Ionization_Penalty_Neutral>
  0.0002

> <r_epik_State_Penalty>
 -0.0000

> <r_epik_Charging_Adjusted_Penalty>
0.00857364158688565

> <i_epik_Tot_Q>
2

> <i_epik_Tot_abs_Q>
2

$$$$
