4v11_ligand
                    3D
 Schrodinger Suite 2020-3.
134134  0  0  1  0            999 V2000
  -10.7760   -8.1900   80.7080 N   0  3  0  0  0  0
  -10.3040   -8.0080   79.3420 C   0  0  2  0  0  0
  -10.9700   -6.7990   78.6920 C   0  0  0  0  0  0
  -12.1670   -6.5760   78.8730 O   0  0  0  0  0  0
  -10.5800   -9.2590   78.5220 C   0  0  0  0  0  0
  -10.4180  -10.4150   79.3250 O   0  0  0  0  0  0
  -10.1970   -6.0230   77.9400 N   0  0  0  0  0  0
  -10.7210   -4.8140   77.3180 C   0  0  2  0  0  0
  -11.2250   -5.0910   75.9130 C   0  0  0  0  0  0
  -10.6090   -5.8600   75.1760 O   0  0  0  0  0  0
   -9.6480   -3.7330   77.2440 C   0  0  0  0  0  0
   -9.1400   -3.3100   78.6050 C   0  0  0  0  0  0
   -9.9230   -3.3100   79.5840 O   0  5  0  0  0  0
   -7.9500   -2.9580   78.6820 O   0  0  0  0  0  0
  -12.3280   -4.4520   75.5360 N   0  0  0  0  0  0
  -12.7660   -4.4730   74.1420 C   0  0  2  0  0  0
  -11.8120   -3.6120   73.3290 C   0  0  0  0  0  0
  -11.6010   -2.4420   73.6450 O   0  0  0  0  0  0
  -14.1910   -3.9730   74.0060 C   0  0  0  0  0  0
  -11.2230   -4.2130   72.3000 N   0  0  0  0  0  0
  -10.2750   -3.5430   71.4050 C   0  0  1  0  0  0
   -9.7450   -4.5610   70.3930 C   0  0  1  0  0  0
   -8.6930   -3.8840   69.5170 C   0  0  0  0  0  0
   -9.1430   -5.6150   71.1370 O   0  0  0  0  0  0
   -9.9350   -7.0230   70.9920 P   0  0  0  0  0  0
  -10.1440   -7.3500   69.5590 O   0  0  0  0  0  0
   -9.0130   -8.1290   71.6810 O   0  5  0  0  0  0
  -11.3280   -6.8800   71.7560 O   0  0  0  0  0  0
  -10.8770   -2.3410   70.6760 C   0  0  0  0  0  0
  -11.8610   -2.4790   69.9640 O   0  0  0  0  0  0
  -10.2840   -1.1590   70.8540 N   0  0  0  0  0  0
  -10.7680    0.0300   70.1630 C   0  0  2  0  0  0
  -10.4520   -0.0030   68.6700 C   0  0  0  0  0  0
   -9.4910   -0.6490   68.2540 O   0  0  0  0  0  0
  -10.1680    1.2880   70.7880 C   0  0  0  0  0  0
  -10.9060    1.7270   72.0490 C   0  0  0  0  0  0
  -10.3460    3.0050   72.6380 C   0  0  0  0  0  0
   -9.1060    3.1370   72.6990 O   0  0  0  0  0  0
  -11.1490    3.8750   73.0350 O   0  0  0  0  0  0
  -11.2770    0.6850   67.8770 N   0  0  0  0  0  0
  -11.0480    0.8260   66.4500 C   0  0  0  0  0  0
  -10.3430    2.1240   66.1000 C   0  0  0  0  0  0
   -9.6800    2.7350   66.9440 O   0  0  0  0  0  0
  -10.4830    2.5610   64.8530 N   0  0  0  0  0  0
   -9.7050    3.7010   64.3830 C   0  0  2  0  0  0
  -10.1280    5.0020   65.0620 C   0  0  0  0  0  0
  -11.2280    5.1080   65.6120 O   0  0  0  0  0  0
   -9.8130    3.8460   62.8570 C   0  0  0  0  0  0
  -11.2100    4.0660   62.3680 C   0  0  0  0  0  0
  -11.8680    5.2710   62.5110 N   0  0  0  0  0  0
  -12.0800    3.2320   61.7520 C   0  0  0  0  0  0
  -13.0820    5.1680   61.9980 C   0  0  0  0  0  0
  -13.2350    3.9420   61.5310 N   0  0  0  0  0  0
   -9.2270    5.9730   65.0260 N   0  0  0  0  0  0
   -9.4970    7.3220   65.5230 C   0  0  2  0  0  0
  -10.7570    7.9100   64.8840 C   0  0  0  0  0  0
  -11.0210    7.6910   63.7060 O   0  0  0  0  0  0
   -8.3220    8.2520   65.2290 C   0  0  0  0  0  0
   -7.0310    7.8130   65.9010 C   0  0  0  0  0  0
   -7.0950    7.0500   66.8910 O   0  0  0  0  0  0
   -5.9530    8.2610   65.4350 O   0  5  0  0  0  0
  -11.5110    8.6740   65.6620 N   0  0  0  0  0  0
  -12.7120    9.3390   65.1610 C   0  0  2  0  0  0
  -12.5160   10.8490   65.0660 C   0  0  0  0  0  0
  -13.3570   11.5630   64.5250 O   0  0  0  0  0  0
  -13.9050    9.0270   66.0580 C   0  0  0  0  0  0
  -14.3180    7.5640   66.0520 C   0  0  0  0  0  0
  -15.0610    7.1640   64.7870 C   0  0  0  0  0  0
  -15.3330    8.0420   63.9370 O   0  0  0  0  0  0
  -15.3770    5.9630   64.6430 O   0  0  0  0  0  0
  -11.4060   11.3260   65.6150 N   0  0  0  0  0  0
  -11.0280   12.7320   65.5150 C   0  0  2  0  0  0
   -9.5390   12.8770   65.7700 C   0  0  0  0  0  0
   -8.8490   11.8600   65.8270 O   0  0  0  0  0  0
  -11.8210   13.5970   66.4960 C   0  0  0  0  0  0
  -11.8270   13.0410   67.9140 C   0  0  0  0  0  0
  -10.8480   12.3850   68.3360 O   0  0  0  0  0  0
  -12.8270   13.2840   68.6260 O   0  0  0  0  0  0
   -9.0110   13.9820   65.9230 O   0  5  0  0  0  0
  -10.5713   -7.2799   81.2910 H   0  0  0  0  0  0
  -10.2544   -9.0436   81.1655 H   0  0  0  0  0  0
  -11.8587   -8.3839   80.6990 H   0  0  0  0  0  0
   -9.2204   -7.8363   79.4217 H   0  0  0  0  0  0
  -11.6111   -9.2270   78.1402 H   0  0  0  0  0  0
   -9.8774   -9.3059   77.6769 H   0  0  0  0  0  0
  -10.5793  -11.4130   78.8913 H   0  0  0  0  0  0
   -9.1448   -6.3067   77.7905 H   0  0  0  0  0  0
  -11.5520   -4.5061   77.9696 H   0  0  0  0  0  0
   -8.7888   -4.1080   76.6685 H   0  0  0  0  0  0
  -10.0596   -2.8410   76.7491 H   0  0  0  0  0  0
  -12.9132   -3.9027   76.2882 H   0  0  0  0  0  0
  -12.7410   -5.5198   73.8049 H   0  0  0  0  0  0
  -14.8615   -4.6100   74.6015 H   0  0  0  0  0  0
  -14.4932   -4.0099   72.9490 H   0  0  0  0  0  0
  -14.2520   -2.9364   74.3689 H   0  0  0  0  0  0
  -11.4807   -5.2698   72.1367 H   0  0  0  0  0  0
   -9.4801   -3.1643   72.0643 H   0  0  0  0  0  0
  -10.5351   -5.0116   69.7744 H   0  0  0  0  0  0
   -9.1616   -3.0704   68.9438 H   0  0  0  0  0  0
   -8.2640   -4.6217   68.8229 H   0  0  0  0  0  0
   -7.8958   -3.4723   70.1534 H   0  0  0  0  0  0
  -12.0772   -6.1562   71.4028 H   0  0  0  0  0  0
   -9.4203   -1.0881   71.5315 H   0  0  0  0  0  0
  -11.8590    0.0019   70.3009 H   0  0  0  0  0  0
   -9.1192    1.0979   71.0599 H   0  0  0  0  0  0
  -10.2150    2.1152   70.0644 H   0  0  0  0  0  0
  -11.9659    1.9012   71.8116 H   0  0  0  0  0  0
  -10.8260    0.9401   72.8134 H   0  0  0  0  0  0
  -10.7731    4.8139   73.4676 H   0  0  0  0  0  0
  -12.1565    1.1544   68.3419 H   0  0  0  0  0  0
  -10.4218   -0.0059   66.0952 H   0  0  0  0  0  0
  -12.0121    0.8108   65.9206 H   0  0  0  0  0  0
  -11.1888    2.0596   64.1745 H   0  0  0  0  0  0
   -8.6737    3.4599   64.6800 H   0  0  0  0  0  0
   -8.9799    3.8015   62.1401 H   0  0  0  0  0  0
  -12.0110    2.1812   61.4341 H   0  0  0  0  0  0
  -13.8298    5.9604   61.9659 H   0  0  0  0  0  0
   -8.2422    5.7306   64.6001 H   0  0  0  0  0  0
   -9.6372    7.1940   66.6065 H   0  0  0  0  0  0
   -8.1398    8.2811   64.1446 H   0  0  0  0  0  0
   -8.5570    9.2647   65.5886 H   0  0  0  0  0  0
  -11.2099    8.8005   66.7124 H   0  0  0  0  0  0
  -12.8697    8.9268   64.1534 H   0  0  0  0  0  0
  -13.6610    9.2909   67.0976 H   0  0  0  0  0  0
  -14.7760    9.6113   65.7262 H   0  0  0  0  0  0
  -13.4225    6.9299   66.1292 H   0  0  0  0  0  0
  -14.9816    7.3668   66.9068 H   0  0  0  0  0  0
  -15.8700    7.7689   63.0167 H   0  0  0  0  0  0
  -10.7617   10.6207   66.1603 H   0  0  0  0  0  0
  -11.2727   13.0368   64.4868 H   0  0  0  0  0  0
  -11.3808   14.6043   66.5353 H   0  0  0  0  0  0
  -12.8665   13.6665   66.1613 H   0  0  0  0  0  0
  -10.8547   11.9845   69.3605 H   0  0  0  0  0  0
  -11.3621    6.1200   62.9940 H   0  0  0  0  0  0
  1  2  1  0  0  0
  1 80  1  0  0  0
  1 81  1  0  0  0
  1 82  1  0  0  0
  2  3  1  0  0  0
  2  5  1  0  0  0
  2 83  1  0  0  0
  3  4  2  0  0  0
  3  7  1  0  0  0
  5  6  1  0  0  0
  5 84  1  0  0  0
  5 85  1  0  0  0
  6 86  1  0  0  0
  7  8  1  0  0  0
  7 87  1  0  0  0
  8  9  1  0  0  0
  8 11  1  0  0  0
  8 88  1  0  0  0
  9 10  2  0  0  0
  9 15  1  0  0  0
 11 12  1  0  0  0
 11 89  1  0  0  0
 11 90  1  0  0  0
 12 13  1  0  0  0
 12 14  2  0  0  0
 15 16  1  0  0  0
 15 91  1  0  0  0
 16 17  1  0  0  0
 16 19  1  0  0  0
 16 92  1  0  0  0
 17 18  2  0  0  0
 17 20  1  0  0  0
 19 93  1  0  0  0
 19 94  1  0  0  0
 19 95  1  0  0  0
 20 21  1  0  0  0
 20 96  1  0  0  0
 21 22  1  0  0  0
 21 29  1  0  0  0
 21 97  1  0  0  0
 22 23  1  0  0  0
 22 24  1  0  0  0
 22 98  1  0  0  0
 23 99  1  0  0  0
 23100  1  0  0  0
 23101  1  0  0  0
 24 25  1  0  0  0
 25 26  2  0  0  0
 25 27  1  0  0  0
 25 28  1  0  0  0
 28102  1  0  0  0
 29 30  2  0  0  0
 29 31  1  0  0  0
 31 32  1  0  0  0
 31103  1  0  0  0
 32 33  1  0  0  0
 32 35  1  0  0  0
 32104  1  0  0  0
 33 34  2  0  0  0
 33 40  1  0  0  0
 35 36  1  0  0  0
 35105  1  0  0  0
 35106  1  0  0  0
 36 37  1  0  0  0
 36107  1  0  0  0
 36108  1  0  0  0
 37 38  2  0  0  0
 37 39  1  0  0  0
 39109  1  0  0  0
 40 41  1  0  0  0
 40110  1  0  0  0
 41 42  1  0  0  0
 41111  1  0  0  0
 41112  1  0  0  0
 42 43  2  0  0  0
 42 44  1  0  0  0
 44 45  1  0  0  0
 44113  1  0  0  0
 45 46  1  0  0  0
 45 48  1  0  0  0
 45114  1  0  0  0
 46 47  2  0  0  0
 46 54  1  0  0  0
 48 49  2  0  0  0
 48115  1  0  0  0
 49 50  1  0  0  0
 49 51  1  0  0  0
 50 52  1  0  0  0
 50134  1  0  0  0
 51 53  2  0  0  0
 51116  1  0  0  0
 52 53  1  0  0  0
 52117  1  0  0  0
 54 55  1  0  0  0
 54118  1  0  0  0
 55 56  1  0  0  0
 55 58  1  0  0  0
 55119  1  0  0  0
 56 57  2  0  0  0
 56 62  1  0  0  0
 58 59  1  0  0  0
 58120  1  0  0  0
 58121  1  0  0  0
 59 60  2  0  0  0
 59 61  1  0  0  0
 62 63  1  0  0  0
 62122  1  0  0  0
 63 64  1  0  0  0
 63 66  1  0  0  0
 63123  1  0  0  0
 64 65  2  0  0  0
 64 71  1  0  0  0
 66 67  1  0  0  0
 66124  1  0  0  0
 66125  1  0  0  0
 67 68  1  0  0  0
 67126  1  0  0  0
 67127  1  0  0  0
 68 69  1  0  0  0
 68 70  2  0  0  0
 69128  1  0  0  0
 71 72  1  0  0  0
 71129  1  0  0  0
 72 73  1  0  0  0
 72 75  1  0  0  0
 72130  1  0  0  0
 73 74  2  0  0  0
 73 79  1  0  0  0
 75 76  1  0  0  0
 75131  1  0  0  0
 75132  1  0  0  0
 76 77  1  0  0  0
 76 78  2  0  0  0
 77133  1  0  0  0
M  CHG  5   1   1  13  -1  27  -1  61  -1  79  -1
M  END
> <s_m_source_file>
../4v11_ligand.sdf

> <i_m_source_file_index>
1

> <s_epik_input>
W09IXVtDSDJdW0NASF0oW05IMytdKUMoPU8pW05IXVtDQEBIXShbQ0gyXUMoPU8pW09IXSlDKD1PKVtOSF1bQ0BASF0oW0NIM10pQyg9TylbTkhdW0NAQEhdKFtDQEBIXShbQ0gzXSlPUCg9TykoW09IXSlbT0hdKUMoPU8pW05IXVtDQEBIXShbQ0gyXVtDSDJdQyg9TylbT0hdKUMoPU8pW05IXVtDSDJdQyg9TylbTkhdW0NAQEhdKFtDSDJdQzE9TltDSDJdTj1bQ0hdMSlDKD1PKVtOSF1bQ0BASF0oW0NIMl1DKD1PKVtPSF0pQyg9TylbTkhdW0NAQEhdKFtDSDJdW0NIMl1DKD1PKVtPSF0pQyg9TylbTkhdW0NASF0oQyg9TylbT0hdKVtDSDJdQyg9TylbT0hd

> <s_epik_cmdline>
J2VwaWtfYXBwJywgJy1pbWFlJywgJ2xpZ2FuZF9wcm8ubWFlJywgJy1vbWFlJywgJ2xpZ2FuZF9wcmVwLm1hZScsICctbXMnLCAnMScsICctcGgnLCAnNycsICctcGh0JywgJzAuNScsICctbnQn

> <r_epik_Ionization_Penalty>
 11.8824

> <r_epik_Ionization_Penalty_Charging>
  0.1511

> <r_epik_Ionization_Penalty_Neutral>
 11.7313

> <r_epik_State_Penalty>
  0.6132

> <r_epik_Charging_Adjusted_Penalty>
0.764301086091791

> <i_epik_Tot_Q>
-3

> <i_epik_Tot_abs_Q>
5

> <s_epik_Chemistry_Notes>
This compound has an imine and may undergo hydrolysis.

$$$$
