4v24_ligand
                    3D
 Schrodinger Suite 2020-3.
 65 68  0  0  1  0            999 V2000
  -27.8050   16.4830  -16.7300 O   0  0  0  0  0  0
  -27.9490   15.0440  -16.6700 S   0  0  0  0  0  0
  -28.7830   14.3710  -17.6280 O   0  0  0  0  0  0
  -28.5230   14.6360  -15.0480 C   0  0  0  0  0  0
  -28.1740   15.4450  -13.9830 C   0  0  0  0  0  0
  -28.6810   15.1600  -12.7290 C   0  0  0  0  0  0
  -29.4960   14.0810  -12.5400 C   0  0  0  0  0  0
  -29.8420   13.2780  -13.6060 C   0  0  0  0  0  0
  -29.3620   13.5510  -14.8720 C   0  0  0  0  0  0
  -26.3020   14.3430  -16.7470 C   0  0  0  0  0  0
  -26.2730   12.8810  -17.0940 C   0  0  0  0  0  0
  -26.2670   12.5070  -18.4310 C   0  0  0  0  0  0
  -25.9740   11.2110  -18.8190 C   0  0  0  0  0  0
  -25.8810   10.8570  -20.2830 C   0  0  0  0  0  0
  -25.6980   10.2610  -17.8330 C   0  0  0  0  0  0
  -25.7100   10.6230  -16.4910 C   0  0  0  0  0  0
  -26.0270   11.9220  -16.1150 C   0  0  0  0  0  0
  -25.3470    9.8040  -15.4280 O   0  0  0  0  0  0
  -24.9490    8.4330  -15.6980 C   0  0  0  0  0  0
  -24.4110    7.7460  -14.4640 C   0  0  0  0  0  0
  -24.6530    6.4030  -14.2440 C   0  0  0  0  0  0
  -24.2850    5.7920  -13.0520 C   0  0  0  0  0  0
  -23.6530    6.5050  -12.0440 C   0  0  0  0  0  0
  -23.3750    7.8400  -12.2800 C   0  0  0  0  0  0
  -23.7480    8.4520  -13.4700 C   0  0  0  0  0  0
  -23.2750    5.8520  -10.7230 C   0  0  0  0  0  0
  -24.4280    5.2330   -9.9000 N   0  3  2  0  0  0
  -25.4300    6.1640   -9.1910 C   0  0  1  0  0  0
  -26.8230    6.0830   -9.7870 C   0  0  0  0  0  0
  -27.4240    4.8060   -9.6020 O   0  0  0  0  0  0
  -25.4420    5.8650   -7.6910 C   0  0  0  0  0  0
  -24.1620    5.1390   -7.4870 C   0  0  0  0  0  0
  -23.9950    4.3300   -8.7640 C   0  0  0  0  0  0
  -27.5084   16.2956  -14.1299 H   0  0  0  0  0  0
  -28.4283   15.8015  -11.8848 H   0  0  0  0  0  0
  -29.8742   13.8538  -11.5433 H   0  0  0  0  0  0
  -30.4985   12.4223  -13.4487 H   0  0  0  0  0  0
  -29.6398   12.9220  -15.7178 H   0  0  0  0  0  0
  -25.7150   14.8694  -17.5140 H   0  0  0  0  0  0
  -25.8104   14.4534  -15.7692 H   0  0  0  0  0  0
  -26.4984   13.2513  -19.1930 H   0  0  0  0  0  0
  -26.1354   11.7383  -20.8902 H   0  0  0  0  0  0
  -26.5837   10.0412  -20.5083 H   0  0  0  0  0  0
  -24.8562   10.5335  -20.5176 H   0  0  0  0  0  0
  -25.4726    9.2330  -18.1166 H   0  0  0  0  0  0
  -26.0829   12.1891  -15.0597 H   0  0  0  0  0  0
  -25.8185    7.8627  -16.0570 H   0  0  0  0  0  0
  -24.1621    8.4242  -16.4665 H   0  0  0  0  0  0
  -25.1412    5.8129  -15.0196 H   0  0  0  0  0  0
  -24.4968    4.7328  -12.9061 H   0  0  0  0  0  0
  -22.8544    8.4213  -11.5190 H   0  0  0  0  0  0
  -23.5158    9.5055  -13.6258 H   0  0  0  0  0  0
  -22.5666    5.0313  -10.9092 H   0  0  0  0  0  0
  -22.8061    6.5990  -10.0656 H   0  0  0  0  0  0
  -24.9063    4.7031  -10.7370 H   0  0  0  0  0  0
  -25.1100    7.2050   -9.3458 H   0  0  0  0  0  0
  -27.4703    6.8333   -9.3094 H   0  0  0  0  0  0
  -26.7712    6.2784  -10.8683 H   0  0  0  0  0  0
  -28.4361    4.6134   -9.9874 H   0  0  0  0  0  0
  -25.4873    6.8096   -7.1292 H   0  0  0  0  0  0
  -26.3210    5.2505   -7.4466 H   0  0  0  0  0  0
  -23.3475    5.8646   -7.3450 H   0  0  0  0  0  0
  -24.2417    4.4983   -6.5964 H   0  0  0  0  0  0
  -24.6294    3.4315   -8.7476 H   0  0  0  0  0  0
  -22.9453    4.0351   -8.9097 H   0  0  0  0  0  0
  1  2  2  0  0  0
  2  3  2  0  0  0
  2  4  1  0  0  0
  2 10  1  0  0  0
  4  5  2  0  0  0
  4  9  1  0  0  0
  5  6  1  0  0  0
  5 34  1  0  0  0
  6  7  2  0  0  0
  6 35  1  0  0  0
  7  8  1  0  0  0
  7 36  1  0  0  0
  8  9  2  0  0  0
  8 37  1  0  0  0
  9 38  1  0  0  0
 10 11  1  0  0  0
 10 39  1  0  0  0
 10 40  1  0  0  0
 11 12  2  0  0  0
 11 17  1  0  0  0
 12 13  1  0  0  0
 12 41  1  0  0  0
 13 14  1  0  0  0
 13 15  2  0  0  0
 14 42  1  0  0  0
 14 43  1  0  0  0
 14 44  1  0  0  0
 15 16  1  0  0  0
 15 45  1  0  0  0
 16 17  2  0  0  0
 16 18  1  0  0  0
 17 46  1  0  0  0
 18 19  1  0  0  0
 19 20  1  0  0  0
 19 47  1  0  0  0
 19 48  1  0  0  0
 20 21  2  0  0  0
 20 25  1  0  0  0
 21 22  1  0  0  0
 21 49  1  0  0  0
 22 23  2  0  0  0
 22 50  1  0  0  0
 23 24  1  0  0  0
 23 26  1  0  0  0
 24 25  2  0  0  0
 24 51  1  0  0  0
 25 52  1  0  0  0
 26 27  1  0  0  0
 26 53  1  0  0  0
 26 54  1  0  0  0
 27 28  1  0  0  0
 27 33  1  0  0  0
 27 55  1  0  0  0
 28 29  1  0  0  0
 28 31  1  0  0  0
 28 56  1  0  0  0
 29 30  1  0  0  0
 29 57  1  0  0  0
 29 58  1  0  0  0
 30 59  1  0  0  0
 31 32  1  0  0  0
 31 60  1  0  0  0
 31 61  1  0  0  0
 32 33  1  0  0  0
 32 62  1  0  0  0
 32 63  1  0  0  0
 33 64  1  0  0  0
 33 65  1  0  0  0
M  CHG  1  27   1
M  END
> <s_m_source_file>
../4v24_ligand.sdf

> <i_m_source_file_index>
1

> <s_epik_input>
W2NIXTFbY0hdW2NIXVtjSF1bY0hdYzFTKD1PKSg9TylbQ0gyXWMyW2NIXWMoW0NIM10pW2NIXWMoW2NIXTIpT1tDSDJdYzNbY0hdW2NIXWMoW2NIXVtjSF0zKVtDSDJdW05AQEgrXTRbQ0BASF0oW0NIMl1bT0hdKVtDSDJdW0NIMl1bQ0gyXTQ=

> <s_epik_cmdline>
J2VwaWtfYXBwJywgJy1pbWFlJywgJ2xpZ2FuZF9wcm8ubWFlJywgJy1vbWFlJywgJ2xpZ2FuZF9wcmVwLm1hZScsICctbXMnLCAnMScsICctcGgnLCAnNycsICctcGh0JywgJzAuNScsICctbnQn

> <r_lp_tautomer_probability>
1

> <r_epik_Ionization_Penalty>
  0.0072

> <r_epik_Ionization_Penalty_Charging>
  0.0072

> <r_epik_Ionization_Penalty_Neutral>
  0.0000

> <r_epik_State_Penalty>
 -0.0000

> <r_epik_Charging_Adjusted_Penalty>
0.00724469358180827

> <i_epik_Tot_Q>
1

> <i_epik_Tot_abs_Q>
1

$$$$
