4v27_ligand
                    3D
 Schrodinger Suite 2020-3.
 45 46  0  0  1  0            999 V2000
   21.6970    3.0360   -6.9630 C   0  0  2  0  0  0
   21.5890    2.0420   -8.1250 C   0  0  2  0  0  0
   22.3760    2.5340   -9.3410 C   0  0  2  0  0  0
   22.0260    3.9870   -9.6720 C   0  0  1  0  0  0
   22.2030    4.8580   -8.4300 C   0  0  1  0  0  0
   21.8280    6.3100   -8.7380 C   0  0  0  0  0  0
   20.2280    2.0050   -8.4620 O   0  0  0  0  0  0
   22.1190    1.6860  -10.4450 O   0  0  0  0  0  0
   22.8150    4.5030  -10.7330 O   0  0  0  0  0  0
   21.3680    4.3470   -7.4020 O   0  0  0  0  0  0
   22.1180    7.1290   -7.6310 O   0  0  0  0  0  0
   24.0450    1.3040   -4.2440 O   0  0  0  0  0  0
   24.3010    2.7170   -4.3600 C   0  0  1  0  0  0
   23.1000    3.3690   -5.0530 C   0  0  2  0  0  0
   22.9900    2.8500   -6.3850 O   0  0  0  0  0  0
   23.2180    4.9010   -5.1010 C   0  0  0  0  0  0
   23.4350    5.3870   -3.7470 N   0  3  0  0  0  0
   24.6210    4.8690   -3.0750 C   0  0  0  0  0  0
   24.5260    3.3360   -2.9750 C   0  0  2  0  0  0
   25.7640    2.7940   -2.2670 C   0  0  0  0  0  0
   26.9400    2.9690   -3.0790 O   0  0  0  0  0  0
   20.9945    2.9285   -6.1234 H   0  0  0  0  0  0
   21.9152    1.0278   -7.8513 H   0  0  0  0  0  0
   23.4592    2.4462   -9.1708 H   0  0  0  0  0  0
   21.0020    4.0384  -10.0704 H   0  0  0  0  0  0
   23.2314    4.8061   -8.0430 H   0  0  0  0  0  0
   22.4034    6.6608   -9.6074 H   0  0  0  0  0  0
   20.7526    6.3716   -8.9610 H   0  0  0  0  0  0
   19.4863    1.6759   -7.7194 H   0  0  0  0  0  0
   22.3189    0.6071  -10.3680 H   0  0  0  0  0  0
   22.8145    4.0025  -11.7125 H   0  0  0  0  0  0
   21.9112    8.2084   -7.6763 H   0  0  0  0  0  0
   23.8612    0.7024   -5.1464 H   0  0  0  0  0  0
   25.2166    2.8225   -4.9605 H   0  0  0  0  0  0
   22.1743    3.0926   -4.5270 H   0  0  0  0  0  0
   24.0655    5.1835   -5.7428 H   0  0  0  0  0  0
   22.2902    5.3276   -5.5100 H   0  0  0  0  0  0
   23.5416    6.4817   -3.7631 H   0  0  0  0  0  0
   22.5768    5.1114   -3.1165 H   0  0  0  0  0  0
   25.5176    5.1440   -3.6498 H   0  0  0  0  0  0
   24.6871    5.2989   -2.0646 H   0  0  0  0  0  0
   23.6576    3.0444   -2.3660 H   0  0  0  0  0  0
   25.9077    3.3304   -1.3175 H   0  0  0  0  0  0
   25.6308    1.7209   -2.0654 H   0  0  0  0  0  0
   27.9188    2.6290   -2.7098 H   0  0  0  0  0  0
  1  2  1  0  0  0
  1 10  1  0  0  0
  1 15  1  0  0  0
  1 22  1  0  0  0
  2  3  1  0  0  0
  2  7  1  0  0  0
  2 23  1  0  0  0
  3  4  1  0  0  0
  3  8  1  0  0  0
  3 24  1  0  0  0
  4  5  1  0  0  0
  4  9  1  0  0  0
  4 25  1  0  0  0
  5  6  1  0  0  0
  5 10  1  0  0  0
  5 26  1  0  0  0
  6 11  1  0  0  0
  6 27  1  0  0  0
  6 28  1  0  0  0
  7 29  1  0  0  0
  8 30  1  0  0  0
  9 31  1  0  0  0
 11 32  1  0  0  0
 12 13  1  0  0  0
 12 33  1  0  0  0
 13 14  1  0  0  0
 13 19  1  0  0  0
 13 34  1  0  0  0
 14 15  1  0  0  0
 14 16  1  0  0  0
 14 35  1  0  0  0
 16 17  1  0  0  0
 16 36  1  0  0  0
 16 37  1  0  0  0
 17 18  1  0  0  0
 17 38  1  0  0  0
 17 39  1  0  0  0
 18 19  1  0  0  0
 18 40  1  0  0  0
 18 41  1  0  0  0
 19 20  1  0  0  0
 19 42  1  0  0  0
 20 21  1  0  0  0
 20 43  1  0  0  0
 20 44  1  0  0  0
 21 45  1  0  0  0
M  CHG  1  17   1
M  END
> <s_m_source_file>
../4v27_ligand.sdf

> <i_m_source_file_index>
1

> <s_epik_input>
W09IXVtDSDJdW0NAQEhdKE8xKVtDQEBIXShbT0hdKVtDQEhdKFtPSF0pW0NASF0oW09IXSlbQ0BIXTFPW0NAQEhdKFtDQEBIXTJbT0hdKVtDSDJdW05IMitdW0NIMl1bQ0BASF0yW0NIMl1bT0hd

> <s_epik_cmdline>
J2VwaWtfYXBwJywgJy1pbWFlJywgJ2xpZ2FuZF9wcm8ubWFlJywgJy1vbWFlJywgJ2xpZ2FuZF9wcmVwLm1hZScsICctbXMnLCAnMScsICctcGgnLCAnNycsICctcGh0JywgJzAuNScsICctbnQn

> <r_lp_tautomer_probability>
1

> <r_epik_Ionization_Penalty>
  0.0059

> <r_epik_Ionization_Penalty_Charging>
  0.0059

> <r_epik_Ionization_Penalty_Neutral>
  0.0000

> <r_epik_State_Penalty>
 -0.0000

> <r_epik_Charging_Adjusted_Penalty>
0.00591552963679895

> <i_epik_Tot_Q>
1

> <i_epik_Tot_abs_Q>
1

> <s_epik_Chemistry_Notes>
This compound contains an acetal/aminal-like group ( X-CH(R)-Y where X, Y are N, S, or O) that may be acid/base labile, releasing an aldehyde.

$$$$
