4vgc_ligand
                    3D
 Schrodinger Suite 2020-3.
 33 34  0  0  1  0            999 V2000
   28.3640    1.8610   39.9650 C   0  0  0  0  0  0
   27.8350    2.9150   40.6900 C   0  0  0  0  0  0
   27.9210    2.9310   42.1100 C   0  0  0  0  0  0
   28.5480    1.8940   42.7830 C   0  0  0  0  0  0
   29.0860    0.8380   42.0650 C   0  0  0  0  0  0
   28.9910    0.8270   40.6610 C   0  0  0  0  0  0
   27.2310    3.9720   40.0380 C   0  0  0  0  0  0
   26.7110    5.0330   40.7660 C   0  0  0  0  0  0
   26.7910    5.0410   42.1670 C   0  0  0  0  0  0
   27.3910    4.0000   42.8350 C   0  0  0  0  0  0
   28.2450    1.8190   38.4660 C   0  0  0  0  0  0
   29.5250    2.2060   37.7340 C   0  0  1  0  0  0
   32.8750    0.4840   38.1940 C   0  0  0  0  0  0
   31.8400    1.5810   38.0580 C   0  0  0  0  0  0
   30.6120    1.2520   37.6820 N   0  0  0  0  0  0
   32.1550    2.7520   38.3390 O   0  0  0  0  0  0
   29.0090    1.3050   35.4530 O   0  0  0  0  0  0
   29.0740    2.5460   36.2540 B   0  0  0  0  0  0
   28.6174    1.9091   43.8707 H   0  0  0  0  0  0
   29.5812    0.0185   42.5860 H   0  0  0  0  0  0
   29.4168   -0.0081   40.1047 H   0  0  0  0  0  0
   27.1626    3.9730   38.9501 H   0  0  0  0  0  0
   26.2373    5.8657   40.2461 H   0  0  0  0  0  0
   26.3750    5.8774   42.7288 H   0  0  0  0  0  0
   27.4525    4.0091   43.9232 H   0  0  0  0  0  0
   27.9833    0.7992   38.1474 H   0  0  0  0  0  0
   27.4600    2.5175   38.1408 H   0  0  0  0  0  0
   30.0190    2.9738   38.3476 H   0  0  0  0  0  0
   32.4283   -0.4792   37.9065 H   0  0  0  0  0  0
   33.2190    0.4318   39.2375 H   0  0  0  0  0  0
   33.7295    0.7026   37.5367 H   0  0  0  0  0  0
   30.4285    0.2280   37.3245 H   0  0  0  0  0  0
   28.7117    1.3483   34.3948 H   0  0  0  0  0  0
  1  2  2  0  0  0
  1  6  1  0  0  0
  1 11  1  0  0  0
  2  3  1  0  0  0
  2  7  1  0  0  0
  3  4  2  0  0  0
  3 10  1  0  0  0
  4  5  1  0  0  0
  4 19  1  0  0  0
  5  6  2  0  0  0
  5 20  1  0  0  0
  6 21  1  0  0  0
  7  8  2  0  0  0
  7 22  1  0  0  0
  8  9  1  0  0  0
  8 23  1  0  0  0
  9 10  2  0  0  0
  9 24  1  0  0  0
 10 25  1  0  0  0
 11 12  1  0  0  0
 11 26  1  0  0  0
 11 27  1  0  0  0
 12 15  1  0  0  0
 12 18  1  0  0  0
 12 28  1  0  0  0
 13 14  1  0  0  0
 13 29  1  0  0  0
 13 30  1  0  0  0
 13 31  1  0  0  0
 14 15  1  0  0  0
 14 16  2  0  0  0
 15 32  1  0  0  0
 17 18  1  0  0  0
 17 33  1  0  0  0
M  END
> <s_m_source_file>
../4vgc_ligand.sdf

> <i_m_source_file_index>
1

> <s_epik_input>
W0NIM11DKD1PKVtOSF1bQ0BASF0oW0JIXVtPSF0pW0NIMl1jMVtjSF1bY0hdW2NIXWMoYzEyKVtjSF1bY0hdW2NIXVtjSF0y

> <s_epik_cmdline>
J2VwaWtfYXBwJywgJy1pbWFlJywgJ2xpZ2FuZF9wcm8ubWFlJywgJy1vbWFlJywgJ2xpZ2FuZF9wcmVwLm1hZScsICctbXMnLCAnMScsICctcGgnLCAnNycsICctcGh0JywgJzAuNScsICctbnQn

> <r_lp_tautomer_probability>
1

> <r_epik_Ionization_Penalty>
  0.0000

> <r_epik_Ionization_Penalty_Charging>
  0.0000

> <r_epik_Ionization_Penalty_Neutral>
  0.0000

> <r_epik_State_Penalty>
 -0.0000

> <r_epik_Charging_Adjusted_Penalty>
0

> <i_epik_Tot_Q>
0

> <i_epik_Tot_abs_Q>
0

$$$$
