4w4s_ligand
                    3D
 Schrodinger Suite 2020-3.
 47 50  0  0  1  0            999 V2000
    5.0190  -11.8750   -4.1660 C   0  0  0  0  0  0
    6.2720  -11.4390   -3.6740 C   0  0  0  0  0  0
    6.3360  -10.7360   -2.4580 C   0  0  0  0  0  0
    5.1500  -10.4710   -1.7400 C   0  0  0  0  0  0
    3.8990  -10.9080   -2.2380 C   0  0  0  0  0  0
    3.8290  -11.6110   -3.4570 C   0  0  0  0  0  0
    2.7780  -12.1420   -4.1610 O   0  0  0  0  0  0
    3.2550  -12.7360   -5.2880 C   0  0  0  0  0  0
    4.6680  -12.5680   -5.2920 C   0  0  0  0  0  0
    5.4460  -13.0810   -6.3370 C   0  0  0  0  0  0
    4.8480  -13.7690   -7.3860 C   0  0  0  0  0  0
    3.4460  -13.9540   -7.4050 C   0  0  0  0  0  0
    2.6660  -13.4680   -6.4220 C   0  0  2  0  0  0
    1.6480  -12.7920   -7.2280 C   0  0  0  0  0  0
    0.3310  -12.6510   -6.7090 C   0  0  0  0  0  0
    1.9100  -12.2530   -8.5480 C   0  0  0  0  0  0
    0.8970  -11.6180   -9.2910 C   0  0  0  0  0  0
   -0.3880  -11.4920   -8.7590 C   0  0  0  0  0  0
   -0.6730  -12.0010   -7.4830 C   0  0  0  0  0  0
   -2.0710  -11.8480   -6.9380 C   0  0  0  0  0  0
   -3.3430  -12.2940   -6.3570 C   0  0  1  0  0  0
   -4.1170  -10.8320   -5.4670 P   0  0  0  0  0  0
   -5.5960  -10.6390   -6.0810 O   0  5  0  0  0  0
   -4.2700  -11.2630   -3.9330 O   0  5  0  0  0  0
   -3.3080   -9.5950   -5.5930 O   0  0  0  0  0  0
   -4.4590  -12.9370   -7.7130 P   0  0  0  0  0  0
   -4.4320  -11.8250   -8.8720 O   0  5  0  0  0  0
   -3.7790  -14.2650   -8.2990 O   0  0  0  0  0  0
   -5.8360  -13.1950   -7.2400 O   0  0  0  0  0  0
   -3.0980  -13.3370   -5.4240 O   0  0  0  0  0  0
    7.1831  -11.6471   -4.2349 H   0  0  0  0  0  0
    7.2972  -10.3972   -2.0715 H   0  0  0  0  0  0
    5.1977   -9.9268   -0.7968 H   0  0  0  0  0  0
    2.9878  -10.7001   -1.6771 H   0  0  0  0  0  0
    6.5364  -12.9369   -6.3245 H   0  0  0  0  0  0
    5.4653  -14.1706   -8.2031 H   0  0  0  0  0  0
    3.0277  -13.4936   -8.3122 H   0  0  0  0  0  0
    3.2180  -15.0301   -7.4015 H   0  0  0  0  0  0
    2.3400  -14.3244   -5.8136 H   0  0  0  0  0  0
    0.0902  -13.0401   -5.7197 H   0  0  0  0  0  0
    2.9099  -12.3411   -8.9730 H   0  0  0  0  0  0
    1.1160  -11.2239  -10.2834 H   0  0  0  0  0  0
   -1.1701  -10.9979   -9.3354 H   0  0  0  0  0  0
   -2.0529  -11.1796   -6.0645 H   0  0  0  0  0  0
   -2.7223  -11.4195   -7.7141 H   0  0  0  0  0  0
   -2.7515  -14.2301   -8.6901 H   0  0  0  0  0  0
   -2.4585  -13.1525   -4.5482 H   0  0  0  0  0  0
  1  2  2  0  0  0
  1  6  1  0  0  0
  1  9  1  0  0  0
  2  3  1  0  0  0
  2 31  1  0  0  0
  3  4  2  0  0  0
  3 32  1  0  0  0
  4  5  1  0  0  0
  4 33  1  0  0  0
  5  6  2  0  0  0
  5 34  1  0  0  0
  6  7  1  0  0  0
  7  8  1  0  0  0
  8  9  2  0  0  0
  8 13  1  0  0  0
  9 10  1  0  0  0
 10 11  2  0  0  0
 10 35  1  0  0  0
 11 12  1  0  0  0
 11 36  1  0  0  0
 12 13  1  0  0  0
 12 37  1  0  0  0
 12 38  1  0  0  0
 13 14  1  0  0  0
 13 39  1  0  0  0
 14 15  2  0  0  0
 14 16  1  0  0  0
 15 19  1  0  0  0
 15 40  1  0  0  0
 16 17  2  0  0  0
 16 41  1  0  0  0
 17 18  1  0  0  0
 17 42  1  0  0  0
 18 19  2  0  0  0
 18 43  1  0  0  0
 19 20  1  0  0  0
 20 21  1  0  0  0
 20 44  1  0  0  0
 20 45  1  0  0  0
 21 22  1  0  0  0
 21 26  1  0  0  0
 21 30  1  0  0  0
 22 23  1  0  0  0
 22 24  1  0  0  0
 22 25  2  0  0  0
 26 27  1  0  0  0
 26 28  1  0  0  0
 26 29  2  0  0  0
 28 46  1  0  0  0
 30 47  1  0  0  0
M  CHG  3  23  -1  24  -1  27  -1
M  END
> <s_m_source_file>
../4w4s_ligand.sdf

> <i_m_source_file_index>
1

> <s_epik_input>
W2NIXTFbY0hdW2NIXVtjSF1jKGMxMilvYzNjMltDSF09W0NIXVtDSDJdW0NAQEhdM2M0W2NIXWMoW2NIXVtjSF1bY0hdNClbQ0gyXUMoW09IXSkoUCg9TykoW09IXSlbT0hdKVAoPU8pKFtPSF0pW09IXQ==

> <s_epik_cmdline>
J2VwaWtfYXBwJywgJy1pbWFlJywgJ2xpZ2FuZF9wcm8ubWFlJywgJy1vbWFlJywgJ2xpZ2FuZF9wcmVwLm1hZScsICctbXMnLCAnMScsICctcGgnLCAnNycsICctcGh0JywgJzAuNScsICctbnQn

> <r_epik_Ionization_Penalty>
  0.2076

> <r_epik_Ionization_Penalty_Charging>
  0.2075

> <r_epik_Ionization_Penalty_Neutral>
  0.0000

> <r_epik_State_Penalty>
  0.1975

> <r_epik_Charging_Adjusted_Penalty>
0.405015510376707

> <i_epik_Tot_Q>
-3

> <i_epik_Tot_abs_Q>
3

$$$$
