4w4w_ligand
                    3D
 Schrodinger Suite 2020-3.
 51 54  0  0  1  0            999 V2000
    2.9740  -30.9270  -31.9760 C   0  0  0  0  0  0
    4.4940  -27.7200  -32.0500 C   0  0  0  0  0  0
    5.9310  -23.6430  -33.1980 N   0  0  0  0  0  0
    6.9210  -23.4880  -34.2560 C   0  0  0  0  0  0
    8.7890  -22.3420  -35.2420 C   0  0  0  0  0  0
    8.6960  -23.1440  -36.3890 C   0  0  0  0  0  0
    7.6560  -24.0790  -36.5150 C   0  0  0  0  0  0
    6.3290  -28.5740  -33.0350 C   0  0  0  0  0  0
    1.1280  -34.8130  -34.6660 C   0  0  0  0  0  0
    1.0180  -35.8920  -35.5210 C   0  0  0  0  0  0
    3.9800  -37.9620  -34.6170 C   0  0  0  0  0  0
    2.9790  -36.8360  -34.6180 C   0  0  0  0  0  0
    3.1200  -35.7880  -33.7270 C   0  0  0  0  0  0
    2.1580  -34.7770  -33.7270 C   0  0  0  0  0  0
    2.3620  -33.5920  -32.8780 N   0  0  0  0  0  0
    1.3950  -32.8630  -32.1450 C   0  0  0  0  0  0
    0.2280  -33.1940  -32.0760 O   0  0  0  0  0  0
    1.8860  -31.6280  -31.4340 C   0  0  0  0  0  0
    1.2100  -31.1150  -30.3060 C   0  0  0  0  0  0
    1.6460  -29.9100  -29.7020 C   0  0  0  0  0  0
    2.7700  -29.2580  -30.1990 C   0  0  0  0  0  0
    3.4600  -29.7720  -31.3370 C   0  0  0  0  0  0
    4.4940  -29.0580  -31.9030 N   0  0  0  0  0  0
    5.6680  -27.3720  -32.7060 C   0  0  0  0  0  0
    6.0850  -26.0880  -33.0860 N   0  0  0  0  0  0
    5.4880  -24.9120  -32.6770 C   0  0  0  0  0  0
    4.5770  -24.9390  -31.9230 O   0  0  0  0  0  0
    7.9020  -22.4820  -34.1780 C   0  0  0  0  0  0
    6.7980  -24.2600  -35.4420 C   0  0  0  0  0  0
    5.5650  -29.5630  -32.6000 N   0  0  0  0  0  0
    1.9550  -36.8760  -35.4870 N   0  0  0  0  0  0
    3.4438  -31.2784  -32.8946 H   0  0  0  0  0  0
    3.7151  -27.0348  -31.7154 H   0  0  0  0  0  0
    5.4691  -22.7546  -32.7425 H   0  0  0  0  0  0
    9.5758  -21.5900  -35.1821 H   0  0  0  0  0  0
    9.4334  -23.0411  -37.1851 H   0  0  0  0  0  0
    7.5266  -24.6490  -37.4351 H   0  0  0  0  0  0
    7.2855  -28.6697  -33.5489 H   0  0  0  0  0  0
    0.4125  -33.9929  -34.7251 H   0  0  0  0  0  0
    0.1837  -35.9542  -36.2197 H   0  0  0  0  0  0
    4.7455  -37.7714  -33.8504 H   0  0  0  0  0  0
    4.4590  -38.0277  -35.6051 H   0  0  0  0  0  0
    3.4664  -38.9090  -34.3948 H   0  0  0  0  0  0
    3.9648  -35.7523  -33.0391 H   0  0  0  0  0  0
    3.3704  -33.1698  -32.7560 H   0  0  0  0  0  0
    0.3504  -31.6473  -29.8987 H   0  0  0  0  0  0
    1.1035  -29.4958  -28.8521 H   0  0  0  0  0  0
    3.1259  -28.3482  -29.7156 H   0  0  0  0  0  0
    6.9472  -25.9662  -33.7582 H   0  0  0  0  0  0
    7.9657  -21.8294  -33.3073 H   0  0  0  0  0  0
    6.0113  -25.0114  -35.5096 H   0  0  0  0  0  0
  1 18  2  0  0  0
  1 22  1  0  0  0
  1 32  1  0  0  0
  2 23  1  0  0  0
  2 24  2  0  0  0
  2 33  1  0  0  0
  3  4  1  0  0  0
  3 26  1  0  0  0
  3 34  1  0  0  0
  4 28  2  0  0  0
  4 29  1  0  0  0
  5  6  2  0  0  0
  5 28  1  0  0  0
  5 35  1  0  0  0
  6  7  1  0  0  0
  6 36  1  0  0  0
  7 29  2  0  0  0
  7 37  1  0  0  0
  8 24  1  0  0  0
  8 30  2  0  0  0
  8 38  1  0  0  0
  9 10  2  0  0  0
  9 14  1  0  0  0
  9 39  1  0  0  0
 10 31  1  0  0  0
 10 40  1  0  0  0
 11 12  1  0  0  0
 11 41  1  0  0  0
 11 42  1  0  0  0
 11 43  1  0  0  0
 12 13  1  0  0  0
 12 31  2  0  0  0
 13 14  2  0  0  0
 13 44  1  0  0  0
 14 15  1  0  0  0
 15 16  1  0  0  0
 15 45  1  0  0  0
 16 17  2  0  0  0
 16 18  1  0  0  0
 18 19  1  0  0  0
 19 20  2  0  0  0
 19 46  1  0  0  0
 20 21  1  0  0  0
 20 47  1  0  0  0
 21 22  2  0  0  0
 21 48  1  0  0  0
 22 23  1  0  0  0
 23 30  1  0  0  0
 24 25  1  0  0  0
 25 26  1  0  0  0
 25 49  1  0  0  0
 26 27  2  0  0  0
 28 50  1  0  0  0
 29 51  1  0  0  0
M  END
> <s_m_source_file>
../4w4w_ligand.sdf

> <i_m_source_file_index>
1

> <s_epik_input>
W0NIM11jMVtjSF1jKFtjSF1bY0hdbjEpW05IXUMoPU8pYzJbY0hdYyhbY0hdW2NIXVtjSF0yKS1uM1tjSF1jKFtjSF1uMylbTkhdQyg9TylbTkhdYzRbY0hdW2NIXVtjSF1bY0hdW2NIXTQ=

> <s_epik_cmdline>
J2VwaWtfYXBwJywgJy1pbWFlJywgJ2xpZ2FuZF9wcm8ubWFlJywgJy1vbWFlJywgJ2xpZ2FuZF9wcmVwLm1hZScsICctbXMnLCAnMScsICctcGgnLCAnNycsICctcGh0JywgJzAuNScsICctbnQn

> <r_lp_tautomer_probability>
1

> <r_epik_Ionization_Penalty>
  0.0125

> <r_epik_Ionization_Penalty_Charging>
  0.0000

> <r_epik_Ionization_Penalty_Neutral>
  0.0125

> <r_epik_State_Penalty>
  0.0096

> <r_epik_Charging_Adjusted_Penalty>
0.00958956781399638

> <i_epik_Tot_Q>
0

> <i_epik_Tot_abs_Q>
0

$$$$
