4w4x_ligand
                    3D
 Schrodinger Suite 2020-3.
 51 54  0  0  1  0            999 V2000
   -1.3640   30.2640  -29.6390 C   0  0  0  0  0  0
   -3.9880   38.1550  -34.3360 C   0  0  0  0  0  0
   -2.8970   37.1010  -34.3880 C   0  0  0  0  0  0
   -2.9610   36.0370  -33.5050 C   0  0  0  0  0  0
   -1.9530   35.0870  -33.5120 C   0  0  0  0  0  0
   -2.1600   33.9340  -32.7180 N   0  0  0  0  0  0
   -1.1520   33.1160  -32.1410 C   0  0  0  0  0  0
    0.0430   33.3210  -32.2790 O   0  0  0  0  0  0
   -1.6230   31.8950  -31.3750 C   0  0  0  0  0  0
   -0.9120   31.4060  -30.2790 C   0  0  0  0  0  0
   -2.4880   29.5880  -30.1140 C   0  0  0  0  0  0
   -3.1900   30.0660  -31.2100 C   0  0  0  0  0  0
   -2.7150   31.1820  -31.8700 C   0  0  0  0  0  0
   -4.2210   29.3850  -31.7520 N   0  0  0  0  0  0
   -4.1920   28.0710  -32.0140 C   0  0  0  0  0  0
   -5.3730   27.7190  -32.6490 C   0  0  0  0  0  0
   -5.7900   26.4240  -33.0710 N   0  0  0  0  0  0
   -5.1420   25.2110  -32.6630 C   0  0  0  0  0  0
   -4.2260   25.2260  -31.8830 O   0  0  0  0  0  0
   -5.5240   23.9140  -33.0700 N   0  0  0  0  0  0
   -6.5330   23.6790  -34.0180 C   0  0  0  0  0  0
   -7.4710   22.6620  -33.8010 C   0  0  0  0  0  0
   -8.4450   22.4800  -34.7760 C   0  0  0  0  0  0
   -8.4090   23.2500  -35.9670 C   0  0  0  0  0  0
   -9.3430   23.1330  -36.9110 F   0  0  0  0  0  0
   -7.4130   24.1780  -36.2080 C   0  0  0  0  0  0
   -6.4330   24.3400  -35.2560 C   0  0  0  0  0  0
   -6.0760   28.8930  -32.8390 C   0  0  0  0  0  0
   -5.3500   29.8900  -32.2960 N   0  0  0  0  0  0
   -0.9580   35.1790  -34.4780 C   0  0  0  0  0  0
   -0.9150   36.2710  -35.3380 C   0  0  0  0  0  0
   -1.8830   37.2060  -35.2790 N   0  0  0  0  0  0
   -0.8387   29.8915  -28.7596 H   0  0  0  0  0  0
   -4.7142   37.8927  -33.5525 H   0  0  0  0  0  0
   -4.4992   38.2019  -35.3089 H   0  0  0  0  0  0
   -3.5413   39.1342  -34.1089 H   0  0  0  0  0  0
   -3.7966   35.9476  -32.8108 H   0  0  0  0  0  0
   -3.1828   33.5953  -32.4962 H   0  0  0  0  0  0
   -0.0134   31.9155  -29.9312 H   0  0  0  0  0  0
   -2.8177   28.6748  -29.6186 H   0  0  0  0  0  0
   -3.1996   31.5100  -32.7896 H   0  0  0  0  0  0
   -3.3755   27.3919  -31.7686 H   0  0  0  0  0  0
   -6.6519   26.3165  -33.7459 H   0  0  0  0  0  0
   -5.0244   23.0332  -32.6403 H   0  0  0  0  0  0
   -7.4388   22.0401  -32.9064 H   0  0  0  0  0  0
   -9.2364   21.7457  -34.6254 H   0  0  0  0  0  0
   -7.4044   24.7649  -37.1265 H   0  0  0  0  0  0
   -5.5766   24.9823  -35.4615 H   0  0  0  0  0  0
   -7.0405   28.9942  -33.3366 H   0  0  0  0  0  0
   -0.2084   34.3921  -34.5619 H   0  0  0  0  0  0
   -0.1015   36.3700  -36.0567 H   0  0  0  0  0  0
  1 10  2  0  0  0
  1 11  1  0  0  0
  1 33  1  0  0  0
  2  3  1  0  0  0
  2 34  1  0  0  0
  2 35  1  0  0  0
  2 36  1  0  0  0
  3  4  2  0  0  0
  3 32  1  0  0  0
  4  5  1  0  0  0
  4 37  1  0  0  0
  5  6  1  0  0  0
  5 30  2  0  0  0
  6  7  1  0  0  0
  6 38  1  0  0  0
  7  8  2  0  0  0
  7  9  1  0  0  0
  9 10  1  0  0  0
  9 13  2  0  0  0
 10 39  1  0  0  0
 11 12  2  0  0  0
 11 40  1  0  0  0
 12 13  1  0  0  0
 12 14  1  0  0  0
 13 41  1  0  0  0
 14 15  1  0  0  0
 14 29  1  0  0  0
 15 16  2  0  0  0
 15 42  1  0  0  0
 16 17  1  0  0  0
 16 28  1  0  0  0
 17 18  1  0  0  0
 17 43  1  0  0  0
 18 19  2  0  0  0
 18 20  1  0  0  0
 20 21  1  0  0  0
 20 44  1  0  0  0
 21 22  2  0  0  0
 21 27  1  0  0  0
 22 23  1  0  0  0
 22 45  1  0  0  0
 23 24  2  0  0  0
 23 46  1  0  0  0
 24 25  1  0  0  0
 24 26  1  0  0  0
 26 27  2  0  0  0
 26 47  1  0  0  0
 27 48  1  0  0  0
 28 29  2  0  0  0
 28 49  1  0  0  0
 30 31  1  0  0  0
 30 50  1  0  0  0
 31 32  2  0  0  0
 31 51  1  0  0  0
M  END
> <s_m_source_file>
../4w4x_ligand.sdf

> <i_m_source_file_index>
1

> <s_epik_input>
W0NIM11jMVtjSF1jKFtjSF1bY0hdbjEpW05IXUMoPU8pYzJbY0hdW2NIXVtjSF1jKFtjSF0yKS1uM1tjSF1jKFtjSF1uMylbTkhdQyg9TylbTkhdYzRbY0hdW2NIXWMoRilbY0hdW2NIXTQ=

> <s_epik_cmdline>
J2VwaWtfYXBwJywgJy1pbWFlJywgJ2xpZ2FuZF9wcm8ubWFlJywgJy1vbWFlJywgJ2xpZ2FuZF9wcmVwLm1hZScsICctbXMnLCAnMScsICctcGgnLCAnNycsICctcGh0JywgJzAuNScsICctbnQn

> <r_lp_tautomer_probability>
1

> <r_epik_Ionization_Penalty>
  0.0125

> <r_epik_Ionization_Penalty_Charging>
  0.0000

> <r_epik_Ionization_Penalty_Neutral>
  0.0125

> <r_epik_State_Penalty>
  0.0096

> <r_epik_Charging_Adjusted_Penalty>
0.00958956781399652

> <i_epik_Tot_Q>
0

> <i_epik_Tot_abs_Q>
0

$$$$
