4w4y_ligand
                    3D
 Schrodinger Suite 2020-3.
 54 57  0  0  1  0            999 V2000
    9.6350  -23.1550  -36.6450 C   0  0  0  0  0  0
    8.4760  -23.3580  -35.6780 C   0  0  0  0  0  0
    7.4520  -24.1970  -36.0440 C   0  0  0  0  0  0
    6.3930  -24.3660  -35.1530 C   0  0  0  0  0  0
    6.4090  -23.7540  -33.9310 C   0  0  0  0  0  0
    5.3200  -23.9550  -33.0470 N   0  0  0  0  0  0
    4.9860  -25.2660  -32.5790 C   0  0  0  0  0  0
    4.0180  -25.3870  -31.8180 O   0  0  0  0  0  0
    5.7590  -26.3960  -32.9910 N   0  0  0  0  0  0
    5.4240  -27.6970  -32.6440 C   0  0  0  0  0  0
    6.1250  -28.8290  -32.9190 C   0  0  0  0  0  0
    5.4020  -29.8440  -32.4580 N   0  0  0  0  0  0
    4.2830  -29.3950  -31.8720 N   0  0  0  0  0  0
    4.2600  -28.0920  -32.0220 C   0  0  0  0  0  0
    3.2890  -30.1100  -31.3300 C   0  0  0  0  0  0
    2.6370  -29.6910  -30.1610 C   0  0  0  0  0  0
    1.5590  -30.4100  -29.6620 C   0  0  0  0  0  0
    1.1380  -31.5780  -30.2890 C   0  0  0  0  0  0
    1.7630  -32.0050  -31.4460 C   0  0  0  0  0  0
    2.8370  -31.2560  -31.9650 C   0  0  0  0  0  0
    1.3450  -33.2450  -32.1540 C   0  0  0  0  0  0
    0.2080  -33.6570  -32.1020 O   0  0  0  0  0  0
    2.3410  -33.9210  -32.9100 N   0  0  0  0  0  0
    2.1950  -35.1220  -33.6900 C   0  0  0  0  0  0
    1.1480  -35.2830  -34.6260 C   0  0  0  0  0  0
    1.1070  -36.4310  -35.4160 C   0  0  0  0  0  0
    2.0870  -37.3660  -35.3080 N   0  0  0  0  0  0
    3.1310  -37.2140  -34.4510 C   0  0  0  0  0  0
    4.2090  -38.2860  -34.3650 C   0  0  0  0  0  0
    3.1990  -36.0790  -33.6320 C   0  0  0  0  0  0
    7.4400  -22.8550  -33.5620 C   0  0  0  0  0  0
    8.4730  -22.6880  -34.4470 C   0  0  0  0  0  0
    9.4663  -23.7558  -37.5508 H   0  0  0  0  0  0
   10.5728  -23.4711  -36.1648 H   0  0  0  0  0  0
    9.7030  -22.0915  -36.9177 H   0  0  0  0  0  0
    7.4668  -24.7154  -37.0027 H   0  0  0  0  0  0
    5.5454  -24.9913  -35.4333 H   0  0  0  0  0  0
    4.7185  -23.0973  -32.7114 H   0  0  0  0  0  0
    6.6584  -26.2518  -33.6076 H   0  0  0  0  0  0
    7.0912  -28.8916  -33.4197 H   0  0  0  0  0  0
    3.4529  -27.4308  -31.7065 H   0  0  0  0  0  0
    2.9785  -28.7958  -29.6413 H   0  0  0  0  0  0
    1.0386  -30.0563  -28.7719 H   0  0  0  0  0  0
    0.3156  -32.1565  -29.8683 H   0  0  0  0  0  0
    3.3223  -31.5841  -32.8842 H   0  0  0  0  0  0
    3.3679  -33.5280  -32.9426 H   0  0  0  0  0  0
    0.3798  -34.5166  -34.7291 H   0  0  0  0  0  0
    0.2885  -36.5786  -36.1205 H   0  0  0  0  0  0
    3.9832  -39.0912  -35.0796 H   0  0  0  0  0  0
    4.2362  -38.6977  -33.3453 H   0  0  0  0  0  0
    5.1863  -37.8435  -34.6080 H   0  0  0  0  0  0
    4.0392  -35.9477  -32.9502 H   0  0  0  0  0  0
    7.4127  -22.3185  -32.6136 H   0  0  0  0  0  0
    9.3010  -22.0271  -34.1908 H   0  0  0  0  0  0
  1  2  1  0  0  0
  1 33  1  0  0  0
  1 34  1  0  0  0
  1 35  1  0  0  0
  2  3  2  0  0  0
  2 32  1  0  0  0
  3  4  1  0  0  0
  3 36  1  0  0  0
  4  5  2  0  0  0
  4 37  1  0  0  0
  5  6  1  0  0  0
  5 31  1  0  0  0
  6  7  1  0  0  0
  6 38  1  0  0  0
  7  8  2  0  0  0
  7  9  1  0  0  0
  9 10  1  0  0  0
  9 39  1  0  0  0
 10 11  1  0  0  0
 10 14  2  0  0  0
 11 12  2  0  0  0
 11 40  1  0  0  0
 12 13  1  0  0  0
 13 14  1  0  0  0
 13 15  1  0  0  0
 14 41  1  0  0  0
 15 16  2  0  0  0
 15 20  1  0  0  0
 16 17  1  0  0  0
 16 42  1  0  0  0
 17 18  2  0  0  0
 17 43  1  0  0  0
 18 19  1  0  0  0
 18 44  1  0  0  0
 19 20  2  0  0  0
 19 21  1  0  0  0
 20 45  1  0  0  0
 21 22  2  0  0  0
 21 23  1  0  0  0
 23 24  1  0  0  0
 23 46  1  0  0  0
 24 25  2  0  0  0
 24 30  1  0  0  0
 25 26  1  0  0  0
 25 47  1  0  0  0
 26 27  2  0  0  0
 26 48  1  0  0  0
 27 28  1  0  0  0
 28 29  1  0  0  0
 28 30  2  0  0  0
 29 49  1  0  0  0
 29 50  1  0  0  0
 29 51  1  0  0  0
 30 52  1  0  0  0
 31 32  2  0  0  0
 31 53  1  0  0  0
 32 54  1  0  0  0
M  END
> <s_m_source_file>
../4w4y_ligand.sdf

> <i_m_source_file_index>
1

> <s_epik_input>
W0NIM11jMVtjSF1bY0hdYyhbY0hdW2NIXTEpW05IXUMoPU8pW05IXWMyW2NIXW5uKFtjSF0yKS1jM1tjSF1bY0hdW2NIXWMoW2NIXTMpQyg9TylbTkhdYzRbY0hdW2NIXW5jKFtDSDNdKVtjSF00

> <s_epik_cmdline>
J2VwaWtfYXBwJywgJy1pbWFlJywgJ2xpZ2FuZF9wcm8ubWFlJywgJy1vbWFlJywgJ2xpZ2FuZF9wcmVwLm1hZScsICctbXMnLCAnMScsICctcGgnLCAnNycsICctcGh0JywgJzAuNScsICctbnQn

> <r_lp_tautomer_probability>
1

> <r_epik_Ionization_Penalty>
  0.0125

> <r_epik_Ionization_Penalty_Charging>
  0.0000

> <r_epik_Ionization_Penalty_Neutral>
  0.0125

> <r_epik_State_Penalty>
  0.0096

> <r_epik_Charging_Adjusted_Penalty>
0.00958956781399652

> <i_epik_Tot_Q>
0

> <i_epik_Tot_abs_Q>
0

$$$$
