4w4z_ligand
                    3D
 Schrodinger Suite 2020-3.
185190  0  0  1  0            999 V2000
   -9.7810  -34.6200  -18.3270 N   0  3  0  0  0  0
   -9.0430  -33.3360  -18.5600 C   0  0  2  0  0  0
   -9.9970  -32.1880  -18.3200 C   0  0  0  0  0  0
  -11.1980  -32.4150  -18.1640 O   0  0  0  0  0  0
   -8.4790  -33.2890  -19.9790 C   0  0  0  0  0  0
   -9.4790  -30.9510  -18.2610 N   0  0  0  0  0  0
  -10.4520  -29.8690  -18.2710 C   0  0  2  0  0  0
  -11.1300  -29.8050  -19.6410 C   0  0  0  0  0  0
  -10.4720  -29.9980  -20.6640 O   0  0  0  0  0  0
   -9.6010  -28.6100  -17.9970 C   0  0  0  0  0  0
   -8.2150  -28.9780  -18.3730 C   0  0  0  0  0  0
   -8.0930  -30.4570  -18.1160 C   0  0  0  0  0  0
  -12.4390  -29.5590  -19.6370 N   0  0  0  0  0  0
  -13.1990  -29.3490  -20.8560 C   0  0  2  0  0  0
  -12.7090  -28.0640  -21.5390 C   0  0  0  0  0  0
  -12.4990  -28.0680  -22.7580 O   0  0  0  0  0  0
  -14.7130  -29.3150  -20.5280 C   0  0  0  0  0  0
  -15.6750  -29.2080  -21.7140 C   0  0  0  0  0  0
  -15.5730  -30.0600  -22.8160 C   0  0  0  0  0  0
  -16.7120  -28.2630  -21.7100 C   0  0  0  0  0  0
  -16.4590  -29.9530  -23.8940 C   0  0  0  0  0  0
  -17.5930  -28.1480  -22.7730 C   0  0  0  0  0  0
  -17.4680  -28.9900  -23.8630 C   0  0  0  0  0  0
  -18.3580  -28.8710  -24.9080 O   0  0  0  0  0  0
  -12.5050  -26.9960  -20.7510 N   0  0  0  0  0  0
  -11.9590  -25.7060  -21.2360 C   0  0  2  0  0  0
  -10.6780  -25.2560  -20.5190 C   0  0  0  0  0  0
  -10.5390  -25.4610  -19.3200 O   0  0  0  0  0  0
  -12.9590  -24.5680  -21.0230 C   0  0  0  0  0  0
  -14.6480  -24.8590  -21.5520 S   0  0  0  0  0  0
   -9.8020  -24.5710  -21.2610 N   0  0  0  0  0  0
   -8.5500  -24.0230  -20.7550 C   0  0  2  0  0  0
   -8.4540  -22.5160  -21.0440 C   0  0  0  0  0  0
   -8.4930  -22.0950  -22.2080 O   0  0  0  0  0  0
   -7.3470  -24.7170  -21.4270 C   0  0  0  0  0  0
   -6.0190  -24.1310  -20.9530 C   0  0  0  0  0  0
   -7.3760  -26.2190  -21.1580 C   0  0  0  0  0  0
   -8.2970  -21.7010  -19.9980 N   0  0  0  0  0  0
   -8.0340  -20.2740  -20.1950 C   0  0  2  0  0  0
   -6.5830  -20.0290  -20.5650 C   0  0  0  0  0  0
   -5.6860  -20.3220  -19.7960 O   0  0  0  0  0  0
   -8.3950  -19.4650  -18.9610 C   0  0  0  0  0  0
   -8.3510  -17.9810  -19.2120 C   0  0  0  0  0  0
   -9.1330  -17.4100  -20.2180 C   0  0  0  0  0  0
   -7.5380  -17.1470  -18.4500 C   0  0  0  0  0  0
   -9.1000  -16.0500  -20.4620 C   0  0  0  0  0  0
   -7.4950  -15.7910  -18.6840 C   0  0  0  0  0  0
   -8.2770  -15.2430  -19.6880 C   0  0  0  0  0  0
   -8.2450  -13.8980  -19.9250 O   0  0  0  0  0  0
   -6.3490  -19.5200  -21.7690 N   0  0  0  0  0  0
   -4.9980  -19.2410  -22.2240 C   0  0  2  0  0  0
   -4.7590  -17.7460  -22.4360 C   0  0  0  0  0  0
   -3.7710  -17.3690  -23.0290 O   0  0  0  0  0  0
   -4.6990  -20.0840  -23.4690 C   0  0  0  0  0  0
   -4.6440  -21.5770  -23.1340 C   0  0  0  0  0  0
   -4.3310  -22.4400  -24.3300 C   0  0  0  0  0  0
   -2.8990  -22.5270  -24.6210 N   0  0  0  0  0  0
   -2.3890  -23.0810  -25.7200 C   0  0  0  0  0  0
   -3.2050  -23.5820  -26.6490 N   0  0  0  0  0  0
   -1.0650  -23.1160  -25.9030 N   0  0  0  0  0  0
   -5.6560  -16.8990  -21.9000 N   0  0  0  0  0  0
   -5.5480  -15.4600  -22.0100 C   0  0  0  0  0  0
   -6.0680  -14.8850  -23.3330 C   0  0  0  0  0  0
   -7.5690  -15.0250  -23.3850 C   0  0  0  0  0  0
   -8.2330  -14.2110  -22.7650 O   0  0  0  0  0  0
   -8.0510  -16.0680  -24.0940 N   0  0  0  0  0  0
   -9.4440  -16.4520  -24.2360 C   0  0  2  0  0  0
   -9.6100  -17.8870  -23.7350 C   0  0  0  0  0  0
   -8.6500  -18.6570  -23.7250 O   0  0  0  0  0  0
   -9.8480  -16.4230  -25.7130 C   0  0  0  0  0  0
   -9.6070  -15.1580  -26.3060 O   0  0  0  0  0  0
  -10.8290  -18.2290  -23.3320 N   0  0  0  0  0  0
  -11.1780  -19.5930  -23.0220 C   0  0  2  0  0  0
  -11.2260  -20.4760  -24.2880 C   0  0  0  0  0  0
  -11.7960  -20.1020  -25.3160 O   0  0  0  0  0  0
  -12.5320  -19.6620  -22.3290 C   0  0  0  0  0  0
  -12.5420  -19.3040  -20.8780 C   0  0  0  0  0  0
  -12.9490  -18.1280  -20.3380 C   0  0  0  0  0  0
  -12.1920  -20.1550  -19.7760 C   0  0  0  0  0  0
  -12.8580  -18.1790  -18.9670 N   0  0  0  0  0  0
  -12.3940  -19.4110  -18.5940 C   0  0  0  0  0  0
  -11.7230  -21.4700  -19.6760 C   0  0  0  0  0  0
  -12.1380  -19.9350  -17.3130 C   0  0  0  0  0  0
  -11.4640  -21.9980  -18.4030 C   0  0  0  0  0  0
  -11.6670  -21.2190  -17.2350 C   0  0  0  0  0  0
  -10.6680  -21.6680  -24.1710 N   0  0  0  0  0  0
  -10.5810  -22.5990  -25.2600 C   0  0  2  0  0  0
  -11.1940  -23.9080  -24.7910 C   0  0  0  0  0  0
  -10.6360  -24.5420  -23.9040 O   0  0  0  0  0  0
   -9.1080  -22.8050  -25.6110 C   0  0  0  0  0  0
   -8.9740  -23.3730  -26.8880 O   0  0  0  0  0  0
  -12.3440  -24.2840  -25.3610 N   0  0  0  0  0  0
  -13.0490  -25.5260  -24.9990 C   0  0  2  0  0  0
  -13.0540  -26.5210  -26.1530 C   0  0  0  0  0  0
  -12.4600  -26.2760  -27.2120 O   0  0  0  0  0  0
  -14.5030  -25.2380  -24.5780 C   0  0  0  0  0  0
  -14.7390  -23.9040  -23.3680 S   0  0  0  0  0  0
  -13.7370  -27.6500  -25.9840 N   0  0  0  0  0  0
  -10.1783  -34.6336  -17.3014 H   0  0  0  0  0  0
   -9.0942  -35.4680  -18.4654 H   0  0  0  0  0  0
  -10.6120  -34.7005  -19.0433 H   0  0  0  0  0  0
   -8.2017  -33.2696  -17.8544 H   0  0  0  0  0  0
   -7.7894  -34.1330  -20.1276 H   0  0  0  0  0  0
   -7.9379  -32.3428  -20.1273 H   0  0  0  0  0  0
   -9.3037  -33.3573  -20.7038 H   0  0  0  0  0  0
  -11.2413  -30.0350  -17.5230 H   0  0  0  0  0  0
   -9.9744  -27.7750  -18.6080 H   0  0  0  0  0  0
   -9.6709  -28.3448  -16.9317 H   0  0  0  0  0  0
   -8.0489  -28.7445  -19.4350 H   0  0  0  0  0  0
   -7.5042  -28.4079  -17.7567 H   0  0  0  0  0  0
   -7.7300  -30.6760  -17.1010 H   0  0  0  0  0  0
   -7.4466  -30.9569  -18.8524 H   0  0  0  0  0  0
  -12.9435  -29.5178  -18.6604 H   0  0  0  0  0  0
  -12.9960  -30.2018  -21.5204 H   0  0  0  0  0  0
  -14.9945  -30.2377  -19.9994 H   0  0  0  0  0  0
  -14.9305  -28.4459  -19.8897 H   0  0  0  0  0  0
  -14.7916  -30.8197  -22.8367 H   0  0  0  0  0  0
  -16.8273  -27.6034  -20.8499 H   0  0  0  0  0  0
  -16.3614  -30.6178  -24.7523 H   0  0  0  0  0  0
  -18.3821  -27.3964  -22.7503 H   0  0  0  0  0  0
  -18.2718  -29.5333  -25.7820 H   0  0  0  0  0  0
  -12.7682  -27.1177  -19.6899 H   0  0  0  0  0  0
  -11.7607  -25.9290  -22.2948 H   0  0  0  0  0  0
  -13.0217  -24.3309  -19.9507 H   0  0  0  0  0  0
  -12.6250  -23.6780  -21.5764 H   0  0  0  0  0  0
  -10.0766  -24.4312  -22.3170 H   0  0  0  0  0  0
   -8.5847  -24.2184  -19.6731 H   0  0  0  0  0  0
   -7.4206  -24.5469  -22.5113 H   0  0  0  0  0  0
   -6.0047  -23.0488  -21.1497 H   0  0  0  0  0  0
   -5.1915  -24.6130  -21.4942 H   0  0  0  0  0  0
   -5.9041  -24.3090  -19.8736 H   0  0  0  0  0  0
   -8.3348  -26.6346  -21.5016 H   0  0  0  0  0  0
   -7.2634  -26.4005  -20.0789 H   0  0  0  0  0  0
   -6.5508  -26.7045  -21.6996 H   0  0  0  0  0  0
   -8.3671  -22.1119  -18.9801 H   0  0  0  0  0  0
   -8.6857  -19.9801  -21.0310 H   0  0  0  0  0  0
   -9.4141  -19.7240  -18.6380 H   0  0  0  0  0  0
   -7.6850  -19.6931  -18.1524 H   0  0  0  0  0  0
   -9.7801  -18.0472  -20.8208 H   0  0  0  0  0  0
   -6.9259  -17.5741  -17.6557 H   0  0  0  0  0  0
   -9.7126  -15.6163  -21.2524 H   0  0  0  0  0  0
   -6.8489  -15.1516  -18.0824 H   0  0  0  0  0  0
   -8.8667  -13.4651  -20.7226 H   0  0  0  0  0  0
   -7.2053  -19.3095  -22.4266 H   0  0  0  0  0  0
   -4.3322  -19.5465  -21.4034 H   0  0  0  0  0  0
   -5.4880  -19.9237  -24.2185 H   0  0  0  0  0  0
   -3.7276  -19.7851  -23.8896 H   0  0  0  0  0  0
   -3.8624  -21.7552  -22.3807 H   0  0  0  0  0  0
   -5.6173  -21.8996  -22.7358 H   0  0  0  0  0  0
   -4.6956  -23.4621  -24.1501 H   0  0  0  0  0  0
   -4.8259  -22.0257  -25.2207 H   0  0  0  0  0  0
   -2.1672  -22.1189  -23.9084 H   0  0  0  0  0  0
   -4.2942  -23.5529  -26.4978 H   0  0  0  0  0  0
   -0.3927  -22.7028  -25.1367 H   0  0  0  0  0  0
   -0.6480  -23.5580  -26.8199 H   0  0  0  0  0  0
   -6.5017  -17.3472  -21.3579 H   0  0  0  0  0  0
   -6.1280  -14.9861  -21.2043 H   0  0  0  0  0  0
   -4.4920  -15.1639  -21.9246 H   0  0  0  0  0  0
   -5.7958  -13.8215  -23.4027 H   0  0  0  0  0  0
   -5.6186  -15.4344  -24.1734 H   0  0  0  0  0  0
   -7.2655  -16.6528  -24.5949 H   0  0  0  0  0  0
  -10.0263  -15.7289  -23.6460 H   0  0  0  0  0  0
   -9.2690  -17.1771  -26.2663 H   0  0  0  0  0  0
  -10.9214  -16.6455  -25.8040 H   0  0  0  0  0  0
   -9.8502  -14.9921  -27.3659 H   0  0  0  0  0  0
  -11.5827  -17.4334  -23.2376 H   0  0  0  0  0  0
  -10.3706  -19.9089  -22.3450 H   0  0  0  0  0  0
  -13.2310  -18.9691  -22.8202 H   0  0  0  0  0  0
  -12.9255  -20.6872  -22.3942 H   0  0  0  0  0  0
  -13.2977  -17.2671  -20.9085 H   0  0  0  0  0  0
  -11.5622  -22.0720  -20.5703 H   0  0  0  0  0  0
  -12.3084  -19.3406  -16.4154 H   0  0  0  0  0  0
  -11.1015  -23.0217  -18.3096 H   0  0  0  0  0  0
  -11.4444  -21.6495  -16.2587 H   0  0  0  0  0  0
  -10.2594  -21.9350  -23.1852 H   0  0  0  0  0  0
  -11.1304  -22.1839  -26.1178 H   0  0  0  0  0  0
   -8.5890  -21.8352  -25.5983 H   0  0  0  0  0  0
   -8.6460  -23.4779  -24.8736 H   0  0  0  0  0  0
   -7.9737  -23.5863  -27.2929 H   0  0  0  0  0  0
  -12.7615  -23.6192  -26.1315 H   0  0  0  0  0  0
  -12.4703  -25.9366  -24.1585 H   0  0  0  0  0  0
  -15.0911  -24.9525  -25.4626 H   0  0  0  0  0  0
  -14.9387  -26.1400  -24.1236 H   0  0  0  0  0  0
  -14.2554  -27.8421  -25.0330 H   0  0  0  0  0  0
  -13.7834  -28.3914  -26.7952 H   0  0  0  0  0  0
  1  2  1  0  0  0
  1 99  1  0  0  0
  1100  1  0  0  0
  1101  1  0  0  0
  2  3  1  0  0  0
  2  5  1  0  0  0
  2102  1  0  0  0
  3  4  2  0  0  0
  3  6  1  0  0  0
  5103  1  0  0  0
  5104  1  0  0  0
  5105  1  0  0  0
  6  7  1  0  0  0
  6 12  1  0  0  0
  7  8  1  0  0  0
  7 10  1  0  0  0
  7106  1  0  0  0
  8  9  2  0  0  0
  8 13  1  0  0  0
 10 11  1  0  0  0
 10107  1  0  0  0
 10108  1  0  0  0
 11 12  1  0  0  0
 11109  1  0  0  0
 11110  1  0  0  0
 12111  1  0  0  0
 12112  1  0  0  0
 13 14  1  0  0  0
 13113  1  0  0  0
 14 15  1  0  0  0
 14 17  1  0  0  0
 14114  1  0  0  0
 15 16  2  0  0  0
 15 25  1  0  0  0
 17 18  1  0  0  0
 17115  1  0  0  0
 17116  1  0  0  0
 18 19  2  0  0  0
 18 20  1  0  0  0
 19 21  1  0  0  0
 19117  1  0  0  0
 20 22  2  0  0  0
 20118  1  0  0  0
 21 23  2  0  0  0
 21119  1  0  0  0
 22 23  1  0  0  0
 22120  1  0  0  0
 23 24  1  0  0  0
 24121  1  0  0  0
 25 26  1  0  0  0
 25122  1  0  0  0
 26 27  1  0  0  0
 26 29  1  0  0  0
 26123  1  0  0  0
 27 28  2  0  0  0
 27 31  1  0  0  0
 29 30  1  0  0  0
 29124  1  0  0  0
 29125  1  0  0  0
 30 97  1  0  0  0
 31 32  1  0  0  0
 31126  1  0  0  0
 32 33  1  0  0  0
 32 35  1  0  0  0
 32127  1  0  0  0
 33 34  2  0  0  0
 33 38  1  0  0  0
 35 36  1  0  0  0
 35 37  1  0  0  0
 35128  1  0  0  0
 36129  1  0  0  0
 36130  1  0  0  0
 36131  1  0  0  0
 37132  1  0  0  0
 37133  1  0  0  0
 37134  1  0  0  0
 38 39  1  0  0  0
 38135  1  0  0  0
 39 40  1  0  0  0
 39 42  1  0  0  0
 39136  1  0  0  0
 40 41  2  0  0  0
 40 50  1  0  0  0
 42 43  1  0  0  0
 42137  1  0  0  0
 42138  1  0  0  0
 43 44  2  0  0  0
 43 45  1  0  0  0
 44 46  1  0  0  0
 44139  1  0  0  0
 45 47  2  0  0  0
 45140  1  0  0  0
 46 48  2  0  0  0
 46141  1  0  0  0
 47 48  1  0  0  0
 47142  1  0  0  0
 48 49  1  0  0  0
 49143  1  0  0  0
 50 51  1  0  0  0
 50144  1  0  0  0
 51 52  1  0  0  0
 51 54  1  0  0  0
 51145  1  0  0  0
 52 53  2  0  0  0
 52 61  1  0  0  0
 54 55  1  0  0  0
 54146  1  0  0  0
 54147  1  0  0  0
 55 56  1  0  0  0
 55148  1  0  0  0
 55149  1  0  0  0
 56 57  1  0  0  0
 56150  1  0  0  0
 56151  1  0  0  0
 57 58  1  0  0  0
 57152  1  0  0  0
 58 59  2  0  0  0
 58 60  1  0  0  0
 59153  1  0  0  0
 60154  1  0  0  0
 60155  1  0  0  0
 61 62  1  0  0  0
 61156  1  0  0  0
 62 63  1  0  0  0
 62157  1  0  0  0
 62158  1  0  0  0
 63 64  1  0  0  0
 63159  1  0  0  0
 63160  1  0  0  0
 64 65  2  0  0  0
 64 66  1  0  0  0
 66 67  1  0  0  0
 66161  1  0  0  0
 67 68  1  0  0  0
 67 70  1  0  0  0
 67162  1  0  0  0
 68 69  2  0  0  0
 68 72  1  0  0  0
 70 71  1  0  0  0
 70163  1  0  0  0
 70164  1  0  0  0
 71165  1  0  0  0
 72 73  1  0  0  0
 72166  1  0  0  0
 73 74  1  0  0  0
 73 76  1  0  0  0
 73167  1  0  0  0
 74 75  2  0  0  0
 74 86  1  0  0  0
 76 77  1  0  0  0
 76168  1  0  0  0
 76169  1  0  0  0
 77 78  2  0  0  0
 77 79  1  0  0  0
 78 80  1  0  0  0
 78170  1  0  0  0
 79 81  2  0  0  0
 79 82  1  0  0  0
 80 81  1  0  0  0
 81 83  1  0  0  0
 82 84  2  0  0  0
 82171  1  0  0  0
 83 85  2  0  0  0
 83172  1  0  0  0
 84 85  1  0  0  0
 84173  1  0  0  0
 85174  1  0  0  0
 86 87  1  0  0  0
 86175  1  0  0  0
 87 88  1  0  0  0
 87 90  1  0  0  0
 87176  1  0  0  0
 88 89  2  0  0  0
 88 92  1  0  0  0
 90 91  1  0  0  0
 90177  1  0  0  0
 90178  1  0  0  0
 91179  1  0  0  0
 92 93  1  0  0  0
 92180  1  0  0  0
 93 94  1  0  0  0
 93 96  1  0  0  0
 93181  1  0  0  0
 94 95  2  0  0  0
 94 98  1  0  0  0
 96 97  1  0  0  0
 96182  1  0  0  0
 96183  1  0  0  0
 98184  1  0  0  0
 98185  1  0  0  0
M  CHG  1   1   1
M  END
> <s_m_source_file>
../4w4z_ligand.sdf

> <i_m_source_file_index>
1

> <s_epik_input>
W05IMytdW0NAQEhdKFtDSDNdKUMoPU8pTjFbQ0BASF0oW0NIMl1bQ0gyXVtDSDJdMSlDKD1PKVtOSF1bQ0BASF0oW0NIMl1jMltjSF1bY0hdYyhbT0hdKVtjSF1bY0hdMilDKD1PKVtOSF1bQ0BASF0zQyg9TylbTkhdW0NAQEhdKFtDSF0oW0NIM10pW0NIM10pQyg9TylbTkhdW0NAQEhdKFtDSDJdYzRbY0hdW2NIXWMoW09IXSlbY0hdW2NIXTQpQyg9TylbTkhdW0NAQEhdKFtDSDJdW0NIMl1bQ0gyXVtOSF0vQyg9TlxbSF0pW05IMl0pQyg9TylbTkhdW0NIMl1bQ0gyXUMoPU8pW05IXVtDQEBIXShbQ0gyXVtPSF0pQyg9TylbTkhdW0NAQEhdKFtDSDJdYzVbY0hdW25IXWMoYzU2KVtjSF1bY0hdW2NIXVtjSF02KUMoPU8pW05IXVtDQEBIXShbQ0gyXVtPSF0pQyg9TylbTkhdW0NASF0oQyg9TylbTkgyXSlbQ0gyXVNTW0NIMl0z

> <s_epik_cmdline>
J2VwaWtfYXBwJywgJy1pbWFlJywgJ2xpZ2FuZF9wcm8ubWFlJywgJy1vbWFlJywgJ2xpZ2FuZF9wcmVwLm1hZScsICctbXMnLCAnMScsICctcGgnLCAnNycsICctcGh0JywgJzAuNScsICctbnQn

> <s_epik_pKa_notes>
Molecule size exceeds maximum supported for generating protonation states

> <s_epik_Chemistry_Notes>
This compound has an imine and may undergo hydrolysis.

$$$$
