4w50_ligand
                    3D
 Schrodinger Suite 2020-3.
181186  0  0  1  0            999 V2000
   -7.9050  -34.5300  -18.9530 N   0  3  0  0  0  0
   -7.5440  -33.3230  -19.7480 C   0  0  2  0  0  0
   -8.4730  -32.1740  -19.3850 C   0  0  0  0  0  0
   -9.6760  -32.3840  -19.1610 O   0  0  0  0  0  0
   -7.6130  -33.6170  -21.2420 C   0  0  0  0  0  0
   -7.9210  -30.9580  -19.2760 N   0  0  0  0  0  0
   -8.8500  -29.8560  -19.1830 C   0  0  2  0  0  0
   -9.5540  -29.6680  -20.5320 C   0  0  0  0  0  0
   -8.9070  -29.7880  -21.5860 O   0  0  0  0  0  0
   -7.9490  -28.6470  -18.8570 C   0  0  0  0  0  0
   -6.5770  -29.0360  -19.2700 C   0  0  0  0  0  0
   -6.5140  -30.5360  -19.1500 C   0  0  0  0  0  0
  -10.8510  -29.3700  -20.4960 N   0  0  0  0  0  0
  -11.5890  -29.0140  -21.7140 C   0  0  2  0  0  0
  -10.8910  -27.8110  -22.4090 C   0  0  0  0  0  0
  -10.5250  -27.9130  -23.5720 O   0  0  0  0  0  0
  -13.0740  -28.7540  -21.3650 C   0  0  0  0  0  0
  -14.0610  -28.5670  -22.5130 C   0  0  0  0  0  0
  -13.8290  -27.6510  -23.5300 C   0  0  0  0  0  0
  -15.2590  -29.2660  -22.5360 C   0  0  0  0  0  0
  -14.7310  -27.4680  -24.5550 C   0  0  0  0  0  0
  -16.1710  -29.0950  -23.5560 C   0  0  0  0  0  0
  -15.9040  -28.1870  -24.5650 C   0  0  0  0  0  0
  -16.7990  -27.9970  -25.5890 O   0  0  0  0  0  0
  -10.6750  -26.7050  -21.7020 N   0  0  0  0  0  0
   -9.8940  -25.5690  -22.2600 C   0  0  2  0  0  0
   -8.6650  -25.2380  -21.4600 C   0  0  0  0  0  0
   -8.6170  -25.5270  -20.2840 O   0  0  0  0  0  0
  -10.7260  -24.2910  -22.2660 C   0  0  0  0  0  0
  -12.3920  -24.4790  -22.8910 S   0  0  0  0  0  0
   -7.7110  -24.5630  -22.0810 N   0  0  0  0  0  0
   -6.5570  -23.9980  -21.3760 C   0  0  2  0  0  0
   -6.2680  -22.5130  -21.7260 C   0  0  0  0  0  0
   -6.0340  -22.1600  -22.8760 O   0  0  0  0  0  0
   -5.3220  -24.8560  -21.6630 C   0  0  0  0  0  0
   -4.1130  -24.3760  -20.8700 C   0  0  0  0  0  0
   -5.6360  -26.3060  -21.3270 C   0  0  0  0  0  0
   -6.2710  -21.6440  -20.7180 N   0  0  0  0  0  0
   -5.9740  -20.2160  -20.9090 C   0  0  2  0  0  0
   -4.4790  -19.9580  -21.0160 C   0  0  0  0  0  0
   -3.7510  -20.1060  -20.0450 O   0  0  0  0  0  0
   -6.5550  -19.4130  -19.7590 C   0  0  0  0  0  0
   -6.5830  -17.9060  -19.9820 C   0  0  0  0  0  0
   -7.4610  -17.3300  -20.8910 C   0  0  0  0  0  0
   -5.7290  -17.0620  -19.2600 C   0  0  0  0  0  0
   -7.4900  -15.9630  -21.0950 C   0  0  0  0  0  0
   -5.7440  -15.6980  -19.4630 C   0  0  0  0  0  0
   -6.6340  -15.1460  -20.3650 C   0  0  0  0  0  0
   -6.6210  -13.7960  -20.5570 O   0  0  0  0  0  0
   -4.0090  -19.5610  -22.2040 N   0  0  0  0  0  0
   -2.6050  -19.1670  -22.3580 C   0  0  2  0  0  0
   -2.4450  -17.7070  -22.7340 C   0  0  0  0  0  0
   -1.5040  -17.3540  -23.4330 O   0  0  0  0  0  0
   -1.8920  -20.0780  -23.3630 C   0  0  0  0  0  0
   -1.5110  -21.3970  -22.7280 C   0  0  0  0  0  0
   -1.0850  -22.4330  -23.7480 C   0  0  0  0  0  0
   -1.2640  -23.7880  -23.2090 N   0  0  0  0  0  0
   -0.4690  -24.3690  -22.3100 C   0  0  0  0  0  0
    0.6000  -23.7400  -21.8110 N   0  0  0  0  0  0
   -0.7460  -25.6090  -21.9150 N   0  0  0  0  0  0
   -3.3280  -16.8590  -22.2160 N   0  0  0  0  0  0
   -3.4090  -15.4540  -22.6290 C   0  0  0  0  0  0
   -4.7520  -15.2120  -23.2850 C   0  0  0  0  0  0
   -5.2110  -14.0730  -23.4110 O   0  0  0  0  0  0
   -5.3760  -16.3260  -23.6750 N   0  0  0  0  0  0
   -6.6560  -16.3840  -24.3610 C   0  0  2  0  0  0
   -7.1160  -17.8200  -24.1840 C   0  0  0  0  0  0
   -6.2960  -18.7350  -24.0750 O   0  0  0  0  0  0
   -6.4770  -16.1090  -25.8520 C   0  0  0  0  0  0
   -5.7300  -17.1530  -26.4720 O   0  0  0  0  0  0
   -8.4160  -18.0180  -24.1390 N   0  0  0  0  0  0
   -8.9550  -19.3360  -23.9900 C   0  0  2  0  0  0
   -8.7990  -20.1190  -25.2650 C   0  0  0  0  0  0
   -8.5940  -19.5790  -26.3380 O   0  0  0  0  0  0
  -10.4060  -19.2700  -23.5770 C   0  0  0  0  0  0
  -10.5350  -19.0030  -22.1350 C   0  0  0  0  0  0
  -10.9550  -17.8510  -21.5450 C   0  0  0  0  0  0
  -10.2250  -19.9100  -21.0800 C   0  0  0  0  0  0
  -10.9430  -17.9920  -20.1800 N   0  0  0  0  0  0
  -10.5000  -19.2510  -19.8700 C   0  0  0  0  0  0
   -9.7280  -21.2080  -21.0420 C   0  0  0  0  0  0
  -10.3110  -19.8540  -18.6320 C   0  0  0  0  0  0
   -9.5470  -21.8080  -19.8080 C   0  0  0  0  0  0
   -9.8310  -21.1310  -18.6220 C   0  0  0  0  0  0
   -8.8940  -21.4160  -25.1460 N   0  0  0  0  0  0
   -8.2970  -22.2560  -26.1470 C   0  0  2  0  0  0
   -8.7580  -23.6670  -25.8830 C   0  0  0  0  0  0
   -8.1530  -24.4060  -25.1090 O   0  0  0  0  0  0
   -6.7800  -22.0960  -26.0410 C   0  0  0  0  0  0
   -6.0980  -23.2480  -26.4280 O   0  0  0  0  0  0
   -9.8830  -23.9940  -26.5090 N   0  0  0  0  0  0
  -10.6360  -25.2160  -26.2260 C   0  0  2  0  0  0
  -10.4890  -26.2020  -27.3590 C   0  0  0  0  0  0
   -9.3880  -26.3470  -27.8800 O   0  0  0  0  0  0
  -12.1100  -24.8800  -25.9740 C   0  0  0  0  0  0
  -12.2860  -23.5600  -24.7410 S   0  0  0  0  0  0
  -11.4420  -26.8700  -27.7500 O   0  0  0  0  0  0
   -7.8479  -34.2931  -17.8803 H   0  0  0  0  0  0
   -7.2046  -35.3456  -19.1862 H   0  0  0  0  0  0
   -8.9290  -34.8426  -19.2055 H   0  0  0  0  0  0
   -6.5084  -33.0548  -19.4920 H   0  0  0  0  0  0
   -6.9355  -34.4492  -21.4836 H   0  0  0  0  0  0
   -7.3106  -32.7224  -21.8061 H   0  0  0  0  0  0
   -8.6427  -33.8916  -21.5145 H   0  0  0  0  0  0
   -9.6181  -30.0572  -18.4217 H   0  0  0  0  0  0
   -8.2985  -27.7675  -19.4177 H   0  0  0  0  0  0
   -7.9946  -28.4360  -17.7784 H   0  0  0  0  0  0
   -6.4009  -28.7135  -20.3068 H   0  0  0  0  0  0
   -5.8438  -28.5540  -18.6065 H   0  0  0  0  0  0
   -6.1201  -30.8594  -18.1752 H   0  0  0  0  0  0
   -5.9205  -30.9934  -19.9553 H   0  0  0  0  0  0
  -11.3695  -29.3947  -19.5262 H   0  0  0  0  0  0
  -11.5508  -29.8776  -22.3943 H   0  0  0  0  0  0
  -13.4685  -29.6022  -20.7862 H   0  0  0  0  0  0
  -13.1547  -27.8336  -20.7680 H   0  0  0  0  0  0
  -12.9115  -27.0627  -23.5172 H   0  0  0  0  0  0
  -15.4842  -29.9652  -21.7307 H   0  0  0  0  0  0
  -14.5167  -26.7577  -25.3535 H   0  0  0  0  0  0
  -17.0961  -29.6714  -23.5672 H   0  0  0  0  0  0
  -16.5768  -27.2725  -26.3863 H   0  0  0  0  0  0
  -11.0879  -26.6413  -20.6844 H   0  0  0  0  0  0
   -9.6092  -25.9199  -23.2629 H   0  0  0  0  0  0
  -10.8154  -23.9069  -21.2391 H   0  0  0  0  0  0
  -10.2348  -23.5366  -22.8982 H   0  0  0  0  0  0
   -7.8085  -24.4331  -23.1689 H   0  0  0  0  0  0
   -6.8491  -24.0469  -20.3166 H   0  0  0  0  0  0
   -5.0659  -24.7716  -22.7294 H   0  0  0  0  0  0
   -3.9003  -23.3273  -21.1248 H   0  0  0  0  0  0
   -3.2407  -24.9981  -21.1191 H   0  0  0  0  0  0
   -4.3252  -24.4561  -19.7936 H   0  0  0  0  0  0
   -6.5102  -26.6358  -21.9075 H   0  0  0  0  0  0
   -5.8547  -26.3943  -20.2526 H   0  0  0  0  0  0
   -4.7701  -26.9363  -21.5780 H   0  0  0  0  0  0
   -6.5064  -22.0273  -19.7142 H   0  0  0  0  0  0
   -6.4494  -19.9332  -21.8598 H   0  0  0  0  0  0
   -7.5943  -19.7265  -19.5811 H   0  0  0  0  0  0
   -5.9587  -19.5881  -18.8514 H   0  0  0  0  0  0
   -8.1409  -17.9686  -21.4549 H   0  0  0  0  0  0
   -5.0435  -17.4892  -18.5280 H   0  0  0  0  0  0
   -8.1775  -15.5297  -21.8214 H   0  0  0  0  0  0
   -5.0553  -15.0565  -18.9132 H   0  0  0  0  0  0
   -7.3205  -13.3351  -21.2700 H   0  0  0  0  0  0
   -4.6866  -19.5318  -23.0700 H   0  0  0  0  0  0
   -2.1710  -19.2937  -21.3552 H   0  0  0  0  0  0
   -2.5591  -20.2774  -24.2146 H   0  0  0  0  0  0
   -0.9774  -19.5832  -23.7217 H   0  0  0  0  0  0
   -0.6717  -21.2411  -22.0343 H   0  0  0  0  0  0
   -2.3727  -21.8008  -22.1762 H   0  0  0  0  0  0
   -1.6958  -22.3258  -24.6565 H   0  0  0  0  0  0
   -0.0244  -22.2853  -23.9997 H   0  0  0  0  0  0
   -2.1081  -24.4072  -23.5467 H   0  0  0  0  0  0
    0.8350  -22.7148  -22.1331 H   0  0  0  0  0  0
    1.2446  -24.2477  -21.0783 H   0  0  0  0  0  0
   -1.6239  -26.1325  -22.3214 H   0  0  0  0  0  0
   -4.0147  -17.2474  -21.4495 H   0  0  0  0  0  0
   -3.3042  -14.8058  -21.7465 H   0  0  0  0  0  0
   -2.6016  -15.2346  -23.3431 H   0  0  0  0  0  0
   -4.8378  -17.2550  -23.4354 H   0  0  0  0  0  0
   -7.3363  -15.6328  -23.9333 H   0  0  0  0  0  0
   -7.4637  -16.0440  -26.3339 H   0  0  0  0  0  0
   -5.9394  -15.1590  -25.9877 H   0  0  0  0  0  0
   -5.5115  -17.1080  -27.5491 H   0  0  0  0  0  0
   -9.0913  -17.1533  -24.2177 H   0  0  0  0  0  0
   -8.3602  -19.8088  -23.1946 H   0  0  0  0  0  0
  -10.9084  -18.4630  -24.1305 H   0  0  0  0  0  0
  -10.8954  -20.2290  -23.8023 H   0  0  0  0  0  0
  -11.2565  -16.9492  -22.0780 H   0  0  0  0  0  0
   -9.4867  -21.7403  -21.9621 H   0  0  0  0  0  0
  -10.5375  -19.3270  -17.7051 H   0  0  0  0  0  0
   -9.1746  -22.8314  -19.7620 H   0  0  0  0  0  0
   -9.6661  -21.6322  -17.6682 H   0  0  0  0  0  0
   -9.4226  -21.8671  -24.2933 H   0  0  0  0  0  0
   -8.6329  -21.9552  -27.1503 H   0  0  0  0  0  0
   -6.4520  -21.2715  -26.6911 H   0  0  0  0  0  0
   -6.5068  -21.8724  -24.9992 H   0  0  0  0  0  0
   -4.9986  -23.2716  -26.4007 H   0  0  0  0  0  0
  -10.2430  -23.2910  -27.2746 H   0  0  0  0  0  0
  -10.1908  -25.6596  -25.3232 H   0  0  0  0  0  0
  -12.5755  -24.5453  -26.9128 H   0  0  0  0  0  0
  -12.6321  -25.7749  -25.6046 H   0  0  0  0  0  0
  -11.3114  -27.5827  -28.5777 H   0  0  0  0  0  0
  1  2  1  0  0  0
  1 98  1  0  0  0
  1 99  1  0  0  0
  1100  1  0  0  0
  2  3  1  0  0  0
  2  5  1  0  0  0
  2101  1  0  0  0
  3  4  2  0  0  0
  3  6  1  0  0  0
  5102  1  0  0  0
  5103  1  0  0  0
  5104  1  0  0  0
  6  7  1  0  0  0
  6 12  1  0  0  0
  7  8  1  0  0  0
  7 10  1  0  0  0
  7105  1  0  0  0
  8  9  2  0  0  0
  8 13  1  0  0  0
 10 11  1  0  0  0
 10106  1  0  0  0
 10107  1  0  0  0
 11 12  1  0  0  0
 11108  1  0  0  0
 11109  1  0  0  0
 12110  1  0  0  0
 12111  1  0  0  0
 13 14  1  0  0  0
 13112  1  0  0  0
 14 15  1  0  0  0
 14 17  1  0  0  0
 14113  1  0  0  0
 15 16  2  0  0  0
 15 25  1  0  0  0
 17 18  1  0  0  0
 17114  1  0  0  0
 17115  1  0  0  0
 18 19  2  0  0  0
 18 20  1  0  0  0
 19 21  1  0  0  0
 19116  1  0  0  0
 20 22  2  0  0  0
 20117  1  0  0  0
 21 23  2  0  0  0
 21118  1  0  0  0
 22 23  1  0  0  0
 22119  1  0  0  0
 23 24  1  0  0  0
 24120  1  0  0  0
 25 26  1  0  0  0
 25121  1  0  0  0
 26 27  1  0  0  0
 26 29  1  0  0  0
 26122  1  0  0  0
 27 28  2  0  0  0
 27 31  1  0  0  0
 29 30  1  0  0  0
 29123  1  0  0  0
 29124  1  0  0  0
 30 96  1  0  0  0
 31 32  1  0  0  0
 31125  1  0  0  0
 32 33  1  0  0  0
 32 35  1  0  0  0
 32126  1  0  0  0
 33 34  2  0  0  0
 33 38  1  0  0  0
 35 36  1  0  0  0
 35 37  1  0  0  0
 35127  1  0  0  0
 36128  1  0  0  0
 36129  1  0  0  0
 36130  1  0  0  0
 37131  1  0  0  0
 37132  1  0  0  0
 37133  1  0  0  0
 38 39  1  0  0  0
 38134  1  0  0  0
 39 40  1  0  0  0
 39 42  1  0  0  0
 39135  1  0  0  0
 40 41  2  0  0  0
 40 50  1  0  0  0
 42 43  1  0  0  0
 42136  1  0  0  0
 42137  1  0  0  0
 43 44  2  0  0  0
 43 45  1  0  0  0
 44 46  1  0  0  0
 44138  1  0  0  0
 45 47  2  0  0  0
 45139  1  0  0  0
 46 48  2  0  0  0
 46140  1  0  0  0
 47 48  1  0  0  0
 47141  1  0  0  0
 48 49  1  0  0  0
 49142  1  0  0  0
 50 51  1  0  0  0
 50143  1  0  0  0
 51 52  1  0  0  0
 51 54  1  0  0  0
 51144  1  0  0  0
 52 53  2  0  0  0
 52 61  1  0  0  0
 54 55  1  0  0  0
 54145  1  0  0  0
 54146  1  0  0  0
 55 56  1  0  0  0
 55147  1  0  0  0
 55148  1  0  0  0
 56 57  1  0  0  0
 56149  1  0  0  0
 56150  1  0  0  0
 57 58  1  0  0  0
 57151  1  0  0  0
 58 59  1  0  0  0
 58 60  2  0  0  0
 59152  1  0  0  0
 59153  1  0  0  0
 60154  1  0  0  0
 61 62  1  0  0  0
 61155  1  0  0  0
 62 63  1  0  0  0
 62156  1  0  0  0
 62157  1  0  0  0
 63 64  2  0  0  0
 63 65  1  0  0  0
 65 66  1  0  0  0
 65158  1  0  0  0
 66 67  1  0  0  0
 66 69  1  0  0  0
 66159  1  0  0  0
 67 68  2  0  0  0
 67 71  1  0  0  0
 69 70  1  0  0  0
 69160  1  0  0  0
 69161  1  0  0  0
 70162  1  0  0  0
 71 72  1  0  0  0
 71163  1  0  0  0
 72 73  1  0  0  0
 72 75  1  0  0  0
 72164  1  0  0  0
 73 74  2  0  0  0
 73 85  1  0  0  0
 75 76  1  0  0  0
 75165  1  0  0  0
 75166  1  0  0  0
 76 77  2  0  0  0
 76 78  1  0  0  0
 77 79  1  0  0  0
 77167  1  0  0  0
 78 80  2  0  0  0
 78 81  1  0  0  0
 79 80  1  0  0  0
 80 82  1  0  0  0
 81 83  2  0  0  0
 81168  1  0  0  0
 82 84  2  0  0  0
 82169  1  0  0  0
 83 84  1  0  0  0
 83170  1  0  0  0
 84171  1  0  0  0
 85 86  1  0  0  0
 85172  1  0  0  0
 86 87  1  0  0  0
 86 89  1  0  0  0
 86173  1  0  0  0
 87 88  2  0  0  0
 87 91  1  0  0  0
 89 90  1  0  0  0
 89174  1  0  0  0
 89175  1  0  0  0
 90176  1  0  0  0
 91 92  1  0  0  0
 91177  1  0  0  0
 92 93  1  0  0  0
 92 95  1  0  0  0
 92178  1  0  0  0
 93 94  2  0  0  0
 93 97  1  0  0  0
 95 96  1  0  0  0
 95179  1  0  0  0
 95180  1  0  0  0
 97181  1  0  0  0
M  CHG  1   1   1
M  END
> <s_m_source_file>
../4w50_ligand.sdf

> <i_m_source_file_index>
1

> <s_epik_input>
W05IMytdW0NAQEhdKFtDSDNdKUMoPU8pTjFbQ0BASF0oW0NIMl1bQ0gyXVtDSDJdMSlDKD1PKVtOSF1bQ0BASF0oW0NIMl1jMltjSF1bY0hdYyhbT0hdKVtjSF1bY0hdMilDKD1PKVtOSF1bQ0BASF0zQyg9TylbTkhdW0NAQEhdKFtDSF0oW0NIM10pW0NIM10pQyg9TylbTkhdW0NAQEhdKFtDSDJdYzRbY0hdW2NIXWMoW09IXSlbY0hdW2NIXTQpQyg9TylbTkhdW0NAQEhdKFtDSDJdW0NIMl1bQ0gyXVtOSF0vQyhbTkgyXSk9TlxbSF0pQyg9TylbTkhdW0NIMl1DKD1PKVtOSF1bQ0BASF0oW0NIMl1bT0hdKUMoPU8pW05IXVtDQEBIXShbQ0gyXWM1W2NIXVtuSF1jKGM1NilbY0hdW2NIXVtjSF1bY0hdNilDKD1PKVtOSF1bQ0BASF0oW0NIMl1bT0hdKUMoPU8pW05IXVtDQEhdKEMoPU8pW09IXSlbQ0gyXVNTW0NIMl0z

> <s_epik_cmdline>
J2VwaWtfYXBwJywgJy1pbWFlJywgJ2xpZ2FuZF9wcm8ubWFlJywgJy1vbWFlJywgJ2xpZ2FuZF9wcmVwLm1hZScsICctbXMnLCAnMScsICctcGgnLCAnNycsICctcGh0JywgJzAuNScsICctbnQn

> <s_epik_pKa_notes>
Molecule size exceeds maximum supported for generating protonation states

> <s_epik_Chemistry_Notes>
This compound has an imine and may undergo hydrolysis.

$$$$
