4w52_ligand
                    3D
 Schrodinger Suite 2020-3.
 12 12  0  0  1  0            999 V2000
  -32.9690    6.1960    2.8770 C   0  0  0  0  0  0
  -32.9450    7.0460    3.9730 C   0  0  0  0  0  0
  -33.7190    6.7980    5.1130 C   0  0  0  0  0  0
  -34.5400    5.6800    5.1430 C   0  0  0  0  0  0
  -34.5450    4.8250    4.0440 C   0  0  0  0  0  0
  -33.7870    5.0690    2.9150 C   0  0  0  0  0  0
  -32.3573    6.4066    1.9997 H   0  0  0  0  0  0
  -32.3073    7.9295    3.9460 H   0  0  0  0  0  0
  -33.6771    7.4749    5.9664 H   0  0  0  0  0  0
  -35.1686    5.4750    6.0096 H   0  0  0  0  0  0
  -35.1689    3.9318    4.0755 H   0  0  0  0  0  0
  -33.8285    4.3883    2.0647 H   0  0  0  0  0  0
  1  2  2  0  0  0
  1  6  1  0  0  0
  1  7  1  0  0  0
  2  3  1  0  0  0
  2  8  1  0  0  0
  3  4  2  0  0  0
  3  9  1  0  0  0
  4  5  1  0  0  0
  4 10  1  0  0  0
  5  6  2  0  0  0
  5 11  1  0  0  0
  6 12  1  0  0  0
M  END
> <s_m_source_file>
../4w52_ligand.sdf

> <i_m_source_file_index>
1

> <s_epik_input>
W2NIXTFbY0hdW2NIXVtjSF1bY0hdW2NIXTE=

> <s_epik_cmdline>
J2VwaWtfYXBwJywgJy1pbWFlJywgJ2xpZ2FuZF9wcm8ubWFlJywgJy1vbWFlJywgJ2xpZ2FuZF9wcmVwLm1hZScsICctbXMnLCAnMScsICctcGgnLCAnNycsICctcGh0JywgJzAuNScsICctbnQn

> <r_lp_tautomer_probability>
1

> <r_epik_Ionization_Penalty>
  0.0000

> <r_epik_Ionization_Penalty_Charging>
  0.0000

> <r_epik_Ionization_Penalty_Neutral>
  0.0000

> <r_epik_State_Penalty>
 -0.0000

> <r_epik_Charging_Adjusted_Penalty>
0

> <i_epik_Tot_Q>
0

> <i_epik_Tot_abs_Q>
0

$$$$
