4w53_ligand
                    3D
 Schrodinger Suite 2020-3.
 15 15  0  0  1  0            999 V2000
  -32.3550    7.2630    2.2070 C   0  0  0  0  0  0
  -33.1810    6.6060    3.3010 C   0  0  0  0  0  0
  -33.2380    7.1600    4.5650 C   0  0  0  0  0  0
  -33.9920    6.5710    5.5700 C   0  0  0  0  0  0
  -34.7110    5.4170    5.3320 C   0  0  0  0  0  0
  -34.6380    4.8780    4.0600 C   0  0  0  0  0  0
  -33.8940    5.4470    3.0480 C   0  0  0  0  0  0
  -31.8689    8.1653    2.6064 H   0  0  0  0  0  0
  -33.0111    7.5405    1.3688 H   0  0  0  0  0  0
  -31.5873    6.5586    1.8542 H   0  0  0  0  0  0
  -32.6823    8.0736    4.7762 H   0  0  0  0  0  0
  -34.0168    7.0256    6.5604 H   0  0  0  0  0  0
  -35.3109    4.9502    6.1132 H   0  0  0  0  0  0
  -35.1927    3.9638    3.8486 H   0  0  0  0  0  0
  -33.8677    4.9889    2.0593 H   0  0  0  0  0  0
  1  2  1  0  0  0
  1  8  1  0  0  0
  1  9  1  0  0  0
  1 10  1  0  0  0
  2  3  2  0  0  0
  2  7  1  0  0  0
  3  4  1  0  0  0
  3 11  1  0  0  0
  4  5  2  0  0  0
  4 12  1  0  0  0
  5  6  1  0  0  0
  5 13  1  0  0  0
  6  7  2  0  0  0
  6 14  1  0  0  0
  7 15  1  0  0  0
M  END
> <s_m_source_file>
../4w53_ligand.sdf

> <i_m_source_file_index>
1

> <s_epik_input>
W0NIM11jMVtjSF1bY0hdW2NIXVtjSF1bY0hdMQ==

> <s_epik_cmdline>
J2VwaWtfYXBwJywgJy1pbWFlJywgJ2xpZ2FuZF9wcm8ubWFlJywgJy1vbWFlJywgJ2xpZ2FuZF9wcmVwLm1hZScsICctbXMnLCAnMScsICctcGgnLCAnNycsICctcGh0JywgJzAuNScsICctbnQn

> <r_lp_tautomer_probability>
1

> <r_epik_Ionization_Penalty>
  0.0000

> <r_epik_Ionization_Penalty_Charging>
  0.0000

> <r_epik_Ionization_Penalty_Neutral>
  0.0000

> <r_epik_State_Penalty>
 -0.0000

> <r_epik_Charging_Adjusted_Penalty>
0

> <i_epik_Tot_Q>
0

> <i_epik_Tot_abs_Q>
0

$$$$
