4w54_ligand
                    3D
 Schrodinger Suite 2020-3.
 18 18  0  0  1  0            999 V2000
   40.0430  -20.5930   14.1830 C   0  0  0  0  0  0
   39.4070  -19.3730   14.8600 C   0  0  0  0  0  0
   40.9300  -20.1910   12.9990 C   0  0  0  0  0  0
   40.3610  -19.8840   11.7690 C   0  0  0  0  0  0
   42.3120  -20.1340   13.1510 C   0  0  0  0  0  0
   41.1680  -19.5210   10.6940 C   0  0  0  0  0  0
   43.1190  -19.7700   12.0780 C   0  0  0  0  0  0
   42.5490  -19.4630   10.8470 C   0  0  0  0  0  0
   40.6648  -21.1340   14.9115 H   0  0  0  0  0  0
   39.2514  -21.2596   13.8100 H   0  0  0  0  0  0
   38.7810  -19.7053   15.7012 H   0  0  0  0  0  0
   38.7852  -18.8320   14.1315 H   0  0  0  0  0  0
   40.1986  -18.7065   15.2330 H   0  0  0  0  0  0
   39.2789  -19.9275   11.6453 H   0  0  0  0  0  0
   42.7634  -20.3752   14.1134 H   0  0  0  0  0  0
   40.7167  -19.2819    9.7311 H   0  0  0  0  0  0
   44.2010  -19.7253   12.2023 H   0  0  0  0  0  0
   43.1817  -19.1783   10.0063 H   0  0  0  0  0  0
  1  2  1  0  0  0
  1  3  1  0  0  0
  1  9  1  0  0  0
  1 10  1  0  0  0
  2 11  1  0  0  0
  2 12  1  0  0  0
  2 13  1  0  0  0
  3  4  2  0  0  0
  3  5  1  0  0  0
  4  6  1  0  0  0
  4 14  1  0  0  0
  5  7  2  0  0  0
  5 15  1  0  0  0
  6  8  2  0  0  0
  6 16  1  0  0  0
  7  8  1  0  0  0
  7 17  1  0  0  0
  8 18  1  0  0  0
M  END
> <s_m_source_file>
../4w54_ligand.sdf

> <i_m_source_file_index>
1

> <s_epik_input>
W0NIM11bQ0gyXWMxW2NIXVtjSF1bY0hdW2NIXVtjSF0x

> <s_epik_cmdline>
J2VwaWtfYXBwJywgJy1pbWFlJywgJ2xpZ2FuZF9wcm8ubWFlJywgJy1vbWFlJywgJ2xpZ2FuZF9wcmVwLm1hZScsICctbXMnLCAnMScsICctcGgnLCAnNycsICctcGh0JywgJzAuNScsICctbnQn

> <r_lp_tautomer_probability>
1

> <r_epik_Ionization_Penalty>
  0.0000

> <r_epik_Ionization_Penalty_Charging>
  0.0000

> <r_epik_Ionization_Penalty_Neutral>
  0.0000

> <r_epik_State_Penalty>
 -0.0000

> <r_epik_Charging_Adjusted_Penalty>
0

> <i_epik_Tot_Q>
0

> <i_epik_Tot_abs_Q>
0

$$$$
