4w55_ligand
                    3D
 Schrodinger Suite 2020-3.
 21 21  0  0  1  0            999 V2000
  -38.8110   19.2810   15.7920 C   0  0  0  0  0  0
  -39.8230   19.0370   14.6800 C   0  0  0  0  0  0
  -40.2380   20.3540   14.0150 C   0  0  0  0  0  0
  -41.2100   20.0750   12.8830 C   0  0  0  0  0  0
  -40.6930   19.7270   11.6490 C   0  0  0  0  0  0
  -41.5120   19.4530   10.5630 C   0  0  0  0  0  0
  -42.8900   19.5150   10.7330 C   0  0  0  0  0  0
  -43.4140   19.8630   11.9720 C   0  0  0  0  0  0
  -42.5940   20.1500   13.0600 C   0  0  0  0  0  0
  -38.5316   18.3210   16.2506 H   0  0  0  0  0  0
  -39.2559   19.9363   16.5553 H   0  0  0  0  0  0
  -37.9148   19.7619   15.3731 H   0  0  0  0  0  0
  -39.3781   18.3817   13.9167 H   0  0  0  0  0  0
  -40.7192   18.5561   15.0989 H   0  0  0  0  0  0
  -40.7229   21.0034   14.7587 H   0  0  0  0  0  0
  -39.3470   20.8585   13.6130 H   0  0  0  0  0  0
  -39.6117   19.6662   11.5257 H   0  0  0  0  0  0
  -41.0829   19.1941    9.5951 H   0  0  0  0  0  0
  -43.5558   19.2919    9.8993 H   0  0  0  0  0  0
  -44.4959   19.9126   12.0954 H   0  0  0  0  0  0
  -43.0204   20.4259   14.0244 H   0  0  0  0  0  0
  1  2  1  0  0  0
  1 10  1  0  0  0
  1 11  1  0  0  0
  1 12  1  0  0  0
  2  3  1  0  0  0
  2 13  1  0  0  0
  2 14  1  0  0  0
  3  4  1  0  0  0
  3 15  1  0  0  0
  3 16  1  0  0  0
  4  5  2  0  0  0
  4  9  1  0  0  0
  5  6  1  0  0  0
  5 17  1  0  0  0
  6  7  2  0  0  0
  6 18  1  0  0  0
  7  8  1  0  0  0
  7 19  1  0  0  0
  8  9  2  0  0  0
  8 20  1  0  0  0
  9 21  1  0  0  0
M  END
> <s_m_source_file>
../4w55_ligand.sdf

> <i_m_source_file_index>
1

> <s_epik_input>
W0NIM11bQ0gyXVtDSDJdYzFbY0hdW2NIXVtjSF1bY0hdW2NIXTE=

> <s_epik_cmdline>
J2VwaWtfYXBwJywgJy1pbWFlJywgJ2xpZ2FuZF9wcm8ubWFlJywgJy1vbWFlJywgJ2xpZ2FuZF9wcmVwLm1hZScsICctbXMnLCAnMScsICctcGgnLCAnNycsICctcGh0JywgJzAuNScsICctbnQn

> <r_lp_tautomer_probability>
1

> <r_epik_Ionization_Penalty>
  0.0000

> <r_epik_Ionization_Penalty_Charging>
  0.0000

> <r_epik_Ionization_Penalty_Neutral>
  0.0000

> <r_epik_State_Penalty>
 -0.0000

> <r_epik_Charging_Adjusted_Penalty>
0

> <i_epik_Tot_Q>
0

> <i_epik_Tot_abs_Q>
0

$$$$
