4w57_ligand
                    3D
 Schrodinger Suite 2020-3.
 24 24  0  0  1  0            999 V2000
  -40.5790   19.9630   12.3790 C   0  0  0  0  0  0
  -41.1410   19.4740   11.2060 C   0  0  0  0  0  0
  -42.5230   19.4100   11.0690 C   0  0  0  0  0  0
  -43.3490   19.8390   12.0970 C   0  0  0  0  0  0
  -42.7880   20.3280   13.2720 C   0  0  0  0  0  0
  -41.4010   20.3940   13.4090 C   0  0  0  0  0  0
  -39.0570   20.0330   12.5260 C   0  0  0  0  0  0
  -38.4730   18.7000   12.9950 C   0  0  0  0  0  0
  -39.0030   18.2620   14.3630 C   0  0  0  0  0  0
  -38.6610   19.2680   15.4690 C   0  0  0  0  0  0
  -40.4974   19.1401   10.3921 H   0  0  0  0  0  0
  -42.9594   19.0207   10.1491 H   0  0  0  0  0  0
  -44.4322   19.7932   11.9848 H   0  0  0  0  0  0
  -43.4322   20.6598   14.0862 H   0  0  0  0  0  0
  -40.9630   20.7851   14.3273 H   0  0  0  0  0  0
  -38.6061   20.2863   11.5551 H   0  0  0  0  0  0
  -38.7951   20.8050   13.2645 H   0  0  0  0  0  0
  -38.7283   17.9127   12.2705 H   0  0  0  0  0  0
  -37.3791   18.7860   13.0728 H   0  0  0  0  0  0
  -40.0977   18.1644   14.3180 H   0  0  0  0  0  0
  -38.5594   17.2929   14.6350 H   0  0  0  0  0  0
  -39.0621   18.9088   16.4282 H   0  0  0  0  0  0
  -39.1070   20.2441   15.2275 H   0  0  0  0  0  0
  -37.5686   19.3726   15.5445 H   0  0  0  0  0  0
  1  2  2  0  0  0
  1  6  1  0  0  0
  1  7  1  0  0  0
  2  3  1  0  0  0
  2 11  1  0  0  0
  3  4  2  0  0  0
  3 12  1  0  0  0
  4  5  1  0  0  0
  4 13  1  0  0  0
  5  6  2  0  0  0
  5 14  1  0  0  0
  6 15  1  0  0  0
  7  8  1  0  0  0
  7 16  1  0  0  0
  7 17  1  0  0  0
  8  9  1  0  0  0
  8 18  1  0  0  0
  8 19  1  0  0  0
  9 10  1  0  0  0
  9 20  1  0  0  0
  9 21  1  0  0  0
 10 22  1  0  0  0
 10 23  1  0  0  0
 10 24  1  0  0  0
M  END
> <s_m_source_file>
../4w57_ligand.sdf

> <i_m_source_file_index>
1

> <s_epik_input>
W0NIM11bQ0gyXVtDSDJdW0NIMl1jMVtjSF1bY0hdW2NIXVtjSF1bY0hdMQ==

> <s_epik_cmdline>
J2VwaWtfYXBwJywgJy1pbWFlJywgJ2xpZ2FuZF9wcm8ubWFlJywgJy1vbWFlJywgJ2xpZ2FuZF9wcmVwLm1hZScsICctbXMnLCAnMScsICctcGgnLCAnNycsICctcGh0JywgJzAuNScsICctbnQn

> <r_lp_tautomer_probability>
1

> <r_epik_Ionization_Penalty>
  0.0000

> <r_epik_Ionization_Penalty_Charging>
  0.0000

> <r_epik_Ionization_Penalty_Neutral>
  0.0000

> <r_epik_State_Penalty>
 -0.0000

> <r_epik_Charging_Adjusted_Penalty>
0

> <i_epik_Tot_Q>
0

> <i_epik_Tot_abs_Q>
0

$$$$
