4w5j_ligand
                    3D
 Schrodinger Suite 2020-3.
 81 86  0  0  1  0            999 V2000
   59.9670   -0.2880   27.2460 P   0  0  1  0  0  0
   58.7670   -0.2170   26.4030 O   0  0  0  0  0  0
   60.9390    0.7530   26.8720 O   0  5  0  0  0  0
   59.4650   -0.1300   28.7060 O   0  0  0  0  0  0
   59.9780    0.7730   29.9000 P   0  0  2  0  0  0
   61.3300    1.3790   29.7020 O   0  0  0  0  0  0
   59.9230   -0.0610   31.1690 O   0  5  0  0  0  0
   59.0000    1.9660   30.0260 O   0  0  0  0  0  0
   57.4150    1.9290   30.0390 P   0  0  0  0  0  0
   56.8100    2.1670   28.6570 O   0  5  0  0  0  0
   56.8580    0.6890   30.7280 O   0  0  0  0  0  0
   57.1840    3.1740   30.9520 O   0  0  0  0  0  0
   57.2120    4.7310   30.5310 P   0  0  1  0  0  0
   58.2480    5.4230   31.3790 O   0  0  0  0  0  0
   57.3740    5.0460   29.0570 O   0  5  0  0  0  0
   55.7700    5.1020   31.0770 O   0  0  0  0  0  0
   54.5100    5.8730   30.5070 P   0  0  1  0  0  0
   54.9740    7.1920   29.9000 O   0  5  0  0  0  0
   53.6800    5.0180   29.6150 O   0  0  0  0  0  0
   60.6150   -1.7510   27.1380 O   0  0  0  0  0  0
   59.7290   -2.8990   27.3100 C   0  0  0  0  0  0
   60.6020   -4.1450   27.1810 C   0  0  1  0  0  0
   61.2190   -4.1500   26.0290 O   0  0  0  0  0  0
   61.7510   -4.0380   28.1990 C   0  0  1  0  0  0
   61.3700   -4.4390   29.4210 O   0  0  0  0  0  0
   62.7710   -4.9990   27.5660 C   0  0  1  0  0  0
   62.2490   -6.3710   27.7580 O   0  0  0  0  0  0
   62.7130   -4.6540   26.3180 C   0  0  2  0  0  0
   63.5870   -3.5720   25.9980 N   0  0  0  0  0  0
   63.1810   -2.3200   25.7040 C   0  0  0  0  0  0
   64.2800   -1.5670   25.4390 N   0  0  0  0  0  0
   65.3720   -2.3720   25.5700 C   0  0  0  0  0  0
   66.7410   -2.1470   25.4170 C   0  0  0  0  0  0
   67.4000   -0.9270   25.0700 N   0  0  0  0  0  0
   67.6020   -3.1600   25.6150 N   0  0  0  0  0  0
   67.1490   -4.3990   25.9580 C   0  0  0  0  0  0
   65.8140   -4.6160   26.1080 N   0  0  0  0  0  0
   64.9380   -3.5990   25.9070 C   0  0  0  0  0  0
   53.6720    6.1370   31.8340 O   0  0  0  0  0  0
   53.4160    4.9970   32.6770 C   0  0  0  0  0  0
   52.0490    5.1450   33.3850 C   0  0  1  0  0  0
   52.0790    6.1150   34.2810 O   0  0  0  0  0  0
   50.9470    5.5260   32.3780 C   0  0  1  0  0  0
   49.7360    4.9820   32.7460 O   0  0  0  0  0  0
   50.9390    7.0680   32.4950 C   0  0  1  0  0  0
   49.6380    7.5880   31.9990 O   0  0  0  0  0  0
   51.1460    7.3000   33.7660 C   0  0  2  0  0  0
   51.9200    8.4990   33.9980 N   0  0  0  0  0  0
   52.9180    9.0490   33.2680 C   0  0  0  0  0  0
   53.3550   10.1690   33.9070 N   0  0  0  0  0  0
   52.6080   10.2800   35.0540 C   0  0  0  0  0  0
   52.6610   11.2440   36.0510 C   0  0  0  0  0  0
   53.4620   12.4420   36.2750 N   0  0  0  0  0  0
   51.8370   11.1680   37.0980 N   0  0  0  0  0  0
   50.9340   10.1500   37.2060 C   0  0  0  0  0  0
   50.8730    9.1810   36.2140 N   0  0  0  0  0  0
   51.7290    9.2670   35.1390 C   0  0  0  0  0  0
   59.2561   -2.8518   28.3020 H   0  0  0  0  0  0
   58.9515   -2.8820   26.5320 H   0  0  0  0  0  0
   59.9945   -5.0620   27.1844 H   0  0  0  0  0  0
   62.0988   -3.0363   28.4915 H   0  0  0  0  0  0
   60.6417   -3.8450   29.9926 H   0  0  0  0  0  0
   63.8336   -4.9552   27.8469 H   0  0  0  0  0  0
   62.2286   -6.8159   28.7638 H   0  0  0  0  0  0
   63.1238   -5.5612   25.8509 H   0  0  0  0  0  0
   62.1482   -1.9721   25.6827 H   0  0  0  0  0  0
   66.8103   -0.0179   24.8806 H   0  0  0  0  0  0
   68.4969   -0.8972   24.9923 H   0  0  0  0  0  0
   67.8552   -5.2149   26.1119 H   0  0  0  0  0  0
   53.4048    4.0833   32.0646 H   0  0  0  0  0  0
   54.2065    4.9187   33.4379 H   0  0  0  0  0  0
   51.8305    4.2538   33.9917 H   0  0  0  0  0  0
   51.0265    5.1067   31.3641 H   0  0  0  0  0  0
   49.5903    3.8922   32.7143 H   0  0  0  0  0  0
   51.7378    7.6491   32.0110 H   0  0  0  0  0  0
   49.3567    7.4504   30.9445 H   0  0  0  0  0  0
   50.1172    7.4495   34.1254 H   0  0  0  0  0  0
   53.3067    8.6606   32.3266 H   0  0  0  0  0  0
   54.2301   12.7347   35.5440 H   0  0  0  0  0  0
   53.2980   13.0529   37.1749 H   0  0  0  0  0  0
   50.2654   10.0984   38.0653 H   0  0  0  0  0  0
  1  2  2  0  0  0
  1  3  1  0  0  0
  1  4  1  0  0  0
  1 20  1  0  0  0
  4  5  1  0  0  0
  5  6  2  0  0  0
  5  7  1  0  0  0
  5  8  1  0  0  0
  8  9  1  0  0  0
  9 10  1  0  0  0
  9 11  2  0  0  0
  9 12  1  0  0  0
 12 13  1  0  0  0
 13 14  2  0  0  0
 13 15  1  0  0  0
 13 16  1  0  0  0
 16 17  1  0  0  0
 17 18  1  0  0  0
 17 19  2  0  0  0
 17 39  1  0  0  0
 20 21  1  0  0  0
 21 22  1  0  0  0
 21 58  1  0  0  0
 21 59  1  0  0  0
 22 23  1  0  0  0
 22 24  1  0  0  0
 22 60  1  0  0  0
 23 28  1  0  0  0
 24 25  1  0  0  0
 24 26  1  0  0  0
 24 61  1  0  0  0
 25 62  1  0  0  0
 26 27  1  0  0  0
 26 28  1  0  0  0
 26 63  1  0  0  0
 27 64  1  0  0  0
 28 29  1  0  0  0
 28 65  1  0  0  0
 29 30  1  0  0  0
 29 38  1  0  0  0
 30 31  2  0  0  0
 30 66  1  0  0  0
 31 32  1  0  0  0
 32 33  2  0  0  0
 32 38  1  0  0  0
 33 34  1  0  0  0
 33 35  1  0  0  0
 34 67  1  0  0  0
 34 68  1  0  0  0
 35 36  2  0  0  0
 36 37  1  0  0  0
 36 69  1  0  0  0
 37 38  2  0  0  0
 39 40  1  0  0  0
 40 41  1  0  0  0
 40 70  1  0  0  0
 40 71  1  0  0  0
 41 42  1  0  0  0
 41 43  1  0  0  0
 41 72  1  0  0  0
 42 47  1  0  0  0
 43 44  1  0  0  0
 43 45  1  0  0  0
 43 73  1  0  0  0
 44 74  1  0  0  0
 45 46  1  0  0  0
 45 47  1  0  0  0
 45 75  1  0  0  0
 46 76  1  0  0  0
 47 48  1  0  0  0
 47 77  1  0  0  0
 48 49  1  0  0  0
 48 57  1  0  0  0
 49 50  2  0  0  0
 49 78  1  0  0  0
 50 51  1  0  0  0
 51 52  2  0  0  0
 51 57  1  0  0  0
 52 53  1  0  0  0
 52 54  1  0  0  0
 53 79  1  0  0  0
 53 80  1  0  0  0
 54 55  2  0  0  0
 55 56  1  0  0  0
 55 81  1  0  0  0
 56 57  2  0  0  0
M  CHG  5   3  -1   7  -1  10  -1  15  -1  18  -1
M  END
> <s_m_source_file>
../4w5j_ligand.sdf

> <i_m_source_file_index>
1

> <s_epik_input>
W05IMl1jMW5bY0hdbmMoYzEyKW4oW2NIXW4yKVtDQEBIXShbQ0BIXShbT0hdKVtDQEBIXTNbT0hdKU9bQ0BASF0zW0NIMl1PW1BAXSg9TykoW09IXSlPW1BAXSg9TykoW09IXSlPUCg9TykoW09IXSlPW1BAQF0oPU8pKFtPSF0pT1tQQF0oPU8pKFtPSF0pT1tDSDJdW0NASF00T1tDQEhdKFtDQEhdKFtPSF0pW0NAQEhdNFtPSF0pbihbY0hdbjUpYyhjNTYpbltjSF1uYzZbTkgyXQ==

> <s_epik_cmdline>
J2VwaWtfYXBwJywgJy1pbWFlJywgJ2xpZ2FuZF9wcm8ubWFlJywgJy1vbWFlJywgJ2xpZ2FuZF9wcmVwLm1hZScsICctbXMnLCAnMScsICctcGgnLCAnNycsICctcGh0JywgJzAuNScsICctbnQn

> <r_lp_tautomer_probability>
1

> <r_epik_Ionization_Penalty>
  0.0019

> <r_epik_Ionization_Penalty_Charging>
  0.0011

> <r_epik_Ionization_Penalty_Neutral>
  0.0009

> <r_epik_State_Penalty>
 -0.0000

> <r_epik_Charging_Adjusted_Penalty>
0.00105270901682818

> <i_epik_Tot_Q>
-5

> <i_epik_Tot_abs_Q>
5

> <s_epik_Chemistry_Notes>
This compound contains an acetal/aminal-like group ( X-CH(R)-Y where X, Y are N, S, or O) that may be acid/base labile, releasing an aldehyde.

$$$$
