4w7p_ligand
                    3D
 Schrodinger Suite 2020-3.
 44 47  0  0  1  0            999 V2000
  -13.8960   42.6560   -9.5370 C   0  0  0  0  0  0
  -14.2120   43.8150   -8.7960 C   0  0  0  0  0  0
  -14.4950   41.2400   -7.7600 C   0  0  0  0  0  0
  -16.2940   41.7080   -2.9540 C   0  0  0  0  0  0
  -17.4690   42.6740   -1.0400 C   0  0  0  0  0  0
  -17.5140   43.9650   -1.6640 C   0  0  0  0  0  0
  -18.2090   44.7960   -0.7440 C   0  0  0  0  0  0
  -15.6450   47.1740   -6.3370 C   0  0  0  0  0  0
  -14.6960   47.9600   -5.3790 C   0  0  0  0  0  0
  -15.1440   49.3880   -5.0490 C   0  0  0  0  0  0
  -14.4570   47.2250   -4.0510 C   0  0  0  0  0  0
  -14.0460   41.4000   -9.0370 N   0  0  0  0  0  0
  -14.8570   42.3230   -6.9200 C   0  0  0  0  0  0
  -14.6880   43.6460   -7.4580 C   0  0  0  0  0  0
  -15.0670   44.7150   -6.5970 C   0  0  0  0  0  0
  -15.5280   44.4530   -5.3600 N   0  0  0  0  0  0
  -15.6680   43.1860   -4.9420 C   0  0  0  0  0  0
  -15.3470   42.1110   -5.6800 N   0  0  0  0  0  0
  -16.2590   42.9950   -3.5900 C   0  0  0  0  0  0
  -16.9050   44.1060   -2.9450 C   0  0  0  0  0  0
  -16.8810   41.5440   -1.6680 C   0  0  0  0  0  0
  -18.5640   44.1300    0.3280 N   0  0  0  0  0  0
  -18.1220   42.8720    0.1560 N   0  0  0  0  0  0
  -14.9880   46.0580   -7.0130 N   0  0  0  0  0  0
  -13.4190   48.1130   -6.0340 N   0  3  0  0  0  0
  -13.5160   42.7723  -10.5520 H   0  0  0  0  0  0
  -14.0968   44.8082   -9.2301 H   0  0  0  0  0  0
  -14.5800   40.2278   -7.3646 H   0  0  0  0  0  0
  -15.8634   40.8320   -3.4611 H   0  0  0  0  0  0
  -18.3834   45.8555   -0.9830 H   0  0  0  0  0  0
  -16.4881   46.7632   -5.7622 H   0  0  0  0  0  0
  -16.0269   47.8532   -7.1134 H   0  0  0  0  0  0
  -16.1200   49.3583   -4.5425 H   0  0  0  0  0  0
  -15.2310   49.9691   -5.9789 H   0  0  0  0  0  0
  -14.4025   49.8615   -4.3887 H   0  0  0  0  0  0
  -15.4153   47.0932   -3.5273 H   0  0  0  0  0  0
  -13.7740   47.8156   -3.4228 H   0  0  0  0  0  0
  -14.0106   46.2400   -4.2523 H   0  0  0  0  0  0
  -16.9294   45.0742   -3.4451 H   0  0  0  0  0  0
  -16.8858   40.5681   -1.1604 H   0  0  0  0  0  0
  -14.3811   46.2400   -7.9122 H   0  0  0  0  0  0
  -13.5582   48.6376   -6.9908 H   0  0  0  0  0  0
  -12.9811   47.1212   -6.2199 H   0  0  0  0  0  0
  -12.7445   48.6968   -5.3905 H   0  0  0  0  0  0
  1  2  2  0  0  0
  1 12  1  0  0  0
  1 26  1  0  0  0
  2 14  1  0  0  0
  2 27  1  0  0  0
  3 12  2  0  0  0
  3 13  1  0  0  0
  3 28  1  0  0  0
  4 19  2  0  0  0
  4 21  1  0  0  0
  4 29  1  0  0  0
  5  6  1  0  0  0
  5 21  2  0  0  0
  5 23  1  0  0  0
  6  7  2  0  0  0
  6 20  1  0  0  0
  7 22  1  0  0  0
  7 30  1  0  0  0
  8  9  1  0  0  0
  8 24  1  0  0  0
  8 31  1  0  0  0
  8 32  1  0  0  0
  9 10  1  0  0  0
  9 11  1  0  0  0
  9 25  1  0  0  0
 10 33  1  0  0  0
 10 34  1  0  0  0
 10 35  1  0  0  0
 11 36  1  0  0  0
 11 37  1  0  0  0
 11 38  1  0  0  0
 13 14  2  0  0  0
 13 18  1  0  0  0
 14 15  1  0  0  0
 15 16  2  0  0  0
 15 24  1  0  0  0
 16 17  1  0  0  0
 17 18  2  0  0  0
 17 19  1  0  0  0
 19 20  1  0  0  0
 20 39  1  0  0  0
 21 40  1  0  0  0
 22 23  2  0  0  0
 24 41  1  0  0  0
 25 42  1  0  0  0
 25 43  1  0  0  0
 25 44  1  0  0  0
M  CHG  1  25   1
M  END
> <s_m_source_file>
../4w7p_ligand.sdf

> <i_m_source_file_index>
1

> <s_epik_input>
W2NIXTFuW2NIXVtjSF1jKGMxMiljKFtOSF1bQ0gyXUMoW0NIM10pKFtDSDNdKVtOSDMrXSluYyhuMilDKD1bQ0hdW0NIXTMpW0NIMl1DKEM9MzQpPVtDSF1OPU40

> <s_epik_cmdline>
J2VwaWtfYXBwJywgJy1pbWFlJywgJ2xpZ2FuZF9wcm8ubWFlJywgJy1vbWFlJywgJ2xpZ2FuZF9wcmVwLm1hZScsICctbXMnLCAnMScsICctcGgnLCAnNycsICctcGh0JywgJzAuNScsICctbnQn

> <r_lp_tautomer_probability>
1

> <r_epik_Ionization_Penalty>
  0.0005

> <r_epik_Ionization_Penalty_Charging>
  0.0005

> <r_epik_Ionization_Penalty_Neutral>
  0.0000

> <r_epik_State_Penalty>
 -0.0000

> <r_epik_Charging_Adjusted_Penalty>
0.000473420604405798

> <i_epik_Tot_Q>
1

> <i_epik_Tot_abs_Q>
1

$$$$
