4w7t_ligand
                    3D
 Schrodinger Suite 2020-3.
 34 36  0  0  1  0            999 V2000
   -3.0030   -9.8140  -26.3390 C   0  0  0  0  0  0
   -1.7220   -9.7660  -25.8430 C   0  0  0  0  0  0
   -1.4770  -10.3460  -24.6220 C   0  0  0  0  0  0
   -0.8430   -8.7110  -27.7230 O   0  0  0  0  0  0
    4.2450  -10.9180  -23.3770 C   0  0  0  0  0  0
    4.8040   -9.6690  -23.2450 C   0  0  0  0  0  0
    4.1110   -8.5670  -23.6870 C   0  0  0  0  0  0
    2.8680   -8.7180  -24.2580 C   0  0  0  0  0  0
   -3.3730   -9.2140  -27.6520 C   0  0  0  0  0  0
   -3.9890  -10.4070  -25.6660 N   0  0  0  0  0  0
   -2.4510  -10.9370  -23.9300 N   0  0  0  0  0  0
   -4.6930  -11.5590  -23.7750 N   0  0  0  0  0  0
   -3.6670  -10.9410  -24.4850 C   0  0  0  0  0  0
   -0.6460   -9.1090  -26.5860 C   0  0  0  0  0  0
    0.6550   -8.9290  -25.8670 C   0  0  0  0  0  0
    0.9570  -10.1430  -25.0290 C   0  0  1  0  0  0
    2.3050   -9.9670  -24.3940 C   0  0  0  0  0  0
   -0.1220  -10.3420  -23.9920 C   0  0  0  0  0  0
    3.0040  -11.0640  -23.9490 C   0  0  0  0  0  0
    4.7881  -11.7957  -23.0267 H   0  0  0  0  0  0
    5.7892   -9.5533  -22.7933 H   0  0  0  0  0  0
    4.5464   -7.5729  -23.5851 H   0  0  0  0  0  0
    2.3238   -7.8400  -24.6060 H   0  0  0  0  0  0
   -2.4833   -8.7573  -28.1101 H   0  0  0  0  0  0
   -4.1431   -8.4436  -27.4991 H   0  0  0  0  0  0
   -3.7656   -9.9983  -28.3159 H   0  0  0  0  0  0
   -5.7107  -11.5873  -24.1916 H   0  0  0  0  0  0
   -4.4859  -12.0189  -22.7975 H   0  0  0  0  0  0
    1.4626   -8.7872  -26.6003 H   0  0  0  0  0  0
    0.5938   -8.0462  -25.2137 H   0  0  0  0  0  0
    0.9820  -11.0438  -25.6598 H   0  0  0  0  0  0
   -0.0611   -9.5244  -23.2586 H   0  0  0  0  0  0
    0.0495  -11.3030  -23.4849 H   0  0  0  0  0  0
    2.5699  -12.0586  -24.0508 H   0  0  0  0  0  0
  1  2  2  0  0  0
  1  9  1  0  0  0
  1 10  1  0  0  0
  2  3  1  0  0  0
  2 14  1  0  0  0
  3 11  2  0  0  0
  3 18  1  0  0  0
  4 14  2  0  0  0
  5  6  2  0  0  0
  5 19  1  0  0  0
  5 20  1  0  0  0
  6  7  1  0  0  0
  6 21  1  0  0  0
  7  8  2  0  0  0
  7 22  1  0  0  0
  8 17  1  0  0  0
  8 23  1  0  0  0
  9 24  1  0  0  0
  9 25  1  0  0  0
  9 26  1  0  0  0
 10 13  2  0  0  0
 11 13  1  0  0  0
 12 13  1  0  0  0
 12 27  1  0  0  0
 12 28  1  0  0  0
 14 15  1  0  0  0
 15 16  1  0  0  0
 15 29  1  0  0  0
 15 30  1  0  0  0
 16 17  1  0  0  0
 16 18  1  0  0  0
 16 31  1  0  0  0
 17 19  2  0  0  0
 18 32  1  0  0  0
 18 33  1  0  0  0
 19 34  1  0  0  0
M  END
> <s_m_source_file>
../4w7t_ligand.sdf

> <i_m_source_file_index>
1

> <s_epik_input>
W0NIM11jMW5jKFtOSDJdKW5jKGMxMilbQ0gyXVtDQEBIXShbQ0gyXUMyPU8pYzNbY0hdW2NIXVtjSF1bY0hdW2NIXTM=

> <s_epik_cmdline>
J2VwaWtfYXBwJywgJy1pbWFlJywgJ2xpZ2FuZF9wcm8ubWFlJywgJy1vbWFlJywgJ2xpZ2FuZF9wcmVwLm1hZScsICctbXMnLCAnMScsICctcGgnLCAnNycsICctcGh0JywgJzAuNScsICctbnQn

> <r_lp_tautomer_probability>
1

> <r_epik_Ionization_Penalty>
  0.0001

> <r_epik_Ionization_Penalty_Charging>
  0.0000

> <r_epik_Ionization_Penalty_Neutral>
  0.0001

> <r_epik_State_Penalty>
 -0.0000

> <r_epik_Charging_Adjusted_Penalty>
0

> <i_epik_Tot_Q>
0

> <i_epik_Tot_abs_Q>
0

$$$$
