4w97_ligand
                    3D
 Schrodinger Suite 2020-3.
112116  0  0  1  0            999 V2000
   -8.0650   38.8040    5.6090 C   0  0  0  0  0  0
   -9.1500   39.2760    4.8560 C   0  0  0  0  0  0
   -9.6590   38.4480    3.8290 C   0  0  0  0  0  0
   -8.5610   40.8030    6.3340 C   0  0  0  0  0  0
   -9.1020   37.2560    3.6380 N   0  0  0  0  0  0
   -7.5560   37.5630    5.3580 N   0  0  0  0  0  0
   -7.9680   44.0260   24.0290 O   0  0  0  0  0  0
   -6.9130   43.3390   23.8810 C   0  0  0  0  0  0
   -5.7730   43.6810   24.9140 C   0  0  0  0  0  0
   -4.4110   43.9640   24.3160 C   0  0  0  0  0  0
   -4.1170   43.0260   23.1610 C   0  0  2  0  0  0
   -3.8420   41.5450   23.5330 C   0  0  0  0  0  0
   -2.8890   43.2450   22.2520 C   0  0  0  0  0  0
   -1.7710   43.7020   22.4930 O   0  0  0  0  0  0
   -3.2330   43.1380   20.7890 C   0  0  0  0  0  0
   -4.6280   42.5480   20.8060 C   0  0  0  0  0  0
   -5.1830   43.1650   22.0920 C   0  0  1  0  0  0
   -6.6150   42.6830   22.4840 C   0  0  2  0  0  0
   -7.5500   43.7030   21.8070 C   0  0  0  0  0  0
   -8.1760   42.5530   21.0440 C   0  0  0  0  0  0
   -9.4520   43.1020   20.4660 C   0  0  0  0  0  0
   -9.9800   44.1280   20.8210 O   0  0  0  0  0  0
  -10.1730   42.2160   19.1570 S   0  0  0  0  0  0
  -11.8890   42.4720   19.5510 C   0  0  0  0  0  0
  -12.3530   43.2910   18.4250 C   0  0  0  0  0  0
  -11.6470   43.0830   17.2190 N   0  0  0  0  0  0
  -11.0660   44.0640   16.4950 C   0  0  0  0  0  0
  -11.2610   45.2100   16.8660 O   0  0  0  0  0  0
  -10.3220   43.6690   15.3050 C   0  0  0  0  0  0
   -9.4920   44.7540   14.8200 C   0  0  0  0  0  0
   -8.2200   44.6230   15.6460 N   0  0  0  0  0  0
   -8.0390   45.4880   16.6240 C   0  0  0  0  0  0
   -8.6260   46.5060   16.9230 O   0  0  0  0  0  0
   -6.7220   45.0740   17.2300 C   0  0  2  0  0  0
   -6.7530   45.3570   18.6710 O   0  0  0  0  0  0
   -5.3910   45.6560   16.7130 C   0  0  0  0  0  0
   -4.2270   45.0590   17.4640 C   0  0  0  0  0  0
   -5.3970   47.1490   16.9620 C   0  0  0  0  0  0
   -5.2710   45.3430   15.2350 C   0  0  0  0  0  0
   -5.1070   43.9250   14.9840 O   0  0  0  0  0  0
   -4.4460   43.4600   13.6040 P   0  0  1  0  0  0
   -3.0920   44.0670   13.3470 O   0  0  0  0  0  0
   -4.4820   41.9280   13.5930 O   0  5  0  0  0  0
   -5.3740   43.9110   12.3830 O   0  0  0  0  0  0
   -6.8040   43.2400   11.9870 P   0  0  2  0  0  0
   -7.6300   44.3660   11.3930 O   0  0  0  0  0  0
   -7.4620   42.6230   13.2340 O   0  5  0  0  0  0
   -6.5330   42.0090   10.9140 O   0  0  0  0  0  0
   -5.9890   42.3180    9.6460 C   0  0  0  0  0  0
   -5.6350   40.9750    9.0460 C   0  0  1  0  0  0
   -6.9060   40.3880    8.6710 O   0  0  0  0  0  0
   -4.7210   41.0240    7.8000 C   0  0  1  0  0  0
   -3.3310   40.2960    7.9170 O   0  0  0  0  0  0
   -1.7320   40.3860    8.3210 P   0  0  0  0  0  0
   -1.0860   39.2750    7.5150 O   0  5  0  0  0  0
   -1.5500   40.1380    9.8050 O   0  0  0  0  0  0
   -1.1430   41.7310    7.9430 O   0  5  0  0  0  0
   -5.6830   40.5670    6.7330 C   0  0  1  0  0  0
   -4.7750   39.8430    5.8160 O   0  0  0  0  0  0
   -6.6040   39.6660    7.4880 C   0  0  2  0  0  0
   -7.7160   39.7620    6.5120 N   0  0  0  0  0  0
   -9.4380   40.5470    5.3390 N   0  0  0  0  0  0
   -8.0740   36.8390    4.3990 C   0  0  0  0  0  0
  -10.6740   38.8640    3.0590 N   0  0  0  0  0  0
   -8.5375   41.7247    6.9154 H   0  0  0  0  0  0
   -6.0526   44.5789   25.4847 H   0  0  0  0  0  0
   -5.6378   42.8352   25.6042 H   0  0  0  0  0  0
   -4.3813   44.9992   23.9452 H   0  0  0  0  0  0
   -3.6371   43.8280   25.0858 H   0  0  0  0  0  0
   -3.0640   41.5004   24.3094 H   0  0  0  0  0  0
   -3.5010   41.0000   22.6404 H   0  0  0  0  0  0
   -4.7660   41.0847   23.9129 H   0  0  0  0  0  0
   -3.2035   44.1378   20.3313 H   0  0  0  0  0  0
   -2.5044   42.4837   20.2879 H   0  0  0  0  0  0
   -5.1682   42.8578   19.8992 H   0  0  0  0  0  0
   -4.5616   41.4504   20.8362 H   0  0  0  0  0  0
   -5.3474   44.2419   21.9398 H   0  0  0  0  0  0
   -6.7149   41.6000   22.3194 H   0  0  0  0  0  0
   -8.1479   44.2175   22.5737 H   0  0  0  0  0  0
   -6.9494   44.4405   21.2544 H   0  0  0  0  0  0
   -7.4875   42.2195   20.2536 H   0  0  0  0  0  0
   -8.3733   41.7194   21.7340 H   0  0  0  0  0  0
  -12.4002   41.4999   19.6117 H   0  0  0  0  0  0
  -11.9699   42.9898   20.5181 H   0  0  0  0  0  0
  -13.4101   43.0666   18.2195 H   0  0  0  0  0  0
  -12.2468   44.3562   18.6781 H   0  0  0  0  0  0
  -11.5426   42.0668   16.8110 H   0  0  0  0  0  0
   -9.6745   42.8127   15.5449 H   0  0  0  0  0  0
  -11.0266   43.3844   14.5097 H   0  0  0  0  0  0
   -9.3081   44.6220   13.7435 H   0  0  0  0  0  0
  -10.0050   45.7122   14.9896 H   0  0  0  0  0  0
   -7.4945   43.8287   15.4164 H   0  0  0  0  0  0
   -6.7078   44.0066   16.9646 H   0  0  0  0  0  0
   -7.6140   45.0367   19.2760 H   0  0  0  0  0  0
   -4.3234   45.2916   18.5348 H   0  0  0  0  0  0
   -3.2871   45.4822   17.0800 H   0  0  0  0  0  0
   -4.2217   43.9679   17.3248 H   0  0  0  0  0  0
   -5.4850   47.3403   18.0417 H   0  0  0  0  0  0
   -6.2502   47.6047   16.4381 H   0  0  0  0  0  0
   -4.4602   47.5870   16.5872 H   0  0  0  0  0  0
   -6.1802   45.6779   14.7143 H   0  0  0  0  0  0
   -4.3969   45.8656   14.8193 H   0  0  0  0  0  0
   -6.7406   42.8501    9.0444 H   0  0  0  0  0  0
   -5.1022   42.9564    9.7731 H   0  0  0  0  0  0
   -5.1072   40.3775    9.8039 H   0  0  0  0  0  0
   -4.3276   42.0229    7.5604 H   0  0  0  0  0  0
   -6.2774   41.2986    6.1661 H   0  0  0  0  0  0
   -4.0500   40.4013    5.2055 H   0  0  0  0  0  0
   -6.3141   38.6550    7.8103 H   0  0  0  0  0  0
   -7.6529   35.8520    4.2078 H   0  0  0  0  0  0
  -11.1243   39.8530    3.2296 H   0  0  0  0  0  0
  -11.0568   38.2164    2.2564 H   0  0  0  0  0  0
  1  2  2  0  0  0
  1  6  1  0  0  0
  1 61  1  0  0  0
  2  3  1  0  0  0
  2 62  1  0  0  0
  3  5  2  0  0  0
  3 64  1  0  0  0
  4 61  1  0  0  0
  4 62  2  0  0  0
  4 65  1  0  0  0
  5 63  1  0  0  0
  6 63  2  0  0  0
  7  8  2  0  0  0
  8  9  1  0  0  0
  8 18  1  0  0  0
  9 10  1  0  0  0
  9 66  1  0  0  0
  9 67  1  0  0  0
 10 11  1  0  0  0
 10 68  1  0  0  0
 10 69  1  0  0  0
 11 12  1  0  0  0
 11 13  1  0  0  0
 11 17  1  0  0  0
 12 70  1  0  0  0
 12 71  1  0  0  0
 12 72  1  0  0  0
 13 14  2  0  0  0
 13 15  1  0  0  0
 15 16  1  0  0  0
 15 73  1  0  0  0
 15 74  1  0  0  0
 16 17  1  0  0  0
 16 75  1  0  0  0
 16 76  1  0  0  0
 17 18  1  0  0  0
 17 77  1  0  0  0
 18 19  1  0  0  0
 18 78  1  0  0  0
 19 20  1  0  0  0
 19 79  1  0  0  0
 19 80  1  0  0  0
 20 21  1  0  0  0
 20 81  1  0  0  0
 20 82  1  0  0  0
 21 22  2  0  0  0
 21 23  1  0  0  0
 23 24  1  0  0  0
 24 25  1  0  0  0
 24 83  1  0  0  0
 24 84  1  0  0  0
 25 26  1  0  0  0
 25 85  1  0  0  0
 25 86  1  0  0  0
 26 27  1  0  0  0
 26 87  1  0  0  0
 27 28  2  0  0  0
 27 29  1  0  0  0
 29 30  1  0  0  0
 29 88  1  0  0  0
 29 89  1  0  0  0
 30 31  1  0  0  0
 30 90  1  0  0  0
 30 91  1  0  0  0
 31 32  1  0  0  0
 31 92  1  0  0  0
 32 33  2  0  0  0
 32 34  1  0  0  0
 34 35  1  0  0  0
 34 36  1  0  0  0
 34 93  1  0  0  0
 35 94  1  0  0  0
 36 37  1  0  0  0
 36 38  1  0  0  0
 36 39  1  0  0  0
 37 95  1  0  0  0
 37 96  1  0  0  0
 37 97  1  0  0  0
 38 98  1  0  0  0
 38 99  1  0  0  0
 38100  1  0  0  0
 39 40  1  0  0  0
 39101  1  0  0  0
 39102  1  0  0  0
 40 41  1  0  0  0
 41 42  2  0  0  0
 41 43  1  0  0  0
 41 44  1  0  0  0
 44 45  1  0  0  0
 45 46  2  0  0  0
 45 47  1  0  0  0
 45 48  1  0  0  0
 48 49  1  0  0  0
 49 50  1  0  0  0
 49103  1  0  0  0
 49104  1  0  0  0
 50 51  1  0  0  0
 50 52  1  0  0  0
 50105  1  0  0  0
 51 60  1  0  0  0
 52 53  1  0  0  0
 52 58  1  0  0  0
 52106  1  0  0  0
 53 54  1  0  0  0
 54 55  1  0  0  0
 54 56  2  0  0  0
 54 57  1  0  0  0
 58 59  1  0  0  0
 58 60  1  0  0  0
 58107  1  0  0  0
 59108  1  0  0  0
 60 61  1  0  0  0
 60109  1  0  0  0
 63110  1  0  0  0
 64111  1  0  0  0
 64112  1  0  0  0
M  CHG  4  43  -1  47  -1  55  -1  57  -1
M  END
> <s_m_source_file>
../4w97_ligand.sdf

> <i_m_source_file_index>
1

> <s_epik_input>
bjFbY0hdbmMoW05IMl0pYyhjMTIpbltjSF1uMltDQEBIXShbQ0BIXShbT0hdKVtDQEBIXTNPUCg9TykoW09IXSlbT0hdKU9bQ0BASF0zW0NIMl1PW1BAQF0oPU8pKFtPSF0pT1tQQF0oPU8pKFtPSF0pT1tDSDJdQyhbQ0gzXSkoW0NIM10pW0NAQEhdKFtPSF0pQyg9TylbTkhdW0NIMl1bQ0gyXUMoPU8pW05IXVtDSDJdW0NIMl1TQyg9TylbQ0gyXVtDSDJdW0NASF0oQyg9TylbQ0gyXVtDSDJdNClbQ0BASF0oW0NAXTQ1W0NIM10pW0NIMl1bQ0gyXUM1PU8=

> <s_epik_cmdline>
J2VwaWtfYXBwJywgJy1pbWFlJywgJ2xpZ2FuZF9wcm8ubWFlJywgJy1vbWFlJywgJ2xpZ2FuZF9wcmVwLm1hZScsICctbXMnLCAnMScsICctcGgnLCAnNycsICctcGh0JywgJzAuNScsICctbnQn

> <r_lp_tautomer_probability>
0.999947196551223

> <r_epik_Ionization_Penalty>
  0.0763

> <r_epik_Ionization_Penalty_Charging>
  0.0759

> <r_epik_Ionization_Penalty_Neutral>
  0.0005

> <r_epik_State_Penalty>
  0.0664

> <r_epik_Charging_Adjusted_Penalty>
0.142237236529457

> <i_epik_Tot_Q>
-4

> <i_epik_Tot_abs_Q>
4

> <s_epik_Chemistry_Notes>
This compound contains an acetal/aminal-like group ( X-CH(R)-Y where X, Y are N, S, or O) that may be acid/base labile, releasing an aldehyde.

$$$$
