4w9e_ligand
                    3D
 Schrodinger Suite 2020-3.
 55 57  0  0  1  0            999 V2000
   13.1750   52.4960   95.2110 C   0  0  0  0  0  0
   12.5860   52.3230   93.8120 C   0  0  0  0  0  0
   11.2720   51.5440   93.9320 C   0  0  0  0  0  0
   13.5640   51.5290   92.9320 C   0  0  0  0  0  0
   12.3190   53.7180   93.2880 C   0  0  0  0  0  0
   11.9460   53.6710   91.7790 C   0  0  0  0  0  0
   10.7790   53.4260   91.4650 O   0  0  0  0  0  0
   12.9010   53.9790   90.8600 N   0  0  0  0  0  0
   14.3550   54.3770   91.0090 C   0  0  0  0  0  0
   14.6720   55.1950   89.7790 C   0  0  2  0  0  0
   14.2730   56.5650   89.9670 O   0  0  0  0  0  0
   13.8230   54.5610   88.7050 C   0  0  0  0  0  0
   12.5460   54.0790   89.4010 C   0  0  1  0  0  0
   12.1230   52.8850   88.8080 C   0  0  0  0  0  0
   12.6460   51.8200   89.1280 O   0  0  0  0  0  0
   11.1610   53.0030   87.8510 N   0  0  0  0  0  0
   10.6850   51.8380   87.1110 C   0  0  0  0  0  0
   11.4910   51.6700   85.9510 C   0  0  0  0  0  0
   11.3940   50.4740   85.2370 C   0  0  0  0  0  0
   12.1790   50.2480   84.1070 C   0  0  0  0  0  0
   12.4000   52.6380   85.4910 C   0  0  0  0  0  0
   13.1810   52.4090   84.3550 C   0  0  0  0  0  0
   13.0760   51.2190   83.6470 C   0  0  0  0  0  0
   13.8200   51.0030   82.5550 C   0  0  0  0  0  0
   15.4190   51.4870   82.3140 S   0  0  0  0  0  0
   15.5370   50.8320   80.8020 C   0  0  0  0  0  0
   14.3620   50.2570   80.5100 N   0  0  0  0  0  0
   13.4100   50.3460   81.4640 C   0  0  0  0  0  0
   13.3900   51.5075   95.6431 H   0  0  0  0  0  0
   12.4533   53.0263   95.8497 H   0  0  0  0  0  0
   14.1058   53.0788   95.1475 H   0  0  0  0  0  0
   11.4786   50.5331   94.3133 H   0  0  0  0  0  0
   10.7964   51.4727   92.9427 H   0  0  0  0  0  0
   10.5978   52.0670   94.6262 H   0  0  0  0  0  0
   13.7163   50.5287   93.3636 H   0  0  0  0  0  0
   14.5271   52.0584   92.8844 H   0  0  0  0  0  0
   13.1487   51.4316   91.9181 H   0  0  0  0  0  0
   11.4855   54.1668   93.8482 H   0  0  0  0  0  0
   13.2203   54.3358   93.4141 H   0  0  0  0  0  0
   14.4814   54.9663   91.9292 H   0  0  0  0  0  0
   14.9789   53.4727   91.0641 H   0  0  0  0  0  0
   15.7449   55.2512   89.5432 H   0  0  0  0  0  0
   14.7844   57.1892   90.7146 H   0  0  0  0  0  0
   13.5943   55.3075   87.9301 H   0  0  0  0  0  0
   14.3700   53.7200   88.2539 H   0  0  0  0  0  0
   11.6390   54.6882   89.2735 H   0  0  0  0  0  0
   10.7419   53.9978   87.6395 H   0  0  0  0  0  0
   10.7581   50.9441   87.7479 H   0  0  0  0  0  0
    9.6366   51.9938   86.8167 H   0  0  0  0  0  0
   10.6947   49.7061   85.5677 H   0  0  0  0  0  0
   12.0928   49.3011   83.5740 H   0  0  0  0  0  0
   12.4973   53.5814   86.0282 H   0  0  0  0  0  0
   13.8815   53.1742   84.0204 H   0  0  0  0  0  0
   16.4147   50.8621   80.1564 H   0  0  0  0  0  0
   12.4101   49.9256   81.3561 H   0  0  0  0  0  0
  1  2  1  0  0  0
  1 29  1  0  0  0
  1 30  1  0  0  0
  1 31  1  0  0  0
  2  3  1  0  0  0
  2  4  1  0  0  0
  2  5  1  0  0  0
  3 32  1  0  0  0
  3 33  1  0  0  0
  3 34  1  0  0  0
  4 35  1  0  0  0
  4 36  1  0  0  0
  4 37  1  0  0  0
  5  6  1  0  0  0
  5 38  1  0  0  0
  5 39  1  0  0  0
  6  7  2  0  0  0
  6  8  1  0  0  0
  8  9  1  0  0  0
  8 13  1  0  0  0
  9 10  1  0  0  0
  9 40  1  0  0  0
  9 41  1  0  0  0
 10 11  1  0  0  0
 10 12  1  0  0  0
 10 42  1  0  0  0
 11 43  1  0  0  0
 12 13  1  0  0  0
 12 44  1  0  0  0
 12 45  1  0  0  0
 13 14  1  0  0  0
 13 46  1  0  0  0
 14 15  2  0  0  0
 14 16  1  0  0  0
 16 17  1  0  0  0
 16 47  1  0  0  0
 17 18  1  0  0  0
 17 48  1  0  0  0
 17 49  1  0  0  0
 18 19  2  0  0  0
 18 21  1  0  0  0
 19 20  1  0  0  0
 19 50  1  0  0  0
 20 23  2  0  0  0
 20 51  1  0  0  0
 21 22  2  0  0  0
 21 52  1  0  0  0
 22 23  1  0  0  0
 22 53  1  0  0  0
 23 24  1  0  0  0
 24 25  1  0  0  0
 24 28  2  0  0  0
 25 26  1  0  0  0
 26 27  2  0  0  0
 26 54  1  0  0  0
 27 28  1  0  0  0
 28 55  1  0  0  0
M  END
> <s_m_source_file>
../4w9e_ligand.sdf

> <i_m_source_file_index>
1

> <s_epik_input>
W0NIM11DKFtDSDNdKShbQ0gzXSlbQ0gyXUMoPU8pTjFbQ0gyXVtDQEhdKFtPSF0pW0NIMl1bQ0BIXTFDKD1PKVtOSF1bQ0gyXWMyW2NIXVtjSF1jKFtjSF1bY0hdMiktYzNzW2NIXW5bY0hdMw==

> <s_epik_cmdline>
J2VwaWtfYXBwJywgJy1pbWFlJywgJ2xpZ2FuZF9wcm8ubWFlJywgJy1vbWFlJywgJ2xpZ2FuZF9wcmVwLm1hZScsICctbXMnLCAnMScsICctcGgnLCAnNycsICctcGh0JywgJzAuNScsICctbnQn

> <r_lp_tautomer_probability>
1

> <r_epik_Ionization_Penalty>
  0.0000

> <r_epik_Ionization_Penalty_Charging>
  0.0000

> <r_epik_Ionization_Penalty_Neutral>
  0.0000

> <r_epik_State_Penalty>
 -0.0000

> <r_epik_Charging_Adjusted_Penalty>
0

> <i_epik_Tot_Q>
0

> <i_epik_Tot_abs_Q>
0

$$$$
