4w9g_ligand
                    3D
 Schrodinger Suite 2020-3.
 58 60  0  0  1  0            999 V2000
   11.5140   51.7650   94.0140 C   0  0  0  0  0  0
   12.8260   52.5330   93.8180 C   0  0  0  0  0  0
   13.7650   51.7170   92.9150 C   0  0  0  0  0  0
   13.4650   52.7160   95.1970 C   0  0  0  0  0  0
   12.5370   53.9230   93.2720 C   0  0  0  0  0  0
   12.1490   53.8620   91.7690 C   0  0  0  0  0  0
   10.9790   53.6250   91.4660 O   0  0  0  0  0  0
   13.0940   54.1460   90.8380 N   0  0  0  0  0  0
   14.5440   54.5150   90.9840 C   0  0  0  0  0  0
   14.9190   55.2490   89.7170 C   0  0  2  0  0  0
   14.6100   56.6420   89.8390 O   0  0  0  0  0  0
   14.0430   54.6210   88.6620 C   0  0  0  0  0  0
   12.7510   54.2040   89.3700 C   0  0  1  0  0  0
   12.3170   52.9980   88.8180 C   0  0  0  0  0  0
   12.8070   51.9320   89.1870 O   0  0  0  0  0  0
   11.3870   53.1030   87.8410 N   0  0  0  0  0  0
   10.8910   51.9310   87.1270 C   0  0  0  0  0  0
   11.6850   51.7730   85.9620 C   0  0  0  0  0  0
   11.7050   50.5260   85.3410 C   0  0  0  0  0  0
   12.4730   50.2860   84.2010 C   0  0  0  0  0  0
   12.4190   48.9930   83.6620 C   0  0  0  0  0  0
   12.4620   52.7980   85.4050 C   0  0  0  0  0  0
   13.2300   52.5730   84.2640 C   0  0  0  0  0  0
   13.2490   51.3270   83.6410 C   0  0  0  0  0  0
   14.0180   51.1800   82.5440 C   0  0  0  0  0  0
   15.6020   51.6610   82.4150 S   0  0  0  0  0  0
   15.8050   51.1480   80.8630 C   0  0  0  0  0  0
   14.6420   50.6190   80.4640 N   0  0  0  0  0  0
   13.6480   50.6340   81.3770 C   0  0  0  0  0  0
   11.7319   50.7617   94.4088 H   0  0  0  0  0  0
   10.9945   51.6743   93.0487 H   0  0  0  0  0  0
   10.8741   52.3079   94.7252 H   0  0  0  0  0  0
   13.9344   50.7264   93.3622 H   0  0  0  0  0  0
   14.7258   52.2431   92.8145 H   0  0  0  0  0  0
   13.3067   51.5976   91.9222 H   0  0  0  0  0  0
   13.6913   51.7304   95.6299 H   0  0  0  0  0  0
   12.7677   53.2545   95.8557 H   0  0  0  0  0  0
   14.3951   53.2946   95.0962 H   0  0  0  0  0  0
   11.7039   54.3714   93.8331 H   0  0  0  0  0  0
   13.4325   54.5527   93.3795 H   0  0  0  0  0  0
   14.6716   55.1579   91.8674 H   0  0  0  0  0  0
   15.1444   53.6014   91.1056 H   0  0  0  0  0  0
   15.9944   55.2276   89.4868 H   0  0  0  0  0  0
   15.1537   57.2644   90.5650 H   0  0  0  0  0  0
   13.8396   55.3559   87.8692 H   0  0  0  0  0  0
   14.5563   53.7490   88.2306 H   0  0  0  0  0  0
   11.8609   54.8317   89.2159 H   0  0  0  0  0  0
   11.0043   54.1031   87.5893 H   0  0  0  0  0  0
   10.9763   51.0448   87.7731 H   0  0  0  0  0  0
    9.8365   52.0864   86.8550 H   0  0  0  0  0  0
   11.1049   49.7165   85.7566 H   0  0  0  0  0  0
   11.7507   48.3686   84.2732 H   0  0  0  0  0  0
   13.4280   48.5550   83.6580 H   0  0  0  0  0  0
   12.0359   49.0409   82.6320 H   0  0  0  0  0  0
   12.4656   53.7837   85.8702 H   0  0  0  0  0  0
   13.8266   53.3866   83.8515 H   0  0  0  0  0  0
   16.7169   51.2250   80.2709 H   0  0  0  0  0  0
   12.6488   50.2430   81.1854 H   0  0  0  0  0  0
  1  2  1  0  0  0
  1 30  1  0  0  0
  1 31  1  0  0  0
  1 32  1  0  0  0
  2  3  1  0  0  0
  2  4  1  0  0  0
  2  5  1  0  0  0
  3 33  1  0  0  0
  3 34  1  0  0  0
  3 35  1  0  0  0
  4 36  1  0  0  0
  4 37  1  0  0  0
  4 38  1  0  0  0
  5  6  1  0  0  0
  5 39  1  0  0  0
  5 40  1  0  0  0
  6  7  2  0  0  0
  6  8  1  0  0  0
  8  9  1  0  0  0
  8 13  1  0  0  0
  9 10  1  0  0  0
  9 41  1  0  0  0
  9 42  1  0  0  0
 10 11  1  0  0  0
 10 12  1  0  0  0
 10 43  1  0  0  0
 11 44  1  0  0  0
 12 13  1  0  0  0
 12 45  1  0  0  0
 12 46  1  0  0  0
 13 14  1  0  0  0
 13 47  1  0  0  0
 14 15  2  0  0  0
 14 16  1  0  0  0
 16 17  1  0  0  0
 16 48  1  0  0  0
 17 18  1  0  0  0
 17 49  1  0  0  0
 17 50  1  0  0  0
 18 19  2  0  0  0
 18 22  1  0  0  0
 19 20  1  0  0  0
 19 51  1  0  0  0
 20 21  1  0  0  0
 20 24  2  0  0  0
 21 52  1  0  0  0
 21 53  1  0  0  0
 21 54  1  0  0  0
 22 23  2  0  0  0
 22 55  1  0  0  0
 23 24  1  0  0  0
 23 56  1  0  0  0
 24 25  1  0  0  0
 25 26  1  0  0  0
 25 29  2  0  0  0
 26 27  1  0  0  0
 27 28  2  0  0  0
 27 57  1  0  0  0
 28 29  1  0  0  0
 29 58  1  0  0  0
M  END
> <s_m_source_file>
../4w9g_ligand.sdf

> <i_m_source_file_index>
1

> <s_epik_input>
W0NIM11DKFtDSDNdKShbQ0gzXSlbQ0gyXUMoPU8pTjFbQ0gyXVtDQEhdKFtPSF0pW0NIMl1bQ0BIXTFDKD1PKVtOSF1bQ0gyXWMyW2NIXWMoW0NIM10pYyhbY0hdW2NIXTIpLWMzc1tjSF1uW2NIXTM=

> <s_epik_cmdline>
J2VwaWtfYXBwJywgJy1pbWFlJywgJ2xpZ2FuZF9wcm8ubWFlJywgJy1vbWFlJywgJ2xpZ2FuZF9wcmVwLm1hZScsICctbXMnLCAnMScsICctcGgnLCAnNycsICctcGh0JywgJzAuNScsICctbnQn

> <r_lp_tautomer_probability>
1

> <r_epik_Ionization_Penalty>
  0.0000

> <r_epik_Ionization_Penalty_Charging>
  0.0000

> <r_epik_Ionization_Penalty_Neutral>
  0.0000

> <r_epik_State_Penalty>
 -0.0000

> <r_epik_Charging_Adjusted_Penalty>
0

> <i_epik_Tot_Q>
0

> <i_epik_Tot_abs_Q>
0

$$$$
