4w9j_ligand
                    3D
 Schrodinger Suite 2020-3.
 84 86  0  0  1  0            999 V2000
    7.6160   55.7390   96.1890 C   0  0  0  0  0  0
    8.3460   57.0420   95.8070 C   0  0  0  0  0  0
    7.3100   58.0320   95.2780 C   0  0  0  0  0  0
    9.4060   56.8260   94.7260 C   0  0  0  0  0  0
   10.2880   55.6520   95.1670 C   0  0  2  0  0  0
   10.9180   55.9660   96.4610 N   0  0  0  0  0  0
   11.3510   55.0470   97.3580 C   0  0  0  0  0  0
   11.8800   55.3670   98.4280 O   0  0  0  0  0  0
   11.1370   53.5680   97.0270 C   0  0  0  0  0  0
   11.4010   55.3790   94.1280 C   0  0  0  0  0  0
   12.3280   56.1650   93.9560 O   0  0  0  0  0  0
   11.2850   54.2200   93.4890 N   0  0  0  0  0  0
   12.2830   53.7310   92.5490 C   0  0  1  0  0  0
   12.5310   52.2310   92.8770 C   0  0  0  0  0  0
   13.1670   52.1450   94.2760 C   0  0  0  0  0  0
   13.4900   51.5770   91.8560 C   0  0  0  0  0  0
   11.2120   51.4030   92.9100 C   0  0  0  0  0  0
   11.7860   53.9760   91.1190 C   0  0  0  0  0  0
   10.6040   53.8200   90.8760 O   0  0  0  0  0  0
   12.6850   54.3470   90.1800 N   0  0  0  0  0  0
   14.1240   54.6630   90.3350 C   0  0  0  0  0  0
   14.4400   55.6140   89.1830 C   0  0  2  0  0  0
   14.1400   56.9950   89.5450 O   0  0  0  0  0  0
   13.5580   55.2290   88.0680 C   0  0  0  0  0  0
   12.3090   54.6050   88.7430 C   0  0  1  0  0  0
   11.8960   53.4360   88.0570 C   0  0  0  0  0  0
   12.3680   52.3520   88.3630 O   0  0  0  0  0  0
   10.9460   53.5680   87.0830 N   0  0  0  0  0  0
   10.4850   52.4090   86.3180 C   0  0  0  0  0  0
   11.3120   52.2370   85.1610 C   0  0  0  0  0  0
   12.2280   53.2070   84.6850 C   0  0  0  0  0  0
   13.0330   52.9640   83.5500 C   0  0  0  0  0  0
   11.2290   51.0340   84.4600 C   0  0  0  0  0  0
   12.0290   50.7950   83.3210 C   0  0  0  0  0  0
   12.9420   51.7590   82.8470 C   0  0  0  0  0  0
   13.7020   51.5690   81.7500 C   0  0  0  0  0  0
   15.3310   52.1250   81.5140 S   0  0  0  0  0  0
   15.4530   51.5250   79.9770 C   0  0  0  0  0  0
   14.3090   50.9400   79.6390 N   0  0  0  0  0  0
   13.3480   50.9610   80.5940 C   0  0  0  0  0  0
   11.9880   50.3020   80.2970 C   0  0  0  0  0  0
    6.8681   55.9523   96.9669 H   0  0  0  0  0  0
    8.3447   55.0090   96.5712 H   0  0  0  0  0  0
    7.1143   55.3260   95.3014 H   0  0  0  0  0  0
    8.8596   57.4268   96.7004 H   0  0  0  0  0  0
    6.5384   58.1995   96.0439 H   0  0  0  0  0  0
    6.8426   57.6234   94.3699 H   0  0  0  0  0  0
    7.8029   58.9860   95.0393 H   0  0  0  0  0  0
    8.9131   56.5964   93.7698 H   0  0  0  0  0  0
   10.0101   57.7388   94.6172 H   0  0  0  0  0  0
    9.6569   54.7614   95.3033 H   0  0  0  0  0  0
   11.0669   57.0140   96.7603 H   0  0  0  0  0  0
   10.6571   53.4786   96.0412 H   0  0  0  0  0  0
   10.4919   53.1108   97.7917 H   0  0  0  0  0  0
   12.1082   53.0518   97.0102 H   0  0  0  0  0  0
   10.3855   53.6219   93.6969 H   0  0  0  0  0  0
   13.2146   54.3033   92.6700 H   0  0  0  0  0  0
   14.1041   52.7209   94.2888 H   0  0  0  0  0  0
   13.3796   51.0932   94.5181 H   0  0  0  0  0  0
   12.4718   52.5594   95.0209 H   0  0  0  0  0  0
   14.4295   52.1479   91.8176 H   0  0  0  0  0  0
   13.0208   51.5756   90.8611 H   0  0  0  0  0  0
   13.7021   50.5422   92.1629 H   0  0  0  0  0  0
   10.5147   51.8529   93.6320 H   0  0  0  0  0  0
   11.4356   50.3690   93.2115 H   0  0  0  0  0  0
   10.7543   51.4024   91.9097 H   0  0  0  0  0  0
   14.2919   55.1372   91.3132 H   0  0  0  0  0  0
   14.7120   53.7355   90.2714 H   0  0  0  0  0  0
   15.5025   55.5821   88.9000 H   0  0  0  0  0  0
   14.6917   57.4815   90.3629 H   0  0  0  0  0  0
   13.2989   56.1220   87.4803 H   0  0  0  0  0  0
   14.0767   54.5039   87.4237 H   0  0  0  0  0  0
   11.3933   55.2117   88.6856 H   0  0  0  0  0  0
   10.5273   54.5643   86.8779 H   0  0  0  0  0  0
   10.5436   51.5080   86.9464 H   0  0  0  0  0  0
    9.4434   52.5687   86.0023 H   0  0  0  0  0  0
   12.3135   54.1609   85.2055 H   0  0  0  0  0  0
   13.7359   53.7277   83.2172 H   0  0  0  0  0  0
   10.5344   50.2647   84.7973 H   0  0  0  0  0  0
   11.9385   49.8438   82.7965 H   0  0  0  0  0  0
   16.3349   51.5983   79.3406 H   0  0  0  0  0  0
   11.3300   50.4087   81.1720 H   0  0  0  0  0  0
   12.1378   49.2343   80.0789 H   0  0  0  0  0  0
   11.5250   50.7923   79.4280 H   0  0  0  0  0  0
  1  2  1  0  0  0
  1 42  1  0  0  0
  1 43  1  0  0  0
  1 44  1  0  0  0
  2  3  1  0  0  0
  2  4  1  0  0  0
  2 45  1  0  0  0
  3 46  1  0  0  0
  3 47  1  0  0  0
  3 48  1  0  0  0
  4  5  1  0  0  0
  4 49  1  0  0  0
  4 50  1  0  0  0
  5  6  1  0  0  0
  5 10  1  0  0  0
  5 51  1  0  0  0
  6  7  1  0  0  0
  6 52  1  0  0  0
  7  8  2  0  0  0
  7  9  1  0  0  0
  9 53  1  0  0  0
  9 54  1  0  0  0
  9 55  1  0  0  0
 10 11  2  0  0  0
 10 12  1  0  0  0
 12 13  1  0  0  0
 12 56  1  0  0  0
 13 14  1  0  0  0
 13 18  1  0  0  0
 13 57  1  0  0  0
 14 15  1  0  0  0
 14 16  1  0  0  0
 14 17  1  0  0  0
 15 58  1  0  0  0
 15 59  1  0  0  0
 15 60  1  0  0  0
 16 61  1  0  0  0
 16 62  1  0  0  0
 16 63  1  0  0  0
 17 64  1  0  0  0
 17 65  1  0  0  0
 17 66  1  0  0  0
 18 19  2  0  0  0
 18 20  1  0  0  0
 20 21  1  0  0  0
 20 25  1  0  0  0
 21 22  1  0  0  0
 21 67  1  0  0  0
 21 68  1  0  0  0
 22 23  1  0  0  0
 22 24  1  0  0  0
 22 69  1  0  0  0
 23 70  1  0  0  0
 24 25  1  0  0  0
 24 71  1  0  0  0
 24 72  1  0  0  0
 25 26  1  0  0  0
 25 73  1  0  0  0
 26 27  2  0  0  0
 26 28  1  0  0  0
 28 29  1  0  0  0
 28 74  1  0  0  0
 29 30  1  0  0  0
 29 75  1  0  0  0
 29 76  1  0  0  0
 30 31  2  0  0  0
 30 33  1  0  0  0
 31 32  1  0  0  0
 31 77  1  0  0  0
 32 35  2  0  0  0
 32 78  1  0  0  0
 33 34  2  0  0  0
 33 79  1  0  0  0
 34 35  1  0  0  0
 34 80  1  0  0  0
 35 36  1  0  0  0
 36 37  1  0  0  0
 36 40  2  0  0  0
 37 38  1  0  0  0
 38 39  2  0  0  0
 38 81  1  0  0  0
 39 40  1  0  0  0
 40 41  1  0  0  0
 41 82  1  0  0  0
 41 83  1  0  0  0
 41 84  1  0  0  0
M  END
> <s_m_source_file>
../4w9j_ligand.sdf

> <i_m_source_file_index>
1

> <s_epik_input>
W0NIM11bQ0hdKFtDSDNdKVtDSDJdW0NASF0oW05IXUMoPU8pW0NIM10pQyg9TylbTkhdW0NAQEhdKEMoW0NIM10pKFtDSDNdKVtDSDNdKUMoPU8pTjFbQ0gyXVtDQEhdKFtPSF0pW0NIMl1bQ0BIXTFDKD1PKVtOSF1bQ0gyXWMyW2NIXVtjSF1jKFtjSF1bY0hdMiktYzNzW2NIXW5jM1tDSDNd

> <s_epik_cmdline>
J2VwaWtfYXBwJywgJy1pbWFlJywgJ2xpZ2FuZF9wcm8ubWFlJywgJy1vbWFlJywgJ2xpZ2FuZF9wcmVwLm1hZScsICctbXMnLCAnMScsICctcGgnLCAnNycsICctcGh0JywgJzAuNScsICctbnQn

> <r_lp_tautomer_probability>
1

> <r_epik_Ionization_Penalty>
  0.0002

> <r_epik_Ionization_Penalty_Charging>
  0.0000

> <r_epik_Ionization_Penalty_Neutral>
  0.0002

> <r_epik_State_Penalty>
 -0.0000

> <r_epik_Charging_Adjusted_Penalty>
0

> <i_epik_Tot_Q>
0

> <i_epik_Tot_abs_Q>
0

$$$$
