4w9s_ligand
                    3D
 Schrodinger Suite 2020-3.
 27 29  0  0  1  0            999 V2000
    9.0120   19.7740   -8.5830 O   0  0  0  0  0  0
    9.6970   20.5830   -9.4680 C   0  0  0  0  0  0
   10.0240   20.1430  -10.7210 C   0  0  0  0  0  0
   10.7070   20.9520  -11.5710 N   0  0  0  0  0  0
   11.0740   22.1630  -11.1140 C   0  0  0  0  0  0
   11.7870   23.1480  -11.9880 C   0  0  0  0  0  0
   12.4580   24.2190  -11.4050 C   0  0  0  0  0  0
   13.0610   25.1660  -12.2320 C   0  0  0  0  0  0
   12.9420   25.0430  -13.6110 C   0  0  0  0  0  0
   12.2550   23.9910  -14.1850 C   0  0  0  0  0  0
   11.6490   23.0430  -13.3730 C   0  0  0  0  0  0
   13.5820   26.0810  -14.4900 C   0  0  0  0  0  0
   13.2410   26.4140  -15.7440 N   0  0  0  0  0  0
   14.0750   27.3980  -16.1170 N   0  0  0  0  0  0
   14.8940   27.6880  -15.1020 N   0  0  0  0  0  0
   14.5610   26.8710  -14.0910 N   0  3  0  0  0  0
   10.7530   22.6340   -9.9040 N   0  0  0  0  0  0
   10.1040   21.8570   -9.0480 C   0  0  0  0  0  0
    9.8770   22.2810   -7.9500 O   0  0  0  0  0  0
    8.6847   18.7712   -8.8948 H   0  0  0  0  0  0
    9.7357   19.1407  -11.0379 H   0  0  0  0  0  0
   12.5112   24.3158  -10.3206 H   0  0  0  0  0  0
   13.6209   25.9957  -11.8004 H   0  0  0  0  0  0
   12.1893   23.9061  -15.2697 H   0  0  0  0  0  0
   11.0731   22.2276  -13.8106 H   0  0  0  0  0  0
   14.9587   26.7810  -13.0694 H   0  0  0  0  0  0
   11.0275   23.6615   -9.6232 H   0  0  0  0  0  0
  1  2  1  0  0  0
  1 20  1  0  0  0
  2  3  2  0  0  0
  2 18  1  0  0  0
  3  4  1  0  0  0
  3 21  1  0  0  0
  4  5  2  0  0  0
  5  6  1  0  0  0
  5 17  1  0  0  0
  6  7  2  0  0  0
  6 11  1  0  0  0
  7  8  1  0  0  0
  7 22  1  0  0  0
  8  9  2  0  0  0
  8 23  1  0  0  0
  9 10  1  0  0  0
  9 12  1  0  0  0
 10 11  2  0  0  0
 10 24  1  0  0  0
 11 25  1  0  0  0
 12 13  2  0  0  0
 12 16  1  0  0  0
 13 14  1  0  0  0
 14 15  1  0  0  0
 15 16  2  0  0  0
 16 26  1  0  0  0
 17 18  1  0  0  0
 17 27  1  0  0  0
 18 19  2  0  0  0
M  CHG  1  16   1
M  END
> <s_m_source_file>
../4w9s_ligand.sdf

> <i_m_source_file_index>
1

> <s_epik_input>
W09IXWMxW2NIXVtuSF1jKG5jMT1PKS1jMltjSF1bY0hdYyhbY0hdW2NIXTIpLWMzbltuSF1ubjM=

> <s_epik_cmdline>
J2VwaWtfYXBwJywgJy1pbWFlJywgJ2xpZ2FuZF9wcm8ubWFlJywgJy1vbWFlJywgJ2xpZ2FuZF9wcmVwLm1hZScsICctbXMnLCAnMScsICctcGgnLCAnNycsICctcGh0JywgJzAuNScsICctbnQn

> <r_epik_Ionization_Penalty>
  0.1349

> <r_epik_Ionization_Penalty_Charging>
  0.0702

> <r_epik_Ionization_Penalty_Neutral>
  0.0647

> <r_epik_State_Penalty>
  0.1142

> <r_epik_Charging_Adjusted_Penalty>
0.184447357433847

> <i_epik_Tot_Q>
1

> <i_epik_Tot_abs_Q>
1

$$$$
