4wa9_ligand
                    3D
 Schrodinger Suite 2020-3.
 45 48  0  0  1  0            999 V2000
   14.1460  158.8920   36.9950 O   0  0  0  0  0  0
   13.1110  158.9860   37.6350 C   0  0  0  0  0  0
   12.4620  160.2570   37.7450 N   0  0  0  0  0  0
   13.0120  161.4260   37.0760 C   0  0  0  0  0  0
   12.5590  157.7730   38.3130 C   0  0  0  0  0  0
   12.2660  157.8050   39.6760 C   0  0  0  0  0  0
   11.7670  156.6730   40.3080 C   0  0  0  0  0  0
   11.5580  155.5010   39.5740 C   0  0  0  0  0  0
   12.3520  156.5920   37.5790 C   0  0  0  0  0  0
   11.8560  155.4710   38.2080 C   0  0  0  0  0  0
   12.7010  156.5180   35.8190 S   0  0  0  0  0  0
   11.4490  155.4060   35.1740 C   0  0  0  0  0  0
   10.0940  155.6050   35.5100 C   0  0  0  0  0  0
    9.1060  154.7310   35.0210 C   0  0  0  0  0  0
   11.8290  154.3550   34.3550 C   0  0  0  0  0  0
   10.8200  153.4660   33.8530 C   0  0  0  0  0  0
   10.9130  152.3630   33.0240 N   0  0  0  0  0  0
    9.6460  151.8660   32.8370 N   0  0  0  0  0  0
    8.7500  152.6100   33.5180 C   0  0  3  0  0  0
    9.4900  153.6500   34.1780 C   0  0  0  0  0  0
    7.2670  152.3500   33.5450 C   0  0  0  0  0  0
    6.3800  153.1480   34.2220 C   0  0  0  0  0  0
    4.9250  152.7650   34.2910 C   0  0  0  0  0  0
    4.4220  151.8900   33.3980 N   0  0  0  0  0  0
    3.1180  151.5270   33.4310 C   0  0  0  0  0  0
    2.2730  152.0660   34.3980 C   0  0  0  0  0  0
    2.7710  152.9720   35.3270 C   0  0  0  0  0  0
    4.1180  153.3270   35.2680 C   0  0  0  0  0  0
   11.5413  160.3464   38.3403 H   0  0  0  0  0  0
   12.3747  162.2990   37.2802 H   0  0  0  0  0  0
   13.0488  161.2445   35.9917 H   0  0  0  0  0  0
   14.0283  161.6184   37.4503 H   0  0  0  0  0  0
   12.4287  158.7195   40.2463 H   0  0  0  0  0  0
   11.5389  156.6982   41.3736 H   0  0  0  0  0  0
   11.1633  154.6121   40.0661 H   0  0  0  0  0  0
   11.6950  154.5560   37.6379 H   0  0  0  0  0  0
    9.8109  156.4396   36.1514 H   0  0  0  0  0  0
    8.0588  154.8798   35.2845 H   0  0  0  0  0  0
   12.8772  154.2057   34.0961 H   0  0  0  0  0  0
    6.9041  151.4735   32.9882 H   0  0  0  0  0  0
    6.7316  154.0669   34.7140 H   0  0  0  0  0  0
    2.7305  150.8147   32.7026 H   0  0  0  0  0  0
    1.2222  151.7776   34.4263 H   0  0  0  0  0  0
    2.1189  153.3981   36.0894 H   0  0  0  0  0  0
    4.5320  154.0387   35.9823 H   0  0  0  0  0  0
  1  2  2  0  0  0
  2  3  1  0  0  0
  2  5  1  0  0  0
  3  4  1  0  0  0
  3 29  1  0  0  0
  4 30  1  0  0  0
  4 31  1  0  0  0
  4 32  1  0  0  0
  5  6  2  0  0  0
  5  9  1  0  0  0
  6  7  1  0  0  0
  6 33  1  0  0  0
  7  8  2  0  0  0
  7 34  1  0  0  0
  8 10  1  0  0  0
  8 35  1  0  0  0
  9 10  2  0  0  0
  9 11  1  0  0  0
 10 36  1  0  0  0
 11 12  1  0  0  0
 12 13  2  0  0  0
 12 15  1  0  0  0
 13 14  1  0  0  0
 13 37  1  0  0  0
 14 20  2  0  0  0
 14 38  1  0  0  0
 15 16  2  0  0  0
 15 39  1  0  0  0
 16 17  1  0  0  0
 16 20  1  0  0  0
 17 18  2  0  0  0
 18 19  1  0  0  0
 19 20  1  0  0  0
 19 21  1  0  0  0
 21 22  2  0  0  0
 21 40  1  0  0  0
 22 23  1  0  0  0
 22 41  1  0  0  0
 23 24  2  0  0  0
 23 28  1  0  0  0
 24 25  1  0  0  0
 25 26  2  0  0  0
 25 42  1  0  0  0
 26 27  1  0  0  0
 26 43  1  0  0  0
 27 28  2  0  0  0
 27 44  1  0  0  0
 28 45  1  0  0  0
M  END
> <s_m_source_file>
../4wa9_ligand.sdf

> <i_m_source_file_index>
1

> <s_epik_input>
W0NIM11bTkhdQyg9TyljMVtjSF1bY0hdW2NIXVtjSF1jMVNjKFtjSF0yKVtjSF1bY0hdYyhjMjMpW0NIXShOPU4zKS9bQ0hdPVtDSF0vYzRuW2NIXVtjSF1bY0hdW2NIXTQ=

> <s_epik_cmdline>
J2VwaWtfYXBwJywgJy1pbWFlJywgJ2xpZ2FuZF9wcm8ubWFlJywgJy1vbWFlJywgJ2xpZ2FuZF9wcmVwLm1hZScsICctbXMnLCAnMScsICctcGgnLCAnNycsICctcGh0JywgJzAuNScsICctbnQn

> <r_lp_tautomer_probability>
1

> <r_epik_Ionization_Penalty>
  0.0017

> <r_epik_Ionization_Penalty_Charging>
  0.0000

> <r_epik_Ionization_Penalty_Neutral>
  0.0017

> <r_epik_State_Penalty>
 -0.0000

> <r_epik_Charging_Adjusted_Penalty>
0

> <i_epik_Tot_Q>
0

> <i_epik_Tot_abs_Q>
0

$$$$
