4waf_ligand
                    3D
 Schrodinger Suite 2020-3.
 55 59  0  0  1  0            999 V2000
   -2.6790   12.4200  -18.0750 C   0  0  2  0  0  0
   -3.3220   12.6130  -16.7070 C   0  0  0  0  0  0
   -1.8860   10.9240  -13.9840 C   0  0  0  0  0  0
    0.0820    3.5740  -14.6180 O   0  0  0  0  0  0
    2.7400    4.4840  -15.2210 C   0  0  0  0  0  0
    3.0550    4.0110  -12.8170 C   0  0  0  0  0  0
   -2.1680   10.4540  -16.1170 C   0  0  0  0  0  0
   -2.1990    9.9680  -17.5330 C   0  0  0  0  0  0
   -2.8480   10.6390  -19.8270 C   0  0  0  0  0  0
   -1.9370    9.8000  -20.4700 C   0  0  0  0  0  0
   -2.0130    9.6560  -21.8450 C   0  0  0  0  0  0
   -3.8050   11.0650  -21.9780 C   0  0  0  0  0  0
   -5.4850   12.4650  -21.5360 C   0  0  0  0  0  0
   -4.9370   12.1620  -20.3300 C   0  0  0  0  0  0
   -3.8440   11.2730  -20.5910 C   0  0  0  0  0  0
    0.5860    4.5100  -13.6520 S   0  0  0  0  0  0
    0.3520    4.2740  -12.2640 O   0  0  0  0  0  0
    2.1980    4.5850  -13.8610 N   0  0  0  0  0  0
   -0.0670    6.0890  -14.0430 C   0  0  0  0  0  0
    0.0250    6.5760  -15.3410 C   0  0  0  0  0  0
   -0.4480    7.8430  -15.6310 C   0  0  0  0  0  0
   -0.6340    6.8630  -13.0420 C   0  0  0  0  0  0
   -1.1060    8.1260  -13.3380 C   0  0  0  0  0  0
   -1.0310    8.6300  -14.6390 C   0  0  0  0  0  0
   -1.6290    9.9480  -14.9570 C   0  0  0  0  0  0
   -2.5540   11.9460  -14.4660 N   0  0  0  0  0  0
   -2.7220   11.6660  -15.8010 N   0  0  0  0  0  0
   -2.7000   10.9930  -18.4550 N   0  0  0  0  0  0
   -1.2720   13.0140  -18.1690 C   0  0  0  0  0  0
   -4.8060   11.8060  -22.5340 N   0  0  0  0  0  0
   -2.9200   10.2770  -22.6140 N   0  3  0  0  0  0
   -3.2949   12.9505  -18.8161 H   0  0  0  0  0  0
   -3.1422   13.6409  -16.3591 H   0  0  0  0  0  0
   -4.4050   12.4357  -16.7826 H   0  0  0  0  0  0
   -1.5672   10.8433  -12.9448 H   0  0  0  0  0  0
    3.8373    4.5526  -15.1844 H   0  0  0  0  0  0
    2.3417    5.3042  -15.8363 H   0  0  0  0  0  0
    2.4473    3.5195  -15.6616 H   0  0  0  0  0  0
    4.1108    4.1372  -13.0989 H   0  0  0  0  0  0
    2.8305    2.9399  -12.7062 H   0  0  0  0  0  0
    2.8660    4.5258  -11.8634 H   0  0  0  0  0  0
   -1.1822    9.6904  -17.8477 H   0  0  0  0  0  0
   -2.8576    9.0899  -17.6050 H   0  0  0  0  0  0
   -1.1774    9.2663  -19.8987 H   0  0  0  0  0  0
   -1.2926    8.9986  -22.3318 H   0  0  0  0  0  0
   -6.3337   13.1182  -21.7869 H   0  0  0  0  0  0
   -5.2646   12.5241  -19.3555 H   0  0  0  0  0  0
    0.4674    5.9631  -16.1263 H   0  0  0  0  0  0
   -0.3640    8.2304  -16.6464 H   0  0  0  0  0  0
   -0.7067    6.4758  -12.0257 H   0  0  0  0  0  0
   -1.5422    8.7371  -12.5478 H   0  0  0  0  0  0
   -1.3016   14.0745  -17.8784 H   0  0  0  0  0  0
   -0.9056   12.9270  -19.2025 H   0  0  0  0  0  0
   -0.5974   12.4674  -17.4936 H   0  0  0  0  0  0
   -2.9119   10.1275  -23.7038 H   0  0  0  0  0  0
  1  2  1  0  0  0
  1 28  1  0  0  0
  1 29  1  0  0  0
  1 32  1  0  0  0
  2 27  1  0  0  0
  2 33  1  0  0  0
  2 34  1  0  0  0
  3 25  1  0  0  0
  3 26  2  0  0  0
  3 35  1  0  0  0
  4 16  2  0  0  0
  5 18  1  0  0  0
  5 36  1  0  0  0
  5 37  1  0  0  0
  5 38  1  0  0  0
  6 18  1  0  0  0
  6 39  1  0  0  0
  6 40  1  0  0  0
  6 41  1  0  0  0
  7  8  1  0  0  0
  7 25  2  0  0  0
  7 27  1  0  0  0
  8 28  1  0  0  0
  8 42  1  0  0  0
  8 43  1  0  0  0
  9 10  2  0  0  0
  9 15  1  0  0  0
  9 28  1  0  0  0
 10 11  1  0  0  0
 10 44  1  0  0  0
 11 31  2  0  0  0
 11 45  1  0  0  0
 12 15  2  0  0  0
 12 30  1  0  0  0
 12 31  1  0  0  0
 13 14  1  0  0  0
 13 30  2  0  0  0
 13 46  1  0  0  0
 14 15  1  0  0  0
 14 47  1  0  0  0
 16 17  2  0  0  0
 16 18  1  0  0  0
 16 19  1  0  0  0
 19 20  2  0  0  0
 19 22  1  0  0  0
 20 21  1  0  0  0
 20 48  1  0  0  0
 21 24  2  0  0  0
 21 49  1  0  0  0
 22 23  2  0  0  0
 22 50  1  0  0  0
 23 24  1  0  0  0
 23 51  1  0  0  0
 24 25  1  0  0  0
 26 27  1  0  0  0
 29 52  1  0  0  0
 29 53  1  0  0  0
 29 54  1  0  0  0
 31 55  1  0  0  0
M  CHG  1  31   1
M  END
> <s_m_source_file>
../4waf_ligand.sdf

> <i_m_source_file_index>
1

> <s_epik_input>
TjE9W0NIXVtDSDJdYyhjMTIpYyhbY0hdW2NIXW4yKU4oW0NIMl0zKVtDQEhdKFtDSDNdKVtDSDJdbihjMzQpbltjSF1jNC1jKFtjSF1bY0hdNSlbY0hdW2NIXWM1Uyg9TykoPU8pTihbQ0gzXSlbQ0gzXQ==

> <s_epik_cmdline>
J2VwaWtfYXBwJywgJy1pbWFlJywgJ2xpZ2FuZF9wcm8ubWFlJywgJy1vbWFlJywgJ2xpZ2FuZF9wcmVwLm1hZScsICctbXMnLCAnMScsICctcGgnLCAnNycsICctcGh0JywgJzAuNScsICctbnQn

> <r_epik_Ionization_Penalty>
  0.2725

> <r_epik_Ionization_Penalty_Charging>
  0.2415

> <r_epik_Ionization_Penalty_Neutral>
  0.0310

> <r_epik_State_Penalty>
  0.2325

> <r_epik_Charging_Adjusted_Penalty>
0.47393135779357

> <i_epik_Tot_Q>
1

> <i_epik_Tot_abs_Q>
1

> <s_epik_Chemistry_Notes>
This compound has an imine and may undergo hydrolysis.

$$$$
