4wbg_ligand
                    3D
 Schrodinger Suite 2020-3.
 45 45  0  0  1  0            999 V2000
   15.5950   -7.6930   20.9690 C   0  0  0  0  0  0
   23.0840  -10.4430   17.6920 S   0  0  0  0  0  0
   19.0270   -5.4280   19.1620 O   0  0  0  0  0  0
   18.1730   -9.9280   18.4110 O   0  0  0  0  0  0
   18.5240  -10.3470   21.9480 O   0  0  0  0  0  0
   16.1700   -5.4010   20.1400 N   0  0  3  0  0  0
   18.5270   -8.1270   19.7280 N   0  0  0  0  0  0
   19.5700  -10.5190   21.2420 N   0  0  0  0  0  0
   22.0860  -11.0860   20.0220 N   0  0  0  0  0  0
   24.3070  -11.8390   19.6690 N   0  0  0  0  0  0
   16.0450   -4.3510   21.2830 S   0  0  0  0  0  0
   16.6930   -6.7300   20.5040 C   0  0  2  0  0  0
   17.4760   -7.2240   19.2840 C   0  0  1  0  0  0
   17.9800   -5.9390   18.7480 C   0  0  0  0  0  0
   18.7560   -9.3770   19.3160 C   0  0  0  0  0  0
   19.7710  -10.1330   20.0390 C   0  0  0  0  0  0
   18.4040  -10.8680   23.3020 C   0  0  0  0  0  0
   21.0810  -10.4080   19.3960 C   0  0  0  0  0  0
   21.4580   -9.9710   18.1270 C   0  0  0  0  0  0
   23.1860  -11.1940   19.2480 C   0  0  0  0  0  0
   19.4640  -10.2400   24.2240 C   0  0  0  0  0  0
   17.0050  -10.5120   23.8310 C   0  0  0  0  0  0
   18.5380  -12.3960   23.2580 C   0  0  0  0  0  0
   17.5850  -13.0600   22.7750 O   0  0  0  0  0  0
   19.5780  -12.9680   23.6850 O   0  5  0  0  0  0
   15.1690   -3.2970   20.8760 O   0  0  0  0  0  0
   15.4300   -5.0990   22.6070 O   0  5  0  0  0  0
   17.3550   -3.8450   21.6450 O   0  0  0  0  0  0
   15.0817   -7.2686   21.8444 H   0  0  0  0  0  0
   16.0455   -8.6590   21.2407 H   0  0  0  0  0  0
   14.8698   -7.8425   20.1555 H   0  0  0  0  0  0
   16.0431   -5.1310   19.0812 H   0  0  0  0  0  0
   19.2484   -7.7986   20.4907 H   0  0  0  0  0  0
   25.1840  -11.9058   19.0084 H   0  0  0  0  0  0
   24.3366  -12.2938   20.6701 H   0  0  0  0  0  0
   17.3496   -6.6297   21.3808 H   0  0  0  0  0  0
   16.9529   -7.8175   18.5197 H   0  0  0  0  0  0
   17.3969   -5.4378   17.9614 H   0  0  0  0  0  0
   20.8051   -9.3936   17.4724 H   0  0  0  0  0  0
   19.3407   -9.1470   24.2332 H   0  0  0  0  0  0
   20.4684  -10.4926   23.8533 H   0  0  0  0  0  0
   19.3406  -10.6316   25.2445 H   0  0  0  0  0  0
   16.8944   -9.4182   23.8681 H   0  0  0  0  0  0
   16.8783  -10.9278   24.8415 H   0  0  0  0  0  0
   16.2414  -10.9353   23.1619 H   0  0  0  0  0  0
  1 12  1  0  0  0
  1 29  1  0  0  0
  1 30  1  0  0  0
  1 31  1  0  0  0
  2 19  1  0  0  0
  2 20  1  0  0  0
  3 14  2  0  0  0
  4 15  2  0  0  0
  5  8  1  0  0  0
  5 17  1  0  0  0
  6 11  1  0  0  0
  6 12  1  0  0  0
  6 32  1  0  0  0
  7 13  1  0  0  0
  7 15  1  0  0  0
  7 33  1  0  0  0
  8 16  2  0  0  0
  9 18  1  0  0  0
  9 20  2  0  0  0
 10 20  1  0  0  0
 10 34  1  0  0  0
 10 35  1  0  0  0
 11 26  2  0  0  0
 11 27  1  0  0  0
 11 28  2  0  0  0
 12 13  1  0  0  0
 12 36  1  0  0  0
 13 14  1  0  0  0
 13 37  1  0  0  0
 14 38  1  0  0  0
 15 16  1  0  0  0
 16 18  1  0  0  0
 17 21  1  0  0  0
 17 22  1  0  0  0
 17 23  1  0  0  0
 18 19  2  0  0  0
 19 39  1  0  0  0
 21 40  1  0  0  0
 21 41  1  0  0  0
 21 42  1  0  0  0
 22 43  1  0  0  0
 22 44  1  0  0  0
 22 45  1  0  0  0
 23 24  2  0  0  0
 23 25  1  0  0  0
M  CHG  2  25  -1  27  -1
M  END
> <s_m_source_file>
../4wbg_ligand.sdf

> <i_m_source_file_index>
1

> <s_epik_input>
Tz1TKD1PKShbT0hdKVtOSF1bQ0BASF0oW0NIM10pW0NAQEhdKFtDSF09TylbTkhdQyg9TykvQyg9TlxPQyhbQ0gzXSkoW0NIM10pQyg9TylbT0hdKWMxbmMoW05IMl0pc1tjSF0x

> <s_epik_cmdline>
J2VwaWtfYXBwJywgJy1pbWFlJywgJ2xpZ2FuZF9wcm8ubWFlJywgJy1vbWFlJywgJ2xpZ2FuZF9wcmVwLm1hZScsICctbXMnLCAnMScsICctcGgnLCAnNycsICctcGh0JywgJzAuNScsICctbnQn

> <r_lp_tautomer_probability>
1

> <r_epik_Ionization_Penalty>
  0.0138

> <r_epik_Ionization_Penalty_Charging>
  0.0001

> <r_epik_Ionization_Penalty_Neutral>
  0.0137

> <r_epik_State_Penalty>
 -0.0000

> <r_epik_Charging_Adjusted_Penalty>
0.00011029142060034

> <i_epik_Tot_Q>
-2

> <i_epik_Tot_abs_Q>
2

> <s_epik_Chemistry_Notes>
This compound has an imine and may undergo hydrolysis.

$$$$
