4wbo_ligand
                    3D
 Schrodinger Suite 2020-3.
 35 37  0  0  1  0            999 V2000
   42.9610  -55.8460   -3.0460 N   0  0  0  0  0  0
   43.1430  -55.9260   -5.4710 N   0  0  0  0  0  0
   41.0230  -52.8920    4.5380 C   0  0  0  0  0  0
   42.4510  -53.3740    4.2920 C   0  0  0  0  0  0
   42.9640  -54.2260    5.4540 C   0  0  0  0  0  0
   42.5340  -54.0940    2.9980 C   0  0  0  0  0  0
   42.6240  -53.3200    1.8440 C   0  0  0  0  0  0
   42.7110  -53.9310    0.5940 C   0  0  0  0  0  0
   42.7090  -55.3210    0.5100 C   0  0  0  0  0  0
   42.6180  -56.0980    1.6590 C   0  0  0  0  0  0
   42.5310  -55.4900    2.9030 C   0  0  0  0  0  0
   42.8790  -55.2030   -1.8630 C   0  0  0  0  0  0
   43.0500  -55.1610   -4.2020 C   0  0  0  0  0  0
   43.0550  -53.7700   -4.2030 C   0  0  0  0  0  0
   42.9710  -53.0830   -2.9970 C   0  0  0  0  0  0
   42.8820  -53.8100   -1.8120 C   0  0  0  0  0  0
   42.7970  -53.1720   -0.5770 C   0  0  0  0  0  0
   43.1640  -53.0180   -5.4980 C   0  0  0  0  0  0
   42.7940  -55.9330   -0.7100 O   0  0  0  0  0  0
   42.7990  -51.9230   -0.5250 O   0  0  0  0  0  0
   43.0200  -53.6660   -6.5570 O   0  0  0  0  0  0
   43.4110  -51.7850   -5.4980 O   0  5  0  0  0  0
   43.1377  -57.0258   -5.4519 H   0  0  0  0  0  0
   43.2172  -55.3930   -6.4304 H   0  0  0  0  0  0
   40.9760  -52.3604    5.4999 H   0  0  0  0  0  0
   40.3434  -53.7566    4.5633 H   0  0  0  0  0  0
   40.7210  -52.2118    3.7280 H   0  0  0  0  0  0
   43.1161  -52.5026    4.2009 H   0  0  0  0  0  0
   42.8843  -53.6547    6.3906 H   0  0  0  0  0  0
   44.0160  -54.4935    5.2760 H   0  0  0  0  0  0
   42.3606  -55.1425    5.5310 H   0  0  0  0  0  0
   42.6264  -52.2325    1.9183 H   0  0  0  0  0  0
   42.6150  -57.1853    1.5826 H   0  0  0  0  0  0
   42.4605  -56.0986    3.8045 H   0  0  0  0  0  0
   42.9747  -51.9932   -2.9791 H   0  0  0  0  0  0
  1 12  2  0  0  0
  1 13  1  0  0  0
  2 13  1  0  0  0
  2 23  1  0  0  0
  2 24  1  0  0  0
  3  4  1  0  0  0
  3 25  1  0  0  0
  3 26  1  0  0  0
  3 27  1  0  0  0
  4  5  1  0  0  0
  4  6  1  0  0  0
  4 28  1  0  0  0
  5 29  1  0  0  0
  5 30  1  0  0  0
  5 31  1  0  0  0
  6  7  2  0  0  0
  6 11  1  0  0  0
  7  8  1  0  0  0
  7 32  1  0  0  0
  8  9  2  0  0  0
  8 17  1  0  0  0
  9 10  1  0  0  0
  9 19  1  0  0  0
 10 11  2  0  0  0
 10 33  1  0  0  0
 11 34  1  0  0  0
 12 16  1  0  0  0
 12 19  1  0  0  0
 13 14  2  0  0  0
 14 15  1  0  0  0
 14 18  1  0  0  0
 15 16  2  0  0  0
 15 35  1  0  0  0
 16 17  1  0  0  0
 17 20  2  0  0  0
 18 21  2  0  0  0
 18 22  1  0  0  0
M  CHG  1  22  -1
M  END
> <s_m_source_file>
../4wbo_ligand.sdf

> <i_m_source_file_index>
1

> <s_epik_input>
bjFjKFtOSDJdKWMoQyg9TylbT0hdKVtjSF1jKGMyPU8pYzFvYyhjMjMpW2NIXVtjSF1jKFtjSF0zKVtDSF0oW0NIM10pW0NIM10=

> <s_epik_cmdline>
J2VwaWtfYXBwJywgJy1pbWFlJywgJ2xpZ2FuZF9wcm8ubWFlJywgJy1vbWFlJywgJ2xpZ2FuZF9wcmVwLm1hZScsICctbXMnLCAnMScsICctcGgnLCAnNycsICctcGh0JywgJzAuNScsICctbnQn

> <r_epik_Ionization_Penalty>
  0.0221

> <r_epik_Ionization_Penalty_Charging>
  0.0010

> <r_epik_Ionization_Penalty_Neutral>
  0.0211

> <r_epik_State_Penalty>
  0.0170

> <r_epik_Charging_Adjusted_Penalty>
0.0179303086125119

> <i_epik_Tot_Q>
-1

> <i_epik_Tot_abs_Q>
1

> <s_epik_Chemistry_Notes>
This compound has an imine and may undergo hydrolysis.

$$$$
