4wcu_ligand
                    3D
 Schrodinger Suite 2020-3.
 55 57  0  0  1  0            999 V2000
   21.2970   -2.5960   -5.1150 C   0  0  0  0  0  0
   21.6640   -3.5930   -4.0860 C   0  0  0  0  0  0
   21.4780   -3.2870   -2.7420 C   0  0  0  0  0  0
   20.6060   -1.1470   -3.2380 C   0  0  0  0  0  0
   20.7470   -1.3170   -4.6150 C   0  0  0  0  0  0
   27.5880    0.6410   -7.3990 O   0  0  0  0  0  0
   26.4160    0.3100   -7.3410 C   0  0  0  0  0  0
   25.8360   -0.1460   -6.2270 N   0  0  0  0  0  0
   26.2950    0.2470   -4.8980 C   0  0  0  0  0  0
   25.1550    0.7130   -4.0020 C   0  0  0  0  0  0
   25.3700    0.8400   -2.6250 C   0  0  0  0  0  0
   24.3400    1.2500   -1.7780 C   0  0  0  0  0  0
   23.0870    1.5490   -2.3100 C   0  0  0  0  0  0
   22.8580    1.4310   -3.6830 C   0  0  0  0  0  0
   23.8920    1.0140   -4.5260 C   0  0  0  0  0  0
   25.5840    0.4170   -8.5990 C   0  0  0  0  0  0
   24.2890   -0.1700   -8.4760 O   0  0  0  0  0  0
   23.8680   -1.2350   -9.2410 C   0  0  0  0  0  0
   24.1570   -1.3430  -10.7050 C   0  0  0  0  0  0
   24.8790   -0.3660  -11.3560 O   0  0  0  0  0  0
   24.2540    0.8330  -11.8150 C   0  0  0  0  0  0
   23.6400   -2.5560  -11.4200 C   0  0  0  0  0  0
   23.8780   -2.7230  -12.7570 O   0  0  0  0  0  0
   23.4170   -3.8610  -13.4990 C   0  0  0  0  0  0
   22.9200   -3.5330  -10.7120 C   0  0  0  0  0  0
   22.6490   -3.4240   -9.3470 C   0  0  0  0  0  0
   23.0830   -2.3310   -8.5990 C   0  0  0  0  0  0
   22.7670   -2.2440   -7.1370 C   0  0  0  0  0  0
   23.5440   -1.6360   -6.4120 O   0  0  0  0  0  0
   21.4850   -2.8720   -6.5960 C   0  0  0  0  0  0
   20.2600   -0.0290   -5.7620 Cl  0  0  0  0  0  0
   20.9690   -2.1000   -2.3570 N   0  0  0  0  0  0
   22.3300   -5.1700   -4.5720 Cl  0  0  0  0  0  0
   21.7495   -4.0223   -1.9846 H   0  0  0  0  0  0
   20.1886   -0.2129   -2.8621 H   0  0  0  0  0  0
   24.9877   -0.8382   -6.3335 H   0  0  0  0  0  0
   26.7811   -0.6104   -4.4096 H   0  0  0  0  0  0
   27.0147    1.0739   -4.9883 H   0  0  0  0  0  0
   26.3527    0.6162   -2.2098 H   0  0  0  0  0  0
   24.5144    1.3361   -0.7055 H   0  0  0  0  0  0
   22.2822    1.8764   -1.6518 H   0  0  0  0  0  0
   21.8762    1.6634   -4.0956 H   0  0  0  0  0  0
   23.7141    0.9226   -5.5975 H   0  0  0  0  0  0
   25.4422    1.4772   -8.8557 H   0  0  0  0  0  0
   26.1004   -0.0943   -9.4248 H   0  0  0  0  0  0
   25.0033    1.4731  -12.3037 H   0  0  0  0  0  0
   23.8158    1.3686  -10.9599 H   0  0  0  0  0  0
   23.4615    0.5809  -12.5350 H   0  0  0  0  0  0
   23.7319   -3.7664  -14.5487 H   0  0  0  0  0  0
   22.3193   -3.9114  -13.4486 H   0  0  0  0  0  0
   23.8463   -4.7778  -13.0686 H   0  0  0  0  0  0
   22.5591   -4.4100  -11.2494 H   0  0  0  0  0  0
   22.0833   -4.2142   -8.8533 H   0  0  0  0  0  0
   21.5378   -3.9580   -6.7628 H   0  0  0  0  0  0
   20.6355   -2.4558   -7.1573 H   0  0  0  0  0  0
  1  2  2  0  0  0
  1  5  1  0  0  0
  1 30  1  0  0  0
  2  3  1  0  0  0
  2 33  1  0  0  0
  3 32  2  0  0  0
  3 34  1  0  0  0
  4  5  2  0  0  0
  4 32  1  0  0  0
  4 35  1  0  0  0
  5 31  1  0  0  0
  6  7  2  0  0  0
  7  8  1  0  0  0
  7 16  1  0  0  0
  8  9  1  0  0  0
  8 36  1  0  0  0
  9 10  1  0  0  0
  9 37  1  0  0  0
  9 38  1  0  0  0
 10 11  2  0  0  0
 10 15  1  0  0  0
 11 12  1  0  0  0
 11 39  1  0  0  0
 12 13  2  0  0  0
 12 40  1  0  0  0
 13 14  1  0  0  0
 13 41  1  0  0  0
 14 15  2  0  0  0
 14 42  1  0  0  0
 15 43  1  0  0  0
 16 17  1  0  0  0
 16 44  1  0  0  0
 16 45  1  0  0  0
 17 18  1  0  0  0
 18 19  2  0  0  0
 18 27  1  0  0  0
 19 20  1  0  0  0
 19 22  1  0  0  0
 20 21  1  0  0  0
 21 46  1  0  0  0
 21 47  1  0  0  0
 21 48  1  0  0  0
 22 23  1  0  0  0
 22 25  2  0  0  0
 23 24  1  0  0  0
 24 49  1  0  0  0
 24 50  1  0  0  0
 24 51  1  0  0  0
 25 26  1  0  0  0
 25 52  1  0  0  0
 26 27  2  0  0  0
 26 53  1  0  0  0
 27 28  1  0  0  0
 28 29  2  0  0  0
 28 30  1  0  0  0
 30 54  1  0  0  0
 30 55  1  0  0  0
M  END
> <s_m_source_file>
../4wcu_ligand.sdf

> <i_m_source_file_index>
1

> <s_epik_input>
Q2xjMVtjSF1uW2NIXWMoQ2wpYzFbQ0gyXUMoPU8pYzJbY0hdW2NIXWMoT1tDSDNdKWMoT1tDSDNdKWMyT1tDSDJdQyg9TylbTkhdW0NIMl1jM1tjSF1bY0hdW2NIXVtjSF1bY0hdMw==

> <s_epik_cmdline>
J2VwaWtfYXBwJywgJy1pbWFlJywgJ2xpZ2FuZF9wcm8ubWFlJywgJy1vbWFlJywgJ2xpZ2FuZF9wcmVwLm1hZScsICctbXMnLCAnMScsICctcGgnLCAnNycsICctcGh0JywgJzAuNScsICctbnQn

> <r_lp_tautomer_probability>
1

> <r_epik_Ionization_Penalty>
  0.0000

> <r_epik_Ionization_Penalty_Charging>
  0.0000

> <r_epik_Ionization_Penalty_Neutral>
  0.0000

> <r_epik_State_Penalty>
 -0.0000

> <r_epik_Charging_Adjusted_Penalty>
0

> <i_epik_Tot_Q>
0

> <i_epik_Tot_abs_Q>
0

$$$$
