4wet_ligand
                    3D
 Schrodinger Suite 2020-3.
 47 49  0  0  1  0            999 V2000
    8.8060   27.6240   -6.8870 O   0  0  0  0  0  0
    7.7440   27.5860   -7.4820 C   0  0  0  0  0  0
    6.5540   27.0970   -6.9450 N   0  0  0  0  0  0
    6.3100   26.5670   -5.5950 C   0  0  1  0  0  0
    5.0900   27.2710   -4.8890 C   0  0  0  0  0  0
    5.0750   28.7980   -4.9360 C   0  0  0  0  0  0
    5.6290   29.6630   -3.9750 C   0  0  0  0  0  0
    5.5730   31.0590   -4.1160 C   0  0  0  0  0  0
    4.9590   31.6080   -5.2390 C   0  0  0  0  0  0
    4.9040   32.9790   -5.3790 O   0  0  0  0  0  0
    4.4020   30.7700   -6.2150 C   0  0  0  0  0  0
    4.4680   29.3890   -6.0550 C   0  0  0  0  0  0
    6.0650   25.0160   -5.6030 C   0  0  0  0  0  0
    5.9980   24.5020   -6.7470 O   0  5  0  0  0  0
    5.9720   24.4780   -4.4990 O   0  0  0  0  0  0
    7.7760   28.0930   -8.8860 C   0  0  0  0  0  0
    8.7470   28.1270   -9.8590 C   0  0  0  0  0  0
   10.1710   27.6450   -9.7180 C   0  0  0  0  0  0
    8.3390   28.6820  -11.1150 N   0  0  0  0  0  0
    7.0730   29.0870  -11.1180 C   0  0  0  0  0  0
    6.3390   29.6660  -12.2440 C   0  0  0  0  0  0
    4.9250   29.7030  -12.3360 C   0  0  0  0  0  0
    4.2400   30.2320  -13.4420 C   0  0  0  0  0  0
    4.9570   30.7510  -14.5150 C   0  0  0  0  0  0
    4.2890   31.3340  -15.7320 C   0  0  0  0  0  0
    5.1140   31.3480  -16.8110 F   0  0  0  0  0  0
    3.8970   32.6170  -15.6410 F   0  0  0  0  0  0
    3.2040   30.6730  -16.1510 F   0  0  0  0  0  0
    6.3330   30.7040  -14.4430 C   0  0  0  0  0  0
    6.9910   30.1790  -13.3520 C   0  0  0  0  0  0
    6.3060   28.7680   -9.5610 S   0  0  0  0  0  0
    5.7326   27.1411   -7.6753 H   0  0  0  0  0  0
    7.2558   26.8126   -5.0899 H   0  0  0  0  0  0
    4.1530   26.9430   -5.3628 H   0  0  0  0  0  0
    5.0765   26.9994   -3.8231 H   0  0  0  0  0  0
    6.1151   29.2380   -3.0968 H   0  0  0  0  0  0
    6.0060   31.7068   -3.3538 H   0  0  0  0  0  0
    5.3438   33.6287   -4.6080 H   0  0  0  0  0  0
    3.9200   31.1975   -7.0942 H   0  0  0  0  0  0
    4.0351   28.7469   -6.8221 H   0  0  0  0  0  0
   10.3255   27.2499   -8.7031 H   0  0  0  0  0  0
   10.8610   28.4834   -9.8941 H   0  0  0  0  0  0
   10.3638   26.8506  -10.4541 H   0  0  0  0  0  0
    4.3409   29.3013  -11.5080 H   0  0  0  0  0  0
    3.1501   30.2359  -13.4595 H   0  0  0  0  0  0
    6.9188   31.0944  -15.2752 H   0  0  0  0  0  0
    8.0809   30.1671  -13.3621 H   0  0  0  0  0  0
  1  2  2  0  0  0
  2  3  1  0  0  0
  2 16  1  0  0  0
  3  4  1  0  0  0
  3 32  1  0  0  0
  4  5  1  0  0  0
  4 13  1  0  0  0
  4 33  1  0  0  0
  5  6  1  0  0  0
  5 34  1  0  0  0
  5 35  1  0  0  0
  6  7  2  0  0  0
  6 12  1  0  0  0
  7  8  1  0  0  0
  7 36  1  0  0  0
  8  9  2  0  0  0
  8 37  1  0  0  0
  9 10  1  0  0  0
  9 11  1  0  0  0
 10 38  1  0  0  0
 11 12  2  0  0  0
 11 39  1  0  0  0
 12 40  1  0  0  0
 13 14  1  0  0  0
 13 15  2  0  0  0
 16 17  2  0  0  0
 16 31  1  0  0  0
 17 18  1  0  0  0
 17 19  1  0  0  0
 18 41  1  0  0  0
 18 42  1  0  0  0
 18 43  1  0  0  0
 19 20  2  0  0  0
 20 21  1  0  0  0
 20 31  1  0  0  0
 21 22  2  0  0  0
 21 30  1  0  0  0
 22 23  1  0  0  0
 22 44  1  0  0  0
 23 24  2  0  0  0
 23 45  1  0  0  0
 24 25  1  0  0  0
 24 29  1  0  0  0
 25 26  1  0  0  0
 25 27  1  0  0  0
 25 28  1  0  0  0
 29 30  2  0  0  0
 29 46  1  0  0  0
 30 47  1  0  0  0
M  CHG  1  14  -1
M  END
> <s_m_source_file>
../4wet_ligand.sdf

> <i_m_source_file_index>
1

> <s_epik_input>
W2NIXTFbY0hdYyhbT0hdKVtjSF1bY0hdYzFbQ0gyXVtDQEBIXShDKD1PKVtPSF0pW05IXUMoPU8pYzJjKFtDSDNdKW5jKHMyKS1jM1tjSF1bY0hdYyhDKEYpKEYpRilbY0hdW2NIXTM=

> <s_epik_cmdline>
J2VwaWtfYXBwJywgJy1pbWFlJywgJ2xpZ2FuZF9wcm8ubWFlJywgJy1vbWFlJywgJ2xpZ2FuZF9wcmVwLm1hZScsICctbXMnLCAnMScsICctcGgnLCAnNycsICctcGh0JywgJzAuNScsICctbnQn

> <r_lp_tautomer_probability>
1

> <r_epik_Ionization_Penalty>
  0.0007

> <r_epik_Ionization_Penalty_Charging>
  0.0002

> <r_epik_Ionization_Penalty_Neutral>
  0.0005

> <r_epik_State_Penalty>
 -0.0000

> <r_epik_Charging_Adjusted_Penalty>
0.000236018430389706

> <i_epik_Tot_Q>
-1

> <i_epik_Tot_abs_Q>
1

$$$$
