4wey_ligand
                    3D
 Schrodinger Suite 2020-3.
 35 36  0  0  1  0            999 V2000
    5.3710   27.8150   24.4160 O   0  0  0  0  0  0
    5.9690   27.5730   23.3850 C   0  0  0  0  0  0
    7.1760   26.8170   23.3380 N   0  0  0  0  0  0
    8.0470   26.1580   24.4010 C   0  0  0  0  0  0
    7.5080   26.2330   25.8380 C   0  0  0  0  0  0
    6.8340   25.0460   26.0890 O   0  0  0  0  0  0
    5.3680   28.1040   22.0310 C   0  0  0  0  0  0
    6.0030   28.1660   20.8110 C   0  0  0  0  0  0
    7.4460   27.7440   20.5140 C   0  0  0  0  0  0
    5.2610   28.6680   19.7250 N   0  0  0  0  0  0
    4.0150   29.0360   20.0040 C   0  0  0  0  0  0
    3.0460   29.5710   19.0060 C   0  0  0  0  0  0
    1.6280   29.6130   19.0710 C   0  0  0  0  0  0
    0.8450   30.1000   18.0140 C   0  0  0  0  0  0
    1.4410   30.5690   16.8410 C   0  0  0  0  0  0
    0.6690   31.0860   15.6970 C   0  0  0  0  0  0
    0.7100   32.4490   15.5250 F   0  0  0  0  0  0
   -0.6210   30.7730   15.7250 F   0  0  0  0  0  0
    1.0770   30.6580   14.4810 F   0  0  0  0  0  0
    2.8010   30.5070   16.7550 C   0  0  0  0  0  0
    3.5460   30.0210   17.7880 C   0  0  0  0  0  0
    3.6880   28.7300   21.7660 S   0  0  0  0  0  0
    7.4575   26.7493   22.2768 H   0  0  0  0  0  0
    8.1632   25.0891   24.1688 H   0  0  0  0  0  0
    9.0358   26.6397   24.4152 H   0  0  0  0  0  0
    8.3472   26.3558   26.5384 H   0  0  0  0  0  0
    6.8257   27.0909   25.9294 H   0  0  0  0  0  0
    6.3612   24.8784   27.0679 H   0  0  0  0  0  0
    7.9164   27.3720   21.4361 H   0  0  0  0  0  0
    8.0110   28.6095   20.1375 H   0  0  0  0  0  0
    7.4463   26.9476   19.7552 H   0  0  0  0  0  0
    1.1313   29.2547   19.9727 H   0  0  0  0  0  0
   -0.2408   30.1126   18.1090 H   0  0  0  0  0  0
    3.2987   30.8507   15.8482 H   0  0  0  0  0  0
    4.6262   29.9815   17.6478 H   0  0  0  0  0  0
  1  2  2  0  0  0
  2  3  1  0  0  0
  2  7  1  0  0  0
  3  4  1  0  0  0
  3 23  1  0  0  0
  4  5  1  0  0  0
  4 24  1  0  0  0
  4 25  1  0  0  0
  5  6  1  0  0  0
  5 26  1  0  0  0
  5 27  1  0  0  0
  6 28  1  0  0  0
  7  8  2  0  0  0
  7 22  1  0  0  0
  8  9  1  0  0  0
  8 10  1  0  0  0
  9 29  1  0  0  0
  9 30  1  0  0  0
  9 31  1  0  0  0
 10 11  2  0  0  0
 11 12  1  0  0  0
 11 22  1  0  0  0
 12 13  2  0  0  0
 12 21  1  0  0  0
 13 14  1  0  0  0
 13 32  1  0  0  0
 14 15  2  0  0  0
 14 33  1  0  0  0
 15 16  1  0  0  0
 15 20  1  0  0  0
 16 17  1  0  0  0
 16 18  1  0  0  0
 16 19  1  0  0  0
 20 21  2  0  0  0
 20 34  1  0  0  0
 21 35  1  0  0  0
M  END
> <s_m_source_file>
../4wey_ligand.sdf

> <i_m_source_file_index>
1

> <s_epik_input>
W09IXVtDSDJdW0NIMl1bTkhdQyg9TyljMWMoW0NIM10pbmMoczEpLWMyW2NIXVtjSF1jKEMoRikoRilGKVtjSF1bY0hdMg==

> <s_epik_cmdline>
J2VwaWtfYXBwJywgJy1pbWFlJywgJ2xpZ2FuZF9wcm8ubWFlJywgJy1vbWFlJywgJ2xpZ2FuZF9wcmVwLm1hZScsICctbXMnLCAnMScsICctcGgnLCAnNycsICctcGh0JywgJzAuNScsICctbnQn

> <r_lp_tautomer_probability>
1

> <r_epik_Ionization_Penalty>
  0.0000

> <r_epik_Ionization_Penalty_Charging>
  0.0000

> <r_epik_Ionization_Penalty_Neutral>
  0.0000

> <r_epik_State_Penalty>
 -0.0000

> <r_epik_Charging_Adjusted_Penalty>
0

> <i_epik_Tot_Q>
0

> <i_epik_Tot_abs_Q>
0

$$$$
