4wf2_ligand
                    3D
 Schrodinger Suite 2020-3.
 66 70  0  0  1  0            999 V2000
   -1.9090   24.1670    8.2790 P   0  0  2  0  0  0
   -0.8070   23.5500    9.1220 O   0  5  0  0  0  0
   -1.6360   25.5120    7.6430 O   0  0  0  0  0  0
   -3.2130   24.3390    9.1800 O   0  0  0  0  0  0
   -3.2290   23.9500   10.5510 C   0  0  0  0  0  0
   -3.5130   25.1240   11.4530 C   0  0  1  0  0  0
   -4.4840   25.9810   10.8100 O   0  0  0  0  0  0
   -4.0610   24.7540   12.8300 C   0  0  1  0  0  0
   -3.1160   25.1520   13.8240 O   0  0  0  0  0  0
   -5.3370   25.5890   12.9960 C   0  0  1  0  0  0
   -5.2130   26.6640   13.9010 O   0  0  0  0  0  0
   -5.6610   26.0780   11.5790 C   0  0  2  0  0  0
   -6.7400   25.3500   10.9010 N   0  0  0  0  0  0
   -7.2260   24.1450   11.2660 C   0  0  0  0  0  0
   -8.2230   23.8170   10.3970 N   0  0  0  0  0  0
   -8.3530   24.8240    9.4980 C   0  0  0  0  0  0
   -9.1990   25.0040    8.4170 C   0  0  0  0  0  0
  -10.2440   24.2250    7.8370 N   0  0  0  0  0  0
   -9.1170   26.1230    7.6750 N   0  0  0  0  0  0
   -8.1880   27.0900    7.9900 C   0  0  0  0  0  0
   -7.3540   26.9150    9.0520 N   0  0  0  0  0  0
   -7.4380   25.7780    9.8080 C   0  0  0  0  0  0
   -2.2880   23.4630    5.7520 C   0  0  0  0  0  0
   -2.2880   23.1100    7.1540 O   0  0  0  0  0  0
   -2.4770   22.1910    4.8980 C   0  0  0  0  0  0
   -3.8900   21.6000    5.1250 C   0  0  0  0  0  0
   -4.0370   20.2600    4.3620 C   0  0  0  0  0  0
   -5.4550   19.7260    4.5750 C   0  0  0  0  0  0
   -5.8490   18.6930    3.4100 C   0  0  2  0  0  0
   -7.4360   18.2150    3.5390 S   0  0  0  0  0  0
   -7.4190   16.8140    2.6160 C   0  0  0  0  0  0
   -6.0730   16.2430    2.8700 C   0  0  2  0  0  0
   -6.2200   15.3030    3.7950 N   0  0  0  0  0  0
   -5.4090   15.7510    5.0670 C   0  0  0  0  0  0
   -5.3130   15.1290    6.1290 O   0  0  0  0  0  0
   -4.7510   17.1060    4.7330 N   0  0  0  0  0  0
   -5.0960   17.4320    3.4880 C   0  0  2  0  0  0
   -4.0108   23.1923   10.7080 H   0  0  0  0  0  0
   -2.2502   23.5290   10.8241 H   0  0  0  0  0  0
   -2.5584   25.6550   11.5829 H   0  0  0  0  0  0
   -4.2073   23.6736   12.9763 H   0  0  0  0  0  0
   -2.1301   24.6665   13.8712 H   0  0  0  0  0  0
   -6.1444   25.0420   13.5048 H   0  0  0  0  0  0
   -4.9814   26.4688   14.9585 H   0  0  0  0  0  0
   -5.9973   27.1251   11.6029 H   0  0  0  0  0  0
   -6.8822   23.5417   12.1062 H   0  0  0  0  0  0
  -10.5080   23.2491    8.2705 H   0  0  0  0  0  0
  -10.7858   24.6003    6.9563 H   0  0  0  0  0  0
   -8.1204   27.9964    7.3884 H   0  0  0  0  0  0
   -3.1111   24.1643    5.5505 H   0  0  0  0  0  0
   -1.3301   23.9380    5.4935 H   0  0  0  0  0  0
   -2.3587   22.4430    3.8338 H   0  0  0  0  0  0
   -1.7234   21.4423    5.1835 H   0  0  0  0  0  0
   -4.0447   21.4219    6.1994 H   0  0  0  0  0  0
   -4.6471   22.3086    4.7581 H   0  0  0  0  0  0
   -3.8583   20.4272    3.2896 H   0  0  0  0  0  0
   -3.3038   19.5362    4.7474 H   0  0  0  0  0  0
   -5.5103   19.2089    5.5443 H   0  0  0  0  0  0
   -6.1677   20.5639    4.5652 H   0  0  0  0  0  0
   -5.5473   19.1770    2.4694 H   0  0  0  0  0  0
   -8.2258   16.1451    2.9500 H   0  0  0  0  0  0
   -7.5703   17.0706    1.5571 H   0  0  0  0  0  0
   -5.7210   15.6836    1.9907 H   0  0  0  0  0  0
   -6.8301   14.4128    3.5824 H   0  0  0  0  0  0
   -4.1023   17.7753    5.3171 H   0  0  0  0  0  0
   -4.0880   17.6169    3.0884 H   0  0  0  0  0  0
  1  2  1  0  0  0
  1  3  2  0  0  0
  1  4  1  0  0  0
  1 24  1  0  0  0
  4  5  1  0  0  0
  5  6  1  0  0  0
  5 38  1  0  0  0
  5 39  1  0  0  0
  6  7  1  0  0  0
  6  8  1  0  0  0
  6 40  1  0  0  0
  7 12  1  0  0  0
  8  9  1  0  0  0
  8 10  1  0  0  0
  8 41  1  0  0  0
  9 42  1  0  0  0
 10 11  1  0  0  0
 10 12  1  0  0  0
 10 43  1  0  0  0
 11 44  1  0  0  0
 12 13  1  0  0  0
 12 45  1  0  0  0
 13 14  1  0  0  0
 13 22  1  0  0  0
 14 15  2  0  0  0
 14 46  1  0  0  0
 15 16  1  0  0  0
 16 17  2  0  0  0
 16 22  1  0  0  0
 17 18  1  0  0  0
 17 19  1  0  0  0
 18 47  1  0  0  0
 18 48  1  0  0  0
 19 20  2  0  0  0
 20 21  1  0  0  0
 20 49  1  0  0  0
 21 22  2  0  0  0
 23 24  1  0  0  0
 23 25  1  0  0  0
 23 50  1  0  0  0
 23 51  1  0  0  0
 25 26  1  0  0  0
 25 52  1  0  0  0
 25 53  1  0  0  0
 26 27  1  0  0  0
 26 54  1  0  0  0
 26 55  1  0  0  0
 27 28  1  0  0  0
 27 56  1  0  0  0
 27 57  1  0  0  0
 28 29  1  0  0  0
 28 58  1  0  0  0
 28 59  1  0  0  0
 29 30  1  0  0  0
 29 37  1  0  0  0
 29 60  1  0  0  0
 30 31  1  0  0  0
 31 32  1  0  0  0
 31 61  1  0  0  0
 31 62  1  0  0  0
 32 33  1  0  0  0
 32 37  1  0  0  0
 32 63  1  0  0  0
 33 34  1  0  0  0
 33 64  1  0  0  0
 34 35  2  0  0  0
 34 36  1  0  0  0
 36 37  1  0  0  0
 36 65  1  0  0  0
 37 66  1  0  0  0
M  CHG  1   2  -1
M  END
> <s_m_source_file>
../4wf2_ligand.sdf

> <i_m_source_file_index>
1

> <s_epik_input>
W05IXTFDKD1PKVtOSF1bQ0BASF0oW0NAQEhdMTIpW0NAQEhdKFNbQ0gyXTIpW0NIMl1bQ0gyXVtDSDJdW0NIMl1bQ0gyXU9bUEBdKD1PKShbT0hdKU9bQ0gyXVtDQEhdM09bQ0BIXShbQ0BIXShbT0hdKVtDQEBIXTNbT0hdKW4oW2NIXW40KWMoYzQ1KW5bY0hdbmM1W05IMl0=

> <s_epik_cmdline>
J2VwaWtfYXBwJywgJy1pbWFlJywgJ2xpZ2FuZF9wcm8ubWFlJywgJy1vbWFlJywgJ2xpZ2FuZF9wcmVwLm1hZScsICctbXMnLCAnMScsICctcGgnLCAnNycsICctcGh0JywgJzAuNScsICctbnQn

> <r_lp_tautomer_probability>
1

> <r_epik_Ionization_Penalty>
  0.0009

> <r_epik_Ionization_Penalty_Charging>
  0.0004

> <r_epik_Ionization_Penalty_Neutral>
  0.0005

> <r_epik_State_Penalty>
 -0.0000

> <r_epik_Charging_Adjusted_Penalty>
0.000392474769360551

> <i_epik_Tot_Q>
-1

> <i_epik_Tot_abs_Q>
1

> <s_epik_Chemistry_Notes>
This compound contains an acetal/aminal-like group ( X-CH(R)-Y where X, Y are N, S, or O) that may be acid/base labile, releasing an aldehyde.

$$$$
