4wf4_ligand
                    3D
 Schrodinger Suite 2020-3.
 26 27  0  0  1  0            999 V2000
  -10.6750   19.3150   10.1950 C   0  0  0  0  0  0
   -9.2810   19.9260   10.1620 C   0  0  0  0  0  0
   -8.5340   20.1140    9.0150 C   0  0  0  0  0  0
   -8.8610   19.7830    7.4980 C   0  0  0  0  0  0
   -8.1180   20.3080    6.6470 O   0  0  0  0  0  0
   -9.8220   19.0200    7.2680 O   0  5  0  0  0  0
   -6.9920   20.8520    9.5020 S   0  0  0  0  0  0
   -7.4290   20.8670   11.2180 C   0  0  0  0  0  0
   -6.5400   21.3870   12.2760 C   0  0  0  0  0  0
   -5.1240   21.4410   12.1970 C   0  0  0  0  0  0
   -4.2980   21.9280   13.2180 C   0  0  0  0  0  0
   -4.8700   22.3980   14.3920 C   0  0  0  0  0  0
   -4.0460   22.9510   15.5650 C   0  0  0  0  0  0
   -2.8270   22.4850   15.5890 F   0  0  0  0  0  0
   -4.5960   22.6310   16.7000 F   0  0  0  0  0  0
   -3.9730   24.2560   15.5620 F   0  0  0  0  0  0
   -6.2330   22.3540   14.4980 C   0  0  0  0  0  0
   -7.0100   21.8720   13.4870 C   0  0  0  0  0  0
   -8.6580   20.3500   11.3900 N   0  0  0  0  0  0
  -10.9852   19.0540    9.1724 H   0  0  0  0  0  0
  -11.3838   20.0415   10.6190 H   0  0  0  0  0  0
  -10.6632   18.4081   10.8174 H   0  0  0  0  0  0
   -4.6494   21.0808   11.2843 H   0  0  0  0  0  0
   -3.2154   21.9378   13.0916 H   0  0  0  0  0  0
   -6.7084   22.7123   15.4111 H   0  0  0  0  0  0
   -8.0887   21.8675   13.6433 H   0  0  0  0  0  0
  1  2  1  0  0  0
  1 20  1  0  0  0
  1 21  1  0  0  0
  1 22  1  0  0  0
  2  3  2  0  0  0
  2 19  1  0  0  0
  3  4  1  0  0  0
  3  7  1  0  0  0
  4  5  2  0  0  0
  4  6  1  0  0  0
  7  8  1  0  0  0
  8  9  1  0  0  0
  8 19  2  0  0  0
  9 10  2  0  0  0
  9 18  1  0  0  0
 10 11  1  0  0  0
 10 23  1  0  0  0
 11 12  2  0  0  0
 11 24  1  0  0  0
 12 13  1  0  0  0
 12 17  1  0  0  0
 13 14  1  0  0  0
 13 15  1  0  0  0
 13 16  1  0  0  0
 17 18  2  0  0  0
 17 25  1  0  0  0
 18 26  1  0  0  0
M  CHG  1   6  -1
M  END
> <s_m_source_file>
../4wf4_ligand.sdf

> <i_m_source_file_index>
1

> <s_epik_input>
W0NIM11jMWMoQyg9TylbT0hdKXNjKG4xKS1jMltjSF1bY0hdYyhDKEYpKEYpRilbY0hdW2NIXTI=

> <s_epik_cmdline>
J2VwaWtfYXBwJywgJy1pbWFlJywgJ2xpZ2FuZF9wcm8ubWFlJywgJy1vbWFlJywgJ2xpZ2FuZF9wcmVwLm1hZScsICctbXMnLCAnMScsICctcGgnLCAnNycsICctcGh0JywgJzAuNScsICctbnQn

> <r_lp_tautomer_probability>
1

> <r_epik_Ionization_Penalty>
  0.0012

> <r_epik_Ionization_Penalty_Charging>
  0.0006

> <r_epik_Ionization_Penalty_Neutral>
  0.0006

> <r_epik_State_Penalty>
 -0.0000

> <r_epik_Charging_Adjusted_Penalty>
0.000610174807023697

> <i_epik_Tot_Q>
-1

> <i_epik_Tot_abs_Q>
1

$$$$
