4wf6_ligand
                    3D
 Schrodinger Suite 2020-3.
 31 31  0  0  1  0            999 V2000
   12.4750   18.5270   27.4220 C   0  0  0  0  0  0
   11.7440   18.0850   26.1880 C   0  0  1  0  0  0
   13.5020   19.3530   27.2560 N   0  0  0  0  0  0
   12.1270   18.1310   28.5210 O   0  0  0  0  0  0
   14.1970   19.7980   28.3760 O   0  0  0  0  0  0
   12.3740   16.8040   25.6540 C   0  0  0  0  0  0
   10.3320   17.8860   26.4680 N   0  0  3  0  0  0
    9.3020   19.0840   26.2030 S   0  0  0  0  0  0
    8.0640   18.5490   25.7090 O   0  0  0  0  0  0
    9.8400   19.9960   25.2340 O   0  0  0  0  0  0
    9.0260   19.8600   27.5700 C   0  0  0  0  0  0
    8.1040   19.3740   28.4910 C   0  0  0  0  0  0
    7.8750   20.0750   29.6730 C   0  0  0  0  0  0
    8.5580   21.2510   29.9280 C   0  0  0  0  0  0
    9.4760   21.7420   29.0080 C   0  0  0  0  0  0
    9.7050   21.0480   27.8260 C   0  0  0  0  0  0
    8.3280   21.9190   31.0700 F   0  0  0  0  0  0
    6.8850   19.5600   30.6840 C   0  0  0  0  0  0
   11.7833   18.8843   25.4333 H   0  0  0  0  0  0
   13.8056   19.6855   26.2523 H   0  0  0  0  0  0
   15.0501   20.4823   28.2579 H   0  0  0  0  0  0
   13.4408   16.9777   25.4494 H   0  0  0  0  0  0
   11.8663   16.5054   24.7250 H   0  0  0  0  0  0
   12.2695   16.0045   26.4022 H   0  0  0  0  0  0
    9.9537   16.8793   26.6991 H   0  0  0  0  0  0
    7.5633   18.4493   28.2890 H   0  0  0  0  0  0
   10.0143   22.6675   29.2124 H   0  0  0  0  0  0
   10.4179   21.4347   27.0977 H   0  0  0  0  0  0
    6.4409   18.6226   30.3177 H   0  0  0  0  0  0
    6.0920   20.3073   30.8342 H   0  0  0  0  0  0
    7.3990   19.3738   31.6386 H   0  0  0  0  0  0
  1  2  1  0  0  0
  1  3  1  0  0  0
  1  4  2  0  0  0
  2  6  1  0  0  0
  2  7  1  0  0  0
  2 19  1  0  0  0
  3  5  1  0  0  0
  3 20  1  0  0  0
  5 21  1  0  0  0
  6 22  1  0  0  0
  6 23  1  0  0  0
  6 24  1  0  0  0
  7  8  1  0  0  0
  7 25  1  0  0  0
  8  9  2  0  0  0
  8 10  2  0  0  0
  8 11  1  0  0  0
 11 12  2  0  0  0
 11 16  1  0  0  0
 12 13  1  0  0  0
 12 26  1  0  0  0
 13 14  2  0  0  0
 13 18  1  0  0  0
 14 15  1  0  0  0
 14 17  1  0  0  0
 15 16  2  0  0  0
 15 27  1  0  0  0
 16 28  1  0  0  0
 18 29  1  0  0  0
 18 30  1  0  0  0
 18 31  1  0  0  0
M  END
> <s_m_source_file>
../4wf6_ligand.sdf

> <i_m_source_file_index>
1

> <s_epik_input>
W09IXVtOSF1DKD1PKVtDQEBIXShbQ0gzXSlbTkhdUyg9TykoPU8pYzFbY0hdYyhbQ0gzXSljKEYpW2NIXVtjSF0x

> <s_epik_cmdline>
J2VwaWtfYXBwJywgJy1pbWFlJywgJ2xpZ2FuZF9wcm8ubWFlJywgJy1vbWFlJywgJ2xpZ2FuZF9wcmVwLm1hZScsICctbXMnLCAnMScsICctcGgnLCAnNycsICctcGh0JywgJzAuNScsICctbnQn

> <r_epik_Ionization_Penalty>
  0.0161

> <r_epik_Ionization_Penalty_Charging>
  0.0000

> <r_epik_Ionization_Penalty_Neutral>
  0.0161

> <r_epik_State_Penalty>
  0.0123

> <r_epik_Charging_Adjusted_Penalty>
0.0122761872453761

> <i_epik_Tot_Q>
0

> <i_epik_Tot_abs_Q>
0

> <s_epik_Chemistry_Notes>
This compound has a N-S or N-O group and may undergo hydrolysis at high or low pH.

$$$$
