4whh_ligand
                    3D
 Schrodinger Suite 2020-3.
110112  0  0  1  0            999 V2000
  -21.6370   22.6730  -10.4210 C   0  0  0  0  0  0
  -22.8450   23.1030  -10.9010 C   0  0  0  0  0  0
  -22.9230   24.3560  -11.5020 C   0  0  0  0  0  0
  -24.1600   24.7370  -12.0450 C   0  0  0  0  0  0
  -24.4980   26.0610  -11.7150 O   0  0  0  0  0  0
  -21.7380   25.0820  -11.6190 C   0  0  0  0  0  0
  -20.5350   24.6570  -11.1010 C   0  0  0  0  0  0
  -20.4660   23.4130  -10.5190 C   0  0  0  0  0  0
  -19.2900   22.9810   -9.9810 C   0  0  0  0  0  0
  -18.4430   23.8190   -9.7050 O   0  0  0  0  0  0
  -19.1680   21.6490   -9.7330 N   0  0  0  0  0  0
  -18.0100   21.0300   -9.1610 C   0  0  0  0  0  0
  -16.8930   21.1170  -10.2240 C   0  0  0  0  0  0
  -17.1460   20.0660  -11.3230 C   0  0  0  0  0  0
  -18.1750   19.3770  -11.3400 O   0  0  0  0  0  0
  -15.0640   18.7930  -13.9890 C   0  0  0  0  0  0
  -16.2240   20.1000  -12.3040 N   0  0  0  0  0  0
  -13.9420   19.4980  -13.5960 O   0  0  0  0  0  0
  -16.4340   19.1660  -13.4160 C   0  0  1  0  0  0
  -17.3100   19.6870  -14.5510 C   0  0  0  0  0  0
  -16.8810   21.1340  -14.9940 C   0  0  0  0  0  0
  -18.7280   22.2330  -13.7960 C   0  0  0  0  0  0
  -19.7750   22.1370  -14.8560 C   0  0  0  0  0  0
  -21.0340   21.9180  -14.0520 C   0  0  0  0  0  0
  -22.3300   22.2150  -14.7030 C   0  0  0  0  0  0
  -23.0270   21.2810  -15.5020 C   0  0  0  0  0  0
  -24.5750   21.1900  -15.2340 C   0  0  0  0  0  0
  -24.7680   19.7030  -15.7210 C   0  0  0  0  0  0
  -25.9140   19.4530  -16.7280 C   0  0  0  0  0  0
  -27.1770   19.4120  -16.0580 C   0  0  0  0  0  0
  -28.1450   20.4200  -16.2300 C   0  0  0  0  0  0
  -29.3690   20.3650  -15.5280 C   0  0  0  0  0  0
  -29.6430   19.2910  -14.6860 C   0  0  0  0  0  0
  -28.7050   18.2800  -14.5330 C   0  0  0  0  0  0
  -27.4880   18.3450  -15.2380 C   0  0  0  0  0  0
  -17.5010   22.2610  -14.5920 N   0  0  0  0  0  0
  -15.8410   21.4560  -15.7620 C   0  0  0  0  0  0
  -16.8530   23.2900  -15.1820 C   0  0  0  0  0  0
  -15.7940   22.7810  -15.8770 N   0  3  0  0  0  0
  -14.9460   17.6120  -14.8640 N   0  0  0  0  0  0
  -13.6800   17.1510  -15.3670 C   0  0  2  0  0  0
  -13.2120   18.1620  -16.4600 C   0  0  0  0  0  0
  -13.8670   19.2110  -16.7940 O   0  0  0  0  0  0
  -13.8530   15.7240  -15.8660 C   0  0  0  0  0  0
  -14.7890   15.7850  -16.9280 O   0  0  0  0  0  0
  -12.0280   17.8740  -16.9490 N   0  0  0  0  0  0
  -11.3140   18.7820  -17.8180 C   0  0  1  0  0  0
   -9.9220   18.2300  -18.1240 C   0  0  1  0  0  0
   -9.1630   19.1650  -19.0850 C   0  0  0  0  0  0
   -9.2030   18.1100  -16.8790 O   0  0  0  0  0  0
   -8.8000   16.6760  -16.3000 P   0  0  0  0  0  0
   -7.9960   15.9820  -17.3250 O   0  0  0  0  0  0
   -8.0240   16.9640  -15.0140 O   0  5  0  0  0  0
  -10.1190   15.9760  -16.0690 O   0  5  0  0  0  0
  -12.0950   19.0320  -19.0880 C   0  0  0  0  0  0
  -12.5420   18.0890  -19.7480 O   0  0  0  0  0  0
  -12.3490   20.3800  -19.6420 N   0  0  0  0  0  0
  -21.5920   21.6978   -9.9361 H   0  0  0  0  0  0
  -23.7312   22.4743  -10.8139 H   0  0  0  0  0  0
  -24.1193   24.6573  -13.1414 H   0  0  0  0  0  0
  -24.9495   24.0758  -11.6584 H   0  0  0  0  0  0
  -25.4434   26.4933  -12.0747 H   0  0  0  0  0  0
  -21.7655   26.0348  -12.1477 H   0  0  0  0  0  0
  -19.6530   25.2954  -11.1514 H   0  0  0  0  0  0
  -20.0411   21.0374  -10.0045 H   0  0  0  0  0  0
  -17.7223   21.5665   -8.2448 H   0  0  0  0  0  0
  -18.2376   19.9821   -8.9160 H   0  0  0  0  0  0
  -16.8902   22.1219  -10.6715 H   0  0  0  0  0  0
  -15.9195   20.9242   -9.7496 H   0  0  0  0  0  0
  -15.3534   20.7723  -12.3074 H   0  0  0  0  0  0
  -16.9787   18.3289  -12.9549 H   0  0  0  0  0  0
  -17.2221   19.0172  -15.4191 H   0  0  0  0  0  0
  -18.3582   19.7214  -14.2191 H   0  0  0  0  0  0
  -18.8842   23.1496  -13.2083 H   0  0  0  0  0  0
  -18.7951   21.3571  -13.1339 H   0  0  0  0  0  0
  -19.7959   23.0712  -15.4363 H   0  0  0  0  0  0
  -19.5435   21.2950  -15.5249 H   0  0  0  0  0  0
  -21.0984   20.8616  -13.7520 H   0  0  0  0  0  0
  -21.0110   22.5533  -13.1543 H   0  0  0  0  0  0
  -23.0764   22.4678  -13.9355 H   0  0  0  0  0  0
  -22.2087   23.0650  -15.3906 H   0  0  0  0  0  0
  -22.9089   21.5459  -16.5631 H   0  0  0  0  0  0
  -22.6203   20.2739  -15.3280 H   0  0  0  0  0  0
  -24.7731   21.3640  -14.1661 H   0  0  0  0  0  0
  -25.0962   21.9517  -15.8325 H   0  0  0  0  0  0
  -23.8493   19.3578  -16.2178 H   0  0  0  0  0  0
  -24.9812   19.0584  -14.8555 H   0  0  0  0  0  0
  -25.9324   20.2638  -17.4712 H   0  0  0  0  0  0
  -25.7511   18.4920  -17.2378 H   0  0  0  0  0  0
  -27.9481   21.2488  -16.9100 H   0  0  0  0  0  0
  -30.1003   21.1647  -15.6456 H   0  0  0  0  0  0
  -30.5904   19.2444  -14.1491 H   0  0  0  0  0  0
  -28.9094   17.4393  -13.8700 H   0  0  0  0  0  0
  -26.7712   17.5305  -15.1337 H   0  0  0  0  0  0
  -15.1454   20.7523  -16.2193 H   0  0  0  0  0  0
  -17.1280   24.3426  -15.1146 H   0  0  0  0  0  0
  -15.8706   17.0786  -15.1298 H   0  0  0  0  0  0
  -12.9483   17.1171  -14.5464 H   0  0  0  0  0  0
  -12.8841   15.3377  -16.2153 H   0  0  0  0  0  0
  -14.2260   15.0917  -15.0468 H   0  0  0  0  0  0
  -15.0812   14.8659  -17.4570 H   0  0  0  0  0  0
  -11.5808   16.9063  -16.6778 H   0  0  0  0  0  0
  -11.2334   19.7292  -17.2646 H   0  0  0  0  0  0
   -9.9854   17.2217  -18.5592 H   0  0  0  0  0  0
   -9.7194   19.2494  -20.0302 H   0  0  0  0  0  0
   -8.1627   18.7528  -19.2838 H   0  0  0  0  0  0
   -9.0651   20.1603  -18.6271 H   0  0  0  0  0  0
  -11.9820   21.2709  -19.1113 H   0  0  0  0  0  0
  -12.9048   20.4914  -20.5847 H   0  0  0  0  0  0
  -14.9894   23.2544  -16.4588 H   0  0  0  0  0  0
  1  2  2  0  0  0
  1  8  1  0  0  0
  1 58  1  0  0  0
  2  3  1  0  0  0
  2 59  1  0  0  0
  3  4  1  0  0  0
  3  6  2  0  0  0
  4  5  1  0  0  0
  4 60  1  0  0  0
  4 61  1  0  0  0
  5 62  1  0  0  0
  6  7  1  0  0  0
  6 63  1  0  0  0
  7  8  2  0  0  0
  7 64  1  0  0  0
  8  9  1  0  0  0
  9 10  2  0  0  0
  9 11  1  0  0  0
 11 12  1  0  0  0
 11 65  1  0  0  0
 12 13  1  0  0  0
 12 66  1  0  0  0
 12 67  1  0  0  0
 13 14  1  0  0  0
 13 68  1  0  0  0
 13 69  1  0  0  0
 14 15  2  0  0  0
 14 17  1  0  0  0
 16 18  2  0  0  0
 16 19  1  0  0  0
 16 40  1  0  0  0
 17 19  1  0  0  0
 17 70  1  0  0  0
 19 20  1  0  0  0
 19 71  1  0  0  0
 20 21  1  0  0  0
 20 72  1  0  0  0
 20 73  1  0  0  0
 21 36  1  0  0  0
 21 37  2  0  0  0
 22 23  1  0  0  0
 22 36  1  0  0  0
 22 74  1  0  0  0
 22 75  1  0  0  0
 23 24  1  0  0  0
 23 76  1  0  0  0
 23 77  1  0  0  0
 24 25  1  0  0  0
 24 78  1  0  0  0
 24 79  1  0  0  0
 25 26  1  0  0  0
 25 80  1  0  0  0
 25 81  1  0  0  0
 26 27  1  0  0  0
 26 82  1  0  0  0
 26 83  1  0  0  0
 27 28  1  0  0  0
 27 84  1  0  0  0
 27 85  1  0  0  0
 28 29  1  0  0  0
 28 86  1  0  0  0
 28 87  1  0  0  0
 29 30  1  0  0  0
 29 88  1  0  0  0
 29 89  1  0  0  0
 30 31  2  0  0  0
 30 35  1  0  0  0
 31 32  1  0  0  0
 31 90  1  0  0  0
 32 33  2  0  0  0
 32 91  1  0  0  0
 33 34  1  0  0  0
 33 92  1  0  0  0
 34 35  2  0  0  0
 34 93  1  0  0  0
 35 94  1  0  0  0
 36 38  1  0  0  0
 37 39  1  0  0  0
 37 95  1  0  0  0
 38 39  2  0  0  0
 38 96  1  0  0  0
 39110  1  0  0  0
 40 41  1  0  0  0
 40 97  1  0  0  0
 41 42  1  0  0  0
 41 44  1  0  0  0
 41 98  1  0  0  0
 42 43  2  0  0  0
 42 46  1  0  0  0
 44 45  1  0  0  0
 44 99  1  0  0  0
 44100  1  0  0  0
 45101  1  0  0  0
 46 47  1  0  0  0
 46102  1  0  0  0
 47 48  1  0  0  0
 47 55  1  0  0  0
 47103  1  0  0  0
 48 49  1  0  0  0
 48 50  1  0  0  0
 48104  1  0  0  0
 49105  1  0  0  0
 49106  1  0  0  0
 49107  1  0  0  0
 50 51  1  0  0  0
 51 52  2  0  0  0
 51 53  1  0  0  0
 51 54  1  0  0  0
 55 56  2  0  0  0
 55 57  1  0  0  0
 57108  1  0  0  0
 57109  1  0  0  0
M  CHG  3  39   1  53  -1  54  -1
M  END
> <s_m_source_file>
../4whh_ligand.sdf

> <i_m_source_file_index>
1

> <s_epik_input>
W09IXVtDSDJdYzFbY0hdW2NIXWMoW2NIXVtjSF0xKUMoPU8pW05IXVtDSDJdW0NIMl1DKD1PKVtOSF1bQ0BIXShDKD1PKVtOSF1bQ0BASF0oW0NIMl1bT0hdKUMoPU8pW05IXVtDQEhdKEMoPU8pW05IMl0pW0NAQEhdKFtDSDNdKU9QKD1PKShbT0hdKVtPSF0pW0NIMl1jMm4oW2NIXW5bY0hdMilbQ0gyXVtDSDJdW0NIMl1bQ0gyXVtDSDJdW0NIMl1bQ0gyXVtDSDJdYzNbY0hdW2NIXVtjSF1bY0hdW2NIXTM=

> <s_epik_cmdline>
J2VwaWtfYXBwJywgJy1pbWFlJywgJ2xpZ2FuZF9wcm8ubWFlJywgJy1vbWFlJywgJ2xpZ2FuZF9wcmVwLm1hZScsICctbXMnLCAnMScsICctcGgnLCAnNycsICctcGh0JywgJzAuNScsICctbnQn

> <r_lp_tautomer_probability>
1

> <r_epik_Ionization_Penalty>
  0.3364

> <r_epik_Ionization_Penalty_Charging>
  0.0862

> <r_epik_Ionization_Penalty_Neutral>
  0.2502

> <r_epik_State_Penalty>
 -0.0000

> <r_epik_Charging_Adjusted_Penalty>
0.0861825483729033

> <i_epik_Tot_Q>
-1

> <i_epik_Tot_abs_Q>
3

$$$$
