4whl_ligand
                    3D
 Schrodinger Suite 2020-3.
109111  0  0  1  0            999 V2000
   12.0920   62.6110  150.4120 C   0  0  0  0  0  0
   12.5970   63.7320  150.5490 O   0  0  0  0  0  0
   11.2610   62.2610  149.2290 C   0  0  0  0  0  0
   10.9030   63.5570  148.5580 C   0  0  0  0  0  0
    9.5570   63.8880  149.1340 C   0  0  0  0  0  0
    9.5370   65.2170  149.6850 N   0  0  0  0  0  0
    8.5510   65.4100  150.5400 C   0  0  0  0  0  0
    7.7490   64.4960  150.7910 O   0  0  0  0  0  0
    8.4270   66.6750  151.1010 C   0  0  0  0  0  0
    9.3630   67.6560  150.8870 C   0  0  0  0  0  0
    9.1810   68.9000  151.4530 C   0  0  0  0  0  0
    8.0590   69.1840  152.2160 C   0  0  0  0  0  0
    7.1040   68.1960  152.4160 C   0  0  0  0  0  0
    7.2970   66.9450  151.8550 C   0  0  0  0  0  0
   13.7370   60.2060  152.5860 C   0  0  0  0  0  0
   12.3520   61.5390  151.1720 N   0  0  0  0  0  0
   12.9570   59.2760  152.3730 O   0  0  0  0  0  0
   13.3410   61.6210  152.2230 C   0  0  1  0  0  0
   12.9380   62.4460  153.3990 C   0  0  0  0  0  0
   11.6080   62.1270  154.0500 C   0  0  0  0  0  0
   10.4410   64.3240  153.4550 C   0  0  0  0  0  0
   11.0620   65.3900  154.3660 C   0  0  0  0  0  0
   11.0380   66.7740  153.6880 C   0  0  0  0  0  0
   11.7060   67.7740  154.6390 C   0  0  0  0  0  0
   11.4290   69.2300  154.2670 C   0  0  0  0  0  0
   11.7950   70.1130  155.4790 C   0  0  0  0  0  0
   13.3440   70.2080  155.5770 C   0  0  0  0  0  0
   13.7170   71.5020  156.3160 C   0  0  0  0  0  0
   13.5900   72.5980  155.4910 C   0  0  0  0  0  0
   12.6100   73.5450  155.7450 C   0  0  0  0  0  0
   12.4810   74.6700  154.9490 C   0  0  0  0  0  0
   13.3410   74.8740  153.8590 C   0  0  0  0  0  0
   14.3240   73.9350  153.6140 C   0  0  0  0  0  0
   14.4470   72.8130  154.4300 C   0  0  0  0  0  0
   10.5760   62.9690  154.0920 N   0  0  0  0  0  0
   11.3530   61.0590  154.7750 C   0  0  0  0  0  0
    9.6440   62.3780  154.8320 C   0  0  0  0  0  0
   10.1240   61.2120  155.2540 N   0  3  0  0  0  0
   15.0130   60.0770  153.0540 N   0  0  0  0  0  0
   15.5670   58.7550  153.3900 C   0  0  2  0  0  0
   14.6690   58.1430  154.4540 C   0  0  0  0  0  0
   13.6860   58.7320  154.9150 O   0  0  0  0  0  0
   17.0030   58.8540  153.8460 C   0  0  0  0  0  0
   16.8590   59.4880  155.1080 O   0  0  0  0  0  0
   14.9780   56.9070  154.7870 N   0  0  0  0  0  0
   14.1280   56.2030  155.7610 C   0  0  1  0  0  0
   14.2600   54.6720  155.5220 C   0  0  2  0  0  0
   13.6280   53.8500  156.6560 C   0  0  0  0  0  0
   15.6380   54.3080  155.3710 O   0  0  0  0  0  0
   16.2440   53.8110  153.9910 P   0  0  0  0  0  0
   15.3510   53.2210  152.9680 O   0  0  0  0  0  0
   17.1120   55.1480  153.4300 O   0  5  0  0  0  0
   17.2380   52.6930  154.5910 O   0  5  0  0  0  0
   14.4330   56.7750  157.1750 C   0  0  0  0  0  0
   15.5730   57.1290  157.5270 O   0  0  0  0  0  0
   13.3220   57.0660  157.8640 N   0  0  0  0  0  0
   11.8401   61.6156  148.5522 H   0  0  0  0  0  0
   10.3576   61.7280  149.5602 H   0  0  0  0  0  0
   11.6608   64.3167  148.8000 H   0  0  0  0  0  0
   10.8677   63.4084  147.4687 H   0  0  0  0  0  0
    8.7945   63.8252  148.3437 H   0  0  0  0  0  0
    9.3150   63.1735  149.9346 H   0  0  0  0  0  0
   10.2982   65.9503  149.3802 H   0  0  0  0  0  0
   10.2421   67.4534  150.2752 H   0  0  0  0  0  0
    9.9327   69.6739  151.2978 H   0  0  0  0  0  0
    7.9277   70.1732  152.6546 H   0  0  0  0  0  0
    6.2125   68.4030  153.0080 H   0  0  0  0  0  0
    6.5518   66.1644  152.0083 H   0  0  0  0  0  0
   11.8130   60.5964  150.9963 H   0  0  0  0  0  0
   14.1858   62.1910  151.8091 H   0  0  0  0  0  0
   13.6873   62.3376  154.1970 H   0  0  0  0  0  0
   12.8710   63.5025  153.1001 H   0  0  0  0  0  0
    9.3754   64.5491  153.3009 H   0  0  0  0  0  0
   10.9596   64.3233  152.4849 H   0  0  0  0  0  0
   10.4925   65.4464  155.3054 H   0  0  0  0  0  0
   12.1059   65.1217  154.5856 H   0  0  0  0  0  0
   11.5885   66.7259  152.7369 H   0  0  0  0  0  0
    9.9963   67.0694  153.4942 H   0  0  0  0  0  0
   11.3322   67.6139  155.6611 H   0  0  0  0  0  0
   12.7959   67.6263  154.6199 H   0  0  0  0  0  0
   12.0410   69.5088  153.3966 H   0  0  0  0  0  0
   10.3638   69.3490  154.0195 H   0  0  0  0  0  0
   11.3669   71.1172  155.3436 H   0  0  0  0  0  0
   11.3895   69.6623  156.3968 H   0  0  0  0  0  0
   13.7304   69.3392  156.1301 H   0  0  0  0  0  0
   13.7754   70.2199  154.5652 H   0  0  0  0  0  0
   13.0518   71.6344  157.1820 H   0  0  0  0  0  0
   14.7597   71.4399  156.6607 H   0  0  0  0  0  0
   11.9302   73.4014  156.5849 H   0  0  0  0  0  0
   11.7054   75.4031  155.1705 H   0  0  0  0  0  0
   13.2359   75.7518  153.2214 H   0  0  0  0  0  0
   15.0079   74.0730  152.7766 H   0  0  0  0  0  0
   15.2364   72.0894  154.2267 H   0  0  0  0  0  0
   12.0198   60.2144  154.9484 H   0  0  0  0  0  0
    8.6556   62.7800  155.0549 H   0  0  0  0  0  0
   15.6293   60.9795  153.1788 H   0  0  0  0  0  0
   15.5793   58.1345  152.4818 H   0  0  0  0  0  0
   17.4365   57.8453  153.9139 H   0  0  0  0  0  0
   17.5770   59.4519  153.1228 H   0  0  0  0  0  0
   17.7480   59.7100  155.7166 H   0  0  0  0  0  0
   15.8521   56.4001  154.3522 H   0  0  0  0  0  0
   13.0614   56.4143  155.5944 H   0  0  0  0  0  0
   13.7811   54.4029  154.5690 H   0  0  0  0  0  0
   12.5708   54.1325  156.7684 H   0  0  0  0  0  0
   14.1630   54.0502  157.5961 H   0  0  0  0  0  0
   13.6978   52.7789  156.4153 H   0  0  0  0  0  0
   12.3427   56.7232  157.4988 H   0  0  0  0  0  0
   13.3888   57.6478  158.7951 H   0  0  0  0  0  0
    9.6795   60.4306  155.8879 H   0  0  0  0  0  0
  1  2  2  0  0  0
  1  3  1  0  0  0
  1 16  1  0  0  0
  3  4  1  0  0  0
  3 57  1  0  0  0
  3 58  1  0  0  0
  4  5  1  0  0  0
  4 59  1  0  0  0
  4 60  1  0  0  0
  5  6  1  0  0  0
  5 61  1  0  0  0
  5 62  1  0  0  0
  6  7  1  0  0  0
  6 63  1  0  0  0
  7  8  2  0  0  0
  7  9  1  0  0  0
  9 10  2  0  0  0
  9 14  1  0  0  0
 10 11  1  0  0  0
 10 64  1  0  0  0
 11 12  2  0  0  0
 11 65  1  0  0  0
 12 13  1  0  0  0
 12 66  1  0  0  0
 13 14  2  0  0  0
 13 67  1  0  0  0
 14 68  1  0  0  0
 15 17  2  0  0  0
 15 18  1  0  0  0
 15 39  1  0  0  0
 16 18  1  0  0  0
 16 69  1  0  0  0
 18 19  1  0  0  0
 18 70  1  0  0  0
 19 20  1  0  0  0
 19 71  1  0  0  0
 19 72  1  0  0  0
 20 35  1  0  0  0
 20 36  2  0  0  0
 21 22  1  0  0  0
 21 35  1  0  0  0
 21 73  1  0  0  0
 21 74  1  0  0  0
 22 23  1  0  0  0
 22 75  1  0  0  0
 22 76  1  0  0  0
 23 24  1  0  0  0
 23 77  1  0  0  0
 23 78  1  0  0  0
 24 25  1  0  0  0
 24 79  1  0  0  0
 24 80  1  0  0  0
 25 26  1  0  0  0
 25 81  1  0  0  0
 25 82  1  0  0  0
 26 27  1  0  0  0
 26 83  1  0  0  0
 26 84  1  0  0  0
 27 28  1  0  0  0
 27 85  1  0  0  0
 27 86  1  0  0  0
 28 29  1  0  0  0
 28 87  1  0  0  0
 28 88  1  0  0  0
 29 30  2  0  0  0
 29 34  1  0  0  0
 30 31  1  0  0  0
 30 89  1  0  0  0
 31 32  2  0  0  0
 31 90  1  0  0  0
 32 33  1  0  0  0
 32 91  1  0  0  0
 33 34  2  0  0  0
 33 92  1  0  0  0
 34 93  1  0  0  0
 35 37  1  0  0  0
 36 38  1  0  0  0
 36 94  1  0  0  0
 37 38  2  0  0  0
 37 95  1  0  0  0
 38109  1  0  0  0
 39 40  1  0  0  0
 39 96  1  0  0  0
 40 41  1  0  0  0
 40 43  1  0  0  0
 40 97  1  0  0  0
 41 42  2  0  0  0
 41 45  1  0  0  0
 43 44  1  0  0  0
 43 98  1  0  0  0
 43 99  1  0  0  0
 44100  1  0  0  0
 45 46  1  0  0  0
 45101  1  0  0  0
 46 47  1  0  0  0
 46 54  1  0  0  0
 46102  1  0  0  0
 47 48  1  0  0  0
 47 49  1  0  0  0
 47103  1  0  0  0
 48104  1  0  0  0
 48105  1  0  0  0
 48106  1  0  0  0
 49 50  1  0  0  0
 50 51  2  0  0  0
 50 52  1  0  0  0
 50 53  1  0  0  0
 54 55  2  0  0  0
 54 56  1  0  0  0
 56107  1  0  0  0
 56108  1  0  0  0
M  CHG  3  38   1  52  -1  53  -1
M  END
> <s_m_source_file>
../4whl_ligand.sdf

> <i_m_source_file_index>
1

> <s_epik_input>
W2NIXTFbY0hdW2NIXVtjSF1bY0hdYzFDKD1PKVtOSF1bQ0gyXVtDSDJdW0NIMl1DKD1PKVtOSF1bQ0BIXShDKD1PKVtOSF1bQ0BASF0oW0NIMl1bT0hdKUMoPU8pW05IXVtDQEhdKEMoPU8pW05IMl0pW0NASF0oW0NIM10pT1AoPU8pKFtPSF0pW09IXSlbQ0gyXWMybihbY0hdbltjSF0yKVtDSDJdW0NIMl1bQ0gyXVtDSDJdW0NIMl1bQ0gyXVtDSDJdW0NIMl1jM1tjSF1bY0hdW2NIXVtjSF1bY0hdMw==

> <s_epik_cmdline>
J2VwaWtfYXBwJywgJy1pbWFlJywgJ2xpZ2FuZF9wcm8ubWFlJywgJy1vbWFlJywgJ2xpZ2FuZF9wcmVwLm1hZScsICctbXMnLCAnMScsICctcGgnLCAnNycsICctcGh0JywgJzAuNScsICctbnQn

> <r_lp_tautomer_probability>
1

> <r_epik_Ionization_Penalty>
  0.3341

> <r_epik_Ionization_Penalty_Charging>
  0.0862

> <r_epik_Ionization_Penalty_Neutral>
  0.2480

> <r_epik_State_Penalty>
 -0.0000

> <r_epik_Charging_Adjusted_Penalty>
0.0861825483729033

> <i_epik_Tot_Q>
-1

> <i_epik_Tot_abs_Q>
3

$$$$
