4whq_ligand
                    3D
 Schrodinger Suite 2020-3.
 14 14  0  0  1  0            999 V2000
  -16.8420  -51.4300  -33.6020 C   0  0  0  0  0  0
  -18.2090  -51.2670  -33.7490 C   0  0  0  0  0  0
  -18.7490  -50.6320  -34.8500 C   0  0  0  0  0  0
  -17.8800  -50.1390  -35.8100 C   0  0  0  0  0  0
  -16.5030  -50.3060  -35.6850 C   0  0  0  0  0  0
  -15.9780  -50.9450  -34.5700 C   0  0  0  0  0  0
  -16.3860  -52.0550  -32.4880 O   0  0  0  0  0  0
  -18.9960  -51.7610  -32.7940 O   0  0  0  0  0  0
  -18.3730  -49.5210  -36.8920 F   0  0  0  0  0  0
  -19.8278  -50.5218  -34.9606 H   0  0  0  0  0  0
  -15.8367  -49.9345  -36.4636 H   0  0  0  0  0  0
  -14.9003  -51.0635  -34.4577 H   0  0  0  0  0  0
  -17.0974  -52.4293  -31.7372 H   0  0  0  0  0  0
  -18.5531  -52.2646  -31.9221 H   0  0  0  0  0  0
  1  2  2  0  0  0
  1  6  1  0  0  0
  1  7  1  0  0  0
  2  3  1  0  0  0
  2  8  1  0  0  0
  3  4  2  0  0  0
  3 10  1  0  0  0
  4  5  1  0  0  0
  4  9  1  0  0  0
  5  6  2  0  0  0
  5 11  1  0  0  0
  6 12  1  0  0  0
  7 13  1  0  0  0
  8 14  1  0  0  0
M  END
> <s_m_source_file>
../4whq_ligand.sdf

> <i_m_source_file_index>
1

> <s_epik_input>
W09IXWMxYyhbT0hdKVtjSF1jKEYpW2NIXVtjSF0x

> <s_epik_cmdline>
J2VwaWtfYXBwJywgJy1pbWFlJywgJ2xpZ2FuZF9wcm8ubWFlJywgJy1vbWFlJywgJ2xpZ2FuZF9wcmVwLm1hZScsICctbXMnLCAnMScsICctcGgnLCAnNycsICctcGh0JywgJzAuNScsICctbnQn

> <r_lp_tautomer_probability>
1

> <r_epik_Ionization_Penalty>
  0.0067

> <r_epik_Ionization_Penalty_Charging>
  0.0000

> <r_epik_Ionization_Penalty_Neutral>
  0.0067

> <r_epik_State_Penalty>
 -0.0000

> <r_epik_Charging_Adjusted_Penalty>
0

> <i_epik_Tot_Q>
0

> <i_epik_Tot_abs_Q>
0

$$$$
