4wht_ligand
                    3D
 Schrodinger Suite 2020-3.
188190  0  0  1  0            999 V2000
   33.7590   44.1770  -47.2840 N   0  3  0  0  0  0
   32.3270   44.2530  -47.0320 C   0  0  2  0  0  0
   31.5590   44.8240  -48.2360 C   0  0  0  0  0  0
   30.4790   44.3210  -48.5480 O   0  0  0  0  0  0
   32.0300   45.0380  -45.7370 C   0  0  0  0  0  0
   31.4290   44.1990  -44.5910 C   0  0  0  0  0  0
   31.0860   45.0000  -43.3310 C   0  0  0  0  0  0
   31.3930   46.1940  -43.1920 O   0  0  0  0  0  0
   30.4340   44.3570  -42.3690 N   0  0  0  0  0  0
   32.0890   45.8790  -48.8900 N   0  0  0  0  0  0
   31.4510   46.4720  -50.0580 C   0  0  2  0  0  0
   31.6370   45.6030  -51.3020 C   0  0  0  0  0  0
   30.7250   45.4860  -52.1200 O   0  0  0  0  0  0
   32.0270   47.8670  -50.3390 C   0  0  0  0  0  0
   31.6930   49.0160  -49.3750 C   0  0  0  0  0  0
   32.3670   50.2800  -49.8310 C   0  0  0  0  0  0
   30.2040   49.2550  -49.2480 C   0  0  0  0  0  0
   32.8560   45.0810  -51.4770 N   0  0  0  0  0  0
   33.2980   44.2710  -52.6060 C   0  0  2  0  0  0
   34.2040   43.1810  -52.0440 C   0  0  0  0  0  0
   34.9520   43.4290  -51.0920 O   0  0  0  0  0  0
   34.0790   45.1410  -53.6790 C   0  0  2  0  0  0
   33.1740   46.2290  -54.3220 C   0  0  0  0  0  0
   34.7240   44.2750  -54.7930 C   0  0  0  0  0  0
   33.9580   47.4630  -54.8970 C   0  0  0  0  0  0
   34.1650   41.9970  -52.6710 N   0  0  0  0  0  0
   35.0390   40.8660  -52.3530 C   0  0  2  0  0  0
   36.3690   41.1180  -53.1170 C   0  0  0  0  0  0
   36.6150   40.5940  -54.2150 O   0  0  0  0  0  0
   34.3690   39.5660  -52.7900 C   0  0  0  0  0  0
   35.0410   38.3110  -52.3880 C   0  0  0  0  0  0
   35.6480   38.2090  -51.3430 O   0  0  0  0  0  0
   34.8720   37.3010  -53.1830 N   0  0  0  0  0  0
   37.1740   42.0010  -52.5390 N   0  0  0  0  0  0
   38.4520   42.4570  -53.0890 C   0  0  2  0  0  0
   39.4390   41.2890  -53.2350 C   0  0  0  0  0  0
   40.3010   41.3100  -54.1300 O   0  0  0  0  0  0
   38.9890   43.6110  -52.2440 C   0  0  2  0  0  0
   39.2060   43.1230  -50.9100 O   0  0  0  0  0  0
   37.9920   44.7800  -52.1820 C   0  0  0  0  0  0
   39.2580   40.2440  -52.4020 N   0  0  0  0  0  0
   40.0900   39.0610  -52.4290 C   0  0  2  0  0  0
   39.4590   37.8960  -53.2070 C   0  0  0  0  0  0
   39.9830   36.7850  -53.1860 O   0  0  0  0  0  0
   40.4900   38.6580  -50.9940 C   0  0  0  0  0  0
   41.7300   37.7890  -50.9170 C   0  0  0  0  0  0
   42.7700   38.1020  -51.5050 O   0  0  0  0  0  0
   41.6400   36.6660  -50.2000 N   0  0  0  0  0  0
   38.3650   38.1580  -53.9040 N   0  0  0  0  0  0
   37.6730   37.1450  -54.6930 C   0  0  0  0  0  0
   38.5630   36.3570  -55.6290 C   0  0  0  0  0  0
   39.4570   36.9210  -56.2660 O   0  0  0  0  0  0
   38.3210   35.0430  -55.7140 N   0  0  0  0  0  0
   39.0960   34.1480  -56.5670 C   0  0  2  0  0  0
   38.8680   34.3260  -58.0700 C   0  0  0  0  0  0
   39.5110   33.6450  -58.8650 O   0  0  0  0  0  0
   38.9030   32.7120  -56.1190 C   0  0  0  0  0  0
   39.5990   32.5470  -54.8960 O   0  0  0  0  0  0
   37.9350   35.2150  -58.4620 N   0  0  0  0  0  0
   37.6200   35.5210  -59.8580 C   0  0  2  0  0  0
   38.6350   36.4850  -60.4970 C   0  0  0  0  0  0
   38.6580   36.6150  -61.7160 O   0  0  0  0  0  0
   36.1640   36.0180  -60.0110 C   0  0  0  0  0  0
   35.6820   36.9170  -58.9070 C   0  0  0  0  0  0
   35.1150   36.5350  -57.7300 C   0  0  0  0  0  0
   35.7960   38.3470  -58.8490 C   0  0  0  0  0  0
   34.7800   37.6470  -56.9810 N   0  0  0  0  0  0
   35.2040   38.7690  -57.6330 C   0  0  0  0  0  0
   36.3030   39.3220  -59.7260 C   0  0  0  0  0  0
   35.1440   40.1150  -57.2510 C   0  0  0  0  0  0
   36.1810   40.6640  -59.3690 C   0  0  0  0  0  0
   35.6150   41.0470  -58.1430 C   0  0  0  0  0  0
   39.5020   37.1190  -59.6750 N   0  0  0  0  0  0
   40.5580   38.0290  -60.1350 C   0  0  2  0  0  0
   41.6970   37.3120  -60.8540 C   0  0  0  0  0  0
   42.0750   36.1870  -60.4860 O   0  0  0  0  0  0
   41.1600   38.8190  -58.9770 C   0  0  0  0  0  0
   40.2370   39.8380  -58.3850 C   0  0  0  0  0  0
   39.5220   39.5780  -57.2320 N   0  0  0  0  0  0
   39.9890   41.1090  -58.7750 C   0  0  0  0  0  0
   38.8830   40.7000  -56.9550 C   0  0  0  0  0  0
   39.1430   41.6470  -57.8540 N   0  0  0  0  0  0
   42.2800   38.0140  -61.8450 N   0  0  0  0  0  0
   43.4290   37.5750  -62.6520 C   0  0  2  0  0  0
   44.6270   38.4610  -62.2700 C   0  0  0  0  0  0
   44.4640   39.4400  -61.5250 O   0  0  0  0  0  0
   43.1750   37.6060  -64.1920 C   0  0  0  0  0  0
   43.3340   36.2350  -64.8370 C   0  0  0  0  0  0
   41.8480   38.2550  -64.5490 C   0  0  0  0  0  0
   45.8210   38.1350  -62.7930 N   0  0  0  0  0  0
   47.0560   38.8790  -62.4990 C   0  0  2  0  0  0
   47.9830   39.0940  -63.7060 C   0  0  0  0  0  0
   47.7830   38.5230  -64.7790 O   0  0  0  0  0  0
   47.8140   38.2140  -61.3540 C   0  0  0  0  0  0
   47.8900   36.7110  -61.4710 C   0  0  0  0  0  0
   46.8700   36.0050  -61.4170 O   0  0  0  0  0  0
   49.1050   36.1930  -61.6150 N   0  0  0  0  0  0
   48.9687   39.8710  -63.5955 O   0  0  0  0  0  0
   33.9387   43.6131  -48.2112 H   0  0  0  0  0  0
   34.2527   43.6674  -46.4434 H   0  0  0  0  0  0
   34.1675   45.1931  -47.3878 H   0  0  0  0  0  0
   32.0260   43.2032  -46.9000 H   0  0  0  0  0  0
   32.9626   45.4761  -45.3518 H   0  0  0  0  0  0
   31.3092   45.8407  -45.9519 H   0  0  0  0  0  0
   30.4969   43.7255  -44.9331 H   0  0  0  0  0  0
   32.1466   43.4213  -44.2906 H   0  0  0  0  0  0
   30.1652   43.2984  -42.4994 H   0  0  0  0  0  0
   30.1628   44.8831  -41.4418 H   0  0  0  0  0  0
   33.0364   46.2910  -48.5122 H   0  0  0  0  0  0
   30.3863   46.5230  -49.7865 H   0  0  0  0  0  0
   33.1258   47.8166  -50.3396 H   0  0  0  0  0  0
   31.6755   48.2180  -51.3205 H   0  0  0  0  0  0
   32.0645   48.7426  -48.3764 H   0  0  0  0  0  0
   33.4492   50.1058  -49.9231 H   0  0  0  0  0  0
   32.1853   51.0781  -49.0961 H   0  0  0  0  0  0
   31.9596   50.5810  -50.8074 H   0  0  0  0  0  0
   29.7113   48.3298  -48.9143 H   0  0  0  0  0  0
   29.7964   49.5559  -50.2244 H   0  0  0  0  0  0
   30.0221   50.0529  -48.5130 H   0  0  0  0  0  0
   33.5554   45.3154  -50.6610 H   0  0  0  0  0  0
   32.3910   43.8412  -53.0562 H   0  0  0  0  0  0
   34.8946   45.6487  -53.1431 H   0  0  0  0  0  0
   32.6085   45.7891  -55.1567 H   0  0  0  0  0  0
   32.4730   46.6156  -53.5676 H   0  0  0  0  0  0
   35.3638   43.5060  -54.3354 H   0  0  0  0  0  0
   35.3321   44.9151  -55.4491 H   0  0  0  0  0  0
   33.9334   43.7899  -55.3843 H   0  0  0  0  0  0
   33.2457   48.1802  -55.3307 H   0  0  0  0  0  0
   34.6563   47.1231  -55.6760 H   0  0  0  0  0  0
   34.5209   47.9496  -54.0869 H   0  0  0  0  0  0
   33.4155   41.9050  -53.4709 H   0  0  0  0  0  0
   35.1922   40.8066  -51.2653 H   0  0  0  0  0  0
   33.3559   39.5146  -52.3645 H   0  0  0  0  0  0
   34.3075   39.5362  -53.8879 H   0  0  0  0  0  0
   34.3161   37.4284  -54.1236 H   0  0  0  0  0  0
   35.2845   36.3166  -52.9170 H   0  0  0  0  0  0
   36.8175   42.3955  -51.5760 H   0  0  0  0  0  0
   38.2526   42.8380  -54.1015 H   0  0  0  0  0  0
   39.9523   43.9570  -52.6470 H   0  0  0  0  0  0
   39.8923   42.2809  -50.7373 H   0  0  0  0  0  0
   37.8151   45.1652  -53.1970 H   0  0  0  0  0  0
   38.4056   45.5816  -51.5524 H   0  0  0  0  0  0
   37.0421   44.4293  -51.7522 H   0  0  0  0  0  0
   38.4330   40.3198  -51.6784 H   0  0  0  0  0  0
   40.9749   39.3815  -52.9984 H   0  0  0  0  0  0
   40.6920   39.5628  -50.4019 H   0  0  0  0  0  0
   39.6691   38.0918  -50.5298 H   0  0  0  0  0  0
   40.6997   36.4145  -49.6875 H   0  0  0  0  0  0
   42.5061   35.9924  -50.1219 H   0  0  0  0  0  0
   37.9802   39.1880  -53.8722 H   0  0  0  0  0  0
   37.1966   36.4177  -54.0192 H   0  0  0  0  0  0
   36.9042   37.6267  -55.3151 H   0  0  0  0  0  0
   37.4966   34.6448  -55.1043 H   0  0  0  0  0  0
   40.1351   34.4634  -56.3915 H   0  0  0  0  0  0
   37.8303   32.5125  -55.9794 H   0  0  0  0  0  0
   39.3059   32.0319  -56.8840 H   0  0  0  0  0  0
   39.5933   31.5718  -54.3872 H   0  0  0  0  0  0
   37.3942   35.7255  -57.6515 H   0  0  0  0  0  0
   37.7258   34.5508  -60.3654 H   0  0  0  0  0  0
   36.0675   36.5879  -60.9469 H   0  0  0  0  0  0
   35.4826   35.1548  -60.0354 H   0  0  0  0  0  0
   34.9493   35.5024  -57.4229 H   0  0  0  0  0  0
   36.7803   39.0353  -60.6631 H   0  0  0  0  0  0
   34.7392   40.4114  -56.2833 H   0  0  0  0  0  0
   36.5329   41.4327  -60.0570 H   0  0  0  0  0  0
   35.5479   42.1060  -57.8937 H   0  0  0  0  0  0
   39.3794   36.9171  -58.6007 H   0  0  0  0  0  0
   40.0222   38.6836  -60.8381 H   0  0  0  0  0  0
   41.4399   38.1281  -58.1681 H   0  0  0  0  0  0
   42.0540   39.3568  -59.3256 H   0  0  0  0  0  0
   40.3278   41.7130  -59.6296 H   0  0  0  0  0  0
   38.2244   40.8341  -56.0969 H   0  0  0  0  0  0
   41.8211   38.9964  -62.0302 H   0  0  0  0  0  0
   43.5883   36.5213  -62.3793 H   0  0  0  0  0  0
   43.9480   38.2428  -64.6470 H   0  0  0  0  0  0
   44.3056   35.8058  -64.5512 H   0  0  0  0  0  0
   43.2857   36.3368  -65.9312 H   0  0  0  0  0  0
   42.5254   35.5726  -64.4943 H   0  0  0  0  0  0
   41.7785   39.2391  -64.0624 H   0  0  0  0  0  0
   41.0224   37.6157  -64.2030 H   0  0  0  0  0  0
   41.7827   38.3799  -65.6399 H   0  0  0  0  0  0
   45.8491   37.2678  -63.4691 H   0  0  0  0  0  0
   46.6823   39.8705  -62.2034 H   0  0  0  0  0  0
   48.8461   38.5937  -61.3282 H   0  0  0  0  0  0
   47.3147   38.4441  -60.4012 H   0  0  0  0  0  0
   49.9831   36.8541  -61.6584 H   0  0  0  0  0  0
   49.2328   35.1031  -61.6909 H   0  0  0  0  0  0
   49.6397   40.0334  -64.4519 H   0  0  0  0  0  0
  1  2  1  0  0  0
  1 99  1  0  0  0
  1100  1  0  0  0
  1101  1  0  0  0
  2  3  1  0  0  0
  2  5  1  0  0  0
  2102  1  0  0  0
  3  4  2  0  0  0
  3 10  1  0  0  0
  5  6  1  0  0  0
  5103  1  0  0  0
  5104  1  0  0  0
  6  7  1  0  0  0
  6105  1  0  0  0
  6106  1  0  0  0
  7  8  2  0  0  0
  7  9  1  0  0  0
  9107  1  0  0  0
  9108  1  0  0  0
 10 11  1  0  0  0
 10109  1  0  0  0
 11 12  1  0  0  0
 11 14  1  0  0  0
 11110  1  0  0  0
 12 13  2  0  0  0
 12 18  1  0  0  0
 14 15  1  0  0  0
 14111  1  0  0  0
 14112  1  0  0  0
 15 16  1  0  0  0
 15 17  1  0  0  0
 15113  1  0  0  0
 16114  1  0  0  0
 16115  1  0  0  0
 16116  1  0  0  0
 17117  1  0  0  0
 17118  1  0  0  0
 17119  1  0  0  0
 18 19  1  0  0  0
 18120  1  0  0  0
 19 20  1  0  0  0
 19 22  1  0  0  0
 19121  1  0  0  0
 20 21  2  0  0  0
 20 26  1  0  0  0
 22 23  1  0  0  0
 22 24  1  0  0  0
 22122  1  0  0  0
 23 25  1  0  0  0
 23123  1  0  0  0
 23124  1  0  0  0
 24125  1  0  0  0
 24126  1  0  0  0
 24127  1  0  0  0
 25128  1  0  0  0
 25129  1  0  0  0
 25130  1  0  0  0
 26 27  1  0  0  0
 26131  1  0  0  0
 27 28  1  0  0  0
 27 30  1  0  0  0
 27132  1  0  0  0
 28 29  2  0  0  0
 28 34  1  0  0  0
 30 31  1  0  0  0
 30133  1  0  0  0
 30134  1  0  0  0
 31 32  2  0  0  0
 31 33  1  0  0  0
 33135  1  0  0  0
 33136  1  0  0  0
 34 35  1  0  0  0
 34137  1  0  0  0
 35 36  1  0  0  0
 35 38  1  0  0  0
 35138  1  0  0  0
 36 37  2  0  0  0
 36 41  1  0  0  0
 38 39  1  0  0  0
 38 40  1  0  0  0
 38139  1  0  0  0
 39140  1  0  0  0
 40141  1  0  0  0
 40142  1  0  0  0
 40143  1  0  0  0
 41 42  1  0  0  0
 41144  1  0  0  0
 42 43  1  0  0  0
 42 45  1  0  0  0
 42145  1  0  0  0
 43 44  2  0  0  0
 43 49  1  0  0  0
 45 46  1  0  0  0
 45146  1  0  0  0
 45147  1  0  0  0
 46 47  2  0  0  0
 46 48  1  0  0  0
 48148  1  0  0  0
 48149  1  0  0  0
 49 50  1  0  0  0
 49150  1  0  0  0
 50 51  1  0  0  0
 50151  1  0  0  0
 50152  1  0  0  0
 51 52  2  0  0  0
 51 53  1  0  0  0
 53 54  1  0  0  0
 53153  1  0  0  0
 54 55  1  0  0  0
 54 57  1  0  0  0
 54154  1  0  0  0
 55 56  2  0  0  0
 55 59  1  0  0  0
 57 58  1  0  0  0
 57155  1  0  0  0
 57156  1  0  0  0
 58157  1  0  0  0
 59 60  1  0  0  0
 59158  1  0  0  0
 60 61  1  0  0  0
 60 63  1  0  0  0
 60159  1  0  0  0
 61 62  2  0  0  0
 61 73  1  0  0  0
 63 64  1  0  0  0
 63160  1  0  0  0
 63161  1  0  0  0
 64 65  2  0  0  0
 64 66  1  0  0  0
 65 67  1  0  0  0
 65162  1  0  0  0
 66 68  2  0  0  0
 66 69  1  0  0  0
 67 68  1  0  0  0
 68 70  1  0  0  0
 69 71  2  0  0  0
 69163  1  0  0  0
 70 72  2  0  0  0
 70164  1  0  0  0
 71 72  1  0  0  0
 71165  1  0  0  0
 72166  1  0  0  0
 73 74  1  0  0  0
 73167  1  0  0  0
 74 75  1  0  0  0
 74 77  1  0  0  0
 74168  1  0  0  0
 75 76  2  0  0  0
 75 83  1  0  0  0
 77 78  1  0  0  0
 77169  1  0  0  0
 77170  1  0  0  0
 78 79  2  0  0  0
 78 80  1  0  0  0
 79 81  1  0  0  0
 80 82  2  0  0  0
 80171  1  0  0  0
 81 82  1  0  0  0
 81172  1  0  0  0
 83 84  1  0  0  0
 83173  1  0  0  0
 84 85  1  0  0  0
 84 87  1  0  0  0
 84174  1  0  0  0
 85 86  2  0  0  0
 85 90  1  0  0  0
 87 88  1  0  0  0
 87 89  1  0  0  0
 87175  1  0  0  0
 88176  1  0  0  0
 88177  1  0  0  0
 88178  1  0  0  0
 89179  1  0  0  0
 89180  1  0  0  0
 89181  1  0  0  0
 90 91  1  0  0  0
 90182  1  0  0  0
 91 92  1  0  0  0
 91 94  1  0  0  0
 91183  1  0  0  0
 92 93  2  0  0  0
 92 98  1  0  0  0
 94 95  1  0  0  0
 94184  1  0  0  0
 94185  1  0  0  0
 95 96  2  0  0  0
 95 97  1  0  0  0
 97186  1  0  0  0
 97187  1  0  0  0
 98188  1  0  0  0
M  CHG  1   1   1
M  END
> <s_m_source_file>
../4wht_ligand.sdf

> <i_m_source_file_index>
1

> <s_epik_input>
Tz1DKFtOSDJdKVtDSDJdW0NIMl1bQ0BIXShbTkgzK10pQyg9TylbTkhdW0NAQEhdKFtDSDJdW0NIXShbQ0gzXSlbQ0gzXSlDKD1PKVtOSF1bQ0BASF0oW0NAQEhdKFtDSDNdKVtDSDJdW0NIM10pQyg9TylbTkhdW0NAQEhdKFtDSDJdQyg9TylbTkgyXSlDKD1PKVtOSF1bQ0BASF0oW0NASF0oW09IXSlbQ0gzXSlDKD1PKVtOSF1bQ0BASF0oW0NIMl1DKD1PKVtOSDJdKUMoPU8pW05IXVtDSDJdQyg9TylbTkhdW0NAQEhdKFtDSDJdW09IXSlDKD1PKVtOSF1bQ0BASF0oW0NIMl1jMVtjSF1bbkhdYyhjMTIpW2NIXVtjSF1bY0hdW2NIXTIpQyg9TylbTkhdW0NAQEhdKFtDSDJdQzM9TltDSDJdTj1bQ0hdMylDKD1PKVtOSF1bQ0BASF0oW0NIXShbQ0gzXSlbQ0gzXSlDKD1PKVtOSF1bQ0BIXShDKD1PKVtPSF0pW0NIMl1DKD1PKVtOSDJd

> <s_epik_cmdline>
J2VwaWtfYXBwJywgJy1pbWFlJywgJ2xpZ2FuZF9wcm8ubWFlJywgJy1vbWFlJywgJ2xpZ2FuZF9wcmVwLm1hZScsICctbXMnLCAnMScsICctcGgnLCAnNycsICctcGh0JywgJzAuNScsICctbnQn

> <s_epik_pKa_notes>
Molecule size exceeds maximum supported for generating protonation states

> <s_epik_Chemistry_Notes>
This compound has an imine and may undergo hydrolysis.

$$$$
