4why_ligand
                    3D
 Schrodinger Suite 2020-3.
174176  0  0  1  0            999 V2000
   -1.1840  -63.6950   -6.1770 N   0  3  0  0  0  0
    0.2440  -63.8840   -5.9140 C   0  0  2  0  0  0
    0.9810  -62.5470   -5.7060 C   0  0  0  0  0  0
    2.0200  -62.5340   -5.0400 O   0  0  0  0  0  0
    0.9040  -64.6500   -7.0560 C   0  0  0  0  0  0
    0.6140  -66.1290   -7.0890 C   0  0  0  0  0  0
    1.6870  -66.8320   -7.8770 C   0  0  0  0  0  0
    2.5960  -67.4320   -7.2960 O   0  0  0  0  0  0
    1.6450  -66.7230   -9.2190 N   0  0  0  0  0  0
    0.4690  -61.4480   -6.3130 N   0  0  0  0  0  0
    1.0030  -60.1000   -6.1950 C   0  0  2  0  0  0
    0.7970  -59.6570   -4.7480 C   0  0  0  0  0  0
    1.7700  -59.4260   -4.0140 O   0  0  0  0  0  0
    0.2750  -59.1470   -7.1570 C   0  0  0  0  0  0
    0.6530  -59.2450   -8.6320 C   0  0  0  0  0  0
   -0.4550  -58.7020   -9.5280 C   0  0  0  0  0  0
    1.9480  -58.5180   -8.9190 C   0  0  0  0  0  0
   -0.4750  -59.6050   -4.3260 N   0  0  0  0  0  0
   -0.8510  -59.2400   -2.9670 C   0  0  2  0  0  0
   -1.7280  -60.3520   -2.4360 C   0  0  0  0  0  0
   -2.5340  -60.9220   -3.1770 O   0  0  0  0  0  0
   -1.5680  -57.8470   -2.8840 C   0  0  2  0  0  0
   -0.7000  -56.7030   -3.4510 C   0  0  0  0  0  0
   -2.0270  -57.5160   -1.4420 C   0  0  0  0  0  0
   -1.4990  -55.5180   -4.0200 C   0  0  0  0  0  0
   -1.5840  -60.6300   -1.1280 N   0  0  0  0  0  0
   -2.3720  -61.5930   -0.3710 C   0  0  2  0  0  0
   -3.6820  -60.8610   -0.0840 C   0  0  0  0  0  0
   -3.9450  -60.4420    1.0450 O   0  0  0  0  0  0
   -1.6080  -61.9670    0.9160 C   0  0  0  0  0  0
   -2.2090  -63.0550    1.7730 C   0  0  0  0  0  0
   -2.9390  -63.9270    1.3190 O   0  0  0  0  0  0
   -1.8270  -63.0910    3.0230 N   0  0  0  0  0  0
   -4.4830  -60.6640   -1.1520 N   0  0  0  0  0  0
   -5.7730  -59.9510   -1.1340 C   0  0  2  0  0  0
   -6.7440  -60.5830   -0.1520 C   0  0  0  0  0  0
   -7.7070  -59.9400    0.2650 O   0  0  0  0  0  0
   -6.4020  -59.8490   -2.5540 C   0  0  2  0  0  0
   -6.8960  -61.1170   -2.9480 O   0  0  0  0  0  0
   -5.4440  -59.3410   -3.6100 C   0  0  0  0  0  0
   -6.4890  -61.8450    0.2040 N   0  0  0  0  0  0
   -7.3130  -62.6190    1.1160 C   0  0  2  0  0  0
   -6.6960  -62.7760    2.5170 C   0  0  0  0  0  0
   -7.1160  -63.6460    3.2810 O   0  0  0  0  0  0
   -7.6210  -63.9840    0.4870 C   0  0  0  0  0  0
   -9.0080  -64.4540    0.7920 C   0  0  0  0  0  0
   -9.2050  -65.3770    1.5900 O   0  0  0  0  0  0
   -9.9970  -63.7750    0.2130 N   0  0  0  0  0  0
   -5.7300  -61.9200    2.8360 N   0  0  0  0  0  0
   -5.0150  -61.9190    4.1040 C   0  0  0  0  0  0
   -5.8910  -61.6500    5.3040 C   0  0  0  0  0  0
   -6.6730  -60.6920    5.3210 O   0  0  0  0  0  0
   -5.7110  -62.4720    6.3490 N   0  0  0  0  0  0
   -6.4410  -62.4100    7.6300 C   0  0  2  0  0  0
   -6.2130  -61.1220    8.4420 C   0  0  0  0  0  0
   -6.8520  -60.9540    9.4780 O   0  0  0  0  0  0
   -6.1140  -63.6380    8.4720 C   0  0  0  0  0  0
   -6.2890  -64.8030    7.6800 O   0  0  0  0  0  0
   -5.2960  -60.2290    7.9860 N   0  0  0  0  0  0
   -4.9670  -58.9580    8.6400 C   0  0  2  0  0  0
   -6.0220  -57.9070    8.3680 C   0  0  0  0  0  0
   -6.2310  -57.0280    9.2200 O   0  0  0  0  0  0
   -3.5400  -58.4740    8.3040 C   0  0  0  0  0  0
   -3.0510  -58.8610    6.9390 C   0  0  0  0  0  0
   -2.5360  -60.0670    6.5670 C   0  0  0  0  0  0
   -3.0820  -58.0550    5.7490 C   0  0  0  0  0  0
   -2.2330  -60.0600    5.2240 N   0  0  0  0  0  0
   -2.5740  -58.8440    4.6940 C   0  0  0  0  0  0
   -3.5530  -56.7710    5.4580 C   0  0  0  0  0  0
   -2.5040  -58.3830    3.3740 C   0  0  0  0  0  0
   -3.4540  -56.3090    4.1560 C   0  0  0  0  0  0
   -2.9360  -57.1090    3.1300 C   0  0  0  0  0  0
   -6.7260  -58.0210    7.2090 N   0  0  0  0  0  0
   -7.8280  -57.1440    6.8070 C   0  0  2  0  0  0
   -8.9740  -57.0970    7.8650 C   0  0  0  0  0  0
   -9.0900  -58.0090    8.7060 O   0  0  0  0  0  0
   -8.4280  -57.6480    5.4950 C   0  0  0  0  0  0
   -7.5500  -57.4610    4.3050 C   0  0  0  0  0  0
   -6.7380  -58.4760    3.8460 N   0  0  0  0  0  0
   -7.4400  -56.4060    3.4730 C   0  0  0  0  0  0
   -6.1530  -58.0100    2.7580 C   0  0  0  0  0  0
   -6.5340  -56.7640    2.4990 N   0  0  0  0  0  0
   -9.8410  -56.0440    7.7930 N   0  0  0  0  0  0
  -10.9840  -55.8630    8.6800 C   0  0  2  0  0  0
  -12.2850  -55.9120    7.8680 C   0  0  0  0  0  0
  -12.2720  -55.6700    6.6650 O   0  0  0  0  0  0
  -10.8430  -54.5770    9.5300 C   0  0  0  0  0  0
  -12.1080  -54.2890   10.3370 C   0  0  0  0  0  0
   -9.6520  -54.6760   10.4630 C   0  0  0  0  0  0
  -13.3705  -56.2017    8.4384 O   0  0  0  0  0  0
   -1.6403  -63.1416   -5.3430 H   0  0  0  0  0  0
   -1.6715  -64.6761   -6.2763 H   0  0  0  0  0  0
   -1.3129  -63.1254   -7.1092 H   0  0  0  0  0  0
    0.2680  -64.4735   -4.9856 H   0  0  0  0  0  0
    0.5603  -64.2421   -8.0180 H   0  0  0  0  0  0
    1.9967  -64.5468   -6.9834 H   0  0  0  0  0  0
    0.5957  -66.5221   -6.0618 H   0  0  0  0  0  0
   -0.3629  -66.3006   -7.5647 H   0  0  0  0  0  0
    0.8185  -66.1803   -9.7011 H   0  0  0  0  0  0
    2.4372  -67.1767   -9.8327 H   0  0  0  0  0  0
   -0.4195  -61.6352   -6.9339 H   0  0  0  0  0  0
    2.0696  -60.1349   -6.4617 H   0  0  0  0  0  0
   -0.8075  -59.3370   -7.1120 H   0  0  0  0  0  0
    0.4770  -58.1060   -6.8646 H   0  0  0  0  0  0
    0.8018  -60.3109   -8.8595 H   0  0  0  0  0  0
   -1.3934  -59.2346   -9.3143 H   0  0  0  0  0  0
   -0.1803  -58.8518  -10.5825 H   0  0  0  0  0  0
   -0.5905  -57.6279   -9.3334 H   0  0  0  0  0  0
    2.7426  -58.9143   -8.2697 H   0  0  0  0  0  0
    1.8164  -57.4436   -8.7234 H   0  0  0  0  0  0
    2.2267  -58.6675   -9.9726 H   0  0  0  0  0  0
   -1.2521  -59.8551   -5.0633 H   0  0  0  0  0  0
    0.0858  -59.1754   -2.3940 H   0  0  0  0  0  0
   -2.4661  -57.9124   -3.5157 H   0  0  0  0  0  0
   -0.0564  -56.3017   -2.6543 H   0  0  0  0  0  0
   -0.0737  -57.0887   -4.2689 H   0  0  0  0  0  0
   -2.6432  -58.3409   -1.0549 H   0  0  0  0  0  0
   -2.6185  -56.5886   -1.4493 H   0  0  0  0  0  0
   -1.1452  -57.3835   -0.7979 H   0  0  0  0  0  0
   -0.8033  -54.7551   -4.3994 H   0  0  0  0  0  0
   -2.1238  -55.0823   -3.2264 H   0  0  0  0  0  0
   -2.1412  -55.8693   -4.8410 H   0  0  0  0  0  0
   -0.7898  -60.0556   -0.6287 H   0  0  0  0  0  0
   -2.5413  -62.5174   -0.9427 H   0  0  0  0  0  0
   -0.5988  -62.3178    0.6544 H   0  0  0  0  0  0
   -1.5318  -61.0836    1.5670 H   0  0  0  0  0  0
   -1.1711  -62.3025    3.4206 H   0  0  0  0  0  0
   -2.1615  -63.9098    3.6770 H   0  0  0  0  0  0
   -4.1018  -61.0877   -2.0929 H   0  0  0  0  0  0
   -5.5222  -58.9455   -0.7651 H   0  0  0  0  0  0
   -7.2655  -59.1680   -2.5303 H   0  0  0  0  0  0
   -7.6109  -61.6525   -2.3060 H   0  0  0  0  0  0
   -5.0564  -58.3562   -3.3102 H   0  0  0  0  0  0
   -5.9719  -59.2503   -4.5708 H   0  0  0  0  0  0
   -4.6075  -60.0473   -3.7164 H   0  0  0  0  0  0
   -5.5894  -62.2951   -0.2412 H   0  0  0  0  0  0
   -8.2261  -62.0161    1.2288 H   0  0  0  0  0  0
   -7.5189  -63.9154   -0.6061 H   0  0  0  0  0  0
   -6.9159  -64.7339    0.8748 H   0  0  0  0  0  0
   -9.7672  -62.9614   -0.4908 H   0  0  0  0  0  0
  -11.0435  -64.0279    0.4387 H   0  0  0  0  0  0
   -5.4819  -61.1767    2.0641 H   0  0  0  0  0  0
   -4.5439  -62.9007    4.2601 H   0  0  0  0  0  0
   -4.2397  -61.1388    4.0872 H   0  0  0  0  0  0
   -4.9425  -63.2429    6.1907 H   0  0  0  0  0  0
   -7.4974  -62.4084    7.3234 H   0  0  0  0  0  0
   -5.0715  -63.5784    8.8179 H   0  0  0  0  0  0
   -6.7871  -63.6764    9.3412 H   0  0  0  0  0  0
   -6.1000  -65.7962    8.1134 H   0  0  0  0  0  0
   -4.7848  -60.5173    7.0557 H   0  0  0  0  0  0
   -5.0037  -59.1831    9.7161 H   0  0  0  0  0  0
   -3.5039  -57.3758    8.3548 H   0  0  0  0  0  0
   -2.8289  -58.8981    9.0282 H   0  0  0  0  0  0
   -2.3858  -60.9143    7.2360 H   0  0  0  0  0  0
   -3.9885  -56.1473    6.2387 H   0  0  0  0  0  0
   -2.1204  -59.0146    2.5727 H   0  0  0  0  0  0
   -3.7876  -55.2975    3.9242 H   0  0  0  0  0  0
   -2.8761  -56.7085    2.1180 H   0  0  0  0  0  0
   -6.4125  -58.8463    6.5529 H   0  0  0  0  0  0
   -7.3521  -56.1583    6.6976 H   0  0  0  0  0  0
   -8.6337  -58.7256    5.5760 H   0  0  0  0  0  0
   -9.3654  -57.1102    5.2900 H   0  0  0  0  0  0
   -7.9081  -55.4108    3.4497 H   0  0  0  0  0  0
   -5.4472  -58.5756    2.1497 H   0  0  0  0  0  0
   -9.6341  -55.3051    7.0048 H   0  0  0  0  0  0
  -10.9702  -56.7202    9.3692 H   0  0  0  0  0  0
  -10.6775  -53.7325    8.8449 H   0  0  0  0  0  0
  -12.9690  -54.2181    9.6561 H   0  0  0  0  0  0
  -11.9892  -53.3387   10.8782 H   0  0  0  0  0  0
  -12.2764  -55.1028   11.0576 H   0  0  0  0  0  0
   -8.7440  -54.8833    9.8777 H   0  0  0  0  0  0
   -9.8176  -55.4903   11.1838 H   0  0  0  0  0  0
   -9.5304  -53.7262   11.0044 H   0  0  0  0  0  0
  -14.3043  -56.2374    7.8581 H   0  0  0  0  0  0
  1  2  1  0  0  0
  1 91  1  0  0  0
  1 92  1  0  0  0
  1 93  1  0  0  0
  2  3  1  0  0  0
  2  5  1  0  0  0
  2 94  1  0  0  0
  3  4  2  0  0  0
  3 10  1  0  0  0
  5  6  1  0  0  0
  5 95  1  0  0  0
  5 96  1  0  0  0
  6  7  1  0  0  0
  6 97  1  0  0  0
  6 98  1  0  0  0
  7  8  2  0  0  0
  7  9  1  0  0  0
  9 99  1  0  0  0
  9100  1  0  0  0
 10 11  1  0  0  0
 10101  1  0  0  0
 11 12  1  0  0  0
 11 14  1  0  0  0
 11102  1  0  0  0
 12 13  2  0  0  0
 12 18  1  0  0  0
 14 15  1  0  0  0
 14103  1  0  0  0
 14104  1  0  0  0
 15 16  1  0  0  0
 15 17  1  0  0  0
 15105  1  0  0  0
 16106  1  0  0  0
 16107  1  0  0  0
 16108  1  0  0  0
 17109  1  0  0  0
 17110  1  0  0  0
 17111  1  0  0  0
 18 19  1  0  0  0
 18112  1  0  0  0
 19 20  1  0  0  0
 19 22  1  0  0  0
 19113  1  0  0  0
 20 21  2  0  0  0
 20 26  1  0  0  0
 22 23  1  0  0  0
 22 24  1  0  0  0
 22114  1  0  0  0
 23 25  1  0  0  0
 23115  1  0  0  0
 23116  1  0  0  0
 24117  1  0  0  0
 24118  1  0  0  0
 24119  1  0  0  0
 25120  1  0  0  0
 25121  1  0  0  0
 25122  1  0  0  0
 26 27  1  0  0  0
 26123  1  0  0  0
 27 28  1  0  0  0
 27 30  1  0  0  0
 27124  1  0  0  0
 28 29  2  0  0  0
 28 34  1  0  0  0
 30 31  1  0  0  0
 30125  1  0  0  0
 30126  1  0  0  0
 31 32  2  0  0  0
 31 33  1  0  0  0
 33127  1  0  0  0
 33128  1  0  0  0
 34 35  1  0  0  0
 34129  1  0  0  0
 35 36  1  0  0  0
 35 38  1  0  0  0
 35130  1  0  0  0
 36 37  2  0  0  0
 36 41  1  0  0  0
 38 39  1  0  0  0
 38 40  1  0  0  0
 38131  1  0  0  0
 39132  1  0  0  0
 40133  1  0  0  0
 40134  1  0  0  0
 40135  1  0  0  0
 41 42  1  0  0  0
 41136  1  0  0  0
 42 43  1  0  0  0
 42 45  1  0  0  0
 42137  1  0  0  0
 43 44  2  0  0  0
 43 49  1  0  0  0
 45 46  1  0  0  0
 45138  1  0  0  0
 45139  1  0  0  0
 46 47  2  0  0  0
 46 48  1  0  0  0
 48140  1  0  0  0
 48141  1  0  0  0
 49 50  1  0  0  0
 49142  1  0  0  0
 50 51  1  0  0  0
 50143  1  0  0  0
 50144  1  0  0  0
 51 52  2  0  0  0
 51 53  1  0  0  0
 53 54  1  0  0  0
 53145  1  0  0  0
 54 55  1  0  0  0
 54 57  1  0  0  0
 54146  1  0  0  0
 55 56  2  0  0  0
 55 59  1  0  0  0
 57 58  1  0  0  0
 57147  1  0  0  0
 57148  1  0  0  0
 58149  1  0  0  0
 59 60  1  0  0  0
 59150  1  0  0  0
 60 61  1  0  0  0
 60 63  1  0  0  0
 60151  1  0  0  0
 61 62  2  0  0  0
 61 73  1  0  0  0
 63 64  1  0  0  0
 63152  1  0  0  0
 63153  1  0  0  0
 64 65  2  0  0  0
 64 66  1  0  0  0
 65 67  1  0  0  0
 65154  1  0  0  0
 66 68  2  0  0  0
 66 69  1  0  0  0
 67 68  1  0  0  0
 68 70  1  0  0  0
 69 71  2  0  0  0
 69155  1  0  0  0
 70 72  2  0  0  0
 70156  1  0  0  0
 71 72  1  0  0  0
 71157  1  0  0  0
 72158  1  0  0  0
 73 74  1  0  0  0
 73159  1  0  0  0
 74 75  1  0  0  0
 74 77  1  0  0  0
 74160  1  0  0  0
 75 76  2  0  0  0
 75 83  1  0  0  0
 77 78  1  0  0  0
 77161  1  0  0  0
 77162  1  0  0  0
 78 79  2  0  0  0
 78 80  1  0  0  0
 79 81  1  0  0  0
 80 82  2  0  0  0
 80163  1  0  0  0
 81 82  1  0  0  0
 81164  1  0  0  0
 83 84  1  0  0  0
 83165  1  0  0  0
 84 85  1  0  0  0
 84 87  1  0  0  0
 84166  1  0  0  0
 85 86  2  0  0  0
 85 90  1  0  0  0
 87 88  1  0  0  0
 87 89  1  0  0  0
 87167  1  0  0  0
 88168  1  0  0  0
 88169  1  0  0  0
 88170  1  0  0  0
 89171  1  0  0  0
 89172  1  0  0  0
 89173  1  0  0  0
 90174  1  0  0  0
M  CHG  1   1   1
M  END
> <s_m_source_file>
../4why_ligand.sdf

> <i_m_source_file_index>
1

> <s_epik_input>
Tz1DKFtOSDJdKVtDSDJdW0NIMl1bQ0BIXShbTkgzK10pQyg9TylbTkhdW0NAQEhdKFtDSDJdW0NIXShbQ0gzXSlbQ0gzXSlDKD1PKVtOSF1bQ0BASF0oW0NAQEhdKFtDSDNdKVtDSDJdW0NIM10pQyg9TylbTkhdW0NAQEhdKFtDSDJdQyg9TylbTkgyXSlDKD1PKVtOSF1bQ0BASF0oW0NASF0oW09IXSlbQ0gzXSlDKD1PKVtOSF1bQ0BASF0oW0NIMl1DKD1PKVtOSDJdKUMoPU8pW05IXVtDSDJdQyg9TylbTkhdW0NAQEhdKFtDSDJdW09IXSlDKD1PKVtOSF1bQ0BIXShDKD1PKVtOSF1bQ0BIXShDKD1PKVtOSF1bQ0BIXShDKD1PKVtPSF0pW0NIXShbQ0gzXSlbQ0gzXSlbQ0gyXUMxPU5bQ0gyXU49W0NIXTEpW0NIMl1jMltjSF1bbkhdYyhjMjMpW2NIXVtjSF1bY0hdW2NIXTM=

> <s_epik_cmdline>
J2VwaWtfYXBwJywgJy1pbWFlJywgJ2xpZ2FuZF9wcm8ubWFlJywgJy1vbWFlJywgJ2xpZ2FuZF9wcmVwLm1hZScsICctbXMnLCAnMScsICctcGgnLCAnNycsICctcGh0JywgJzAuNScsICctbnQn

> <s_epik_pKa_notes>
Molecule size exceeds maximum supported for generating protonation states

> <s_epik_Chemistry_Notes>
This compound has an imine and may undergo hydrolysis.

$$$$
