4whz_ligand
                    3D
 Schrodinger Suite 2020-3.
 59 63  0  0  1  0            999 V2000
    3.2520  106.8380  141.2970 C   0  0  0  0  0  0
    1.3460  105.9770  142.0840 C   0  0  0  0  0  0
    2.4080  105.7420  141.2070 C   0  0  0  0  0  0
    3.2450  109.0390  142.5320 C   0  0  1  0  0  0
    1.7210  103.7400  139.8510 C   0  0  0  0  0  0
    6.6660   99.4520  140.5770 C   0  0  0  0  0  0
    4.8440   98.6360  139.6110 C   0  0  0  0  0  0
    8.3500   92.4320  140.6220 Cl  0  0  0  0  0  0
    8.1510   93.4850  142.0370 C   0  0  0  0  0  0
    9.0140   93.3690  143.1260 C   0  0  0  0  0  0
    8.8470   94.2580  144.2260 C   0  0  0  0  0  0
    7.8010   95.1810  144.2200 C   0  0  0  0  0  0
    6.9060   95.2280  143.1690 C   0  0  0  0  0  0
    7.1660   94.4360  141.9860 C   0  0  0  0  0  0
    6.2310   94.4830  140.9190 N   0  0  0  0  0  0
    5.7520   95.7140  140.3610 C   0  0  0  0  0  0
    4.7730   95.6800  139.6000 O   0  0  0  0  0  0
    6.4480   96.9810  140.6440 N   0  0  0  0  0  0
    6.0360   98.2860  140.2370 C   0  0  0  0  0  0
    5.9010  100.4640  140.1370 N   0  0  0  0  0  0
    4.8380   99.9670  139.5010 N   0  0  0  0  0  0
    3.7960  100.6530  138.9600 C   0  0  0  0  0  0
    3.0920  100.1520  137.8470 C   0  0  0  0  0  0
    1.9300  100.8040  137.4080 C   0  0  0  0  0  0
    1.5190  102.0020  137.9980 C   0  0  0  0  0  0
    2.2170  102.4940  139.1100 C   0  0  0  0  0  0
    3.3240  101.8050  139.6060 C   0  0  0  0  0  0
    0.5350  103.9680  139.9190 O   0  0  0  0  0  0
    2.6880  104.5440  140.4460 N   0  0  0  0  0  0
    1.5310  107.1950  142.6280 N   0  0  0  0  0  0
    2.7000  107.7190  142.1760 N   0  0  0  0  0  0
    2.3810  110.2320  142.0800 C   0  0  0  0  0  0
    2.1200  110.9640  143.1670 C   0  0  0  0  0  0
    3.1650  110.4890  144.2970 N   0  3  0  0  0  0
    3.3480  109.2070  144.0790 C   0  0  0  0  0  0
    4.1909  106.9708  140.7595 H   0  0  0  0  0  0
    0.5185  105.2982  142.2903 H   0  0  0  0  0  0
    4.2020  109.0090  141.9905 H   0  0  0  0  0  0
    7.6140   99.5427  141.1072 H   0  0  0  0  0  0
    4.0634   97.9538  139.2743 H   0  0  0  0  0  0
    9.7999   92.6138  143.1352 H   0  0  0  0  0  0
    9.5348   94.2173  145.0706 H   0  0  0  0  0  0
    7.6887   95.8732  145.0545 H   0  0  0  0  0  0
    6.0154   95.8535  143.2298 H   0  0  0  0  0  0
    5.8435   93.5491  140.4858 H   0  0  0  0  0  0
    7.3832   96.9773  141.2231 H   0  0  0  0  0  0
    3.4487   99.2616  137.3293 H   0  0  0  0  0  0
    1.3419  100.3717  136.5985 H   0  0  0  0  0  0
    0.6648  102.5483  137.5980 H   0  0  0  0  0  0
    3.8266  102.1652  140.5036 H   0  0  0  0  0  0
    3.7273  104.2121  140.3053 H   0  0  0  0  0  0
    2.9347  110.8252  141.3374 H   0  0  0  0  0  0
    1.4485  109.8600  141.6305 H   0  0  0  0  0  0
    2.2523  112.0303  142.9314 H   0  0  0  0  0  0
    1.0835  110.7855  143.4891 H   0  0  0  0  0  0
    4.1022  111.0551  144.1909 H   0  0  0  0  0  0
    2.7364  110.6727  145.2933 H   0  0  0  0  0  0
    2.5720  108.5984  144.5664 H   0  0  0  0  0  0
    4.3406  108.8760  144.4185 H   0  0  0  0  0  0
  1  3  2  0  0  0
  1 31  1  0  0  0
  1 36  1  0  0  0
  2  3  1  0  0  0
  2 30  2  0  0  0
  2 37  1  0  0  0
  3 29  1  0  0  0
  4 31  1  0  0  0
  4 32  1  0  0  0
  4 35  1  0  0  0
  4 38  1  0  0  0
  5 26  1  0  0  0
  5 28  2  0  0  0
  5 29  1  0  0  0
  6 19  1  0  0  0
  6 20  2  0  0  0
  6 39  1  0  0  0
  7 19  2  0  0  0
  7 21  1  0  0  0
  7 40  1  0  0  0
  8  9  1  0  0  0
  9 10  2  0  0  0
  9 14  1  0  0  0
 10 11  1  0  0  0
 10 41  1  0  0  0
 11 12  2  0  0  0
 11 42  1  0  0  0
 12 13  1  0  0  0
 12 43  1  0  0  0
 13 14  2  0  0  0
 13 44  1  0  0  0
 14 15  1  0  0  0
 15 16  1  0  0  0
 15 45  1  0  0  0
 16 17  2  0  0  0
 16 18  1  0  0  0
 18 19  1  0  0  0
 18 46  1  0  0  0
 20 21  1  0  0  0
 21 22  1  0  0  0
 22 23  2  0  0  0
 22 27  1  0  0  0
 23 24  1  0  0  0
 23 47  1  0  0  0
 24 25  2  0  0  0
 24 48  1  0  0  0
 25 26  1  0  0  0
 25 49  1  0  0  0
 26 27  2  0  0  0
 27 50  1  0  0  0
 29 51  1  0  0  0
 30 31  1  0  0  0
 32 33  1  0  0  0
 32 52  1  0  0  0
 32 53  1  0  0  0
 33 34  1  0  0  0
 33 54  1  0  0  0
 33 55  1  0  0  0
 34 35  1  0  0  0
 34 56  1  0  0  0
 34 57  1  0  0  0
 35 58  1  0  0  0
 35 59  1  0  0  0
M  CHG  1  34   1
M  END
> <s_m_source_file>
../4whz_ligand.sdf

> <i_m_source_file_index>
1

> <s_epik_input>
W0NIMl0xW05IMitdW0NIMl1bQ0gyXVtDQEBIXTFuKG5bY0hdMilbY0hdYzJbTkhdQyg9TyljKFtjSF0zKVtjSF1bY0hdW2NIXWMzLW4oW2NIXTQpbltjSF1jNFtOSF1DKD1PKVtOSF1jNVtjSF1bY0hdW2NIXVtjSF1jNUNs

> <s_epik_cmdline>
J2VwaWtfYXBwJywgJy1pbWFlJywgJ2xpZ2FuZF9wcm8ubWFlJywgJy1vbWFlJywgJ2xpZ2FuZF9wcmVwLm1hZScsICctbXMnLCAnMScsICctcGgnLCAnNycsICctcGh0JywgJzAuNScsICctbnQn

> <r_lp_tautomer_probability>
1

> <r_epik_Ionization_Penalty>
  0.0006

> <r_epik_Ionization_Penalty_Charging>
  0.0006

> <r_epik_Ionization_Penalty_Neutral>
  0.0000

> <r_epik_State_Penalty>
 -0.0000

> <r_epik_Charging_Adjusted_Penalty>
0.000593595152466809

> <i_epik_Tot_Q>
1

> <i_epik_Tot_abs_Q>
1

$$$$
