4wj5_ligand
                    3D
 Schrodinger Suite 2020-3.
144144  0  0  1  0            999 V2000
    5.9630   -7.2950   13.7740 O   0  0  0  0  0  0
    6.3700   -6.5240   12.8720 C   0  0  0  0  0  0
    7.3480   -6.9990   11.7900 C   0  0  2  0  0  0
    7.9580   -8.3200   12.2990 C   0  0  0  0  0  0
    8.3580   -5.9680   11.4830 N   0  0  0  0  0  0
    6.4910   -7.3700   10.5470 C   0  0  0  0  0  0
    6.8720   -6.9790    9.2240 C   0  0  0  0  0  0
    6.0180   -7.3950    8.1800 C   0  0  0  0  0  0
    4.9110   -8.1730    8.4160 C   0  0  0  0  0  0
    4.5390   -8.5880    9.6970 C   0  0  0  0  0  0
    5.3370   -8.1680   10.7710 C   0  0  0  0  0  0
    5.8380   -5.3220   12.8240 N   0  0  0  0  0  0
    4.7680   -4.4110   13.2740 C   0  0  2  0  0  0
    5.0980   -3.4010   14.3470 C   0  0  0  0  0  0
    5.6390   -2.1320   13.7030 C   0  0  0  0  0  0
    4.9000   -0.9180   14.1940 C   0  0  0  0  0  0
    3.6370   -5.3810   13.5880 C   0  0  0  0  0  0
    3.2120   -6.0290   12.6480 O   0  0  0  0  0  0
    3.0320   -5.5470   14.7800 N   0  0  0  0  0  0
    1.7910   -6.3220   14.8360 C   0  0  2  0  0  0
    0.7050   -5.5760   14.0300 C   0  0  0  0  0  0
    0.6130   -4.3360   14.0620 O   0  0  0  0  0  0
    1.3290   -6.4980   16.2910 C   0  0  0  0  0  0
   -0.0710   -6.3470   13.2820 N   0  0  0  0  0  0
   -1.1690   -5.7640   12.5150 C   0  0  0  0  0  0
   -2.5350   -6.0800   13.0760 C   0  0  0  0  0  0
   -3.5580   -5.6690   12.4880 O   0  0  0  0  0  0
   -2.5710   -6.8280   14.1780 N   0  0  0  0  0  0
   -3.7920   -7.2370   14.8700 C   0  0  2  0  0  0
   -3.5050   -7.2270   16.3480 C   0  0  0  0  0  0
   -2.3200   -7.2910   16.7270 O   0  0  0  0  0  0
   -4.2620   -8.6590   14.4720 C   0  0  2  0  0  0
   -3.2190   -9.7280   14.8390 C   0  0  0  0  0  0
   -4.5540   -8.6770   12.9820 C   0  0  0  0  0  0
   -3.6550  -11.1610   14.5950 C   0  0  0  0  0  0
   -4.5560   -7.1010   17.1510 N   0  0  0  0  0  0
   -4.3910   -7.1710   18.5890 C   0  0  0  0  0  0
   -4.0150   -5.8850   19.2910 C   0  0  0  0  0  0
   -3.9130   -5.9100   20.5130 O   0  0  0  0  0  0
   -3.8540   -4.7800   18.5760 N   0  0  0  0  0  0
   -3.4220   -3.4840   19.1680 C   0  0  2  0  0  0
   -4.5960   -2.5310   19.2290 C   0  0  0  0  0  0
   -4.8870   -1.7890   18.2780 O   0  0  0  0  0  0
   -2.2320   -2.8450   18.4050 C   0  0  2  0  0  0
   -1.1220   -3.8660   18.2210 C   0  0  0  0  0  0
   -1.6730   -1.6300   19.1530 C   0  0  0  0  0  0
   -0.5440   -4.4250   19.5090 C   0  0  0  0  0  0
   -5.2720   -2.5510   20.3670 N   0  0  0  0  0  0
   -6.5630   -1.8770   20.5620 C   0  0  2  0  0  0
   -6.4300   -0.8090   21.6640 C   0  0  0  0  0  0
   -5.5500   -0.9170   22.5320 O   0  0  0  0  0  0
   -7.5970   -2.9400   20.9370 C   0  0  0  0  0  0
   -9.0930   -2.7220   20.7050 C   0  0  0  0  0  0
   -9.4360   -2.7660   19.2290 C   0  0  0  0  0  0
   -9.8800   -3.7730   21.4770 C   0  0  0  0  0  0
   -7.2560    0.2440   21.5890 N   0  0  0  0  0  0
   -7.3360    1.2660   22.6400 C   0  0  2  0  0  0
   -7.7070    0.6240   23.9870 C   0  0  0  0  0  0
   -8.4250   -0.3710   24.0280 O   0  0  0  0  0  0
   -8.3740    2.3490   22.2910 C   0  0  2  0  0  0
   -9.5720    1.7030   21.8750 O   0  0  0  0  0  0
   -7.8810    3.2960   21.1540 C   0  0  0  0  0  0
   -3.9860    0.2260   27.3580 C   0  0  0  0  0  0
   -5.1710    0.6930   27.4070 C   0  0  0  0  0  0
   -6.5230    1.2500   27.4770 C   0  0  0  0  0  0
   -7.4800    0.8710   26.4160 C   0  0  2  0  0  0
   -7.1500    1.1880   25.0790 N   0  0  0  0  0  0
   -8.8880    0.9260   26.8640 C   0  0  0  0  0  0
   -9.3420    0.4000   27.8840 O   0  0  0  0  0  0
   -9.6370    1.7280   26.1660 O   0  5  0  0  0  0
    8.5796   -8.1197   13.1842 H   0  0  0  0  0  0
    8.5791   -8.7658   11.5081 H   0  0  0  0  0  0
    7.1506   -9.0170   12.5679 H   0  0  0  0  0  0
    8.9368   -5.7401   12.3902 H   0  0  0  0  0  0
    9.0351   -6.3397   10.6998 H   0  0  0  0  0  0
    7.7711   -6.3930    9.0334 H   0  0  0  0  0  0
    6.2433   -7.0903    7.1580 H   0  0  0  0  0  0
    4.2974   -8.4793    7.5688 H   0  0  0  0  0  0
    3.6614   -9.2147    9.8558 H   0  0  0  0  0  0
    5.0693   -8.4566   11.7875 H   0  0  0  0  0  0
    6.6111   -4.9617   12.1294 H   0  0  0  0  0  0
    4.5417   -3.6781   12.4856 H   0  0  0  0  0  0
    4.1887   -3.1625   14.9182 H   0  0  0  0  0  0
    5.8569   -3.8200   15.0241 H   0  0  0  0  0  0
    6.7045   -2.0198   13.9523 H   0  0  0  0  0  0
    5.5228   -2.1967   12.6111 H   0  0  0  0  0  0
    5.3117   -0.0186   13.7127 H   0  0  0  0  0  0
    5.0147   -0.8352   15.2849 H   0  0  0  0  0  0
    3.8330   -1.0121   13.9436 H   0  0  0  0  0  0
    3.4520   -5.1140   15.6998 H   0  0  0  0  0  0
    2.0159   -7.3073   14.4016 H   0  0  0  0  0  0
    2.1056   -7.0296   16.8605 H   0  0  0  0  0  0
    0.3960   -7.0803   16.3115 H   0  0  0  0  0  0
    1.1548   -5.5101   16.7424 H   0  0  0  0  0  0
    0.1146   -7.4304   13.2402 H   0  0  0  0  0  0
   -1.0656   -4.6690   12.5011 H   0  0  0  0  0  0
   -1.1410   -6.1480   11.4846 H   0  0  0  0  0  0
   -1.5893   -7.1402   14.5638 H   0  0  0  0  0  0
   -4.5559   -6.4988   14.5844 H   0  0  0  0  0  0
   -5.1826   -8.9116   15.0186 H   0  0  0  0  0  0
   -2.3076   -9.5706   14.2436 H   0  0  0  0  0  0
   -2.9758   -9.6509   15.9090 H   0  0  0  0  0  0
   -5.3012   -7.9051   12.7455 H   0  0  0  0  0  0
   -4.9445   -9.6650   12.6968 H   0  0  0  0  0  0
   -3.6278   -8.4739   12.4244 H   0  0  0  0  0  0
   -2.8449  -11.8455   14.8871 H   0  0  0  0  0  0
   -3.8839  -11.2979   13.5278 H   0  0  0  0  0  0
   -4.5522  -11.3782   15.1933 H   0  0  0  0  0  0
   -5.5552   -6.9428   16.7191 H   0  0  0  0  0  0
   -5.3338   -7.4996   19.0507 H   0  0  0  0  0  0
   -3.5939   -7.8890   18.8321 H   0  0  0  0  0  0
   -4.0557   -4.8517   17.4970 H   0  0  0  0  0  0
   -3.0930   -3.7181   20.1912 H   0  0  0  0  0  0
   -2.5882   -2.5141   17.4183 H   0  0  0  0  0  0
   -1.5044   -4.7242   17.6489 H   0  0  0  0  0  0
   -0.2861   -3.4045   17.6749 H   0  0  0  0  0  0
   -2.4708   -0.8852   19.2906 H   0  0  0  0  0  0
   -0.8531   -1.1856   18.5696 H   0  0  0  0  0  0
   -1.2939   -1.9470   20.1357 H   0  0  0  0  0  0
    0.2475   -5.1509   19.2710 H   0  0  0  0  0  0
   -1.3395   -4.9244   20.0815 H   0  0  0  0  0  0
   -0.1212   -3.6046   20.1076 H   0  0  0  0  0  0
   -4.8143   -3.1128   21.1946 H   0  0  0  0  0  0
   -6.8494   -1.3857   19.6204 H   0  0  0  0  0  0
   -7.3908   -3.8651   20.3788 H   0  0  0  0  0  0
   -7.5395   -3.1427   22.0166 H   0  0  0  0  0  0
   -9.3721   -1.7207   21.0649 H   0  0  0  0  0  0
   -8.8558   -1.9992   18.6947 H   0  0  0  0  0  0
  -10.5105   -2.5715   19.0963 H   0  0  0  0  0  0
   -9.1905   -3.7592   18.8250 H   0  0  0  0  0  0
   -9.6138   -3.7207   22.5430 H   0  0  0  0  0  0
   -9.6373   -4.7725   21.0871 H   0  0  0  0  0  0
  -10.9573   -3.5848   21.3584 H   0  0  0  0  0  0
   -7.8904    0.3247   20.6940 H   0  0  0  0  0  0
   -6.3288    1.7063   22.6802 H   0  0  0  0  0  0
   -8.6225    2.9327   23.1896 H   0  0  0  0  0  0
  -10.0748    0.9914   22.5464 H   0  0  0  0  0  0
   -6.9549    3.7980   21.4707 H   0  0  0  0  0  0
   -8.6537    4.0503   20.9443 H   0  0  0  0  0  0
   -7.6868    2.7076   20.2451 H   0  0  0  0  0  0
   -6.9992    0.9394   28.4187 H   0  0  0  0  0  0
   -6.4697    2.3480   27.4379 H   0  0  0  0  0  0
   -7.3093   -0.1883   26.1734 H   0  0  0  0  0  0
   -6.3842    1.9486   24.8670 H   0  0  0  0  0  0
  1  2  2  0  0  0
  2  3  1  0  0  0
  2 12  1  0  0  0
  3  4  1  0  0  0
  3  5  1  0  0  0
  3  6  1  0  0  0
  4 71  1  0  0  0
  4 72  1  0  0  0
  4 73  1  0  0  0
  5 74  1  0  0  0
  5 75  1  0  0  0
  6  7  2  0  0  0
  6 11  1  0  0  0
  7  8  1  0  0  0
  7 76  1  0  0  0
  8  9  2  0  0  0
  8 77  1  0  0  0
  9 10  1  0  0  0
  9 78  1  0  0  0
 10 11  2  0  0  0
 10 79  1  0  0  0
 11 80  1  0  0  0
 12 13  1  0  0  0
 12 81  1  0  0  0
 13 14  1  0  0  0
 13 17  1  0  0  0
 13 82  1  0  0  0
 14 15  1  0  0  0
 14 83  1  0  0  0
 14 84  1  0  0  0
 15 16  1  0  0  0
 15 85  1  0  0  0
 15 86  1  0  0  0
 16 87  1  0  0  0
 16 88  1  0  0  0
 16 89  1  0  0  0
 17 18  2  0  0  0
 17 19  1  0  0  0
 19 20  1  0  0  0
 19 90  1  0  0  0
 20 21  1  0  0  0
 20 23  1  0  0  0
 20 91  1  0  0  0
 21 22  2  0  0  0
 21 24  1  0  0  0
 23 92  1  0  0  0
 23 93  1  0  0  0
 23 94  1  0  0  0
 24 25  1  0  0  0
 24 95  1  0  0  0
 25 26  1  0  0  0
 25 96  1  0  0  0
 25 97  1  0  0  0
 26 27  2  0  0  0
 26 28  1  0  0  0
 28 29  1  0  0  0
 28 98  1  0  0  0
 29 30  1  0  0  0
 29 32  1  0  0  0
 29 99  1  0  0  0
 30 31  2  0  0  0
 30 36  1  0  0  0
 32 33  1  0  0  0
 32 34  1  0  0  0
 32100  1  0  0  0
 33 35  1  0  0  0
 33101  1  0  0  0
 33102  1  0  0  0
 34103  1  0  0  0
 34104  1  0  0  0
 34105  1  0  0  0
 35106  1  0  0  0
 35107  1  0  0  0
 35108  1  0  0  0
 36 37  1  0  0  0
 36109  1  0  0  0
 37 38  1  0  0  0
 37110  1  0  0  0
 37111  1  0  0  0
 38 39  2  0  0  0
 38 40  1  0  0  0
 40 41  1  0  0  0
 40112  1  0  0  0
 41 42  1  0  0  0
 41 44  1  0  0  0
 41113  1  0  0  0
 42 43  2  0  0  0
 42 48  1  0  0  0
 44 45  1  0  0  0
 44 46  1  0  0  0
 44114  1  0  0  0
 45 47  1  0  0  0
 45115  1  0  0  0
 45116  1  0  0  0
 46117  1  0  0  0
 46118  1  0  0  0
 46119  1  0  0  0
 47120  1  0  0  0
 47121  1  0  0  0
 47122  1  0  0  0
 48 49  1  0  0  0
 48123  1  0  0  0
 49 50  1  0  0  0
 49 52  1  0  0  0
 49124  1  0  0  0
 50 51  2  0  0  0
 50 56  1  0  0  0
 52 53  1  0  0  0
 52125  1  0  0  0
 52126  1  0  0  0
 53 54  1  0  0  0
 53 55  1  0  0  0
 53127  1  0  0  0
 54128  1  0  0  0
 54129  1  0  0  0
 54130  1  0  0  0
 55131  1  0  0  0
 55132  1  0  0  0
 55133  1  0  0  0
 56 57  1  0  0  0
 56134  1  0  0  0
 57 58  1  0  0  0
 57 60  1  0  0  0
 57135  1  0  0  0
 58 59  2  0  0  0
 58 67  1  0  0  0
 60 61  1  0  0  0
 60 62  1  0  0  0
 60136  1  0  0  0
 61137  1  0  0  0
 62138  1  0  0  0
 62139  1  0  0  0
 62140  1  0  0  0
 63 64  3  0  0  0
 64 65  1  0  0  0
 65 66  1  0  0  0
 65141  1  0  0  0
 65142  1  0  0  0
 66 67  1  0  0  0
 66 68  1  0  0  0
 66143  1  0  0  0
 67144  1  0  0  0
 68 69  2  0  0  0
 68 70  1  0  0  0
M  CHG  1  70  -1
M  END
> <s_m_source_file>
../4wj5_ligand.sdf

> <i_m_source_file_index>
1

> <s_epik_input>
W2NIXTFbY0hdW2NIXVtjSF1bY0hdYzFbQ0BAXShbQ0gzXSkoW05IMytdKUMoPU8pW05IXVtDQEhdKFtDSDJdW0NIMl1bQ0gzXSlDKD1PKVtOSF1bQ0BASF0oW0NIM10pQyg9TylbTkhdW0NIMl1DKD1PKVtOSF1bQ0BASF0oW0NAQEhdKFtDSDNdKVtDSDJdW0NIM10pQyg9TylbTkhdW0NIMl1DKD1PKVtOSF1bQ0BASF0oW0NAQEhdKFtDSDNdKVtDSDJdW0NIM10pQyg9TylbTkhdW0NAQEhdKFtDSDJdW0NIXShbQ0gzXSlbQ0gzXSlDKD1PKVtOSF1bQ0BASF0oW0NASF0oW09IXSlbQ0gzXSlDKD1PKVtOSF1bQ0BIXShDKD1PKVtPSF0pW0NIMl1DI1tDSF0=

> <s_epik_cmdline>
J2VwaWtfYXBwJywgJy1pbWFlJywgJ2xpZ2FuZF9wcm8ubWFlJywgJy1vbWFlJywgJ2xpZ2FuZF9wcmVwLm1hZScsICctbXMnLCAnMScsICctcGgnLCAnNycsICctcGh0JywgJzAuNScsICctbnQn

> <r_epik_Ionization_Penalty>
  0.3261

> <r_epik_Ionization_Penalty_Charging>
  0.0001

> <r_epik_Ionization_Penalty_Neutral>
  0.3260

> <r_epik_State_Penalty>
  0.3208

> <r_epik_Charging_Adjusted_Penalty>
0.320945782962952

> <i_epik_Tot_Q>
-1

> <i_epik_Tot_abs_Q>
1

$$$$
