4wj7_ligand
                    3D
 Schrodinger Suite 2020-3.
182184  0  0  1  0            999 V2000
   22.7960   63.0300  193.8170 N   0  3  0  0  0  0
   23.0000   63.2830  192.3920 C   0  0  2  0  0  0
   21.7750   62.8440  191.5840 C   0  0  0  0  0  0
   21.1210   61.8520  191.9170 O   0  0  0  0  0  0
   24.3050   62.6190  191.8640 C   0  0  0  0  0  0
   24.0220   61.2800  191.1990 C   0  0  0  0  0  0
   25.0170   63.5500  190.8950 C   0  0  0  0  0  0
   21.4440   63.6080  190.5460 N   0  0  0  0  0  0
   20.2520   63.3300  189.7500 C   0  0  2  0  0  0
   20.3960   62.0530  188.9330 C   0  0  0  0  0  0
   19.4750   61.2370  188.8710 O   0  0  0  0  0  0
   19.9260   64.4990  188.8180 C   0  0  0  0  0  0
   19.5110   65.7490  189.5650 C   0  0  0  0  0  0
   20.3940   66.5740  189.8810 O   0  0  0  0  0  0
   18.3020   65.9060  189.8360 O   0  0  0  0  0  0
   21.5580   61.8790  188.3120 N   0  0  0  0  0  0
   21.8070   60.6880  187.5140 C   0  0  2  0  0  0
   23.2980   60.3830  187.4300 C   0  0  0  0  0  0
   24.1100   61.2890  187.2310 O   0  0  0  0  0  0
   21.2190   60.8670  186.1080 C   0  0  0  0  0  0
   21.2450   59.6130  185.2490 C   0  0  0  0  0  0
   20.4310   59.7950  183.9700 C   0  0  0  0  0  0
   20.4530   58.5250  183.1310 C   0  0  0  0  0  0
   19.8260   57.3870  183.8580 N   0  3  0  0  0  0
   23.6560   59.1120  187.5820 N   0  0  0  0  0  0
   25.0510   58.6980  187.4640 C   0  0  2  0  0  0
   25.1520   57.3830  186.6930 C   0  0  0  0  0  0
   24.4010   56.4390  186.9460 O   0  0  0  0  0  0
   25.7440   58.5700  188.8510 C   0  0  0  0  0  0
   24.9600   57.6360  189.7670 C   0  0  0  0  0  0
   27.1860   58.0850  188.6960 C   0  0  0  0  0  0
   26.0790   57.3350  185.7420 N   0  0  0  0  0  0
   26.3580   56.1100  185.0080 C   0  0  2  0  0  0
   27.8290   55.7670  185.1530 C   0  0  0  0  0  0
   28.7000   56.5630  184.8030 O   0  0  0  0  0  0
   26.0090   56.2350  183.5140 C   0  0  0  0  0  0
   26.3110   54.9320  182.7880 C   0  0  0  0  0  0
   24.5490   56.6250  183.3380 C   0  0  0  0  0  0
   28.0960   54.5750  185.6710 N   0  0  0  0  0  0
   29.4580   54.1350  185.9170 C   0  0  2  0  0  0
   29.9820   53.3110  184.7520 C   0  0  0  0  0  0
   29.2600   52.4870  184.1920 O   0  0  0  0  0  0
   29.5470   53.2850  187.2030 C   0  0  2  0  0  0
   28.9080   54.0200  188.3820 C   0  0  0  0  0  0
   30.9920   52.9260  187.5190 C   0  0  0  0  0  0
   29.6270   55.2900  188.7660 C   0  0  0  0  0  0
   31.2320   53.5540  184.3760 N   0  0  0  0  0  0
   31.9080   52.7010  183.4160 C   0  0  2  0  0  0
   32.4750   51.5220  184.1890 C   0  0  0  0  0  0
   33.4000   51.6850  184.9830 O   0  0  0  0  0  0
   33.0230   53.4630  182.7000 C   0  0  0  0  0  0
   33.6320   52.6760  181.5530 C   0  0  0  0  0  0
   33.3840   51.4800  181.3990 O   0  0  0  0  0  0
   34.4420   53.3470  180.7430 N   0  0  0  0  0  0
   31.9160   50.3260  183.9640 N   0  0  0  0  0  0
   32.3550   49.1390  184.6990 C   0  0  2  0  0  0
   33.6720   48.5960  184.1620 C   0  0  0  0  0  0
   34.2400   47.6750  184.7480 O   0  0  0  0  0  0
   31.2250   48.1400  184.4450 C   0  0  0  0  0  0
   30.6930   48.5260  183.1120 C   0  0  0  0  0  0
   30.8150   50.0240  183.0310 C   0  0  0  0  0  0
   34.1500   49.1620  183.0590 N   0  0  0  0  0  0
   35.3770   48.6830  182.4390 C   0  0  2  0  0  0
   36.4970   49.7150  182.5160 C   0  0  0  0  0  0
   37.4870   49.6170  181.7920 O   0  0  0  0  0  0
   35.1150   48.3030  180.9830 C   0  0  0  0  0  0
   34.0030   47.2960  180.8220 C   0  0  0  0  0  0
   34.1070   46.0180  181.3520 C   0  0  0  0  0  0
   32.8390   47.6320  180.1440 C   0  0  0  0  0  0
   33.0820   45.1000  181.2060 C   0  0  0  0  0  0
   31.8120   46.7250  179.9920 C   0  0  0  0  0  0
   31.9380   45.4610  180.5240 C   0  0  0  0  0  0
   30.9110   44.5570  180.3730 O   0  0  0  0  0  0
   36.3320   50.7040  183.3890 N   0  0  0  0  0  0
   37.3460   51.7360  183.5800 C   0  0  2  0  0  0
   38.6640   51.1330  184.0550 C   0  0  0  0  0  0
   38.6960   50.3740  185.0230 O   0  0  0  0  0  0
   36.8540   52.7900  184.5760 C   0  0  0  0  0  0
   37.8710   53.8500  184.8940 C   0  0  0  0  0  0
   38.2350   54.7880  183.9420 C   0  0  0  0  0  0
   38.4590   53.9110  186.1470 C   0  0  0  0  0  0
   39.1680   55.7670  184.2340 C   0  0  0  0  0  0
   39.3930   54.8870  186.4440 C   0  0  0  0  0  0
   39.7480   55.8150  185.4850 C   0  0  0  0  0  0
   39.7480   51.4810  183.3710 N   0  0  0  0  0  0
   41.0580   50.9520  183.7000 C   0  0  0  0  0  0
   41.2780   49.5610  183.1350 C   0  0  0  0  0  0
   40.8710   49.2640  182.0110 O   0  0  0  0  0  0
   41.8849   48.6986  183.8246 O   0  0  0  0  0  0
   21.8657   63.5159  194.1461 H   0  0  0  0  0  0
   23.6440   63.4376  194.3868 H   0  0  0  0  0  0
   22.7248   61.9461  193.9904 H   0  0  0  0  0  0
   23.1000   64.3761  192.3203 H   0  0  0  0  0  0
   24.9770   62.4226  192.7124 H   0  0  0  0  0  0
   23.5075   60.6183  191.9113 H   0  0  0  0  0  0
   24.9703   60.8174  190.8880 H   0  0  0  0  0  0
   23.3837   61.4364  190.3169 H   0  0  0  0  0  0
   25.2145   64.5125  191.3895 H   0  0  0  0  0  0
   24.3824   63.7149  190.0118 H   0  0  0  0  0  0
   25.9691   63.0959  190.5829 H   0  0  0  0  0  0
   22.0881   64.4627  190.2918 H   0  0  0  0  0  0
   19.4579   63.1963  190.4993 H   0  0  0  0  0  0
   20.8130   64.7468  188.2165 H   0  0  0  0  0  0
   19.0981   64.2164  188.1512 H   0  0  0  0  0  0
   20.1211   67.4908  190.4241 H   0  0  0  0  0  0
   22.3368   62.6499  188.4073 H   0  0  0  0  0  0
   21.3034   59.8679  188.0468 H   0  0  0  0  0  0
   20.1670   61.1783  186.1875 H   0  0  0  0  0  0
   21.7893   61.6367  185.5673 H   0  0  0  0  0  0
   22.2836   59.3805  184.9709 H   0  0  0  0  0  0
   20.8200   58.7714  185.8157 H   0  0  0  0  0  0
   19.3884   60.0310  184.2294 H   0  0  0  0  0  0
   20.8570   60.6187  183.3783 H   0  0  0  0  0  0
   19.8970   58.6930  182.1969 H   0  0  0  0  0  0
   21.4941   58.2592  182.8953 H   0  0  0  0  0  0
   19.8575   56.4867  183.2268 H   0  0  0  0  0  0
   18.7801   57.6337  184.0929 H   0  0  0  0  0  0
   20.3772   57.1999  184.7914 H   0  0  0  0  0  0
   22.8776   58.3662  187.8007 H   0  0  0  0  0  0
   25.5234   59.5067  186.8871 H   0  0  0  0  0  0
   25.7708   59.5595  189.3308 H   0  0  0  0  0  0
   23.9271   58.0011  189.8657 H   0  0  0  0  0  0
   25.4360   57.6099  190.7583 H   0  0  0  0  0  0
   24.9515   56.6233  189.3376 H   0  0  0  0  0  0
   27.7341   58.7705  188.0330 H   0  0  0  0  0  0
   27.1882   57.0745  188.2614 H   0  0  0  0  0  0
   27.6728   58.0611  189.6821 H   0  0  0  0  0  0
   26.6417   58.2525  185.5149 H   0  0  0  0  0  0
   25.7185   55.3461  185.4745 H   0  0  0  0  0  0
   26.6257   57.0262  183.0627 H   0  0  0  0  0  0
   27.3701   54.6706  182.9291 H   0  0  0  0  0  0
   26.1032   55.0536  181.7147 H   0  0  0  0  0  0
   25.6780   54.1300  183.1955 H   0  0  0  0  0  0
   24.3546   57.5678  183.8703 H   0  0  0  0  0  0
   23.9058   55.8328  183.7487 H   0  0  0  0  0  0
   24.3310   56.7564  182.2678 H   0  0  0  0  0  0
   27.2517   53.9136  185.9154 H   0  0  0  0  0  0
   30.0266   55.0718  186.0119 H   0  0  0  0  0  0
   28.9976   52.3456  187.0429 H   0  0  0  0  0  0
   27.8736   54.2935  188.1264 H   0  0  0  0  0  0
   28.9063   53.3645  189.2654 H   0  0  0  0  0  0
   31.4348   52.3988  186.6611 H   0  0  0  0  0  0
   31.0227   52.2749  188.4051 H   0  0  0  0  0  0
   31.5627   53.8448  187.7191 H   0  0  0  0  0  0
   29.1118   55.7601  189.6166 H   0  0  0  0  0  0
   29.6302   55.9823  187.9112 H   0  0  0  0  0  0
   30.6630   55.0533  189.0501 H   0  0  0  0  0  0
   31.7556   54.4205  184.8063 H   0  0  0  0  0  0
   31.1680   52.3803  182.6679 H   0  0  0  0  0  0
   32.6205   54.4001  182.2878 H   0  0  0  0  0  0
   33.8276   53.6924  183.4142 H   0  0  0  0  0  0
   34.6346   54.4156  180.9193 H   0  0  0  0  0  0
   34.9206   52.8344  179.8955 H   0  0  0  0  0  0
   32.5297   49.3851  185.7568 H   0  0  0  0  0  0
   31.6317   47.1179  184.4478 H   0  0  0  0  0  0
   30.4668   48.2351  185.2362 H   0  0  0  0  0  0
   31.2858   48.0370  182.3250 H   0  0  0  0  0  0
   29.6429   48.2089  183.0304 H   0  0  0  0  0  0
   29.9013   50.5385  183.3633 H   0  0  0  0  0  0
   31.0842   50.3697  182.0220 H   0  0  0  0  0  0
   33.6023   50.0060  182.6144 H   0  0  0  0  0  0
   35.6646   47.8014  183.0306 H   0  0  0  0  0  0
   34.8340   49.2017  180.4144 H   0  0  0  0  0  0
   36.0256   47.8643  180.5490 H   0  0  0  0  0  0
   35.0100   45.7327  181.8917 H   0  0  0  0  0  0
   32.7351   48.6323  179.7237 H   0  0  0  0  0  0
   33.1775   44.0990  181.6266 H   0  0  0  0  0  0
   30.9065   47.0064  179.4544 H   0  0  0  0  0  0
   31.0026   43.5451  180.7945 H   0  0  0  0  0  0
   35.4017   50.7318  183.9753 H   0  0  0  0  0  0
   37.4918   52.1866  182.5872 H   0  0  0  0  0  0
   35.9708   53.2999  184.1638 H   0  0  0  0  0  0
   36.5860   52.3014  185.5244 H   0  0  0  0  0  0
   37.7812   54.7545  182.9515 H   0  0  0  0  0  0
   38.1823   53.1812  186.9078 H   0  0  0  0  0  0
   39.4447   56.5000  183.4762 H   0  0  0  0  0  0
   39.8482   54.9236  187.4337 H   0  0  0  0  0  0
   40.4851   56.5841  185.7159 H   0  0  0  0  0  0
   39.6344   52.1889  182.5368 H   0  0  0  0  0  0
   41.8345   51.6131  183.2876 H   0  0  0  0  0  0
   41.1669   50.8959  184.7932 H   0  0  0  0  0  0
   42.0483   47.6881  183.4220 H   0  0  0  0  0  0
  1  2  1  0  0  0
  1 90  1  0  0  0
  1 91  1  0  0  0
  1 92  1  0  0  0
  2  3  1  0  0  0
  2  5  1  0  0  0
  2 93  1  0  0  0
  3  4  2  0  0  0
  3  8  1  0  0  0
  5  6  1  0  0  0
  5  7  1  0  0  0
  5 94  1  0  0  0
  6 95  1  0  0  0
  6 96  1  0  0  0
  6 97  1  0  0  0
  7 98  1  0  0  0
  7 99  1  0  0  0
  7100  1  0  0  0
  8  9  1  0  0  0
  8101  1  0  0  0
  9 10  1  0  0  0
  9 12  1  0  0  0
  9102  1  0  0  0
 10 11  2  0  0  0
 10 16  1  0  0  0
 12 13  1  0  0  0
 12103  1  0  0  0
 12104  1  0  0  0
 13 14  1  0  0  0
 13 15  2  0  0  0
 14105  1  0  0  0
 16 17  1  0  0  0
 16106  1  0  0  0
 17 18  1  0  0  0
 17 20  1  0  0  0
 17107  1  0  0  0
 18 19  2  0  0  0
 18 25  1  0  0  0
 20 21  1  0  0  0
 20108  1  0  0  0
 20109  1  0  0  0
 21 22  1  0  0  0
 21110  1  0  0  0
 21111  1  0  0  0
 22 23  1  0  0  0
 22112  1  0  0  0
 22113  1  0  0  0
 23 24  1  0  0  0
 23114  1  0  0  0
 23115  1  0  0  0
 24116  1  0  0  0
 24117  1  0  0  0
 24118  1  0  0  0
 25 26  1  0  0  0
 25119  1  0  0  0
 26 27  1  0  0  0
 26 29  1  0  0  0
 26120  1  0  0  0
 27 28  2  0  0  0
 27 32  1  0  0  0
 29 30  1  0  0  0
 29 31  1  0  0  0
 29121  1  0  0  0
 30122  1  0  0  0
 30123  1  0  0  0
 30124  1  0  0  0
 31125  1  0  0  0
 31126  1  0  0  0
 31127  1  0  0  0
 32 33  1  0  0  0
 32128  1  0  0  0
 33 34  1  0  0  0
 33 36  1  0  0  0
 33129  1  0  0  0
 34 35  2  0  0  0
 34 39  1  0  0  0
 36 37  1  0  0  0
 36 38  1  0  0  0
 36130  1  0  0  0
 37131  1  0  0  0
 37132  1  0  0  0
 37133  1  0  0  0
 38134  1  0  0  0
 38135  1  0  0  0
 38136  1  0  0  0
 39 40  1  0  0  0
 39137  1  0  0  0
 40 41  1  0  0  0
 40 43  1  0  0  0
 40138  1  0  0  0
 41 42  2  0  0  0
 41 47  1  0  0  0
 43 44  1  0  0  0
 43 45  1  0  0  0
 43139  1  0  0  0
 44 46  1  0  0  0
 44140  1  0  0  0
 44141  1  0  0  0
 45142  1  0  0  0
 45143  1  0  0  0
 45144  1  0  0  0
 46145  1  0  0  0
 46146  1  0  0  0
 46147  1  0  0  0
 47 48  1  0  0  0
 47148  1  0  0  0
 48 49  1  0  0  0
 48 51  1  0  0  0
 48149  1  0  0  0
 49 50  2  0  0  0
 49 55  1  0  0  0
 51 52  1  0  0  0
 51150  1  0  0  0
 51151  1  0  0  0
 52 53  2  0  0  0
 52 54  1  0  0  0
 54152  1  0  0  0
 54153  1  0  0  0
 55 56  1  0  0  0
 55 61  1  0  0  0
 56 57  1  0  0  0
 56 59  1  0  0  0
 56154  1  0  0  0
 57 58  2  0  0  0
 57 62  1  0  0  0
 59 60  1  0  0  0
 59155  1  0  0  0
 59156  1  0  0  0
 60 61  1  0  0  0
 60157  1  0  0  0
 60158  1  0  0  0
 61159  1  0  0  0
 61160  1  0  0  0
 62 63  1  0  0  0
 62161  1  0  0  0
 63 64  1  0  0  0
 63 66  1  0  0  0
 63162  1  0  0  0
 64 65  2  0  0  0
 64 74  1  0  0  0
 66 67  1  0  0  0
 66163  1  0  0  0
 66164  1  0  0  0
 67 68  2  0  0  0
 67 69  1  0  0  0
 68 70  1  0  0  0
 68165  1  0  0  0
 69 71  2  0  0  0
 69166  1  0  0  0
 70 72  2  0  0  0
 70167  1  0  0  0
 71 72  1  0  0  0
 71168  1  0  0  0
 72 73  1  0  0  0
 73169  1  0  0  0
 74 75  1  0  0  0
 74170  1  0  0  0
 75 76  1  0  0  0
 75 78  1  0  0  0
 75171  1  0  0  0
 76 77  2  0  0  0
 76 85  1  0  0  0
 78 79  1  0  0  0
 78172  1  0  0  0
 78173  1  0  0  0
 79 80  2  0  0  0
 79 81  1  0  0  0
 80 82  1  0  0  0
 80174  1  0  0  0
 81 83  2  0  0  0
 81175  1  0  0  0
 82 84  2  0  0  0
 82176  1  0  0  0
 83 84  1  0  0  0
 83177  1  0  0  0
 84178  1  0  0  0
 85 86  1  0  0  0
 85179  1  0  0  0
 86 87  1  0  0  0
 86180  1  0  0  0
 86181  1  0  0  0
 87 88  2  0  0  0
 87 89  1  0  0  0
 89182  1  0  0  0
M  CHG  2   1   1  24   1
M  END
> <s_m_source_file>
../4wj7_ligand.sdf

> <i_m_source_file_index>
1

> <s_epik_input>
W0NIM11bQ0hdKFtDSDNdKVtDQEhdKFtOSDMrXSlDKD1PKVtOSF1bQ0BASF0oW0NIMl1DKD1PKVtPSF0pQyg9TylbTkhdW0NAQEhdKFtDSDJdW0NIMl1bQ0gyXVtDSDJdW05IMytdKUMoPU8pW05IXVtDQEBIXShbQ0hdKFtDSDNdKVtDSDNdKUMoPU8pW05IXVtDQEBIXShbQ0hdKFtDSDNdKVtDSDNdKUMoPU8pW05IXVtDQEBIXShbQ0BASF0oW0NIM10pW0NIMl1bQ0gzXSlDKD1PKVtOSF1bQ0BASF0oW0NIMl1DKD1PKVtOSDJdKUMoPU8pTjFbQ0BASF0oW0NIMl1bQ0gyXVtDSDJdMSlDKD1PKVtOSF1bQ0BASF0oW0NIMl1jMltjSF1bY0hdYyhbT0hdKVtjSF1bY0hdMilDKD1PKVtOSF1bQ0BIXShDKD1PKVtOSF1bQ0gyXUMoPU8pW09IXSlbQ0gyXWMzW2NIXVtjSF1bY0hdW2NIXVtjSF0z

> <s_epik_cmdline>
J2VwaWtfYXBwJywgJy1pbWFlJywgJ2xpZ2FuZF9wcm8ubWFlJywgJy1vbWFlJywgJ2xpZ2FuZF9wcmVwLm1hZScsICctbXMnLCAnMScsICctcGgnLCAnNycsICctcGh0JywgJzAuNScsICctbnQn

> <s_epik_pKa_notes>
Molecule size exceeds maximum supported for generating protonation states

$$$$
