4wk1_ligand
                    3D
 Schrodinger Suite 2020-3.
 66 72  0  0  1  0            999 V2000
   14.2380  -28.8170   12.4460 P   0  0  1  0  0  0
   14.8480  -29.2450   11.1400 O   0  0  0  0  0  0
   13.5950  -27.4050   12.1870 O   0  5  0  0  0  0
   13.1680  -29.9470   12.7910 O   0  0  0  0  0  0
   12.3660  -29.7820   13.9380 C   0  0  0  0  0  0
   11.5180  -31.0560   14.0760 C   0  0  1  0  0  0
   10.8440  -31.1710   12.9270 O   0  0  0  0  0  0
   12.4170  -32.2640   14.1970 C   0  0  1  0  0  0
   12.6810  -32.5410   15.5230 O   0  0  0  0  0  0
   11.4720  -33.3470   13.5460 C   0  0  1  0  0  0
   10.5860  -33.8690   14.5750 O   0  0  0  0  0  0
   10.7630  -32.7430   12.6270 C   0  0  2  0  0  0
   11.2290  -33.0640   11.3190 N   0  0  0  0  0  0
   12.1160  -32.1740   10.8130 C   0  0  0  0  0  0
   12.4900  -32.6030    9.5600 N   0  0  0  0  0  0
   11.8160  -33.7740    9.3180 C   0  0  0  0  0  0
   11.7870  -34.6800    8.2250 C   0  0  0  0  0  0
   12.4520  -34.7030    6.9690 N   0  0  0  0  0  0
   11.0160  -35.7640    8.2720 N   0  0  0  0  0  0
   10.2440  -36.0220    9.3630 C   0  0  0  0  0  0
   10.2620  -35.1500   10.4440 N   0  0  0  0  0  0
   11.0450  -34.0370   10.3830 C   0  0  0  0  0  0
   14.1740  -33.0660   15.8580 P   0  0  2  0  0  0
   14.3710  -34.3840   15.1230 O   0  0  0  0  0  0
   14.4560  -33.3460   17.3280 O   0  5  0  0  0  0
   15.2150  -31.9770   15.1050 O   0  0  0  0  0  0
   15.6240  -30.9450   15.9650 C   0  0  0  0  0  0
   16.6730  -30.1200   15.2730 C   0  0  1  0  0  0
   17.8190  -30.7130   15.3350 O   0  0  0  0  0  0
   16.3450  -29.8880   13.6540 C   0  0  1  0  0  0
   15.5380  -28.6670   13.4880 O   0  0  0  0  0  0
   17.4840  -29.7410   13.1150 C   0  0  1  0  0  0
   17.9480  -28.3090   13.2660 O   0  0  0  0  0  0
   18.4900  -30.6210   13.9570 C   0  0  2  0  0  0
   18.6920  -31.8300   13.4580 N   0  0  0  0  0  0
   17.8390  -32.8730   13.2930 C   0  0  0  0  0  0
   18.5470  -33.9070   12.7550 N   0  0  0  0  0  0
   19.8420  -33.4960   12.5980 C   0  0  0  0  0  0
   20.9780  -34.1520   12.0980 C   0  0  0  0  0  0
   20.9750  -35.5150   11.6130 N   0  0  0  0  0  0
   22.1750  -33.4980   12.0530 N   0  0  0  0  0  0
   22.2640  -32.2070   12.4970 C   0  0  0  0  0  0
   21.1460  -31.5640   12.9850 N   0  0  0  0  0  0
   19.9350  -32.2210   13.0370 C   0  0  0  0  0  0
   13.0101  -29.6450   14.8191 H   0  0  0  0  0  0
   11.7238  -28.8979   13.8123 H   0  0  0  0  0  0
   10.7735  -31.0220   14.8850 H   0  0  0  0  0  0
   13.4508  -32.1645   13.8345 H   0  0  0  0  0  0
   11.9375  -34.1814   13.0010 H   0  0  0  0  0  0
   11.0028  -34.4121   15.4360 H   0  0  0  0  0  0
    9.7871  -33.2457   12.6962 H   0  0  0  0  0  0
   12.4723  -31.2730   11.3124 H   0  0  0  0  0  0
   13.1512  -33.8968    6.7020 H   0  0  0  0  0  0
   12.2675  -35.5270    6.2640 H   0  0  0  0  0  0
    9.6133  -36.9106    9.3883 H   0  0  0  0  0  0
   14.7597  -30.3125   16.2157 H   0  0  0  0  0  0
   16.0404  -31.3787   16.8861 H   0  0  0  0  0  0
   16.8440  -29.2421   15.9133 H   0  0  0  0  0  0
   15.8914  -30.6688   13.0258 H   0  0  0  0  0  0
   17.2591  -30.0162   12.0740 H   0  0  0  0  0  0
   17.4002  -27.4976   12.7646 H   0  0  0  0  0  0
   19.5475  -30.3192   13.9305 H   0  0  0  0  0  0
   16.7786  -32.8824   13.5452 H   0  0  0  0  0  0
   20.0433  -36.0996   11.6211 H   0  0  0  0  0  0
   21.9045  -35.9667   11.2361 H   0  0  0  0  0  0
   23.2207  -31.6856   12.4649 H   0  0  0  0  0  0
  1  2  2  0  0  0
  1  3  1  0  0  0
  1  4  1  0  0  0
  1 31  1  0  0  0
  4  5  1  0  0  0
  5  6  1  0  0  0
  5 45  1  0  0  0
  5 46  1  0  0  0
  6  7  1  0  0  0
  6  8  1  0  0  0
  6 47  1  0  0  0
  7 12  1  0  0  0
  8  9  1  0  0  0
  8 10  1  0  0  0
  8 48  1  0  0  0
  9 23  1  0  0  0
 10 11  1  0  0  0
 10 12  1  0  0  0
 10 49  1  0  0  0
 11 50  1  0  0  0
 12 13  1  0  0  0
 12 51  1  0  0  0
 13 14  1  0  0  0
 13 22  1  0  0  0
 14 15  2  0  0  0
 14 52  1  0  0  0
 15 16  1  0  0  0
 16 17  2  0  0  0
 16 22  1  0  0  0
 17 18  1  0  0  0
 17 19  1  0  0  0
 18 53  1  0  0  0
 18 54  1  0  0  0
 19 20  2  0  0  0
 20 21  1  0  0  0
 20 55  1  0  0  0
 21 22  2  0  0  0
 23 24  2  0  0  0
 23 25  1  0  0  0
 23 26  1  0  0  0
 26 27  1  0  0  0
 27 28  1  0  0  0
 27 56  1  0  0  0
 27 57  1  0  0  0
 28 29  1  0  0  0
 28 30  1  0  0  0
 28 58  1  0  0  0
 29 34  1  0  0  0
 30 31  1  0  0  0
 30 32  1  0  0  0
 30 59  1  0  0  0
 32 33  1  0  0  0
 32 34  1  0  0  0
 32 60  1  0  0  0
 33 61  1  0  0  0
 34 35  1  0  0  0
 34 62  1  0  0  0
 35 36  1  0  0  0
 35 44  1  0  0  0
 36 37  2  0  0  0
 36 63  1  0  0  0
 37 38  1  0  0  0
 38 39  2  0  0  0
 38 44  1  0  0  0
 39 40  1  0  0  0
 39 41  1  0  0  0
 40 64  1  0  0  0
 40 65  1  0  0  0
 41 42  2  0  0  0
 42 43  1  0  0  0
 42 66  1  0  0  0
 43 44  2  0  0  0
M  CHG  2   3  -1  25  -1
M  END
> <s_m_source_file>
../4wk1_ligand.sdf

> <i_m_source_file_index>
1

> <s_epik_input>
W05IMl1jMW5bY0hdbmMoYzEyKW4oW2NIXW4yKVtDQEhdKE8zKVtDQEhdKFtPSF0pW0NASF0oT1tQQF0oPU8pKFtPSF0pT1tDSDJdNClbQ0BIXTNbQ0gyXU9bUEBAXSg9TykoW09IXSlPW0NASF0oW0NAQEhdNDUpW0NAQEhdKFtPSF0pW0NAQEhdKE81KW4oW2NIXW42KWMoYzY3KW5bY0hdbmM3W05IMl0=

> <s_epik_cmdline>
J2VwaWtfYXBwJywgJy1pbWFlJywgJ2xpZ2FuZF9wcm8ubWFlJywgJy1vbWFlJywgJ2xpZ2FuZF9wcmVwLm1hZScsICctbXMnLCAnMScsICctcGgnLCAnNycsICctcGh0JywgJzAuNScsICctbnQn

> <r_lp_tautomer_probability>
1

> <r_epik_Ionization_Penalty>
  0.0014

> <r_epik_Ionization_Penalty_Charging>
  0.0004

> <r_epik_Ionization_Penalty_Neutral>
  0.0010

> <r_epik_State_Penalty>
 -0.0000

> <r_epik_Charging_Adjusted_Penalty>
0.000413092635651292

> <i_epik_Tot_Q>
-2

> <i_epik_Tot_abs_Q>
2

> <s_epik_Chemistry_Notes>
This compound contains an acetal/aminal-like group ( X-CH(R)-Y where X, Y are N, S, or O) that may be acid/base labile, releasing an aldehyde.

$$$$
