4wk2_ligand
                    3D
 Schrodinger Suite 2020-3.
 78 78  0  0  1  0            999 V2000
   27.6620   13.2040  -19.5390 N   0  3  0  0  0  0
   26.8670   13.4450  -20.7290 C   0  0  0  0  0  0
   25.9270   12.2930  -21.0290 C   0  0  0  0  0  0
   26.1230   11.5580  -21.9980 O   0  0  0  0  0  0
   24.9040   12.1400  -20.1920 N   0  0  0  0  0  0
   23.9260   11.0690  -20.3440 C   0  0  2  0  0  0
   22.6160   11.6210  -20.8950 C   0  0  0  0  0  0
   22.2470   12.7630  -20.6150 O   0  0  0  0  0  0
   23.6920   10.3690  -19.0050 C   0  0  0  0  0  0
   24.9800    9.9970  -18.2860 C   0  0  0  0  0  0
   24.7280    9.1240  -17.0690 C   0  0  0  0  0  0
   24.2510    7.7940  -17.4340 N   0  0  0  0  0  0
   24.1810    6.7650  -16.5950 C   0  0  0  0  0  0
   24.5650    6.9030  -15.3320 N   0  0  0  0  0  0
   23.7320    5.5930  -17.0200 N   0  3  0  0  0  0
   21.9160   10.8060  -21.6780 N   0  0  0  0  0  0
   20.7030   11.2460  -22.3390 C   0  0  0  0  0  0
   21.0170   12.3290  -23.3510 C   0  0  0  0  0  0
   22.1310   12.3930  -23.8730 O   0  0  0  0  0  0
   20.0390   13.1840  -23.6300 N   0  0  0  0  0  0
   20.2330   14.2870  -24.5630 C   0  0  2  0  0  0
   20.8730   15.4800  -23.8630 C   0  0  0  0  0  0
   20.1830   16.4000  -23.4230 O   0  0  0  0  0  0
   18.9030   14.7000  -25.1940 C   0  0  0  0  0  0
   19.0580   15.8340  -26.1840 C   0  0  0  0  0  0
   20.1440   15.9520  -26.7870 O   0  0  0  0  0  0
   18.0940   16.6070  -26.3630 O   0  5  0  0  0  0
   22.1970   15.4520  -23.7600 N   0  0  0  0  0  0
   22.9440   16.5400  -23.1450 C   0  0  2  0  0  0
   24.3430   16.6190  -23.7470 C   0  0  0  0  0  0
   24.8440   15.6280  -24.2780 O   0  0  0  0  0  0
   23.0300   16.3470  -21.6300 C   0  0  0  0  0  0
   23.8420   15.2330  -21.3050 O   0  0  0  0  0  0
   24.9810   17.8000  -23.6700 N   0  0  0  0  0  0
   26.3300   17.9320  -24.2300 C   0  0  2  0  0  0
   27.3500   17.0720  -23.4870 C   0  0  0  0  0  0
   27.3010   16.9460  -22.2630 O   0  0  0  0  0  0
   26.6440   19.4250  -24.0550 C   0  0  0  0  0  0
   25.3270   20.0840  -23.8220 C   0  0  0  0  0  0
   24.4950   19.0730  -23.1120 C   0  0  0  0  0  0
   28.2460   16.4830  -24.0930 O   0  5  0  0  0  0
   28.3261   14.0628  -19.3616 H   0  0  0  0  0  0
   28.2665   12.2958  -19.6796 H   0  0  0  0  0  0
   26.9959   13.0707  -18.6738 H   0  0  0  0  0  0
   26.2625   14.3532  -20.5884 H   0  0  0  0  0  0
   27.5331   13.5783  -21.5942 H   0  0  0  0  0  0
   24.8103   12.8568  -19.3629 H   0  0  0  0  0  0
   24.3602   10.3609  -21.0651 H   0  0  0  0  0  0
   23.1213   11.0329  -18.3390 H   0  0  0  0  0  0
   23.1256    9.4407  -19.1706 H   0  0  0  0  0  0
   25.6366    9.4430  -18.9730 H   0  0  0  0  0  0
   25.4896   10.9120  -17.9497 H   0  0  0  0  0  0
   25.6629    9.0078  -16.5012 H   0  0  0  0  0  0
   23.9673    9.5964  -16.4301 H   0  0  0  0  0  0
   23.9189    7.5920  -18.4630 H   0  0  0  0  0  0
   24.9386    7.8736  -14.9736 H   0  0  0  0  0  0
   24.5097    6.0468  -14.6436 H   0  0  0  0  0  0
   23.4124    5.4728  -18.0657 H   0  0  0  0  0  0
   22.2768    9.7765  -21.8190 H   0  0  0  0  0  0
   20.2385   10.3944  -22.8577 H   0  0  0  0  0  0
   20.0025   11.6462  -21.5913 H   0  0  0  0  0  0
   19.0650   13.0445  -23.1382 H   0  0  0  0  0  0
   20.9141   13.8995  -25.3350 H   0  0  0  0  0  0
   18.4682   13.8420  -25.7276 H   0  0  0  0  0  0
   18.2104   15.0309  -24.4061 H   0  0  0  0  0  0
   22.7291   14.5743  -24.1557 H   0  0  0  0  0  0
   22.3809   17.4572  -23.3724 H   0  0  0  0  0  0
   23.4650   17.2465  -21.1699 H   0  0  0  0  0  0
   22.0216   16.1786  -21.2240 H   0  0  0  0  0  0
   24.0048   14.9596  -20.2520 H   0  0  0  0  0  0
   26.3406   17.5789  -25.2717 H   0  0  0  0  0  0
   27.3183   19.5597  -23.1964 H   0  0  0  0  0  0
   27.1290   19.8069  -24.9655 H   0  0  0  0  0  0
   25.4717   20.9863  -23.2096 H   0  0  0  0  0  0
   24.8811   20.3640  -24.7878 H   0  0  0  0  0  0
   23.4215   19.1811  -23.3260 H   0  0  0  0  0  0
   24.6545   19.0810  -22.0237 H   0  0  0  0  0  0
   23.6789    4.7403  -16.3272 H   0  0  0  0  0  0
  1  2  1  0  0  0
  1 42  1  0  0  0
  1 43  1  0  0  0
  1 44  1  0  0  0
  2  3  1  0  0  0
  2 45  1  0  0  0
  2 46  1  0  0  0
  3  4  2  0  0  0
  3  5  1  0  0  0
  5  6  1  0  0  0
  5 47  1  0  0  0
  6  7  1  0  0  0
  6  9  1  0  0  0
  6 48  1  0  0  0
  7  8  2  0  0  0
  7 16  1  0  0  0
  9 10  1  0  0  0
  9 49  1  0  0  0
  9 50  1  0  0  0
 10 11  1  0  0  0
 10 51  1  0  0  0
 10 52  1  0  0  0
 11 12  1  0  0  0
 11 53  1  0  0  0
 11 54  1  0  0  0
 12 13  1  0  0  0
 12 55  1  0  0  0
 13 14  1  0  0  0
 13 15  2  0  0  0
 14 56  1  0  0  0
 14 57  1  0  0  0
 15 58  1  0  0  0
 15 78  1  0  0  0
 16 17  1  0  0  0
 16 59  1  0  0  0
 17 18  1  0  0  0
 17 60  1  0  0  0
 17 61  1  0  0  0
 18 19  2  0  0  0
 18 20  1  0  0  0
 20 21  1  0  0  0
 20 62  1  0  0  0
 21 22  1  0  0  0
 21 24  1  0  0  0
 21 63  1  0  0  0
 22 23  2  0  0  0
 22 28  1  0  0  0
 24 25  1  0  0  0
 24 64  1  0  0  0
 24 65  1  0  0  0
 25 26  2  0  0  0
 25 27  1  0  0  0
 28 29  1  0  0  0
 28 66  1  0  0  0
 29 30  1  0  0  0
 29 32  1  0  0  0
 29 67  1  0  0  0
 30 31  2  0  0  0
 30 34  1  0  0  0
 32 33  1  0  0  0
 32 68  1  0  0  0
 32 69  1  0  0  0
 33 70  1  0  0  0
 34 35  1  0  0  0
 34 40  1  0  0  0
 35 36  1  0  0  0
 35 38  1  0  0  0
 35 71  1  0  0  0
 36 37  2  0  0  0
 36 41  1  0  0  0
 38 39  1  0  0  0
 38 72  1  0  0  0
 38 73  1  0  0  0
 39 40  1  0  0  0
 39 74  1  0  0  0
 39 75  1  0  0  0
 40 76  1  0  0  0
 40 77  1  0  0  0
M  CHG  4   1   1  15   1  27  -1  41  -1
M  END
> <s_m_source_file>
../4wk2_ligand.sdf

> <i_m_source_file_index>
1

> <s_epik_input>
W0hdL049QyhbTkgyXSlcW05IXVtDSDJdW0NIMl1bQ0gyXVtDQEhdKFtOSF1DKD1PKVtDSDJdW05IMytdKUMoPU8pW05IXVtDSDJdQyg9TylbTkhdW0NAQEhdKFtDSDJdQyg9TylbT0hdKUMoPU8pW05IXVtDQEBIXShbQ0gyXVtPSF0pQyg9TylOMVtDQEhdKEMoPU8pW09IXSlbQ0gyXVtDSDJdW0NIMl0x

> <s_epik_cmdline>
J2VwaWtfYXBwJywgJy1pbWFlJywgJ2xpZ2FuZF9wcm8ubWFlJywgJy1vbWFlJywgJ2xpZ2FuZF9wcmVwLm1hZScsICctbXMnLCAnMScsICctcGgnLCAnNycsICctcGh0JywgJzAuNScsICctbnQn

> <r_epik_Ionization_Penalty>
  0.1267

> <r_epik_Ionization_Penalty_Charging>
  0.1267

> <r_epik_Ionization_Penalty_Neutral>
  0.0000

> <r_epik_State_Penalty>
  0.1145

> <r_epik_Charging_Adjusted_Penalty>
0.241262756008667

> <i_epik_Tot_Q>
0

> <i_epik_Tot_abs_Q>
4

> <s_epik_Chemistry_Notes>
This compound has an imine and may undergo hydrolysis.

$$$$
