4wk7_ligand
                    3D
 Schrodinger Suite 2020-3.
 35 36  0  0  1  0            999 V2000
   -8.4350    5.3180   24.0190 C   0  0  0  0  0  0
  -10.1970    4.5250   25.5150 C   0  0  0  0  0  0
   -7.2140    5.7270   24.4580 N   0  0  0  0  0  0
   -8.8620    4.1820   24.8950 C   0  0  1  0  0  0
   -6.8000    5.0540   25.5620 C   0  0  0  0  0  0
   -3.4170    0.6430   21.9340 C   0  0  0  0  0  0
   -4.2130    2.1890   20.3020 C   0  0  0  0  0  0
   -2.3340    0.3590   21.1250 C   0  0  0  0  0  0
   -3.1310    1.9050   19.4980 C   0  0  0  0  0  0
   -5.5900    1.2230   23.4880 C   0  0  0  0  0  0
   -8.9320    2.9250   24.0490 C   0  0  0  0  0  0
   -4.3600    1.5630   21.5200 C   0  0  0  0  0  0
   -2.1870    0.9880   19.9070 C   0  0  0  0  0  0
   -6.8590    1.6520   24.1860 C   0  0  0  0  0  0
   -7.7970    4.1680   25.8690 N   0  0  0  0  0  0
   -7.6420    2.5610   23.5130 N   0  0  0  0  0  0
   -9.0740    5.7700   23.0820 O   0  0  0  0  0  0
   -5.7340    5.2270   26.1350 O   0  0  0  0  0  0
   -7.1580    1.2110   25.2850 O   0  0  0  0  0  0
   -5.4880    1.9250   22.2530 O   0  0  0  0  0  0
   -0.8330    0.6350   18.8830 Cl  0  0  0  0  0  0
  -10.9741    4.5232   24.7365 H   0  0  0  0  0  0
  -10.1419    5.5223   25.9758 H   0  0  0  0  0  0
  -10.4466    3.7791   26.2840 H   0  0  0  0  0  0
   -6.6765    6.5247   23.9244 H   0  0  0  0  0  0
   -3.5269    0.1426   22.8961 H   0  0  0  0  0  0
   -4.9574    2.9137   19.9722 H   0  0  0  0  0  0
   -1.5902   -0.3677   21.4519 H   0  0  0  0  0  0
   -3.0213    2.4065   18.5365 H   0  0  0  0  0  0
   -4.7241    1.4586   24.1241 H   0  0  0  0  0  0
   -5.6231    0.1397   23.3002 H   0  0  0  0  0  0
   -9.2966    2.0890   24.6640 H   0  0  0  0  0  0
   -9.6203    3.0879   23.2065 H   0  0  0  0  0  0
   -7.8527    3.4922   26.7352 H   0  0  0  0  0  0
   -7.2908    3.0098   22.5721 H   0  0  0  0  0  0
  1  3  1  0  0  0
  1  4  1  0  0  0
  1 17  2  0  0  0
  2  4  1  0  0  0
  2 22  1  0  0  0
  2 23  1  0  0  0
  2 24  1  0  0  0
  3  5  1  0  0  0
  3 25  1  0  0  0
  4 11  1  0  0  0
  4 15  1  0  0  0
  5 15  1  0  0  0
  5 18  2  0  0  0
  6  8  2  0  0  0
  6 12  1  0  0  0
  6 26  1  0  0  0
  7  9  1  0  0  0
  7 12  2  0  0  0
  7 27  1  0  0  0
  8 13  1  0  0  0
  8 28  1  0  0  0
  9 13  2  0  0  0
  9 29  1  0  0  0
 10 14  1  0  0  0
 10 20  1  0  0  0
 10 30  1  0  0  0
 10 31  1  0  0  0
 11 16  1  0  0  0
 11 32  1  0  0  0
 11 33  1  0  0  0
 12 20  1  0  0  0
 13 21  1  0  0  0
 14 16  1  0  0  0
 14 19  2  0  0  0
 15 34  1  0  0  0
 16 35  1  0  0  0
M  END
> <s_m_source_file>
../4wk7_ligand.sdf

> <i_m_source_file_index>
1

> <s_epik_input>
W05IXTFDKD1PKVtOSF1DKD1PKVtDQEBdMShbQ0gzXSlbQ0gyXVtOSF1DKD1PKVtDSDJdT2MyW2NIXVtjSF1jKENsKVtjSF1bY0hdMg==

> <s_epik_cmdline>
J2VwaWtfYXBwJywgJy1pbWFlJywgJ2xpZ2FuZF9wcm8ubWFlJywgJy1vbWFlJywgJ2xpZ2FuZF9wcmVwLm1hZScsICctbXMnLCAnMScsICctcGgnLCAnNycsICctcGh0JywgJzAuNScsICctbnQn

> <r_lp_tautomer_probability>
0.99999999978137

> <r_epik_Ionization_Penalty>
  0.0156

> <r_epik_Ionization_Penalty_Charging>
  0.0000

> <r_epik_Ionization_Penalty_Neutral>
  0.0156

> <r_epik_State_Penalty>
  0.0122

> <r_epik_Charging_Adjusted_Penalty>
0.0122185538083597

> <i_epik_Tot_Q>
0

> <i_epik_Tot_abs_Q>
0

$$$$
