4wkb_ligand
                    3D
 Schrodinger Suite 2020-3.
 39 41  0  0  1  0            999 V2000
   14.7240   -6.7530   19.1230 C   0  0  0  0  0  0
   12.9990   -7.6870   20.3370 C   0  0  0  0  0  0
   13.7960   -8.8820   20.5720 C   0  0  0  0  0  0
   15.1360   -8.8840   20.0250 C   0  0  0  0  0  0
    8.7900   -9.6320   14.9250 C   0  0  0  0  0  0
   10.0120   -8.4120   15.2510 S   0  0  0  0  0  0
   10.1510   -8.4870   17.0080 C   0  0  0  0  0  0
    9.0800   -7.6910   17.7560 C   0  0  1  0  0  0
    9.1320   -8.0240   19.2540 C   0  0  0  0  0  0
    9.6520   -6.7900   19.9080 N   0  0  1  0  0  0
   10.5180   -7.0180   21.0860 C   0  0  0  0  0  0
   11.7070   -7.9270   20.9560 C   0  0  0  0  0  0
   11.8230   -9.1690   21.5470 C   0  0  0  0  0  0
   13.0450   -9.7110   21.3090 N   0  3  0  0  0  0
   15.9460   -9.9510   20.2070 N   0  0  0  0  0  0
   15.5430   -7.8240   19.3210 N   0  0  0  0  0  0
   13.4710   -6.6490   19.6010 N   0  0  0  0  0  0
   10.2960   -5.9770   18.8370 C   0  0  0  0  0  0
    9.3270   -6.1950   17.6890 C   0  0  2  0  0  0
    8.0700   -5.5400   17.9470 O   0  0  0  0  0  0
   15.1120   -5.9211   18.5352 H   0  0  0  0  0  0
    8.6064   -9.6868   13.8418 H   0  0  0  0  0  0
    7.8569   -9.3636   15.4420 H   0  0  0  0  0  0
    9.1418  -10.6093   15.2872 H   0  0  0  0  0  0
   10.0655   -9.5328   17.3382 H   0  0  0  0  0  0
   11.1270   -8.0838   17.3162 H   0  0  0  0  0  0
    8.1227   -7.9474   17.2787 H   0  0  0  0  0  0
    8.1217   -8.2757   19.6089 H   0  0  0  0  0  0
    9.8018   -8.8814   19.4160 H   0  0  0  0  0  0
   10.9412   -6.0595   21.4210 H   0  0  0  0  0  0
    9.9228   -7.4600   21.8986 H   0  0  0  0  0  0
   10.9812   -9.5868   22.1187 H   0  0  0  0  0  0
   15.5945  -10.8153   20.7895 H   0  0  0  0  0  0
   16.9566   -9.9548   19.7726 H   0  0  0  0  0  0
   10.3631   -4.9285   19.1628 H   0  0  0  0  0  0
   11.3062   -6.3649   18.6395 H   0  0  0  0  0  0
    9.6760   -5.7886   16.7282 H   0  0  0  0  0  0
    7.2562   -5.6015   17.2095 H   0  0  0  0  0  0
   13.4512  -10.6811   21.6314 H   0  0  0  0  0  0
  1 16  2  0  0  0
  1 17  1  0  0  0
  1 21  1  0  0  0
  2  3  1  0  0  0
  2 12  1  0  0  0
  2 17  2  0  0  0
  3  4  2  0  0  0
  3 14  1  0  0  0
  4 15  1  0  0  0
  4 16  1  0  0  0
  5  6  1  0  0  0
  5 22  1  0  0  0
  5 23  1  0  0  0
  5 24  1  0  0  0
  6  7  1  0  0  0
  7  8  1  0  0  0
  7 25  1  0  0  0
  7 26  1  0  0  0
  8  9  1  0  0  0
  8 19  1  0  0  0
  8 27  1  0  0  0
  9 10  1  0  0  0
  9 28  1  0  0  0
  9 29  1  0  0  0
 10 11  1  0  0  0
 10 18  1  0  0  0
 11 12  1  0  0  0
 11 30  1  0  0  0
 11 31  1  0  0  0
 12 13  2  0  0  0
 13 14  1  0  0  0
 13 32  1  0  0  0
 14 39  1  0  0  0
 15 33  1  0  0  0
 15 34  1  0  0  0
 18 19  1  0  0  0
 18 35  1  0  0  0
 18 36  1  0  0  0
 19 20  1  0  0  0
 19 37  1  0  0  0
 20 38  1  0  0  0
M  CHG  1  14   1
M  END
> <s_m_source_file>
../4wkb_ligand.sdf

> <i_m_source_file_index>
1

> <s_epik_input>
bjFbY0hdbmMoW05IMl0pYyhjMTIpW25IXVtjSF1jMltDSDJdW05AQEgrXShbQ0gyXVtDQEBIXTNbT0hdKVtDSDJdW0NAQEhdM1tDSDJdU1tDSDNd

> <s_epik_cmdline>
J2VwaWtfYXBwJywgJy1pbWFlJywgJ2xpZ2FuZF9wcm8ubWFlJywgJy1vbWFlJywgJ2xpZ2FuZF9wcmVwLm1hZScsICctbXMnLCAnMScsICctcGgnLCAnNycsICctcGh0JywgJzAuNScsICctbnQn

> <r_epik_Ionization_Penalty>
  0.8536

> <r_epik_Ionization_Penalty_Charging>
  0.0000

> <r_epik_Ionization_Penalty_Neutral>
  0.8536

> <r_epik_State_Penalty>
  0.1279

> <r_epik_Charging_Adjusted_Penalty>
0.127885064634937

> <i_epik_Tot_Q>
1

> <i_epik_Tot_abs_Q>
1

$$$$
