4wkc_ligand
                    3D
 Schrodinger Suite 2020-3.
 47 49  0  0  1  0            999 V2000
  -24.8840    2.6730  -21.8620 C   0  0  0  0  0  0
  -22.3190    2.7200  -22.8710 C   0  0  0  0  0  0
  -23.0080    1.4960  -22.5170 C   0  0  0  0  0  0
  -20.9670    1.0310  -23.3400 C   0  0  0  0  0  0
  -25.0960   -3.6270  -24.6570 O   0  0  0  0  0  0
  -25.1540   -2.1810  -24.6120 C   0  0  2  0  0  0
  -24.2660   -1.5530  -25.6690 C   0  0  1  0  0  0
  -24.6300   -0.1050  -26.0100 C   0  0  0  0  0  0
  -26.1760    0.0960  -26.8720 S   0  0  0  0  0  0
  -25.6440    0.5420  -28.4870 C   0  0  0  0  0  0
  -25.0320   -0.6310  -29.2010 C   0  0  0  0  0  0
  -24.8630   -0.2900  -30.6750 C   0  0  0  0  0  0
  -26.1850   -0.2900  -31.4080 C   0  0  0  0  0  0
  -22.8730   -1.5950  -25.0160 C   0  0  0  0  0  0
  -23.1240   -1.8440  -23.5660 N   0  0  2  0  0  0
  -24.5720   -1.6650  -23.3170 C   0  0  0  0  0  0
  -22.2740   -1.0640  -22.6400 C   0  0  0  0  0  0
  -21.0980    2.3910  -23.3430 N   0  0  0  0  0  0
  -23.0620    3.9470  -22.6620 C   0  0  0  0  0  0
  -22.5020    5.1340  -22.9530 N   0  0  0  0  0  0
  -24.2810    1.4760  -22.0190 N   0  0  0  0  0  0
  -22.0990    0.4090  -22.8440 C   0  0  3  0  0  0
  -24.3290    3.8640  -22.1730 N   0  0  0  0  0  0
  -25.8946    2.6789  -21.4536 H   0  0  0  0  0  0
  -20.0390    0.5670  -23.7055 H   0  0  0  0  0  0
  -25.4805   -4.1658  -25.5356 H   0  0  0  0  0  0
  -26.2249   -1.9693  -24.7473 H   0  0  0  0  0  0
  -24.3641   -2.0943  -26.6215 H   0  0  0  0  0  0
  -24.7063    0.4820  -25.0828 H   0  0  0  0  0  0
  -23.8502    0.3271  -26.6544 H   0  0  0  0  0  0
  -26.5052    0.8982  -29.0714 H   0  0  0  0  0  0
  -24.8920    1.3418  -28.4175 H   0  0  0  0  0  0
  -24.0498   -0.8568  -28.7602 H   0  0  0  0  0  0
  -25.6899   -1.5066  -29.0985 H   0  0  0  0  0  0
  -24.4157    0.7103  -30.7710 H   0  0  0  0  0  0
  -24.2054   -1.0328  -31.1502 H   0  0  0  0  0  0
  -26.0176   -0.0397  -32.4660 H   0  0  0  0  0  0
  -26.8548    0.4564  -30.9561 H   0  0  0  0  0  0
  -26.6446   -1.2868  -31.3353 H   0  0  0  0  0  0
  -22.2807   -2.4046  -25.4674 H   0  0  0  0  0  0
  -22.3631   -0.6338  -25.1776 H   0  0  0  0  0  0
  -24.8664   -0.6146  -23.1756 H   0  0  0  0  0  0
  -24.9509   -2.2680  -22.4787 H   0  0  0  0  0  0
  -22.6745   -1.1447  -21.6187 H   0  0  0  0  0  0
  -21.2476   -1.4590  -22.6637 H   0  0  0  0  0  0
  -21.4760    5.1762  -23.3474 H   0  0  0  0  0  0
  -23.0698    6.0631  -22.7967 H   0  0  0  0  0  0
  1 21  2  0  0  0
  1 23  1  0  0  0
  1 24  1  0  0  0
  2  3  2  0  0  0
  2 18  1  0  0  0
  2 19  1  0  0  0
  3 21  1  0  0  0
  3 22  1  0  0  0
  4 18  2  0  0  0
  4 22  1  0  0  0
  4 25  1  0  0  0
  5  6  1  0  0  0
  5 26  1  0  0  0
  6  7  1  0  0  0
  6 16  1  0  0  0
  6 27  1  0  0  0
  7  8  1  0  0  0
  7 14  1  0  0  0
  7 28  1  0  0  0
  8  9  1  0  0  0
  8 29  1  0  0  0
  8 30  1  0  0  0
  9 10  1  0  0  0
 10 11  1  0  0  0
 10 31  1  0  0  0
 10 32  1  0  0  0
 11 12  1  0  0  0
 11 33  1  0  0  0
 11 34  1  0  0  0
 12 13  1  0  0  0
 12 35  1  0  0  0
 12 36  1  0  0  0
 13 37  1  0  0  0
 13 38  1  0  0  0
 13 39  1  0  0  0
 14 15  1  0  0  0
 14 40  1  0  0  0
 14 41  1  0  0  0
 15 16  1  0  0  0
 15 17  1  0  0  0
 16 42  1  0  0  0
 16 43  1  0  0  0
 17 22  1  0  0  0
 17 44  1  0  0  0
 17 45  1  0  0  0
 19 20  1  0  0  0
 19 23  2  0  0  0
 20 46  1  0  0  0
 20 47  1  0  0  0
M  END
> <s_m_source_file>
../4wkc_ligand.sdf

> <i_m_source_file_index>
1

> <s_epik_input>
W05IMl1jMW5bY0hdbmMoYzEyKVtDSF0oW0NIXT1OMilbQ0gyXVtOQEBIK10oW0NIMl0zKVtDSDJdW0NAQEhdKFtDQEhdM1tPSF0pW0NIMl1TW0NIMl1bQ0gyXVtDSDJdW0NIM10=

> <s_epik_cmdline>
J2VwaWtfYXBwJywgJy1pbWFlJywgJ2xpZ2FuZF9wcm8ubWFlJywgJy1vbWFlJywgJ2xpZ2FuZF9wcmVwLm1hZScsICctbXMnLCAnMScsICctcGgnLCAnNycsICctcGh0JywgJzAuNScsICctbnQn

> <r_epik_Ionization_Penalty>
  0.0403

> <r_epik_Ionization_Penalty_Charging>
  0.0000

> <r_epik_Ionization_Penalty_Neutral>
  0.0403

> <r_epik_State_Penalty>
  0.0296

> <r_epik_Charging_Adjusted_Penalty>
0.0295800909866344

> <i_epik_Tot_Q>
0

> <i_epik_Tot_abs_Q>
0

> <s_epik_Chemistry_Notes>
This compound has an imine and may undergo hydrolysis.

$$$$
