4wke_ligand
                    3D
 Schrodinger Suite 2020-3.
 37 40  0  0  1  0            999 V2000
   -8.9900    2.9950   24.4590 C   0  0  0  0  0  0
   -4.6850    0.8260   23.1280 C   0  0  0  0  0  0
   -3.2580    2.1280   19.5020 C   0  0  0  0  0  0
   -2.7720    0.6310   21.3350 C   0  0  0  0  0  0
  -11.4460    5.0720   28.0770 C   0  0  0  0  0  0
  -12.0620    4.7960   26.8770 C   0  0  0  0  0  0
   -4.4210    2.5860   20.0550 C   0  0  0  0  0  0
   -2.4610    1.1900   20.1070 C   0  0  0  0  0  0
   -4.7100    2.0240   21.2680 C   0  0  0  0  0  0
   -3.9530    1.0760   21.9300 C   0  0  0  0  0  0
   -5.8100    1.6260   23.1070 C   0  0  0  0  0  0
   -9.9760    4.4900   26.2430 C   0  0  0  0  0  0
   -8.5150    5.3800   24.5130 C   0  0  0  0  0  0
   -6.6570    5.0070   25.7390 C   0  0  0  0  0  0
   -6.8980    1.8070   24.0240 C   0  0  0  0  0  0
   -8.8060    4.1880   25.3780 C   0  0  2  0  0  0
  -11.2280    4.4670   25.8380 N   0  0  0  0  0  0
   -7.2220    5.7430   24.7350 N   0  0  0  0  0  0
   -7.5940    4.1070   26.1510 N   0  0  0  0  0  0
   -7.8110    2.7670   23.6470 N   0  0  0  0  0  0
   -9.3100    5.9120   23.7540 O   0  0  0  0  0  0
   -5.5240    5.1500   26.1650 O   0  0  0  0  0  0
   -6.9940    1.1720   25.0600 O   0  0  0  0  0  0
   -5.8220    2.3560   21.9620 O   0  0  0  0  0  0
   -9.7440    4.9150   27.8940 S   0  0  0  0  0  0
   -1.0510    0.7800   19.1930 Cl  0  0  0  0  0  0
   -9.1790    2.0941   25.0611 H   0  0  0  0  0  0
   -9.8449    3.1754   23.7907 H   0  0  0  0  0  0
   -4.4064    0.1287   23.9181 H   0  0  0  0  0  0
   -2.9497    2.5266   18.5355 H   0  0  0  0  0  0
   -2.1318   -0.1130   21.8090 H   0  0  0  0  0  0
  -11.9577    5.3471   28.9992 H   0  0  0  0  0  0
  -13.1449    4.8363   26.7595 H   0  0  0  0  0  0
   -5.0579    3.3288   19.5748 H   0  0  0  0  0  0
   -6.7641    6.5422   24.1337 H   0  0  0  0  0  0
   -7.5101    3.3743   26.9671 H   0  0  0  0  0  0
   -7.6487    3.3594   22.7344 H   0  0  0  0  0  0
  1 16  1  0  0  0
  1 20  1  0  0  0
  1 27  1  0  0  0
  1 28  1  0  0  0
  2 10  1  0  0  0
  2 11  2  0  0  0
  2 29  1  0  0  0
  3  7  1  0  0  0
  3  8  2  0  0  0
  3 30  1  0  0  0
  4  8  1  0  0  0
  4 10  2  0  0  0
  4 31  1  0  0  0
  5  6  2  0  0  0
  5 25  1  0  0  0
  5 32  1  0  0  0
  6 17  1  0  0  0
  6 33  1  0  0  0
  7  9  2  0  0  0
  7 34  1  0  0  0
  8 26  1  0  0  0
  9 10  1  0  0  0
  9 24  1  0  0  0
 11 15  1  0  0  0
 11 24  1  0  0  0
 12 16  1  0  0  0
 12 17  2  0  0  0
 12 25  1  0  0  0
 13 16  1  0  0  0
 13 18  1  0  0  0
 13 21  2  0  0  0
 14 18  1  0  0  0
 14 19  1  0  0  0
 14 22  2  0  0  0
 15 20  1  0  0  0
 15 23  2  0  0  0
 16 19  1  0  0  0
 18 35  1  0  0  0
 19 36  1  0  0  0
 20 37  1  0  0  0
M  END
> <s_m_source_file>
../4wke_ligand.sdf

> <i_m_source_file_index>
1

> <s_epik_input>
czFbY0hdW2NIXW5jMVtDQF0yKEMoPU8pW05IXUMoPU8pW05IXTIpW0NIMl1bTkhdQyg9TyljKG8zKVtjSF1jKGMzNClbY0hdYyhDbClbY0hdW2NIXTQ=

> <s_epik_cmdline>
J2VwaWtfYXBwJywgJy1pbWFlJywgJ2xpZ2FuZF9wcm8ubWFlJywgJy1vbWFlJywgJ2xpZ2FuZF9wcmVwLm1hZScsICctbXMnLCAnMScsICctcGgnLCAnNycsICctcGh0JywgJzAuNScsICctbnQn

> <r_lp_tautomer_probability>
0.99999999978137

> <r_epik_Ionization_Penalty>
  0.3017

> <r_epik_Ionization_Penalty_Charging>
  0.0000

> <r_epik_Ionization_Penalty_Neutral>
  0.3017

> <r_epik_State_Penalty>
  0.2906

> <r_epik_Charging_Adjusted_Penalty>
0.29061630621746

> <i_epik_Tot_Q>
0

> <i_epik_Tot_abs_Q>
0

$$$$
