4wkn_ligand
                    3D
 Schrodinger Suite 2020-3.
 39 41  0  0  1  0            999 V2000
    8.0250   48.7900  -37.0790 C   0  0  0  0  0  0
    9.5770   48.9810  -35.3500 C   0  0  0  0  0  0
   10.0410   50.1780  -35.8700 C   0  0  0  0  0  0
    9.4460   50.6650  -37.0370 C   0  0  0  0  0  0
   14.2060   44.2620  -37.8620 C   0  0  0  0  0  0
   12.4850   44.6540  -37.9410 S   0  0  0  0  0  0
   12.1830   45.8050  -36.6490 C   0  0  0  0  0  0
   12.1030   45.1310  -35.2750 C   0  0  1  0  0  0
   12.0830   46.1990  -34.1730 C   0  0  0  0  0  0
   10.7200   46.1700  -33.5910 N   0  0  1  0  0  0
   10.1780   47.4860  -33.2460 C   0  0  0  0  0  0
   10.3150   48.6520  -34.2070 C   0  0  0  0  0  0
   11.2110   49.7100  -34.0520 C   0  0  0  0  0  0
   11.0210   50.6080  -35.0590 N   0  3  0  0  0  0
    9.8550   51.8410  -37.5920 N   0  0  0  0  0  0
    8.4430   49.9560  -37.6180 N   0  0  0  0  0  0
    8.5760   48.2890  -35.9550 N   0  0  0  0  0  0
    9.8630   45.4430  -34.5710 C   0  0  0  0  0  0
   10.8080   44.3650  -35.0770 C   0  0  2  0  0  0
   11.0000   43.3570  -34.0740 O   0  0  0  0  0  0
    7.2203   48.2391  -37.5660 H   0  0  0  0  0  0
   14.4543   43.5399  -38.6538 H   0  0  0  0  0  0
   14.4375   43.8236  -36.8801 H   0  0  0  0  0  0
   14.7977   45.1786  -38.0030 H   0  0  0  0  0  0
   12.9973   46.5440  -36.6185 H   0  0  0  0  0  0
   11.2279   46.3192  -36.8318 H   0  0  0  0  0  0
   12.9651   44.4497  -35.2233 H   0  0  0  0  0  0
   12.8417   45.9571  -33.4142 H   0  0  0  0  0  0
   12.3042   47.1831  -34.6120 H   0  0  0  0  0  0
    9.0925   47.4054  -33.0875 H   0  0  0  0  0  0
   10.6570   47.8499  -32.3251 H   0  0  0  0  0  0
   11.9174   49.7134  -33.2088 H   0  0  0  0  0  0
   10.6667   52.4172  -37.1239 H   0  0  0  0  0  0
    9.3733   52.2138  -38.5080 H   0  0  0  0  0  0
    8.9808   45.0358  -34.0553 H   0  0  0  0  0  0
    9.5385   46.1372  -35.3601 H   0  0  0  0  0  0
   10.4459   43.8065  -35.9528 H   0  0  0  0  0  0
   11.6580   42.4988  -34.2756 H   0  0  0  0  0  0
   11.5303   51.5602  -35.2686 H   0  0  0  0  0  0
  1 16  2  0  0  0
  1 17  1  0  0  0
  1 21  1  0  0  0
  2  3  1  0  0  0
  2 12  1  0  0  0
  2 17  2  0  0  0
  3  4  2  0  0  0
  3 14  1  0  0  0
  4 15  1  0  0  0
  4 16  1  0  0  0
  5  6  1  0  0  0
  5 22  1  0  0  0
  5 23  1  0  0  0
  5 24  1  0  0  0
  6  7  1  0  0  0
  7  8  1  0  0  0
  7 25  1  0  0  0
  7 26  1  0  0  0
  8  9  1  0  0  0
  8 19  1  0  0  0
  8 27  1  0  0  0
  9 10  1  0  0  0
  9 28  1  0  0  0
  9 29  1  0  0  0
 10 11  1  0  0  0
 10 18  1  0  0  0
 11 12  1  0  0  0
 11 30  1  0  0  0
 11 31  1  0  0  0
 12 13  2  0  0  0
 13 14  1  0  0  0
 13 32  1  0  0  0
 14 39  1  0  0  0
 15 33  1  0  0  0
 15 34  1  0  0  0
 18 19  1  0  0  0
 18 35  1  0  0  0
 18 36  1  0  0  0
 19 20  1  0  0  0
 19 37  1  0  0  0
 20 38  1  0  0  0
M  CHG  1  14   1
M  END
> <s_m_source_file>
../4wkn_ligand.sdf

> <i_m_source_file_index>
1

> <s_epik_input>
bjFbY0hdbmMoW05IMl0pYyhjMTIpW25IXVtjSF1jMltDSDJdW05AQEgrXShbQ0gyXVtDQEBIXTNbT0hdKVtDSDJdW0NAQEhdM1tDSDJdU1tDSDNd

> <s_epik_cmdline>
J2VwaWtfYXBwJywgJy1pbWFlJywgJ2xpZ2FuZF9wcm8ubWFlJywgJy1vbWFlJywgJ2xpZ2FuZF9wcmVwLm1hZScsICctbXMnLCAnMScsICctcGgnLCAnNycsICctcGh0JywgJzAuNScsICctbnQn

> <r_epik_Ionization_Penalty>
  0.8536

> <r_epik_Ionization_Penalty_Charging>
  0.0000

> <r_epik_Ionization_Penalty_Neutral>
  0.8536

> <r_epik_State_Penalty>
  0.1279

> <r_epik_Charging_Adjusted_Penalty>
0.127885064634937

> <i_epik_Tot_Q>
1

> <i_epik_Tot_abs_Q>
1

$$$$
