4wko_ligand
                    3D
 Schrodinger Suite 2020-3.
 49 51  0  0  1  0            999 V2000
  -39.7660  -43.6330   17.4330 C   0  0  0  0  0  0
  -39.9670  -42.2300   17.2750 O   0  0  0  0  0  0
  -38.5790  -44.0430   16.5820 C   0  0  0  0  0  0
  -38.8410  -43.9300   15.0770 C   0  0  0  0  0  0
  -37.7190  -44.6750   14.3600 C   0  0  0  0  0  0
  -37.9440  -44.8530   12.6160 S   0  0  0  0  0  0
  -36.6250  -45.9320   12.1770 C   0  0  0  0  0  0
  -35.2700  -45.2190   12.1260 C   0  0  1  0  0  0
  -34.1620  -46.2560   12.0980 C   0  0  0  0  0  0
  -35.0770  -44.4360   10.8450 C   0  0  1  0  0  0
  -34.0400  -43.4560   10.9550 O   0  0  0  0  0  0
  -34.6000  -45.4910    9.8710 C   0  0  0  0  0  0
  -33.6150  -46.2050   10.7180 N   0  0  2  0  0  0
  -33.2430  -47.5050   10.1520 C   0  0  0  0  0  0
  -34.1880  -48.6710   10.2950 C   0  0  0  0  0  0
  -34.0580  -49.7450   11.1860 C   0  0  0  0  0  0
  -35.0720  -50.6460   11.0070 N   0  3  0  0  0  0
  -35.8960  -50.2440   10.0250 C   0  0  0  0  0  0
  -35.3920  -48.9830    9.5070 C   0  0  0  0  0  0
  -36.0130  -48.3160    8.5040 N   0  0  0  0  0  0
  -37.1390  -48.8450    7.9660 C   0  0  0  0  0  0
  -37.6930  -50.0160    8.3940 N   0  0  0  0  0  0
  -37.1310  -50.7500    9.3910 C   0  0  0  0  0  0
  -37.6800  -51.9240    9.8130 N   0  0  0  0  0  0
  -39.5671  -43.8580   18.4912 H   0  0  0  0  0  0
  -40.6679  -44.1717   17.1069 H   0  0  0  0  0  0
  -40.7852  -41.7277   17.8118 H   0  0  0  0  0  0
  -37.7193  -43.3981   16.8168 H   0  0  0  0  0  0
  -38.3201  -45.0908   16.7943 H   0  0  0  0  0  0
  -39.8156  -44.3814   14.8396 H   0  0  0  0  0  0
  -38.8471  -42.8696   14.7844 H   0  0  0  0  0  0
  -36.7708  -44.1364   14.5040 H   0  0  0  0  0  0
  -37.6303  -45.6905   14.7735 H   0  0  0  0  0  0
  -36.5519  -46.7419   12.9177 H   0  0  0  0  0  0
  -36.8176  -46.3609   11.1826 H   0  0  0  0  0  0
  -35.2326  -44.5490   12.9976 H   0  0  0  0  0  0
  -33.3979  -45.9964   12.8454 H   0  0  0  0  0  0
  -34.5807  -47.2463   12.3304 H   0  0  0  0  0  0
  -35.9688  -43.8568   10.5635 H   0  0  0  0  0  0
  -34.1721  -42.5874   11.6169 H   0  0  0  0  0  0
  -35.4516  -46.1129    9.5580 H   0  0  0  0  0  0
  -34.1585  -45.0033    8.9894 H   0  0  0  0  0  0
  -33.0974  -47.4041    9.0664 H   0  0  0  0  0  0
  -32.3086  -47.8533   10.6164 H   0  0  0  0  0  0
  -33.2192  -49.7712   11.8971 H   0  0  0  0  0  0
  -37.6257  -48.3086    7.1515 H   0  0  0  0  0  0
  -37.2017  -52.4954   10.6222 H   0  0  0  0  0  0
  -38.6014  -52.3001    9.3444 H   0  0  0  0  0  0
  -35.1216  -51.5496   11.6323 H   0  0  0  0  0  0
  1  2  1  0  0  0
  1  3  1  0  0  0
  1 25  1  0  0  0
  1 26  1  0  0  0
  2 27  1  0  0  0
  3  4  1  0  0  0
  3 28  1  0  0  0
  3 29  1  0  0  0
  4  5  1  0  0  0
  4 30  1  0  0  0
  4 31  1  0  0  0
  5  6  1  0  0  0
  5 32  1  0  0  0
  5 33  1  0  0  0
  6  7  1  0  0  0
  7  8  1  0  0  0
  7 34  1  0  0  0
  7 35  1  0  0  0
  8  9  1  0  0  0
  8 10  1  0  0  0
  8 36  1  0  0  0
  9 13  1  0  0  0
  9 37  1  0  0  0
  9 38  1  0  0  0
 10 11  1  0  0  0
 10 12  1  0  0  0
 10 39  1  0  0  0
 11 40  1  0  0  0
 12 13  1  0  0  0
 12 41  1  0  0  0
 12 42  1  0  0  0
 13 14  1  0  0  0
 14 15  1  0  0  0
 14 43  1  0  0  0
 14 44  1  0  0  0
 15 16  2  0  0  0
 15 19  1  0  0  0
 16 17  1  0  0  0
 16 45  1  0  0  0
 17 18  1  0  0  0
 17 49  1  0  0  0
 18 19  2  0  0  0
 18 23  1  0  0  0
 19 20  1  0  0  0
 20 21  2  0  0  0
 21 22  1  0  0  0
 21 46  1  0  0  0
 22 23  2  0  0  0
 23 24  1  0  0  0
 24 47  1  0  0  0
 24 48  1  0  0  0
M  CHG  1  17   1
M  END
> <s_m_source_file>
../4wko_ligand.sdf

> <i_m_source_file_index>
1

> <s_epik_input>
W09IXVtDSDJdW0NIMl1bQ0gyXVtDSDJdU1tDSDJdW0NASF0xW0NIMl1bTkBIK10oW0NIMl1bQ0BASF0xW09IXSlbQ0gyXWMoW2NIXVtuSF0yKWMoYzIzKW5bY0hdbmMzW05IMl0=

> <s_epik_cmdline>
J2VwaWtfYXBwJywgJy1pbWFlJywgJ2xpZ2FuZF9wcm8ubWFlJywgJy1vbWFlJywgJ2xpZ2FuZF9wcmVwLm1hZScsICctbXMnLCAnMScsICctcGgnLCAnNycsICctcGh0JywgJzAuNScsICctbnQn

> <r_epik_Ionization_Penalty>
  0.8512

> <r_epik_Ionization_Penalty_Charging>
  0.0000

> <r_epik_Ionization_Penalty_Neutral>
  0.8512

> <r_epik_State_Penalty>
  0.1297

> <r_epik_Charging_Adjusted_Penalty>
0.12965851042321

> <i_epik_Tot_Q>
1

> <i_epik_Tot_abs_Q>
1

$$$$
