4wkp_ligand
                    3D
 Schrodinger Suite 2020-3.
 53 55  0  0  1  0            999 V2000
   38.0090   74.0000   22.7500 C   0  0  0  0  0  0
   37.0560   73.1830   23.6190 C   0  0  2  0  0  0
   35.7020   73.8410   23.8060 C   0  0  1  0  0  0
   34.6550   72.8720   23.8910 O   0  0  0  0  0  0
   35.8130   74.5080   25.1440 C   0  0  0  0  0  0
   37.6140   73.0080   25.0300 C   0  0  0  0  0  0
   39.4480   74.4090   27.8180 C   0  0  0  0  0  0
   40.3040   75.4670   27.8790 N   0  3  0  0  0  0
   39.6800   76.5810   27.4730 C   0  0  0  0  0  0
   40.0480   77.9860   27.3030 C   0  0  0  0  0  0
   39.1020   78.8460   26.8430 N   0  0  0  0  0  0
   37.8660   78.4130   26.5510 C   0  0  0  0  0  0
   37.4420   77.1510   26.6710 N   0  0  0  0  0  0
   38.3170   76.2270   27.1400 C   0  0  0  0  0  0
   36.5250   73.4640   25.9080 N   0  0  1  0  0  0
   37.5720   73.8990   21.2940 C   0  0  0  0  0  0
   38.9170   74.1740   20.1890 S   0  0  0  0  0  0
   39.9820   72.7620   20.1870 C   0  0  0  0  0  0
   39.5860   71.8140   19.0640 C   0  0  0  0  0  0
   39.8150   72.4250   17.7790 O   0  0  0  0  0  0
   36.9810   73.8820   27.2340 C   0  0  0  0  0  0
   38.1860   74.7840   27.3540 C   0  0  0  0  0  0
   41.2970   78.3590   27.6070 N   0  0  0  0  0  0
   40.3790   71.5270   16.8120 C   0  0  0  0  0  0
   39.3660   70.4480   16.4190 C   0  0  0  0  0  0
   38.9700   70.6230   15.0590 O   0  0  0  0  0  0
   37.9860   75.0522   23.0698 H   0  0  0  0  0  0
   39.0307   73.6067   22.8565 H   0  0  0  0  0  0
   36.9408   72.2288   23.0839 H   0  0  0  0  0  0
   35.4182   74.4929   22.9667 H   0  0  0  0  0  0
   34.3998   72.2596   23.0136 H   0  0  0  0  0  0
   36.3797   75.4451   25.0406 H   0  0  0  0  0  0
   34.8062   74.7289   25.5283 H   0  0  0  0  0  0
   37.8632   71.9497   25.1971 H   0  0  0  0  0  0
   38.5204   73.6206   25.1445 H   0  0  0  0  0  0
   39.7167   73.3905   28.0983 H   0  0  0  0  0  0
   37.1500   79.1497   26.1866 H   0  0  0  0  0  0
   37.1660   72.8949   21.1019 H   0  0  0  0  0  0
   36.7972   74.6529   21.0905 H   0  0  0  0  0  0
   41.0220   73.0874   20.0365 H   0  0  0  0  0  0
   39.8976   72.2377   21.1503 H   0  0  0  0  0  0
   40.1850   70.8939   19.1326 H   0  0  0  0  0  0
   38.5186   71.5642   19.1543 H   0  0  0  0  0  0
   36.1765   74.4349   27.7410 H   0  0  0  0  0  0
   37.2461   72.9944   27.8272 H   0  0  0  0  0  0
   42.0188   77.6153   27.9756 H   0  0  0  0  0  0
   41.6017   79.4093   27.4882 H   0  0  0  0  0  0
   40.6652   72.0904   15.9116 H   0  0  0  0  0  0
   41.2687   71.0406   17.2384 H   0  0  0  0  0  0
   39.8236   69.4548   16.5379 H   0  0  0  0  0  0
   38.4801   70.5235   17.0666 H   0  0  0  0  0  0
   38.2429   69.9337   14.6048 H   0  0  0  0  0  0
   41.3373   75.3191   28.2259 H   0  0  0  0  0  0
  1  2  1  0  0  0
  1 16  1  0  0  0
  1 27  1  0  0  0
  1 28  1  0  0  0
  2  3  1  0  0  0
  2  6  1  0  0  0
  2 29  1  0  0  0
  3  4  1  0  0  0
  3  5  1  0  0  0
  3 30  1  0  0  0
  4 31  1  0  0  0
  5 15  1  0  0  0
  5 32  1  0  0  0
  5 33  1  0  0  0
  6 15  1  0  0  0
  6 34  1  0  0  0
  6 35  1  0  0  0
  7  8  2  0  0  0
  7 22  1  0  0  0
  7 36  1  0  0  0
  8  9  1  0  0  0
  8 53  1  0  0  0
  9 10  2  0  0  0
  9 14  1  0  0  0
 10 11  1  0  0  0
 10 23  1  0  0  0
 11 12  2  0  0  0
 12 13  1  0  0  0
 12 37  1  0  0  0
 13 14  1  0  0  0
 14 22  2  0  0  0
 15 21  1  0  0  0
 16 17  1  0  0  0
 16 38  1  0  0  0
 16 39  1  0  0  0
 17 18  1  0  0  0
 18 19  1  0  0  0
 18 40  1  0  0  0
 18 41  1  0  0  0
 19 20  1  0  0  0
 19 42  1  0  0  0
 19 43  1  0  0  0
 20 24  1  0  0  0
 21 22  1  0  0  0
 21 44  1  0  0  0
 21 45  1  0  0  0
 23 46  1  0  0  0
 23 47  1  0  0  0
 24 25  1  0  0  0
 24 48  1  0  0  0
 24 49  1  0  0  0
 25 26  1  0  0  0
 25 50  1  0  0  0
 25 51  1  0  0  0
 26 52  1  0  0  0
M  CHG  1   8   1
M  END
> <s_m_source_file>
../4wkp_ligand.sdf

> <i_m_source_file_index>
1

> <s_epik_input>
W09IXVtDSDJdW0NIMl1PW0NIMl1bQ0gyXVNbQ0gyXVtDSDJdW0NAQEhdMVtDQEBIXShbT0hdKVtDSDJdW05AQEgrXShbQ0gyXTEpW0NIMl1jKFtjSF1uMiljKGMyMylbbkhdW2NIXW5jM1tOSDJd

> <s_epik_cmdline>
J2VwaWtfYXBwJywgJy1pbWFlJywgJ2xpZ2FuZF9wcm8ubWFlJywgJy1vbWFlJywgJ2xpZ2FuZF9wcmVwLm1hZScsICctbXMnLCAnMScsICctcGgnLCAnNycsICctcGh0JywgJzAuNScsICctbnQn

> <r_epik_Ionization_Penalty>
  0.1169

> <r_epik_Ionization_Penalty_Charging>
  0.0000

> <r_epik_Ionization_Penalty_Neutral>
  0.1169

> <r_epik_State_Penalty>
  0.1065

> <r_epik_Charging_Adjusted_Penalty>
0.106496127345586

> <i_epik_Tot_Q>
1

> <i_epik_Tot_abs_Q>
1

$$$$
