4wks_ligand
                    3D
 Schrodinger Suite 2020-3.
 10  9  0  0  1  0            999 V2000
   24.7630   26.2380   -0.3680 C   0  0  0  0  0  0
   23.9430   26.6240    0.8820 C   0  0  0  0  0  0
   24.6110   26.2060    2.3560 B   0  0  0  0  0  0
   26.0250   26.1700    2.5430 O   0  0  0  0  0  0
   24.2271   26.5618   -1.2724 H   0  0  0  0  0  0
   24.9002   25.1469   -0.3939 H   0  0  0  0  0  0
   25.7459   26.7303   -0.3281 H   0  0  0  0  0  0
   23.8058   27.7151    0.9079 H   0  0  0  0  0  0
   22.9601   26.1317    0.8422 H   0  0  0  0  0  0
   26.4435   25.8922    3.5216 H   0  0  0  0  0  0
  1  2  1  0  0  0
  1  5  1  0  0  0
  1  6  1  0  0  0
  1  7  1  0  0  0
  2  3  1  0  0  0
  2  8  1  0  0  0
  2  9  1  0  0  0
  3  4  1  0  0  0
  4 10  1  0  0  0
M  END
> <s_m_source_file>
../4wks_ligand.sdf

> <i_m_source_file_index>
1

> <s_epik_input>
W0NIM11bQ0gyXVtCSF1bT0hd

> <s_epik_cmdline>
J2VwaWtfYXBwJywgJy1pbWFlJywgJ2xpZ2FuZF9wcm8ubWFlJywgJy1vbWFlJywgJ2xpZ2FuZF9wcmVwLm1hZScsICctbXMnLCAnMScsICctcGgnLCAnNycsICctcGh0JywgJzAuNScsICctbnQn

> <r_lp_tautomer_probability>
1

> <r_epik_Ionization_Penalty>
  0.0000

> <r_epik_Ionization_Penalty_Charging>
  0.0000

> <r_epik_Ionization_Penalty_Neutral>
  0.0000

> <r_epik_State_Penalty>
 -0.0000

> <r_epik_Charging_Adjusted_Penalty>
0

> <i_epik_Tot_Q>
0

> <i_epik_Tot_abs_Q>
0

$$$$
