4wkt_ligand
                    3D
 Schrodinger Suite 2020-3.
 18 17  0  0  1  0            999 V2000
   23.3490   27.4750   -1.7330 C   0  0  0  0  0  0
   23.7490   26.3340   -0.8230 C   0  0  0  0  0  0
   23.3710   26.6050    0.6150 C   0  0  0  0  0  0
   24.5870   26.8010    1.4910 C   0  0  0  0  0  0
   24.2050   26.2560    2.9980 B   0  0  0  0  0  0
   22.8180   26.1630    3.3070 O   0  0  0  0  0  0
   23.6409   27.2389   -2.7670 H   0  0  0  0  0  0
   23.8558   28.3964   -1.4102 H   0  0  0  0  0  0
   22.2596   27.6190   -1.6833 H   0  0  0  0  0  0
   23.2422   25.4126   -1.1458 H   0  0  0  0  0  0
   24.8384   26.1899   -0.8727 H   0  0  0  0  0  0
   22.7585   27.5172    0.6674 H   0  0  0  0  0  0
   22.7962   25.7542    1.0096 H   0  0  0  0  0  0
   24.9138   25.8284    1.8875 H   0  0  0  0  0  0
   24.3333   27.4709    2.3258 H   0  0  0  0  0  0
   25.3987   27.2464    0.8971 H   0  0  0  0  0  0
   22.7133   25.8404    4.1944 H   0  0  0  0  0  0
   22.7134   25.8404    4.1943 H   0  0  0  0  0  0
  1  2  1  0  0  0
  1  7  1  0  0  0
  1  8  1  0  0  0
  1  9  1  0  0  0
  2  3  1  0  0  0
  2 10  1  0  0  0
  2 11  1  0  0  0
  3  4  1  0  0  0
  3 12  1  0  0  0
  3 13  1  0  0  0
  4  5  1  0  0  0
  4 14  1  0  0  0
  4 15  1  0  0  0
  4 16  1  0  0  0
  5  6  1  0  0  0
  6 17  1  0  0  0
  6 18  1  0  0  0
M  END
> <MOLECULAR_FORMULA>
C4H12OB

> <MOLECULAR_WEIGHT>
86.9

> <NUM_HB_ATOMS>
1

> <NUM_ROTOR>
3

> <XLOGP2>
1.45

> <s_m_source_file>
../4wkt_ligand.sdf

> <i_m_source_file_index>
1

> <s_epik_input>
W0NIM11bQ0gyXVtDSDJdW0NIM11bQkhdW09IMl0=

> <s_epik_cmdline>
J2VwaWtfYXBwJywgJy1pbWFlJywgJ2xpZ2FuZF9wcm8ubWFlJywgJy1vbWFlJywgJ2xpZ2FuZF9wcmVwLm1hZScsICctbXMnLCAnMScsICctcGgnLCAnNycsICctcGh0JywgJzAuNScsICctbnQn

> <r_lp_tautomer_probability>
1

> <r_epik_Ionization_Penalty>
  0.0000

> <r_epik_Ionization_Penalty_Charging>
  0.0000

> <r_epik_Ionization_Penalty_Neutral>
  0.0000

> <r_epik_State_Penalty>
 -0.0000

> <r_epik_Charging_Adjusted_Penalty>
0

> <i_epik_Tot_Q>
0

> <i_epik_Tot_abs_Q>
0

$$$$
