4wku_ligand
                    3D
 Schrodinger Suite 2020-3.
 27 26  0  0  1  0            999 V2000
   24.7300   26.6790    2.9200 B   0  0  0  0  0  0
   25.1270   26.6200    1.3270 O   0  0  0  0  0  0
   23.0970   26.5720    3.0740 O   0  0  0  0  0  0
   25.2970   28.0690    3.6270 C   0  0  0  0  0  0
   25.1420   27.9360    5.1870 C   0  0  0  0  0  0
   25.8450   29.0390    5.9350 C   0  0  0  0  0  0
   25.4820   29.0930    7.3990 C   0  0  0  0  0  0
   25.8290   30.4470    8.0220 C   0  0  0  0  0  0
   25.7920   30.4300    9.5380 C   0  0  0  0  0  0
   26.0704   26.6816    1.2344 H   0  0  0  0  0  0
   26.0705   26.6816    1.2344 H   0  0  0  0  0  0
   22.6886   27.2972    2.6159 H   0  0  0  0  0  0
   22.6887   27.2972    2.6159 H   0  0  0  0  0  0
   24.9244   27.1546    3.1423 H   0  0  0  0  0  0
   26.3582   28.2113    3.3748 H   0  0  0  0  0  0
   24.7168   28.9340    3.2733 H   0  0  0  0  0  0
   24.0755   27.9732    5.4540 H   0  0  0  0  0  0
   25.5695   26.9779    5.5176 H   0  0  0  0  0  0
   26.9330   28.8913    5.8687 H   0  0  0  0  0  0
   25.5791   30.0100    5.4917 H   0  0  0  0  0  0
   24.4008   28.9268    7.5150 H   0  0  0  0  0  0
   26.0335   28.3117    7.9426 H   0  0  0  0  0  0
   26.8437   30.7420    7.7163 H   0  0  0  0  0  0
   25.1082   31.2039    7.6792 H   0  0  0  0  0  0
   26.0494   31.4281    9.9223 H   0  0  0  0  0  0
   26.5176   29.6939    9.9142 H   0  0  0  0  0  0
   24.7821   30.1557    9.8771 H   0  0  0  0  0  0
  1  2  1  0  0  0
  1  3  1  0  0  0
  1  4  1  0  0  0
  2 10  1  0  0  0
  2 11  1  0  0  0
  3 12  1  0  0  0
  3 13  1  0  0  0
  4  5  1  0  0  0
  4 14  1  0  0  0
  4 15  1  0  0  0
  4 16  1  0  0  0
  5  6  1  0  0  0
  5 17  1  0  0  0
  5 18  1  0  0  0
  6  7  1  0  0  0
  6 19  1  0  0  0
  6 20  1  0  0  0
  7  8  1  0  0  0
  7 21  1  0  0  0
  7 22  1  0  0  0
  8  9  1  0  0  0
  8 23  1  0  0  0
  8 24  1  0  0  0
  9 25  1  0  0  0
  9 26  1  0  0  0
  9 27  1  0  0  0
M  END
> <MOLECULAR_FORMULA>
C6H18O2B

> <MOLECULAR_WEIGHT>
132.9

> <NUM_HB_ATOMS>
2

> <NUM_ROTOR>
5

> <XLOGP2>
2.01

> <s_m_source_file>
../4wku_ligand.sdf

> <i_m_source_file_index>
1

> <s_epik_input>
W09IMl1CKFtPSDJdKVtDSDNdW0NIMl1bQ0gyXVtDSDJdW0NIMl1bQ0gzXQ==

> <s_epik_cmdline>
J2VwaWtfYXBwJywgJy1pbWFlJywgJ2xpZ2FuZF9wcm8ubWFlJywgJy1vbWFlJywgJ2xpZ2FuZF9wcmVwLm1hZScsICctbXMnLCAnMScsICctcGgnLCAnNycsICctcGh0JywgJzAuNScsICctbnQn

> <r_lp_tautomer_probability>
1

> <r_epik_Ionization_Penalty>
  0.0000

> <r_epik_Ionization_Penalty_Charging>
  0.0000

> <r_epik_Ionization_Penalty_Neutral>
  0.0000

> <r_epik_State_Penalty>
 -0.0000

> <r_epik_Charging_Adjusted_Penalty>
0

> <i_epik_Tot_Q>
0

> <i_epik_Tot_abs_Q>
0

$$$$
