4wkv_ligand
                    3D
 Schrodinger Suite 2020-3.
 33 32  0  0  1  0            999 V2000
   24.6820   32.9880    9.4130 C   0  0  0  0  0  0
   25.5990   31.8540    9.8620 C   0  0  0  0  0  0
   25.1810   30.4800    9.3610 C   0  0  0  0  0  0
   25.5320   30.2100    7.9150 C   0  0  0  0  0  0
   25.0160   28.8740    7.4090 C   0  0  0  0  0  0
   25.5360   28.5550    6.0230 C   0  0  0  0  0  0
   24.6580   27.6360    5.1940 C   0  0  0  0  0  0
   25.0100   27.6970    3.7130 C   0  0  0  0  0  0
   24.4150   26.3430    2.9470 B   0  0  0  0  0  0
   22.7750   26.2450    3.0940 O   0  0  0  0  0  0
   24.7570   26.3000    1.3320 O   0  0  0  0  0  0
   25.0536   33.9415    9.8164 H   0  0  0  0  0  0
   23.6631   32.8047    9.7849 H   0  0  0  0  0  0
   24.6683   33.0352    8.3141 H   0  0  0  0  0  0
   26.6179   32.0373    9.4901 H   0  0  0  0  0  0
   25.6127   31.8068   10.9609 H   0  0  0  0  0  0
   25.6772   29.7039    9.9623 H   0  0  0  0  0  0
   24.0900   30.3727    9.4521 H   0  0  0  0  0  0
   25.0963   30.9949    7.2792 H   0  0  0  0  0  0
   26.6257   30.2079    7.7974 H   0  0  0  0  0  0
   25.3401   28.0738    8.0907 H   0  0  0  0  0  0
   23.9170   28.8974    7.3672 H   0  0  0  0  0  0
   25.6419   29.4866    5.4477 H   0  0  0  0  0  0
   26.5153   28.0605    6.1036 H   0  0  0  0  0  0
   24.7872   26.5986    5.5361 H   0  0  0  0  0  0
   23.6049   27.9319    5.3101 H   0  0  0  0  0  0
   24.8180   26.7179    3.2499 H   0  0  0  0  0  0
   26.0734   27.9543    3.5992 H   0  0  0  0  0  0
   24.3927   28.4629    3.2207 H   0  0  0  0  0  0
   22.3735   26.9797    2.6453 H   0  0  0  0  0  0
   22.3735   26.9798    2.6452 H   0  0  0  0  0  0
   25.6971   26.3545    1.2070 H   0  0  0  0  0  0
   25.6972   26.3545    1.2070 H   0  0  0  0  0  0
  1  2  1  0  0  0
  1 12  1  0  0  0
  1 13  1  0  0  0
  1 14  1  0  0  0
  2  3  1  0  0  0
  2 15  1  0  0  0
  2 16  1  0  0  0
  3  4  1  0  0  0
  3 17  1  0  0  0
  3 18  1  0  0  0
  4  5  1  0  0  0
  4 19  1  0  0  0
  4 20  1  0  0  0
  5  6  1  0  0  0
  5 21  1  0  0  0
  5 22  1  0  0  0
  6  7  1  0  0  0
  6 23  1  0  0  0
  6 24  1  0  0  0
  7  8  1  0  0  0
  7 25  1  0  0  0
  7 26  1  0  0  0
  8  9  1  0  0  0
  8 27  1  0  0  0
  8 28  1  0  0  0
  8 29  1  0  0  0
  9 10  1  0  0  0
  9 11  1  0  0  0
 10 30  1  0  0  0
 10 31  1  0  0  0
 11 32  1  0  0  0
 11 33  1  0  0  0
M  END
> <MOLECULAR_FORMULA>
C8H22O2B

> <MOLECULAR_WEIGHT>
160.9

> <NUM_HB_ATOMS>
2

> <NUM_ROTOR>
7

> <XLOGP2>
3.16

> <s_m_source_file>
../4wkv_ligand.sdf

> <i_m_source_file_index>
1

> <s_epik_input>
W0NIM11bQ0gyXVtDSDJdW0NIMl1bQ0gyXVtDSDJdW0NIMl1bQ0gzXUIoW09IMl0pW09IMl0=

> <s_epik_cmdline>
J2VwaWtfYXBwJywgJy1pbWFlJywgJ2xpZ2FuZF9wcm8ubWFlJywgJy1vbWFlJywgJ2xpZ2FuZF9wcmVwLm1hZScsICctbXMnLCAnMScsICctcGgnLCAnNycsICctcGh0JywgJzAuNScsICctbnQn

> <r_lp_tautomer_probability>
1

> <r_epik_Ionization_Penalty>
  0.0000

> <r_epik_Ionization_Penalty_Charging>
  0.0000

> <r_epik_Ionization_Penalty_Neutral>
  0.0000

> <r_epik_State_Penalty>
 -0.0000

> <r_epik_Charging_Adjusted_Penalty>
0

> <i_epik_Tot_Q>
0

> <i_epik_Tot_abs_Q>
0

$$$$
