4wlb_ligand
                    3D
 Schrodinger Suite 2020-3.
 64 66  0  0  1  0            999 V2000
  -23.9550    5.5260   -5.9280 C   0  0  0  0  0  0
  -21.6750    5.5060   -5.1260 C   0  0  0  0  0  0
  -20.5100    3.3780   -2.1940 C   0  0  0  0  0  0
  -21.1010    5.0740   -3.7880 C   0  0  0  0  0  0
  -20.6110    6.0350   -2.9190 C   0  0  0  0  0  0
  -20.0770    5.6740   -1.6970 C   0  0  0  0  0  0
  -20.0240    4.3430   -1.3230 C   0  0  0  0  0  0
  -21.0480    3.7410   -3.4200 C   0  0  0  0  0  0
  -25.2110    5.1690   -3.7880 C   0  0  0  0  0  0
  -25.8640    6.9780   -5.3520 C   0  0  0  0  0  0
  -24.6790    6.2100   -4.7680 C   0  0  0  0  0  0
  -22.8340    4.6830   -5.4940 N   0  0  2  0  0  0
  -19.4890    3.9950   -0.1210 F   0  0  0  0  0  0
  -22.4410    3.6900   -6.7790 S   0  0  0  0  0  0
  -21.1120    3.2330   -6.5590 O   0  0  0  0  0  0
  -23.5790    2.8460   -6.9000 O   0  0  0  0  0  0
  -22.3750    4.5910   -8.2910 C   0  0  0  0  0  0
  -21.1460    5.0150   -8.7790 C   0  0  0  0  0  0
  -21.1220    5.6900   -9.9900 C   0  0  0  0  0  0
  -22.3050    5.9260  -10.6680 C   0  0  0  0  0  0
  -23.4620    5.5040  -10.1680 N   0  0  0  0  0  0
  -23.5220    4.8520   -9.0210 C   0  0  0  0  0  0
  -22.2740    6.6170  -11.8790 N   0  0  0  0  0  0
  -23.4620    6.5780  -12.7390 C   0  0  0  0  0  0
  -24.3920    7.7610  -12.4530 C   0  0  0  0  0  0
  -23.7660    9.1150  -12.8420 C   0  0  0  0  0  0
  -23.0540    9.0950  -14.1400 N   0  0  3  0  0  0
  -22.3270    7.8870  -14.5680 C   0  0  0  0  0  0
  -23.0570    6.5870  -14.2140 C   0  0  0  0  0  0
  -22.8910   10.4870  -15.0450 S   0  0  0  0  0  0
  -22.6990   10.1120  -16.4060 O   0  0  0  0  0  0
  -23.9230   11.3990  -14.6840 O   0  0  0  0  0  0
  -21.2610   11.1020  -14.4820 C   0  0  0  0  0  0
  -24.6618    4.8835   -6.4736 H   0  0  0  0  0  0
  -23.5519    6.2893   -6.6098 H   0  0  0  0  0  0
  -21.9944    6.5569   -5.0658 H   0  0  0  0  0  0
  -20.9065    5.4005   -5.9059 H   0  0  0  0  0  0
  -20.4686    2.3258   -1.9123 H   0  0  0  0  0  0
  -20.6471    7.0869   -3.2022 H   0  0  0  0  0  0
  -19.6954    6.4418   -1.0240 H   0  0  0  0  0  0
  -21.4297    2.9748   -4.0948 H   0  0  0  0  0  0
  -24.3693    4.6064   -3.3579 H   0  0  0  0  0  0
  -25.8825    4.4768   -4.3171 H   0  0  0  0  0  0
  -25.7649    5.6732   -2.9824 H   0  0  0  0  0  0
  -25.4970    7.7339   -6.0619 H   0  0  0  0  0  0
  -26.4152    7.4747   -4.5399 H   0  0  0  0  0  0
  -26.5328    6.2782   -5.8746 H   0  0  0  0  0  0
  -23.9862    6.8777   -4.2349 H   0  0  0  0  0  0
  -20.2266    4.8227   -8.2260 H   0  0  0  0  0  0
  -20.1750    6.0334  -10.4063 H   0  0  0  0  0  0
  -24.4876    4.5149   -8.6441 H   0  0  0  0  0  0
  -21.3849    7.1827  -12.1945 H   0  0  0  0  0  0
  -23.9697    5.6353  -12.4870 H   0  0  0  0  0  0
  -25.3231    7.6424  -13.0265 H   0  0  0  0  0  0
  -24.6248    7.7930  -11.3784 H   0  0  0  0  0  0
  -24.5562    9.8767  -12.9155 H   0  0  0  0  0  0
  -23.0370    9.4158  -12.0751 H   0  0  0  0  0  0
  -22.1937    7.9068  -15.6597 H   0  0  0  0  0  0
  -21.3422    7.8591  -14.0788 H   0  0  0  0  0  0
  -22.3878    5.7376  -14.4157 H   0  0  0  0  0  0
  -23.9563    6.5023  -14.8417 H   0  0  0  0  0  0
  -20.4788   10.3843  -14.7702 H   0  0  0  0  0  0
  -21.2698   11.2151  -13.3879 H   0  0  0  0  0  0
  -21.0552   12.0761  -14.9497 H   0  0  0  0  0  0
  1 11  1  0  0  0
  1 12  1  0  0  0
  1 34  1  0  0  0
  1 35  1  0  0  0
  2  4  1  0  0  0
  2 12  1  0  0  0
  2 36  1  0  0  0
  2 37  1  0  0  0
  3  7  2  0  0  0
  3  8  1  0  0  0
  3 38  1  0  0  0
  4  5  1  0  0  0
  4  8  2  0  0  0
  5  6  2  0  0  0
  5 39  1  0  0  0
  6  7  1  0  0  0
  6 40  1  0  0  0
  7 13  1  0  0  0
  8 41  1  0  0  0
  9 11  1  0  0  0
  9 42  1  0  0  0
  9 43  1  0  0  0
  9 44  1  0  0  0
 10 11  1  0  0  0
 10 45  1  0  0  0
 10 46  1  0  0  0
 10 47  1  0  0  0
 11 48  1  0  0  0
 12 14  1  0  0  0
 14 15  2  0  0  0
 14 16  2  0  0  0
 14 17  1  0  0  0
 17 18  2  0  0  0
 17 22  1  0  0  0
 18 19  1  0  0  0
 18 49  1  0  0  0
 19 20  2  0  0  0
 19 50  1  0  0  0
 20 21  1  0  0  0
 20 23  1  0  0  0
 21 22  2  0  0  0
 22 51  1  0  0  0
 23 24  1  0  0  0
 23 52  1  0  0  0
 24 25  1  0  0  0
 24 29  1  0  0  0
 24 53  1  0  0  0
 25 26  1  0  0  0
 25 54  1  0  0  0
 25 55  1  0  0  0
 26 27  1  0  0  0
 26 56  1  0  0  0
 26 57  1  0  0  0
 27 28  1  0  0  0
 27 30  1  0  0  0
 28 29  1  0  0  0
 28 58  1  0  0  0
 28 59  1  0  0  0
 29 60  1  0  0  0
 29 61  1  0  0  0
 30 31  2  0  0  0
 30 32  2  0  0  0
 30 33  1  0  0  0
 33 62  1  0  0  0
 33 63  1  0  0  0
 33 64  1  0  0  0
M  END
> <s_m_source_file>
../4wlb_ligand.sdf

> <i_m_source_file_index>
1

> <s_epik_input>
W2NIXTFbY0hdYyhGKVtjSF1bY0hdYzFbQ0gyXU4oW0NIMl1bQ0hdKFtDSDNdKVtDSDNdKVMoPU8pKD1PKWMyW2NIXVtjSF1jKG5bY0hdMilbTkhdW0NIXTNbQ0gyXVtDSDJdTihbQ0gyXVtDSDJdMylTKD1PKSg9TylbQ0gzXQ==

> <s_epik_cmdline>
J2VwaWtfYXBwJywgJy1pbWFlJywgJ2xpZ2FuZF9wcm8ubWFlJywgJy1vbWFlJywgJ2xpZ2FuZF9wcmVwLm1hZScsICctbXMnLCAnMScsICctcGgnLCAnNycsICctcGh0JywgJzAuNScsICctbnQn

> <r_lp_tautomer_probability>
1

> <r_epik_Ionization_Penalty>
  0.0002

> <r_epik_Ionization_Penalty_Charging>
  0.0000

> <r_epik_Ionization_Penalty_Neutral>
  0.0002

> <r_epik_State_Penalty>
 -0.0000

> <r_epik_Charging_Adjusted_Penalty>
0

> <i_epik_Tot_Q>
0

> <i_epik_Tot_abs_Q>
0

$$$$
