4wmu_ligand
                    3D
 Schrodinger Suite 2020-3.
 43 45  0  0  1  0            999 V2000
   16.2800  190.3830   33.6500 O   0  5  0  0  0  0
   16.4200  191.6130   33.3890 C   0  0  0  0  0  0
   17.3110  191.9690   32.5810 O   0  0  0  0  0  0
   15.5420  192.6930   34.0460 C   0  0  0  0  0  0
   15.0420  193.7880   33.4300 N   0  0  0  0  0  0
   14.3180  194.5460   34.3310 C   0  0  0  0  0  0
   13.6110  195.7500   34.1880 C   0  0  0  0  0  0
   12.9430  196.3140   35.2840 C   0  0  0  0  0  0
   12.0610  197.8250   35.1240 Cl  0  0  0  0  0  0
   12.9840  195.6750   36.5220 C   0  0  0  0  0  0
   13.6770  194.4770   36.6630 C   0  0  0  0  0  0
   14.3570  193.9080   35.5630 C   0  0  0  0  0  0
   15.1440  192.7350   35.3940 C   0  0  0  0  0  0
   15.4950  191.6740   36.4600 C   0  0  0  0  0  0
   14.5530  190.4820   36.3890 C   0  0  0  0  0  0
   13.1290  190.8670   36.8230 C   0  0  0  0  0  0
   13.2570  191.4410   38.1450 O   0  0  0  0  0  0
   12.0340  191.6560   38.8340 C   0  0  0  0  0  0
   10.8310  191.6830   38.1250 C   0  0  0  0  0  0
    9.6540  191.8940   38.8250 C   0  0  0  0  0  0
    8.3130  191.9170   38.0480 C   0  0  0  0  0  0
    9.6810  192.0800   40.2130 C   0  0  0  0  0  0
    8.2070  192.3420   41.1020 Cl  0  0  0  0  0  0
   10.8850  192.0560   40.9100 C   0  0  0  0  0  0
   10.9330  192.2650   42.4470 C   0  0  0  0  0  0
   12.0670  191.8440   40.2150 C   0  0  0  0  0  0
   13.5789  196.2564   33.2120 H   0  0  0  0  0  0
   12.4686  196.1180   37.3869 H   0  0  0  0  0  0
   13.6955  193.9735   37.6295 H   0  0  0  0  0  0
   16.5225  191.3166   36.2972 H   0  0  0  0  0  0
   15.4168  192.1211   37.4620 H   0  0  0  0  0  0
   14.5139  190.1066   35.3558 H   0  0  0  0  0  0
   14.9180  189.6860   37.0547 H   0  0  0  0  0  0
   12.7133  191.5958   36.1116 H   0  0  0  0  0  0
   12.4951  189.9682   36.8395 H   0  0  0  0  0  0
   10.8183  191.5411   37.0443 H   0  0  0  0  0  0
    8.5066  191.7530   36.9777 H   0  0  0  0  0  0
    7.8254  192.8931   38.1871 H   0  0  0  0  0  0
    7.6555  191.1212   38.4279 H   0  0  0  0  0  0
    9.9126  192.4176   42.8283 H   0  0  0  0  0  0
   11.5467  193.1482   42.6779 H   0  0  0  0  0  0
   11.3738  191.3773   42.9241 H   0  0  0  0  0  0
   13.0182  191.8245   40.7470 H   0  0  0  0  0  0
  1  2  1  0  0  0
  2  3  2  0  0  0
  2  4  1  0  0  0
  4  5  2  0  0  0
  4 13  1  0  0  0
  5  6  1  0  0  0
  6  7  2  0  0  0
  6 12  1  0  0  0
  7  8  1  0  0  0
  7 27  1  0  0  0
  8  9  1  0  0  0
  8 10  2  0  0  0
 10 11  1  0  0  0
 10 28  1  0  0  0
 11 12  1  0  0  0
 11 29  1  0  0  0
 12 13  2  0  0  0
 13 14  1  0  0  0
 14 15  1  0  0  0
 14 30  1  0  0  0
 14 31  1  0  0  0
 15 16  1  0  0  0
 15 32  1  0  0  0
 15 33  1  0  0  0
 16 17  1  0  0  0
 16 34  1  0  0  0
 16 35  1  0  0  0
 17 18  1  0  0  0
 18 19  2  0  0  0
 18 26  1  0  0  0
 19 20  1  0  0  0
 19 36  1  0  0  0
 20 21  1  0  0  0
 20 22  2  0  0  0
 21 37  1  0  0  0
 21 38  1  0  0  0
 21 39  1  0  0  0
 22 23  1  0  0  0
 22 24  1  0  0  0
 24 25  1  0  0  0
 24 26  2  0  0  0
 25 40  1  0  0  0
 25 41  1  0  0  0
 25 42  1  0  0  0
 26 43  1  0  0  0
M  CHG  1   1  -1
M  END
> <s_m_source_file>
../4wmu_ligand.sdf

> <i_m_source_file_index>
1

> <s_epik_input>
W0NIXTFDKENsKT1bQ0hdW0NIMl1DKEM9MTIpPUMoQyg9TjIpQyg9TylbT0hdKVtDSDJdW0NIMl1bQ0gyXU9jM1tjSF1jKFtDSDNdKWMoQ2wpYyhbQ0gzXSlbY0hdMw==

> <s_epik_cmdline>
J2VwaWtfYXBwJywgJy1pbWFlJywgJ2xpZ2FuZF9wcm8ubWFlJywgJy1vbWFlJywgJ2xpZ2FuZF9wcmVwLm1hZScsICctbXMnLCAnMScsICctcGgnLCAnNycsICctcGh0JywgJzAuNScsICctbnQn

> <r_lp_tautomer_probability>
1

> <r_epik_Ionization_Penalty>
  0.0000

> <r_epik_Ionization_Penalty_Charging>
  0.0000

> <r_epik_Ionization_Penalty_Neutral>
  0.0000

> <r_epik_State_Penalty>
 -0.0000

> <r_epik_Charging_Adjusted_Penalty>
2.29401159640729e-07

> <i_epik_Tot_Q>
-1

> <i_epik_Tot_abs_Q>
1

> <s_epik_Chemistry_Notes>
This compound has an imine and may undergo hydrolysis.

$$$$
