4wn5_ligand
                    3D
 Schrodinger Suite 2020-3.
 65 64  0  0  1  0            999 V2000
    7.8640  -47.6000  -10.0570 C   0  0  0  0  0  0
    0.9800  -50.8650  -13.8290 C   0  0  0  0  0  0
   -0.4270  -50.2390  -13.6190 C   0  0  0  0  0  0
    7.3430  -48.8160  -10.8020 C   0  0  0  0  0  0
    2.1000  -49.8370  -14.0400 C   0  0  0  0  0  0
   -0.9210  -49.4600  -14.8570 C   0  0  0  0  0  0
   -7.0630  -44.6340  -10.8190 C   0  0  0  0  0  0
    6.5610  -48.4310  -12.0370 C   0  0  0  0  0  0
    3.4920  -50.4540  -14.2210 C   0  0  0  0  0  0
   -2.3880  -48.9870  -14.7600 C   0  0  0  0  0  0
    6.2130  -49.6250  -12.9280 C   0  0  0  0  0  0
    4.0060  -51.0010  -12.8750 C   0  0  0  0  0  0
   -2.6070  -48.0300  -13.5670 C   0  0  0  0  0  0
    5.1950  -50.6000  -12.3140 C   0  0  0  0  0  0
   -4.0410  -47.5430  -13.4370 C   0  0  0  0  0  0
   -4.2020  -46.6220  -12.2390 C   0  0  0  0  0  0
   -8.0640  -42.8400   -9.3670 C   0  0  0  0  0  0
   -6.8000  -43.4060   -9.9700 C   0  0  2  0  0  0
   -6.5820  -46.5930  -12.6410 O   0  0  0  0  0  0
   -5.6380  -46.1880  -12.0090 C   0  0  0  0  0  0
   -5.7530  -45.1500  -11.0860 O   0  0  0  0  0  0
   -6.1430  -42.4360  -10.7650 O   0  0  0  0  0  0
   -8.9140  -42.4040  -10.4100 O   0  0  0  0  0  0
    8.5080  -47.9040   -8.7320 C   0  0  0  0  0  0
    9.0870  -46.6680   -8.0920 C   0  0  0  0  0  0
    8.6225  -47.0915  -10.6703 H   0  0  0  0  0  0
    7.0320  -46.9092   -9.8554 H   0  0  0  0  0  0
    1.2514  -51.4616  -12.9456 H   0  0  0  0  0  0
    0.9643  -51.5126  -14.7181 H   0  0  0  0  0  0
   -1.1553  -51.0361  -13.4089 H   0  0  0  0  0  0
   -0.3942  -49.5394  -12.7708 H   0  0  0  0  0  0
    8.1895  -49.4455  -11.1138 H   0  0  0  0  0  0
    6.6798  -49.3942  -10.1418 H   0  0  0  0  0  0
    1.8890  -49.2451  -14.9428 H   0  0  0  0  0  0
    2.1536  -49.1689  -13.1678 H   0  0  0  0  0  0
   -0.3002  -48.5629  -14.9974 H   0  0  0  0  0  0
   -0.8457  -50.1011  -15.7477 H   0  0  0  0  0  0
   -7.6835  -45.3447  -10.2534 H   0  0  0  0  0  0
   -7.5897  -44.3383  -11.7383 H   0  0  0  0  0  0
    5.6162  -47.9533  -11.7386 H   0  0  0  0  0  0
    7.1527  -47.7275  -12.6412 H   0  0  0  0  0  0
    3.4364  -51.2773  -14.9484 H   0  0  0  0  0  0
    4.1884  -49.6861  -14.5889 H   0  0  0  0  0  0
   -2.6637  -48.4557  -15.6829 H   0  0  0  0  0  0
   -3.0463  -49.8584  -14.6279 H   0  0  0  0  0  0
    5.7815  -49.2637  -13.8732 H   0  0  0  0  0  0
    7.1246  -50.2034  -13.1385 H   0  0  0  0  0  0
    3.3774  -51.7426  -12.3603 H   0  0  0  0  0  0
   -2.3479  -48.5460  -12.6307 H   0  0  0  0  0  0
   -1.9672  -47.1432  -13.6861 H   0  0  0  0  0  0
    5.4959  -50.9854  -11.3286 H   0  0  0  0  0  0
   -4.3243  -46.9905  -14.3450 H   0  0  0  0  0  0
   -4.7111  -48.4059  -13.3088 H   0  0  0  0  0  0
   -3.8612  -47.1396  -11.3302 H   0  0  0  0  0  0
   -3.6003  -45.7138  -12.3912 H   0  0  0  0  0  0
   -8.5692  -43.6186   -8.7766 H   0  0  0  0  0  0
   -7.8109  -41.9914   -8.7144 H   0  0  0  0  0  0
   -6.1121  -43.6495   -9.1469 H   0  0  0  0  0  0
   -5.2031  -42.6896  -11.2771 H   0  0  0  0  0  0
   -9.8911  -41.9577  -10.1730 H   0  0  0  0  0  0
    7.7575  -48.3268   -8.0480 H   0  0  0  0  0  0
    9.3215  -48.6299   -8.8777 H   0  0  0  0  0  0
    9.5463  -46.9348   -7.1287 H   0  0  0  0  0  0
    8.2865  -45.9322   -7.9253 H   0  0  0  0  0  0
    9.8506  -46.2352   -8.7550 H   0  0  0  0  0  0
  1  4  1  0  0  0
  1 24  1  0  0  0
  1 26  1  0  0  0
  1 27  1  0  0  0
  2  3  1  0  0  0
  2  5  1  0  0  0
  2 28  1  0  0  0
  2 29  1  0  0  0
  3  6  1  0  0  0
  3 30  1  0  0  0
  3 31  1  0  0  0
  4  8  1  0  0  0
  4 32  1  0  0  0
  4 33  1  0  0  0
  5  9  1  0  0  0
  5 34  1  0  0  0
  5 35  1  0  0  0
  6 10  1  0  0  0
  6 36  1  0  0  0
  6 37  1  0  0  0
  7 18  1  0  0  0
  7 21  1  0  0  0
  7 38  1  0  0  0
  7 39  1  0  0  0
  8 11  1  0  0  0
  8 40  1  0  0  0
  8 41  1  0  0  0
  9 12  1  0  0  0
  9 42  1  0  0  0
  9 43  1  0  0  0
 10 13  1  0  0  0
 10 44  1  0  0  0
 10 45  1  0  0  0
 11 14  1  0  0  0
 11 46  1  0  0  0
 11 47  1  0  0  0
 12 14  2  0  0  0
 12 48  1  0  0  0
 13 15  1  0  0  0
 13 49  1  0  0  0
 13 50  1  0  0  0
 14 51  1  0  0  0
 15 16  1  0  0  0
 15 52  1  0  0  0
 15 53  1  0  0  0
 16 20  1  0  0  0
 16 54  1  0  0  0
 16 55  1  0  0  0
 17 18  1  0  0  0
 17 23  1  0  0  0
 17 56  1  0  0  0
 17 57  1  0  0  0
 18 22  1  0  0  0
 18 58  1  0  0  0
 19 20  2  0  0  0
 20 21  1  0  0  0
 22 59  1  0  0  0
 23 60  1  0  0  0
 24 25  1  0  0  0
 24 61  1  0  0  0
 24 62  1  0  0  0
 25 63  1  0  0  0
 25 64  1  0  0  0
 25 65  1  0  0  0
M  END
> <s_m_source_file>
../4wn5_ligand.sdf

> <i_m_source_file_index>
1

> <s_epik_input>
W0NIM11bQ0gyXVtDSDJdW0NIMl1bQ0gyXVtDSDJdL1tDSF09W0NIXVxbQ0gyXVtDSDJdW0NIMl1bQ0gyXVtDSDJdW0NIMl1bQ0gyXVtDSDJdW0NIMl1DKD1PKU9bQ0gyXVtDQEBIXShbT0hdKVtDSDJdW09IXQ==

> <s_epik_cmdline>
J2VwaWtfYXBwJywgJy1pbWFlJywgJ2xpZ2FuZF9wcm8ubWFlJywgJy1vbWFlJywgJ2xpZ2FuZF9wcmVwLm1hZScsICctbXMnLCAnMScsICctcGgnLCAnNycsICctcGh0JywgJzAuNScsICctbnQn

> <r_lp_tautomer_probability>
1

> <r_epik_Ionization_Penalty>
  0.0000

> <r_epik_Ionization_Penalty_Charging>
  0.0000

> <r_epik_Ionization_Penalty_Neutral>
  0.0000

> <r_epik_State_Penalty>
 -0.0000

> <r_epik_Charging_Adjusted_Penalty>
0

> <i_epik_Tot_Q>
0

> <i_epik_Tot_abs_Q>
0

> <s_epik_Chemistry_Notes>
This compound has an ester and may undergo hydrolysis at high or low pH.

$$$$
