4wnk_ligand
                    3D
 Schrodinger Suite 2020-3.
 58 62  0  0  1  0            999 V2000
    1.0710   22.9250  -35.2700 O   0  0  0  0  0  0
    0.8400   21.7480  -35.3020 C   0  0  0  0  0  0
   -0.3700   21.2960  -35.0260 N   0  0  0  0  0  0
   -1.4620   22.1670  -34.6690 C   0  0  0  0  0  0
   -1.4450   22.5190  -33.2020 C   0  0  0  0  0  0
   -1.9530   23.7390  -32.7960 C   0  0  0  0  0  0
   -1.9500   24.0920  -31.4500 C   0  0  0  0  0  0
   -1.4360   23.1840  -30.5360 C   0  0  0  0  0  0
   -0.9430   21.9710  -30.9900 C   0  0  0  0  0  0
   -0.9560   21.6700  -32.2930 N   0  0  0  0  0  0
    1.9480   20.8150  -35.6760 C   0  0  0  0  0  0
    1.7730   19.9680  -36.7510 C   0  0  0  0  0  0
    3.1110   20.7940  -34.9940 C   0  0  0  0  0  0
    3.2820   21.6080  -33.9710 F   0  0  0  0  0  0
    4.1290   19.9360  -35.3470 C   0  0  0  0  0  0
    3.9700   19.0800  -36.4150 C   0  0  0  0  0  0
    2.7740   19.1010  -37.1160 C   0  0  0  0  0  0
    2.6360   18.1830  -38.2590 C   0  0  2  0  0  0
    1.7000   18.7160  -39.2440 N   0  0  0  0  0  0
    0.4090   18.3660  -39.3920 C   0  0  0  0  0  0
   -0.3530   18.9940  -40.1270 O   0  0  0  0  0  0
   -0.0490   17.3090  -38.7600 N   0  0  0  0  0  0
    0.8920   16.4770  -38.1000 C   0  0  0  0  0  0
    0.2440   15.1640  -37.8020 C   0  0  0  0  0  0
    2.2180   16.8370  -37.8320 C   0  0  0  0  0  0
    2.9340   15.6940  -37.2250 C   0  0  0  0  0  0
    3.7960   15.2390  -37.9620 O   0  0  0  0  0  0
    2.6200   15.2140  -36.0430 N   0  0  0  0  0  0
    3.1820   14.1050  -35.5270 C   0  0  0  0  0  0
    4.1820   13.3080  -36.1150 C   0  0  0  0  0  0
    2.5620   13.6670  -34.3410 C   0  0  0  0  0  0
    2.9350   12.5110  -33.6690 C   0  0  0  0  0  0
    3.9390   11.7360  -34.2080 C   0  0  0  0  0  0
    4.5800   12.1430  -35.4590 C   0  0  0  0  0  0
    4.5510   10.5990  -33.8760 N   0  0  0  0  0  0
    5.5490   10.2180  -34.7950 N   0  0  0  0  0  0
    5.5700   11.1690  -35.7740 C   0  0  0  0  0  0
   -0.5278   20.2086  -35.0768 H   0  0  0  0  0  0
   -1.3912   23.0998  -35.2477 H   0  0  0  0  0  0
   -2.4168   21.6685  -34.8924 H   0  0  0  0  0  0
   -2.3588   24.4293  -33.5355 H   0  0  0  0  0  0
   -2.3408   25.0555  -31.1229 H   0  0  0  0  0  0
   -1.4200   23.4219  -29.4724 H   0  0  0  0  0  0
   -0.5395   21.2531  -30.2760 H   0  0  0  0  0  0
    0.8385   19.9869  -37.3118 H   0  0  0  0  0  0
    5.0607   19.9341  -34.7813 H   0  0  0  0  0  0
    4.7702   18.3985  -36.7036 H   0  0  0  0  0  0
    3.6243   18.0977  -38.7344 H   0  0  0  0  0  0
    2.0322   19.4821  -39.9601 H   0  0  0  0  0  0
   -1.1281   17.0955  -38.7556 H   0  0  0  0  0  0
   -0.8052   15.1898  -38.1313 H   0  0  0  0  0  0
    0.2840   14.9727  -36.7195 H   0  0  0  0  0  0
    0.7762   14.3629  -38.3359 H   0  0  0  0  0  0
    1.8654   15.7230  -35.4254 H   0  0  0  0  0  0
    4.6361   13.5951  -37.0634 H   0  0  0  0  0  0
    1.7488   14.2654  -33.9302 H   0  0  0  0  0  0
    2.4460   12.2235  -32.7383 H   0  0  0  0  0  0
    6.2280   11.1808  -36.6429 H   0  0  0  0  0  0
  1  2  2  0  0  0
  2  3  1  0  0  0
  2 11  1  0  0  0
  3  4  1  0  0  0
  3 38  1  0  0  0
  4  5  1  0  0  0
  4 39  1  0  0  0
  4 40  1  0  0  0
  5  6  2  0  0  0
  5 10  1  0  0  0
  6  7  1  0  0  0
  6 41  1  0  0  0
  7  8  2  0  0  0
  7 42  1  0  0  0
  8  9  1  0  0  0
  8 43  1  0  0  0
  9 10  2  0  0  0
  9 44  1  0  0  0
 11 12  2  0  0  0
 11 13  1  0  0  0
 12 17  1  0  0  0
 12 45  1  0  0  0
 13 14  1  0  0  0
 13 15  2  0  0  0
 15 16  1  0  0  0
 15 46  1  0  0  0
 16 17  2  0  0  0
 16 47  1  0  0  0
 17 18  1  0  0  0
 18 19  1  0  0  0
 18 25  1  0  0  0
 18 48  1  0  0  0
 19 20  1  0  0  0
 19 49  1  0  0  0
 20 21  2  0  0  0
 20 22  1  0  0  0
 22 23  1  0  0  0
 22 50  1  0  0  0
 23 24  1  0  0  0
 23 25  2  0  0  0
 24 51  1  0  0  0
 24 52  1  0  0  0
 24 53  1  0  0  0
 25 26  1  0  0  0
 26 27  2  0  0  0
 26 28  1  0  0  0
 28 29  1  0  0  0
 28 54  1  0  0  0
 29 30  2  0  0  0
 29 31  1  0  0  0
 30 34  1  0  0  0
 30 55  1  0  0  0
 31 32  2  0  0  0
 31 56  1  0  0  0
 32 33  1  0  0  0
 32 57  1  0  0  0
 33 34  2  0  0  0
 33 35  1  0  0  0
 34 37  1  0  0  0
 35 36  2  0  0  0
 36 37  1  0  0  0
 37 58  1  0  0  0
M  END
> <s_m_source_file>
../4wnk_ligand.sdf

> <i_m_source_file_index>
1

> <s_epik_input>
bjFbY0hdW2NIXVtjSF1bY0hdYzFbQ0gyXVtOSF1DKD1PKWMyW2NIXWMoW2NIXVtjSF1jMkYpW0NAQEhdM1tOSF1DKD1PKVtOSF1DKFtDSDNdKT1DM0MoPU8pW05IXWMoW2NIXVtjSF00KVtjSF1jKGM0NSlbQ0gyXU49TjU=

> <s_epik_cmdline>
J2VwaWtfYXBwJywgJy1pbWFlJywgJ2xpZ2FuZF9wcm8ubWFlJywgJy1vbWFlJywgJ2xpZ2FuZF9wcmVwLm1hZScsICctbXMnLCAnMScsICctcGgnLCAnNycsICctcGh0JywgJzAuNScsICctbnQn

> <r_lp_tautomer_probability>
1

> <r_epik_Ionization_Penalty>
  0.0088

> <r_epik_Ionization_Penalty_Charging>
  0.0000

> <r_epik_Ionization_Penalty_Neutral>
  0.0088

> <r_epik_State_Penalty>
 -0.0000

> <r_epik_Charging_Adjusted_Penalty>
0

> <i_epik_Tot_Q>
0

> <i_epik_Tot_abs_Q>
0

$$$$
