4wno_ligand
                    3D
 Schrodinger Suite 2020-3.
 46 50  0  0  1  0            999 V2000
   -2.7020  -40.6980  -18.8390 C   0  0  0  0  0  0
   -0.6690  -39.4530  -19.3460 C   0  0  0  0  0  0
   -4.2250  -39.8440  -16.9980 C   0  0  0  0  0  0
   -7.9290  -41.4650  -14.9370 C   0  0  0  0  0  0
   -9.3170  -40.0890  -13.7550 C   0  0  0  0  0  0
   -6.7510  -40.7610  -15.2200 C   0  0  0  0  0  0
   -7.6530  -37.4520  -10.7680 N   0  0  0  0  0  0
   -6.6790  -37.3380  -11.8110 C   0  0  0  0  0  0
   -5.3380  -37.6040  -11.5370 C   0  0  0  0  0  0
   -4.3930  -37.4810  -12.5580 C   0  0  0  0  0  0
   -7.0890  -36.9490  -13.0740 C   0  0  0  0  0  0
   -6.1470  -36.8220  -14.0980 C   0  0  0  0  0  0
   -4.8190  -37.1110  -13.8300 C   0  0  0  0  0  0
   -3.8550  -36.9510  -14.8700 N   0  0  0  0  0  0
   -3.6320  -37.9410  -15.8650 C   0  0  0  0  0  0
   -2.5270  -37.7960  -16.5940 N   0  0  0  0  0  0
   -2.1960  -38.6910  -17.5800 C   0  0  0  0  0  0
   -3.0380  -39.7570  -17.8260 C   0  0  0  0  0  0
   -1.5240  -40.5440  -19.5960 C   0  0  0  0  0  0
   -0.9810  -38.5330  -18.3400 C   0  0  0  0  0  0
   -5.0970  -40.9190  -17.2500 N   0  0  0  0  0  0
   -6.2400  -41.2410  -16.4550 C   0  0  3  0  0  0
   -7.0640  -42.2120  -16.8960 N   0  3  0  0  0  0
   -8.0540  -42.3210  -15.9750 N   0  0  0  0  0  0
   -9.0610  -41.5840  -13.8430 C   0  0  0  0  0  0
   -8.3540  -40.7210  -12.7860 C   0  0  0  0  0  0
   -4.4920  -38.9410  -16.0440 N   0  0  0  0  0  0
   -3.3612  -41.5446  -19.0308 H   0  0  0  0  0  0
    0.2375  -39.3255  -19.9377 H   0  0  0  0  0  0
   -9.0346  -39.6121  -14.7052 H   0  0  0  0  0  0
  -10.3845  -39.9107  -13.5584 H   0  0  0  0  0  0
   -6.3894  -39.9911  -14.5226 H   0  0  0  0  0  0
   -7.3440  -37.7600   -9.7582 H   0  0  0  0  0  0
   -8.7103  -37.2316  -10.9764 H   0  0  0  0  0  0
   -5.0302  -37.9050  -10.5356 H   0  0  0  0  0  0
   -3.3380  -37.6719  -12.3615 H   0  0  0  0  0  0
   -8.1414  -36.7427  -13.2690 H   0  0  0  0  0  0
   -6.4527  -36.5001  -15.0935 H   0  0  0  0  0  0
   -3.2500  -36.0339  -14.9228 H   0  0  0  0  0  0
   -1.2749  -41.2669  -20.3728 H   0  0  0  0  0  0
   -0.3089  -37.7006  -18.1315 H   0  0  0  0  0  0
   -9.6533  -42.5107  -13.8621 H   0  0  0  0  0  0
   -7.3610  -40.2629  -12.9046 H   0  0  0  0  0  0
   -8.7109  -40.5616  -11.7578 H   0  0  0  0  0  0
   -7.0654  -42.8607  -17.7844 H   0  0  0  0  0  0
   -5.4021  -39.0382  -15.4339 H   0  0  0  0  0  0
  1 18  2  0  0  0
  1 19  1  0  0  0
  1 28  1  0  0  0
  2 19  2  0  0  0
  2 20  1  0  0  0
  2 29  1  0  0  0
  3 18  1  0  0  0
  3 21  2  0  0  0
  3 27  1  0  0  0
  4  6  2  0  0  0
  4 24  1  0  0  0
  4 25  1  0  0  0
  5 25  1  0  0  0
  5 26  1  0  0  0
  5 30  1  0  0  0
  5 31  1  0  0  0
  6 22  1  0  0  0
  6 32  1  0  0  0
  7  8  1  0  0  0
  7 33  1  0  0  0
  7 34  1  0  0  0
  8  9  2  0  0  0
  8 11  1  0  0  0
  9 10  1  0  0  0
  9 35  1  0  0  0
 10 13  2  0  0  0
 10 36  1  0  0  0
 11 12  2  0  0  0
 11 37  1  0  0  0
 12 13  1  0  0  0
 12 38  1  0  0  0
 13 14  1  0  0  0
 14 15  1  0  0  0
 14 39  1  0  0  0
 15 16  2  0  0  0
 15 27  1  0  0  0
 16 17  1  0  0  0
 17 18  1  0  0  0
 17 20  2  0  0  0
 19 40  1  0  0  0
 20 41  1  0  0  0
 21 22  1  0  0  0
 22 23  1  0  0  0
 23 24  2  0  0  0
 23 45  1  0  0  0
 25 26  1  0  0  0
 25 42  1  0  0  0
 26 43  1  0  0  0
 26 44  1  0  0  0
 27 46  1  0  0  0
M  CHG  1  23   1
M  END
> <s_m_source_file>
../4wno_ligand.sdf

> <i_m_source_file_index>
1

> <s_epik_input>
W0NIMl0xW0NIMl1bQ0hdMUMyPVtDSF1bQ0hdKE49TjIpW05IXWMoYyhjMzQpW2NIXVtjSF1bY0hdW2NIXTQpbmMobjMpW05IXWMoW2NIXVtjSF01KVtjSF1bY0hdYzVbTkgyXQ==

> <s_epik_cmdline>
J2VwaWtfYXBwJywgJy1pbWFlJywgJ2xpZ2FuZF9wcm8ubWFlJywgJy1vbWFlJywgJ2xpZ2FuZF9wcmVwLm1hZScsICctbXMnLCAnMScsICctcGgnLCAnNycsICctcGh0JywgJzAuNScsICctbnQn

> <r_lp_tautomer_probability>
1

> <r_epik_Ionization_Penalty>
  0.0441

> <r_epik_Ionization_Penalty_Charging>
  0.0000

> <r_epik_Ionization_Penalty_Neutral>
  0.0440

> <r_epik_State_Penalty>
 -0.0000

> <r_epik_Charging_Adjusted_Penalty>
4.6544745443427e-05

> <i_epik_Tot_Q>
1

> <i_epik_Tot_abs_Q>
1

$$$$
