4wnp_ligand
                    3D
 Schrodinger Suite 2020-3.
 49 54  0  0  1  0            999 V2000
  103.1500   43.9610   13.0650 C   0  0  0  0  0  0
  104.3390   45.6240   13.4470 C   0  0  0  0  0  0
  101.9670   42.8740   15.1950 C   0  0  0  0  0  0
  103.3130   44.3770   18.9570 C   0  0  0  0  0  0
  104.6680   44.1610   19.1100 C   0  0  0  0  0  0
  103.7120   45.9230   17.1620 C   0  0  0  0  0  0
   99.8940   41.1120   20.0380 C   0  0  0  0  0  0
   99.1110   40.4790   21.0410 C   0  0  0  0  0  0
   98.2360   39.4780   20.6690 C   0  0  0  0  0  0
   98.1060   39.1030   19.3190 C   0  0  0  0  0  0
   98.8710   39.7300   18.3300 C   0  0  0  0  0  0
   99.7840   40.7660   18.7150 C   0  0  0  0  0  0
  100.6020   41.4430   17.7730 C   0  0  0  0  0  0
  100.4910   41.0760   16.4070 N   0  0  0  0  0  0
  101.1710   41.7090   15.3070 C   0  0  0  0  0  0
  101.0470   41.1480   14.0830 N   0  3  0  0  0  0
  101.7750   41.8980   13.2140 N   0  0  0  0  0  0
  102.3310   42.9500   13.8300 C   0  0  0  0  0  0
  102.8680   45.4300   13.2740 C   0  0  0  0  0  0
  104.4820   44.1570   13.6980 C   0  0  0  0  0  0
  101.4530   42.4160   18.1370 N   0  0  0  0  0  0
  101.5320   42.7320   19.4490 C   0  0  0  0  0  0
  102.4420   43.7250   19.8670 N   0  0  0  0  0  0
  105.5700   44.8320   18.2540 C   0  0  0  0  0  0
  106.9270   44.7920   18.1580 N   0  0  0  0  0  0
  107.3160   45.6330   17.1700 C   0  0  0  0  0  0
  106.2100   46.1930   16.6330 N   0  0  0  0  0  0
  105.1000   45.6990   17.3020 C   0  0  0  0  0  0
  102.8190   45.2630   18.0080 C   0  0  0  0  0  0
  100.7870   42.1060   20.3950 N   0  0  0  0  0  0
  103.0048   43.5500   12.0551 H   0  0  0  0  0  0
  104.7651   46.0410   12.5225 H   0  0  0  0  0  0
  104.5218   46.3181   14.2806 H   0  0  0  0  0  0
  102.1695   43.4893   16.0840 H   0  0  0  0  0  0
  105.0487   43.4784   19.8840 H   0  0  0  0  0  0
  103.3336   46.6122   16.3927 H   0  0  0  0  0  0
   99.1997   40.7785   22.0853 H   0  0  0  0  0  0
   97.6397   38.9729   21.4289 H   0  0  0  0  0  0
   97.4033   38.3173   19.0416 H   0  0  0  0  0  0
   98.7746   39.4360   17.2848 H   0  0  0  0  0  0
   99.8396   40.2397   16.1134 H   0  0  0  0  0  0
  102.3776   45.8402   12.3789 H   0  0  0  0  0  0
  102.2074   45.5564   14.1444 H   0  0  0  0  0  0
  104.4520   43.7929   14.7356 H   0  0  0  0  0  0
  105.2420   43.5959   13.1344 H   0  0  0  0  0  0
  108.3437   45.8248   16.8615 H   0  0  0  0  0  0
  101.7382   45.4473   17.9185 H   0  0  0  0  0  0
  100.5000   40.2644   13.7224 H   0  0  0  0  0  0
  107.5070   44.1422   18.8298 H   0  0  0  0  0  0
  1 18  1  0  0  0
  1 19  1  0  0  0
  1 20  1  0  0  0
  1 31  1  0  0  0
  2 19  1  0  0  0
  2 20  1  0  0  0
  2 32  1  0  0  0
  2 33  1  0  0  0
  3 15  2  0  0  0
  3 18  1  0  0  0
  3 34  1  0  0  0
  4  5  1  0  0  0
  4 23  2  0  0  0
  4 29  1  0  0  0
  5 24  2  0  0  0
  5 35  1  0  0  0
  6 28  1  0  0  0
  6 29  2  0  0  0
  6 36  1  0  0  0
  7  8  2  0  0  0
  7 12  1  0  0  0
  7 30  1  0  0  0
  8  9  1  0  0  0
  8 37  1  0  0  0
  9 10  2  0  0  0
  9 38  1  0  0  0
 10 11  1  0  0  0
 10 39  1  0  0  0
 11 12  2  0  0  0
 11 40  1  0  0  0
 12 13  1  0  0  0
 13 14  1  0  0  0
 13 21  2  0  0  0
 14 15  1  0  0  0
 14 41  1  0  0  0
 15 16  1  0  0  0
 16 17  1  0  0  0
 16 48  1  0  0  0
 17 18  2  0  0  0
 19 42  1  0  0  0
 19 43  1  0  0  0
 20 44  1  0  0  0
 20 45  1  0  0  0
 21 22  1  0  0  0
 22 23  1  0  0  0
 22 30  2  0  0  0
 24 25  1  0  0  0
 24 28  1  0  0  0
 25 26  1  0  0  0
 25 49  1  0  0  0
 26 27  1  0  0  0
 26 46  1  0  0  0
 27 28  2  0  0  0
 29 47  1  0  0  0
M  CHG  1  16   1
M  END
> <s_m_source_file>
../4wnp_ligand.sdf

> <i_m_source_file_index>
1

> <s_epik_input>
W0NIMl0xW0NIMl1bQ0gyXVtDSF0xYyhuW25IXTIpW2NIXWMyW05IXWMoYyhjMzQpW2NIXVtjSF1bY0hdW2NIXTMpbmMobjQpW05IXWMoW2NIXTUpW2NIXVtjSF1jKGM1PTYpPU5bQ0gyXU42

> <s_epik_cmdline>
J2VwaWtfYXBwJywgJy1pbWFlJywgJ2xpZ2FuZF9wcm8ubWFlJywgJy1vbWFlJywgJ2xpZ2FuZF9wcmVwLm1hZScsICctbXMnLCAnMScsICctcGgnLCAnNycsICctcGh0JywgJzAuNScsICctbnQn

> <r_epik_Ionization_Penalty>
  0.1899

> <r_epik_Ionization_Penalty_Charging>
  0.0000

> <r_epik_Ionization_Penalty_Neutral>
  0.1899

> <r_epik_State_Penalty>
  0.4213

> <r_epik_Charging_Adjusted_Penalty>
0.421284478453507

> <i_epik_Tot_Q>
1

> <i_epik_Tot_abs_Q>
1

> <s_epik_Chemistry_Notes>
This compound has an imine and may undergo hydrolysis.

$$$$
