4wop_ligand
                    3D
 Schrodinger Suite 2020-3.
 41 42  0  0  1  0            999 V2000
   14.1930   36.7950  -24.3360 N   0  0  0  0  0  0
   12.9200   37.3140  -24.4510 C   0  0  0  0  0  0
   11.8310   36.5280  -24.1490 N   0  0  0  0  0  0
   11.9800   35.1580  -24.1690 C   0  0  0  0  0  0
   13.2530   34.6080  -24.3110 C   0  0  0  0  0  0
   14.3640   35.4410  -24.3540 C   0  0  0  0  0  0
   12.7670   38.4750  -24.8270 O   0  0  0  0  0  0
   10.9100   34.3740  -24.0510 N   0  0  0  0  0  0
   15.3450   37.7040  -24.5430 C   0  0  1  0  0  0
   16.0110   38.0300  -23.2150 C   0  0  2  0  0  0
   15.5620   39.2410  -22.6630 O   0  0  0  0  0  0
   17.4890   38.0760  -23.5410 C   0  0  1  0  0  0
   17.6130   37.2060  -24.7840 C   0  0  2  0  0  0
   16.3270   37.0960  -25.3630 O   0  0  0  0  0  0
   17.9230   39.3970  -23.7910 O   0  0  0  0  0  0
   18.1120   35.8030  -24.4400 C   0  0  0  0  0  0
   17.5840   35.4210  -23.1790 O   0  0  0  0  0  0
   18.5380   35.0270  -21.9390 P   0  0  1  0  0  0
   19.3180   36.2080  -21.4070 O   0  5  0  0  0  0
   17.6850   34.4200  -20.8560 O   0  0  0  0  0  0
   19.5540   34.0040  -22.6520 O   0  0  0  0  0  0
   20.4840   33.0260  -21.7980 P   0  0  2  0  0  0
   20.2000   31.6090  -22.2580 O   0  5  0  0  0  0
   20.1670   33.2330  -20.3340 O   0  0  0  0  0  0
   22.0080   33.4610  -22.1760 O   0  0  0  0  0  0
   23.2580   33.5420  -21.1440 P   0  0  0  0  0  0
   24.1200   34.7150  -21.5330 O   0  0  0  0  0  0
   24.1130   32.2980  -21.2300 O   0  5  0  0  0  0
   22.7730   33.7810  -19.7240 O   0  5  0  0  0  0
   13.3763   33.5277  -24.3881 H   0  0  0  0  0  0
   15.3665   35.0157  -24.4018 H   0  0  0  0  0  0
    9.9108   34.8203  -23.9395 H   0  0  0  0  0  0
   14.9751   38.5922  -25.0762 H   0  0  0  0  0  0
   15.7426   37.3416  -22.4001 H   0  0  0  0  0  0
   14.5066   39.3565  -22.3754 H   0  0  0  0  0  0
   18.1460   37.7868  -22.7076 H   0  0  0  0  0  0
   18.2797   37.6765  -25.5217 H   0  0  0  0  0  0
   17.8939   40.1469  -22.9868 H   0  0  0  0  0  0
   17.7769   35.0950  -25.2123 H   0  0  0  0  0  0
   19.2111   35.8051  -24.3967 H   0  0  0  0  0  0
   11.0254   33.2802  -24.0650 H   0  0  0  0  0  0
  1  2  1  0  0  0
  1  6  1  0  0  0
  1  9  1  0  0  0
  2  3  1  0  0  0
  2  7  2  0  0  0
  3  4  2  0  0  0
  4  5  1  0  0  0
  4  8  1  0  0  0
  5  6  2  0  0  0
  5 30  1  0  0  0
  6 31  1  0  0  0
  8 32  1  0  0  0
  8 41  1  0  0  0
  9 10  1  0  0  0
  9 14  1  0  0  0
  9 33  1  0  0  0
 10 11  1  0  0  0
 10 12  1  0  0  0
 10 34  1  0  0  0
 11 35  1  0  0  0
 12 13  1  0  0  0
 12 15  1  0  0  0
 12 36  1  0  0  0
 13 14  1  0  0  0
 13 16  1  0  0  0
 13 37  1  0  0  0
 15 38  1  0  0  0
 16 17  1  0  0  0
 16 39  1  0  0  0
 16 40  1  0  0  0
 17 18  1  0  0  0
 18 19  1  0  0  0
 18 20  2  0  0  0
 18 21  1  0  0  0
 21 22  1  0  0  0
 22 23  1  0  0  0
 22 24  2  0  0  0
 22 25  1  0  0  0
 25 26  1  0  0  0
 26 27  2  0  0  0
 26 28  1  0  0  0
 26 29  1  0  0  0
M  CHG  4  19  -1  23  -1  28  -1  29  -1
M  END
> <s_m_source_file>
../4wop_ligand.sdf

> <i_m_source_file_index>
1

> <s_epik_input>
W2NIXTFbY0hdYyg9Ti9bSF0pXFtuSF1jKD1PKW4xW0NASF0yW0NASF0oW09IXSlbQ0BIXShbT0hdKVtDQEhdKE8yKVtDSDJdT1tQQF0oPU8pKFtPSF0pT1tQQEBdKD1PKShbT0hdKU9QKD1PKShbT0hdKVtPSF0=

> <s_epik_cmdline>
J2VwaWtfYXBwJywgJy1pbWFlJywgJ2xpZ2FuZF9wcm8ubWFlJywgJy1vbWFlJywgJ2xpZ2FuZF9wcmVwLm1hZScsICctbXMnLCAnMScsICctcGgnLCAnNycsICctcGh0JywgJzAuNScsICctbnQn

> <r_lp_tautomer_probability>
0.999959729267721

> <r_epik_Ionization_Penalty>
  0.0824

> <r_epik_Ionization_Penalty_Charging>
  0.0813

> <r_epik_Ionization_Penalty_Neutral>
  0.0010

> <r_epik_State_Penalty>
  0.0708

> <r_epik_Charging_Adjusted_Penalty>
0.152154878947093

> <i_epik_Tot_Q>
-4

> <i_epik_Tot_abs_Q>
4

> <s_epik_Chemistry_Notes>
This compound contains an acetal/aminal-like group ( X-CH(R)-Y where X, Y are N, S, or O) that may be acid/base labile, releasing an aldehyde.

$$$$
