4wov_ligand
                    3D
 Schrodinger Suite 2020-3.
 50 53  0  0  1  0            999 V2000
   12.9600    3.0740   -0.2040 C   0  0  0  0  0  0
   13.6460    3.5970   -1.4440 C   0  0  0  0  0  0
   11.5880    2.0110    1.9180 C   0  0  0  0  0  0
   11.8680    3.3700    1.8970 C   0  0  0  0  0  0
   15.4300    2.6920   -2.8840 C   0  0  0  0  0  0
   16.8130    2.0890   -2.9440 C   0  0  0  0  0  0
   17.2460   -0.0240   -1.9230 C   0  0  0  0  0  0
   12.0710    1.2280    0.8830 C   0  0  0  0  0  0
   13.1450   -5.6110   -2.1470 C   0  0  0  0  0  0
    9.4090   -3.9350    2.1910 N   0  0  0  0  0  0
    9.2100   -5.2600    1.9680 C   0  0  0  0  0  0
    9.9880   -5.7860    1.0520 N   0  0  0  0  0  0
   10.7600   -4.7190    0.6200 C   0  0  0  0  0  0
   10.4150   -3.5580    1.3320 C   0  0  0  0  0  0
   11.0030   -2.3030    1.1130 C   0  0  0  0  0  0
   11.9560   -2.3280    0.0830 C   0  0  0  0  0  0
   12.4390   -1.0500   -0.0960 N   0  3  0  0  0  0
   11.8470   -0.2230    0.8430 C   0  0  0  0  0  0
   10.9600   -0.9540    1.5820 C   0  0  0  0  0  0
   12.7270    1.7420   -0.1700 N   0  3  0  0  0  0
   12.5600    3.9160    0.8260 C   0  0  0  0  0  0
   14.9530    2.9980   -1.6710 N   0  0  0  0  0  0
   14.8100    2.8780   -3.9300 O   0  0  0  0  0  0
   16.5790    0.6900   -2.9610 O   0  0  0  0  0  0
   12.3260   -3.4180   -0.6170 N   0  0  0  0  0  0
   11.7590   -4.6150   -0.3820 C   0  0  0  0  0  0
   12.1230   -5.6710   -1.1220 N   0  0  0  0  0  0
    8.7270   -3.0810    3.1590 C   0  0  0  0  0  0
   13.0240    3.3820   -2.3254 H   0  0  0  0  0  0
   13.7896    4.6838   -1.3529 H   0  0  0  0  0  0
   11.0040    1.5720    2.7269 H   0  0  0  0  0  0
   11.5448    4.0070    2.7203 H   0  0  0  0  0  0
   17.3243    2.4341   -3.8548 H   0  0  0  0  0  0
   17.3880    2.4017   -2.0599 H   0  0  0  0  0  0
   17.0133   -1.0958   -2.0072 H   0  0  0  0  0  0
   16.9073    0.3491   -0.9452 H   0  0  0  0  0  0
   18.3321    0.1238   -2.0157 H   0  0  0  0  0  0
   13.2594   -6.6026   -2.6092 H   0  0  0  0  0  0
   14.1000   -5.3047   -1.6951 H   0  0  0  0  0  0
   12.8516   -4.8802   -2.9150 H   0  0  0  0  0  0
    8.4623   -5.8409    2.5080 H   0  0  0  0  0  0
   10.3727   -0.4679    2.3749 H   0  0  0  0  0  0
   12.7849    4.9820    0.7933 H   0  0  0  0  0  0
   15.6099    2.7717   -0.8182 H   0  0  0  0  0  0
   11.6025   -6.6186   -0.9191 H   0  0  0  0  0  0
    7.9707   -3.6699    3.6986 H   0  0  0  0  0  0
    8.2367   -2.2489    2.6325 H   0  0  0  0  0  0
    9.4598   -2.6808    3.8752 H   0  0  0  0  0  0
   13.0730    1.1019   -0.9949 H   0  0  0  0  0  0
   13.1725   -0.8454   -0.8898 H   0  0  0  0  0  0
  1  2  1  0  0  0
  1 20  2  0  0  0
  1 21  1  0  0  0
  2 22  1  0  0  0
  2 29  1  0  0  0
  2 30  1  0  0  0
  3  4  1  0  0  0
  3  8  2  0  0  0
  3 31  1  0  0  0
  4 21  2  0  0  0
  4 32  1  0  0  0
  5  6  1  0  0  0
  5 22  1  0  0  0
  5 23  2  0  0  0
  6 24  1  0  0  0
  6 33  1  0  0  0
  6 34  1  0  0  0
  7 24  1  0  0  0
  7 35  1  0  0  0
  7 36  1  0  0  0
  7 37  1  0  0  0
  8 18  1  0  0  0
  8 20  1  0  0  0
  9 27  1  0  0  0
  9 38  1  0  0  0
  9 39  1  0  0  0
  9 40  1  0  0  0
 10 11  1  0  0  0
 10 14  1  0  0  0
 10 28  1  0  0  0
 11 12  2  0  0  0
 11 41  1  0  0  0
 12 13  1  0  0  0
 13 14  2  0  0  0
 13 26  1  0  0  0
 14 15  1  0  0  0
 15 16  2  0  0  0
 15 19  1  0  0  0
 16 17  1  0  0  0
 16 25  1  0  0  0
 17 18  1  0  0  0
 17 50  1  0  0  0
 18 19  2  0  0  0
 19 42  1  0  0  0
 20 49  1  0  0  0
 21 43  1  0  0  0
 22 44  1  0  0  0
 25 26  2  0  0  0
 26 27  1  0  0  0
 27 45  1  0  0  0
 28 46  1  0  0  0
 28 47  1  0  0  0
 28 48  1  0  0  0
M  CHG  2  17   1  20   1
M  END
> <s_m_source_file>
../4wov_ligand.sdf

> <i_m_source_file_index>
1

> <s_epik_input>
W0NIM11PW0NIMl1DKD1PKVtOSF1bQ0gyXWMxbmMoW2NIXVtjSF1bY0hdMSktYyhbY0hdMilbbkhdYyhjMmMoYzM0KW4oW2NIXW4zKVtDSDNdKW5jNFtOSF1bQ0gzXQ==

> <s_epik_cmdline>
J2VwaWtfYXBwJywgJy1pbWFlJywgJ2xpZ2FuZF9wcm8ubWFlJywgJy1vbWFlJywgJ2xpZ2FuZF9wcmVwLm1hZScsICctbXMnLCAnMScsICctcGgnLCAnNycsICctcGh0JywgJzAuNScsICctbnQn

> <r_lp_tautomer_probability>
1

> <r_epik_Ionization_Penalty>
  0.7128

> <r_epik_Ionization_Penalty_Charging>
  0.7122

> <r_epik_Ionization_Penalty_Neutral>
  0.0006

> <r_epik_State_Penalty>
 -0.0000

> <r_epik_Charging_Adjusted_Penalty>
0.71220202259273

> <i_epik_Tot_Q>
2

> <i_epik_Tot_abs_Q>
2

$$$$
