4wp7_ligand
                    3D
 Schrodinger Suite 2020-3.
 63 66  0  0  1  0            999 V2000
   34.9970  -15.8380   16.4910 C   0  0  0  0  0  0
   35.5320  -16.8050   15.5050 C   0  0  0  0  0  0
   34.7110  -17.2490   14.3900 C   0  0  0  0  0  0
   32.9350  -15.8540   15.1550 C   0  0  0  0  0  0
   39.6000  -15.4300   16.9870 C   0  0  0  0  0  0
   39.2050  -15.4190   18.4600 C   0  0  0  0  0  0
   40.0880  -14.0400   16.5680 C   0  0  0  0  0  0
   37.8040  -19.1130   13.8410 C   0  0  0  0  0  0
   40.3240  -19.1550   14.0440 C   0  0  0  0  0  0
   43.5740  -18.2950   11.7290 O   0  0  0  0  0  0
   42.4450  -18.2090   11.2560 C   0  0  0  0  0  0
   42.4010  -18.1200    9.7540 C   0  0  0  0  0  0
   41.2090  -18.3430    9.1250 O   0  0  0  0  0  0
   41.4420  -18.2190    7.7690 C   0  0  0  0  0  0
   42.7830  -17.9300    7.5710 C   0  0  0  0  0  0
   43.3880  -17.8740    8.8110 C   0  0  0  0  0  0
   41.3520  -18.2100   12.0720 N   0  0  0  0  0  0
   41.1230  -19.4740   12.7750 C   0  0  0  0  0  0
   40.0810  -17.7120   11.5400 C   0  0  0  0  0  0
   39.2010  -17.3290   12.7280 C   0  0  0  0  0  0
   39.0970  -18.4580   13.6470 N   0  3  0  0  0  0
   36.6810  -18.2060   14.3280 C   0  0  0  0  0  0
   36.7120  -17.4160   15.4350 N   0  0  0  0  0  0
   37.8140  -17.2230   16.3810 C   0  0  0  0  0  0
   38.4610  -15.8720   16.0700 C   0  0  0  0  0  0
   35.4700  -18.1180   13.6930 N   0  0  0  0  0  0
   33.4600  -16.7910   14.2020 N   0  0  0  0  0  0
   32.6690  -17.2630   13.0570 C   0  0  0  0  0  0
   31.7860  -15.3960   15.0320 O   0  0  0  0  0  0
   33.6810  -15.3900   16.2660 N   0  0  0  0  0  0
   33.0710  -14.4240   17.1940 C   0  0  0  0  0  0
   35.6670  -15.4390   17.4690 O   0  0  0  0  0  0
   40.4071  -16.1699   16.8813 H   0  0  0  0  0  0
   40.0627  -15.0938   19.0672 H   0  0  0  0  0  0
   38.9019  -16.4312   18.7659 H   0  0  0  0  0  0
   38.3655  -14.7240   18.6093 H   0  0  0  0  0  0
   40.9079  -13.7244   17.2299 H   0  0  0  0  0  0
   39.2583  -13.3218   16.6440 H   0  0  0  0  0  0
   40.4482  -14.0756   15.5293 H   0  0  0  0  0  0
   37.4651  -19.5449   12.8878 H   0  0  0  0  0  0
   37.9065  -19.9122   14.5898 H   0  0  0  0  0  0
   40.0760  -20.0909   14.5661 H   0  0  0  0  0  0
   40.9263  -18.5148   14.7053 H   0  0  0  0  0  0
   40.6942  -18.3302    6.9838 H   0  0  0  0  0  0
   43.2721  -17.7748    6.6093 H   0  0  0  0  0  0
   44.4408  -17.6745    9.0108 H   0  0  0  0  0  0
   42.0804  -19.9396   13.0519 H   0  0  0  0  0  0
   40.5474  -20.1669   12.1437 H   0  0  0  0  0  0
   40.2685  -16.8347   10.9034 H   0  0  0  0  0  0
   39.5986  -18.5009   10.9443 H   0  0  0  0  0  0
   39.6467  -16.4713   13.2530 H   0  0  0  0  0  0
   38.1974  -17.0577   12.3685 H   0  0  0  0  0  0
   38.9921  -17.8424   14.5525 H   0  0  0  0  0  0
   37.4211  -17.2320   17.4084 H   0  0  0  0  0  0
   38.5464  -18.0350   16.2614 H   0  0  0  0  0  0
   37.6469  -15.1335   16.1144 H   0  0  0  0  0  0
   38.8307  -15.9485   15.0368 H   0  0  0  0  0  0
   33.2676  -17.9706   12.4646 H   0  0  0  0  0  0
   32.3864  -16.4058   12.4283 H   0  0  0  0  0  0
   31.7609  -17.7659   13.4211 H   0  0  0  0  0  0
   33.7886  -14.1772   17.9903 H   0  0  0  0  0  0
   32.1664  -14.8641   17.6390 H   0  0  0  0  0  0
   32.8021  -13.5088   16.6461 H   0  0  0  0  0  0
  1  2  1  0  0  0
  1 30  1  0  0  0
  1 32  2  0  0  0
  2  3  2  0  0  0
  2 23  1  0  0  0
  3 26  1  0  0  0
  3 27  1  0  0  0
  4 27  1  0  0  0
  4 29  2  0  0  0
  4 30  1  0  0  0
  5  6  1  0  0  0
  5  7  1  0  0  0
  5 25  1  0  0  0
  5 33  1  0  0  0
  6 34  1  0  0  0
  6 35  1  0  0  0
  6 36  1  0  0  0
  7 37  1  0  0  0
  7 38  1  0  0  0
  7 39  1  0  0  0
  8 21  1  0  0  0
  8 22  1  0  0  0
  8 40  1  0  0  0
  8 41  1  0  0  0
  9 18  1  0  0  0
  9 21  1  0  0  0
  9 42  1  0  0  0
  9 43  1  0  0  0
 10 11  2  0  0  0
 11 12  1  0  0  0
 11 17  1  0  0  0
 12 13  1  0  0  0
 12 16  2  0  0  0
 13 14  1  0  0  0
 14 15  2  0  0  0
 14 44  1  0  0  0
 15 16  1  0  0  0
 15 45  1  0  0  0
 16 46  1  0  0  0
 17 18  1  0  0  0
 17 19  1  0  0  0
 18 47  1  0  0  0
 18 48  1  0  0  0
 19 20  1  0  0  0
 19 49  1  0  0  0
 19 50  1  0  0  0
 20 21  1  0  0  0
 20 51  1  0  0  0
 20 52  1  0  0  0
 21 53  1  0  0  0
 22 23  1  0  0  0
 22 26  2  0  0  0
 23 24  1  0  0  0
 24 25  1  0  0  0
 24 54  1  0  0  0
 24 55  1  0  0  0
 25 56  1  0  0  0
 25 57  1  0  0  0
 27 28  1  0  0  0
 28 58  1  0  0  0
 28 59  1  0  0  0
 28 60  1  0  0  0
 30 31  1  0  0  0
 31 61  1  0  0  0
 31 62  1  0  0  0
 31 63  1  0  0  0
M  CHG  1  21   1
M  END
> <s_m_source_file>
../4wp7_ligand.sdf

> <i_m_source_file_index>
1

> <s_epik_input>
Tz1jMW4oW0NIM10pYyg9TyluKFtDSDNdKWMoYzEyKW5jKG4yW0NIMl1bQ0gyXVtDSF0oW0NIM10pW0NIM10pW0NIMl1bTkgrXShbQ0gyXVtDSDJdMylbQ0gyXVtDSDJdTjNDKD1PKWM0b1tjSF1bY0hdW2NIXTQ=

> <s_epik_cmdline>
J2VwaWtfYXBwJywgJy1pbWFlJywgJ2xpZ2FuZF9wcm8ubWFlJywgJy1vbWFlJywgJ2xpZ2FuZF9wcmVwLm1hZScsICctbXMnLCAnMScsICctcGgnLCAnNycsICctcGh0JywgJzAuNScsICctbnQn

> <r_epik_Ionization_Penalty>
  0.0286

> <r_epik_Ionization_Penalty_Charging>
  0.0286

> <r_epik_Ionization_Penalty_Neutral>
  0.0000

> <r_epik_State_Penalty>
  0.0235

> <r_epik_Charging_Adjusted_Penalty>
0.052112960250236

> <i_epik_Tot_Q>
1

> <i_epik_Tot_abs_Q>
1

$$$$
