4wpf_ligand
                    3D
 Schrodinger Suite 2020-3.
 59 62  0  0  1  0            999 V2000
    4.7440   55.8560    3.3090 C   0  0  0  0  0  0
    4.9260   61.4990    3.6330 C   0  0  0  0  0  0
    4.9530   60.0090    4.0070 C   0  0  0  0  0  0
    7.1470   57.1900    3.6260 C   0  0  0  0  0  0
    7.3540   59.8830    3.5730 C   0  0  0  0  0  0
    7.4010   61.3650    3.1600 C   0  0  0  0  0  0
    5.9860   57.9250    3.3610 C   0  0  0  0  0  0
    7.1050   55.8080    3.7340 C   0  0  0  0  0  0
    5.9040   55.1310    3.5790 C   0  0  0  0  0  0
    7.8810   63.7090    4.8250 C   0  0  0  0  0  0
    6.4920   63.1470    4.6160 C   0  0  0  0  0  0
    5.5520   63.6920    5.1590 O   0  0  0  0  0  0
    6.2830   62.0540    3.8340 N   0  0  0  0  0  0
    6.0260   59.3280    3.2500 N   0  0  0  0  0  0
    4.7810   57.2400    3.2030 C   0  0  0  0  0  0
    3.5600   55.2240    3.1570 F   0  0  0  0  0  0
    5.8620   53.6210    3.7050 C   0  0  0  0  0  0
    6.0680   53.1390    5.0930 N   0  0  3  0  0  0
    4.9950   53.1560    6.1210 C   0  0  0  0  0  0
    3.8220   54.1520    5.9990 C   0  0  0  0  0  0
    2.9500   53.0470    6.6210 C   0  0  0  0  0  0
    3.9280   52.0540    5.9690 C   0  0  0  0  0  0
    7.5470   52.5010    5.5580 S   0  0  0  0  0  0
    8.5730   53.0840    4.7630 O   0  0  0  0  0  0
    7.6170   52.5310    6.9790 O   0  0  0  0  0  0
    7.5030   50.7920    5.1260 C   0  0  0  0  0  0
    6.7630   49.9040    5.8960 C   0  0  0  0  0  0
    6.7210   48.5610    5.5610 C   0  0  0  0  0  0
    7.4200   48.1100    4.4520 C   0  0  0  0  0  0
    8.1620   48.9920    3.6780 C   0  0  0  0  0  0
    8.2050   50.3360    4.0170 C   0  0  0  0  0  0
    4.6266   61.6074    2.5801 H   0  0  0  0  0  0
    4.2046   62.0253    4.2753 H   0  0  0  0  0  0
    5.1433   59.9051    5.0854 H   0  0  0  0  0  0
    3.9837   59.5513    3.7600 H   0  0  0  0  0  0
    8.0967   57.7105    3.7491 H   0  0  0  0  0  0
    8.1287   59.3253    3.0264 H   0  0  0  0  0  0
    7.5352   59.7978    4.6546 H   0  0  0  0  0  0
    8.3620   61.8016    3.4696 H   0  0  0  0  0  0
    7.2970   61.4448    2.0678 H   0  0  0  0  0  0
    8.0190   55.2516    3.9414 H   0  0  0  0  0  0
    7.8259   64.5863    5.4863 H   0  0  0  0  0  0
    8.3057   64.0070    3.8550 H   0  0  0  0  0  0
    8.5213   62.9423    5.2856 H   0  0  0  0  0  0
    3.8651   57.7933    2.9956 H   0  0  0  0  0  0
    4.8814   53.2522    3.3697 H   0  0  0  0  0  0
    6.6529   53.1789    3.0813 H   0  0  0  0  0  0
    5.7274   53.2332    6.9381 H   0  0  0  0  0  0
    4.0470   55.0567    6.5828 H   0  0  0  0  0  0
    3.6797   54.4233    4.9425 H   0  0  0  0  0  0
    2.9406   53.1597    7.7152 H   0  0  0  0  0  0
    1.9232   53.1294    6.2351 H   0  0  0  0  0  0
    3.8118   51.8004    4.9050 H   0  0  0  0  0  0
    4.2425   51.1596    6.5268 H   0  0  0  0  0  0
    6.2142   50.2650    6.7658 H   0  0  0  0  0  0
    6.1420   47.8629    6.1655 H   0  0  0  0  0  0
    7.3868   47.0536    4.1854 H   0  0  0  0  0  0
    8.7085   48.6295    2.8074 H   0  0  0  0  0  0
    8.7880   51.0329    3.4150 H   0  0  0  0  0  0
  1  9  2  0  0  0
  1 15  1  0  0  0
  1 16  1  0  0  0
  2  3  1  0  0  0
  2 13  1  0  0  0
  2 32  1  0  0  0
  2 33  1  0  0  0
  3 14  1  0  0  0
  3 34  1  0  0  0
  3 35  1  0  0  0
  4  7  1  0  0  0
  4  8  2  0  0  0
  4 36  1  0  0  0
  5  6  1  0  0  0
  5 14  1  0  0  0
  5 37  1  0  0  0
  5 38  1  0  0  0
  6 13  1  0  0  0
  6 39  1  0  0  0
  6 40  1  0  0  0
  7 14  1  0  0  0
  7 15  2  0  0  0
  8  9  1  0  0  0
  8 41  1  0  0  0
  9 17  1  0  0  0
 10 11  1  0  0  0
 10 42  1  0  0  0
 10 43  1  0  0  0
 10 44  1  0  0  0
 11 12  2  0  0  0
 11 13  1  0  0  0
 15 45  1  0  0  0
 17 18  1  0  0  0
 17 46  1  0  0  0
 17 47  1  0  0  0
 18 19  1  0  0  0
 18 23  1  0  0  0
 19 20  1  0  0  0
 19 22  1  0  0  0
 19 48  1  0  0  0
 20 21  1  0  0  0
 20 49  1  0  0  0
 20 50  1  0  0  0
 21 22  1  0  0  0
 21 51  1  0  0  0
 21 52  1  0  0  0
 22 53  1  0  0  0
 22 54  1  0  0  0
 23 24  2  0  0  0
 23 25  2  0  0  0
 23 26  1  0  0  0
 26 27  2  0  0  0
 26 31  1  0  0  0
 27 28  1  0  0  0
 27 55  1  0  0  0
 28 29  2  0  0  0
 28 56  1  0  0  0
 29 30  1  0  0  0
 29 57  1  0  0  0
 30 31  2  0  0  0
 30 58  1  0  0  0
 31 59  1  0  0  0
M  END
> <s_m_source_file>
../4wpf_ligand.sdf

> <i_m_source_file_index>
1

> <s_epik_input>
W2NIXTFbY0hdW2NIXVtjSF1bY0hdYzFTKD1PKSg9TylOKFtDSF0yW0NIMl1bQ0gyXVtDSDJdMilbQ0gyXWMoYzNGKVtjSF1bY0hdYyhbY0hdMylOKFtDSDJdW0NIMl00KVtDSDJdW0NIMl1ONEMoPU8pW0NIM10=

> <s_epik_cmdline>
J2VwaWtfYXBwJywgJy1pbWFlJywgJ2xpZ2FuZF9wcm8ubWFlJywgJy1vbWFlJywgJ2xpZ2FuZF9wcmVwLm1hZScsICctbXMnLCAnMScsICctcGgnLCAnNycsICctcGh0JywgJzAuNScsICctbnQn

> <r_lp_tautomer_probability>
1

> <r_epik_Ionization_Penalty>
  0.0001

> <r_epik_Ionization_Penalty_Charging>
  0.0000

> <r_epik_Ionization_Penalty_Neutral>
  0.0001

> <r_epik_State_Penalty>
 -0.0000

> <r_epik_Charging_Adjusted_Penalty>
0

> <i_epik_Tot_Q>
0

> <i_epik_Tot_abs_Q>
0

$$$$
