4wph_ligand
                    3D
 Schrodinger Suite 2020-3.
166166  0  0  1  0            999 V2000
   48.8160   -3.0350  -45.9850 N   0  3  0  0  0  0
   48.0040   -2.1460  -45.1730 C   0  0  2  0  0  0
   47.7950   -2.6820  -43.7570 C   0  0  0  0  0  0
   47.7650   -3.9030  -43.5580 O   0  0  0  0  0  0
   46.6830   -2.1430  -45.9240 C   0  0  0  0  0  0
   46.5700   -3.5260  -46.4540 C   0  0  0  0  0  0
   47.9770   -4.0380  -46.6640 C   0  0  0  0  0  0
   47.6310   -1.7770  -42.7920 N   0  0  0  0  0  0
   47.5890   -2.1540  -41.3700 C   0  0  2  0  0  0
   46.4550   -1.5180  -40.5360 C   0  0  0  0  0  0
   45.8970   -0.4780  -40.8980 O   0  0  0  0  0  0
   48.9370   -1.8190  -40.7200 C   0  0  0  0  0  0
   50.1300   -2.5340  -41.3340 C   0  0  0  0  0  0
   50.2190   -3.9880  -40.9010 C   0  0  0  0  0  0
   50.7860   -4.8240  -41.9610 N   0  0  0  0  0  0
   51.5890   -5.8740  -41.7800 C   0  0  0  0  0  0
   51.9700   -6.2560  -40.5650 N   0  0  0  0  0  0
   52.0320   -6.5450  -42.8370 N   0  0  0  0  0  0
   46.1300   -2.1630  -39.4150 N   0  0  0  0  0  0
   45.2330   -1.5770  -38.4200 C   0  0  2  0  0  0
   46.0190   -0.6690  -37.5160 C   0  0  0  0  0  0
   47.2170   -0.8580  -37.3260 O   0  0  0  0  0  0
   44.6110   -2.6330  -37.5230 C   0  0  0  0  0  0
   43.8680   -3.7440  -38.2280 C   0  0  0  0  0  0
   43.2870   -4.6740  -37.1790 C   0  0  0  0  0  0
   43.4380   -6.1320  -37.5540 C   0  0  0  0  0  0
   43.8910   -6.9230  -36.3760 N   0  3  0  0  0  0
   45.3340    0.2970  -36.9250 N   0  0  0  0  0  0
   45.9350    1.1270  -35.9000 C   0  0  2  0  0  0
   45.9780    0.3170  -34.6170 C   0  0  0  0  0  0
   45.2760   -0.6840  -34.4860 O   0  0  0  0  0  0
   45.1320    2.4090  -35.7320 C   0  0  0  0  0  0
   44.8770    3.2170  -37.3300 S   0  0  0  0  0  0
   46.8340    0.7210  -33.6890 N   0  0  0  0  0  0
   46.9600    0.0180  -32.4200 C   0  0  2  0  0  0
   46.0630    0.6390  -31.3660 C   0  0  0  0  0  0
   45.7220   -0.0140  -30.3980 O   0  0  0  0  0  0
   48.4070    0.0250  -31.9540 C   0  0  0  0  0  0
   45.6800    1.8980  -31.5560 N   0  0  0  0  0  0
   44.8700    2.6110  -30.5700 C   0  0  2  0  0  0
   44.1150    3.8170  -31.1830 C   0  0  0  0  0  0
   44.6000    4.4430  -32.1240 O   0  0  0  0  0  0
   45.7660    3.0500  -29.3960 C   0  0  0  0  0  0
   45.0540    3.9690  -28.4230 C   0  0  0  0  0  0
   45.7140    4.1230  -27.0630 C   0  0  0  0  0  0
   44.8010    4.8540  -26.1750 N   0  0  0  0  0  0
   45.1090    5.3620  -24.9830 C   0  0  0  0  0  0
   46.3360    5.2400  -24.4840 N   0  0  0  0  0  0
   44.1720    6.0030  -24.2830 N   0  0  0  0  0  0
   42.9330    4.1260  -30.6460 N   0  0  0  0  0  0
   42.1470    5.3020  -31.0770 C   0  0  2  0  0  0
   42.6700    6.5360  -30.3680 C   0  0  0  0  0  0
   43.2580    6.4180  -29.2990 O   0  0  0  0  0  0
   40.6550    5.1450  -30.7470 C   0  0  0  0  0  0
   40.0230    3.8360  -31.2150 C   0  0  0  0  0  0
   39.8960    3.7210  -32.7290 C   0  0  0  0  0  0
   39.2130    2.4220  -33.1100 C   0  0  0  0  0  0
   38.6190    2.4470  -34.4710 N   0  3  0  0  0  0
   42.4510    7.7170  -30.9490 N   0  0  0  0  0  0
   43.0320    8.9570  -30.4170 C   0  0  2  0  0  0
   42.1660   10.2100  -30.6540 C   0  0  0  0  0  0
   42.6990   11.2970  -30.8470 O   0  0  0  0  0  0
   44.4450    9.2340  -31.0100 C   0  0  2  0  0  0
   44.3120    9.6230  -32.3760 O   0  0  0  0  0  0
   45.3830    8.0180  -30.9320 C   0  0  0  0  0  0
   40.8440   10.0730  -30.6140 N   0  0  0  0  0  0
   39.9520   11.2370  -30.7320 C   0  0  2  0  0  0
   38.5370   10.8910  -30.3110 C   0  0  0  0  0  0
   37.9880   11.5080  -29.4130 O   0  0  0  0  0  0
   39.9300   11.7680  -32.1670 C   0  0  0  0  0  0
   39.4600   10.7480  -33.1960 C   0  0  0  0  0  0
   39.5420   11.2770  -34.6230 C   0  0  0  0  0  0
   40.6740   10.7480  -35.3960 N   0  0  0  0  0  0
   40.9020   11.0280  -36.6820 C   0  0  0  0  0  0
   40.0890   11.8410  -37.3550 N   0  0  0  0  0  0
   41.9430   10.4930  -37.3070 N   0  0  0  0  0  0
   37.9270    9.9910  -30.8640 O   0  0  0  0  0  0
   49.3527   -2.4490  -46.7456 H   0  0  0  0  0  0
   49.5422   -3.5563  -45.3439 H   0  0  0  0  0  0
   48.4977   -1.1682  -45.0719 H   0  0  0  0  0  0
   45.8667   -1.8968  -45.2290 H   0  0  0  0  0  0
   46.7195   -1.3924  -46.7272 H   0  0  0  0  0  0
   46.0331   -4.1541  -45.7280 H   0  0  0  0  0  0
   46.0171   -3.5103  -47.4048 H   0  0  0  0  0  0
   48.2501   -4.0844  -47.7286 H   0  0  0  0  0  0
   48.1364   -5.0232  -46.2014 H   0  0  0  0  0  0
   47.5255   -0.7219  -43.0846 H   0  0  0  0  0  0
   47.3840   -3.2336  -41.4197 H   0  0  0  0  0  0
   49.1300   -0.7399  -40.8114 H   0  0  0  0  0  0
   48.9106   -2.0980  -39.6563 H   0  0  0  0  0  0
   50.0470   -2.5105  -42.4306 H   0  0  0  0  0  0
   51.0580   -2.0302  -41.0257 H   0  0  0  0  0  0
   50.8611   -4.0670  -40.0114 H   0  0  0  0  0  0
   49.2125   -4.3614  -40.6610 H   0  0  0  0  0  0
   50.5581   -4.6058  -43.0148 H   0  0  0  0  0  0
   51.6118   -5.7106  -39.6794 H   0  0  0  0  0  0
   52.6434   -7.1175  -40.4452 H   0  0  0  0  0  0
   51.7259   -6.2414  -43.8490 H   0  0  0  0  0  0
   46.5571   -3.1630  -39.2492 H   0  0  0  0  0  0
   44.4658   -1.0462  -39.0028 H   0  0  0  0  0  0
   45.3987   -3.1200  -36.9294 H   0  0  0  0  0  0
   43.8836   -2.1585  -36.8479 H   0  0  0  0  0  0
   43.0601   -3.3148  -38.8388 H   0  0  0  0  0  0
   44.5638   -4.2966  -38.8764 H   0  0  0  0  0  0
   43.8035   -4.5144  -36.2210 H   0  0  0  0  0  0
   42.2142   -4.4640  -37.0566 H   0  0  0  0  0  0
   42.4700   -6.5238  -37.8996 H   0  0  0  0  0  0
   44.1812   -6.2284  -38.3592 H   0  0  0  0  0  0
   43.9965   -7.9798  -36.6626 H   0  0  0  0  0  0
   43.1499   -6.8344  -35.5679 H   0  0  0  0  0  0
   44.8611   -6.5390  -36.0276 H   0  0  0  0  0  0
   44.2891    0.4642  -37.2255 H   0  0  0  0  0  0
   46.9532    1.3948  -36.2187 H   0  0  0  0  0  0
   44.1517    2.1727  -35.2925 H   0  0  0  0  0  0
   45.6751    3.0975  -35.0680 H   0  0  0  0  0  0
   44.3129    4.1597  -37.3858 H   0  0  0  0  0  0
   47.4560    1.6053  -33.8920 H   0  0  0  0  0  0
   46.6314   -1.0136  -32.6145 H   0  0  0  0  0  0
   49.0437   -0.4279  -32.7282 H   0  0  0  0  0  0
   48.4950   -0.5532  -31.0224 H   0  0  0  0  0  0
   48.7293    1.0612  -31.7742 H   0  0  0  0  0  0
   45.9880    2.4029  -32.4834 H   0  0  0  0  0  0
   44.1216    1.8775  -30.2355 H   0  0  0  0  0  0
   46.0987    2.1629  -28.8371 H   0  0  0  0  0  0
   46.6428    3.5883  -29.7852 H   0  0  0  0  0  0
   44.9910    4.9797  -28.8525 H   0  0  0  0  0  0
   44.0399    3.5874  -28.2333 H   0  0  0  0  0  0
   45.9258    3.1284  -26.6435 H   0  0  0  0  0  0
   46.6547    4.6823  -27.1732 H   0  0  0  0  0  0
   43.7571    5.0229  -26.4778 H   0  0  0  0  0  0
   47.1128    4.7124  -25.0569 H   0  0  0  0  0  0
   43.1556    6.1069  -24.6907 H   0  0  0  0  0  0
   44.4156    6.4277  -23.2980 H   0  0  0  0  0  0
   42.5476    3.4671  -29.8540 H   0  0  0  0  0  0
   42.2826    5.3754  -32.1661 H   0  0  0  0  0  0
   40.5138    5.1901  -29.6570 H   0  0  0  0  0  0
   40.0865    5.9568  -31.2243 H   0  0  0  0  0  0
   40.6373    2.9897  -30.8738 H   0  0  0  0  0  0
   39.0103    3.7469  -30.7948 H   0  0  0  0  0  0
   39.3001    4.5626  -33.1119 H   0  0  0  0  0  0
   40.8973    3.7439  -33.1838 H   0  0  0  0  0  0
   39.9450    1.6013  -33.0834 H   0  0  0  0  0  0
   38.4009    2.2122  -32.3983 H   0  0  0  0  0  0
   38.1425    1.4780  -34.6809 H   0  0  0  0  0  0
   39.4093    2.6353  -35.2126 H   0  0  0  0  0  0
   37.8653    3.2462  -34.5275 H   0  0  0  0  0  0
   41.8177    7.7478  -31.8479 H   0  0  0  0  0  0
   43.0588    8.7280  -29.3414 H   0  0  0  0  0  0
   44.9097   10.0778  -30.4788 H   0  0  0  0  0  0
   43.6772   10.4803  -32.6444 H   0  0  0  0  0  0
   45.4943    7.7075  -29.8826 H   0  0  0  0  0  0
   46.3679    8.2878  -31.3410 H   0  0  0  0  0  0
   44.9578    7.1889  -31.5166 H   0  0  0  0  0  0
   40.4201    9.0656  -30.4900 H   0  0  0  0  0  0
   40.3699   11.9876  -30.0450 H   0  0  0  0  0  0
   36.9612   11.2488  -29.1154 H   0  0  0  0  0  0
   39.2491   12.6297  -32.2287 H   0  0  0  0  0  0
   40.9438   12.0802  -32.4580 H   0  0  0  0  0  0
   40.0880    9.8471  -33.1326 H   0  0  0  0  0  0
   38.4125   10.4797  -32.9943 H   0  0  0  0  0  0
   38.6249   11.0074  -35.1672 H   0  0  0  0  0  0
   39.6479   12.3717  -34.6027 H   0  0  0  0  0  0
   41.4005   10.0751  -34.9170 H   0  0  0  0  0  0
   39.2217   12.2923  -36.8509 H   0  0  0  0  0  0
   40.2850   12.0609  -38.4148 H   0  0  0  0  0  0
   42.6235    9.8198  -36.7650 H   0  0  0  0  0  0
  1  2  1  0  0  0
  1  7  1  0  0  0
  1 78  1  0  0  0
  1 79  1  0  0  0
  2  3  1  0  0  0
  2  5  1  0  0  0
  2 80  1  0  0  0
  3  4  2  0  0  0
  3  8  1  0  0  0
  5  6  1  0  0  0
  5 81  1  0  0  0
  5 82  1  0  0  0
  6  7  1  0  0  0
  6 83  1  0  0  0
  6 84  1  0  0  0
  7 85  1  0  0  0
  7 86  1  0  0  0
  8  9  1  0  0  0
  8 87  1  0  0  0
  9 10  1  0  0  0
  9 12  1  0  0  0
  9 88  1  0  0  0
 10 11  2  0  0  0
 10 19  1  0  0  0
 12 13  1  0  0  0
 12 89  1  0  0  0
 12 90  1  0  0  0
 13 14  1  0  0  0
 13 91  1  0  0  0
 13 92  1  0  0  0
 14 15  1  0  0  0
 14 93  1  0  0  0
 14 94  1  0  0  0
 15 16  1  0  0  0
 15 95  1  0  0  0
 16 17  1  0  0  0
 16 18  2  0  0  0
 17 96  1  0  0  0
 17 97  1  0  0  0
 18 98  1  0  0  0
 19 20  1  0  0  0
 19 99  1  0  0  0
 20 21  1  0  0  0
 20 23  1  0  0  0
 20100  1  0  0  0
 21 22  2  0  0  0
 21 28  1  0  0  0
 23 24  1  0  0  0
 23101  1  0  0  0
 23102  1  0  0  0
 24 25  1  0  0  0
 24103  1  0  0  0
 24104  1  0  0  0
 25 26  1  0  0  0
 25105  1  0  0  0
 25106  1  0  0  0
 26 27  1  0  0  0
 26107  1  0  0  0
 26108  1  0  0  0
 27109  1  0  0  0
 27110  1  0  0  0
 27111  1  0  0  0
 28 29  1  0  0  0
 28112  1  0  0  0
 29 30  1  0  0  0
 29 32  1  0  0  0
 29113  1  0  0  0
 30 31  2  0  0  0
 30 34  1  0  0  0
 32 33  1  0  0  0
 32114  1  0  0  0
 32115  1  0  0  0
 33116  1  0  0  0
 34 35  1  0  0  0
 34117  1  0  0  0
 35 36  1  0  0  0
 35 38  1  0  0  0
 35118  1  0  0  0
 36 37  2  0  0  0
 36 39  1  0  0  0
 38119  1  0  0  0
 38120  1  0  0  0
 38121  1  0  0  0
 39 40  1  0  0  0
 39122  1  0  0  0
 40 41  1  0  0  0
 40 43  1  0  0  0
 40123  1  0  0  0
 41 42  2  0  0  0
 41 50  1  0  0  0
 43 44  1  0  0  0
 43124  1  0  0  0
 43125  1  0  0  0
 44 45  1  0  0  0
 44126  1  0  0  0
 44127  1  0  0  0
 45 46  1  0  0  0
 45128  1  0  0  0
 45129  1  0  0  0
 46 47  1  0  0  0
 46130  1  0  0  0
 47 48  2  0  0  0
 47 49  1  0  0  0
 48131  1  0  0  0
 49132  1  0  0  0
 49133  1  0  0  0
 50 51  1  0  0  0
 50134  1  0  0  0
 51 52  1  0  0  0
 51 54  1  0  0  0
 51135  1  0  0  0
 52 53  2  0  0  0
 52 59  1  0  0  0
 54 55  1  0  0  0
 54136  1  0  0  0
 54137  1  0  0  0
 55 56  1  0  0  0
 55138  1  0  0  0
 55139  1  0  0  0
 56 57  1  0  0  0
 56140  1  0  0  0
 56141  1  0  0  0
 57 58  1  0  0  0
 57142  1  0  0  0
 57143  1  0  0  0
 58144  1  0  0  0
 58145  1  0  0  0
 58146  1  0  0  0
 59 60  1  0  0  0
 59147  1  0  0  0
 60 61  1  0  0  0
 60 63  1  0  0  0
 60148  1  0  0  0
 61 62  2  0  0  0
 61 66  1  0  0  0
 63 64  1  0  0  0
 63 65  1  0  0  0
 63149  1  0  0  0
 64150  1  0  0  0
 65151  1  0  0  0
 65152  1  0  0  0
 65153  1  0  0  0
 66 67  1  0  0  0
 66154  1  0  0  0
 67 68  1  0  0  0
 67 70  1  0  0  0
 67155  1  0  0  0
 68 69  1  0  0  0
 68 77  2  0  0  0
 69156  1  0  0  0
 70 71  1  0  0  0
 70157  1  0  0  0
 70158  1  0  0  0
 71 72  1  0  0  0
 71159  1  0  0  0
 71160  1  0  0  0
 72 73  1  0  0  0
 72161  1  0  0  0
 72162  1  0  0  0
 73 74  1  0  0  0
 73163  1  0  0  0
 74 75  1  0  0  0
 74 76  2  0  0  0
 75164  1  0  0  0
 75165  1  0  0  0
 76166  1  0  0  0
M  CHG  3   1   1  27   1  58   1
M  END
> <s_m_source_file>
../4wph_ligand.sdf

> <i_m_source_file_index>
1

> <s_epik_input>
W0NIMl0xW0NIMl1bQ0gyXVtOSDIrXVtDQEBIXTFDKD1PKVtOSF1bQ0BASF0oW0NIMl1bQ0gyXVtDSDJdW05IXS9DKFtOSDJdKT1OXFtIXSlDKD1PKVtOSF1bQ0BASF0oW0NIMl1bQ0gyXVtDSDJdW0NIMl1bTkgzK10pQyg9TylbTkhdW0NAQEhdKFtDSDJdW1NIXSlDKD1PKVtOSF1bQ0BASF0oW0NIM10pQyg9TylbTkhdW0NAQEhdKFtDSDJdW0NIMl1bQ0gyXVtOSF0vQyg9TlxbSF0pW05IMl0pQyg9TylbTkhdW0NAQEhdKFtDSDJdW0NIMl1bQ0gyXVtDSDJdW05IMytdKUMoPU8pW05IXVtDQEBIXShbQ0BIXShbT0hdKVtDSDNdKUMoPU8pW05IXVtDQEhdKEMoPU8pW09IXSlbQ0gyXVtDSDJdW0NIMl1bTkhdL0MoW05IMl0pPU5cW0hd

> <s_epik_cmdline>
J2VwaWtfYXBwJywgJy1pbWFlJywgJ2xpZ2FuZF9wcm8ubWFlJywgJy1vbWFlJywgJ2xpZ2FuZF9wcmVwLm1hZScsICctbXMnLCAnMScsICctcGgnLCAnNycsICctcGh0JywgJzAuNScsICctbnQn

> <s_epik_pKa_notes>
Molecule size exceeds maximum supported for generating protonation states

> <s_epik_Chemistry_Notes>
This compound has an imine and may undergo hydrolysis.

$$$$
