4wpn_ligand
                    3D
 Schrodinger Suite 2020-3.
 59 61  0  0  1  0            999 V2000
   38.4730   19.5130   16.4480 C   0  0  0  0  0  0
   37.5260   19.0490   15.4080 C   0  0  0  0  0  0
   37.1920   19.9130   14.2860 C   0  0  0  0  0  0
   36.1230   18.0200   14.1210 C   0  0  0  0  0  0
   36.8550   17.9070   15.2610 N   0  0  0  0  0  0
   36.8920   16.7580   16.1700 C   0  0  0  0  0  0
   38.3250   16.3160   16.4660 C   0  0  0  0  0  0
   37.4240   13.9730   16.8310 C   0  0  0  0  0  0
   39.8970   14.4050   16.8460 C   0  0  0  0  0  0
   35.2060   16.9480   13.5670 C   0  0  0  0  0  0
   35.0050   14.4920   13.8180 C   0  0  0  0  0  0
   34.9340   13.5940   12.5860 C   0  0  0  0  0  0
   36.8930   14.6000   11.5840 C   0  0  0  0  0  0
   37.0820   15.5650   12.7510 C   0  0  0  0  0  0
   36.5120   12.1230   11.3000 C   0  0  0  0  0  0
   39.9470   21.3380   17.2610 C   0  0  0  0  0  0
   38.7860   18.8060   17.4280 O   0  0  0  0  0  0
   39.0030   20.8100   16.2710 N   0  0  0  0  0  0
   38.6320   21.5990   15.1460 C   0  0  0  0  0  0
   39.1280   22.7390   15.0270 O   0  0  0  0  0  0
   37.7200   21.1340   14.1540 N   0  0  0  0  0  0
   37.3690   21.9870   13.0150 C   0  0  0  0  0  0
   36.3220   19.2320   13.5190 N   0  0  0  0  0  0
   38.5530   14.8210   16.2550 C   0  0  0  0  0  0
   35.8750   15.6530   13.5840 N   0  3  1  0  0  0
   36.3780   13.3180   12.2110 C   0  0  2  0  0  0
   36.5610   11.0120   11.8000 O   0  0  0  0  0  0
   36.5830   12.2810    9.9770 N   0  0  0  0  0  0
   36.4097   17.0274   17.1212 H   0  0  0  0  0  0
   36.3565   15.9123   15.7140 H   0  0  0  0  0  0
   39.0188   16.8533   15.8027 H   0  0  0  0  0  0
   38.5697   16.5432   17.5141 H   0  0  0  0  0  0
   36.4666   14.2898   16.3916 H   0  0  0  0  0  0
   37.3876   14.1036   17.9226 H   0  0  0  0  0  0
   37.6035   12.9139   16.5942 H   0  0  0  0  0  0
   40.6950   15.0288   16.4170 H   0  0  0  0  0  0
   40.0903   13.3483   16.6093 H   0  0  0  0  0  0
   39.8744   14.5380   17.9377 H   0  0  0  0  0  0
   34.2958   16.8904   14.1820 H   0  0  0  0  0  0
   34.9334   17.1981   12.5311 H   0  0  0  0  0  0
   33.9966   14.8551   14.0657 H   0  0  0  0  0  0
   35.4072   13.9192   14.6666 H   0  0  0  0  0  0
   34.3976   12.6673   12.8382 H   0  0  0  0  0  0
   34.4003   14.1188   11.7800 H   0  0  0  0  0  0
   36.1684   15.0226   10.8724 H   0  0  0  0  0  0
   37.8567   14.4445   11.0770 H   0  0  0  0  0  0
   37.9138   15.2187   13.3821 H   0  0  0  0  0  0
   37.3092   16.5691   12.3634 H   0  0  0  0  0  0
   40.1082   20.5887   18.0500 H   0  0  0  0  0  0
   39.5363   22.2564   17.7059 H   0  0  0  0  0  0
   40.9047   21.5650   16.7698 H   0  0  0  0  0  0
   36.6579   21.4563   12.3649 H   0  0  0  0  0  0
   38.2777   22.2287   12.4442 H   0  0  0  0  0  0
   36.9080   22.9162   13.3812 H   0  0  0  0  0  0
   38.5632   14.6391   15.1702 H   0  0  0  0  0  0
   36.3958   15.5808   14.5502 H   0  0  0  0  0  0
   36.9791   13.0435   13.0904 H   0  0  0  0  0  0
   36.5374   13.2896    9.5403 H   0  0  0  0  0  0
   36.6871   11.4027    9.3230 H   0  0  0  0  0  0
  1  2  1  0  0  0
  1 17  2  0  0  0
  1 18  1  0  0  0
  2  3  2  0  0  0
  2  5  1  0  0  0
  3 21  1  0  0  0
  3 23  1  0  0  0
  4  5  1  0  0  0
  4 10  1  0  0  0
  4 23  2  0  0  0
  5  6  1  0  0  0
  6  7  1  0  0  0
  6 29  1  0  0  0
  6 30  1  0  0  0
  7 24  1  0  0  0
  7 31  1  0  0  0
  7 32  1  0  0  0
  8 24  1  0  0  0
  8 33  1  0  0  0
  8 34  1  0  0  0
  8 35  1  0  0  0
  9 24  1  0  0  0
  9 36  1  0  0  0
  9 37  1  0  0  0
  9 38  1  0  0  0
 10 25  1  0  0  0
 10 39  1  0  0  0
 10 40  1  0  0  0
 11 12  1  0  0  0
 11 25  1  0  0  0
 11 41  1  0  0  0
 11 42  1  0  0  0
 12 26  1  0  0  0
 12 43  1  0  0  0
 12 44  1  0  0  0
 13 14  1  0  0  0
 13 26  1  0  0  0
 13 45  1  0  0  0
 13 46  1  0  0  0
 14 25  1  0  0  0
 14 47  1  0  0  0
 14 48  1  0  0  0
 15 26  1  0  0  0
 15 27  2  0  0  0
 15 28  1  0  0  0
 16 18  1  0  0  0
 16 49  1  0  0  0
 16 50  1  0  0  0
 16 51  1  0  0  0
 18 19  1  0  0  0
 19 20  2  0  0  0
 19 21  1  0  0  0
 21 22  1  0  0  0
 22 52  1  0  0  0
 22 53  1  0  0  0
 22 54  1  0  0  0
 24 55  1  0  0  0
 25 56  1  0  0  0
 26 57  1  0  0  0
 28 58  1  0  0  0
 28 59  1  0  0  0
M  CHG  1  25   1
M  END
> <s_m_source_file>
../4wpn_ligand.sdf

> <i_m_source_file_index>
1

> <s_epik_input>
Tz1jMW4oW0NIM10pYyg9TyluKFtDSDNdKWMoYzEyKW5jKG4yW0NIMl1bQ0gyXVtDSF0oW0NIM10pW0NIM10pW0NIMl1bTkBIK10zW0NIMl1bQ0gyXVtDQEhdKFtDSDJdW0NIMl0zKUMoPU8pW05IMl0=

> <s_epik_cmdline>
J2VwaWtfYXBwJywgJy1pbWFlJywgJ2xpZ2FuZF9wcm8ubWFlJywgJy1vbWFlJywgJ2xpZ2FuZF9wcmVwLm1hZScsICctbXMnLCAnMScsICctcGgnLCAnNycsICctcGh0JywgJzAuNScsICctbnQn

> <r_epik_Ionization_Penalty>
  0.0482

> <r_epik_Ionization_Penalty_Charging>
  0.0482

> <r_epik_Ionization_Penalty_Neutral>
  0.0000

> <r_epik_State_Penalty>
  0.0411

> <r_epik_Charging_Adjusted_Penalty>
0.0892334710319006

> <i_epik_Tot_Q>
1

> <i_epik_Tot_abs_Q>
1

$$$$
