4wq2_ligand
                    3D
 Schrodinger Suite 2020-3.
 24 25  0  0  1  0            999 V2000
    4.4870    9.1370   35.2340 O   0  0  0  0  0  0
    5.1840    8.6020   34.3580 C   0  0  0  0  0  0
    4.6600    8.2460   33.2860 O   0  5  0  0  0  0
    6.6660    8.3430   34.6330 C   0  0  2  0  0  0
    7.2580    8.9170   36.1150 S   0  0  0  0  0  0
    7.5650    7.7910   33.5050 C   0  0  0  0  0  0
    8.8520    7.4140   33.6480 C   0  0  0  0  0  0
    9.4770    6.6760   32.7030 C   0  0  0  0  0  0
    9.1060    6.2270   31.4970 C   0  0  0  0  0  0
   10.0050    5.5130   30.6660 C   0  0  0  0  0  0
   11.2430    5.3180   31.1610 C   0  0  3  0  0  0
   12.4400    4.2430   30.3440 Br  0  0  0  0  0  0
   11.5730    5.7730   32.4340 C   0  0  0  0  0  0
   10.7270    6.4930   33.1540 C   0  0  0  0  0  0
   10.8500    7.0480   34.3730 N   0  0  0  0  0  0
    9.6740    7.6110   34.6960 C   0  0  0  0  0  0
    6.6321    7.2846   34.3354 H   0  0  0  0  0  0
    6.5604    9.2971   36.8758 H   0  0  0  0  0  0
    7.1194    6.8713   33.0979 H   0  0  0  0  0  0
    7.6522    8.5413   32.7053 H   0  0  0  0  0  0
    8.0789    6.4230   31.1555 H   0  0  0  0  0  0
    9.6754    5.1541   29.6798 H   0  0  0  0  0  0
   12.5641    5.5209   32.8393 H   0  0  0  0  0  0
    9.5505    8.1062   35.6705 H   0  0  0  0  0  0
  1  2  2  0  0  0
  2  3  1  0  0  0
  2  4  1  0  0  0
  4  5  1  0  0  0
  4  6  1  0  0  0
  4 17  1  0  0  0
  5 18  1  0  0  0
  6  7  1  0  0  0
  6 19  1  0  0  0
  6 20  1  0  0  0
  7  8  2  0  0  0
  7 16  1  0  0  0
  8  9  1  0  0  0
  8 14  1  0  0  0
  9 10  2  0  0  0
  9 21  1  0  0  0
 10 11  1  0  0  0
 10 22  1  0  0  0
 11 12  1  0  0  0
 11 13  1  0  0  0
 13 14  2  0  0  0
 13 23  1  0  0  0
 14 15  1  0  0  0
 15 16  2  0  0  0
 16 24  1  0  0  0
M  CHG  1   3  -1
M  END
> <s_m_source_file>
../4wq2_ligand.sdf

> <i_m_source_file_index>
1

> <s_epik_input>
Tz1DKFtPSF0pW0NASF0oW1NIXSlbQ0gyXUM9MVtDSF09TkMoQzEyKT1bQ0hdW0NIXShCcilbQ0hdPVtDSF0y

> <s_epik_cmdline>
J2VwaWtfYXBwJywgJy1pbWFlJywgJ2xpZ2FuZF9wcm8ubWFlJywgJy1vbWFlJywgJ2xpZ2FuZF9wcmVwLm1hZScsICctbXMnLCAnMScsICctcGgnLCAnNycsICctcGh0JywgJzAuNScsICctbnQn

> <r_lp_tautomer_probability>
1

> <r_epik_Ionization_Penalty>
  0.0039

> <r_epik_Ionization_Penalty_Charging>
  0.0000

> <r_epik_Ionization_Penalty_Neutral>
  0.0039

> <r_epik_State_Penalty>
 -0.0000

> <r_epik_Charging_Adjusted_Penalty>
2.27387453690976e-05

> <i_epik_Tot_Q>
-1

> <i_epik_Tot_abs_Q>
1

> <s_epik_Chemistry_Notes>
This compound has an imine and may undergo hydrolysis.

$$$$
