4wq3_ligand
                    3D
 Schrodinger Suite 2020-3.
 46 49  0  0  1  0            999 V2000
   15.7850  -15.0410   24.0770 O   0  0  0  0  0  0
   14.5930  -14.9160   24.3950 C   0  0  0  0  0  0
   13.7250  -15.6580   23.8930 O   0  5  0  0  0  0
   14.2310  -13.8540   25.4060 C   0  0  1  0  0  0
   12.5050  -13.6890   25.9630 S   0  0  0  0  0  0
   15.4360  -13.0880   26.0100 C   0  0  0  0  0  0
   15.3200  -12.0540   26.8350 C   0  0  0  0  0  0
   16.2600  -11.1060   26.9250 C   0  0  0  0  0  0
   17.4350  -10.9640   26.3250 C   0  0  0  0  0  0
   18.2100   -9.8500   26.5990 C   0  0  0  0  0  0
   17.7840   -8.8810   27.5060 C   0  0  3  0  0  0
   18.8820   -7.2990   27.9150 Br  0  0  0  0  0  0
   16.5460   -9.0980   28.1140 C   0  0  0  0  0  0
   15.8140  -10.1870   27.7910 C   0  0  0  0  0  0
   14.6030  -10.6010   28.2160 N   0  0  0  0  0  0
   14.2940  -11.7630   27.6210 C   0  0  0  0  0  0
   10.6240  -11.1430   26.7060 O   0  5  0  0  0  0
   11.0210  -10.5320   25.6930 C   0  0  0  0  0  0
   11.0980   -9.3030   25.7330 O   0  0  0  0  0  0
   11.3550  -11.2650   24.3780 C   0  0  1  0  0  0
   11.3200  -13.1790   24.3390 S   0  0  0  0  0  0
   11.7030  -10.4240   23.1180 C   0  0  0  0  0  0
   12.0680  -11.0330   21.9900 C   0  0  0  0  0  0
   13.0570  -10.6190   21.1940 C   0  0  0  0  0  0
   13.9080   -9.6210   21.3380 C   0  0  0  0  0  0
   14.8860   -9.3980   20.4090 C   0  0  0  0  0  0
   15.0090  -10.2650   19.3340 C   0  0  3  0  0  0
   16.3900   -9.9590   18.1320 Br  0  0  0  0  0  0
   14.1190  -11.3210   19.2320 C   0  0  0  0  0  0
   13.1660  -11.4800   20.1680 C   0  0  0  0  0  0
   12.1890  -12.3830   20.3170 N   0  0  0  0  0  0
   11.5120  -12.1280   21.4590 C   0  0  0  0  0  0
   14.9173  -13.2885   24.7585 H   0  0  0  0  0  0
   16.0511  -13.7810   26.6028 H   0  0  0  0  0  0
   16.0434  -12.6612   25.1982 H   0  0  0  0  0  0
   17.7946  -11.7230   25.6146 H   0  0  0  0  0  0
   19.1801   -9.7181   26.0976 H   0  0  0  0  0  0
   16.1667   -8.3809   28.8569 H   0  0  0  0  0  0
   13.3372  -12.2578   27.8441 H   0  0  0  0  0  0
   12.4174  -11.2902   24.6619 H   0  0  0  0  0  0
   10.8291   -9.8237   22.8250 H   0  0  0  0  0  0
   12.5472   -9.7562   23.3445 H   0  0  0  0  0  0
   13.8245   -8.9650   22.2170 H   0  0  0  0  0  0
   15.5639   -8.5388   20.5194 H   0  0  0  0  0  0
   14.1880  -12.0276   18.3918 H   0  0  0  0  0  0
   10.6840  -12.7840   21.7657 H   0  0  0  0  0  0
  1  2  2  0  0  0
  2  3  1  0  0  0
  2  4  1  0  0  0
  4  5  1  0  0  0
  4  6  1  0  0  0
  4 33  1  0  0  0
  5 21  1  0  0  0
  6  7  1  0  0  0
  6 34  1  0  0  0
  6 35  1  0  0  0
  7  8  2  0  0  0
  7 16  1  0  0  0
  8  9  1  0  0  0
  8 14  1  0  0  0
  9 10  2  0  0  0
  9 36  1  0  0  0
 10 11  1  0  0  0
 10 37  1  0  0  0
 11 12  1  0  0  0
 11 13  1  0  0  0
 13 14  2  0  0  0
 13 38  1  0  0  0
 14 15  1  0  0  0
 15 16  2  0  0  0
 16 39  1  0  0  0
 17 18  1  0  0  0
 18 19  2  0  0  0
 18 20  1  0  0  0
 20 21  1  0  0  0
 20 22  1  0  0  0
 20 40  1  0  0  0
 22 23  1  0  0  0
 22 41  1  0  0  0
 22 42  1  0  0  0
 23 24  2  0  0  0
 23 32  1  0  0  0
 24 25  1  0  0  0
 24 30  1  0  0  0
 25 26  2  0  0  0
 25 43  1  0  0  0
 26 27  1  0  0  0
 26 44  1  0  0  0
 27 28  1  0  0  0
 27 29  1  0  0  0
 29 30  2  0  0  0
 29 45  1  0  0  0
 30 31  1  0  0  0
 31 32  2  0  0  0
 32 46  1  0  0  0
M  CHG  2   3  -1  17  -1
M  END
> <s_m_source_file>
../4wq3_ligand.sdf

> <i_m_source_file_index>
1

> <s_epik_input>
W0NIXTE9W0NIXVtDSF0oQnIpW0NIXT1DKEMxMilOPVtDSF1DPTJbQ0gyXVtDQEBIXShDKD1PKVtPSF0pU1NbQ0BIXShDKD1PKVtPSF0pW0NIMl1DPTNbQ0hdPU5DKEMzNCk9W0NIXVtDSF0oQnIpW0NIXT1bQ0hdNA==

> <s_epik_cmdline>
J2VwaWtfYXBwJywgJy1pbWFlJywgJ2xpZ2FuZF9wcm8ubWFlJywgJy1vbWFlJywgJ2xpZ2FuZF9wcmVwLm1hZScsICctbXMnLCAnMScsICctcGgnLCAnNycsICctcGh0JywgJzAuNScsICctbnQn

> <r_lp_tautomer_probability>
1

> <r_epik_Ionization_Penalty>
  0.0001

> <r_epik_Ionization_Penalty_Charging>
  0.0001

> <r_epik_Ionization_Penalty_Neutral>
  0.0000

> <r_epik_State_Penalty>
 -0.0000

> <r_epik_Charging_Adjusted_Penalty>
5.88954702326764e-05

> <i_epik_Tot_Q>
-2

> <i_epik_Tot_abs_Q>
2

> <s_epik_Chemistry_Notes>
This compound has an imine and may undergo hydrolysis.

$$$$
