4wr7_ligand
                    3D
 Schrodinger Suite 2020-3.
 27 27  0  0  1  0            999 V2000
   12.5150   38.1500   15.9040 F   0  0  0  0  0  0
   12.7170   37.1420   16.7960 C   0  0  0  0  0  0
   13.4640   37.4030   17.9760 C   0  0  0  0  0  0
   13.9440   38.6540   18.1480 F   0  0  0  0  0  0
   12.1740   35.9020   16.5990 C   0  0  0  0  0  0
   11.2090   35.5760   15.0980 S   0  0  0  0  0  0
    9.7120   34.8300   15.8920 C   0  0  0  0  0  0
    8.5890   34.6380   14.8630 C   0  0  0  0  0  0
    8.0550   36.0070   14.4850 C   0  0  0  0  0  0
   12.3930   34.8810   17.5020 C   0  0  0  0  0  0
   11.9290   33.6060   17.3240 F   0  0  0  0  0  0
   13.1440   35.1360   18.6610 C   0  0  0  0  0  0
   13.3150   34.1230   19.5270 F   0  0  0  0  0  0
   13.6650   36.4390   18.9310 C   0  0  0  0  0  0
   14.5850   36.8940   20.4190 S   0  0  0  0  0  0
   14.8350   35.5860   21.0950 O   0  0  0  0  0  0
   13.7730   37.9430   21.0670 O   0  0  0  0  0  0
   16.0830   37.3620   19.8590 N   0  0  0  0  0  0
    9.9732   33.8506   16.3192 H   0  0  0  0  0  0
    9.3514   35.4942   16.6912 H   0  0  0  0  0  0
    8.9895   34.1292   13.9738 H   0  0  0  0  0  0
    7.7874   34.0278   15.3046 H   0  0  0  0  0  0
    7.2473   35.8945   13.7468 H   0  0  0  0  0  0
    8.8664   36.6102   14.0516 H   0  0  0  0  0  0
    7.6642   36.5088   15.3825 H   0  0  0  0  0  0
   16.7156   37.6590   20.7085 H   0  0  0  0  0  0
   15.9681   38.2134   19.1721 H   0  0  0  0  0  0
  1  2  1  0  0  0
  2  3  2  0  0  0
  2  5  1  0  0  0
  3  4  1  0  0  0
  3 14  1  0  0  0
  5  6  1  0  0  0
  5 10  2  0  0  0
  6  7  1  0  0  0
  7  8  1  0  0  0
  7 19  1  0  0  0
  7 20  1  0  0  0
  8  9  1  0  0  0
  8 21  1  0  0  0
  8 22  1  0  0  0
  9 23  1  0  0  0
  9 24  1  0  0  0
  9 25  1  0  0  0
 10 11  1  0  0  0
 10 12  1  0  0  0
 12 13  1  0  0  0
 12 14  2  0  0  0
 14 15  1  0  0  0
 15 16  2  0  0  0
 15 17  2  0  0  0
 15 18  1  0  0  0
 18 26  1  0  0  0
 18 27  1  0  0  0
M  END
> <s_m_source_file>
../4wr7_ligand.sdf

> <i_m_source_file_index>
1

> <s_epik_input>
RmMxYyhGKWMoUyg9TykoPU8pW05IMl0pYyhGKWMoRiljMVNbQ0gyXVtDSDJdW0NIM10=

> <s_epik_cmdline>
J2VwaWtfYXBwJywgJy1pbWFlJywgJ2xpZ2FuZF9wcm8ubWFlJywgJy1vbWFlJywgJ2xpZ2FuZF9wcmVwLm1hZScsICctbXMnLCAnMScsICctcGgnLCAnNycsICctcGh0JywgJzAuNScsICctbnQn

> <r_epik_Ionization_Penalty>
  0.0140

> <r_epik_Ionization_Penalty_Charging>
  0.0000

> <r_epik_Ionization_Penalty_Neutral>
  0.0140

> <r_epik_State_Penalty>
  0.0109

> <r_epik_Charging_Adjusted_Penalty>
0.010917201145961

> <i_epik_Tot_Q>
0

> <i_epik_Tot_abs_Q>
0

$$$$
