4wrb_ligand
                    3D
 Schrodinger Suite 2020-3.
 45 48  0  0  1  0            999 V2000
  -16.6720   -2.7910    4.7230 O   0  0  0  0  0  0
  -16.3180   -2.5650    3.4490 C   0  0  0  0  0  0
  -14.9960   -2.7350    3.1010 C   0  0  0  0  0  0
  -14.6000   -2.5140    1.7900 C   0  0  0  0  0  0
  -17.2530   -2.1470    2.5320 C   0  0  0  0  0  0
  -16.8750   -1.9190    1.2180 C   0  0  0  0  0  0
  -15.5400   -2.0870    0.8520 C   0  0  0  0  0  0
  -15.1230   -1.8390   -0.4830 N   0  0  0  0  0  0
  -13.8990   -1.3390   -0.8060 C   0  0  0  0  0  0
  -15.8820   -2.0300   -1.5950 N   0  0  0  0  0  0
  -15.1290   -1.6580   -2.6290 N   0  0  0  0  0  0
  -13.9100   -1.2320   -2.1790 C   0  0  0  0  0  0
  -12.8850   -0.7840   -3.1450 C   0  0  0  0  0  0
  -13.0580   -0.9610   -4.4630 N   0  0  0  0  0  0
  -11.7190   -0.2070   -2.6480 C   0  0  0  0  0  0
  -10.7180    0.1970   -3.5170 C   0  0  0  0  0  0
  -10.9040    0.0160   -4.8710 C   0  0  0  0  0  0
   -9.9210    0.4240   -5.7640 C   0  0  0  0  0  0
  -12.0930   -0.5700   -5.3270 C   0  0  0  0  0  0
  -12.3010   -0.7640   -6.6840 C   0  0  0  0  0  0
  -11.3180   -0.3660   -7.5800 C   0  0  0  0  0  0
  -10.1360    0.2260   -7.1290 C   0  0  0  0  0  0
   -9.2110    0.6110   -8.0710 O   0  0  0  0  0  0
   -7.9780    1.2410   -7.7110 C   0  0  0  0  0  0
   -7.1100    1.3260   -8.9510 C   0  0  0  0  0  0
   -6.7870   -0.0090   -9.3320 O   0  0  0  0  0  0
   -5.6500   -0.0880  -10.1920 C   0  0  0  0  0  0
  -15.9192   -3.1253    5.4520 H   0  0  0  0  0  0
  -14.2662   -3.0410    3.8505 H   0  0  0  0  0  0
  -13.5627   -2.6727    1.4952 H   0  0  0  0  0  0
  -18.2883   -1.9953    2.8372 H   0  0  0  0  0  0
  -17.6140   -1.6114    0.4782 H   0  0  0  0  0  0
  -13.0872   -1.0798   -0.1263 H   0  0  0  0  0  0
  -11.5935   -0.0729   -1.5736 H   0  0  0  0  0  0
   -9.8016    0.6490   -3.1375 H   0  0  0  0  0  0
   -9.0020    0.8885   -5.4066 H   0  0  0  0  0  0
  -13.2228   -1.2223   -7.0421 H   0  0  0  0  0  0
  -11.4705   -0.5174   -8.6486 H   0  0  0  0  0  0
   -8.1815    2.2496   -7.3221 H   0  0  0  0  0  0
   -7.4737    0.6443   -6.9367 H   0  0  0  0  0  0
   -7.6655    1.8336   -9.7533 H   0  0  0  0  0  0
   -6.1967    1.8944   -8.7211 H   0  0  0  0  0  0
   -5.4557   -1.1402  -10.4472 H   0  0  0  0  0  0
   -4.7726    0.3331   -9.6793 H   0  0  0  0  0  0
   -5.8458    0.4823  -11.1120 H   0  0  0  0  0  0
  1  2  1  0  0  0
  1 28  1  0  0  0
  2  3  2  0  0  0
  2  5  1  0  0  0
  3  4  1  0  0  0
  3 29  1  0  0  0
  4  7  2  0  0  0
  4 30  1  0  0  0
  5  6  2  0  0  0
  5 31  1  0  0  0
  6  7  1  0  0  0
  6 32  1  0  0  0
  7  8  1  0  0  0
  8  9  1  0  0  0
  8 10  1  0  0  0
  9 12  2  0  0  0
  9 33  1  0  0  0
 10 11  2  0  0  0
 11 12  1  0  0  0
 12 13  1  0  0  0
 13 14  2  0  0  0
 13 15  1  0  0  0
 14 19  1  0  0  0
 15 16  2  0  0  0
 15 34  1  0  0  0
 16 17  1  0  0  0
 16 35  1  0  0  0
 17 18  1  0  0  0
 17 19  2  0  0  0
 18 22  2  0  0  0
 18 36  1  0  0  0
 19 20  1  0  0  0
 20 21  2  0  0  0
 20 37  1  0  0  0
 21 22  1  0  0  0
 21 38  1  0  0  0
 22 23  1  0  0  0
 23 24  1  0  0  0
 24 25  1  0  0  0
 24 39  1  0  0  0
 24 40  1  0  0  0
 25 26  1  0  0  0
 25 41  1  0  0  0
 25 42  1  0  0  0
 26 27  1  0  0  0
 27 43  1  0  0  0
 27 44  1  0  0  0
 27 45  1  0  0  0
M  END
> <s_m_source_file>
../4wrb_ligand.sdf

> <i_m_source_file_index>
1

> <s_epik_input>
W09IXWMxW2NIXVtjSF1jKFtjSF1bY0hdMSktbjJbY0hdYyhubjIpLWMoW2NIXVtjSF0zKW5jKGMzNClbY0hdW2NIXWMoW2NIXTQpT1tDSDJdW0NIMl1PW0NIM10=

> <s_epik_cmdline>
J2VwaWtfYXBwJywgJy1pbWFlJywgJ2xpZ2FuZF9wcm8ubWFlJywgJy1vbWFlJywgJ2xpZ2FuZF9wcmVwLm1hZScsICctbXMnLCAnMScsICctcGgnLCAnNycsICctcGh0JywgJzAuNScsICctbnQn

> <r_lp_tautomer_probability>
1

> <r_epik_Ionization_Penalty>
  0.0562

> <r_epik_Ionization_Penalty_Charging>
  0.0000

> <r_epik_Ionization_Penalty_Neutral>
  0.0562

> <r_epik_State_Penalty>
  0.0485

> <r_epik_Charging_Adjusted_Penalty>
0.0484812491228292

> <i_epik_Tot_Q>
0

> <i_epik_Tot_abs_Q>
0

$$$$
