4wri_ligand
                    3D
 Schrodinger Suite 2020-3.
124130  0  0  1  0            999 V2000
   25.6640   50.7130   57.6940 C   0  0  0  0  0  0
   25.6820   51.4380   59.0610 C   0  0  2  0  0  0
   26.8620   52.4070   59.1180 C   0  0  0  0  0  0
   26.8430   53.4740   58.0010 C   0  0  2  0  0  0
   28.1110   54.3120   58.0850 C   0  0  0  0  0  0
   28.0310   55.5090   57.1350 C   0  0  0  0  0  0
   26.7220   56.2980   57.3790 C   0  0  2  0  0  0
   25.5470   55.3420   57.2640 C   0  0  2  0  0  0
   24.2740   56.0370   57.6540 C   0  0  0  0  0  0
   23.1670   55.9000   56.9020 C   0  0  0  0  0  0
   23.1370   55.1240   55.6230 C   0  0  0  0  0  0
   24.3820   54.1930   55.5810 C   0  0  1  0  0  0
   24.6130   53.6760   54.1520 C   0  0  1  0  0  0
   25.8250   52.7130   54.1600 C   0  0  0  0  0  0
   26.9260   53.0500   53.4870 C   0  0  0  0  0  0
   28.0890   52.1000   53.5580 C   0  0  1  0  0  0
   28.7090   51.6770   52.2000 C   0  0  0  0  0  0
   30.2270   51.6740   52.4570 C   0  0  0  0  0  0
   30.3480   52.1920   53.9270 C   0  0  1  0  0  0
   31.5630   52.9890   54.1570 C   0  0  0  0  0  0
   31.6030   53.4090   55.6510 C   0  0  0  0  0  0
   31.5500   52.1290   56.4810 C   0  0  2  0  0  0
   30.2770   51.3460   56.1190 C   0  0  2  0  0  0
   30.2500   50.0070   56.9280 C   0  0  1  0  0  0
   30.3830   50.4240   58.3750 C   0  0  0  0  0  0
   31.5000   51.3450   58.7140 C   0  0  1  0  0  0
   32.8610   50.6140   58.7140 C   0  0  2  0  0  0
   32.8760   49.6110   59.8780 C   0  0  0  0  0  0
   34.2340   48.9350   60.1280 C   0  0  1  0  0  0
   33.9930   47.8790   61.2480 C   0  0  2  0  0  0
   33.6410   48.4200   62.6130 C   0  0  1  0  0  0
   33.6030   47.3160   63.6700 C   0  0  0  0  0  0
   34.7730   46.3420   63.5930 C   0  0  0  0  0  0
   35.0620   45.9940   62.1240 C   0  0  2  0  0  0
   36.4520   45.2670   62.0850 C   0  0  0  0  0  0
   36.6160   44.6730   60.6910 C   0  0  0  0  0  0
   35.4450   43.7750   60.4130 C   0  0  0  0  0  0
   34.1250   44.4960   60.5060 C   0  0  0  0  0  0
   34.5780   49.5440   63.0550 C   0  0  0  0  0  0
   34.6760   48.1990   58.8550 C   0  0  0  0  0  0
   29.5750   50.0160   59.3150 C   0  0  0  0  0  0
   23.4160   52.8790   53.6680 C   0  0  0  0  0  0
   21.9410   56.6160   57.4010 C   0  0  0  0  0  0
   25.7740   50.4160   60.1850 C   0  0  0  0  0  0
   26.7150   50.1480   57.3880 O   0  0  0  0  0  0
   24.6410   50.7470   57.0050 O   0  5  0  0  0  0
   24.4720   52.1680   59.2200 O   0  0  0  0  0  0
   25.6840   54.2940   58.2050 O   0  0  0  0  0  0
   26.6450   57.3790   56.4140 O   0  0  0  0  0  0
   25.5130   54.8620   55.9200 O   0  0  0  0  0  0
   29.1180   52.8310   54.1540 O   0  0  0  0  0  0
   30.3330   50.9930   54.7460 O   0  0  0  0  0  0
   31.5460   52.5000   57.8620 O   0  0  0  0  0  0
   29.1010   49.3090   56.6350 O   0  0  0  0  0  0
   33.8710   51.5900   58.9150 O   0  0  0  0  0  0
   35.2190   47.0920   61.3150 O   0  0  0  0  0  0
   33.9990   45.1240   61.8310 O   0  0  0  0  0  0
   26.8527   52.9398   60.0803 H   0  0  0  0  0  0
   27.8027   51.8455   59.0188 H   0  0  0  0  0  0
   26.7509   53.0490   56.9906 H   0  0  0  0  0  0
   28.2388   54.6816   59.1131 H   0  0  0  0  0  0
   28.9778   53.6944   57.8070 H   0  0  0  0  0  0
   28.8900   56.1736   57.3095 H   0  0  0  0  0  0
   28.0483   55.1530   56.0943 H   0  0  0  0  0  0
   26.6797   56.7908   58.3615 H   0  0  0  0  0  0
   24.2499   56.6606   58.5598 H   0  0  0  0  0  0
   22.2170   54.5225   55.5806 H   0  0  0  0  0  0
   23.1598   55.8198   54.7713 H   0  0  0  0  0  0
   24.2969   53.4049   56.3436 H   0  0  0  0  0  0
   24.7633   54.5408   53.4890 H   0  0  0  0  0  0
   25.7867   51.7617   54.7109 H   0  0  0  0  0  0
   26.9544   53.9881   52.9132 H   0  0  0  0  0  0
   27.7517   51.2270   54.1361 H   0  0  0  0  0  0
   28.3371   50.6799   51.9219 H   0  0  0  0  0  0
   28.4246   52.4038   51.4248 H   0  0  0  0  0  0
   30.6168   50.6521   52.3394 H   0  0  0  0  0  0
   30.7223   52.3406   51.7357 H   0  0  0  0  0  0
   32.4494   52.3848   53.9136 H   0  0  0  0  0  0
   31.5417   53.8832   53.5167 H   0  0  0  0  0  0
   32.5324   53.9622   55.8516 H   0  0  0  0  0  0
   30.7385   54.0514   55.8746 H   0  0  0  0  0  0
   32.4402   51.4977   56.3435 H   0  0  0  0  0  0
   29.3823   51.9707   56.2578 H   0  0  0  0  0  0
   30.9807   49.2253   56.6731 H   0  0  0  0  0  0
   31.2588   51.7583   59.7045 H   0  0  0  0  0  0
   33.0961   50.1214   57.7590 H   0  0  0  0  0  0
   32.6020   50.1269   60.8101 H   0  0  0  0  0  0
   32.1530   48.8064   59.6781 H   0  0  0  0  0  0
   35.0020   49.6757   60.3955 H   0  0  0  0  0  0
   33.1250   47.2484   61.0051 H   0  0  0  0  0  0
   32.6305   48.8409   62.5048 H   0  0  0  0  0  0
   33.6226   47.7677   64.6728 H   0  0  0  0  0  0
   32.6820   46.7264   63.5514 H   0  0  0  0  0  0
   35.6652   46.8045   64.0403 H   0  0  0  0  0  0
   34.5218   45.4229   64.1427 H   0  0  0  0  0  0
   37.2517   45.9937   62.2908 H   0  0  0  0  0  0
   36.4724   44.4737   62.8468 H   0  0  0  0  0  0
   36.6509   45.4840   59.9487 H   0  0  0  0  0  0
   37.5507   44.0947   60.6465 H   0  0  0  0  0  0
   35.5327   43.3620   59.3973 H   0  0  0  0  0  0
   35.4321   42.9526   61.1434 H   0  0  0  0  0  0
   34.0751   45.2714   59.7273 H   0  0  0  0  0  0
   33.3041   43.7781   60.3618 H   0  0  0  0  0  0
   34.5956   50.3304   62.2860 H   0  0  0  0  0  0
   35.5929   49.1426   63.1922 H   0  0  0  0  0  0
   34.2197   49.9678   64.0048 H   0  0  0  0  0  0
   34.8513   48.9294   58.0514 H   0  0  0  0  0  0
   33.8887   47.4957   58.5460 H   0  0  0  0  0  0
   35.6047   47.6447   59.0557 H   0  0  0  0  0  0
   28.7467   49.3346   59.0708 H   0  0  0  0  0  0
   29.7222   50.3535   60.3516 H   0  0  0  0  0  0
   22.5279   53.5277   53.6466 H   0  0  0  0  0  0
   23.2372   52.0350   54.3504 H   0  0  0  0  0  0
   23.6151   52.4965   52.6560 H   0  0  0  0  0  0
   22.1726   57.1218   58.3499 H   0  0  0  0  0  0
   21.1314   55.8887   57.5612 H   0  0  0  0  0  0
   21.6229   57.3607   56.6566 H   0  0  0  0  0  0
   26.7048   49.8391   60.0807 H   0  0  0  0  0  0
   24.9123   49.7344   60.1322 H   0  0  0  0  0  0
   25.7715   50.9359   61.1544 H   0  0  0  0  0  0
   24.2110   52.9625   58.5054 H   0  0  0  0  0  0
   27.4321   58.1469   56.3843 H   0  0  0  0  0  0
   28.9147   48.9627   55.6077 H   0  0  0  0  0  0
   34.0117   52.3954   58.1792 H   0  0  0  0  0  0
  1  2  1  0  0  0
  1 45  2  0  0  0
  1 46  1  0  0  0
  2  3  1  0  0  0
  2 44  1  0  0  0
  2 47  1  0  0  0
  3  4  1  0  0  0
  3 58  1  0  0  0
  3 59  1  0  0  0
  4  5  1  0  0  0
  4 48  1  0  0  0
  4 60  1  0  0  0
  5  6  1  0  0  0
  5 61  1  0  0  0
  5 62  1  0  0  0
  6  7  1  0  0  0
  6 63  1  0  0  0
  6 64  1  0  0  0
  7  8  1  0  0  0
  7 49  1  0  0  0
  7 65  1  0  0  0
  8  9  1  0  0  0
  8 48  1  0  0  0
  8 50  1  0  0  0
  9 10  2  0  0  0
  9 66  1  0  0  0
 10 11  1  0  0  0
 10 43  1  0  0  0
 11 12  1  0  0  0
 11 67  1  0  0  0
 11 68  1  0  0  0
 12 13  1  0  0  0
 12 50  1  0  0  0
 12 69  1  0  0  0
 13 14  1  0  0  0
 13 42  1  0  0  0
 13 70  1  0  0  0
 14 15  2  0  0  0
 14 71  1  0  0  0
 15 16  1  0  0  0
 15 72  1  0  0  0
 16 17  1  0  0  0
 16 51  1  0  0  0
 16 73  1  0  0  0
 17 18  1  0  0  0
 17 74  1  0  0  0
 17 75  1  0  0  0
 18 19  1  0  0  0
 18 76  1  0  0  0
 18 77  1  0  0  0
 19 20  1  0  0  0
 19 51  1  0  0  0
 19 52  1  0  0  0
 20 21  1  0  0  0
 20 78  1  0  0  0
 20 79  1  0  0  0
 21 22  1  0  0  0
 21 80  1  0  0  0
 21 81  1  0  0  0
 22 23  1  0  0  0
 22 53  1  0  0  0
 22 82  1  0  0  0
 23 24  1  0  0  0
 23 52  1  0  0  0
 23 83  1  0  0  0
 24 25  1  0  0  0
 24 54  1  0  0  0
 24 84  1  0  0  0
 25 26  1  0  0  0
 25 41  2  0  0  0
 26 27  1  0  0  0
 26 53  1  0  0  0
 26 85  1  0  0  0
 27 28  1  0  0  0
 27 55  1  0  0  0
 27 86  1  0  0  0
 28 29  1  0  0  0
 28 87  1  0  0  0
 28 88  1  0  0  0
 29 30  1  0  0  0
 29 40  1  0  0  0
 29 89  1  0  0  0
 30 31  1  0  0  0
 30 56  1  0  0  0
 30 90  1  0  0  0
 31 32  1  0  0  0
 31 39  1  0  0  0
 31 91  1  0  0  0
 32 33  1  0  0  0
 32 92  1  0  0  0
 32 93  1  0  0  0
 33 34  1  0  0  0
 33 94  1  0  0  0
 33 95  1  0  0  0
 34 35  1  0  0  0
 34 56  1  0  0  0
 34 57  1  0  0  0
 35 36  1  0  0  0
 35 96  1  0  0  0
 35 97  1  0  0  0
 36 37  1  0  0  0
 36 98  1  0  0  0
 36 99  1  0  0  0
 37 38  1  0  0  0
 37100  1  0  0  0
 37101  1  0  0  0
 38 57  1  0  0  0
 38102  1  0  0  0
 38103  1  0  0  0
 39104  1  0  0  0
 39105  1  0  0  0
 39106  1  0  0  0
 40107  1  0  0  0
 40108  1  0  0  0
 40109  1  0  0  0
 41110  1  0  0  0
 41111  1  0  0  0
 42112  1  0  0  0
 42113  1  0  0  0
 42114  1  0  0  0
 43115  1  0  0  0
 43116  1  0  0  0
 43117  1  0  0  0
 44118  1  0  0  0
 44119  1  0  0  0
 44120  1  0  0  0
 47121  1  0  0  0
 49122  1  0  0  0
 54123  1  0  0  0
 55124  1  0  0  0
M  CHG  1  46  -1
M  END
> <s_m_source_file>
../4wri_ligand.sdf

> <i_m_source_file_index>
1

> <s_epik_input>
Tz1DKFtPSF0pW0NAXShbQ0gzXSkoW09IXSlbQ0gyXVtDQEBIXShPMSlbQ0gyXVtDSDJdW0NAQEhdKFtPSF0pW0NAXTEyW0NIXT1DKFtDSDNdKVtDSDJdW0NASF0oTzIpW0NASF0oW0NIM10pL1tDSF09W0NIXS9bQ0BIXShPMylbQ0gyXVtDSDJdW0NAQF0zNFtDSDJdW0NIMl1bQ0BASF01W0NAQEhdKE80KVtDQEhdKFtPSF0pQyg9W0NIMl0pW0NASF0oTzUpW0NAQEhdKFtPSF0pW0NIMl1bQ0BIXShbQ0gzXSlbQ0BASF0oTzYpW0NASF0oW0NIM10pW0NIMl1bQ0gyXVtDQF02N1tDSDJdW0NIMl1bQ0gyXVtDSDJdTzc=

> <s_epik_cmdline>
J2VwaWtfYXBwJywgJy1pbWFlJywgJ2xpZ2FuZF9wcm8ubWFlJywgJy1vbWFlJywgJ2xpZ2FuZF9wcmVwLm1hZScsICctbXMnLCAnMScsICctcGgnLCAnNycsICctcGh0JywgJzAuNScsICctbnQn

> <r_lp_tautomer_probability>
1

> <r_epik_Ionization_Penalty>
  0.0004

> <r_epik_Ionization_Penalty_Charging>
  0.0004

> <r_epik_Ionization_Penalty_Neutral>
  0.0000

> <r_epik_State_Penalty>
 -0.0000

> <r_epik_Charging_Adjusted_Penalty>
0.000417223533904883

> <i_epik_Tot_Q>
-1

> <i_epik_Tot_abs_Q>
1

$$$$
