4wrq_ligand
                    3D
 Schrodinger Suite 2020-3.
101100  0  0  1  0            999 V2000
   30.0960  -10.2750   41.4990 N   0  3  0  0  0  0
   28.9810  -11.2190   41.4620 C   0  0  2  0  0  0
   27.6470  -10.4720   41.4630 C   0  0  0  0  0  0
   27.1440  -10.0360   42.5100 O   0  0  0  0  0  0
   29.0520  -12.1920   42.6400 C   0  0  0  0  0  0
   28.1460  -13.2800   42.4730 O   0  0  0  0  0  0
   27.0630  -10.3500   40.2790 N   0  0  0  0  0  0
   25.9530   -9.4420   40.0800 C   0  0  2  0  0  0
   24.5660  -10.1060   40.0390 C   0  0  0  0  0  0
   24.3550  -11.0700   39.3050 O   0  0  0  0  0  0
   26.1930   -8.6460   38.8070 C   0  0  0  0  0  0
   23.6250   -9.5640   40.8120 N   0  0  0  0  0  0
   22.2310   -9.9070   40.6750 C   0  0  1  0  0  0
   21.5710  -10.0910   42.0020 C   0  0  0  0  0  0
   21.6220   -8.9420   42.7620 O   0  0  0  0  0  0
   21.5280   -8.8660   39.8370 C   0  0  0  0  0  0
   22.1970   -7.9610   39.2660 O   0  0  0  0  0  0
   21.1270   -8.9410   44.2420 P   0  0  0  0  0  0
   19.6920   -9.4220   44.3500 O   0  5  0  0  0  0
   21.2020   -7.5040   44.7470 O   0  5  0  0  0  0
   21.9960   -9.7990   45.1360 O   0  0  0  0  0  0
   20.2050   -8.9790   39.7110 N   0  0  0  0  0  0
   19.4130   -8.0800   38.8740 C   0  0  2  0  0  0
   19.4680   -6.6130   39.3690 C   0  0  0  0  0  0
   19.2840   -5.6740   38.5860 O   0  0  0  0  0  0
   17.9610   -8.5810   38.7700 C   0  0  0  0  0  0
   17.0620   -7.9290   37.7080 C   0  0  0  0  0  0
   17.6460   -8.0990   36.3140 C   0  0  0  0  0  0
   15.6460   -8.4770   37.7560 C   0  0  0  0  0  0
   19.7210   -6.4390   40.6650 N   0  0  0  0  0  0
   19.9160   -5.1220   41.2870 C   0  0  2  0  0  0
   20.7360   -4.1570   40.4360 C   0  0  0  0  0  0
   20.5500   -2.9500   40.5060 O   0  0  0  0  0  0
   20.5840   -5.2640   42.6630 C   0  0  0  0  0  0
   19.6160   -5.5190   43.6650 O   0  0  0  0  0  0
   21.6440   -4.7000   39.6390 N   0  0  0  0  0  0
   22.3990   -3.9050   38.6790 C   0  0  2  0  0  0
   21.6290   -3.6360   37.3700 C   0  0  0  0  0  0
   21.6040   -4.4750   36.4720 O   0  0  0  0  0  0
   23.7310   -4.5980   38.3940 C   0  0  0  0  0  0
   24.6340   -4.6290   39.6110 C   0  0  0  0  0  0
   25.3630   -3.6690   39.8780 O   0  0  0  0  0  0
   24.5840   -5.7220   40.3630 N   0  0  0  0  0  0
   20.9900   -2.4700   37.2740 N   0  0  0  0  0  0
   20.2540   -2.0970   36.0590 C   0  0  2  0  0  0
   20.0540   -0.5830   35.9320 C   0  0  0  0  0  0
   19.9420   -0.0480   34.8270 O   0  0  0  0  0  0
   18.9100   -2.8600   35.9450 C   0  0  0  0  0  0
   17.7450   -2.7200   36.9510 C   0  0  0  0  0  0
   16.9310   -1.4000   36.7870 C   0  0  0  0  0  0
   16.8170   -3.9670   36.9010 C   0  0  0  0  0  0
   20.0000    0.1360   36.9320 O   0  5  0  0  0  0
   30.0228   -9.5874   40.6435 H   0  0  0  0  0  0
   31.0458  -10.8272   41.4454 H   0  0  0  0  0  0
   30.0586   -9.6999   42.4360 H   0  0  0  0  0  0
   29.0957  -11.7752   40.5200 H   0  0  0  0  0  0
   30.0717  -12.5968   42.7203 H   0  0  0  0  0  0
   28.7935  -11.6626   43.5689 H   0  0  0  0  0  0
   28.0819  -14.0652   43.2407 H   0  0  0  0  0  0
   27.4365  -10.9544   39.4392 H   0  0  0  0  0  0
   25.9829   -8.8139   40.9825 H   0  0  0  0  0  0
   27.1872   -8.1771   38.8497 H   0  0  0  0  0  0
   25.4234   -7.8658   38.7118 H   0  0  0  0  0  0
   26.1420   -9.3192   37.9385 H   0  0  0  0  0  0
   23.9397   -8.8344   41.5727 H   0  0  0  0  0  0
   22.2058  -10.8820   40.1664 H   0  0  0  0  0  0
   20.5149  -10.3597   41.8521 H   0  0  0  0  0  0
   22.0787  -10.8945   42.5558 H   0  0  0  0  0  0
   19.7116   -9.7886   40.2687 H   0  0  0  0  0  0
   19.8986   -8.1338   37.8884 H   0  0  0  0  0  0
   17.9599   -9.6552   38.5333 H   0  0  0  0  0  0
   17.4467   -8.4162   39.7283 H   0  0  0  0  0  0
   17.0094   -6.8531   37.9310 H   0  0  0  0  0  0
   18.6702   -7.6983   36.2942 H   0  0  0  0  0  0
   17.0251   -7.5544   35.5874 H   0  0  0  0  0  0
   17.6650   -9.1672   36.0522 H   0  0  0  0  0  0
   15.2369   -8.3475   38.7688 H   0  0  0  0  0  0
   15.6579   -9.5466   37.4993 H   0  0  0  0  0  0
   15.0180   -7.9338   37.0346 H   0  0  0  0  0  0
   19.7812   -7.3508   41.2774 H   0  0  0  0  0  0
   18.8910   -4.7304   41.3639 H   0  0  0  0  0  0
   21.2994   -6.0992   42.6388 H   0  0  0  0  0  0
   21.1154   -4.3332   42.9105 H   0  0  0  0  0  0
   19.9286   -5.6474   44.7118 H   0  0  0  0  0  0
   21.8212   -5.7829   39.7165 H   0  0  0  0  0  0
   22.5520   -2.9386   39.1816 H   0  0  0  0  0  0
   23.5447   -5.6360   38.0810 H   0  0  0  0  0  0
   24.2588   -4.0621   37.5913 H   0  0  0  0  0  0
   23.9181   -6.5518   40.0837 H   0  0  0  0  0  0
   25.2085   -5.7978   41.2653 H   0  0  0  0  0  0
   21.0224   -1.7809   38.1308 H   0  0  0  0  0  0
   20.9269   -2.4118   35.2478 H   0  0  0  0  0  0
   18.4188   -2.5977   34.9964 H   0  0  0  0  0  0
   19.0998   -3.9432   35.9723 H   0  0  0  0  0  0
   18.2147   -2.6655   37.9442 H   0  0  0  0  0  0
   17.6155   -0.5398   36.8268 H   0  0  0  0  0  0
   16.1942   -1.3202   37.5998 H   0  0  0  0  0  0
   16.4092   -1.4089   35.8187 H   0  0  0  0  0  0
   17.4211   -4.8786   37.0193 H   0  0  0  0  0  0
   16.2943   -3.9965   35.9336 H   0  0  0  0  0  0
   16.0792   -3.9078   37.7147 H   0  0  0  0  0  0
  1  2  1  0  0  0
  1 53  1  0  0  0
  1 54  1  0  0  0
  1 55  1  0  0  0
  2  3  1  0  0  0
  2  5  1  0  0  0
  2 56  1  0  0  0
  3  4  2  0  0  0
  3  7  1  0  0  0
  5  6  1  0  0  0
  5 57  1  0  0  0
  5 58  1  0  0  0
  6 59  1  0  0  0
  7  8  1  0  0  0
  7 60  1  0  0  0
  8  9  1  0  0  0
  8 11  1  0  0  0
  8 61  1  0  0  0
  9 10  2  0  0  0
  9 12  1  0  0  0
 11 62  1  0  0  0
 11 63  1  0  0  0
 11 64  1  0  0  0
 12 13  1  0  0  0
 12 65  1  0  0  0
 13 14  1  0  0  0
 13 16  1  0  0  0
 13 66  1  0  0  0
 14 15  1  0  0  0
 14 67  1  0  0  0
 14 68  1  0  0  0
 15 18  1  0  0  0
 16 17  2  0  0  0
 16 22  1  0  0  0
 18 19  1  0  0  0
 18 20  1  0  0  0
 18 21  2  0  0  0
 22 23  1  0  0  0
 22 69  1  0  0  0
 23 24  1  0  0  0
 23 26  1  0  0  0
 23 70  1  0  0  0
 24 25  2  0  0  0
 24 30  1  0  0  0
 26 27  1  0  0  0
 26 71  1  0  0  0
 26 72  1  0  0  0
 27 28  1  0  0  0
 27 29  1  0  0  0
 27 73  1  0  0  0
 28 74  1  0  0  0
 28 75  1  0  0  0
 28 76  1  0  0  0
 29 77  1  0  0  0
 29 78  1  0  0  0
 29 79  1  0  0  0
 30 31  1  0  0  0
 30 80  1  0  0  0
 31 32  1  0  0  0
 31 34  1  0  0  0
 31 81  1  0  0  0
 32 33  2  0  0  0
 32 36  1  0  0  0
 34 35  1  0  0  0
 34 82  1  0  0  0
 34 83  1  0  0  0
 35 84  1  0  0  0
 36 37  1  0  0  0
 36 85  1  0  0  0
 37 38  1  0  0  0
 37 40  1  0  0  0
 37 86  1  0  0  0
 38 39  2  0  0  0
 38 44  1  0  0  0
 40 41  1  0  0  0
 40 87  1  0  0  0
 40 88  1  0  0  0
 41 42  2  0  0  0
 41 43  1  0  0  0
 43 89  1  0  0  0
 43 90  1  0  0  0
 44 45  1  0  0  0
 44 91  1  0  0  0
 45 46  1  0  0  0
 45 48  1  0  0  0
 45 92  1  0  0  0
 46 47  2  0  0  0
 46 52  1  0  0  0
 48 49  1  0  0  0
 48 93  1  0  0  0
 48 94  1  0  0  0
 49 50  1  0  0  0
 49 51  1  0  0  0
 49 95  1  0  0  0
 50 96  1  0  0  0
 50 97  1  0  0  0
 50 98  1  0  0  0
 51 99  1  0  0  0
 51100  1  0  0  0
 51101  1  0  0  0
M  CHG  4   1   1  19  -1  20  -1  52  -1
M  END
> <s_m_source_file>
../4wrq_ligand.sdf

> <i_m_source_file_index>
1

> <s_epik_input>
W09IXVtDSDJdW0NASF0oW05IMytdKUMoPU8pW05IXVtDQEBIXShbQ0gzXSlDKD1PKVtOSF1bQ0BASF0oW0NIMl1PUCg9TykoW09IXSlbT0hdKUMoPU8pW05IXVtDQEBIXShbQ0gyXVtDSF0oW0NIM10pW0NIM10pQyg9TylbTkhdW0NAQEhdKFtDSDJdW09IXSlDKD1PKVtOSF1bQ0BASF0oW0NIMl1DKD1PKVtOSDJdKUMoPU8pW05IXVtDQEhdKEMoPU8pW09IXSlbQ0gyXVtDSF0oW0NIM10pW0NIM10=

> <s_epik_cmdline>
J2VwaWtfYXBwJywgJy1pbWFlJywgJ2xpZ2FuZF9wcm8ubWFlJywgJy1vbWFlJywgJ2xpZ2FuZF9wcmVwLm1hZScsICctbXMnLCAnMScsICctcGgnLCAnNycsICctcGh0JywgJzAuNScsICctbnQn

> <r_lp_tautomer_probability>
1

> <r_epik_Ionization_Penalty>
  0.2384

> <r_epik_Ionization_Penalty_Charging>
  0.2384

> <r_epik_Ionization_Penalty_Neutral>
  0.0000

> <r_epik_State_Penalty>
 -0.0000

> <r_epik_Charging_Adjusted_Penalty>
0.238419608303138

> <i_epik_Tot_Q>
-2

> <i_epik_Tot_abs_Q>
4

$$$$
