4wrs_ligand
                    3D
 Schrodinger Suite 2020-3.
 53 58  0  0  1  0            999 V2000
  -43.8530   -3.0580    3.6160 F   0  0  0  0  0  0
  -44.7770   -2.1080    3.8020 C   0  0  0  0  0  0
  -45.3310   -1.9690    5.0790 C   0  0  0  0  0  0
  -46.2970   -0.9910    5.3290 C   0  0  0  0  0  0
  -46.7040   -0.1480    4.2940 C   0  0  0  0  0  0
  -46.1460   -0.2870    3.0140 C   0  0  0  0  0  0
  -46.5690    0.5500    2.0510 F   0  0  0  0  0  0
  -45.1650   -1.2690    2.7440 C   0  0  0  0  0  0
  -44.6070   -1.4140    1.4360 C   0  0  0  0  0  0
  -45.4620   -1.2800    0.3160 C   0  0  0  0  0  0
  -44.9770   -1.4110   -0.9870 C   0  0  0  0  0  0
  -43.6070   -1.6910   -1.2140 C   0  0  0  0  0  0
  -42.9020   -1.8840   -2.3830 N   0  0  0  0  0  0
  -41.6170   -2.1350   -2.0720 N   0  0  0  0  0  0
  -41.4510   -2.1140   -0.7330 C   0  0  3  0  0  0
  -40.2290   -2.3730   -0.0950 C   0  0  0  0  0  0
  -39.0620   -2.5400   -0.8510 C   0  0  0  0  0  0
  -37.8750   -2.8160   -0.2610 N   0  0  0  0  0  0
  -37.8300   -2.9490    1.0840 C   0  0  0  0  0  0
  -38.9900   -2.8030    1.8510 C   0  0  0  0  0  0
  -38.8870   -2.9680    3.2700 O   0  0  0  0  0  0
  -40.1210   -2.8120    4.0130 C   0  0  1  0  0  0
  -40.7270   -4.1680    4.4150 C   0  0  0  0  0  0
  -40.0290   -4.8600    5.5260 N   0  3  0  0  0  0
  -39.6590   -3.9700    6.6510 C   0  0  0  0  0  0
  -38.9260   -2.7230    6.1530 C   0  0  0  0  0  0
  -39.7680   -1.9830    5.1820 C   0  0  0  0  0  0
  -40.7510   -1.0140    5.8170 C   0  0  0  0  0  0
  -39.4650   -0.4940    5.1960 C   0  0  0  0  0  0
  -40.1720   -2.5220    1.2470 N   0  0  0  0  0  0
  -42.7390   -1.8390   -0.1520 C   0  0  0  0  0  0
  -43.2350   -1.6980    1.1950 C   0  0  0  0  0  0
  -45.0069   -2.6281    5.8844 H   0  0  0  0  0  0
  -46.7292   -0.8873    6.3243 H   0  0  0  0  0  0
  -47.4559    0.6189    4.4800 H   0  0  0  0  0  0
  -46.5200   -1.0704    0.4736 H   0  0  0  0  0  0
  -45.6552   -1.2974   -1.8327 H   0  0  0  0  0  0
  -39.1102   -2.4459   -1.9359 H   0  0  0  0  0  0
  -36.8822   -3.1717    1.5740 H   0  0  0  0  0  0
  -40.8631   -2.2953    3.3866 H   0  0  0  0  0  0
  -41.7684   -4.0228    4.7382 H   0  0  0  0  0  0
  -40.7024   -4.8507    3.5528 H   0  0  0  0  0  0
  -40.6802   -5.6468    5.9346 H   0  0  0  0  0  0
  -39.0994   -5.3121    5.1499 H   0  0  0  0  0  0
  -40.5686   -3.6532    7.1823 H   0  0  0  0  0  0
  -38.9988   -4.5111    7.3448 H   0  0  0  0  0  0
  -38.6998   -2.0657    7.0055 H   0  0  0  0  0  0
  -37.9884   -3.0208    5.6608 H   0  0  0  0  0  0
  -41.7197   -1.0834    5.3005 H   0  0  0  0  0  0
  -40.8827   -1.2686    6.8790 H   0  0  0  0  0  0
  -38.5263   -0.3160    5.7412 H   0  0  0  0  0  0
  -39.3634   -0.1307    4.1627 H   0  0  0  0  0  0
  -42.5512   -1.8103    2.0364 H   0  0  0  0  0  0
  1  2  1  0  0  0
  2  3  2  0  0  0
  2  8  1  0  0  0
  3  4  1  0  0  0
  3 33  1  0  0  0
  4  5  2  0  0  0
  4 34  1  0  0  0
  5  6  1  0  0  0
  5 35  1  0  0  0
  6  7  1  0  0  0
  6  8  2  0  0  0
  8  9  1  0  0  0
  9 10  2  0  0  0
  9 32  1  0  0  0
 10 11  1  0  0  0
 10 36  1  0  0  0
 11 12  2  0  0  0
 11 37  1  0  0  0
 12 13  1  0  0  0
 12 31  1  0  0  0
 13 14  2  0  0  0
 14 15  1  0  0  0
 15 16  1  0  0  0
 15 31  1  0  0  0
 16 17  2  0  0  0
 16 30  1  0  0  0
 17 18  1  0  0  0
 17 38  1  0  0  0
 18 19  2  0  0  0
 19 20  1  0  0  0
 19 39  1  0  0  0
 20 21  1  0  0  0
 20 30  2  0  0  0
 21 22  1  0  0  0
 22 23  1  0  0  0
 22 27  1  0  0  0
 22 40  1  0  0  0
 23 24  1  0  0  0
 23 41  1  0  0  0
 23 42  1  0  0  0
 24 25  1  0  0  0
 24 43  1  0  0  0
 24 44  1  0  0  0
 25 26  1  0  0  0
 25 45  1  0  0  0
 25 46  1  0  0  0
 26 27  1  0  0  0
 26 47  1  0  0  0
 26 48  1  0  0  0
 27 28  1  0  0  0
 27 29  1  0  0  0
 28 29  1  0  0  0
 28 49  1  0  0  0
 28 50  1  0  0  0
 29 51  1  0  0  0
 29 52  1  0  0  0
 31 32  2  0  0  0
 32 53  1  0  0  0
M  CHG  1  24   1
M  END
> <s_m_source_file>
../4wrs_ligand.sdf

> <i_m_source_file_index>
1

> <s_epik_input>
RmMxW2NIXVtjSF1bY0hdYyhGKWMxLWMoW2NIXVtjSF0yKVtjSF1jKGMyMylbQ0hdKE49TjMpYzRbY0hdbltjSF1jKG40KU9bQ0BIXShDNTZbQ0gyXVtDSDJdNilbQ0gyXVtOSDIrXVtDSDJdW0NIMl01

> <s_epik_cmdline>
J2VwaWtfYXBwJywgJy1pbWFlJywgJ2xpZ2FuZF9wcm8ubWFlJywgJy1vbWFlJywgJ2xpZ2FuZF9wcmVwLm1hZScsICctbXMnLCAnMScsICctcGgnLCAnNycsICctcGh0JywgJzAuNScsICctbnQn

> <r_lp_tautomer_probability>
1

> <r_epik_Ionization_Penalty>
  0.0027

> <r_epik_Ionization_Penalty_Charging>
  0.0027

> <r_epik_Ionization_Penalty_Neutral>
  0.0000

> <r_epik_State_Penalty>
 -0.0000

> <r_epik_Charging_Adjusted_Penalty>
0.00273345368993722

> <i_epik_Tot_Q>
1

> <i_epik_Tot_abs_Q>
1

$$$$
