4wsj_ligand
                    3D
 Schrodinger Suite 2020-3.
 31 31  0  0  1  0            999 V2000
   26.7490    4.5360   55.6400 C   0  0  0  0  0  0
   28.1490    5.0390   56.0700 C   0  0  1  0  0  0
   29.2800    4.5230   55.1420 C   0  0  1  0  0  0
   28.9090    4.7970   53.7310 O   0  0  0  0  0  0
   30.5450    5.2530   55.4440 C   0  0  1  0  0  0
   31.6500    4.5340   54.8000 O   0  0  0  0  0  0
   30.4440    6.6040   55.0020 C   0  0  2  0  0  0
   31.6660    7.3500   55.5150 O   0  0  0  0  0  0
   29.2450    7.3600   55.4210 C   0  0  0  0  0  0
   28.1400    6.5540   56.2080 C   0  0  2  0  0  0
   28.2620    6.8240   57.6830 N   0  0  0  0  0  0
   27.7710    7.9520   58.1460 C   0  0  0  0  0  0
   27.2830    8.8780   57.4790 O   0  0  0  0  0  0
   27.9600    8.1110   59.6640 C   0  0  0  0  0  0
   26.7668    3.4404   55.5433 H   0  0  0  0  0  0
   26.4792    4.9852   54.6728 H   0  0  0  0  0  0
   26.0066    4.8252   56.3985 H   0  0  0  0  0  0
   28.3762    4.6336   57.0670 H   0  0  0  0  0  0
   29.4483    3.4436   55.2705 H   0  0  0  0  0  0
   27.9992    4.3492   53.3046 H   0  0  0  0  0  0
   30.7478    5.3291   56.5225 H   0  0  0  0  0  0
   31.8409    3.4802   55.0510 H   0  0  0  0  0  0
   30.3457    6.4843   53.9130 H   0  0  0  0  0  0
   32.6740    6.9583   55.3139 H   0  0  0  0  0  0
   29.5447    8.1838   56.0855 H   0  0  0  0  0  0
   28.7411    7.7698   54.5332 H   0  0  0  0  0  0
   27.1841    6.8935   55.7826 H   0  0  0  0  0  0
   28.7505    6.0879   58.3383 H   0  0  0  0  0  0
   28.4025    7.1923   60.0766 H   0  0  0  0  0  0
   26.9841    8.2929   60.1379 H   0  0  0  0  0  0
   28.6285    8.9615   59.8631 H   0  0  0  0  0  0
  1  2  1  0  0  0
  1 15  1  0  0  0
  1 16  1  0  0  0
  1 17  1  0  0  0
  2  3  1  0  0  0
  2 10  1  0  0  0
  2 18  1  0  0  0
  3  4  1  0  0  0
  3  5  1  0  0  0
  3 19  1  0  0  0
  4 20  1  0  0  0
  5  6  1  0  0  0
  5  7  1  0  0  0
  5 21  1  0  0  0
  6 22  1  0  0  0
  7  8  1  0  0  0
  7  9  1  0  0  0
  7 23  1  0  0  0
  8 24  1  0  0  0
  9 10  1  0  0  0
  9 25  1  0  0  0
  9 26  1  0  0  0
 10 11  1  0  0  0
 10 27  1  0  0  0
 11 12  1  0  0  0
 11 28  1  0  0  0
 12 13  2  0  0  0
 12 14  1  0  0  0
 14 29  1  0  0  0
 14 30  1  0  0  0
 14 31  1  0  0  0
M  END
> <s_m_source_file>
../4wsj_ligand.sdf

> <i_m_source_file_index>
1

> <s_epik_input>
W0NIM11bQ0BIXTFbQ0BASF0oW09IXSlbQ0BASF0oW09IXSlbQ0BIXShbT0hdKVtDSDJdW0NAQEhdMVtOSF1DKD1PKVtDSDNd

> <s_epik_cmdline>
J2VwaWtfYXBwJywgJy1pbWFlJywgJ2xpZ2FuZF9wcm8ubWFlJywgJy1vbWFlJywgJ2xpZ2FuZF9wcmVwLm1hZScsICctbXMnLCAnMScsICctcGgnLCAnNycsICctcGh0JywgJzAuNScsICctbnQn

> <r_lp_tautomer_probability>
1

> <r_epik_Ionization_Penalty>
  0.0000

> <r_epik_Ionization_Penalty_Charging>
  0.0000

> <r_epik_Ionization_Penalty_Neutral>
  0.0000

> <r_epik_State_Penalty>
 -0.0000

> <r_epik_Charging_Adjusted_Penalty>
0

> <i_epik_Tot_Q>
0

> <i_epik_Tot_abs_Q>
0

$$$$
