4wsk_ligand
                    3D
 Schrodinger Suite 2020-3.
 28 28  0  0  1  0            999 V2000
   26.8130    4.7710   55.5200 C   0  0  0  0  0  0
   28.2240    5.1100   56.0120 C   0  0  1  0  0  0
   29.3020    4.5050   55.0460 C   0  0  1  0  0  0
   28.9150    4.8170   53.6360 O   0  0  0  0  0  0
   30.6860    5.1120   55.3600 C   0  0  1  0  0  0
   31.7400    4.3290   54.7730 O   0  0  0  0  0  0
   30.7340    6.5930   54.8830 C   0  0  2  0  0  0
   31.8650    7.2940   55.4820 O   0  0  0  0  0  0
   29.3070    7.3390   55.0010 C   0  0  0  0  0  0
   28.4250    6.6290   56.1810 C   0  0  2  0  0  0
   28.9460    6.8990   57.5820 N   0  0  0  0  0  0
   28.7260    8.0570   58.2890 C   0  0  0  0  0  0
   28.0910    9.0440   57.8720 O   0  0  0  0  0  0
   26.7139    3.6806   55.4137 H   0  0  0  0  0  0
   26.6390    5.2517   54.5460 H   0  0  0  0  0  0
   26.0733    5.1373   56.2471 H   0  0  0  0  0  0
   28.3264    4.6638   57.0122 H   0  0  0  0  0  0
   29.3602    3.4105   55.1394 H   0  0  0  0  0  0
   27.9534    4.4608   53.2379 H   0  0  0  0  0  0
   30.9061    5.0410   56.4354 H   0  0  0  0  0  0
   31.8331    3.2606   55.0178 H   0  0  0  0  0  0
   31.0384    6.6231   53.8264 H   0  0  0  0  0  0
   32.8706    6.8500   55.4426 H   0  0  0  0  0  0
   29.4668    8.3992   55.2467 H   0  0  0  0  0  0
   28.7722    7.2612   54.0429 H   0  0  0  0  0  0
   27.4221    7.0787   56.1376 H   0  0  0  0  0  0
   29.5464    6.1378   58.1017 H   0  0  0  0  0  0
   29.1629    8.0705   59.2984 H   0  0  0  0  0  0
  1  2  1  0  0  0
  1 14  1  0  0  0
  1 15  1  0  0  0
  1 16  1  0  0  0
  2  3  1  0  0  0
  2 10  1  0  0  0
  2 17  1  0  0  0
  3  4  1  0  0  0
  3  5  1  0  0  0
  3 18  1  0  0  0
  4 19  1  0  0  0
  5  6  1  0  0  0
  5  7  1  0  0  0
  5 20  1  0  0  0
  6 21  1  0  0  0
  7  8  1  0  0  0
  7  9  1  0  0  0
  7 22  1  0  0  0
  8 23  1  0  0  0
  9 10  1  0  0  0
  9 24  1  0  0  0
  9 25  1  0  0  0
 10 11  1  0  0  0
 10 26  1  0  0  0
 11 12  1  0  0  0
 11 27  1  0  0  0
 12 13  2  0  0  0
 12 28  1  0  0  0
M  END
> <s_m_source_file>
../4wsk_ligand.sdf

> <i_m_source_file_index>
1

> <s_epik_input>
W0NIM11bQ0BIXTFbQ0BASF0oW09IXSlbQ0BASF0oW09IXSlbQ0BIXShbT0hdKVtDSDJdW0NAQEhdMVtOSF1bQ0hdPU8=

> <s_epik_cmdline>
J2VwaWtfYXBwJywgJy1pbWFlJywgJ2xpZ2FuZF9wcm8ubWFlJywgJy1vbWFlJywgJ2xpZ2FuZF9wcmVwLm1hZScsICctbXMnLCAnMScsICctcGgnLCAnNycsICctcGh0JywgJzAuNScsICctbnQn

> <r_lp_tautomer_probability>
1

> <r_epik_Ionization_Penalty>
  0.0000

> <r_epik_Ionization_Penalty_Charging>
  0.0000

> <r_epik_Ionization_Penalty_Neutral>
  0.0000

> <r_epik_State_Penalty>
 -0.0000

> <r_epik_Charging_Adjusted_Penalty>
0

> <i_epik_Tot_Q>
0

> <i_epik_Tot_abs_Q>
0

$$$$
