4wt2_ligand
                    3D
 Schrodinger Suite 2020-3.
 90 94  0  0  1  0            999 V2000
   12.4270  -31.9440   -0.6230 C   0  0  0  0  0  0
   11.3490  -32.8580   -0.7620 O   0  0  0  0  0  0
   10.1880  -32.3630   -1.2940 C   0  0  0  0  0  0
   10.0680  -31.0340   -1.7280 C   0  0  0  0  0  0
    9.0950  -33.2240   -1.4020 C   0  0  0  0  0  0
    9.2020  -34.6750   -0.9360 C   0  0  0  0  0  0
    8.5690  -35.0030    0.0880 O   0  0  0  0  0  0
    9.9160  -35.4470   -1.6090 O   0  5  0  0  0  0
    7.8970  -32.7670   -1.9380 C   0  0  0  0  0  0
    7.7850  -31.4460   -2.3680 C   0  0  0  0  0  0
    8.8600  -30.5650   -2.2670 C   0  0  0  0  0  0
    8.6530  -29.3060   -2.7210 N   0  0  0  0  0  0
    9.4230  -28.2300   -2.4980 C   0  0  0  0  0  0
   10.4280  -28.1890   -1.7950 O   0  0  0  0  0  0
    8.9480  -26.9570   -3.2220 C   0  0  0  0  0  0
    8.3350  -25.8930   -2.3270 C   0  0  2  0  0  0
    9.4030  -25.1920   -1.4770 C   0  0  0  0  0  0
    7.2890  -26.5130   -1.3860 C   0  0  0  0  0  0
    7.5810  -24.8800   -3.2020 C   0  0  0  0  0  0
    6.5100  -25.2260   -3.6960 O   0  0  0  0  0  0
    8.0970  -23.6090   -3.4900 N   0  0  0  0  0  0
    7.2690  -22.6160   -4.2050 C   0  0  1  0  0  0
    6.9440  -23.0100   -5.6430 C   0  0  0  0  0  0
    6.4650  -21.8360   -6.5030 C   0  0  0  0  0  0
    7.8560  -22.4270   -6.7210 C   0  0  0  0  0  0
    5.9820  -22.3930   -3.3840 C   0  0  0  0  0  0
    6.2510  -21.7730   -1.6870 S   0  0  0  0  0  0
    6.9830  -20.4830   -1.7700 O   0  0  0  0  0  0
    6.9780  -22.7870   -0.8570 O   0  0  0  0  0  0
    4.6290  -21.5230   -0.8970 C   0  0  0  0  0  0
    3.8290  -20.5440   -1.7560 C   0  0  0  0  0  0
    3.9470  -22.8950   -0.8180 C   0  0  0  0  0  0
    4.8650  -20.9380    0.5020 C   0  0  0  0  0  0
    9.3590  -23.1120   -2.9160 C   0  0  2  0  0  0
   10.2070  -22.3230   -3.9460 C   0  0  0  0  0  0
   10.7220  -22.9400   -5.0830 C   0  0  0  0  0  0
   11.4900  -22.1910   -5.9590 C   0  0  0  0  0  0
   11.9520  -22.8150   -7.0520 F   0  0  0  0  0  0
   11.7610  -20.8490   -5.7070 C   0  0  0  0  0  0
   12.7630  -19.9210   -6.7790 Cl  0  0  0  0  0  0
   11.2600  -20.2320   -4.5760 C   0  0  0  0  0  0
   10.4810  -20.9840   -3.6970 C   0  0  0  0  0  0
   10.2480  -24.2490   -2.3350 C   0  0  1  0  0  0
   11.4110  -23.5820   -1.5460 C   0  0  0  0  0  0
   12.7020  -23.5550   -2.0880 C   0  0  0  0  0  0
   13.7380  -22.9480   -1.3990 C   0  0  0  0  0  0
   15.3220  -22.9300   -2.0980 Cl  0  0  0  0  0  0
   13.5150  -22.3480   -0.1710 C   0  0  0  0  0  0
   12.2410  -22.3730    0.3780 C   0  0  0  0  0  0
   11.1880  -22.9840   -0.3060 C   0  0  0  0  0  0
   13.2937  -32.4627   -0.1873 H   0  0  0  0  0  0
   12.1243  -31.1177    0.0370 H   0  0  0  0  0  0
   12.6980  -31.5436   -1.6111 H   0  0  0  0  0  0
   10.9206  -30.3599   -1.6458 H   0  0  0  0  0  0
    7.0450  -33.4416   -2.0221 H   0  0  0  0  0  0
    6.8425  -31.0967   -2.7896 H   0  0  0  0  0  0
    7.7745  -29.0837   -3.3445 H   0  0  0  0  0  0
    9.8013  -26.4843   -3.7304 H   0  0  0  0  0  0
    8.1802  -27.2219   -3.9638 H   0  0  0  0  0  0
    8.9145  -24.6072   -0.6836 H   0  0  0  0  0  0
   10.0634  -25.9457   -1.0232 H   0  0  0  0  0  0
    7.7761  -27.2510   -0.7318 H   0  0  0  0  0  0
    6.5086  -27.0094   -1.9815 H   0  0  0  0  0  0
    6.8340  -25.7221   -0.7716 H   0  0  0  0  0  0
    7.8820  -21.7059   -4.2816 H   0  0  0  0  0  0
    6.5869  -24.0234   -5.4074 H   0  0  0  0  0  0
    5.5593  -22.1304   -7.0536 H   0  0  0  0  0  0
    6.2374  -20.9762   -5.8558 H   0  0  0  0  0  0
    8.7810  -22.0546   -6.2566 H   0  0  0  0  0  0
    8.1030  -23.2087   -7.4545 H   0  0  0  0  0  0
    5.3455  -21.6544   -3.8933 H   0  0  0  0  0  0
    5.4372  -23.3441   -3.2906 H   0  0  0  0  0  0
    3.6689  -20.9781   -2.7540 H   0  0  0  0  0  0
    4.3860  -19.6003   -1.8517 H   0  0  0  0  0  0
    2.8564  -20.3491   -1.2805 H   0  0  0  0  0  0
    3.7921  -23.2865   -1.8342 H   0  0  0  0  0  0
    2.9755  -22.7929   -0.3123 H   0  0  0  0  0  0
    4.5845  -23.5892   -0.2508 H   0  0  0  0  0  0
    5.3540  -19.9568    0.4114 H   0  0  0  0  0  0
    5.5096  -21.6171    1.0794 H   0  0  0  0  0  0
    3.9006  -20.8208    1.0179 H   0  0  0  0  0  0
    8.9883  -22.4525   -2.1175 H   0  0  0  0  0  0
   10.5243  -23.9936   -5.2801 H   0  0  0  0  0  0
   11.4691  -19.1812   -4.3757 H   0  0  0  0  0  0
   10.0803  -20.5131   -2.7993 H   0  0  0  0  0  0
   10.6711  -24.8870   -3.1249 H   0  0  0  0  0  0
   12.8922  -24.0145   -3.0579 H   0  0  0  0  0  0
   14.3329  -21.8605    0.3595 H   0  0  0  0  0  0
   12.0609  -21.9127    1.3495 H   0  0  0  0  0  0
   10.1892  -22.9936    0.1304 H   0  0  0  0  0  0
  1  2  1  0  0  0
  1 51  1  0  0  0
  1 52  1  0  0  0
  1 53  1  0  0  0
  2  3  1  0  0  0
  3  4  2  0  0  0
  3  5  1  0  0  0
  4 11  1  0  0  0
  4 54  1  0  0  0
  5  6  1  0  0  0
  5  9  2  0  0  0
  6  7  2  0  0  0
  6  8  1  0  0  0
  9 10  1  0  0  0
  9 55  1  0  0  0
 10 11  2  0  0  0
 10 56  1  0  0  0
 11 12  1  0  0  0
 12 13  1  0  0  0
 12 57  1  0  0  0
 13 14  2  0  0  0
 13 15  1  0  0  0
 15 16  1  0  0  0
 15 58  1  0  0  0
 15 59  1  0  0  0
 16 17  1  0  0  0
 16 18  1  0  0  0
 16 19  1  0  0  0
 17 43  1  0  0  0
 17 60  1  0  0  0
 17 61  1  0  0  0
 18 62  1  0  0  0
 18 63  1  0  0  0
 18 64  1  0  0  0
 19 20  2  0  0  0
 19 21  1  0  0  0
 21 22  1  0  0  0
 21 34  1  0  0  0
 22 23  1  0  0  0
 22 26  1  0  0  0
 22 65  1  0  0  0
 23 24  1  0  0  0
 23 25  1  0  0  0
 23 66  1  0  0  0
 24 25  1  0  0  0
 24 67  1  0  0  0
 24 68  1  0  0  0
 25 69  1  0  0  0
 25 70  1  0  0  0
 26 27  1  0  0  0
 26 71  1  0  0  0
 26 72  1  0  0  0
 27 28  2  0  0  0
 27 29  2  0  0  0
 27 30  1  0  0  0
 30 31  1  0  0  0
 30 32  1  0  0  0
 30 33  1  0  0  0
 31 73  1  0  0  0
 31 74  1  0  0  0
 31 75  1  0  0  0
 32 76  1  0  0  0
 32 77  1  0  0  0
 32 78  1  0  0  0
 33 79  1  0  0  0
 33 80  1  0  0  0
 33 81  1  0  0  0
 34 35  1  0  0  0
 34 43  1  0  0  0
 34 82  1  0  0  0
 35 36  2  0  0  0
 35 42  1  0  0  0
 36 37  1  0  0  0
 36 83  1  0  0  0
 37 38  1  0  0  0
 37 39  2  0  0  0
 39 40  1  0  0  0
 39 41  1  0  0  0
 41 42  2  0  0  0
 41 84  1  0  0  0
 42 85  1  0  0  0
 43 44  1  0  0  0
 43 86  1  0  0  0
 44 45  2  0  0  0
 44 50  1  0  0  0
 45 46  1  0  0  0
 45 87  1  0  0  0
 46 47  1  0  0  0
 46 48  2  0  0  0
 48 49  1  0  0  0
 48 88  1  0  0  0
 49 50  2  0  0  0
 49 89  1  0  0  0
 50 90  1  0  0  0
M  CHG  1   8  -1
M  END
> <s_m_source_file>
../4wt2_ligand.sdf

> <i_m_source_file_index>
1

> <s_epik_input>
Tz1DKFtPSF0pYzFbY0hdW2NIXWMoW2NIXWMxT1tDSDNdKVtOSF1DKD1PKVtDSDJdW0NAQF0yKFtDSDNdKVtDSDJdW0NASF0oYzNbY0hdYyhDbClbY0hdW2NIXVtjSF0zKVtDQEhdKE4oQzI9TylbQ0BASF0oW0NIXTRbQ0gyXVtDSDJdNClbQ0gyXVMoPU8pKD1PKUMoW0NIM10pKFtDSDNdKVtDSDNdKWM1W2NIXWMoRiljKENsKVtjSF1bY0hdNQ==

> <s_epik_cmdline>
J2VwaWtfYXBwJywgJy1pbWFlJywgJ2xpZ2FuZF9wcm8ubWFlJywgJy1vbWFlJywgJ2xpZ2FuZF9wcmVwLm1hZScsICctbXMnLCAnMScsICctcGgnLCAnNycsICctcGh0JywgJzAuNScsICctbnQn

> <r_lp_tautomer_probability>
1

> <r_epik_Ionization_Penalty>
  0.0008

> <r_epik_Ionization_Penalty_Charging>
  0.0008

> <r_epik_Ionization_Penalty_Neutral>
  0.0000

> <r_epik_State_Penalty>
 -0.0000

> <r_epik_Charging_Adjusted_Penalty>
0.000756979431535756

> <i_epik_Tot_Q>
-1

> <i_epik_Tot_abs_Q>
1

$$$$
