4wt6_ligand
                    3D
 Schrodinger Suite 2020-3.
 46 50  0  0  1  0            999 V2000
  -40.3810   -2.8630    5.3650 C   0  0  0  0  0  0
  -39.0650   -2.1620    5.1070 C   0  0  0  0  0  0
  -39.5230   -0.7400    4.8090 C   0  0  0  0  0  0
  -40.7430   -0.9380    3.9050 C   0  0  0  0  0  0
  -41.3200   -2.3100    4.2850 C   0  0  0  0  0  0
  -42.6930   -2.1790    4.8470 N   0  0  0  0  0  0
  -43.7630   -1.9090    4.1030 C   0  0  0  0  0  0
  -43.6450   -1.8760    2.7670 N   0  0  0  0  0  0
  -44.9790   -1.6420    4.7170 C   0  0  0  0  0  0
  -46.0780   -1.3380    3.9160 C   0  0  0  0  0  0
  -45.9320   -1.3190    2.5330 C   0  0  0  0  0  0
  -44.6830   -1.5860    1.9630 C   0  0  0  0  0  0
  -44.5180   -1.5960    0.5700 C   0  0  0  0  0  0
  -43.3230   -1.8900   -0.0820 C   0  0  0  0  0  0
  -42.0310   -2.1910    0.3510 C   0  0  0  0  0  0
  -45.4470   -1.3900   -0.3670 C   0  0  0  0  0  0
  -44.8910   -1.5240   -1.5780 N   0  0  0  0  0  0
  -43.6080   -1.8220   -1.4410 C   0  0  0  0  0  0
  -42.6270   -2.0570   -2.3800 C   0  0  0  0  0  0
  -41.3370   -2.3560   -1.9570 C   0  0  0  0  0  0
  -41.0270   -2.4150   -0.5930 C   0  0  0  0  0  0
  -39.7320   -2.7500   -0.2310 C   0  0  0  0  0  0
  -39.1900   -3.0270    1.3760 S   0  0  0  0  0  0
  -38.6960   -2.9980   -1.0630 N   0  0  0  0  0  0
  -37.6240   -3.3130   -0.5060 N   0  0  0  0  0  0
  -37.6820   -3.3820    0.8350 C   0  0  0  0  0  0
  -36.6990   -3.7140    1.6420 N   0  0  0  0  0  0
  -40.2414   -3.9502    5.2733 H   0  0  0  0  0  0
  -40.7318   -2.6226    6.3795 H   0  0  0  0  0  0
  -38.4299   -2.2334    6.0023 H   0  0  0  0  0  0
  -38.5556   -2.6396    4.2571 H   0  0  0  0  0  0
  -39.7783   -0.2321    5.7507 H   0  0  0  0  0  0
  -38.7134   -0.1921    4.3047 H   0  0  0  0  0  0
  -41.4696   -0.1327    4.0882 H   0  0  0  0  0  0
  -40.4267   -0.9138    2.8517 H   0  0  0  0  0  0
  -41.4192   -2.9689    3.4098 H   0  0  0  0  0  0
  -42.8598   -2.3068    5.9267 H   0  0  0  0  0  0
  -45.0722   -1.6696    5.8027 H   0  0  0  0  0  0
  -47.0442   -1.1169    4.3696 H   0  0  0  0  0  0
  -46.7879   -1.0968    1.8956 H   0  0  0  0  0  0
  -41.8000   -2.2525    1.4247 H   0  0  0  0  0  0
  -46.5158   -1.1459   -0.2764 H   0  0  0  0  0  0
  -42.8685   -2.0070   -3.4520 H   0  0  0  0  0  0
  -40.5582   -2.5466   -2.6954 H   0  0  0  0  0  0
  -36.8638   -3.7363    2.7294 H   0  0  0  0  0  0
  -35.7116   -3.9695    1.2300 H   0  0  0  0  0  0
  1  2  1  0  0  0
  1  5  1  0  0  0
  1 28  1  0  0  0
  1 29  1  0  0  0
  2  3  1  0  0  0
  2 30  1  0  0  0
  2 31  1  0  0  0
  3  4  1  0  0  0
  3 32  1  0  0  0
  3 33  1  0  0  0
  4  5  1  0  0  0
  4 34  1  0  0  0
  4 35  1  0  0  0
  5  6  1  0  0  0
  5 36  1  0  0  0
  6  7  1  0  0  0
  6 37  1  0  0  0
  7  8  2  0  0  0
  7  9  1  0  0  0
  8 12  1  0  0  0
  9 10  2  0  0  0
  9 38  1  0  0  0
 10 11  1  0  0  0
 10 39  1  0  0  0
 11 12  2  0  0  0
 11 40  1  0  0  0
 12 13  1  0  0  0
 13 14  2  0  0  0
 13 16  1  0  0  0
 14 15  1  0  0  0
 14 18  1  0  0  0
 15 21  2  0  0  0
 15 41  1  0  0  0
 16 17  2  0  0  0
 16 42  1  0  0  0
 17 18  1  0  0  0
 18 19  2  0  0  0
 19 20  1  0  0  0
 19 43  1  0  0  0
 20 21  1  0  0  0
 20 44  1  0  0  0
 21 22  1  0  0  0
 22 23  1  0  0  0
 22 24  2  0  0  0
 23 26  1  0  0  0
 24 25  1  0  0  0
 25 26  2  0  0  0
 26 27  1  0  0  0
 27 45  1  0  0  0
 27 46  1  0  0  0
M  END
> <s_m_source_file>
../4wt6_ligand.sdf

> <i_m_source_file_index>
1

> <s_epik_input>
W0NIMl0xW0NIMl1bQ0gyXVtDSDJdW0NIXTFbTkhdYzJuYyhbY0hdW2NIXVtjSF0yKUM9M1tDSF09TkMoQzM0KT1bQ0hdW0NIMl1DKD1bQ0hdNCljNXNjKG5uNSlbTkgyXQ==

> <s_epik_cmdline>
J2VwaWtfYXBwJywgJy1pbWFlJywgJ2xpZ2FuZF9wcm8ubWFlJywgJy1vbWFlJywgJ2xpZ2FuZF9wcmVwLm1hZScsICctbXMnLCAnMScsICctcGgnLCAnNycsICctcGh0JywgJzAuNScsICctbnQn

> <r_lp_tautomer_probability>
1

> <r_epik_Ionization_Penalty>
  0.0000

> <r_epik_Ionization_Penalty_Charging>
  0.0000

> <r_epik_Ionization_Penalty_Neutral>
  0.0000

> <r_epik_State_Penalty>
 -0.0000

> <r_epik_Charging_Adjusted_Penalty>
0

> <i_epik_Tot_Q>
0

> <i_epik_Tot_abs_Q>
0

> <s_epik_Chemistry_Notes>
This compound has an imine and may undergo hydrolysis.

$$$$
