4wtu_ligand
                    3D
 Schrodinger Suite 2020-3.
 50 55  0  0  1  0            999 V2000
   64.3540   50.7710   10.8120 C   0  0  0  0  0  0
   62.9870   50.9820   11.2720 O   0  0  0  0  0  0
   62.7420   52.3590   11.6420 C   0  0  0  0  0  0
   63.7990   52.8740   12.6120 C   0  0  0  0  0  0
   65.0750   52.6430   12.1150 C   0  0  0  0  0  0
   65.3990   51.6060   11.2300 C   0  0  0  0  0  0
   66.7290   51.4210   10.7950 C   0  0  0  0  0  0
   67.1290   50.4110    9.9070 C   0  0  0  0  0  0
   67.6740   52.2640   11.2430 N   0  0  0  0  0  0
   68.9610   52.1610   10.8820 C   0  0  0  0  0  0
   69.8520   53.0410   11.3620 F   0  0  0  0  0  0
   69.4020   51.1820   10.0210 C   0  0  0  0  0  0
   70.7380   51.1510    9.7370 O   0  0  0  0  0  0
   68.4690   50.2820    9.5180 C   0  0  0  0  0  0
   68.8900   49.1960    8.5240 C   0  0  1  0  0  0
   68.5090   47.8080    8.9580 C   0  0  0  0  0  0
   67.4720   47.3620    8.0120 O   0  0  0  0  0  0
   67.2670   48.3400    7.0880 C   0  0  0  0  0  0
   68.0360   49.4040    7.2970 N   0  3  0  0  0  0
   66.3520   48.2230    6.1120 N   0  0  0  0  0  0
   70.3830   49.3110    8.1750 C   0  0  0  0  0  0
   70.9330   48.4570    7.2150 C   0  0  0  0  0  0
   71.2060   50.2570    8.8130 C   0  0  0  0  0  0
   72.5490   50.3310    8.4680 C   0  0  0  0  0  0
   73.0950   49.4670    7.5130 C   0  0  0  0  0  0
   72.2960   48.5180    6.8860 C   0  0  0  0  0  0
   72.8180   47.6420    5.9230 C   0  0  0  0  0  0
   73.8430   46.7590    6.2480 C   0  0  0  0  0  0
   74.3110   45.8870    5.2610 C   0  0  0  0  0  0
   73.7670   45.9140    3.9760 C   0  0  0  0  0  0
   72.7910   46.7540    3.6850 N   0  0  0  0  0  0
   72.3150   47.6050    4.6080 C   0  0  0  0  0  0
   71.3420   48.4400    4.2270 F   0  0  0  0  0  0
   64.5578   49.9374   10.1238 H   0  0  0  0  0  0
   62.7601   52.9896   10.7409 H   0  0  0  0  0  0
   61.7574   52.4391   12.1258 H   0  0  0  0  0  0
   63.6693   53.3694   13.5855 H   0  0  0  0  0  0
   65.9082   53.2960   12.4139 H   0  0  0  0  0  0
   66.3865   49.7165    9.5140 H   0  0  0  0  0  0
   69.3935   47.1553    8.9172 H   0  0  0  0  0  0
   68.1231   47.8387    9.9876 H   0  0  0  0  0  0
   67.9824   50.2642    6.6135 H   0  0  0  0  0  0
   65.7618   47.2994    6.0193 H   0  0  0  0  0  0
   70.2926   47.7314    6.7134 H   0  0  0  0  0  0
   73.1869   51.0730    8.9482 H   0  0  0  0  0  0
   74.1526   49.5383    7.2592 H   0  0  0  0  0  0
   74.2715   46.7475    7.2502 H   0  0  0  0  0  0
   75.1069   45.1805    5.4967 H   0  0  0  0  0  0
   74.1493   45.2392    3.2101 H   0  0  0  0  0  0
   66.1928   49.0508    5.4053 H   0  0  0  0  0  0
  1  2  1  0  0  0
  1  6  2  0  0  0
  1 34  1  0  0  0
  2  3  1  0  0  0
  3  4  1  0  0  0
  3 35  1  0  0  0
  3 36  1  0  0  0
  4  5  2  0  0  0
  4 37  1  0  0  0
  5  6  1  0  0  0
  5 38  1  0  0  0
  6  7  1  0  0  0
  7  8  2  0  0  0
  7  9  1  0  0  0
  8 14  1  0  0  0
  8 39  1  0  0  0
  9 10  2  0  0  0
 10 11  1  0  0  0
 10 12  1  0  0  0
 12 13  1  0  0  0
 12 14  2  0  0  0
 13 23  1  0  0  0
 14 15  1  0  0  0
 15 16  1  0  0  0
 15 19  1  0  0  0
 15 21  1  0  0  0
 16 17  1  0  0  0
 16 40  1  0  0  0
 16 41  1  0  0  0
 17 18  1  0  0  0
 18 19  2  0  0  0
 18 20  1  0  0  0
 19 42  1  0  0  0
 20 43  1  0  0  0
 20 50  1  0  0  0
 21 22  2  0  0  0
 21 23  1  0  0  0
 22 26  1  0  0  0
 22 44  1  0  0  0
 23 24  2  0  0  0
 24 25  1  0  0  0
 24 45  1  0  0  0
 25 26  2  0  0  0
 25 46  1  0  0  0
 26 27  1  0  0  0
 27 28  2  0  0  0
 27 32  1  0  0  0
 28 29  1  0  0  0
 28 47  1  0  0  0
 29 30  2  0  0  0
 29 48  1  0  0  0
 30 31  1  0  0  0
 30 49  1  0  0  0
 31 32  2  0  0  0
 32 33  1  0  0  0
M  CHG  1  19   1
M  END
> <s_m_source_file>
../4wtu_ligand.sdf

> <i_m_source_file_index>
1

> <s_epik_input>
W0NIXTE9W0NIXVtDSDJdT1tDSF09QzFjKFtjSF0yKW5jKEYpYyhjMltDQEBdMzRbQ0gyXU8vQyhbTkhdMyk9TlxbSF0pT2M1YzRbY0hdYyhbY0hdW2NIXTUpLWM2W2NIXVtjSF1bY0hdbmM2Rg==

> <s_epik_cmdline>
J2VwaWtfYXBwJywgJy1pbWFlJywgJ2xpZ2FuZF9wcm8ubWFlJywgJy1vbWFlJywgJ2xpZ2FuZF9wcmVwLm1hZScsICctbXMnLCAnMScsICctcGgnLCAnNycsICctcGh0JywgJzAuNScsICctbnQn

> <r_lp_tautomer_probability>
1

> <r_epik_Ionization_Penalty>
  0.0953

> <r_epik_Ionization_Penalty_Charging>
  0.0363

> <r_epik_Ionization_Penalty_Neutral>
  0.0590

> <r_epik_State_Penalty>
 -0.0000

> <r_epik_Charging_Adjusted_Penalty>
0.0362699889763903

> <i_epik_Tot_Q>
1

> <i_epik_Tot_abs_Q>
1

> <s_epik_Chemistry_Notes>
This compound has an imine and may undergo hydrolysis.

$$$$
