4wuy_ligand
                    3D
 Schrodinger Suite 2020-3.
 86 91  0  0  1  0            999 V2000
  -19.7840  -23.3530   28.6170 C   0  0  0  0  0  0
  -17.4660  -31.5720   35.5290 C   0  0  0  0  0  0
  -17.1050  -26.4070   24.2690 C   0  0  0  0  0  0
  -19.1320  -23.6060   30.9220 C   0  0  0  0  0  0
  -15.4040  -30.9260   34.4080 C   0  0  0  0  0  0
  -19.7350  -22.8480   29.9180 C   0  0  0  0  0  0
  -16.1150  -31.1950   35.5770 C   0  0  0  0  0  0
  -16.0150  -31.0200   33.1530 C   0  0  0  0  0  0
  -18.5860  -24.8570   30.6180 C   0  0  0  0  0  0
  -18.1810  -25.5160   26.2750 C   0  0  0  0  0  0
  -19.4890  -25.8270   24.2580 C   0  0  0  0  0  0
  -20.5230  -24.9440   26.2620 C   0  0  0  0  0  0
  -19.4530  -31.9440   32.4800 C   0  0  0  0  0  0
  -18.2700  -25.9140   24.9400 C   0  0  0  0  0  0
  -18.1040  -31.6740   34.2750 C   0  0  0  0  0  0
  -19.2350  -24.6030   28.3170 C   0  0  0  0  0  0
  -19.3130  -25.0410   26.9410 C   0  0  0  0  0  0
  -20.6140  -25.3340   24.9280 C   0  0  0  0  0  0
  -19.4220  -32.0180   33.8540 C   0  0  0  0  0  0
  -17.3630  -31.3980   33.1220 C   0  0  0  0  0  0
  -18.6210  -25.3560   29.3170 C   0  0  0  0  0  0
  -21.9050  -25.2260   24.2730 C   0  0  0  0  0  0
  -27.0600  -28.5490   27.4160 C   0  0  0  0  0  0
  -27.4480  -27.1180   27.7790 C   0  0  0  0  0  0
  -26.0050  -28.4170   26.3200 C   0  0  0  0  0  0
  -26.3080  -26.2950   27.2010 C   0  0  0  0  0  0
  -19.0440  -27.5900   28.4920 C   0  0  0  0  0  0
  -17.2050  -27.1990   30.0730 C   0  0  0  0  0  0
  -18.3510  -28.8600   27.9990 C   0  0  0  0  0  0
  -16.5740  -28.5190   29.6130 C   0  0  0  0  0  0
  -20.5590  -32.3890   34.7230 C   0  0  0  0  0  0
  -24.7140  -27.0940   23.8260 C   0  0  0  0  0  0
  -17.8430  -31.3760   30.6480 C   0  0  0  0  0  0
  -24.8550  -26.5350   25.2490 C   0  0  0  0  0  0
  -18.3930  -30.0610   30.0980 C   0  0  0  0  0  0
  -23.6570  -26.4040   22.9530 C   0  0  0  0  0  0
  -16.1600  -26.8040   23.7250 N   0  0  0  0  0  0
  -18.2060  -31.5710   32.0490 N   0  0  0  0  0  0
  -18.0880  -26.6230   29.0490 N   0  0  0  0  0  0
  -26.0720  -27.0010   25.9380 N   0  3  0  0  0  0
  -17.5450  -29.4770   29.0600 N   0  0  0  0  0  0
  -22.3750  -26.3620   23.6190 N   0  0  0  0  0  0
  -22.5560  -24.1600   24.3110 O   0  0  0  0  0  0
  -20.2549  -22.7668   27.8278 H   0  0  0  0  0  0
  -18.0142  -31.7829   36.4472 H   0  0  0  0  0  0
  -19.0865  -23.2238   31.9418 H   0  0  0  0  0  0
  -14.3548  -30.6377   34.4731 H   0  0  0  0  0  0
  -20.1633  -21.8721   30.1466 H   0  0  0  0  0  0
  -15.6145  -31.1113   36.5416 H   0  0  0  0  0  0
  -15.4642  -30.8077   32.2367 H   0  0  0  0  0  0
  -18.1269  -25.4499   31.4091 H   0  0  0  0  0  0
  -17.2268  -25.5760   26.7984 H   0  0  0  0  0  0
  -19.5612  -26.1399   23.2164 H   0  0  0  0  0  0
  -21.4043  -24.5609   26.7764 H   0  0  0  0  0  0
  -20.3165  -32.1462   31.8463 H   0  0  0  0  0  0
  -26.6562  -29.0561   28.3047 H   0  0  0  0  0  0
  -27.9480  -29.0899   27.0571 H   0  0  0  0  0  0
  -28.4185  -26.8741   27.3221 H   0  0  0  0  0  0
  -27.5237  -27.0248   28.8724 H   0  0  0  0  0  0
  -25.0198  -28.6927   26.7243 H   0  0  0  0  0  0
  -26.2587  -29.0859   25.4844 H   0  0  0  0  0  0
  -26.6377  -25.2539   27.0689 H   0  0  0  0  0  0
  -25.4499  -26.3234   27.8886 H   0  0  0  0  0  0
  -19.5694  -27.1098   27.6533 H   0  0  0  0  0  0
  -19.7683  -27.8491   29.2782 H   0  0  0  0  0  0
  -17.8012  -27.3743   30.9807 H   0  0  0  0  0  0
  -16.4111  -26.4694   30.2910 H   0  0  0  0  0  0
  -19.1083  -29.5864   27.6689 H   0  0  0  0  0  0
  -17.6884  -28.6127   27.1565 H   0  0  0  0  0  0
  -15.8305  -28.3161   28.8282 H   0  0  0  0  0  0
  -16.0818  -29.0073   30.4670 H   0  0  0  0  0  0
  -21.4421  -32.5990   34.1017 H   0  0  0  0  0  0
  -20.7824  -31.5586   35.4090 H   0  0  0  0  0  0
  -20.2985  -33.2854   35.3049 H   0  0  0  0  0  0
  -24.4333  -28.1564   23.8756 H   0  0  0  0  0  0
  -25.6722  -26.9924   23.2955 H   0  0  0  0  0  0
  -18.2498  -32.2158   30.0655 H   0  0  0  0  0  0
  -16.7456  -31.3747   30.5722 H   0  0  0  0  0  0
  -23.9907  -26.8480   25.8532 H   0  0  0  0  0  0
  -24.8959  -25.4365   25.2091 H   0  0  0  0  0  0
  -19.3868  -30.2341   29.6594 H   0  0  0  0  0  0
  -18.4751  -29.3280   30.9140 H   0  0  0  0  0  0
  -23.5437  -26.9567   22.0087 H   0  0  0  0  0  0
  -23.9748  -25.3730   22.7385 H   0  0  0  0  0  0
  -26.8729  -26.8145   25.2074 H   0  0  0  0  0  0
  -21.7276  -27.2513   23.6224 H   0  0  0  0  0  0
  1  6  2  0  0  0
  1 16  1  0  0  0
  1 44  1  0  0  0
  2  7  1  0  0  0
  2 15  2  0  0  0
  2 45  1  0  0  0
  3 14  1  0  0  0
  3 37  3  0  0  0
  4  6  1  0  0  0
  4  9  2  0  0  0
  4 46  1  0  0  0
  5  7  2  0  0  0
  5  8  1  0  0  0
  5 47  1  0  0  0
  6 48  1  0  0  0
  7 49  1  0  0  0
  8 20  2  0  0  0
  8 50  1  0  0  0
  9 21  1  0  0  0
  9 51  1  0  0  0
 10 14  2  0  0  0
 10 17  1  0  0  0
 10 52  1  0  0  0
 11 14  1  0  0  0
 11 18  2  0  0  0
 11 53  1  0  0  0
 12 17  2  0  0  0
 12 18  1  0  0  0
 12 54  1  0  0  0
 13 19  2  0  0  0
 13 38  1  0  0  0
 13 55  1  0  0  0
 15 19  1  0  0  0
 15 20  1  0  0  0
 16 17  1  0  0  0
 16 21  2  0  0  0
 18 22  1  0  0  0
 19 31  1  0  0  0
 20 38  1  0  0  0
 21 39  1  0  0  0
 22 42  1  0  0  0
 22 43  2  0  0  0
 23 24  1  0  0  0
 23 25  1  0  0  0
 23 56  1  0  0  0
 23 57  1  0  0  0
 24 26  1  0  0  0
 24 58  1  0  0  0
 24 59  1  0  0  0
 25 40  1  0  0  0
 25 60  1  0  0  0
 25 61  1  0  0  0
 26 40  1  0  0  0
 26 62  1  0  0  0
 26 63  1  0  0  0
 27 29  1  0  0  0
 27 39  1  0  0  0
 27 64  1  0  0  0
 27 65  1  0  0  0
 28 30  1  0  0  0
 28 39  1  0  0  0
 28 66  1  0  0  0
 28 67  1  0  0  0
 29 41  1  0  0  0
 29 68  1  0  0  0
 29 69  1  0  0  0
 30 41  1  0  0  0
 30 70  1  0  0  0
 30 71  1  0  0  0
 31 72  1  0  0  0
 31 73  1  0  0  0
 31 74  1  0  0  0
 32 34  1  0  0  0
 32 36  1  0  0  0
 32 75  1  0  0  0
 32 76  1  0  0  0
 33 35  1  0  0  0
 33 38  1  0  0  0
 33 77  1  0  0  0
 33 78  1  0  0  0
 34 40  1  0  0  0
 34 79  1  0  0  0
 34 80  1  0  0  0
 35 41  1  0  0  0
 35 81  1  0  0  0
 35 82  1  0  0  0
 36 42  1  0  0  0
 36 83  1  0  0  0
 36 84  1  0  0  0
 40 85  1  0  0  0
 42 86  1  0  0  0
M  CHG  1  40   1
M  END
> <s_m_source_file>
../4wuy_ligand.sdf

> <i_m_source_file_index>
1

> <s_epik_input>
W0NIMl0xW0NIMl1bQ0gyXVtDSDJdW05IK10xW0NIMl1bQ0gyXVtDSDJdW05IXUMoPU8pYyhbY0hdMilbY0hdYyhbY0hdYzJDI04pLWMzW2NIXVtjSF1bY0hdW2NIXWMzTjRbQ0gyXVtDSDJdW05IK10oW0NIMl1bQ0gyXTQpW0NIMl1bQ0gyXW4oW2NIXWM1W0NIM10pYyhjNTYpW2NIXVtjSF1bY0hdW2NIXTY=

> <s_epik_cmdline>
J2VwaWtfYXBwJywgJy1pbWFlJywgJ2xpZ2FuZF9wcm8ubWFlJywgJy1vbWFlJywgJ2xpZ2FuZF9wcmVwLm1hZScsICctbXMnLCAnMScsICctcGgnLCAnNycsICctcGh0JywgJzAuNScsICctbnQn

> <r_epik_Ionization_Penalty>
  0.0705

> <r_epik_Ionization_Penalty_Charging>
  0.0007

> <r_epik_Ionization_Penalty_Neutral>
  0.0698

> <r_epik_State_Penalty>
  0.0607

> <r_epik_Charging_Adjusted_Penalty>
0.0614335061398287

> <i_epik_Tot_Q>
1

> <i_epik_Tot_abs_Q>
1

$$$$
