4wv6_ligand
                    3D
 Schrodinger Suite 2020-3.
179180  0  0  1  0            999 V2000
  -16.2940   -8.4960   13.8490 N   0  3  0  0  0  0
  -16.3950   -9.6240   12.9170 C   0  0  2  0  0  0
  -17.6620  -10.4420   13.1420 C   0  0  0  0  0  0
  -18.3030  -10.3000   14.1780 O   0  0  0  0  0  0
  -15.1500  -10.4450   13.2330 C   0  0  0  0  0  0
  -14.9510  -10.2200   14.7060 C   0  0  0  0  0  0
  -15.4330   -8.8130   15.0010 C   0  0  0  0  0  0
  -18.0100  -11.2840   12.1770 N   0  0  0  0  0  0
  -19.2680  -12.0200   12.2050 C   0  0  2  0  0  0
  -19.2250  -13.1220   13.2610 C   0  0  0  0  0  0
  -20.1440  -13.2590   14.0680 O   0  0  0  0  0  0
  -19.5820  -12.6270   10.8260 C   0  0  0  0  0  0
  -20.8580  -13.4450   10.8630 C   0  0  0  0  0  0
  -19.6830  -11.5140    9.7790 C   0  0  0  0  0  0
  -18.1590  -13.9160   13.2330 N   0  0  0  0  0  0
  -17.9220  -14.9350   14.2400 C   0  0  2  0  0  0
  -16.5350  -14.7410   14.8050 C   0  0  0  0  0  0
  -15.6590  -14.1920   14.1370 O   0  0  0  0  0  0
  -18.0410  -16.3480   13.6700 C   0  0  0  0  0  0
  -19.4140  -16.7130   13.1560 C   0  0  0  0  0  0
  -19.3850  -18.1390   12.6090 C   0  0  0  0  0  0
  -20.7530  -18.6120   12.1950 C   0  0  0  0  0  0
  -20.6650  -19.8210   11.3210 N   0  3  0  0  0  0
  -16.3400  -15.2140   16.0250 N   0  0  0  0  0  0
  -15.1330  -14.9150   16.7610 C   0  0  2  0  0  0
  -14.8630  -16.0330   17.7640 C   0  0  0  0  0  0
  -15.7220  -16.3290   18.5820 O   0  0  0  0  0  0
  -15.3150  -13.5540   17.4550 C   0  0  0  0  0  0
  -14.3000  -13.1680   18.4900 C   0  0  0  0  0  0
  -14.5810  -11.7570   19.0060 C   0  0  0  0  0  0
  -16.0040  -11.6170   19.5350 C   0  0  0  0  0  0
  -16.1360  -10.5270   20.5380 N   0  3  0  0  0  0
  -13.6800  -16.6620   17.6970 N   0  0  0  0  0  0
  -13.3550  -17.6260   18.7490 C   0  0  2  0  0  0
  -12.7800  -16.9150   19.9630 C   0  0  0  0  0  0
  -12.1860  -15.8390   19.8290 O   0  0  0  0  0  0
  -12.3050  -18.5140   18.1000 C   0  0  0  0  0  0
  -11.5560  -17.5750   17.1990 C   0  0  0  0  0  0
  -12.6270  -16.6040   16.6700 C   0  0  0  0  0  0
  -12.9400  -17.5250   21.1310 N   0  0  0  0  0  0
  -12.2840  -17.0540   22.3400 C   0  0  2  0  0  0
  -10.9420  -17.7550   22.4720 C   0  0  0  0  0  0
  -10.8780  -18.9830   22.5490 O   0  0  0  0  0  0
  -13.1640  -17.3290   23.5620 C   0  0  0  0  0  0
  -12.5630  -16.8870   24.8740 C   0  0  0  0  0  0
  -13.4850  -17.1470   26.0400 C   0  0  0  0  0  0
  -12.7970  -16.8030   27.3320 C   0  0  0  0  0  0
  -13.7540  -16.6160   28.4480 N   0  3  0  0  0  0
   -9.8670  -16.9730   22.4660 N   0  0  0  0  0  0
   -8.5170  -17.5070   22.5820 C   0  0  2  0  0  0
   -7.8100  -16.7920   23.7230 C   0  0  0  0  0  0
   -8.1810  -15.6730   24.0760 O   0  0  0  0  0  0
   -7.7430  -17.3320   21.2560 C   0  0  2  0  0  0
   -7.7010  -15.8540   20.8550 C   0  0  0  0  0  0
   -8.4170  -18.1430   20.1460 C   0  0  0  0  0  0
   -6.8010  -15.5610   19.6800 C   0  0  0  0  0  0
   -6.8020  -17.4310   24.3110 N   0  0  0  0  0  0
   -5.9600  -16.7490   25.2840 C   0  0  2  0  0  0
   -5.1520  -15.6740   24.5420 C   0  0  0  0  0  0
   -5.1690  -15.6180   23.3130 O   0  0  0  0  0  0
   -5.0320  -17.7360   26.0170 C   0  0  0  0  0  0
   -5.6670  -18.4560   27.2240 C   0  0  0  0  0  0
   -4.6210  -19.2870   27.9820 C   0  0  0  0  0  0
   -5.1220  -19.9240   29.2080 N   0  0  0  0  0  0
   -4.3700  -20.6530   30.0330 C   0  0  0  0  0  0
   -4.8950  -21.2050   31.1310 N   0  0  0  0  0  0
   -3.0820  -20.8350   29.7670 N   0  0  0  0  0  0
   -4.4500  -14.8260   25.2850 N   0  0  0  0  0  0
   -3.6370  -13.7760   24.6800 C   0  0  2  0  0  0
   -2.5260  -14.3440   23.8020 C   0  0  0  0  0  0
   -1.7600  -15.2070   24.2350 O   0  0  0  0  0  0
   -3.0360  -12.8950   25.7670 C   0  0  0  0  0  0
   -2.1610  -11.7750   25.2290 C   0  0  0  0  0  0
   -1.9890  -10.6620   26.2400 C   0  0  0  0  0  0
   -3.2840  -10.1490   26.6800 N   0  0  0  0  0  0
   -3.5680   -8.8700   26.8940 C   0  0  0  0  0  0
   -4.7870   -8.5370   27.2900 N   0  0  0  0  0  0
   -2.6520   -7.9250   26.7130 N   0  0  0  0  0  0
   -2.3750  -13.9500   22.6440 O   0  0  0  0  0  0
  -15.8667   -7.6268   13.3276 H   0  0  0  0  0  0
  -17.2954   -8.2413   14.2264 H   0  0  0  0  0  0
  -16.4507   -9.2639   11.8791 H   0  0  0  0  0  0
  -15.3365  -11.5017   12.9909 H   0  0  0  0  0  0
  -14.3050  -10.0752   12.6337 H   0  0  0  0  0  0
  -15.5351  -10.9605   15.2722 H   0  0  0  0  0  0
  -13.8845  -10.3280   14.9526 H   0  0  0  0  0  0
  -14.6063   -8.0891   15.0510 H   0  0  0  0  0  0
  -16.0245   -8.7586   15.9268 H   0  0  0  0  0  0
  -17.3131  -11.4177   11.3365 H   0  0  0  0  0  0
  -20.0274  -11.2714   12.4751 H   0  0  0  0  0  0
  -18.7712  -13.3150   10.5445 H   0  0  0  0  0  0
  -20.7638  -14.2372   11.6203 H   0  0  0  0  0  0
  -21.0308  -13.8996    9.8764 H   0  0  0  0  0  0
  -21.7051  -12.7916   11.1192 H   0  0  0  0  0  0
  -18.7483  -10.9341    9.7691 H   0  0  0  0  0  0
  -20.5237  -10.8503   10.0294 H   0  0  0  0  0  0
  -19.8495  -11.9582    8.7866 H   0  0  0  0  0  0
  -17.4430  -13.7799   12.4091 H   0  0  0  0  0  0
  -18.6996  -14.7842   15.0033 H   0  0  0  0  0  0
  -17.3465  -16.4620   12.8246 H   0  0  0  0  0  0
  -17.7910  -17.0808   14.4513 H   0  0  0  0  0  0
  -20.1423  -16.6484   13.9778 H   0  0  0  0  0  0
  -19.7026  -16.0168   12.3547 H   0  0  0  0  0  0
  -18.7262  -18.1808   11.7291 H   0  0  0  0  0  0
  -19.0056  -18.8213   13.3839 H   0  0  0  0  0  0
  -21.3389  -18.8679   13.0901 H   0  0  0  0  0  0
  -21.2643  -17.8129   11.6382 H   0  0  0  0  0  0
  -21.6778  -20.1418   11.0359 H   0  0  0  0  0  0
  -20.1635  -20.6331   11.8679 H   0  0  0  0  0  0
  -20.0889  -19.5780   10.4160 H   0  0  0  0  0  0
  -17.1181  -15.8459   16.4780 H   0  0  0  0  0  0
  -14.2991  -14.8733   16.0448 H   0  0  0  0  0  0
  -15.2853  -12.7520   16.7028 H   0  0  0  0  0  0
  -16.2845  -13.5339   17.9743 H   0  0  0  0  0  0
  -14.3475  -13.8748   19.3316 H   0  0  0  0  0  0
  -13.2943  -13.1946   18.0452 H   0  0  0  0  0  0
  -13.8849  -11.5204   19.8242 H   0  0  0  0  0  0
  -14.4451  -11.0337   18.1884 H   0  0  0  0  0  0
  -16.6849  -11.3927   18.7007 H   0  0  0  0  0  0
  -16.3107  -12.5576   20.0159 H   0  0  0  0  0  0
  -17.1787  -10.4714   20.8840 H   0  0  0  0  0  0
  -15.8506   -9.5693   20.0783 H   0  0  0  0  0  0
  -15.4763  -10.7341   21.3935 H   0  0  0  0  0  0
  -14.2511  -18.1685   19.0847 H   0  0  0  0  0  0
  -11.6608  -18.9489   18.8783 H   0  0  0  0  0  0
  -12.8017  -19.3213   17.5418 H   0  0  0  0  0  0
  -10.7804  -17.0520   17.7778 H   0  0  0  0  0  0
  -11.0842  -18.1456   16.3855 H   0  0  0  0  0  0
  -13.0407  -16.9236   15.7022 H   0  0  0  0  0  0
  -12.2529  -15.5730   16.5862 H   0  0  0  0  0  0
  -13.5910  -18.4109   21.1679 H   0  0  0  0  0  0
  -12.1385  -15.9691   22.2313 H   0  0  0  0  0  0
  -14.1208  -16.7977   23.4518 H   0  0  0  0  0  0
  -13.3520  -18.4098   23.6427 H   0  0  0  0  0  0
  -11.6257  -17.4349   25.0510 H   0  0  0  0  0  0
  -12.3553  -15.8074   24.8370 H   0  0  0  0  0  0
  -14.3890  -16.5288   25.9375 H   0  0  0  0  0  0
  -13.7675  -18.2100   26.0542 H   0  0  0  0  0  0
  -12.1075  -17.6146   27.6076 H   0  0  0  0  0  0
  -12.2315  -15.8676   27.2086 H   0  0  0  0  0  0
  -13.2021  -16.3670   29.3664 H   0  0  0  0  0  0
  -14.3231  -17.5446   28.6025 H   0  0  0  0  0  0
  -14.4471  -15.7976   28.2034 H   0  0  0  0  0  0
  -10.0230  -15.8884   22.3692 H   0  0  0  0  0  0
   -8.6156  -18.5789   22.8086 H   0  0  0  0  0  0
   -6.7126  -17.6926   21.3916 H   0  0  0  0  0  0
   -8.7123  -15.5199   20.5799 H   0  0  0  0  0  0
   -7.3344  -15.2547   21.7014 H   0  0  0  0  0  0
   -8.4471  -19.2042   20.4339 H   0  0  0  0  0  0
   -7.8456  -18.0324   19.2126 H   0  0  0  0  0  0
   -9.4424  -17.7750   19.9941 H   0  0  0  0  0  0
   -6.8272  -14.4840   19.4577 H   0  0  0  0  0  0
   -7.1488  -16.1253   18.8021 H   0  0  0  0  0  0
   -5.7709  -15.8601   19.9236 H   0  0  0  0  0  0
   -6.6070  -18.4833   24.0567 H   0  0  0  0  0  0
   -6.6360  -16.2999   26.0265 H   0  0  0  0  0  0
   -4.7063  -18.5208   25.3184 H   0  0  0  0  0  0
   -4.1524  -17.1973   26.3993 H   0  0  0  0  0  0
   -6.0925  -17.7114   27.9128 H   0  0  0  0  0  0
   -6.4639  -19.1278   26.8725 H   0  0  0  0  0  0
   -4.2508  -20.0926   27.3309 H   0  0  0  0  0  0
   -3.7822  -18.6396   28.2773 H   0  0  0  0  0  0
   -6.1786  -19.8130   29.4932 H   0  0  0  0  0  0
   -5.9607  -21.0618   31.3628 H   0  0  0  0  0  0
   -4.2614  -21.8025   31.8030 H   0  0  0  0  0  0
   -2.6376  -20.3860   28.8665 H   0  0  0  0  0  0
   -4.4909  -14.9281   26.3795 H   0  0  0  0  0  0
   -4.3338  -13.2047   24.0491 H   0  0  0  0  0  0
   -0.9632  -15.6081   23.5914 H   0  0  0  0  0  0
   -3.8442  -12.4288   26.3497 H   0  0  0  0  0  0
   -2.4111  -13.5086   26.4325 H   0  0  0  0  0  0
   -1.1661  -12.1737   24.9814 H   0  0  0  0  0  0
   -2.6220  -11.3519   24.3243 H   0  0  0  0  0  0
   -1.4448  -11.0437   27.1164 H   0  0  0  0  0  0
   -1.4196   -9.8381   25.7850 H   0  0  0  0  0  0
   -4.1181  -10.8431   26.8602 H   0  0  0  0  0  0
   -5.5484   -9.3164   27.4410 H   0  0  0  0  0  0
   -1.6383   -8.1974   26.3841 H   0  0  0  0  0  0
   -2.9073   -6.8701   26.8920 H   0  0  0  0  0  0
  1  2  1  0  0  0
  1  7  1  0  0  0
  1 80  1  0  0  0
  1 81  1  0  0  0
  2  3  1  0  0  0
  2  5  1  0  0  0
  2 82  1  0  0  0
  3  4  2  0  0  0
  3  8  1  0  0  0
  5  6  1  0  0  0
  5 83  1  0  0  0
  5 84  1  0  0  0
  6  7  1  0  0  0
  6 85  1  0  0  0
  6 86  1  0  0  0
  7 87  1  0  0  0
  7 88  1  0  0  0
  8  9  1  0  0  0
  8 89  1  0  0  0
  9 10  1  0  0  0
  9 12  1  0  0  0
  9 90  1  0  0  0
 10 11  2  0  0  0
 10 15  1  0  0  0
 12 13  1  0  0  0
 12 14  1  0  0  0
 12 91  1  0  0  0
 13 92  1  0  0  0
 13 93  1  0  0  0
 13 94  1  0  0  0
 14 95  1  0  0  0
 14 96  1  0  0  0
 14 97  1  0  0  0
 15 16  1  0  0  0
 15 98  1  0  0  0
 16 17  1  0  0  0
 16 19  1  0  0  0
 16 99  1  0  0  0
 17 18  2  0  0  0
 17 24  1  0  0  0
 19 20  1  0  0  0
 19100  1  0  0  0
 19101  1  0  0  0
 20 21  1  0  0  0
 20102  1  0  0  0
 20103  1  0  0  0
 21 22  1  0  0  0
 21104  1  0  0  0
 21105  1  0  0  0
 22 23  1  0  0  0
 22106  1  0  0  0
 22107  1  0  0  0
 23108  1  0  0  0
 23109  1  0  0  0
 23110  1  0  0  0
 24 25  1  0  0  0
 24111  1  0  0  0
 25 26  1  0  0  0
 25 28  1  0  0  0
 25112  1  0  0  0
 26 27  2  0  0  0
 26 33  1  0  0  0
 28 29  1  0  0  0
 28113  1  0  0  0
 28114  1  0  0  0
 29 30  1  0  0  0
 29115  1  0  0  0
 29116  1  0  0  0
 30 31  1  0  0  0
 30117  1  0  0  0
 30118  1  0  0  0
 31 32  1  0  0  0
 31119  1  0  0  0
 31120  1  0  0  0
 32121  1  0  0  0
 32122  1  0  0  0
 32123  1  0  0  0
 33 34  1  0  0  0
 33 39  1  0  0  0
 34 35  1  0  0  0
 34 37  1  0  0  0
 34124  1  0  0  0
 35 36  2  0  0  0
 35 40  1  0  0  0
 37 38  1  0  0  0
 37125  1  0  0  0
 37126  1  0  0  0
 38 39  1  0  0  0
 38127  1  0  0  0
 38128  1  0  0  0
 39129  1  0  0  0
 39130  1  0  0  0
 40 41  1  0  0  0
 40131  1  0  0  0
 41 42  1  0  0  0
 41 44  1  0  0  0
 41132  1  0  0  0
 42 43  2  0  0  0
 42 49  1  0  0  0
 44 45  1  0  0  0
 44133  1  0  0  0
 44134  1  0  0  0
 45 46  1  0  0  0
 45135  1  0  0  0
 45136  1  0  0  0
 46 47  1  0  0  0
 46137  1  0  0  0
 46138  1  0  0  0
 47 48  1  0  0  0
 47139  1  0  0  0
 47140  1  0  0  0
 48141  1  0  0  0
 48142  1  0  0  0
 48143  1  0  0  0
 49 50  1  0  0  0
 49144  1  0  0  0
 50 51  1  0  0  0
 50 53  1  0  0  0
 50145  1  0  0  0
 51 52  2  0  0  0
 51 57  1  0  0  0
 53 54  1  0  0  0
 53 55  1  0  0  0
 53146  1  0  0  0
 54 56  1  0  0  0
 54147  1  0  0  0
 54148  1  0  0  0
 55149  1  0  0  0
 55150  1  0  0  0
 55151  1  0  0  0
 56152  1  0  0  0
 56153  1  0  0  0
 56154  1  0  0  0
 57 58  1  0  0  0
 57155  1  0  0  0
 58 59  1  0  0  0
 58 61  1  0  0  0
 58156  1  0  0  0
 59 60  2  0  0  0
 59 68  1  0  0  0
 61 62  1  0  0  0
 61157  1  0  0  0
 61158  1  0  0  0
 62 63  1  0  0  0
 62159  1  0  0  0
 62160  1  0  0  0
 63 64  1  0  0  0
 63161  1  0  0  0
 63162  1  0  0  0
 64 65  1  0  0  0
 64163  1  0  0  0
 65 66  1  0  0  0
 65 67  2  0  0  0
 66164  1  0  0  0
 66165  1  0  0  0
 67166  1  0  0  0
 68 69  1  0  0  0
 68167  1  0  0  0
 69 70  1  0  0  0
 69 72  1  0  0  0
 69168  1  0  0  0
 70 71  1  0  0  0
 70 79  2  0  0  0
 71169  1  0  0  0
 72 73  1  0  0  0
 72170  1  0  0  0
 72171  1  0  0  0
 73 74  1  0  0  0
 73172  1  0  0  0
 73173  1  0  0  0
 74 75  1  0  0  0
 74174  1  0  0  0
 74175  1  0  0  0
 75 76  1  0  0  0
 75176  1  0  0  0
 76 77  2  0  0  0
 76 78  1  0  0  0
 77177  1  0  0  0
 78178  1  0  0  0
 78179  1  0  0  0
M  CHG  4   1   1  23   1  32   1  48   1
M  END
> <s_m_source_file>
../4wv6_ligand.sdf

> <i_m_source_file_index>
1

> <s_epik_input>
W0NIMl0xW0NIMl1bQ0gyXVtOSDIrXVtDQEBIXTFDKD1PKVtOSF1bQ0BASF0oW0NIXShbQ0gzXSlbQ0gzXSlDKD1PKVtOSF1bQ0BASF0oW0NIMl1bQ0gyXVtDSDJdW0NIMl1bTkgzK10pQyg9TylbTkhdW0NAQEhdKFtDSDJdW0NIMl1bQ0gyXVtDSDJdW05IMytdKUMoPU8pTjJbQ0BASF0oW0NIMl1bQ0gyXVtDSDJdMilDKD1PKVtOSF1bQ0BASF0oW0NIMl1bQ0gyXVtDSDJdW0NIMl1bTkgzK10pQyg9TylbTkhdW0NAQEhdKFtDQEBIXShbQ0gzXSlbQ0gyXVtDSDNdKUMoPU8pW05IXVtDQEBIXShbQ0gyXVtDSDJdW0NIMl1bTkhdL0MoW05IMl0pPU5cW0hdKUMoPU8pW05IXVtDQEhdKEMoPU8pW09IXSlbQ0gyXVtDSDJdW0NIMl1bTkhdL0MoPU5cW0hdKVtOSDJd

> <s_epik_cmdline>
J2VwaWtfYXBwJywgJy1pbWFlJywgJ2xpZ2FuZF9wcm8ubWFlJywgJy1vbWFlJywgJ2xpZ2FuZF9wcmVwLm1hZScsICctbXMnLCAnMScsICctcGgnLCAnNycsICctcGh0JywgJzAuNScsICctbnQn

> <s_epik_pKa_notes>
Molecule size exceeds maximum supported for generating protonation states

> <s_epik_Chemistry_Notes>
This compound has an imine and may undergo hydrolysis.

$$$$
