4wvl_ligand
                    3D
 Schrodinger Suite 2020-3.
 99102  0  0  1  0            999 V2000
   62.4150   15.4750  -12.2810 C   0  0  0  0  0  0
   62.5050   16.8950  -12.5150 C   0  0  0  0  0  0
   64.4570   16.0720  -12.3810 C   0  0  0  0  0  0
   67.6480   10.5350   -4.4770 O   0  0  0  0  0  0
   66.4700   10.6560   -4.4640 C   0  0  0  0  0  0
   65.8430   11.2830   -3.5120 N   0  0  0  0  0  0
   66.4260   11.9170   -2.4980 C   0  0  0  0  0  0
   65.8300   13.0260   -1.9580 C   0  0  0  0  0  0
   66.4140   13.6860   -0.9050 C   0  0  0  0  0  0
   67.6050   11.4900   -1.9580 C   0  0  0  0  0  0
   68.1940   12.1460   -0.9150 C   0  0  0  0  0  0
   67.6070   13.2570   -0.3680 C   0  0  0  0  0  0
   68.2690   13.9540    0.7870 C   0  0  0  0  0  0
   67.8840   15.4110    0.8260 C   0  0  0  0  0  0
   67.8600   13.2880    2.0660 C   0  0  0  0  0  0
   69.7670   13.8780    0.7020 C   0  0  0  0  0  0
   65.7480   10.1530   -5.4200 N   0  0  0  0  0  0
   66.3070    9.5570   -6.6010 C   0  0  0  0  0  0
   66.3570   10.4690   -7.8150 C   0  0  0  0  0  0
   67.0670   11.8040   -7.6270 C   0  0  0  0  0  0
   66.5520   12.8080   -8.5620 N   0  3  1  0  0  0
   67.1810   14.1270   -8.4700 C   0  0  0  0  0  0
   66.1920   15.1030   -7.8970 C   0  0  0  0  0  0
   68.5390   14.2300   -7.7980 C   0  0  0  0  0  0
   66.8050   12.4470   -9.9550 C   0  0  0  0  0  0
   65.5600   12.3680  -10.8150 C   0  0  2  0  0  0
   65.8730   12.1610  -12.2660 C   0  0  1  0  0  0
   65.2600   10.9400  -12.6510 O   0  0  0  0  0  0
   65.1770   13.2950  -12.9630 C   0  0  1  0  0  0
   64.5640   12.8500  -14.1410 O   0  0  0  0  0  0
   64.1130   13.6750  -11.9880 C   0  0  1  0  0  0
   64.8130   13.5490  -10.7930 O   0  0  0  0  0  0
   63.6510   15.0440  -12.2090 N   0  0  0  0  0  0
   63.7800   17.1860  -12.5630 N   0  0  0  0  0  0
   61.2130   14.9350  -12.1780 N   0  0  0  0  0  0
   60.1440   15.7020  -12.3020 C   0  0  0  0  0  0
   61.2870   17.6840  -12.6350 C   0  0  0  0  0  0
   60.1530   17.0150  -12.5270 N   0  0  0  0  0  0
   61.3430   19.0070  -12.8600 N   0  0  0  0  0  0
   61.9050   19.4920  -14.1030 C   0  0  0  0  0  0
   63.0290   20.5000  -13.9790 C   0  0  0  0  0  0
   64.3370   20.0910  -14.6490 C   0  0  0  0  0  0
   65.4020   19.7410  -13.6100 C   0  0  0  0  0  0
   66.7530   20.1540  -13.9280 N   0  0  0  0  0  0
   67.8210   19.4010  -13.6600 C   0  0  0  0  0  0
   67.7400   18.3270  -13.1410 O   0  0  0  0  0  0
   69.1710   19.9140  -14.0270 C   0  0  0  0  0  0
   65.5451   16.0081  -12.3735 H   0  0  0  0  0  0
   64.7435   11.3163   -3.5064 H   0  0  0  0  0  0
   64.8862   13.3868   -2.3668 H   0  0  0  0  0  0
   65.9243   14.5654   -0.4867 H   0  0  0  0  0  0
   68.0881   10.6037   -2.3694 H   0  0  0  0  0  0
   69.1400   11.7824   -0.5138 H   0  0  0  0  0  0
   66.7893   15.4994    0.8885 H   0  0  0  0  0  0
   68.2405   15.9090   -0.0877 H   0  0  0  0  0  0
   68.3412   15.8876    1.7057 H   0  0  0  0  0  0
   66.7650   13.3238    2.1642 H   0  0  0  0  0  0
   68.3217   13.8117    2.9160 H   0  0  0  0  0  0
   68.1932   12.2397    2.0564 H   0  0  0  0  0  0
   70.1063   14.3585   -0.2275 H   0  0  0  0  0  0
   70.0814   12.8239    0.7058 H   0  0  0  0  0  0
   70.2100   14.3959    1.5655 H   0  0  0  0  0  0
   64.6565   10.1998   -5.2914 H   0  0  0  0  0  0
   67.3416    9.2430   -6.3987 H   0  0  0  0  0  0
   65.7075    8.6807   -6.8884 H   0  0  0  0  0  0
   66.8835    9.9591   -8.6352 H   0  0  0  0  0  0
   65.3326   10.7131   -8.1327 H   0  0  0  0  0  0
   66.9066   12.1631   -6.5997 H   0  0  0  0  0  0
   68.1446   11.6746   -7.8061 H   0  0  0  0  0  0
   65.4885   12.8430   -8.2834 H   0  0  0  0  0  0
   67.4181   14.3459   -9.5216 H   0  0  0  0  0  0
   65.2267   14.9922   -8.4127 H   0  0  0  0  0  0
   66.5662   16.1281   -8.0355 H   0  0  0  0  0  0
   66.0594   14.9030   -6.8235 H   0  0  0  0  0  0
   69.2273   13.4997   -8.2484 H   0  0  0  0  0  0
   68.4332   14.0199   -6.7234 H   0  0  0  0  0  0
   68.9400   15.2450   -7.9354 H   0  0  0  0  0  0
   67.4658   13.1971  -10.4139 H   0  0  0  0  0  0
   67.2874   11.4593   -9.9960 H   0  0  0  0  0  0
   64.9430   11.5668  -10.3821 H   0  0  0  0  0  0
   66.9428   12.0819  -12.5094 H   0  0  0  0  0  0
   65.6296    9.9869  -12.2447 H   0  0  0  0  0  0
   65.8406   14.1061  -13.2972 H   0  0  0  0  0  0
   65.1798   12.5210  -14.9911 H   0  0  0  0  0  0
   63.1961   13.0673  -11.9873 H   0  0  0  0  0  0
   59.1711   15.2187  -12.2125 H   0  0  0  0  0  0
   60.9672   19.7198  -12.1112 H   0  0  0  0  0  0
   62.3165   18.6466  -14.6739 H   0  0  0  0  0  0
   61.1185   19.9849  -14.6934 H   0  0  0  0  0  0
   62.7219   21.4502  -14.4403 H   0  0  0  0  0  0
   63.2574   20.6655  -12.9158 H   0  0  0  0  0  0
   64.1635   19.2105  -15.2850 H   0  0  0  0  0  0
   64.7081   20.9221  -15.2667 H   0  0  0  0  0  0
   65.1516   20.2207  -12.6523 H   0  0  0  0  0  0
   65.4381   18.6499  -13.4751 H   0  0  0  0  0  0
   66.9317   21.1258  -14.4114 H   0  0  0  0  0  0
   69.0724   20.9065  -14.4909 H   0  0  0  0  0  0
   69.6452   19.2221  -14.7386 H   0  0  0  0  0  0
   69.7919   19.9921  -13.1224 H   0  0  0  0  0  0
  1  2  2  0  0  0
  1 33  1  0  0  0
  1 35  1  0  0  0
  2 34  1  0  0  0
  2 37  1  0  0  0
  3 33  1  0  0  0
  3 34  2  0  0  0
  3 48  1  0  0  0
  4  5  2  0  0  0
  5  6  1  0  0  0
  5 17  1  0  0  0
  6  7  1  0  0  0
  6 49  1  0  0  0
  7  8  2  0  0  0
  7 10  1  0  0  0
  8  9  1  0  0  0
  8 50  1  0  0  0
  9 12  2  0  0  0
  9 51  1  0  0  0
 10 11  2  0  0  0
 10 52  1  0  0  0
 11 12  1  0  0  0
 11 53  1  0  0  0
 12 13  1  0  0  0
 13 14  1  0  0  0
 13 15  1  0  0  0
 13 16  1  0  0  0
 14 54  1  0  0  0
 14 55  1  0  0  0
 14 56  1  0  0  0
 15 57  1  0  0  0
 15 58  1  0  0  0
 15 59  1  0  0  0
 16 60  1  0  0  0
 16 61  1  0  0  0
 16 62  1  0  0  0
 17 18  1  0  0  0
 17 63  1  0  0  0
 18 19  1  0  0  0
 18 64  1  0  0  0
 18 65  1  0  0  0
 19 20  1  0  0  0
 19 66  1  0  0  0
 19 67  1  0  0  0
 20 21  1  0  0  0
 20 68  1  0  0  0
 20 69  1  0  0  0
 21 22  1  0  0  0
 21 25  1  0  0  0
 21 70  1  0  0  0
 22 23  1  0  0  0
 22 24  1  0  0  0
 22 71  1  0  0  0
 23 72  1  0  0  0
 23 73  1  0  0  0
 23 74  1  0  0  0
 24 75  1  0  0  0
 24 76  1  0  0  0
 24 77  1  0  0  0
 25 26  1  0  0  0
 25 78  1  0  0  0
 25 79  1  0  0  0
 26 27  1  0  0  0
 26 32  1  0  0  0
 26 80  1  0  0  0
 27 28  1  0  0  0
 27 29  1  0  0  0
 27 81  1  0  0  0
 28 82  1  0  0  0
 29 30  1  0  0  0
 29 31  1  0  0  0
 29 83  1  0  0  0
 30 84  1  0  0  0
 31 32  1  0  0  0
 31 33  1  0  0  0
 31 85  1  0  0  0
 35 36  2  0  0  0
 36 38  1  0  0  0
 36 86  1  0  0  0
 37 38  2  0  0  0
 37 39  1  0  0  0
 39 40  1  0  0  0
 39 87  1  0  0  0
 40 41  1  0  0  0
 40 88  1  0  0  0
 40 89  1  0  0  0
 41 42  1  0  0  0
 41 90  1  0  0  0
 41 91  1  0  0  0
 42 43  1  0  0  0
 42 92  1  0  0  0
 42 93  1  0  0  0
 43 44  1  0  0  0
 43 94  1  0  0  0
 43 95  1  0  0  0
 44 45  1  0  0  0
 44 96  1  0  0  0
 45 46  2  0  0  0
 45 47  1  0  0  0
 47 97  1  0  0  0
 47 98  1  0  0  0
 47 99  1  0  0  0
M  CHG  1  21   1
M  END
> <s_m_source_file>
../4wvl_ligand.sdf

> <i_m_source_file_index>
1

> <s_epik_input>
Tz1DKFtDSDNdKVtOSF1bQ0gyXVtDSDJdW0NIMl1bQ0gyXVtOSF1jKG5bY0hdbjEpYyhjMTIpbltjSF1uMltDQEhdKE8zKVtDQEhdKFtPSF0pW0NASF0oW09IXSlbQ0BIXTNbQ0gyXVtOQEgrXShbQ0hdKFtDSDNdKVtDSDNdKVtDSDJdW0NIMl1bQ0gyXVtOSF1DKD1PKVtOSF1jNFtjSF1bY0hdYyhbY0hdW2NIXTQpQyhbQ0gzXSkoW0NIM10pW0NIM10=

> <s_epik_cmdline>
J2VwaWtfYXBwJywgJy1pbWFlJywgJ2xpZ2FuZF9wcm8ubWFlJywgJy1vbWFlJywgJ2xpZ2FuZF9wcmVwLm1hZScsICctbXMnLCAnMScsICctcGgnLCAnNycsICctcGh0JywgJzAuNScsICctbnQn

> <r_lp_tautomer_probability>
1

> <r_epik_Ionization_Penalty>
  0.0088

> <r_epik_Ionization_Penalty_Charging>
  0.0083

> <r_epik_Ionization_Penalty_Neutral>
  0.0005

> <r_epik_State_Penalty>
 -0.0000

> <r_epik_Charging_Adjusted_Penalty>
0.00829446520112234

> <i_epik_Tot_Q>
1

> <i_epik_Tot_abs_Q>
1

> <s_epik_Chemistry_Notes>
This compound contains an acetal/aminal-like group ( X-CH(R)-Y where X, Y are N, S, or O) that may be acid/base labile, releasing an aldehyde.

$$$$
