4wvs_ligand
                    3D
 Schrodinger Suite 2020-3.
 90 92  0  0  1  0            999 V2000
   -5.7380 -846.3630    0.6600 N   0  3  0  0  0  0
   -6.2080 -846.6870   -0.6910 C   0  0  0  0  0  0
   -5.6290 -847.4660    1.6240 C   0  0  1  0  0  0
   -4.9310 -846.9790    2.8890 C   0  0  0  0  0  0
   -7.0110 -847.9990    1.9720 C   0  0  0  0  0  0
   -8.0040 -847.2860    1.8500 O   0  0  0  0  0  0
   -8.4380 -850.1760   -0.8950 C   0  0  0  0  0  0
   -8.4170 -850.6290    0.1930 C   0  0  0  0  0  0
   -8.4390 -851.1610    1.5590 C   0  0  0  0  0  0
   -8.3300 -849.9670    2.5280 C   0  0  2  0  0  0
   -7.0680 -849.2700    2.3760 N   0  0  0  0  0  0
   -8.3530 -850.4550    3.9740 C   0  0  0  0  0  0
   -7.4030 -851.0690    4.4110 O   0  0  0  0  0  0
   -9.4270 -850.1770    4.7300 N   0  0  0  0  0  0
   -9.5710 -850.7750    6.0550 C   0  0  2  0  0  0
   -9.8870 -852.2600    5.9470 C   0  0  0  0  0  0
  -10.4280 -852.7210    4.9440 O   0  0  0  0  0  0
  -10.7210 -849.9790    6.6740 C   0  0  0  0  0  0
  -11.5810 -849.6050    5.4770 C   0  0  0  0  0  0
  -10.6060 -849.3770    4.3460 C   0  0  0  0  0  0
   -9.5650 -853.0030    7.0060 N   0  0  0  0  0  0
   -9.9070 -854.4160    7.0560 C   0  0  2  0  0  0
   -9.9360 -854.9130    8.4960 C   0  0  0  0  0  0
   -9.5110 -854.2180    9.4110 O   0  0  0  0  0  0
   -8.9460 -855.2610    6.1980 C   0  0  0  0  0  0
   -7.5570 -855.3470    6.7800 C   0  0  0  0  0  0
   -7.1510 -856.4830    7.4700 C   0  0  0  0  0  0
   -6.6800 -854.2750    6.7020 C   0  0  0  0  0  0
   -5.9010 -856.5450    8.0620 C   0  0  0  0  0  0
   -5.4230 -854.3410    7.2870 C   0  0  0  0  0  0
   -5.0250 -855.4840    7.9510 C   0  0  0  0  0  0
  -10.3810 -858.1270    9.9690 C   0  0  0  0  0  0
  -10.4650 -856.1230    8.6740 N   0  0  0  0  0  0
   -9.5950 -858.5900   10.7660 O   0  0  0  0  0  0
  -13.5820 -848.2470    7.7200 N   0  0  0  0  0  0
  -14.0430 -847.6290    6.7580 N   0  0  0  0  0  0
  -14.4650 -847.0600    5.8690 N   0  0  0  0  0  0
  -10.8010 -856.6650    9.9750 C   0  0  1  0  0  0
  -12.3060 -856.4810   10.2550 C   0  0  0  0  0  0
  -12.7710 -855.0560   10.0510 C   0  0  0  0  0  0
  -13.7020 -851.0260    9.5230 O   0  0  0  0  0  0
  -13.4050 -852.3680    9.6010 C   0  0  0  0  0  0
  -14.2700 -850.5180    8.3000 C   0  0  0  0  0  0
  -14.5510 -849.0540    8.5010 C   0  0  0  0  0  0
  -12.6450 -854.1130   11.0630 C   0  0  0  0  0  0
  -13.2490 -854.6330    8.8160 C   0  0  0  0  0  0
  -12.9630 -852.7800   10.8490 C   0  0  0  0  0  0
  -13.5610 -853.3030    8.5830 C   0  0  0  0  0  0
  -10.8450 -858.7710    8.9310 O   0  5  0  0  0  0
   -4.7298 -845.9269    0.6027 H   0  0  0  0  0  0
   -6.4247 -845.6393    1.1234 H   0  0  0  0  0  0
   -6.2390 -845.7702   -1.2981 H   0  0  0  0  0  0
   -7.2162 -847.1231   -0.6337 H   0  0  0  0  0  0
   -5.5213 -847.4107   -1.1544 H   0  0  0  0  0  0
   -5.0365 -848.2558    1.1391 H   0  0  0  0  0  0
   -3.9328 -846.5948    2.6322 H   0  0  0  0  0  0
   -4.8313 -847.8145    3.5975 H   0  0  0  0  0  0
   -5.5254 -846.1763    3.3499 H   0  0  0  0  0  0
   -9.3807 -851.7045    1.7257 H   0  0  0  0  0  0
   -7.5902 -851.8465    1.6992 H   0  0  0  0  0  0
   -9.1404 -849.2606    2.2949 H   0  0  0  0  0  0
   -6.1232 -849.7888    2.5956 H   0  0  0  0  0  0
   -8.6359 -850.7106    6.6308 H   0  0  0  0  0  0
  -11.2596 -850.6126    7.3941 H   0  0  0  0  0  0
  -10.3186 -849.0959    7.1919 H   0  0  0  0  0  0
  -12.2754 -850.4282    5.2529 H   0  0  0  0  0  0
  -12.1538 -848.6946    5.7072 H   0  0  0  0  0  0
  -10.3171 -848.3197    4.2527 H   0  0  0  0  0  0
  -10.9954 -849.7371    3.3823 H   0  0  0  0  0  0
   -9.0344 -852.5354    7.8485 H   0  0  0  0  0  0
  -10.9207 -854.4725    6.6327 H   0  0  0  0  0  0
   -9.3362 -856.2859    6.1119 H   0  0  0  0  0  0
   -8.8613 -854.8156    5.1958 H   0  0  0  0  0  0
   -7.8253 -857.3360    7.5461 H   0  0  0  0  0  0
   -6.9817 -853.3699    6.1749 H   0  0  0  0  0  0
   -5.6074 -857.4353    8.6180 H   0  0  0  0  0  0
   -4.7480 -853.4876    7.2219 H   0  0  0  0  0  0
   -4.0269 -855.5482    8.3842 H   0  0  0  0  0  0
  -10.6448 -856.7187    7.7669 H   0  0  0  0  0  0
  -10.2401 -856.1138   10.7441 H   0  0  0  0  0  0
  -12.8864 -857.1238    9.5768 H   0  0  0  0  0  0
  -12.5217 -856.7585   11.2973 H   0  0  0  0  0  0
  -13.5549 -850.6611    7.4765 H   0  0  0  0  0  0
  -15.2009 -851.0593    8.0755 H   0  0  0  0  0  0
  -14.4565 -848.8079    9.5689 H   0  0  0  0  0  0
  -15.5730 -848.8290    8.1619 H   0  0  0  0  0  0
  -12.2893 -854.4266   12.0444 H   0  0  0  0  0  0
  -13.3809 -855.3612    8.0158 H   0  0  0  0  0  0
  -12.8657 -852.0581   11.6599 H   0  0  0  0  0  0
  -13.9275 -852.9906    7.6051 H   0  0  0  0  0  0
  1  2  1  0  0  0
  1  3  1  0  0  0
  1 50  1  0  0  0
  1 51  1  0  0  0
  2 52  1  0  0  0
  2 53  1  0  0  0
  2 54  1  0  0  0
  3  4  1  0  0  0
  3  5  1  0  0  0
  3 55  1  0  0  0
  4 56  1  0  0  0
  4 57  1  0  0  0
  4 58  1  0  0  0
  5  6  2  0  0  0
  5 11  1  0  0  0
  7  8  3  0  0  0
  8  9  1  0  0  0
  9 10  1  0  0  0
  9 59  1  0  0  0
  9 60  1  0  0  0
 10 11  1  0  0  0
 10 12  1  0  0  0
 10 61  1  0  0  0
 11 62  1  0  0  0
 12 13  2  0  0  0
 12 14  1  0  0  0
 14 15  1  0  0  0
 14 20  1  0  0  0
 15 16  1  0  0  0
 15 18  1  0  0  0
 15 63  1  0  0  0
 16 17  2  0  0  0
 16 21  1  0  0  0
 18 19  1  0  0  0
 18 64  1  0  0  0
 18 65  1  0  0  0
 19 20  1  0  0  0
 19 66  1  0  0  0
 19 67  1  0  0  0
 20 68  1  0  0  0
 20 69  1  0  0  0
 21 22  1  0  0  0
 21 70  1  0  0  0
 22 23  1  0  0  0
 22 25  1  0  0  0
 22 71  1  0  0  0
 23 24  2  0  0  0
 23 33  1  0  0  0
 25 26  1  0  0  0
 25 72  1  0  0  0
 25 73  1  0  0  0
 26 27  2  0  0  0
 26 28  1  0  0  0
 27 29  1  0  0  0
 27 74  1  0  0  0
 28 30  2  0  0  0
 28 75  1  0  0  0
 29 31  2  0  0  0
 29 76  1  0  0  0
 30 31  1  0  0  0
 30 77  1  0  0  0
 31 78  1  0  0  0
 32 34  2  0  0  0
 32 38  1  0  0  0
 32 49  1  0  0  0
 33 38  1  0  0  0
 33 79  1  0  0  0
 35 36  2  0  0  0
 35 44  1  0  0  0
 36 37  3  0  0  0
 38 39  1  0  0  0
 38 80  1  0  0  0
 39 40  1  0  0  0
 39 81  1  0  0  0
 39 82  1  0  0  0
 40 45  2  0  0  0
 40 46  1  0  0  0
 41 42  1  0  0  0
 41 43  1  0  0  0
 42 47  2  0  0  0
 42 48  1  0  0  0
 43 44  1  0  0  0
 43 83  1  0  0  0
 43 84  1  0  0  0
 44 85  1  0  0  0
 44 86  1  0  0  0
 45 47  1  0  0  0
 45 87  1  0  0  0
 46 48  2  0  0  0
 46 88  1  0  0  0
 47 89  1  0  0  0
 48 90  1  0  0  0
M  CHG  2   1   1  49  -1
M  END
> <s_m_source_file>
../4wvs_ligand.sdf

> <i_m_source_file_index>
1

> <s_epik_input>
W0NIM11bTkgyK11bQ0BASF0oW0NIM10pQyg9TylbTkhdW0NAQEhdKFtDSDJdQyNbQ0hdKUMoPU8pTjFbQ0BASF0oW0NIMl1bQ0gyXVtDSDJdMSlDKD1PKVtOSF1bQ0BASF0oW0NIMl1jMltjSF1bY0hdW2NIXVtjSF1bY0hdMilDKD1PKVtOSF1bQ0BIXShDKD1PKVtPSF0pW0NIMl1jM1tjSF1bY0hdYyhbY0hdW2NIXTMpT1tDSDJdW0NIMl1OPU4jTg==

> <s_epik_cmdline>
J2VwaWtfYXBwJywgJy1pbWFlJywgJ2xpZ2FuZF9wcm8ubWFlJywgJy1vbWFlJywgJ2xpZ2FuZF9wcmVwLm1hZScsICctbXMnLCAnMScsICctcGgnLCAnNycsICctcGh0JywgJzAuNScsICctbnQn

> <r_lp_tautomer_probability>
1

> <r_epik_Ionization_Penalty>
  0.0852

> <r_epik_Ionization_Penalty_Charging>
  0.0852

> <r_epik_Ionization_Penalty_Neutral>
  0.0000

> <r_epik_State_Penalty>
  0.0756

> <r_epik_Charging_Adjusted_Penalty>
0.160759762456643

> <i_epik_Tot_Q>
0

> <i_epik_Tot_abs_Q>
2

$$$$
