4wvt_ligand
                    3D
 Schrodinger Suite 2020-3.
108113  0  0  1  0            999 V2000
   15.4380   -1.0640    5.4610 N   0  3  0  0  0  0
   16.7650   -0.7680    5.9930 C   0  0  0  0  0  0
   14.5600    0.1030    5.2960 C   0  0  1  0  0  0
   13.2810   -0.2730    4.5500 C   0  0  0  0  0  0
   14.2050    0.7320    6.6350 C   0  0  0  0  0  0
   14.1360    0.0490    7.6500 O   0  0  0  0  0  0
   13.9200    2.0330    6.6020 N   0  0  0  0  0  0
   13.6370    2.8170    7.7840 C   0  0  2  0  0  0
   12.1400    3.1480    7.8190 C   0  0  0  0  0  0
   11.6290    3.6810    6.8410 O   0  0  0  0  0  0
   14.4550    4.1180    7.7200 C   0  0  0  0  0  0
   14.1650    5.0720    8.8510 C   0  0  0  0  0  0
   13.4780    6.2550    8.6210 C   0  0  0  0  0  0
   14.5730    4.7860   10.1450 C   0  0  0  0  0  0
   13.1880    7.1270    9.6600 C   0  0  0  0  0  0
   14.2780    5.6370   11.1950 C   0  0  0  0  0  0
   13.5570    6.8010   10.9540 C   0  0  0  0  0  0
   11.4150    2.8700    8.9230 N   0  0  0  0  0  0
    9.9990    3.2810    8.9460 C   0  0  2  0  0  0
    9.9020    4.7570    9.3470 C   0  0  0  0  0  0
   10.7520    5.2610   10.0780 O   0  0  0  0  0  0
    9.3790    2.3650   10.0070 C   0  0  0  0  0  0
   10.5130    2.1440   11.0020 C   0  0  0  0  0  0
   11.8100    2.1800   10.1660 C   0  0  0  0  0  0
    8.8640    5.4410    8.8580 N   0  0  0  0  0  0
    8.6910    6.8590    9.1330 C   0  0  2  0  0  0
    7.2230    7.2370    8.9730 C   0  0  0  0  0  0
    6.4120    6.4130    8.5730 O   0  0  0  0  0  0
    9.6420    7.7180    8.2750 C   0  0  0  0  0  0
    9.1850    7.9190    6.8480 C   0  0  0  0  0  0
    8.5830    9.1100    6.4570 C   0  0  0  0  0  0
    9.3720    6.9290    5.8930 C   0  0  0  0  0  0
    8.1910    9.3100    5.1410 C   0  0  0  0  0  0
    8.9930    7.1340    4.5740 C   0  0  0  0  0  0
    8.3990    8.3230    4.1980 C   0  0  0  0  0  0
    6.8870    8.4750    9.3240 N   0  0  0  0  0  0
    5.5280    8.9620    9.2030 C   0  0  2  0  0  0
    5.5300   10.4210    8.7760 C   0  0  0  0  0  0
    4.5830   10.9070    8.1980 O   0  0  0  0  0  0
    4.7710    8.7860   10.5300 C   0  0  0  0  0  0
    5.4970    9.3690   11.7130 C   0  0  0  0  0  0
    5.4500   10.7290   11.9850 C   0  0  0  0  0  0
    6.2390    8.5550   12.5550 C   0  0  0  0  0  0
    6.1290   11.2670   13.0660 C   0  0  0  0  0  0
    6.8840    9.0710   13.6630 C   0  0  0  0  0  0
    6.8170   10.4300   13.9280 C   0  0  0  0  0  0
    6.6050   11.0750    9.1150 O   0  5  0  0  0  0
   12.9560    8.7510   13.9140 C   0  0  0  0  0  0
   11.8120    9.0230   14.5970 C   0  0  0  0  0  0
    7.6240   10.5170   15.0280 O   0  0  0  0  0  0
    8.4360   11.6710   15.2490 C   0  0  0  0  0  0
    9.7290   11.1940   14.6710 C   0  0  0  0  0  0
   10.9110   11.1230   15.6140 C   0  0  0  0  0  0
   11.9610   10.2720   15.0530 N   0  0  0  0  0  0
   13.1580   10.7700   14.6940 N   0  0  0  0  0  0
   13.7530    9.8480   13.9760 N   0  0  0  0  0  0
   13.1230    7.7140   11.8830 O   0  0  0  0  0  0
   13.3970    7.4940   13.2460 C   0  0  0  0  0  0
   15.5360   -1.5272    4.4681 H   0  0  0  0  0  0
   14.9173   -1.7564    6.1388 H   0  0  0  0  0  0
   17.3420   -1.7006    6.0787 H   0  0  0  0  0  0
   16.6670   -0.3048    6.9859 H   0  0  0  0  0  0
   17.2857   -0.0756    5.3152 H   0  0  0  0  0  0
   15.1508    0.8172    4.7037 H   0  0  0  0  0  0
   13.5409   -0.7274    3.5826 H   0  0  0  0  0  0
   12.6765    0.6302    4.3803 H   0  0  0  0  0  0
   12.7046   -0.9926    5.1500 H   0  0  0  0  0  0
   13.9065    2.5087    5.6103 H   0  0  0  0  0  0
   13.9216    2.2075    8.6544 H   0  0  0  0  0  0
   15.5279    3.8788    7.7601 H   0  0  0  0  0  0
   14.2318    4.6456    6.7810 H   0  0  0  0  0  0
   13.1611    6.5032    7.6080 H   0  0  0  0  0  0
   15.1368    3.8734   10.3385 H   0  0  0  0  0  0
   12.6715    8.0655    9.4585 H   0  0  0  0  0  0
   14.6089    5.3963   12.2053 H   0  0  0  0  0  0
    9.5204    3.1790    7.9608 H   0  0  0  0  0  0
    8.5145    2.8676   10.4654 H   0  0  0  0  0  0
    9.0502    1.4274    9.5351 H   0  0  0  0  0  0
   10.4997    2.9442   11.7567 H   0  0  0  0  0  0
   10.3818    1.1706   11.4973 H   0  0  0  0  0  0
   12.1756    1.1709    9.9249 H   0  0  0  0  0  0
   12.6082    2.7499   10.6640 H   0  0  0  0  0  0
    8.1307    4.9082    8.2348 H   0  0  0  0  0  0
    8.9713    7.0065   10.1864 H   0  0  0  0  0  0
    9.7396    8.7172    8.7245 H   0  0  0  0  0  0
   10.6306    7.2377    8.2308 H   0  0  0  0  0  0
    8.4170    9.8963    7.1934 H   0  0  0  0  0  0
    9.8219    5.9794    6.1827 H   0  0  0  0  0  0
    7.7179   10.2482    4.8510 H   0  0  0  0  0  0
    9.1646    6.3541    3.8321 H   0  0  0  0  0  0
    8.0962    8.4812    3.1629 H   0  0  0  0  0  0
    7.6750    9.1352    9.7154 H   0  0  0  0  0  0
    5.0629    8.3491    8.4168 H   0  0  0  0  0  0
    3.7931    9.2852   10.4632 H   0  0  0  0  0  0
    4.6228    7.7142   10.7282 H   0  0  0  0  0  0
    4.8689   11.3851   11.3370 H   0  0  0  0  0  0
    6.3150    7.4893   12.3393 H   0  0  0  0  0  0
    6.1217   12.3435   13.2370 H   0  0  0  0  0  0
    7.4436    8.4115   14.3264 H   0  0  0  0  0  0
   10.9560    8.3639   14.7421 H   0  0  0  0  0  0
    8.0010   12.5321   14.7205 H   0  0  0  0  0  0
    8.4810   11.8868   16.3267 H   0  0  0  0  0  0
    9.6006   10.1753   14.2764 H   0  0  0  0  0  0
   10.0369   11.8665   13.8568 H   0  0  0  0  0  0
   11.3154   12.1337   15.7718 H   0  0  0  0  0  0
   10.5866   10.7033   16.5776 H   0  0  0  0  0  0
   14.4698    7.3371   13.4316 H   0  0  0  0  0  0
   12.8269    6.6445   13.6501 H   0  0  0  0  0  0
  1  2  1  0  0  0
  1  3  1  0  0  0
  1 59  1  0  0  0
  1 60  1  0  0  0
  2 61  1  0  0  0
  2 62  1  0  0  0
  2 63  1  0  0  0
  3  4  1  0  0  0
  3  5  1  0  0  0
  3 64  1  0  0  0
  4 65  1  0  0  0
  4 66  1  0  0  0
  4 67  1  0  0  0
  5  6  2  0  0  0
  5  7  1  0  0  0
  7  8  1  0  0  0
  7 68  1  0  0  0
  8  9  1  0  0  0
  8 11  1  0  0  0
  8 69  1  0  0  0
  9 10  2  0  0  0
  9 18  1  0  0  0
 11 12  1  0  0  0
 11 70  1  0  0  0
 11 71  1  0  0  0
 12 13  2  0  0  0
 12 14  1  0  0  0
 13 15  1  0  0  0
 13 72  1  0  0  0
 14 16  2  0  0  0
 14 73  1  0  0  0
 15 17  2  0  0  0
 15 74  1  0  0  0
 16 17  1  0  0  0
 16 75  1  0  0  0
 17 57  1  0  0  0
 18 19  1  0  0  0
 18 24  1  0  0  0
 19 20  1  0  0  0
 19 22  1  0  0  0
 19 76  1  0  0  0
 20 21  2  0  0  0
 20 25  1  0  0  0
 22 23  1  0  0  0
 22 77  1  0  0  0
 22 78  1  0  0  0
 23 24  1  0  0  0
 23 79  1  0  0  0
 23 80  1  0  0  0
 24 81  1  0  0  0
 24 82  1  0  0  0
 25 26  1  0  0  0
 25 83  1  0  0  0
 26 27  1  0  0  0
 26 29  1  0  0  0
 26 84  1  0  0  0
 27 28  2  0  0  0
 27 36  1  0  0  0
 29 30  1  0  0  0
 29 85  1  0  0  0
 29 86  1  0  0  0
 30 31  2  0  0  0
 30 32  1  0  0  0
 31 33  1  0  0  0
 31 87  1  0  0  0
 32 34  2  0  0  0
 32 88  1  0  0  0
 33 35  2  0  0  0
 33 89  1  0  0  0
 34 35  1  0  0  0
 34 90  1  0  0  0
 35 91  1  0  0  0
 36 37  1  0  0  0
 36 92  1  0  0  0
 37 38  1  0  0  0
 37 40  1  0  0  0
 37 93  1  0  0  0
 38 39  2  0  0  0
 38 47  1  0  0  0
 40 41  1  0  0  0
 40 94  1  0  0  0
 40 95  1  0  0  0
 41 42  2  0  0  0
 41 43  1  0  0  0
 42 44  1  0  0  0
 42 96  1  0  0  0
 43 45  2  0  0  0
 43 97  1  0  0  0
 44 46  2  0  0  0
 44 98  1  0  0  0
 45 46  1  0  0  0
 45 99  1  0  0  0
 46 50  1  0  0  0
 48 49  2  0  0  0
 48 56  1  0  0  0
 48 58  1  0  0  0
 49 54  1  0  0  0
 49100  1  0  0  0
 50 51  1  0  0  0
 51 52  1  0  0  0
 51101  1  0  0  0
 51102  1  0  0  0
 52 53  1  0  0  0
 52103  1  0  0  0
 52104  1  0  0  0
 53 54  1  0  0  0
 53105  1  0  0  0
 53106  1  0  0  0
 54 55  1  0  0  0
 55 56  2  0  0  0
 57 58  1  0  0  0
 58107  1  0  0  0
 58108  1  0  0  0
M  CHG  2   1   1  47  -1
M  END
> <s_m_source_file>
../4wvt_ligand.sdf

> <i_m_source_file_index>
1

> <s_epik_input>
W0NIM11bTkgyK11bQ0BASF0oW0NIM10pQyg9TylbTkhdW0NAQEhdKFtDSDJdMSlDKD1PKU4oW0NIMl1bQ0gyXVtDSDJdMilbQ0BASF0yQyg9TylbTkhdW0NAQEhdKFtDSDJdYzNbY0hdW2NIXVtjSF1bY0hdW2NIXTMpQyg9TylbTkhdW0NASF0oQyg9TylbT0hdKVtDSDJdYyhbY0hdW2NIXTQpW2NIXVtjSF1jNE9bQ0gyXVtDSDJdW0NIMl1uKG5uNSlbY0hdYzVbQ0gyXU9jKFtjSF1bY0hdYzE2KVtjSF1bY0hdNg==

> <s_epik_cmdline>
J2VwaWtfYXBwJywgJy1pbWFlJywgJ2xpZ2FuZF9wcm8ubWFlJywgJy1vbWFlJywgJ2xpZ2FuZF9wcmVwLm1hZScsICctbXMnLCAnMScsICctcGgnLCAnNycsICctcGh0JywgJzAuNScsICctbnQn

> <r_lp_tautomer_probability>
1

> <r_epik_Ionization_Penalty>
  0.0894

> <r_epik_Ionization_Penalty_Charging>
  0.0894

> <r_epik_Ionization_Penalty_Neutral>
  0.0000

> <r_epik_State_Penalty>
  0.0796

> <r_epik_Charging_Adjusted_Penalty>
0.168986276456452

> <i_epik_Tot_Q>
0

> <i_epik_Tot_abs_Q>
2

$$$$
