4wvu_ligand
                    3D
 Schrodinger Suite 2020-3.
100104  0  0  1  0            999 V2000
    4.1240    5.5690   15.7500 N   0  3  0  0  0  0
    4.4960    5.3800   17.1530 C   0  0  0  0  0  0
    4.0300    4.3620   14.9190 C   0  0  1  0  0  0
    3.3370    4.6940   13.6040 C   0  0  0  0  0  0
    5.4360    3.8380   14.6470 C   0  0  0  0  0  0
    6.4070    4.5880   14.7220 O   0  0  0  0  0  0
    5.5500    2.5350   14.3770 N   0  0  0  0  0  0
    6.8700    1.9730   14.1290 C   0  0  2  0  0  0
    6.8980    1.4560   12.6890 C   0  0  0  0  0  0
    5.9010    0.9470   12.2070 O   0  0  0  0  0  0
    7.2710    0.8870   15.1450 C   0  0  0  0  0  0
    7.1540    1.3980   16.5870 C   0  0  0  0  0  0
    6.4710   -0.3790   14.9700 C   0  0  0  0  0  0
    9.3890    1.6540   10.0520 C   0  0  0  0  0  0
    8.1020    1.0320   10.6230 C   0  0  1  0  0  0
    8.2170   -0.4870   10.7250 C   0  0  0  0  0  0
    9.9550    2.6260   11.0850 C   0  0  1  0  0  0
    9.3240    2.1580   12.3970 C   0  0  0  0  0  0
   14.8200    2.2460    8.7540 C   0  0  0  0  0  0
   14.9480    2.7270   10.1870 C   0  0  0  0  0  0
   14.2730    0.8340    8.6690 C   0  0  0  0  0  0
   14.7510   -0.0660    9.3600 O   0  0  0  0  0  0
    8.5880   -1.0160   11.7720 O   0  0  0  0  0  0
    8.0360    1.5820   11.9830 N   0  0  0  0  0  0
   11.4640    2.6170   11.1810 N   0  0  0  0  0  0
   12.3670    3.0740   10.2960 C   0  0  0  0  0  0
   13.5790    2.6930   10.7970 C   0  0  0  0  0  0
   13.3650    2.0640   11.9830 N   0  0  0  0  0  0
   12.0770    2.0180   12.2220 N   0  0  0  0  0  0
    7.8790   -1.1880    9.6410 N   0  0  0  0  0  0
    8.1840   -2.6090    9.5500 C   0  0  2  0  0  0
    8.4120   -2.9970    8.0900 C   0  0  0  0  0  0
    8.1690   -2.1970    7.1900 O   0  0  0  0  0  0
    7.1230   -3.4640   10.2770 C   0  0  0  0  0  0
    5.8020   -3.6050    9.5600 C   0  0  0  0  0  0
    5.5120   -4.7480    8.8230 C   0  0  0  0  0  0
    4.8470   -2.6000    9.6180 C   0  0  0  0  0  0
    4.3100   -4.8700    8.1440 C   0  0  0  0  0  0
    3.6380   -2.7260    8.9480 C   0  0  0  0  0  0
    3.3710   -3.8570    8.2020 C   0  0  0  0  0  0
    9.0740   -6.8550    7.1860 O   0  0  0  0  0  0
    9.0900   -6.0260    6.3130 C   0  0  0  0  0  0
    8.9730   -4.1900    7.8800 N   0  0  0  0  0  0
    8.7450   -6.2390    5.0840 O   0  5  0  0  0  0
    9.5100   -4.5920    6.5880 C   0  0  1  0  0  0
   11.0480   -4.4840    6.5770 C   0  0  0  0  0  0
   11.5300   -3.0930    6.9160 C   0  0  0  0  0  0
   12.5570   -0.5560    7.5230 C   0  0  0  0  0  0
   13.2380    0.6610    7.8090 N   0  0  0  0  0  0
   11.8950   -2.7660    8.2120 C   0  0  0  0  0  0
   11.6330   -2.1160    5.9380 C   0  0  0  0  0  0
   12.3900   -1.5100    8.5220 C   0  0  0  0  0  0
   12.1450   -0.8610    6.2300 C   0  0  0  0  0  0
    3.1340    6.0452   15.6941 H   0  0  0  0  0  0
    4.8683    6.2114   15.2566 H   0  0  0  0  0  0
    4.5299    6.3566   17.6581 H   0  0  0  0  0  0
    5.4860    4.9038   17.2089 H   0  0  0  0  0  0
    3.7517    4.7376   17.6463 H   0  0  0  0  0  0
    3.4386    3.6182   15.4730 H   0  0  0  0  0  0
    2.3241    5.0711   13.8084 H   0  0  0  0  0  0
    3.2727    3.7874   12.9843 H   0  0  0  0  0  0
    3.9138    5.4633   13.0696 H   0  0  0  0  0  0
    4.6611    1.8880   14.3408 H   0  0  0  0  0  0
    7.5794    2.8019   14.2691 H   0  0  0  0  0  0
    8.3201    0.6235   14.9452 H   0  0  0  0  0  0
    7.7424    2.3207   16.6979 H   0  0  0  0  0  0
    7.5369    0.6335   17.2791 H   0  0  0  0  0  0
    6.0988    1.6061   16.8178 H   0  0  0  0  0  0
    6.5653   -0.7318   13.9324 H   0  0  0  0  0  0
    5.4130   -0.1781   15.1943 H   0  0  0  0  0  0
    6.8511   -1.1506   15.6556 H   0  0  0  0  0  0
   10.1198    0.8585    9.8442 H   0  0  0  0  0  0
    9.1552    2.1897    9.1201 H   0  0  0  0  0  0
    7.2075    1.2643   10.0264 H   0  0  0  0  0  0
    9.7305    3.6685   10.8152 H   0  0  0  0  0  0
    9.9784    1.4131   12.8734 H   0  0  0  0  0  0
    9.1971    3.0185   13.0703 H   0  0  0  0  0  0
   14.1371    2.9101    8.2040 H   0  0  0  0  0  0
   15.8094    2.2581    8.2734 H   0  0  0  0  0  0
   15.6308    2.0628   10.7371 H   0  0  0  0  0  0
   15.3475    3.7519   10.1955 H   0  0  0  0  0  0
   12.1737    3.6284    9.3777 H   0  0  0  0  0  0
    7.3648   -0.6816    8.8108 H   0  0  0  0  0  0
    9.1333   -2.7575   10.0855 H   0  0  0  0  0  0
    7.5094   -4.4839   10.4204 H   0  0  0  0  0  0
    6.8990   -3.0158   11.2562 H   0  0  0  0  0  0
    6.2395   -5.5585    8.7788 H   0  0  0  0  0  0
    5.0490   -1.6993   10.1976 H   0  0  0  0  0  0
    4.1042   -5.7683    7.5619 H   0  0  0  0  0  0
    2.8967   -1.9294    9.0109 H   0  0  0  0  0  0
    2.4279   -3.9502    7.6635 H   0  0  0  0  0  0
    9.0200   -4.8813    8.7343 H   0  0  0  0  0  0
    9.0794   -3.9073    5.8425 H   0  0  0  0  0  0
   11.4697   -5.1795    7.3176 H   0  0  0  0  0  0
   11.4264   -4.7401    5.5764 H   0  0  0  0  0  0
   12.8419    1.5187    7.2455 H   0  0  0  0  0  0
   11.7908   -3.5102    9.0015 H   0  0  0  0  0  0
   11.3059   -2.3381    4.9222 H   0  0  0  0  0  0
   12.6497   -1.2680    9.5526 H   0  0  0  0  0  0
   12.2249   -0.1107    5.4434 H   0  0  0  0  0  0
  1  2  1  0  0  0
  1  3  1  0  0  0
  1 54  1  0  0  0
  1 55  1  0  0  0
  2 56  1  0  0  0
  2 57  1  0  0  0
  2 58  1  0  0  0
  3  4  1  0  0  0
  3  5  1  0  0  0
  3 59  1  0  0  0
  4 60  1  0  0  0
  4 61  1  0  0  0
  4 62  1  0  0  0
  5  6  2  0  0  0
  5  7  1  0  0  0
  7  8  1  0  0  0
  7 63  1  0  0  0
  8  9  1  0  0  0
  8 11  1  0  0  0
  8 64  1  0  0  0
  9 10  2  0  0  0
  9 24  1  0  0  0
 11 12  1  0  0  0
 11 13  1  0  0  0
 11 65  1  0  0  0
 12 66  1  0  0  0
 12 67  1  0  0  0
 12 68  1  0  0  0
 13 69  1  0  0  0
 13 70  1  0  0  0
 13 71  1  0  0  0
 14 15  1  0  0  0
 14 17  1  0  0  0
 14 72  1  0  0  0
 14 73  1  0  0  0
 15 16  1  0  0  0
 15 24  1  0  0  0
 15 74  1  0  0  0
 16 23  2  0  0  0
 16 30  1  0  0  0
 17 18  1  0  0  0
 17 25  1  0  0  0
 17 75  1  0  0  0
 18 24  1  0  0  0
 18 76  1  0  0  0
 18 77  1  0  0  0
 19 20  1  0  0  0
 19 21  1  0  0  0
 19 78  1  0  0  0
 19 79  1  0  0  0
 20 27  1  0  0  0
 20 80  1  0  0  0
 20 81  1  0  0  0
 21 22  2  0  0  0
 21 49  1  0  0  0
 25 26  1  0  0  0
 25 29  1  0  0  0
 26 27  2  0  0  0
 26 82  1  0  0  0
 27 28  1  0  0  0
 28 29  2  0  0  0
 30 31  1  0  0  0
 30 83  1  0  0  0
 31 32  1  0  0  0
 31 34  1  0  0  0
 31 84  1  0  0  0
 32 33  2  0  0  0
 32 43  1  0  0  0
 34 35  1  0  0  0
 34 85  1  0  0  0
 34 86  1  0  0  0
 35 36  2  0  0  0
 35 37  1  0  0  0
 36 38  1  0  0  0
 36 87  1  0  0  0
 37 39  2  0  0  0
 37 88  1  0  0  0
 38 40  2  0  0  0
 38 89  1  0  0  0
 39 40  1  0  0  0
 39 90  1  0  0  0
 40 91  1  0  0  0
 41 42  2  0  0  0
 42 44  1  0  0  0
 42 45  1  0  0  0
 43 45  1  0  0  0
 43 92  1  0  0  0
 45 46  1  0  0  0
 45 93  1  0  0  0
 46 47  1  0  0  0
 46 94  1  0  0  0
 46 95  1  0  0  0
 47 50  2  0  0  0
 47 51  1  0  0  0
 48 49  1  0  0  0
 48 52  2  0  0  0
 48 53  1  0  0  0
 49 96  1  0  0  0
 50 52  1  0  0  0
 50 97  1  0  0  0
 51 53  2  0  0  0
 51 98  1  0  0  0
 52 99  1  0  0  0
 53100  1  0  0  0
M  CHG  2   1   1  44  -1
M  END
> <s_m_source_file>
../4wvu_ligand.sdf

> <i_m_source_file_index>
1

> <s_epik_input>
W0NIM11bTkgyK11bQ0BASF0oW0NIM10pQyg9TylbTkhdW0NAQEhdKFtDSF0oW0NIM10pW0NIM10pQyg9TylOMVtDSDJdW0NASF0oW0NIMl1bQ0BIXTEyKW4zW2NIXWMobm4zKVtDSDJdW0NIMl1DKD1PKVtOSF1jNFtjSF1bY0hdYyhbY0hdW2NIXTQpW0NIMl1bQ0BASF0oQyg9TylbT0hdKVtOSF1DKD1PKVtDQEBIXShbTkhdQzI9TylbQ0gyXWM1W2NIXVtjSF1bY0hdW2NIXVtjSF01

> <s_epik_cmdline>
J2VwaWtfYXBwJywgJy1pbWFlJywgJ2xpZ2FuZF9wcm8ubWFlJywgJy1vbWFlJywgJ2xpZ2FuZF9wcmVwLm1hZScsICctbXMnLCAnMScsICctcGgnLCAnNycsICctcGh0JywgJzAuNScsICctbnQn

> <r_lp_tautomer_probability>
1

> <r_epik_Ionization_Penalty>
  0.0817

> <r_epik_Ionization_Penalty_Charging>
  0.0817

> <r_epik_Ionization_Penalty_Neutral>
  0.0000

> <r_epik_State_Penalty>
  0.0723

> <r_epik_Charging_Adjusted_Penalty>
0.154014547599406

> <i_epik_Tot_Q>
0

> <i_epik_Tot_abs_Q>
2

$$$$
