4ww6_ligand
                    3D
 Schrodinger Suite 2020-3.
 27 27  0  0  1  0            999 V2000
   14.9050    7.4260   15.2380 F   0  0  0  0  0  0
   15.4290    6.1970   15.0370 C   0  0  0  0  0  0
   15.1010    5.1840   15.8730 C   0  0  0  0  0  0
   14.2800    5.5020   16.9350 F   0  0  0  0  0  0
   16.2090    5.9850   13.9610 C   0  0  0  0  0  0
   16.5400    7.2800   12.8200 S   0  0  0  0  0  0
   18.3100    7.2730   12.6630 C   0  0  0  0  0  0
   18.9590    7.5280   13.9370 C   0  0  0  0  0  0
   18.8340    8.8930   14.4850 C   0  0  0  0  0  0
   16.7080    4.6930   13.8160 C   0  0  0  0  0  0
   17.4830    4.3880   12.7960 F   0  0  0  0  0  0
   16.3710    3.6640   14.7090 C   0  0  0  0  0  0
   16.8910    2.4770   14.4410 F   0  0  0  0  0  0
   15.5610    3.9270   15.7690 C   0  0  0  0  0  0
   15.0950    2.6600   16.8920 S   0  0  0  0  0  0
   13.6660    2.7270   16.8200 O   0  0  0  0  0  0
   15.7440    2.9680   18.1330 O   0  0  0  0  0  0
   15.5830    1.3030   16.3230 N   0  0  0  0  0  0
   18.6415    6.2911   12.2941 H   0  0  0  0  0  0
   18.6182    8.0546   11.9530 H   0  0  0  0  0  0
   18.5385    6.8597   14.7029 H   0  0  0  0  0  0
   20.0391    7.3429   13.8418 H   0  0  0  0  0  0
   19.3662    8.9525   15.4458 H   0  0  0  0  0  0
   17.7710    9.1302   14.6393 H   0  0  0  0  0  0
   19.2716    9.6134   13.7782 H   0  0  0  0  0  0
   15.3009    0.4936   17.0124 H   0  0  0  0  0  0
   16.6771    1.3246   16.2109 H   0  0  0  0  0  0
  1  2  1  0  0  0
  2  3  2  0  0  0
  2  5  1  0  0  0
  3  4  1  0  0  0
  3 14  1  0  0  0
  5  6  1  0  0  0
  5 10  2  0  0  0
  6  7  1  0  0  0
  7  8  1  0  0  0
  7 19  1  0  0  0
  7 20  1  0  0  0
  8  9  1  0  0  0
  8 21  1  0  0  0
  8 22  1  0  0  0
  9 23  1  0  0  0
  9 24  1  0  0  0
  9 25  1  0  0  0
 10 11  1  0  0  0
 10 12  1  0  0  0
 12 13  1  0  0  0
 12 14  2  0  0  0
 14 15  1  0  0  0
 15 16  2  0  0  0
 15 17  2  0  0  0
 15 18  1  0  0  0
 18 26  1  0  0  0
 18 27  1  0  0  0
M  END
> <s_m_source_file>
../4ww6_ligand.sdf

> <i_m_source_file_index>
1

> <s_epik_input>
RmMxYyhGKWMoUyg9TykoPU8pW05IMl0pYyhGKWMoRiljMVNbQ0gyXVtDSDJdW0NIM10=

> <s_epik_cmdline>
J2VwaWtfYXBwJywgJy1pbWFlJywgJ2xpZ2FuZF9wcm8ubWFlJywgJy1vbWFlJywgJ2xpZ2FuZF9wcmVwLm1hZScsICctbXMnLCAnMScsICctcGgnLCAnNycsICctcGh0JywgJzAuNScsICctbnQn

> <r_epik_Ionization_Penalty>
  0.0140

> <r_epik_Ionization_Penalty_Charging>
  0.0000

> <r_epik_Ionization_Penalty_Neutral>
  0.0140

> <r_epik_State_Penalty>
  0.0109

> <r_epik_Charging_Adjusted_Penalty>
0.010917201145961

> <i_epik_Tot_Q>
0

> <i_epik_Tot_abs_Q>
0

$$$$
