4ww8_ligand
                    3D
 Schrodinger Suite 2020-3.
 27 27  0  0  1  0            999 V2000
   23.0210    2.5850    8.7080 O   0  0  0  0  0  0
   23.6830    2.4010   10.0070 S   0  0  0  0  0  0
   24.7240    1.3220   10.0150 O   0  0  0  0  0  0
   22.6150    2.1410   11.1640 N   0  0  0  0  0  0
   24.5410    3.8900   10.2920 C   0  0  0  0  0  0
   25.9260    3.9260   10.2270 C   0  0  0  0  0  0
   26.6420    5.1260   10.4090 C   0  0  0  0  0  0
   25.8880    6.2490   10.7420 C   0  0  0  0  0  0
   24.4930    6.2820   10.8580 C   0  0  0  0  0  0
   23.8660    5.0310   10.6870 C   0  0  0  0  0  0
   26.6430    7.8580   10.9600 S   0  0  0  0  0  0
   28.3810    7.6430   10.3990 C   0  0  0  0  0  0
   28.4650    7.4590    8.9030 C   0  0  0  0  0  0
   29.9090    7.2310    8.4970 C   0  0  0  0  0  0
   22.0838    1.1980   10.9675 H   0  0  0  0  0  0
   21.8928    2.9703   11.1894 H   0  0  0  0  0  0
   26.4736    3.0042   10.0305 H   0  0  0  0  0  0
   27.7251    5.1729   10.2956 H   0  0  0  0  0  0
   23.9386    7.1978   11.0632 H   0  0  0  0  0  0
   22.7949    4.9592   10.8756 H   0  0  0  0  0  0
   28.9672    8.5328   10.6722 H   0  0  0  0  0  0
   28.8152    6.7553   10.8823 H   0  0  0  0  0  0
   27.8607    6.5891    8.6061 H   0  0  0  0  0  0
   28.0825    8.3598    8.4007 H   0  0  0  0  0  0
   29.9666    7.0974    7.4067 H   0  0  0  0  0  0
   30.2927    6.3298    8.9977 H   0  0  0  0  0  0
   30.5146    8.1005    8.7923 H   0  0  0  0  0  0
  1  2  2  0  0  0
  2  3  2  0  0  0
  2  4  1  0  0  0
  2  5  1  0  0  0
  4 15  1  0  0  0
  4 16  1  0  0  0
  5  6  2  0  0  0
  5 10  1  0  0  0
  6  7  1  0  0  0
  6 17  1  0  0  0
  7  8  2  0  0  0
  7 18  1  0  0  0
  8  9  1  0  0  0
  8 11  1  0  0  0
  9 10  2  0  0  0
  9 19  1  0  0  0
 10 20  1  0  0  0
 11 12  1  0  0  0
 12 13  1  0  0  0
 12 21  1  0  0  0
 12 22  1  0  0  0
 13 14  1  0  0  0
 13 23  1  0  0  0
 13 24  1  0  0  0
 14 25  1  0  0  0
 14 26  1  0  0  0
 14 27  1  0  0  0
M  END
> <s_m_source_file>
../4ww8_ligand.sdf

> <i_m_source_file_index>
1

> <s_epik_input>
Tz1TKD1PKShbTkgyXSljMVtjSF1bY0hdYyhbY0hdW2NIXTEpU1tDSDJdW0NIMl1bQ0gzXQ==

> <s_epik_cmdline>
J2VwaWtfYXBwJywgJy1pbWFlJywgJ2xpZ2FuZF9wcm8ubWFlJywgJy1vbWFlJywgJ2xpZ2FuZF9wcmVwLm1hZScsICctbXMnLCAnMScsICctcGgnLCAnNycsICctcGh0JywgJzAuNScsICctbnQn

> <r_lp_tautomer_probability>
1

> <r_epik_Ionization_Penalty>
  0.0008

> <r_epik_Ionization_Penalty_Charging>
  0.0000

> <r_epik_Ionization_Penalty_Neutral>
  0.0008

> <r_epik_State_Penalty>
 -0.0000

> <r_epik_Charging_Adjusted_Penalty>
0

> <i_epik_Tot_Q>
0

> <i_epik_Tot_abs_Q>
0

$$$$
