4wwp_ligand
                    3D
 Schrodinger Suite 2020-3.
 48 52  0  0  1  0            999 V2000
   17.1970   17.1240   21.6710 C   0  0  0  0  0  0
   17.9390   18.4450   21.5090 C   0  0  0  0  0  0
   17.5200   19.4780   22.2510 N   0  0  0  0  0  0
   18.0890   20.6660   22.1840 C   0  0  0  0  0  0
   19.1610   20.8850   21.3310 C   0  0  0  0  0  0
   19.6280   19.8520   20.5340 C   0  0  0  0  0  0
   19.0100   18.6140   20.6260 C   0  0  0  0  0  0
   19.5260   17.6150   19.8160 C   0  0  0  0  0  0
   19.0430   17.5150   18.5850 N   0  0  0  0  0  0
   19.4990   16.6020   17.7170 C   0  0  0  0  0  0
   18.9570   16.5230   16.4280 C   0  0  0  0  0  0
   17.6990   17.6020   15.9060 Cl  0  0  0  0  0  0
   19.4290   15.5670   15.5350 C   0  0  0  0  0  0
   20.4420   14.6960   15.9130 C   0  0  0  0  0  0
   20.9870   14.7830   17.1920 C   0  0  0  0  0  0
   20.5160   15.7300   18.0920 C   0  0  0  0  0  0
   21.0600   15.8070   19.3640 C   0  0  0  0  0  0
   20.5550   16.7600   20.2440 C   0  0  0  0  0  0
   21.1500   16.8630   21.6540 C   0  0  2  0  0  0
   22.3250   17.8290   21.5280 C   0  0  0  0  0  0
   21.6320   15.5570   22.1700 N   0  0  0  0  0  0
   20.8470   14.5520   22.5740 C   0  0  0  0  0  0
   21.4130   13.3520   23.0080 C   0  0  0  0  0  0
   22.6710   12.9250   23.1230 N   0  0  0  0  0  0
   22.6350   11.6810   23.5920 C   0  0  0  0  0  0
   21.3630   11.3160   23.7810 N   0  3  0  0  0  0
   20.5840   12.3270   23.4330 C   0  0  0  0  0  0
   19.2540   12.4840   23.4170 N   0  0  0  0  0  0
   18.7420   13.6380   22.9950 C   0  0  0  0  0  0
   19.5130   14.6540   22.5840 N   0  0  0  0  0  0
   16.3993   17.2409   22.4194 H   0  0  0  0  0  0
   17.9007   16.3466   22.0035 H   0  0  0  0  0  0
   16.7554   16.8309   20.7071 H   0  0  0  0  0  0
   17.7145   21.4813   22.8030 H   0  0  0  0  0  0
   19.6342   21.8660   21.2879 H   0  0  0  0  0  0
   20.4622   20.0090   19.8503 H   0  0  0  0  0  0
   19.0019   15.5013   14.5343 H   0  0  0  0  0  0
   20.8094   13.9469   15.2116 H   0  0  0  0  0  0
   21.7871   14.1045   17.4879 H   0  0  0  0  0  0
   21.8643   15.1372   19.6683 H   0  0  0  0  0  0
   20.3903   17.1799   22.3837 H   0  0  0  0  0  0
   21.9655   18.7957   21.1456 H   0  0  0  0  0  0
   23.0686   17.4131   20.8323 H   0  0  0  0  0  0
   22.7876   17.9744   22.5153 H   0  0  0  0  0  0
   22.7116   15.3588   22.2423 H   0  0  0  0  0  0
   23.5062   11.0569   23.7911 H   0  0  0  0  0  0
   17.6590   13.7606   22.9834 H   0  0  0  0  0  0
   21.1303   10.3127   24.1674 H   0  0  0  0  0  0
  1  2  1  0  0  0
  1 31  1  0  0  0
  1 32  1  0  0  0
  1 33  1  0  0  0
  2  3  2  0  0  0
  2  7  1  0  0  0
  3  4  1  0  0  0
  4  5  2  0  0  0
  4 34  1  0  0  0
  5  6  1  0  0  0
  5 35  1  0  0  0
  6  7  2  0  0  0
  6 36  1  0  0  0
  7  8  1  0  0  0
  8  9  2  0  0  0
  8 18  1  0  0  0
  9 10  1  0  0  0
 10 11  2  0  0  0
 10 16  1  0  0  0
 11 12  1  0  0  0
 11 13  1  0  0  0
 13 14  2  0  0  0
 13 37  1  0  0  0
 14 15  1  0  0  0
 14 38  1  0  0  0
 15 16  2  0  0  0
 15 39  1  0  0  0
 16 17  1  0  0  0
 17 18  2  0  0  0
 17 40  1  0  0  0
 18 19  1  0  0  0
 19 20  1  0  0  0
 19 21  1  0  0  0
 19 41  1  0  0  0
 20 42  1  0  0  0
 20 43  1  0  0  0
 20 44  1  0  0  0
 21 22  1  0  0  0
 21 45  1  0  0  0
 22 23  2  0  0  0
 22 30  1  0  0  0
 23 24  1  0  0  0
 23 27  1  0  0  0
 24 25  2  0  0  0
 25 26  1  0  0  0
 25 46  1  0  0  0
 26 27  2  0  0  0
 26 48  1  0  0  0
 27 28  1  0  0  0
 28 29  1  0  0  0
 29 30  2  0  0  0
 29 47  1  0  0  0
M  CHG  1  26   1
M  END
> <s_m_source_file>
../4wwp_ligand.sdf

> <i_m_source_file_index>
1

> <s_epik_input>
W0NIM11jMW5bY0hdW2NIXVtjSF1jMS1jKG4yKWMoW2NIXWMoYzIzKVtjSF1bY0hdW2NIXWMzQ2wpW0NASF0oW0NIM10pW05IXWM0bltjSF1bbkhdYyhjNDUpbltjSF1uNQ==

> <s_epik_cmdline>
J2VwaWtfYXBwJywgJy1pbWFlJywgJ2xpZ2FuZF9wcm8ubWFlJywgJy1vbWFlJywgJ2xpZ2FuZF9wcmVwLm1hZScsICctbXMnLCAnMScsICctcGgnLCAnNycsICctcGh0JywgJzAuNScsICctbnQn

> <r_epik_Ionization_Penalty>
  0.0057

> <r_epik_Ionization_Penalty_Charging>
  0.0000

> <r_epik_Ionization_Penalty_Neutral>
  0.0057

> <r_epik_State_Penalty>
  0.1334

> <r_epik_Charging_Adjusted_Penalty>
0.133370541057945

> <i_epik_Tot_Q>
1

> <i_epik_Tot_abs_Q>
1

$$$$
