4wx4_ligand
                    3D
 Schrodinger Suite 2020-3.
 55 57  0  0  1  0            999 V2000
   -6.5500   -2.7730   18.7340 C   0  0  0  0  0  0
   -7.3740   -3.1320   19.8090 C   0  0  0  0  0  0
   -7.3760   -2.3290   20.9700 C   0  0  0  0  0  0
  -11.3430   -4.8830   13.3720 C   0  0  0  0  0  0
  -10.0880   -5.1980   12.8410 C   0  0  0  0  0  0
   -8.9370   -5.0450   13.5800 C   0  0  0  0  0  0
   -9.0090   -4.5060   14.8830 C   0  0  0  0  0  0
  -10.2400   -4.1290   15.3540 C   0  0  0  0  0  0
  -11.4230   -4.3330   14.6220 C   0  0  0  0  0  0
  -10.0240   -5.7200   11.4040 C   0  0  0  0  0  0
   -9.4560   -7.1470   11.1040 C   0  0  0  0  0  0
   -7.9360   -6.9770   10.8430 C   0  0  0  0  0  0
   -7.7430   -4.3740   15.6310 C   0  0  0  0  0  0
   -6.9820   -7.5310   11.6740 C   0  0  0  0  0  0
   -5.6480   -7.3630   11.3700 C   0  0  0  0  0  0
   -5.2070   -6.6200   10.2860 C   0  0  0  0  0  0
   -6.1840   -6.0790    9.4670 C   0  0  0  0  0  0
   -7.5450   -6.2360    9.7320 C   0  0  0  0  0  0
  -13.6980   -5.0060   13.1840 C   0  0  0  0  0  0
   -6.5760   -1.2460   21.0500 N   0  0  0  0  0  0
   -5.7680   -0.9800   19.9200 C   0  0  0  0  0  0
   -5.7840   -1.7000   18.8180 N   0  0  0  0  0  0
   -6.4340   -3.5720   17.4810 C   0  0  0  0  0  0
   -7.7410   -3.6900   16.7890 N   0  0  0  0  0  0
   -4.9680    0.2080   20.0970 C   0  0  0  0  0  0
   -4.7820    0.9550   21.0380 N   0  0  0  0  0  0
  -10.3490   -4.9800   10.4910 O   0  0  0  0  0  0
  -12.4100   -5.0990   12.5530 O   0  0  0  0  0  0
   -4.4380   -8.0860   12.4010 Cl  0  0  0  0  0  0
   -5.6870   -5.1550    8.0780 Cl  0  0  0  0  0  0
   -9.7420   -8.0850   12.2740 C   0  0  0  0  0  0
  -10.1650   -7.6850    9.8160 C   0  0  0  0  0  0
   -6.6900   -4.8450   15.1780 O   0  0  0  0  0  0
   -8.0047   -4.0190   19.7496 H   0  0  0  0  0  0
   -8.0271   -2.5854   21.8057 H   0  0  0  0  0  0
   -7.9744   -5.3386   13.1613 H   0  0  0  0  0  0
  -10.3041   -3.6533   16.3326 H   0  0  0  0  0  0
  -12.3893   -4.0571   15.0442 H   0  0  0  0  0  0
   -7.2801   -8.0937   12.5587 H   0  0  0  0  0  0
   -4.1457   -6.4693   10.0884 H   0  0  0  0  0  0
   -8.2912   -5.7846    9.0781 H   0  0  0  0  0  0
  -14.4854   -5.1959   12.4398 H   0  0  0  0  0  0
  -13.8276   -3.9985   13.6060 H   0  0  0  0  0  0
  -13.7666   -5.7524   13.9891 H   0  0  0  0  0  0
   -5.7219   -3.0838   16.7994 H   0  0  0  0  0  0
   -6.0754   -4.5834   17.7229 H   0  0  0  0  0  0
   -8.6391   -3.2307   17.2278 H   0  0  0  0  0  0
   -4.4640    0.3961   19.1375 H   0  0  0  0  0  0
   -5.2860    0.7669   21.9975 H   0  0  0  0  0  0
   -9.2433   -7.7059   13.1782 H   0  0  0  0  0  0
   -9.3616   -9.0901   12.0395 H   0  0  0  0  0  0
  -10.8271   -8.1348   12.4472 H   0  0  0  0  0  0
   -9.9581   -7.0083    8.9738 H   0  0  0  0  0  0
  -11.2503   -7.7347    9.9885 H   0  0  0  0  0  0
   -9.7847   -8.6900    9.5808 H   0  0  0  0  0  0
  1  2  2  0  0  0
  1 22  1  0  0  0
  1 23  1  0  0  0
  2  3  1  0  0  0
  2 34  1  0  0  0
  3 20  2  0  0  0
  3 35  1  0  0  0
  4  5  2  0  0  0
  4  9  1  0  0  0
  4 28  1  0  0  0
  5  6  1  0  0  0
  5 10  1  0  0  0
  6  7  2  0  0  0
  6 36  1  0  0  0
  7  8  1  0  0  0
  7 13  1  0  0  0
  8  9  2  0  0  0
  8 37  1  0  0  0
  9 38  1  0  0  0
 10 11  1  0  0  0
 10 27  2  0  0  0
 11 12  1  0  0  0
 11 31  1  0  0  0
 11 32  1  0  0  0
 12 14  2  0  0  0
 12 18  1  0  0  0
 13 24  1  0  0  0
 13 33  2  0  0  0
 14 15  1  0  0  0
 14 39  1  0  0  0
 15 16  2  0  0  0
 15 29  1  0  0  0
 16 17  1  0  0  0
 16 40  1  0  0  0
 17 18  2  0  0  0
 17 30  1  0  0  0
 18 41  1  0  0  0
 19 28  1  0  0  0
 19 42  1  0  0  0
 19 43  1  0  0  0
 19 44  1  0  0  0
 20 21  1  0  0  0
 21 22  2  0  0  0
 21 25  1  0  0  0
 23 24  1  0  0  0
 23 45  1  0  0  0
 23 46  1  0  0  0
 24 47  1  0  0  0
 25 26  2  0  0  0
 25 48  1  0  0  0
 26 49  1  0  0  0
 31 50  1  0  0  0
 31 51  1  0  0  0
 31 52  1  0  0  0
 32 53  1  0  0  0
 32 54  1  0  0  0
 32 55  1  0  0  0
M  END
> <s_m_source_file>
../4wx4_ligand.sdf

> <i_m_source_file_index>
1

> <s_epik_input>
W0hdL049W0NIXVxjKG4xKW5bY0hdW2NIXWMxW0NIMl1bTkhdQyg9TyljKFtjSF1bY0hdMilbY0hdYyhjMk9bQ0gzXSlDKD1PKUMoW0NIM10pKFtDSDNdKWMzW2NIXWMoQ2wpW2NIXWMoQ2wpW2NIXTM=

> <s_epik_cmdline>
J2VwaWtfYXBwJywgJy1pbWFlJywgJ2xpZ2FuZF9wcm8ubWFlJywgJy1vbWFlJywgJ2xpZ2FuZF9wcmVwLm1hZScsICctbXMnLCAnMScsICctcGgnLCAnNycsICctcGh0JywgJzAuNScsICctbnQn

> <r_lp_tautomer_probability>
1

> <r_epik_Ionization_Penalty>
  0.0000

> <r_epik_Ionization_Penalty_Charging>
  0.0000

> <r_epik_Ionization_Penalty_Neutral>
  0.0000

> <r_epik_State_Penalty>
 -0.0000

> <r_epik_Charging_Adjusted_Penalty>
0

> <i_epik_Tot_Q>
0

> <i_epik_Tot_abs_Q>
0

> <s_epik_Chemistry_Notes>
This compound contains an electron-poor aromatic ring that is susceptible to covalent hydrolysis at low pH, typically resulting in measured values for nitrogen ring protonation that are around two units higher than predicted values. This compound has an imine and may undergo hydrolysis.

$$$$
