4wx6_ligand
                    3D
 Schrodinger Suite 2020-3.
 69 69  0  0  1  0            999 V2000
   37.1560   42.7860   12.4710 C   0  0  0  0  0  0
   37.7160   43.4290   13.5650 C   0  0  0  0  0  0
   38.9000   42.9540   14.1610 C   0  0  0  0  0  0
   39.4820   39.2770   17.2630 C   0  0  2  0  0  0
   38.2540   39.8750   17.8970 C   0  0  0  0  0  0
   40.5860   38.9970   18.3520 C   0  0  0  0  0  0
   40.2550   37.9080   19.4420 C   0  0  0  0  0  0
   41.9300   38.4980   17.7160 C   0  0  0  0  0  0
   40.7880   40.3790   19.0700 C   0  0  0  0  0  0
   36.3390   39.5020   19.2660 C   0  0  0  0  0  0
   35.9550   38.4590   20.2640 C   0  0  0  0  0  0
   35.0160   37.9850   22.5030 C   0  0  0  0  0  0
   33.4870   38.1270   22.5540 C   0  0  0  0  0  0
   32.9050   39.5420   22.7700 C   0  0  0  0  0  0
   33.9680   39.7940   25.2070 C   0  0  0  0  0  0
   39.5340   41.7960   13.6640 C   0  0  0  0  0  0
   38.9550   41.1490   12.5800 C   0  0  0  0  0  0
   37.7960   41.6550   12.0050 C   0  0  0  0  0  0
   37.1020   40.8470   10.6710 Cl  0  0  0  0  0  0
   36.8890   44.8550   14.1320 Cl  0  0  0  0  0  0
   40.8010   41.1880   14.2910 C   0  0  1  0  0  0
   40.2610   40.0380   15.1080 C   0  0  0  0  0  0
   41.7650   40.6700   13.3100 N   0  3  0  0  0  0
   40.0450   38.9390   14.5990 O   0  0  0  0  0  0
   39.9950   40.3220   16.4050 N   0  0  0  0  0  0
   37.5060   39.0030   18.5750 N   0  0  0  0  0  0
   38.0200   41.0940   17.8160 O   0  0  0  0  0  0
   35.4740   38.9070   21.4660 N   0  0  0  0  0  0
   36.0890   37.2910   19.8870 O   0  0  0  0  0  0
   32.3570   39.8870   24.3860 S   0  0  0  0  0  0
   31.5430   38.7020   24.7210 O   0  0  0  0  0  0
   31.8450   41.2530   24.5760 O   0  0  0  0  0  0
   43.1730   40.6990   13.7360 C   0  0  0  0  0  0
   44.0610   40.6310   12.4570 C   0  0  0  0  0  0
   36.2473   43.1586   11.9983 H   0  0  0  0  0  0
   39.3291   43.4841   15.0113 H   0  0  0  0  0  0
   39.2243   38.3741   16.6900 H   0  0  0  0  0  0
   40.1105   36.9328   18.9540 H   0  0  0  0  0  0
   39.3355   38.1908   19.9755 H   0  0  0  0  0  0
   41.0879   37.8402   20.1573 H   0  0  0  0  0  0
   41.7638   37.5304   17.2199 H   0  0  0  0  0  0
   42.6875   38.3803   18.5049 H   0  0  0  0  0  0
   42.2813   39.2334   16.9772 H   0  0  0  0  0  0
   39.8338   40.7079   19.5074 H   0  0  0  0  0  0
   41.1327   41.1251   18.3389 H   0  0  0  0  0  0
   41.5390   40.2720   19.8666 H   0  0  0  0  0  0
   35.5069   39.6624   18.5647 H   0  0  0  0  0  0
   36.5652   40.4434   19.7881 H   0  0  0  0  0  0
   35.4415   38.2472   23.4829 H   0  0  0  0  0  0
   35.2797   36.9463   22.2549 H   0  0  0  0  0  0
   33.0545   37.7783   21.6046 H   0  0  0  0  0  0
   33.0899   37.5215   23.3821 H   0  0  0  0  0  0
   33.6727   40.2940   22.5352 H   0  0  0  0  0  0
   32.0367   39.6860   22.1102 H   0  0  0  0  0  0
   34.3835   38.7828   25.0857 H   0  0  0  0  0  0
   33.8471   40.0147   26.2778 H   0  0  0  0  0  0
   34.6521   40.5281   24.7563 H   0  0  0  0  0  0
   39.4105   40.2431   12.1799 H   0  0  0  0  0  0
   41.3922   41.9314   14.8458 H   0  0  0  0  0  0
   41.5291   39.6197   13.0835 H   0  0  0  0  0  0
   41.7057   41.2663   12.3875 H   0  0  0  0  0  0
   40.1641   41.3313   16.8084 H   0  0  0  0  0  0
   37.7547   37.9323   18.6180 H   0  0  0  0  0  0
   35.4379   39.9925   21.6402 H   0  0  0  0  0  0
   43.3700   41.6300   14.2877 H   0  0  0  0  0  0
   43.3768   39.8366   14.3877 H   0  0  0  0  0  0
   45.1222   40.6511   12.7459 H   0  0  0  0  0  0
   43.8404   41.4937   11.8112 H   0  0  0  0  0  0
   43.8471   39.7002   11.9112 H   0  0  0  0  0  0
  1  2  2  0  0  0
  1 18  1  0  0  0
  1 35  1  0  0  0
  2  3  1  0  0  0
  2 20  1  0  0  0
  3 16  2  0  0  0
  3 36  1  0  0  0
  4  5  1  0  0  0
  4  6  1  0  0  0
  4 25  1  0  0  0
  4 37  1  0  0  0
  5 26  1  0  0  0
  5 27  2  0  0  0
  6  7  1  0  0  0
  6  8  1  0  0  0
  6  9  1  0  0  0
  7 38  1  0  0  0
  7 39  1  0  0  0
  7 40  1  0  0  0
  8 41  1  0  0  0
  8 42  1  0  0  0
  8 43  1  0  0  0
  9 44  1  0  0  0
  9 45  1  0  0  0
  9 46  1  0  0  0
 10 11  1  0  0  0
 10 26  1  0  0  0
 10 47  1  0  0  0
 10 48  1  0  0  0
 11 28  1  0  0  0
 11 29  2  0  0  0
 12 13  1  0  0  0
 12 28  1  0  0  0
 12 49  1  0  0  0
 12 50  1  0  0  0
 13 14  1  0  0  0
 13 51  1  0  0  0
 13 52  1  0  0  0
 14 30  1  0  0  0
 14 53  1  0  0  0
 14 54  1  0  0  0
 15 30  1  0  0  0
 15 55  1  0  0  0
 15 56  1  0  0  0
 15 57  1  0  0  0
 16 17  1  0  0  0
 16 21  1  0  0  0
 17 18  2  0  0  0
 17 58  1  0  0  0
 18 19  1  0  0  0
 21 22  1  0  0  0
 21 23  1  0  0  0
 21 59  1  0  0  0
 22 24  2  0  0  0
 22 25  1  0  0  0
 23 33  1  0  0  0
 23 60  1  0  0  0
 23 61  1  0  0  0
 25 62  1  0  0  0
 26 63  1  0  0  0
 28 64  1  0  0  0
 30 31  2  0  0  0
 30 32  2  0  0  0
 33 34  1  0  0  0
 33 65  1  0  0  0
 33 66  1  0  0  0
 34 67  1  0  0  0
 34 68  1  0  0  0
 34 69  1  0  0  0
M  CHG  1  23   1
M  END
> <s_m_source_file>
../4wx6_ligand.sdf

> <i_m_source_file_index>
1

> <s_epik_input>
Q2xjMVtjSF1jKENsKVtjSF1jKFtjSF0xKVtDQEhdKFtOSDIrXVtDSDJdW0NIM10pQyg9TylbTkhdW0NAQEhdKEMoW0NIM10pKFtDSDNdKVtDSDNdKUMoPU8pW05IXVtDSDJdQyg9TylbTkhdW0NIMl1bQ0gyXVtDSDJdUyg9TykoPU8pW0NIM10=

> <s_epik_cmdline>
J2VwaWtfYXBwJywgJy1pbWFlJywgJ2xpZ2FuZF9wcm8ubWFlJywgJy1vbWFlJywgJ2xpZ2FuZF9wcmVwLm1hZScsICctbXMnLCAnMScsICctcGgnLCAnNycsICctcGh0JywgJzAuNScsICctbnQn

> <r_epik_Ionization_Penalty>
  0.3406

> <r_epik_Ionization_Penalty_Charging>
  0.3406

> <r_epik_Ionization_Penalty_Neutral>
  0.0000

> <r_epik_State_Penalty>
  0.3362

> <r_epik_Charging_Adjusted_Penalty>
0.676787261789539

> <i_epik_Tot_Q>
1

> <i_epik_Tot_abs_Q>
1

$$$$
