4wx7_ligand
                    3D
 Schrodinger Suite 2020-3.
 54 55  0  0  1  0            999 V2000
   33.6190   51.4690  -15.5630 C   0  0  0  0  0  0
   33.5810   50.2490  -14.8360 C   0  0  0  0  0  0
   33.1940   49.0590  -15.4970 C   0  0  0  0  0  0
   32.4020   47.7780  -17.5580 C   0  0  0  0  0  0
   35.5130   47.0430  -13.2640 C   0  0  0  0  0  0
   35.2300   45.7310  -12.9000 C   0  0  0  0  0  0
   34.3840   45.4290  -11.8230 C   0  0  0  0  0  0
   33.8100   46.4870  -11.1070 C   0  0  0  0  0  0
   34.1070   47.8160  -11.4770 C   0  0  0  0  0  0
   31.1480   46.5520  -19.3100 C   0  0  0  0  0  0
   29.8470   46.9510  -19.9400 C   0  0  0  0  0  0
   29.5910   45.2390  -21.7900 C   0  0  0  0  0  0
   34.0530   53.9780  -15.5580 C   0  0  0  0  0  0
   36.4970   49.6750  -13.9590 C   0  0  0  0  0  0
   35.8020   50.3710  -11.6940 C   0  0  0  0  0  0
   28.3740   44.3880  -21.8270 C   0  0  0  0  0  0
   32.8290   49.0610  -16.8640 C   0  0  0  0  0  0
   32.8560   50.2850  -17.5440 C   0  0  0  0  0  0
   33.2450   51.4750  -16.9250 C   0  0  0  0  0  0
   34.0200   50.2200  -13.3910 C   0  0  0  0  0  0
   35.3110   49.5660  -12.9290 C   0  0  0  0  0  0
   33.3750   50.7350  -12.5070 O   0  0  0  0  0  0
   34.9790   48.1150  -12.5440 C   0  0  0  0  0  0
   33.9910   52.6670  -14.9130 O   0  0  0  0  0  0
   35.9470   44.4600  -13.8510 Cl  0  0  0  0  0  0
   32.7700   46.1810   -9.7330 Cl  0  0  0  0  0  0
   31.5660   47.7870  -18.6170 N   0  0  0  0  0  0
   32.8190   46.7270  -17.1180 O   0  0  0  0  0  0
   29.3260   47.9030  -19.4160 O   0  0  0  0  0  0
   29.2380   46.4150  -21.0190 N   0  0  0  0  0  0
   27.9660   43.9560  -22.8750 N   0  0  0  0  0  0
   33.1768   48.1214  -14.9414 H   0  0  0  0  0  0
   36.1586   47.2373  -14.1205 H   0  0  0  0  0  0
   34.1779   44.3942  -11.5494 H   0  0  0  0  0  0
   33.6492   48.6349  -10.9221 H   0  0  0  0  0  0
   30.9786   45.7132  -18.6188 H   0  0  0  0  0  0
   31.8557   46.2440  -20.0938 H   0  0  0  0  0  0
   30.5094   44.9078  -22.2969 H   0  0  0  0  0  0
   34.3701   54.7332  -14.8238 H   0  0  0  0  0  0
   33.0593   54.2415  -15.9493 H   0  0  0  0  0  0
   34.7763   53.9454  -16.3861 H   0  0  0  0  0  0
   36.6839   50.7336  -14.1922 H   0  0  0  0  0  0
   36.2321   49.1375  -14.8815 H   0  0  0  0  0  0
   37.4035   49.2300  -13.5228 H   0  0  0  0  0  0
   36.0320   51.4031  -11.9969 H   0  0  0  0  0  0
   36.7072   49.8986  -11.2847 H   0  0  0  0  0  0
   35.0144   50.3811  -10.9261 H   0  0  0  0  0  0
   27.8410   44.1496  -20.8947 H   0  0  0  0  0  0
   32.5630   50.3098  -18.5936 H   0  0  0  0  0  0
   33.2599   52.4061  -17.4916 H   0  0  0  0  0  0
   31.1936   48.7634  -18.9605 H   0  0  0  0  0  0
   28.3335   46.8865  -21.4309 H   0  0  0  0  0  0
   28.4951   44.1912  -23.8102 H   0  0  0  0  0  0
   27.0643   43.3263  -22.8967 H   0  0  0  0  0  0
  1  2  2  0  0  0
  1 19  1  0  0  0
  1 24  1  0  0  0
  2  3  1  0  0  0
  2 20  1  0  0  0
  3 17  2  0  0  0
  3 32  1  0  0  0
  4 17  1  0  0  0
  4 27  1  0  0  0
  4 28  2  0  0  0
  5  6  2  0  0  0
  5 23  1  0  0  0
  5 33  1  0  0  0
  6  7  1  0  0  0
  6 25  1  0  0  0
  7  8  2  0  0  0
  7 34  1  0  0  0
  8  9  1  0  0  0
  8 26  1  0  0  0
  9 23  2  0  0  0
  9 35  1  0  0  0
 10 11  1  0  0  0
 10 27  1  0  0  0
 10 36  1  0  0  0
 10 37  1  0  0  0
 11 29  2  0  0  0
 11 30  1  0  0  0
 12 16  2  0  0  0
 12 30  1  0  0  0
 12 38  1  0  0  0
 13 24  1  0  0  0
 13 39  1  0  0  0
 13 40  1  0  0  0
 13 41  1  0  0  0
 14 21  1  0  0  0
 14 42  1  0  0  0
 14 43  1  0  0  0
 14 44  1  0  0  0
 15 21  1  0  0  0
 15 45  1  0  0  0
 15 46  1  0  0  0
 15 47  1  0  0  0
 16 31  1  0  0  0
 16 48  1  0  0  0
 17 18  1  0  0  0
 18 19  2  0  0  0
 18 49  1  0  0  0
 19 50  1  0  0  0
 20 21  1  0  0  0
 20 22  2  0  0  0
 21 23  1  0  0  0
 27 51  1  0  0  0
 30 52  1  0  0  0
 31 53  1  0  0  0
 31 54  1  0  0  0
M  END
> <s_m_source_file>
../4wx7_ligand.sdf

> <i_m_source_file_index>
1

> <s_epik_input>
W2NIXTFjKENsKVtjSF1jKFtjSF1jMUNsKUMoW0NIM10pKFtDSDNdKUMoPU8pYyhjMk9bQ0gzXSlbY0hdYyhbY0hdW2NIXTIpQyg9TylbTkhdW0NIMl1DKD1PKVtOSF1bQ0gyXS9bQ0hdPU5cW0hd

> <s_epik_cmdline>
J2VwaWtfYXBwJywgJy1pbWFlJywgJ2xpZ2FuZF9wcm8ubWFlJywgJy1vbWFlJywgJ2xpZ2FuZF9wcmVwLm1hZScsICctbXMnLCAnMScsICctcGgnLCAnNycsICctcGh0JywgJzAuNScsICctbnQn

> <r_lp_tautomer_probability>
1

> <r_epik_Ionization_Penalty>
  0.0003

> <r_epik_Ionization_Penalty_Charging>
  0.0002

> <r_epik_Ionization_Penalty_Neutral>
  0.0000

> <r_epik_State_Penalty>
 -0.0000

> <r_epik_Charging_Adjusted_Penalty>
0.000239626540985735

> <i_epik_Tot_Q>
0

> <i_epik_Tot_abs_Q>
0

> <s_epik_Chemistry_Notes>
This compound has an imine and may undergo hydrolysis.

$$$$
