4wxi_ligand
                    3D
 Schrodinger Suite 2020-3.
 67 71  0  0  1  0            999 V2000
   44.6710  -21.0240   29.9870 C   0  0  0  0  0  0
   48.0600  -21.7420   32.3490 C   0  0  0  0  0  0
   41.2770  -20.5920   28.4550 C   0  0  0  0  0  0
   46.9880  -20.8590   30.6150 C   0  0  0  0  0  0
   39.7930  -23.1480   28.7650 C   0  0  0  0  0  0
   38.9350  -18.3080   29.1450 C   0  0  0  0  0  0
   37.0570  -16.6750   29.5400 C   0  0  0  0  0  0
   38.8170  -16.1700   27.7430 C   0  0  0  0  0  0
   36.1690  -15.6170   28.8960 C   0  0  0  0  0  0
   37.9120  -15.0640   27.1730 C   0  0  0  0  0  0
   38.0460  -17.2550   28.5220 C   0  0  1  0  0  0
   42.8720  -20.3320   26.7800 C   0  0  0  0  0  0
   46.7740  -21.6190   31.7730 C   0  0  0  0  0  0
   36.0570  -13.4210   27.7670 C   0  0  0  0  0  0
   41.1530  -25.3760   29.7200 C   0  0  0  0  0  0
   41.1770  -25.0580   28.3560 C   0  0  0  0  0  0
   40.4590  -24.5740   30.6120 C   0  0  0  0  0  0
   45.4740  -22.1030   32.0520 C   0  0  0  0  0  0
   44.4390  -21.8040   31.1440 C   0  0  0  0  0  0
   40.5010  -23.9420   27.8650 C   0  0  0  0  0  0
   39.7900  -23.4480   30.1310 C   0  0  0  0  0  0
   43.9010  -20.5410   27.6910 C   0  0  0  0  0  0
   45.9570  -20.5280   29.7090 C   0  0  0  0  0  0
   42.2450  -20.8290   29.4320 C   0  0  0  0  0  0
   43.5890  -20.7700   29.0400 C   0  0  0  0  0  0
   37.0070  -14.4950   28.2670 C   0  0  1  0  0  0
   39.1080  -21.8990   28.2890 C   0  0  0  0  0  0
   39.8060  -20.6420   28.8440 C   0  0  2  0  0  0
   41.5630  -20.3640   27.1330 N   0  0  0  0  0  0
   48.9900  -21.0540   31.6710 N   0  0  0  0  0  0
   48.3270  -20.5490   30.6250 N   0  0  0  0  0  0
   48.2680  -22.4190   33.5130 N   0  0  0  0  0  0
   36.7440  -12.2190   27.4830 N   0  3  0  0  0  0
   39.0390  -19.4840   28.4300 N   0  0  0  0  0  0
   39.5010  -18.0990   30.2030 O   0  0  0  0  0  0
   37.6253  -16.2231   30.3663 H   0  0  0  0  0  0
   36.4312  -17.4917   29.9290 H   0  0  0  0  0  0
   39.3476  -16.6702   26.9195 H   0  0  0  0  0  0
   39.5484  -15.7255   28.4340 H   0  0  0  0  0  0
   35.5577  -16.0815   28.1082 H   0  0  0  0  0  0
   35.5106  -15.1768   29.6593 H   0  0  0  0  0  0
   38.5350  -14.2533   26.7673 H   0  0  0  0  0  0
   37.2846  -15.4805   26.3712 H   0  0  0  0  0  0
   37.4565  -17.7926   27.7647 H   0  0  0  0  0  0
   43.1278  -20.1343   25.7391 H   0  0  0  0  0  0
   35.5634  -13.7675   26.8470 H   0  0  0  0  0  0
   35.2974  -13.2164   28.5359 H   0  0  0  0  0  0
   41.6823  -26.2577   30.0812 H   0  0  0  0  0  0
   41.7334  -25.6936   27.6671 H   0  0  0  0  0  0
   40.4361  -24.8192   31.6738 H   0  0  0  0  0  0
   45.2781  -22.6927   32.9475 H   0  0  0  0  0  0
   43.4313  -22.1929   31.3522 H   0  0  0  0  0  0
   40.5257  -23.6966   26.8033 H   0  0  0  0  0  0
   39.2604  -22.7964   30.8260 H   0  0  0  0  0  0
   44.9397  -20.5272   27.3609 H   0  0  0  0  0  0
   46.1769  -19.9058   28.8289 H   0  0  0  0  0  0
   41.9659  -21.0517   30.4618 H   0  0  0  0  0  0
   37.6786  -14.0257   29.0010 H   0  0  0  0  0  0
   39.1354  -21.8620   27.1900 H   0  0  0  0  0  0
   38.0621  -21.9017   28.6298 H   0  0  0  0  0  0
   39.8011  -20.6023   29.9433 H   0  0  0  0  0  0
   47.4363  -22.9549   33.9937 H   0  0  0  0  0  0
   49.2676  -22.4296   33.9720 H   0  0  0  0  0  0
   36.0290  -11.4640   27.1241 H   0  0  0  0  0  0
   37.5018  -12.4043   26.7075 H   0  0  0  0  0  0
   37.2359  -11.8532   28.3964 H   0  0  0  0  0  0
   38.4833  -19.5030   27.4808 H   0  0  0  0  0  0
  1 19  2  0  0  0
  1 23  1  0  0  0
  1 25  1  0  0  0
  2 13  2  0  0  0
  2 30  1  0  0  0
  2 32  1  0  0  0
  3 24  2  0  0  0
  3 28  1  0  0  0
  3 29  1  0  0  0
  4 13  1  0  0  0
  4 23  2  0  0  0
  4 31  1  0  0  0
  5 20  2  0  0  0
  5 21  1  0  0  0
  5 27  1  0  0  0
  6 11  1  0  0  0
  6 34  1  0  0  0
  6 35  2  0  0  0
  7  9  1  0  0  0
  7 11  1  0  0  0
  7 36  1  0  0  0
  7 37  1  0  0  0
  8 10  1  0  0  0
  8 11  1  0  0  0
  8 38  1  0  0  0
  8 39  1  0  0  0
  9 26  1  0  0  0
  9 40  1  0  0  0
  9 41  1  0  0  0
 10 26  1  0  0  0
 10 42  1  0  0  0
 10 43  1  0  0  0
 11 44  1  0  0  0
 12 22  1  0  0  0
 12 29  2  0  0  0
 12 45  1  0  0  0
 13 18  1  0  0  0
 14 26  1  0  0  0
 14 33  1  0  0  0
 14 46  1  0  0  0
 14 47  1  0  0  0
 15 16  2  0  0  0
 15 17  1  0  0  0
 15 48  1  0  0  0
 16 20  1  0  0  0
 16 49  1  0  0  0
 17 21  2  0  0  0
 17 50  1  0  0  0
 18 19  1  0  0  0
 18 51  1  0  0  0
 19 52  1  0  0  0
 20 53  1  0  0  0
 21 54  1  0  0  0
 22 25  2  0  0  0
 22 55  1  0  0  0
 23 56  1  0  0  0
 24 25  1  0  0  0
 24 57  1  0  0  0
 26 58  1  0  0  0
 27 28  1  0  0  0
 27 59  1  0  0  0
 27 60  1  0  0  0
 28 34  1  0  0  0
 28 61  1  0  0  0
 30 31  2  0  0  0
 32 62  1  0  0  0
 32 63  1  0  0  0
 33 64  1  0  0  0
 33 65  1  0  0  0
 33 66  1  0  0  0
 34 67  1  0  0  0
M  CHG  1  33   1
M  END
> <s_m_source_file>
../4wxi_ligand.sdf

> <i_m_source_file_index>
1

> <s_epik_input>
TjE9TkMoW05IMl0pPUMoQzE9MilbQ0gyXVtDSF09QyhbQ0hdMiljKFtjSF1bY0hdbjMpW2NIXWMzW0NASF0oW0NIMl1jNFtjSF1bY0hdW2NIXVtjSF1bY0hdNClbTkhdQyg9TylbQ0BIXTVbQ0gyXVtDSDJdW0NAQEhdKFtDSDJdW0NIMl01KVtDSDJdW05IMytd

> <s_epik_cmdline>
J2VwaWtfYXBwJywgJy1pbWFlJywgJ2xpZ2FuZF9wcm8ubWFlJywgJy1vbWFlJywgJ2xpZ2FuZF9wcmVwLm1hZScsICctbXMnLCAnMScsICctcGgnLCAnNycsICctcGh0JywgJzAuNScsICctbnQn

> <r_epik_Ionization_Penalty>
  0.3611

> <r_epik_Ionization_Penalty_Charging>
  0.0003

> <r_epik_Ionization_Penalty_Neutral>
  0.3608

> <r_epik_State_Penalty>
  0.3576

> <r_epik_Charging_Adjusted_Penalty>
0.357913022868161

> <i_epik_Tot_Q>
1

> <i_epik_Tot_abs_Q>
1

$$$$
