4wy1_ligand
                    3D
 Schrodinger Suite 2020-3.
 33 35  0  0  1  0            999 V2000
   24.5500   37.9850   41.3230 C   0  0  0  0  0  0
   21.1110   35.5930   39.9540 N   0  0  0  0  0  0
   25.6180   38.6420   42.0760 C   0  0  0  0  0  0
   26.2770   36.6200   40.2500 C   0  0  0  0  0  0
   22.6150   38.1450   43.0560 C   0  0  1  0  0  0
   27.2750   37.3190   40.9740 C   0  0  0  0  0  0
   23.0780   38.3490   41.5490 C   0  0  1  0  0  0
   21.6310   40.2890   41.3900 O   0  0  0  0  0  0
   21.2230   40.2310   42.8020 C   0  0  0  0  0  0
   21.2250   38.7730   43.3690 C   0  0  0  0  0  0
   22.9050   39.8540   41.1310 C   0  0  0  0  0  0
   24.9520   36.9670   40.4390 C   0  0  0  0  0  0
   22.8160   36.6720   43.5100 C   0  0  0  0  0  0
   21.8640   35.4900   42.4890 S   0  0  0  0  0  0
   21.7690   36.3390   40.9080 C   0  0  0  0  0  0
   22.2230   37.5480   40.5980 N   0  0  0  0  0  0
   26.9640   38.3480   41.8750 C   0  0  0  0  0  0
   25.3950   39.6530   42.9110 F   0  0  0  0  0  0
   28.5400   36.9700   40.7960 F   0  0  0  0  0  0
   20.7324   34.5909   40.2041 H   0  0  0  0  0  0
   26.5490   35.8237   39.5571 H   0  0  0  0  0  0
   23.2702   38.7235   43.7239 H   0  0  0  0  0  0
   21.9172   40.8305   43.4092 H   0  0  0  0  0  0
   20.2042   40.6325   42.9061 H   0  0  0  0  0  0
   20.4361   38.1750   42.8893 H   0  0  0  0  0  0
   21.0650   38.7856   44.4572 H   0  0  0  0  0  0
   23.6136   40.4757   41.6979 H   0  0  0  0  0  0
   23.1036   39.9607   40.0543 H   0  0  0  0  0  0
   24.1866   36.4292   39.8795 H   0  0  0  0  0  0
   23.8806   36.4064   43.4324 H   0  0  0  0  0  0
   22.4857   36.5616   44.5534 H   0  0  0  0  0  0
   27.7468   38.8970   42.3983 H   0  0  0  0  0  0
   20.9644   35.9997   38.9425 H   0  0  0  0  0  0
  1  3  2  0  0  0
  1  7  1  0  0  0
  1 12  1  0  0  0
  2 15  1  0  0  0
  2 20  1  0  0  0
  2 33  1  0  0  0
  3 17  1  0  0  0
  3 18  1  0  0  0
  4  6  1  0  0  0
  4 12  2  0  0  0
  4 21  1  0  0  0
  5  7  1  0  0  0
  5 10  1  0  0  0
  5 13  1  0  0  0
  5 22  1  0  0  0
  6 17  2  0  0  0
  6 19  1  0  0  0
  7 11  1  0  0  0
  7 16  1  0  0  0
  8  9  1  0  0  0
  8 11  1  0  0  0
  9 10  1  0  0  0
  9 23  1  0  0  0
  9 24  1  0  0  0
 10 25  1  0  0  0
 10 26  1  0  0  0
 11 27  1  0  0  0
 11 28  1  0  0  0
 12 29  1  0  0  0
 13 14  1  0  0  0
 13 30  1  0  0  0
 13 31  1  0  0  0
 14 15  1  0  0  0
 15 16  2  0  0  0
 17 32  1  0  0  0
M  END
> <s_m_source_file>
../4wy1_ligand.sdf

> <i_m_source_file_index>
1

> <s_epik_input>
W2NIXTFbY0hdYyhGKVtjSF1jKEYpYzFbQ0BAXTIzW0NAQEhdKFtDSDJdW0NIMl1PW0NIMl0yKVtDSDJdUy9DKD1OXFtIXSlbTkhdMw==

> <s_epik_cmdline>
J2VwaWtfYXBwJywgJy1pbWFlJywgJ2xpZ2FuZF9wcm8ubWFlJywgJy1vbWFlJywgJ2xpZ2FuZF9wcmVwLm1hZScsICctbXMnLCAnMScsICctcGgnLCAnNycsICctcGh0JywgJzAuNScsICctbnQn

> <r_lp_tautomer_probability>
1

> <r_epik_Ionization_Penalty>
  0.2089

> <r_epik_Ionization_Penalty_Charging>
  0.0000

> <r_epik_Ionization_Penalty_Neutral>
  0.2089

> <r_epik_State_Penalty>
 -0.0000

> <r_epik_Charging_Adjusted_Penalty>
0

> <i_epik_Tot_Q>
0

> <i_epik_Tot_abs_Q>
0

> <s_epik_Chemistry_Notes>
This compound has an imine and may undergo hydrolysis.

$$$$
