4wy3_ligand
                    3D
 Schrodinger Suite 2020-3.
 68 72  0  0  1  0            999 V2000
  -21.0300  -44.7730    1.3920 O   0  0  0  0  0  0
  -20.5690  -43.6450    1.4530 C   0  0  0  0  0  0
  -21.3940  -42.5090    2.0100 C   0  0  2  0  0  0
  -20.4920  -41.5640    2.7940 C   0  0  0  0  0  0
  -19.8000  -40.6210    1.8400 C   0  0  0  0  0  0
  -18.5780  -40.0730    2.0050 N   0  0  0  0  0  0
  -18.3200  -39.2900    0.9340 C   0  0  0  0  0  0
  -19.3770  -39.3420    0.0950 N   0  0  0  0  0  0
  -20.3050  -40.1600    0.6350 C   0  0  0  0  0  0
  -22.4360  -43.0500    2.9040 N   0  0  1  0  0  0
  -23.3880  -41.9820    3.2500 C   0  0  0  0  0  0
  -24.7610  -42.5940    3.5290 C   0  0  1  0  0  0
  -24.8730  -42.9890    5.0000 C   0  0  0  0  0  0
  -24.7540  -41.7770    5.9130 C   0  0  2  0  0  0
  -24.9510  -42.1890    7.3660 C   0  0  0  0  0  0
  -24.8580  -40.9770    8.2860 C   0  0  0  0  0  0
  -25.8460  -39.8910    7.8750 C   0  0  0  0  0  0
  -25.6640  -39.4990    6.4120 C   0  0  0  0  0  0
  -25.7730  -40.7230    5.5120 C   0  0  1  0  0  0
  -25.5640  -40.3270    4.0570 C   0  0  0  0  0  0
  -25.7640  -41.5530    3.2900 N   0  0  0  0  0  0
  -26.7520  -41.7760    2.4270 C   0  0  0  0  0  0
  -27.1490  -42.9030    2.1820 O   0  0  0  0  0  0
  -27.3910  -40.6050    1.7410 C   0  0  0  0  0  0
  -28.2890  -39.8000    2.4320 C   0  0  0  0  0  0
  -28.8810  -38.7150    1.7960 C   0  0  0  0  0  0
  -28.5750  -38.4350    0.4690 C   0  0  0  0  0  0
  -27.6770  -39.2410   -0.2220 C   0  0  0  0  0  0
  -27.0850  -40.3250    0.4140 C   0  0  0  0  0  0
  -29.2080  -37.2750   -0.2110 C   0  0  0  0  0  0
  -29.2600  -37.2260   -1.5990 C   0  0  0  0  0  0
  -29.8520  -36.1410   -2.2350 C   0  0  0  0  0  0
  -30.3930  -35.1050   -1.4830 C   0  0  0  0  0  0
  -30.3410  -35.1530   -0.0950 C   0  0  0  0  0  0
  -29.7490  -36.2380    0.5410 C   0  0  0  0  0  0
  -19.5454  -43.4494    1.1009 H   0  0  0  0  0  0
  -20.3005  -41.4915    3.8748 H   0  0  0  0  0  0
  -17.4097  -38.7123    0.7739 H   0  0  0  0  0  0
  -21.2522  -40.3420    0.1062 H   0  0  0  0  0  0
  -22.9693  -43.8657    2.3939 H   0  0  0  0  0  0
  -23.0340  -41.4515    4.1462 H   0  0  0  0  0  0
  -23.4655  -41.2741    2.4116 H   0  0  0  0  0  0
  -24.9385  -43.4593    2.8735 H   0  0  0  0  0  0
  -25.8484  -43.4652    5.1785 H   0  0  0  0  0  0
  -24.0685  -43.6955    5.2523 H   0  0  0  0  0  0
  -23.7470  -41.3470    5.8081 H   0  0  0  0  0  0
  -25.9422  -42.6509    7.4850 H   0  0  0  0  0  0
  -24.1728  -42.9125    7.6507 H   0  0  0  0  0  0
  -25.0837  -41.2822    9.3184 H   0  0  0  0  0  0
  -23.8412  -40.5596    8.2410 H   0  0  0  0  0  0
  -26.8735  -40.2588    8.0129 H   0  0  0  0  0  0
  -25.6895  -38.9981    8.4980 H   0  0  0  0  0  0
  -26.4424  -38.7761    6.1265 H   0  0  0  0  0  0
  -24.6723  -39.0431    6.2752 H   0  0  0  0  0  0
  -26.7803  -41.1494    5.6280 H   0  0  0  0  0  0
  -26.2953  -39.5538    3.7788 H   0  0  0  0  0  0
  -24.5456  -39.9321    3.9271 H   0  0  0  0  0  0
  -28.5289  -40.0195    3.4724 H   0  0  0  0  0  0
  -29.5852  -38.0836    2.3377 H   0  0  0  0  0  0
  -27.4376  -39.0223   -1.2626 H   0  0  0  0  0  0
  -26.3804  -40.9562   -0.1275 H   0  0  0  0  0  0
  -28.8364  -38.0387   -2.1891 H   0  0  0  0  0  0
  -29.8919  -36.1027   -3.3236 H   0  0  0  0  0  0
  -30.8581  -34.2548   -1.9818 H   0  0  0  0  0  0
  -30.7644  -34.3400    0.4948 H   0  0  0  0  0  0
  -29.7088  -36.2759    1.6296 H   0  0  0  0  0  0
  -17.9887  -40.3037    2.9047 H   0  0  0  0  0  0
  -21.8950  -41.9736    1.1901 H   0  0  0  0  0  0
  1  2  2  0  0  0
  2  3  1  0  0  0
  2 36  1  0  0  0
  3  4  1  0  0  0
  3 10  1  0  0  0
  3 68  1  0  0  0
  4  5  2  0  0  0
  4 37  1  0  0  0
  5  6  1  0  0  0
  5  9  1  0  0  0
  6  7  1  0  0  0
  6 67  1  0  0  0
  7  8  1  0  0  0
  7 38  1  0  0  0
  8  9  2  0  0  0
  9 39  1  0  0  0
 10 11  1  0  0  0
 10 40  1  0  0  0
 11 12  1  0  0  0
 11 41  1  0  0  0
 11 42  1  0  0  0
 12 13  1  0  0  0
 12 21  1  0  0  0
 12 43  1  0  0  0
 13 14  1  0  0  0
 13 44  1  0  0  0
 13 45  1  0  0  0
 14 15  1  0  0  0
 14 19  1  0  0  0
 14 46  1  0  0  0
 15 16  1  0  0  0
 15 47  1  0  0  0
 15 48  1  0  0  0
 16 17  1  0  0  0
 16 49  1  0  0  0
 16 50  1  0  0  0
 17 18  1  0  0  0
 17 51  1  0  0  0
 17 52  1  0  0  0
 18 19  1  0  0  0
 18 53  1  0  0  0
 18 54  1  0  0  0
 19 20  1  0  0  0
 19 55  1  0  0  0
 20 21  1  0  0  0
 20 56  1  0  0  0
 20 57  1  0  0  0
 21 22  1  0  0  0
 22 23  2  0  0  0
 22 24  1  0  0  0
 24 25  2  0  0  0
 24 29  1  0  0  0
 25 26  1  0  0  0
 25 58  1  0  0  0
 26 27  2  0  0  0
 26 59  1  0  0  0
 27 28  1  0  0  0
 27 30  1  0  0  0
 28 29  2  0  0  0
 28 60  1  0  0  0
 29 61  1  0  0  0
 30 31  2  0  0  0
 30 35  1  0  0  0
 31 32  1  0  0  0
 31 62  1  0  0  0
 32 33  2  0  0  0
 32 63  1  0  0  0
 33 34  1  0  0  0
 33 64  1  0  0  0
 34 35  2  0  0  0
 34 65  1  0  0  0
 35 66  1  0  0  0
M  END
> <s_m_source_file>
../4wy3_ligand.sdf

> <i_m_source_file_index>
1

> <s_epik_input>
W0NIXTE9TltDSDJdTj1DMVtDSDJdW0NAQEhdKFtDSF09TylbTkgyK11bQ0gyXVtDQEBIXShbQ0gyXTIpTihbQ0gyXVtDQEBIXShbQ0BIXTIzKVtDSDJdW0NIMl1bQ0gyXVtDSDJdMylDKD1PKWM0W2NIXVtjSF1jKFtjSF1bY0hdNCktYzVbY0hdW2NIXVtjSF1bY0hdW2NIXTU=

> <s_epik_cmdline>
J2VwaWtfYXBwJywgJy1pbWFlJywgJ2xpZ2FuZF9wcm8ubWFlJywgJy1vbWFlJywgJ2xpZ2FuZF9wcmVwLm1hZScsICctbXMnLCAnMScsICctcGgnLCAnNycsICctcGh0JywgJzAuNScsICctbnQn

> <r_epik_Ionization_Penalty>
  0.0235

> <r_epik_Ionization_Penalty_Charging>
  0.0000

> <r_epik_Ionization_Penalty_Neutral>
  0.0235

> <r_epik_State_Penalty>
  0.0190

> <r_epik_Charging_Adjusted_Penalty>
0.0190499204099917

> <i_epik_Tot_Q>
0

> <i_epik_Tot_abs_Q>
0

> <s_epik_Chemistry_Notes>
This compound has an imine and may undergo hydrolysis.

$$$$
