4wy7_ligand
                    3D
 Schrodinger Suite 2020-3.
292299  0  0  1  0            999 V2000
   12.5420  -11.9230  -30.8100 N   0  3  0  0  0  0
   13.1730  -11.4120  -29.5980 C   0  0  2  0  0  0
   13.7870  -10.0790  -29.8790 C   0  0  0  0  0  0
   14.7660   -9.9760  -30.6210 O   0  0  0  0  0  0
   14.2580  -12.3680  -29.0820 C   0  0  0  0  0  0
   14.8120  -11.9110  -27.7360 C   0  0  0  0  0  0
   14.3150  -10.9410  -27.1670 O   0  0  0  0  0  0
   15.8210  -12.6170  -27.2130 N   0  0  0  0  0  0
   13.2230   -9.0510  -29.2620 N   0  0  0  0  0  0
   13.7660   -7.6980  -29.3780 C   0  0  2  0  0  0
   15.2560   -7.6110  -29.0220 C   0  0  0  0  0  0
   16.0030   -6.8560  -29.6410 O   0  0  0  0  0  0
   12.9280   -6.7800  -28.4770 C   0  0  0  0  0  0
   13.2670   -5.3170  -28.4590 C   0  0  0  0  0  0
   12.7530   -4.3500  -29.2550 C   0  0  0  0  0  0
   14.2010   -4.6590  -27.5650 C   0  0  0  0  0  0
   13.3000   -3.1210  -28.9080 N   0  0  0  0  0  0
   14.1760   -3.2920  -27.8660 C   0  0  0  0  0  0
   15.0130   -5.1020  -26.5150 C   0  0  0  0  0  0
   14.9250   -2.3630  -27.1620 C   0  0  0  0  0  0
   15.7860   -4.1670  -25.8150 C   0  0  0  0  0  0
   15.7300   -2.8180  -26.1440 C   0  0  0  0  0  0
   15.7110   -8.4040  -28.0540 N   0  0  0  0  0  0
   17.1250   -8.3970  -27.6620 C   0  0  2  0  0  0
   18.1190   -8.8920  -28.7330 C   0  0  0  0  0  0
   19.3420   -8.7410  -28.5860 O   0  0  0  0  0  0
   17.2970   -9.1750  -26.3610 C   0  0  0  0  0  0
   16.6710   -8.4900  -25.1840 C   0  0  0  0  0  0
   15.3710   -8.7930  -24.7910 C   0  0  0  0  0  0
   17.3640   -7.5080  -24.5090 C   0  0  0  0  0  0
   14.7840   -8.1290  -23.7490 C   0  0  0  0  0  0
   16.7870   -6.8450  -23.4500 C   0  0  0  0  0  0
   15.5010   -7.1570  -23.0580 C   0  0  0  0  0  0
   17.6050   -9.4640  -29.8090 N   0  0  0  0  0  0
   18.4500   -9.9540  -30.9060 C   0  0  2  0  0  0
   18.5710   -8.9760  -32.0320 C   0  0  0  0  0  0
   19.4340   -9.1130  -32.9000 O   0  0  0  0  0  0
   17.8750  -11.2410  -31.4760 C   0  0  0  0  0  0
   18.0240  -12.4010  -30.5370 C   0  0  0  0  0  0
   18.9670  -12.3940  -29.7080 O   0  0  0  0  0  0
   17.1850  -13.3190  -30.6310 O   0  0  0  0  0  0
   17.7400   -7.9440  -32.0010 N   0  0  0  0  0  0
   17.6850   -6.9970  -33.0930 C   0  0  2  0  0  0
   19.0150   -6.3170  -33.3580 C   0  0  0  0  0  0
   19.4520   -6.1910  -34.5230 O   0  0  0  0  0  0
   16.5530   -5.9900  -32.8780 C   0  0  2  0  0  0
   15.2350   -6.7380  -32.9870 C   0  0  0  0  0  0
   16.5960   -4.9030  -33.9480 C   0  0  0  0  0  0
   14.0180   -5.9540  -32.5450 C   0  0  0  0  0  0
   19.6760   -5.8660  -32.3010 N   0  0  0  0  0  0
   20.8680   -5.0730  -32.5270 C   0  0  2  0  0  0
   21.9850   -5.9170  -33.1480 C   0  0  0  0  0  0
   22.8510   -5.3730  -33.8220 O   0  0  0  0  0  0
   21.3730   -4.3480  -31.2730 C   0  0  2  0  0  0
   21.5580   -5.2720  -30.1700 O   0  0  0  0  0  0
   20.4020   -3.1990  -30.9170 C   0  0  0  0  0  0
   21.9730   -7.2170  -32.8780 N   0  0  0  0  0  0
   22.9960   -8.1370  -33.4020 C   0  0  2  0  0  0
   22.8600   -8.2470  -34.9390 C   0  0  0  0  0  0
   23.8440   -8.1130  -35.6540 O   0  0  0  0  0  0
   22.9060   -9.4960  -32.7130 C   0  0  0  0  0  0
   23.8790  -10.5210  -33.2910 C   0  0  0  0  0  0
   23.4630  -11.4540  -33.9370 O   0  0  0  0  0  0
   25.1690  -10.3110  -33.1040 N   0  0  0  0  0  0
   21.6330   -8.4210  -35.4150 N   0  0  0  0  0  0
   21.3140   -8.4290  -36.8500 C   0  0  2  0  0  0
   21.7520   -7.0980  -37.4630 C   0  0  0  0  0  0
   22.3790   -7.0220  -38.5160 O   0  0  0  0  0  0
   19.8010   -8.6530  -37.0000 C   0  0  0  0  0  0
   19.1960   -8.3790  -38.3200 C   0  0  0  0  0  0
   19.2200   -9.1850  -39.4260 C   0  0  0  0  0  0
   18.4010   -7.2430  -38.6710 C   0  0  0  0  0  0
   18.5020   -8.6030  -40.4580 N   0  0  0  0  0  0
   17.9880   -7.4150  -40.0170 C   0  0  0  0  0  0
   17.9930   -6.0980  -37.9830 C   0  0  0  0  0  0
   17.2110   -6.4800  -40.6770 C   0  0  0  0  0  0
   17.2140   -5.1870  -38.6390 C   0  0  0  0  0  0
   16.8350   -5.3780  -39.9780 C   0  0  0  0  0  0
   21.4170   -6.0330  -36.7650 N   0  0  0  0  0  0
   21.7680   -4.7220  -37.2120 C   0  0  2  0  0  0
   23.2870   -4.6100  -37.3880 C   0  0  0  0  0  0
   23.7810   -4.1150  -38.4020 O   0  0  0  0  0  0
   21.2500   -3.7050  -36.2110 C   0  0  0  0  0  0
   21.1580   -2.2700  -36.6420 C   0  0  0  0  0  0
   20.3770   -2.1320  -37.9420 C   0  0  0  0  0  0
   20.4750   -1.4660  -35.5290 C   0  0  0  0  0  0
   24.0250   -5.0710  -36.3940 N   0  0  0  0  0  0
   25.4610   -5.0080  -36.4460 C   0  0  2  0  0  0
   26.0170   -5.7960  -37.6530 C   0  0  0  0  0  0
   26.9080   -5.3340  -38.3370 O   0  0  0  0  0  0
   26.0340   -5.5460  -35.1440 C   0  0  0  0  0  0
   27.5230   -5.6100  -35.1180 C   0  0  0  0  0  0
   28.3870   -4.6120  -34.7810 C   0  0  0  0  0  0
   28.3160   -6.7510  -35.4130 C   0  0  0  0  0  0
   29.6800   -5.0630  -34.8670 N   0  0  0  0  0  0
   29.6610   -6.3790  -35.2440 C   0  0  0  0  0  0
   28.0150   -8.0620  -35.7940 C   0  0  0  0  0  0
   30.7140   -7.2680  -35.4470 C   0  0  0  0  0  0
   29.0620   -8.9500  -35.9980 C   0  0  0  0  0  0
   30.3930   -8.5460  -35.8270 C   0  0  0  0  0  0
   25.4740   -6.9830  -37.8750 N   0  0  0  0  0  0
   25.8660   -7.8660  -38.9750 C   0  0  2  0  0  0
   25.5840   -7.2610  -40.3590 C   0  0  0  0  0  0
   26.4420   -7.2780  -41.2480 O   0  0  0  0  0  0
   25.1110   -9.1740  -38.8310 C   0  0  0  0  0  0
   25.5180  -10.2480  -39.7930 C   0  0  0  0  0  0
   26.8210  -10.7530  -39.7900 C   0  0  0  0  0  0
   24.5900  -10.8020  -40.7010 C   0  0  0  0  0  0
   27.2000  -11.7590  -40.6790 C   0  0  0  0  0  0
   24.9590  -11.8140  -41.5820 C   0  0  0  0  0  0
   26.2660  -12.2890  -41.5690 C   0  0  0  0  0  0
   26.6470  -13.2980  -42.4290 O   0  0  0  0  0  0
   24.3880   -6.7150  -40.5470 N   0  0  0  0  0  0
   24.0400   -6.1450  -41.8480 C   0  0  2  0  0  0
   24.7390   -4.8220  -42.1250 C   0  0  0  0  0  0
   24.9350   -4.4710  -43.2710 O   0  0  0  0  0  0
   22.5110   -6.0840  -42.0850 C   0  0  2  0  0  0
   21.8340   -5.0960  -41.1370 C   0  0  0  0  0  0
   21.9080   -7.4950  -41.9610 C   0  0  0  0  0  0
   20.3290   -5.2060  -41.1480 C   0  0  0  0  0  0
   25.1540   -4.0970  -41.0970 N   0  0  0  0  0  0
   25.9560   -2.8780  -41.3160 C   0  0  2  0  0  0
   27.4720   -3.0860  -41.5000 C   0  0  0  0  0  0
   28.1480   -2.1550  -41.9250 O   0  0  0  0  0  0
   25.7120   -1.8530  -40.2080 C   0  0  0  0  0  0
   24.5120   -0.9870  -40.5260 C   0  0  0  0  0  0
   23.9470   -0.3520  -39.2830 C   0  0  0  0  0  0
   22.7380    0.5070  -39.6280 C   0  0  0  0  0  0
   23.0890    1.8530  -40.1770 N   0  3  0  0  0  0
   28.0130   -4.2610  -41.1690 N   0  0  0  0  0  0
   29.4070   -4.5980  -41.5460 C   0  0  2  0  0  0
   29.5670   -4.6780  -43.0690 C   0  0  0  0  0  0
   30.3960   -3.9840  -43.6600 O   0  0  0  0  0  0
   29.8030   -5.9610  -41.0050 C   0  0  0  0  0  0
   30.2220   -6.0250  -39.5570 C   0  0  0  0  0  0
   30.8430   -7.3900  -39.2860 C   0  0  0  0  0  0
   29.9420   -8.5520  -39.7310 C   0  0  0  0  0  0
   30.6260   -9.8720  -39.6590 N   0  3  0  0  0  0
   28.7840   -5.5710  -43.6730 N   0  0  0  0  0  0
   28.6820   -5.7160  -45.1360 C   0  0  2  0  0  0
   28.0220   -4.4850  -45.8050 C   0  0  0  0  0  0
   28.2980   -4.1600  -46.9610 O   0  0  0  0  0  0
   27.9540   -7.0380  -45.5150 C   0  0  0  0  0  0
   26.7180   -7.4160  -44.6760 C   0  0  0  0  0  0
   26.6670   -8.8970  -44.2670 C   0  0  0  0  0  0
   25.9870   -9.7850  -45.3150 C   0  0  0  0  0  0
   24.5240   -9.5250  -45.4900 N   0  3  0  0  0  0
   27.2000   -3.7920  -45.2020 O   0  0  0  0  0  0
   11.7725  -11.2141  -31.1496 H   0  0  0  0  0  0
   12.0758  -12.8965  -30.5981 H   0  0  0  0  0  0
   13.3019  -12.0436  -31.5961 H   0  0  0  0  0  0
   12.3648  -11.3106  -28.8587 H   0  0  0  0  0  0
   13.8316  -13.3745  -28.9592 H   0  0  0  0  0  0
   15.0866  -12.4065  -29.8045 H   0  0  0  0  0  0
   16.2322  -13.4776  -27.7610 H   0  0  0  0  0  0
   16.2394  -12.3368  -26.2350 H   0  0  0  0  0  0
   12.3262   -9.2333  -28.6517 H   0  0  0  0  0  0
   13.6816   -7.4285  -30.4411 H   0  0  0  0  0  0
   11.8731   -6.8272  -28.7853 H   0  0  0  0  0  0
   13.0195   -7.1094  -27.4315 H   0  0  0  0  0  0
   12.0217   -4.5111  -30.0471 H   0  0  0  0  0  0
   15.0435   -6.1579  -26.2461 H   0  0  0  0  0  0
   14.8776   -1.3022  -27.4079 H   0  0  0  0  0  0
   16.4364   -4.5000  -25.0061 H   0  0  0  0  0  0
   16.3363   -2.1061  -25.5839 H   0  0  0  0  0  0
   15.0024   -9.0739  -27.5449 H   0  0  0  0  0  0
   17.3326   -7.3253  -27.5264 H   0  0  0  0  0  0
   16.8276  -10.1648  -26.4609 H   0  0  0  0  0  0
   18.3688   -9.2975  -26.1460 H   0  0  0  0  0  0
   14.8146   -9.5675  -25.3189 H   0  0  0  0  0  0
   18.3784   -7.2543  -24.8169 H   0  0  0  0  0  0
   13.7585   -8.3604  -23.4611 H   0  0  0  0  0  0
   17.3458   -6.0732  -22.9207 H   0  0  0  0  0  0
   15.0484   -6.6436  -22.2097 H   0  0  0  0  0  0
   16.5115   -9.5680  -29.8684 H   0  0  0  0  0  0
   19.4410  -10.0921  -30.4490 H   0  0  0  0  0  0
   16.8025  -11.1050  -31.6792 H   0  0  0  0  0  0
   18.3963  -11.4929  -32.4113 H   0  0  0  0  0  0
   19.0928  -13.2356  -29.0110 H   0  0  0  0  0  0
   17.0854   -7.8138  -31.1266 H   0  0  0  0  0  0
   17.4714   -7.6218  -33.9728 H   0  0  0  0  0  0
   16.6543   -5.5167  -31.8902 H   0  0  0  0  0  0
   15.0620   -7.0253  -34.0346 H   0  0  0  0  0  0
   15.2732   -7.6414  -32.3606 H   0  0  0  0  0  0
   17.5475   -4.3557  -33.8766 H   0  0  0  0  0  0
   15.7594   -4.2053  -33.7957 H   0  0  0  0  0  0
   16.5121   -5.3644  -34.9430 H   0  0  0  0  0  0
   13.1187   -6.5768  -32.6608 H   0  0  0  0  0  0
   13.9199   -5.0497  -33.1636 H   0  0  0  0  0  0
   14.1310   -5.6657  -31.4895 H   0  0  0  0  0  0
   19.3431   -6.0783  -31.2743 H   0  0  0  0  0  0
   20.5109   -4.3156  -33.2404 H   0  0  0  0  0  0
   22.3877   -3.9550  -31.4341 H   0  0  0  0  0  0
   22.2249   -6.1392  -30.2849 H   0  0  0  0  0  0
   20.2951   -2.5280  -31.7821 H   0  0  0  0  0  0
   20.8006   -2.6339  -30.0616 H   0  0  0  0  0  0
   19.4193   -3.6176  -30.6540 H   0  0  0  0  0  0
   21.1635   -7.6006  -32.2396 H   0  0  0  0  0  0
   23.9758   -7.7063  -33.1478 H   0  0  0  0  0  0
   23.1368   -9.3809  -31.6437 H   0  0  0  0  0  0
   21.8886   -9.8984  -32.8272 H   0  0  0  0  0  0
   25.5054   -9.4492  -32.5089 H   0  0  0  0  0  0
   25.9074  -10.9979  -33.5433 H   0  0  0  0  0  0
   20.8336   -8.5642  -34.6731 H   0  0  0  0  0  0
   21.8664   -9.2437  -37.3410 H   0  0  0  0  0  0
   19.5631   -9.7052  -36.7850 H   0  0  0  0  0  0
   19.2624   -8.0037  -36.2941 H   0  0  0  0  0  0
   19.7304  -10.1462  -39.4861 H   0  0  0  0  0  0
   18.2892   -5.9349  -36.9468 H   0  0  0  0  0  0
   16.9127   -6.6219  -41.7157 H   0  0  0  0  0  0
   16.8797   -4.2933  -38.1122 H   0  0  0  0  0  0
   16.2228   -4.6216  -40.4691 H   0  0  0  0  0  0
   20.8592   -6.1629  -35.8258 H   0  0  0  0  0  0
   21.2715   -4.5830  -38.1837 H   0  0  0  0  0  0
   20.2281   -3.9766  -35.9078 H   0  0  0  0  0  0
   21.9043   -3.6947  -35.3268 H   0  0  0  0  0  0
   22.1790   -1.9031  -36.8236 H   0  0  0  0  0  0
   20.8755   -2.7122  -38.7325 H   0  0  0  0  0  0
   20.3367   -1.0724  -38.2348 H   0  0  0  0  0  0
   19.3548   -2.5117  -37.7977 H   0  0  0  0  0  0
   21.0471   -1.5728  -34.5956 H   0  0  0  0  0  0
   19.4530   -1.8439  -35.3780 H   0  0  0  0  0  0
   20.4350   -0.4046  -35.8151 H   0  0  0  0  0  0
   23.5250   -5.5081  -35.5171 H   0  0  0  0  0  0
   25.6971   -3.9396  -36.5591 H   0  0  0  0  0  0
   25.7222   -4.8987  -34.3110 H   0  0  0  0  0  0
   25.6621   -6.5671  -34.9739 H   0  0  0  0  0  0
   28.0943   -3.6042  -34.4866 H   0  0  0  0  0  0
   26.9810   -8.3797  -35.9279 H   0  0  0  0  0  0
   31.7506   -6.9605  -35.3095 H   0  0  0  0  0  0
   28.8460   -9.9761  -36.2954 H   0  0  0  0  0  0
   31.1931   -9.2656  -36.0004 H   0  0  0  0  0  0
   24.6854   -7.2943  -37.1742 H   0  0  0  0  0  0
   26.9523   -8.0028  -38.8686 H   0  0  0  0  0  0
   25.2689   -9.5792  -37.8206 H   0  0  0  0  0  0
   24.0372   -8.9972  -38.9914 H   0  0  0  0  0  0
   27.5504  -10.3558  -39.0841 H   0  0  0  0  0  0
   23.5654  -10.4302  -40.7123 H   0  0  0  0  0  0
   28.2248  -12.1304  -40.6781 H   0  0  0  0  0  0
   24.2297  -12.2309  -42.2765 H   0  0  0  0  0  0
   27.6818  -13.6708  -42.4154 H   0  0  0  0  0  0
   23.6590   -6.6917  -39.7236 H   0  0  0  0  0  0
   24.4709   -6.8726  -42.5515 H   0  0  0  0  0  0
   22.3178   -5.7085  -43.1007 H   0  0  0  0  0  0
   22.1753   -5.2826  -40.1081 H   0  0  0  0  0  0
   22.0962   -4.0686  -41.4297 H   0  0  0  0  0  0
   22.4204   -8.1752  -42.6573 H   0  0  0  0  0  0
   20.8363   -7.4585  -42.2060 H   0  0  0  0  0  0
   22.0365   -7.8594  -40.9311 H   0  0  0  0  0  0
   19.9026   -4.4721  -40.4483 H   0  0  0  0  0  0
   20.0332   -6.2200  -40.8410 H   0  0  0  0  0  0
   19.9542   -5.0061  -42.1627 H   0  0  0  0  0  0
   24.8966   -4.4096  -40.0743 H   0  0  0  0  0  0
   25.5582   -2.5377  -42.2835 H   0  0  0  0  0  0
   25.5278   -2.3765  -39.2583 H   0  0  0  0  0  0
   26.5963   -1.2069  -40.1050 H   0  0  0  0  0  0
   24.8102   -0.1882  -41.2210 H   0  0  0  0  0  0
   23.7278   -1.6031  -40.9902 H   0  0  0  0  0  0
   23.6385   -1.1377  -38.5777 H   0  0  0  0  0  0
   24.7141    0.2814  -38.8137 H   0  0  0  0  0  0
   22.1285   -0.0056  -40.3868 H   0  0  0  0  0  0
   22.1347    0.6714  -38.7230 H   0  0  0  0  0  0
   22.1669    2.4098  -40.4001 H   0  0  0  0  0  0
   23.6760    1.7311  -41.0993 H   0  0  0  0  0  0
   23.6822    2.4081  -39.4354 H   0  0  0  0  0  0
   27.4051   -4.9849  -40.6065 H   0  0  0  0  0  0
   30.0159   -3.7943  -41.1064 H   0  0  0  0  0  0
   28.9536   -6.6537  -41.0989 H   0  0  0  0  0  0
   30.6577   -6.3490  -41.5786 H   0  0  0  0  0  0
   30.9579   -5.2333  -39.3529 H   0  0  0  0  0  0
   29.3413   -5.8816  -38.9137 H   0  0  0  0  0  0
   31.7947   -7.4746  -39.8311 H   0  0  0  0  0  0
   31.0272   -7.5014  -38.2073 H   0  0  0  0  0  0
   29.0549   -8.5973  -39.0822 H   0  0  0  0  0  0
   29.6266   -8.3933  -40.7728 H   0  0  0  0  0  0
   29.9346  -10.6617  -39.9882 H   0  0  0  0  0  0
   30.9386  -10.0669  -38.6225 H   0  0  0  0  0  0
   31.5103   -9.8629  -40.3131 H   0  0  0  0  0  0
   28.1924   -6.2226  -43.0131 H   0  0  0  0  0  0
   29.7280   -5.7599  -45.4736 H   0  0  0  0  0  0
   27.6003   -6.9767  -46.5548 H   0  0  0  0  0  0
   28.6515   -7.8826  -45.4142 H   0  0  0  0  0  0
   26.7088   -6.8235  -43.7493 H   0  0  0  0  0  0
   25.8052   -7.2078  -45.2534 H   0  0  0  0  0  0
   27.6907   -9.2733  -44.1240 H   0  0  0  0  0  0
   26.1043   -8.9987  -43.3273 H   0  0  0  0  0  0
   26.4608   -9.6244  -46.2947 H   0  0  0  0  0  0
   26.0927  -10.8409  -45.0252 H   0  0  0  0  0  0
   24.1203  -10.2028  -46.2565 H   0  0  0  0  0  0
   24.3721   -8.4823  -45.8058 H   0  0  0  0  0  0
   24.0041   -9.6987  -44.5363 H   0  0  0  0  0  0
   26.7445   -2.9223  -45.6981 H   0  0  0  0  0  0
  1  2  1  0  0  0
  1149  1  0  0  0
  1150  1  0  0  0
  1151  1  0  0  0
  2  3  1  0  0  0
  2  5  1  0  0  0
  2152  1  0  0  0
  3  4  2  0  0  0
  3  9  1  0  0  0
  5  6  1  0  0  0
  5153  1  0  0  0
  5154  1  0  0  0
  6  7  2  0  0  0
  6  8  1  0  0  0
  8155  1  0  0  0
  8156  1  0  0  0
  9 10  1  0  0  0
  9157  1  0  0  0
 10 11  1  0  0  0
 10 13  1  0  0  0
 10158  1  0  0  0
 11 12  2  0  0  0
 11 23  1  0  0  0
 13 14  1  0  0  0
 13159  1  0  0  0
 13160  1  0  0  0
 14 15  2  0  0  0
 14 16  1  0  0  0
 15 17  1  0  0  0
 15161  1  0  0  0
 16 18  2  0  0  0
 16 19  1  0  0  0
 17 18  1  0  0  0
 18 20  1  0  0  0
 19 21  2  0  0  0
 19162  1  0  0  0
 20 22  2  0  0  0
 20163  1  0  0  0
 21 22  1  0  0  0
 21164  1  0  0  0
 22165  1  0  0  0
 23 24  1  0  0  0
 23166  1  0  0  0
 24 25  1  0  0  0
 24 27  1  0  0  0
 24167  1  0  0  0
 25 26  2  0  0  0
 25 34  1  0  0  0
 27 28  1  0  0  0
 27168  1  0  0  0
 27169  1  0  0  0
 28 29  2  0  0  0
 28 30  1  0  0  0
 29 31  1  0  0  0
 29170  1  0  0  0
 30 32  2  0  0  0
 30171  1  0  0  0
 31 33  2  0  0  0
 31172  1  0  0  0
 32 33  1  0  0  0
 32173  1  0  0  0
 33174  1  0  0  0
 34 35  1  0  0  0
 34175  1  0  0  0
 35 36  1  0  0  0
 35 38  1  0  0  0
 35176  1  0  0  0
 36 37  2  0  0  0
 36 42  1  0  0  0
 38 39  1  0  0  0
 38177  1  0  0  0
 38178  1  0  0  0
 39 40  1  0  0  0
 39 41  2  0  0  0
 40179  1  0  0  0
 42 43  1  0  0  0
 42180  1  0  0  0
 43 44  1  0  0  0
 43 46  1  0  0  0
 43181  1  0  0  0
 44 45  2  0  0  0
 44 50  1  0  0  0
 46 47  1  0  0  0
 46 48  1  0  0  0
 46182  1  0  0  0
 47 49  1  0  0  0
 47183  1  0  0  0
 47184  1  0  0  0
 48185  1  0  0  0
 48186  1  0  0  0
 48187  1  0  0  0
 49188  1  0  0  0
 49189  1  0  0  0
 49190  1  0  0  0
 50 51  1  0  0  0
 50191  1  0  0  0
 51 52  1  0  0  0
 51 54  1  0  0  0
 51192  1  0  0  0
 52 53  2  0  0  0
 52 57  1  0  0  0
 54 55  1  0  0  0
 54 56  1  0  0  0
 54193  1  0  0  0
 55194  1  0  0  0
 56195  1  0  0  0
 56196  1  0  0  0
 56197  1  0  0  0
 57 58  1  0  0  0
 57198  1  0  0  0
 58 59  1  0  0  0
 58 61  1  0  0  0
 58199  1  0  0  0
 59 60  2  0  0  0
 59 65  1  0  0  0
 61 62  1  0  0  0
 61200  1  0  0  0
 61201  1  0  0  0
 62 63  2  0  0  0
 62 64  1  0  0  0
 64202  1  0  0  0
 64203  1  0  0  0
 65 66  1  0  0  0
 65204  1  0  0  0
 66 67  1  0  0  0
 66 69  1  0  0  0
 66205  1  0  0  0
 67 68  2  0  0  0
 67 79  1  0  0  0
 69 70  1  0  0  0
 69206  1  0  0  0
 69207  1  0  0  0
 70 71  2  0  0  0
 70 72  1  0  0  0
 71 73  1  0  0  0
 71208  1  0  0  0
 72 74  2  0  0  0
 72 75  1  0  0  0
 73 74  1  0  0  0
 74 76  1  0  0  0
 75 77  2  0  0  0
 75209  1  0  0  0
 76 78  2  0  0  0
 76210  1  0  0  0
 77 78  1  0  0  0
 77211  1  0  0  0
 78212  1  0  0  0
 79 80  1  0  0  0
 79213  1  0  0  0
 80 81  1  0  0  0
 80 83  1  0  0  0
 80214  1  0  0  0
 81 82  2  0  0  0
 81 87  1  0  0  0
 83 84  1  0  0  0
 83215  1  0  0  0
 83216  1  0  0  0
 84 85  1  0  0  0
 84 86  1  0  0  0
 84217  1  0  0  0
 85218  1  0  0  0
 85219  1  0  0  0
 85220  1  0  0  0
 86221  1  0  0  0
 86222  1  0  0  0
 86223  1  0  0  0
 87 88  1  0  0  0
 87224  1  0  0  0
 88 89  1  0  0  0
 88 91  1  0  0  0
 88225  1  0  0  0
 89 90  2  0  0  0
 89101  1  0  0  0
 91 92  1  0  0  0
 91226  1  0  0  0
 91227  1  0  0  0
 92 93  2  0  0  0
 92 94  1  0  0  0
 93 95  1  0  0  0
 93228  1  0  0  0
 94 96  2  0  0  0
 94 97  1  0  0  0
 95 96  1  0  0  0
 96 98  1  0  0  0
 97 99  2  0  0  0
 97229  1  0  0  0
 98100  2  0  0  0
 98230  1  0  0  0
 99100  1  0  0  0
 99231  1  0  0  0
100232  1  0  0  0
101102  1  0  0  0
101233  1  0  0  0
102103  1  0  0  0
102105  1  0  0  0
102234  1  0  0  0
103104  2  0  0  0
103113  1  0  0  0
105106  1  0  0  0
105235  1  0  0  0
105236  1  0  0  0
106107  2  0  0  0
106108  1  0  0  0
107109  1  0  0  0
107237  1  0  0  0
108110  2  0  0  0
108238  1  0  0  0
109111  2  0  0  0
109239  1  0  0  0
110111  1  0  0  0
110240  1  0  0  0
111112  1  0  0  0
112241  1  0  0  0
113114  1  0  0  0
113242  1  0  0  0
114115  1  0  0  0
114117  1  0  0  0
114243  1  0  0  0
115116  2  0  0  0
115121  1  0  0  0
117118  1  0  0  0
117119  1  0  0  0
117244  1  0  0  0
118120  1  0  0  0
118245  1  0  0  0
118246  1  0  0  0
119247  1  0  0  0
119248  1  0  0  0
119249  1  0  0  0
120250  1  0  0  0
120251  1  0  0  0
120252  1  0  0  0
121122  1  0  0  0
121253  1  0  0  0
122123  1  0  0  0
122125  1  0  0  0
122254  1  0  0  0
123124  2  0  0  0
123130  1  0  0  0
125126  1  0  0  0
125255  1  0  0  0
125256  1  0  0  0
126127  1  0  0  0
126257  1  0  0  0
126258  1  0  0  0
127128  1  0  0  0
127259  1  0  0  0
127260  1  0  0  0
128129  1  0  0  0
128261  1  0  0  0
128262  1  0  0  0
129263  1  0  0  0
129264  1  0  0  0
129265  1  0  0  0
130131  1  0  0  0
130266  1  0  0  0
131132  1  0  0  0
131134  1  0  0  0
131267  1  0  0  0
132133  2  0  0  0
132139  1  0  0  0
134135  1  0  0  0
134268  1  0  0  0
134269  1  0  0  0
135136  1  0  0  0
135270  1  0  0  0
135271  1  0  0  0
136137  1  0  0  0
136272  1  0  0  0
136273  1  0  0  0
137138  1  0  0  0
137274  1  0  0  0
137275  1  0  0  0
138276  1  0  0  0
138277  1  0  0  0
138278  1  0  0  0
139140  1  0  0  0
139279  1  0  0  0
140141  1  0  0  0
140143  1  0  0  0
140280  1  0  0  0
141142  2  0  0  0
141148  1  0  0  0
143144  1  0  0  0
143281  1  0  0  0
143282  1  0  0  0
144145  1  0  0  0
144283  1  0  0  0
144284  1  0  0  0
145146  1  0  0  0
145285  1  0  0  0
145286  1  0  0  0
146147  1  0  0  0
146287  1  0  0  0
146288  1  0  0  0
147289  1  0  0  0
147290  1  0  0  0
147291  1  0  0  0
148292  1  0  0  0
M  CHG  4   1   1 129   1 138   1 147   1
M  END
> <s_m_source_file>
../4wy7_ligand.sdf

> <i_m_source_file_index>
1

> <s_epik_input>
W2NIXTFbY0hdW2NIXVtjSF1jKGMxMilbbkhdW2NIXWMyW0NIMl1bQ0BIXShbTkhdQyg9TylbQ0BASF0oW05IMytdKVtDSDJdQyg9TylbTkgyXSlDKD1PKVtOSF1bQ0BASF0oW0NIMl1jM1tjSF1bY0hdW2NIXVtjSF1bY0hdMylDKD1PKVtOSF1bQ0BASF0oW0NIMl1DKD1PKVtPSF0pQyg9TylbTkhdW0NAQEhdKFtDQEBIXShbQ0gzXSlbQ0gyXVtDSDNdKUMoPU8pW05IXVtDQEBIXShbQ0BIXShbT0hdKVtDSDNdKUMoPU8pW05IXVtDQEBIXShbQ0gyXUMoPU8pW05IMl0pQyg9TylbTkhdW0NAQEhdKFtDSDJdYzRbY0hdW25IXWMoYzQ1KVtjSF1bY0hdW2NIXVtjSF01KUMoPU8pW05IXVtDQEBIXShbQ0gyXVtDSF0oW0NIM10pW0NIM10pQyg9TylbTkhdW0NAQEhdKFtDSDJdYzZbY0hdW25IXWMoYzY3KVtjSF1bY0hdW2NIXVtjSF03KUMoPU8pW05IXVtDQEBIXShbQ0gyXWM4W2NIXVtjSF1jKFtPSF0pW2NIXVtjSF04KUMoPU8pW05IXVtDQEBIXShbQ0BASF0oW0NIM10pW0NIMl1bQ0gzXSlDKD1PKVtOSF1bQ0BASF0oW0NIMl1bQ0gyXVtDSDJdW0NIMl1bTkgzK10pQyg9TylbTkhdW0NAQEhdKFtDSDJdW0NIMl1bQ0gyXVtDSDJdW05IMytdKUMoPU8pW05IXVtDQEhdKEMoPU8pW09IXSlbQ0gyXVtDSDJdW0NIMl1bQ0gyXVtOSDMrXQ==

> <s_epik_cmdline>
J2VwaWtfYXBwJywgJy1pbWFlJywgJ2xpZ2FuZF9wcm8ubWFlJywgJy1vbWFlJywgJ2xpZ2FuZF9wcmVwLm1hZScsICctbXMnLCAnMScsICctcGgnLCAnNycsICctcGh0JywgJzAuNScsICctbnQn

> <s_epik_pKa_notes>
Molecule size exceeds maximum supported for generating protonation states

$$$$
