4wym_ligand
                    3D
 Schrodinger Suite 2020-3.
197203  0  0  1  0            999 V2000
    1.9290  -66.1060  -56.7640 N   0  3  0  0  0  0
    2.1250  -64.8360  -56.0550 C   0  0  2  0  0  0
    0.8060  -64.2220  -55.5870 C   0  0  0  0  0  0
    0.1510  -63.5040  -56.3420 O   0  0  0  0  0  0
    2.8020  -63.9490  -57.1050 C   0  0  0  0  0  0
    2.3810  -64.5260  -58.4140 C   0  0  0  0  0  0
    2.2790  -66.0050  -58.1910 C   0  0  0  0  0  0
    0.4300  -64.5080  -54.3440 N   0  0  0  0  0  0
   -0.8120  -64.0020  -53.7710 C   0  0  2  0  0  0
   -0.7510  -62.4970  -53.5270 C   0  0  0  0  0  0
   -1.6660  -61.7600  -53.8940 O   0  0  0  0  0  0
   -1.1450  -64.7160  -52.4440 C   0  0  0  0  0  0
   -2.3080  -64.0330  -51.7360 C   0  0  0  0  0  0
   -1.4530  -66.1820  -52.6970 C   0  0  0  0  0  0
    0.3340  -62.0470  -52.9050 N   0  0  0  0  0  0
    0.5010  -60.6330  -52.5920 C   0  0  2  0  0  0
    1.6610  -60.0200  -53.3670 C   0  0  0  0  0  0
    2.7270  -60.6240  -53.4920 O   0  0  0  0  0  0
    0.7170  -60.4400  -51.0890 C   0  0  0  0  0  0
   -0.4760  -60.7720  -50.1920 C   0  0  0  0  0  0
   -0.1030  -60.6450  -48.7220 C   0  0  0  0  0  0
   -1.6490  -59.8680  -50.5310 C   0  0  0  0  0  0
    1.4410  -58.8160  -53.8840 N   0  0  0  0  0  0
    2.4640  -58.0960  -54.6310 C   0  0  2  0  0  0
    2.9310  -56.8620  -53.8580 C   0  0  0  0  0  0
    2.1830  -56.3220  -53.0420 O   0  0  0  0  0  0
    1.9330  -57.6960  -56.0100 C   0  0  0  0  0  0
    1.7150  -58.8580  -56.9370 C   0  0  0  0  0  0
    2.7820  -59.4440  -57.5990 C   0  0  0  0  0  0
    0.4430  -59.3620  -57.1510 C   0  0  0  0  0  0
    2.5850  -60.5110  -58.4540 C   0  0  0  0  0  0
    0.2400  -60.4290  -58.0060 C   0  0  0  0  0  0
    1.3130  -61.0040  -58.6570 C   0  0  0  0  0  0
    4.1770  -56.4240  -54.1010 N   0  0  0  0  0  0
    4.7140  -55.2370  -53.4240 C   0  0  2  0  0  0
    3.8800  -53.9840  -53.6690 C   0  0  0  0  0  0
    3.6210  -53.6320  -54.8200 O   0  0  0  0  0  0
    6.1060  -55.0820  -54.0410 C   0  0  0  0  0  0
    6.4710  -56.4450  -54.4940 C   0  0  0  0  0  0
    5.1920  -57.0830  -54.9420 C   0  0  0  0  0  0
    3.4650  -53.3260  -52.5910 N   0  0  0  0  0  0
    2.7250  -52.0830  -52.6990 C   0  0  0  0  0  0
    1.2370  -52.2250  -52.4420 C   0  0  0  0  0  0
    0.5980  -51.3020  -51.9360 O   0  0  0  0  0  0
    0.6810  -53.3800  -52.7930 N   0  0  0  0  0  0
   -0.7510  -53.6060  -52.6390 C   0  0  2  0  0  0
   -1.0870  -54.0090  -51.2060 C   0  0  0  0  0  0
   -0.3110  -54.7030  -50.5510 O   0  0  0  0  0  0
   -1.2400  -54.6740  -53.6230 C   0  0  0  0  0  0
   -0.9350  -56.1040  -53.2130 C   0  0  0  0  0  0
   -1.4640  -57.1180  -54.2040 C   0  0  0  0  0  0
   -1.3140  -56.9550  -55.4150 O   0  0  0  0  0  0
   -2.0930  -58.1710  -53.6940 N   0  0  0  0  0  0
   -2.2440  -53.5510  -50.7080 N   0  0  0  0  0  0
   -2.7100  -53.8710  -49.3540 C   0  0  2  0  0  0
   -2.9940  -55.3610  -49.1640 C   0  0  0  0  0  0
   -3.0880  -56.1030  -50.1440 O   0  0  0  0  0  0
   -3.9990  -53.0520  -49.2240 C   0  0  0  0  0  0
   -3.8590  -51.9610  -50.2240 C   0  0  0  0  0  0
   -3.1180  -52.5690  -51.3700 C   0  0  0  0  0  0
   -3.1170  -55.7870  -47.9110 N   0  0  0  0  0  0
   -3.4450  -57.1730  -47.5960 C   0  0  2  0  0  0
   -4.8990  -57.4790  -47.9550 C   0  0  0  0  0  0
   -5.7950  -56.6810  -47.6780 O   0  0  0  0  0  0
   -3.1970  -57.4640  -46.1120 C   0  0  0  0  0  0
   -1.7460  -57.4160  -45.7100 C   0  0  0  0  0  0
   -1.1490  -56.2200  -45.3430 C   0  0  0  0  0  0
   -0.9840  -58.5730  -45.6830 C   0  0  0  0  0  0
    0.1840  -56.1770  -44.9690 C   0  0  0  0  0  0
    0.3490  -58.5360  -45.3090 C   0  0  0  0  0  0
    0.9320  -57.3370  -44.9520 C   0  0  0  0  0  0
   -5.1280  -58.6350  -48.5710 N   0  0  0  0  0  0
   -6.4690  -59.0480  -48.9470 C   0  0  0  0  0  0
   -6.9620  -58.3970  -50.2260 C   0  0  0  0  0  0
   -8.1500  -58.4630  -50.5500 O   0  0  0  0  0  0
   -6.0460  -57.7700  -50.9560 N   0  0  0  0  0  0
   -6.3840  -57.1010  -52.2060 C   0  0  2  0  0  0
   -6.4890  -58.0970  -53.3560 C   0  0  0  0  0  0
   -5.5190  -58.7870  -53.6740 O   0  0  0  0  0  0
   -5.3420  -56.0290  -52.5340 C   0  0  0  0  0  0
   -5.6030  -55.2810  -53.8300 C   0  0  0  0  0  0
   -6.8590  -54.4360  -53.7740 C   0  0  0  0  0  0
   -7.6790  -54.4600  -54.6930 O   0  0  0  0  0  0
   -7.0150  -53.6770  -52.6960 N   0  0  0  0  0  0
   -7.6730  -58.1710  -53.9850 N   0  0  0  0  0  0
   -7.9180  -59.0600  -55.1260 C   0  0  2  0  0  0
   -7.0960  -58.6690  -56.3530 C   0  0  0  0  0  0
   -6.8380  -57.4820  -56.5560 O   0  0  0  0  0  0
   -9.4180  -58.8850  -55.3910 C   0  0  0  0  0  0
   -9.7460  -57.5400  -54.8370 C   0  0  0  0  0  0
   -8.8690  -57.3880  -53.6290 C   0  0  0  0  0  0
   -6.6860  -59.6630  -57.1600 N   0  0  0  0  0  0
   -5.8630  -59.4420  -58.3560 C   0  0  2  0  0  0
   -6.5230  -58.5080  -59.3670 C   0  0  0  0  0  0
   -5.8790  -58.1520  -60.3540 O   0  0  0  0  0  0
   -5.7120  -60.8510  -58.9430 C   0  0  0  0  0  0
   -5.9250  -61.7680  -57.7890 C   0  0  0  0  0  0
   -6.9580  -61.0940  -56.9390 C   0  0  0  0  0  0
   -7.7055  -58.1086  -59.1945 O   0  0  0  0  0  0
    2.5640  -66.8811  -56.3101 H   0  0  0  0  0  0
    0.8737  -66.4076  -56.6912 H   0  0  0  0  0  0
    2.7173  -64.9993  -55.1426 H   0  0  0  0  0  0
    2.4573  -62.9113  -56.9856 H   0  0  0  0  0  0
    3.8931  -63.9905  -56.9717 H   0  0  0  0  0  0
    1.4114  -64.0980  -58.7085 H   0  0  0  0  0  0
    3.1346  -64.2878  -59.1791 H   0  0  0  0  0  0
    3.2311  -66.5251  -58.3727 H   0  0  0  0  0  0
    1.4865  -66.4687  -58.7967 H   0  0  0  0  0  0
    1.0916  -65.1495  -53.7434 H   0  0  0  0  0  0
   -1.5631  -64.2227  -54.5438 H   0  0  0  0  0  0
   -0.2729  -64.6631  -51.7757 H   0  0  0  0  0  0
   -2.0620  -62.9747  -51.5640 H   0  0  0  0  0  0
   -2.4917  -64.5282  -50.7711 H   0  0  0  0  0  0
   -3.2101  -64.1028  -52.3616 H   0  0  0  0  0  0
   -0.6003  -66.6529  -53.2081 H   0  0  0  0  0  0
   -2.3500  -66.2645  -53.3283 H   0  0  0  0  0  0
   -1.6316  -66.6900  -51.7378 H   0  0  0  0  0  0
    1.1161  -62.7683  -52.6256 H   0  0  0  0  0  0
   -0.4385  -60.1605  -52.9145 H   0  0  0  0  0  0
    1.5416  -61.0850  -50.7513 H   0  0  0  0  0  0
    0.9677  -59.3882  -50.8866 H   0  0  0  0  0  0
   -0.7767  -61.8148  -50.3710 H   0  0  0  0  0  0
    0.7469  -61.3074  -48.5008 H   0  0  0  0  0  0
   -0.9632  -60.9319  -48.0994 H   0  0  0  0  0  0
    0.1769  -59.6039  -48.5034 H   0  0  0  0  0  0
   -1.8998  -59.9768  -51.5965 H   0  0  0  0  0  0
   -1.3781  -58.8224  -50.3230 H   0  0  0  0  0  0
   -2.5183  -60.1503  -49.9190 H   0  0  0  0  0  0
    0.4495  -58.3640  -53.7334 H   0  0  0  0  0  0
    3.3018  -58.8005  -54.7397 H   0  0  0  0  0  0
    0.9663  -57.1837  -55.8962 H   0  0  0  0  0  0
    2.6510  -57.0201  -56.4975 H   0  0  0  0  0  0
    3.7895  -59.0582  -57.4431 H   0  0  0  0  0  0
   -0.4079  -58.9122  -56.6394 H   0  0  0  0  0  0
    3.4337  -60.9627  -58.9675 H   0  0  0  0  0  0
   -0.7663  -60.8160  -58.1660 H   0  0  0  0  0  0
    1.1552  -61.8464  -59.3305 H   0  0  0  0  0  0
    4.6991  -55.3933  -52.3353 H   0  0  0  0  0  0
    6.0583  -54.3720  -54.8798 H   0  0  0  0  0  0
    6.8044  -54.7039  -53.2799 H   0  0  0  0  0  0
    7.1930  -56.3755  -55.3209 H   0  0  0  0  0  0
    6.9225  -57.0004  -53.6587 H   0  0  0  0  0  0
    5.1739  -58.1671  -54.7568 H   0  0  0  0  0  0
    4.9723  -56.8885  -56.0021 H   0  0  0  0  0  0
    3.6948  -53.7449  -51.6002 H   0  0  0  0  0  0
    3.1130  -51.3605  -51.9659 H   0  0  0  0  0  0
    2.8410  -51.6741  -53.7136 H   0  0  0  0  0  0
    1.3217  -54.1730  -53.2061 H   0  0  0  0  0  0
   -1.2225  -52.6389  -52.8681 H   0  0  0  0  0  0
   -2.3323  -54.6009  -53.7305 H   0  0  0  0  0  0
   -0.7638  -54.5162  -54.6020 H   0  0  0  0  0  0
    0.1541  -56.2399  -53.1391 H   0  0  0  0  0  0
   -1.3975  -56.3122  -52.2369 H   0  0  0  0  0  0
   -2.2017  -58.2720  -52.6041 H   0  0  0  0  0  0
   -2.5051  -58.9420  -54.3616 H   0  0  0  0  0  0
   -1.9269  -53.6227  -48.6225 H   0  0  0  0  0  0
   -4.8651  -53.6946  -49.4406 H   0  0  0  0  0  0
   -4.0816  -52.6582  -48.2002 H   0  0  0  0  0  0
   -4.8569  -51.6124  -50.5284 H   0  0  0  0  0  0
   -3.2986  -51.1255  -49.7791 H   0  0  0  0  0  0
   -2.5019  -51.8375  -51.9134 H   0  0  0  0  0  0
   -3.7816  -53.0872  -52.0778 H   0  0  0  0  0  0
   -2.9637  -55.0601  -47.0998 H   0  0  0  0  0  0
   -2.7704  -57.7792  -48.2184 H   0  0  0  0  0  0
   -3.7275  -56.7205  -45.4989 H   0  0  0  0  0  0
   -3.5671  -58.4710  -45.8689 H   0  0  0  0  0  0
   -1.7361  -55.3016  -45.3488 H   0  0  0  0  0  0
   -1.4393  -59.5240  -45.9595 H   0  0  0  0  0  0
    0.6417  -55.2284  -44.6885 H   0  0  0  0  0  0
    0.9375  -59.4534  -45.2966 H   0  0  0  0  0  0
    1.9809  -57.3062  -44.6572 H   0  0  0  0  0  0
   -4.2692  -59.2849  -48.7950 H   0  0  0  0  0  0
   -6.4875  -60.1369  -49.1015 H   0  0  0  0  0  0
   -7.1735  -58.7793  -48.1461 H   0  0  0  0  0  0
   -5.0077  -57.7649  -50.5927 H   0  0  0  0  0  0
   -7.3685  -56.6431  -52.0299 H   0  0  0  0  0  0
   -5.3203  -55.2801  -51.7286 H   0  0  0  0  0  0
   -4.3508  -56.4971  -52.6262 H   0  0  0  0  0  0
   -4.7562  -54.6124  -54.0444 H   0  0  0  0  0  0
   -5.7183  -56.0020  -54.6527 H   0  0  0  0  0  0
   -6.2554  -53.6888  -51.9005 H   0  0  0  0  0  0
   -7.9038  -53.0364  -52.5983 H   0  0  0  0  0  0
   -7.6123  -60.0872  -54.8782 H   0  0  0  0  0  0
   -9.6078  -58.9384  -56.4732 H   0  0  0  0  0  0
   -9.9761  -59.6840  -54.8810 H   0  0  0  0  0  0
   -9.5309  -56.7699  -55.5924 H   0  0  0  0  0  0
  -10.8124  -57.5036  -54.5697 H   0  0  0  0  0  0
   -9.3252  -57.8081  -52.7205 H   0  0  0  0  0  0
   -8.5813  -56.3424  -53.4450 H   0  0  0  0  0  0
   -4.9212  -58.9499  -58.0718 H   0  0  0  0  0  0
   -6.4658  -61.0032  -59.7295 H   0  0  0  0  0  0
   -4.7057  -60.9632  -59.3729 H   0  0  0  0  0  0
   -6.2766  -62.7436  -58.1559 H   0  0  0  0  0  0
   -4.9776  -61.9003  -57.2460 H   0  0  0  0  0  0
   -6.8445  -61.3280  -55.8702 H   0  0  0  0  0  0
   -7.9849  -61.3256  -57.2580 H   0  0  0  0  0  0
   -8.1714  -57.4357  -59.9294 H   0  0  0  0  0  0
  1  2  1  0  0  0
  1  7  1  0  0  0
  1100  1  0  0  0
  1101  1  0  0  0
  2  3  1  0  0  0
  2  5  1  0  0  0
  2102  1  0  0  0
  3  4  2  0  0  0
  3  8  1  0  0  0
  5  6  1  0  0  0
  5103  1  0  0  0
  5104  1  0  0  0
  6  7  1  0  0  0
  6105  1  0  0  0
  6106  1  0  0  0
  7107  1  0  0  0
  7108  1  0  0  0
  8  9  1  0  0  0
  8109  1  0  0  0
  9 10  1  0  0  0
  9 12  1  0  0  0
  9110  1  0  0  0
 10 11  2  0  0  0
 10 15  1  0  0  0
 12 13  1  0  0  0
 12 14  1  0  0  0
 12111  1  0  0  0
 13112  1  0  0  0
 13113  1  0  0  0
 13114  1  0  0  0
 14115  1  0  0  0
 14116  1  0  0  0
 14117  1  0  0  0
 15 16  1  0  0  0
 15118  1  0  0  0
 16 17  1  0  0  0
 16 19  1  0  0  0
 16119  1  0  0  0
 17 18  2  0  0  0
 17 23  1  0  0  0
 19 20  1  0  0  0
 19120  1  0  0  0
 19121  1  0  0  0
 20 21  1  0  0  0
 20 22  1  0  0  0
 20122  1  0  0  0
 21123  1  0  0  0
 21124  1  0  0  0
 21125  1  0  0  0
 22126  1  0  0  0
 22127  1  0  0  0
 22128  1  0  0  0
 23 24  1  0  0  0
 23129  1  0  0  0
 24 25  1  0  0  0
 24 27  1  0  0  0
 24130  1  0  0  0
 25 26  2  0  0  0
 25 34  1  0  0  0
 27 28  1  0  0  0
 27131  1  0  0  0
 27132  1  0  0  0
 28 29  2  0  0  0
 28 30  1  0  0  0
 29 31  1  0  0  0
 29133  1  0  0  0
 30 32  2  0  0  0
 30134  1  0  0  0
 31 33  2  0  0  0
 31135  1  0  0  0
 32 33  1  0  0  0
 32136  1  0  0  0
 33137  1  0  0  0
 34 35  1  0  0  0
 34 40  1  0  0  0
 35 36  1  0  0  0
 35 38  1  0  0  0
 35138  1  0  0  0
 36 37  2  0  0  0
 36 41  1  0  0  0
 38 39  1  0  0  0
 38139  1  0  0  0
 38140  1  0  0  0
 39 40  1  0  0  0
 39141  1  0  0  0
 39142  1  0  0  0
 40143  1  0  0  0
 40144  1  0  0  0
 41 42  1  0  0  0
 41145  1  0  0  0
 42 43  1  0  0  0
 42146  1  0  0  0
 42147  1  0  0  0
 43 44  2  0  0  0
 43 45  1  0  0  0
 45 46  1  0  0  0
 45148  1  0  0  0
 46 47  1  0  0  0
 46 49  1  0  0  0
 46149  1  0  0  0
 47 48  2  0  0  0
 47 54  1  0  0  0
 49 50  1  0  0  0
 49150  1  0  0  0
 49151  1  0  0  0
 50 51  1  0  0  0
 50152  1  0  0  0
 50153  1  0  0  0
 51 52  2  0  0  0
 51 53  1  0  0  0
 53154  1  0  0  0
 53155  1  0  0  0
 54 55  1  0  0  0
 54 60  1  0  0  0
 55 56  1  0  0  0
 55 58  1  0  0  0
 55156  1  0  0  0
 56 57  2  0  0  0
 56 61  1  0  0  0
 58 59  1  0  0  0
 58157  1  0  0  0
 58158  1  0  0  0
 59 60  1  0  0  0
 59159  1  0  0  0
 59160  1  0  0  0
 60161  1  0  0  0
 60162  1  0  0  0
 61 62  1  0  0  0
 61163  1  0  0  0
 62 63  1  0  0  0
 62 65  1  0  0  0
 62164  1  0  0  0
 63 64  2  0  0  0
 63 72  1  0  0  0
 65 66  1  0  0  0
 65165  1  0  0  0
 65166  1  0  0  0
 66 67  2  0  0  0
 66 68  1  0  0  0
 67 69  1  0  0  0
 67167  1  0  0  0
 68 70  2  0  0  0
 68168  1  0  0  0
 69 71  2  0  0  0
 69169  1  0  0  0
 70 71  1  0  0  0
 70170  1  0  0  0
 71171  1  0  0  0
 72 73  1  0  0  0
 72172  1  0  0  0
 73 74  1  0  0  0
 73173  1  0  0  0
 73174  1  0  0  0
 74 75  2  0  0  0
 74 76  1  0  0  0
 76 77  1  0  0  0
 76175  1  0  0  0
 77 78  1  0  0  0
 77 80  1  0  0  0
 77176  1  0  0  0
 78 79  2  0  0  0
 78 85  1  0  0  0
 80 81  1  0  0  0
 80177  1  0  0  0
 80178  1  0  0  0
 81 82  1  0  0  0
 81179  1  0  0  0
 81180  1  0  0  0
 82 83  2  0  0  0
 82 84  1  0  0  0
 84181  1  0  0  0
 84182  1  0  0  0
 85 86  1  0  0  0
 85 91  1  0  0  0
 86 87  1  0  0  0
 86 89  1  0  0  0
 86183  1  0  0  0
 87 88  2  0  0  0
 87 92  1  0  0  0
 89 90  1  0  0  0
 89184  1  0  0  0
 89185  1  0  0  0
 90 91  1  0  0  0
 90186  1  0  0  0
 90187  1  0  0  0
 91188  1  0  0  0
 91189  1  0  0  0
 92 93  1  0  0  0
 92 98  1  0  0  0
 93 94  1  0  0  0
 93 96  1  0  0  0
 93190  1  0  0  0
 94 95  2  0  0  0
 94 99  1  0  0  0
 96 97  1  0  0  0
 96191  1  0  0  0
 96192  1  0  0  0
 97 98  1  0  0  0
 97193  1  0  0  0
 97194  1  0  0  0
 98195  1  0  0  0
 98196  1  0  0  0
 99197  1  0  0  0
M  CHG  1   1   1
M  END
> <s_m_source_file>
../4wym_ligand.sdf

> <i_m_source_file_index>
1

> <s_epik_input>
W0NIMl0xW0NIMl1bQ0gyXVtOSDIrXVtDQEBIXTFDKD1PKVtOSF1bQ0BASF0oW0NIXShbQ0gzXSlbQ0gzXSlDKD1PKVtOSF1bQ0BASF0oW0NIMl1bQ0hdKFtDSDNdKVtDSDNdKUMoPU8pW05IXVtDQEBIXShbQ0gyXWMyW2NIXVtjSF1bY0hdW2NIXVtjSF0yKUMoPU8pTjNbQ0BASF0oW0NIMl1bQ0gyXVtDSDJdMylDKD1PKVtOSF1bQ0gyXUMoPU8pW05IXVtDQEBIXShbQ0gyXVtDSDJdQyg9TylbTkgyXSlDKD1PKU40W0NAQEhdKFtDSDJdW0NIMl1bQ0gyXTQpQyg9TylbTkhdW0NAQEhdKFtDSDJdYzVbY0hdW2NIXVtjSF1bY0hdW2NIXTUpQyg9TylbTkhdW0NIMl1DKD1PKVtOSF1bQ0BASF0oW0NIMl1bQ0gyXUMoPU8pW05IMl0pQyg9TylONltDQEBIXShbQ0gyXVtDSDJdW0NIMl02KUMoPU8pTjdbQ0BIXShDKD1PKVtPSF0pW0NIMl1bQ0gyXVtDSDJdNw==

> <s_epik_cmdline>
J2VwaWtfYXBwJywgJy1pbWFlJywgJ2xpZ2FuZF9wcm8ubWFlJywgJy1vbWFlJywgJ2xpZ2FuZF9wcmVwLm1hZScsICctbXMnLCAnMScsICctcGgnLCAnNycsICctcGh0JywgJzAuNScsICctbnQn

> <s_epik_pKa_notes>
Molecule size exceeds maximum supported for generating protonation states

$$$$
