4wyo_ligand
                    3D
 Schrodinger Suite 2020-3.
 54 58  0  0  1  0            999 V2000
   11.5070  -10.3530  -18.8370 C   0  0  0  0  0  0
   10.0600  -10.9770  -22.3500 C   0  0  0  0  0  0
   10.7000  -11.2710  -20.9890 C   0  0  0  0  0  0
    5.6550   -9.0640  -15.6030 C   0  0  0  0  0  0
    7.3440  -11.2850  -15.4010 C   0  0  0  0  0  0
    4.5150   -8.1600  -15.5840 C   0  0  0  0  0  0
   10.1880   -7.3660  -22.4780 C   0  0  0  0  0  0
   10.5200  -10.0970  -20.0020 C   0  0  0  0  0  0
    9.0360  -10.0780  -19.5510 C   0  0  0  0  0  0
    8.8350   -9.1610  -18.3340 C   0  0  0  0  0  0
    9.7820   -9.5630  -17.2670 N   0  0  0  0  0  0
   11.2290   -9.4950  -17.5920 C   0  0  0  0  0  0
   10.8580   -8.8120  -20.5890 O   0  0  0  0  0  0
    9.6430  -11.8550  -23.0810 O   0  0  0  0  0  0
    9.3390   -9.9660  -16.0370 C   0  0  0  0  0  0
    7.8870  -10.0300  -15.7250 C   0  0  0  0  0  0
   10.1340  -10.3070  -15.1800 O   0  0  0  0  0  0
    7.0380   -8.9090  -15.8400 C   0  0  0  0  0  0
    5.9950  -11.4490  -15.2310 C   0  0  0  0  0  0
    5.1270  -10.3510  -15.2990 C   0  0  0  0  0  0
    3.4540   -8.8570  -15.2760 N   0  0  0  0  0  0
    3.7830  -10.2050  -15.0860 N   0  0  0  0  0  0
   10.3850   -8.5240  -21.8290 C   0  0  0  0  0  0
   10.0050   -9.5610  -22.7470 C   0  0  0  0  0  0
    9.5610   -8.9880  -23.8250 N   0  0  0  0  0  0
    9.6790   -7.6970  -23.7100 N   0  0  0  0  0  0
    9.3210   -6.7640  -24.7850 C   0  0  0  0  0  0
    7.8800   -7.0660  -25.2190 C   0  0  0  0  0  0
    9.4790   -5.3080  -24.3110 C   0  0  0  0  0  0
   10.2690   -7.0060  -25.9700 C   0  0  0  0  0  0
   11.4450  -11.4071  -18.5288 H   0  0  0  0  0  0
   12.5315  -10.1275  -19.1681 H   0  0  0  0  0  0
   10.2331  -12.1648  -20.5497 H   0  0  0  0  0  0
   11.7777  -11.4477  -21.1210 H   0  0  0  0  0  0
    8.0073  -12.1419  -15.2831 H   0  0  0  0  0  0
    4.6558   -7.0925  -15.8089 H   0  0  0  0  0  0
   10.3913   -6.3631  -22.1024 H   0  0  0  0  0  0
    8.4071   -9.7096  -20.3749 H   0  0  0  0  0  0
    8.7227  -11.0964  -19.2778 H   0  0  0  0  0  0
    9.0253   -8.1176  -18.6257 H   0  0  0  0  0  0
    7.8017   -9.2571  -17.9691 H   0  0  0  0  0  0
   11.8166   -9.8776  -16.7444 H   0  0  0  0  0  0
   11.5137   -8.4520  -17.7944 H   0  0  0  0  0  0
    7.4557   -7.9283  -16.1116 H   0  0  0  0  0  0
    5.5947  -12.4555  -15.0394 H   0  0  0  0  0  0
    7.1985   -6.8938  -24.3729 H   0  0  0  0  0  0
    7.8064   -8.1151  -25.5414 H   0  0  0  0  0  0
    7.6024   -6.4055  -26.0537 H   0  0  0  0  0  0
    8.8043   -5.1235  -23.4621 H   0  0  0  0  0  0
    9.2266   -4.6247  -25.1352 H   0  0  0  0  0  0
   10.5190   -5.1354  -23.9970 H   0  0  0  0  0  0
   10.1643   -8.0445  -26.3172 H   0  0  0  0  0  0
   11.3068   -6.8287  -25.6514 H   0  0  0  0  0  0
   10.0144   -6.3180  -26.7896 H   0  0  0  0  0  0
  1  8  1  0  0  0
  1 12  1  0  0  0
  1 31  1  0  0  0
  1 32  1  0  0  0
  2  3  1  0  0  0
  2 14  2  0  0  0
  2 24  1  0  0  0
  3  8  1  0  0  0
  3 33  1  0  0  0
  3 34  1  0  0  0
  4  6  2  0  0  0
  4 18  1  0  0  0
  4 20  1  0  0  0
  5 16  1  0  0  0
  5 19  1  0  0  0
  5 35  1  0  0  0
  6 21  1  0  0  0
  6 36  1  0  0  0
  7 23  2  0  0  0
  7 26  1  0  0  0
  7 37  1  0  0  0
  8  9  1  0  0  0
  8 13  1  0  0  0
  9 10  1  0  0  0
  9 38  1  0  0  0
  9 39  1  0  0  0
 10 11  1  0  0  0
 10 40  1  0  0  0
 10 41  1  0  0  0
 11 12  1  0  0  0
 11 15  1  0  0  0
 12 42  1  0  0  0
 12 43  1  0  0  0
 13 23  1  0  0  0
 15 16  1  0  0  0
 15 17  2  0  0  0
 16 18  2  0  0  0
 18 44  1  0  0  0
 19 20  2  0  0  0
 19 45  1  0  0  0
 20 22  1  0  0  0
 21 22  2  0  0  0
 23 24  1  0  0  0
 24 25  2  0  0  0
 25 26  1  0  0  0
 26 27  1  0  0  0
 27 28  1  0  0  0
 27 29  1  0  0  0
 27 30  1  0  0  0
 28 46  1  0  0  0
 28 47  1  0  0  0
 28 48  1  0  0  0
 29 49  1  0  0  0
 29 50  1  0  0  0
 29 51  1  0  0  0
 30 52  1  0  0  0
 30 53  1  0  0  0
 30 54  1  0  0  0
M  END
> <s_m_source_file>
../4wyo_ligand.sdf

> <i_m_source_file_index>
1

> <s_epik_input>
W0NIM11DKFtDSDNdKShbQ0gzXSluKG4xKVtjSF1jKE8yKWMxQyg9TylbQ0gyXUMyM1tDSDJdW0NIMl1OKFtDSDJdW0NIMl0zKUMoPU8pQyg9W0NIXTQpW0NIMl1bQ0hdPUMoQzQ9NSlOPU5bQ0hdNQ==

> <s_epik_cmdline>
J2VwaWtfYXBwJywgJy1pbWFlJywgJ2xpZ2FuZF9wcm8ubWFlJywgJy1vbWFlJywgJ2xpZ2FuZF9wcmVwLm1hZScsICctbXMnLCAnMScsICctcGgnLCAnNycsICctcGh0JywgJzAuNScsICctbnQn

> <r_lp_tautomer_probability>
1

> <r_epik_Ionization_Penalty>
  0.0000

> <r_epik_Ionization_Penalty_Charging>
  0.0000

> <r_epik_Ionization_Penalty_Neutral>
  0.0000

> <r_epik_State_Penalty>
 -0.0000

> <r_epik_Charging_Adjusted_Penalty>
0

> <i_epik_Tot_Q>
0

> <i_epik_Tot_abs_Q>
0

$$$$
