4wyp_ligand
                    3D
 Schrodinger Suite 2020-3.
 35 37  0  0  1  0            999 V2000
   17.8790   -5.3440   -0.5650 P   0  0  0  0  0  0
   18.5580   -5.3480   -1.9130 O   0  5  0  0  0  0
   17.1020   -6.6160   -0.2500 O   0  5  0  0  0  0
   17.0620   -4.1230   -0.3490 O   0  0  0  0  0  0
   19.0260   -5.1050    0.5260 O   0  0  0  0  0  0
   19.8190   -6.1780    0.9950 C   0  0  0  0  0  0
   21.0700   -5.6990    1.6930 C   0  0  1  0  0  0
   21.9290   -5.0390    0.7290 O   0  0  0  0  0  0
   20.8840   -4.7190    2.8530 C   0  0  1  0  0  0
   21.7350   -5.1170    3.9340 O   0  0  0  0  0  0
   21.3940   -3.3940    2.2940 C   0  0  1  0  0  0
   21.9770   -2.5600    3.2700 O   0  0  0  0  0  0
   22.4320   -3.8470    1.2850 C   0  0  2  0  0  0
   22.7180   -2.9260    0.1780 N   0  0  0  0  0  0
   21.9810   -2.7430   -0.9300 C   0  0  0  0  0  0
   22.6030   -1.8760   -1.7480 N   0  0  0  0  0  0
   23.7620   -1.5180   -1.1550 C   0  0  0  0  0  0
   24.8110   -0.6570   -1.5140 C   0  0  0  0  0  0
   24.7590    0.0520   -2.7610 N   0  0  0  0  0  0
   25.8560   -0.5080   -0.6770 N   0  0  0  0  0  0
   25.8810   -1.1610    0.4880 C   0  0  0  0  0  0
   24.9060   -2.0030    0.8590 N   0  0  0  0  0  0
   23.8440   -2.1900    0.0580 C   0  0  0  0  0  0
   19.2373   -6.7788    1.7096 H   0  0  0  0  0  0
   20.1212   -6.8090    0.1462 H   0  0  0  0  0  0
   21.5272   -6.6173    2.0901 H   0  0  0  0  0  0
   19.8676   -4.6842    3.2722 H   0  0  0  0  0  0
   21.5351   -6.0536    4.4752 H   0  0  0  0  0  0
   20.6055   -2.7240    1.9207 H   0  0  0  0  0  0
   21.3582   -2.1438    4.0786 H   0  0  0  0  0  0
   23.3995   -3.9873    1.7892 H   0  0  0  0  0  0
   21.0245   -3.2240   -1.1347 H   0  0  0  0  0  0
   23.8987   -0.0805   -3.4335 H   0  0  0  0  0  0
   25.5795    0.7278   -3.0441 H   0  0  0  0  0  0
   26.7240   -1.0037    1.1608 H   0  0  0  0  0  0
  1  2  1  0  0  0
  1  3  1  0  0  0
  1  4  2  0  0  0
  1  5  1  0  0  0
  5  6  1  0  0  0
  6  7  1  0  0  0
  6 24  1  0  0  0
  6 25  1  0  0  0
  7  8  1  0  0  0
  7  9  1  0  0  0
  7 26  1  0  0  0
  8 13  1  0  0  0
  9 10  1  0  0  0
  9 11  1  0  0  0
  9 27  1  0  0  0
 10 28  1  0  0  0
 11 12  1  0  0  0
 11 13  1  0  0  0
 11 29  1  0  0  0
 12 30  1  0  0  0
 13 14  1  0  0  0
 13 31  1  0  0  0
 14 15  1  0  0  0
 14 23  1  0  0  0
 15 16  2  0  0  0
 15 32  1  0  0  0
 16 17  1  0  0  0
 17 18  2  0  0  0
 17 23  1  0  0  0
 18 19  1  0  0  0
 18 20  1  0  0  0
 19 33  1  0  0  0
 19 34  1  0  0  0
 20 21  2  0  0  0
 21 22  1  0  0  0
 21 35  1  0  0  0
 22 23  2  0  0  0
M  CHG  2   2  -1   3  -1
M  END
> <s_m_source_file>
../4wyp_ligand.sdf

> <i_m_source_file_index>
1

> <s_epik_input>
W09IXVAoPU8pKFtPSF0pT1tDSDJdW0NASF0xT1tDQEhdKFtDQEhdKFtPSF0pW0NAQEhdMVtPSF0pbihbY0hdbjIpYyhjMjMpbltjSF1uYzNbTkgyXQ==

> <s_epik_cmdline>
J2VwaWtfYXBwJywgJy1pbWFlJywgJ2xpZ2FuZF9wcm8ubWFlJywgJy1vbWFlJywgJ2xpZ2FuZF9wcmVwLm1hZScsICctbXMnLCAnMScsICctcGgnLCAnNycsICctcGh0JywgJzAuNScsICctbnQn

> <r_lp_tautomer_probability>
0.999997216410988

> <r_epik_Ionization_Penalty>
  0.1025

> <r_epik_Ionization_Penalty_Charging>
  0.1020

> <r_epik_Ionization_Penalty_Neutral>
  0.0004

> <r_epik_State_Penalty>
  0.0920

> <r_epik_Charging_Adjusted_Penalty>
0.194024004396068

> <i_epik_Tot_Q>
-2

> <i_epik_Tot_abs_Q>
2

> <s_epik_Chemistry_Notes>
This compound contains an acetal/aminal-like group ( X-CH(R)-Y where X, Y are N, S, or O) that may be acid/base labile, releasing an aldehyde.

$$$$
