4wyy_ligand
                    3D
 Schrodinger Suite 2020-3.
 37 39  0  0  1  0            999 V2000
   -6.6030  -12.2120   19.2740 C   0  0  0  0  0  0
   -6.4860  -13.5600   19.5850 C   0  0  0  0  0  0
   -5.2480  -14.2050   19.6390 C   0  0  0  0  0  0
   -5.6040  -10.0530   16.9440 O   0  0  0  0  0  0
   -2.5950  -11.5040   17.1450 C   0  0  0  0  0  0
   -1.7700  -10.4180   16.4870 C   0  0  0  0  0  0
   -2.7250  -14.1540   19.3870 C   0  0  0  0  0  0
   -5.1450  -15.6620   20.0180 C   0  0  0  0  0  0
   -8.5500  -14.5890   18.8590 C   0  0  0  0  0  0
   -8.2310  -14.2600   17.5150 C   0  0  0  0  0  0
  -10.2080  -15.1780   16.8500 C   0  0  0  0  0  0
  -10.5020  -15.5090   18.1640 C   0  0  0  0  0  0
   -0.9040   -9.8570   17.2270 O   0  5  0  0  0  0
   -1.9170  -10.1040   15.2970 O   0  0  0  0  0  0
   -3.1320  -11.1550   18.5650 C   0  0  1  0  0  0
   -3.7750   -9.8910   18.5450 O   0  0  0  0  0  0
   -5.1130  -10.0910   18.2170 B   0  0  0  0  0  0
   -4.2090  -12.1170   19.0160 C   0  0  0  0  0  0
   -5.4720  -11.4550   18.9330 C   0  0  0  0  0  0
   -4.0850  -13.4800   19.3450 C   0  0  0  0  0  0
   -7.6540  -14.3120   19.8570 O   0  0  0  0  0  0
   -9.6760  -15.2030   19.1830 N   0  0  0  0  0  0
   -9.0740  -14.5590   16.5150 N   0  0  0  0  0  0
   -7.5838  -11.7368   19.2950 H   0  0  0  0  0  0
   -5.4355   -9.1659   16.3158 H   0  0  0  0  0  0
   -3.4740  -11.7251   16.5218 H   0  0  0  0  0  0
   -1.9849  -12.4128   17.2539 H   0  0  0  0  0  0
   -2.8483  -15.2117   19.6627 H   0  0  0  0  0  0
   -2.0901  -13.6524   20.1322 H   0  0  0  0  0  0
   -2.2514  -14.0861   18.3965 H   0  0  0  0  0  0
   -6.1510  -16.0624   20.2119 H   0  0  0  0  0  0
   -4.5294  -15.7625   20.9240 H   0  0  0  0  0  0
   -4.6795  -16.2231   19.1943 H   0  0  0  0  0  0
   -7.2892  -13.7581   17.2929 H   0  0  0  0  0  0
  -10.9239  -15.4307   16.0678 H   0  0  0  0  0  0
  -11.4325  -16.0343   18.3795 H   0  0  0  0  0  0
   -2.2885  -11.1215   19.2702 H   0  0  0  0  0  0
  1  2  2  0  0  0
  1 19  1  0  0  0
  1 24  1  0  0  0
  2  3  1  0  0  0
  2 21  1  0  0  0
  3  8  1  0  0  0
  3 20  2  0  0  0
  4 17  1  0  0  0
  4 25  1  0  0  0
  5  6  1  0  0  0
  5 15  1  0  0  0
  5 26  1  0  0  0
  5 27  1  0  0  0
  6 13  1  0  0  0
  6 14  2  0  0  0
  7 20  1  0  0  0
  7 28  1  0  0  0
  7 29  1  0  0  0
  7 30  1  0  0  0
  8 31  1  0  0  0
  8 32  1  0  0  0
  8 33  1  0  0  0
  9 10  2  0  0  0
  9 21  1  0  0  0
  9 22  1  0  0  0
 10 23  1  0  0  0
 10 34  1  0  0  0
 11 12  1  0  0  0
 11 23  2  0  0  0
 11 35  1  0  0  0
 12 22  2  0  0  0
 12 36  1  0  0  0
 15 16  1  0  0  0
 15 18  1  0  0  0
 15 37  1  0  0  0
 16 17  1  0  0  0
 17 19  1  0  0  0
 18 19  2  0  0  0
 18 20  1  0  0  0
M  CHG  1  13  -1
M  END
> <s_m_source_file>
../4wyy_ligand.sdf

> <i_m_source_file_index>
1

> <s_epik_input>
W09IXUMoPU8pW0NIMl1bQ0BIXTFPQihbT0hdKWMoYzEyKVtjSF1jKGMoW0NIM10pYzJbQ0gzXSlPYzNbY0hdbltjSF1bY0hdbjM=

> <s_epik_cmdline>
J2VwaWtfYXBwJywgJy1pbWFlJywgJ2xpZ2FuZF9wcm8ubWFlJywgJy1vbWFlJywgJ2xpZ2FuZF9wcmVwLm1hZScsICctbXMnLCAnMScsICctcGgnLCAnNycsICctcGh0JywgJzAuNScsICctbnQn

> <r_lp_tautomer_probability>
1

> <r_epik_Ionization_Penalty>
  0.0011

> <r_epik_Ionization_Penalty_Charging>
  0.0011

> <r_epik_Ionization_Penalty_Neutral>
  0.0000

> <r_epik_State_Penalty>
 -0.0000

> <r_epik_Charging_Adjusted_Penalty>
0.00105272680545475

> <i_epik_Tot_Q>
-1

> <i_epik_Tot_abs_Q>
1

$$$$
