4wyz_ligand
                    3D
 Schrodinger Suite 2020-3.
 32 33  0  0  1  0            999 V2000
    5.1780  -24.4380  -27.4100 N   0  0  0  0  0  0
    6.1160  -24.2740  -26.3400 C   0  0  0  0  0  0
    6.4320  -25.3990  -25.5110 N   0  0  0  0  0  0
    5.8490  -26.6530  -25.7290 C   0  0  0  0  0  0
    4.8610  -26.8210  -26.8290 C   0  0  0  0  0  0
    4.5440  -25.7340  -27.6300 C   0  0  0  0  0  0
    6.6640  -23.1970  -26.1430 O   0  0  0  0  0  0
    6.1610  -27.5820  -24.9770 O   0  0  0  0  0  0
    4.8850  -20.7700  -31.9700 P   0  0  0  0  0  0
    5.2430  -19.3180  -31.9730 O   0  5  0  0  0  0
    3.7250  -20.8970  -32.9280 O   0  5  0  0  0  0
    6.0160  -21.4380  -32.6710 O   0  0  0  0  0  0
    2.4420  -25.0270  -30.1490 O   0  0  0  0  0  0
    1.9920  -23.7350  -30.1340 C   0  0  0  0  0  0
    3.0570  -22.8310  -29.5380 C   0  0  1  0  0  0
    3.4120  -23.3030  -28.2520 O   0  0  0  0  0  0
    4.2800  -22.7080  -30.4020 C   0  0  1  0  0  0
    4.5890  -21.3610  -30.5530 O   0  0  0  0  0  0
    5.2790  -23.4980  -29.6680 C   0  0  1  0  0  0
    6.5500  -23.0310  -29.8360 O   0  0  0  0  0  0
    4.8060  -23.3480  -28.2630 C   0  0  2  0  0  0
    7.1466  -25.2879  -24.6821 H   0  0  0  0  0  0
    4.3910  -27.7889  -27.0035 H   0  0  0  0  0  0
    3.8143  -25.8488  -28.4316 H   0  0  0  0  0  0
    1.8020  -25.8277  -30.5482 H   0  0  0  0  0  0
    1.7717  -23.4115  -31.1620 H   0  0  0  0  0  0
    1.0775  -23.6723  -29.5260 H   0  0  0  0  0  0
    2.6436  -21.8213  -29.3978 H   0  0  0  0  0  0
    4.2182  -23.0235  -31.4540 H   0  0  0  0  0  0
    5.4257  -24.5246  -30.0350 H   0  0  0  0  0  0
    7.0273  -23.0792  -30.8259 H   0  0  0  0  0  0
    5.2307  -22.4236  -27.8445 H   0  0  0  0  0  0
  1  2  1  0  0  0
  1  6  1  0  0  0
  1 21  1  0  0  0
  2  3  1  0  0  0
  2  7  2  0  0  0
  3  4  1  0  0  0
  3 22  1  0  0  0
  4  5  1  0  0  0
  4  8  2  0  0  0
  5  6  2  0  0  0
  5 23  1  0  0  0
  6 24  1  0  0  0
  9 10  1  0  0  0
  9 11  1  0  0  0
  9 12  2  0  0  0
  9 18  1  0  0  0
 13 14  1  0  0  0
 13 25  1  0  0  0
 14 15  1  0  0  0
 14 26  1  0  0  0
 14 27  1  0  0  0
 15 16  1  0  0  0
 15 17  1  0  0  0
 15 28  1  0  0  0
 16 21  1  0  0  0
 17 18  1  0  0  0
 17 19  1  0  0  0
 17 29  1  0  0  0
 19 20  1  0  0  0
 19 21  1  0  0  0
 19 30  1  0  0  0
 20 31  1  0  0  0
 21 32  1  0  0  0
M  CHG  2  10  -1  11  -1
M  END
> <s_m_source_file>
../4wyz_ligand.sdf

> <i_m_source_file_index>
1

> <s_epik_input>
W2NIXTFbY0hdYyg9TylbbkhdYyg9TyluMVtDQEhdKE9bQ0BASF0yW0NIMl1bT0hdKVtDQEhdKFtPSF0pW0NAQEhdMk9QKD1PKShbT0hdKVtPSF0=

> <s_epik_cmdline>
J2VwaWtfYXBwJywgJy1pbWFlJywgJ2xpZ2FuZF9wcm8ubWFlJywgJy1vbWFlJywgJ2xpZ2FuZF9wcmVwLm1hZScsICctbXMnLCAnMScsICctcGgnLCAnNycsICctcGh0JywgJzAuNScsICctbnQn

> <r_lp_tautomer_probability>
0.999537046341301

> <r_epik_Ionization_Penalty>
  0.0878

> <r_epik_Ionization_Penalty_Charging>
  0.0878

> <r_epik_Ionization_Penalty_Neutral>
  0.0000

> <r_epik_State_Penalty>
  0.0744

> <r_epik_Charging_Adjusted_Penalty>
0.162184601682533

> <i_epik_Tot_Q>
-2

> <i_epik_Tot_abs_Q>
2

> <s_epik_Chemistry_Notes>
This compound contains an acetal/aminal-like group ( X-CH(R)-Y where X, Y are N, S, or O) that may be acid/base labile, releasing an aldehyde.

$$$$
