4wz4_ligand
                    3D
 Schrodinger Suite 2020-3.
 36 38  0  0  1  0            999 V2000
   -6.6170  -12.4840   19.3580 C   0  0  0  0  0  0
   -6.4610  -13.8300   19.6830 C   0  0  0  0  0  0
   -5.2160  -14.4560   19.7150 C   0  0  0  0  0  0
   -5.7120  -10.3280   16.9990 O   0  0  0  0  0  0
   -2.6930  -11.6950   17.1130 C   0  0  0  0  0  0
   -1.8490  -10.5800   16.5190 C   0  0  0  0  0  0
   -2.7040  -14.3270   19.3830 C   0  0  0  0  0  0
   -5.0890  -15.9250   20.0520 C   0  0  0  0  0  0
   -8.5190  -14.8380   19.0760 C   0  0  0  0  0  0
  -10.3010  -15.6780   18.1610 C   0  0  0  0  0  0
   -0.9840   -9.9990   17.2580 O   0  5  0  0  0  0
   -2.0680  -10.2520   15.3540 O   0  0  0  0  0  0
   -3.2060  -11.3890   18.5180 C   0  0  1  0  0  0
   -3.8930  -10.1200   18.5660 O   0  0  0  0  0  0
   -5.2470  -10.3440   18.2890 B   0  0  0  0  0  0
   -4.2620  -12.3500   19.0260 C   0  0  0  0  0  0
   -5.5000  -11.6920   19.0330 C   0  0  0  0  0  0
   -4.0790  -13.6970   19.3860 C   0  0  0  0  0  0
   -7.6080  -14.5770   20.0540 O   0  0  0  0  0  0
   -8.4670  -14.2210   17.4320 S   0  0  0  0  0  0
   -9.8780  -15.0050   17.0800 N   0  0  0  0  0  0
   -9.5940  -15.5950   19.3020 N   0  0  0  0  0  0
  -11.4150  -16.4110   18.1240 N   0  0  0  0  0  0
   -7.6128  -12.0407   19.3555 H   0  0  0  0  0  0
   -5.5872   -9.4270   16.3805 H   0  0  0  0  0  0
   -3.5705  -11.8711   16.4735 H   0  0  0  0  0  0
   -2.0937  -12.6154   17.1748 H   0  0  0  0  0  0
   -2.7822  -15.3793   19.6936 H   0  0  0  0  0  0
   -2.0511  -13.7855   20.0833 H   0  0  0  0  0  0
   -2.2788  -14.2744   18.3699 H   0  0  0  0  0  0
   -6.0836  -16.3364   20.2790 H   0  0  0  0  0  0
   -4.4339  -16.0450   20.9275 H   0  0  0  0  0  0
   -4.6571  -16.4619   19.1945 H   0  0  0  0  0  0
   -2.3007  -11.3905   19.1429 H   0  0  0  0  0  0
  -11.9963  -16.4816   17.1928 H   0  0  0  0  0  0
  -11.7523  -16.9448   19.0247 H   0  0  0  0  0  0
  1  2  2  0  0  0
  1 17  1  0  0  0
  1 24  1  0  0  0
  2  3  1  0  0  0
  2 19  1  0  0  0
  3  8  1  0  0  0
  3 18  2  0  0  0
  4 15  1  0  0  0
  4 25  1  0  0  0
  5  6  1  0  0  0
  5 13  1  0  0  0
  5 26  1  0  0  0
  5 27  1  0  0  0
  6 11  1  0  0  0
  6 12  2  0  0  0
  7 18  1  0  0  0
  7 28  1  0  0  0
  7 29  1  0  0  0
  7 30  1  0  0  0
  8 31  1  0  0  0
  8 32  1  0  0  0
  8 33  1  0  0  0
  9 19  1  0  0  0
  9 20  1  0  0  0
  9 22  2  0  0  0
 10 21  2  0  0  0
 10 22  1  0  0  0
 10 23  1  0  0  0
 13 14  1  0  0  0
 13 16  1  0  0  0
 13 34  1  0  0  0
 14 15  1  0  0  0
 15 17  1  0  0  0
 16 17  2  0  0  0
 16 18  1  0  0  0
 20 21  1  0  0  0
 23 35  1  0  0  0
 23 36  1  0  0  0
M  CHG  1  11  -1
M  END
> <s_m_source_file>
../4wz4_ligand.sdf

> <i_m_source_file_index>
1

> <s_epik_input>
bjFjKFtOSDJdKW5zYzFPYyhjKFtDSDNdKWMyW0NIM10pW2NIXWMoYzIzKUIoW09IXSlPW0NAQEhdM1tDSDJdQyg9TylbT0hd

> <s_epik_cmdline>
J2VwaWtfYXBwJywgJy1pbWFlJywgJ2xpZ2FuZF9wcm8ubWFlJywgJy1vbWFlJywgJ2xpZ2FuZF9wcmVwLm1hZScsICctbXMnLCAnMScsICctcGgnLCAnNycsICctcGh0JywgJzAuNScsICctbnQn

> <r_lp_tautomer_probability>
1

> <r_epik_Ionization_Penalty>
  0.0010

> <r_epik_Ionization_Penalty_Charging>
  0.0010

> <r_epik_Ionization_Penalty_Neutral>
  0.0000

> <r_epik_State_Penalty>
 -0.0000

> <r_epik_Charging_Adjusted_Penalty>
0.000956966616250833

> <i_epik_Tot_Q>
-1

> <i_epik_Tot_abs_Q>
1

$$$$
