4wz5_ligand
                    3D
 Schrodinger Suite 2020-3.
 36 38  0  0  1  0            999 V2000
   18.0850  -10.0850   32.1200 C   0  0  0  0  0  0
   17.7990  -10.8840   31.0230 C   0  0  0  0  0  0
   16.7120  -11.7550   30.9870 C   0  0  0  0  0  0
   18.3780   -9.4860   35.3080 O   0  0  0  0  0  0
   15.2090  -12.1410   35.1210 C   0  0  0  0  0  0
   14.3430  -12.1710   36.3570 C   0  0  0  0  0  0
   14.5750  -12.6470   31.9930 C   0  0  0  0  0  0
   16.5740  -12.7550   29.8590 C   0  0  0  0  0  0
   19.7890  -11.2440   29.7750 C   0  0  0  0  0  0
   21.7570  -11.8120   28.8980 C   0  0  0  0  0  0
   14.6970  -13.1000   37.2040 O   0  5  0  0  0  0
   13.4290  -11.3950   36.5600 O   0  0  0  0  0  0
   15.2900  -10.7620   34.4690 C   0  0  1  0  0  0
   15.9990   -9.8190   35.3110 O   0  0  0  0  0  0
   17.2020   -9.5590   34.6530 B   0  0  0  0  0  0
   16.0450  -10.9110   33.1640 C   0  0  0  0  0  0
   17.2010  -10.1310   33.2090 C   0  0  0  0  0  0
   15.7920  -11.7540   32.0490 C   0  0  0  0  0  0
   18.5370  -10.6930   29.8380 O   0  0  0  0  0  0
   20.5750  -12.2140   31.0550 S   0  0  0  0  0  0
   21.9310  -12.4510   30.0920 N   0  0  0  0  0  0
   20.5850  -11.1340   28.6940 N   0  0  0  0  0  0
   22.7120  -11.8380   27.9550 N   0  0  0  0  0  0
   18.9660   -9.4434   32.1358 H   0  0  0  0  0  0
   18.4133   -9.0858   36.3320 H   0  0  0  0  0  0
   16.2338  -12.4423   35.3839 H   0  0  0  0  0  0
   14.8031  -12.8367   34.3719 H   0  0  0  0  0  0
   14.5761  -13.2094   31.0477 H   0  0  0  0  0  0
   13.6654  -12.0313   32.0523 H   0  0  0  0  0  0
   14.5973  -13.3506   32.8383 H   0  0  0  0  0  0
   17.3820  -12.5983   29.1292 H   0  0  0  0  0  0
   15.6012  -12.6176   29.3642 H   0  0  0  0  0  0
   16.6386  -13.7757   30.2640 H   0  0  0  0  0  0
   14.2848  -10.3368   34.3316 H   0  0  0  0  0  0
   23.6478  -12.3875   28.1349 H   0  0  0  0  0  0
   22.5588  -11.3099   27.0023 H   0  0  0  0  0  0
  1  2  2  0  0  0
  1 17  1  0  0  0
  1 24  1  0  0  0
  2  3  1  0  0  0
  2 19  1  0  0  0
  3  8  1  0  0  0
  3 18  2  0  0  0
  4 15  1  0  0  0
  4 25  1  0  0  0
  5  6  1  0  0  0
  5 13  1  0  0  0
  5 26  1  0  0  0
  5 27  1  0  0  0
  6 11  1  0  0  0
  6 12  2  0  0  0
  7 18  1  0  0  0
  7 28  1  0  0  0
  7 29  1  0  0  0
  7 30  1  0  0  0
  8 31  1  0  0  0
  8 32  1  0  0  0
  8 33  1  0  0  0
  9 19  1  0  0  0
  9 20  1  0  0  0
  9 22  2  0  0  0
 10 21  2  0  0  0
 10 22  1  0  0  0
 10 23  1  0  0  0
 13 14  1  0  0  0
 13 16  1  0  0  0
 13 34  1  0  0  0
 14 15  1  0  0  0
 15 17  1  0  0  0
 16 17  2  0  0  0
 16 18  1  0  0  0
 20 21  1  0  0  0
 23 35  1  0  0  0
 23 36  1  0  0  0
M  CHG  1  11  -1
M  END
> <s_m_source_file>
../4wz5_ligand.sdf

> <i_m_source_file_index>
1

> <s_epik_input>
bjFjKFtOSDJdKW5zYzFPYyhjKFtDSDNdKWMyW0NIM10pW2NIXWMoYzIzKUIoW09IXSlPW0NAQEhdM1tDSDJdQyg9TylbT0hd

> <s_epik_cmdline>
J2VwaWtfYXBwJywgJy1pbWFlJywgJ2xpZ2FuZF9wcm8ubWFlJywgJy1vbWFlJywgJ2xpZ2FuZF9wcmVwLm1hZScsICctbXMnLCAnMScsICctcGgnLCAnNycsICctcGh0JywgJzAuNScsICctbnQn

> <r_lp_tautomer_probability>
1

> <r_epik_Ionization_Penalty>
  0.0010

> <r_epik_Ionization_Penalty_Charging>
  0.0010

> <r_epik_Ionization_Penalty_Neutral>
  0.0000

> <r_epik_State_Penalty>
 -0.0000

> <r_epik_Charging_Adjusted_Penalty>
0.000956966616250833

> <i_epik_Tot_Q>
-1

> <i_epik_Tot_abs_Q>
1

$$$$
