4wz8_ligand
                    3D
 Schrodinger Suite 2020-3.
 54 58  0  0  1  0            999 V2000
    7.0530  -11.4000  -15.6710 C   0  0  0  0  0  0
    5.7000  -11.4610  -15.4120 C   0  0  0  0  0  0
    7.0460   -8.9700  -15.8670 C   0  0  0  0  0  0
    4.6470   -8.0680  -15.5100 C   0  0  0  0  0  0
   10.3020   -6.7800  -22.2560 C   0  0  0  0  0  0
    5.6870   -9.0250  -15.6170 C   0  0  0  0  0  0
    7.6910  -10.1960  -15.8980 C   0  0  0  0  0  0
   10.5450   -8.0790  -21.7620 C   0  0  0  0  0  0
    5.0640  -10.2390  -15.4000 C   0  0  0  0  0  0
   10.1680   -8.9280  -22.7740 C   0  0  0  0  0  0
   10.2340  -10.3590  -22.6740 C   0  0  0  0  0  0
    9.1410  -10.2600  -16.1550 C   0  0  0  0  0  0
   11.0590   -8.5310  -20.4560 C   0  0  0  0  0  0
   10.8050  -10.8610  -21.3640 C   0  0  0  0  0  0
   11.3340  -10.5260  -18.9910 C   0  0  0  0  0  0
    9.0560  -10.0050  -19.8170 C   0  0  0  0  0  0
   11.0350   -9.8310  -17.6610 C   0  0  0  0  0  0
    8.7240   -9.3960  -18.4670 C   0  0  0  0  0  0
   10.5510   -9.9540  -20.1570 C   0  0  0  0  0  0
    9.9810   -7.9730  -26.2640 C   0  0  0  0  0  0
    7.7300   -8.2140  -25.2140 C   0  0  0  0  0  0
    9.2020   -8.5380  -25.0900 C   0  0  0  0  0  0
    3.4670   -8.6310  -15.2410 N   0  3  0  0  0  0
    9.8070   -6.8010  -23.5000 N   0  0  0  0  0  0
    3.7470   -9.9400  -15.1780 N   0  0  0  0  0  0
    9.7230   -8.1160  -23.7910 N   0  0  0  0  0  0
    9.6070   -9.8300  -17.3960 N   0  0  0  0  0  0
    9.8520  -11.1420  -23.5360 O   0  0  0  0  0  0
    9.8330  -10.6900  -15.2460 O   0  0  0  0  0  0
    7.6323  -12.3229  -15.6972 H   0  0  0  0  0  0
    5.1763  -12.3997  -15.2314 H   0  0  0  0  0  0
    7.5723   -8.0292  -16.0282 H   0  0  0  0  0  0
    4.7940   -6.9950  -15.6333 H   0  0  0  0  0  0
   10.4944   -5.8674  -21.6918 H   0  0  0  0  0  0
   12.1588   -8.5351  -20.4763 H   0  0  0  0  0  0
   10.7094   -7.8478  -19.6680 H   0  0  0  0  0  0
   10.3626  -11.8386  -21.1218 H   0  0  0  0  0  0
   11.8962  -10.9650  -21.4555 H   0  0  0  0  0  0
   12.4032  -10.4212  -19.2272 H   0  0  0  0  0  0
   11.0787  -11.5931  -18.9126 H   0  0  0  0  0  0
    8.7506  -11.0617  -19.8276 H   0  0  0  0  0  0
    8.5187   -9.4601  -20.6072 H   0  0  0  0  0  0
   11.5488  -10.3621  -16.8462 H   0  0  0  0  0  0
   11.3910   -8.7910  -17.7026 H   0  0  0  0  0  0
    8.8003   -8.3005  -18.5302 H   0  0  0  0  0  0
    7.6997   -9.6762  -18.1802 H   0  0  0  0  0  0
    9.5363   -8.3296  -27.2048 H   0  0  0  0  0  0
   11.0277   -8.3059  -26.2038 H   0  0  0  0  0  0
    9.9435   -6.8740  -26.2341 H   0  0  0  0  0  0
    7.3642   -8.5412  -26.1984 H   0  0  0  0  0  0
    7.5835   -7.1287  -25.1106 H   0  0  0  0  0  0
    7.1717   -8.7364  -24.4232 H   0  0  0  0  0  0
    9.3451   -9.6287  -25.0908 H   0  0  0  0  0  0
    2.5707   -8.0031  -15.1295 H   0  0  0  0  0  0
  1  2  2  0  0  0
  1  7  1  0  0  0
  1 30  1  0  0  0
  2  9  1  0  0  0
  2 31  1  0  0  0
  3  6  1  0  0  0
  3  7  2  0  0  0
  3 32  1  0  0  0
  4  6  1  0  0  0
  4 23  2  0  0  0
  4 33  1  0  0  0
  5  8  1  0  0  0
  5 24  2  0  0  0
  5 34  1  0  0  0
  6  9  2  0  0  0
  7 12  1  0  0  0
  8 10  2  0  0  0
  8 13  1  0  0  0
  9 25  1  0  0  0
 10 11  1  0  0  0
 10 26  1  0  0  0
 11 14  1  0  0  0
 11 28  2  0  0  0
 12 27  1  0  0  0
 12 29  2  0  0  0
 13 19  1  0  0  0
 13 35  1  0  0  0
 13 36  1  0  0  0
 14 19  1  0  0  0
 14 37  1  0  0  0
 14 38  1  0  0  0
 15 17  1  0  0  0
 15 19  1  0  0  0
 15 39  1  0  0  0
 15 40  1  0  0  0
 16 18  1  0  0  0
 16 19  1  0  0  0
 16 41  1  0  0  0
 16 42  1  0  0  0
 17 27  1  0  0  0
 17 43  1  0  0  0
 17 44  1  0  0  0
 18 27  1  0  0  0
 18 45  1  0  0  0
 18 46  1  0  0  0
 20 22  1  0  0  0
 20 47  1  0  0  0
 20 48  1  0  0  0
 20 49  1  0  0  0
 21 22  1  0  0  0
 21 50  1  0  0  0
 21 51  1  0  0  0
 21 52  1  0  0  0
 22 26  1  0  0  0
 22 53  1  0  0  0
 23 25  1  0  0  0
 23 54  1  0  0  0
 24 26  1  0  0  0
M  CHG  1  23   1
M  END
> <s_m_source_file>
../4wz8_ligand.sdf

> <i_m_source_file_index>
1

> <s_epik_input>
W2NIXTFuW25IXWMoYzEyKVtjSF1bY0hdYyhbY0hdMilDKD1PKU4oW0NIMl1bQ0gyXTMpW0NIMl1bQ0gyXUMzNFtDSDJdYzVjKEMoPU8pW0NIMl00KW4oW0NIXShbQ0gzXSlbQ0gzXSluW2NIXTU=

> <s_epik_cmdline>
J2VwaWtfYXBwJywgJy1pbWFlJywgJ2xpZ2FuZF9wcm8ubWFlJywgJy1vbWFlJywgJ2xpZ2FuZF9wcmVwLm1hZScsICctbXMnLCAnMScsICctcGgnLCAnNycsICctcGh0JywgJzAuNScsICctbnQn

> <r_epik_Ionization_Penalty>
  0.0000

> <r_epik_Ionization_Penalty_Charging>
  0.0000

> <r_epik_Ionization_Penalty_Neutral>
  0.0000

> <r_epik_State_Penalty>
  0.1731

> <r_epik_Charging_Adjusted_Penalty>
0.173073612893657

> <i_epik_Tot_Q>
1

> <i_epik_Tot_abs_Q>
1

$$$$
