4x0f_ligand
                    3D
 Schrodinger Suite 2020-3.
 41 43  0  0  1  0            999 V2000
  -53.4890   49.5030    9.2990 C   0  0  0  0  0  0
  -53.1970   49.4000   10.6560 C   0  0  0  0  0  0
  -53.6170   50.3720   11.5520 C   0  0  0  0  0  0
  -54.3810   51.4590   11.0850 C   0  0  0  0  0  0
  -54.7010   51.5430    9.7380 C   0  0  0  0  0  0
  -54.2510   50.5740    8.8600 C   0  0  0  0  0  0
  -52.9450   48.4940    8.3050 C   0  0  1  0  0  0
  -51.7980   47.5990    8.8080 C   0  0  0  0  0  0
  -52.4960   46.3350    9.2410 C   0  0  0  0  0  0
  -52.0420   45.4690    9.9800 O   0  0  0  0  0  0
  -53.7050   46.3230    8.7070 N   0  0  0  0  0  0
  -54.0290   47.4820    7.8870 C   0  0  0  0  0  0
  -53.2980   50.3540   12.8960 O   0  0  0  0  0  0
  -52.4770   49.2560   13.4720 C   0  0  0  0  0  0
  -51.8520   49.5750   14.8110 C   0  0  0  0  0  0
  -53.0350   49.4820   15.7510 C   0  0  0  0  0  0
  -53.8050   48.3280   15.3070 C   0  0  0  0  0  0
  -53.4100   48.1150   13.8620 C   0  0  0  0  0  0
  -54.7370   52.3840   12.0290 O   0  0  0  0  0  0
  -55.5590   53.4830   11.6170 C   0  0  0  0  0  0
  -52.6301   48.5431   11.0199 H   0  0  0  0  0  0
  -55.3066   52.3720    9.3719 H   0  0  0  0  0  0
  -54.5005   50.6542    7.8020 H   0  0  0  0  0  0
  -52.5884   49.1597    7.5052 H   0  0  0  0  0  0
  -51.0848   47.4223    7.9894 H   0  0  0  0  0  0
  -51.2826   48.0976    9.6421 H   0  0  0  0  0  0
  -54.4455   45.5210    8.8428 H   0  0  0  0  0  0
  -55.0233   47.8979    8.1070 H   0  0  0  0  0  0
  -53.9463   47.2805    6.8088 H   0  0  0  0  0  0
  -51.7184   49.0706   12.6973 H   0  0  0  0  0  0
  -51.0681   48.8365   15.0350 H   0  0  0  0  0  0
  -51.4091   50.5814   14.7785 H   0  0  0  0  0  0
  -52.6747   49.3487   16.7817 H   0  0  0  0  0  0
  -53.6281   50.4062   15.6866 H   0  0  0  0  0  0
  -53.5497   47.4562   15.9273 H   0  0  0  0  0  0
  -54.8791   48.5447   15.4035 H   0  0  0  0  0  0
  -54.2984   48.1298   13.2135 H   0  0  0  0  0  0
  -52.8854   47.1555   13.7433 H   0  0  0  0  0  0
  -55.7587   54.1352   12.4800 H   0  0  0  0  0  0
  -56.5103   53.1002   11.2188 H   0  0  0  0  0  0
  -55.0390   54.0571   10.8360 H   0  0  0  0  0  0
  1  2  2  0  0  0
  1  6  1  0  0  0
  1  7  1  0  0  0
  2  3  1  0  0  0
  2 21  1  0  0  0
  3  4  2  0  0  0
  3 13  1  0  0  0
  4  5  1  0  0  0
  4 19  1  0  0  0
  5  6  2  0  0  0
  5 22  1  0  0  0
  6 23  1  0  0  0
  7  8  1  0  0  0
  7 12  1  0  0  0
  7 24  1  0  0  0
  8  9  1  0  0  0
  8 25  1  0  0  0
  8 26  1  0  0  0
  9 10  2  0  0  0
  9 11  1  0  0  0
 11 12  1  0  0  0
 11 27  1  0  0  0
 12 28  1  0  0  0
 12 29  1  0  0  0
 13 14  1  0  0  0
 14 15  1  0  0  0
 14 18  1  0  0  0
 14 30  1  0  0  0
 15 16  1  0  0  0
 15 31  1  0  0  0
 15 32  1  0  0  0
 16 17  1  0  0  0
 16 33  1  0  0  0
 16 34  1  0  0  0
 17 18  1  0  0  0
 17 35  1  0  0  0
 17 36  1  0  0  0
 18 37  1  0  0  0
 18 38  1  0  0  0
 19 20  1  0  0  0
 20 39  1  0  0  0
 20 40  1  0  0  0
 20 41  1  0  0  0
M  END
> <s_m_source_file>
../4x0f_ligand.sdf

> <i_m_source_file_index>
1

> <s_epik_input>
W0NIMl0xW05IXUMoPU8pW0NIMl1bQ0BASF0xYzJbY0hdYyhjKFtjSF1bY0hdMilPW0NIM10pT1tDSF0zW0NIMl1bQ0gyXVtDSDJdW0NIMl0z

> <s_epik_cmdline>
J2VwaWtfYXBwJywgJy1pbWFlJywgJ2xpZ2FuZF9wcm8ubWFlJywgJy1vbWFlJywgJ2xpZ2FuZF9wcmVwLm1hZScsICctbXMnLCAnMScsICctcGgnLCAnNycsICctcGh0JywgJzAuNScsICctbnQn

> <r_lp_tautomer_probability>
1

> <r_epik_Ionization_Penalty>
  0.0000

> <r_epik_Ionization_Penalty_Charging>
  0.0000

> <r_epik_Ionization_Penalty_Neutral>
  0.0000

> <r_epik_State_Penalty>
 -0.0000

> <r_epik_Charging_Adjusted_Penalty>
0

> <i_epik_Tot_Q>
0

> <i_epik_Tot_abs_Q>
0

$$$$
