4x0u_ligand
                    3D
 Schrodinger Suite 2020-3.
 28 28  0  0  1  0            999 V2000
   60.7980   68.4800   12.9810 C   0  0  0  0  0  0
   60.1310   69.4510   13.3040 O   0  0  0  0  0  0
   61.7650   68.6400   11.8410 C   0  0  0  0  0  0
   62.3140   69.8950   11.5950 C   0  0  0  0  0  0
   63.2090   70.0730   10.5430 C   0  0  0  0  0  0
   63.5640   69.0030    9.7210 C   0  0  0  0  0  0
   63.0060   67.7480    9.9750 C   0  0  0  0  0  0
   62.1110   67.5650   11.0280 C   0  0  0  0  0  0
   64.4750   69.1930    8.6540 N   0  0  0  0  0  0
   64.9230   68.0680    7.8320 C   0  0  0  0  0  0
   63.9220   67.7410    6.7400 C   0  0  0  0  0  0
   64.9980   70.5290    8.3610 C   0  0  0  0  0  0
   66.2430   70.8150    9.1820 C   0  0  0  0  0  0
   60.6802   67.5281   13.5194 H   0  0  0  0  0  0
   62.0428   70.7405   12.2272 H   0  0  0  0  0  0
   63.6367   71.0587   10.3598 H   0  0  0  0  0  0
   63.2735   66.9017    9.3424 H   0  0  0  0  0  0
   61.6824   66.5803   11.2144 H   0  0  0  0  0  0
   65.8836   68.3194    7.3586 H   0  0  0  0  0  0
   65.0485   67.1778    8.4659 H   0  0  0  0  0  0
   64.2923   66.8931    6.1451 H   0  0  0  0  0  0
   63.7915   68.6172    6.0879 H   0  0  0  0  0  0
   62.9564   67.4756    7.1952 H   0  0  0  0  0  0
   65.2550   70.5962    7.2936 H   0  0  0  0  0  0
   64.2342   71.2829    8.6024 H   0  0  0  0  0  0
   66.6156   71.8223    8.9442 H   0  0  0  0  0  0
   67.0180   70.0716    8.9438 H   0  0  0  0  0  0
   65.9972   70.7583   10.2527 H   0  0  0  0  0  0
  1  2  2  0  0  0
  1  3  1  0  0  0
  1 14  1  0  0  0
  3  4  2  0  0  0
  3  8  1  0  0  0
  4  5  1  0  0  0
  4 15  1  0  0  0
  5  6  2  0  0  0
  5 16  1  0  0  0
  6  7  1  0  0  0
  6  9  1  0  0  0
  7  8  2  0  0  0
  7 17  1  0  0  0
  8 18  1  0  0  0
  9 10  1  0  0  0
  9 12  1  0  0  0
 10 11  1  0  0  0
 10 19  1  0  0  0
 10 20  1  0  0  0
 11 21  1  0  0  0
 11 22  1  0  0  0
 11 23  1  0  0  0
 12 13  1  0  0  0
 12 24  1  0  0  0
 12 25  1  0  0  0
 13 26  1  0  0  0
 13 27  1  0  0  0
 13 28  1  0  0  0
M  END
> <s_m_source_file>
../4x0u_ligand.sdf

> <i_m_source_file_index>
1

> <s_epik_input>
Tz1bQ0hdYzFbY0hdW2NIXWMoW2NIXVtjSF0xKU4oW0NIMl1bQ0gzXSlbQ0gyXVtDSDNd

> <s_epik_cmdline>
J2VwaWtfYXBwJywgJy1pbWFlJywgJ2xpZ2FuZF9wcm8ubWFlJywgJy1vbWFlJywgJ2xpZ2FuZF9wcmVwLm1hZScsICctbXMnLCAnMScsICctcGgnLCAnNycsICctcGh0JywgJzAuNScsICctbnQn

> <r_lp_tautomer_probability>
1

> <r_epik_Ionization_Penalty>
  0.0003

> <r_epik_Ionization_Penalty_Charging>
  0.0000

> <r_epik_Ionization_Penalty_Neutral>
  0.0003

> <r_epik_State_Penalty>
 -0.0000

> <r_epik_Charging_Adjusted_Penalty>
0

> <i_epik_Tot_Q>
0

> <i_epik_Tot_abs_Q>
0

$$$$
