4x0z_ligand
                    3D
 Schrodinger Suite 2020-3.
129133  0  0  1  0            999 V2000
   18.6890  -21.8310   10.6110 C   0  0  0  0  0  0
   18.8880  -23.3400   10.5470 C   0  0  1  0  0  0
   20.2570  -23.7550    9.9700 C   0  0  0  0  0  0
   21.4060  -23.4940   10.9710 C   0  0  1  0  0  0
   21.1080  -24.0720   12.3520 C   0  0  2  0  0  0
   19.7390  -23.5750   12.8020 C   0  0  2  0  0  0
   19.2730  -24.1180   14.1390 C   0  0  1  0  0  0
   17.8390  -23.7000   14.4750 C   0  0  1  0  0  0
   17.5970  -23.8030   15.9730 C   0  0  0  0  0  0
   22.5620  -24.4970   14.2660 C   0  0  0  0  0  0
   23.6820  -23.9850   15.1310 C   0  0  0  0  0  0
   22.1710  -23.7130   13.2850 N   0  0  0  0  0  0
   19.3260  -21.0790    9.8420 O   0  0  0  0  0  0
   17.8340  -21.3540   11.3970 O   0  5  0  0  0  0
   22.6590  -24.0240   10.4860 O   0  0  0  0  0  0
   18.7650  -23.9810   11.8270 O   0  0  0  0  0  0
   19.3270  -25.5560   14.1210 O   0  0  0  0  0  0
   17.5270  -22.3820   14.0350 O   0  0  0  0  0  0
   16.2450  -23.3880   16.3060 O   0  0  0  0  0  0
   22.0240  -25.5820   14.4600 O   0  0  0  0  0  0
   16.4480  -26.7250    7.9920 C   0  0  1  0  0  0
   17.1290  -25.3650    8.1540 C   0  0  1  0  0  0
   17.4790  -25.0600    9.6090 C   0  0  2  0  0  0
   16.2650  -25.3310   10.4780 C   0  0  2  0  0  0
   15.7840  -26.7640   10.2830 C   0  0  1  0  0  0
   14.5720  -27.0730   11.1650 C   0  0  0  0  0  0
   18.3260  -25.3450    7.4120 O   0  0  0  0  0  0
   17.8190  -23.6960    9.6340 O   0  0  0  0  0  0
   15.2350  -24.4630   10.0630 O   0  0  0  0  0  0
   15.4150  -26.9560    8.9290 O   0  0  0  0  0  0
   14.4150  -28.4790   11.1370 O   0  0  0  0  0  0
   14.9940  -23.4990   11.0810 C   0  0  1  0  0  0
   14.3520  -22.2770   10.4650 C   0  0  1  0  0  0
   13.8840  -21.2550   11.4990 C   0  0  2  0  0  0
   13.1330  -21.9470   12.6290 C   0  0  2  0  0  0
   13.9720  -23.1150   13.1560 C   0  0  1  0  0  0
   13.3470  -23.8840   14.3090 C   0  0  0  0  0  0
   15.3050  -21.8890    8.2360 C   0  0  0  0  0  0
   16.3970  -21.2270    7.4380 C   0  0  0  0  0  0
   15.3380  -21.6930    9.5640 N   0  0  0  0  0  0
   13.0190  -20.3420   10.8270 O   0  0  0  0  0  0
   11.8630  -22.4050   12.1470 O   0  0  0  0  0  0
   14.1950  -24.0620   12.1140 O   0  0  0  0  0  0
   13.5910  -23.1430   15.4990 O   0  0  0  0  0  0
   14.4370  -22.5650    7.6990 O   0  0  0  0  0  0
   13.3490  -18.9490   10.9830 C   0  0  1  0  0  0
   12.4740  -18.1310   10.0250 C   0  0  1  0  0  0
   12.7170  -16.6240   10.1840 C   0  0  2  0  0  0
   12.7010  -16.1650   11.6450 C   0  0  2  0  0  0
   13.5320  -17.1400   12.4600 C   0  0  1  0  0  0
   13.4180  -16.7750   13.9170 C   0  0  0  0  0  0
   12.6620  -18.5180    8.6710 O   0  0  0  0  0  0
   11.7580  -15.8890    9.4510 O   0  0  0  0  0  0
   11.3910  -16.1090   12.1880 O   0  0  0  0  0  0
   13.1190  -18.4870   12.2980 O   0  0  0  0  0  0
   14.7070  -16.9580   14.4520 O   0  0  0  0  0  0
   13.7450  -29.3060    5.1320 C   0  0  2  0  0  0
   14.0780  -28.0310    5.8960 C   0  0  2  0  0  0
   15.5580  -28.0320    6.2690 C   0  0  1  0  0  0
   16.4600  -28.3640    5.0770 C   0  0  1  0  0  0
   17.9400  -28.4520    5.4650 C   0  0  0  0  0  0
   14.7330  -29.5120    3.9860 C   0  0  2  0  0  0
   14.4160  -30.7210    3.3460 O   0  0  0  0  0  0
   12.4370  -29.1660    4.6110 O   0  0  0  0  0  0
   13.2260  -27.9370    7.0290 O   0  0  0  0  0  0
   15.8910  -26.7260    6.6770 O   0  0  0  0  0  0
   16.0600  -29.5800    4.4740 O   0  0  0  0  0  0
   18.1520  -29.4840    6.4030 O   0  0  0  0  0  0
   20.2442  -24.8288    9.7319 H   0  0  0  0  0  0
   20.4591  -23.1789    9.0550 H   0  0  0  0  0  0
   21.5599  -22.4080   11.0543 H   0  0  0  0  0  0
   21.1141  -25.1720   12.3505 H   0  0  0  0  0  0
   19.7928  -22.4783   12.8687 H   0  0  0  0  0  0
   19.9666  -23.7560   14.9123 H   0  0  0  0  0  0
   17.1424  -24.3309   13.9035 H   0  0  0  0  0  0
   17.7383  -24.8448   16.2964 H   0  0  0  0  0  0
   18.3085  -23.1543   16.5049 H   0  0  0  0  0  0
   24.0032  -22.9974   14.7684 H   0  0  0  0  0  0
   24.5291  -24.6853   15.0866 H   0  0  0  0  0  0
   23.3322  -23.8981   16.1703 H   0  0  0  0  0  0
   22.6866  -22.7464   13.1858 H   0  0  0  0  0  0
   23.0404  -23.7191    9.5003 H   0  0  0  0  0  0
   20.2747  -26.0681   13.8981 H   0  0  0  0  0  0
   17.6407  -22.1150   12.9740 H   0  0  0  0  0  0
   15.9071  -23.4030   17.3527 H   0  0  0  0  0  0
   17.1307  -27.5721    8.1542 H   0  0  0  0  0  0
   16.4755  -24.5840    7.7382 H   0  0  0  0  0  0
   18.3420  -25.6156   10.0046 H   0  0  0  0  0  0
   16.4776  -25.1206   11.5366 H   0  0  0  0  0  0
   16.6082  -27.4623   10.4905 H   0  0  0  0  0  0
   14.7621  -26.7154   12.1877 H   0  0  0  0  0  0
   13.6841  -26.5666   10.7586 H   0  0  0  0  0  0
   18.3056  -25.5412    6.3298 H   0  0  0  0  0  0
   13.5993  -28.9527   11.7029 H   0  0  0  0  0  0
   15.9531  -23.2552   11.5613 H   0  0  0  0  0  0
   13.4617  -22.5717    9.8901 H   0  0  0  0  0  0
   14.7182  -20.6729   11.9176 H   0  0  0  0  0  0
   12.8930  -21.2466   13.4426 H   0  0  0  0  0  0
   14.9340  -22.6902   13.4785 H   0  0  0  0  0  0
   12.2657  -23.9890   14.1363 H   0  0  0  0  0  0
   13.8061  -24.8814   14.3762 H   0  0  0  0  0  0
   17.0632  -20.6741    8.1165 H   0  0  0  0  0  0
   15.9506  -20.5298    6.7137 H   0  0  0  0  0  0
   16.9748  -21.9936    6.9009 H   0  0  0  0  0  0
   16.1470  -21.0655    9.9662 H   0  0  0  0  0  0
   11.1399  -21.6864   11.7337 H   0  0  0  0  0  0
   13.2233  -23.5180   16.4655 H   0  0  0  0  0  0
   14.4351  -18.8635   10.8309 H   0  0  0  0  0  0
   11.4186  -18.3750   10.2165 H   0  0  0  0  0  0
   13.6877  -16.3746    9.7306 H   0  0  0  0  0  0
   13.0505  -15.1249   11.7227 H   0  0  0  0  0  0
   14.5691  -17.1347   12.0934 H   0  0  0  0  0  0
   13.0897  -15.7291   14.0084 H   0  0  0  0  0  0
   12.6836  -17.4337   14.4037 H   0  0  0  0  0  0
   12.5277  -19.5691    8.3757 H   0  0  0  0  0  0
   11.6227  -16.0799    8.3762 H   0  0  0  0  0  0
   10.6343  -15.4533   11.7324 H   0  0  0  0  0  0
   14.8943  -16.7557   15.5169 H   0  0  0  0  0  0
   13.7355  -30.1873    5.7902 H   0  0  0  0  0  0
   13.8505  -27.1195    5.3238 H   0  0  0  0  0  0
   15.7338  -28.7317    7.0993 H   0  0  0  0  0  0
   16.3191  -27.5946    4.3036 H   0  0  0  0  0  0
   18.5425  -28.6590    4.5682 H   0  0  0  0  0  0
   18.2599  -27.4980    5.9094 H   0  0  0  0  0  0
   14.7164  -28.7058    3.2378 H   0  0  0  0  0  0
   13.4212  -30.8619    2.8982 H   0  0  0  0  0  0
   11.5876  -29.0087    5.2920 H   0  0  0  0  0  0
   12.1340  -27.9264    6.8966 H   0  0  0  0  0  0
   19.1645  -29.6798    6.7858 H   0  0  0  0  0  0
  1  2  1  0  0  0
  1 13  2  0  0  0
  1 14  1  0  0  0
  2  3  1  0  0  0
  2 16  1  0  0  0
  2 28  1  0  0  0
  3  4  1  0  0  0
  3 69  1  0  0  0
  3 70  1  0  0  0
  4  5  1  0  0  0
  4 15  1  0  0  0
  4 71  1  0  0  0
  5  6  1  0  0  0
  5 12  1  0  0  0
  5 72  1  0  0  0
  6  7  1  0  0  0
  6 16  1  0  0  0
  6 73  1  0  0  0
  7  8  1  0  0  0
  7 17  1  0  0  0
  7 74  1  0  0  0
  8  9  1  0  0  0
  8 18  1  0  0  0
  8 75  1  0  0  0
  9 19  1  0  0  0
  9 76  1  0  0  0
  9 77  1  0  0  0
 10 11  1  0  0  0
 10 12  1  0  0  0
 10 20  2  0  0  0
 11 78  1  0  0  0
 11 79  1  0  0  0
 11 80  1  0  0  0
 12 81  1  0  0  0
 15 82  1  0  0  0
 17 83  1  0  0  0
 18 84  1  0  0  0
 19 85  1  0  0  0
 21 22  1  0  0  0
 21 30  1  0  0  0
 21 66  1  0  0  0
 21 86  1  0  0  0
 22 23  1  0  0  0
 22 27  1  0  0  0
 22 87  1  0  0  0
 23 24  1  0  0  0
 23 28  1  0  0  0
 23 88  1  0  0  0
 24 25  1  0  0  0
 24 29  1  0  0  0
 24 89  1  0  0  0
 25 26  1  0  0  0
 25 30  1  0  0  0
 25 90  1  0  0  0
 26 31  1  0  0  0
 26 91  1  0  0  0
 26 92  1  0  0  0
 27 93  1  0  0  0
 29 32  1  0  0  0
 31 94  1  0  0  0
 32 33  1  0  0  0
 32 43  1  0  0  0
 32 95  1  0  0  0
 33 34  1  0  0  0
 33 40  1  0  0  0
 33 96  1  0  0  0
 34 35  1  0  0  0
 34 41  1  0  0  0
 34 97  1  0  0  0
 35 36  1  0  0  0
 35 42  1  0  0  0
 35 98  1  0  0  0
 36 37  1  0  0  0
 36 43  1  0  0  0
 36 99  1  0  0  0
 37 44  1  0  0  0
 37100  1  0  0  0
 37101  1  0  0  0
 38 39  1  0  0  0
 38 40  1  0  0  0
 38 45  2  0  0  0
 39102  1  0  0  0
 39103  1  0  0  0
 39104  1  0  0  0
 40105  1  0  0  0
 41 46  1  0  0  0
 42106  1  0  0  0
 44107  1  0  0  0
 46 47  1  0  0  0
 46 55  1  0  0  0
 46108  1  0  0  0
 47 48  1  0  0  0
 47 52  1  0  0  0
 47109  1  0  0  0
 48 49  1  0  0  0
 48 53  1  0  0  0
 48110  1  0  0  0
 49 50  1  0  0  0
 49 54  1  0  0  0
 49111  1  0  0  0
 50 51  1  0  0  0
 50 55  1  0  0  0
 50112  1  0  0  0
 51 56  1  0  0  0
 51113  1  0  0  0
 51114  1  0  0  0
 52115  1  0  0  0
 53116  1  0  0  0
 54117  1  0  0  0
 56118  1  0  0  0
 57 58  1  0  0  0
 57 62  1  0  0  0
 57 64  1  0  0  0
 57119  1  0  0  0
 58 59  1  0  0  0
 58 65  1  0  0  0
 58120  1  0  0  0
 59 60  1  0  0  0
 59 66  1  0  0  0
 59121  1  0  0  0
 60 61  1  0  0  0
 60 67  1  0  0  0
 60122  1  0  0  0
 61 68  1  0  0  0
 61123  1  0  0  0
 61124  1  0  0  0
 62 63  1  0  0  0
 62 67  1  0  0  0
 62125  1  0  0  0
 63126  1  0  0  0
 64127  1  0  0  0
 65128  1  0  0  0
 68129  1  0  0  0
M  CHG  1  14  -1
M  END
> <s_m_source_file>
../4x0z_ligand.sdf

> <i_m_source_file_index>
1

> <s_epik_input>
W09IXVtDSDJdW0NAQEhdKFtPSF0pW0NAQEhdKFtPSF0pW0NASF0oTzEpW0NASF0oW05IXUMoPU8pW0NIM10pW0NAQEhdKFtPSF0pW0NIMl1bQ0BAXTEoQyg9TylbT0hdKU9bQ0BIXShbQ0BASF0oW09IXSlbQ0BASF0yT1tDQEBIXShbQ0BIXShbT0hdKVtDQEhdM1tPSF0pW0NAQEhdKFtDSDJdW09IXSlPW0NASF0zW09IXSlbQ0BIXShbQ0BIXShPMilbQ0gyXVtPSF0pT1tDQEhdNFtDQEhdKFtOSF1DKD1PKVtDSDNdKVtDQEhdKFtDQEBIXShbT0hdKVtDQEhdKE80KVtDSDJdW09IXSlPW0NASF01W0NASF0oW09IXSlbQ0BASF0oW09IXSlbQ0BASF0oW09IXSlbQ0BIXShPNSlbQ0gyXVtPSF0=

> <s_epik_cmdline>
J2VwaWtfYXBwJywgJy1pbWFlJywgJ2xpZ2FuZF9wcm8ubWFlJywgJy1vbWFlJywgJ2xpZ2FuZF9wcmVwLm1hZScsICctbXMnLCAnMScsICctcGgnLCAnNycsICctcGh0JywgJzAuNScsICctbnQn

> <r_lp_tautomer_probability>
1

> <r_epik_Ionization_Penalty>
  0.0000

> <r_epik_Ionization_Penalty_Charging>
  0.0000

> <r_epik_Ionization_Penalty_Neutral>
  0.0000

> <r_epik_State_Penalty>
 -0.0000

> <r_epik_Charging_Adjusted_Penalty>
9.88427715667134e-06

> <i_epik_Tot_Q>
-1

> <i_epik_Tot_abs_Q>
1

> <s_epik_Chemistry_Notes>
This compound contains an acetal/aminal-like group ( X-CH(R)-Y where X, Y are N, S, or O) that may be acid/base labile, releasing an aldehyde.

$$$$
