4x11_ligand
                    3D
 Schrodinger Suite 2020-3.
 39 39  0  0  1  0            999 V2000
   17.9520  -21.4950    9.8970 C   0  0  0  0  0  0
   17.9060  -23.0170    9.7810 C   0  0  2  0  0  0
   19.1050  -23.6000    9.0130 C   0  0  0  0  0  0
   20.4150  -23.3880    9.7840 C   0  0  1  0  0  0
   20.3090  -23.9570   11.1890 C   0  0  2  0  0  0
   19.1090  -23.3190   11.8810 C   0  0  2  0  0  0
   18.9030  -23.8110   13.3170 C   0  0  1  0  0  0
   17.5520  -23.3730   13.8990 C   0  0  1  0  0  0
   17.4350  -23.7250   15.3810 C   0  0  0  0  0  0
   22.1030  -24.4380   12.7810 C   0  0  0  0  0  0
   23.3330  -23.9170   13.4770 C   0  0  0  0  0  0
   21.5070  -23.6110   11.9260 N   0  0  0  0  0  0
   18.4820  -20.7870    9.0000 O   0  5  0  0  0  0
   17.4470  -20.9750   10.9220 O   0  0  0  0  0  0
   16.6650  -23.4440    9.1560 O   0  0  0  0  0  0
   21.5480  -23.9790    9.1400 O   0  0  0  0  0  0
   17.9330  -23.5540   11.1080 O   0  0  0  0  0  0
   19.0390  -25.2290   13.3470 O   0  0  0  0  0  0
   17.3460  -21.9490   13.7340 O   0  0  0  0  0  0
   16.2900  -23.0370   15.9270 O   0  0  0  0  0  0
   21.6940  -25.5620   12.9880 O   0  0  0  0  0  0
   18.9559  -24.6798    8.8653 H   0  0  0  0  0  0
   19.1898  -23.1044    8.0346 H   0  0  0  0  0  0
   20.6372  -22.3107    9.7919 H   0  0  0  0  0  0
   20.2355  -25.0544   11.1720 H   0  0  0  0  0  0
   19.2543  -22.2289   11.9042 H   0  0  0  0  0  0
   19.7008  -23.4251   13.9686 H   0  0  0  0  0  0
   16.7522  -23.8663   13.3272 H   0  0  0  0  0  0
   17.3069  -24.8120   15.4907 H   0  0  0  0  0  0
   18.3483  -23.4086   15.9062 H   0  0  0  0  0  0
   23.5295  -22.8851   13.1507 H   0  0  0  0  0  0
   24.1945  -24.5521   13.2233 H   0  0  0  0  0  0
   23.1732  -23.9334   14.5652 H   0  0  0  0  0  0
   21.9688  -22.6217   11.7918 H   0  0  0  0  0  0
   16.4365  -23.1410    8.1235 H   0  0  0  0  0  0
   21.8017  -23.6987    8.1070 H   0  0  0  0  0  0
   19.9552  -25.7019   12.9636 H   0  0  0  0  0  0
   17.3917  -21.4992   12.7312 H   0  0  0  0  0  0
   16.0301  -23.1586   16.9889 H   0  0  0  0  0  0
  1  2  1  0  0  0
  1 13  1  0  0  0
  1 14  2  0  0  0
  2  3  1  0  0  0
  2 15  1  0  0  0
  2 17  1  0  0  0
  3  4  1  0  0  0
  3 22  1  0  0  0
  3 23  1  0  0  0
  4  5  1  0  0  0
  4 16  1  0  0  0
  4 24  1  0  0  0
  5  6  1  0  0  0
  5 12  1  0  0  0
  5 25  1  0  0  0
  6  7  1  0  0  0
  6 17  1  0  0  0
  6 26  1  0  0  0
  7  8  1  0  0  0
  7 18  1  0  0  0
  7 27  1  0  0  0
  8  9  1  0  0  0
  8 19  1  0  0  0
  8 28  1  0  0  0
  9 20  1  0  0  0
  9 29  1  0  0  0
  9 30  1  0  0  0
 10 11  1  0  0  0
 10 12  1  0  0  0
 10 21  2  0  0  0
 11 31  1  0  0  0
 11 32  1  0  0  0
 11 33  1  0  0  0
 12 34  1  0  0  0
 15 35  1  0  0  0
 16 36  1  0  0  0
 18 37  1  0  0  0
 19 38  1  0  0  0
 20 39  1  0  0  0
M  CHG  1  13  -1
M  END
> <s_m_source_file>
../4x11_ligand.sdf

> <i_m_source_file_index>
1

> <s_epik_input>
W09IXUMoPU8pW0NAQF0xKFtPSF0pW0NIMl1bQ0BIXShbT0hdKVtDQEBIXShbTkhdQyg9TylbQ0gzXSlbQ0BASF0oTzEpW0NASF0oW09IXSlbQ0BIXShbT0hdKVtDSDJdW09IXQ==

> <s_epik_cmdline>
J2VwaWtfYXBwJywgJy1pbWFlJywgJ2xpZ2FuZF9wcm8ubWFlJywgJy1vbWFlJywgJ2xpZ2FuZF9wcmVwLm1hZScsICctbXMnLCAnMScsICctcGgnLCAnNycsICctcGh0JywgJzAuNScsICctbnQn

> <r_lp_tautomer_probability>
1

> <r_epik_Ionization_Penalty>
  0.0000

> <r_epik_Ionization_Penalty_Charging>
  0.0000

> <r_epik_Ionization_Penalty_Neutral>
  0.0000

> <r_epik_State_Penalty>
 -0.0000

> <r_epik_Charging_Adjusted_Penalty>
2.59170082529691e-05

> <i_epik_Tot_Q>
-1

> <i_epik_Tot_abs_Q>
1

$$$$
