4x13_ligand
                    3D
 Schrodinger Suite 2020-3.
129133  0  0  1  0            999 V2000
   19.8680   24.2490   10.0540 C   0  0  0  0  0  0
   18.9580   25.4050   10.5050 C   0  0  1  0  0  0
   17.6910   24.9150   11.2230 C   0  0  0  0  0  0
   18.0340   24.3510   12.5990 C   0  0  1  0  0  0
   18.8390   25.3630   13.4200 C   0  0  2  0  0  0
   20.0710   25.7280   12.6310 C   0  0  2  0  0  0
   20.9770   26.7250   13.3340 C   0  0  1  0  0  0
   22.1110   27.2360   12.4640 C   0  0  1  0  0  0
   23.1930   27.8910   13.3200 C   0  0  0  0  0  0
   19.2660   25.4160   15.8400 C   0  0  0  0  0  0
   19.6720   24.5940   17.0360 C   0  0  0  0  0  0
   19.2140   24.7740   14.6810 N   0  0  0  0  0  0
   19.3890   23.1350    9.7200 O   0  5  0  0  0  0
   21.1010   24.4430    9.9870 O   0  0  0  0  0  0
   16.8430   23.9640   13.2970 O   0  0  0  0  0  0
   19.6510   26.2820   11.3890 O   0  0  0  0  0  0
   20.2250   27.8600   13.7480 O   0  0  0  0  0  0
   22.6410   26.1770   11.6750 O   0  0  0  0  0  0
   24.2990   28.2050   12.4690 O   0  0  0  0  0  0
   19.0210   26.5960   15.9450 O   0  0  0  0  0  0
   18.6510   24.6360    5.7180 C   0  0  1  0  0  0
   19.3930   25.3080    4.5610 C   0  0  1  0  0  0
   20.7640   25.7490    5.0280 C   0  0  2  0  0  0
   20.6160   26.5930    6.2790 C   0  0  2  0  0  0
   19.7780   25.8940    7.3390 C   0  0  1  0  0  0
   19.5220   26.7580    8.5660 C   0  0  0  0  0  0
   19.5600   24.4020    3.4840 O   0  0  0  0  0  0
   21.3970   26.4830    4.0010 O   0  0  0  0  0  0
   19.9330   27.7610    5.9480 O   0  0  0  0  0  0
   18.5310   25.5060    6.8180 O   0  0  0  0  0  0
   18.5000   26.1580    9.3590 O   0  0  0  0  0  0
   14.2620   21.8330    6.3170 C   0  0  1  0  0  0
   14.9180   22.5580    7.4730 C   0  0  1  0  0  0
   15.8420   23.6610    6.9860 C   0  0  2  0  0  0
   16.8060   23.1460    5.9250 C   0  0  1  0  0  0
   16.0500   22.3790    4.8630 C   0  0  1  0  0  0
   16.9930   21.7730    3.8300 C   0  0  0  0  0  0
   13.8780   22.6980    9.6920 C   0  0  0  0  0  0
   12.7710   23.3040   10.5110 C   0  0  0  0  0  0
   13.9140   23.0590    8.4010 N   0  0  0  0  0  0
   16.5480   24.2100    8.0750 O   0  0  0  0  0  0
   17.3630   24.2430    5.2460 O   0  0  0  0  0  0
   15.2720   21.3610    5.4590 O   0  0  0  0  0  0
   17.7440   20.7220    4.3870 O   0  0  0  0  0  0
   14.6800   21.9160   10.2300 O   0  0  0  0  0  0
   10.2220   19.1980    5.9980 C   0  0  1  0  0  0
   11.3520   19.8100    6.8180 C   0  0  1  0  0  0
   12.4820   20.2940    5.9490 C   0  0  2  0  0  0
   12.9410   19.1280    5.0960 C   0  0  2  0  0  0
   11.7490   18.5540    4.3130 C   0  0  1  0  0  0
   12.1850   17.3290    3.5180 C   0  0  0  0  0  0
   10.8800   20.9190    7.5260 O   0  0  0  0  0  0
   13.4730   20.7420    6.8400 O   0  0  0  0  0  0
   13.5290   18.1270    5.9140 O   0  0  0  0  0  0
   10.7050   18.1580    5.1810 O   0  0  0  0  0  0
   11.0930   16.7510    2.8410 O   0  0  0  0  0  0
    6.6780   16.1000    6.6430 C   0  0  2  0  0  0
    7.9870   16.7430    7.0580 C   0  0  2  0  0  0
    8.1160   18.1090    6.3950 C   0  0  1  0  0  0
    6.8650   18.9610    6.6410 C   0  0  1  0  0  0
    6.8970   20.2410    5.8270 C   0  0  0  0  0  0
    5.5370   17.0340    7.0330 C   0  0  2  0  0  0
    4.2720   16.4400    6.7260 O   0  0  0  0  0  0
    6.5470   14.8280    7.2870 O   0  0  0  0  0  0
    9.0980   15.8990    6.7270 O   0  0  0  0  0  0
    9.2620   18.7570    6.9680 O   0  0  0  0  0  0
    5.6700   18.2560    6.3090 O   0  0  0  0  0  0
    7.3460   21.2740    6.6990 O   0  0  0  0  0  0
   16.9920   25.7552   11.3476 H   0  0  0  0  0  0
   17.2125   24.1256   10.6247 H   0  0  0  0  0  0
   18.6060   23.4181   12.4868 H   0  0  0  0  0  0
   18.2564   26.2609   13.6735 H   0  0  0  0  0  0
   20.6476   24.8114   12.4378 H   0  0  0  0  0  0
   21.3807   26.2251   14.2268 H   0  0  0  0  0  0
   21.7339   27.9579   11.7247 H   0  0  0  0  0  0
   22.7933   28.8079   13.7778 H   0  0  0  0  0  0
   23.5075   27.1936   14.1104 H   0  0  0  0  0  0
   19.8472   23.5539   16.7237 H   0  0  0  0  0  0
   18.8702   24.6208   17.7886 H   0  0  0  0  0  0
   20.5950   25.0073   17.4687 H   0  0  0  0  0  0
   19.4865   23.7095   14.7314 H   0  0  0  0  0  0
   16.1503   23.2399   12.8433 H   0  0  0  0  0  0
   19.3443   27.7304   14.3941 H   0  0  0  0  0  0
   21.9810   25.6075   11.0041 H   0  0  0  0  0  0
   25.1949   28.6874   12.8869 H   0  0  0  0  0  0
   19.1635   23.7519    6.1251 H   0  0  0  0  0  0
   18.8061   26.1464    4.1577 H   0  0  0  0  0  0
   21.4307   24.8934    5.2109 H   0  0  0  0  0  0
   21.6122   26.8651    6.6578 H   0  0  0  0  0  0
   20.3021   24.9680    7.6180 H   0  0  0  0  0  0
   20.4465   26.8394    9.1564 H   0  0  0  0  0  0
   19.2006   27.7607    8.2478 H   0  0  0  0  0  0
   18.6791   23.9595    2.9959 H   0  0  0  0  0  0
   21.5811   26.0141    3.0231 H   0  0  0  0  0  0
   20.3467   28.4446    5.1920 H   0  0  0  0  0  0
   13.6034   22.4623    5.7004 H   0  0  0  0  0  0
   15.5172   21.8424    8.0551 H   0  0  0  0  0  0
   15.2565   24.5000    6.5818 H   0  0  0  0  0  0
   17.6104   22.5615    6.3954 H   0  0  0  0  0  0
   15.3288   23.0501    4.3736 H   0  0  0  0  0  0
   16.4079   21.3792    2.9859 H   0  0  0  0  0  0
   17.6853   22.5469    3.4669 H   0  0  0  0  0  0
   12.1641   23.9652    9.8750 H   0  0  0  0  0  0
   13.2034   23.8864   11.3380 H   0  0  0  0  0  0
   12.1362   22.5035   10.9188 H   0  0  0  0  0  0
   13.1443   23.7628    8.0513 H   0  0  0  0  0  0
   15.9992   24.6285    8.9315 H   0  0  0  0  0  0
   18.4734   20.1790    3.7680 H   0  0  0  0  0  0
    9.7296   19.8532    5.2644 H   0  0  0  0  0  0
   11.7063   19.0736    7.5544 H   0  0  0  0  0  0
   12.2533   21.1529    5.3009 H   0  0  0  0  0  0
   13.7506   19.4395    4.4197 H   0  0  0  0  0  0
   11.3129   19.3358    3.6738 H   0  0  0  0  0  0
   12.9432   17.6233    2.7774 H   0  0  0  0  0  0
   12.6118   16.5807    4.2021 H   0  0  0  0  0  0
   10.0447   20.8056    8.2327 H   0  0  0  0  0  0
   14.3977   18.3711    6.5432 H   0  0  0  0  0  0
   11.2424   15.8552    2.2203 H   0  0  0  0  0  0
    6.6505   15.8735    5.5669 H   0  0  0  0  0  0
    8.0406   16.8370    8.1527 H   0  0  0  0  0  0
    8.2869   18.0111    5.3128 H   0  0  0  0  0  0
    6.7969   19.1753    7.7178 H   0  0  0  0  0  0
    7.5871   20.1191    4.9791 H   0  0  0  0  0  0
    5.8875   20.4608    5.4495 H   0  0  0  0  0  0
    5.5302   17.2656    8.1083 H   0  0  0  0  0  0
    3.9853   15.4854    7.1912 H   0  0  0  0  0  0
    7.2944   14.0411    7.1076 H   0  0  0  0  0  0
    9.1514   14.8768    7.1299 H   0  0  0  0  0  0
    7.4494   22.3033    6.3249 H   0  0  0  0  0  0
  1  2  1  0  0  0
  1 13  1  0  0  0
  1 14  2  0  0  0
  2  3  1  0  0  0
  2 16  1  0  0  0
  2 31  1  0  0  0
  3  4  1  0  0  0
  3 69  1  0  0  0
  3 70  1  0  0  0
  4  5  1  0  0  0
  4 15  1  0  0  0
  4 71  1  0  0  0
  5  6  1  0  0  0
  5 12  1  0  0  0
  5 72  1  0  0  0
  6  7  1  0  0  0
  6 16  1  0  0  0
  6 73  1  0  0  0
  7  8  1  0  0  0
  7 17  1  0  0  0
  7 74  1  0  0  0
  8  9  1  0  0  0
  8 18  1  0  0  0
  8 75  1  0  0  0
  9 19  1  0  0  0
  9 76  1  0  0  0
  9 77  1  0  0  0
 10 11  1  0  0  0
 10 12  1  0  0  0
 10 20  2  0  0  0
 11 78  1  0  0  0
 11 79  1  0  0  0
 11 80  1  0  0  0
 12 81  1  0  0  0
 15 82  1  0  0  0
 17 83  1  0  0  0
 18 84  1  0  0  0
 19 85  1  0  0  0
 21 22  1  0  0  0
 21 30  1  0  0  0
 21 42  1  0  0  0
 21 86  1  0  0  0
 22 23  1  0  0  0
 22 27  1  0  0  0
 22 87  1  0  0  0
 23 24  1  0  0  0
 23 28  1  0  0  0
 23 88  1  0  0  0
 24 25  1  0  0  0
 24 29  1  0  0  0
 24 89  1  0  0  0
 25 26  1  0  0  0
 25 30  1  0  0  0
 25 90  1  0  0  0
 26 31  1  0  0  0
 26 91  1  0  0  0
 26 92  1  0  0  0
 27 93  1  0  0  0
 28 94  1  0  0  0
 29 95  1  0  0  0
 32 33  1  0  0  0
 32 43  1  0  0  0
 32 53  1  0  0  0
 32 96  1  0  0  0
 33 34  1  0  0  0
 33 40  1  0  0  0
 33 97  1  0  0  0
 34 35  1  0  0  0
 34 41  1  0  0  0
 34 98  1  0  0  0
 35 36  1  0  0  0
 35 42  1  0  0  0
 35 99  1  0  0  0
 36 37  1  0  0  0
 36 43  1  0  0  0
 36100  1  0  0  0
 37 44  1  0  0  0
 37101  1  0  0  0
 37102  1  0  0  0
 38 39  1  0  0  0
 38 40  1  0  0  0
 38 45  2  0  0  0
 39103  1  0  0  0
 39104  1  0  0  0
 39105  1  0  0  0
 40106  1  0  0  0
 41107  1  0  0  0
 44108  1  0  0  0
 46 47  1  0  0  0
 46 55  1  0  0  0
 46 66  1  0  0  0
 46109  1  0  0  0
 47 48  1  0  0  0
 47 52  1  0  0  0
 47110  1  0  0  0
 48 49  1  0  0  0
 48 53  1  0  0  0
 48111  1  0  0  0
 49 50  1  0  0  0
 49 54  1  0  0  0
 49112  1  0  0  0
 50 51  1  0  0  0
 50 55  1  0  0  0
 50113  1  0  0  0
 51 56  1  0  0  0
 51114  1  0  0  0
 51115  1  0  0  0
 52116  1  0  0  0
 54117  1  0  0  0
 56118  1  0  0  0
 57 58  1  0  0  0
 57 62  1  0  0  0
 57 64  1  0  0  0
 57119  1  0  0  0
 58 59  1  0  0  0
 58 65  1  0  0  0
 58120  1  0  0  0
 59 60  1  0  0  0
 59 66  1  0  0  0
 59121  1  0  0  0
 60 61  1  0  0  0
 60 67  1  0  0  0
 60122  1  0  0  0
 61 68  1  0  0  0
 61123  1  0  0  0
 61124  1  0  0  0
 62 63  1  0  0  0
 62 67  1  0  0  0
 62125  1  0  0  0
 63126  1  0  0  0
 64127  1  0  0  0
 65128  1  0  0  0
 68129  1  0  0  0
M  CHG  1  13  -1
M  END
> <s_m_source_file>
../4x13_ligand.sdf

> <i_m_source_file_index>
1

> <s_epik_input>
W09IXVtDSDJdW0NAQEhdKFtPSF0pW0NAQEhdKFtPSF0pW0NASF0oTzEpW0NASF0oW05IXUMoPU8pW0NIM10pW0NAQEhdKFtPSF0pW0NIMl1bQ0BAXTEoQyg9TylbT0hdKU9bQ0gyXVtDQEBIXShPMilbQ0BIXShbT0hdKVtDQEhdKFtPSF0pW0NAQEhdKFtPSF0pW0NAQEhdMk9bQ0BIXShbQ0BIXShPMylbQ0gyXVtPSF0pW0NASF0oW09IXSlbQ0BASF0oW05IXUMoPU8pW0NIM10pW0NAQEhdM09bQ0BASF0oW0NAQEhdKFtPSF0pW0NASF0oTzQpW0NIMl1bT0hdKVtDQEBIXShbT0hdKVtDQEBIXTRPW0NAQEhdKFtDQEhdKFtPSF0pW0NASF01W09IXSlbQ0BASF0oW0NIMl1bT0hdKU9bQ0BIXTVbT0hd

> <s_epik_cmdline>
J2VwaWtfYXBwJywgJy1pbWFlJywgJ2xpZ2FuZF9wcm8ubWFlJywgJy1vbWFlJywgJ2xpZ2FuZF9wcmVwLm1hZScsICctbXMnLCAnMScsICctcGgnLCAnNycsICctcGh0JywgJzAuNScsICctbnQn

> <r_lp_tautomer_probability>
1

> <r_epik_Ionization_Penalty>
  0.0001

> <r_epik_Ionization_Penalty_Charging>
  0.0000

> <r_epik_Ionization_Penalty_Neutral>
  0.0000

> <r_epik_State_Penalty>
 -0.0000

> <r_epik_Charging_Adjusted_Penalty>
3.55189974798374e-05

> <i_epik_Tot_Q>
-1

> <i_epik_Tot_abs_Q>
1

> <s_epik_Chemistry_Notes>
This compound contains an acetal/aminal-like group ( X-CH(R)-Y where X, Y are N, S, or O) that may be acid/base labile, releasing an aldehyde.

$$$$
