4x14_ligand
                    3D
 Schrodinger Suite 2020-3.
129133  0  0  1  0            999 V2000
    4.1310    1.5440   17.9410 C   0  0  0  0  0  0
    2.8990    0.9350   18.5980 C   0  0  1  0  0  0
    2.9920   -0.5990   18.6660 C   0  0  0  0  0  0
    4.0040   -1.0620   19.7310 C   0  0  1  0  0  0
    3.7590   -0.3620   21.0780 C   0  0  2  0  0  0
    3.7590    1.1470   20.8590 C   0  0  2  0  0  0
    3.5340    1.9620   22.1230 C   0  0  1  0  0  0
    3.2990    3.4360   21.8070 C   0  0  1  0  0  0
    3.3260    4.2530   23.0970 C   0  0  0  0  0  0
    4.5240   -0.9400   23.3350 C   0  0  0  0  0  0
    5.7010   -1.3570   24.1720 C   0  0  0  0  0  0
    4.7830   -0.7430   22.0410 N   0  0  0  0  0  0
    4.8640    0.8440   17.1830 O   0  5  0  0  0  0
    4.3640    2.7600   18.1690 O   0  0  0  0  0  0
    3.9440   -2.4830   19.8860 O   0  0  0  0  0  0
    2.7430    1.4740   19.9180 O   0  0  0  0  0  0
    2.4220    1.4830   22.8690 O   0  0  0  0  0  0
    4.2830    3.9260   20.8610 O   0  0  0  0  0  0
    3.6110    5.6210   22.7920 O   0  0  0  0  0  0
    3.4050   -0.7910   23.8160 O   0  0  0  0  0  0
   -1.7800    0.6720   17.1480 C   0  0  1  0  0  0
   -0.2710    0.6570   16.9480 C   0  0  1  0  0  0
    0.5080    1.1760   18.1660 C   0  0  2  0  0  0
   -0.0740    2.4980   18.6420 C   0  0  2  0  0  0
   -1.5710    2.3340   18.8630 C   0  0  1  0  0  0
   -2.1750    3.6590   19.3040 C   0  0  0  0  0  0
    0.1390   -0.6510   16.6010 O   0  0  0  0  0  0
    1.8380    1.3720   17.7360 O   0  0  0  0  0  0
    0.1100    3.4760   17.6420 O   0  0  0  0  0  0
   -2.2240    1.9130   17.6760 O   0  0  0  0  0  0
   -3.3950    3.3920   19.9460 O   0  0  0  0  0  0
    1.0970    4.4270   17.9940 C   0  0  1  0  0  0
    1.7020    5.0580   16.7400 C   0  0  1  0  0  0
    2.7230    6.1210   17.1680 C   0  0  2  0  0  0
    2.0280    7.0920   18.1250 C   0  0  2  0  0  0
    1.5080    6.3200   19.3350 C   0  0  1  0  0  0
    0.9830    7.2830   20.4080 C   0  0  0  0  0  0
    1.7860    3.3710   14.9220 C   0  0  0  0  0  0
    2.6240    2.3230   14.2410 C   0  0  0  0  0  0
    2.3520    4.0170   15.9560 N   0  0  0  0  0  0
    3.3630    6.8270   16.0710 O   0  0  0  0  0  0
    0.9510    7.7720   17.4600 O   0  0  0  0  0  0
    0.5240    5.3840   18.8700 O   0  0  0  0  0  0
   -0.2120    6.7760   21.0100 O   0  0  0  0  0  0
    0.6560    3.6010   14.5360 O   0  0  0  0  0  0
    4.6050    7.4150   16.5210 C   0  0  1  0  0  0
    5.4370    7.9210   15.3570 C   0  0  1  0  0  0
    6.7120    8.5870   15.8590 C   0  0  2  0  0  0
    6.3980    9.6160   16.9420 C   0  0  2  0  0  0
    5.5100    9.0080   18.0310 C   0  0  1  0  0  0
    5.0690   10.0090   19.1110 C   0  0  0  0  0  0
    5.7690    6.8430   14.5180 O   0  0  0  0  0  0
    7.3230    9.2400   14.7720 O   0  0  0  0  0  0
    5.7470   10.7220   16.3400 O   0  0  0  0  0  0
    4.3630    8.4950   17.3970 O   0  0  0  0  0  0
    4.1250    9.4980   20.0310 O   0  0  0  0  0  0
   -6.0210    1.0020   15.2350 C   0  0  2  0  0  0
   -4.5460    1.3510   15.3120 C   0  0  2  0  0  0
   -3.7700    0.1800   15.9130 C   0  0  1  0  0  0
   -4.0630   -1.1070   15.1440 C   0  0  1  0  0  0
   -3.3850   -2.3040   15.8010 C   0  0  0  0  0  0
   -6.2160   -0.3060   14.4820 C   0  0  2  0  0  0
   -7.6030   -0.6410   14.5340 O   0  0  0  0  0  0
   -6.7270    2.0590   14.5800 O   0  0  0  0  0  0
   -4.4120    2.5380   16.1000 O   0  0  0  0  0  0
   -2.3520    0.4200   15.8510 O   0  0  0  0  0  0
   -5.4690   -1.3510   15.1020 O   0  0  0  0  0  0
   -3.7790   -2.3530   17.1780 O   0  0  0  0  0  0
    2.0063   -1.0151   18.9212 H   0  0  0  0  0  0
    3.3136   -0.9905   17.6896 H   0  0  0  0  0  0
    5.0304   -0.8609   19.3904 H   0  0  0  0  0  0
    2.8086   -0.6825   21.5296 H   0  0  0  0  0  0
    4.7320    1.4347   20.4341 H   0  0  0  0  0  0
    4.4096    1.8215   22.7738 H   0  0  0  0  0  0
    2.3337    3.5654   21.2957 H   0  0  0  0  0  0
    2.3472    4.1854   23.5943 H   0  0  0  0  0  0
    4.1049    3.8574   23.7654 H   0  0  0  0  0  0
    6.5961   -1.4276   23.5366 H   0  0  0  0  0  0
    5.4973   -2.3367   24.6288 H   0  0  0  0  0  0
    5.8707   -0.6118   24.9631 H   0  0  0  0  0  0
    5.8235   -0.8807   21.7119 H   0  0  0  0  0  0
    4.0980   -3.1382   19.0159 H   0  0  0  0  0  0
    2.3925    0.4345   23.2003 H   0  0  0  0  0  0
    4.3901    3.4425   19.8788 H   0  0  0  0  0  0
    3.6710    6.3639   23.6010 H   0  0  0  0  0  0
   -2.1515   -0.0620   17.8782 H   0  0  0  0  0  0
   -0.0121    1.2832   16.0815 H   0  0  0  0  0  0
    0.5301    0.4626   19.0030 H   0  0  0  0  0  0
    0.4486    2.8612   19.5392 H   0  0  0  0  0  0
   -1.7517    1.5297   19.5913 H   0  0  0  0  0  0
   -1.4855    4.1638   19.9966 H   0  0  0  0  0  0
   -2.3424    4.2968   18.4235 H   0  0  0  0  0  0
   -0.3260   -1.1647   15.7466 H   0  0  0  0  0  0
   -3.9992    4.2200   20.3451 H   0  0  0  0  0  0
    1.8692    3.9119   18.5843 H   0  0  0  0  0  0
    0.9311    5.4984   16.0906 H   0  0  0  0  0  0
    3.5915    5.6254   17.6264 H   0  0  0  0  0  0
    2.7105    7.8963   18.4368 H   0  0  0  0  0  0
    2.2813    5.6952   19.8057 H   0  0  0  0  0  0
    1.7456    7.4112   21.1903 H   0  0  0  0  0  0
    0.7611    8.2577   19.9490 H   0  0  0  0  0  0
    3.6067    2.2635   14.7316 H   0  0  0  0  0  0
    2.7581    2.5915   13.1827 H   0  0  0  0  0  0
    2.1197    1.3479   14.3108 H   0  0  0  0  0  0
    3.3803    3.7089   16.1961 H   0  0  0  0  0  0
    1.1528    8.3778   16.5643 H   0  0  0  0  0  0
   -0.7157    7.3506   21.8013 H   0  0  0  0  0  0
    5.1165    6.6320   17.1000 H   0  0  0  0  0  0
    4.8525    8.6133   14.7333 H   0  0  0  0  0  0
    7.4300    7.8411   16.2305 H   0  0  0  0  0  0
    7.3196   10.0155   17.3904 H   0  0  0  0  0  0
    6.0408    8.1770   18.5185 H   0  0  0  0  0  0
    5.9450   10.3283   19.6946 H   0  0  0  0  0  0
    4.6081   10.8855   18.6323 H   0  0  0  0  0  0
    4.9732    6.2385   14.0583 H   0  0  0  0  0  0
    7.6271    8.6647   13.8851 H   0  0  0  0  0  0
    6.2443   11.2806   15.5333 H   0  0  0  0  0  0
    3.7464   10.1368   20.8425 H   0  0  0  0  0  0
   -6.4556    0.9278   16.2428 H   0  0  0  0  0  0
   -4.1223    1.6007   14.3281 H   0  0  0  0  0  0
   -4.0295    0.0878   16.9780 H   0  0  0  0  0  0
   -3.7350   -0.9909   14.1005 H   0  0  0  0  0  0
   -3.6949   -3.2272   15.2895 H   0  0  0  0  0  0
   -2.2931   -2.1929   15.7274 H   0  0  0  0  0  0
   -5.8885   -0.2530   13.4332 H   0  0  0  0  0  0
   -8.3504    0.0427   14.1050 H   0  0  0  0  0  0
   -6.6954    3.0789   14.9910 H   0  0  0  0  0  0
   -4.9173    3.4644   15.7893 H   0  0  0  0  0  0
   -3.3952   -3.1500   17.8319 H   0  0  0  0  0  0
  1  2  1  0  0  0
  1 13  1  0  0  0
  1 14  2  0  0  0
  2  3  1  0  0  0
  2 16  1  0  0  0
  2 28  1  0  0  0
  3  4  1  0  0  0
  3 69  1  0  0  0
  3 70  1  0  0  0
  4  5  1  0  0  0
  4 15  1  0  0  0
  4 71  1  0  0  0
  5  6  1  0  0  0
  5 12  1  0  0  0
  5 72  1  0  0  0
  6  7  1  0  0  0
  6 16  1  0  0  0
  6 73  1  0  0  0
  7  8  1  0  0  0
  7 17  1  0  0  0
  7 74  1  0  0  0
  8  9  1  0  0  0
  8 18  1  0  0  0
  8 75  1  0  0  0
  9 19  1  0  0  0
  9 76  1  0  0  0
  9 77  1  0  0  0
 10 11  1  0  0  0
 10 12  1  0  0  0
 10 20  2  0  0  0
 11 78  1  0  0  0
 11 79  1  0  0  0
 11 80  1  0  0  0
 12 81  1  0  0  0
 15 82  1  0  0  0
 17 83  1  0  0  0
 18 84  1  0  0  0
 19 85  1  0  0  0
 21 22  1  0  0  0
 21 30  1  0  0  0
 21 66  1  0  0  0
 21 86  1  0  0  0
 22 23  1  0  0  0
 22 27  1  0  0  0
 22 87  1  0  0  0
 23 24  1  0  0  0
 23 28  1  0  0  0
 23 88  1  0  0  0
 24 25  1  0  0  0
 24 29  1  0  0  0
 24 89  1  0  0  0
 25 26  1  0  0  0
 25 30  1  0  0  0
 25 90  1  0  0  0
 26 31  1  0  0  0
 26 91  1  0  0  0
 26 92  1  0  0  0
 27 93  1  0  0  0
 29 32  1  0  0  0
 31 94  1  0  0  0
 32 33  1  0  0  0
 32 43  1  0  0  0
 32 95  1  0  0  0
 33 34  1  0  0  0
 33 40  1  0  0  0
 33 96  1  0  0  0
 34 35  1  0  0  0
 34 41  1  0  0  0
 34 97  1  0  0  0
 35 36  1  0  0  0
 35 42  1  0  0  0
 35 98  1  0  0  0
 36 37  1  0  0  0
 36 43  1  0  0  0
 36 99  1  0  0  0
 37 44  1  0  0  0
 37100  1  0  0  0
 37101  1  0  0  0
 38 39  1  0  0  0
 38 40  1  0  0  0
 38 45  2  0  0  0
 39102  1  0  0  0
 39103  1  0  0  0
 39104  1  0  0  0
 40105  1  0  0  0
 41 46  1  0  0  0
 42106  1  0  0  0
 44107  1  0  0  0
 46 47  1  0  0  0
 46 55  1  0  0  0
 46108  1  0  0  0
 47 48  1  0  0  0
 47 52  1  0  0  0
 47109  1  0  0  0
 48 49  1  0  0  0
 48 53  1  0  0  0
 48110  1  0  0  0
 49 50  1  0  0  0
 49 54  1  0  0  0
 49111  1  0  0  0
 50 51  1  0  0  0
 50 55  1  0  0  0
 50112  1  0  0  0
 51 56  1  0  0  0
 51113  1  0  0  0
 51114  1  0  0  0
 52115  1  0  0  0
 53116  1  0  0  0
 54117  1  0  0  0
 56118  1  0  0  0
 57 58  1  0  0  0
 57 62  1  0  0  0
 57 64  1  0  0  0
 57119  1  0  0  0
 58 59  1  0  0  0
 58 65  1  0  0  0
 58120  1  0  0  0
 59 60  1  0  0  0
 59 66  1  0  0  0
 59121  1  0  0  0
 60 61  1  0  0  0
 60 67  1  0  0  0
 60122  1  0  0  0
 61 68  1  0  0  0
 61123  1  0  0  0
 61124  1  0  0  0
 62 63  1  0  0  0
 62 67  1  0  0  0
 62125  1  0  0  0
 63126  1  0  0  0
 64127  1  0  0  0
 65128  1  0  0  0
 68129  1  0  0  0
M  CHG  1  13  -1
M  END
> <s_m_source_file>
../4x14_ligand.sdf

> <i_m_source_file_index>
1

> <s_epik_input>
W09IXVtDSDJdW0NAQEhdKFtPSF0pW0NAQEhdKFtPSF0pW0NASF0oTzEpW0NASF0oW05IXUMoPU8pW0NIM10pW0NAQEhdKFtPSF0pW0NIMl1bQ0BAXTEoQyg9TylbT0hdKU9bQ0BIXShbQ0BASF0oW09IXSlbQ0BASF0yT1tDQEBIXShbQ0BIXShbT0hdKVtDQEhdM1tPSF0pW0NAQEhdKFtDSDJdW09IXSlPW0NASF0zW09IXSlbQ0BIXShbQ0BIXShPMilbQ0gyXVtPSF0pT1tDQEhdNFtDQEhdKFtOSF1DKD1PKVtDSDNdKVtDQEhdKFtDQEBIXShbT0hdKVtDQEhdKE80KVtDSDJdW09IXSlPW0NASF01W0NASF0oW09IXSlbQ0BASF0oW09IXSlbQ0BASF0oW09IXSlbQ0BIXShPNSlbQ0gyXVtPSF0=

> <s_epik_cmdline>
J2VwaWtfYXBwJywgJy1pbWFlJywgJ2xpZ2FuZF9wcm8ubWFlJywgJy1vbWFlJywgJ2xpZ2FuZF9wcmVwLm1hZScsICctbXMnLCAnMScsICctcGgnLCAnNycsICctcGh0JywgJzAuNScsICctbnQn

> <r_lp_tautomer_probability>
1

> <r_epik_Ionization_Penalty>
  0.0000

> <r_epik_Ionization_Penalty_Charging>
  0.0000

> <r_epik_Ionization_Penalty_Neutral>
  0.0000

> <r_epik_State_Penalty>
 -0.0000

> <r_epik_Charging_Adjusted_Penalty>
9.88427715667134e-06

> <i_epik_Tot_Q>
-1

> <i_epik_Tot_abs_Q>
1

> <s_epik_Chemistry_Notes>
This compound contains an acetal/aminal-like group ( X-CH(R)-Y where X, Y are N, S, or O) that may be acid/base labile, releasing an aldehyde.

$$$$
