4x1f_ligand
                    3D
 Schrodinger Suite 2020-3.
 45 48  0  0  1  0            999 V2000
   13.2690   77.1610    0.4730 C   0  0  0  0  0  0
   13.4010   78.6440    0.7280 C   0  0  2  0  0  0
   12.7420   79.0240    2.0160 C   0  0  0  0  0  0
   11.2440   78.8180    1.9050 C   0  0  0  0  0  0
   10.6430   79.5090    0.7060 C   0  0  2  0  0  0
    9.2730   79.2850    0.6080 C   0  0  0  0  0  0
    8.5520   78.9650    1.7410 C   0  0  0  0  0  0
    7.2040   78.7350    1.7440 C   0  0  0  0  0  0
    6.5260   78.8350    0.5600 C   0  0  0  0  0  0
    5.2110   78.6280    0.5720 O   0  0  0  0  0  0
    7.2330   79.1720   -0.5960 C   0  0  0  0  0  0
    8.5990   79.3820   -0.5770 C   0  0  0  0  0  0
    9.2450   79.7200   -1.7420 C   0  0  0  0  0  0
   10.7230   79.9960   -1.5960 C   0  0  0  0  0  0
   11.3420   79.1250   -0.5370 C   0  0  1  0  0  0
   12.7850   79.4680   -0.3430 C   0  0  2  0  0  0
   13.6610   79.1500   -1.4940 C   0  0  0  0  0  0
   15.0360   78.9360   -0.8920 C   0  0  0  0  0  0
   14.8580   79.0300    0.5780 C   0  0  2  0  0  0
   15.6590   78.1060    1.2190 O   0  0  0  0  0  0
   15.1180   80.3630    1.0080 C   0  0  0  0  0  0
   15.2670   81.2040    1.2690 C   0  0  0  0  0  0
   12.2153   76.8633    0.5780 H   0  0  0  0  0  0
   13.8806   76.6079    1.2010 H   0  0  0  0  0  0
   13.6150   76.9319   -0.5457 H   0  0  0  0  0  0
   13.1367   78.3967    2.8288 H   0  0  0  0  0  0
   12.9489   80.0818    2.2357 H   0  0  0  0  0  0
   11.0273   77.7433    1.8155 H   0  0  0  0  0  0
   10.7513   79.2177    2.8036 H   0  0  0  0  0  0
   10.7018   80.6009    0.8254 H   0  0  0  0  0  0
    9.0879   78.8915    2.6873 H   0  0  0  0  0  0
    6.6829   78.4785    2.6664 H   0  0  0  0  0  0
    4.7043   78.3646    1.5121 H   0  0  0  0  0  0
    6.6936   79.2721   -1.5379 H   0  0  0  0  0  0
    9.1483   78.8981   -2.4666 H   0  0  0  0  0  0
    8.7942   80.6322   -2.1599 H   0  0  0  0  0  0
   11.2294   79.7965   -2.5519 H   0  0  0  0  0  0
   10.8734   81.0486   -1.3140 H   0  0  0  0  0  0
   11.2585   78.0576   -0.7895 H   0  0  0  0  0  0
   12.7493   80.5492   -0.1435 H   0  0  0  0  0  0
   13.2918   78.2437   -1.9963 H   0  0  0  0  0  0
   13.6543   79.9908   -2.2032 H   0  0  0  0  0  0
   15.4139   77.9451   -1.1840 H   0  0  0  0  0  0
   15.7223   79.7131   -1.2597 H   0  0  0  0  0  0
   15.5629   77.0362    0.9816 H   0  0  0  0  0  0
  1  2  1  0  0  0
  1 23  1  0  0  0
  1 24  1  0  0  0
  1 25  1  0  0  0
  2  3  1  0  0  0
  2 16  1  0  0  0
  2 19  1  0  0  0
  3  4  1  0  0  0
  3 26  1  0  0  0
  3 27  1  0  0  0
  4  5  1  0  0  0
  4 28  1  0  0  0
  4 29  1  0  0  0
  5  6  1  0  0  0
  5 15  1  0  0  0
  5 30  1  0  0  0
  6  7  2  0  0  0
  6 12  1  0  0  0
  7  8  1  0  0  0
  7 31  1  0  0  0
  8  9  2  0  0  0
  8 32  1  0  0  0
  9 10  1  0  0  0
  9 11  1  0  0  0
 10 33  1  0  0  0
 11 12  2  0  0  0
 11 34  1  0  0  0
 12 13  1  0  0  0
 13 14  1  0  0  0
 13 35  1  0  0  0
 13 36  1  0  0  0
 14 15  1  0  0  0
 14 37  1  0  0  0
 14 38  1  0  0  0
 15 16  1  0  0  0
 15 39  1  0  0  0
 16 17  1  0  0  0
 16 40  1  0  0  0
 17 18  1  0  0  0
 17 41  1  0  0  0
 17 42  1  0  0  0
 18 19  1  0  0  0
 18 43  1  0  0  0
 18 44  1  0  0  0
 19 20  1  0  0  0
 19 21  1  0  0  0
 20 45  1  0  0  0
 21 22  3  0  0  0
M  END
> <s_m_source_file>
../4x1f_ligand.sdf

> <i_m_source_file_index>
1

> <s_epik_input>
W0NIXSNDW0NAXTEoW09IXSlbQ0gyXVtDSDJdW0NASF0oW0NAQF0xMltDSDNdKVtDQEhdM1tDQEhdKFtDSDJdW0NIMl0yKWM0YyhbQ0gyXVtDSDJdMylbY0hdYyhbT0hdKVtjSF1bY0hdNA==

> <s_epik_cmdline>
J2VwaWtfYXBwJywgJy1pbWFlJywgJ2xpZ2FuZF9wcm8ubWFlJywgJy1vbWFlJywgJ2xpZ2FuZF9wcmVwLm1hZScsICctbXMnLCAnMScsICctcGgnLCAnNycsICctcGh0JywgJzAuNScsICctbnQn

> <r_lp_tautomer_probability>
1

> <r_epik_Ionization_Penalty>
  0.0001

> <r_epik_Ionization_Penalty_Charging>
  0.0000

> <r_epik_Ionization_Penalty_Neutral>
  0.0001

> <r_epik_State_Penalty>
 -0.0000

> <r_epik_Charging_Adjusted_Penalty>
0

> <i_epik_Tot_Q>
0

> <i_epik_Tot_abs_Q>
0

$$$$
