4x1n_ligand
                    3D
 Schrodinger Suite 2020-3.
140143  0  0  1  0            999 V2000
   18.0770   19.3120  -15.3220 N   0  0  0  0  0  0
   19.5300   19.0690  -15.0690 C   0  0  2  0  0  0
   20.3870   20.1390  -15.7420 C   0  0  0  0  0  0
   20.3330   20.2890  -16.9670 O   0  0  0  0  0  0
   19.9490   17.6870  -15.5810 C   0  0  0  0  0  0
   19.2680   16.3020  -14.6390 S   0  0  0  0  0  0
   21.1620   20.9020  -14.9470 N   0  0  0  0  0  0
   22.1530   21.8070  -15.5250 C   0  0  2  0  0  0
   23.2800   21.0360  -16.1970 C   0  0  0  0  0  0
   23.6550   19.9640  -15.7220 O   0  0  0  0  0  0
   22.6820   22.5790  -14.3120 C   0  0  0  0  0  0
   21.6110   22.4680  -13.2970 C   0  0  0  0  0  0
   21.0260   21.1070  -13.4960 C   0  0  0  0  0  0
   23.8110   21.5940  -17.2830 N   0  0  0  0  0  0
   24.7930   20.9160  -18.1320 C   0  0  2  0  0  0
   25.9940   20.3840  -17.3600 C   0  0  0  0  0  0
   26.5610   19.3530  -17.7240 O   0  0  0  0  0  0
   25.2650   21.8530  -19.2330 C   0  0  0  0  0  0
   26.3880   21.0910  -16.3030 N   0  0  0  0  0  0
   27.5410   20.6860  -15.5120 C   0  0  2  0  0  0
   27.1350   19.9660  -14.2310 C   0  0  0  0  0  0
   27.8840   19.9690  -13.2470 O   0  0  0  0  0  0
   28.4200   21.8960  -15.1890 C   0  0  0  0  0  0
   28.8380   22.7200  -16.3900 C   0  0  0  0  0  0
   28.8970   22.1660  -17.6710 C   0  0  0  0  0  0
   29.2140   24.0480  -16.2350 C   0  0  0  0  0  0
   29.2870   22.9280  -18.7590 C   0  0  0  0  0  0
   29.6180   24.8110  -17.3160 C   0  0  0  0  0  0
   29.6500   24.2490  -18.5750 C   0  0  0  0  0  0
   30.0480   25.0190  -19.6440 O   0  0  0  0  0  0
   25.9890   19.3090  -14.2250 N   0  0  0  0  0  0
   25.6250   18.5630  -13.0430 C   0  0  2  0  0  0
   26.5250   17.3800  -12.8500 C   0  0  0  0  0  0
   26.9220   16.7860  -13.8070 O   0  0  0  0  0  0
   24.2130   18.0940  -13.1000 C   0  0  0  0  0  0
   23.9220   17.4140  -11.9190 O   0  0  0  0  0  0
   26.8310   17.2710  -11.5650 N   0  0  0  0  0  0
   27.4040   15.9310  -11.4070 C   0  0  2  0  0  0
   26.3490   14.9970  -10.8820 C   0  0  0  0  0  0
   26.5950   14.1910  -10.0280 O   0  0  0  0  0  0
   28.5710   15.9810  -10.4540 C   0  0  0  0  0  0
   25.0710   14.9530  -10.4980 N   0  0  0  0  0  0
   24.0110   14.2040   -9.8630 C   0  0  2  0  0  0
   23.8490   12.9100  -10.5800 C   0  0  0  0  0  0
   23.7760   12.8760  -11.7820 O   0  0  0  0  0  0
   22.7200   14.9470   -9.9470 C   0  0  0  0  0  0
   21.5790   14.3180   -9.2210 C   0  0  0  0  0  0
   21.7640   13.6620   -8.0350 C   0  0  0  0  0  0
   20.3020   14.4190   -9.7120 C   0  0  0  0  0  0
   20.6990   13.1100   -7.3750 C   0  0  0  0  0  0
   19.2360   13.8660   -9.0590 C   0  0  0  0  0  0
   19.4380   13.2220   -7.8840 C   0  0  0  0  0  0
   18.3670   12.6910   -7.2480 O   0  0  0  0  0  0
   23.7930   11.8300   -9.8270 N   0  0  0  0  0  0
   23.8420   10.5060  -10.4630 C   0  0  2  0  0  0
   22.6370   10.2180  -11.3830 C   0  0  0  0  0  0
   22.6770    9.2770  -12.1770 O   0  0  0  0  0  0
   24.0340    9.3940   -9.4110 C   0  0  0  0  0  0
   22.8840    8.8090   -8.5750 C   0  0  0  0  0  0
   21.8420    9.8540   -8.1970 C   0  0  0  0  0  0
   22.2160    7.6320   -9.2790 C   0  0  0  0  0  0
   21.5830   11.0300  -11.2830 N   0  0  0  0  0  0
   20.3850   10.8760  -12.1160 C   0  0  2  0  0  0
   20.2750   11.9030  -13.2550 C   0  0  0  0  0  0
   19.1880   12.1050  -13.7970 O   0  0  0  0  0  0
   19.1330   10.9330  -11.2290 C   0  0  0  0  0  0
   18.9670    9.6890  -10.3780 C   0  0  0  0  0  0
   18.9670    8.5780  -10.9530 O   0  0  0  0  0  0
   18.8360    9.8180   -9.1390 O   0  5  0  0  0  0
   21.3890   12.5340  -13.6290 N   0  0  0  0  0  0
   21.4090   13.4790  -14.7570 C   0  0  2  0  0  0
   22.2680   12.9520  -15.9070 C   0  0  0  0  0  0
   22.9820   11.9580  -15.7650 O   0  0  0  0  0  0
   21.9240   14.8520  -14.3110 C   0  0  0  0  0  0
   20.7510   15.8190  -13.3270 S   0  0  0  0  0  0
   22.2700   13.5070  -17.0070 O   0  5  0  0  0  0
   17.8814   19.2713  -16.4037 H   0  0  0  0  0  0
   17.4820   18.5398  -14.8124 H   0  0  0  0  0  0
   19.6642   19.1213  -13.9785 H   0  0  0  0  0  0
   19.6121   17.5636  -16.6208 H   0  0  0  0  0  0
   21.0444   17.5964  -15.5373 H   0  0  0  0  0  0
   21.6914   22.4345  -16.3017 H   0  0  0  0  0  0
   23.6203   22.1206  -13.9664 H   0  0  0  0  0  0
   22.8679   23.6254  -14.5959 H   0  0  0  0  0  0
   22.0449   22.5797  -12.2924 H   0  0  0  0  0  0
   20.8644   23.2584  -13.4638 H   0  0  0  0  0  0
   19.9632   21.0570  -13.2167 H   0  0  0  0  0  0
   21.5829   20.3235  -12.9612 H   0  0  0  0  0  0
   23.4792   22.6129  -17.5317 H   0  0  0  0  0  0
   24.2446   20.0564  -18.5447 H   0  0  0  0  0  0
   24.3951   22.2346  -19.7876 H   0  0  0  0  0  0
   25.9273   21.3066  -19.9206 H   0  0  0  0  0  0
   25.8140   22.6955  -18.7871 H   0  0  0  0  0  0
   25.8250   21.9960  -16.0311 H   0  0  0  0  0  0
   28.0802   19.9763  -16.1567 H   0  0  0  0  0  0
   27.8769   22.5741  -14.5143 H   0  0  0  0  0  0
   29.3456   21.5570  -14.7009 H   0  0  0  0  0  0
   28.6322   21.1187  -17.8160 H   0  0  0  0  0  0
   29.1903   24.4978  -15.2424 H   0  0  0  0  0  0
   29.3077   22.4883  -19.7562 H   0  0  0  0  0  0
   29.9097   25.8515  -17.1733 H   0  0  0  0  0  0
   30.0784   24.5842  -20.6540 H   0  0  0  0  0  0
   25.3171   19.3219  -15.0958 H   0  0  0  0  0  0
   25.7420   19.2791  -12.2162 H   0  0  0  0  0  0
   23.5432   18.9598  -13.2082 H   0  0  0  0  0  0
   24.0845   17.4212  -13.9607 H   0  0  0  0  0  0
   22.9209   16.9856  -11.7634 H   0  0  0  0  0  0
   26.7400   17.9365  -10.6939 H   0  0  0  0  0  0
   27.7488   15.5899  -12.3943 H   0  0  0  0  0  0
   29.3363   16.6664  -10.8471 H   0  0  0  0  0  0
   29.0006   14.9740  -10.3473 H   0  0  0  0  0  0
   28.2276   16.3391   -9.4722 H   0  0  0  0  0  0
   24.8733   15.9617  -10.8897 H   0  0  0  0  0  0
   24.2988   14.0590   -8.8113 H   0  0  0  0  0  0
   22.8474   15.9528   -9.5202 H   0  0  0  0  0  0
   22.4135   15.0317  -11.0000 H   0  0  0  0  0  0
   22.7654   13.5782   -7.6128 H   0  0  0  0  0  0
   20.1331   14.9538  -10.6466 H   0  0  0  0  0  0
   20.8594   12.5779   -6.4373 H   0  0  0  0  0  0
   18.2332   13.9423   -9.4794 H   0  0  0  0  0  0
   18.5010   12.1626   -6.2925 H   0  0  0  0  0  0
   23.7104   11.9120   -8.7332 H   0  0  0  0  0  0
   24.7319   10.5697  -11.1065 H   0  0  0  0  0  0
   24.4448    8.4967   -9.8968 H   0  0  0  0  0  0
   24.7302    9.7412   -8.6333 H   0  0  0  0  0  0
   23.3346    8.4445   -7.6401 H   0  0  0  0  0  0
   22.3350   10.6969   -7.6906 H   0  0  0  0  0  0
   21.0996    9.4039   -7.5215 H   0  0  0  0  0  0
   21.3390   10.2157   -9.1059 H   0  0  0  0  0  0
   22.9775    6.8848   -9.5468 H   0  0  0  0  0  0
   21.7141    7.9872  -10.1911 H   0  0  0  0  0  0
   21.4747    7.1754   -8.6067 H   0  0  0  0  0  0
   21.6361   11.8397  -10.5403 H   0  0  0  0  0  0
   20.5160    9.8873  -12.5800 H   0  0  0  0  0  0
   19.2012   11.7986  -10.5536 H   0  0  0  0  0  0
   18.2391   11.0317  -11.8624 H   0  0  0  0  0  0
   22.3117   12.3299  -13.0660 H   0  0  0  0  0  0
   20.3618   13.5556  -15.0849 H   0  0  0  0  0  0
   22.8252   14.7227  -13.6936 H   0  0  0  0  0  0
   22.1697   15.4568  -15.1964 H   0  0  0  0  0  0
  1  2  1  0  0  0
  1 77  1  0  0  0
  1 78  1  0  0  0
  2  3  1  0  0  0
  2  5  1  0  0  0
  2 79  1  0  0  0
  3  4  2  0  0  0
  3  7  1  0  0  0
  5  6  1  0  0  0
  5 80  1  0  0  0
  5 81  1  0  0  0
  6 75  1  0  0  0
  7  8  1  0  0  0
  7 13  1  0  0  0
  8  9  1  0  0  0
  8 11  1  0  0  0
  8 82  1  0  0  0
  9 10  2  0  0  0
  9 14  1  0  0  0
 11 12  1  0  0  0
 11 83  1  0  0  0
 11 84  1  0  0  0
 12 13  1  0  0  0
 12 85  1  0  0  0
 12 86  1  0  0  0
 13 87  1  0  0  0
 13 88  1  0  0  0
 14 15  1  0  0  0
 14 89  1  0  0  0
 15 16  1  0  0  0
 15 18  1  0  0  0
 15 90  1  0  0  0
 16 17  2  0  0  0
 16 19  1  0  0  0
 18 91  1  0  0  0
 18 92  1  0  0  0
 18 93  1  0  0  0
 19 20  1  0  0  0
 19 94  1  0  0  0
 20 21  1  0  0  0
 20 23  1  0  0  0
 20 95  1  0  0  0
 21 22  2  0  0  0
 21 31  1  0  0  0
 23 24  1  0  0  0
 23 96  1  0  0  0
 23 97  1  0  0  0
 24 25  2  0  0  0
 24 26  1  0  0  0
 25 27  1  0  0  0
 25 98  1  0  0  0
 26 28  2  0  0  0
 26 99  1  0  0  0
 27 29  2  0  0  0
 27100  1  0  0  0
 28 29  1  0  0  0
 28101  1  0  0  0
 29 30  1  0  0  0
 30102  1  0  0  0
 31 32  1  0  0  0
 31103  1  0  0  0
 32 33  1  0  0  0
 32 35  1  0  0  0
 32104  1  0  0  0
 33 34  2  0  0  0
 33 37  1  0  0  0
 35 36  1  0  0  0
 35105  1  0  0  0
 35106  1  0  0  0
 36107  1  0  0  0
 37 38  1  0  0  0
 37108  1  0  0  0
 38 39  1  0  0  0
 38 41  1  0  0  0
 38109  1  0  0  0
 39 40  2  0  0  0
 39 42  1  0  0  0
 41110  1  0  0  0
 41111  1  0  0  0
 41112  1  0  0  0
 42 43  1  0  0  0
 42113  1  0  0  0
 43 44  1  0  0  0
 43 46  1  0  0  0
 43114  1  0  0  0
 44 45  2  0  0  0
 44 54  1  0  0  0
 46 47  1  0  0  0
 46115  1  0  0  0
 46116  1  0  0  0
 47 48  2  0  0  0
 47 49  1  0  0  0
 48 50  1  0  0  0
 48117  1  0  0  0
 49 51  2  0  0  0
 49118  1  0  0  0
 50 52  2  0  0  0
 50119  1  0  0  0
 51 52  1  0  0  0
 51120  1  0  0  0
 52 53  1  0  0  0
 53121  1  0  0  0
 54 55  1  0  0  0
 54122  1  0  0  0
 55 56  1  0  0  0
 55 58  1  0  0  0
 55123  1  0  0  0
 56 57  2  0  0  0
 56 62  1  0  0  0
 58 59  1  0  0  0
 58124  1  0  0  0
 58125  1  0  0  0
 59 60  1  0  0  0
 59 61  1  0  0  0
 59126  1  0  0  0
 60127  1  0  0  0
 60128  1  0  0  0
 60129  1  0  0  0
 61130  1  0  0  0
 61131  1  0  0  0
 61132  1  0  0  0
 62 63  1  0  0  0
 62133  1  0  0  0
 63 64  1  0  0  0
 63 66  1  0  0  0
 63134  1  0  0  0
 64 65  2  0  0  0
 64 70  1  0  0  0
 66 67  1  0  0  0
 66135  1  0  0  0
 66136  1  0  0  0
 67 68  2  0  0  0
 67 69  1  0  0  0
 70 71  1  0  0  0
 70137  1  0  0  0
 71 72  1  0  0  0
 71 74  1  0  0  0
 71138  1  0  0  0
 72 73  2  0  0  0
 72 76  1  0  0  0
 74 75  1  0  0  0
 74139  1  0  0  0
 74140  1  0  0  0
M  CHG  2  69  -1  76  -1
M  END
> <s_m_source_file>
../4x1n_ligand.sdf

> <i_m_source_file_index>
1

> <s_epik_input>
Tz1DMVtDQEBIXShbTkgzK10pW0NIMl1TU1tDSDJdW0NAQEhdKEMoPU8pW09IXSlbTkhdQyg9TylbQ0BIXShbQ0gyXUMoPU8pW09IXSlbTkhdQyg9TylbQ0BIXShbQ0gyXVtDSF0oW0NIM10pW0NIM10pW05IXUMoPU8pW0NASF0oW0NIMl1jMltjSF1bY0hdYyhbT0hdKVtjSF1bY0hdMilbTkhdQyg9TylbQ0BIXShbQ0gzXSlbTkhdQyg9TylbQ0BIXShbQ0gyXVtPSF0pW05IXUMoPU8pW0NASF0oW0NIMl1jM1tjSF1bY0hdYyhbT0hdKVtjSF1bY0hdMylbTkhdQyg9TylbQ0BIXShbQ0gzXSlbTkhdQyg9TylbQ0BASF0oTjE0KVtDSDJdW0NIMl1bQ0gyXTQ=

> <s_epik_cmdline>
J2VwaWtfYXBwJywgJy1pbWFlJywgJ2xpZ2FuZF9wcm8ubWFlJywgJy1vbWFlJywgJ2xpZ2FuZF9wcmVwLm1hZScsICctbXMnLCAnMScsICctcGgnLCAnNycsICctcGh0JywgJzAuNScsICctbnQn

> <r_lp_tautomer_probability>
0.99999999999473

> <r_epik_Ionization_Penalty>
  0.3915

> <r_epik_Ionization_Penalty_Charging>
  0.0016

> <r_epik_Ionization_Penalty_Neutral>
  0.3899

> <r_epik_State_Penalty>
  0.3867

> <r_epik_Charging_Adjusted_Penalty>
0.388251543895098

> <i_epik_Tot_Q>
-2

> <i_epik_Tot_abs_Q>
2

$$$$
