4x1p_ligand
                    3D
 Schrodinger Suite 2020-3.
142145  0  0  1  0            999 V2000
   26.5610   21.8380  -28.6560 N   0  0  0  0  0  0
   27.2560   21.1840  -27.4930 C   0  0  2  0  0  0
   26.4350   21.0520  -26.1790 C   0  0  0  0  0  0
   26.0630   19.9270  -25.8150 O   0  0  0  0  0  0
   28.6530   21.8230  -27.2360 C   0  0  0  0  0  0
   29.6570   21.2300  -25.8040 S   0  0  0  0  0  0
   26.1460   22.1900  -25.4890 N   0  0  0  0  0  0
   25.7740   22.2720  -24.0590 C   0  0  2  0  0  0
   25.3200   20.9550  -23.4020 C   0  0  0  0  0  0
   24.5390   20.2350  -24.0210 O   0  0  0  0  0  0
   24.6470   23.3210  -24.0780 C   0  0  0  0  0  0
   25.1070   24.2950  -25.1290 C   0  0  0  0  0  0
   25.9200   23.5030  -26.1450 C   0  0  0  0  0  0
   25.7250   20.6150  -22.1680 N   0  0  0  0  0  0
   26.3330   21.4180  -21.0630 C   0  0  2  0  0  0
   25.5540   20.9860  -19.7990 C   0  0  0  0  0  0
   24.4920   21.5460  -19.4780 O   0  0  0  0  0  0
   26.2380   22.9170  -21.2570 C   0  0  0  0  0  0
   26.0540   19.9600  -19.1130 N   0  0  0  0  0  0
   25.3260   19.3090  -17.9950 C   0  0  2  0  0  0
   26.3800   19.1290  -16.9220 C   0  0  0  0  0  0
   27.5440   19.2370  -17.2220 O   0  0  0  0  0  0
   24.7820   17.9310  -18.4170 C   0  0  0  0  0  0
   23.6100   18.0100  -19.3420 C   0  0  0  0  0  0
   22.3130   18.1090  -18.8300 C   0  0  0  0  0  0
   23.7910   18.0200  -20.7460 C   0  0  0  0  0  0
   21.2150   18.2290  -19.6710 C   0  0  0  0  0  0
   22.7020   18.1270  -21.6080 C   0  0  0  0  0  0
   21.4150   18.2310  -21.0630 C   0  0  0  0  0  0
   20.3150   18.3350  -21.8940 O   0  0  0  0  0  0
   25.9860   18.9600  -15.6660 N   0  0  0  0  0  0
   27.0150   18.6910  -14.6400 C   0  0  2  0  0  0
   27.5170   17.2580  -14.6450 C   0  0  0  0  0  0
   26.7070   16.3040  -14.6440 O   0  0  0  0  0  0
   26.4870   19.0970  -13.2850 C   0  0  0  0  0  0
   27.5290   18.8640  -12.3750 O   0  0  0  0  0  0
   29.0380   17.0660  -14.6710 N   0  0  0  0  0  0
   29.0910   15.6440  -14.3780 C   0  0  2  0  0  0
   29.1020   15.2460  -12.8850 C   0  0  0  0  0  0
   29.3600   14.6230  -15.4780 C   0  0  1  0  0  0
   29.3100   13.3630  -14.8670 O   0  5  0  0  0  0
   28.8320   15.3110  -16.7860 N   0  3  0  0  0  0
   28.9140   14.0710  -17.6440 C   0  0  2  0  0  0
   30.0660   14.2040  -18.6670 C   0  0  0  0  0  0
   31.2680   13.9350  -18.3570 O   0  0  0  0  0  0
   27.5220   13.8100  -18.2420 C   0  0  0  0  0  0
   27.4090   12.6430  -19.2380 C   0  0  0  0  0  0
   28.1060   11.4190  -19.0360 C   0  0  0  0  0  0
   26.5760   12.7720  -20.3820 C   0  0  0  0  0  0
   27.9940   10.3790  -19.9570 C   0  0  0  0  0  0
   26.4540   11.7420  -21.2910 C   0  0  0  0  0  0
   27.1450   10.5410  -21.0620 C   0  0  0  0  0  0
   27.0110    9.4890  -21.9810 O   0  0  0  0  0  0
   29.7290   14.6260  -19.8720 N   0  0  0  0  0  0
   30.7490   14.9800  -20.8650 C   0  0  2  0  0  0
   30.9390   16.5050  -21.0520 C   0  0  0  0  0  0
   30.1630   17.3410  -20.5390 O   0  0  0  0  0  0
   30.4020   14.3460  -22.2190 C   0  0  0  0  0  0
   29.9510   12.8900  -22.1210 C   0  0  0  0  0  0
   29.1920   12.4800  -23.3940 C   0  0  0  0  0  0
   31.1270   11.9230  -21.8700 C   0  0  0  0  0  0
   31.9690   16.8680  -21.8090 N   0  0  0  0  0  0
   32.0950   18.2770  -22.1680 C   0  0  2  0  0  0
   30.7840   18.7350  -22.8650 C   0  0  0  0  0  0
   30.2020   19.7810  -22.4860 O   0  0  0  0  0  0
   33.3030   18.4960  -23.1070 C   0  0  0  0  0  0
   33.8850   19.9080  -23.0120 C   0  0  0  0  0  0
   33.3140   20.8020  -22.3370 O   0  5  0  0  0  0
   34.9760   20.1160  -23.5820 O   0  0  0  0  0  0
   30.4370   17.9700  -23.9130 N   0  0  0  0  0  0
   29.2520   18.1320  -24.7570 C   0  0  2  0  0  0
   28.4070   16.8880  -24.6440 C   0  0  0  0  0  0
   28.8030   15.8530  -25.1540 O   0  5  0  0  0  0
   29.6920   18.2550  -26.2210 C   0  0  0  0  0  0
   30.7880   19.6770  -26.5090 S   0  0  0  0  0  0
   27.3460   16.9440  -24.0450 O   0  0  0  0  0  0
   26.3864   22.9000  -28.4287 H   0  0  0  0  0  0
   27.1908   21.7539  -29.5539 H   0  0  0  0  0  0
   27.3619   20.1510  -27.8560 H   0  0  0  0  0  0
   29.2977   21.6596  -28.1122 H   0  0  0  0  0  0
   28.5360   22.9030  -27.0632 H   0  0  0  0  0  0
   26.6683   22.5309  -23.4732 H   0  0  0  0  0  0
   23.6967   22.8334  -24.3410 H   0  0  0  0  0  0
   24.5592   23.7829  -23.0836 H   0  0  0  0  0  0
   24.2317   24.7583  -25.6078 H   0  0  0  0  0  0
   25.7246   25.0755  -24.6605 H   0  0  0  0  0  0
   26.8890   23.9780  -26.3581 H   0  0  0  0  0  0
   25.3704   23.3530  -27.0860 H   0  0  0  0  0  0
   25.5407   19.5395  -22.0292 H   0  0  0  0  0  0
   27.4157   21.2251  -21.0374 H   0  0  0  0  0  0
   26.7969   23.2061  -22.1592 H   0  0  0  0  0  0
   26.6653   23.4278  -20.3815 H   0  0  0  0  0  0
   25.1827   23.2058  -21.3711 H   0  0  0  0  0  0
   27.0503   19.5972  -19.4058 H   0  0  0  0  0  0
   24.4771   19.9309  -17.6748 H   0  0  0  0  0  0
   25.5724   17.3676  -18.9345 H   0  0  0  0  0  0
   24.4599   17.3749  -17.5243 H   0  0  0  0  0  0
   22.1610   18.0917  -17.7508 H   0  0  0  0  0  0
   24.7970   17.9429  -21.1585 H   0  0  0  0  0  0
   20.2106   18.3205  -19.2576 H   0  0  0  0  0  0
   22.8483   18.1298  -22.6881 H   0  0  0  0  0  0
   19.3061   18.4165  -21.4633 H   0  0  0  0  0  0
   24.9253   19.0156  -15.3798 H   0  0  0  0  0  0
   27.8818   19.3138  -14.9062 H   0  0  0  0  0  0
   26.2079   20.1608  -13.3040 H   0  0  0  0  0  0
   25.6030   18.4903  -13.0391 H   0  0  0  0  0  0
   27.3862   19.0850  -11.3069 H   0  0  0  0  0  0
   29.9691   17.6302  -14.8285 H   0  0  0  0  0  0
   28.0844   15.6307  -14.8214 H   0  0  0  0  0  0
   28.8854   16.1306  -12.2681 H   0  0  0  0  0  0
   30.0921   14.8471  -12.6192 H   0  0  0  0  0  0
   28.3364   14.4769  -12.7049 H   0  0  0  0  0  0
   30.2559   14.1481  -15.9043 H   0  0  0  0  0  0
   27.8215   15.7079  -16.6092 H   0  0  0  0  0  0
   29.5058   16.1346  -17.0648 H   0  0  0  0  0  0
   29.1695   13.1888  -17.0387 H   0  0  0  0  0  0
   26.8120   13.5836  -17.4329 H   0  0  0  0  0  0
   27.1838   14.7035  -18.7873 H   0  0  0  0  0  0
   28.7330   11.2937  -18.1532 H   0  0  0  0  0  0
   26.0253   13.6987  -20.5435 H   0  0  0  0  0  0
   28.5566    9.4553  -19.8210 H   0  0  0  0  0  0
   25.8289   11.8587  -22.1763 H   0  0  0  0  0  0
   27.5460    8.5423  -21.8151 H   0  0  0  0  0  0
   28.6619   14.7100  -20.1256 H   0  0  0  0  0  0
   31.6705   14.5596  -20.4360 H   0  0  0  0  0  0
   29.5830   14.9103  -22.6890 H   0  0  0  0  0  0
   31.2864   14.3703  -22.8727 H   0  0  0  0  0  0
   29.2782   12.8288  -21.2529 H   0  0  0  0  0  0
   28.3567   13.1756  -23.5629 H   0  0  0  0  0  0
   28.8005   11.4590  -23.2746 H   0  0  0  0  0  0
   29.8758   12.5122  -24.2550 H   0  0  0  0  0  0
   31.6622   12.2256  -20.9579 H   0  0  0  0  0  0
   31.8162   11.9537  -22.7268 H   0  0  0  0  0  0
   30.7409   10.9004  -21.7464 H   0  0  0  0  0  0
   32.7146   16.1412  -22.1638 H   0  0  0  0  0  0
   32.2641   18.8175  -21.2250 H   0  0  0  0  0  0
   34.1026   17.7866  -22.8473 H   0  0  0  0  0  0
   32.9917   18.3321  -24.1492 H   0  0  0  0  0  0
   31.1481   17.1552  -24.1139 H   0  0  0  0  0  0
   28.7106   19.0225  -24.4051 H   0  0  0  0  0  0
   30.2354   17.3459  -26.5181 H   0  0  0  0  0  0
   28.8059   18.3782  -26.8611 H   0  0  0  0  0  0
  1  2  1  0  0  0
  1 77  1  0  0  0
  1 78  1  0  0  0
  2  3  1  0  0  0
  2  5  1  0  0  0
  2 79  1  0  0  0
  3  4  2  0  0  0
  3  7  1  0  0  0
  5  6  1  0  0  0
  5 80  1  0  0  0
  5 81  1  0  0  0
  6 75  1  0  0  0
  7  8  1  0  0  0
  7 13  1  0  0  0
  8  9  1  0  0  0
  8 11  1  0  0  0
  8 82  1  0  0  0
  9 10  2  0  0  0
  9 14  1  0  0  0
 11 12  1  0  0  0
 11 83  1  0  0  0
 11 84  1  0  0  0
 12 13  1  0  0  0
 12 85  1  0  0  0
 12 86  1  0  0  0
 13 87  1  0  0  0
 13 88  1  0  0  0
 14 15  1  0  0  0
 14 89  1  0  0  0
 15 16  1  0  0  0
 15 18  1  0  0  0
 15 90  1  0  0  0
 16 17  2  0  0  0
 16 19  1  0  0  0
 18 91  1  0  0  0
 18 92  1  0  0  0
 18 93  1  0  0  0
 19 20  1  0  0  0
 19 94  1  0  0  0
 20 21  1  0  0  0
 20 23  1  0  0  0
 20 95  1  0  0  0
 21 22  2  0  0  0
 21 31  1  0  0  0
 23 24  1  0  0  0
 23 96  1  0  0  0
 23 97  1  0  0  0
 24 25  2  0  0  0
 24 26  1  0  0  0
 25 27  1  0  0  0
 25 98  1  0  0  0
 26 28  2  0  0  0
 26 99  1  0  0  0
 27 29  2  0  0  0
 27100  1  0  0  0
 28 29  1  0  0  0
 28101  1  0  0  0
 29 30  1  0  0  0
 30102  1  0  0  0
 31 32  1  0  0  0
 31103  1  0  0  0
 32 33  1  0  0  0
 32 35  1  0  0  0
 32104  1  0  0  0
 33 34  2  0  0  0
 33 37  1  0  0  0
 35 36  1  0  0  0
 35105  1  0  0  0
 35106  1  0  0  0
 36107  1  0  0  0
 37 38  1  0  0  0
 37108  1  0  0  0
 38 39  1  0  0  0
 38 40  1  0  0  0
 38109  1  0  0  0
 39110  1  0  0  0
 39111  1  0  0  0
 39112  1  0  0  0
 40 41  1  0  0  0
 40 42  1  0  0  0
 40113  1  0  0  0
 42 43  1  0  0  0
 42114  1  0  0  0
 42115  1  0  0  0
 43 44  1  0  0  0
 43 46  1  0  0  0
 43116  1  0  0  0
 44 45  2  0  0  0
 44 54  1  0  0  0
 46 47  1  0  0  0
 46117  1  0  0  0
 46118  1  0  0  0
 47 48  2  0  0  0
 47 49  1  0  0  0
 48 50  1  0  0  0
 48119  1  0  0  0
 49 51  2  0  0  0
 49120  1  0  0  0
 50 52  2  0  0  0
 50121  1  0  0  0
 51 52  1  0  0  0
 51122  1  0  0  0
 52 53  1  0  0  0
 53123  1  0  0  0
 54 55  1  0  0  0
 54124  1  0  0  0
 55 56  1  0  0  0
 55 58  1  0  0  0
 55125  1  0  0  0
 56 57  2  0  0  0
 56 62  1  0  0  0
 58 59  1  0  0  0
 58126  1  0  0  0
 58127  1  0  0  0
 59 60  1  0  0  0
 59 61  1  0  0  0
 59128  1  0  0  0
 60129  1  0  0  0
 60130  1  0  0  0
 60131  1  0  0  0
 61132  1  0  0  0
 61133  1  0  0  0
 61134  1  0  0  0
 62 63  1  0  0  0
 62135  1  0  0  0
 63 64  1  0  0  0
 63 66  1  0  0  0
 63136  1  0  0  0
 64 65  2  0  0  0
 64 70  1  0  0  0
 66 67  1  0  0  0
 66137  1  0  0  0
 66138  1  0  0  0
 67 68  1  0  0  0
 67 69  2  0  0  0
 70 71  1  0  0  0
 70139  1  0  0  0
 71 72  1  0  0  0
 71 74  1  0  0  0
 71140  1  0  0  0
 72 73  1  0  0  0
 72 76  2  0  0  0
 74 75  1  0  0  0
 74141  1  0  0  0
 74142  1  0  0  0
M  CHG  4  41  -1  42   1  68  -1  73  -1
M  END
> <s_m_source_file>
../4x1p_ligand.sdf

> <i_m_source_file_index>
1

> <s_epik_input>
Tz1DMVtDQEBIXShbTkgzK10pW0NIMl1TU1tDSDJdW0NAQEhdKEMoPU8pW09IXSlbTkhdQyg9TylbQ0BIXShbQ0gyXUMoPU8pW09IXSlbTkhdQyg9TylbQ0BIXShbQ0gyXVtDSF0oW0NIM10pW0NIM10pW05IXUMoPU8pW0NASF0oW0NIMl1jMltjSF1bY0hdYyhbT0hdKVtjSF1bY0hdMilbTkgyK11bQ0BIXShbT0hdKVtDQEBIXShbQ0gzXSlbTkhdQyg9TylbQ0BIXShbQ0gyXVtPSF0pW05IXUMoPU8pW0NASF0oW0NIMl1jM1tjSF1bY0hdYyhbT0hdKVtjSF1bY0hdMylbTkhdQyg9TylbQ0BIXShbQ0gzXSlbTkhdQyg9TylbQ0BASF0oTjE0KVtDSDJdW0NIMl1bQ0gyXTQ=

> <s_epik_cmdline>
J2VwaWtfYXBwJywgJy1pbWFlJywgJ2xpZ2FuZF9wcm8ubWFlJywgJy1vbWFlJywgJ2xpZ2FuZF9wcmVwLm1hZScsICctbXMnLCAnMScsICctcGgnLCAnNycsICctcGh0JywgJzAuNScsICctbnQn

> <r_lp_tautomer_probability>
0.99999999999473

> <r_epik_Ionization_Penalty>
  0.5839

> <r_epik_Ionization_Penalty_Charging>
  0.1923

> <r_epik_Ionization_Penalty_Neutral>
  0.3916

> <r_epik_State_Penalty>
  0.3867

> <r_epik_Charging_Adjusted_Penalty>
0.578945411784308

> <i_epik_Tot_Q>
-2

> <i_epik_Tot_abs_Q>
4

> <s_epik_Chemistry_Notes>
This compound contains an acetal/aminal-like group ( X-CH(R)-Y where X, Y are N, S, or O) that may be acid/base labile, releasing an aldehyde.

$$$$
