4x1q_ligand
                    3D
 Schrodinger Suite 2020-3.
156159  0  0  1  0            999 V2000
    9.3440  -24.8960  -14.1240 N   0  3  0  0  0  0
    8.6750  -26.0980  -13.5330 C   0  0  2  0  0  0
    9.2860  -27.4050  -14.0400 C   0  0  0  0  0  0
    9.6300  -27.5030  -15.2270 O   0  0  0  0  0  0
    7.1750  -26.1010  -13.8620 C   0  0  0  0  0  0
    6.1180  -24.9970  -12.8380 S   0  0  0  0  0  0
    9.4100  -28.4200  -13.1540 N   0  0  0  0  0  0
    9.6950  -29.7840  -13.6450 C   0  0  2  0  0  0
    8.5700  -30.2610  -14.5630 C   0  0  0  0  0  0
    7.4150  -29.9010  -14.3400 O   0  0  0  0  0  0
    9.7240  -30.6220  -12.3640 C   0  0  0  0  0  0
   10.1020  -29.6630  -11.3190 C   0  0  0  0  0  0
    9.4470  -28.3550  -11.6820 C   0  0  0  0  0  0
    8.9020  -31.0500  -15.5860 N   0  0  0  0  0  0
    7.9350  -31.3990  -16.6350 C   0  0  2  0  0  0
    6.7460  -32.2370  -16.1320 C   0  0  0  0  0  0
    5.6870  -32.2810  -16.7650 O   0  0  0  0  0  0
    8.6370  -32.0900  -17.8120 C   0  0  0  0  0  0
    6.9370  -32.8870  -14.9840 N   0  0  0  0  0  0
    5.9570  -33.8170  -14.4390 C   0  0  2  0  0  0
    5.2530  -33.3240  -13.1570 C   0  0  0  0  0  0
    4.5260  -34.0880  -12.5110 O   0  0  0  0  0  0
    6.6230  -35.1730  -14.1740 C   0  0  0  0  0  0
    7.2020  -35.8760  -15.3820 C   0  0  0  0  0  0
    6.8960  -35.4540  -16.6850 C   0  0  0  0  0  0
    8.0120  -37.0110  -15.2220 C   0  0  0  0  0  0
    7.4220  -36.1080  -17.7940 C   0  0  0  0  0  0
    8.5210  -37.6920  -16.3200 C   0  0  0  0  0  0
    8.2300  -37.2280  -17.6090 C   0  0  0  0  0  0
    8.7310  -37.8810  -18.7150 O   0  0  0  0  0  0
    5.4770  -32.0630  -12.7870 N   0  0  0  0  0  0
    4.7760  -31.4390  -11.6510 C   0  0  2  0  0  0
    3.2460  -31.5690  -11.7390 C   0  0  0  0  0  0
    2.6750  -31.5400  -12.8480 O   0  0  0  0  0  0
    5.1470  -29.9590  -11.5450 C   0  0  0  0  0  0
    4.7310  -29.4140  -10.2940 O   0  0  0  0  0  0
    2.6110  -31.7280  -10.5690 N   0  0  0  0  0  0
    1.1410  -31.7380  -10.4280 C   0  0  2  0  0  0
    0.7100  -30.5450   -9.5400 C   0  0  0  0  0  0
   -0.3870  -30.5040   -8.9350 O   0  0  0  0  0  0
    0.6320  -33.0890   -9.8920 C   0  0  0  0  0  0
    0.9630  -34.2590  -10.7830 C   0  0  0  0  0  0
    0.1500  -35.4760  -10.4220 C   0  0  0  0  0  0
   -0.0200  -36.4060  -11.5500 N   0  0  0  0  0  0
   -0.3200  -37.7060  -11.4220 C   0  0  0  0  0  0
   -0.4530  -38.2390  -10.2180 N   0  0  0  0  0  0
   -0.4640  -38.4890  -12.4880 N   0  0  0  0  0  0
    1.6120  -29.5690   -9.4870 N   0  0  0  0  0  0
    1.3890  -28.2880   -8.8320 C   0  0  2  0  0  0
    0.5060  -27.3810   -9.6830 C   0  0  0  0  0  0
    0.7160  -27.2470  -10.9040 O   0  0  0  0  0  0
    2.7320  -27.6160   -8.6200 C   0  0  0  0  0  0
    2.6830  -26.2860   -7.9200 C   0  0  0  0  0  0
    1.7490  -26.0390   -6.9040 C   0  0  0  0  0  0
    3.6060  -25.2850   -8.2490 C   0  0  0  0  0  0
    1.7120  -24.8300   -6.2640 C   0  0  0  0  0  0
    3.5900  -24.0670   -7.6030 C   0  0  0  0  0  0
    2.6350  -23.8360   -6.6050 C   0  0  0  0  0  0
    2.6180  -22.6170   -5.9450 O   0  0  0  0  0  0
   -0.4650  -26.7440   -9.0360 N   0  0  0  0  0  0
   -1.4590  -25.9390   -9.7550 C   0  0  2  0  0  0
   -0.8760  -24.7330  -10.5300 C   0  0  0  0  0  0
   -1.4240  -24.3630  -11.5700 O   0  0  0  0  0  0
   -2.6510  -25.5580   -8.8460 C   0  0  0  0  0  0
   -2.9090  -24.2260   -8.1180 C   0  0  0  0  0  0
   -1.6370  -23.6300   -7.4940 C   0  0  0  0  0  0
   -3.6110  -23.2110   -9.0470 C   0  0  0  0  0  0
    0.2320  -24.1550  -10.0410 N   0  0  0  0  0  0
    0.9040  -23.0200  -10.7060 C   0  0  2  0  0  0
    1.7780  -23.4140  -11.9120 C   0  0  0  0  0  0
    2.2830  -22.5430  -12.6220 O   0  0  0  0  0  0
    1.7330  -22.2030   -9.6980 C   0  0  0  0  0  0
    1.0010  -20.9650   -9.1960 C   0  0  0  0  0  0
    0.6280  -20.1060  -10.0190 O   0  0  0  0  0  0
    0.7850  -20.8420   -7.9750 O   0  0  0  0  0  0
    1.9460  -24.7140  -12.1420 N   0  0  0  0  0  0
    2.8170  -25.2140  -13.2090 C   0  0  2  0  0  0
    2.0810  -25.3600  -14.5350 C   0  0  0  0  0  0
    1.1180  -24.6270  -14.7880 O   0  0  0  0  0  0
    3.4820  -26.5330  -12.7870 C   0  0  0  0  0  0
    4.9400  -26.2670  -11.7090 S   0  0  0  0  0  0
    2.4500  -26.2110  -15.3530 O   0  0  0  0  0  0
   10.4156  -24.9141  -13.8765 H   0  0  0  0  0  0
    8.8880  -23.9833  -13.7127 H   0  0  0  0  0  0
    9.2198  -24.9075  -15.2169 H   0  0  0  0  0  0
    8.8421  -26.0160  -12.4489 H   0  0  0  0  0  0
    7.0276  -25.7817  -14.9043 H   0  0  0  0  0  0
    6.7725  -27.1160  -13.7291 H   0  0  0  0  0  0
   10.6301  -29.8172  -14.2233 H   0  0  0  0  0  0
    8.7288  -31.0560  -12.1872 H   0  0  0  0  0  0
   10.4626  -31.4301  -12.4711 H   0  0  0  0  0  0
    9.7449  -30.0242  -10.3433 H   0  0  0  0  0  0
   11.1970  -29.5608  -11.2937 H   0  0  0  0  0  0
   10.0349  -27.4798  -11.3683 H   0  0  0  0  0  0
    8.4219  -28.2666  -11.2930 H   0  0  0  0  0  0
    9.9289  -31.4417  -15.6322 H   0  0  0  0  0  0
    7.5374  -30.4215  -16.9456 H   0  0  0  0  0  0
    9.4807  -31.4706  -18.1505 H   0  0  0  0  0  0
    7.9234  -32.2211  -18.6388 H   0  0  0  0  0  0
    9.0101  -33.0735  -17.4902 H   0  0  0  0  0  0
    7.8768  -32.6994  -14.4441 H   0  0  0  0  0  0
    5.2044  -33.8705  -15.2395 H   0  0  0  0  0  0
    7.4573  -35.0403  -13.4695 H   0  0  0  0  0  0
    5.8854  -35.8657  -13.7425 H   0  0  0  0  0  0
    6.2351  -34.5995  -16.8303 H   0  0  0  0  0  0
    8.2458  -37.3643  -14.2177 H   0  0  0  0  0  0
    7.2040  -35.7475  -18.7993 H   0  0  0  0  0  0
    9.1403  -38.5780  -16.1802 H   0  0  0  0  0  0
    8.4984  -37.5110  -19.7244 H   0  0  0  0  0  0
    6.2147  -31.4849  -13.3627 H   0  0  0  0  0  0
    5.1334  -32.0056  -10.7785 H   0  0  0  0  0  0
    6.2378  -29.8473  -11.6323 H   0  0  0  0  0  0
    4.6552  -29.3988  -12.3539 H   0  0  0  0  0  0
    4.9254  -28.3562  -10.0630 H   0  0  0  0  0  0
    3.2494  -31.8558   -9.6824 H   0  0  0  0  0  0
    0.7234  -31.6214  -11.4389 H   0  0  0  0  0  0
    1.0849  -33.2877   -8.9095 H   0  0  0  0  0  0
   -0.4628  -33.0544   -9.7908 H   0  0  0  0  0  0
    0.7489  -33.9952  -11.8292 H   0  0  0  0  0  0
    2.0291  -34.5092  -10.6788 H   0  0  0  0  0  0
    0.6500  -36.0230   -9.6091 H   0  0  0  0  0  0
   -0.8515  -35.1632  -10.0917 H   0  0  0  0  0  0
    0.0996  -36.0459  -12.5825 H   0  0  0  0  0  0
   -0.3381  -37.6105   -9.3225 H   0  0  0  0  0  0
   -0.3578  -38.0674  -13.4984 H   0  0  0  0  0  0
   -0.6893  -39.5579  -12.3589 H   0  0  0  0  0  0
    2.5744  -29.7755   -9.9781 H   0  0  0  0  0  0
    0.8859  -28.5075   -7.8788 H   0  0  0  0  0  0
    3.3750  -28.2664   -8.0088 H   0  0  0  0  0  0
    3.2108  -27.4380   -9.5942 H   0  0  0  0  0  0
    1.0434  -26.8198   -6.6203 H   0  0  0  0  0  0
    4.3470  -25.4715   -9.0263 H   0  0  0  0  0  0
    0.9662  -24.6424   -5.4916 H   0  0  0  0  0  0
    4.3117  -23.2935   -7.8658 H   0  0  0  0  0  0
    1.8714  -22.4270   -5.1598 H   0  0  0  0  0  0
   -0.5145  -26.8291   -7.9404 H   0  0  0  0  0  0
   -1.8063  -26.6443  -10.5244 H   0  0  0  0  0  0
   -3.5874  -25.6341   -9.4182 H   0  0  0  0  0  0
   -2.6900  -26.2429   -7.9861 H   0  0  0  0  0  0
   -3.5822  -24.4528   -7.2781 H   0  0  0  0  0  0
   -1.1642  -24.3778   -6.8404 H   0  0  0  0  0  0
   -1.9007  -22.7406   -6.9028 H   0  0  0  0  0  0
   -0.9359  -23.3450   -8.2923 H   0  0  0  0  0  0
   -4.5146  -23.6697   -9.4749 H   0  0  0  0  0  0
   -2.9267  -22.9225   -9.8585 H   0  0  0  0  0  0
   -3.8915  -22.3181   -8.4691 H   0  0  0  0  0  0
    0.6382  -24.5619   -9.1032 H   0  0  0  0  0  0
    0.0559  -22.4343  -11.0902 H   0  0  0  0  0  0
    1.9703  -22.8294   -8.8254 H   0  0  0  0  0  0
    2.6666  -21.8703  -10.1753 H   0  0  0  0  0  0
    0.0982  -19.2063   -9.6729 H   0  0  0  0  0  0
    1.4035  -25.4217  -11.4979 H   0  0  0  0  0  0
    3.5798  -24.4325  -13.3410 H   0  0  0  0  0  0
    2.7576  -27.1479  -12.2328 H   0  0  0  0  0  0
    3.8164  -27.0779  -13.6821 H   0  0  0  0  0  0
    1.9206  -26.3188  -16.3112 H   0  0  0  0  0  0
  1  2  1  0  0  0
  1 83  1  0  0  0
  1 84  1  0  0  0
  1 85  1  0  0  0
  2  3  1  0  0  0
  2  5  1  0  0  0
  2 86  1  0  0  0
  3  4  2  0  0  0
  3  7  1  0  0  0
  5  6  1  0  0  0
  5 87  1  0  0  0
  5 88  1  0  0  0
  6 81  1  0  0  0
  7  8  1  0  0  0
  7 13  1  0  0  0
  8  9  1  0  0  0
  8 11  1  0  0  0
  8 89  1  0  0  0
  9 10  2  0  0  0
  9 14  1  0  0  0
 11 12  1  0  0  0
 11 90  1  0  0  0
 11 91  1  0  0  0
 12 13  1  0  0  0
 12 92  1  0  0  0
 12 93  1  0  0  0
 13 94  1  0  0  0
 13 95  1  0  0  0
 14 15  1  0  0  0
 14 96  1  0  0  0
 15 16  1  0  0  0
 15 18  1  0  0  0
 15 97  1  0  0  0
 16 17  2  0  0  0
 16 19  1  0  0  0
 18 98  1  0  0  0
 18 99  1  0  0  0
 18100  1  0  0  0
 19 20  1  0  0  0
 19101  1  0  0  0
 20 21  1  0  0  0
 20 23  1  0  0  0
 20102  1  0  0  0
 21 22  2  0  0  0
 21 31  1  0  0  0
 23 24  1  0  0  0
 23103  1  0  0  0
 23104  1  0  0  0
 24 25  2  0  0  0
 24 26  1  0  0  0
 25 27  1  0  0  0
 25105  1  0  0  0
 26 28  2  0  0  0
 26106  1  0  0  0
 27 29  2  0  0  0
 27107  1  0  0  0
 28 29  1  0  0  0
 28108  1  0  0  0
 29 30  1  0  0  0
 30109  1  0  0  0
 31 32  1  0  0  0
 31110  1  0  0  0
 32 33  1  0  0  0
 32 35  1  0  0  0
 32111  1  0  0  0
 33 34  2  0  0  0
 33 37  1  0  0  0
 35 36  1  0  0  0
 35112  1  0  0  0
 35113  1  0  0  0
 36114  1  0  0  0
 37 38  1  0  0  0
 37115  1  0  0  0
 38 39  1  0  0  0
 38 41  1  0  0  0
 38116  1  0  0  0
 39 40  2  0  0  0
 39 48  1  0  0  0
 41 42  1  0  0  0
 41117  1  0  0  0
 41118  1  0  0  0
 42 43  1  0  0  0
 42119  1  0  0  0
 42120  1  0  0  0
 43 44  1  0  0  0
 43121  1  0  0  0
 43122  1  0  0  0
 44 45  1  0  0  0
 44123  1  0  0  0
 45 46  2  0  0  0
 45 47  1  0  0  0
 46124  1  0  0  0
 47125  1  0  0  0
 47126  1  0  0  0
 48 49  1  0  0  0
 48127  1  0  0  0
 49 50  1  0  0  0
 49 52  1  0  0  0
 49128  1  0  0  0
 50 51  2  0  0  0
 50 60  1  0  0  0
 52 53  1  0  0  0
 52129  1  0  0  0
 52130  1  0  0  0
 53 54  2  0  0  0
 53 55  1  0  0  0
 54 56  1  0  0  0
 54131  1  0  0  0
 55 57  2  0  0  0
 55132  1  0  0  0
 56 58  2  0  0  0
 56133  1  0  0  0
 57 58  1  0  0  0
 57134  1  0  0  0
 58 59  1  0  0  0
 59135  1  0  0  0
 60 61  1  0  0  0
 60136  1  0  0  0
 61 62  1  0  0  0
 61 64  1  0  0  0
 61137  1  0  0  0
 62 63  2  0  0  0
 62 68  1  0  0  0
 64 65  1  0  0  0
 64138  1  0  0  0
 64139  1  0  0  0
 65 66  1  0  0  0
 65 67  1  0  0  0
 65140  1  0  0  0
 66141  1  0  0  0
 66142  1  0  0  0
 66143  1  0  0  0
 67144  1  0  0  0
 67145  1  0  0  0
 67146  1  0  0  0
 68 69  1  0  0  0
 68147  1  0  0  0
 69 70  1  0  0  0
 69 72  1  0  0  0
 69148  1  0  0  0
 70 71  2  0  0  0
 70 76  1  0  0  0
 72 73  1  0  0  0
 72149  1  0  0  0
 72150  1  0  0  0
 73 74  1  0  0  0
 73 75  2  0  0  0
 74151  1  0  0  0
 76 77  1  0  0  0
 76152  1  0  0  0
 77 78  1  0  0  0
 77 80  1  0  0  0
 77153  1  0  0  0
 78 79  2  0  0  0
 78 82  1  0  0  0
 80 81  1  0  0  0
 80154  1  0  0  0
 80155  1  0  0  0
 82156  1  0  0  0
M  CHG  1   1   1
M  END
> <s_m_source_file>
../4x1q_ligand.sdf

> <i_m_source_file_index>
1

> <s_epik_input>
Tz1DMVtDQEBIXShbTkgzK10pW0NIMl1TU1tDSDJdW0NAQEhdKEMoPU8pW09IXSlbTkhdQyg9TylbQ0BIXShbQ0gyXUMoPU8pW09IXSlbTkhdQyg9TylbQ0BIXShbQ0gyXVtDSF0oW0NIM10pW0NIM10pW05IXUMoPU8pW0NASF0oW0NIMl1jMltjSF1bY0hdYyhbT0hdKVtjSF1bY0hdMilbTkhdQyg9TylbQ0BIXShbQ0gyXVtDSDJdW0NIMl1bTkhdL0MoPU5cW0hdKVtOSDJdKVtOSF1DKD1PKVtDQEhdKFtDSDJdW09IXSlbTkhdQyg9TylbQ0BIXShbQ0gyXWMzW2NIXVtjSF1jKFtPSF0pW2NIXVtjSF0zKVtOSF1DKD1PKVtDQEhdKFtDSDNdKVtOSF1DKD1PKVtDQEBIXShOMTQpW0NIMl1bQ0gyXVtDSDJdNA==

> <s_epik_cmdline>
J2VwaWtfYXBwJywgJy1pbWFlJywgJ2xpZ2FuZF9wcm8ubWFlJywgJy1vbWFlJywgJ2xpZ2FuZF9wcmVwLm1hZScsICctbXMnLCAnMScsICctcGgnLCAnNycsICctcGh0JywgJzAuNScsICctbnQn

> <s_epik_pKa_notes>
Molecule size exceeds maximum supported for generating protonation states

> <s_epik_Chemistry_Notes>
This compound has an imine and may undergo hydrolysis.

$$$$
