4x1r_ligand
                    3D
 Schrodinger Suite 2020-3.
140143  0  0  1  0            999 V2000
  -43.7780  -14.3490  -13.7730 N   0  0  0  0  0  0
  -42.3570  -14.5810  -13.3970 C   0  0  2  0  0  0
  -41.4540  -13.5450  -14.0510 C   0  0  0  0  0  0
  -41.4950  -13.3930  -15.2720 O   0  0  0  0  0  0
  -41.9180  -15.9840  -13.8230 C   0  0  0  0  0  0
  -42.4110  -17.2820  -12.6590 S   0  0  0  0  0  0
  -40.6290  -12.8370  -13.2470 N   0  0  0  0  0  0
  -39.5860  -11.9690  -13.8100 C   0  0  2  0  0  0
  -38.6660  -12.7300  -14.7450 C   0  0  0  0  0  0
  -38.4010  -13.9200  -14.5220 O   0  0  0  0  0  0
  -38.8110  -11.5010  -12.5790 C   0  0  0  0  0  0
  -39.8080  -11.5520  -11.4820 C   0  0  0  0  0  0
  -40.6790  -12.7360  -11.7770 C   0  0  0  0  0  0
  -38.1850  -12.0450  -15.7800 N   0  0  0  0  0  0
  -37.4100  -12.6890  -16.8460 C   0  0  2  0  0  0
  -36.0910  -13.2900  -16.3470 C   0  0  0  0  0  0
  -35.5870  -14.2550  -16.9340 O   0  0  0  0  0  0
  -37.1450  -11.7060  -17.9880 C   0  0  0  0  0  0
  -35.5920  -12.7470  -15.2600 N   0  0  0  0  0  0
  -34.3460  -13.1760  -14.6900 C   0  0  2  0  0  0
  -34.4770  -14.0020  -13.3950 C   0  0  0  0  0  0
  -33.5060  -14.2040  -12.7070 O   0  0  0  0  0  0
  -33.4950  -11.9590  -14.4410 C   0  0  0  0  0  0
  -33.0770  -11.1880  -15.6620 C   0  0  0  0  0  0
  -33.0550  -11.7660  -16.9120 C   0  0  0  0  0  0
  -32.6580   -9.8820  -15.5450 C   0  0  0  0  0  0
  -32.6430  -11.0550  -18.0120 C   0  0  0  0  0  0
  -32.2340   -9.1710  -16.6340 C   0  0  0  0  0  0
  -32.2360   -9.7540  -17.8670 C   0  0  0  0  0  0
  -31.8200   -9.0230  -18.9410 O   0  0  0  0  0  0
  -35.6790  -14.4470  -13.0640 N   0  0  0  0  0  0
  -35.9090  -15.2470  -11.8800 C   0  0  2  0  0  0
  -35.0250  -16.4730  -11.8810 C   0  0  0  0  0  0
  -34.8540  -17.0860  -12.9140 O   0  0  0  0  0  0
  -37.3620  -15.6800  -11.8060 C   0  0  0  0  0  0
  -37.6530  -16.3160  -10.5870 O   0  0  0  0  0  0
  -34.4730  -16.8770  -10.8030 N   0  0  0  0  0  0
  -33.9070  -18.1880  -10.6400 C   0  0  2  0  0  0
  -34.8240  -18.9800  -10.0010 C   0  0  0  0  0  0
  -34.3280  -20.1030   -9.8790 O   0  0  0  0  0  0
  -32.6280  -18.1100   -9.8240 C   0  0  0  0  0  0
  -36.0650  -19.0610   -9.4790 N   0  0  0  0  0  0
  -37.1330  -19.8640   -8.9520 C   0  0  2  0  0  0
  -37.4150  -21.0070   -9.8910 C   0  0  0  0  0  0
  -37.6540  -20.8280  -11.0640 O   0  0  0  0  0  0
  -38.3410  -19.0580   -8.7770 C   0  0  0  0  0  0
  -39.4440  -19.7890   -8.0550 C   0  0  0  0  0  0
  -39.1790  -20.7840   -7.1580 C   0  0  0  0  0  0
  -40.7490  -19.4650   -8.2800 C   0  0  0  0  0  0
  -40.1960  -21.4230   -6.4900 C   0  0  0  0  0  0
  -41.7590  -20.0940   -7.6270 C   0  0  0  0  0  0
  -41.4830  -21.0710   -6.7340 C   0  0  0  0  0  0
  -42.5150  -21.6750   -6.0930 O   0  0  0  0  0  0
  -37.4190  -22.2000   -9.3430 N   0  0  0  0  0  0
  -37.5270  -23.3970  -10.1430 C   0  0  2  0  0  0
  -38.8230  -23.5010  -10.9230 C   0  0  0  0  0  0
  -38.8480  -24.0760  -11.9840 O   0  0  0  0  0  0
  -37.2290  -24.6440   -9.3130 C   0  0  0  0  0  0
  -38.2730  -25.5570   -8.6900 C   0  0  0  0  0  0
  -39.6420  -24.9280   -8.5910 C   0  0  0  0  0  0
  -38.3580  -26.8370   -9.4780 C   0  0  0  0  0  0
  -39.8950  -22.9700  -10.3590 N   0  0  0  0  0  0
  -41.2620  -23.0610  -10.9120 C   0  0  2  0  0  0
  -41.5630  -22.0830  -12.0560 C   0  0  0  0  0  0
  -42.6590  -22.1170  -12.6100 O   0  0  0  0  0  0
  -42.3070  -22.8440   -9.7990 C   0  0  0  0  0  0
  -43.0680  -24.1170   -9.4310 C   0  0  0  0  0  0
  -42.4590  -25.2190   -9.4150 O   0  5  0  0  0  0
  -44.2840  -24.0030   -9.1430 O   0  0  0  0  0  0
  -40.6140  -21.2110  -12.3910 N   0  0  0  0  0  0
  -40.8020  -20.2360  -13.4600 C   0  0  2  0  0  0
  -40.4400  -20.8210  -14.8130 C   0  0  0  0  0  0
  -39.4030  -21.4620  -14.9470 O   0  5  0  0  0  0
  -39.9610  -18.9900  -13.1890 C   0  0  0  0  0  0
  -40.6480  -17.9620  -11.8700 S   0  0  0  0  0  0
  -41.1840  -20.6530  -15.7730 O   0  0  0  0  0  0
  -43.8883  -14.4404  -14.8636 H   0  0  0  0  0  0
  -44.4153  -15.0954  -13.2762 H   0  0  0  0  0  0
  -42.2977  -14.4796  -12.3033 H   0  0  0  0  0  0
  -42.3665  -16.2285  -14.7972 H   0  0  0  0  0  0
  -40.8216  -16.0158  -13.9057 H   0  0  0  0  0  0
  -40.0386  -11.1630  -14.4063 H   0  0  0  0  0  0
  -37.9639  -12.1793  -12.3993 H   0  0  0  0  0  0
  -38.4347  -10.4813  -12.7484 H   0  0  0  0  0  0
  -39.2884  -11.6686  -10.5195 H   0  0  0  0  0  0
  -40.3915  -10.6195  -11.4731 H   0  0  0  0  0  0
  -41.7196  -12.5825  -11.4552 H   0  0  0  0  0  0
  -40.2908  -13.6642  -11.3323 H   0  0  0  0  0  0
  -38.3842  -10.9640  -15.8211 H   0  0  0  0  0  0
  -38.0580  -13.5108  -17.1848 H   0  0  0  0  0  0
  -38.0987  -11.2827  -18.3361 H   0  0  0  0  0  0
  -36.6528  -12.2330  -18.8186 H   0  0  0  0  0  0
  -36.4929  -10.8955  -17.6303 H   0  0  0  0  0  0
  -36.1641  -11.9366  -14.7848 H   0  0  0  0  0  0
  -33.9260  -13.8308  -15.4677 H   0  0  0  0  0  0
  -34.0459  -11.2502  -13.8053 H   0  0  0  0  0  0
  -32.5653  -12.2589  -13.9354 H   0  0  0  0  0  0
  -33.3693  -12.8031  -17.0297 H   0  0  0  0  0  0
  -32.6642   -9.4049  -14.5650 H   0  0  0  0  0  0
  -32.6396  -11.5230  -18.9964 H   0  0  0  0  0  0
  -31.8955   -8.1415  -16.5167 H   0  0  0  0  0  0
  -31.8138   -9.4741  -19.9442 H   0  0  0  0  0  0
  -36.5194  -14.1888  -13.7251 H   0  0  0  0  0  0
  -35.6509  -14.5929  -11.0341 H   0  0  0  0  0  0
  -38.0127  -14.7981  -11.9005 H   0  0  0  0  0  0
  -37.5770  -16.3836  -12.6237 H   0  0  0  0  0  0
  -38.6698  -16.6859  -10.3886 H   0  0  0  0  0  0
  -34.4447  -16.1583   -9.9707 H   0  0  0  0  0  0
  -33.7509  -18.6447  -11.6285 H   0  0  0  0  0  0
  -31.8988  -17.4723  -10.3453 H   0  0  0  0  0  0
  -32.2097  -19.1198   -9.7005 H   0  0  0  0  0  0
  -32.8494  -17.6813   -8.8354 H   0  0  0  0  0  0
  -36.1799  -17.9691   -9.5473 H   0  0  0  0  0  0
  -36.8097  -20.2210   -7.9630 H   0  0  0  0  0  0
  -38.1000  -18.1586   -8.1913 H   0  0  0  0  0  0
  -38.7294  -18.7607   -9.7623 H   0  0  0  0  0  0
  -38.1459  -21.0756   -6.9691 H   0  0  0  0  0  0
  -40.9867  -18.6828   -9.0009 H   0  0  0  0  0  0
  -39.9697  -22.2080   -5.7684 H   0  0  0  0  0  0
  -42.7934  -19.8113   -7.8226 H   0  0  0  0  0  0
  -42.3171  -22.4727   -5.3619 H   0  0  0  0  0  0
  -37.3376  -22.2754   -8.2486 H   0  0  0  0  0  0
  -36.7377  -23.2604  -10.8969 H   0  0  0  0  0  0
  -36.6580  -25.3612   -9.9209 H   0  0  0  0  0  0
  -36.6398  -24.3630   -8.4276 H   0  0  0  0  0  0
  -37.9507  -25.7630   -7.6586 H   0  0  0  0  0  0
  -39.5753  -23.9934   -8.0147 H   0  0  0  0  0  0
  -40.3289  -25.6225   -8.0852 H   0  0  0  0  0  0
  -40.0192  -24.7098   -9.6010 H   0  0  0  0  0  0
  -37.3588  -27.2917   -9.5476 H   0  0  0  0  0  0
  -38.7338  -26.6209  -10.4890 H   0  0  0  0  0  0
  -39.0435  -27.5335   -8.9731 H   0  0  0  0  0  0
  -39.7179  -22.4321   -9.4160 H   0  0  0  0  0  0
  -41.2786  -24.0801  -11.3257 H   0  0  0  0  0  0
  -41.8045  -22.4829   -8.8896 H   0  0  0  0  0  0
  -43.0459  -22.0993  -10.1299 H   0  0  0  0  0  0
  -39.6657  -21.2408  -11.8343 H   0  0  0  0  0  0
  -41.8750  -19.9938  -13.4500 H   0  0  0  0  0  0
  -38.9462  -19.2906  -12.8894 H   0  0  0  0  0  0
  -39.9077  -18.3780  -14.1015 H   0  0  0  0  0  0
  1  2  1  0  0  0
  1 77  1  0  0  0
  1 78  1  0  0  0
  2  3  1  0  0  0
  2  5  1  0  0  0
  2 79  1  0  0  0
  3  4  2  0  0  0
  3  7  1  0  0  0
  5  6  1  0  0  0
  5 80  1  0  0  0
  5 81  1  0  0  0
  6 75  1  0  0  0
  7  8  1  0  0  0
  7 13  1  0  0  0
  8  9  1  0  0  0
  8 11  1  0  0  0
  8 82  1  0  0  0
  9 10  2  0  0  0
  9 14  1  0  0  0
 11 12  1  0  0  0
 11 83  1  0  0  0
 11 84  1  0  0  0
 12 13  1  0  0  0
 12 85  1  0  0  0
 12 86  1  0  0  0
 13 87  1  0  0  0
 13 88  1  0  0  0
 14 15  1  0  0  0
 14 89  1  0  0  0
 15 16  1  0  0  0
 15 18  1  0  0  0
 15 90  1  0  0  0
 16 17  2  0  0  0
 16 19  1  0  0  0
 18 91  1  0  0  0
 18 92  1  0  0  0
 18 93  1  0  0  0
 19 20  1  0  0  0
 19 94  1  0  0  0
 20 21  1  0  0  0
 20 23  1  0  0  0
 20 95  1  0  0  0
 21 22  2  0  0  0
 21 31  1  0  0  0
 23 24  1  0  0  0
 23 96  1  0  0  0
 23 97  1  0  0  0
 24 25  2  0  0  0
 24 26  1  0  0  0
 25 27  1  0  0  0
 25 98  1  0  0  0
 26 28  2  0  0  0
 26 99  1  0  0  0
 27 29  2  0  0  0
 27100  1  0  0  0
 28 29  1  0  0  0
 28101  1  0  0  0
 29 30  1  0  0  0
 30102  1  0  0  0
 31 32  1  0  0  0
 31103  1  0  0  0
 32 33  1  0  0  0
 32 35  1  0  0  0
 32104  1  0  0  0
 33 34  2  0  0  0
 33 37  1  0  0  0
 35 36  1  0  0  0
 35105  1  0  0  0
 35106  1  0  0  0
 36107  1  0  0  0
 37 38  1  0  0  0
 37108  1  0  0  0
 38 39  1  0  0  0
 38 41  1  0  0  0
 38109  1  0  0  0
 39 40  2  0  0  0
 39 42  1  0  0  0
 41110  1  0  0  0
 41111  1  0  0  0
 41112  1  0  0  0
 42 43  1  0  0  0
 42113  1  0  0  0
 43 44  1  0  0  0
 43 46  1  0  0  0
 43114  1  0  0  0
 44 45  2  0  0  0
 44 54  1  0  0  0
 46 47  1  0  0  0
 46115  1  0  0  0
 46116  1  0  0  0
 47 48  2  0  0  0
 47 49  1  0  0  0
 48 50  1  0  0  0
 48117  1  0  0  0
 49 51  2  0  0  0
 49118  1  0  0  0
 50 52  2  0  0  0
 50119  1  0  0  0
 51 52  1  0  0  0
 51120  1  0  0  0
 52 53  1  0  0  0
 53121  1  0  0  0
 54 55  1  0  0  0
 54122  1  0  0  0
 55 56  1  0  0  0
 55 58  1  0  0  0
 55123  1  0  0  0
 56 57  2  0  0  0
 56 62  1  0  0  0
 58 59  1  0  0  0
 58124  1  0  0  0
 58125  1  0  0  0
 59 60  1  0  0  0
 59 61  1  0  0  0
 59126  1  0  0  0
 60127  1  0  0  0
 60128  1  0  0  0
 60129  1  0  0  0
 61130  1  0  0  0
 61131  1  0  0  0
 61132  1  0  0  0
 62 63  1  0  0  0
 62133  1  0  0  0
 63 64  1  0  0  0
 63 66  1  0  0  0
 63134  1  0  0  0
 64 65  2  0  0  0
 64 70  1  0  0  0
 66 67  1  0  0  0
 66135  1  0  0  0
 66136  1  0  0  0
 67 68  1  0  0  0
 67 69  2  0  0  0
 70 71  1  0  0  0
 70137  1  0  0  0
 71 72  1  0  0  0
 71 74  1  0  0  0
 71138  1  0  0  0
 72 73  1  0  0  0
 72 76  2  0  0  0
 74 75  1  0  0  0
 74139  1  0  0  0
 74140  1  0  0  0
M  CHG  2  68  -1  73  -1
M  END
> <s_m_source_file>
../4x1r_ligand.sdf

> <i_m_source_file_index>
1

> <s_epik_input>
Tz1DMVtDQEBIXShbTkgzK10pW0NIMl1TU1tDSDJdW0NAQEhdKEMoPU8pW09IXSlbTkhdQyg9TylbQ0BIXShbQ0gyXUMoPU8pW09IXSlbTkhdQyg9TylbQ0BIXShbQ0gyXVtDSF0oW0NIM10pW0NIM10pW05IXUMoPU8pW0NASF0oW0NIMl1jMltjSF1bY0hdYyhbT0hdKVtjSF1bY0hdMilbTkhdQyg9TylbQ0BIXShbQ0gzXSlbTkhdQyg9TylbQ0BIXShbQ0gyXVtPSF0pW05IXUMoPU8pW0NASF0oW0NIMl1jM1tjSF1bY0hdYyhbT0hdKVtjSF1bY0hdMylbTkhdQyg9TylbQ0BIXShbQ0gzXSlbTkhdQyg9TylbQ0BASF0oTjE0KVtDSDJdW0NIMl1bQ0gyXTQ=

> <s_epik_cmdline>
J2VwaWtfYXBwJywgJy1pbWFlJywgJ2xpZ2FuZF9wcm8ubWFlJywgJy1vbWFlJywgJ2xpZ2FuZF9wcmVwLm1hZScsICctbXMnLCAnMScsICctcGgnLCAnNycsICctcGh0JywgJzAuNScsICctbnQn

> <r_lp_tautomer_probability>
0.99999999999473

> <r_epik_Ionization_Penalty>
  0.3915

> <r_epik_Ionization_Penalty_Charging>
  0.0016

> <r_epik_Ionization_Penalty_Neutral>
  0.3899

> <r_epik_State_Penalty>
  0.3867

> <r_epik_Charging_Adjusted_Penalty>
0.388251543895098

> <i_epik_Tot_Q>
-2

> <i_epik_Tot_abs_Q>
2

$$$$
