4x1s_ligand
                    3D
 Schrodinger Suite 2020-3.
138141  0  0  1  0            999 V2000
  -25.4800   -6.1940    1.1280 N   0  0  0  0  0  0
  -26.0250   -7.4320    0.6190 C   0  0  2  0  0  0
  -27.3990   -7.6330    1.1990 C   0  0  0  0  0  0
  -27.5640   -7.5750    2.4020 O   0  0  0  0  0  0
  -25.1370   -8.6080    0.9990 C   0  0  0  0  0  0
  -23.5120   -8.6860    0.2220 S   0  0  0  0  0  0
  -28.4250   -7.8830    0.2750 N   0  0  0  0  0  0
  -29.7070   -8.2430    0.9040 C   0  0  2  0  0  0
  -29.6430   -9.5940    1.6090 C   0  0  0  0  0  0
  -28.8530  -10.4220    1.2420 O   0  0  0  0  0  0
  -30.6710   -8.3380   -0.2660 C   0  0  0  0  0  0
  -30.1020   -7.4910   -1.3050 C   0  0  0  0  0  0
  -28.6880   -7.8770   -1.2430 C   0  0  0  0  0  0
  -30.4690   -9.7850    2.6220 N   0  0  0  0  0  0
  -30.4040  -10.9590    3.4660 C   0  0  2  0  0  0
  -30.5620  -12.2530    2.7170 C   0  0  0  0  0  0
  -29.9850  -13.2630    3.0870 O   0  0  0  0  0  0
  -31.4630  -10.8820    4.5260 C   0  0  0  0  0  0
  -31.3830  -12.2340    1.6890 N   0  0  0  0  0  0
  -31.6140  -13.4440    0.9060 C   0  0  2  0  0  0
  -30.7090  -13.5340   -0.3510 C   0  0  0  0  0  0
  -31.0110  -14.2210   -1.3180 O   0  0  0  0  0  0
  -33.1030  -13.5780    0.5690 C   0  0  0  0  0  0
  -34.0120  -13.5000    1.7940 C   0  0  0  0  0  0
  -33.5220  -13.8080    3.0550 C   0  0  0  0  0  0
  -35.3510  -13.1690    1.6840 C   0  0  0  0  0  0
  -34.3260  -13.7800    4.1710 C   0  0  0  0  0  0
  -36.1650  -13.1390    2.7950 C   0  0  0  0  0  0
  -35.6470  -13.4360    4.0540 C   0  0  0  0  0  0
  -36.4330  -13.4310    5.2020 O   0  0  0  0  0  0
  -29.6300  -12.7700   -0.3820 N   0  0  0  0  0  0
  -28.7860  -12.8780   -1.5450 C   0  0  2  0  0  0
  -28.1970  -14.2660   -1.5890 C   0  0  0  0  0  0
  -28.0740  -14.8930   -0.5710 O   0  0  0  0  0  0
  -27.6590  -11.8800   -1.5750 C   0  0  0  0  0  0
  -26.9590  -12.0290   -2.7950 O   0  0  0  0  0  0
  -28.0310  -14.8240   -2.8730 N   0  0  0  0  0  0
  -27.0320  -15.7950   -3.3900 C   0  0  2  0  0  0
  -26.0120  -15.3970   -4.1660 C   0  0  0  0  0  0
  -25.3730  -16.1480   -4.7770 O   0  0  0  0  0  0
  -27.7480  -16.8070   -4.2780 C   0  0  0  0  0  0
  -25.4140  -14.1090   -4.1240 N   0  0  0  0  0  0
  -24.2450  -13.6050   -4.7230 C   0  0  2  0  0  0
  -23.0960  -14.1420   -3.9300 C   0  0  0  0  0  0
  -23.0770  -14.0410   -2.7170 O   0  0  0  0  0  0
  -24.2710  -12.1160   -4.6590 C   0  0  0  0  0  0
  -23.1550  -11.4790   -5.3560 C   0  0  0  0  0  0
  -22.5390  -12.0850   -6.4120 C   0  0  0  0  0  0
  -22.7200  -10.2600   -4.9580 C   0  0  0  0  0  0
  -21.5110  -11.4800   -7.0400 C   0  0  0  0  0  0
  -21.6930   -9.6580   -5.5820 C   0  0  0  0  0  0
  -21.0990  -10.2770   -6.6110 C   0  0  0  0  0  0
  -20.0880   -9.6400   -7.2090 O   0  0  0  0  0  0
  -22.1390  -14.7380   -4.6080 N   0  0  0  0  0  0
  -21.0700  -15.3850   -3.9100 C   0  0  2  0  0  0
  -20.1730  -14.4400   -3.1270 C   0  0  0  0  0  0
  -19.4080  -14.8790   -2.2900 O   0  0  0  0  0  0
  -20.2730  -16.2330   -4.8430 C   0  0  0  0  0  0
  -19.3760  -15.4120   -5.6780 C   0  0  0  0  0  0
  -17.9900  -15.4460   -5.0610 C   0  0  0  0  0  0
  -19.4400  -16.1610   -6.9680 C   0  0  0  0  0  0
  -20.2440  -13.1510   -3.4410 N   0  0  0  0  0  0
  -19.4200  -12.1730   -2.7560 C   0  0  2  0  0  0
  -20.1180  -11.5370   -1.5820 C   0  0  0  0  0  0
  -19.6610  -10.5250   -1.0810 O   0  0  0  0  0  0
  -18.9400  -11.1170   -3.7110 C   0  0  0  0  0  0
  -21.2140  -12.1390   -1.1560 N   0  0  0  0  0  0
  -21.9800  -11.6740   -0.0240 C   0  0  2  0  0  0
  -21.7830  -12.6070    1.1680 C   0  0  0  0  0  0
  -21.1620  -13.6520    1.0650 O   0  5  0  0  0  0
  -23.4610  -11.5860   -0.3610 C   0  0  0  0  0  0
  -23.9860  -10.0580   -1.1300 S   0  0  0  0  0  0
  -22.2390  -12.3420    2.2680 O   0  0  0  0  0  0
  -25.4147   -6.2457    2.2248 H   0  0  0  0  0  0
  -24.4758   -6.0353    0.7079 H   0  0  0  0  0  0
  -26.0689   -7.3285   -0.4752 H   0  0  0  0  0  0
  -24.9476   -8.5893    2.0824 H   0  0  0  0  0  0
  -25.6399   -9.5489    0.7309 H   0  0  0  0  0  0
  -29.9716   -7.4908    1.6617 H   0  0  0  0  0  0
  -30.7455   -9.3848   -0.5957 H   0  0  0  0  0  0
  -31.6633   -7.9805    0.0465 H   0  0  0  0  0  0
  -30.5776   -7.7239   -2.2692 H   0  0  0  0  0  0
  -30.2789   -6.4346   -1.0546 H   0  0  0  0  0  0
  -28.0206   -7.1493   -1.7279 H   0  0  0  0  0  0
  -28.4963   -8.8798   -1.6523 H   0  0  0  0  0  0
  -31.2267   -9.0110    2.8138 H   0  0  0  0  0  0
  -29.3888  -10.9249    3.8881 H   0  0  0  0  0  0
  -31.3577   -9.9385    5.0816 H   0  0  0  0  0  0
  -31.3512  -11.7296    5.2182 H   0  0  0  0  0  0
  -32.4564  -10.9215    4.0553 H   0  0  0  0  0  0
  -31.8966  -11.2990    1.4209 H   0  0  0  0  0  0
  -31.3209  -14.2628    1.5795 H   0  0  0  0  0  0
  -33.3988  -12.7678   -0.1137 H   0  0  0  0  0  0
  -33.2835  -14.5493    0.0853 H   0  0  0  0  0  0
  -32.4720  -14.0794    3.1644 H   0  0  0  0  0  0
  -35.7671  -12.9289    0.7056 H   0  0  0  0  0  0
  -33.9123  -14.0313    5.1476 H   0  0  0  0  0  0
  -37.2189  -12.8818    2.6887 H   0  0  0  0  0  0
  -35.9841  -13.6715    6.1770 H   0  0  0  0  0  0
  -29.3639  -12.0750    0.4280 H   0  0  0  0  0  0
  -29.4599  -12.6601   -2.3866 H   0  0  0  0  0  0
  -28.0687  -10.8619   -1.4995 H   0  0  0  0  0  0
  -26.9816  -12.0663   -0.7286 H   0  0  0  0  0  0
  -26.0928  -11.3873   -3.0140 H   0  0  0  0  0  0
  -28.8070  -14.4243   -3.5424 H   0  0  0  0  0  0
  -26.4811  -16.0780   -2.4809 H   0  0  0  0  0  0
  -28.6194  -17.2124   -3.7430 H   0  0  0  0  0  0
  -27.0586  -17.6263   -4.5298 H   0  0  0  0  0  0
  -28.0825  -16.3122   -5.2018 H   0  0  0  0  0  0
  -26.0350  -13.4552   -3.4941 H   0  0  0  0  0  0
  -24.2118  -13.9283   -5.7739 H   0  0  0  0  0  0
  -25.1990  -11.7454   -5.1188 H   0  0  0  0  0  0
  -24.2282  -11.7933   -3.6083 H   0  0  0  0  0  0
  -22.8800  -13.0637   -6.7496 H   0  0  0  0  0  0
  -23.2087   -9.7608   -4.1213 H   0  0  0  0  0  0
  -21.0205  -11.9619   -7.8857 H   0  0  0  0  0  0
  -21.3474   -8.6775   -5.2546 H   0  0  0  0  0  0
  -19.5688  -10.1078   -8.0585 H   0  0  0  0  0  0
  -22.1586  -14.7402   -5.7078 H   0  0  0  0  0  0
  -21.6031  -16.0196   -3.1867 H   0  0  0  0  0  0
  -19.6620  -16.9409   -4.2638 H   0  0  0  0  0  0
  -20.9533  -16.7908   -5.5034 H   0  0  0  0  0  0
  -19.6564  -14.3537   -5.7849 H   0  0  0  0  0  0
  -17.9953  -14.8824   -4.1164 H   0  0  0  0  0  0
  -17.2683  -14.9911   -5.7554 H   0  0  0  0  0  0
  -17.7018  -16.4892   -4.8640 H   0  0  0  0  0  0
  -20.4612  -16.1066   -7.3733 H   0  0  0  0  0  0
  -19.1698  -17.2131   -6.7949 H   0  0  0  0  0  0
  -18.7362  -15.7150   -7.6862 H   0  0  0  0  0  0
  -20.9383  -12.8286   -4.2310 H   0  0  0  0  0  0
  -18.5687  -12.7563   -2.3753 H   0  0  0  0  0  0
  -18.4331  -11.5954   -4.5620 H   0  0  0  0  0  0
  -18.2365  -10.4477   -3.1942 H   0  0  0  0  0  0
  -19.7990  -10.5349   -4.0759 H   0  0  0  0  0  0
  -21.5361  -13.0345   -1.7076 H   0  0  0  0  0  0
  -21.5831  -10.6703    0.1882 H   0  0  0  0  0  0
  -23.7265  -12.3926   -1.0602 H   0  0  0  0  0  0
  -24.0534  -11.6895    0.5600 H   0  0  0  0  0  0
  1  2  1  0  0  0
  1 74  1  0  0  0
  1 75  1  0  0  0
  2  3  1  0  0  0
  2  5  1  0  0  0
  2 76  1  0  0  0
  3  4  2  0  0  0
  3  7  1  0  0  0
  5  6  1  0  0  0
  5 77  1  0  0  0
  5 78  1  0  0  0
  6 72  1  0  0  0
  7  8  1  0  0  0
  7 13  1  0  0  0
  8  9  1  0  0  0
  8 11  1  0  0  0
  8 79  1  0  0  0
  9 10  2  0  0  0
  9 14  1  0  0  0
 11 12  1  0  0  0
 11 80  1  0  0  0
 11 81  1  0  0  0
 12 13  1  0  0  0
 12 82  1  0  0  0
 12 83  1  0  0  0
 13 84  1  0  0  0
 13 85  1  0  0  0
 14 15  1  0  0  0
 14 86  1  0  0  0
 15 16  1  0  0  0
 15 18  1  0  0  0
 15 87  1  0  0  0
 16 17  2  0  0  0
 16 19  1  0  0  0
 18 88  1  0  0  0
 18 89  1  0  0  0
 18 90  1  0  0  0
 19 20  1  0  0  0
 19 91  1  0  0  0
 20 21  1  0  0  0
 20 23  1  0  0  0
 20 92  1  0  0  0
 21 22  2  0  0  0
 21 31  1  0  0  0
 23 24  1  0  0  0
 23 93  1  0  0  0
 23 94  1  0  0  0
 24 25  2  0  0  0
 24 26  1  0  0  0
 25 27  1  0  0  0
 25 95  1  0  0  0
 26 28  2  0  0  0
 26 96  1  0  0  0
 27 29  2  0  0  0
 27 97  1  0  0  0
 28 29  1  0  0  0
 28 98  1  0  0  0
 29 30  1  0  0  0
 30 99  1  0  0  0
 31 32  1  0  0  0
 31100  1  0  0  0
 32 33  1  0  0  0
 32 35  1  0  0  0
 32101  1  0  0  0
 33 34  2  0  0  0
 33 37  1  0  0  0
 35 36  1  0  0  0
 35102  1  0  0  0
 35103  1  0  0  0
 36104  1  0  0  0
 37 38  1  0  0  0
 37105  1  0  0  0
 38 39  1  0  0  0
 38 41  1  0  0  0
 38106  1  0  0  0
 39 40  2  0  0  0
 39 42  1  0  0  0
 41107  1  0  0  0
 41108  1  0  0  0
 41109  1  0  0  0
 42 43  1  0  0  0
 42110  1  0  0  0
 43 44  1  0  0  0
 43 46  1  0  0  0
 43111  1  0  0  0
 44 45  2  0  0  0
 44 54  1  0  0  0
 46 47  1  0  0  0
 46112  1  0  0  0
 46113  1  0  0  0
 47 48  2  0  0  0
 47 49  1  0  0  0
 48 50  1  0  0  0
 48114  1  0  0  0
 49 51  2  0  0  0
 49115  1  0  0  0
 50 52  2  0  0  0
 50116  1  0  0  0
 51 52  1  0  0  0
 51117  1  0  0  0
 52 53  1  0  0  0
 53118  1  0  0  0
 54 55  1  0  0  0
 54119  1  0  0  0
 55 56  1  0  0  0
 55 58  1  0  0  0
 55120  1  0  0  0
 56 57  2  0  0  0
 56 62  1  0  0  0
 58 59  1  0  0  0
 58121  1  0  0  0
 58122  1  0  0  0
 59 60  1  0  0  0
 59 61  1  0  0  0
 59123  1  0  0  0
 60124  1  0  0  0
 60125  1  0  0  0
 60126  1  0  0  0
 61127  1  0  0  0
 61128  1  0  0  0
 61129  1  0  0  0
 62 63  1  0  0  0
 62130  1  0  0  0
 63 64  1  0  0  0
 63 66  1  0  0  0
 63131  1  0  0  0
 64 65  2  0  0  0
 64 67  1  0  0  0
 66132  1  0  0  0
 66133  1  0  0  0
 66134  1  0  0  0
 67 68  1  0  0  0
 67135  1  0  0  0
 68 69  1  0  0  0
 68 71  1  0  0  0
 68136  1  0  0  0
 69 70  1  0  0  0
 69 73  2  0  0  0
 71 72  1  0  0  0
 71137  1  0  0  0
 71138  1  0  0  0
M  CHG  1  70  -1
M  END
> <s_m_source_file>
../4x1s_ligand.sdf

> <i_m_source_file_index>
1

> <s_epik_input>
Tz1DMVtDQEBIXShbTkgzK10pW0NIMl1TU1tDSDJdW0NAQEhdKEMoPU8pW09IXSlbTkhdQyg9TylbQ0BIXShbQ0gzXSlbTkhdQyg9TylbQ0BIXShbQ0gyXVtDSF0oW0NIM10pW0NIM10pW05IXUMoPU8pW0NASF0oW0NIMl1jMltjSF1bY0hdYyhbT0hdKVtjSF1bY0hdMilbTkhdQyg9TylbQ0BIXShbQ0gzXSlbTkhdQyg9TylbQ0BIXShbQ0gyXVtPSF0pW05IXUMoPU8pW0NASF0oW0NIMl1jM1tjSF1bY0hdYyhbT0hdKVtjSF1bY0hdMylbTkhdQyg9TylbQ0BIXShbQ0gzXSlbTkhdQyg9TylbQ0BASF0oTjE0KVtDSDJdW0NIMl1bQ0gyXTQ=

> <s_epik_cmdline>
J2VwaWtfYXBwJywgJy1pbWFlJywgJ2xpZ2FuZF9wcm8ubWFlJywgJy1vbWFlJywgJ2xpZ2FuZF9wcmVwLm1hZScsICctbXMnLCAnMScsICctcGgnLCAnNycsICctcGh0JywgJzAuNScsICctbnQn

> <r_lp_tautomer_probability>
0.99999999999473

> <r_epik_Ionization_Penalty>
  0.3899

> <r_epik_Ionization_Penalty_Charging>
  0.0000

> <r_epik_Ionization_Penalty_Neutral>
  0.3899

> <r_epik_State_Penalty>
  0.3867

> <r_epik_Charging_Adjusted_Penalty>
0.38671058919369

> <i_epik_Tot_Q>
-1

> <i_epik_Tot_abs_Q>
1

$$$$
