4x21_ligand
                    3D
 Schrodinger Suite 2020-3.
 51 54  0  0  1  0            999 V2000
   16.1730   29.5540   72.5300 C   0  0  0  0  0  0
   15.2300   30.4660   71.8050 C   0  0  0  0  0  0
   13.5870   33.1710   71.4860 C   0  0  0  0  0  0
   18.8000   25.3400   71.9690 C   0  0  0  0  0  0
   17.3040   25.5300   72.2990 C   0  0  0  0  0  0
   16.8690   26.9110   72.4350 N   0  0  0  0  0  0
   15.9030   27.2960   73.3940 C   0  0  0  0  0  0
   15.4080   26.4630   74.1500 O   0  0  0  0  0  0
   15.5580   28.6060   73.4190 N   0  0  0  0  0  0
   14.5870   29.2290   74.3160 C   0  0  0  0  0  0
   13.5860   30.0940   73.6090 C   0  0  0  0  0  0
   14.2380   31.0980   72.7060 C   0  0  0  0  0  0
   13.3290   31.9870   72.0110 N   0  0  0  0  0  0
   14.8400   33.5680   71.4040 N   0  0  0  0  0  0
   15.0540   34.7540   70.8570 C   0  0  0  0  0  0
   14.0000   35.5310   70.4070 C   0  0  0  0  0  0
   14.1980   37.4320   69.5680 I   0  0  0  0  0  0
   12.7070   35.0190   70.5520 C   0  0  0  0  0  0
   12.5050   33.8350   71.0880 N   0  0  0  0  0  0
   16.4310   35.1830   70.7570 C   0  0  0  0  0  0
   16.9550   36.1620   70.0110 C   0  0  0  0  0  0
   18.2820   36.2870   70.1450 N   0  3  0  0  0  0
   18.7050   35.3310   70.9880 C   0  0  0  0  0  0
   17.5770   34.6050   71.4160 C   0  0  0  0  0  0
   17.7310   33.5500   72.3040 C   0  0  0  0  0  0
   19.0170   33.2710   72.7330 C   0  0  0  0  0  0
   20.1210   33.9960   72.3290 C   0  0  0  0  0  0
   19.9670   35.0270   71.4320 C   0  0  0  0  0  0
   16.7484   28.9659   71.7999 H   0  0  0  0  0  0
   16.8625   30.1522   73.1438 H   0  0  0  0  0  0
   15.8003   31.2695   71.3160 H   0  0  0  0  0  0
   14.6777   29.8936   71.0452 H   0  0  0  0  0  0
   19.0241   24.2661   71.8880 H   0  0  0  0  0  0
   19.4111   25.7828   72.7693 H   0  0  0  0  0  0
   19.0308   25.8358   71.0145 H   0  0  0  0  0  0
   16.6929   25.0873   71.4987 H   0  0  0  0  0  0
   17.0732   25.0342   73.2534 H   0  0  0  0  0  0
   17.2932   27.6881   71.7821 H   0  0  0  0  0  0
   14.0268   28.4472   74.8499 H   0  0  0  0  0  0
   15.1143   29.8638   75.0433 H   0  0  0  0  0  0
   12.9248   29.4637   72.9962 H   0  0  0  0  0  0
   12.9863   30.6420   74.3506 H   0  0  0  0  0  0
   14.7743   31.8021   73.3592 H   0  0  0  0  0  0
   12.2772   31.6975   71.8697 H   0  0  0  0  0  0
   11.8545   35.6093   70.2161 H   0  0  0  0  0  0
   16.3037   36.7722   69.3681 H   0  0  0  0  0  0
   16.8770   32.9668   72.6485 H   0  0  0  0  0  0
   19.1655   32.4398   73.4223 H   0  0  0  0  0  0
   21.1092   33.7523   72.7191 H   0  0  0  0  0  0
   20.8307   35.5916   71.0807 H   0  0  0  0  0  0
   18.8173   37.0800   69.6023 H   0  0  0  0  0  0
  1  2  1  0  0  0
  1  9  1  0  0  0
  1 29  1  0  0  0
  1 30  1  0  0  0
  2 12  1  0  0  0
  2 31  1  0  0  0
  2 32  1  0  0  0
  3 13  1  0  0  0
  3 14  2  0  0  0
  3 19  1  0  0  0
  4  5  1  0  0  0
  4 33  1  0  0  0
  4 34  1  0  0  0
  4 35  1  0  0  0
  5  6  1  0  0  0
  5 36  1  0  0  0
  5 37  1  0  0  0
  6  7  1  0  0  0
  6 38  1  0  0  0
  7  8  2  0  0  0
  7  9  1  0  0  0
  9 10  1  0  0  0
 10 11  1  0  0  0
 10 39  1  0  0  0
 10 40  1  0  0  0
 11 12  1  0  0  0
 11 41  1  0  0  0
 11 42  1  0  0  0
 12 13  1  0  0  0
 12 43  1  0  0  0
 13 44  1  0  0  0
 14 15  1  0  0  0
 15 16  2  0  0  0
 15 20  1  0  0  0
 16 17  1  0  0  0
 16 18  1  0  0  0
 18 19  2  0  0  0
 18 45  1  0  0  0
 20 21  2  0  0  0
 20 24  1  0  0  0
 21 22  1  0  0  0
 21 46  1  0  0  0
 22 23  1  0  0  0
 22 51  1  0  0  0
 23 24  2  0  0  0
 23 28  1  0  0  0
 24 25  1  0  0  0
 25 26  2  0  0  0
 25 47  1  0  0  0
 26 27  1  0  0  0
 26 48  1  0  0  0
 27 28  2  0  0  0
 27 49  1  0  0  0
 28 50  1  0  0  0
M  CHG  1  22   1
M  END
> <s_m_source_file>
../4x21_ligand.sdf

> <i_m_source_file_index>
1

> <s_epik_input>
W0NIM11bQ0gyXVtOSF1DKD1PKU4xW0NIMl1bQ0gyXVtDSF0oW0NIMl1bQ0gyXTEpW05IXWMybmMoYyhJKVtjSF1uMiktYyhbY0hdW25IXTMpYyhjMzQpW2NIXVtjSF1bY0hdW2NIXTQ=

> <s_epik_cmdline>
J2VwaWtfYXBwJywgJy1pbWFlJywgJ2xpZ2FuZF9wcm8ubWFlJywgJy1vbWFlJywgJ2xpZ2FuZF9wcmVwLm1hZScsICctbXMnLCAnMScsICctcGgnLCAnNycsICctcGh0JywgJzAuNScsICctbnQn

> <r_lp_tautomer_probability>
1

> <r_epik_Ionization_Penalty>
  0.0016

> <r_epik_Ionization_Penalty_Charging>
  0.0000

> <r_epik_Ionization_Penalty_Neutral>
  0.0016

> <r_epik_State_Penalty>
 -0.0000

> <r_epik_Charging_Adjusted_Penalty>
0

> <i_epik_Tot_Q>
1

> <i_epik_Tot_abs_Q>
1

$$$$
