4x24_ligand
                    3D
 Schrodinger Suite 2020-3.
 39 41  0  0  1  0            999 V2000
   14.8510   -6.4650   19.2960 C   0  0  0  0  0  0
   13.1090   -7.4060   20.5370 C   0  0  0  0  0  0
   13.9010   -8.5940   20.7960 C   0  0  0  0  0  0
   15.2410   -8.6060   20.2240 C   0  0  0  0  0  0
    9.1500   -9.4550   15.1140 C   0  0  0  0  0  0
   10.2490   -8.1340   15.4210 S   0  0  0  0  0  0
   10.2850   -8.2290   17.2090 C   0  0  0  0  0  0
    9.1600   -7.4590   17.9120 C   0  0  1  0  0  0
    9.1180   -7.7280   19.4160 C   0  0  0  0  0  0
   10.0120   -6.7060   19.9370 N   0  0  3  0  0  0
   10.5760   -6.7150   21.2860 C   0  0  0  0  0  0
   11.7940   -7.6110   21.1870 C   0  0  0  0  0  0
   11.9150   -8.8610   21.7670 C   0  0  0  0  0  0
   13.1520   -9.4170   21.5490 N   0  3  0  0  0  0
   16.0490   -9.6700   20.4330 N   0  0  0  0  0  0
   15.6490   -7.5420   19.5040 N   0  0  0  0  0  0
   13.5990   -6.3910   19.7860 N   0  0  0  0  0  0
   10.2710   -5.6010   19.0170 C   0  0  0  0  0  0
    9.3740   -5.9610   17.8500 C   0  0  2  0  0  0
    8.1530   -5.2710   18.0620 O   0  0  0  0  0  0
   15.2369   -5.6299   18.7115 H   0  0  0  0  0  0
    8.9959   -9.5593   14.0299 H   0  0  0  0  0  0
    8.1862   -9.2514   15.6035 H   0  0  0  0  0  0
    9.5755  -10.3867   15.5152 H   0  0  0  0  0  0
   10.1963   -9.2797   17.5222 H   0  0  0  0  0  0
   11.2345   -7.8150   17.5792 H   0  0  0  0  0  0
    8.2465   -7.7823   17.3915 H   0  0  0  0  0  0
    8.0852   -7.6202   19.7790 H   0  0  0  0  0  0
    9.4721   -8.7501   19.6157 H   0  0  0  0  0  0
   10.8458   -5.6892   21.5774 H   0  0  0  0  0  0
    9.8321   -7.1130   21.9918 H   0  0  0  0  0  0
   11.0705   -9.2930   22.3240 H   0  0  0  0  0  0
   15.6903  -10.5252   21.0246 H   0  0  0  0  0  0
   17.0649   -9.6803   20.0114 H   0  0  0  0  0  0
    9.9970   -4.6509   19.4988 H   0  0  0  0  0  0
   11.3392   -5.5846   18.7551 H   0  0  0  0  0  0
    9.7434   -5.6534   16.8606 H   0  0  0  0  0  0
    7.3305   -5.3737   17.3389 H   0  0  0  0  0  0
   13.5648  -10.3775   21.8912 H   0  0  0  0  0  0
  1 16  2  0  0  0
  1 17  1  0  0  0
  1 21  1  0  0  0
  2  3  1  0  0  0
  2 12  1  0  0  0
  2 17  2  0  0  0
  3  4  2  0  0  0
  3 14  1  0  0  0
  4 15  1  0  0  0
  4 16  1  0  0  0
  5  6  1  0  0  0
  5 22  1  0  0  0
  5 23  1  0  0  0
  5 24  1  0  0  0
  6  7  1  0  0  0
  7  8  1  0  0  0
  7 25  1  0  0  0
  7 26  1  0  0  0
  8  9  1  0  0  0
  8 19  1  0  0  0
  8 27  1  0  0  0
  9 10  1  0  0  0
  9 28  1  0  0  0
  9 29  1  0  0  0
 10 11  1  0  0  0
 10 18  1  0  0  0
 11 12  1  0  0  0
 11 30  1  0  0  0
 11 31  1  0  0  0
 12 13  2  0  0  0
 13 14  1  0  0  0
 13 32  1  0  0  0
 14 39  1  0  0  0
 15 33  1  0  0  0
 15 34  1  0  0  0
 18 19  1  0  0  0
 18 35  1  0  0  0
 18 36  1  0  0  0
 19 20  1  0  0  0
 19 37  1  0  0  0
 20 38  1  0  0  0
M  CHG  1  14   1
M  END
> <s_m_source_file>
../4x24_ligand.sdf

> <i_m_source_file_index>
1

> <s_epik_input>
bjFbY0hdbmMoW05IMl0pYyhjMTIpW25IXVtjSF1jMltDSDJdW05IK10oW0NIMl1bQ0BASF0zW09IXSlbQ0gyXVtDQEBIXTNbQ0gyXVNbQ0gzXQ==

> <s_epik_cmdline>
J2VwaWtfYXBwJywgJy1pbWFlJywgJ2xpZ2FuZF9wcm8ubWFlJywgJy1vbWFlJywgJ2xpZ2FuZF9wcmVwLm1hZScsICctbXMnLCAnMScsICctcGgnLCAnNycsICctcGh0JywgJzAuNScsICctbnQn

> <r_epik_Ionization_Penalty>
  0.8536

> <r_epik_Ionization_Penalty_Charging>
  0.0000

> <r_epik_Ionization_Penalty_Neutral>
  0.8536

> <r_epik_State_Penalty>
  0.1279

> <r_epik_Charging_Adjusted_Penalty>
0.127885064634937

> <i_epik_Tot_Q>
1

> <i_epik_Tot_abs_Q>
1

$$$$
