4x2l_ligand
                    3D
 Schrodinger Suite 2020-3.
 29 30  0  0  1  0            999 V2000
   16.8600  -42.1070    9.3760 C   0  0  0  0  0  0
   14.5740  -41.0190    6.3070 N   0  0  0  0  0  0
   18.7260  -40.1330    6.9010 C   0  0  0  0  0  0
   18.3890  -39.7500    8.2150 C   0  0  0  0  0  0
   21.1070  -40.0670    7.3870 C   0  0  0  0  0  0
   20.0440  -40.2980    6.4890 C   0  0  0  0  0  0
   16.5890  -38.2240    9.2210 C   0  0  0  0  0  0
   16.9240  -39.6400    8.7170 C   0  0  2  0  0  0
   16.6900  -40.6690    9.8350 C   0  0  0  0  0  0
   15.6870  -42.5820    8.0920 S   0  0  0  0  0  0
   15.4400  -40.9680    7.3360 C   0  0  0  0  0  0
   15.9760  -39.8370    7.6160 N   0  3  0  0  0  0
   20.8460  -39.6540    8.7030 C   0  0  0  0  0  0
   19.4950  -39.5180    9.0980 C   0  0  0  0  0  0
   19.3090  -39.1990   10.3800 F   0  0  0  0  0  0
   22.3810  -40.3120    7.0090 F   0  0  0  0  0  0
   17.8729  -42.2449    8.9698 H   0  0  0  0  0  0
   16.7120  -42.7844   10.2299 H   0  0  0  0  0  0
   14.0950  -41.9720    6.0380 H   0  0  0  0  0  0
   17.9251  -40.3060    6.1822 H   0  0  0  0  0  0
   20.2569  -40.6077    5.4659 H   0  0  0  0  0  0
   17.2510  -37.9677   10.0612 H   0  0  0  0  0  0
   15.5418  -38.1924    9.5564 H   0  0  0  0  0  0
   16.7348  -37.5005    8.4054 H   0  0  0  0  0  0
   15.6664  -40.5224   10.2101 H   0  0  0  0  0  0
   17.4094  -40.4531   10.6387 H   0  0  0  0  0  0
   15.7308  -38.9485    7.0156 H   0  0  0  0  0  0
   21.6589  -39.4448    9.3983 H   0  0  0  0  0  0
   14.3452  -40.1077    5.7350 H   0  0  0  0  0  0
  1  9  1  0  0  0
  1 10  1  0  0  0
  1 17  1  0  0  0
  1 18  1  0  0  0
  2 11  1  0  0  0
  2 19  1  0  0  0
  2 29  1  0  0  0
  3  4  2  0  0  0
  3  6  1  0  0  0
  3 20  1  0  0  0
  4  8  1  0  0  0
  4 14  1  0  0  0
  5  6  2  0  0  0
  5 13  1  0  0  0
  5 16  1  0  0  0
  6 21  1  0  0  0
  7  8  1  0  0  0
  7 22  1  0  0  0
  7 23  1  0  0  0
  7 24  1  0  0  0
  8  9  1  0  0  0
  8 12  1  0  0  0
  9 25  1  0  0  0
  9 26  1  0  0  0
 10 11  1  0  0  0
 11 12  2  0  0  0
 12 27  1  0  0  0
 13 14  2  0  0  0
 13 28  1  0  0  0
 14 15  1  0  0  0
M  CHG  1  12   1
M  END
> <s_m_source_file>
../4x2l_ligand.sdf

> <i_m_source_file_index>
1

> <s_epik_input>
W0hdL049QyhbTkhdMSlcU1tDSDJdW0NIMl1bQ0BAXTEoW0NIM10pYzJbY0hdW2NIXWMoRilbY0hdYzJG

> <s_epik_cmdline>
J2VwaWtfYXBwJywgJy1pbWFlJywgJ2xpZ2FuZF9wcm8ubWFlJywgJy1vbWFlJywgJ2xpZ2FuZF9wcmVwLm1hZScsICctbXMnLCAnMScsICctcGgnLCAnNycsICctcGh0JywgJzAuNScsICctbnQn

> <r_lp_tautomer_probability>
1

> <r_epik_Ionization_Penalty>
  0.0290

> <r_epik_Ionization_Penalty_Charging>
  0.0290

> <r_epik_Ionization_Penalty_Neutral>
  0.0000

> <r_epik_State_Penalty>
 -0.0000

> <r_epik_Charging_Adjusted_Penalty>
0.0289874937565211

> <i_epik_Tot_Q>
1

> <i_epik_Tot_abs_Q>
1

> <s_epik_Chemistry_Notes>
This compound has an imine and may undergo hydrolysis.

$$$$
