4x34_ligand
                    3D
 Schrodinger Suite 2020-3.
200201  0  0  1  0            999 V2000
    5.8450    8.7320   43.5070 N   0  3  0  0  0  0
    6.7940    8.0250   42.6460 C   0  0  2  0  0  0
    6.1990    7.7120   41.2720 C   0  0  0  0  0  0
    5.2550    6.9250   41.1490 O   0  0  0  0  0  0
    7.3170    6.7270   43.3120 C   0  0  2  0  0  0
    7.4840    5.7050   42.3190 O   0  0  0  0  0  0
    6.3470    6.2380   44.3740 C   0  0  0  0  0  0
    6.7550    8.3370   40.2400 N   0  0  0  0  0  0
    6.1980    8.2040   38.8990 C   0  0  2  0  0  0
    6.9410    7.1860   38.0320 C   0  0  0  0  0  0
    8.1490    6.9780   38.1700 O   0  0  0  0  0  0
    6.1800    9.5570   38.2050 C   0  0  0  0  0  0
    7.4960   10.0250   38.0060 O   0  0  0  0  0  0
    6.2010    6.5520   37.1320 N   0  0  0  0  0  0
    6.7630    5.5720   36.2200 C   0  0  2  0  0  0
    6.3260    5.8870   34.7850 C   0  0  0  0  0  0
    5.2690    6.4840   34.5590 O   0  0  0  0  0  0
    6.2930    4.1680   36.6050 C   0  0  0  0  0  0
    6.7380    3.6930   37.9900 C   0  0  0  0  0  0
    6.2270    2.2830   38.2680 C   0  0  0  0  0  0
    4.9360    2.2790   38.9570 N   0  0  0  0  0  0
    4.0730    1.2660   38.9240 C   0  0  0  0  0  0
    4.3530    0.1770   38.2190 N   0  0  0  0  0  0
    2.9220    1.3460   39.5810 N   0  0  0  0  0  0
    7.1290    5.4810   33.8120 N   0  0  0  0  0  0
    6.7650    5.7370   32.4230 C   0  0  2  0  0  0
    5.5600    4.9100   32.0230 C   0  0  0  0  0  0
    5.4590    3.7370   32.3770 O   0  0  0  0  0  0
    7.9230    5.4340   31.4740 C   0  0  0  0  0  0
    7.7900    6.1290   30.1620 C   0  0  0  0  0  0
    6.9400    5.6850   29.1710 N   0  0  0  0  0  0
    8.3570    7.2650   29.6930 C   0  0  0  0  0  0
    6.9910    6.5180   28.1470 C   0  0  0  0  0  0
    7.8500    7.4820   28.4340 N   0  0  0  0  0  0
    2.8150    6.2370   24.1580 O   0  0  0  0  0  0
    2.1340    5.3760   24.7220 C   0  0  0  0  0  0
    1.9530    4.0160   24.0830 C   0  0  0  0  0  0
    1.5020    5.6300   25.9870 N   0  0  0  0  0  0
    1.6550    6.9210   26.6210 C   0  0  0  0  0  0
    1.6280    6.9570   28.1240 C   0  0  0  0  0  0
    2.7320    6.1840   28.8350 C   0  0  0  0  0  0
    2.4410    5.7510   30.2450 C   0  0  0  0  0  0
    3.4390    4.8510   30.9180 C   0  0  2  0  0  0
    4.6480    5.5180   31.2680 N   0  0  0  0  0  0
    3.6890    3.6090   30.1050 C   0  0  0  0  0  0
    2.8520    2.6780   30.1460 O   0  0  0  0  0  0
    4.8150    3.5000   29.4030 N   0  0  0  0  0  0
    5.0270    2.2900   28.6210 C   0  0  1  0  0  0
    6.1420    2.4070   27.5750 C   0  0  0  0  0  0
    6.1740    3.7110   26.7650 C   0  0  0  0  0  0
    5.6610    3.8610   25.3630 C   0  0  0  0  0  0
    6.5940    3.5780   24.1970 C   0  0  0  0  0  0
    7.3150    4.6200   23.4590 N   0  3  0  0  0  0
    6.6610    4.9250   22.1900 C   0  0  0  0  0  0
    8.5730    4.0010   23.1610 C   0  0  0  0  0  0
    5.2230    1.1100   29.5180 C   0  0  0  0  0  0
    5.0810   -0.0270   29.0800 O   0  0  0  0  0  0
    5.5200    1.3470   30.7890 N   0  0  0  0  0  0
    5.5730    0.2280   31.7410 C   0  0  2  0  0  0
    4.2060   -0.4030   31.9840 C   0  0  0  0  0  0
    4.1300   -1.5380   32.4670 O   0  0  0  0  0  0
    6.2050    0.6450   33.0700 C   0  0  0  0  0  0
    7.7120    0.9050   33.0080 C   0  0  0  0  0  0
    8.2380    1.3970   34.3450 C   0  0  0  0  0  0
    8.4400   -0.3600   32.5700 C   0  0  0  0  0  0
    3.1370    0.3150   31.6340 N   0  0  0  0  0  0
    1.7730   -0.2020   31.7890 C   0  0  2  0  0  0
    1.4850   -1.3960   30.8730 C   0  0  0  0  0  0
    0.5330   -2.1450   31.1040 O   0  0  0  0  0  0
    0.7310    0.9100   31.5450 C   0  0  0  0  0  0
    0.7770    2.0680   32.5460 C   0  0  0  0  0  0
   -0.0910    3.5740   31.9950 S   0  0  0  0  0  0
   -1.7750    3.0010   31.9050 C   0  0  0  0  0  0
    2.3110   -1.5860   29.8450 N   0  0  0  0  0  0
    2.1140   -2.6790   28.8830 C   0  0  2  0  0  0
    2.9630   -3.9150   29.1840 C   0  0  0  0  0  0
    2.9390   -4.8920   28.4320 O   0  0  0  0  0  0
    2.3860   -2.2010   27.4520 C   0  0  0  0  0  0
    1.5090   -1.0710   27.0170 C   0  0  0  0  0  0
    0.3300   -1.3190   26.3280 C   0  0  0  0  0  0
    1.8700    0.2470   27.2780 C   0  0  0  0  0  0
   -0.4800   -0.2700   25.9220 C   0  0  0  0  0  0
    1.0570    1.3010   26.8860 C   0  0  0  0  0  0
   -0.1160    1.0420   26.2050 C   0  0  0  0  0  0
    3.7140   -3.8620   30.2760 N   0  0  0  0  0  0
    4.5480   -4.9850   30.6830 C   0  0  2  0  0  0
    3.9090   -5.7430   31.8400 C   0  0  0  0  0  0
    2.9610   -6.5070   31.6340 O   0  0  0  0  0  0
    5.9550   -4.5060   31.0470 C   0  0  0  0  0  0
    6.7950   -4.1300   29.8310 C   0  0  0  0  0  0
    8.1700   -3.6100   30.2330 C   0  0  0  0  0  0
    8.9430   -4.6250   31.0590 C   0  0  0  0  0  0
    9.8690   -3.9590   32.0230 N   0  3  0  0  0  0
    4.3360   -5.5970   32.9890 O   0  0  0  0  0  0
    5.4988    9.6444   42.9994 H   0  0  0  0  0  0
    6.3387    9.0029   44.4519 H   0  0  0  0  0  0
    4.9842    8.0800   43.7168 H   0  0  0  0  0  0
    7.6124    8.7497   42.5234 H   0  0  0  0  0  0
    8.3094    6.8864   43.7588 H   0  0  0  0  0  0
    8.1535    5.8742   41.4628 H   0  0  0  0  0  0
    6.2157    7.0185   45.1379 H   0  0  0  0  0  0
    6.7470    5.3278   44.8447 H   0  0  0  0  0  0
    5.3760    6.0136   43.9083 H   0  0  0  0  0  0
    7.6458    8.9605   40.4062 H   0  0  0  0  0  0
    5.1779    7.8316   39.0741 H   0  0  0  0  0  0
    5.6822    9.4617   37.2287 H   0  0  0  0  0  0
    5.6325   10.2807   38.8267 H   0  0  0  0  0  0
    7.6667   10.9942   37.5146 H   0  0  0  0  0  0
    5.1279    6.7901   37.0905 H   0  0  0  0  0  0
    7.8552    5.6530   36.3226 H   0  0  0  0  0  0
    5.1935    4.1350   36.5993 H   0  0  0  0  0  0
    6.6854    3.4386   35.8811 H   0  0  0  0  0  0
    7.8368    3.6887   38.0406 H   0  0  0  0  0  0
    6.3383    4.3730   38.7568 H   0  0  0  0  0  0
    6.1045    1.7433   37.3173 H   0  0  0  0  0  0
    6.9502    1.7492   38.9021 H   0  0  0  0  0  0
    4.6261    3.1524   39.5496 H   0  0  0  0  0  0
    5.3050    0.1052   37.6727 H   0  0  0  0  0  0
    2.6846    2.2462   40.1669 H   0  0  0  0  0  0
    2.2058    0.5121   39.5394 H   0  0  0  0  0  0
    8.0654    4.9537   34.0470 H   0  0  0  0  0  0
    6.5198    6.8089   32.3921 H   0  0  0  0  0  0
    8.8681    5.7598   31.9330 H   0  0  0  0  0  0
    7.9639    4.3522   31.2790 H   0  0  0  0  0  0
    9.0862    7.9686   30.1211 H   0  0  0  0  0  0
    6.4216    6.4264   27.2221 H   0  0  0  0  0  0
    2.4960    3.9849   23.1269 H   0  0  0  0  0  0
    0.8830    3.8349   23.9031 H   0  0  0  0  0  0
    2.3484    3.2398   24.7547 H   0  0  0  0  0  0
    0.9031    4.8459   26.4734 H   0  0  0  0  0  0
    2.6231    7.3577   26.3345 H   0  0  0  0  0  0
    0.8419    7.5873   26.2970 H   0  0  0  0  0  0
    1.7169    7.9982   28.4675 H   0  0  0  0  0  0
    0.6795    6.5319   28.4840 H   0  0  0  0  0  0
    2.9534    5.2630   28.2757 H   0  0  0  0  0  0
    3.6376    6.8058   28.8907 H   0  0  0  0  0  0
    2.3674    6.6370   30.8928 H   0  0  0  0  0  0
    1.4902    5.1985   30.2701 H   0  0  0  0  0  0
    3.0392    4.5691   31.9032 H   0  0  0  0  0  0
    4.8331    6.5429   30.9139 H   0  0  0  0  0  0
    5.5754    4.2949   29.4034 H   0  0  0  0  0  0
    4.0801    2.1634   28.0756 H   0  0  0  0  0  0
    7.1204    2.3334   28.0723 H   0  0  0  0  0  0
    6.0422    1.5946   26.8402 H   0  0  0  0  0  0
    5.5948    4.4839   27.2914 H   0  0  0  0  0  0
    7.2153    4.0468   26.6516 H   0  0  0  0  0  0
    4.8137    3.1770   25.2075 H   0  0  0  0  0  0
    5.3296    4.8976   25.2027 H   0  0  0  0  0  0
    7.4152    2.9283   24.5339 H   0  0  0  0  0  0
    6.0351    3.0757   23.3937 H   0  0  0  0  0  0
    7.3958    5.5560   24.0312 H   0  0  0  0  0  0
    5.6893    5.4027   22.3838 H   0  0  0  0  0  0
    6.5058    3.9943   21.6245 H   0  0  0  0  0  0
    7.2952    5.6078   21.6055 H   0  0  0  0  0  0
    9.0932    3.7576   24.0992 H   0  0  0  0  0  0
    9.1903    4.6919   22.5681 H   0  0  0  0  0  0
    8.4009    3.0785   22.5871 H   0  0  0  0  0  0
    5.7258    2.3715   31.1325 H   0  0  0  0  0  0
    6.2147   -0.5090   31.2361 H   0  0  0  0  0  0
    5.7362    1.5754   33.4230 H   0  0  0  0  0  0
    6.0499   -0.1493   33.8150 H   0  0  0  0  0  0
    7.9062    1.6977   32.2705 H   0  0  0  0  0  0
    7.6976    2.3091   34.6384 H   0  0  0  0  0  0
    9.3117    1.6192   34.2573 H   0  0  0  0  0  0
    8.0856    0.6191   35.1077 H   0  0  0  0  0  0
    8.0416   -0.6955   31.6011 H   0  0  0  0  0  0
    8.2889   -1.1489   33.3216 H   0  0  0  0  0  0
    9.5150   -0.1488   32.4712 H   0  0  0  0  0  0
    3.3002    1.3207   31.2193 H   0  0  0  0  0  0
    1.7460   -0.5474   32.8330 H   0  0  0  0  0  0
    0.8885    1.3477   30.5482 H   0  0  0  0  0  0
   -0.2811    0.4830   31.6022 H   0  0  0  0  0  0
    0.3084    1.7549   33.4907 H   0  0  0  0  0  0
    1.8237    2.3506   32.7319 H   0  0  0  0  0  0
   -2.4257    3.8252   31.5773 H   0  0  0  0  0  0
   -2.0970    2.6518   32.8972 H   0  0  0  0  0  0
   -1.8423    2.1722   31.1849 H   0  0  0  0  0  0
    3.1597   -0.8961   29.7274 H   0  0  0  0  0  0
    1.0559   -2.9479   29.0179 H   0  0  0  0  0  0
    3.4274   -1.8557   27.3725 H   0  0  0  0  0  0
    2.2206   -3.0318   26.7502 H   0  0  0  0  0  0
    0.0391   -2.3455   26.1047 H   0  0  0  0  0  0
    2.8052    0.4547   27.7980 H   0  0  0  0  0  0
   -1.4036   -0.4737   25.3801 H   0  0  0  0  0  0
    1.3428    2.3278   27.1144 H   0  0  0  0  0  0
   -0.7564    1.8656   25.8894 H   0  0  0  0  0  0
    3.6972   -2.9423   30.8793 H   0  0  0  0  0  0
    4.5999   -5.6485   29.8072 H   0  0  0  0  0  0
    2.5022   -7.0526   32.4718 H   0  0  0  0  0  0
    5.8845   -3.6163   31.6900 H   0  0  0  0  0  0
    6.4870   -5.3052   31.5839 H   0  0  0  0  0  0
    6.9332   -5.0153   29.1929 H   0  0  0  0  0  0
    6.2812   -3.3429   29.2596 H   0  0  0  0  0  0
    8.7555   -3.3850   29.3294 H   0  0  0  0  0  0
    8.0551   -2.6950   30.8327 H   0  0  0  0  0  0
    8.2375   -5.2474   31.6290 H   0  0  0  0  0  0
    9.5387   -5.2642   30.3908 H   0  0  0  0  0  0
   10.4089   -4.7237   32.6007 H   0  0  0  0  0  0
    9.2895   -3.3230   32.7083 H   0  0  0  0  0  0
   10.5906   -3.3398   31.4700 H   0  0  0  0  0  0
  1  2  1  0  0  0
  1 95  1  0  0  0
  1 96  1  0  0  0
  1 97  1  0  0  0
  2  3  1  0  0  0
  2  5  1  0  0  0
  2 98  1  0  0  0
  3  4  2  0  0  0
  3  8  1  0  0  0
  5  6  1  0  0  0
  5  7  1  0  0  0
  5 99  1  0  0  0
  6100  1  0  0  0
  7101  1  0  0  0
  7102  1  0  0  0
  7103  1  0  0  0
  8  9  1  0  0  0
  8104  1  0  0  0
  9 10  1  0  0  0
  9 12  1  0  0  0
  9105  1  0  0  0
 10 11  2  0  0  0
 10 14  1  0  0  0
 12 13  1  0  0  0
 12106  1  0  0  0
 12107  1  0  0  0
 13108  1  0  0  0
 14 15  1  0  0  0
 14109  1  0  0  0
 15 16  1  0  0  0
 15 18  1  0  0  0
 15110  1  0  0  0
 16 17  2  0  0  0
 16 25  1  0  0  0
 18 19  1  0  0  0
 18111  1  0  0  0
 18112  1  0  0  0
 19 20  1  0  0  0
 19113  1  0  0  0
 19114  1  0  0  0
 20 21  1  0  0  0
 20115  1  0  0  0
 20116  1  0  0  0
 21 22  1  0  0  0
 21117  1  0  0  0
 22 23  2  0  0  0
 22 24  1  0  0  0
 23118  1  0  0  0
 24119  1  0  0  0
 24120  1  0  0  0
 25 26  1  0  0  0
 25121  1  0  0  0
 26 27  1  0  0  0
 26 29  1  0  0  0
 26122  1  0  0  0
 27 28  2  0  0  0
 27 44  1  0  0  0
 29 30  1  0  0  0
 29123  1  0  0  0
 29124  1  0  0  0
 30 31  2  0  0  0
 30 32  1  0  0  0
 31 33  1  0  0  0
 32 34  2  0  0  0
 32125  1  0  0  0
 33 34  1  0  0  0
 33126  1  0  0  0
 35 36  2  0  0  0
 36 37  1  0  0  0
 36 38  1  0  0  0
 37127  1  0  0  0
 37128  1  0  0  0
 37129  1  0  0  0
 38 39  1  0  0  0
 38130  1  0  0  0
 39 40  1  0  0  0
 39131  1  0  0  0
 39132  1  0  0  0
 40 41  1  0  0  0
 40133  1  0  0  0
 40134  1  0  0  0
 41 42  1  0  0  0
 41135  1  0  0  0
 41136  1  0  0  0
 42 43  1  0  0  0
 42137  1  0  0  0
 42138  1  0  0  0
 43 44  1  0  0  0
 43 45  1  0  0  0
 43139  1  0  0  0
 44140  1  0  0  0
 45 46  2  0  0  0
 45 47  1  0  0  0
 47 48  1  0  0  0
 47141  1  0  0  0
 48 49  1  0  0  0
 48 56  1  0  0  0
 48142  1  0  0  0
 49 50  1  0  0  0
 49143  1  0  0  0
 49144  1  0  0  0
 50 51  1  0  0  0
 50145  1  0  0  0
 50146  1  0  0  0
 51 52  1  0  0  0
 51147  1  0  0  0
 51148  1  0  0  0
 52 53  1  0  0  0
 52149  1  0  0  0
 52150  1  0  0  0
 53 54  1  0  0  0
 53 55  1  0  0  0
 53151  1  0  0  0
 54152  1  0  0  0
 54153  1  0  0  0
 54154  1  0  0  0
 55155  1  0  0  0
 55156  1  0  0  0
 55157  1  0  0  0
 56 57  2  0  0  0
 56 58  1  0  0  0
 58 59  1  0  0  0
 58158  1  0  0  0
 59 60  1  0  0  0
 59 62  1  0  0  0
 59159  1  0  0  0
 60 61  2  0  0  0
 60 66  1  0  0  0
 62 63  1  0  0  0
 62160  1  0  0  0
 62161  1  0  0  0
 63 64  1  0  0  0
 63 65  1  0  0  0
 63162  1  0  0  0
 64163  1  0  0  0
 64164  1  0  0  0
 64165  1  0  0  0
 65166  1  0  0  0
 65167  1  0  0  0
 65168  1  0  0  0
 66 67  1  0  0  0
 66169  1  0  0  0
 67 68  1  0  0  0
 67 70  1  0  0  0
 67170  1  0  0  0
 68 69  2  0  0  0
 68 74  1  0  0  0
 70 71  1  0  0  0
 70171  1  0  0  0
 70172  1  0  0  0
 71 72  1  0  0  0
 71173  1  0  0  0
 71174  1  0  0  0
 72 73  1  0  0  0
 73175  1  0  0  0
 73176  1  0  0  0
 73177  1  0  0  0
 74 75  1  0  0  0
 74178  1  0  0  0
 75 76  1  0  0  0
 75 78  1  0  0  0
 75179  1  0  0  0
 76 77  2  0  0  0
 76 85  1  0  0  0
 78 79  1  0  0  0
 78180  1  0  0  0
 78181  1  0  0  0
 79 80  2  0  0  0
 79 81  1  0  0  0
 80 82  1  0  0  0
 80182  1  0  0  0
 81 83  2  0  0  0
 81183  1  0  0  0
 82 84  2  0  0  0
 82184  1  0  0  0
 83 84  1  0  0  0
 83185  1  0  0  0
 84186  1  0  0  0
 85 86  1  0  0  0
 85187  1  0  0  0
 86 87  1  0  0  0
 86 89  1  0  0  0
 86188  1  0  0  0
 87 88  1  0  0  0
 87 94  2  0  0  0
 88189  1  0  0  0
 89 90  1  0  0  0
 89190  1  0  0  0
 89191  1  0  0  0
 90 91  1  0  0  0
 90192  1  0  0  0
 90193  1  0  0  0
 91 92  1  0  0  0
 91194  1  0  0  0
 91195  1  0  0  0
 92 93  1  0  0  0
 92196  1  0  0  0
 92197  1  0  0  0
 93198  1  0  0  0
 93199  1  0  0  0
 93200  1  0  0  0
M  CHG  3   1   1  53   1  93   1
M  END
> <s_m_source_file>
../4x34_ligand.sdf

> <i_m_source_file_index>
1

> <s_epik_input>
W09IXVtDQEhdKFtDSDNdKVtDQEhdKFtOSDMrXSlDKD1PKVtOSF1bQ0BASF0oW0NIMl1bT0hdKUMoPU8pW05IXVtDQEBIXShbQ0gyXVtDSDJdW0NIMl1bTkhdL0MoPU5cW0hdKVtOSDJdKUMoPU8pW05IXVtDQEBIXShbQ0gyXUMxPU5bQ0gyXU49W0NIXTEpQyg9TylbTkhdW0NAQEhdKFtDSDJdW0NIMl1bQ0gyXVtDSDJdW05IXUMoPU8pW0NIM10pQyg9TylbTkhdW0NAQEhdKFtDSDJdW0NIMl1bQ0gyXVtDSDJdW05IK10oW0NIM10pW0NIM10pQyg9TylbTkhdW0NAQEhdKFtDSDJdW0NIXShbQ0gzXSlbQ0gzXSlDKD1PKVtOSF1bQ0BASF0oW0NIMl1bQ0gyXVNbQ0gzXSlDKD1PKVtOSF1bQ0BASF0oW0NIMl1jMltjSF1bY0hdW2NIXVtjSF1bY0hdMilDKD1PKVtOSF1bQ0BIXShDKD1PKVtPSF0pW0NIMl1bQ0gyXVtDSDJdW0NIMl1bTkgzK10=

> <s_epik_cmdline>
J2VwaWtfYXBwJywgJy1pbWFlJywgJ2xpZ2FuZF9wcm8ubWFlJywgJy1vbWFlJywgJ2xpZ2FuZF9wcmVwLm1hZScsICctbXMnLCAnMScsICctcGgnLCAnNycsICctcGh0JywgJzAuNScsICctbnQn

> <s_epik_pKa_notes>
Molecule size exceeds maximum supported for generating protonation states

> <s_epik_Chemistry_Notes>
This compound has an imine and may undergo hydrolysis.

$$$$
