4x3e_ligand
                    3D
 Schrodinger Suite 2020-3.
143143  0  0  1  0            999 V2000
   14.3940  -23.7770   -8.2020 N   0  3  0  0  0  0
   15.7280  -23.2200   -8.3960 C   0  0  2  0  0  0
   15.7810  -21.7380   -8.0460 C   0  0  0  0  0  0
   16.8640  -21.1740   -7.9100 O   0  0  0  0  0  0
   16.2080  -23.4440   -9.8300 C   0  0  0  0  0  0
   14.6170  -21.1060   -7.9050 N   0  0  0  0  0  0
   14.5750  -19.6890   -7.5410 C   0  0  2  0  0  0
   13.2540  -19.2860   -6.8620 C   0  0  0  0  0  0
   12.1720  -19.5380   -7.3850 O   0  0  0  0  0  0
   14.8730  -18.8260   -8.7760 C   0  0  0  0  0  0
   14.7400  -17.3360   -8.5550 C   0  0  0  0  0  0
   15.6570  -16.8050   -7.4610 C   0  0  0  0  0  0
   16.8650  -17.0650   -7.4670 O   0  0  0  0  0  0
   15.0840  -16.0520   -6.5130 N   0  0  0  0  0  0
   13.3610  -18.6570   -5.6960 N   0  0  0  0  0  0
   12.2070  -18.3070   -4.8690 C   0  0  2  0  0  0
   11.4820  -17.0470   -5.3300 C   0  0  0  0  0  0
   12.1080  -16.1010   -5.8110 O   0  0  0  0  0  0
   12.6170  -18.1390   -3.3950 C   0  0  0  0  0  0
   13.7700  -17.1470   -3.1460 C   0  0  0  0  0  0
   13.8720  -16.7700   -1.6600 C   0  0  0  0  0  0
   14.7980  -15.6610   -1.4340 N   0  0  0  0  0  0
   15.0180  -15.0770   -0.2570 C   0  0  0  0  0  0
   14.3740  -15.4930    0.8280 N   0  3  0  0  0  0
   15.8790  -14.0610   -0.1680 N   0  0  0  0  0  0
   10.1600  -17.0500   -5.1740 N   0  0  0  0  0  0
    9.3170  -15.9170   -5.5070 C   0  0  1  0  0  0
    8.0350  -16.3990   -6.1330 C   0  0  0  0  0  0
    7.1040  -15.3100   -6.7740 C   0  0  0  0  0  0
    5.8560  -15.7620   -7.5040 C   0  0  0  0  0  0
    4.8690  -14.6830   -8.0020 C   0  0  0  0  0  0
    3.6080  -15.0910   -8.6470 N   0  3  0  0  0  0
    8.9890  -15.0830   -4.2820 C   0  0  0  0  0  0
    8.6260  -13.8810   -4.4200 O   0  0  0  0  0  0
    2.8420  -13.9240   -8.9770 C   0  0  0  0  0  0
    2.8030  -15.9420   -7.7340 C   0  0  0  0  0  0
    3.8990  -15.8670   -9.8670 C   0  0  0  0  0  0
    9.0880  -15.6840   -3.0940 N   0  0  0  0  0  0
    8.7610  -14.9850   -1.8510 C   0  0  2  0  0  0
    9.9220  -14.9400   -0.8560 C   0  0  0  0  0  0
   10.7390  -15.8600   -0.7900 O   0  0  0  0  0  0
    7.5360  -15.6210   -1.1890 C   0  0  0  0  0  0
    6.3700  -15.7590   -2.1040 C   0  0  0  0  0  0
    5.4460  -14.7340   -2.2240 C   0  0  0  0  0  0
    6.2010  -16.9060   -2.8660 C   0  0  0  0  0  0
    4.3710  -14.8520   -3.0720 C   0  0  0  0  0  0
    5.1230  -17.0270   -3.7230 C   0  0  0  0  0  0
    4.2070  -16.0000   -3.8250 C   0  0  0  0  0  0
    9.9790  -13.8750   -0.0660 N   0  0  0  0  0  0
   11.0040  -13.7650    0.9690 C   0  0  2  0  0  0
   10.3870  -13.8710    2.3630 C   0  0  0  0  0  0
   11.1060  -13.8980    3.3650 O   0  0  0  0  0  0
   11.7800  -12.4610    0.8210 C   0  0  0  0  0  0
    9.0550  -13.9420    2.4000 N   0  0  0  0  0  0
    8.2750  -13.9780    3.6350 C   0  0  2  0  0  0
    7.4800  -15.2630    3.7520 C   0  0  0  0  0  0
    7.2720  -15.9630    2.7620 O   0  0  0  0  0  0
    7.2760  -12.8260    3.6640 C   0  0  0  0  0  0
    7.8100  -11.5200    4.2110 C   0  0  0  0  0  0
    6.7000  -10.5150    4.4310 C   0  0  0  0  0  0
    5.5280  -10.7940    4.1420 O   0  0  0  0  0  0
    7.0550   -9.3400    4.9520 N   0  0  0  0  0  0
    7.0200  -15.5620    4.9660 N   0  0  0  0  0  0
    6.1560  -16.7180    5.2030 C   0  0  2  0  0  0
    4.7580  -16.4760    4.6400 C   0  0  0  0  0  0
    4.1770  -15.4040    4.8410 O   0  5  0  0  0  0
    6.0700  -17.0100    6.7040 C   0  0  0  0  0  0
    6.5470  -15.8880    7.4500 O   0  0  0  0  0  0
    4.1890  -17.3490    3.9760 O   0  0  0  0  0  0
   14.0715  -23.6035   -7.1647 H   0  0  0  0  0  0
   14.4153  -24.8582   -8.4034 H   0  0  0  0  0  0
   13.6892  -23.2893   -8.8915 H   0  0  0  0  0  0
   16.3630  -23.7758   -7.6904 H   0  0  0  0  0  0
   16.1641  -24.5171  -10.0679 H   0  0  0  0  0  0
   17.2442  -23.0884   -9.9296 H   0  0  0  0  0  0
   15.5611  -22.8877  -10.5243 H   0  0  0  0  0  0
   13.6807  -21.6607   -8.0652 H   0  0  0  0  0  0
   15.3724  -19.5663   -6.7932 H   0  0  0  0  0  0
   15.9058  -19.0063   -9.1087 H   0  0  0  0  0  0
   14.1758  -19.0901   -9.5848 H   0  0  0  0  0  0
   14.9905  -16.8037   -9.4845 H   0  0  0  0  0  0
   13.7059  -17.0993   -8.2642 H   0  0  0  0  0  0
   14.0037  -15.8482   -6.5507 H   0  0  0  0  0  0
   15.6937  -15.6374   -5.6967 H   0  0  0  0  0  0
   14.3764  -18.3992   -5.3607 H   0  0  0  0  0  0
   11.5376  -19.1671   -5.0174 H   0  0  0  0  0  0
   11.7571  -17.7731   -2.8147 H   0  0  0  0  0  0
   12.9448  -19.1089   -2.9927 H   0  0  0  0  0  0
   14.7209  -17.6046   -3.4567 H   0  0  0  0  0  0
   13.5969  -16.2299   -3.7283 H   0  0  0  0  0  0
   12.8811  -16.4688   -1.2893 H   0  0  0  0  0  0
   14.2304  -17.6369   -1.0855 H   0  0  0  0  0  0
   15.3766  -15.2478   -2.2734 H   0  0  0  0  0  0
   13.6636  -16.3300    0.7589 H   0  0  0  0  0  0
   16.4142  -13.7135   -1.0640 H   0  0  0  0  0  0
   16.0534  -13.5711    0.8013 H   0  0  0  0  0  0
    9.7112  -17.9698   -4.7709 H   0  0  0  0  0  0
    9.9039  -15.3194   -6.2201 H   0  0  0  0  0  0
    8.2659  -17.1059   -6.9435 H   0  0  0  0  0  0
    7.4215  -16.9023   -5.3712 H   0  0  0  0  0  0
    6.7388  -14.6316   -5.9889 H   0  0  0  0  0  0
    7.6720  -14.7351   -7.5202 H   0  0  0  0  0  0
    6.1418  -16.3226   -8.4063 H   0  0  0  0  0  0
    5.2592  -16.4089   -6.8441 H   0  0  0  0  0  0
    4.5487  -14.0597   -7.1541 H   0  0  0  0  0  0
    5.3646  -14.0519   -8.7543 H   0  0  0  0  0  0
    2.6307  -13.3530   -8.0609 H   0  0  0  0  0  0
    1.8947  -14.2279   -9.4464 H   0  0  0  0  0  0
    3.4132  -13.2963   -9.6768 H   0  0  0  0  0  0
    2.5746  -15.3808   -6.8159 H   0  0  0  0  0  0
    3.3734  -16.8471   -7.4783 H   0  0  0  0  0  0
    1.8647  -16.2283   -8.2317 H   0  0  0  0  0  0
    4.4957  -15.2536  -10.5581 H   0  0  0  0  0  0
    2.9548  -16.1537  -10.3531 H   0  0  0  0  0  0
    4.4635  -16.7725   -9.5997 H   0  0  0  0  0  0
    9.4250  -16.7307   -3.0641 H   0  0  0  0  0  0
    8.5514  -13.9568   -2.1810 H   0  0  0  0  0  0
    7.7943  -16.6286   -0.8312 H   0  0  0  0  0  0
    7.2153  -15.0010   -0.3388 H   0  0  0  0  0  0
    5.5730  -13.8231   -1.6390 H   0  0  0  0  0  0
    6.9239  -17.7181   -2.7884 H   0  0  0  0  0  0
    3.6476  -14.0405   -3.1510 H   0  0  0  0  0  0
    4.9968  -17.9321   -4.3171 H   0  0  0  0  0  0
    3.3551  -16.0937   -4.4985 H   0  0  0  0  0  0
    9.2420  -13.0691   -0.1980 H   0  0  0  0  0  0
   11.6813  -14.6159    0.8040 H   0  0  0  0  0  0
   12.2148  -12.4056   -0.1879 H   0  0  0  0  0  0
   12.5851  -12.4265    1.5697 H   0  0  0  0  0  0
   11.0999  -11.6102    0.9744 H   0  0  0  0  0  0
    8.5447  -13.9737    1.4261 H   0  0  0  0  0  0
    9.0230  -13.9064    4.4383 H   0  0  0  0  0  0
    6.9277  -12.6169    2.6418 H   0  0  0  0  0  0
    6.4177  -13.1007    4.2948 H   0  0  0  0  0  0
    8.3097  -11.7027    5.1737 H   0  0  0  0  0  0
    8.5310  -11.0918    3.4991 H   0  0  0  0  0  0
    8.1100   -9.1408    5.1915 H   0  0  0  0  0  0
    6.2929   -8.5699    5.1423 H   0  0  0  0  0  0
    7.3082  -14.9098    5.8036 H   0  0  0  0  0  0
    6.6267  -17.5577    4.6708 H   0  0  0  0  0  0
    5.0238  -17.2086    6.9795 H   0  0  0  0  0  0
    6.6853  -17.8902    6.9422 H   0  0  0  0  0  0
    6.5575  -15.9228    8.5494 H   0  0  0  0  0  0
   14.5512  -15.0004    1.7955 H   0  0  0  0  0  0
  1  2  1  0  0  0
  1 70  1  0  0  0
  1 71  1  0  0  0
  1 72  1  0  0  0
  2  3  1  0  0  0
  2  5  1  0  0  0
  2 73  1  0  0  0
  3  4  2  0  0  0
  3  6  1  0  0  0
  5 74  1  0  0  0
  5 75  1  0  0  0
  5 76  1  0  0  0
  6  7  1  0  0  0
  6 77  1  0  0  0
  7  8  1  0  0  0
  7 10  1  0  0  0
  7 78  1  0  0  0
  8  9  2  0  0  0
  8 15  1  0  0  0
 10 11  1  0  0  0
 10 79  1  0  0  0
 10 80  1  0  0  0
 11 12  1  0  0  0
 11 81  1  0  0  0
 11 82  1  0  0  0
 12 13  2  0  0  0
 12 14  1  0  0  0
 14 83  1  0  0  0
 14 84  1  0  0  0
 15 16  1  0  0  0
 15 85  1  0  0  0
 16 17  1  0  0  0
 16 19  1  0  0  0
 16 86  1  0  0  0
 17 18  2  0  0  0
 17 26  1  0  0  0
 19 20  1  0  0  0
 19 87  1  0  0  0
 19 88  1  0  0  0
 20 21  1  0  0  0
 20 89  1  0  0  0
 20 90  1  0  0  0
 21 22  1  0  0  0
 21 91  1  0  0  0
 21 92  1  0  0  0
 22 23  1  0  0  0
 22 93  1  0  0  0
 23 24  2  0  0  0
 23 25  1  0  0  0
 24 94  1  0  0  0
 24143  1  0  0  0
 25 95  1  0  0  0
 25 96  1  0  0  0
 26 27  1  0  0  0
 26 97  1  0  0  0
 27 28  1  0  0  0
 27 33  1  0  0  0
 27 98  1  0  0  0
 28 29  1  0  0  0
 28 99  1  0  0  0
 28100  1  0  0  0
 29 30  1  0  0  0
 29101  1  0  0  0
 29102  1  0  0  0
 30 31  1  0  0  0
 30103  1  0  0  0
 30104  1  0  0  0
 31 32  1  0  0  0
 31105  1  0  0  0
 31106  1  0  0  0
 32 35  1  0  0  0
 32 36  1  0  0  0
 32 37  1  0  0  0
 33 34  2  0  0  0
 33 38  1  0  0  0
 35107  1  0  0  0
 35108  1  0  0  0
 35109  1  0  0  0
 36110  1  0  0  0
 36111  1  0  0  0
 36112  1  0  0  0
 37113  1  0  0  0
 37114  1  0  0  0
 37115  1  0  0  0
 38 39  1  0  0  0
 38116  1  0  0  0
 39 40  1  0  0  0
 39 42  1  0  0  0
 39117  1  0  0  0
 40 41  2  0  0  0
 40 49  1  0  0  0
 42 43  1  0  0  0
 42118  1  0  0  0
 42119  1  0  0  0
 43 44  2  0  0  0
 43 45  1  0  0  0
 44 46  1  0  0  0
 44120  1  0  0  0
 45 47  2  0  0  0
 45121  1  0  0  0
 46 48  2  0  0  0
 46122  1  0  0  0
 47 48  1  0  0  0
 47123  1  0  0  0
 48124  1  0  0  0
 49 50  1  0  0  0
 49125  1  0  0  0
 50 51  1  0  0  0
 50 53  1  0  0  0
 50126  1  0  0  0
 51 52  2  0  0  0
 51 54  1  0  0  0
 53127  1  0  0  0
 53128  1  0  0  0
 53129  1  0  0  0
 54 55  1  0  0  0
 54130  1  0  0  0
 55 56  1  0  0  0
 55 58  1  0  0  0
 55131  1  0  0  0
 56 57  2  0  0  0
 56 63  1  0  0  0
 58 59  1  0  0  0
 58132  1  0  0  0
 58133  1  0  0  0
 59 60  1  0  0  0
 59134  1  0  0  0
 59135  1  0  0  0
 60 61  2  0  0  0
 60 62  1  0  0  0
 62136  1  0  0  0
 62137  1  0  0  0
 63 64  1  0  0  0
 63138  1  0  0  0
 64 65  1  0  0  0
 64 67  1  0  0  0
 64139  1  0  0  0
 65 66  1  0  0  0
 65 69  2  0  0  0
 67 68  1  0  0  0
 67140  1  0  0  0
 67141  1  0  0  0
 68142  1  0  0  0
M  CHG  4   1   1  24   1  32   1  66  -1
M  END
> <s_m_source_file>
../4x3e_ligand.sdf

> <i_m_source_file_index>
1

> <s_epik_input>
W05IMytdW0NAQEhdKFtDSDNdKUMoPU8pW05IXVtDQEBIXShbQ0gyXVtDSDJdQyg9TylbTkgyXSlDKD1PKVtOSF1bQ0BASF0oW0NIMl1bQ0gyXVtDSDJdW05IXS9DKD1OXFtIXSlbTkgyXSlDKD1PKVtOSF1bQ0BASF0oW0NIMl1bQ0gyXVtDSDJdW0NIMl1bTitdKFtDSDNdKShbQ0gzXSlbQ0gzXSlDKD1PKVtOSF1bQ0BASF0oW0NIMl1jMVtjSF1bY0hdW2NIXVtjSF1bY0hdMSlDKD1PKVtOSF1bQ0BASF0oW0NIM10pQyg9TylbTkhdW0NAQEhdKFtDSDJdW0NIMl1DKD1PKVtOSDJdKUMoPU8pW05IXVtDQEhdKEMoPU8pW09IXSlbQ0gyXVtPSF0=

> <s_epik_cmdline>
J2VwaWtfYXBwJywgJy1pbWFlJywgJ2xpZ2FuZF9wcm8ubWFlJywgJy1vbWFlJywgJ2xpZ2FuZF9wcmVwLm1hZScsICctbXMnLCAnMScsICctcGgnLCAnNycsICctcGh0JywgJzAuNScsICctbnQn

> <r_epik_Ionization_Penalty>
  0.1283

> <r_epik_Ionization_Penalty_Charging>
  0.1283

> <r_epik_Ionization_Penalty_Neutral>
  0.0000

> <r_epik_State_Penalty>
  0.1176

> <r_epik_Charging_Adjusted_Penalty>
0.245869307085592

> <i_epik_Tot_Q>
2

> <i_epik_Tot_abs_Q>
4

> <s_epik_Chemistry_Notes>
This compound has an imine and may undergo hydrolysis.

$$$$
