4x3r_ligand
                    3D
 Schrodinger Suite 2020-3.
 88 91  0  0  1  0            999 V2000
   32.7370    9.4930   33.7220 C   0  0  0  0  0  0
   31.4920    9.1140   34.2100 C   0  0  0  0  0  0
   30.3550    9.9140   34.0050 C   0  0  0  0  0  0
   32.8360   10.6950   33.0280 C   0  0  0  0  0  0
   31.7050   11.5020   32.8230 C   0  0  0  0  0  0
   30.4450   11.1170   33.2990 C   0  0  0  0  0  0
   29.3080   11.9590   33.1150 N   0  0  0  0  0  0
   27.9470   11.3950   33.1300 C   0  0  0  0  0  0
   26.8730   12.3430   32.5660 C   0  0  0  0  0  0
   29.5860   13.4000   33.0320 C   0  0  0  0  0  0
   28.4960   14.1700   32.2910 C   0  0  0  0  0  0
   27.2340   13.7230   32.8580 N   0  0  0  0  0  0
   26.4030   14.5690   33.6480 C   0  0  0  0  0  0
   25.4180   13.9840   34.4230 C   0  0  0  0  0  0
   24.5790   14.7480   35.2250 C   0  0  0  0  0  0
   26.5290   15.9410   33.6920 N   0  0  0  0  0  0
   25.7090   16.7220   34.4540 C   0  0  0  0  0  0
   24.7090   16.1430   35.2510 C   0  0  0  0  0  0
   23.7640   16.9610   36.1000 C   0  0  0  0  0  0
   22.5510   17.0200   35.8400 O   0  0  0  0  0  0
   24.1870   17.6370   37.1560 N   0  0  0  0  0  0
   25.5660   17.6550   37.6070 C   0  0  0  0  0  0
   25.9270   16.2640   38.0300 C   0  0  0  0  0  0
   26.8020   15.5110   37.2300 C   0  0  0  0  0  0
   27.1750   14.2180   37.5990 C   0  0  0  0  0  0
   26.6550   13.6760   38.7760 C   0  0  0  0  0  0
   27.1610   11.9150   39.2870 Br  0  0  0  0  0  0
   25.7810   14.4280   39.5740 C   0  0  0  0  0  0
   25.4250   15.7360   39.2110 C   0  0  0  0  0  0
   23.2170   18.3870   37.9490 C   0  0  0  0  0  0
   23.1480   19.8110   37.4130 C   0  0  0  0  0  0
   22.2980   19.9720   36.1300 C   0  0  0  0  0  0
   20.8400   19.6050   36.3410 C   0  0  0  0  0  0
   19.8980   20.1860   35.2670 C   0  0  1  0  0  0
   20.1570   19.5350   33.9340 C   0  0  0  0  0  0
   20.7890   20.0560   33.0350 O   0  0  0  0  0  0
   19.6610   18.3320   33.7150 O   0  5  0  0  0  0
   18.5560   19.9060   35.7030 N   0  0  0  0  0  0
   17.8660   20.6550   36.5700 C   0  0  0  0  0  0
   18.3160   21.6920   37.0770 O   0  0  0  0  0  0
   16.6550   20.2110   36.8950 N   0  0  0  0  0  0
   16.0220   20.7060   38.0820 C   0  0  2  0  0  0
   16.9790   20.5180   39.2330 C   0  0  0  0  0  0
   17.8590   19.6200   39.2930 O   0  0  0  0  0  0
   16.8210   21.3640   40.2250 O   0  5  0  0  0  0
   14.7300   20.0120   38.5180 C   0  0  0  0  0  0
   14.9300   18.5170   38.6140 C   0  0  0  0  0  0
   13.7810   17.7690   39.2700 C   0  0  0  0  0  0
   12.8960   18.2860   39.9840 O   0  0  0  0  0  0
   13.7170   16.4520   39.0560 O   0  5  0  0  0  0
   33.6136    8.8645   33.8790 H   0  0  0  0  0  0
   31.3958    8.1790   34.7619 H   0  0  0  0  0  0
   29.3917    9.5927   34.4011 H   0  0  0  0  0  0
   33.8029   11.0141   32.6388 H   0  0  0  0  0  0
   31.8094   12.4439   32.2844 H   0  0  0  0  0  0
   27.9234   10.4781   32.5228 H   0  0  0  0  0  0
   27.6601   11.1569   34.1649 H   0  0  0  0  0  0
   26.8002   12.2079   31.4768 H   0  0  0  0  0  0
   25.9020   12.1143   33.0296 H   0  0  0  0  0  0
   29.6623   13.8177   34.0467 H   0  0  0  0  0  0
   30.5338   13.5604   32.4973 H   0  0  0  0  0  0
   28.6407   15.2496   32.4447 H   0  0  0  0  0  0
   28.5519   13.9419   31.2164 H   0  0  0  0  0  0
   25.2974   12.9009   34.4042 H   0  0  0  0  0  0
   23.8182   14.2612   35.8351 H   0  0  0  0  0  0
   25.8318   17.8050   34.4436 H   0  0  0  0  0  0
   26.2167   17.9848   36.7837 H   0  0  0  0  0  0
   25.6658   18.3497   38.4540 H   0  0  0  0  0  0
   27.1947   15.9421   36.3091 H   0  0  0  0  0  0
   27.8608   13.6408   36.9788 H   0  0  0  0  0  0
   25.3737   13.9919   40.4862 H   0  0  0  0  0  0
   24.7653   16.3272   39.8460 H   0  0  0  0  0  0
   22.2297   17.9086   37.8690 H   0  0  0  0  0  0
   23.5347   18.3983   39.0021 H   0  0  0  0  0  0
   22.7049   20.4686   38.1754 H   0  0  0  0  0  0
   24.1623   20.1614   37.1713 H   0  0  0  0  0  0
   22.3360   21.0187   35.7940 H   0  0  0  0  0  0
   22.6982   19.3188   35.3406 H   0  0  0  0  0  0
   20.7304   18.5107   36.3181 H   0  0  0  0  0  0
   20.5031   19.9869   37.3160 H   0  0  0  0  0  0
   19.9994   21.2739   35.1396 H   0  0  0  0  0  0
   18.0259   19.0221   35.3185 H   0  0  0  0  0  0
   16.1394   19.4720   36.2640 H   0  0  0  0  0  0
   15.7982   21.7402   37.7816 H   0  0  0  0  0  0
   14.4238   20.3928   39.5035 H   0  0  0  0  0  0
   13.9375   20.2173   37.7832 H   0  0  0  0  0  0
   15.0500   18.0976   37.6042 H   0  0  0  0  0  0
   15.8309   18.3050   39.2085 H   0  0  0  0  0  0
  1  2  2  0  0  0
  1  4  1  0  0  0
  1 51  1  0  0  0
  2  3  1  0  0  0
  2 52  1  0  0  0
  3  6  2  0  0  0
  3 53  1  0  0  0
  4  5  2  0  0  0
  4 54  1  0  0  0
  5  6  1  0  0  0
  5 55  1  0  0  0
  6  7  1  0  0  0
  7  8  1  0  0  0
  7 10  1  0  0  0
  8  9  1  0  0  0
  8 56  1  0  0  0
  8 57  1  0  0  0
  9 12  1  0  0  0
  9 58  1  0  0  0
  9 59  1  0  0  0
 10 11  1  0  0  0
 10 60  1  0  0  0
 10 61  1  0  0  0
 11 12  1  0  0  0
 11 62  1  0  0  0
 11 63  1  0  0  0
 12 13  1  0  0  0
 13 14  2  0  0  0
 13 16  1  0  0  0
 14 15  1  0  0  0
 14 64  1  0  0  0
 15 18  2  0  0  0
 15 65  1  0  0  0
 16 17  2  0  0  0
 17 18  1  0  0  0
 17 66  1  0  0  0
 18 19  1  0  0  0
 19 20  2  0  0  0
 19 21  1  0  0  0
 21 22  1  0  0  0
 21 30  1  0  0  0
 22 23  1  0  0  0
 22 67  1  0  0  0
 22 68  1  0  0  0
 23 24  2  0  0  0
 23 29  1  0  0  0
 24 25  1  0  0  0
 24 69  1  0  0  0
 25 26  2  0  0  0
 25 70  1  0  0  0
 26 27  1  0  0  0
 26 28  1  0  0  0
 28 29  2  0  0  0
 28 71  1  0  0  0
 29 72  1  0  0  0
 30 31  1  0  0  0
 30 73  1  0  0  0
 30 74  1  0  0  0
 31 32  1  0  0  0
 31 75  1  0  0  0
 31 76  1  0  0  0
 32 33  1  0  0  0
 32 77  1  0  0  0
 32 78  1  0  0  0
 33 34  1  0  0  0
 33 79  1  0  0  0
 33 80  1  0  0  0
 34 35  1  0  0  0
 34 38  1  0  0  0
 34 81  1  0  0  0
 35 36  2  0  0  0
 35 37  1  0  0  0
 38 39  1  0  0  0
 38 82  1  0  0  0
 39 40  2  0  0  0
 39 41  1  0  0  0
 41 42  1  0  0  0
 41 83  1  0  0  0
 42 43  1  0  0  0
 42 46  1  0  0  0
 42 84  1  0  0  0
 43 44  2  0  0  0
 43 45  1  0  0  0
 46 47  1  0  0  0
 46 85  1  0  0  0
 46 86  1  0  0  0
 47 48  1  0  0  0
 47 87  1  0  0  0
 47 88  1  0  0  0
 48 49  2  0  0  0
 48 50  1  0  0  0
M  CHG  3  37  -1  45  -1  50  -1
M  END
> <s_m_source_file>
../4x3r_ligand.sdf

> <i_m_source_file_index>
1

> <s_epik_input>
W2NIXTFbY0hdW2NIXVtjSF1bY0hdYzFOMltDSDJdW0NIMl1OKFtDSDJdW0NIMl0yKWMzW2NIXVtjSF1jKFtjSF1uMylDKD1PKU4oW0NIMl1jNFtjSF1bY0hdYyhCcilbY0hdW2NIXTQpW0NIMl1bQ0gyXVtDSDJdW0NIMl1bQ0BASF0oQyg9TylbT0hdKVtOSF1DKD1PKVtOSF1bQ0BIXShDKD1PKVtPSF0pW0NIMl1bQ0gyXUMoPU8pW09IXQ==

> <s_epik_cmdline>
J2VwaWtfYXBwJywgJy1pbWFlJywgJ2xpZ2FuZF9wcm8ubWFlJywgJy1vbWFlJywgJ2xpZ2FuZF9wcmVwLm1hZScsICctbXMnLCAnMScsICctcGgnLCAnNycsICctcGh0JywgJzAuNScsICctbnQn

> <r_lp_tautomer_probability>
1

> <r_epik_Ionization_Penalty>
  0.0124

> <r_epik_Ionization_Penalty_Charging>
  0.0076

> <r_epik_Ionization_Penalty_Neutral>
  0.0047

> <r_epik_State_Penalty>
 -0.0000

> <r_epik_Charging_Adjusted_Penalty>
0.00764616569575593

> <i_epik_Tot_Q>
-3

> <i_epik_Tot_abs_Q>
3

$$$$
