4x47_ligand
                    3D
 Schrodinger Suite 2020-3.
 36 36  0  0  1  0            999 V2000
   -9.2150   41.3280  -18.2110 C   0  0  0  0  0  0
   -9.7940   41.3520  -16.8620 C   0  0  0  0  0  0
  -10.8770   40.6580  -16.5140 C   0  0  0  0  0  0
  -11.4220   40.7570  -15.1310 C   0  0  1  0  0  0
  -11.0240   42.0640  -14.4670 C   0  0  2  0  0  0
   -9.5170   42.3580  -14.5910 C   0  0  2  0  0  0
   -9.2660   43.8380  -14.1960 C   0  0  1  0  0  0
   -7.9970   44.6100  -14.4400 C   0  0  1  0  0  0
   -7.1230   44.7990  -13.1800 C   0  0  0  0  0  0
  -12.0160   43.0370  -12.4510 C   0  0  0  0  0  0
  -12.3100   42.8150  -11.0080 C   0  0  0  0  0  0
  -11.4200   42.0380  -13.0670 N   0  0  0  0  0  0
   -9.9050   40.8690  -19.2060 O   0  5  0  0  0  0
   -8.0240   41.7640  -18.2660 O   0  0  0  0  0  0
  -12.8440   40.6110  -15.1550 O   0  0  0  0  0  0
   -9.1540   42.2450  -15.9490 O   0  0  0  0  0  0
  -10.0790   44.5960  -15.0870 O   0  0  0  0  0  0
   -7.3390   44.0440  -15.6130 O   0  0  0  0  0  0
   -7.5650   45.7810  -12.1810 O   0  0  0  0  0  0
  -12.2790   44.0660  -13.0200 O   0  0  0  0  0  0
  -11.3734   40.0078  -17.2494 H   0  0  0  0  0  0
  -11.0407   39.9116  -14.5395 H   0  0  0  0  0  0
  -11.5839   42.8799  -14.9476 H   0  0  0  0  0  0
   -8.9139   41.6333  -14.0244 H   0  0  0  0  0  0
   -9.4120   43.8024  -13.1063 H   0  0  0  0  0  0
   -8.2333   45.6423  -14.7374 H   0  0  0  0  0  0
   -7.0537   43.8457  -12.6355 H   0  0  0  0  0  0
   -6.1156   45.1251  -13.4780 H   0  0  0  0  0  0
  -11.9811   41.8062  -10.7178 H   0  0  0  0  0  0
  -13.3920   42.9118  -10.8352 H   0  0  0  0  0  0
  -11.7740   43.5630  -10.4053 H   0  0  0  0  0  0
  -11.2243   41.1441  -12.4566 H   0  0  0  0  0  0
  -13.2974   39.7148  -15.6037 H   0  0  0  0  0  0
  -11.1422   44.3428  -15.2117 H   0  0  0  0  0  0
   -7.9089   43.8854  -16.5404 H   0  0  0  0  0  0
   -6.9703   45.9448  -11.2702 H   0  0  0  0  0  0
  1  2  1  0  0  0
  1 13  1  0  0  0
  1 14  2  0  0  0
  2  3  2  0  0  0
  2 16  1  0  0  0
  3  4  1  0  0  0
  3 21  1  0  0  0
  4  5  1  0  0  0
  4 15  1  0  0  0
  4 22  1  0  0  0
  5  6  1  0  0  0
  5 12  1  0  0  0
  5 23  1  0  0  0
  6  7  1  0  0  0
  6 16  1  0  0  0
  6 24  1  0  0  0
  7  8  1  0  0  0
  7 17  1  0  0  0
  7 25  1  0  0  0
  8  9  1  0  0  0
  8 18  1  0  0  0
  8 26  1  0  0  0
  9 19  1  0  0  0
  9 27  1  0  0  0
  9 28  1  0  0  0
 10 11  1  0  0  0
 10 12  1  0  0  0
 10 20  2  0  0  0
 11 29  1  0  0  0
 11 30  1  0  0  0
 11 31  1  0  0  0
 12 32  1  0  0  0
 15 33  1  0  0  0
 17 34  1  0  0  0
 18 35  1  0  0  0
 19 36  1  0  0  0
M  CHG  1  13  -1
M  END
> <s_m_source_file>
../4x47_ligand.sdf

> <i_m_source_file_index>
1

> <s_epik_input>
W09IXUMoPU8pQzE9W0NIXVtDQEhdKFtPSF0pW0NAQEhdKFtOSF1DKD1PKVtDSDNdKVtDQEBIXShPMSlbQ0BIXShbT0hdKVtDQEhdKFtPSF0pW0NIMl1bT0hd

> <s_epik_cmdline>
J2VwaWtfYXBwJywgJy1pbWFlJywgJ2xpZ2FuZF9wcm8ubWFlJywgJy1vbWFlJywgJ2xpZ2FuZF9wcmVwLm1hZScsICctbXMnLCAnMScsICctcGgnLCAnNycsICctcGh0JywgJzAuNScsICctbnQn

> <r_lp_tautomer_probability>
1

> <r_epik_Ionization_Penalty>
  0.0004

> <r_epik_Ionization_Penalty_Charging>
  0.0004

> <r_epik_Ionization_Penalty_Neutral>
  0.0000

> <r_epik_State_Penalty>
 -0.0000

> <r_epik_Charging_Adjusted_Penalty>
0.000352443490958098

> <i_epik_Tot_Q>
-1

> <i_epik_Tot_abs_Q>
1

$$$$
