4x48_ligand
                    3D
 Schrodinger Suite 2020-3.
 46 48  0  0  1  0            999 V2000
   62.4370   23.9610   42.5070 C   0  0  0  0  0  0
   61.1670   26.0610   42.5240 C   0  0  0  0  0  0
   63.5530   26.1200   42.4890 C   0  0  0  0  0  0
   61.1220   27.4420   42.5320 C   0  0  0  0  0  0
   62.8070   20.3110   41.1450 C   0  0  0  0  0  0
   62.3580   21.7130   43.1470 C   0  0  0  0  0  0
   63.5160   27.4980   42.4920 C   0  0  0  0  0  0
   62.2450   23.0740   43.5380 C   0  0  0  0  0  0
   62.6490   21.5540   41.8110 C   0  0  0  0  0  0
   62.3800   25.3980   42.5030 C   0  0  0  0  0  0
   62.3070   28.1540   42.5020 C   0  0  0  0  0  0
   61.3500   32.2770   43.1700 C   0  0  0  0  0  0
   61.6210   31.2420   41.1110 C   0  0  0  0  0  0
   60.6110   30.9590   43.2050 C   0  0  1  0  0  0
   61.1810   30.1620   42.0600 C   0  0  2  0  0  0
   59.6670   32.2580   46.5280 C   0  0  0  0  0  0
   57.4220   31.1760   46.2780 C   0  0  0  0  0  0
   58.7830   31.3940   45.6660 C   0  0  0  0  0  0
   62.9240   19.2880   40.6060 N   0  0  0  0  0  0
   60.9020   30.2980   44.4890 N   0  0  3  0  0  0
   59.9620   29.2560   46.6660 O   0  0  0  0  0  0
   58.6800   29.0460   44.5510 O   0  0  0  0  0  0
   61.9210   32.4180   41.8690 O   0  0  0  0  0  0
   62.3810   29.5330   42.5130 O   0  0  0  0  0  0
   62.7950   23.0950   41.0710 S   0  0  0  0  0  0
   59.5510   29.8240   45.3990 S   0  0  0  0  0  0
   60.2387   25.4898   42.5343 H   0  0  0  0  0  0
   64.5115   25.6012   42.4755 H   0  0  0  0  0  0
   60.1651   27.9632   42.5616 H   0  0  0  0  0  0
   62.2274   20.8784   43.8358 H   0  0  0  0  0  0
   64.4451   28.0680   42.4864 H   0  0  0  0  0  0
   62.0266   23.3850   44.5596 H   0  0  0  0  0  0
   60.6456   33.0978   43.3703 H   0  0  0  0  0  0
   62.1389   32.2756   43.9366 H   0  0  0  0  0  0
   62.5161   30.9085   40.5655 H   0  0  0  0  0  0
   60.8128   31.4528   40.3952 H   0  0  0  0  0  0
   59.5175   31.0547   43.1339 H   0  0  0  0  0  0
   60.5150   29.3853   41.6561 H   0  0  0  0  0  0
   59.1825   33.2323   46.6893 H   0  0  0  0  0  0
   60.6344   32.4082   46.0264 H   0  0  0  0  0  0
   59.8294   31.7642   47.4974 H   0  0  0  0  0  0
   56.9363   32.1483   46.4478 H   0  0  0  0  0  0
   57.5315   30.6483   47.2370 H   0  0  0  0  0  0
   56.8056   30.5724   45.5956 H   0  0  0  0  0  0
   58.5762   32.0507   44.8081 H   0  0  0  0  0  0
   61.9308   29.9917   44.7292 H   0  0  0  0  0  0
  1  8  2  0  0  0
  1 10  1  0  0  0
  1 25  1  0  0  0
  2  4  2  0  0  0
  2 10  1  0  0  0
  2 27  1  0  0  0
  3  7  1  0  0  0
  3 10  2  0  0  0
  3 28  1  0  0  0
  4 11  1  0  0  0
  4 29  1  0  0  0
  5  9  1  0  0  0
  5 19  3  0  0  0
  6  8  1  0  0  0
  6  9  2  0  0  0
  6 30  1  0  0  0
  7 11  2  0  0  0
  7 31  1  0  0  0
  8 32  1  0  0  0
  9 25  1  0  0  0
 11 24  1  0  0  0
 12 14  1  0  0  0
 12 23  1  0  0  0
 12 33  1  0  0  0
 12 34  1  0  0  0
 13 15  1  0  0  0
 13 23  1  0  0  0
 13 35  1  0  0  0
 13 36  1  0  0  0
 14 15  1  0  0  0
 14 20  1  0  0  0
 14 37  1  0  0  0
 15 24  1  0  0  0
 15 38  1  0  0  0
 16 18  1  0  0  0
 16 39  1  0  0  0
 16 40  1  0  0  0
 16 41  1  0  0  0
 17 18  1  0  0  0
 17 42  1  0  0  0
 17 43  1  0  0  0
 17 44  1  0  0  0
 18 26  1  0  0  0
 18 45  1  0  0  0
 20 26  1  0  0  0
 20 46  1  0  0  0
 21 26  2  0  0  0
 22 26  2  0  0  0
M  END
> <s_m_source_file>
../4x48_ligand.sdf

> <i_m_source_file_index>
1

> <s_epik_input>
TiNDYyhzMSlbY0hdW2NIXWMxLWMyW2NIXVtjSF1jKFtjSF1bY0hdMilPW0NAQEhdM1tDSDJdT1tDSDJdW0NAQEhdM1tOSF1TKD1PKSg9TylbQ0hdKFtDSDNdKVtDSDNd

> <s_epik_cmdline>
J2VwaWtfYXBwJywgJy1pbWFlJywgJ2xpZ2FuZF9wcm8ubWFlJywgJy1vbWFlJywgJ2xpZ2FuZF9wcmVwLm1hZScsICctbXMnLCAnMScsICctcGgnLCAnNycsICctcGh0JywgJzAuNScsICctbnQn

> <r_lp_tautomer_probability>
1

> <r_epik_Ionization_Penalty>
  0.0001

> <r_epik_Ionization_Penalty_Charging>
  0.0000

> <r_epik_Ionization_Penalty_Neutral>
  0.0001

> <r_epik_State_Penalty>
 -0.0000

> <r_epik_Charging_Adjusted_Penalty>
0

> <i_epik_Tot_Q>
0

> <i_epik_Tot_abs_Q>
0

$$$$
