4x49_ligand
                    3D
 Schrodinger Suite 2020-3.
 44 44  0  0  1  0            999 V2000
  -31.5460   86.6280   19.5190 C   0  0  0  0  0  0
  -32.2860   85.6360   19.7390 O   0  0  0  0  0  0
  -30.8050   87.1290   20.4230 O   0  5  0  0  0  0
  -31.4630   87.1780   18.1680 C   0  0  0  0  0  0
  -30.1940   87.8890   17.7710 C   0  0  0  0  0  0
  -30.0860   88.1990   16.3050 C   0  0  1  0  0  0
  -31.4400   88.6620   15.7770 C   0  0  1  0  0  0
  -31.3520   88.9680   14.3750 N   0  0  0  0  0  0
  -31.5420   90.1670   13.7950 C   0  0  0  0  0  0
  -31.8380   91.1710   14.4170 O   0  0  0  0  0  0
  -31.3340   90.1890   12.3070 C   0  0  0  0  0  0
  -32.5300   87.6090   15.9580 C   0  0  1  0  0  0
  -32.5070   87.0940   17.3520 C   0  0  0  0  0  0
  -33.7750   88.2570   15.7440 O   0  0  0  0  0  0
  -34.8880   87.5320   15.1780 C   0  0  0  0  0  0
  -36.1990   87.9270   15.8740 C   0  0  0  0  0  0
  -35.2810   87.7980   13.7200 C   0  0  0  0  0  0
  -34.1290   88.1100   12.8460 C   0  0  0  0  0  0
  -36.2890   87.4980   17.3180 C   0  0  0  0  0  0
  -29.0900   89.2650   16.1830 N   0  3  0  0  0  0
  -30.1280   88.8477   18.3063 H   0  0  0  0  0  0
  -29.3269   87.2638   18.0304 H   0  0  0  0  0  0
  -29.7530   87.3278   15.7218 H   0  0  0  0  0  0
  -31.7092   89.5875   16.3071 H   0  0  0  0  0  0
  -31.1060   88.1751   13.6534 H   0  0  0  0  0  0
  -31.0756   89.1784   11.9579 H   0  0  0  0  0  0
  -30.5159   90.8821   12.0614 H   0  0  0  0  0  0
  -32.2582   90.5226   11.8125 H   0  0  0  0  0  0
  -32.4367   86.7707   15.2519 H   0  0  0  0  0  0
  -33.4368   86.6171   17.6957 H   0  0  0  0  0  0
  -34.4601   86.5286   15.3199 H   0  0  0  0  0  0
  -36.3084   89.0214   15.8560 H   0  0  0  0  0  0
  -37.0472   87.4651   15.3476 H   0  0  0  0  0  0
  -35.7771   86.9079   13.3057 H   0  0  0  0  0  0
  -35.9692   88.6550   13.6762 H   0  0  0  0  0  0
  -34.4846   88.2884   11.8205 H   0  0  0  0  0  0
  -33.4269   87.2632   12.8486 H   0  0  0  0  0  0
  -33.6190   89.0104   13.2191 H   0  0  0  0  0  0
  -37.2541   87.8195   17.7365 H   0  0  0  0  0  0
  -35.4698   87.9591   17.8892 H   0  0  0  0  0  0
  -36.2087   86.4027   17.3808 H   0  0  0  0  0  0
  -28.1233   88.9095   16.5690 H   0  0  0  0  0  0
  -29.4170   90.1404   16.7632 H   0  0  0  0  0  0
  -28.9814   89.5460   15.1251 H   0  0  0  0  0  0
  1  2  2  0  0  0
  1  3  1  0  0  0
  1  4  1  0  0  0
  4  5  1  0  0  0
  4 13  2  0  0  0
  5  6  1  0  0  0
  5 21  1  0  0  0
  5 22  1  0  0  0
  6  7  1  0  0  0
  6 20  1  0  0  0
  6 23  1  0  0  0
  7  8  1  0  0  0
  7 12  1  0  0  0
  7 24  1  0  0  0
  8  9  1  0  0  0
  8 25  1  0  0  0
  9 10  2  0  0  0
  9 11  1  0  0  0
 11 26  1  0  0  0
 11 27  1  0  0  0
 11 28  1  0  0  0
 12 13  1  0  0  0
 12 14  1  0  0  0
 12 29  1  0  0  0
 13 30  1  0  0  0
 14 15  1  0  0  0
 15 16  1  0  0  0
 15 17  1  0  0  0
 15 31  1  0  0  0
 16 19  1  0  0  0
 16 32  1  0  0  0
 16 33  1  0  0  0
 17 18  1  0  0  0
 17 34  1  0  0  0
 17 35  1  0  0  0
 18 36  1  0  0  0
 18 37  1  0  0  0
 18 38  1  0  0  0
 19 39  1  0  0  0
 19 40  1  0  0  0
 19 41  1  0  0  0
 20 42  1  0  0  0
 20 43  1  0  0  0
 20 44  1  0  0  0
M  CHG  2   3  -1  20   1
M  END
> <s_m_source_file>
../4x49_ligand.sdf

> <i_m_source_file_index>
1

> <s_epik_input>
Tz1DKFtPSF0pQzE9W0NIXVtDQEhdKFtDQEBIXShbQ0BIXShbQ0gyXTEpW05IMytdKVtOSF1DKD1PKVtDSDNdKU9bQ0hdKFtDSDJdW0NIM10pW0NIMl1bQ0gzXQ==

> <s_epik_cmdline>
J2VwaWtfYXBwJywgJy1pbWFlJywgJ2xpZ2FuZF9wcm8ubWFlJywgJy1vbWFlJywgJ2xpZ2FuZF9wcmVwLm1hZScsICctbXMnLCAnMScsICctcGgnLCAnNycsICctcGh0JywgJzAuNScsICctbnQn

> <r_lp_tautomer_probability>
1

> <r_epik_Ionization_Penalty>
  0.0028

> <r_epik_Ionization_Penalty_Charging>
  0.0028

> <r_epik_Ionization_Penalty_Neutral>
  0.0000

> <r_epik_State_Penalty>
 -0.0000

> <r_epik_Charging_Adjusted_Penalty>
0.00284468522204639

> <i_epik_Tot_Q>
0

> <i_epik_Tot_abs_Q>
2

$$$$
