4x5p_ligand
                    3D
 Schrodinger Suite 2020-3.
 50 52  0  0  1  0            999 V2000
  -15.1180   50.4970  -13.3420 O   0  0  0  0  0  0
   -6.7080   46.7120  -11.1040 C   0  0  0  0  0  0
   -5.4240   46.4830  -10.6460 C   0  0  0  0  0  0
   -2.7290   49.0840   -9.0670 O   0  0  0  0  0  0
   -9.4770   47.4900  -12.1610 C   0  0  0  0  0  0
  -10.7380   48.1140  -12.6070 C   0  0  0  0  0  0
  -11.4350   47.4510  -13.6330 C   0  0  0  0  0  0
  -12.6870   47.8930  -14.0330 C   0  0  0  0  0  0
   -2.1810   47.2590   -5.9550 O   0  0  0  0  0  0
  -13.2550   48.9940  -13.4240 C   0  0  0  0  0  0
   -0.0900   46.2640   -7.5790 O   0  0  0  0  0  0
  -12.5570   49.6660  -12.4060 C   0  0  0  0  0  0
  -11.2970   49.2380  -12.0070 C   0  0  0  0  0  0
  -14.6370   49.4830  -13.8970 C   0  0  0  0  0  0
   -0.0020   48.3960   -9.4240 O   0  0  0  0  0  0
   -2.2840   48.1090   -9.9560 C   0  0  2  0  0  0
   -2.6560   50.7080   -6.8170 O   0  0  0  0  0  0
   -3.0610   48.5350   -7.7870 C   0  0  1  0  0  0
  -15.1770   48.8320  -14.8210 O   0  5  0  0  0  0
   -9.3900   46.3470  -11.9760 O   0  0  0  0  0  0
   -8.3500   48.2980  -12.0300 N   0  0  0  0  0  0
   -7.0420   47.9790  -11.6170 C   0  0  0  0  0  0
   -6.0730   48.9560  -11.6470 C   0  0  0  0  0  0
   -4.8130   48.7120  -11.1860 C   0  0  0  0  0  0
   -5.0090   44.9220  -10.0830 Cl  0  0  0  0  0  0
   -4.4700   47.4700  -10.6730 C   0  0  0  0  0  0
   -3.2130   47.1260  -10.2170 O   0  0  0  0  0  0
   -1.0440   47.4500   -9.4520 C   0  0  2  0  0  0
   -1.2390   46.8460   -8.1130 C   0  0  2  0  0  0
   -1.8690   47.8320   -7.1810 C   0  0  2  0  0  0
   -3.6190   49.6710   -6.9640 C   0  0  0  0  0  0
   -7.4546   45.9187  -11.0681 H   0  0  0  0  0  0
  -10.9876   46.5831  -14.1174 H   0  0  0  0  0  0
  -13.2218   47.3719  -14.8271 H   0  0  0  0  0  0
   -2.6510   47.8666   -5.1676 H   0  0  0  0  0  0
    0.4716   45.5197   -8.1626 H   0  0  0  0  0  0
  -13.0093   50.5328  -11.9241 H   0  0  0  0  0  0
  -10.7521   49.7771  -11.2321 H   0  0  0  0  0  0
    0.2728   48.9389  -10.3404 H   0  0  0  0  0  0
   -2.1724   48.6645  -10.8988 H   0  0  0  0  0  0
   -2.9048   51.6122   -6.2421 H   0  0  0  0  0  0
   -3.8279   47.7554   -7.9053 H   0  0  0  0  0  0
   -8.4111   49.3700  -12.2688 H   0  0  0  0  0  0
   -6.3167   49.9408  -12.0457 H   0  0  0  0  0  0
   -4.0651   49.5041  -11.2212 H   0  0  0  0  0  0
   -0.7305   46.6514  -10.1405 H   0  0  0  0  0  0
   -1.8715   45.9531   -8.2255 H   0  0  0  0  0  0
   -1.1075   48.5778   -6.9092 H   0  0  0  0  0  0
   -3.8983   49.2866   -5.9719 H   0  0  0  0  0  0
   -4.5123   50.0688   -7.4678 H   0  0  0  0  0  0
  1 14  2  0  0  0
  2  3  2  0  0  0
  2 22  1  0  0  0
  2 32  1  0  0  0
  3 25  1  0  0  0
  3 26  1  0  0  0
  4 16  1  0  0  0
  4 18  1  0  0  0
  5  6  1  0  0  0
  5 20  2  0  0  0
  5 21  1  0  0  0
  6  7  2  0  0  0
  6 13  1  0  0  0
  7  8  1  0  0  0
  7 33  1  0  0  0
  8 10  2  0  0  0
  8 34  1  0  0  0
  9 30  1  0  0  0
  9 35  1  0  0  0
 10 12  1  0  0  0
 10 14  1  0  0  0
 11 29  1  0  0  0
 11 36  1  0  0  0
 12 13  2  0  0  0
 12 37  1  0  0  0
 13 38  1  0  0  0
 14 19  1  0  0  0
 15 28  1  0  0  0
 15 39  1  0  0  0
 16 27  1  0  0  0
 16 28  1  0  0  0
 16 40  1  0  0  0
 17 31  1  0  0  0
 17 41  1  0  0  0
 18 30  1  0  0  0
 18 31  1  0  0  0
 18 42  1  0  0  0
 21 22  1  0  0  0
 21 43  1  0  0  0
 22 23  2  0  0  0
 23 24  1  0  0  0
 23 44  1  0  0  0
 24 26  2  0  0  0
 24 45  1  0  0  0
 26 27  1  0  0  0
 28 29  1  0  0  0
 28 46  1  0  0  0
 29 30  1  0  0  0
 29 47  1  0  0  0
 30 48  1  0  0  0
 31 49  1  0  0  0
 31 50  1  0  0  0
M  CHG  1  19  -1
M  END
> <s_m_source_file>
../4x5p_ligand.sdf

> <i_m_source_file_index>
1

> <s_epik_input>
Tz1DKFtPSF0pYyhbY0hdW2NIXTEpW2NIXVtjSF1jMUMoPU8pW05IXWMoW2NIXWMyQ2wpW2NIXVtjSF1jMk9bQ0BIXTNPW0NASF0oW0NIMl1bT0hdKVtDQEBIXShbT0hdKVtDQEhdKFtPSF0pW0NAQEhdM1tPSF0=

> <s_epik_cmdline>
J2VwaWtfYXBwJywgJy1pbWFlJywgJ2xpZ2FuZF9wcm8ubWFlJywgJy1vbWFlJywgJ2xpZ2FuZF9wcmVwLm1hZScsICctbXMnLCAnMScsICctcGgnLCAnNycsICctcGh0JywgJzAuNScsICctbnQn

> <r_lp_tautomer_probability>
1

> <r_epik_Ionization_Penalty>
  0.0003

> <r_epik_Ionization_Penalty_Charging>
  0.0003

> <r_epik_Ionization_Penalty_Neutral>
  0.0000

> <r_epik_State_Penalty>
 -0.0000

> <r_epik_Charging_Adjusted_Penalty>
0.000325505715078075

> <i_epik_Tot_Q>
-1

> <i_epik_Tot_abs_Q>
1

> <s_epik_Chemistry_Notes>
This compound contains an acetal/aminal-like group ( X-CH(R)-Y where X, Y are N, S, or O) that may be acid/base labile, releasing an aldehyde.

$$$$
