4x5q_ligand
                    3D
 Schrodinger Suite 2020-3.
 50 53  0  0  1  0            999 V2000
  -24.1110   -9.7690   -7.6790 O   0  0  0  0  0  0
  -27.1610   -7.5890   -7.9160 C   0  0  1  0  0  0
  -27.7200   -6.4400   -7.1240 C   0  0  0  0  0  0
  -24.1020   -7.6840   -9.5770 O   0  0  0  0  0  0
  -28.5790   -8.9190  -10.6820 C   0  0  0  0  0  0
  -37.4750  -10.6490  -10.0590 N   0  3  0  0  0  0
  -29.0040   -7.7270  -11.1830 C   0  0  0  0  0  0
  -30.3350   -7.6400  -11.6220 C   0  0  0  0  0  0
  -31.1900   -8.7500  -11.5350 C   0  0  0  0  0  0
  -27.2760   -9.1160  -10.2620 O   0  0  0  0  0  0
  -30.7160   -9.9400  -11.0230 C   0  0  0  0  0  0
  -37.5430  -11.0810   -8.9100 O   0  0  0  0  0  0
  -29.4180  -10.0220  -10.6030 C   0  0  0  0  0  0
  -32.9790   -7.9050  -13.0710 C   0  0  0  0  0  0
  -34.3580   -8.0770  -13.2050 C   0  0  0  0  0  0
  -38.4390  -10.5870  -10.8090 O   0  5  0  0  0  0
  -34.7970   -8.9530  -12.1160 C   0  0  0  0  0  0
  -33.6340   -9.2990  -11.3590 C   0  0  0  0  0  0
  -36.1400  -10.1770  -10.5400 C   0  0  0  0  0  0
  -36.0690   -9.4010  -11.7030 C   0  0  0  0  0  0
  -34.9910  -10.5270   -9.7770 C   0  0  0  0  0  0
  -33.7400  -10.0980  -10.1810 C   0  0  0  0  0  0
  -32.5500   -8.6600  -11.9550 N   0  0  0  0  0  0
  -26.4000   -8.0750  -10.0740 C   0  0  1  0  0  0
  -26.8510   -7.0740   -9.2190 O   0  0  0  0  0  0
  -26.7620   -5.3920   -6.9740 O   0  0  0  0  0  0
  -25.9110   -8.2150   -7.2920 C   0  0  1  0  0  0
  -26.2400   -8.8270   -6.0650 O   0  0  0  0  0  0
  -25.3300   -9.2710   -8.2220 C   0  0  1  0  0  0
  -25.1080   -8.6930   -9.6140 C   0  0  2  0  0  0
  -24.0997  -10.2211   -6.6763 H   0  0  0  0  0  0
  -27.9222   -8.3784   -8.0019 H   0  0  0  0  0  0
  -28.6022   -6.0336   -7.6403 H   0  0  0  0  0  0
  -28.0106   -6.7916   -6.1230 H   0  0  0  0  0  0
  -23.8151   -7.1593  -10.5002 H   0  0  0  0  0  0
  -28.3341   -6.8692  -11.2415 H   0  0  0  0  0  0
  -30.7076   -6.7022  -12.0340 H   0  0  0  0  0  0
  -31.3715  -10.8081  -10.9539 H   0  0  0  0  0  0
  -29.0383  -10.9619  -10.2024 H   0  0  0  0  0  0
  -32.3442   -7.2954  -13.7141 H   0  0  0  0  0  0
  -34.9911   -7.6401  -13.9773 H   0  0  0  0  0  0
  -36.9660   -9.1516  -12.2699 H   0  0  0  0  0  0
  -35.0967  -11.1318   -8.8763 H   0  0  0  0  0  0
  -32.8508  -10.3652   -9.6101 H   0  0  0  0  0  0
  -26.3705   -7.5206  -11.0236 H   0  0  0  0  0  0
  -27.0258   -4.4814   -6.4162 H   0  0  0  0  0  0
  -25.1690   -7.4402   -7.0489 H   0  0  0  0  0  0
  -26.6771   -8.2289   -5.2518 H   0  0  0  0  0  0
  -25.9929  -10.1466   -8.2844 H   0  0  0  0  0  0
  -24.7393   -9.4543  -10.3172 H   0  0  0  0  0  0
  1 29  1  0  0  0
  1 31  1  0  0  0
  2  3  1  0  0  0
  2 25  1  0  0  0
  2 27  1  0  0  0
  2 32  1  0  0  0
  3 26  1  0  0  0
  3 33  1  0  0  0
  3 34  1  0  0  0
  4 30  1  0  0  0
  4 35  1  0  0  0
  5  7  2  0  0  0
  5 10  1  0  0  0
  5 13  1  0  0  0
  6 12  2  0  0  0
  6 16  1  0  0  0
  6 19  1  0  0  0
  7  8  1  0  0  0
  7 36  1  0  0  0
  8  9  2  0  0  0
  8 37  1  0  0  0
  9 11  1  0  0  0
  9 23  1  0  0  0
 10 24  1  0  0  0
 11 13  2  0  0  0
 11 38  1  0  0  0
 13 39  1  0  0  0
 14 15  2  0  0  0
 14 23  1  0  0  0
 14 40  1  0  0  0
 15 17  1  0  0  0
 15 41  1  0  0  0
 17 18  2  0  0  0
 17 20  1  0  0  0
 18 22  1  0  0  0
 18 23  1  0  0  0
 19 20  2  0  0  0
 19 21  1  0  0  0
 20 42  1  0  0  0
 21 22  2  0  0  0
 21 43  1  0  0  0
 22 44  1  0  0  0
 24 25  1  0  0  0
 24 30  1  0  0  0
 24 45  1  0  0  0
 26 46  1  0  0  0
 27 28  1  0  0  0
 27 29  1  0  0  0
 27 47  1  0  0  0
 28 48  1  0  0  0
 29 30  1  0  0  0
 29 49  1  0  0  0
 30 50  1  0  0  0
M  CHG  2   6   1  16  -1
M  END
> <s_m_source_file>
../4x5q_ligand.sdf

> <i_m_source_file_index>
1

> <s_epik_input>
W09IXVtDSDJdW0NASF0xT1tDQEBIXShbQ0BASF0oW09IXSlbQ0BASF0oW09IXSlbQ0BASF0xW09IXSlPYzJbY0hdW2NIXWMoW2NIXVtjSF0yKS1uKFtjSF1bY0hdMyljKGMzNClbY0hdW2NIXWMoW04rXSg9TylbTy1dKVtjSF00

> <s_epik_cmdline>
J2VwaWtfYXBwJywgJy1pbWFlJywgJ2xpZ2FuZF9wcm8ubWFlJywgJy1vbWFlJywgJ2xpZ2FuZF9wcmVwLm1hZScsICctbXMnLCAnMScsICctcGgnLCAnNycsICctcGh0JywgJzAuNScsICctbnQn

> <r_lp_tautomer_probability>
1

> <r_epik_Ionization_Penalty>
  0.0000

> <r_epik_Ionization_Penalty_Charging>
  0.0000

> <r_epik_Ionization_Penalty_Neutral>
  0.0000

> <r_epik_State_Penalty>
 -0.0000

> <r_epik_Charging_Adjusted_Penalty>
0

> <i_epik_Tot_Q>
0

> <i_epik_Tot_abs_Q>
2

> <s_epik_Chemistry_Notes>
This compound contains an acetal/aminal-like group ( X-CH(R)-Y where X, Y are N, S, or O) that may be acid/base labile, releasing an aldehyde.

$$$$
