4x5r_ligand
                    3D
 Schrodinger Suite 2020-3.
 60 63  0  0  1  0            999 V2000
   11.7080   14.0570  -14.9790 O   0  0  0  0  0  0
    9.7170   18.4140  -16.1470 C   0  0  0  0  0  0
    9.3980   17.1920  -15.5730 C   0  0  0  0  0  0
   11.1630   13.9260  -11.3500 O   0  0  0  0  0  0
   10.4530   20.8560  -17.7390 C   0  0  0  0  0  0
   11.7140   22.5450  -19.2510 N   0  0  0  0  0  0
   10.7900   22.0870  -18.3770 C   0  0  0  0  0  0
    9.6950   22.8070  -17.6730 C   0  0  0  0  0  0
   14.1550   23.8070  -19.9970 N   0  3  0  0  0  0
    9.3220   21.4820  -16.9940 C   0  0  0  0  0  0
    9.2670   12.0520  -12.2640 O   0  0  0  0  0  0
   12.8400   21.7490  -19.8080 C   0  0  0  0  0  0
   10.5300   11.4200  -14.7460 O   0  0  0  0  0  0
   14.1560   22.4320  -19.5130 C   0  0  0  0  0  0
   13.0430   24.5410  -19.3930 C   0  0  0  0  0  0
   11.7180   23.9140  -19.7680 C   0  0  0  0  0  0
   14.0330   13.6380  -13.4710 O   0  0  0  0  0  0
   15.4690   24.4870  -19.6750 C   0  0  0  0  0  0
   10.4130   13.7300  -15.4390 C   0  0  2  0  0  0
    8.4910   21.1830  -16.2180 O   0  0  0  0  0  0
    9.3210   23.9240  -17.6500 O   0  0  0  0  0  0
   11.0350   19.6070  -17.8250 N   0  0  0  0  0  0
   10.6680   18.4410  -17.1610 C   0  0  0  0  0  0
   11.2820   17.2490  -17.5960 C   0  0  0  0  0  0
   10.9200   16.0290  -16.9910 C   0  0  0  0  0  0
    8.2250   17.1580  -14.3290 Cl  0  0  0  0  0  0
    9.9710   16.0190  -15.9710 C   0  0  0  0  0  0
    9.5640   14.8510  -15.3610 O   0  0  0  0  0  0
    9.7900   12.6380  -14.5780 C   0  0  2  0  0  0
    9.7760   13.0750  -13.1150 C   0  0  2  0  0  0
   11.1840   13.4360  -12.6840 C   0  0  1  0  0  0
   11.7660   14.4990  -13.6080 C   0  0  1  0  0  0
   13.2160   14.7910  -13.2910 C   0  0  0  0  0  0
    9.2335   19.3313  -15.8110 H   0  0  0  0  0  0
   10.7739   13.2941  -10.5380 H   0  0  0  0  0  0
   13.9983   23.7769  -21.0854 H   0  0  0  0  0  0
    8.2524   11.6581  -12.4236 H   0  0  0  0  0  0
   12.8427   20.7483  -19.3514 H   0  0  0  0  0  0
   12.7188   21.6547  -20.8972 H   0  0  0  0  0  0
   10.6335   10.9728  -15.7456 H   0  0  0  0  0  0
   14.9621   21.8699  -20.0072 H   0  0  0  0  0  0
   14.3187   22.4263  -18.4251 H   0  0  0  0  0  0
   13.1452   24.5253  -18.2979 H   0  0  0  0  0  0
   13.0553   25.5822  -19.7475 H   0  0  0  0  0  0
   11.5995   23.8933  -20.8614 H   0  0  0  0  0  0
   10.8866   24.4777  -19.3197 H   0  0  0  0  0  0
   15.1145   13.6948  -13.2784 H   0  0  0  0  0  0
   16.2951   23.9249  -20.1350 H   0  0  0  0  0  0
   15.6086   24.5172  -18.5843 H   0  0  0  0  0  0
   15.4578   25.5129  -20.0718 H   0  0  0  0  0  0
   10.5469   13.4607  -16.4971 H   0  0  0  0  0  0
   11.9014   19.4481  -18.4838 H   0  0  0  0  0  0
   12.0277   17.2708  -18.3907 H   0  0  0  0  0  0
   11.3804   15.0972  -17.3195 H   0  0  0  0  0  0
    8.7672   12.4022  -14.9071 H   0  0  0  0  0  0
    9.0787   13.9144  -12.9768 H   0  0  0  0  0  0
   11.8211   12.5394  -12.6682 H   0  0  0  0  0  0
   11.1575   15.4102  -13.5103 H   0  0  0  0  0  0
   13.2825   15.1280  -12.2460 H   0  0  0  0  0  0
   13.5629   15.5940  -13.9580 H   0  0  0  0  0  0
  1 19  1  0  0  0
  1 32  1  0  0  0
  2  3  2  0  0  0
  2 23  1  0  0  0
  2 34  1  0  0  0
  3 26  1  0  0  0
  3 27  1  0  0  0
  4 31  1  0  0  0
  4 35  1  0  0  0
  5  7  2  0  0  0
  5 10  1  0  0  0
  5 22  1  0  0  0
  6  7  1  0  0  0
  6 12  1  0  0  0
  6 16  1  0  0  0
  7  8  1  0  0  0
  8 10  1  0  0  0
  8 21  2  0  0  0
  9 14  1  0  0  0
  9 15  1  0  0  0
  9 18  1  0  0  0
  9 36  1  0  0  0
 10 20  2  0  0  0
 11 30  1  0  0  0
 11 37  1  0  0  0
 12 14  1  0  0  0
 12 38  1  0  0  0
 12 39  1  0  0  0
 13 29  1  0  0  0
 13 40  1  0  0  0
 14 41  1  0  0  0
 14 42  1  0  0  0
 15 16  1  0  0  0
 15 43  1  0  0  0
 15 44  1  0  0  0
 16 45  1  0  0  0
 16 46  1  0  0  0
 17 33  1  0  0  0
 17 47  1  0  0  0
 18 48  1  0  0  0
 18 49  1  0  0  0
 18 50  1  0  0  0
 19 28  1  0  0  0
 19 29  1  0  0  0
 19 51  1  0  0  0
 22 23  1  0  0  0
 22 52  1  0  0  0
 23 24  2  0  0  0
 24 25  1  0  0  0
 24 53  1  0  0  0
 25 27  2  0  0  0
 25 54  1  0  0  0
 27 28  1  0  0  0
 29 30  1  0  0  0
 29 55  1  0  0  0
 30 31  1  0  0  0
 30 56  1  0  0  0
 31 32  1  0  0  0
 31 57  1  0  0  0
 32 33  1  0  0  0
 32 58  1  0  0  0
 33 59  1  0  0  0
 33 60  1  0  0  0
M  CHG  1   9   1
M  END
> <s_m_source_file>
../4x5r_ligand.sdf

> <i_m_source_file_index>
1

> <s_epik_input>
W09IXVtDQEhdMVtDQEBIXShbT0hdKVtDQEhdKFtPSF0pW0NAQEhdKFtDSDJdW09IXSlPW0NAQEhdMU9jMltjSF1bY0hdYyhbY0hdYzJDbClbTkhdYzNjKGMoPU8pYzM9TylONFtDSDJdW0NIMl1bTkgrXShbQ0gzXSlbQ0gyXVtDSDJdNA==

> <s_epik_cmdline>
J2VwaWtfYXBwJywgJy1pbWFlJywgJ2xpZ2FuZF9wcm8ubWFlJywgJy1vbWFlJywgJ2xpZ2FuZF9wcmVwLm1hZScsICctbXMnLCAnMScsICctcGgnLCAnNycsICctcGh0JywgJzAuNScsICctbnQn

> <r_lp_tautomer_probability>
1

> <r_epik_Ionization_Penalty>
  0.0017

> <r_epik_Ionization_Penalty_Charging>
  0.0017

> <r_epik_Ionization_Penalty_Neutral>
  0.0000

> <r_epik_State_Penalty>
 -0.0000

> <r_epik_Charging_Adjusted_Penalty>
0.00166457905084825

> <i_epik_Tot_Q>
1

> <i_epik_Tot_abs_Q>
1

> <s_epik_Chemistry_Notes>
This compound has an imine and may undergo hydrolysis. This compound contains an acetal/aminal-like group ( X-CH(R)-Y where X, Y are N, S, or O) that may be acid/base labile, releasing an aldehyde.

$$$$
