4x5y_ligand
                    3D
 Schrodinger Suite 2020-3.
 68 73  0  0  1  0            999 V2000
   13.2190    7.6460   12.4760 C   0  0  0  0  0  0
   13.4720    8.9790   12.3900 C   0  0  0  0  0  0
   12.4540    9.8010   12.0100 C   0  0  0  0  0  0
   11.2420    9.3100   11.7230 N   0  0  0  0  0  0
   12.0340    7.1030   12.1770 N   0  0  0  0  0  0
   17.5890    8.5180   11.1750 F   0  0  0  0  0  0
   17.8130    7.6790   12.1810 C   0  0  0  0  0  0
   19.0970    7.7260   12.5190 F   0  0  0  0  0  0
   17.4990    6.4430   11.8050 F   0  0  0  0  0  0
   16.9210    8.0960   13.4280 C   0  0  0  0  0  0
   15.4590    8.1370   13.0410 C   0  0  0  0  0  0
   14.5400    6.8880   12.9860 S   0  0  0  0  0  0
   14.7740    9.2300   12.7230 C   0  0  0  0  0  0
   10.9850    7.9420   11.8160 C   0  0  0  0  0  0
   12.6560   11.1390   11.9230 N   0  0  0  0  0  0
   11.6210   12.1460   11.5470 C   0  0  1  0  0  0
   11.6900   13.3280   12.5000 C   0  0  0  0  0  0
   10.7090   14.4040   12.1390 C   0  0  0  0  0  0
   11.8540   12.7020   10.1390 C   0  0  0  0  0  0
   10.9590   13.9440    9.8710 C   0  0  0  0  0  0
   11.1160   15.0030   10.8720 N   0  3  1  0  0  0
   10.1480   16.0890   10.5420 C   0  0  0  0  0  0
   10.1930   17.2910   11.3010 C   0  0  0  0  0  0
    9.0460   17.7770   11.9370 C   0  0  0  0  0  0
    7.8640   17.0530   11.8410 C   0  0  0  0  0  0
   11.3470   18.0550   11.4110 C   0  0  0  0  0  0
   11.2980   19.2330   12.1590 C   0  0  0  0  0  0
   10.1750   19.6460   12.7550 C   0  0  0  0  0  0
    9.0540   18.9260   12.6460 C   0  0  0  0  0  0
    8.0990   19.5780   13.3400 C   0  0  0  0  0  0
    8.6400   20.6890   13.8580 C   0  0  0  0  0  0
    8.0330   21.6320   14.6380 C   0  0  0  0  0  0
    7.6000   22.3580   15.2280 N   0  0  0  0  0  0
    9.9010   20.7310   13.4940 N   0  0  0  0  0  0
   10.7870   21.7980   13.9170 C   0  0  0  0  0  0
   10.8980   22.9770   12.9640 C   0  0  0  0  0  0
    9.9660   23.8200   12.5960 C   0  0  0  0  0  0
   10.6140   24.6300   11.7650 N   0  3  0  0  0  0
   11.7590   24.3490   11.6290 N   0  0  0  0  0  0
   12.0360   23.2880   12.3700 C   0  0  0  0  0  0
   17.0568    7.3634   14.2373 H   0  0  0  0  0  0
   17.2262    9.0923   13.7804 H   0  0  0  0  0  0
   15.2080   10.2299   12.7272 H   0  0  0  0  0  0
    9.9916    7.5425   11.6118 H   0  0  0  0  0  0
   13.6804   11.4643   12.1570 H   0  0  0  0  0  0
   10.6571   11.6190   11.6040 H   0  0  0  0  0  0
   11.4647   12.9887   13.5218 H   0  0  0  0  0  0
   12.7000   13.7629   12.4723 H   0  0  0  0  0  0
    9.7048   13.9662   12.0396 H   0  0  0  0  0  0
   10.6984   15.1703   12.9281 H   0  0  0  0  0  0
   12.9078   12.9987   10.0317 H   0  0  0  0  0  0
   11.6133   11.9285    9.3948 H   0  0  0  0  0  0
   11.2141   14.3753    8.8918 H   0  0  0  0  0  0
    9.9014   13.6414    9.8741 H   0  0  0  0  0  0
   12.1457   15.3875   10.9150 H   0  0  0  0  0  0
   10.2969   16.4087    9.5001 H   0  0  0  0  0  0
    9.1210   15.7155   10.6677 H   0  0  0  0  0  0
    8.0341   16.1524   11.2327 H   0  0  0  0  0  0
    7.0905   17.6750   11.3669 H   0  0  0  0  0  0
    7.5317   16.7584   12.8474 H   0  0  0  0  0  0
   12.2707   17.7422   10.9242 H   0  0  0  0  0  0
   12.2021   19.8335   12.2599 H   0  0  0  0  0  0
    7.0644   19.2563   13.4591 H   0  0  0  0  0  0
   10.4361   22.2076   14.8757 H   0  0  0  0  0  0
   11.8060   21.4020   14.0385 H   0  0  0  0  0  0
    8.9446   23.7178   12.9915 H   0  0  0  0  0  0
   13.0549   22.8735   12.3780 H   0  0  0  0  0  0
   10.1912   25.4908   11.2262 H   0  0  0  0  0  0
  1  2  2  0  0  0
  1  5  1  0  0  0
  1 12  1  0  0  0
  2  3  1  0  0  0
  2 13  1  0  0  0
  3  4  2  0  0  0
  3 15  1  0  0  0
  4 14  1  0  0  0
  5 14  2  0  0  0
  6  7  1  0  0  0
  7  8  1  0  0  0
  7  9  1  0  0  0
  7 10  1  0  0  0
 10 11  1  0  0  0
 10 41  1  0  0  0
 10 42  1  0  0  0
 11 12  1  0  0  0
 11 13  2  0  0  0
 13 43  1  0  0  0
 14 44  1  0  0  0
 15 16  1  0  0  0
 15 45  1  0  0  0
 16 17  1  0  0  0
 16 19  1  0  0  0
 16 46  1  0  0  0
 17 18  1  0  0  0
 17 47  1  0  0  0
 17 48  1  0  0  0
 18 21  1  0  0  0
 18 49  1  0  0  0
 18 50  1  0  0  0
 19 20  1  0  0  0
 19 51  1  0  0  0
 19 52  1  0  0  0
 20 21  1  0  0  0
 20 53  1  0  0  0
 20 54  1  0  0  0
 21 22  1  0  0  0
 21 55  1  0  0  0
 22 23  1  0  0  0
 22 56  1  0  0  0
 22 57  1  0  0  0
 23 24  2  0  0  0
 23 26  1  0  0  0
 24 25  1  0  0  0
 24 29  1  0  0  0
 25 58  1  0  0  0
 25 59  1  0  0  0
 25 60  1  0  0  0
 26 27  2  0  0  0
 26 61  1  0  0  0
 27 28  1  0  0  0
 27 62  1  0  0  0
 28 29  2  0  0  0
 28 34  1  0  0  0
 29 30  1  0  0  0
 30 31  2  0  0  0
 30 63  1  0  0  0
 31 32  1  0  0  0
 31 34  1  0  0  0
 32 33  3  0  0  0
 34 35  1  0  0  0
 35 36  1  0  0  0
 35 64  1  0  0  0
 35 65  1  0  0  0
 36 37  2  0  0  0
 36 40  1  0  0  0
 37 38  1  0  0  0
 37 66  1  0  0  0
 38 39  1  0  0  0
 38 68  1  0  0  0
 39 40  2  0  0  0
 40 67  1  0  0  0
M  CHG  2  21   1  38   1
M  END
> <s_m_source_file>
../4x5y_ligand.sdf

> <i_m_source_file_index>
1

> <s_epik_input>
RkMoRikoRilbQ0gyXWMoczEpW2NIXWMoYzEyKWMobltjSF1uMilbTkhdW0NASF0zW0NIMl1bQ0gyXVtOQEBIK10oW0NIMl1bQ0gyXTMpW0NIMl1jKFtjSF1bY0hdNCljKFtDSDNdKWMoYzQ1KVtjSF1jKEMjTiluNVtDSDJdYzZbY0hdW25IXW5bY0hdNg==

> <s_epik_cmdline>
J2VwaWtfYXBwJywgJy1pbWFlJywgJ2xpZ2FuZF9wcm8ubWFlJywgJy1vbWFlJywgJ2xpZ2FuZF9wcmVwLm1hZScsICctbXMnLCAnMScsICctcGgnLCAnNycsICctcGh0JywgJzAuNScsICctbnQn

> <r_epik_Ionization_Penalty>
  0.1562

> <r_epik_Ionization_Penalty_Charging>
  0.1561

> <r_epik_Ionization_Penalty_Neutral>
  0.0001

> <r_epik_State_Penalty>
  0.4107

> <r_epik_Charging_Adjusted_Penalty>
0.566812870079971

> <i_epik_Tot_Q>
2

> <i_epik_Tot_abs_Q>
2

> <s_epik_Chemistry_Notes>
This compound has an imine and may undergo hydrolysis.

$$$$
