4x60_ligand
                    3D
 Schrodinger Suite 2020-3.
 54 57  0  0  1  0            999 V2000
   22.6980  -51.8800   -9.5380 C   0  0  0  0  0  0
   21.9690  -50.2190  -11.0960 C   0  0  0  0  0  0
   23.2550  -50.1780  -11.6640 C   0  0  0  0  0  0
   24.2580  -51.0130  -11.1410 C   0  0  0  0  0  0
   22.6940  -44.5410  -10.6490 C   0  0  0  0  0  0
   23.1820  -43.2140  -10.1550 C   0  0  0  0  0  0
   23.0950  -43.1370   -8.7550 C   0  0  0  0  0  0
   23.8720  -42.1720   -8.0960 C   0  0  0  0  0  0
   23.8280  -42.0550   -6.7060 C   0  0  0  0  0  0
   23.0060  -42.8920   -5.9570 C   0  0  0  0  0  0
   22.2240  -43.8490   -6.5960 C   0  0  0  0  0  0
   22.2590  -43.9850   -7.9940 C   0  0  0  0  0  0
   21.4540  -44.9730   -8.5730 C   0  0  0  0  0  0
   21.3950  -44.8900  -10.0420 N   0  3  2  0  0  0
   21.0110  -46.2030  -10.5670 C   0  0  0  0  0  0
   19.5250  -46.4890  -10.3170 C   0  0  1  0  0  0
   18.7520  -45.4130  -10.8630 O   0  0  0  0  0  0
   19.1220  -47.8450  -10.9480 C   0  0  0  0  0  0
   20.1710  -48.8260  -10.6350 N   0  0  0  0  0  0
   20.9510  -49.3820  -11.5840 C   0  0  0  0  0  0
   20.8130  -49.1640  -12.7950 O   0  0  0  0  0  0
   21.7090  -51.0450  -10.0550 N   0  0  0  0  0  0
   23.9760  -51.8390  -10.1050 N   0  0  0  0  0  0
   25.5030  -51.0060  -11.6550 N   0  0  0  0  0  0
   26.6070  -51.7870  -11.0510 C   0  0  0  0  0  0
   27.2710  -51.0390   -9.9030 C   0  0  0  0  0  0
   28.5570  -51.3460  -10.5250 O   0  0  0  0  0  0
   27.9090  -51.5750  -11.8110 C   0  0  0  0  0  0
   22.4798  -52.5519   -8.7079 H   0  0  0  0  0  0
   23.4708  -49.5090  -12.4971 H   0  0  0  0  0  0
   22.5725  -44.5034  -11.7416 H   0  0  0  0  0  0
   23.4247  -45.3207  -10.3880 H   0  0  0  0  0  0
   24.2321  -43.0758  -10.4520 H   0  0  0  0  0  0
   22.5688  -42.4120  -10.5919 H   0  0  0  0  0  0
   24.5150  -41.5085   -8.6743 H   0  0  0  0  0  0
   24.4399  -41.3050   -6.2048 H   0  0  0  0  0  0
   22.9750  -42.7979   -4.8715 H   0  0  0  0  0  0
   21.5780  -44.4995   -6.0064 H   0  0  0  0  0  0
   21.8487  -45.9663   -8.3132 H   0  0  0  0  0  0
   20.4257  -44.8765   -8.1944 H   0  0  0  0  0  0
   20.6657  -44.1061  -10.2943 H   0  0  0  0  0  0
   21.1960  -46.2329  -11.6509 H   0  0  0  0  0  0
   21.6063  -46.9843  -10.0718 H   0  0  0  0  0  0
   19.2915  -46.4935   -9.2421 H   0  0  0  0  0  0
   18.9206  -44.3831  -10.5154 H   0  0  0  0  0  0
   18.1597  -48.1732  -10.5282 H   0  0  0  0  0  0
   19.0260  -47.7283  -12.0376 H   0  0  0  0  0  0
   20.3437  -49.1329   -9.5929 H   0  0  0  0  0  0
   25.6873  -50.3957  -12.5514 H   0  0  0  0  0  0
   26.1219  -52.7668  -10.9294 H   0  0  0  0  0  0
   26.9194  -49.9968   -9.8925 H   0  0  0  0  0  0
   27.0106  -51.5235   -8.9504 H   0  0  0  0  0  0
   28.1558  -52.4856  -12.3767 H   0  0  0  0  0  0
   27.7941  -50.7309  -12.5069 H   0  0  0  0  0  0
  1 22  2  0  0  0
  1 23  1  0  0  0
  1 29  1  0  0  0
  2  3  2  0  0  0
  2 20  1  0  0  0
  2 22  1  0  0  0
  3  4  1  0  0  0
  3 30  1  0  0  0
  4 23  2  0  0  0
  4 24  1  0  0  0
  5  6  1  0  0  0
  5 14  1  0  0  0
  5 31  1  0  0  0
  5 32  1  0  0  0
  6  7  1  0  0  0
  6 33  1  0  0  0
  6 34  1  0  0  0
  7  8  2  0  0  0
  7 12  1  0  0  0
  8  9  1  0  0  0
  8 35  1  0  0  0
  9 10  2  0  0  0
  9 36  1  0  0  0
 10 11  1  0  0  0
 10 37  1  0  0  0
 11 12  2  0  0  0
 11 38  1  0  0  0
 12 13  1  0  0  0
 13 14  1  0  0  0
 13 39  1  0  0  0
 13 40  1  0  0  0
 14 15  1  0  0  0
 14 41  1  0  0  0
 15 16  1  0  0  0
 15 42  1  0  0  0
 15 43  1  0  0  0
 16 17  1  0  0  0
 16 18  1  0  0  0
 16 44  1  0  0  0
 17 45  1  0  0  0
 18 19  1  0  0  0
 18 46  1  0  0  0
 18 47  1  0  0  0
 19 20  1  0  0  0
 19 48  1  0  0  0
 20 21  2  0  0  0
 24 25  1  0  0  0
 24 49  1  0  0  0
 25 26  1  0  0  0
 25 28  1  0  0  0
 25 50  1  0  0  0
 26 27  1  0  0  0
 26 51  1  0  0  0
 26 52  1  0  0  0
 27 28  1  0  0  0
 28 53  1  0  0  0
 28 54  1  0  0  0
M  CHG  1  14   1
M  END
> <s_m_source_file>
../4x60_ligand.sdf

> <i_m_source_file_index>
1

> <s_epik_input>
W0NIMl0xT1tDSDJdW0NIXTFbTkhdYyhuW2NIXW4yKVtjSF1jMkMoPU8pW05IXVtDSDJdW0NASF0oW09IXSlbQ0gyXVtOQEgrXShbQ0gyXVtDSDJdMylbQ0gyXWMoYzM0KVtjSF1bY0hdW2NIXVtjSF00

> <s_epik_cmdline>
J2VwaWtfYXBwJywgJy1pbWFlJywgJ2xpZ2FuZF9wcm8ubWFlJywgJy1vbWFlJywgJ2xpZ2FuZF9wcmVwLm1hZScsICctbXMnLCAnMScsICctcGgnLCAnNycsICctcGh0JywgJzAuNScsICctbnQn

> <r_lp_tautomer_probability>
0.999999583200174

> <r_epik_Ionization_Penalty>
  0.0203

> <r_epik_Ionization_Penalty_Charging>
  0.0184

> <r_epik_Ionization_Penalty_Neutral>
  0.0019

> <r_epik_State_Penalty>
  0.0146

> <r_epik_Charging_Adjusted_Penalty>
0.032998945634403

> <i_epik_Tot_Q>
1

> <i_epik_Tot_abs_Q>
1

$$$$
