4x61_ligand
                    3D
 Schrodinger Suite 2020-3.
 54 57  0  0  1  0            999 V2000
   22.6510  -51.8580   -9.4550 C   0  0  0  0  0  0
   21.9380  -50.2840  -11.0900 C   0  0  0  0  0  0
   23.2330  -50.2620  -11.6190 C   0  0  0  0  0  0
   24.2320  -51.0540  -11.0560 C   0  0  0  0  0  0
   22.7520  -44.4700  -10.7190 C   0  0  0  0  0  0
   23.3010  -43.1850  -10.1290 C   0  0  0  0  0  0
   23.1310  -43.1450   -8.7430 C   0  0  0  0  0  0
   23.8130  -42.1520   -8.0340 C   0  0  0  0  0  0
   23.6900  -42.0550   -6.6490 C   0  0  0  0  0  0
   22.8750  -42.9580   -5.9650 C   0  0  0  0  0  0
   22.1870  -43.9530   -6.6600 C   0  0  0  0  0  0
   22.3060  -44.0540   -8.0490 C   0  0  0  0  0  0
   21.5990  -45.0730   -8.6970 C   0  0  0  0  0  0
   21.4480  -44.8130  -10.1400 N   0  3  2  0  0  0
   20.9930  -46.0270  -10.8270 C   0  0  0  0  0  0
   19.5560  -46.4180  -10.4680 C   0  0  1  0  0  0
   18.6720  -45.4030  -10.9380 O   0  0  0  0  0  0
   19.2150  -47.7730  -11.1070 C   0  0  0  0  0  0
   20.2740  -48.7360  -10.7550 N   0  0  0  0  0  0
   20.9420  -49.4860  -11.6490 C   0  0  0  0  0  0
   20.7280  -49.4880  -12.8610 O   0  0  0  0  0  0
   21.6520  -51.0610  -10.0300 N   0  0  0  0  0  0
   23.9480  -51.8310   -9.9940 N   0  0  0  0  0  0
   25.4660  -51.0300  -11.5680 N   0  0  0  0  0  0
   26.5470  -51.9240  -11.1060 C   0  0  0  0  0  0
   27.3110  -51.2860   -9.9700 C   0  0  0  0  0  0
   28.4490  -51.1120  -10.8430 O   0  0  0  0  0  0
   27.7670  -51.7200  -11.9640 C   0  0  0  0  0  0
   22.4240  -52.4924   -8.5982 H   0  0  0  0  0  0
   23.4610  -49.6243  -12.4730 H   0  0  0  0  0  0
   22.6302  -44.3518  -11.8058 H   0  0  0  0  0  0
   23.4510  -45.2947  -10.5159 H   0  0  0  0  0  0
   24.3759  -43.1098  -10.3504 H   0  0  0  0  0  0
   22.7749  -42.3252  -10.5694 H   0  0  0  0  0  0
   24.4476  -41.4461   -8.5698 H   0  0  0  0  0  0
   24.2269  -41.2788   -6.1037 H   0  0  0  0  0  0
   22.7754  -42.8855   -4.8820 H   0  0  0  0  0  0
   21.5538  -44.6549   -6.1173 H   0  0  0  0  0  0
   22.1350  -46.0258   -8.5752 H   0  0  0  0  0  0
   20.5942  -45.1588   -8.2577 H   0  0  0  0  0  0
   20.7243  -43.9945  -10.2681 H   0  0  0  0  0  0
   21.0335  -45.8696  -11.9149 H   0  0  0  0  0  0
   21.6456  -46.8693  -10.5538 H   0  0  0  0  0  0
   19.3989  -46.4558   -9.3799 H   0  0  0  0  0  0
   18.7799  -44.3694  -10.5773 H   0  0  0  0  0  0
   18.2454  -48.1250  -10.7248 H   0  0  0  0  0  0
   19.1590  -47.6594  -12.1997 H   0  0  0  0  0  0
   20.5624  -48.8761   -9.7028 H   0  0  0  0  0  0
   25.6594  -50.3016  -12.3693 H   0  0  0  0  0  0
   26.0416  -52.8956  -11.0030 H   0  0  0  0  0  0
   26.7761  -50.3881   -9.6270 H   0  0  0  0  0  0
   27.3973  -52.0013   -9.1388 H   0  0  0  0  0  0
   28.1280  -52.6941  -12.3255 H   0  0  0  0  0  0
   27.5090  -51.0829  -12.8228 H   0  0  0  0  0  0
  1 22  2  0  0  0
  1 23  1  0  0  0
  1 29  1  0  0  0
  2  3  2  0  0  0
  2 20  1  0  0  0
  2 22  1  0  0  0
  3  4  1  0  0  0
  3 30  1  0  0  0
  4 23  2  0  0  0
  4 24  1  0  0  0
  5  6  1  0  0  0
  5 14  1  0  0  0
  5 31  1  0  0  0
  5 32  1  0  0  0
  6  7  1  0  0  0
  6 33  1  0  0  0
  6 34  1  0  0  0
  7  8  2  0  0  0
  7 12  1  0  0  0
  8  9  1  0  0  0
  8 35  1  0  0  0
  9 10  2  0  0  0
  9 36  1  0  0  0
 10 11  1  0  0  0
 10 37  1  0  0  0
 11 12  2  0  0  0
 11 38  1  0  0  0
 12 13  1  0  0  0
 13 14  1  0  0  0
 13 39  1  0  0  0
 13 40  1  0  0  0
 14 15  1  0  0  0
 14 41  1  0  0  0
 15 16  1  0  0  0
 15 42  1  0  0  0
 15 43  1  0  0  0
 16 17  1  0  0  0
 16 18  1  0  0  0
 16 44  1  0  0  0
 17 45  1  0  0  0
 18 19  1  0  0  0
 18 46  1  0  0  0
 18 47  1  0  0  0
 19 20  1  0  0  0
 19 48  1  0  0  0
 20 21  2  0  0  0
 24 25  1  0  0  0
 24 49  1  0  0  0
 25 26  1  0  0  0
 25 28  1  0  0  0
 25 50  1  0  0  0
 26 27  1  0  0  0
 26 51  1  0  0  0
 26 52  1  0  0  0
 27 28  1  0  0  0
 28 53  1  0  0  0
 28 54  1  0  0  0
M  CHG  1  14   1
M  END
> <s_m_source_file>
../4x61_ligand.sdf

> <i_m_source_file_index>
1

> <s_epik_input>
W0NIMl0xT1tDSDJdW0NIXTFbTkhdYyhuW2NIXW4yKVtjSF1jMkMoPU8pW05IXVtDSDJdW0NASF0oW09IXSlbQ0gyXVtOQEgrXShbQ0gyXVtDSDJdMylbQ0gyXWMoYzM0KVtjSF1bY0hdW2NIXVtjSF00

> <s_epik_cmdline>
J2VwaWtfYXBwJywgJy1pbWFlJywgJ2xpZ2FuZF9wcm8ubWFlJywgJy1vbWFlJywgJ2xpZ2FuZF9wcmVwLm1hZScsICctbXMnLCAnMScsICctcGgnLCAnNycsICctcGh0JywgJzAuNScsICctbnQn

> <r_lp_tautomer_probability>
0.999999583200174

> <r_epik_Ionization_Penalty>
  0.0203

> <r_epik_Ionization_Penalty_Charging>
  0.0184

> <r_epik_Ionization_Penalty_Neutral>
  0.0019

> <r_epik_State_Penalty>
  0.0146

> <r_epik_Charging_Adjusted_Penalty>
0.032998945634403

> <i_epik_Tot_Q>
1

> <i_epik_Tot_abs_Q>
1

$$$$
