4x63_ligand
                    3D
 Schrodinger Suite 2020-3.
 54 57  0  0  1  0            999 V2000
   22.8130  -51.8770   -9.3690 C   0  0  0  0  0  0
   22.0970  -50.3200  -11.0200 C   0  0  0  0  0  0
   23.3890  -50.3220  -11.5490 C   0  0  0  0  0  0
   24.3940  -51.1070  -10.9830 C   0  0  0  0  0  0
   22.5370  -44.2960  -10.6800 C   0  0  0  0  0  0
   22.9630  -42.9500  -10.1370 C   0  0  0  0  0  0
   22.9580  -42.9630   -8.7430 C   0  0  0  0  0  0
   23.7220  -42.0050   -8.0760 C   0  0  0  0  0  0
   23.7580  -41.9710   -6.6840 C   0  0  0  0  0  0
   23.0210  -42.8960   -5.9500 C   0  0  0  0  0  0
   22.2520  -43.8540   -6.6080 C   0  0  0  0  0  0
   22.2100  -43.8970   -8.0030 C   0  0  0  0  0  0
   21.4220  -44.8920   -8.6050 C   0  0  0  0  0  0
   21.2790  -44.7510  -10.0700 N   0  3  2  0  0  0
   21.0060  -46.0680  -10.6610 C   0  0  0  0  0  0
   19.5410  -46.4960  -10.5130 C   0  0  1  0  0  0
   18.7080  -45.5080  -11.1180 O   0  0  0  0  0  0
   19.3140  -47.8650  -11.1770 C   0  0  0  0  0  0
   20.3710  -48.8040  -10.7490 N   0  0  0  0  0  0
   21.1230  -49.5150  -11.6110 C   0  0  0  0  0  0
   21.0080  -49.4640  -12.8360 O   0  0  0  0  0  0
   21.8080  -51.0820   -9.9490 N   0  0  0  0  0  0
   24.1130  -51.8730   -9.9120 N   0  0  0  0  0  0
   25.6170  -51.0720  -11.5260 N   0  0  0  0  0  0
   26.7570  -51.8850  -11.0620 C   0  0  0  0  0  0
   27.5570  -51.1290  -10.0280 C   0  0  0  0  0  0
   28.7000  -51.1220  -10.9210 O   0  0  0  0  0  0
   27.9240  -51.6810  -12.0050 C   0  0  0  0  0  0
   22.5863  -52.4954   -8.5005 H   0  0  0  0  0  0
   23.6157  -49.7017  -12.4162 H   0  0  0  0  0  0
   22.3893  -44.2225  -11.7676 H   0  0  0  0  0  0
   23.3169  -45.0415  -10.4654 H   0  0  0  0  0  0
   23.9790  -42.7176  -10.4888 H   0  0  0  0  0  0
   22.2666  -42.1751  -10.4899 H   0  0  0  0  0  0
   24.2958  -41.2768   -8.6492 H   0  0  0  0  0  0
   24.3615  -41.2222   -6.1710 H   0  0  0  0  0  0
   23.0454  -42.8710   -4.8606 H   0  0  0  0  0  0
   21.6778  -44.5766   -6.0281 H   0  0  0  0  0  0
   21.8718  -45.8784   -8.4190 H   0  0  0  0  0  0
   20.4084  -44.8649   -8.1786 H   0  0  0  0  0  0
   20.4693  -44.0310  -10.2595 H   0  0  0  0  0  0
   21.2411  -46.0436  -11.7353 H   0  0  0  0  0  0
   21.6288  -46.8280  -10.1665 H   0  0  0  0  0  0
   19.2389  -46.5311   -9.4559 H   0  0  0  0  0  0
   18.7426  -44.4673  -10.7633 H   0  0  0  0  0  0
   18.3316  -48.2592  -10.8779 H   0  0  0  0  0  0
   19.3462  -47.7519  -12.2707 H   0  0  0  0  0  0
   20.5763  -48.9501   -9.6783 H   0  0  0  0  0  0
   25.7431  -50.3800  -12.3717 H   0  0  0  0  0  0
   26.3002  -52.8642  -10.8560 H   0  0  0  0  0  0
   27.0624  -50.1709   -9.8103 H   0  0  0  0  0  0
   27.6219  -51.7258   -9.1063 H   0  0  0  0  0  0
   28.2348  -52.6515  -12.4191 H   0  0  0  0  0  0
   27.6207  -51.0129  -12.8246 H   0  0  0  0  0  0
  1 22  2  0  0  0
  1 23  1  0  0  0
  1 29  1  0  0  0
  2  3  2  0  0  0
  2 20  1  0  0  0
  2 22  1  0  0  0
  3  4  1  0  0  0
  3 30  1  0  0  0
  4 23  2  0  0  0
  4 24  1  0  0  0
  5  6  1  0  0  0
  5 14  1  0  0  0
  5 31  1  0  0  0
  5 32  1  0  0  0
  6  7  1  0  0  0
  6 33  1  0  0  0
  6 34  1  0  0  0
  7  8  2  0  0  0
  7 12  1  0  0  0
  8  9  1  0  0  0
  8 35  1  0  0  0
  9 10  2  0  0  0
  9 36  1  0  0  0
 10 11  1  0  0  0
 10 37  1  0  0  0
 11 12  2  0  0  0
 11 38  1  0  0  0
 12 13  1  0  0  0
 13 14  1  0  0  0
 13 39  1  0  0  0
 13 40  1  0  0  0
 14 15  1  0  0  0
 14 41  1  0  0  0
 15 16  1  0  0  0
 15 42  1  0  0  0
 15 43  1  0  0  0
 16 17  1  0  0  0
 16 18  1  0  0  0
 16 44  1  0  0  0
 17 45  1  0  0  0
 18 19  1  0  0  0
 18 46  1  0  0  0
 18 47  1  0  0  0
 19 20  1  0  0  0
 19 48  1  0  0  0
 20 21  2  0  0  0
 24 25  1  0  0  0
 24 49  1  0  0  0
 25 26  1  0  0  0
 25 28  1  0  0  0
 25 50  1  0  0  0
 26 27  1  0  0  0
 26 51  1  0  0  0
 26 52  1  0  0  0
 27 28  1  0  0  0
 28 53  1  0  0  0
 28 54  1  0  0  0
M  CHG  1  14   1
M  END
> <s_m_source_file>
../4x63_ligand.sdf

> <i_m_source_file_index>
1

> <s_epik_input>
W0NIMl0xT1tDSDJdW0NIXTFbTkhdYyhuW2NIXW4yKVtjSF1jMkMoPU8pW05IXVtDSDJdW0NASF0oW09IXSlbQ0gyXVtOQEgrXShbQ0gyXVtDSDJdMylbQ0gyXWMoYzM0KVtjSF1bY0hdW2NIXVtjSF00

> <s_epik_cmdline>
J2VwaWtfYXBwJywgJy1pbWFlJywgJ2xpZ2FuZF9wcm8ubWFlJywgJy1vbWFlJywgJ2xpZ2FuZF9wcmVwLm1hZScsICctbXMnLCAnMScsICctcGgnLCAnNycsICctcGh0JywgJzAuNScsICctbnQn

> <r_lp_tautomer_probability>
0.999999583200174

> <r_epik_Ionization_Penalty>
  0.0203

> <r_epik_Ionization_Penalty_Charging>
  0.0184

> <r_epik_Ionization_Penalty_Neutral>
  0.0019

> <r_epik_State_Penalty>
  0.0146

> <r_epik_Charging_Adjusted_Penalty>
0.032998945634403

> <i_epik_Tot_Q>
1

> <i_epik_Tot_abs_Q>
1

$$$$
