4x68_ligand
                    3D
 Schrodinger Suite 2020-3.
 39 39  0  0  1  0            999 V2000
  -13.1090    0.8800   16.5140 C   0  0  0  0  0  0
  -12.7000    0.0950   15.6280 O   0  0  0  0  0  0
  -14.4200    1.2490   16.5990 N   0  0  0  0  0  0
  -15.2400    1.1570   15.3500 C   0  0  2  0  0  0
  -15.0470    2.4530   14.5810 C   0  0  0  0  0  0
  -14.4260    2.3170   13.3900 N   0  0  0  0  0  0
  -15.4240    3.5380   15.0330 O   0  0  0  0  0  0
  -15.0790    1.5600   17.8870 C   0  0  0  0  0  0
  -16.4690    0.9030   18.1070 C   0  0  1  0  0  0
  -17.3670    1.2110   16.8830 C   0  0  0  0  0  0
  -16.7190    0.7740   15.5470 C   0  0  0  0  0  0
  -16.4060   -0.5410   18.3540 N   0  0  1  0  0  0
  -14.5010   -2.0290   19.2300 S   0  0  0  0  0  0
  -15.5020   -0.8530   19.3770 O   0  0  0  0  0  0
  -13.7040   -1.9050   20.4180 O   0  5  0  0  0  0
  -13.7860   -1.7700   18.0280 O   0  0  0  0  0  0
  -15.3610   -3.1720   19.2000 O   0  0  0  0  0  0
  -16.0780    5.5530   12.7190 N   0  3  0  0  0  0
  -16.3880    4.3230   12.0000 C   0  0  0  0  0  0
  -15.1190    3.6030   11.4780 C   0  0  0  0  0  0
  -14.1780    3.4350   12.5840 O   0  0  0  0  0  0
  -12.4045    1.2921   17.2515 H   0  0  0  0  0  0
  -14.8452    0.3055   14.7764 H   0  0  0  0  0  0
  -14.1141    1.3170   13.0544 H   0  0  0  0  0  0
  -14.4418    1.2195   18.7165 H   0  0  0  0  0  0
  -15.2348    2.6460   17.9663 H   0  0  0  0  0  0
  -16.9039    1.2784   19.0450 H   0  0  0  0  0  0
  -18.3231    0.6769   16.9861 H   0  0  0  0  0  0
  -17.5555    2.2934   16.8296 H   0  0  0  0  0  0
  -17.3255    1.2323   14.7519 H   0  0  0  0  0  0
  -16.8234   -0.3202   15.5032 H   0  0  0  0  0  0
  -17.3330   -0.8593   18.6364 H   0  0  0  0  0  0
  -17.0115    6.0204   13.0655 H   0  0  0  0  0  0
  -15.5478    6.2457   12.0489 H   0  0  0  0  0  0
  -15.4408    5.3208   13.5850 H   0  0  0  0  0  0
  -16.9182    3.6303   12.6701 H   0  0  0  0  0  0
  -17.0253    4.5552   11.1340 H   0  0  0  0  0  0
  -15.3962    2.6181   11.0741 H   0  0  0  0  0  0
  -14.6548    4.2072   10.6846 H   0  0  0  0  0  0
  1  2  2  0  0  0
  1  3  1  0  0  0
  1 22  1  0  0  0
  3  4  1  0  0  0
  3  8  1  0  0  0
  4  5  1  0  0  0
  4 11  1  0  0  0
  4 23  1  0  0  0
  5  6  1  0  0  0
  5  7  2  0  0  0
  6 21  1  0  0  0
  6 24  1  0  0  0
  8  9  1  0  0  0
  8 25  1  0  0  0
  8 26  1  0  0  0
  9 10  1  0  0  0
  9 12  1  0  0  0
  9 27  1  0  0  0
 10 11  1  0  0  0
 10 28  1  0  0  0
 10 29  1  0  0  0
 11 30  1  0  0  0
 11 31  1  0  0  0
 12 14  1  0  0  0
 12 32  1  0  0  0
 13 14  1  0  0  0
 13 15  1  0  0  0
 13 16  2  0  0  0
 13 17  2  0  0  0
 18 19  1  0  0  0
 18 33  1  0  0  0
 18 34  1  0  0  0
 18 35  1  0  0  0
 19 20  1  0  0  0
 19 36  1  0  0  0
 19 37  1  0  0  0
 20 21  1  0  0  0
 20 38  1  0  0  0
 20 39  1  0  0  0
M  CHG  2  15  -1  18   1
M  END
> <s_m_source_file>
../4x68_ligand.sdf

> <i_m_source_file_index>
1

> <s_epik_input>
W05IMytdW0NIMl1bQ0gyXU9bTkhdQyg9TylbQ0BASF0oTjFbQ0hdPU8pW0NIMl1bQ0gyXVtDQEhdKFtDSDJdMSlbTkgyK11PUyg9TykoPU8pW09IXQ==

> <s_epik_cmdline>
J2VwaWtfYXBwJywgJy1pbWFlJywgJ2xpZ2FuZF9wcm8ubWFlJywgJy1vbWFlJywgJ2xpZ2FuZF9wcmVwLm1hZScsICctbXMnLCAnMScsICctcGgnLCAnNycsICctcGh0JywgJzAuNScsICctbnQn

> <r_epik_Ionization_Penalty>
  0.0108

> <r_epik_Ionization_Penalty_Charging>
  0.0107

> <r_epik_Ionization_Penalty_Neutral>
  0.0001

> <r_epik_State_Penalty>
  0.0082

> <r_epik_Charging_Adjusted_Penalty>
0.0189643866617152

> <i_epik_Tot_Q>
0

> <i_epik_Tot_abs_Q>
2

> <s_epik_Chemistry_Notes>
This compound has a N-S or N-O group and may undergo hydrolysis at high or low pH.

$$$$
