4x69_ligand
                    3D
 Schrodinger Suite 2020-3.
 36 36  0  0  1  0            999 V2000
   13.1300    5.8960    4.6280 C   0  0  0  0  0  0
   11.9840    6.3310    4.8490 O   0  0  0  0  0  0
   14.2440    6.5000    5.1250 N   0  0  0  0  0  0
   14.0500    7.7250    5.9370 C   0  0  2  0  0  0
   15.0510    8.8250    5.6390 C   0  0  0  0  0  0
   14.7990    9.9850    6.2780 N   0  0  0  0  0  0
   16.0130    8.6680    4.8830 O   0  0  0  0  0  0
   15.4590    5.7010    5.4070 C   0  0  0  0  0  0
   15.3410    5.2100    6.8750 C   0  0  1  0  0  0
   15.2840    6.4450    7.8160 C   0  0  0  0  0  0
   14.0830    7.3350    7.4250 C   0  0  0  0  0  0
   14.1150    4.4220    6.9990 N   0  0  1  0  0  0
   12.5300    3.6130    8.7180 S   0  0  0  0  0  0
   13.9860    3.8440    8.2720 O   0  0  0  0  0  0
   12.7050    2.7860    9.8750 O   0  5  0  0  0  0
   11.9830    4.8860    9.0140 O   0  0  0  0  0  0
   11.9590    2.8850    7.6420 O   0  0  0  0  0  0
   14.4940   13.1370    5.8580 C   0  0  0  0  0  0
   15.2680   12.0300    5.1130 C   0  0  0  0  0  0
   15.6800   11.0590    6.1140 O   0  0  0  0  0  0
   13.2669    4.9945    4.0127 H   0  0  0  0  0  0
   13.0742    8.1343    5.6366 H   0  0  0  0  0  0
   13.9138   10.0932    6.9219 H   0  0  0  0  0  0
   15.5070    4.8492    4.7126 H   0  0  0  0  0  0
   16.3509    6.3314    5.2762 H   0  0  0  0  0  0
   16.1683    4.5439    7.1612 H   0  0  0  0  0  0
   15.1674    6.1080    8.8566 H   0  0  0  0  0  0
   16.2152    7.0226    7.7198 H   0  0  0  0  0  0
   14.1392    8.2444    8.0412 H   0  0  0  0  0  0
   13.1697    6.7766    7.6780 H   0  0  0  0  0  0
   13.3204    5.0438    6.8496 H   0  0  0  0  0  0
   14.1601   13.8989    5.1382 H   0  0  0  0  0  0
   15.1510   13.6031    6.6071 H   0  0  0  0  0  0
   13.6190   12.6983    6.3599 H   0  0  0  0  0  0
   14.6110   11.5639    4.3639 H   0  0  0  0  0  0
   16.1430   12.4686    4.6110 H   0  0  0  0  0  0
  1  2  2  0  0  0
  1  3  1  0  0  0
  1 21  1  0  0  0
  3  4  1  0  0  0
  3  8  1  0  0  0
  4  5  1  0  0  0
  4 11  1  0  0  0
  4 22  1  0  0  0
  5  6  1  0  0  0
  5  7  2  0  0  0
  6 20  1  0  0  0
  6 23  1  0  0  0
  8  9  1  0  0  0
  8 24  1  0  0  0
  8 25  1  0  0  0
  9 10  1  0  0  0
  9 12  1  0  0  0
  9 26  1  0  0  0
 10 11  1  0  0  0
 10 27  1  0  0  0
 10 28  1  0  0  0
 11 29  1  0  0  0
 11 30  1  0  0  0
 12 14  1  0  0  0
 12 31  1  0  0  0
 13 14  1  0  0  0
 13 15  1  0  0  0
 13 16  2  0  0  0
 13 17  2  0  0  0
 18 19  1  0  0  0
 18 32  1  0  0  0
 18 33  1  0  0  0
 18 34  1  0  0  0
 19 20  1  0  0  0
 19 35  1  0  0  0
 19 36  1  0  0  0
M  CHG  1  15  -1
M  END
> <s_m_source_file>
../4x69_ligand.sdf

> <i_m_source_file_index>
1

> <s_epik_input>
W0NIM11bQ0gyXU9bTkhdQyg9TylbQ0BASF0oTjFbQ0hdPU8pW0NIMl1bQ0gyXVtDQEhdKFtDSDJdMSlbTkgyK11PUyg9TykoPU8pW09IXQ==

> <s_epik_cmdline>
J2VwaWtfYXBwJywgJy1pbWFlJywgJ2xpZ2FuZF9wcm8ubWFlJywgJy1vbWFlJywgJ2xpZ2FuZF9wcmVwLm1hZScsICctbXMnLCAnMScsICctcGgnLCAnNycsICctcGh0JywgJzAuNScsICctbnQn

> <r_lp_tautomer_probability>
1

> <r_epik_Ionization_Penalty>
  0.0001

> <r_epik_Ionization_Penalty_Charging>
  0.0000

> <r_epik_Ionization_Penalty_Neutral>
  0.0001

> <r_epik_State_Penalty>
 -0.0000

> <r_epik_Charging_Adjusted_Penalty>
3.53992251514839e-10

> <i_epik_Tot_Q>
-1

> <i_epik_Tot_abs_Q>
1

> <s_epik_Chemistry_Notes>
This compound has a N-S or N-O group and may undergo hydrolysis at high or low pH.

$$$$
