4x6h_ligand
                    3D
 Schrodinger Suite 2020-3.
 78 80  0  0  1  0            999 V2000
   15.5370    6.0130  -20.6170 C   0  0  0  0  0  0
   16.5380    4.9450  -21.1350 C   0  0  0  0  0  0
   16.5360    3.7340  -20.2560 C   0  0  0  0  0  0
   16.8660    4.1320  -18.7820 C   0  0  0  0  0  0
   11.8900    8.1010  -17.4240 C   0  0  0  0  0  0
   12.7970    8.6080  -18.5030 C   0  0  0  0  0  0
   10.8890    8.7890  -16.8400 N   0  0  0  0  0  0
   15.9710    5.2230  -18.2860 C   0  0  0  0  0  0
   15.3280    8.0610  -17.5490 O   0  0  0  0  0  0
   14.9620    7.4260  -18.5490 C   0  0  0  0  0  0
   15.9320    6.4440  -19.1960 C   0  0  0  0  0  0
   17.4970    8.2540  -19.8020 C   0  0  0  0  0  0
   18.7770    8.9410  -19.5000 C   0  0  0  0  0  0
   18.8600   10.2960  -19.7640 C   0  0  0  0  0  0
   19.9960   10.9570  -19.4120 C   0  0  0  0  0  0
   21.0870   10.3550  -18.8210 C   0  0  0  0  0  0
   21.0380    8.9780  -18.6060 C   0  0  0  0  0  0
   19.8830    8.2760  -18.9380 C   0  0  0  0  0  0
   16.6130    8.8210  -20.4580 O   0  0  0  0  0  0
   13.7550    7.5970  -19.0840 N   0  0  0  0  0  0
   17.2640    7.0690  -19.1880 N   0  0  0  0  0  0
   22.2280   11.1170  -18.4420 N   0  0  0  0  0  0
   20.0730   12.3090  -19.6570 F   0  0  0  0  0  0
   15.9330    6.4410  -19.1960 C   0  0  0  0  0  0
   15.9720    5.2200  -18.2860 C   0  0  0  0  0  0
   16.8670    4.1290  -18.7820 C   0  0  0  0  0  0
   16.5370    3.7310  -20.2560 C   0  0  0  0  0  0
   16.5390    4.9420  -21.1350 C   0  0  0  0  0  0
   15.5380    6.0100  -20.6170 C   0  0  0  0  0  0
   17.2650    7.0660  -19.1880 N   0  0  0  0  0  0
   17.4980    8.2510  -19.8020 C   0  0  0  0  0  0
   16.6140    8.8180  -20.4580 O   0  0  0  0  0  0
   18.7780    8.9380  -19.5000 C   0  0  0  0  0  0
   18.8610   10.2930  -19.7640 C   0  0  0  0  0  0
   19.9970   10.9540  -19.4120 C   0  0  0  0  0  0
   21.0880   10.3520  -18.8210 C   0  0  0  0  0  0
   21.0390    8.9750  -18.6060 C   0  0  0  0  0  0
   19.8840    8.2730  -18.9380 C   0  0  0  0  0  0
   22.2290   11.1140  -18.4420 N   0  0  0  0  0  0
   20.0740   12.3060  -19.6570 F   0  0  0  0  0  0
   15.5573    6.8881  -21.2831 H   0  0  0  0  0  0
   14.5227    5.5877  -20.6011 H   0  0  0  0  0  0
   16.2552    4.6409  -22.1536 H   0  0  0  0  0  0
   17.5529    5.3691  -21.1474 H   0  0  0  0  0  0
   15.5435    3.2608  -20.2861 H   0  0  0  0  0  0
   17.2933    3.0205  -20.6130 H   0  0  0  0  0  0
   16.7374    3.2567  -18.1283 H   0  0  0  0  0  0
   17.9060    4.4851  -18.7216 H   0  0  0  0  0  0
   12.0121    7.0780  -17.0385 H   0  0  0  0  0  0
   12.7370    9.6586  -18.8233 H   0  0  0  0  0  0
   10.6785    9.8232  -17.1499 H   0  0  0  0  0  0
   14.9419    4.8436  -18.2028 H   0  0  0  0  0  0
   16.3180    5.5614  -17.2985 H   0  0  0  0  0  0
   18.0344   10.8223  -20.2430 H   0  0  0  0  0  0
   21.8961    8.4565  -18.1820 H   0  0  0  0  0  0
   19.8345    7.2015  -18.7612 H   0  0  0  0  0  0
   13.4578    6.9952  -19.9555 H   0  0  0  0  0  0
   18.1011    6.5733  -18.6746 H   0  0  0  0  0  0
   22.2483   12.2024  -18.6197 H   0  0  0  0  0  0
   23.0894   10.6205  -17.9715 H   0  0  0  0  0  0
   15.2189    7.1924  -18.8280 H   0  0  0  0  0  0
   16.3365    5.5157  -17.2911 H   0  0  0  0  0  0
   14.9603    4.7978  -18.1953 H   0  0  0  0  0  0
   17.9132    4.4664  -18.7420 H   0  0  0  0  0  0
   16.7446    3.2380  -18.1487 H   0  0  0  0  0  0
   17.2931    3.0209  -20.6221 H   0  0  0  0  0  0
   15.5432    3.2610  -20.2952 H   0  0  0  0  0  0
   17.5469    5.3824  -21.1501 H   0  0  0  0  0  0
   16.2492    4.6542  -22.1564 H   0  0  0  0  0  0
   14.5241    5.5837  -20.6023 H   0  0  0  0  0  0
   15.5586    6.8842  -21.2844 H   0  0  0  0  0  0
   18.1021    6.5703  -18.6746 H   0  0  0  0  0  0
   18.0354   10.8193  -20.2430 H   0  0  0  0  0  0
   21.8971    8.4535  -18.1820 H   0  0  0  0  0  0
   19.8355    7.1985  -18.7612 H   0  0  0  0  0  0
   22.2493   12.1994  -18.6197 H   0  0  0  0  0  0
   23.0904   10.6175  -17.9715 H   0  0  0  0  0  0
   10.2825    8.3163  -16.0534 H   0  0  0  0  0  0
  1  2  1  0  0  0
  1 11  1  0  0  0
  1 41  1  0  0  0
  1 42  1  0  0  0
  2  3  1  0  0  0
  2 43  1  0  0  0
  2 44  1  0  0  0
  3  4  1  0  0  0
  3 45  1  0  0  0
  3 46  1  0  0  0
  4  8  1  0  0  0
  4 47  1  0  0  0
  4 48  1  0  0  0
  5  6  2  0  0  0
  5  7  1  0  0  0
  5 49  1  0  0  0
  6 20  1  0  0  0
  6 50  1  0  0  0
  7 51  1  0  0  0
  7 78  1  0  0  0
  8 11  1  0  0  0
  8 52  1  0  0  0
  8 53  1  0  0  0
  9 10  2  0  0  0
 10 11  1  0  0  0
 10 20  1  0  0  0
 11 21  1  0  0  0
 12 13  1  0  0  0
 12 19  2  0  0  0
 12 21  1  0  0  0
 13 14  2  0  0  0
 13 18  1  0  0  0
 14 15  1  0  0  0
 14 54  1  0  0  0
 15 16  2  0  0  0
 15 23  1  0  0  0
 16 17  1  0  0  0
 16 22  1  0  0  0
 17 18  2  0  0  0
 17 55  1  0  0  0
 18 56  1  0  0  0
 20 57  1  0  0  0
 21 58  1  0  0  0
 22 59  1  0  0  0
 22 60  1  0  0  0
 24 25  1  0  0  0
 24 29  1  0  0  0
 24 30  1  0  0  0
 24 61  1  0  0  0
 25 26  1  0  0  0
 25 62  1  0  0  0
 25 63  1  0  0  0
 26 27  1  0  0  0
 26 64  1  0  0  0
 26 65  1  0  0  0
 27 28  1  0  0  0
 27 66  1  0  0  0
 27 67  1  0  0  0
 28 29  1  0  0  0
 28 68  1  0  0  0
 28 69  1  0  0  0
 29 70  1  0  0  0
 29 71  1  0  0  0
 30 31  1  0  0  0
 30 72  1  0  0  0
 31 32  2  0  0  0
 31 33  1  0  0  0
 33 34  2  0  0  0
 33 38  1  0  0  0
 34 35  1  0  0  0
 34 73  1  0  0  0
 35 36  2  0  0  0
 35 40  1  0  0  0
 36 37  1  0  0  0
 36 39  1  0  0  0
 37 38  2  0  0  0
 37 74  1  0  0  0
 38 75  1  0  0  0
 39 76  1  0  0  0
 39 77  1  0  0  0
M  END
> <s_m_source_file>
../4x6h_ligand.sdf

> <i_m_source_file_index>
1

> <s_epik_input>
W0hdL049W0NIXVxbQ0gyXVtOSF1DKD1PKUMxKFtDSDJdW0NIMl1bQ0gyXVtDSDJdW0NIMl0xKVtOSF1DKD1PKWMyW2NIXWMoRiljKFtOSDJdKVtjSF1bY0hdMi5bQ0gyXTNbQ0gyXVtDSDJdW0NIMl1bQ0gyXVtDSF0zW05IXUMoPU8pYzRbY0hdYyhGKWMoW05IMl0pW2NIXVtjSF00

> <s_epik_cmdline>
J2VwaWtfYXBwJywgJy1pbWFlJywgJ2xpZ2FuZF9wcm8ubWFlJywgJy1vbWFlJywgJ2xpZ2FuZF9wcmVwLm1hZScsICctbXMnLCAnMScsICctcGgnLCAnNycsICctcGh0JywgJzAuNScsICctbnQn

> <r_lp_tautomer_probability>
1

> <r_epik_Ionization_Penalty>
  0.0003

> <r_epik_Ionization_Penalty_Charging>
  0.0002

> <r_epik_Ionization_Penalty_Neutral>
  0.0000

> <r_epik_State_Penalty>
 -0.0000

> <r_epik_Charging_Adjusted_Penalty>
0.000211963090142489

> <i_epik_Tot_Q>
0

> <i_epik_Tot_abs_Q>
0

> <s_epik_Chemistry_Notes>
This compound has an imine and may undergo hydrolysis.

$$$$
