4x6i_ligand
                    3D
 Schrodinger Suite 2020-3.
 42 43  0  0  1  0            999 V2000
   13.3410   10.1500  -19.1330 C   0  0  0  0  0  0
   13.0860    8.7350  -18.9810 C   0  0  0  0  0  0
   15.2850    7.6420  -18.9350 C   0  0  0  0  0  0
   16.2080    6.5710  -19.5510 C   0  0  0  0  0  0
   16.8330    4.0990  -19.1030 C   0  0  0  0  0  0
   16.5320    3.7670  -20.5630 C   0  0  0  0  0  0
   16.7430    4.9760  -21.4780 C   0  0  0  0  0  0
   15.8360    6.1350  -20.9890 C   0  0  0  0  0  0
   17.9830    8.2220  -20.1330 C   0  0  0  0  0  0
   19.2790    8.7300  -19.5760 C   0  0  0  0  0  0
   19.5300   10.0910  -19.4980 C   0  0  0  0  0  0
   20.1800    7.8170  -18.9730 C   0  0  0  0  0  0
   13.5730   11.2690  -19.2180 N   0  0  0  0  0  0
   14.1110    7.8830  -19.5270 N   0  0  0  0  0  0
   15.5760    8.2170  -17.8780 O   0  0  0  0  0  0
   16.0520    5.3510  -18.6370 C   0  0  0  0  0  0
   17.6020    7.0350  -19.5680 N   0  0  0  0  0  0
   17.1900    8.9500  -20.7880 O   0  0  0  0  0  0
   20.6580   10.5420  -18.8500 C   0  0  0  0  0  0
   21.5280    9.6410  -18.2460 C   0  0  0  0  0  0
   21.3190    8.2690  -18.3020 C   0  0  0  0  0  0
   18.7040   11.1380  -20.0750 N   0  0  0  0  0  0
   23.0140   10.3880  -17.3230 Br  0  0  0  0  0  0
   13.0018    8.4904  -17.9119 H   0  0  0  0  0  0
   12.1472    8.4747  -19.4917 H   0  0  0  0  0  0
   16.5435    3.2497  -18.4667 H   0  0  0  0  0  0
   17.9091    4.2948  -18.9858 H   0  0  0  0  0  0
   17.1982    2.9592  -20.9002 H   0  0  0  0  0  0
   15.4852    3.4422  -20.6569 H   0  0  0  0  0  0
   17.7978    5.2855  -21.4392 H   0  0  0  0  0  0
   16.4782    4.7050  -22.5107 H   0  0  0  0  0  0
   14.7904    5.7941  -21.0098 H   0  0  0  0  0  0
   15.9574    6.9874  -21.6736 H   0  0  0  0  0  0
   19.9814    6.7470  -19.0337 H   0  0  0  0  0  0
   13.9521    7.3810  -20.4928 H   0  0  0  0  0  0
   16.4158    5.5992  -17.6290 H   0  0  0  0  0  0
   14.9909    5.0658  -18.5840 H   0  0  0  0  0  0
   18.3921    6.4194  -19.1133 H   0  0  0  0  0  0
   20.8700   11.6104  -18.8103 H   0  0  0  0  0  0
   22.0173    7.5712  -17.8398 H   0  0  0  0  0  0
   17.7810   10.8765  -20.6132 H   0  0  0  0  0  0
   19.0017   12.1921  -19.9736 H   0  0  0  0  0  0
  1  2  1  0  0  0
  1 13  3  0  0  0
  2 14  1  0  0  0
  2 24  1  0  0  0
  2 25  1  0  0  0
  3  4  1  0  0  0
  3 14  1  0  0  0
  3 15  2  0  0  0
  4  8  1  0  0  0
  4 16  1  0  0  0
  4 17  1  0  0  0
  5  6  1  0  0  0
  5 16  1  0  0  0
  5 26  1  0  0  0
  5 27  1  0  0  0
  6  7  1  0  0  0
  6 28  1  0  0  0
  6 29  1  0  0  0
  7  8  1  0  0  0
  7 30  1  0  0  0
  7 31  1  0  0  0
  8 32  1  0  0  0
  8 33  1  0  0  0
  9 10  1  0  0  0
  9 17  1  0  0  0
  9 18  2  0  0  0
 10 11  2  0  0  0
 10 12  1  0  0  0
 11 19  1  0  0  0
 11 22  1  0  0  0
 12 21  2  0  0  0
 12 34  1  0  0  0
 14 35  1  0  0  0
 16 36  1  0  0  0
 16 37  1  0  0  0
 17 38  1  0  0  0
 19 20  2  0  0  0
 19 39  1  0  0  0
 20 21  1  0  0  0
 20 23  1  0  0  0
 21 40  1  0  0  0
 22 41  1  0  0  0
 22 42  1  0  0  0
M  END
> <s_m_source_file>
../4x6i_ligand.sdf

> <i_m_source_file_index>
1

> <s_epik_input>
TiNDW0NIMl1bTkhdQyg9TylDMShbQ0gyXVtDSDJdW0NIMl1bQ0gyXVtDSDJdMSlbTkhdQyg9TyljMmMoW05IMl0pW2NIXWMoQnIpW2NIXVtjSF0y

> <s_epik_cmdline>
J2VwaWtfYXBwJywgJy1pbWFlJywgJ2xpZ2FuZF9wcm8ubWFlJywgJy1vbWFlJywgJ2xpZ2FuZF9wcmVwLm1hZScsICctbXMnLCAnMScsICctcGgnLCAnNycsICctcGh0JywgJzAuNScsICctbnQn

> <r_lp_tautomer_probability>
1

> <r_epik_Ionization_Penalty>
  0.0000

> <r_epik_Ionization_Penalty_Charging>
  0.0000

> <r_epik_Ionization_Penalty_Neutral>
  0.0000

> <r_epik_State_Penalty>
 -0.0000

> <r_epik_Charging_Adjusted_Penalty>
0

> <i_epik_Tot_Q>
0

> <i_epik_Tot_abs_Q>
0

$$$$
