4x6j_ligand
                    3D
 Schrodinger Suite 2020-3.
 44 45  0  0  1  0            999 V2000
   48.7580   19.4740   10.8110 C   0  0  0  0  0  0
   49.2910   20.7170   11.5170 C   0  0  0  0  0  0
   50.1110   20.2860   13.8040 C   0  0  0  0  0  0
   51.2260   20.0250   14.7780 C   0  0  0  0  0  0
   51.4150   18.4970   14.9600 C   0  0  0  0  0  0
   52.6530   18.0780   15.7960 C   0  0  0  0  0  0
   53.8380   18.9690   15.4450 C   0  0  0  0  0  0
   53.5410   20.4830   15.4640 C   0  0  0  0  0  0
   52.5470   20.6570   14.3540 C   0  0  0  0  0  0
   50.5070   21.9120   16.1640 C   0  0  0  0  0  0
   50.3760   20.5580   12.4840 N   0  0  0  0  0  0
   48.0320   19.6910    9.7790 N   0  0  0  0  0  0
   48.9520   20.2480   14.1770 O   0  0  0  0  0  0
   50.8030   20.5920   16.0300 N   0  0  0  0  0  0
   50.6130   22.7600   15.2360 O   0  0  0  0  0  0
   49.7900   22.2800   17.4000 C   0  0  0  0  0  0
   48.8870   23.3310   17.4780 C   0  0  0  0  0  0
   48.1280   23.5500   18.6230 C   0  0  0  0  0  0
   48.2630   22.6850   19.6760 C   0  0  0  0  0  0
   49.1510   21.6440   19.6220 C   0  0  0  0  0  0
   49.8790   21.4270   18.4640 C   0  0  0  0  0  0
   48.6870   24.2940   16.4270 N   0  0  0  0  0  0
   47.3010   22.8740   21.1710 Cl  0  0  0  0  0  0
   49.0053   18.4739   11.1966 H   0  0  0  0  0  0
   48.8594   21.7039   11.2938 H   0  0  0  0  0  0
   50.5361   18.0772   15.4711 H   0  0  0  0  0  0
   51.5279   18.0215   13.9745 H   0  0  0  0  0  0
   52.4244   18.1818   16.8670 H   0  0  0  0  0  0
   52.9072   17.0308   15.5752 H   0  0  0  0  0  0
   54.6516   18.7977   16.1653 H   0  0  0  0  0  0
   54.1896   18.7288   14.4308 H   0  0  0  0  0  0
   53.1281   20.7634   16.4443 H   0  0  0  0  0  0
   54.4716   21.0415   15.2848 H   0  0  0  0  0  0
   52.9141   20.1626   13.4425 H   0  0  0  0  0  0
   52.3937   21.7277   14.1539 H   0  0  0  0  0  0
   51.4220   20.6560   12.1580 H   0  0  0  0  0  0
   47.8298   20.7228    9.4558 H   0  0  0  0  0  0
   50.7099   19.9523   16.9200 H   0  0  0  0  0  0
   47.4397   24.3932   18.6809 H   0  0  0  0  0  0
   49.2839   20.9907   20.4844 H   0  0  0  0  0  0
   50.5355   20.5593   18.4000 H   0  0  0  0  0  0
   49.2445   24.2019   15.4832 H   0  0  0  0  0  0
   47.9766   25.1220   16.5676 H   0  0  0  0  0  0
   47.6104   18.8456    9.2155 H   0  0  0  0  0  0
  1  2  2  0  0  0
  1 12  1  0  0  0
  1 24  1  0  0  0
  2 11  1  0  0  0
  2 25  1  0  0  0
  3  4  1  0  0  0
  3 11  1  0  0  0
  3 13  2  0  0  0
  4  5  1  0  0  0
  4  9  1  0  0  0
  4 14  1  0  0  0
  5  6  1  0  0  0
  5 26  1  0  0  0
  5 27  1  0  0  0
  6  7  1  0  0  0
  6 28  1  0  0  0
  6 29  1  0  0  0
  7  8  1  0  0  0
  7 30  1  0  0  0
  7 31  1  0  0  0
  8  9  1  0  0  0
  8 32  1  0  0  0
  8 33  1  0  0  0
  9 34  1  0  0  0
  9 35  1  0  0  0
 10 14  1  0  0  0
 10 15  2  0  0  0
 10 16  1  0  0  0
 11 36  1  0  0  0
 12 37  1  0  0  0
 12 44  1  0  0  0
 14 38  1  0  0  0
 16 17  2  0  0  0
 16 21  1  0  0  0
 17 18  1  0  0  0
 17 22  1  0  0  0
 18 19  2  0  0  0
 18 39  1  0  0  0
 19 20  1  0  0  0
 19 23  1  0  0  0
 20 21  2  0  0  0
 20 40  1  0  0  0
 21 41  1  0  0  0
 22 42  1  0  0  0
 22 43  1  0  0  0
M  END
> <s_m_source_file>
../4x6j_ligand.sdf

> <i_m_source_file_index>
1

> <s_epik_input>
W0hdL049W0NIXVxbQ0gyXVtOSF1DKD1PKUMxKFtDSDJdW0NIMl1bQ0gyXVtDSDJdW0NIMl0xKVtOSF1DKD1PKWMyYyhbTkgyXSlbY0hdYyhDbClbY0hdW2NIXTI=

> <s_epik_cmdline>
J2VwaWtfYXBwJywgJy1pbWFlJywgJ2xpZ2FuZF9wcm8ubWFlJywgJy1vbWFlJywgJ2xpZ2FuZF9wcmVwLm1hZScsICctbXMnLCAnMScsICctcGgnLCAnNycsICctcGh0JywgJzAuNScsICctbnQn

> <r_lp_tautomer_probability>
1

> <r_epik_Ionization_Penalty>
  0.0003

> <r_epik_Ionization_Penalty_Charging>
  0.0002

> <r_epik_Ionization_Penalty_Neutral>
  0.0001

> <r_epik_State_Penalty>
 -0.0000

> <r_epik_Charging_Adjusted_Penalty>
0.000211963090142489

> <i_epik_Tot_Q>
0

> <i_epik_Tot_abs_Q>
0

> <s_epik_Chemistry_Notes>
This compound has an imine and may undergo hydrolysis.

$$$$
