4x6m_ligand
                    3D
 Schrodinger Suite 2020-3.
 64 68  0  0  1  0            999 V2000
   45.3510  -22.3060   32.1490 C   0  0  0  0  0  0
   46.7930  -20.8880   30.8400 C   0  0  0  0  0  0
   46.6230  -21.7880   31.9100 C   0  0  0  0  0  0
   47.9760  -21.9750   32.4300 C   0  0  3  0  0  0
   40.5490  -23.9600   27.4750 C   0  0  0  0  0  0
   39.7890  -23.2030   28.3520 C   0  0  0  0  0  0
   39.6990  -23.6230   29.6750 C   0  0  0  0  0  0
   40.4180  -24.7160   30.1240 C   0  0  0  0  0  0
   44.4760  -21.0920   30.2490 C   0  0  0  0  0  0
   45.7280  -20.5220   30.0220 C   0  0  0  0  0  0
   35.0380  -14.3760   28.9740 C   0  0  0  0  0  0
   39.2560  -21.8530   27.9320 C   0  0  0  0  0  0
   35.6470  -13.3280   28.3230 C   0  0  0  0  0  0
   37.3390  -17.2730   28.2460 C   0  0  0  0  0  0
   38.5580  -17.3230   29.0350 N   0  0  0  0  0  0
   39.7960  -20.7180   28.8200 C   0  0  2  0  0  0
   39.2220  -19.4330   28.4640 N   0  0  0  0  0  0
   41.2900  -20.6570   28.7990 C   0  0  0  0  0  0
   42.0180  -20.3760   27.6470 N   0  0  0  0  0  0
   43.3330  -20.4860   28.0070 C   0  0  3  0  0  0
   43.3520  -20.8080   29.3380 C   0  0  0  0  0  0
   42.0680  -20.9080   29.8260 N   0  0  0  0  0  0
   44.5870  -20.2590   26.8710 Cl  0  0  0  0  0  0
   44.2970  -21.9720   31.3200 C   0  0  0  0  0  0
   48.1190  -20.5920   30.7760 N   0  0  0  0  0  0
   48.8500  -21.2560   31.7310 N   0  3  0  0  0  0
   48.3430  -22.7090   33.4930 N   0  0  0  0  0  0
   41.2120  -25.4240   29.2540 C   0  0  0  0  0  0
   41.2680  -25.0550   27.9270 C   0  0  0  0  0  0
   39.1160  -18.4800   29.4280 C   0  0  0  0  0  0
   39.5680  -18.6330   30.5600 O   0  0  0  0  0  0
   36.7220  -15.9050   28.2120 C   0  0  0  0  0  0
   37.3630  -14.8440   27.5360 C   0  0  0  0  0  0
   36.8150  -13.5660   27.6130 C   0  0  0  0  0  0
   35.5520  -15.6490   28.9190 C   0  0  0  0  0  0
   33.6180  -14.0840   29.9390 Cl  0  0  0  0  0  0
   38.6330  -15.0200   26.7240 C   0  0  0  0  0  0
   38.3880  -15.2720   25.2820 N   0  3  0  0  0  0
   45.1873  -22.9767   32.9925 H   0  0  0  0  0  0
   40.5817  -23.6916   26.4191 H   0  0  0  0  0  0
   39.0530  -23.0833   30.3675 H   0  0  0  0  0  0
   40.3547  -25.0163   31.1699 H   0  0  0  0  0  0
   45.8705  -19.8013   29.2168 H   0  0  0  0  0  0
   39.5545  -21.6479   26.8933 H   0  0  0  0  0  0
   38.1584  -21.8533   28.0048 H   0  0  0  0  0  0
   35.2186  -12.3266   28.3644 H   0  0  0  0  0  0
   37.5609  -17.5667   27.2094 H   0  0  0  0  0  0
   36.5976  -17.9648   28.6724 H   0  0  0  0  0  0
   39.0592  -16.3901   29.3326 H   0  0  0  0  0  0
   39.4835  -20.8915   29.8603 H   0  0  0  0  0  0
   38.8844  -19.2479   27.4336 H   0  0  0  0  0  0
   43.3120  -22.4010   31.5040 H   0  0  0  0  0  0
   47.5907  -23.2907   34.0459 H   0  0  0  0  0  0
   49.3959  -22.7286   33.8108 H   0  0  0  0  0  0
   41.7946  -26.2731   29.6115 H   0  0  0  0  0  0
   41.8806  -25.6271   27.2301 H   0  0  0  0  0  0
   37.3122  -12.7386   27.1068 H   0  0  0  0  0  0
   35.0399  -16.4629   29.4324 H   0  0  0  0  0  0
   39.2448  -14.1089   26.7982 H   0  0  0  0  0  0
   39.2021  -15.8766   27.1144 H   0  0  0  0  0  0
   39.3501  -15.3884   24.7615 H   0  0  0  0  0  0
   37.8376  -14.4233   24.8498 H   0  0  0  0  0  0
   37.7948  -16.1910   25.1660 H   0  0  0  0  0  0
   49.9401  -21.1187   31.7832 H   0  0  0  0  0  0
  1  3  2  0  0  0
  1 24  1  0  0  0
  1 39  1  0  0  0
  2  3  1  0  0  0
  2 10  2  0  0  0
  2 25  1  0  0  0
  3  4  1  0  0  0
  4 26  1  0  0  0
  4 27  1  0  0  0
  5  6  2  0  0  0
  5 29  1  0  0  0
  5 40  1  0  0  0
  6  7  1  0  0  0
  6 12  1  0  0  0
  7  8  2  0  0  0
  7 41  1  0  0  0
  8 28  1  0  0  0
  8 42  1  0  0  0
  9 10  1  0  0  0
  9 21  1  0  0  0
  9 24  2  0  0  0
 10 43  1  0  0  0
 11 13  2  0  0  0
 11 35  1  0  0  0
 11 36  1  0  0  0
 12 16  1  0  0  0
 12 44  1  0  0  0
 12 45  1  0  0  0
 13 34  1  0  0  0
 13 46  1  0  0  0
 14 15  1  0  0  0
 14 32  1  0  0  0
 14 47  1  0  0  0
 14 48  1  0  0  0
 15 30  1  0  0  0
 15 49  1  0  0  0
 16 17  1  0  0  0
 16 18  1  0  0  0
 16 50  1  0  0  0
 17 30  1  0  0  0
 17 51  1  0  0  0
 18 19  2  0  0  0
 18 22  1  0  0  0
 19 20  1  0  0  0
 20 21  1  0  0  0
 20 23  1  0  0  0
 21 22  2  0  0  0
 24 52  1  0  0  0
 25 26  2  0  0  0
 26 64  1  0  0  0
 27 53  1  0  0  0
 27 54  1  0  0  0
 28 29  2  0  0  0
 28 55  1  0  0  0
 29 56  1  0  0  0
 30 31  2  0  0  0
 32 33  1  0  0  0
 32 35  2  0  0  0
 33 34  2  0  0  0
 33 37  1  0  0  0
 34 57  1  0  0  0
 35 58  1  0  0  0
 37 38  1  0  0  0
 37 59  1  0  0  0
 37 60  1  0  0  0
 38 61  1  0  0  0
 38 62  1  0  0  0
 38 63  1  0  0  0
M  CHG  2  26   1  38   1
M  END
> <s_m_source_file>
../4x6m_ligand.sdf

> <i_m_source_file_index>
1

> <s_epik_input>
TjE9TltDSF0oW05IMl0pYyhjMTIpW2NIXVtjSF1jKFtjSF0yKUMoPU4zKVtDSF0oQ2wpTj1DM1tDQEhdKFtDSDJdYzRbY0hdW2NIXVtjSF1bY0hdW2NIXTQpW05IXUMoPU8pW05IXVtDSDJdYyhbY0hdNSljKFtDSDJdW05IMytdKVtjSF1bY0hdYzVDbA==

> <s_epik_cmdline>
J2VwaWtfYXBwJywgJy1pbWFlJywgJ2xpZ2FuZF9wcm8ubWFlJywgJy1vbWFlJywgJ2xpZ2FuZF9wcmVwLm1hZScsICctbXMnLCAnMScsICctcGgnLCAnNycsICctcGh0JywgJzAuNScsICctbnQn

> <r_epik_Ionization_Penalty>
  0.0303

> <r_epik_Ionization_Penalty_Charging>
  0.0302

> <r_epik_Ionization_Penalty_Neutral>
  0.0001

> <r_epik_State_Penalty>
  0.0249

> <r_epik_Charging_Adjusted_Penalty>
0.0550412415692452

> <i_epik_Tot_Q>
2

> <i_epik_Tot_abs_Q>
2

> <s_epik_Chemistry_Notes>
This compound has an imine and may undergo hydrolysis.

$$$$
