4x6n_ligand
                    3D
 Schrodinger Suite 2020-3.
 63 68  0  0  1  0            999 V2000
   42.2440  -21.0170   29.6960 N   0  0  0  0  0  0
   43.5340  -20.9760   29.2170 C   0  0  0  0  0  0
   45.6100  -22.4350   31.9940 C   0  0  0  0  0  0
   45.8940  -20.6010   29.8880 C   0  0  0  0  0  0
   44.6540  -21.1820   30.1540 C   0  0  0  0  0  0
   44.5170  -22.0760   31.2240 C   0  0  0  0  0  0
   39.2750  -18.6130   29.2590 C   0  0  0  0  0  0
   37.5920  -17.3520   27.9170 C   0  0  0  0  0  0
   36.9180  -15.9940   27.9020 C   0  0  0  0  0  0
   43.5240  -20.7600   27.8810 C   0  0  3  0  0  0
   35.6930  -13.4720   27.9530 C   0  0  0  0  0  0
   40.7960  -24.1520   27.4170 C   0  0  0  0  0  0
   40.0070  -23.3810   28.2610 C   0  0  0  0  0  0
   39.8240  -23.8150   29.5680 C   0  0  0  0  0  0
   40.4590  -24.9540   30.0360 C   0  0  0  0  0  0
   41.2580  -25.6960   29.1960 C   0  0  0  0  0  0
   41.4190  -25.2990   27.8810 C   0  0  0  0  0  0
   39.4860  -22.0340   27.8090 C   0  0  0  0  0  0
   39.9830  -20.8730   28.6890 C   0  0  2  0  0  0
   39.3640  -19.6040   28.3140 N   0  0  0  0  0  0
   41.4790  -20.8210   28.6440 C   0  0  0  0  0  0
   42.2030  -20.6550   27.5070 N   0  0  0  0  0  0
   44.7810  -20.6060   26.7500 Cl  0  0  0  0  0  0
   38.6810  -17.4510   28.8860 N   0  0  0  0  0  0
   39.7780  -18.7450   30.3790 O   0  0  0  0  0  0
   37.4050  -14.9500   27.0960 C   0  0  0  0  0  0
   36.7900  -13.6950   27.1330 C   0  0  0  0  0  0
   35.2130  -14.5110   28.7250 C   0  0  0  0  0  0
   35.8140  -15.7530   28.7150 C   0  0  0  0  0  0
   33.7810  -14.2700   29.7020 Cl  0  0  0  0  0  0
   38.5550  -15.1180   26.2590 N   0  0  0  0  0  0
   38.7170  -15.0860   24.9260 C   0  0  0  0  0  0
   39.9560  -15.3660   24.6260 N   0  0  0  0  0  0
   40.5820  -15.5730   25.8130 N   0  0  0  0  0  0
   39.7600  -15.4170   26.8040 N   0  0  0  0  0  0
   46.8730  -21.9220   31.6990 C   0  0  0  0  0  0
   46.9960  -21.0060   30.6350 C   0  0  0  0  0  0
   48.3200  -20.7210   30.5150 N   0  3  0  0  0  0
   49.0680  -21.3840   31.4470 N   0  0  0  0  0  0
   48.2430  -22.1210   32.1920 C   0  0  0  0  0  0
   48.6770  -22.8550   33.2210 N   0  0  0  0  0  0
   45.4833  -23.1199   32.8324 H   0  0  0  0  0  0
   45.9977  -19.8445   29.1102 H   0  0  0  0  0  0
   43.5369  -22.4944   31.4532 H   0  0  0  0  0  0
   36.8527  -18.1255   28.1722 H   0  0  0  0  0  0
   38.0148  -17.5625   26.9236 H   0  0  0  0  0  0
   35.2177  -12.4917   27.9871 H   0  0  0  0  0  0
   40.9265  -23.8510   26.3775 H   0  0  0  0  0  0
   39.1715  -23.2513   30.2348 H   0  0  0  0  0  0
   40.3254  -25.2634   31.0726 H   0  0  0  0  0  0
   41.7604  -26.5903   29.5647 H   0  0  0  0  0  0
   42.0384  -25.8909   27.2071 H   0  0  0  0  0  0
   39.8184  -21.8393   26.7787 H   0  0  0  0  0  0
   38.3866  -22.0350   27.8456 H   0  0  0  0  0  0
   39.6765  -21.0020   29.7375 H   0  0  0  0  0  0
   38.9816  -19.4591   27.2928 H   0  0  0  0  0  0
   39.0731  -16.5430   29.3674 H   0  0  0  0  0  0
   37.1752  -12.8855   26.5130 H   0  0  0  0  0  0
   35.4222  -16.5498   29.3472 H   0  0  0  0  0  0
   37.9323  -14.8603   24.2039 H   0  0  0  0  0  0
   47.9646  -23.4497   33.8115 H   0  0  0  0  0  0
   49.7466  -22.8644   33.4774 H   0  0  0  0  0  0
   48.8096  -20.0544   29.7897 H   0  0  0  0  0  0
  1  2  2  0  0  0
  1 21  1  0  0  0
  2  5  1  0  0  0
  2 10  1  0  0  0
  3  6  2  0  0  0
  3 36  1  0  0  0
  3 42  1  0  0  0
  4  5  2  0  0  0
  4 37  1  0  0  0
  4 43  1  0  0  0
  5  6  1  0  0  0
  6 44  1  0  0  0
  7 20  1  0  0  0
  7 24  1  0  0  0
  7 25  2  0  0  0
  8  9  1  0  0  0
  8 24  1  0  0  0
  8 45  1  0  0  0
  8 46  1  0  0  0
  9 26  2  0  0  0
  9 29  1  0  0  0
 10 22  1  0  0  0
 10 23  1  0  0  0
 11 27  2  0  0  0
 11 28  1  0  0  0
 11 47  1  0  0  0
 12 13  2  0  0  0
 12 17  1  0  0  0
 12 48  1  0  0  0
 13 14  1  0  0  0
 13 18  1  0  0  0
 14 15  2  0  0  0
 14 49  1  0  0  0
 15 16  1  0  0  0
 15 50  1  0  0  0
 16 17  2  0  0  0
 16 51  1  0  0  0
 17 52  1  0  0  0
 18 19  1  0  0  0
 18 53  1  0  0  0
 18 54  1  0  0  0
 19 20  1  0  0  0
 19 21  1  0  0  0
 19 55  1  0  0  0
 20 56  1  0  0  0
 21 22  2  0  0  0
 24 57  1  0  0  0
 26 27  1  0  0  0
 26 31  1  0  0  0
 27 58  1  0  0  0
 28 29  2  0  0  0
 28 30  1  0  0  0
 29 59  1  0  0  0
 31 32  1  0  0  0
 31 35  1  0  0  0
 32 33  2  0  0  0
 32 60  1  0  0  0
 33 34  1  0  0  0
 34 35  2  0  0  0
 36 37  2  0  0  0
 36 40  1  0  0  0
 37 38  1  0  0  0
 38 39  1  0  0  0
 38 63  1  0  0  0
 39 40  2  0  0  0
 40 41  1  0  0  0
 41 61  1  0  0  0
 41 62  1  0  0  0
M  CHG  1  38   1
M  END
> <s_m_source_file>
../4x6n_ligand.sdf

> <i_m_source_file_index>
1

> <s_epik_input>
W05IMl1jMW5bbkhdYyhjMTIpW2NIXWMoW2NIXVtjSF0yKUMzPU5DKD1OW0NIXTNDbClbQ0BIXShbQ0gyXWM0W2NIXVtjSF1bY0hdW2NIXVtjSF00KVtOSF1DKD1PKVtOSF1bQ0gyXWM1YyhbY0hdW2NIXWMoQ2wpW2NIXTUpLW42W2NIXW5ubjY=

> <s_epik_cmdline>
J2VwaWtfYXBwJywgJy1pbWFlJywgJ2xpZ2FuZF9wcm8ubWFlJywgJy1vbWFlJywgJ2xpZ2FuZF9wcmVwLm1hZScsICctbXMnLCAnMScsICctcGgnLCAnNycsICctcGh0JywgJzAuNScsICctbnQn

> <r_lp_tautomer_probability>
1

> <r_epik_Ionization_Penalty>
  0.0001

> <r_epik_Ionization_Penalty_Charging>
  0.0000

> <r_epik_Ionization_Penalty_Neutral>
  0.0001

> <r_epik_State_Penalty>
 -0.0000

> <r_epik_Charging_Adjusted_Penalty>
0

> <i_epik_Tot_Q>
1

> <i_epik_Tot_abs_Q>
1

> <s_epik_Chemistry_Notes>
This compound has an imine and may undergo hydrolysis.

$$$$
