4x6s_ligand
                    3D
 Schrodinger Suite 2020-3.
185191  0  0  1  0            999 V2000
    4.1030   -8.1550   -2.6760 N   0  0  0  0  0  0
    3.0970   -7.3350   -2.0020 C   0  0  2  0  0  0
    3.7260   -6.4360   -0.9400 C   0  0  0  0  0  0
    4.9380   -6.4390   -0.7410 O   0  0  0  0  0  0
    2.0100   -8.2200   -1.3780 C   0  0  0  0  0  0
    2.3250   -8.8280   -0.0080 C   0  0  0  0  0  0
    1.7970   -8.4500    1.2000 C   0  0  0  0  0  0
    3.2350   -9.9010    0.2780 C   0  0  0  0  0  0
    2.3150   -9.2290    2.2170 N   0  0  0  0  0  0
    3.2000  -10.1220    1.6760 C   0  0  0  0  0  0
    4.0670  -10.6970   -0.5080 C   0  0  0  0  0  0
    3.9670  -11.1030    2.2940 C   0  0  0  0  0  0
    4.8260  -11.6700    0.1080 C   0  0  0  0  0  0
    4.7720  -11.8650    1.4950 C   0  0  0  0  0  0
    2.9030   -5.6180   -0.3060 N   0  0  0  0  0  0
    3.3360   -4.8140    0.8340 C   0  0  2  0  0  0
    2.4580   -5.1450    2.0200 C   0  0  0  0  0  0
    1.2620   -4.9030    1.9960 O   0  0  0  0  0  0
    3.2800   -3.3210    0.5100 C   0  0  0  0  0  0
    4.0840   -2.9350   -0.6990 C   0  0  0  0  0  0
    5.4630   -3.0160   -0.6850 C   0  0  0  0  0  0
    3.4600   -2.5030   -1.8560 C   0  0  0  0  0  0
    6.2000   -2.6570   -1.7960 C   0  0  0  0  0  0
    4.2000   -2.1570   -2.9810 C   0  0  0  0  0  0
    5.5680   -2.2320   -2.9450 C   0  0  0  0  0  0
    3.0430   -5.7390    3.0410 N   0  0  0  0  0  0
    2.2630   -6.1210    4.2000 C   0  0  2  0  0  0
    1.6650   -4.8330    4.7710 C   0  0  0  0  0  0
    2.3170   -3.7870    4.7670 O   0  0  0  0  0  0
    3.1320   -6.8810    5.2240 C   0  0  0  0  0  0
    2.6300   -6.8420    6.6590 C   0  0  0  0  0  0
    3.2300   -5.6740    7.4500 C   0  0  0  0  0  0
    4.4650   -5.4490    7.3550 O   0  0  0  0  0  0
    2.4600   -4.9700    8.1530 O   0  0  0  0  0  0
    0.4000   -4.8740    5.1690 N   0  0  0  0  0  0
   -0.2370   -3.6760    5.6730 C   0  0  0  0  0  0
   -1.0370   -2.9680    4.6060 C   0  0  0  0  0  0
   -1.9750   -2.2410    4.9380 O   0  0  0  0  0  0
   -0.8870   -3.2980    3.3900 N   0  0  0  0  0  0
   -1.3310   -2.5260    2.2670 C   0  0  1  0  0  0
   -0.2050   -1.6620    1.6850 C   0  0  0  0  0  0
    0.1460   -0.5060    2.6130 C   0  0  0  0  0  0
   -0.5620    0.6780    2.5550 C   0  0  0  0  0  0
   -0.2370    1.7240    3.4110 C   0  0  0  0  0  0
    1.1590   -0.6280    3.5520 C   0  0  0  0  0  0
    1.4770    0.4140    4.4130 C   0  0  0  0  0  0
    0.7770    1.6040    4.3510 C   0  0  0  0  0  0
    1.1240    2.7510    5.2850 C   0  0  0  0  0  0
   -0.0670    3.6200    5.6700 C   0  0  0  0  0  0
   -1.1720    3.1040    5.9620 O   0  0  0  0  0  0
    0.1220    4.8680    5.6980 O   0  0  0  0  0  0
   -2.0560   -3.3380    1.2530 C   0  0  0  0  0  0
   -1.7970   -4.5280    1.2090 O   0  0  0  0  0  0
   -2.7780   -3.2180    0.2150 N   0  0  0  0  0  0
   -3.5790   -4.0040   -0.7260 C   0  0  2  0  0  0
   -2.9570   -4.1690   -2.0990 C   0  0  0  0  0  0
   -3.5500   -4.8150   -2.9670 O   0  0  0  0  0  0
   -4.9630   -3.3690   -0.9030 C   0  0  0  0  0  0
   -5.8230   -3.4720    0.3410 C   0  0  0  0  0  0
   -6.3470   -4.5750    0.5890 O   0  0  0  0  0  0
   -5.9480   -2.4740    1.0850 O   0  0  0  0  0  0
   -1.7710   -3.6010   -2.2970 N   0  0  0  0  0  0
   -1.0670   -3.7300   -3.5670 C   0  0  2  0  0  0
   -0.9630   -5.1970   -3.9500 C   0  0  0  0  0  0
   -0.4420   -6.0120   -3.1930 O   0  0  0  0  0  0
    0.3350   -3.1200   -3.4790 C   0  0  0  0  0  0
    0.3110   -1.6640   -3.1030 C   0  0  0  0  0  0
   -0.1310   -1.3110   -2.0160 O   0  0  0  0  0  0
    0.8440   -0.8140   -3.9710 N   0  0  0  0  0  0
   -1.4910   -5.5120   -5.1250 N   0  0  0  0  0  0
   -1.4810   -6.8520   -5.6640 C   0  0  2  0  0  0
   -0.8460   -6.8320   -7.0520 C   0  0  0  0  0  0
   -1.4060   -6.2880   -8.0020 O   0  0  0  0  0  0
   -2.9310   -7.4330   -5.7610 C   0  0  2  0  0  0
   -3.5860   -7.3810   -4.4850 O   0  0  0  0  0  0
   -2.9240   -8.8730   -6.3010 C   0  0  0  0  0  0
    0.3170   -7.4410   -7.1890 N   0  0  0  0  0  0
    0.9790   -7.3890   -8.4640 C   0  0  2  0  0  0
    1.9470   -8.5560   -8.5790 C   0  0  0  0  0  0
    2.2730   -9.1740   -7.5770 O   0  0  0  0  0  0
    1.6650   -6.0330   -8.6300 C   0  0  0  0  0  0
    2.6840   -5.7330   -7.5790 C   0  0  0  0  0  0
    2.3060   -5.2020   -6.3670 C   0  0  0  0  0  0
    4.0210   -5.9600   -7.8230 C   0  0  0  0  0  0
    3.2480   -4.9240   -5.3890 C   0  0  0  0  0  0
    4.9640   -5.6870   -6.8610 C   0  0  0  0  0  0
    4.5830   -5.1670   -5.6440 C   0  0  0  0  0  0
    2.3570   -8.9030   -9.8070 N   0  0  0  0  0  0
    3.3000  -10.0090   -9.9870 C   0  0  2  0  0  0
    4.6860   -9.6900   -9.4480 C   0  0  0  0  0  0
    5.5080   -9.3360  -10.3070 O   0  0  0  0  0  0
    3.3520  -10.1870  -11.5080 C   0  0  0  0  0  0
    2.1300   -9.5040  -12.0330 C   0  0  0  0  0  0
    1.9190   -8.3520  -11.0990 C   0  0  0  0  0  0
    3.0950   -8.4450   -4.6310 O   0  0  0  0  0  0
    5.0320   -9.7450   -8.1570 N   0  0  0  0  0  0
    6.3540   -9.3350   -7.7840 C   0  0  2  0  0  0
    7.3190  -10.3900   -8.2640 C   0  0  0  0  0  0
    7.0190  -11.5660   -8.1250 O   0  0  0  0  0  0
    8.4680  -10.0220   -8.8380 N   0  0  0  0  0  0
    6.4710   -9.2210   -6.2770 C   0  0  0  0  0  0
    5.5170  -10.5590   -5.5420 S   0  0  0  0  0  0
    4.7960   -9.9640   -3.9500 C   0  0  0  0  0  0
    4.0730   -8.6730   -3.9090 C   0  0  0  0  0  0
    5.0355   -8.4195   -2.1558 H   0  0  0  0  0  0
    2.6680   -6.7040   -2.7943 H   0  0  0  0  0  0
    1.0915   -7.6306   -1.2405 H   0  0  0  0  0  0
    1.8033   -9.0711   -2.0435 H   0  0  0  0  0  0
    1.0714   -7.6485    1.3383 H   0  0  0  0  0  0
    4.1166  -10.5533   -1.5873 H   0  0  0  0  0  0
    3.9278  -11.2580    3.3722 H   0  0  0  0  0  0
    5.4803  -12.2993   -0.4953 H   0  0  0  0  0  0
    5.3869  -12.6432    1.9471 H   0  0  0  0  0  0
    1.8640   -5.5536   -0.6615 H   0  0  0  0  0  0
    4.3801   -5.0874    1.0463 H   0  0  0  0  0  0
    2.2378   -3.0263    0.3179 H   0  0  0  0  0  0
    3.6726   -2.7460    1.3616 H   0  0  0  0  0  0
    5.9741   -3.3666    0.2116 H   0  0  0  0  0  0
    2.3727   -2.4330   -1.8858 H   0  0  0  0  0  0
    7.2883   -2.7100   -1.7643 H   0  0  0  0  0  0
    3.6940   -1.8273   -3.8884 H   0  0  0  0  0  0
    6.1541   -1.9566   -3.8217 H   0  0  0  0  0  0
    4.1233   -5.9446    3.0130 H   0  0  0  0  0  0
    1.4695   -6.8080    3.8708 H   0  0  0  0  0  0
    3.1873   -7.9427    4.9416 H   0  0  0  0  0  0
    4.1446   -6.4515    5.2360 H   0  0  0  0  0  0
    1.5357   -6.7304    6.6617 H   0  0  0  0  0  0
    2.9045   -7.7772    7.1690 H   0  0  0  0  0  0
    4.9169   -4.6162    7.9137 H   0  0  0  0  0  0
   -0.1646   -5.8166    5.1164 H   0  0  0  0  0  0
   -0.9193   -3.9412    6.4941 H   0  0  0  0  0  0
    0.5306   -2.9810    6.0442 H   0  0  0  0  0  0
   -0.3721   -4.2567    3.2293 H   0  0  0  0  0  0
   -2.1013   -1.8697    2.6982 H   0  0  0  0  0  0
    0.6940   -2.2794    1.5415 H   0  0  0  0  0  0
   -0.5236   -1.2478    0.7171 H   0  0  0  0  0  0
   -1.3753    0.7925    1.8384 H   0  0  0  0  0  0
   -0.7913    2.6600    3.3424 H   0  0  0  0  0  0
    1.7176   -1.5618    3.6156 H   0  0  0  0  0  0
    2.2806    0.2931    5.1394 H   0  0  0  0  0  0
    1.5472    2.3493    6.2175 H   0  0  0  0  0  0
    1.8616    3.4079    4.8008 H   0  0  0  0  0  0
   -0.7029    5.5432    5.9694 H   0  0  0  0  0  0
   -2.6910   -2.1289    0.0872 H   0  0  0  0  0  0
   -3.6097   -4.9934   -0.2463 H   0  0  0  0  0  0
   -4.8487   -2.3018   -1.1437 H   0  0  0  0  0  0
   -5.4963   -3.8744   -1.7216 H   0  0  0  0  0  0
   -6.5696   -2.5373    1.9903 H   0  0  0  0  0  0
   -1.3221   -3.0234   -1.4755 H   0  0  0  0  0  0
   -1.6724   -3.1805   -4.3029 H   0  0  0  0  0  0
    0.9206   -3.6554   -2.7172 H   0  0  0  0  0  0
    0.8351   -3.2081   -4.4548 H   0  0  0  0  0  0
    1.2274   -1.1802   -4.9348 H   0  0  0  0  0  0
    0.9025    0.2570   -3.7269 H   0  0  0  0  0  0
   -1.9527   -4.6929   -5.6960 H   0  0  0  0  0  0
   -0.8667   -7.4320   -4.9596 H   0  0  0  0  0  0
   -3.5566   -6.8035   -6.4108 H   0  0  0  0  0  0
   -3.6802   -6.4224   -3.9538 H   0  0  0  0  0  0
   -2.4192   -8.8957   -7.2781 H   0  0  0  0  0  0
   -3.9593   -9.2269   -6.4148 H   0  0  0  0  0  0
   -2.3885   -9.5262   -5.5963 H   0  0  0  0  0  0
    0.7804   -7.9812   -6.3503 H   0  0  0  0  0  0
    0.2056   -7.4958   -9.2389 H   0  0  0  0  0  0
    2.1813   -5.9997   -9.6007 H   0  0  0  0  0  0
    0.9111   -5.2331   -8.5880 H   0  0  0  0  0  0
    1.2529   -4.9975   -6.1738 H   0  0  0  0  0  0
    4.3337   -6.3597   -8.7877 H   0  0  0  0  0  0
    2.9375   -4.5170   -4.4267 H   0  0  0  0  0  0
    6.0173   -5.8828   -7.0621 H   0  0  0  0  0  0
    5.3333   -4.9479   -4.8843 H   0  0  0  0  0  0
    2.9517  -10.8866   -9.4226 H   0  0  0  0  0  0
    4.2700   -9.7248  -11.9001 H   0  0  0  0  0  0
    3.3485  -11.2596  -11.7520 H   0  0  0  0  0  0
    2.3118   -9.1693  -13.0650 H   0  0  0  0  0  0
    1.2831  -10.2058  -12.0190 H   0  0  0  0  0  0
    0.8643   -8.0475  -11.0291 H   0  0  0  0  0  0
    2.5369   -7.4782  -11.3534 H   0  0  0  0  0  0
    4.3273  -10.0951   -7.3883 H   0  0  0  0  0  0
    6.5277   -8.3573   -8.2573 H   0  0  0  0  0  0
    8.7103   -8.9548   -8.9491 H   0  0  0  0  0  0
    9.1717  -10.7863   -9.1995 H   0  0  0  0  0  0
    7.5281   -9.3028   -5.9841 H   0  0  0  0  0  0
    6.0744   -8.2481   -5.9510 H   0  0  0  0  0  0
    4.0603  -10.6956   -3.5846 H   0  0  0  0  0  0
    5.5974   -9.8468   -3.2056 H   0  0  0  0  0  0
  1  2  1  0  0  0
  1104  1  0  0  0
  1105  1  0  0  0
  2  3  1  0  0  0
  2  5  1  0  0  0
  2106  1  0  0  0
  3  4  2  0  0  0
  3 15  1  0  0  0
  5  6  1  0  0  0
  5107  1  0  0  0
  5108  1  0  0  0
  6  7  2  0  0  0
  6  8  1  0  0  0
  7  9  1  0  0  0
  7109  1  0  0  0
  8 10  2  0  0  0
  8 11  1  0  0  0
  9 10  1  0  0  0
 10 12  1  0  0  0
 11 13  2  0  0  0
 11110  1  0  0  0
 12 14  2  0  0  0
 12111  1  0  0  0
 13 14  1  0  0  0
 13112  1  0  0  0
 14113  1  0  0  0
 15 16  1  0  0  0
 15114  1  0  0  0
 16 17  1  0  0  0
 16 19  1  0  0  0
 16115  1  0  0  0
 17 18  2  0  0  0
 17 26  1  0  0  0
 19 20  1  0  0  0
 19116  1  0  0  0
 19117  1  0  0  0
 20 21  2  0  0  0
 20 22  1  0  0  0
 21 23  1  0  0  0
 21118  1  0  0  0
 22 24  2  0  0  0
 22119  1  0  0  0
 23 25  2  0  0  0
 23120  1  0  0  0
 24 25  1  0  0  0
 24121  1  0  0  0
 25122  1  0  0  0
 26 27  1  0  0  0
 26123  1  0  0  0
 27 28  1  0  0  0
 27 30  1  0  0  0
 27124  1  0  0  0
 28 29  2  0  0  0
 28 35  1  0  0  0
 30 31  1  0  0  0
 30125  1  0  0  0
 30126  1  0  0  0
 31 32  1  0  0  0
 31127  1  0  0  0
 31128  1  0  0  0
 32 33  1  0  0  0
 32 34  2  0  0  0
 33129  1  0  0  0
 35 36  1  0  0  0
 35130  1  0  0  0
 36 37  1  0  0  0
 36131  1  0  0  0
 36132  1  0  0  0
 37 38  2  0  0  0
 37 39  1  0  0  0
 39 40  1  0  0  0
 39133  1  0  0  0
 40 41  1  0  0  0
 40 52  1  0  0  0
 40134  1  0  0  0
 41 42  1  0  0  0
 41135  1  0  0  0
 41136  1  0  0  0
 42 43  2  0  0  0
 42 45  1  0  0  0
 43 44  1  0  0  0
 43137  1  0  0  0
 44 47  2  0  0  0
 44138  1  0  0  0
 45 46  2  0  0  0
 45139  1  0  0  0
 46 47  1  0  0  0
 46140  1  0  0  0
 47 48  1  0  0  0
 48 49  1  0  0  0
 48141  1  0  0  0
 48142  1  0  0  0
 49 50  2  0  0  0
 49 51  1  0  0  0
 51143  1  0  0  0
 52 53  2  0  0  0
 52 54  1  0  0  0
 54 55  1  0  0  0
 54144  1  0  0  0
 55 56  1  0  0  0
 55 58  1  0  0  0
 55145  1  0  0  0
 56 57  2  0  0  0
 56 62  1  0  0  0
 58 59  1  0  0  0
 58146  1  0  0  0
 58147  1  0  0  0
 59 60  2  0  0  0
 59 61  1  0  0  0
 61148  1  0  0  0
 62 63  1  0  0  0
 62149  1  0  0  0
 63 64  1  0  0  0
 63 66  1  0  0  0
 63150  1  0  0  0
 64 65  2  0  0  0
 64 70  1  0  0  0
 66 67  1  0  0  0
 66151  1  0  0  0
 66152  1  0  0  0
 67 68  2  0  0  0
 67 69  1  0  0  0
 69153  1  0  0  0
 69154  1  0  0  0
 70 71  1  0  0  0
 70155  1  0  0  0
 71 72  1  0  0  0
 71 74  1  0  0  0
 71156  1  0  0  0
 72 73  2  0  0  0
 72 77  1  0  0  0
 74 75  1  0  0  0
 74 76  1  0  0  0
 74157  1  0  0  0
 75158  1  0  0  0
 76159  1  0  0  0
 76160  1  0  0  0
 76161  1  0  0  0
 77 78  1  0  0  0
 77162  1  0  0  0
 78 79  1  0  0  0
 78 81  1  0  0  0
 78163  1  0  0  0
 79 80  2  0  0  0
 79 88  1  0  0  0
 81 82  1  0  0  0
 81164  1  0  0  0
 81165  1  0  0  0
 82 83  2  0  0  0
 82 84  1  0  0  0
 83 85  1  0  0  0
 83166  1  0  0  0
 84 86  2  0  0  0
 84167  1  0  0  0
 85 87  2  0  0  0
 85168  1  0  0  0
 86 87  1  0  0  0
 86169  1  0  0  0
 87170  1  0  0  0
 88 89  1  0  0  0
 88 94  1  0  0  0
 89 90  1  0  0  0
 89 92  1  0  0  0
 89171  1  0  0  0
 90 91  2  0  0  0
 90 96  1  0  0  0
 92 93  1  0  0  0
 92172  1  0  0  0
 92173  1  0  0  0
 93 94  1  0  0  0
 93174  1  0  0  0
 93175  1  0  0  0
 94176  1  0  0  0
 94177  1  0  0  0
 95104  2  0  0  0
 96 97  1  0  0  0
 96178  1  0  0  0
 97 98  1  0  0  0
 97101  1  0  0  0
 97179  1  0  0  0
 98 99  2  0  0  0
 98100  1  0  0  0
100180  1  0  0  0
100181  1  0  0  0
101102  1  0  0  0
101182  1  0  0  0
101183  1  0  0  0
102103  1  0  0  0
103104  1  0  0  0
103184  1  0  0  0
103185  1  0  0  0
M  END
> <s_m_source_file>
../4x6s_ligand.sdf

> <i_m_source_file_index>
1

> <s_epik_input>
W0NIMl0xW0NIMl1bQ0gyXVtDQEhdKE4xMilDKD1PKVtOSF1bQ0BIXShDKD1PKVtOSDJdKVtDSDJdU1tDSDJdQyg9TylbTkhdW0NAQEhdKFtDSDJdYzNbY0hdW25IXWMoYzM0KVtjSF1bY0hdW2NIXVtjSF00KUMoPU8pW05IXVtDQEBIXShbQ0gyXWM1W2NIXVtjSF1bY0hdW2NIXVtjSF01KUMoPU8pW05IXVtDQEBIXShbQ0gyXVtDSDJdQyg9TylbT0hdKUMoPU8pW05IXVtDSDJdQyg9TylbTkhdW0NAQEhdKFtDSDJdYzZbY0hdW2NIXWMoW2NIXVtjSF02KVtDSDJdQyg9TylbT0hdKUMoPU8pW05IXVtDQEBIXShbQ0gyXUMoPU8pW09IXSlDKD1PKVtOSF1bQ0BASF0oW0NIMl1DKD1PKVtOSDJdKUMoPU8pW05IXVtDQEBIXShbQ0BIXShbT0hdKVtDSDNdKUMoPU8pW05IXVtDQEhdKEMyPU8pW0NIMl1jN1tjSF1bY0hdW2NIXVtjSF1bY0hdNw==

> <s_epik_cmdline>
J2VwaWtfYXBwJywgJy1pbWFlJywgJ2xpZ2FuZF9wcm8ubWFlJywgJy1vbWFlJywgJ2xpZ2FuZF9wcmVwLm1hZScsICctbXMnLCAnMScsICctcGgnLCAnNycsICctcGh0JywgJzAuNScsICctbnQn

> <s_epik_pKa_notes>
Molecule size exceeds maximum supported for generating protonation states

$$$$
