4x6y_ligand
                    3D
 Schrodinger Suite 2020-3.
 49 52  0  0  1  0            999 V2000
   -6.5160    8.8350   26.4230 C   0  0  0  0  0  0
   -2.4240    0.4990   38.6280 C   0  0  0  0  0  0
   -6.4460    8.7390   27.7950 C   0  0  0  0  0  0
   -5.5380    8.2480   25.6550 C   0  0  0  0  0  0
   -3.3010    0.0960   37.6430 C   0  0  0  0  0  0
   -1.4690    1.4480   38.3460 C   0  0  0  0  0  0
   -5.4050    8.0610   28.3920 C   0  0  0  0  0  0
   -4.5010    7.5780   26.2660 C   0  0  0  0  0  0
   -3.2300    0.6320   36.3750 C   0  0  0  0  0  0
   -1.3950    1.9880   37.0820 C   0  0  0  0  0  0
   -4.4150    7.4710   27.6370 C   0  0  0  0  0  0
   -2.2670    1.5810   36.0930 C   0  0  0  0  0  0
   -3.5810    4.7790   31.0810 C   0  0  0  0  0  0
   -4.0530    2.2080   33.4770 C   0  0  0  0  0  0
   -1.8340    1.9010   32.5310 C   0  0  0  0  0  0
   -2.2120    7.5000   28.8830 C   0  0  0  0  0  0
   -3.9510    3.7010   33.2580 C   0  0  0  0  0  0
   -1.8010    3.3710   32.1670 C   0  0  0  0  0  0
   -3.2810    6.7260   28.1980 C   0  0  1  0  0  0
   -3.1100    6.6180   29.6850 C   0  0  1  0  0  0
   -2.6970    1.5960   33.7300 C   0  0  0  0  0  0
   -3.1060    3.9970   32.1320 N   0  0  0  0  0  0
   -2.6720    5.3930   30.2670 N   0  0  0  0  0  0
   -4.7650    4.9550   30.8490 O   0  0  0  0  0  0
   -2.0830    2.2050   34.8580 O   0  0  0  0  0  0
   -7.3389    9.3712   25.9503 H   0  0  0  0  0  0
   -2.4874    0.0670   39.6267 H   0  0  0  0  0  0
   -7.2171    9.2011   28.4114 H   0  0  0  0  0  0
   -5.5831    8.3125   24.5678 H   0  0  0  0  0  0
   -4.0584   -0.6544   37.8695 H   0  0  0  0  0  0
   -0.7735    1.7712   39.1205 H   0  0  0  0  0  0
   -5.3643    7.9905   29.4790 H   0  0  0  0  0  0
   -3.7280    7.1204   25.6486 H   0  0  0  0  0  0
   -3.9276    0.3098   35.6019 H   0  0  0  0  0  0
   -0.6412    2.7435   36.8604 H   0  0  0  0  0  0
   -4.6946    2.0082   34.3478 H   0  0  0  0  0  0
   -4.4887    1.7354   32.5844 H   0  0  0  0  0  0
   -2.2315    1.3224   31.6841 H   0  0  0  0  0  0
   -0.8151    1.5578   32.7635 H   0  0  0  0  0  0
   -1.2313    7.2054   28.4812 H   0  0  0  0  0  0
   -2.3705    8.5750   28.7117 H   0  0  0  0  0  0
   -4.9529    4.1128   33.0667 H   0  0  0  0  0  0
   -3.5249    4.1749   34.1546 H   0  0  0  0  0  0
   -1.1975    3.9183   32.9061 H   0  0  0  0  0  0
   -1.3556    3.4916   31.1684 H   0  0  0  0  0  0
   -3.3354    6.0021   27.3715 H   0  0  0  0  0  0
   -3.7261    6.7423   30.5878 H   0  0  0  0  0  0
   -2.7821    0.5232   33.9578 H   0  0  0  0  0  0
   -1.6650    5.0087   30.0471 H   0  0  0  0  0  0
  1  3  2  0  0  0
  1  4  1  0  0  0
  1 26  1  0  0  0
  2  5  2  0  0  0
  2  6  1  0  0  0
  2 27  1  0  0  0
  3  7  1  0  0  0
  3 28  1  0  0  0
  4  8  2  0  0  0
  4 29  1  0  0  0
  5  9  1  0  0  0
  5 30  1  0  0  0
  6 10  2  0  0  0
  6 31  1  0  0  0
  7 11  2  0  0  0
  7 32  1  0  0  0
  8 11  1  0  0  0
  8 33  1  0  0  0
  9 12  2  0  0  0
  9 34  1  0  0  0
 10 12  1  0  0  0
 10 35  1  0  0  0
 11 19  1  0  0  0
 12 25  1  0  0  0
 13 22  1  0  0  0
 13 23  1  0  0  0
 13 24  2  0  0  0
 14 17  1  0  0  0
 14 21  1  0  0  0
 14 36  1  0  0  0
 14 37  1  0  0  0
 15 18  1  0  0  0
 15 21  1  0  0  0
 15 38  1  0  0  0
 15 39  1  0  0  0
 16 19  1  0  0  0
 16 20  1  0  0  0
 16 40  1  0  0  0
 16 41  1  0  0  0
 17 22  1  0  0  0
 17 42  1  0  0  0
 17 43  1  0  0  0
 18 22  1  0  0  0
 18 44  1  0  0  0
 18 45  1  0  0  0
 19 20  1  0  0  0
 19 46  1  0  0  0
 20 23  1  0  0  0
 20 47  1  0  0  0
 21 25  1  0  0  0
 21 48  1  0  0  0
 23 49  1  0  0  0
M  END
> <s_m_source_file>
../4x6y_ligand.sdf

> <i_m_source_file_index>
1

> <s_epik_input>
W2NIXTFbY0hdW2NIXVtjSF1bY0hdYzFbQ0BIXTJbQ0gyXVtDQEBIXTJbTkhdQyg9TylOKFtDSDJdW0NIMl0zKVtDSDJdW0NIMl1bQ0hdM09jNFtjSF1bY0hdW2NIXVtjSF1bY0hdNA==

> <s_epik_cmdline>
J2VwaWtfYXBwJywgJy1pbWFlJywgJ2xpZ2FuZF9wcm8ubWFlJywgJy1vbWFlJywgJ2xpZ2FuZF9wcmVwLm1hZScsICctbXMnLCAnMScsICctcGgnLCAnNycsICctcGh0JywgJzAuNScsICctbnQn

> <r_lp_tautomer_probability>
1

> <r_epik_Ionization_Penalty>
  0.0001

> <r_epik_Ionization_Penalty_Charging>
  0.0000

> <r_epik_Ionization_Penalty_Neutral>
  0.0001

> <r_epik_State_Penalty>
 -0.0000

> <r_epik_Charging_Adjusted_Penalty>
0

> <i_epik_Tot_Q>
0

> <i_epik_Tot_abs_Q>
0

$$$$
