4x7h_ligand
                    3D
 Schrodinger Suite 2020-3.
 69 74  0  0  1  0            999 V2000
  -12.2670   31.0350   35.4250 N   0  0  0  0  0  0
  -13.4750   31.5950   27.0840 N   0  0  0  0  0  0
  -11.5630   32.1850   35.4770 C   0  0  0  0  0  0
  -11.3620   32.9370   34.3180 C   0  0  0  0  0  0
  -10.6240   34.1280   34.3820 C   0  0  0  0  0  0
  -12.7850   30.5860   34.2910 C   0  0  0  0  0  0
  -12.6270   31.2950   33.1020 C   0  0  0  0  0  0
  -10.2210   33.6140   39.1370 C   0  0  0  0  0  0
  -11.4840   31.6600   30.1480 C   0  0  0  0  0  0
  -12.9960   31.9090   28.2920 C   0  0  0  0  0  0
  -13.0130   30.6710   26.2340 C   0  0  0  0  0  0
  -14.7540   31.5290   24.5300 C   0  0  0  0  0  0
  -14.5830   29.5580   21.5580 C   0  0  0  0  0  0
  -15.7180   32.2060   22.5370 C   0  0  0  0  0  0
  -17.6800   33.4150   21.7630 C   0  0  0  0  0  0
  -15.4740   34.1700   21.1280 C   0  0  0  0  0  0
  -12.5660   28.7980   23.7040 C   0  0  0  0  0  0
   -9.7590   34.2680   37.9330 O   0  0  0  0  0  0
  -10.3010   33.8110   36.7590 C   0  0  0  0  0  0
  -11.0300   32.6190   36.6930 C   0  0  0  0  0  0
  -10.0980   34.5680   35.6030 C   0  0  0  0  0  0
   -9.3670   35.7210   35.7190 O   0  0  0  0  0  0
   -9.4230   36.6500   34.6230 C   0  0  0  0  0  0
  -11.9020   32.4880   33.1120 C   0  0  0  0  0  0
  -11.7040   33.2260   31.9760 O   0  0  0  0  0  0
  -12.1060   32.7500   30.7590 C   0  0  0  0  0  0
  -11.9330   31.2330   28.9010 C   0  0  0  0  0  0
  -13.1480   33.3900   30.0990 C   0  0  0  0  0  0
  -13.5510   32.9670   28.9090 N   0  0  0  0  0  0
  -12.1110   29.8740   26.4810 O   0  0  0  0  0  0
  -13.7290   30.6620   24.8790 C   0  0  0  0  0  0
  -15.2030   32.4190   25.2510 O   0  0  0  0  0  0
  -15.1860   31.2360   23.3020 N   0  0  0  0  0  0
  -17.1050   32.3630   22.4870 C   0  0  0  0  0  0
  -16.8610   34.3190   21.0840 C   0  0  0  0  0  0
  -14.9040   33.1180   21.8520 C   0  0  0  0  0  0
  -14.2810   30.3140   22.7980 N   0  0  0  0  0  0
  -13.5660   29.7770   23.8140 C   0  0  0  0  0  0
  -12.6010   27.6340   24.4740 C   0  0  0  0  0  0
  -11.5820   26.6860   24.3340 C   0  0  0  0  0  0
  -10.5810   26.8780   23.4780 N   0  0  0  0  0  0
  -10.5110   27.9740   22.7280 C   0  0  0  0  0  0
  -11.4960   28.9600   22.8190 C   0  0  0  0  0  0
  -14.3528   32.1249   26.6857 H   0  0  0  0  0  0
  -10.4592   34.7136   33.4775 H   0  0  0  0  0  0
  -13.3423   29.6492   34.2883 H   0  0  0  0  0  0
  -13.0641   30.9228   32.1754 H   0  0  0  0  0  0
   -9.7223   34.0593   40.0105 H   0  0  0  0  0  0
   -9.9828   32.5413   39.0860 H   0  0  0  0  0  0
  -11.3093   33.7439   39.2303 H   0  0  0  0  0  0
  -10.6568   31.1493   30.6410 H   0  0  0  0  0  0
  -15.1721   30.1902   20.8774 H   0  0  0  0  0  0
  -15.1585   28.6551   21.8101 H   0  0  0  0  0  0
  -13.6423   29.2681   21.0670 H   0  0  0  0  0  0
  -18.7637   33.5276   21.7298 H   0  0  0  0  0  0
  -14.8340   34.8748   20.5972 H   0  0  0  0  0  0
  -11.1829   32.0260   37.5947 H   0  0  0  0  0  0
   -8.7939   37.5233   34.8501 H   0  0  0  0  0  0
  -10.4625   36.9764   34.4717 H   0  0  0  0  0  0
   -9.0555   36.1610   33.7088 H   0  0  0  0  0  0
  -11.4627   30.3835   28.4059 H   0  0  0  0  0  0
  -13.6376   34.2461   30.5632 H   0  0  0  0  0  0
  -17.7467   31.6593   23.0171 H   0  0  0  0  0  0
  -17.3041   35.1400   20.5203 H   0  0  0  0  0  0
  -13.8201   33.0068   21.8836 H   0  0  0  0  0  0
  -13.4155   27.4653   25.1784 H   0  0  0  0  0  0
  -11.6081   25.7768   24.9347 H   0  0  0  0  0  0
   -9.6783   28.1038   22.0368 H   0  0  0  0  0  0
  -11.4305   29.8551   22.2005 H   0  0  0  0  0  0
  1  3  2  0  0  0
  1  6  1  0  0  0
  2 10  1  0  0  0
  2 11  1  0  0  0
  2 44  1  0  0  0
  3  4  1  0  0  0
  3 20  1  0  0  0
  4  5  1  0  0  0
  4 24  2  0  0  0
  5 21  2  0  0  0
  5 45  1  0  0  0
  6  7  2  0  0  0
  6 46  1  0  0  0
  7 24  1  0  0  0
  7 47  1  0  0  0
  8 18  1  0  0  0
  8 48  1  0  0  0
  8 49  1  0  0  0
  8 50  1  0  0  0
  9 26  2  0  0  0
  9 27  1  0  0  0
  9 51  1  0  0  0
 10 27  2  0  0  0
 10 29  1  0  0  0
 11 30  2  0  0  0
 11 31  1  0  0  0
 12 31  1  0  0  0
 12 32  2  0  0  0
 12 33  1  0  0  0
 13 37  1  0  0  0
 13 52  1  0  0  0
 13 53  1  0  0  0
 13 54  1  0  0  0
 14 33  1  0  0  0
 14 34  2  0  0  0
 14 36  1  0  0  0
 15 34  1  0  0  0
 15 35  2  0  0  0
 15 55  1  0  0  0
 16 35  1  0  0  0
 16 36  2  0  0  0
 16 56  1  0  0  0
 17 38  1  0  0  0
 17 39  2  0  0  0
 17 43  1  0  0  0
 18 19  1  0  0  0
 19 20  2  0  0  0
 19 21  1  0  0  0
 20 57  1  0  0  0
 21 22  1  0  0  0
 22 23  1  0  0  0
 23 58  1  0  0  0
 23 59  1  0  0  0
 23 60  1  0  0  0
 24 25  1  0  0  0
 25 26  1  0  0  0
 26 28  1  0  0  0
 27 61  1  0  0  0
 28 29  2  0  0  0
 28 62  1  0  0  0
 31 38  2  0  0  0
 33 37  1  0  0  0
 34 63  1  0  0  0
 35 64  1  0  0  0
 36 65  1  0  0  0
 37 38  1  0  0  0
 39 40  1  0  0  0
 39 66  1  0  0  0
 40 41  2  0  0  0
 40 67  1  0  0  0
 41 42  1  0  0  0
 42 43  2  0  0  0
 42 68  1  0  0  0
 43 69  1  0  0  0
M  END
> <s_m_source_file>
../4x7h_ligand.sdf

> <i_m_source_file_index>
1

> <s_epik_input>
W0NIM11PYyhbY0hdMSljKE9bQ0gzXSlbY0hdYyhjMTIpYyhbY0hdW2NIXW4yKU9jKFtjSF1uMylbY0hdW2NIXWMzW05IXUMoPU8pYyhjND1PKWMoLWM1W2NIXVtjSF1uW2NIXVtjSF01KW4oW0NIM10pbjQtYzZbY0hdW2NIXVtjSF1bY0hdW2NIXTY=

> <s_epik_cmdline>
J2VwaWtfYXBwJywgJy1pbWFlJywgJ2xpZ2FuZF9wcm8ubWFlJywgJy1vbWFlJywgJ2xpZ2FuZF9wcmVwLm1hZScsICctbXMnLCAnMScsICctcGgnLCAnNycsICctcGh0JywgJzAuNScsICctbnQn

> <r_lp_tautomer_probability>
1

> <r_epik_Ionization_Penalty>
  0.3997

> <r_epik_Ionization_Penalty_Charging>
  0.0000

> <r_epik_Ionization_Penalty_Neutral>
  0.3997

> <r_epik_State_Penalty>
  0.3904

> <r_epik_Charging_Adjusted_Penalty>
0.390391117698341

> <i_epik_Tot_Q>
0

> <i_epik_Tot_abs_Q>
0

$$$$
