4x7k_ligand
                    3D
 Schrodinger Suite 2020-3.
 69 74  0  0  1  0            999 V2000
   28.8040   12.2180    9.1050 C   0  0  0  0  0  0
   29.4620   13.4510    9.1840 C   0  0  0  0  0  0
   29.0100   14.5140    8.4000 C   0  0  0  0  0  0
   27.9100   14.3390    7.5590 C   0  0  0  0  0  0
   27.2480   13.1070    7.4860 C   0  0  0  0  0  0
   27.6970   12.0370    8.2610 C   0  0  0  0  0  0
   27.0710   10.7770    8.2470 C   0  0  0  0  0  0
   26.5620   10.1150    9.2990 N   0  0  0  0  0  0
   26.5520   10.6810   10.6630 C   0  0  0  0  0  0
   26.0570    9.0180    8.9750 N   0  0  0  0  0  0
   25.5150    8.1190    9.8270 C   0  0  0  0  0  0
   24.1690    7.7590    9.8170 C   0  0  0  0  0  0
   23.6930    6.8060   10.7290 C   0  0  0  0  0  0
   24.5610    6.1970   11.6410 C   0  0  0  0  0  0
   25.9140    6.5450   11.6560 C   0  0  0  0  0  0
   26.3810    7.4970   10.7400 C   0  0  0  0  0  0
   26.2220    8.8140    7.6660 C   0  0  0  0  0  0
   25.8460    7.8070    7.0580 O   0  0  0  0  0  0
   26.8620    9.9470    7.1450 C   0  0  0  0  0  0
   27.3060   10.2500    5.7060 C   0  0  0  0  0  0
   28.2650   11.0110    5.5460 O   0  0  0  0  0  0
   26.6400    9.5840    4.4770 C   0  0  0  0  0  0
   27.3890    9.3690    3.3020 C   0  0  0  0  0  0
   28.6700    9.7470    3.2480 N   0  0  0  0  0  0
   25.2890    9.2080    4.5340 C   0  0  0  0  0  0
   24.6980    8.6010    3.4260 C   0  0  0  0  0  0
   25.4410    8.3850    2.2600 C   0  0  0  0  0  0
   24.7120    7.7340    1.0670 C   0  0  0  0  0  0
   26.7950    8.7650    2.1840 C   0  0  0  0  0  0
   27.4950    8.4820    0.9970 C   0  0  0  0  0  0
   28.1000    7.2100    0.8370 C   0  0  0  0  0  0
   28.7680    6.8780   -0.3390 C   0  0  0  0  0  0
   28.8450    7.7930   -1.3870 C   0  0  0  0  0  0
   29.4990    7.4900   -2.5450 N   0  0  0  0  0  0
   29.5450    8.4090   -3.5430 C   0  0  0  0  0  0
   30.1620    8.2180   -4.7270 N   0  0  0  0  0  0
   30.9660    7.0220   -5.0570 C   0  0  0  0  0  0
   28.9480    9.6000   -3.3700 N   0  0  0  0  0  0
   28.3120    9.9420   -2.2570 C   0  0  0  0  0  0
   28.2370    9.0380   -1.2220 C   0  0  0  0  0  0
   27.5640    9.3820   -0.0410 C   0  0  0  0  0  0
   26.9870   10.5830    0.1140 F   0  0  0  0  0  0
   29.1577   11.3831    9.7099 H   0  0  0  0  0  0
   30.3161   13.5795    9.8489 H   0  0  0  0  0  0
   29.5152   15.4788    8.4446 H   0  0  0  0  0  0
   27.5611   15.1732    6.9503 H   0  0  0  0  0  0
   26.3876   12.9848    6.8281 H   0  0  0  0  0  0
   27.0654   11.6538   10.6601 H   0  0  0  0  0  0
   27.0707    9.9947   11.3486 H   0  0  0  0  0  0
   25.5124   10.8161   10.9963 H   0  0  0  0  0  0
   23.4868    8.2176    9.1011 H   0  0  0  0  0  0
   22.6366    6.5374   10.7271 H   0  0  0  0  0  0
   24.1821    5.4512   12.3398 H   0  0  0  0  0  0
   26.5961    6.0829   12.3696 H   0  0  0  0  0  0
   27.4388    7.7600   10.7363 H   0  0  0  0  0  0
   29.1408   10.2211    4.1218 H   0  0  0  0  0  0
   29.2533    9.5839    2.3298 H   0  0  0  0  0  0
   24.7062    9.3889    5.4371 H   0  0  0  0  0  0
   23.6531    8.2936    3.4685 H   0  0  0  0  0  0
   23.6695    7.5212    1.3462 H   0  0  0  0  0  0
   25.2179    6.7956    0.7960 H   0  0  0  0  0  0
   24.7287    8.4209    0.2080 H   0  0  0  0  0  0
   28.0415    6.4816    1.6458 H   0  0  0  0  0  0
   29.2330    5.8974   -0.4401 H   0  0  0  0  0  0
   30.0391    9.0201   -5.4696 H   0  0  0  0  0  0
   31.3572    7.1143   -6.0809 H   0  0  0  0  0  0
   30.3343    6.1243   -4.9853 H   0  0  0  0  0  0
   31.8047    6.9376   -4.3503 H   0  0  0  0  0  0
   27.8545   10.9269   -2.1635 H   0  0  0  0  0  0
  1  2  2  0  0  0
  1  6  1  0  0  0
  1 43  1  0  0  0
  2  3  1  0  0  0
  2 44  1  0  0  0
  3  4  2  0  0  0
  3 45  1  0  0  0
  4  5  1  0  0  0
  4 46  1  0  0  0
  5  6  2  0  0  0
  5 47  1  0  0  0
  6  7  1  0  0  0
  7  8  1  0  0  0
  7 19  2  0  0  0
  8  9  1  0  0  0
  8 10  1  0  0  0
  9 48  1  0  0  0
  9 49  1  0  0  0
  9 50  1  0  0  0
 10 11  1  0  0  0
 10 17  1  0  0  0
 11 12  2  0  0  0
 11 16  1  0  0  0
 12 13  1  0  0  0
 12 51  1  0  0  0
 13 14  2  0  0  0
 13 52  1  0  0  0
 14 15  1  0  0  0
 14 53  1  0  0  0
 15 16  2  0  0  0
 15 54  1  0  0  0
 16 55  1  0  0  0
 17 18  2  0  0  0
 17 19  1  0  0  0
 19 20  1  0  0  0
 20 21  2  0  0  0
 20 22  1  0  0  0
 22 23  2  0  0  0
 22 25  1  0  0  0
 23 24  1  0  0  0
 23 29  1  0  0  0
 24 56  1  0  0  0
 24 57  1  0  0  0
 25 26  2  0  0  0
 25 58  1  0  0  0
 26 27  1  0  0  0
 26 59  1  0  0  0
 27 28  1  0  0  0
 27 29  2  0  0  0
 28 60  1  0  0  0
 28 61  1  0  0  0
 28 62  1  0  0  0
 29 30  1  0  0  0
 30 31  2  0  0  0
 30 41  1  0  0  0
 31 32  1  0  0  0
 31 63  1  0  0  0
 32 33  2  0  0  0
 32 64  1  0  0  0
 33 34  1  0  0  0
 33 40  1  0  0  0
 34 35  2  0  0  0
 35 36  1  0  0  0
 35 38  1  0  0  0
 36 37  1  0  0  0
 36 65  1  0  0  0
 37 66  1  0  0  0
 37 67  1  0  0  0
 37 68  1  0  0  0
 38 39  2  0  0  0
 39 40  1  0  0  0
 39 69  1  0  0  0
 40 41  2  0  0  0
 41 42  1  0  0  0
M  END
> <s_m_source_file>
../4x7k_ligand.sdf

> <i_m_source_file_index>
1

> <s_epik_input>
W2NIXTFbY0hdW2NIXVtjSF1bY0hdYzFDMj1bTitdKFtDSDNdKU4oYzNbY0hdW2NIXVtjSF1bY0hdW2NIXTMpQyg9TylbQ0hdMkMoPU8pYzRjKFtOSDJdKWMoYyhbQ0gzXSlbY0hdW2NIXTQpLWMoW2NIXVtjSF01KWMoRiljKGM1NilbY0hdbmMobjYpW05IXVtDSDNd

> <s_epik_cmdline>
J2VwaWtfYXBwJywgJy1pbWFlJywgJ2xpZ2FuZF9wcm8ubWFlJywgJy1vbWFlJywgJ2xpZ2FuZF9wcmVwLm1hZScsICctbXMnLCAnMScsICctcGgnLCAnNycsICctcGh0JywgJzAuNScsICctbnQn

> <r_lp_tautomer_probability>
1

> <r_epik_Ionization_Penalty>
  0.0021

> <r_epik_Ionization_Penalty_Charging>
  0.0000

> <r_epik_Ionization_Penalty_Neutral>
  0.0021

> <r_epik_State_Penalty>
 -0.0000

> <r_epik_Charging_Adjusted_Penalty>
1.27114053436901e-08

> <i_epik_Tot_Q>
0

> <i_epik_Tot_abs_Q>
0

$$$$
