4x7l_ligand
                    3D
 Schrodinger Suite 2020-3.
 67 72  0  0  1  0            999 V2000
   31.0340    6.9460   -4.9020 C   0  0  0  0  0  0
   30.2970    8.1850   -4.5870 N   0  0  0  0  0  0
   29.6760    8.3420   -3.4080 C   0  0  0  0  0  0
   29.0760    9.4730   -3.0300 N   0  0  0  0  0  0
   29.5190    7.2020   -2.1610 S   0  0  0  0  0  0
   28.6310    8.2180   -1.1300 C   0  0  0  0  0  0
   28.1030    8.0360    0.1560 C   0  0  0  0  0  0
   28.5120    9.4510   -1.8040 C   0  0  0  0  0  0
   27.8420   10.4910   -1.1710 C   0  0  0  0  0  0
   27.3100   10.3110    0.0980 C   0  0  0  0  0  0
   27.4390    9.0980    0.7800 C   0  0  0  0  0  0
   26.8180    9.0640    2.0440 C   0  0  0  0  0  0
   27.4520    9.5790    3.1840 C   0  0  0  0  0  0
   28.7110   10.0490    3.0980 N   0  0  0  0  0  0
   25.4940    8.5900    2.1510 C   0  0  0  0  0  0
   24.7230    8.0390    0.9330 C   0  0  0  0  0  0
   24.8290    8.5990    3.3820 C   0  0  0  0  0  0
   25.4660    9.1060    4.5120 C   0  0  0  0  0  0
   26.7830    9.5830    4.4210 C   0  0  0  0  0  0
   27.4910   10.1600    5.6670 C   0  0  0  0  0  0
   28.4320   10.9470    5.5000 O   0  0  0  0  0  0
   27.0280    9.8800    7.1050 C   0  0  0  0  0  0
   26.3940    8.7510    7.6320 C   0  0  0  0  0  0
   26.0720    7.7200    7.0340 O   0  0  0  0  0  0
   26.1920    8.9760    8.9310 N   0  0  0  0  0  0
   25.6430    8.0690    9.7660 C   0  0  0  0  0  0
   26.5110    7.3830   10.6300 C   0  0  0  0  0  0
   26.0360    6.4130   11.5240 C   0  0  0  0  0  0
   24.6680    6.1160   11.5330 C   0  0  0  0  0  0
   23.8000    6.7910   10.6680 C   0  0  0  0  0  0
   24.2840    7.7590    9.7780 C   0  0  0  0  0  0
   26.6560   10.0960    9.2450 N   0  0  0  0  0  0
   26.6030   10.7040   10.5940 C   0  0  0  0  0  0
   27.1780   10.7460    8.1900 C   0  0  0  0  0  0
   27.7780   12.0230    8.1990 C   0  0  0  0  0  0
   28.9010   12.2110    9.0260 C   0  0  0  0  0  0
   29.5450   13.4510    9.1110 C   0  0  0  0  0  0
   29.0670   14.5220    8.3570 C   0  0  0  0  0  0
   27.9490   14.3430    7.5390 C   0  0  0  0  0  0
   27.3010   13.1010    7.4580 C   0  0  0  0  0  0
   31.4650    7.0223   -5.9112 H   0  0  0  0  0  0
   30.3453    6.0893   -4.8612 H   0  0  0  0  0  0
   31.8411    6.8029   -4.1684 H   0  0  0  0  0  0
   30.2500    8.9996   -5.3247 H   0  0  0  0  0  0
   28.2086    7.0776    0.6643 H   0  0  0  0  0  0
   27.7339   11.4522   -1.6734 H   0  0  0  0  0  0
   26.7789   11.1352    0.5741 H   0  0  0  0  0  0
   29.2343   10.0459    2.1305 H   0  0  0  0  0  0
   29.2161   10.4360    3.9953 H   0  0  0  0  0  0
   25.3626    8.0920    0.0396 H   0  0  0  0  0  0
   23.8160    8.6398    0.7708 H   0  0  0  0  0  0
   24.4409    6.9924    1.1205 H   0  0  0  0  0  0
   23.8136    8.2097    3.4565 H   0  0  0  0  0  0
   24.9417    9.1324    5.4673 H   0  0  0  0  0  0
   27.5770    7.6093   10.6053 H   0  0  0  0  0  0
   26.7197    5.8993   12.1999 H   0  0  0  0  0  0
   24.2791    5.3589   12.2139 H   0  0  0  0  0  0
   22.7347    6.5612   10.6866 H   0  0  0  0  0  0
   23.6007    8.2675    9.0979 H   0  0  0  0  0  0
   26.1382    9.9969   11.2969 H   0  0  0  0  0  0
   26.0078   11.6283   10.5564 H   0  0  0  0  0  0
   27.6236   10.9384   10.9309 H   0  0  0  0  0  0
   29.2774   11.3732    9.6129 H   0  0  0  0  0  0
   30.4114   13.5780    9.7601 H   0  0  0  0  0  0
   29.5621   15.4918    8.4055 H   0  0  0  0  0  0
   27.5735   15.1823    6.9536 H   0  0  0  0  0  0
   26.4274   12.9806    6.8173 H   0  0  0  0  0  0
  1  2  1  0  0  0
  1 41  1  0  0  0
  1 42  1  0  0  0
  1 43  1  0  0  0
  2  3  1  0  0  0
  2 44  1  0  0  0
  3  4  2  0  0  0
  3  5  1  0  0  0
  4  8  1  0  0  0
  5  6  1  0  0  0
  6  7  1  0  0  0
  6  8  2  0  0  0
  7 11  2  0  0  0
  7 45  1  0  0  0
  8  9  1  0  0  0
  9 10  2  0  0  0
  9 46  1  0  0  0
 10 11  1  0  0  0
 10 47  1  0  0  0
 11 12  1  0  0  0
 12 13  2  0  0  0
 12 15  1  0  0  0
 13 14  1  0  0  0
 13 19  1  0  0  0
 14 48  1  0  0  0
 14 49  1  0  0  0
 15 16  1  0  0  0
 15 17  2  0  0  0
 16 50  1  0  0  0
 16 51  1  0  0  0
 16 52  1  0  0  0
 17 18  1  0  0  0
 17 53  1  0  0  0
 18 19  2  0  0  0
 18 54  1  0  0  0
 19 20  1  0  0  0
 20 21  2  0  0  0
 20 22  1  0  0  0
 22 23  1  0  0  0
 22 34  2  0  0  0
 23 24  2  0  0  0
 23 25  1  0  0  0
 25 26  1  0  0  0
 25 32  1  0  0  0
 26 27  2  0  0  0
 26 31  1  0  0  0
 27 28  1  0  0  0
 27 55  1  0  0  0
 28 29  2  0  0  0
 28 56  1  0  0  0
 29 30  1  0  0  0
 29 57  1  0  0  0
 30 31  2  0  0  0
 30 58  1  0  0  0
 31 59  1  0  0  0
 32 33  1  0  0  0
 32 34  1  0  0  0
 33 60  1  0  0  0
 33 61  1  0  0  0
 33 62  1  0  0  0
 34 35  1  0  0  0
 35 36  2  0  0  0
 35 40  1  0  0  0
 36 37  1  0  0  0
 36 63  1  0  0  0
 37 38  2  0  0  0
 37 64  1  0  0  0
 38 39  1  0  0  0
 38 65  1  0  0  0
 39 40  2  0  0  0
 39 66  1  0  0  0
 40 67  1  0  0  0
M  END
> <s_m_source_file>
../4x7l_ligand.sdf

> <i_m_source_file_index>
1

> <s_epik_input>
W0NIM11bTkhdYyhzMSluYyhjMTIpW2NIXVtjSF1jKFtjSF0yKS1jM2MoW05IMl0pYyhbY0hdW2NIXWMzW0NIM10pQyg9TyljNGMoPU8pbigtYzVbY0hdW2NIXVtjSF1bY0hdW2NIXTUpbihbQ0gzXSljNC1jNltjSF1bY0hdW2NIXVtjSF1bY0hdNg==

> <s_epik_cmdline>
J2VwaWtfYXBwJywgJy1pbWFlJywgJ2xpZ2FuZF9wcm8ubWFlJywgJy1vbWFlJywgJ2xpZ2FuZF9wcmVwLm1hZScsICctbXMnLCAnMScsICctcGgnLCAnNycsICctcGh0JywgJzAuNScsICctbnQn

> <r_lp_tautomer_probability>
1

> <r_epik_Ionization_Penalty>
  0.0013

> <r_epik_Ionization_Penalty_Charging>
  0.0000

> <r_epik_Ionization_Penalty_Neutral>
  0.0013

> <r_epik_State_Penalty>
 -0.0000

> <r_epik_Charging_Adjusted_Penalty>
1.27114053436901e-08

> <i_epik_Tot_Q>
0

> <i_epik_Tot_abs_Q>
0

$$$$
