4x8g_ligand
                    3D
 Schrodinger Suite 2020-3.
 61 65  0  0  1  0            999 V2000
   31.8690   45.2580   32.8880 C   0  0  0  0  0  0
   30.6480   44.6680   32.6810 C   0  0  0  0  0  0
   28.9830   44.0640   30.7870 C   0  0  0  0  0  0
   27.1370   42.5140   25.4140 C   0  0  0  0  0  0
   24.9560   43.5890   25.3320 C   0  0  0  0  0  0
   32.5460   45.7350   31.7930 C   0  0  0  0  0  0
   30.1540   44.5780   31.3980 C   0  0  0  0  0  0
   25.9140   42.7450   24.8270 C   0  0  0  0  0  0
   27.3850   43.1920   26.5910 C   0  0  0  0  0  0
   26.4330   44.0440   27.1100 C   0  0  0  0  0  0
   25.2220   44.2530   26.5020 C   0  0  0  0  0  0
   29.0990   44.2920   29.4340 C   0  0  0  0  0  0
   30.9450   45.1020   30.3990 C   0  0  0  0  0  0
   28.2230   43.9870   28.3710 C   0  0  0  0  0  0
   25.6180   42.0490   23.5830 C   0  0  0  0  0  0
   24.3420   44.9150   21.8780 C   0  0  0  0  0  0
   24.1400   44.3650   20.4890 C   0  0  0  0  0  0
   25.5220   44.2320   22.5200 C   0  0  0  0  0  0
   25.0460   42.1900   21.2150 C   0  0  0  0  0  0
   23.8730   42.8830   20.5670 C   0  0  2  0  0  0
   32.1130   44.6610   27.6630 C   0  0  0  0  0  0
   26.3780   45.4840   29.1650 C   0  0  0  0  0  0
   23.6590   46.0430   26.2840 C   0  0  0  0  0  0
   30.7870   45.3300   27.9220 C   0  0  0  0  0  0
   32.1360   45.6870   30.5240 N   0  0  0  0  0  0
   28.5020   43.1650   27.3860 N   0  0  0  0  0  0
   26.9850   44.5430   28.2510 N   0  0  0  0  0  0
   30.2910   44.9200   29.2160 N   0  0  0  0  0  0
   25.3490   42.8080   22.4750 N   0  0  0  0  0  0
   23.8140   42.3950   19.1700 N   0  3  0  0  0  0
   25.6240   40.8270   23.5560 O   0  0  0  0  0  0
   24.3540   45.1260   27.1130 O   0  0  0  0  0  0
   32.2885   45.3453   33.8903 H   0  0  0  0  0  0
   30.0756   44.2752   33.5213 H   0  0  0  0  0  0
   28.1479   43.5795   31.2929 H   0  0  0  0  0  0
   27.8679   41.8349   24.9751 H   0  0  0  0  0  0
   24.0065   43.7280   24.8151 H   0  0  0  0  0  0
   33.5147   46.1990   31.9786 H   0  0  0  0  0  0
   24.5307   45.9971   21.8200 H   0  0  0  0  0  0
   23.4395   44.7320   22.4797 H   0  0  0  0  0  0
   23.2825   44.8670   20.0170 H   0  0  0  0  0  0
   25.0447   44.5428   19.8891 H   0  0  0  0  0  0
   26.4409   44.5022   21.9791 H   0  0  0  0  0  0
   25.6058   44.5534   23.5686 H   0  0  0  0  0  0
   24.7996   41.1310   21.3821 H   0  0  0  0  0  0
   25.9242   42.2626   20.5566 H   0  0  0  0  0  0
   22.9454   42.6808   21.1225 H   0  0  0  0  0  0
   32.4939   44.9707   26.6786 H   0  0  0  0  0  0
   31.9819   43.5689   27.6784 H   0  0  0  0  0  0
   32.8307   44.9552   28.4430 H   0  0  0  0  0  0
   25.3747   45.7522   28.8024 H   0  0  0  0  0  0
   27.0000   46.3892   29.2260 H   0  0  0  0  0  0
   26.2973   45.0266   30.1621 H   0  0  0  0  0  0
   23.0051   46.6744   26.9034 H   0  0  0  0  0  0
   23.0499   45.4890   25.5546 H   0  0  0  0  0  0
   24.3830   46.6769   25.7510 H   0  0  0  0  0  0
   30.9181   46.4221   27.9066 H   0  0  0  0  0  0
   30.0693   45.0358   27.1420 H   0  0  0  0  0  0
   22.9705   42.8727   18.6501 H   0  0  0  0  0  0
   23.6753   41.3038   19.1684 H   0  0  0  0  0  0
   24.7524   42.6461   18.6540 H   0  0  0  0  0  0
  1  2  1  0  0  0
  1  6  2  0  0  0
  1 33  1  0  0  0
  2  7  2  0  0  0
  2 34  1  0  0  0
  3  7  1  0  0  0
  3 12  2  0  0  0
  3 35  1  0  0  0
  4  8  1  0  0  0
  4  9  2  0  0  0
  4 36  1  0  0  0
  5  8  2  0  0  0
  5 11  1  0  0  0
  5 37  1  0  0  0
  6 25  1  0  0  0
  6 38  1  0  0  0
  7 13  1  0  0  0
  8 15  1  0  0  0
  9 10  1  0  0  0
  9 26  1  0  0  0
 10 11  2  0  0  0
 10 27  1  0  0  0
 11 32  1  0  0  0
 12 14  1  0  0  0
 12 28  1  0  0  0
 13 25  2  0  0  0
 13 28  1  0  0  0
 14 26  2  0  0  0
 14 27  1  0  0  0
 15 29  1  0  0  0
 15 31  2  0  0  0
 16 17  1  0  0  0
 16 18  1  0  0  0
 16 39  1  0  0  0
 16 40  1  0  0  0
 17 20  1  0  0  0
 17 41  1  0  0  0
 17 42  1  0  0  0
 18 29  1  0  0  0
 18 43  1  0  0  0
 18 44  1  0  0  0
 19 20  1  0  0  0
 19 29  1  0  0  0
 19 45  1  0  0  0
 19 46  1  0  0  0
 20 30  1  0  0  0
 20 47  1  0  0  0
 21 24  1  0  0  0
 21 48  1  0  0  0
 21 49  1  0  0  0
 21 50  1  0  0  0
 22 27  1  0  0  0
 22 51  1  0  0  0
 22 52  1  0  0  0
 22 53  1  0  0  0
 23 32  1  0  0  0
 23 54  1  0  0  0
 23 55  1  0  0  0
 23 56  1  0  0  0
 24 28  1  0  0  0
 24 57  1  0  0  0
 24 58  1  0  0  0
 30 59  1  0  0  0
 30 60  1  0  0  0
 30 61  1  0  0  0
M  CHG  1  30   1
M  END
> <s_m_source_file>
../4x8g_ligand.sdf

> <i_m_source_file_index>
1

> <s_epik_input>
W2NIXTFbY0hdW2NIXW5jKGMxMiluKFtDSDJdW0NIM10pYyhbY0hdMiktYyhuMyluKFtDSDNdKWMoYzM0KWMoT1tDSDNdKVtjSF1jKFtjSF00KUMoPU8pTihbQ0gyXTUpW0NIMl1bQ0gyXVtDSDJdW0NASF01W05IMytd

> <s_epik_cmdline>
J2VwaWtfYXBwJywgJy1pbWFlJywgJ2xpZ2FuZF9wcm8ubWFlJywgJy1vbWFlJywgJ2xpZ2FuZF9wcmVwLm1hZScsICctbXMnLCAnMScsICctcGgnLCAnNycsICctcGh0JywgJzAuNScsICctbnQn

> <r_lp_tautomer_probability>
1

> <r_epik_Ionization_Penalty>
  0.0059

> <r_epik_Ionization_Penalty_Charging>
  0.0023

> <r_epik_Ionization_Penalty_Neutral>
  0.0036

> <r_epik_State_Penalty>
 -0.0000

> <r_epik_Charging_Adjusted_Penalty>
0.00234289597681191

> <i_epik_Tot_Q>
1

> <i_epik_Tot_abs_Q>
1

$$$$
