4x8p_ligand
                    3D
 Schrodinger Suite 2020-3.
201202  0  0  1  0            999 V2000
    9.7680    4.5410  -21.9750 N   0  3  0  0  0  0
    9.4890    5.8520  -21.3830 C   0  0  2  0  0  0
    9.5360    5.8040  -19.8650 C   0  0  0  0  0  0
    9.0190    4.8640  -19.2550 O   0  0  0  0  0  0
    8.1530    6.4270  -21.8660 C   0  0  0  0  0  0
    8.3230    7.4610  -22.9690 C   0  0  0  0  0  0
    7.1060    8.3170  -23.2800 C   0  0  0  0  0  0
    6.3170    8.6080  -22.3500 O   0  0  0  0  0  0
    6.9680    8.7350  -24.4530 O   0  0  0  0  0  0
   10.1770    6.8060  -19.2540 N   0  0  0  0  0  0
   10.3160    6.8210  -17.8060 C   0  0  2  0  0  0
    9.0020    7.0410  -17.0760 C   0  0  0  0  0  0
    8.2030    7.8980  -17.4660 O   0  0  0  0  0  0
   11.3850    7.8210  -17.3320 C   0  0  0  0  0  0
   11.7370    7.6090  -15.8760 C   0  0  0  0  0  0
   12.5740    6.5630  -15.4860 C   0  0  0  0  0  0
   11.1560    8.3910  -14.8760 C   0  0  0  0  0  0
   12.8500    6.3200  -14.1460 C   0  0  0  0  0  0
   11.4290    8.1580  -13.5270 C   0  0  0  0  0  0
   12.2790    7.1220  -13.1710 C   0  0  0  0  0  0
   12.5520    6.8650  -11.8600 O   0  0  0  0  0  0
    8.7950    6.2530  -16.0030 N   0  0  0  0  0  0
    7.6420    6.3520  -15.1080 C   0  0  2  0  0  0
    8.1670    6.3740  -13.6920 C   0  0  0  0  0  0
    9.1300    5.6520  -13.3830 O   0  0  0  0  0  0
    6.6700    5.1900  -15.3000 C   0  0  0  0  0  0
    5.7430    5.4080  -16.4850 C   0  0  0  0  0  0
    4.7220    4.3130  -16.7280 C   0  0  0  0  0  0
    4.1010    3.8400  -15.7480 O   0  0  0  0  0  0
    4.5230    3.9490  -17.9090 O   0  0  0  0  0  0
    7.5500    7.2050  -12.8340 N   0  0  0  0  0  0
    7.9740    7.3760  -11.4480 C   0  0  2  0  0  0
    8.0060    6.0460  -10.6820 C   0  0  0  0  0  0
    7.0510    5.2720  -10.7470 O   0  0  0  0  0  0
    7.1360    8.4390  -10.7360 C   0  0  0  0  0  0
    7.6990    8.7680   -9.3590 C   0  0  0  0  0  0
    6.9960    9.8600   -8.5890 C   0  0  0  0  0  0
    6.1930   10.6090   -9.1900 O   0  0  0  0  0  0
    7.1950    9.9150   -7.3580 O   0  0  0  0  0  0
    9.1540    5.7590  -10.0510 N   0  0  0  0  0  0
    9.4200    4.5130   -9.3280 C   0  0  2  0  0  0
    9.1950    4.6670   -7.8380 C   0  0  0  0  0  0
    9.1990    5.7740   -7.3170 O   0  0  0  0  0  0
   10.8770    4.0580   -9.5920 C   0  0  0  0  0  0
   11.1280    3.5790  -11.0340 C   0  0  0  0  0  0
   12.5360    3.0530  -11.2230 C   0  0  0  0  0  0
   12.7420    1.7690  -10.5500 N   0  0  0  0  0  0
   12.5440    0.5740  -11.1050 C   0  0  0  0  0  0
   12.1310    0.4760  -12.3600 N   0  0  0  0  0  0
   12.7550   -0.5290  -10.4060 N   0  0  0  0  0  0
    9.0360    3.5470   -7.1430 N   0  0  0  0  0  0
    8.8790    3.4700   -5.6810 C   0  0  2  0  0  0
   10.1360    4.1040   -4.9760 C   0  0  0  0  0  0
   10.0100    4.8270   -3.9720 O   0  0  0  0  0  0
    8.6830    1.9820   -5.3070 C   0  0  0  0  0  0
    8.2360    1.7200   -3.8860 C   0  0  0  0  0  0
    9.2850    1.8800   -2.7990 C   0  0  0  0  0  0
   10.4940    1.6640   -3.0590 O   0  0  0  0  0  0
    8.8790    2.2140   -1.6670 O   0  0  0  0  0  0
   11.3290    3.8510   -5.5320 N   0  0  0  0  0  0
   12.5970    4.3620   -5.0030 C   0  0  2  0  0  0
   13.0200    5.7140   -5.6190 C   0  0  0  0  0  0
   14.1950    6.0620   -5.5090 O   0  0  0  0  0  0
   13.7010    3.3330   -5.2170 C   0  0  0  0  0  0
   13.8750    3.0520   -6.5980 O   0  0  0  0  0  0
   12.0690    6.4750   -6.2460 N   0  0  0  0  0  0
   12.2930    7.7770   -6.9090 C   0  0  2  0  0  0
   13.1450    8.8270   -6.1350 C   0  0  0  0  0  0
   13.9790    9.5090   -6.7340 O   0  0  0  0  0  0
   10.9440    8.4220   -7.2670 C   0  0  0  0  0  0
   11.0270    9.5050   -8.3390 C   0  0  0  0  0  0
   11.4310    9.0190   -9.7180 C   0  0  0  0  0  0
   11.0940    7.8700  -10.0800 O   0  0  0  0  0  0
   12.1630    9.7600  -10.4040 O   0  0  0  0  0  0
   12.8850    8.9800   -4.8290 N   0  0  0  0  0  0
   13.5130    9.9990   -3.9780 C   0  0  2  0  0  0
   14.7250    9.4760   -3.2030 C   0  0  0  0  0  0
   15.4140   10.2610   -2.5550 O   0  0  0  0  0  0
   12.4630   10.5600   -2.9870 C   0  0  0  0  0  0
   11.2020   11.1420   -3.5910 C   0  0  0  0  0  0
   10.2270   10.3150   -4.1390 C   0  0  0  0  0  0
   10.9640   12.5140   -3.5590 C   0  0  0  0  0  0
    9.0560   10.8470   -4.6600 C   0  0  0  0  0  0
    9.7890   13.0480   -4.0800 C   0  0  0  0  0  0
    8.8350   12.2090   -4.6110 C   0  0  0  0  0  0
   14.9800    8.1620   -3.2540 N   0  0  0  0  0  0
   16.0450    7.5310   -2.4710 C   0  0  2  0  0  0
   17.4540    7.7620   -2.9430 C   0  0  0  0  0  0
   17.7590    7.5590   -4.1110 O   0  0  0  0  0  0
   15.7800    6.0240   -2.2410 C   0  0  0  0  0  0
   14.3590    5.6830   -1.8080 C   0  0  0  0  0  0
   13.6180    6.6040   -1.4020 O   0  0  0  0  0  0
   13.9750    4.5230   -1.9380 O   0  0  0  0  0  0
   18.3200    8.1250   -1.9960 N   0  0  0  0  0  0
   19.7550    8.3230   -2.1620 C   0  0  2  0  0  0
   20.4610    6.9500   -2.0920 C   0  0  0  0  0  0
   21.3640    6.6660   -2.9010 O   0  0  0  0  0  0
   20.2750    9.2810   -1.0620 C   0  0  2  0  0  0
   19.5370   10.6430   -1.1380 C   0  0  0  0  0  0
   21.8280    9.4380   -1.1310 C   0  0  0  0  0  0
   19.6680   11.5380    0.1320 C   0  0  0  0  0  0
   20.0370    6.1230   -1.0990 N   0  0  0  0  0  0
   20.5250    4.7770   -0.7900 C   0  0  2  0  0  0
   19.3520    3.9530   -0.2770 C   0  0  0  0  0  0
   18.4540    4.5110    0.3500 O   0  0  0  0  0  0
   21.6290    4.8280    0.2820 C   0  0  0  0  0  0
   19.3240    2.7440   -0.4990 O   0  0  0  0  0  0
   10.7331    4.1679  -21.6015 H   0  0  0  0  0  0
    9.8101    4.6347  -23.0702 H   0  0  0  0  0  0
    8.9703    3.8362  -21.6977 H   0  0  0  0  0  0
   10.3100    6.4893  -21.7431 H   0  0  0  0  0  0
    7.5251    5.6143  -22.2601 H   0  0  0  0  0  0
    7.6376    6.9135  -21.0248 H   0  0  0  0  0  0
    9.1247    8.1621  -22.6939 H   0  0  0  0  0  0
    8.5857    6.9543  -23.9093 H   0  0  0  0  0  0
    5.4304    9.2263  -22.5541 H   0  0  0  0  0  0
   10.6010    7.6234  -19.8557 H   0  0  0  0  0  0
   10.6439    5.7919  -17.5976 H   0  0  0  0  0  0
   12.2978    7.6940  -17.9325 H   0  0  0  0  0  0
   11.0066    8.8468  -17.4525 H   0  0  0  0  0  0
   13.0203    5.9237  -16.2477 H   0  0  0  0  0  0
   10.4774    9.1976  -15.1535 H   0  0  0  0  0  0
   13.5127    5.5021  -13.8631 H   0  0  0  0  0  0
   10.9772    8.7859  -12.7591 H   0  0  0  0  0  0
   13.2280    6.0402  -11.5904 H   0  0  0  0  0  0
    9.5697    5.4938  -15.8200 H   0  0  0  0  0  0
    7.1113    7.2833  -15.3553 H   0  0  0  0  0  0
    7.2363    4.2633  -15.4747 H   0  0  0  0  0  0
    6.0510    5.0768  -14.3978 H   0  0  0  0  0  0
    5.1718    6.3365  -16.3377 H   0  0  0  0  0  0
    6.3383    5.4860  -17.4067 H   0  0  0  0  0  0
    3.3560    3.0452  -15.9005 H   0  0  0  0  0  0
    6.6887    7.7704  -13.2194 H   0  0  0  0  0  0
    9.0077    7.7441  -11.5253 H   0  0  0  0  0  0
    7.1262    9.3608  -11.3362 H   0  0  0  0  0  0
    6.1067    8.0716  -10.6114 H   0  0  0  0  0  0
    7.6542    7.8729   -8.7211 H   0  0  0  0  0  0
    8.7445    9.0951   -9.4589 H   0  0  0  0  0  0
    5.6728   11.4093   -8.6432 H   0  0  0  0  0  0
    9.9265    6.5404  -10.1030 H   0  0  0  0  0  0
    8.6831    3.7921   -9.7117 H   0  0  0  0  0  0
   11.5630    4.8968   -9.4030 H   0  0  0  0  0  0
   11.1270    3.2218   -8.9225 H   0  0  0  0  0  0
   10.4243    2.7699  -11.2793 H   0  0  0  0  0  0
   10.9794    4.4177  -11.7301 H   0  0  0  0  0  0
   12.7338    2.9119  -12.2958 H   0  0  0  0  0  0
   13.2557    3.7748  -10.8093 H   0  0  0  0  0  0
   13.0863    1.7445   -9.5055 H   0  0  0  0  0  0
   11.9517    1.3852  -12.9526 H   0  0  0  0  0  0
   11.9674   -0.5146  -12.8094 H   0  0  0  0  0  0
   13.0980   -0.4620   -9.3630 H   0  0  0  0  0  0
    9.0267    2.6273   -7.7464 H   0  0  0  0  0  0
    7.9826    4.0418   -5.3991 H   0  0  0  0  0  0
    7.9170    1.5378   -5.9596 H   0  0  0  0  0  0
    9.6330    1.4430   -5.4372 H   0  0  0  0  0  0
    7.4253    2.4152   -3.6226 H   0  0  0  0  0  0
    7.8736    0.6849   -3.8005 H   0  0  0  0  0  0
   11.2548    1.7794   -2.2729 H   0  0  0  0  0  0
   11.3231    3.2220   -6.4344 H   0  0  0  0  0  0
   12.3929    4.5101   -3.9323 H   0  0  0  0  0  0
   14.6479    3.7221   -4.8145 H   0  0  0  0  0  0
   13.4379    2.3996   -4.6978 H   0  0  0  0  0  0
   14.6367    2.3267   -6.9200 H   0  0  0  0  0  0
   11.0617    6.0334   -6.2273 H   0  0  0  0  0  0
   12.8779    7.4582   -7.7843 H   0  0  0  0  0  0
   10.2570    7.6500   -7.6439 H   0  0  0  0  0  0
   10.5123    8.8909   -6.3705 H   0  0  0  0  0  0
   10.0439    9.9853   -8.4518 H   0  0  0  0  0  0
   11.7713   10.2586   -8.0421 H   0  0  0  0  0  0
   11.3786    7.5017  -11.0767 H   0  0  0  0  0  0
   12.1507    8.2820   -4.4005 H   0  0  0  0  0  0
   13.8740   10.7589   -4.6867 H   0  0  0  0  0  0
   12.1290    9.7571   -2.3133 H   0  0  0  0  0  0
   12.9133   11.3710   -2.3958 H   0  0  0  0  0  0
   10.3846    9.2366   -4.1594 H   0  0  0  0  0  0
   11.7081   13.1786   -3.1199 H   0  0  0  0  0  0
    8.3107   10.1897   -5.1079 H   0  0  0  0  0  0
    9.6247   14.1255   -4.0677 H   0  0  0  0  0  0
    7.9017   12.6217   -4.9941 H   0  0  0  0  0  0
   14.3505    7.5518   -3.9184 H   0  0  0  0  0  0
   15.9734    8.1156   -1.5420 H   0  0  0  0  0  0
   15.9679    5.4721   -3.1738 H   0  0  0  0  0  0
   16.4497    5.6501   -1.4525 H   0  0  0  0  0  0
   12.5886    6.3821   -1.0842 H   0  0  0  0  0  0
   17.8541    8.2772   -1.0112 H   0  0  0  0  0  0
   19.9098    8.7772   -3.1518 H   0  0  0  0  0  0
   20.0427    8.8393   -0.0817 H   0  0  0  0  0  0
   19.9362   11.2299   -1.9784 H   0  0  0  0  0  0
   18.4615   10.4693   -1.2902 H   0  0  0  0  0  0
   22.2997    8.4460   -1.0732 H   0  0  0  0  0  0
   22.1717   10.0571   -0.2892 H   0  0  0  0  0  0
   22.1059    9.9215   -2.0792 H   0  0  0  0  0  0
   19.1130   12.4753   -0.0212 H   0  0  0  0  0  0
   20.7290   11.7654    0.3125 H   0  0  0  0  0  0
   19.2544   11.0047    1.0006 H   0  0  0  0  0  0
   19.2357    6.5702   -0.4925 H   0  0  0  0  0  0
   20.9320    4.3584   -1.7223 H   0  0  0  0  0  0
   22.4751    5.4238   -0.0911 H   0  0  0  0  0  0
   21.9702    3.8065    0.5058 H   0  0  0  0  0  0
   21.2304    5.2902    1.1971 H   0  0  0  0  0  0
   18.4823    2.1371   -0.1340 H   0  0  0  0  0  0
  1  2  1  0  0  0
  1108  1  0  0  0
  1109  1  0  0  0
  1110  1  0  0  0
  2  3  1  0  0  0
  2  5  1  0  0  0
  2111  1  0  0  0
  3  4  2  0  0  0
  3 10  1  0  0  0
  5  6  1  0  0  0
  5112  1  0  0  0
  5113  1  0  0  0
  6  7  1  0  0  0
  6114  1  0  0  0
  6115  1  0  0  0
  7  8  1  0  0  0
  7  9  2  0  0  0
  8116  1  0  0  0
 10 11  1  0  0  0
 10117  1  0  0  0
 11 12  1  0  0  0
 11 14  1  0  0  0
 11118  1  0  0  0
 12 13  2  0  0  0
 12 22  1  0  0  0
 14 15  1  0  0  0
 14119  1  0  0  0
 14120  1  0  0  0
 15 16  2  0  0  0
 15 17  1  0  0  0
 16 18  1  0  0  0
 16121  1  0  0  0
 17 19  2  0  0  0
 17122  1  0  0  0
 18 20  2  0  0  0
 18123  1  0  0  0
 19 20  1  0  0  0
 19124  1  0  0  0
 20 21  1  0  0  0
 21125  1  0  0  0
 22 23  1  0  0  0
 22126  1  0  0  0
 23 24  1  0  0  0
 23 26  1  0  0  0
 23127  1  0  0  0
 24 25  2  0  0  0
 24 31  1  0  0  0
 26 27  1  0  0  0
 26128  1  0  0  0
 26129  1  0  0  0
 27 28  1  0  0  0
 27130  1  0  0  0
 27131  1  0  0  0
 28 29  1  0  0  0
 28 30  2  0  0  0
 29132  1  0  0  0
 31 32  1  0  0  0
 31133  1  0  0  0
 32 33  1  0  0  0
 32 35  1  0  0  0
 32134  1  0  0  0
 33 34  2  0  0  0
 33 40  1  0  0  0
 35 36  1  0  0  0
 35135  1  0  0  0
 35136  1  0  0  0
 36 37  1  0  0  0
 36137  1  0  0  0
 36138  1  0  0  0
 37 38  1  0  0  0
 37 39  2  0  0  0
 38139  1  0  0  0
 40 41  1  0  0  0
 40140  1  0  0  0
 41 42  1  0  0  0
 41 44  1  0  0  0
 41141  1  0  0  0
 42 43  2  0  0  0
 42 51  1  0  0  0
 44 45  1  0  0  0
 44142  1  0  0  0
 44143  1  0  0  0
 45 46  1  0  0  0
 45144  1  0  0  0
 45145  1  0  0  0
 46 47  1  0  0  0
 46146  1  0  0  0
 46147  1  0  0  0
 47 48  1  0  0  0
 47148  1  0  0  0
 48 49  1  0  0  0
 48 50  2  0  0  0
 49149  1  0  0  0
 49150  1  0  0  0
 50151  1  0  0  0
 51 52  1  0  0  0
 51152  1  0  0  0
 52 53  1  0  0  0
 52 55  1  0  0  0
 52153  1  0  0  0
 53 54  2  0  0  0
 53 60  1  0  0  0
 55 56  1  0  0  0
 55154  1  0  0  0
 55155  1  0  0  0
 56 57  1  0  0  0
 56156  1  0  0  0
 56157  1  0  0  0
 57 58  1  0  0  0
 57 59  2  0  0  0
 58158  1  0  0  0
 60 61  1  0  0  0
 60159  1  0  0  0
 61 62  1  0  0  0
 61 64  1  0  0  0
 61160  1  0  0  0
 62 63  2  0  0  0
 62 66  1  0  0  0
 64 65  1  0  0  0
 64161  1  0  0  0
 64162  1  0  0  0
 65163  1  0  0  0
 66 67  1  0  0  0
 66164  1  0  0  0
 67 68  1  0  0  0
 67 70  1  0  0  0
 67165  1  0  0  0
 68 69  2  0  0  0
 68 75  1  0  0  0
 70 71  1  0  0  0
 70166  1  0  0  0
 70167  1  0  0  0
 71 72  1  0  0  0
 71168  1  0  0  0
 71169  1  0  0  0
 72 73  1  0  0  0
 72 74  2  0  0  0
 73170  1  0  0  0
 75 76  1  0  0  0
 75171  1  0  0  0
 76 77  1  0  0  0
 76 79  1  0  0  0
 76172  1  0  0  0
 77 78  2  0  0  0
 77 86  1  0  0  0
 79 80  1  0  0  0
 79173  1  0  0  0
 79174  1  0  0  0
 80 81  2  0  0  0
 80 82  1  0  0  0
 81 83  1  0  0  0
 81175  1  0  0  0
 82 84  2  0  0  0
 82176  1  0  0  0
 83 85  2  0  0  0
 83177  1  0  0  0
 84 85  1  0  0  0
 84178  1  0  0  0
 85179  1  0  0  0
 86 87  1  0  0  0
 86180  1  0  0  0
 87 88  1  0  0  0
 87 90  1  0  0  0
 87181  1  0  0  0
 88 89  2  0  0  0
 88 94  1  0  0  0
 90 91  1  0  0  0
 90182  1  0  0  0
 90183  1  0  0  0
 91 92  1  0  0  0
 91 93  2  0  0  0
 92184  1  0  0  0
 94 95  1  0  0  0
 94185  1  0  0  0
 95 96  1  0  0  0
 95 98  1  0  0  0
 95186  1  0  0  0
 96 97  2  0  0  0
 96102  1  0  0  0
 98 99  1  0  0  0
 98100  1  0  0  0
 98187  1  0  0  0
 99101  1  0  0  0
 99188  1  0  0  0
 99189  1  0  0  0
100190  1  0  0  0
100191  1  0  0  0
100192  1  0  0  0
101193  1  0  0  0
101194  1  0  0  0
101195  1  0  0  0
102103  1  0  0  0
102196  1  0  0  0
103104  1  0  0  0
103106  1  0  0  0
103197  1  0  0  0
104105  2  0  0  0
104107  1  0  0  0
106198  1  0  0  0
106199  1  0  0  0
106200  1  0  0  0
107201  1  0  0  0
M  CHG  1   1   1
M  END
> <s_m_source_file>
../4x8p_ligand.sdf

> <i_m_source_file_index>
1

> <s_epik_input>
W09IXUMoPU8pW0NIMl1bQ0gyXVtDQEhdKFtOSDMrXSlDKD1PKVtOSF1bQ0BASF0oW0NIMl1jMVtjSF1bY0hdYyhbT0hdKVtjSF1bY0hdMSlDKD1PKVtOSF1bQ0BASF0oW0NIMl1bQ0gyXUMoPU8pW09IXSlDKD1PKVtOSF1bQ0BASF0oW0NIMl1bQ0gyXUMoPU8pW09IXSlDKD1PKVtOSF1bQ0BASF0oW0NIMl1bQ0gyXVtDSDJdW05IXS9DKFtOSDJdKT1OXFtIXSlDKD1PKVtOSF1bQ0BASF0oW0NIMl1bQ0gyXUMoPU8pW09IXSlDKD1PKVtOSF1bQ0BASF0oW0NIMl1bT0hdKUMoPU8pW05IXVtDQEBIXShbQ0gyXVtDSDJdQyg9TylbT0hdKUMoPU8pW05IXVtDQEBIXShbQ0gyXWMyW2NIXVtjSF1bY0hdW2NIXVtjSF0yKUMoPU8pW05IXVtDQEBIXShbQ0gyXUMoPU8pW09IXSlDKD1PKVtOSF1bQ0BASF0oW0NAQEhdKFtDSDNdKVtDSDJdW0NIM10pQyg9TylbTkhdW0NAQEhdKFtDSDNdKUMoPU8pW09IXQ==

> <s_epik_cmdline>
J2VwaWtfYXBwJywgJy1pbWFlJywgJ2xpZ2FuZF9wcm8ubWFlJywgJy1vbWFlJywgJ2xpZ2FuZF9wcmVwLm1hZScsICctbXMnLCAnMScsICctcGgnLCAnNycsICctcGh0JywgJzAuNScsICctbnQn

> <s_epik_pKa_notes>
Molecule size exceeds maximum supported for generating protonation states

> <s_epik_Chemistry_Notes>
This compound has an imine and may undergo hydrolysis.

$$$$
