4x8s_ligand
                    3D
 Schrodinger Suite 2020-3.
 17 17  0  0  1  0            999 V2000
    9.4760   34.3640   27.9280 C   0  0  0  0  0  0
    9.6750   33.0440   27.5780 C   0  0  0  0  0  0
    9.5710   34.7640   29.2710 C   0  0  0  0  0  0
    9.8920   33.8210   30.2460 C   0  0  0  0  0  0
    9.9910   32.1300   28.5640 C   0  0  0  0  0  0
   10.1090   32.4980   29.8940 C   0  0  0  0  0  0
    9.2400   35.3800   27.0450 O   0  0  0  0  0  0
   10.2370   30.3160   28.0730 Br  0  0  0  0  0  0
    9.3980   36.0660   29.6100 O   0  0  0  0  0  0
    9.3400   35.0900   25.6520 C   0  0  0  0  0  0
    9.5841   32.7275   26.5389 H   0  0  0  0  0  0
    9.9727   34.1252   31.2896 H   0  0  0  0  0  0
   10.3684   31.7589   30.6520 H   0  0  0  0  0  0
    9.1447   36.8066   28.8371 H   0  0  0  0  0  0
    9.1246   35.9994   25.0718 H   0  0  0  0  0  0
    8.6150   34.3061   25.3877 H   0  0  0  0  0  0
   10.3575   34.7409   25.4223 H   0  0  0  0  0  0
  1  2  2  0  0  0
  1  3  1  0  0  0
  1  7  1  0  0  0
  2  5  1  0  0  0
  2 11  1  0  0  0
  3  4  2  0  0  0
  3  9  1  0  0  0
  4  6  1  0  0  0
  4 12  1  0  0  0
  5  6  2  0  0  0
  5  8  1  0  0  0
  6 13  1  0  0  0
  7 10  1  0  0  0
  9 14  1  0  0  0
 10 15  1  0  0  0
 10 16  1  0  0  0
 10 17  1  0  0  0
M  END
> <s_m_source_file>
../4x8s_ligand.sdf

> <i_m_source_file_index>
1

> <s_epik_input>
W0NIM11PYzFbY0hdYyhCcilbY0hdW2NIXWMxW09IXQ==

> <s_epik_cmdline>
J2VwaWtfYXBwJywgJy1pbWFlJywgJ2xpZ2FuZF9wcm8ubWFlJywgJy1vbWFlJywgJ2xpZ2FuZF9wcmVwLm1hZScsICctbXMnLCAnMScsICctcGgnLCAnNycsICctcGh0JywgJzAuNScsICctbnQn

> <r_lp_tautomer_probability>
1

> <r_epik_Ionization_Penalty>
  0.0072

> <r_epik_Ionization_Penalty_Charging>
  0.0000

> <r_epik_Ionization_Penalty_Neutral>
  0.0072

> <r_epik_State_Penalty>
 -0.0000

> <r_epik_Charging_Adjusted_Penalty>
0

> <i_epik_Tot_Q>
0

> <i_epik_Tot_abs_Q>
0

$$$$
