4x8v_ligand
                    3D
 Schrodinger Suite 2020-3.
 87 91  0  0  1  0            999 V2000
    7.2670   37.4310   25.8850 C   0  0  2  0  0  0
    6.7720   40.3180   23.3570 C   0  0  2  0  0  0
    7.2590   38.2750   24.5980 C   0  0  0  0  0  0
    6.5160   41.7500   23.8510 C   0  0  0  0  0  0
    5.6850   41.5510   25.1110 C   0  0  0  0  0  0
    6.1530   40.2570   25.7360 C   0  0  0  0  0  0
    5.7590   39.8410   22.3310 C   0  0  0  0  0  0
    5.1160   36.3220   25.2000 C   0  0  0  0  0  0
    3.8190   35.8990   25.4520 C   0  0  0  0  0  0
    3.7800   38.9090   20.5560 C   0  0  0  0  0  0
    5.2780   37.1770   27.4410 C   0  0  0  0  0  0
    3.6220   38.7120   21.9230 C   0  0  0  0  0  0
    8.4650   35.8060   28.0980 C   0  0  0  0  0  0
    9.7380   33.4450   27.4050 C   0  0  0  0  0  0
    9.3430   34.3260   26.4190 C   0  0  0  0  0  0
    8.6800   35.5030   26.7560 C   0  0  0  0  0  0
    9.4890   33.7040   28.7480 C   0  0  0  0  0  0
    8.8580   34.9110   29.1010 C   0  0  0  0  0  0
    8.5350   35.2180   30.5130 C   0  0  0  0  0  0
    9.0450   34.3760   31.4270 N   0  0  0  0  0  0
    9.9280   33.2640   31.1650 C   0  0  0  0  0  0
    9.7610   32.6500   29.7930 C   0  0  0  0  0  0
    7.8370   36.1680   30.8490 O   0  0  0  0  0  0
    8.1870   36.3150   25.7310 N   0  0  0  0  0  0
    5.8490   36.9710   26.1870 C   0  0  0  0  0  0
    7.7750   37.8160   23.6020 O   0  0  0  0  0  0
    6.7580   39.5220   24.6120 N   0  0  0  0  0  0
    3.2320   36.1460   26.7230 C   0  0  0  0  0  0
    3.9820   36.7700   27.7190 C   0  0  0  0  0  0
    1.9160   35.7780   26.8430 O   0  0  0  0  0  0
    1.2830   35.9110   28.1150 C   0  0  0  0  0  0
    3.0510   35.1710   24.5740 O   0  0  0  0  0  0
    3.5710   34.9090   23.2680 C   0  0  0  0  0  0
    4.6120   39.1740   22.7880 C   0  0  0  0  0  0
    4.8960   39.5710   20.0740 C   0  0  0  0  0  0
    5.8730   40.0320   20.9490 C   0  0  0  0  0  0
    7.1940   40.9200   20.1390 S   0  0  0  0  0  0
    8.3570   39.6660   19.5200 C   0  0  0  0  0  0
    6.6230   41.5730   18.9920 O   0  0  0  0  0  0
    7.8940   41.7220   21.1040 O   0  0  0  0  0  0
    8.9320   38.7690   20.5990 C   0  0  0  0  0  0
    9.4330   40.3690   18.7110 C   0  0  0  0  0  0
    2.3900   38.1430   22.3380 N   0  0  0  0  0  0
    1.8600   38.1290   23.5890 C   0  0  0  0  0  0
    0.7620   37.3570   23.5930 O   0  0  0  0  0  0
    2.2580   38.7590   24.5440 O   0  0  0  0  0  0
   -0.0740   37.4440   24.7740 C   0  0  0  0  0  0
    7.6521   37.9881   26.7518 H   0  0  0  0  0  0
    7.7248   40.1999   22.8201 H   0  0  0  0  0  0
    7.4769   42.2437   24.0580 H   0  0  0  0  0  0
    5.9735   42.3133   23.0774 H   0  0  0  0  0  0
    5.8465   42.3978   25.7943 H   0  0  0  0  0  0
    4.6198   41.4945   24.8426 H   0  0  0  0  0  0
    6.8819   40.4760   26.5302 H   0  0  0  0  0  0
    5.2916   39.7246   26.1655 H   0  0  0  0  0  0
    5.5632   36.1444   24.2219 H   0  0  0  0  0  0
    3.0237   38.5415   19.8624 H   0  0  0  0  0  0
    5.8620   37.6681   28.2194 H   0  0  0  0  0  0
    7.9871   36.7471   28.3700 H   0  0  0  0  0  0
   10.2557   32.5275   27.1252 H   0  0  0  0  0  0
    9.5507   34.0997   25.3732 H   0  0  0  0  0  0
    8.7299   34.5972   32.4574 H   0  0  0  0  0  0
   10.9728   33.5990   31.2437 H   0  0  0  0  0  0
    9.7421   32.4671   31.9001 H   0  0  0  0  0  0
    8.9198   31.9420   29.8273 H   0  0  0  0  0  0
   10.6846   32.1099   29.5374 H   0  0  0  0  0  0
    8.5600   36.0434   24.7324 H   0  0  0  0  0  0
    3.5534   36.9364   28.7073 H   0  0  0  0  0  0
    0.2380   35.5756   28.0413 H   0  0  0  0  0  0
    1.3086   36.9650   28.4289 H   0  0  0  0  0  0
    1.8145   35.2949   28.8552 H   0  0  0  0  0  0
    2.8405   34.3202   22.6938 H   0  0  0  0  0  0
    4.5109   34.3440   23.3541 H   0  0  0  0  0  0
    3.7616   35.8613   22.7514 H   0  0  0  0  0  0
    4.4910   39.0113   23.8590 H   0  0  0  0  0  0
    5.0095   39.7318   19.0019 H   0  0  0  0  0  0
    7.9911   38.8712   18.8534 H   0  0  0  0  0  0
    8.1115   38.2874   21.1512 H   0  0  0  0  0  0
    9.5369   39.3714   21.2927 H   0  0  0  0  0  0
    9.5647   37.9975   20.1358 H   0  0  0  0  0  0
    8.9611   41.0034   17.9463 H   0  0  0  0  0  0
   10.0725   39.6194   18.2219 H   0  0  0  0  0  0
   10.0447   40.9933   19.3788 H   0  0  0  0  0  0
    1.7423   37.6393   21.6053 H   0  0  0  0  0  0
   -0.9372   36.7714   24.6625 H   0  0  0  0  0  0
   -0.4283   38.4781   24.8970 H   0  0  0  0  0  0
    0.5092   37.1485   25.6586 H   0  0  0  0  0  0
  1  3  1  0  0  0
  1 24  1  0  0  0
  1 25  1  0  0  0
  1 48  1  0  0  0
  2  4  1  0  0  0
  2  7  1  0  0  0
  2 27  1  0  0  0
  2 49  1  0  0  0
  3 26  2  0  0  0
  3 27  1  0  0  0
  4  5  1  0  0  0
  4 50  1  0  0  0
  4 51  1  0  0  0
  5  6  1  0  0  0
  5 52  1  0  0  0
  5 53  1  0  0  0
  6 27  1  0  0  0
  6 54  1  0  0  0
  6 55  1  0  0  0
  7 34  2  0  0  0
  7 36  1  0  0  0
  8  9  2  0  0  0
  8 25  1  0  0  0
  8 56  1  0  0  0
  9 28  1  0  0  0
  9 32  1  0  0  0
 10 12  2  0  0  0
 10 35  1  0  0  0
 10 57  1  0  0  0
 11 25  2  0  0  0
 11 29  1  0  0  0
 11 58  1  0  0  0
 12 34  1  0  0  0
 12 43  1  0  0  0
 13 16  2  0  0  0
 13 18  1  0  0  0
 13 59  1  0  0  0
 14 15  2  0  0  0
 14 17  1  0  0  0
 14 60  1  0  0  0
 15 16  1  0  0  0
 15 61  1  0  0  0
 16 24  1  0  0  0
 17 18  2  0  0  0
 17 22  1  0  0  0
 18 19  1  0  0  0
 19 20  1  0  0  0
 19 23  2  0  0  0
 20 21  1  0  0  0
 20 62  1  0  0  0
 21 22  1  0  0  0
 21 63  1  0  0  0
 21 64  1  0  0  0
 22 65  1  0  0  0
 22 66  1  0  0  0
 24 67  1  0  0  0
 28 29  2  0  0  0
 28 30  1  0  0  0
 29 68  1  0  0  0
 30 31  1  0  0  0
 31 69  1  0  0  0
 31 70  1  0  0  0
 31 71  1  0  0  0
 32 33  1  0  0  0
 33 72  1  0  0  0
 33 73  1  0  0  0
 33 74  1  0  0  0
 34 75  1  0  0  0
 35 36  2  0  0  0
 35 76  1  0  0  0
 36 37  1  0  0  0
 37 38  1  0  0  0
 37 39  2  0  0  0
 37 40  2  0  0  0
 38 41  1  0  0  0
 38 42  1  0  0  0
 38 77  1  0  0  0
 41 78  1  0  0  0
 41 79  1  0  0  0
 41 80  1  0  0  0
 42 81  1  0  0  0
 42 82  1  0  0  0
 42 83  1  0  0  0
 43 44  1  0  0  0
 43 84  1  0  0  0
 44 45  1  0  0  0
 44 46  2  0  0  0
 45 47  1  0  0  0
 47 85  1  0  0  0
 47 86  1  0  0  0
 47 87  1  0  0  0
M  END
> <s_m_source_file>
../4x8v_ligand.sdf

> <i_m_source_file_index>
1

> <s_epik_input>
W0NIMl0xW0NIMl1bTkhdQyg9TyljKGMxMilbY0hdYyhbY0hdW2NIXTIpW05IXVtDQEhdKGMoW2NIXWMzT1tDSDNdKVtjSF1bY0hdYzNPW0NIM10pQyg9TylONFtDSDJdW0NIMl1bQ0gyXVtDQEBIXTRjNVtjSF1jKFtOSF1DKD1PKU9bQ0gzXSlbY0hdW2NIXWM1Uyg9TykoPU8pW0NIXShbQ0gzXSlbQ0gzXQ==

> <s_epik_cmdline>
J2VwaWtfYXBwJywgJy1pbWFlJywgJ2xpZ2FuZF9wcm8ubWFlJywgJy1vbWFlJywgJ2xpZ2FuZF9wcmVwLm1hZScsICctbXMnLCAnMScsICctcGgnLCAnNycsICctcGh0JywgJzAuNScsICctbnQn

> <r_lp_tautomer_probability>
1

> <r_epik_Ionization_Penalty>
  0.0000

> <r_epik_Ionization_Penalty_Charging>
  0.0000

> <r_epik_Ionization_Penalty_Neutral>
  0.0000

> <r_epik_State_Penalty>
 -0.0000

> <r_epik_Charging_Adjusted_Penalty>
0

> <i_epik_Tot_Q>
0

> <i_epik_Tot_abs_Q>
0

> <s_epik_Chemistry_Notes>
This compound has an ester and may undergo hydrolysis at high or low pH.

$$$$
