4x9r_ligand
                    3D
 Schrodinger Suite 2020-3.
139142  0  0  1  0            999 V2000
   -3.5010   28.0670   69.7530 N   0  0  0  0  0  0
   -9.4910   28.2190   68.3470 C   0  0  0  0  0  0
   -8.2650   28.9950   67.9070 C   0  0  0  0  0  0
   -7.4820   28.2360   66.8650 C   0  0  0  0  0  0
   -4.8070   26.9590   71.5690 C   0  0  0  0  0  0
   -3.9840   26.0630   71.7600 O   0  0  0  0  0  0
   -4.8350   27.7360   70.2510 C   0  0  2  0  0  0
   -5.4040   26.8360   69.1420 C   0  0  0  0  0  0
   -3.3100   27.6390   68.3600 C   0  0  0  0  0  0
   -2.5940   28.7190   70.5130 C   0  0  0  0  0  0
   -2.8790   29.0710   71.6490 O   0  0  0  0  0  0
   -1.2560   29.0120   69.8940 C   0  0  0  0  0  0
   -4.7420   27.4140   67.9050 C   0  0  2  0  0  0
   -5.2980   28.7040   67.6480 O   0  0  0  0  0  0
   -6.1520   28.8220   66.5220 C   0  0  0  0  0  0
  -10.4320   29.0340   69.1930 C   0  0  0  0  0  0
  -11.5640   28.2020   69.7730 C   0  0  0  0  0  0
   -5.7400   27.3070   72.4600 N   0  0  0  0  0  0
   -5.9160   26.6160   73.7300 C   0  0  2  0  0  0
   -7.0120   25.5500   73.6970 C   0  0  0  0  0  0
   -7.3310   24.9470   74.7240 O   0  0  0  0  0  0
   -6.1590   27.6330   74.8510 C   0  0  0  0  0  0
   -5.0040   28.5920   75.1100 C   0  0  0  0  0  0
   -5.3180   29.5260   76.2680 C   0  0  0  0  0  0
   -3.7150   27.8520   75.3710 C   0  0  0  0  0  0
   -8.4840   23.8590   70.8210 C   0  0  0  0  0  0
   -7.5680   25.3150   72.5150 N   0  0  0  0  0  0
   -8.0360   24.6400   69.9870 O   0  0  0  0  0  0
   -8.4740   24.2170   72.2990 C   0  0  1  0  0  0
   -9.9000   24.5220   72.7870 C   0  0  0  0  0  0
  -10.4190   25.8210   72.2510 C   0  0  0  0  0  0
  -10.1730   27.1820   74.3780 C   0  0  0  0  0  0
  -11.2950   26.7470   75.2850 C   0  0  0  0  0  0
  -10.8440   26.7580   76.7160 C   0  0  0  0  0  0
  -11.9310   26.3110   77.6560 C   0  0  0  0  0  0
  -11.4460   26.2130   79.0970 C   0  0  0  0  0  0
  -12.5070   25.7570   80.0810 C   0  0  0  0  0  0
  -12.9660   24.3200   79.8980 C   0  0  0  0  0  0
  -14.0160   23.9040   80.9370 C   0  0  0  0  0  0
  -13.4740   23.8860   82.3450 C   0  0  0  0  0  0
  -13.8380   24.8630   83.2470 C   0  0  0  0  0  0
  -13.3250   24.8610   84.5310 C   0  0  0  0  0  0
  -12.4320   23.8910   84.9250 C   0  0  0  0  0  0
  -12.0690   22.9060   84.0480 C   0  0  0  0  0  0
  -12.5880   22.8980   82.7620 C   0  0  0  0  0  0
  -10.4840   27.0060   72.9530 N   0  3  0  0  0  0
  -10.8370   26.0880   70.9990 C   0  0  0  0  0  0
  -10.9000   27.9580   72.1430 C   0  0  0  0  0  0
  -11.1170   27.4370   70.9480 N   0  0  0  0  0  0
   -8.9830   22.6600   70.5240 N   0  0  0  0  0  0
   -9.0680   22.1780   69.1690 C   0  0  2  0  0  0
  -10.1740   22.8760   68.3680 C   0  0  0  0  0  0
  -10.8720   23.7600   68.8900 O   0  0  0  0  0  0
   -9.2590   20.6680   69.1880 C   0  0  0  0  0  0
  -10.4820   20.3250   69.8810 O   0  0  0  0  0  0
  -10.2890   22.5330   67.0820 N   0  0  0  0  0  0
  -11.1760   23.2620   66.1770 C   0  0  1  0  0  0
  -11.0020   22.7510   64.7440 C   0  0  1  0  0  0
  -11.7980   23.5180   63.7160 C   0  0  0  0  0  0
   -9.5920   22.8550   64.4590 O   0  0  0  0  0  0
   -8.6610   21.5660   64.2350 P   0  0  0  0  0  0
   -9.2820   20.7240   63.1400 O   0  5  0  0  0  0
   -7.3180   22.1350   63.8500 O   0  0  0  0  0  0
   -8.6140   20.8330   65.5550 O   0  5  0  0  0  0
  -12.6660   23.1640   66.5640 C   0  0  0  0  0  0
  -13.1170   22.0550   66.8420 O   0  0  0  0  0  0
  -13.3920   24.2800   66.6010 N   0  0  0  0  0  0
  -10.0477   27.8798   67.4610 H   0  0  0  0  0  0
   -9.1794   27.3467   68.9403 H   0  0  0  0  0  0
   -8.5757   29.9592   67.4782 H   0  0  0  0  0  0
   -7.6127   29.1728   68.7747 H   0  0  0  0  0  0
   -7.2922   27.2130   67.2220 H   0  0  0  0  0  0
   -8.0590   28.1966   65.9293 H   0  0  0  0  0  0
   -5.3841   28.6679   70.4511 H   0  0  0  0  0  0
   -5.1208   25.7910   69.3365 H   0  0  0  0  0  0
   -6.5005   26.9219   69.1265 H   0  0  0  0  0  0
   -2.7977   28.4345   67.7990 H   0  0  0  0  0  0
   -2.7002   26.7238   68.3379 H   0  0  0  0  0  0
   -1.2267   28.6028   68.8734 H   0  0  0  0  0  0
   -0.4629   28.5474   70.4982 H   0  0  0  0  0  0
   -1.0993   30.1002   69.8574 H   0  0  0  0  0  0
   -4.8783   26.8172   66.9911 H   0  0  0  0  0  0
   -5.7211   28.2786   65.6682 H   0  0  0  0  0  0
   -6.2758   29.8824   66.2570 H   0  0  0  0  0  0
   -9.8775   29.4815   70.0310 H   0  0  0  0  0  0
  -10.8779   29.8317   68.5808 H   0  0  0  0  0  0
  -12.3867   28.8649   70.0791 H   0  0  0  0  0  0
  -11.9265   27.4951   69.0122 H   0  0  0  0  0  0
   -6.3909   28.1549   72.2004 H   0  0  0  0  0  0
   -4.9619   26.0893   73.8793 H   0  0  0  0  0  0
   -7.0332   28.2521   74.6012 H   0  0  0  0  0  0
   -6.3447   27.1004   75.7954 H   0  0  0  0  0  0
   -4.8627   29.1926   74.1993 H   0  0  0  0  0  0
   -6.2589   30.0584   76.0649 H   0  0  0  0  0  0
   -4.5019   30.2545   76.3831 H   0  0  0  0  0  0
   -5.4203   28.9407   77.1937 H   0  0  0  0  0  0
   -3.5001   27.1807   74.5265 H   0  0  0  0  0  0
   -3.8119   27.2610   76.2937 H   0  0  0  0  0  0
   -2.8935   28.5749   75.4831 H   0  0  0  0  0  0
   -7.3165   25.9919   71.6852 H   0  0  0  0  0  0
   -8.0588   23.3984   72.9053 H   0  0  0  0  0  0
  -10.5793   23.7220   72.4575 H   0  0  0  0  0  0
   -9.9072   24.5797   73.8855 H   0  0  0  0  0  0
   -9.9601   28.2484   74.5437 H   0  0  0  0  0  0
   -9.2726   26.5898   74.5985 H   0  0  0  0  0  0
  -12.1456   27.4352   75.1719 H   0  0  0  0  0  0
  -11.6097   25.7278   75.0161 H   0  0  0  0  0  0
   -9.9871   26.0787   76.8356 H   0  0  0  0  0  0
  -10.5452   27.7783   76.9985 H   0  0  0  0  0  0
  -12.7618   27.0312   77.6247 H   0  0  0  0  0  0
  -12.2944   25.3186   77.3509 H   0  0  0  0  0  0
  -10.6186   25.4906   79.1570 H   0  0  0  0  0  0
  -11.0963   27.1999   79.4341 H   0  0  0  0  0  0
  -12.1156   25.8380   81.1058 H   0  0  0  0  0  0
  -13.3995   26.3917   79.9781 H   0  0  0  0  0  0
  -13.4114   24.2017   78.8992 H   0  0  0  0  0  0
  -12.1038   23.6442   79.9973 H   0  0  0  0  0  0
  -14.8578   24.6116   80.9112 H   0  0  0  0  0  0
  -14.3803   22.8922   80.7054 H   0  0  0  0  0  0
  -14.5362   25.6438   82.9454 H   0  0  0  0  0  0
  -13.6303   25.6337   85.2365 H   0  0  0  0  0  0
  -12.0155   23.9075   85.9321 H   0  0  0  0  0  0
  -11.3723   22.1279   84.3597 H   0  0  0  0  0  0
  -12.2981   22.1078   82.0694 H   0  0  0  0  0  0
  -10.9353   25.3736   70.1816 H   0  0  0  0  0  0
  -11.0420   29.0042   72.4140 H   0  0  0  0  0  0
   -9.3368   22.0315   71.3545 H   0  0  0  0  0  0
   -8.1024   22.4409   68.7125 H   0  0  0  0  0  0
   -9.3139   20.2924   68.1556 H   0  0  0  0  0  0
   -8.4095   20.1974   69.7047 H   0  0  0  0  0  0
  -10.7762   19.2705   69.9882 H   0  0  0  0  0  0
   -9.6993   21.6831   66.7079 H   0  0  0  0  0  0
  -10.8418   24.3042   66.2868 H   0  0  0  0  0  0
  -11.3346   21.7064   64.6533 H   0  0  0  0  0  0
  -12.8707   23.4314   63.9436 H   0  0  0  0  0  0
  -11.6007   23.1042   62.7161 H   0  0  0  0  0  0
  -11.5026   24.5773   63.7392 H   0  0  0  0  0  0
  -12.9316   25.2445   66.3409 H   0  0  0  0  0  0
  -14.4520   24.2372   66.8917 H   0  0  0  0  0  0
  1  7  1  0  0  0
  1  9  1  0  0  0
  1 10  1  0  0  0
  2  3  1  0  0  0
  2 16  1  0  0  0
  2 68  1  0  0  0
  2 69  1  0  0  0
  3  4  1  0  0  0
  3 70  1  0  0  0
  3 71  1  0  0  0
  4 15  1  0  0  0
  4 72  1  0  0  0
  4 73  1  0  0  0
  5  6  2  0  0  0
  5  7  1  0  0  0
  5 18  1  0  0  0
  7  8  1  0  0  0
  7 74  1  0  0  0
  8 13  1  0  0  0
  8 75  1  0  0  0
  8 76  1  0  0  0
  9 13  1  0  0  0
  9 77  1  0  0  0
  9 78  1  0  0  0
 10 11  2  0  0  0
 10 12  1  0  0  0
 12 79  1  0  0  0
 12 80  1  0  0  0
 12 81  1  0  0  0
 13 14  1  0  0  0
 13 82  1  0  0  0
 14 15  1  0  0  0
 15 83  1  0  0  0
 15 84  1  0  0  0
 16 17  1  0  0  0
 16 85  1  0  0  0
 16 86  1  0  0  0
 17 49  1  0  0  0
 17 87  1  0  0  0
 17 88  1  0  0  0
 18 19  1  0  0  0
 18 89  1  0  0  0
 19 20  1  0  0  0
 19 22  1  0  0  0
 19 90  1  0  0  0
 20 21  2  0  0  0
 20 27  1  0  0  0
 22 23  1  0  0  0
 22 91  1  0  0  0
 22 92  1  0  0  0
 23 24  1  0  0  0
 23 25  1  0  0  0
 23 93  1  0  0  0
 24 94  1  0  0  0
 24 95  1  0  0  0
 24 96  1  0  0  0
 25 97  1  0  0  0
 25 98  1  0  0  0
 25 99  1  0  0  0
 26 28  2  0  0  0
 26 29  1  0  0  0
 26 50  1  0  0  0
 27 29  1  0  0  0
 27100  1  0  0  0
 29 30  1  0  0  0
 29101  1  0  0  0
 30 31  1  0  0  0
 30102  1  0  0  0
 30103  1  0  0  0
 31 46  1  0  0  0
 31 47  2  0  0  0
 32 33  1  0  0  0
 32 46  1  0  0  0
 32104  1  0  0  0
 32105  1  0  0  0
 33 34  1  0  0  0
 33106  1  0  0  0
 33107  1  0  0  0
 34 35  1  0  0  0
 34108  1  0  0  0
 34109  1  0  0  0
 35 36  1  0  0  0
 35110  1  0  0  0
 35111  1  0  0  0
 36 37  1  0  0  0
 36112  1  0  0  0
 36113  1  0  0  0
 37 38  1  0  0  0
 37114  1  0  0  0
 37115  1  0  0  0
 38 39  1  0  0  0
 38116  1  0  0  0
 38117  1  0  0  0
 39 40  1  0  0  0
 39118  1  0  0  0
 39119  1  0  0  0
 40 41  2  0  0  0
 40 45  1  0  0  0
 41 42  1  0  0  0
 41120  1  0  0  0
 42 43  2  0  0  0
 42121  1  0  0  0
 43 44  1  0  0  0
 43122  1  0  0  0
 44 45  2  0  0  0
 44123  1  0  0  0
 45124  1  0  0  0
 46 48  2  0  0  0
 47 49  1  0  0  0
 47125  1  0  0  0
 48 49  1  0  0  0
 48126  1  0  0  0
 50 51  1  0  0  0
 50127  1  0  0  0
 51 52  1  0  0  0
 51 54  1  0  0  0
 51128  1  0  0  0
 52 53  2  0  0  0
 52 56  1  0  0  0
 54 55  1  0  0  0
 54129  1  0  0  0
 54130  1  0  0  0
 55131  1  0  0  0
 56 57  1  0  0  0
 56132  1  0  0  0
 57 58  1  0  0  0
 57 65  1  0  0  0
 57133  1  0  0  0
 58 59  1  0  0  0
 58 60  1  0  0  0
 58134  1  0  0  0
 59135  1  0  0  0
 59136  1  0  0  0
 59137  1  0  0  0
 60 61  1  0  0  0
 61 62  1  0  0  0
 61 63  2  0  0  0
 61 64  1  0  0  0
 65 66  2  0  0  0
 65 67  1  0  0  0
 67138  1  0  0  0
 67139  1  0  0  0
M  CHG  3  46   1  62  -1  64  -1
M  END
> <s_m_source_file>
../4x9r_ligand.sdf

> <i_m_source_file_index>
1

> <s_epik_input>
Tz1DKFtDSDNdKU4oW0NASF0xMilbQ0gyXVtDQEBIXShbQ0gyXTIpT1tDSDJdW0NIMl1bQ0gyXVtDSDJdW0NIMl1bQ0gyXW4zW2NIXWMoW0NIMl1bQ0BIXShbTkhdQyg9TylbQ0BASF0oW05IXUMxPU8pW0NIMl1bQ0hdKFtDSDNdKVtDSDNdKUMoPU8pW05IXVtDQEBIXShbQ0gyXVtPSF0pQyg9TylbTkhdW0NASF0oQyg9TylbTkgyXSlbQ0BASF0oW0NIM10pT1AoPU8pKFtPSF0pW09IXSlbbitdKFtjSF0zKVtDSDJdW0NIMl1bQ0gyXVtDSDJdW0NIMl1bQ0gyXVtDSDJdW0NIMl1jNFtjSF1bY0hdW2NIXVtjSF1bY0hdNA==

> <s_epik_cmdline>
J2VwaWtfYXBwJywgJy1pbWFlJywgJ2xpZ2FuZF9wcm8ubWFlJywgJy1vbWFlJywgJ2xpZ2FuZF9wcmVwLm1hZScsICctbXMnLCAnMScsICctcGgnLCAnNycsICctcGh0JywgJzAuNScsICctbnQn

> <r_lp_tautomer_probability>
1

> <r_epik_Ionization_Penalty>
  0.0862

> <r_epik_Ionization_Penalty_Charging>
  0.0862

> <r_epik_Ionization_Penalty_Neutral>
  0.0000

> <r_epik_State_Penalty>
  0.0767

> <r_epik_Charging_Adjusted_Penalty>
0.162909030390379

> <i_epik_Tot_Q>
-1

> <i_epik_Tot_abs_Q>
3

$$$$
