4x9v_ligand
                    3D
 Schrodinger Suite 2020-3.
145148  0  0  1  0            999 V2000
    1.9420    3.7160  -11.8910 C   0  0  0  0  0  0
    0.6260    4.4750  -11.9240 C   0  0  0  0  0  0
   -0.2310    4.3000  -10.6770 C   0  0  0  0  0  0
   -0.8270    2.9120  -10.4910 C   0  0  0  0  0  0
   -1.7450    2.7990   -9.2740 C   0  0  0  0  0  0
   -2.5420    1.4970   -9.1610 C   0  0  0  0  0  0
   -3.5280    1.2250  -10.2740 C   0  0  0  0  0  0
   -4.7890    3.5140  -14.7190 C   0  0  0  0  0  0
   -5.6340    2.6560  -14.9780 O   0  0  0  0  0  0
   -4.8110    4.2800  -13.3970 C   0  0  2  0  0  0
   -3.9320    3.5500  -12.3760 C   0  0  0  0  0  0
   -4.9280    2.6290  -11.6840 C   0  0  2  0  0  0
   -6.1680    3.5030  -11.5210 C   0  0  0  0  0  0
   -6.1170    4.3480  -12.7240 N   0  0  0  0  0  0
   -7.1590    5.0650  -13.1770 C   0  0  0  0  0  0
   -8.1850    5.1930  -12.4820 O   0  0  0  0  0  0
   -6.9800    5.7740  -14.4650 C   0  0  0  0  0  0
   -4.4500    2.3140  -10.3730 O   0  0  0  0  0  0
    2.7440    3.8840  -13.1740 C   0  0  0  0  0  0
   -3.8030    3.8500  -15.5560 N   0  0  0  0  0  0
   -3.6890    3.2350  -16.8740 C   0  0  2  0  0  0
   -2.6740    2.0990  -16.9150 C   0  0  0  0  0  0
   -2.5100    1.4390  -17.9350 O   0  0  0  0  0  0
   -3.4030    4.2850  -17.9470 C   0  0  0  0  0  0
   -4.5300    5.2780  -18.1720 C   0  0  0  0  0  0
   -4.1400    6.3350  -19.1970 C   0  0  0  0  0  0
   -5.7940    4.5830  -18.6240 C   0  0  0  0  0  0
   -1.1880    0.3160  -14.1110 C   0  0  0  0  0  0
   -2.0510    1.8370  -15.7710 N   0  0  0  0  0  0
   -1.6070    1.1130  -13.2820 O   0  0  0  0  0  0
   -1.2630    0.6370  -15.5930 C   0  0  1  0  0  0
    0.1190    0.8110  -16.2180 C   0  0  0  0  0  0
    0.8660    1.9940  -15.6210 C   0  0  0  0  0  0
    0.5620    3.5180  -17.5990 C   0  0  0  0  0  0
    1.6550    3.1930  -18.5730 C   0  0  0  0  0  0
    1.1750    3.2800  -19.9910 C   0  0  0  0  0  0
    2.1790    2.6730  -20.9220 C   0  0  0  0  0  0
    1.6600    2.5360  -22.3250 C   0  0  0  0  0  0
    2.7770    2.1730  -23.2860 C   0  0  0  0  0  0
    3.3510    0.7690  -23.0900 C   0  0  0  0  0  0
    4.3140    0.3070  -24.1870 C   0  0  0  0  0  0
    3.7000    0.4070  -25.5610 C   0  0  0  0  0  0
    2.7390   -0.5000  -25.9750 C   0  0  0  0  0  0
    2.1690   -0.4030  -27.2320 C   0  0  0  0  0  0
    2.5470    0.6060  -28.0930 C   0  0  0  0  0  0
    3.5070    1.5060  -27.6990 C   0  0  0  0  0  0
    4.0750    1.4120  -26.4390 C   0  0  0  0  0  0
    0.9960    3.2250  -16.2310 N   0  3  0  0  0  0
    1.5190    2.0730  -14.4500 C   0  0  0  0  0  0
    1.6900    4.0330  -15.4240 C   0  0  0  0  0  0
    2.0110    3.3440  -14.3410 N   0  0  0  0  0  0
   -0.6230   -0.8440  -13.8000 N   0  0  0  0  0  0
   -0.5700   -1.3420  -12.4500 C   0  0  2  0  0  0
    0.5610   -0.6980  -11.6500 C   0  0  0  0  0  0
    1.3230    0.1180  -12.1580 O   0  0  0  0  0  0
   -0.4280   -2.8630  -12.4710 C   0  0  0  0  0  0
    0.7550   -3.2520  -13.1910 O   0  0  0  0  0  0
    0.6250   -1.0450  -10.3650 N   0  0  0  0  0  0
    1.4960   -0.3670   -9.4210 C   0  0  1  0  0  0
    1.3030   -0.9450   -8.0150 C   0  0  1  0  0  0
    2.0910   -0.2200   -6.9430 C   0  0  0  0  0  0
   -0.0980   -0.8280   -7.7310 O   0  0  0  0  0  0
   -1.0470   -2.1140   -7.5800 P   0  0  0  0  0  0
   -1.1270   -2.7890   -8.9520 O   0  5  0  0  0  0
   -0.4280   -2.9680   -6.5630 O   0  0  0  0  0  0
   -2.3970   -1.5540   -7.1470 O   0  5  0  0  0  0
    2.9820   -0.4640   -9.8070 C   0  0  0  0  0  0
    3.4410   -1.5560  -10.1120 O   0  0  0  0  0  0
    3.7160    0.6340   -9.7520 N   0  0  0  0  0  0
    2.5569    4.0843  -11.0566 H   0  0  0  0  0  0
    1.7430    2.6428  -11.7540 H   0  0  0  0  0  0
    0.8262    5.5516  -12.0279 H   0  0  0  0  0  0
    0.0249    4.1298  -12.7781 H   0  0  0  0  0  0
    0.3770    4.5025   -9.7829 H   0  0  0  0  0  0
   -1.0769    5.0023  -10.7119 H   0  0  0  0  0  0
   -1.4221    2.6467  -11.3773 H   0  0  0  0  0  0
   -0.0168    2.1795  -10.3607 H   0  0  0  0  0  0
   -1.1458    2.8739   -8.3546 H   0  0  0  0  0  0
   -2.4854    3.6122   -9.2964 H   0  0  0  0  0  0
   -1.8492    0.6427   -9.1513 H   0  0  0  0  0  0
   -3.1273    1.5050   -8.2297 H   0  0  0  0  0  0
   -2.9864    1.1163  -11.2252 H   0  0  0  0  0  0
   -4.0786    0.2977  -10.0576 H   0  0  0  0  0  0
   -4.5199    5.3065  -13.6644 H   0  0  0  0  0  0
   -3.1371    3.0013  -12.9024 H   0  0  0  0  0  0
   -3.4801    4.2825  -11.6910 H   0  0  0  0  0  0
   -5.0803    1.6658  -12.1929 H   0  0  0  0  0  0
   -7.0636    2.8654  -11.4831 H   0  0  0  0  0  0
   -6.0894    4.0807  -10.5882 H   0  0  0  0  0  0
   -6.0038    5.5086  -14.8971 H   0  0  0  0  0  0
   -7.0226    6.8599  -14.2948 H   0  0  0  0  0  0
   -7.7806    5.4800  -15.1597 H   0  0  0  0  0  0
    2.9390    4.9526  -13.3472 H   0  0  0  0  0  0
    3.6996    3.3471  -13.0820 H   0  0  0  0  0  0
   -3.0695    4.6047  -15.2359 H   0  0  0  0  0  0
   -4.6816    2.7926  -17.0446 H   0  0  0  0  0  0
   -2.5149    4.8681  -17.6619 H   0  0  0  0  0  0
   -3.2200    3.7851  -18.9096 H   0  0  0  0  0  0
   -4.7253    5.7652  -17.2053 H   0  0  0  0  0  0
   -3.2202    6.8417  -18.8694 H   0  0  0  0  0  0
   -4.9512    7.0720  -19.2905 H   0  0  0  0  0  0
   -3.9669    5.8546  -20.1713 H   0  0  0  0  0  0
   -6.0769    3.8193  -17.8846 H   0  0  0  0  0  0
   -5.6202    4.1033  -19.5985 H   0  0  0  0  0  0
   -6.6046    5.3207  -18.7177 H   0  0  0  0  0  0
   -2.1459    2.5599  -14.9473 H   0  0  0  0  0  0
   -1.7811   -0.1785  -16.1189 H   0  0  0  0  0  0
    0.7163   -0.0964  -16.0454 H   0  0  0  0  0  0
    0.0135    0.9803  -17.2998 H   0  0  0  0  0  0
    0.3093    4.5859  -17.6744 H   0  0  0  0  0  0
   -0.3273    2.9135  -17.8307 H   0  0  0  0  0  0
    2.4848    3.9033  -18.4433 H   0  0  0  0  0  0
    2.0161    2.1700  -18.3910 H   0  0  0  0  0  0
    0.2227    2.7384  -20.0896 H   0  0  0  0  0  0
    1.0266    4.3353  -20.2638 H   0  0  0  0  0  0
    3.0777    3.3064  -20.9556 H   0  0  0  0  0  0
    2.4511    1.6691  -20.5639 H   0  0  0  0  0  0
    0.8961    1.7452  -22.3578 H   0  0  0  0  0  0
    1.2149    3.4893  -22.6460 H   0  0  0  0  0  0
    2.4029    2.2242  -24.3192 H   0  0  0  0  0  0
    3.6110    2.8796  -23.1626 H   0  0  0  0  0  0
    3.9090    0.7300  -22.1429 H   0  0  0  0  0  0
    2.5298    0.0377  -23.0621 H   0  0  0  0  0  0
    5.2177    0.9340  -24.1695 H   0  0  0  0  0  0
    4.5926   -0.7427  -24.0122 H   0  0  0  0  0  0
    2.4280   -1.2997  -25.3028 H   0  0  0  0  0  0
    1.4171   -1.1280  -27.5435 H   0  0  0  0  0  0
    2.0877    0.6886  -29.0781 H   0  0  0  0  0  0
    3.8228    2.2965  -28.3798 H   0  0  0  0  0  0
    4.8277    2.1388  -26.1336 H   0  0  0  0  0  0
    1.6353    1.2713  -13.7207 H   0  0  0  0  0  0
    1.9459    5.0738  -15.6225 H   0  0  0  0  0  0
   -0.1846   -1.4311  -14.6204 H   0  0  0  0  0  0
   -1.5290   -1.0441  -12.0011 H   0  0  0  0  0  0
   -0.3568   -3.2389  -11.4397 H   0  0  0  0  0  0
   -1.3062   -3.3065  -12.9630 H   0  0  0  0  0  0
    1.0068   -4.3172  -13.3006 H   0  0  0  0  0  0
   -0.0115   -1.8760  -10.0270 H   0  0  0  0  0  0
    1.1689    0.6816   -9.4799 H   0  0  0  0  0  0
    1.6148   -1.9992   -7.9779 H   0  0  0  0  0  0
    3.1666   -0.3070   -7.1566 H   0  0  0  0  0  0
    1.8745   -0.6686   -5.9622 H   0  0  0  0  0  0
    1.8040    0.8418   -6.9320 H   0  0  0  0  0  0
    3.2530    1.5916   -9.4718 H   0  0  0  0  0  0
    4.7898    0.5900   -9.9864 H   0  0  0  0  0  0
  1  2  1  0  0  0
  1 19  1  0  0  0
  1 70  1  0  0  0
  1 71  1  0  0  0
  2  3  1  0  0  0
  2 72  1  0  0  0
  2 73  1  0  0  0
  3  4  1  0  0  0
  3 74  1  0  0  0
  3 75  1  0  0  0
  4  5  1  0  0  0
  4 76  1  0  0  0
  4 77  1  0  0  0
  5  6  1  0  0  0
  5 78  1  0  0  0
  5 79  1  0  0  0
  6  7  1  0  0  0
  6 80  1  0  0  0
  6 81  1  0  0  0
  7 18  1  0  0  0
  7 82  1  0  0  0
  7 83  1  0  0  0
  8  9  2  0  0  0
  8 10  1  0  0  0
  8 20  1  0  0  0
 10 11  1  0  0  0
 10 14  1  0  0  0
 10 84  1  0  0  0
 11 12  1  0  0  0
 11 85  1  0  0  0
 11 86  1  0  0  0
 12 13  1  0  0  0
 12 18  1  0  0  0
 12 87  1  0  0  0
 13 14  1  0  0  0
 13 88  1  0  0  0
 13 89  1  0  0  0
 14 15  1  0  0  0
 15 16  2  0  0  0
 15 17  1  0  0  0
 17 90  1  0  0  0
 17 91  1  0  0  0
 17 92  1  0  0  0
 19 51  1  0  0  0
 19 93  1  0  0  0
 19 94  1  0  0  0
 20 21  1  0  0  0
 20 95  1  0  0  0
 21 22  1  0  0  0
 21 24  1  0  0  0
 21 96  1  0  0  0
 22 23  2  0  0  0
 22 29  1  0  0  0
 24 25  1  0  0  0
 24 97  1  0  0  0
 24 98  1  0  0  0
 25 26  1  0  0  0
 25 27  1  0  0  0
 25 99  1  0  0  0
 26100  1  0  0  0
 26101  1  0  0  0
 26102  1  0  0  0
 27103  1  0  0  0
 27104  1  0  0  0
 27105  1  0  0  0
 28 30  2  0  0  0
 28 31  1  0  0  0
 28 52  1  0  0  0
 29 31  1  0  0  0
 29106  1  0  0  0
 31 32  1  0  0  0
 31107  1  0  0  0
 32 33  1  0  0  0
 32108  1  0  0  0
 32109  1  0  0  0
 33 48  1  0  0  0
 33 49  2  0  0  0
 34 35  1  0  0  0
 34 48  1  0  0  0
 34110  1  0  0  0
 34111  1  0  0  0
 35 36  1  0  0  0
 35112  1  0  0  0
 35113  1  0  0  0
 36 37  1  0  0  0
 36114  1  0  0  0
 36115  1  0  0  0
 37 38  1  0  0  0
 37116  1  0  0  0
 37117  1  0  0  0
 38 39  1  0  0  0
 38118  1  0  0  0
 38119  1  0  0  0
 39 40  1  0  0  0
 39120  1  0  0  0
 39121  1  0  0  0
 40 41  1  0  0  0
 40122  1  0  0  0
 40123  1  0  0  0
 41 42  1  0  0  0
 41124  1  0  0  0
 41125  1  0  0  0
 42 43  2  0  0  0
 42 47  1  0  0  0
 43 44  1  0  0  0
 43126  1  0  0  0
 44 45  2  0  0  0
 44127  1  0  0  0
 45 46  1  0  0  0
 45128  1  0  0  0
 46 47  2  0  0  0
 46129  1  0  0  0
 47130  1  0  0  0
 48 50  2  0  0  0
 49 51  1  0  0  0
 49131  1  0  0  0
 50 51  1  0  0  0
 50132  1  0  0  0
 52 53  1  0  0  0
 52133  1  0  0  0
 53 54  1  0  0  0
 53 56  1  0  0  0
 53134  1  0  0  0
 54 55  2  0  0  0
 54 58  1  0  0  0
 56 57  1  0  0  0
 56135  1  0  0  0
 56136  1  0  0  0
 57137  1  0  0  0
 58 59  1  0  0  0
 58138  1  0  0  0
 59 60  1  0  0  0
 59 67  1  0  0  0
 59139  1  0  0  0
 60 61  1  0  0  0
 60 62  1  0  0  0
 60140  1  0  0  0
 61141  1  0  0  0
 61142  1  0  0  0
 61143  1  0  0  0
 62 63  1  0  0  0
 63 64  1  0  0  0
 63 65  2  0  0  0
 63 66  1  0  0  0
 67 68  2  0  0  0
 67 69  1  0  0  0
 69144  1  0  0  0
 69145  1  0  0  0
M  CHG  3  48   1  64  -1  66  -1
M  END
> <s_m_source_file>
../4x9v_ligand.sdf

> <i_m_source_file_index>
1

> <s_epik_input>
Tz1DKFtDSDNdKU4xW0NIMl1bQ0BASF0oW0NIMl0yKU9bQ0gyXVtDSDJdW0NIMl1bQ0gyXVtDSDJdW0NIMl1bQ0gyXVtDSDJdbihbY0hdMylbY0hdW24rXShjM1tDSDJdW0NASF0oW05IXUMoPU8pW0NAQEhdKFtOSF1DKD1PKVtDQEBIXTEyKVtDSDJdW0NIXShbQ0gzXSlbQ0gzXSlDKD1PKVtOSF1bQ0BASF0oW0NIMl1bT0hdKUMoPU8pW05IXVtDQEhdKEMoPU8pW05IMl0pW0NAQEhdKFtDSDNdKU9QKD1PKShbT0hdKVtPSF0pW0NIMl1bQ0gyXVtDSDJdW0NIMl1bQ0gyXVtDSDJdW0NIMl1bQ0gyXWM0W2NIXVtjSF1bY0hdW2NIXVtjSF00

> <s_epik_cmdline>
J2VwaWtfYXBwJywgJy1pbWFlJywgJ2xpZ2FuZF9wcm8ubWFlJywgJy1vbWFlJywgJ2xpZ2FuZF9wcmVwLm1hZScsICctbXMnLCAnMScsICctcGgnLCAnNycsICctcGh0JywgJzAuNScsICctbnQn

> <r_lp_tautomer_probability>
1

> <r_epik_Ionization_Penalty>
  0.0862

> <r_epik_Ionization_Penalty_Charging>
  0.0862

> <r_epik_Ionization_Penalty_Neutral>
  0.0000

> <r_epik_State_Penalty>
  0.0767

> <r_epik_Charging_Adjusted_Penalty>
0.162909030390379

> <i_epik_Tot_Q>
-1

> <i_epik_Tot_abs_Q>
3

$$$$
