4x9w_ligand
                    3D
 Schrodinger Suite 2020-3.
133135  0  0  1  0            999 V2000
   40.2490   28.0030   15.8910 N   0  0  0  0  0  0
   39.9660   27.4410   17.2050 C   0  0  2  0  0  0
   38.9750   26.2780   17.1720 C   0  0  0  0  0  0
   38.7660   25.6170   18.1840 O   0  0  0  0  0  0
   39.5630   28.5210   18.2170 C   0  0  0  0  0  0
   40.6970   29.4120   18.7310 C   0  0  0  0  0  0
   41.8650   28.5940   19.2630 C   0  0  0  0  0  0
   41.1770   30.4180   17.6940 C   0  0  0  0  0  0
   37.5730   24.8320   15.8000 C   0  0  2  0  0  0
   37.4340   24.4930   14.3190 C   0  0  0  0  0  0
   36.2200   24.9320   16.5110 C   0  0  0  0  0  0
   34.8320   26.2320   14.8000 C   0  0  0  0  0  0
   37.8170   25.2880   13.4620 O   0  0  0  0  0  0
   38.3950   26.0140   15.9990 N   0  0  0  0  0  0
   33.7550   28.1570   13.5430 C   0  0  0  0  0  0
   34.3730   27.5240   14.7210 N   0  3  0  0  0  0
   34.6190   28.1340   15.8710 C   0  0  0  0  0  0
   35.2300   27.2740   16.6890 N   0  0  0  0  0  0
   35.3710   26.0640   16.0210 C   0  0  0  0  0  0
   35.6440   27.5560   18.0720 C   0  0  0  0  0  0
   34.5100   27.3590   19.0570 C   0  0  0  0  0  0
   34.9640   27.2960   20.5030 C   0  0  0  0  0  0
   33.8640   26.8240   21.4370 C   0  0  0  0  0  0
   34.3020   26.6410   22.8790 C   0  0  0  0  0  0
   33.1630   26.7710   23.8760 C   0  0  0  0  0  0
   32.0480   25.7440   23.7210 C   0  0  0  0  0  0
   32.2910   24.3720   24.3450 C   0  0  0  0  0  0
   32.6590   24.4110   25.8090 C   0  0  0  0  0  0
   32.1380   25.3870   26.6460 C   0  0  0  0  0  0
   32.5240   25.4610   27.9730 C   0  0  0  0  0  0
   33.4260   24.5540   28.4830 C   0  0  0  0  0  0
   33.9370   23.5690   27.6670 C   0  0  0  0  0  0
   33.5560   23.4980   26.3390 C   0  0  0  0  0  0
   41.3310   27.6450   15.1940 C   0  0  0  0  0  0
   42.1060   26.7690   15.5720 O   0  0  0  0  0  0
   41.5590   28.3900   13.9030 C   0  0  0  0  0  0
   40.3150   28.4810   13.0330 C   0  0  0  0  0  0
   40.6430   28.8310   11.5910 C   0  0  0  0  0  0
   39.4460   28.8720   10.6570 C   0  0  0  0  0  0
   38.5570   30.0980   10.8190 C   0  0  0  0  0  0
   37.2570   29.8490   11.5630 C   0  0  0  0  0  0
   36.2920   28.9060   10.8530 C   0  0  0  0  0  0
   34.8630   28.9110   11.3750 C   0  0  0  0  0  0
   34.7140   29.1270   12.8780 C   0  0  0  0  0  0
   36.8730   23.3170   14.0260 N   0  0  0  0  0  0
   36.7800   22.8280   12.6590 C   0  0  2  0  0  0
   35.6990   23.5350   11.8460 C   0  0  0  0  0  0
   34.9720   24.3770   12.3630 O   0  0  0  0  0  0
   36.5350   21.3210   12.6400 C   0  0  0  0  0  0
   35.3610   20.9840   13.3660 O   0  0  0  0  0  0
   35.6150   23.1880   10.5590 N   0  0  0  0  0  0
   34.7580   23.8830    9.6160 C   0  0  1  0  0  0
   34.9840   23.3470    8.2020 C   0  0  1  0  0  0
   34.2380   24.1200    7.1390 C   0  0  0  0  0  0
   36.4020   23.4550    7.9660 O   0  0  0  0  0  0
   37.4650   22.2470    7.7950 P   0  0  0  0  0  0
   36.8750   21.4080    6.6810 O   0  5  0  0  0  0
   38.8230   22.7950    7.4690 O   0  0  0  0  0  0
   37.4730   21.4580    9.1190 O   0  5  0  0  0  0
   33.2750   23.7140    9.9590 C   0  0  0  0  0  0
   32.8930   22.6240   10.3930 O   0  0  0  0  0  0
   32.4680   24.7490    9.7780 N   0  0  0  0  0  0
   39.5636   28.7414   15.4494 H   0  0  0  0  0  0
   40.9395   27.0213   17.4985 H   0  0  0  0  0  0
   38.8263   29.1968   17.7581 H   0  0  0  0  0  0
   39.1209   28.0450   19.1047 H   0  0  0  0  0  0
   40.2752   29.9889   19.5672 H   0  0  0  0  0  0
   41.4985   27.8741   20.0096 H   0  0  0  0  0  0
   42.5999   29.2655   19.7309 H   0  0  0  0  0  0
   42.3407   28.0512   18.4329 H   0  0  0  0  0  0
   40.3198   30.9985   17.3221 H   0  0  0  0  0  0
   41.6494   29.8840   16.8563 H   0  0  0  0  0  0
   41.9086   31.0983   18.1544 H   0  0  0  0  0  0
   38.1443   24.0279   16.2869 H   0  0  0  0  0  0
   35.6533   24.0026   16.3531 H   0  0  0  0  0  0
   36.3822   25.0840   17.5883 H   0  0  0  0  0  0
   34.7706   25.4785   14.0148 H   0  0  0  0  0  0
   38.5531   26.7199   15.1703 H   0  0  0  0  0  0
   33.4768   27.3818   12.8139 H   0  0  0  0  0  0
   32.8552   28.7087   13.8529 H   0  0  0  0  0  0
   34.3647   29.1667   16.1097 H   0  0  0  0  0  0
   36.4645   26.8799   18.3542 H   0  0  0  0  0  0
   35.9859   28.5988   18.1470 H   0  0  0  0  0  0
   33.8011   28.1958   18.9721 H   0  0  0  0  0  0
   33.9911   26.4149   18.8348 H   0  0  0  0  0  0
   35.8078   26.5960   20.5922 H   0  0  0  0  0  0
   35.2814   28.2966   20.8316 H   0  0  0  0  0  0
   33.0458   27.5592   21.4409 H   0  0  0  0  0  0
   33.4819   25.8520   21.0918 H   0  0  0  0  0  0
   34.7390   25.6395   23.0052 H   0  0  0  0  0  0
   35.0529   27.4034   23.1337 H   0  0  0  0  0  0
   33.5551   26.6572   24.8974 H   0  0  0  0  0  0
   32.6950   27.7609   23.7711 H   0  0  0  0  0  0
   31.1290   26.1272   24.1885 H   0  0  0  0  0  0
   31.8659   25.5589   22.6521 H   0  0  0  0  0  0
   31.3788   23.7633   24.2589 H   0  0  0  0  0  0
   33.1171   23.8711   23.8190 H   0  0  0  0  0  0
   31.4164   26.1038   26.2540 H   0  0  0  0  0  0
   32.1130   26.2392   28.6161 H   0  0  0  0  0  0
   33.7339   24.6152   29.5268 H   0  0  0  0  0  0
   34.6439   22.8431   28.0689 H   0  0  0  0  0  0
   33.9664   22.7144   25.7021 H   0  0  0  0  0  0
   41.8838   29.4173   14.1249 H   0  0  0  0  0  0
   42.3364   27.8783   13.3167 H   0  0  0  0  0  0
   39.7926   27.5130   13.0378 H   0  0  0  0  0  0
   39.6469   29.2601   13.4288 H   0  0  0  0  0  0
   41.1093   29.8265   11.5523 H   0  0  0  0  0  0
   41.3389   28.0840   11.1815 H   0  0  0  0  0  0
   39.7946   28.8666    9.6137 H   0  0  0  0  0  0
   38.8110   27.9918   10.8359 H   0  0  0  0  0  0
   39.0997   30.8728   11.3803 H   0  0  0  0  0  0
   38.2845   30.4871    9.8268 H   0  0  0  0  0  0
   37.4758   29.4028   12.5443 H   0  0  0  0  0  0
   36.7267   30.8024   11.7038 H   0  0  0  0  0  0
   36.2328   29.1755    9.7882 H   0  0  0  0  0  0
   36.6525   27.8713   10.9498 H   0  0  0  0  0  0
   34.2975   29.7190   10.8877 H   0  0  0  0  0  0
   34.3877   27.9445   11.1517 H   0  0  0  0  0  0
   34.3558   30.1564   13.0264 H   0  0  0  0  0  0
   35.7135   29.0186   13.3245 H   0  0  0  0  0  0
   36.4746   22.7130   14.8545 H   0  0  0  0  0  0
   37.7631   23.0760   12.2324 H   0  0  0  0  0  0
   36.4149   20.9821   11.6004 H   0  0  0  0  0  0
   37.3917   20.8044   13.0974 H   0  0  0  0  0  0
   35.0467   19.9329   13.4463 H   0  0  0  0  0  0
   36.2283   22.3391   10.2225 H   0  0  0  0  0  0
   35.0590   24.9366    9.7123 H   0  0  0  0  0  0
   34.6547   22.3009    8.1171 H   0  0  0  0  0  0
   33.1557   24.0384    7.3179 H   0  0  0  0  0  0
   34.4781   23.7064    6.1484 H   0  0  0  0  0  0
   34.5372   25.1778    7.1770 H   0  0  0  0  0  0
   32.8678   25.6964    9.3874 H   0  0  0  0  0  0
   31.3982   24.6609   10.0183 H   0  0  0  0  0  0
  1  2  1  0  0  0
  1 34  1  0  0  0
  1 63  1  0  0  0
  2  3  1  0  0  0
  2  5  1  0  0  0
  2 64  1  0  0  0
  3  4  2  0  0  0
  3 14  1  0  0  0
  5  6  1  0  0  0
  5 65  1  0  0  0
  5 66  1  0  0  0
  6  7  1  0  0  0
  6  8  1  0  0  0
  6 67  1  0  0  0
  7 68  1  0  0  0
  7 69  1  0  0  0
  7 70  1  0  0  0
  8 71  1  0  0  0
  8 72  1  0  0  0
  8 73  1  0  0  0
  9 10  1  0  0  0
  9 11  1  0  0  0
  9 14  1  0  0  0
  9 74  1  0  0  0
 10 13  2  0  0  0
 10 45  1  0  0  0
 11 19  1  0  0  0
 11 75  1  0  0  0
 11 76  1  0  0  0
 12 16  1  0  0  0
 12 19  2  0  0  0
 12 77  1  0  0  0
 14 78  1  0  0  0
 15 16  1  0  0  0
 15 44  1  0  0  0
 15 79  1  0  0  0
 15 80  1  0  0  0
 16 17  2  0  0  0
 17 18  1  0  0  0
 17 81  1  0  0  0
 18 19  1  0  0  0
 18 20  1  0  0  0
 20 21  1  0  0  0
 20 82  1  0  0  0
 20 83  1  0  0  0
 21 22  1  0  0  0
 21 84  1  0  0  0
 21 85  1  0  0  0
 22 23  1  0  0  0
 22 86  1  0  0  0
 22 87  1  0  0  0
 23 24  1  0  0  0
 23 88  1  0  0  0
 23 89  1  0  0  0
 24 25  1  0  0  0
 24 90  1  0  0  0
 24 91  1  0  0  0
 25 26  1  0  0  0
 25 92  1  0  0  0
 25 93  1  0  0  0
 26 27  1  0  0  0
 26 94  1  0  0  0
 26 95  1  0  0  0
 27 28  1  0  0  0
 27 96  1  0  0  0
 27 97  1  0  0  0
 28 29  2  0  0  0
 28 33  1  0  0  0
 29 30  1  0  0  0
 29 98  1  0  0  0
 30 31  2  0  0  0
 30 99  1  0  0  0
 31 32  1  0  0  0
 31100  1  0  0  0
 32 33  2  0  0  0
 32101  1  0  0  0
 33102  1  0  0  0
 34 35  2  0  0  0
 34 36  1  0  0  0
 36 37  1  0  0  0
 36103  1  0  0  0
 36104  1  0  0  0
 37 38  1  0  0  0
 37105  1  0  0  0
 37106  1  0  0  0
 38 39  1  0  0  0
 38107  1  0  0  0
 38108  1  0  0  0
 39 40  1  0  0  0
 39109  1  0  0  0
 39110  1  0  0  0
 40 41  1  0  0  0
 40111  1  0  0  0
 40112  1  0  0  0
 41 42  1  0  0  0
 41113  1  0  0  0
 41114  1  0  0  0
 42 43  1  0  0  0
 42115  1  0  0  0
 42116  1  0  0  0
 43 44  1  0  0  0
 43117  1  0  0  0
 43118  1  0  0  0
 44119  1  0  0  0
 44120  1  0  0  0
 45 46  1  0  0  0
 45121  1  0  0  0
 46 47  1  0  0  0
 46 49  1  0  0  0
 46122  1  0  0  0
 47 48  2  0  0  0
 47 51  1  0  0  0
 49 50  1  0  0  0
 49123  1  0  0  0
 49124  1  0  0  0
 50125  1  0  0  0
 51 52  1  0  0  0
 51126  1  0  0  0
 52 53  1  0  0  0
 52 60  1  0  0  0
 52127  1  0  0  0
 53 54  1  0  0  0
 53 55  1  0  0  0
 53128  1  0  0  0
 54129  1  0  0  0
 54130  1  0  0  0
 54131  1  0  0  0
 55 56  1  0  0  0
 56 57  1  0  0  0
 56 58  2  0  0  0
 56 59  1  0  0  0
 60 61  2  0  0  0
 60 62  1  0  0  0
 62132  1  0  0  0
 62133  1  0  0  0
M  CHG  3  16   1  57  -1  59  -1
M  END
> <s_m_source_file>
../4x9w_ligand.sdf

> <i_m_source_file_index>
1

> <s_epik_input>
W0NIMl0xW0NIMl1bQ0gyXVtDSDJdW0NIMl1bQ0gyXVtDSDJdW0NIMl1bQ0gyXVtDSDJdQyg9TylbTkhdW0NAQEhdKFtDSDJdW0NIXShbQ0gzXSlbQ0gzXSlDKD1PKVtOSF1bQ0BIXShDKD1PKVtOSF1bQ0BASF0oW0NIMl1bT0hdKUMoPU8pW05IXVtDQEhdKEMoPU8pW05IMl0pW0NAQEhdKFtDSDNdKU9QKD1PKShbT0hdKVtPSF0pW0NIMl1jKFtjSF1bbitdMTIpbihbY0hdMilbQ0gyXVtDSDJdW0NIMl1bQ0gyXVtDSDJdW0NIMl1bQ0gyXVtDSDJdYzNbY0hdW2NIXVtjSF1bY0hdW2NIXTM=

> <s_epik_cmdline>
J2VwaWtfYXBwJywgJy1pbWFlJywgJ2xpZ2FuZF9wcm8ubWFlJywgJy1vbWFlJywgJ2xpZ2FuZF9wcmVwLm1hZScsICctbXMnLCAnMScsICctcGgnLCAnNycsICctcGh0JywgJzAuNScsICctbnQn

> <r_lp_tautomer_probability>
1

> <r_epik_Ionization_Penalty>
  0.0862

> <r_epik_Ionization_Penalty_Charging>
  0.0862

> <r_epik_Ionization_Penalty_Neutral>
  0.0000

> <r_epik_State_Penalty>
  0.0767

> <r_epik_Charging_Adjusted_Penalty>
0.162909030390379

> <i_epik_Tot_Q>
-1

> <i_epik_Tot_abs_Q>
3

$$$$
