4xar_ligand
                    3D
 Schrodinger Suite 2020-3.
 23 24  0  0  1  0            999 V2000
   52.5050  -27.2410    7.2000 O   0  5  0  0  0  0
   52.1510  -24.7280    8.7850 C   0  0  0  0  0  0
   47.6410  -25.2330   11.1520 O   0  5  0  0  0  0
   52.3050  -25.5810   10.0520 C   0  0  0  0  0  0
   51.0090  -25.3680    7.9280 C   0  0  1  0  0  0
   51.0250  -26.3770   10.1620 C   0  0  1  0  0  0
   48.5540  -26.1310   10.8260 C   0  0  0  0  0  0
   49.7320  -25.5570   10.1540 C   0  0  2  0  0  0
   50.2220  -26.2460    8.8800 C   0  0  1  0  0  0
   48.3570  -27.2720   11.0890 O   0  0  0  0  0  0
   50.1790  -24.3460    7.2360 N   0  3  0  0  0  0
   51.6130  -26.2890    6.8840 C   0  0  0  0  0  0
   51.3370  -26.1830    5.7210 O   0  0  0  0  0  0
   51.8905  -23.6970    9.0665 H   0  0  0  0  0  0
   53.0984  -24.7272    8.2261 H   0  0  0  0  0  0
   53.1796  -26.2398    9.9464 H   0  0  0  0  0  0
   52.4446  -24.9230   10.9223 H   0  0  0  0  0  0
   51.4017  -27.1835   10.8083 H   0  0  0  0  0  0
   49.4361  -24.5382   10.4445 H   0  0  0  0  0  0
   49.7215  -26.8994    8.1502 H   0  0  0  0  0  0
   49.7337  -23.6698    7.9807 H   0  0  0  0  0  0
   49.3792  -24.8455    6.6696 H   0  0  0  0  0  0
   50.8103  -23.7669    6.5460 H   0  0  0  0  0  0
  1 12  1  0  0  0
  2  4  1  0  0  0
  2  5  1  0  0  0
  2 14  1  0  0  0
  2 15  1  0  0  0
  3  7  1  0  0  0
  4  6  1  0  0  0
  4 16  1  0  0  0
  4 17  1  0  0  0
  5  9  1  0  0  0
  5 11  1  0  0  0
  5 12  1  0  0  0
  6  8  1  0  0  0
  6  9  1  0  0  0
  6 18  1  0  0  0
  7  8  1  0  0  0
  7 10  2  0  0  0
  8  9  1  0  0  0
  8 19  1  0  0  0
  9 20  1  0  0  0
 11 21  1  0  0  0
 11 22  1  0  0  0
 11 23  1  0  0  0
 12 13  2  0  0  0
M  CHG  3   1  -1   3  -1  11   1
M  END
> <s_m_source_file>
../4xar_ligand.sdf

> <i_m_source_file_index>
1

> <s_epik_input>
W09IXUMoPU8pW0NAXShbTkgzK10pKFtDSDJdW0NIMl0xKVtDQEBIXShbQ0BASF0xMilbQ0BIXTJDKD1PKVtPSF0=

> <s_epik_cmdline>
J2VwaWtfYXBwJywgJy1pbWFlJywgJ2xpZ2FuZF9wcm8ubWFlJywgJy1vbWFlJywgJ2xpZ2FuZF9wcmVwLm1hZScsICctbXMnLCAnMScsICctcGgnLCAnNycsICctcGh0JywgJzAuNScsICctbnQn

> <r_lp_tautomer_probability>
1

> <r_epik_Ionization_Penalty>
  0.0017

> <r_epik_Ionization_Penalty_Charging>
  0.0017

> <r_epik_Ionization_Penalty_Neutral>
  0.0000

> <r_epik_State_Penalty>
 -0.0000

> <r_epik_Charging_Adjusted_Penalty>
0.00173081380437144

> <i_epik_Tot_Q>
-1

> <i_epik_Tot_abs_Q>
3

$$$$
