4xas_ligand
                    3D
 Schrodinger Suite 2020-3.
 27 29  0  0  1  0            999 V2000
  -24.2620   28.7320  -26.8920 O   0  5  0  0  0  0
  -29.1540   32.4510  -27.9990 C   0  0  0  0  0  0
  -30.0500   30.7770  -25.0910 O   0  5  0  0  0  0
  -27.7360   32.8450  -28.3750 C   0  0  0  0  0  0
  -27.6890   31.2160  -24.9170 C   0  0  1  0  0  0
  -27.9680   31.9400  -27.2220 C   0  0  0  0  0  0
  -27.5610   30.4760  -27.2860 C   0  0  1  0  0  0
  -26.1780   30.1220  -26.7540 C   0  0  1  0  0  0
  -27.4090   30.0110  -25.8460 C   0  0  1  0  0  0
  -29.2740   31.2220  -23.0980 O   0  0  0  0  0  0
  -29.0430   31.0780  -24.2600 C   0  0  0  0  0  0
  -26.6630   31.3450  -23.8670 N   0  3  0  0  0  0
  -25.5930   28.7970  -27.0430 C   0  0  0  0  0  0
  -26.2220   27.7590  -27.3630 O   0  0  0  0  0  0
  -27.7490   32.4610  -25.8430 C   0  0  0  0  0  0
  -29.7320   33.3537  -27.7519 H   0  0  0  0  0  0
  -29.6274   31.9329  -28.8460 H   0  0  0  0  0  0
  -27.5249   32.5171  -29.4035 H   0  0  0  0  0  0
  -27.6295   33.9379  -28.3094 H   0  0  0  0  0  0
  -28.0747   30.1822  -28.2133 H   0  0  0  0  0  0
  -25.2081   30.6392  -26.7956 H   0  0  0  0  0  0
  -27.7732   29.1992  -25.1992 H   0  0  0  0  0  0
  -26.6625   30.4400  -23.2417 H   0  0  0  0  0  0
  -26.8862   32.2223  -23.2421 H   0  0  0  0  0  0
  -25.6746   31.4690  -24.3335 H   0  0  0  0  0  0
  -28.5780   33.1121  -25.5287 H   0  0  0  0  0  0
  -26.8013   33.0151  -25.7743 H   0  0  0  0  0  0
  1 13  1  0  0  0
  2  4  1  0  0  0
  2  6  1  0  0  0
  2 16  1  0  0  0
  2 17  1  0  0  0
  3 11  1  0  0  0
  4  6  1  0  0  0
  4 18  1  0  0  0
  4 19  1  0  0  0
  5  9  1  0  0  0
  5 11  1  0  0  0
  5 12  1  0  0  0
  5 15  1  0  0  0
  6  7  1  0  0  0
  6 15  1  0  0  0
  7  8  1  0  0  0
  7  9  1  0  0  0
  7 20  1  0  0  0
  8  9  1  0  0  0
  8 13  1  0  0  0
  8 21  1  0  0  0
  9 22  1  0  0  0
 10 11  2  0  0  0
 12 23  1  0  0  0
 12 24  1  0  0  0
 12 25  1  0  0  0
 13 14  2  0  0  0
 15 26  1  0  0  0
 15 27  1  0  0  0
M  CHG  3   1  -1   3  -1  12   1
M  END
> <s_m_source_file>
../4xas_ligand.sdf

> <i_m_source_file_index>
1

> <s_epik_input>
W09IXUMoPU8pW0NAQEhdMVtDQEBIXShbQ0BAXShbTkgzK10pKFtDSDJdMilDKD1PKVtPSF0pW0NASF0xQzIzW0NIMl1bQ0gyXTM=

> <s_epik_cmdline>
J2VwaWtfYXBwJywgJy1pbWFlJywgJ2xpZ2FuZF9wcm8ubWFlJywgJy1vbWFlJywgJ2xpZ2FuZF9wcmVwLm1hZScsICctbXMnLCAnMScsICctcGgnLCAnNycsICctcGh0JywgJzAuNScsICctbnQn

> <r_lp_tautomer_probability>
1

> <r_epik_Ionization_Penalty>
  0.0016

> <r_epik_Ionization_Penalty_Charging>
  0.0016

> <r_epik_Ionization_Penalty_Neutral>
  0.0000

> <r_epik_State_Penalty>
 -0.0000

> <r_epik_Charging_Adjusted_Penalty>
0.0015557599809877

> <i_epik_Tot_Q>
-1

> <i_epik_Tot_abs_Q>
3

$$$$
