4xbb_ligand
                    3D
 Schrodinger Suite 2020-3.
 63 65  0  0  1  0            999 V2000
   39.4810   38.7400   12.5590 C   0  0  1  0  0  0
   40.2100   39.8590   11.8260 C   0  0  0  0  0  0
   39.5370   41.2290   12.0040 C   0  0  0  0  0  0
   38.1130   41.2620   11.4440 C   0  0  0  0  0  0
   37.5130   42.6660   11.5240 C   0  0  0  0  0  0
   38.4040   43.7050   10.8770 C   0  0  0  0  0  0
   39.8210   43.6560   11.4330 C   0  0  0  0  0  0
   40.3960   42.2600   11.2800 C   0  0  0  0  0  0
   40.1100   37.4160   12.2220 C   0  0  0  0  0  0
   38.7930   34.2750   11.4630 C   0  0  0  0  0  0
   38.9770   33.7850   12.8840 C   0  0  0  0  0  0
   39.6960   33.1580   14.9040 C   0  0  0  0  0  0
   38.0410   32.9190   13.4540 C   0  0  0  0  0  0
   39.9840   35.2230    9.3910 C   0  0  0  0  0  0
   38.2420   37.1270   14.6000 O   0  0  0  0  0  0
   38.9120   38.1290   14.8530 C   0  0  0  0  0  0
   39.1560   38.5220   16.2250 O   0  0  0  0  0  0
   38.5500   37.9000   17.3680 C   0  0  0  0  0  0
   37.2400   38.5780   17.7560 C   0  0  0  0  0  0
   37.1970   39.4400   18.6830 C   0  0  0  0  0  0
   36.1180   40.0320   19.0060 C   0  0  0  0  0  0
   34.9970   39.7150   18.5140 C   0  0  0  0  0  0
   34.9500   38.8070   17.5300 C   0  0  0  0  0  0
   33.4260   38.3110   16.7820 Cl  0  0  0  0  0  0
   36.1020   38.2490   17.1250 C   0  0  0  0  0  0
   39.4950   38.9450   13.9790 N   0  0  0  0  0  0
   39.4410   36.7390   11.3180 N   0  0  0  0  0  0
   39.5570   35.4080   10.8290 C   0  0  1  0  0  0
   40.0370   33.9120   13.7750 C   0  0  0  0  0  0
   38.4870   32.5460   14.6780 N   0  0  0  0  0  0
   36.9310   32.5430   12.8830 O   0  0  0  0  0  0
   40.9640   36.1910    8.9850 O   0  0  0  0  0  0
   41.1140   37.0100   12.7660 O   0  0  0  0  0  0
   38.4151   38.7400   12.2871 H   0  0  0  0  0  0
   41.2382   39.9389   12.2086 H   0  0  0  0  0  0
   40.2357   39.6361   10.7491 H   0  0  0  0  0  0
   39.4577   41.4538   13.0779 H   0  0  0  0  0  0
   38.1262   40.9482   10.3898 H   0  0  0  0  0  0
   37.4755   40.5771   12.0224 H   0  0  0  0  0  0
   36.5415   42.6795   11.0083 H   0  0  0  0  0  0
   37.3721   42.9450   12.5787 H   0  0  0  0  0  0
   38.4508   43.5241    9.7930 H   0  0  0  0  0  0
   37.9931   44.7081   11.0639 H   0  0  0  0  0  0
   40.4548   44.3685   10.8848 H   0  0  0  0  0  0
   39.8058   43.9242   12.4997 H   0  0  0  0  0  0
   41.4124   42.2506   11.7004 H   0  0  0  0  0  0
   40.4400   42.0135   10.2089 H   0  0  0  0  0  0
   39.0082   33.4553   10.7617 H   0  0  0  0  0  0
   37.7559   34.6141   11.3234 H   0  0  0  0  0  0
   40.2197   33.0053   15.8592 H   0  0  0  0  0  0
   40.4213   34.2216    9.2643 H   0  0  0  0  0  0
   39.1091   35.3270    8.7324 H   0  0  0  0  0  0
   38.3380   36.8446   17.1417 H   0  0  0  0  0  0
   39.2365   37.9604   18.2254 H   0  0  0  0  0  0
   38.1134   39.6824   19.2211 H   0  0  0  0  0  0
   36.1615   40.8423   19.7337 H   0  0  0  0  0  0
   34.0811   40.1744   18.8856 H   0  0  0  0  0  0
   36.1129   37.5402   16.2970 H   0  0  0  0  0  0
   40.0099   39.8195   14.4034 H   0  0  0  0  0  0
   38.6644   37.4067   10.9166 H   0  0  0  0  0  0
   40.4599   35.3821   11.4568 H   0  0  0  0  0  0
   40.9115   34.5226   13.5060 H   0  0  0  0  0  0
   41.3637   36.1725    7.9604 H   0  0  0  0  0  0
  1  2  1  0  0  0
  1  9  1  0  0  0
  1 26  1  0  0  0
  1 34  1  0  0  0
  2  3  1  0  0  0
  2 35  1  0  0  0
  2 36  1  0  0  0
  3  4  1  0  0  0
  3  8  1  0  0  0
  3 37  1  0  0  0
  4  5  1  0  0  0
  4 38  1  0  0  0
  4 39  1  0  0  0
  5  6  1  0  0  0
  5 40  1  0  0  0
  5 41  1  0  0  0
  6  7  1  0  0  0
  6 42  1  0  0  0
  6 43  1  0  0  0
  7  8  1  0  0  0
  7 44  1  0  0  0
  7 45  1  0  0  0
  8 46  1  0  0  0
  8 47  1  0  0  0
  9 27  1  0  0  0
  9 33  2  0  0  0
 10 11  1  0  0  0
 10 28  1  0  0  0
 10 48  1  0  0  0
 10 49  1  0  0  0
 11 13  1  0  0  0
 11 29  2  0  0  0
 12 29  1  0  0  0
 12 30  2  0  0  0
 12 50  1  0  0  0
 13 30  1  0  0  0
 13 31  2  0  0  0
 14 28  1  0  0  0
 14 32  1  0  0  0
 14 51  1  0  0  0
 14 52  1  0  0  0
 15 16  2  0  0  0
 16 17  1  0  0  0
 16 26  1  0  0  0
 17 18  1  0  0  0
 18 19  1  0  0  0
 18 53  1  0  0  0
 18 54  1  0  0  0
 19 20  2  0  0  0
 19 25  1  0  0  0
 20 21  1  0  0  0
 20 55  1  0  0  0
 21 22  2  0  0  0
 21 56  1  0  0  0
 22 23  1  0  0  0
 22 57  1  0  0  0
 23 24  1  0  0  0
 23 25  2  0  0  0
 25 58  1  0  0  0
 26 59  1  0  0  0
 27 28  1  0  0  0
 27 60  1  0  0  0
 28 61  1  0  0  0
 29 62  1  0  0  0
 32 63  1  0  0  0
M  END
> <s_m_source_file>
../4xbb_ligand.sdf

> <i_m_source_file_index>
1

> <s_epik_input>
Tz1DMU49W0NIXVtDSF09QzFbQ0gyXVtDQEBIXShbQ0gyXVtPSF0pW05IXUMoPU8pW0NASF0oW0NIMl1bQ0hdMltDSDJdW0NIMl1bQ0gyXVtDSDJdW0NIMl0yKVtOSF1DKD1PKU9bQ0gyXWMzW2NIXVtjSF1bY0hdYyhDbClbY0hdMw==

> <s_epik_cmdline>
J2VwaWtfYXBwJywgJy1pbWFlJywgJ2xpZ2FuZF9wcm8ubWFlJywgJy1vbWFlJywgJ2xpZ2FuZF9wcmVwLm1hZScsICctbXMnLCAnMScsICctcGgnLCAnNycsICctcGh0JywgJzAuNScsICctbnQn

> <r_lp_tautomer_probability>
1

> <r_epik_Ionization_Penalty>
  0.0000

> <r_epik_Ionization_Penalty_Charging>
  0.0000

> <r_epik_Ionization_Penalty_Neutral>
  0.0000

> <r_epik_State_Penalty>
 -0.0000

> <r_epik_Charging_Adjusted_Penalty>
0

> <i_epik_Tot_Q>
0

> <i_epik_Tot_abs_Q>
0

> <s_epik_Chemistry_Notes>
This compound has an ester and may undergo hydrolysis at high or low pH. This compound has an imine and may undergo hydrolysis.

$$$$
