4xbd_ligand
                    3D
 Schrodinger Suite 2020-3.
 57 58  0  0  1  0            999 V2000
  -21.1340   18.8300  -34.3770 O   0  0  0  0  0  0
  -21.2420   20.0530  -34.5230 C   0  0  0  0  0  0
  -22.2000   20.5890  -35.3660 O   0  0  0  0  0  0
  -23.3030   19.8570  -35.8060 C   0  0  0  0  0  0
  -20.3150   21.0540  -33.9690 N   0  0  0  0  0  0
  -19.2640   20.5850  -33.1320 C   0  0  1  0  0  0
  -18.3930   21.7590  -32.7440 C   0  0  0  0  0  0
  -17.6850   22.5490  -33.8630 C   0  0  0  0  0  0
  -16.9990   23.7050  -33.1930 C   0  0  0  0  0  0
  -15.9970   24.4040  -34.0770 C   0  0  0  0  0  0
  -15.0620   23.4460  -34.7180 C   0  0  0  0  0  0
  -15.7750   22.3260  -35.4500 C   0  0  0  0  0  0
  -16.7480   21.6030  -34.5870 C   0  0  0  0  0  0
  -19.7660   19.9680  -31.8930 C   0  0  0  0  0  0
  -19.0660   18.8160  -31.4130 N   0  0  0  0  0  0
  -19.4260   18.1400  -30.1910 C   0  0  1  0  0  0
  -20.0140   16.8160  -30.5300 C   0  0  0  0  0  0
  -21.3070   16.8440  -31.4070 C   0  0  2  0  0  0
  -22.4280   17.5750  -30.7130 C   0  0  0  0  0  0
  -23.6900   16.8860  -31.2420 C   0  0  0  0  0  0
  -23.2600   15.5130  -31.5860 N   0  0  0  0  0  0
  -21.8230   15.4860  -31.6690 C   0  0  0  0  0  0
  -21.2180   14.4810  -31.9340 O   0  0  0  0  0  0
  -17.8110   19.2100  -28.7590 O   0  0  0  0  0  0
  -20.7190   20.4310  -31.2800 O   0  0  0  0  0  0
  -18.2050   17.9810  -29.3030 C   0  0  0  0  0  0
  -23.9224   20.4861  -36.4622 H   0  0  0  0  0  0
  -23.8982   19.5340  -34.9391 H   0  0  0  0  0  0
  -22.9581   18.9738  -36.3636 H   0  0  0  0  0  0
  -20.4116   22.1292  -34.1804 H   0  0  0  0  0  0
  -18.7514   19.8138  -33.7258 H   0  0  0  0  0  0
  -19.0005   22.5065  -32.2127 H   0  0  0  0  0  0
  -17.5814   21.4123  -32.0874 H   0  0  0  0  0  0
  -18.3475   22.9690  -34.6341 H   0  0  0  0  0  0
  -17.7487   24.4512  -32.8909 H   0  0  0  0  0  0
  -16.4599   23.3462  -32.3038 H   0  0  0  0  0  0
  -16.5270   24.9514  -34.8703 H   0  0  0  0  0  0
  -15.4071   25.1108  -33.4750 H   0  0  0  0  0  0
  -14.4356   23.9784  -35.4488 H   0  0  0  0  0  0
  -14.4211   22.9892  -33.9495 H   0  0  0  0  0  0
  -16.3276   22.7409  -36.3059 H   0  0  0  0  0  0
  -15.0363   21.5948  -35.8102 H   0  0  0  0  0  0
  -16.1803   21.0147  -33.8511 H   0  0  0  0  0  0
  -17.3330   20.9250  -35.2258 H   0  0  0  0  0  0
  -18.2229   18.4490  -32.0167 H   0  0  0  0  0  0
  -20.1815   18.7540  -29.6790 H   0  0  0  0  0  0
  -19.2782   16.2207  -31.0905 H   0  0  0  0  0  0
  -20.2848   16.2872  -29.6043 H   0  0  0  0  0  0
  -21.0553   17.3232  -32.3646 H   0  0  0  0  0  0
  -22.3180   17.4659  -29.6240 H   0  0  0  0  0  0
  -22.3912   18.6414  -30.9803 H   0  0  0  0  0  0
  -24.4629   16.8856  -30.4593 H   0  0  0  0  0  0
  -24.0616   17.4283  -32.1239 H   0  0  0  0  0  0
  -24.0103   14.7218  -31.7310 H   0  0  0  0  0  0
  -16.9384   19.2615  -28.0912 H   0  0  0  0  0  0
  -18.4385   17.2911  -28.4787 H   0  0  0  0  0  0
  -17.3712   17.5759  -29.8951 H   0  0  0  0  0  0
  1  2  2  0  0  0
  2  3  1  0  0  0
  2  5  1  0  0  0
  3  4  1  0  0  0
  4 27  1  0  0  0
  4 28  1  0  0  0
  4 29  1  0  0  0
  5  6  1  0  0  0
  5 30  1  0  0  0
  6  7  1  0  0  0
  6 14  1  0  0  0
  6 31  1  0  0  0
  7  8  1  0  0  0
  7 32  1  0  0  0
  7 33  1  0  0  0
  8  9  1  0  0  0
  8 13  1  0  0  0
  8 34  1  0  0  0
  9 10  1  0  0  0
  9 35  1  0  0  0
  9 36  1  0  0  0
 10 11  1  0  0  0
 10 37  1  0  0  0
 10 38  1  0  0  0
 11 12  1  0  0  0
 11 39  1  0  0  0
 11 40  1  0  0  0
 12 13  1  0  0  0
 12 41  1  0  0  0
 12 42  1  0  0  0
 13 43  1  0  0  0
 13 44  1  0  0  0
 14 15  1  0  0  0
 14 25  2  0  0  0
 15 16  1  0  0  0
 15 45  1  0  0  0
 16 17  1  0  0  0
 16 26  1  0  0  0
 16 46  1  0  0  0
 17 18  1  0  0  0
 17 47  1  0  0  0
 17 48  1  0  0  0
 18 19  1  0  0  0
 18 22  1  0  0  0
 18 49  1  0  0  0
 19 20  1  0  0  0
 19 50  1  0  0  0
 19 51  1  0  0  0
 20 21  1  0  0  0
 20 52  1  0  0  0
 20 53  1  0  0  0
 21 22  1  0  0  0
 21 54  1  0  0  0
 22 23  2  0  0  0
 24 26  1  0  0  0
 24 55  1  0  0  0
 26 56  1  0  0  0
 26 57  1  0  0  0
M  END
> <s_m_source_file>
../4xbd_ligand.sdf

> <i_m_source_file_index>
1

> <s_epik_input>
W0NIMl0xW0NIMl1bQ0gyXVtDSDJdW0NIMl1bQ0hdMVtDSDJdW0NASF0oW05IXUMoPU8pT1tDSDNdKUMoPU8pW05IXVtDQEhdKFtDSDJdW09IXSlbQ0gyXVtDQEBIXTJbQ0gyXVtDSDJdW05IXUMyPU8=

> <s_epik_cmdline>
J2VwaWtfYXBwJywgJy1pbWFlJywgJ2xpZ2FuZF9wcm8ubWFlJywgJy1vbWFlJywgJ2xpZ2FuZF9wcmVwLm1hZScsICctbXMnLCAnMScsICctcGgnLCAnNycsICctcGh0JywgJzAuNScsICctbnQn

> <r_lp_tautomer_probability>
1

> <r_epik_Ionization_Penalty>
  0.0000

> <r_epik_Ionization_Penalty_Charging>
  0.0000

> <r_epik_Ionization_Penalty_Neutral>
  0.0000

> <r_epik_State_Penalty>
 -0.0000

> <r_epik_Charging_Adjusted_Penalty>
0

> <i_epik_Tot_Q>
0

> <i_epik_Tot_abs_Q>
0

> <s_epik_Chemistry_Notes>
This compound has an ester and may undergo hydrolysis at high or low pH.

$$$$
