4xbo_ligand
                    3D
 Schrodinger Suite 2020-3.
 46 48  0  0  1  0            999 V2000
  -35.1600  -24.4200   -0.6680 N   0  3  0  0  0  0
  -34.9310  -25.0030   -1.9820 C   0  0  1  0  0  0
  -34.3580  -23.8840   -2.8660 C   0  0  0  0  0  0
  -34.7730  -23.9510   -4.3290 C   0  0  0  0  0  0
  -33.3740  -23.7300   -5.4520 S   0  0  0  0  0  0
  -34.1090  -26.3260   -1.9160 C   0  0  0  0  0  0
  -32.8760  -26.3920   -1.9710 O   0  5  0  0  0  0
  -34.6670  -27.4150   -1.8230 O   0  0  0  0  0  0
  -33.9940  -24.8120   -6.7560 C   0  0  0  0  0  0
  -33.2340  -26.1190   -6.8600 C   0  0  1  0  0  0
  -31.8180  -25.9020   -6.8700 O   0  0  0  0  0  0
  -33.4890  -27.0280   -5.6710 C   0  0  1  0  0  0
  -34.5900  -27.8590   -5.8950 O   0  0  0  0  0  0
  -32.2100  -27.8370   -5.5770 C   0  0  1  0  0  0
  -32.2390  -28.9080   -6.4840 O   0  0  0  0  0  0
  -31.1580  -26.9000   -6.1110 C   0  0  2  0  0  0
  -30.3440  -26.3490   -5.0070 N   0  0  0  0  0  0
  -30.2070  -25.0540   -4.6270 C   0  0  0  0  0  0
  -29.3400  -25.0120   -3.5940 N   0  0  0  0  0  0
  -28.9100  -26.2570   -3.2770 C   0  0  0  0  0  0
  -28.0350  -26.7690   -2.3080 C   0  0  0  0  0  0
  -27.3980  -25.9930   -1.4120 N   0  0  0  0  0  0
  -27.8320  -28.1280   -2.3030 N   0  0  0  0  0  0
  -28.4570  -28.9660   -3.1970 C   0  0  0  0  0  0
  -29.3140  -28.4600   -4.1390 N   0  0  0  0  0  0
  -29.5390  -27.1140   -4.1800 C   0  0  0  0  0  0
  -35.7421  -23.4928   -0.7747 H   0  0  0  0  0  0
  -34.1936  -24.1938   -0.1938 H   0  0  0  0  0  0
  -35.7173  -25.1329   -0.0426 H   0  0  0  0  0  0
  -35.9008  -25.3182   -2.3945 H   0  0  0  0  0  0
  -34.6936  -22.9080   -2.4855 H   0  0  0  0  0  0
  -33.2590  -23.9272   -2.8458 H   0  0  0  0  0  0
  -35.2245  -24.9322   -4.5375 H   0  0  0  0  0  0
  -35.5059  -23.1581   -4.5389 H   0  0  0  0  0  0
  -35.0485  -25.0560   -6.5595 H   0  0  0  0  0  0
  -33.9105  -24.3014   -7.7267 H   0  0  0  0  0  0
  -33.5324  -26.5766   -7.8147 H   0  0  0  0  0  0
  -33.7926  -26.5155   -4.7462 H   0  0  0  0  0  0
  -35.5966  -27.4252   -5.9880 H   0  0  0  0  0  0
  -32.0440  -28.2747   -4.5816 H   0  0  0  0  0  0
  -32.9339  -29.7455   -6.3240 H   0  0  0  0  0  0
  -30.4513  -27.3816   -6.8028 H   0  0  0  0  0  0
  -30.7092  -24.1977   -5.0772 H   0  0  0  0  0  0
  -27.5589  -24.9048   -1.4140 H   0  0  0  0  0  0
  -26.7164  -26.4468   -0.6775 H   0  0  0  0  0  0
  -28.2695  -30.0390   -3.1559 H   0  0  0  0  0  0
  1  2  1  0  0  0
  1 27  1  0  0  0
  1 28  1  0  0  0
  1 29  1  0  0  0
  2  3  1  0  0  0
  2  6  1  0  0  0
  2 30  1  0  0  0
  3  4  1  0  0  0
  3 31  1  0  0  0
  3 32  1  0  0  0
  4  5  1  0  0  0
  4 33  1  0  0  0
  4 34  1  0  0  0
  5  9  1  0  0  0
  6  7  1  0  0  0
  6  8  2  0  0  0
  9 10  1  0  0  0
  9 35  1  0  0  0
  9 36  1  0  0  0
 10 11  1  0  0  0
 10 12  1  0  0  0
 10 37  1  0  0  0
 11 16  1  0  0  0
 12 13  1  0  0  0
 12 14  1  0  0  0
 12 38  1  0  0  0
 13 39  1  0  0  0
 14 15  1  0  0  0
 14 16  1  0  0  0
 14 40  1  0  0  0
 15 41  1  0  0  0
 16 17  1  0  0  0
 16 42  1  0  0  0
 17 18  1  0  0  0
 17 26  1  0  0  0
 18 19  2  0  0  0
 18 43  1  0  0  0
 19 20  1  0  0  0
 20 21  2  0  0  0
 20 26  1  0  0  0
 21 22  1  0  0  0
 21 23  1  0  0  0
 22 44  1  0  0  0
 22 45  1  0  0  0
 23 24  2  0  0  0
 24 25  1  0  0  0
 24 46  1  0  0  0
 25 26  2  0  0  0
M  CHG  2   1   1   7  -1
M  END
> <s_m_source_file>
../4xbo_ligand.sdf

> <i_m_source_file_index>
1

> <s_epik_input>
W09IXUMoPU8pW0NAQEhdKFtOSDMrXSlbQ0gyXVtDSDJdU1tDSDJdW0NASF0xT1tDQEhdKFtDQEhdKFtPSF0pW0NAQEhdMVtPSF0pbihbY0hdbjIpYyhjMjMpbltjSF1uYzNbTkgyXQ==

> <s_epik_cmdline>
J2VwaWtfYXBwJywgJy1pbWFlJywgJ2xpZ2FuZF9wcm8ubWFlJywgJy1vbWFlJywgJ2xpZ2FuZF9wcmVwLm1hZScsICctbXMnLCAnMScsICctcGgnLCAnNycsICctcGh0JywgJzAuNScsICctbnQn

> <r_lp_tautomer_probability>
1

> <r_epik_Ionization_Penalty>
  0.0026

> <r_epik_Ionization_Penalty_Charging>
  0.0022

> <r_epik_Ionization_Penalty_Neutral>
  0.0004

> <r_epik_State_Penalty>
 -0.0000

> <r_epik_Charging_Adjusted_Penalty>
0.00216156469931729

> <i_epik_Tot_Q>
0

> <i_epik_Tot_abs_Q>
2

> <s_epik_Chemistry_Notes>
This compound contains an acetal/aminal-like group ( X-CH(R)-Y where X, Y are N, S, or O) that may be acid/base labile, releasing an aldehyde.

$$$$
