4xc2_ligand
                    3D
 Schrodinger Suite 2020-3.
176179  0  0  1  0            999 V2000
   17.6880    5.9830   10.4210 N   0  3  0  0  0  0
   18.9150    6.8180   10.2410 C   0  0  2  0  0  0
   19.9160    6.3580    9.1590 C   0  0  0  0  0  0
   20.8520    7.0950    8.8570 O   0  0  0  0  0  0
   19.6450    7.0150   11.5800 C   0  0  0  0  0  0
   20.3900    5.8730   11.9580 O   0  0  0  0  0  0
   19.7180    5.1970    8.5370 N   0  0  0  0  0  0
   20.4950    4.8820    7.3340 C   0  0  2  0  0  0
   20.0270    5.7800    6.1820 C   0  0  0  0  0  0
   18.8310    5.8230    5.8630 O   0  0  0  0  0  0
   20.3630    3.4000    6.9550 C   0  0  0  0  0  0
   21.1200    3.0380    5.6690 C   0  0  0  0  0  0
   22.1240    3.7050    5.3450 O   0  0  0  0  0  0
   20.7200    2.0660    4.9820 O   0  0  0  0  0  0
   20.9650    6.5190    5.5920 N   0  0  0  0  0  0
   20.6880    7.3620    4.4340 C   0  0  2  0  0  0
   21.5110    7.0030    3.1770 C   0  0  0  0  0  0
   21.6920    7.8390    2.3040 O   0  0  0  0  0  0
   20.9530    8.8140    4.8040 C   0  0  0  0  0  0
   22.4190    9.1540    4.7620 C   0  0  0  0  0  0
   23.2200    8.2150    4.6320 O   0  0  0  0  0  0
   22.7590   10.3500    4.7910 O   0  0  0  0  0  0
   21.9580    5.7520    3.0590 N   0  0  0  0  0  0
   22.7730    5.3270    1.9070 C   0  0  2  0  0  0
   22.0090    5.2670    0.5870 C   0  0  0  0  0  0
   22.5850    5.4580   -0.4740 O   0  0  0  0  0  0
   23.3750    3.9510    2.1720 C   0  0  0  0  0  0
   24.6290    4.0260    3.0040 C   0  0  0  0  0  0
   25.1760    5.1410    3.1560 O   0  0  0  0  0  0
   25.0600    2.9740    3.5050 O   0  0  0  0  0  0
   20.7520    4.8560    0.6420 N   0  0  0  0  0  0
   20.0070    4.6180   -0.5710 C   0  0  2  0  0  0
   18.5370    4.9090   -0.3610 C   0  0  0  0  0  0
   18.0550    4.9700    0.7710 O   0  0  0  0  0  0
   20.2040    3.1770   -1.0680 C   0  0  0  0  0  0
   19.6650    2.1270   -0.1510 C   0  0  0  0  0  0
   18.3280    1.7480   -0.2120 C   0  0  0  0  0  0
   20.5170    1.4280    0.6940 C   0  0  0  0  0  0
   17.8320    0.7480    0.6140 C   0  0  0  0  0  0
   20.0320    0.4310    1.5240 C   0  0  0  0  0  0
   18.6920    0.0740    1.4670 C   0  0  0  0  0  0
   17.8530    5.1190   -1.4730 N   0  0  0  0  0  0
   16.4490    5.4290   -1.4770 C   0  0  2  0  0  0
   15.6650    4.1390   -1.5100 C   0  0  0  0  0  0
   15.8320    3.3350   -2.4220 O   0  0  0  0  0  0
   16.0990    6.2370   -2.7320 C   0  0  0  0  0  0
   16.6960    7.5840   -2.7610 C   0  0  0  0  0  0
   17.8700    7.9430   -3.3430 C   0  0  0  0  0  0
   16.1440    8.7780   -2.2020 C   0  0  0  0  0  0
   18.0890    9.2790   -3.1770 N   0  0  0  0  0  0
   17.0580    9.8150   -2.4560 C   0  0  0  0  0  0
   14.9670    9.0740   -1.5240 C   0  0  0  0  0  0
   16.8340   11.1260   -2.0530 C   0  0  0  0  0  0
   14.7760   10.3780   -1.0650 C   0  0  0  0  0  0
   15.6890   11.3880   -1.3670 C   0  0  0  0  0  0
   14.6780    4.0480   -0.6310 N   0  0  0  0  0  0
   13.8370    2.8920   -0.5230 C   0  0  2  0  0  0
   12.7750    2.9820   -1.6050 C   0  0  0  0  0  0
   12.0070    3.9480   -1.6420 O   0  0  0  0  0  0
   13.1610    2.8780    0.8530 C   0  0  0  0  0  0
   12.0100    1.8800    0.8800 C   0  0  0  0  0  0
   14.1900    2.6170    1.9380 C   0  0  0  0  0  0
   12.8170    2.0770   -2.5760 N   0  0  0  0  0  0
   11.8080    2.1070   -3.6230 C   0  0  2  0  0  0
   10.5380    1.5440   -3.0630 C   0  0  0  0  0  0
   10.3960    0.3430   -2.9840 O   0  0  0  0  0  0
   12.2370    1.2970   -4.8540 C   0  0  0  0  0  0
   11.2240    1.3580   -6.0010 C   0  0  0  0  0  0
   11.6000    0.4140   -7.1320 C   0  0  0  0  0  0
   12.8180    0.8660   -7.8010 N   0  0  0  0  0  0
   14.0030    0.2880   -7.6740 C   0  0  0  0  0  0
   14.1300   -0.8240   -6.9610 N   0  0  0  0  0  0
   15.0550    0.8050   -8.2990 N   0  0  0  0  0  0
    9.5990    2.4060   -2.7030 N   0  0  0  0  0  0
    8.2820    1.9650   -2.2550 C   0  0  2  0  0  0
    7.3610    1.3950   -3.3640 C   0  0  0  0  0  0
    7.0670    2.0530   -4.3640 O   0  0  0  0  0  0
    7.5440    3.1210   -1.5560 C   0  0  0  0  0  0
    6.1870    2.6440   -1.0640 C   0  0  0  0  0  0
    8.3580    3.6840   -0.3950 C   0  0  0  0  0  0
    6.7620    0.2400   -3.0950 N   0  0  0  0  0  0
    5.8710   -0.3990   -4.0630 C   0  0  2  0  0  0
    4.6330    0.4740   -4.3110 C   0  0  0  0  0  0
    4.0690    1.0270   -3.3720 O   0  0  0  0  0  0
    5.4540   -1.7790   -3.5570 C   0  0  0  0  0  0
    4.1830    0.5690   -5.5720 N   0  0  0  0  0  0
    2.9120    1.2550   -5.8380 C   0  0  2  0  0  0
    1.6770    0.4050   -5.5230 C   0  0  0  0  0  0
    1.8080   -0.7390   -5.0810 O   0  0  0  0  0  0
    2.9910    1.5760   -7.3310 C   0  0  0  0  0  0
    3.9100    0.5480   -7.9010 C   0  0  0  0  0  0
    4.8370    0.0930   -6.8050 C   0  0  0  0  0  0
    0.5460    0.8610   -5.7100 O   0  0  0  0  0  0
   17.1848    5.8569    9.4510 H   0  0  0  0  0  0
   17.0059    6.4808   11.1260 H   0  0  0  0  0  0
   17.9706    4.9970   10.8184 H   0  0  0  0  0  0
   18.4835    7.7581    9.8668 H   0  0  0  0  0  0
   20.3402    7.8634   11.4972 H   0  0  0  0  0  0
   18.9095    7.2196   12.3720 H   0  0  0  0  0  0
   20.9628    5.8761   12.8971 H   0  0  0  0  0  0
   18.9790    4.4771    8.9186 H   0  0  0  0  0  0
   21.5462    5.0874    7.5844 H   0  0  0  0  0  0
   20.7670    2.7767    7.7663 H   0  0  0  0  0  0
   19.3023    3.1548    6.7977 H   0  0  0  0  0  0
   21.2490    1.7911    4.0576 H   0  0  0  0  0  0
   21.9812    6.4767    6.0110 H   0  0  0  0  0  0
   19.6261    7.1675    4.2232 H   0  0  0  0  0  0
   20.4292    9.4740    4.0969 H   0  0  0  0  0  0
   20.5874    9.0052    5.8237 H   0  0  0  0  0  0
   23.8250   10.6196    4.7612 H   0  0  0  0  0  0
   21.7040    5.0302    3.8492 H   0  0  0  0  0  0
   23.5356    6.1161    1.8313 H   0  0  0  0  0  0
   22.6452    3.3292    2.7112 H   0  0  0  0  0  0
   23.6292    3.4715    1.2152 H   0  0  0  0  0  0
   26.0926    5.2264    3.7582 H   0  0  0  0  0  0
   20.2755    4.6959    1.6204 H   0  0  0  0  0  0
   20.4210    5.3331   -1.2971 H   0  0  0  0  0  0
   19.6950    3.0498   -2.0348 H   0  0  0  0  0  0
   21.2784    2.9748   -1.1899 H   0  0  0  0  0  0
   17.6606    2.2427   -0.9177 H   0  0  0  0  0  0
   21.5804    1.6669    0.7041 H   0  0  0  0  0  0
   16.7721    0.4944    0.5917 H   0  0  0  0  0  0
   20.7018   -0.0726    2.2211 H   0  0  0  0  0  0
   18.3162   -0.7357    2.0925 H   0  0  0  0  0  0
   18.4033    5.0480   -2.4228 H   0  0  0  0  0  0
   16.2552    5.9975   -0.5554 H   0  0  0  0  0  0
   16.4580    5.7027   -3.6240 H   0  0  0  0  0  0
   15.0080    6.3632   -2.7945 H   0  0  0  0  0  0
   18.5402    7.2616   -3.8670 H   0  0  0  0  0  0
   14.2118    8.3064   -1.3550 H   0  0  0  0  0  0
   17.5502   11.9161   -2.2786 H   0  0  0  0  0  0
   13.8992   10.6108   -0.4608 H   0  0  0  0  0  0
   15.4807   12.4088   -1.0466 H   0  0  0  0  0  0
   14.5167    4.9096    0.0336 H   0  0  0  0  0  0
   14.4797    2.0093   -0.6563 H   0  0  0  0  0  0
   12.7220    3.8646    1.0622 H   0  0  0  0  0  0
   11.2993    2.1181    0.0749 H   0  0  0  0  0  0
   11.4969    1.9383    1.8512 H   0  0  0  0  0  0
   12.4029    0.8631    0.7333 H   0  0  0  0  0  0
   14.9932    3.3654    1.8692 H   0  0  0  0  0  0
   14.6142    1.6106    1.8065 H   0  0  0  0  0  0
   13.7082    2.6858    2.9245 H   0  0  0  0  0  0
   13.6050    1.3097   -2.5934 H   0  0  0  0  0  0
   11.6816    3.1625   -3.9059 H   0  0  0  0  0  0
   13.1927    1.6867   -5.2345 H   0  0  0  0  0  0
   12.3575    0.2401   -4.5738 H   0  0  0  0  0  0
   10.2295    1.0728   -5.6274 H   0  0  0  0  0  0
   11.1853    2.3816   -6.4020 H   0  0  0  0  0  0
   11.7711   -0.5941   -6.7266 H   0  0  0  0  0  0
   10.7830    0.3795   -7.8677 H   0  0  0  0  0  0
   12.7882    1.7434   -8.4637 H   0  0  0  0  0  0
   13.2566   -1.2492   -6.4448 H   0  0  0  0  0  0
   14.9459    1.7269   -8.8891 H   0  0  0  0  0  0
   16.0353    0.3112   -8.2265 H   0  0  0  0  0  0
    9.8334    3.4798   -2.7484 H   0  0  0  0  0  0
    8.5544    1.1471   -1.5717 H   0  0  0  0  0  0
    7.3957    3.9346   -2.2814 H   0  0  0  0  0  0
    5.6111    2.2410   -1.9101 H   0  0  0  0  0  0
    5.6411    3.4885   -0.6180 H   0  0  0  0  0  0
    6.3269    1.8574   -0.3079 H   0  0  0  0  0  0
    9.3363    4.0251   -0.7645 H   0  0  0  0  0  0
    8.5052    2.9009    0.3634 H   0  0  0  0  0  0
    7.8194    4.5319    0.0532 H   0  0  0  0  0  0
    6.9478   -0.2359   -2.1208 H   0  0  0  0  0  0
    6.4504   -0.4991   -4.9927 H   0  0  0  0  0  0
    6.3506   -2.3924   -3.3840 H   0  0  0  0  0  0
    4.8150   -2.2671   -4.3076 H   0  0  0  0  0  0
    4.8963   -1.6710   -2.6151 H   0  0  0  0  0  0
    2.8290    2.1322   -5.1795 H   0  0  0  0  0  0
    1.9861    1.5113   -7.7736 H   0  0  0  0  0  0
    3.3867    2.5933   -7.4669 H   0  0  0  0  0  0
    3.3214   -0.3016   -8.2776 H   0  0  0  0  0  0
    4.4867    0.9894   -8.7272 H   0  0  0  0  0  0
    5.8355    0.5468   -6.8891 H   0  0  0  0  0  0
    4.9338   -1.0022   -6.7694 H   0  0  0  0  0  0
   -0.3387    0.2480   -5.4828 H   0  0  0  0  0  0
  1  2  1  0  0  0
  1 94  1  0  0  0
  1 95  1  0  0  0
  1 96  1  0  0  0
  2  3  1  0  0  0
  2  5  1  0  0  0
  2 97  1  0  0  0
  3  4  2  0  0  0
  3  7  1  0  0  0
  5  6  1  0  0  0
  5 98  1  0  0  0
  5 99  1  0  0  0
  6100  1  0  0  0
  7  8  1  0  0  0
  7101  1  0  0  0
  8  9  1  0  0  0
  8 11  1  0  0  0
  8102  1  0  0  0
  9 10  2  0  0  0
  9 15  1  0  0  0
 11 12  1  0  0  0
 11103  1  0  0  0
 11104  1  0  0  0
 12 13  2  0  0  0
 12 14  1  0  0  0
 14105  1  0  0  0
 15 16  1  0  0  0
 15106  1  0  0  0
 16 17  1  0  0  0
 16 19  1  0  0  0
 16107  1  0  0  0
 17 18  2  0  0  0
 17 23  1  0  0  0
 19 20  1  0  0  0
 19108  1  0  0  0
 19109  1  0  0  0
 20 21  2  0  0  0
 20 22  1  0  0  0
 22110  1  0  0  0
 23 24  1  0  0  0
 23111  1  0  0  0
 24 25  1  0  0  0
 24 27  1  0  0  0
 24112  1  0  0  0
 25 26  2  0  0  0
 25 31  1  0  0  0
 27 28  1  0  0  0
 27113  1  0  0  0
 27114  1  0  0  0
 28 29  1  0  0  0
 28 30  2  0  0  0
 29115  1  0  0  0
 31 32  1  0  0  0
 31116  1  0  0  0
 32 33  1  0  0  0
 32 35  1  0  0  0
 32117  1  0  0  0
 33 34  2  0  0  0
 33 42  1  0  0  0
 35 36  1  0  0  0
 35118  1  0  0  0
 35119  1  0  0  0
 36 37  2  0  0  0
 36 38  1  0  0  0
 37 39  1  0  0  0
 37120  1  0  0  0
 38 40  2  0  0  0
 38121  1  0  0  0
 39 41  2  0  0  0
 39122  1  0  0  0
 40 41  1  0  0  0
 40123  1  0  0  0
 41124  1  0  0  0
 42 43  1  0  0  0
 42125  1  0  0  0
 43 44  1  0  0  0
 43 46  1  0  0  0
 43126  1  0  0  0
 44 45  2  0  0  0
 44 56  1  0  0  0
 46 47  1  0  0  0
 46127  1  0  0  0
 46128  1  0  0  0
 47 48  2  0  0  0
 47 49  1  0  0  0
 48 50  1  0  0  0
 48129  1  0  0  0
 49 51  2  0  0  0
 49 52  1  0  0  0
 50 51  1  0  0  0
 51 53  1  0  0  0
 52 54  2  0  0  0
 52130  1  0  0  0
 53 55  2  0  0  0
 53131  1  0  0  0
 54 55  1  0  0  0
 54132  1  0  0  0
 55133  1  0  0  0
 56 57  1  0  0  0
 56134  1  0  0  0
 57 58  1  0  0  0
 57 60  1  0  0  0
 57135  1  0  0  0
 58 59  2  0  0  0
 58 63  1  0  0  0
 60 61  1  0  0  0
 60 62  1  0  0  0
 60136  1  0  0  0
 61137  1  0  0  0
 61138  1  0  0  0
 61139  1  0  0  0
 62140  1  0  0  0
 62141  1  0  0  0
 62142  1  0  0  0
 63 64  1  0  0  0
 63143  1  0  0  0
 64 65  1  0  0  0
 64 67  1  0  0  0
 64144  1  0  0  0
 65 66  2  0  0  0
 65 74  1  0  0  0
 67 68  1  0  0  0
 67145  1  0  0  0
 67146  1  0  0  0
 68 69  1  0  0  0
 68147  1  0  0  0
 68148  1  0  0  0
 69 70  1  0  0  0
 69149  1  0  0  0
 69150  1  0  0  0
 70 71  1  0  0  0
 70151  1  0  0  0
 71 72  2  0  0  0
 71 73  1  0  0  0
 72152  1  0  0  0
 73153  1  0  0  0
 73154  1  0  0  0
 74 75  1  0  0  0
 74155  1  0  0  0
 75 76  1  0  0  0
 75 78  1  0  0  0
 75156  1  0  0  0
 76 77  2  0  0  0
 76 81  1  0  0  0
 78 79  1  0  0  0
 78 80  1  0  0  0
 78157  1  0  0  0
 79158  1  0  0  0
 79159  1  0  0  0
 79160  1  0  0  0
 80161  1  0  0  0
 80162  1  0  0  0
 80163  1  0  0  0
 81 82  1  0  0  0
 81164  1  0  0  0
 82 83  1  0  0  0
 82 85  1  0  0  0
 82165  1  0  0  0
 83 84  2  0  0  0
 83 86  1  0  0  0
 85166  1  0  0  0
 85167  1  0  0  0
 85168  1  0  0  0
 86 87  1  0  0  0
 86 92  1  0  0  0
 87 88  1  0  0  0
 87 90  1  0  0  0
 87169  1  0  0  0
 88 89  2  0  0  0
 88 93  1  0  0  0
 90 91  1  0  0  0
 90170  1  0  0  0
 90171  1  0  0  0
 91 92  1  0  0  0
 91172  1  0  0  0
 91173  1  0  0  0
 92174  1  0  0  0
 92175  1  0  0  0
 93176  1  0  0  0
M  CHG  1   1   1
M  END
> <s_m_source_file>
../4xc2_ligand.sdf

> <i_m_source_file_index>
1

> <s_epik_input>
W09IXVtDSDJdW0NASF0oW05IMytdKUMoPU8pW05IXVtDQEBIXShbQ0gyXUMoPU8pW09IXSlDKD1PKVtOSF1bQ0BASF0oW0NIMl1DKD1PKVtPSF0pQyg9TylbTkhdW0NAQEhdKFtDSDJdQyg9TylbT0hdKUMoPU8pW05IXVtDQEBIXShbQ0gyXWMxW2NIXVtjSF1bY0hdW2NIXVtjSF0xKUMoPU8pW05IXVtDQEBIXShbQ0gyXWMyW2NIXVtuSF1jKGMyMylbY0hdW2NIXVtjSF1bY0hdMylDKD1PKVtOSF1bQ0BASF0oW0NIXShbQ0gzXSlbQ0gzXSlDKD1PKVtOSF1bQ0BASF0oW0NIMl1bQ0gyXVtDSDJdW05IXS9DKD1OXFtIXSlbTkgyXSlDKD1PKVtOSF1bQ0BASF0oW0NIXShbQ0gzXSlbQ0gzXSlDKD1PKVtOSF1bQ0BASF0oW0NIM10pQyg9TylONFtDQEhdKEMoPU8pW09IXSlbQ0gyXVtDSDJdW0NIMl00

> <s_epik_cmdline>
J2VwaWtfYXBwJywgJy1pbWFlJywgJ2xpZ2FuZF9wcm8ubWFlJywgJy1vbWFlJywgJ2xpZ2FuZF9wcmVwLm1hZScsICctbXMnLCAnMScsICctcGgnLCAnNycsICctcGh0JywgJzAuNScsICctbnQn

> <s_epik_pKa_notes>
Molecule size exceeds maximum supported for generating protonation states

> <s_epik_Chemistry_Notes>
This compound has an imine and may undergo hydrolysis.

$$$$
