4xcb_ligand
                    3D
 Schrodinger Suite 2020-3.
 76 79  0  0  1  0            999 V2000
   24.6340  258.2790  215.8630 C   0  0  1  0  0  0
   26.1420  258.2370  215.9660 C   0  0  1  0  0  0
   26.6300  259.3950  216.8240 C   0  0  0  0  0  0
   26.1840  260.7270  216.2210 C   0  0  1  0  0  0
   24.6700  260.7610  215.9960 C   0  0  2  0  0  0
   24.1740  259.5720  215.2330 C   0  0  2  0  0  0
   26.5140  257.0110  216.5620 N   0  3  0  0  0  0
   24.2320  257.2140  215.0330 O   0  0  0  0  0  0
   26.5530  261.7750  217.1100 N   0  3  0  0  0  0
   27.9680  262.0760  216.9140 C   0  0  0  0  0  0
   24.3660  261.9200  215.2500 O   0  0  0  0  0  0
   20.6500  259.1220  214.1040 C   0  0  2  0  0  0
   22.1250  259.3950  213.9860 C   0  0  1  0  0  0
   22.4330  260.5050  213.1790 O   0  0  0  0  0  0
   21.9440  260.3190  211.8800 C   0  0  1  0  0  0
   20.4610  260.5090  211.9420 C   0  0  1  0  0  0
   19.8840  259.3690  212.8770 C   0  0  2  0  0  0
   22.7180  259.6070  215.2640 O   0  0  0  0  0  0
   22.5800  261.3600  210.9620 C   0  0  0  0  0  0
   23.9570  261.0180  210.7830 O   0  0  0  0  0  0
   20.1480  261.7450  212.4660 O   0  0  0  0  0  0
   18.6070  259.7080  213.2230 O   0  0  0  0  0  0
   18.5540  259.6660  214.6620 C   0  0  1  0  0  0
   17.6150  260.7200  215.1450 C   0  0  1  0  0  0
   17.2790  260.4940  216.6110 C   0  0  2  0  0  0
   16.7890  259.0800  216.8490 C   0  0  2  0  0  0
   17.8400  258.1350  216.3750 C   0  0  2  0  0  0
   18.0770  258.3880  215.0090 O   0  0  0  0  0  0
   19.9410  259.8710  215.1700 O   0  0  0  0  0  0
   18.1980  262.0240  215.0470 O   0  0  0  0  0  0
   16.3280  261.4560  217.0060 O   0  0  0  0  0  0
   15.5600  258.8230  216.1650 O   0  0  0  0  0  0
   17.3710  256.6760  216.5240 C   0  0  2  0  0  0
   18.5670  255.7600  216.5440 C   0  0  0  0  0  0
   19.2500  255.8230  217.7790 O   0  0  0  0  0  0
   16.5870  256.3380  215.3950 N   0  3  0  0  0  0
   24.1648  258.1439  216.8487 H   0  0  0  0  0  0
   26.6176  258.2561  214.9743 H   0  0  0  0  0  0
   26.2124  259.3019  217.8374 H   0  0  0  0  0  0
   27.7285  259.3747  216.8768 H   0  0  0  0  0  0
   26.7076  260.9143  215.2719 H   0  0  0  0  0  0
   24.1359  260.8089  216.9564 H   0  0  0  0  0  0
   24.5380  259.6222  214.1962 H   0  0  0  0  0  0
   26.1590  256.1774  215.9382 H   0  0  0  0  0  0
   26.0630  256.9380  217.5627 H   0  0  0  0  0  0
   27.6095  256.9632  216.6491 H   0  0  0  0  0  0
   24.4709  256.1776  215.3136 H   0  0  0  0  0  0
   25.9472  262.6678  216.8958 H   0  0  0  0  0  0
   26.3788  261.4540  218.1476 H   0  0  0  0  0  0
   28.2685  262.8856  217.5954 H   0  0  0  0  0  0
   28.1350  262.3915  215.8735 H   0  0  0  0  0  0
   28.5666  261.1777  217.1253 H   0  0  0  0  0  0
   24.6469  262.9114  215.6351 H   0  0  0  0  0  0
   20.6500  258.0477  214.3402 H   0  0  0  0  0  0
   22.5987  258.5293  213.4999 H   0  0  0  0  0  0
   22.2019  259.2984  211.5609 H   0  0  0  0  0  0
   20.0320  260.5770  210.9314 H   0  0  0  0  0  0
   19.8317  258.3933  212.3717 H   0  0  0  0  0  0
   22.0615  261.3590  209.9919 H   0  0  0  0  0  0
   22.4949  262.3555  211.4221 H   0  0  0  0  0  0
   24.6018  261.6456  210.1503 H   0  0  0  0  0  0
   20.4698  262.6599  211.9470 H   0  0  0  0  0  0
   16.7335  260.7022  214.4872 H   0  0  0  0  0  0
   18.1459  260.6713  217.2645 H   0  0  0  0  0  0
   16.5517  258.9187  217.9109 H   0  0  0  0  0  0
   18.7775  258.3257  216.9179 H   0  0  0  0  0  0
   18.5238  262.4087  214.0693 H   0  0  0  0  0  0
   16.5490  262.5274  216.8908 H   0  0  0  0  0  0
   14.6691  259.4282  216.3887 H   0  0  0  0  0  0
   16.7455  256.5305  217.4171 H   0  0  0  0  0  0
   18.2374  254.7231  216.3822 H   0  0  0  0  0  0
   19.2655  256.0515  215.7458 H   0  0  0  0  0  0
   20.1469  255.2077  217.9435 H   0  0  0  0  0  0
   15.7035  256.9919  215.3531 H   0  0  0  0  0  0
   16.2638  255.2895  215.4737 H   0  0  0  0  0  0
   17.1845  256.4700  214.4809 H   0  0  0  0  0  0
  1  2  1  0  0  0
  1  6  1  0  0  0
  1  8  1  0  0  0
  1 37  1  0  0  0
  2  3  1  0  0  0
  2  7  1  0  0  0
  2 38  1  0  0  0
  3  4  1  0  0  0
  3 39  1  0  0  0
  3 40  1  0  0  0
  4  5  1  0  0  0
  4  9  1  0  0  0
  4 41  1  0  0  0
  5  6  1  0  0  0
  5 11  1  0  0  0
  5 42  1  0  0  0
  6 18  1  0  0  0
  6 43  1  0  0  0
  7 44  1  0  0  0
  7 45  1  0  0  0
  7 46  1  0  0  0
  8 47  1  0  0  0
  9 10  1  0  0  0
  9 48  1  0  0  0
  9 49  1  0  0  0
 10 50  1  0  0  0
 10 51  1  0  0  0
 10 52  1  0  0  0
 11 53  1  0  0  0
 12 13  1  0  0  0
 12 17  1  0  0  0
 12 29  1  0  0  0
 12 54  1  0  0  0
 13 14  1  0  0  0
 13 18  1  0  0  0
 13 55  1  0  0  0
 14 15  1  0  0  0
 15 16  1  0  0  0
 15 19  1  0  0  0
 15 56  1  0  0  0
 16 17  1  0  0  0
 16 21  1  0  0  0
 16 57  1  0  0  0
 17 22  1  0  0  0
 17 58  1  0  0  0
 19 20  1  0  0  0
 19 59  1  0  0  0
 19 60  1  0  0  0
 20 61  1  0  0  0
 21 62  1  0  0  0
 22 23  1  0  0  0
 23 24  1  0  0  0
 23 28  1  0  0  0
 23 29  1  0  0  0
 24 25  1  0  0  0
 24 30  1  0  0  0
 24 63  1  0  0  0
 25 26  1  0  0  0
 25 31  1  0  0  0
 25 64  1  0  0  0
 26 27  1  0  0  0
 26 32  1  0  0  0
 26 65  1  0  0  0
 27 28  1  0  0  0
 27 33  1  0  0  0
 27 66  1  0  0  0
 30 67  1  0  0  0
 31 68  1  0  0  0
 32 69  1  0  0  0
 33 34  1  0  0  0
 33 36  1  0  0  0
 33 70  1  0  0  0
 34 35  1  0  0  0
 34 71  1  0  0  0
 34 72  1  0  0  0
 35 73  1  0  0  0
 36 74  1  0  0  0
 36 75  1  0  0  0
 36 76  1  0  0  0
M  CHG  3   7   1   9   1  36   1
M  END
> <s_m_source_file>
../4xcb_ligand.sdf

> <i_m_source_file_index>
1

> <s_epik_input>
W09IXVtDQEhdMVtDQEhdKFtOSDMrXSlbQ0gyXVtDQEhdKFtOSDIrXVtDSDNdKVtDQEBIXShbT0hdKVtDQEBIXTFPW0NASF0oT1tDQEBIXShbQ0BASF0yW09IXSlbQ0gyXVtPSF0pW0NAQEhdKE8zKVtDQEhdMk9bQ0BdMzRbQ0BIXShbT0hdKVtDQEBIXShbT0hdKVtDQEBIXShbT0hdKVtDQEhdKE80KVtDQEBIXShbTkgzK10pW0NIMl1bT0hd

> <s_epik_cmdline>
J2VwaWtfYXBwJywgJy1pbWFlJywgJ2xpZ2FuZF9wcm8ubWFlJywgJy1vbWFlJywgJ2xpZ2FuZF9wcmVwLm1hZScsICctbXMnLCAnMScsICctcGgnLCAnNycsICctcGh0JywgJzAuNScsICctbnQn

> <r_lp_tautomer_probability>
1

> <r_epik_Ionization_Penalty>
  0.1683

> <r_epik_Ionization_Penalty_Charging>
  0.1682

> <r_epik_Ionization_Penalty_Neutral>
  0.0000

> <r_epik_State_Penalty>
 -0.0000

> <r_epik_Charging_Adjusted_Penalty>
0.168231662044539

> <i_epik_Tot_Q>
3

> <i_epik_Tot_abs_Q>
3

> <s_epik_Chemistry_Notes>
This compound contains an acetal/aminal-like group ( X-CH(R)-Y where X, Y are N, S, or O) that may be acid/base labile, releasing an aldehyde.

$$$$
