4xct_ligand
                    3D
 Schrodinger Suite 2020-3.
 52 53  0  0  1  0            999 V2000
   15.6420  -20.3360   18.4020 O   0  0  0  0  0  0
   16.5790  -19.3450   17.8770 S   0  0  0  0  0  0
   16.2030  -18.9270   16.5200 O   0  0  0  0  0  0
   17.9640  -19.8790   17.9560 N   0  0  1  0  0  0
   18.0350  -21.0780   18.3630 O   0  0  0  0  0  0
   18.3210  -21.3320   19.7450 C   0  0  0  0  0  0
   17.3600  -22.3860   20.3190 C   0  0  0  0  0  0
   19.7600  -21.8150   19.9280 C   0  0  0  0  0  0
   18.8060  -19.5610   16.9080 C   0  0  2  0  0  0
   19.8660  -20.6600   16.5750 C   0  0  0  0  0  0
   19.3240  -21.7790   15.6710 C   0  0  0  0  0  0
   21.0650  -20.0570   15.8440 C   0  0  0  0  0  0
   19.6060  -18.3340   17.3940 C   0  0  0  0  0  0
   20.2800  -18.4110   18.3690 O   0  0  0  0  0  0
   19.5620  -17.0850   16.6670 N   0  0  0  0  0  0
   20.2050  -16.1780   17.0550 O   0  0  0  0  0  0
   16.6290  -17.8530   18.9560 C   0  0  0  0  0  0
   16.7560  -16.5550   18.3680 C   0  0  0  0  0  0
   16.8190  -15.3860   19.2490 C   0  0  0  0  0  0
   16.7530  -15.5510   20.6720 C   0  0  0  0  0  0
   16.6410  -16.8460   21.2600 C   0  0  0  0  0  0
   16.5740  -18.0150   20.3820 C   0  0  0  0  0  0
   16.8240  -14.2910   21.5710 C   0  0  0  0  0  0
   17.5180  -14.3450   22.9420 C   0  0  0  0  0  0
   17.5470  -13.2230   23.7470 C   0  0  0  0  0  0
   16.8450  -11.9300   23.2740 C   0  0  0  0  0  0
   16.2070  -11.8950   22.0860 C   0  0  0  0  0  0
   16.1720  -13.1660   21.1740 C   0  0  0  0  0  0
   18.1743  -20.3519   20.2224 H   0  0  0  0  0  0
   16.3222  -22.0446   20.1905 H   0  0  0  0  0  0
   17.5692  -22.5286   21.3895 H   0  0  0  0  0  0
   17.5010  -23.3388   19.7877 H   0  0  0  0  0  0
   20.4532  -21.0651   19.5192 H   0  0  0  0  0  0
   19.8969  -22.7687   19.3973 H   0  0  0  0  0  0
   19.9651  -21.9586   20.9991 H   0  0  0  0  0  0
   18.0999  -19.4292   16.0749 H   0  0  0  0  0  0
   20.1650  -21.0926   17.5411 H   0  0  0  0  0  0
   18.4542  -22.2501   16.1522 H   0  0  0  0  0  0
   20.1082  -22.5337   15.5115 H   0  0  0  0  0  0
   19.0217  -21.3539   14.7025 H   0  0  0  0  0  0
   21.4942  -19.2459   16.4505 H   0  0  0  0  0  0
   20.7386  -19.6557   14.8732 H   0  0  0  0  0  0
   21.8251  -20.8354   15.6821 H   0  0  0  0  0  0
   16.8050  -16.4380   17.2854 H   0  0  0  0  0  0
   16.9163  -14.3880   18.8216 H   0  0  0  0  0  0
   16.6060  -16.9626   22.3432 H   0  0  0  0  0  0
   16.4820  -19.0124   20.8120 H   0  0  0  0  0  0
   17.9874  -15.2693   23.2788 H   0  0  0  0  0  0
   18.0608  -13.2493   24.7080 H   0  0  0  0  0  0
   16.8655  -11.0409   23.9042 H   0  0  0  0  0  0
   15.7145  -10.9788   21.7604 H   0  0  0  0  0  0
   15.6296  -13.1496   20.2287 H   0  0  0  0  0  0
  1  2  2  0  0  0
  2  3  2  0  0  0
  2  4  1  0  0  0
  2 17  1  0  0  0
  4  5  1  0  0  0
  4  9  1  0  0  0
  5  6  1  0  0  0
  6  7  1  0  0  0
  6  8  1  0  0  0
  6 29  1  0  0  0
  7 30  1  0  0  0
  7 31  1  0  0  0
  7 32  1  0  0  0
  8 33  1  0  0  0
  8 34  1  0  0  0
  8 35  1  0  0  0
  9 10  1  0  0  0
  9 13  1  0  0  0
  9 36  1  0  0  0
 10 11  1  0  0  0
 10 12  1  0  0  0
 10 37  1  0  0  0
 11 38  1  0  0  0
 11 39  1  0  0  0
 11 40  1  0  0  0
 12 41  1  0  0  0
 12 42  1  0  0  0
 12 43  1  0  0  0
 13 14  2  0  0  0
 13 15  1  0  0  0
 15 16  2  0  0  0
 17 18  2  0  0  0
 17 22  1  0  0  0
 18 19  1  0  0  0
 18 44  1  0  0  0
 19 20  2  0  0  0
 19 45  1  0  0  0
 20 21  1  0  0  0
 20 23  1  0  0  0
 21 22  2  0  0  0
 21 46  1  0  0  0
 22 47  1  0  0  0
 23 24  2  0  0  0
 23 28  1  0  0  0
 24 25  1  0  0  0
 24 48  1  0  0  0
 25 26  2  0  0  0
 25 49  1  0  0  0
 26 27  1  0  0  0
 26 50  1  0  0  0
 27 28  2  0  0  0
 27 51  1  0  0  0
 28 52  1  0  0  0
M  END
> <s_m_source_file>
../4xct_ligand.sdf

> <i_m_source_file_index>
1

> <s_epik_input>
Tz1OQyg9TylbQ0BASF0oW0NIXShbQ0gzXSlbQ0gzXSlOKE9bQ0hdKFtDSDNdKVtDSDNdKVMoPU8pKD1PKWMxW2NIXVtjSF1jKFtjSF1bY0hdMSktYzJbY0hdW2NIXVtjSF1bY0hdW2NIXTI=

> <s_epik_cmdline>
J2VwaWtfYXBwJywgJy1pbWFlJywgJ2xpZ2FuZF9wcm8ubWFlJywgJy1vbWFlJywgJ2xpZ2FuZF9wcmVwLm1hZScsICctbXMnLCAnMScsICctcGgnLCAnNycsICctcGh0JywgJzAuNScsICctbnQn

> <r_lp_tautomer_probability>
1

> <r_epik_Ionization_Penalty>
  0.0000

> <r_epik_Ionization_Penalty_Charging>
  0.0000

> <r_epik_Ionization_Penalty_Neutral>
  0.0000

> <r_epik_State_Penalty>
 -0.0000

> <r_epik_Charging_Adjusted_Penalty>
0

> <i_epik_Tot_Q>
0

> <i_epik_Tot_abs_Q>
0

> <s_epik_Chemistry_Notes>
This compound has a N-S or N-O group and may undergo hydrolysis at high or low pH.

$$$$
