4xcu_ligand
                    3D
 Schrodinger Suite 2020-3.
 59 62  0  0  1  0            999 V2000
  -11.0200    5.2650  -28.6750 O   0  0  0  0  0  0
  -11.8280    5.9200  -28.0140 C   0  0  0  0  0  0
  -13.1350    6.3960  -28.6460 C   0  0  0  0  0  0
  -14.1550    7.0390  -27.7130 C   0  0  0  0  0  0
  -11.5930    6.2540  -26.6970 N   0  0  0  0  0  0
  -10.4220    5.9540  -25.9230 C   0  0  0  0  0  0
   -9.1950    5.4780  -26.3890 C   0  0  0  0  0  0
   -8.1470    5.2420  -25.4950 C   0  0  0  0  0  0
   -8.3010    5.4900  -24.1350 C   0  0  0  0  0  0
   -9.5150    5.9800  -23.6480 C   0  0  0  0  0  0
   -9.5670    6.2210  -22.1650 C   0  0  0  0  0  0
  -10.5800    6.1750  -24.5460 C   0  0  0  0  0  0
  -11.8380    6.6950  -24.2340 N   0  0  0  0  0  0
  -12.6410    6.1260  -23.2590 C   0  0  0  0  0  0
  -13.7410    6.8820  -23.0860 N   0  0  0  0  0  0
  -14.6270    6.5040  -22.1550 C   0  0  0  0  0  0
  -14.3720    5.3530  -21.4340 C   0  0  0  0  0  0
  -15.2760    4.9730  -20.4590 C   0  0  0  0  0  0
  -12.3900    4.9950  -22.5950 N   0  0  0  0  0  0
  -13.2530    4.5950  -21.6390 C   0  0  0  0  0  0
  -13.0170    3.4410  -20.8860 C   0  0  0  0  0  0
  -13.9440    3.0470  -19.8910 C   0  0  0  0  0  0
  -15.0360    3.8440  -19.7040 C   0  0  0  0  0  0
  -16.0170    3.5160  -18.6220 C   0  0  0  0  0  0
  -16.0660    4.3300  -17.5120 C   0  0  0  0  0  0
  -15.1030    5.7820  -17.2470 Cl  0  0  0  0  0  0
  -16.8070    2.4310  -18.5860 C   0  0  0  0  0  0
  -16.8330    1.3560  -19.9280 Cl  0  0  0  0  0  0
  -17.7270    2.1780  -17.5660 C   0  0  0  0  0  0
  -18.4980    1.0460  -17.6490 O   0  0  0  0  0  0
  -19.5450    0.8310  -16.6400 C   0  0  0  0  0  0
  -17.7490    3.0140  -16.4820 C   0  0  0  0  0  0
  -16.9400    4.1190  -16.4700 C   0  0  0  0  0  0
  -16.9250    5.0020  -15.4420 O   0  0  0  0  0  0
  -18.1420    5.4430  -14.8240 C   0  0  0  0  0  0
  -12.9166    7.1519  -29.4147 H   0  0  0  0  0  0
  -13.6513    5.5417  -29.1082 H   0  0  0  0  0  0
  -15.0439    7.3348  -28.2895 H   0  0  0  0  0  0
  -13.7112    7.9282  -27.2415 H   0  0  0  0  0  0
  -14.4458    6.3179  -26.9349 H   0  0  0  0  0  0
  -12.3510    6.8115  -26.1273 H   0  0  0  0  0  0
   -9.0540    5.2899  -27.4533 H   0  0  0  0  0  0
   -7.1972    4.8589  -25.8681 H   0  0  0  0  0  0
   -7.4746    5.3020  -23.4495 H   0  0  0  0  0  0
   -8.5890    5.9843  -21.7206 H   0  0  0  0  0  0
  -10.3389    5.5787  -21.7160 H   0  0  0  0  0  0
   -9.8111    7.2763  -21.9734 H   0  0  0  0  0  0
  -12.2153    7.5796  -24.7679 H   0  0  0  0  0  0
  -15.5273    7.0902  -21.9706 H   0  0  0  0  0  0
  -16.1757    5.5640  -20.2876 H   0  0  0  0  0  0
  -12.1214    2.8459  -21.0645 H   0  0  0  0  0  0
  -13.7918    2.1446  -19.2989 H   0  0  0  0  0  0
  -20.0666   -0.1147  -16.8487 H   0  0  0  0  0  0
  -20.2646    1.6623  -16.6754 H   0  0  0  0  0  0
  -19.0873    0.7846  -15.6408 H   0  0  0  0  0  0
  -18.4039    2.8022  -15.6368 H   0  0  0  0  0  0
  -17.9072    6.1526  -14.0169 H   0  0  0  0  0  0
  -18.6762    4.5767  -14.4067 H   0  0  0  0  0  0
  -18.7759    5.9379  -15.5745 H   0  0  0  0  0  0
  1  2  2  0  0  0
  2  3  1  0  0  0
  2  5  1  0  0  0
  3  4  1  0  0  0
  3 36  1  0  0  0
  3 37  1  0  0  0
  4 38  1  0  0  0
  4 39  1  0  0  0
  4 40  1  0  0  0
  5  6  1  0  0  0
  5 41  1  0  0  0
  6  7  2  0  0  0
  6 12  1  0  0  0
  7  8  1  0  0  0
  7 42  1  0  0  0
  8  9  2  0  0  0
  8 43  1  0  0  0
  9 10  1  0  0  0
  9 44  1  0  0  0
 10 11  1  0  0  0
 10 12  2  0  0  0
 11 45  1  0  0  0
 11 46  1  0  0  0
 11 47  1  0  0  0
 12 13  1  0  0  0
 13 14  1  0  0  0
 13 48  1  0  0  0
 14 15  2  0  0  0
 14 19  1  0  0  0
 15 16  1  0  0  0
 16 17  2  0  0  0
 16 49  1  0  0  0
 17 18  1  0  0  0
 17 20  1  0  0  0
 18 23  2  0  0  0
 18 50  1  0  0  0
 19 20  2  0  0  0
 20 21  1  0  0  0
 21 22  2  0  0  0
 21 51  1  0  0  0
 22 23  1  0  0  0
 22 52  1  0  0  0
 23 24  1  0  0  0
 24 25  2  0  0  0
 24 27  1  0  0  0
 25 26  1  0  0  0
 25 33  1  0  0  0
 27 28  1  0  0  0
 27 29  2  0  0  0
 29 30  1  0  0  0
 29 32  1  0  0  0
 30 31  1  0  0  0
 31 53  1  0  0  0
 31 54  1  0  0  0
 31 55  1  0  0  0
 32 33  2  0  0  0
 32 56  1  0  0  0
 33 34  1  0  0  0
 34 35  1  0  0  0
 35 57  1  0  0  0
 35 58  1  0  0  0
 35 59  1  0  0  0
M  END
> <s_m_source_file>
../4xcu_ligand.sdf

> <i_m_source_file_index>
1

> <s_epik_input>
W0NIM11bQ0gyXUMoPU8pW05IXWMxW2NIXVtjSF1bY0hdYyhbQ0gzXSljMVtOSF1jKG5bY0hdMiluYyhjMjMpW2NIXVtjSF1jKFtjSF0zKS1jNGMoQ2wpYyhPW0NIM10pW2NIXWMoYzRDbClPW0NIM10=

> <s_epik_cmdline>
J2VwaWtfYXBwJywgJy1pbWFlJywgJ2xpZ2FuZF9wcm8ubWFlJywgJy1vbWFlJywgJ2xpZ2FuZF9wcmVwLm1hZScsICctbXMnLCAnMScsICctcGgnLCAnNycsICctcGh0JywgJzAuNScsICctbnQn

> <r_lp_tautomer_probability>
1

> <r_epik_Ionization_Penalty>
  0.0001

> <r_epik_Ionization_Penalty_Charging>
  0.0000

> <r_epik_Ionization_Penalty_Neutral>
  0.0001

> <r_epik_State_Penalty>
 -0.0000

> <r_epik_Charging_Adjusted_Penalty>
0

> <i_epik_Tot_Q>
0

> <i_epik_Tot_abs_Q>
0

$$$$
