4xe0_ligand
                    3D
 Schrodinger Suite 2020-3.
 49 53  0  0  1  0            999 V2000
   -3.0990  -14.1880   23.6450 C   0  0  0  0  0  0
   -2.7890  -16.3660   24.6000 C   0  0  0  0  0  0
   -4.5080  -16.0300   22.9510 C   0  0  0  0  0  0
   -7.5970  -14.5410   23.5990 C   0  0  0  0  0  0
   -8.7690  -14.3380   22.6510 C   0  0  0  0  0  0
   -7.0420   -9.9920   25.2280 C   0  0  0  0  0  0
   -4.9980  -11.2850   17.7880 C   0  0  0  0  0  0
   -6.1650  -10.6730   18.2330 C   0  0  0  0  0  0
   -6.6670  -10.9930   19.5000 C   0  0  0  0  0  0
   -6.0110  -11.9180   20.3270 C   0  0  0  0  0  0
   -4.8590  -12.5380   19.8720 C   0  0  0  0  0  0
   -4.3640  -12.2210   18.6040 C   0  0  0  0  0  0
   -3.2470  -12.8160   18.1730 F   0  0  0  0  0  0
   -6.5270  -12.2030   21.5840 N   0  0  0  0  0  0
   -4.1940  -13.5210   20.7630 C   0  0  0  0  0  0
   -3.1750  -14.0670   20.4020 O   0  0  0  0  0  0
   -4.8070  -13.7570   21.9950 N   0  0  0  0  0  0
   -4.1550  -14.6760   22.8700 C   0  0  0  0  0  0
   -2.4080  -15.0300   24.5110 C   0  0  0  0  0  0
   -3.8270  -16.8710   23.8240 C   0  0  0  0  0  0
   -5.9620  -13.0730   22.3480 C   0  0  0  0  0  0
   -6.6120  -13.3560   23.7120 C   0  0  1  0  0  0
   -7.2550  -12.1070   24.1100 N   0  0  0  0  0  0
   -6.4770  -11.1650   24.7280 C   0  0  0  0  0  0
   -6.2030   -9.0860   25.8370 C   0  0  0  0  0  0
   -4.8690   -9.1820   26.0140 N   0  0  0  0  0  0
   -4.4110  -10.3460   25.5000 C   0  0  0  0  0  0
   -5.1190  -11.3250   24.8750 N   0  0  0  0  0  0
   -8.3410   -9.5400   25.2300 N   0  0  0  0  0  0
   -8.2750   -8.3860   25.8440 C   0  0  0  0  0  0
   -7.0130   -8.0650   26.2290 N   0  3  0  0  0  0
   -2.8143  -13.1385   23.5703 H   0  0  0  0  0  0
   -2.2649  -17.0277   25.2896 H   0  0  0  0  0  0
   -5.3142  -16.4226   22.3313 H   0  0  0  0  0  0
   -7.9752  -14.7248   24.6154 H   0  0  0  0  0  0
   -7.0024  -15.4049   23.2672 H   0  0  0  0  0  0
   -9.4001  -15.2389   22.6501 H   0  0  0  0  0  0
   -8.3908  -14.1542   21.6346 H   0  0  0  0  0  0
   -9.3636  -13.4741   22.9828 H   0  0  0  0  0  0
   -4.5833  -11.0354   16.8113 H   0  0  0  0  0  0
   -6.6835   -9.9515   17.6016 H   0  0  0  0  0  0
   -7.5824  -10.5159   19.8500 H   0  0  0  0  0  0
   -1.5811  -14.6493   25.1105 H   0  0  0  0  0  0
   -4.1055  -17.9221   23.9000 H   0  0  0  0  0  0
   -5.8934  -13.6110   24.5048 H   0  0  0  0  0  0
   -8.3255  -11.9515   23.9103 H   0  0  0  0  0  0
   -3.3398  -10.5218   25.5990 H   0  0  0  0  0  0
   -9.1878   -7.7915   25.9972 H   0  0  0  0  0  0
   -6.5885   -7.1968   26.7545 H   0  0  0  0  0  0
  1 18  2  0  0  0
  1 19  1  0  0  0
  1 32  1  0  0  0
  2 19  2  0  0  0
  2 20  1  0  0  0
  2 33  1  0  0  0
  3 18  1  0  0  0
  3 20  2  0  0  0
  3 34  1  0  0  0
  4  5  1  0  0  0
  4 22  1  0  0  0
  4 35  1  0  0  0
  4 36  1  0  0  0
  5 37  1  0  0  0
  5 38  1  0  0  0
  5 39  1  0  0  0
  6 24  2  0  0  0
  6 25  1  0  0  0
  6 29  1  0  0  0
  7  8  2  0  0  0
  7 12  1  0  0  0
  7 40  1  0  0  0
  8  9  1  0  0  0
  8 41  1  0  0  0
  9 10  2  0  0  0
  9 42  1  0  0  0
 10 11  1  0  0  0
 10 14  1  0  0  0
 11 12  2  0  0  0
 11 15  1  0  0  0
 12 13  1  0  0  0
 14 21  2  0  0  0
 15 16  2  0  0  0
 15 17  1  0  0  0
 17 18  1  0  0  0
 17 21  1  0  0  0
 19 43  1  0  0  0
 20 44  1  0  0  0
 21 22  1  0  0  0
 22 23  1  0  0  0
 22 45  1  0  0  0
 23 24  1  0  0  0
 23 46  1  0  0  0
 24 28  1  0  0  0
 25 26  2  0  0  0
 25 31  1  0  0  0
 26 27  1  0  0  0
 27 28  2  0  0  0
 27 47  1  0  0  0
 29 30  2  0  0  0
 30 31  1  0  0  0
 30 48  1  0  0  0
 31 49  1  0  0  0
M  CHG  1  31   1
M  END
> <s_m_source_file>
../4xe0_ligand.sdf

> <i_m_source_file_index>
1

> <s_epik_input>
W2NIXTFbY0hdW2NIXVtjSF1bY0hdYzEtbihjKD1PKWMoYzIzKWMoRilbY0hdW2NIXVtjSF0yKWMobjMpW0NASF0oW0NIMl1bQ0gzXSlbTkhdYzRuW2NIXW5jKGM0NSlbbkhdW2NIXW41

> <s_epik_cmdline>
J2VwaWtfYXBwJywgJy1pbWFlJywgJ2xpZ2FuZF9wcm8ubWFlJywgJy1vbWFlJywgJ2xpZ2FuZF9wcmVwLm1hZScsICctbXMnLCAnMScsICctcGgnLCAnNycsICctcGh0JywgJzAuNScsICctbnQn

> <r_lp_tautomer_probability>
1

> <r_epik_Ionization_Penalty>
  0.0518

> <r_epik_Ionization_Penalty_Charging>
  0.0000

> <r_epik_Ionization_Penalty_Neutral>
  0.0518

> <r_epik_State_Penalty>
 -0.0000

> <r_epik_Charging_Adjusted_Penalty>
1.67868613147933e-10

> <i_epik_Tot_Q>
1

> <i_epik_Tot_abs_Q>
1

> <s_epik_Chemistry_Notes>
This compound has an imine and may undergo hydrolysis.

$$$$
