4xgz_ligand
                    3D
 Schrodinger Suite 2020-3.
211210  0  0  1  0            999 V2000
   22.1530    2.8900  -30.1030 N   0  3  0  0  0  0
   21.7420    2.0600  -31.2690 C   0  0  2  0  0  0
   21.6380    2.8640  -32.5670 C   0  0  0  0  0  0
   22.1840    2.4320  -33.5690 O   0  0  0  0  0  0
   20.4390    1.2890  -30.9780 C   0  0  0  0  0  0
   20.0550    0.3450  -32.1350 C   0  0  0  0  0  0
   19.2130    0.6500  -32.9980 O   0  0  0  0  0  0
   20.7210   -0.8070  -32.1750 N   0  0  0  0  0  0
   20.9500    4.0110  -32.5530 N   0  0  0  0  0  0
   21.0090    4.9910  -33.6580 C   0  0  2  0  0  0
   22.4620    5.3480  -33.9610 C   0  0  0  0  0  0
   22.8730    5.3670  -35.1180 O   0  0  0  0  0  0
   20.2110    6.2620  -33.2980 C   0  0  0  0  0  0
   20.4560    7.5990  -34.0320 C   0  0  0  0  0  0
   20.4780    7.4800  -35.5420 C   0  0  0  0  0  0
   19.4130    8.6270  -33.6200 C   0  0  0  0  0  0
   23.2370    5.5830  -32.9040 N   0  0  0  0  0  0
   24.6290    6.0140  -33.0260 C   0  0  2  0  0  0
   25.5880    4.9360  -33.5390 C   0  0  0  0  0  0
   26.7380    5.2400  -33.8530 O   0  0  0  0  0  0
   25.1340    6.5280  -31.6750 C   0  0  0  0  0  0
   24.9760    5.5530  -30.6630 O   0  0  0  0  0  0
   25.1240    3.6900  -33.6280 N   0  0  0  0  0  0
   25.9790    2.5780  -34.0400 C   0  0  2  0  0  0
   25.5640    1.9620  -35.4030 C   0  0  0  0  0  0
   26.2800    1.1210  -35.9520 O   0  0  0  0  0  0
   26.0190    1.5050  -32.9220 C   0  0  0  0  0  0
   26.4030    2.0240  -31.4670 C   0  0  0  0  0  0
   27.9060    2.1190  -31.2600 C   0  0  0  0  0  0
   28.6350    2.0690  -32.2640 O   0  0  0  0  0  0
   28.3720    2.2400  -30.1000 O   0  0  0  0  0  0
   24.4380    2.4030  -35.9660 N   0  0  0  0  0  0
   23.9020    1.8200  -37.2090 C   0  0  2  0  0  0
   24.6980    2.1810  -38.4600 C   0  0  0  0  0  0
   24.8240    1.3550  -39.3640 O   0  0  0  0  0  0
   22.4360    2.2240  -37.4070 C   0  0  0  0  0  0
   21.3670    1.4550  -36.6430 C   0  0  0  0  0  0
   21.8760    0.5300  -35.5400 C   0  0  0  0  0  0
   20.2720    2.3810  -36.1330 C   0  0  0  0  0  0
   25.2180    3.4060  -38.5210 N   0  0  0  0  0  0
   25.9770    3.8540  -39.6940 C   0  0  2  0  0  0
   27.2730    3.0650  -39.8810 C   0  0  0  0  0  0
   27.6520    2.7640  -41.0140 O   0  0  0  0  0  0
   26.2800    5.3570  -39.6320 C   0  0  0  0  0  0
   25.0940    6.2110  -40.0430 C   0  0  0  0  0  0
   24.6980    6.1530  -41.2290 O   0  0  0  0  0  0
   24.5600    6.9440  -39.1870 O   0  0  0  0  0  0
   27.9460    2.7320  -38.7780 N   0  0  0  0  0  0
   29.1410    1.8830  -38.8370 C   0  0  2  0  0  0
   28.8210    0.5300  -39.4760 C   0  0  0  0  0  0
   29.5770    0.0450  -40.3180 O   0  0  0  0  0  0
   29.7460    1.6720  -37.4430 C   0  0  0  0  0  0
   30.8930    0.6670  -37.4160 C   0  0  0  0  0  0
   31.7340    0.7210  -36.1510 C   0  0  0  0  0  0
   32.8690    1.6490  -36.2500 N   0  0  0  0  0  0
   32.8850    2.9250  -35.8470 C   0  0  0  0  0  0
   31.8200    3.4960  -35.2930 N   0  0  0  0  0  0
   33.9930    3.6440  -36.0010 N   0  0  0  0  0  0
   27.6910   -0.0580  -39.0830 N   0  0  0  0  0  0
   27.2600   -1.3490  -39.6160 C   0  0  2  0  0  0
   26.9440   -1.2810  -41.1180 C   0  0  0  0  0  0
   27.3020   -2.1930  -41.8670 O   0  0  0  0  0  0
   26.0490   -1.8820  -38.8360 C   0  0  0  0  0  0
   26.2410   -2.1790  -37.3370 C   0  0  0  0  0  0
   24.8900   -2.2820  -36.6390 C   0  0  0  0  0  0
   27.0690   -3.4410  -37.1150 C   0  0  0  0  0  0
   26.2890   -0.2010  -41.5500 N   0  0  0  0  0  0
   25.9610    0.0050  -42.9710 C   0  0  2  0  0  0
   27.2010    0.2310  -43.8410 C   0  0  0  0  0  0
   27.2790   -0.2830  -44.9600 O   0  0  0  0  0  0
   24.9770    1.1750  -43.1540 C   0  0  0  0  0  0
   23.4600    0.8940  -42.9600 C   0  0  0  0  0  0
   22.6740    2.1960  -42.9260 C   0  0  0  0  0  0
   22.9640   -0.0080  -44.0800 C   0  0  0  0  0  0
   28.1630    0.9970  -43.3310 N   0  0  0  0  0  0
   29.4060    1.2660  -44.0670 C   0  0  2  0  0  0
   30.2640    0.0050  -44.2420 C   0  0  0  0  0  0
   31.0400   -0.0870  -45.1920 O   0  0  0  0  0  0
   30.2160    2.3870  -43.3930 C   0  0  0  0  0  0
   29.7390    3.8330  -43.6530 C   0  0  0  0  0  0
   30.0790    4.7310  -42.4750 C   0  0  0  0  0  0
   30.3370    4.3780  -44.9430 C   0  0  0  0  0  0
   30.1110   -0.9610  -43.3360 N   0  0  0  0  0  0
   30.8130   -2.2460  -43.4370 C   0  0  2  0  0  0
   30.1960   -3.1570  -44.5150 C   0  0  0  0  0  0
   30.9080   -3.9440  -45.1450 O   0  0  0  0  0  0
   30.8710   -2.9390  -42.0640 C   0  0  0  0  0  0
   31.8050   -2.2100  -41.0520 C   0  0  0  0  0  0
   31.6220   -2.6890  -39.6120 C   0  0  0  0  0  0
   32.1010   -2.3200  -38.4390 O   0  0  0  0  0  0
   30.8710   -3.5740  -39.7590 O   0  0  0  0  0  0
   28.8860   -3.0370  -44.7380 N   0  0  0  0  0  0
   28.2260   -3.7170  -45.8600 C   0  0  2  0  0  0
   28.5470   -2.9980  -47.1720 C   0  0  0  0  0  0
   29.4880   -3.3610  -47.8820 O   0  0  0  0  0  0
   26.7020   -3.7790  -45.6580 C   0  0  0  0  0  0
   26.1350   -4.8940  -44.7670 C   0  0  0  0  0  0
   26.6180   -4.7810  -43.3270 C   0  0  0  0  0  0
   24.6130   -4.8990  -44.8170 C   0  0  0  0  0  0
   27.8730   -2.0380  -47.5520 O   0  0  0  0  0  0
   23.0834    3.4252  -30.3437 H   0  0  0  0  0  0
   22.3187    2.2405  -29.2308 H   0  0  0  0  0  0
   21.3605    3.6174  -29.8732 H   0  0  0  0  0  0
   22.5674    1.3449  -31.4008 H   0  0  0  0  0  0
   20.5667    0.6832  -30.0688 H   0  0  0  0  0  0
   19.6156    2.0032  -30.8301 H   0  0  0  0  0  0
   21.4588   -1.0431  -31.3941 H   0  0  0  0  0  0
   20.5335   -1.5227  -32.9890 H   0  0  0  0  0  0
   20.3214    4.2116  -31.6729 H   0  0  0  0  0  0
   20.5593    4.5021  -34.5348 H   0  0  0  0  0  0
   19.1382    6.0791  -33.4583 H   0  0  0  0  0  0
   20.3856    6.5179  -32.2425 H   0  0  0  0  0  0
   21.4614    7.9389  -33.7429 H   0  0  0  0  0  0
   21.2321    6.7367  -35.8403 H   0  0  0  0  0  0
   20.7303    8.4556  -35.9830 H   0  0  0  0  0  0
   19.4876    7.1612  -35.8991 H   0  0  0  0  0  0
   19.3968    8.7137  -32.5235 H   0  0  0  0  0  0
   18.4227    8.3081  -33.9773 H   0  0  0  0  0  0
   19.6654    9.6025  -34.0612 H   0  0  0  0  0  0
   22.7906    5.4406  -31.9088 H   0  0  0  0  0  0
   24.5718    6.8045  -33.7887 H   0  0  0  0  0  0
   26.2018    6.7801  -31.7545 H   0  0  0  0  0  0
   24.5658    7.4252  -31.3884 H   0  0  0  0  0  0
   25.2932    5.7730  -29.6330 H   0  0  0  0  0  0
   24.0673    3.5093  -33.3816 H   0  0  0  0  0  0
   26.9674    3.0417  -34.1742 H   0  0  0  0  0  0
   25.0278    1.0376  -32.8268 H   0  0  0  0  0  0
   26.7636    0.7367  -33.1776 H   0  0  0  0  0  0
   25.9759    3.0255  -31.3104 H   0  0  0  0  0  0
   26.0006    1.3318  -30.7127 H   0  0  0  0  0  0
   29.4593    2.3089  -29.9485 H   0  0  0  0  0  0
   23.9060    3.2294  -35.4720 H   0  0  0  0  0  0
   24.0096    0.7378  -37.0436 H   0  0  0  0  0  0
   22.3007    3.2730  -37.1048 H   0  0  0  0  0  0
   22.1641    2.1098  -38.4667 H   0  0  0  0  0  0
   20.9398    0.7740  -37.3939 H   0  0  0  0  0  0
   22.6640   -0.1229  -35.9436 H   0  0  0  0  0  0
   21.0452   -0.0862  -35.1658 H   0  0  0  0  0  0
   22.2855    1.1327  -34.7160 H   0  0  0  0  0  0
   19.9304    3.0309  -36.9521 H   0  0  0  0  0  0
   20.6673    3.0001  -35.3142 H   0  0  0  0  0  0
   19.4269    1.7812  -35.7641 H   0  0  0  0  0  0
   25.0691    4.0863  -37.6695 H   0  0  0  0  0  0
   25.3021    3.6403  -40.5360 H   0  0  0  0  0  0
   26.5540    5.6336  -38.6032 H   0  0  0  0  0  0
   27.1146    5.5911  -40.3093 H   0  0  0  0  0  0
   23.8408    6.7614  -41.5530 H   0  0  0  0  0  0
   27.5864    3.1090  -37.8092 H   0  0  0  0  0  0
   29.8485    2.4389  -39.4698 H   0  0  0  0  0  0
   30.1398    2.6273  -37.0658 H   0  0  0  0  0  0
   28.9694    1.2998  -36.7587 H   0  0  0  0  0  0
   30.4886   -0.3531  -37.4931 H   0  0  0  0  0  0
   31.5685    0.8586  -38.2628 H   0  0  0  0  0  0
   31.1081    1.0502  -35.3084 H   0  0  0  0  0  0
   32.1399   -0.2788  -35.9376 H   0  0  0  0  0  0
   33.8190    1.3111  -36.6898 H   0  0  0  0  0  0
   30.8942    2.9178  -35.1571 H   0  0  0  0  0  0
   34.8847    3.1894  -36.4573 H   0  0  0  0  0  0
   34.0178    4.6934  -35.6721 H   0  0  0  0  0  0
   27.0760    0.4602  -38.3325 H   0  0  0  0  0  0
   28.1302   -2.0049  -39.4659 H   0  0  0  0  0  0
   25.2305   -1.1487  -38.8838 H   0  0  0  0  0  0
   25.7164   -2.8321  -39.2795 H   0  0  0  0  0  0
   26.7989   -1.3456  -36.8852 H   0  0  0  0  0  0
   24.3151   -1.3609  -36.8152 H   0  0  0  0  0  0
   25.0450   -2.4165  -35.5583 H   0  0  0  0  0  0
   24.3349   -3.1430  -37.0398 H   0  0  0  0  0  0
   28.0366   -3.3397  -37.6284 H   0  0  0  0  0  0
   26.5287   -4.3098  -37.5190 H   0  0  0  0  0  0
   27.2387   -3.5833  -36.0375 H   0  0  0  0  0  0
   25.9926    0.5498  -40.8027 H   0  0  0  0  0  0
   25.4940   -0.9465  -43.2652 H   0  0  0  0  0  0
   25.2139    1.9697  -42.4313 H   0  0  0  0  0  0
   25.0645    1.5712  -44.1764 H   0  0  0  0  0  0
   23.2840    0.3840  -42.0014 H   0  0  0  0  0  0
   23.0501    2.8301  -42.1097 H   0  0  0  0  0  0
   21.6090    1.9771  -42.7593 H   0  0  0  0  0  0
   22.7946    2.7222  -43.8844 H   0  0  0  0  0  0
   23.5464   -0.9412  -44.0843 H   0  0  0  0  0  0
   23.0863    0.5050  -45.0453 H   0  0  0  0  0  0
   21.9007   -0.2401  -43.9202 H   0  0  0  0  0  0
   28.0097    1.4327  -42.3327 H   0  0  0  0  0  0
   29.0644    1.5947  -45.0596 H   0  0  0  0  0  0
   30.1893    2.2532  -42.3015 H   0  0  0  0  0  0
   31.2584    2.3469  -43.7420 H   0  0  0  0  0  0
   28.6450    3.8353  -43.7674 H   0  0  0  0  0  0
   29.6362    4.3158  -41.5577 H   0  0  0  0  0  0
   29.6753    5.7385  -42.6535 H   0  0  0  0  0  0
   31.1716    4.7886  -42.3612 H   0  0  0  0  0  0
   30.0768    3.7111  -45.7782 H   0  0  0  0  0  0
   31.4312    4.4333  -44.8452 H   0  0  0  0  0  0
   29.9350    5.3833  -45.1375 H   0  0  0  0  0  0
   29.4320   -0.7701  -42.4919 H   0  0  0  0  0  0
   31.8332   -1.9879  -43.7574 H   0  0  0  0  0  0
   29.8626   -2.9690  -41.6255 H   0  0  0  0  0  0
   31.2481   -3.9650  -42.1868 H   0  0  0  0  0  0
   32.8548   -2.3855  -41.3299 H   0  0  0  0  0  0
   31.5960   -1.1302  -41.0723 H   0  0  0  0  0  0
   31.7946   -2.8536  -37.5272 H   0  0  0  0  0  0
   28.2981   -2.4078  -44.0536 H   0  0  0  0  0  0
   28.6399   -4.7361  -45.8691 H   0  0  0  0  0  0
   29.7038   -2.8320  -48.8220 H   0  0  0  0  0  0
   26.3548   -2.8423  -45.1975 H   0  0  0  0  0  0
   26.2082   -3.9139  -46.6317 H   0  0  0  0  0  0
   26.5051   -5.8531  -45.1583 H   0  0  0  0  0  0
   27.7178   -4.7787  -43.3083 H   0  0  0  0  0  0
   26.2431   -5.6367  -42.7463 H   0  0  0  0  0  0
   26.2418   -3.8459  -42.8864 H   0  0  0  0  0  0
   24.2808   -4.9810  -45.8624 H   0  0  0  0  0  0
   24.2288   -3.9644  -44.3824 H   0  0  0  0  0  0
   24.2301   -5.7552  -44.2423 H   0  0  0  0  0  0
  1  2  1  0  0  0
  1101  1  0  0  0
  1102  1  0  0  0
  1103  1  0  0  0
  2  3  1  0  0  0
  2  5  1  0  0  0
  2104  1  0  0  0
  3  4  2  0  0  0
  3  9  1  0  0  0
  5  6  1  0  0  0
  5105  1  0  0  0
  5106  1  0  0  0
  6  7  2  0  0  0
  6  8  1  0  0  0
  8107  1  0  0  0
  8108  1  0  0  0
  9 10  1  0  0  0
  9109  1  0  0  0
 10 11  1  0  0  0
 10 13  1  0  0  0
 10110  1  0  0  0
 11 12  2  0  0  0
 11 17  1  0  0  0
 13 14  1  0  0  0
 13111  1  0  0  0
 13112  1  0  0  0
 14 15  1  0  0  0
 14 16  1  0  0  0
 14113  1  0  0  0
 15114  1  0  0  0
 15115  1  0  0  0
 15116  1  0  0  0
 16117  1  0  0  0
 16118  1  0  0  0
 16119  1  0  0  0
 17 18  1  0  0  0
 17120  1  0  0  0
 18 19  1  0  0  0
 18 21  1  0  0  0
 18121  1  0  0  0
 19 20  2  0  0  0
 19 23  1  0  0  0
 21 22  1  0  0  0
 21122  1  0  0  0
 21123  1  0  0  0
 22124  1  0  0  0
 23 24  1  0  0  0
 23125  1  0  0  0
 24 25  1  0  0  0
 24 27  1  0  0  0
 24126  1  0  0  0
 25 26  2  0  0  0
 25 32  1  0  0  0
 27 28  1  0  0  0
 27127  1  0  0  0
 27128  1  0  0  0
 28 29  1  0  0  0
 28129  1  0  0  0
 28130  1  0  0  0
 29 30  2  0  0  0
 29 31  1  0  0  0
 31131  1  0  0  0
 32 33  1  0  0  0
 32132  1  0  0  0
 33 34  1  0  0  0
 33 36  1  0  0  0
 33133  1  0  0  0
 34 35  2  0  0  0
 34 40  1  0  0  0
 36 37  1  0  0  0
 36134  1  0  0  0
 36135  1  0  0  0
 37 38  1  0  0  0
 37 39  1  0  0  0
 37136  1  0  0  0
 38137  1  0  0  0
 38138  1  0  0  0
 38139  1  0  0  0
 39140  1  0  0  0
 39141  1  0  0  0
 39142  1  0  0  0
 40 41  1  0  0  0
 40143  1  0  0  0
 41 42  1  0  0  0
 41 44  1  0  0  0
 41144  1  0  0  0
 42 43  2  0  0  0
 42 48  1  0  0  0
 44 45  1  0  0  0
 44145  1  0  0  0
 44146  1  0  0  0
 45 46  1  0  0  0
 45 47  2  0  0  0
 46147  1  0  0  0
 48 49  1  0  0  0
 48148  1  0  0  0
 49 50  1  0  0  0
 49 52  1  0  0  0
 49149  1  0  0  0
 50 51  2  0  0  0
 50 59  1  0  0  0
 52 53  1  0  0  0
 52150  1  0  0  0
 52151  1  0  0  0
 53 54  1  0  0  0
 53152  1  0  0  0
 53153  1  0  0  0
 54 55  1  0  0  0
 54154  1  0  0  0
 54155  1  0  0  0
 55 56  1  0  0  0
 55156  1  0  0  0
 56 57  2  0  0  0
 56 58  1  0  0  0
 57157  1  0  0  0
 58158  1  0  0  0
 58159  1  0  0  0
 59 60  1  0  0  0
 59160  1  0  0  0
 60 61  1  0  0  0
 60 63  1  0  0  0
 60161  1  0  0  0
 61 62  2  0  0  0
 61 67  1  0  0  0
 63 64  1  0  0  0
 63162  1  0  0  0
 63163  1  0  0  0
 64 65  1  0  0  0
 64 66  1  0  0  0
 64164  1  0  0  0
 65165  1  0  0  0
 65166  1  0  0  0
 65167  1  0  0  0
 66168  1  0  0  0
 66169  1  0  0  0
 66170  1  0  0  0
 67 68  1  0  0  0
 67171  1  0  0  0
 68 69  1  0  0  0
 68 71  1  0  0  0
 68172  1  0  0  0
 69 70  2  0  0  0
 69 75  1  0  0  0
 71 72  1  0  0  0
 71173  1  0  0  0
 71174  1  0  0  0
 72 73  1  0  0  0
 72 74  1  0  0  0
 72175  1  0  0  0
 73176  1  0  0  0
 73177  1  0  0  0
 73178  1  0  0  0
 74179  1  0  0  0
 74180  1  0  0  0
 74181  1  0  0  0
 75 76  1  0  0  0
 75182  1  0  0  0
 76 77  1  0  0  0
 76 79  1  0  0  0
 76183  1  0  0  0
 77 78  2  0  0  0
 77 83  1  0  0  0
 79 80  1  0  0  0
 79184  1  0  0  0
 79185  1  0  0  0
 80 81  1  0  0  0
 80 82  1  0  0  0
 80186  1  0  0  0
 81187  1  0  0  0
 81188  1  0  0  0
 81189  1  0  0  0
 82190  1  0  0  0
 82191  1  0  0  0
 82192  1  0  0  0
 83 84  1  0  0  0
 83193  1  0  0  0
 84 85  1  0  0  0
 84 87  1  0  0  0
 84194  1  0  0  0
 85 86  2  0  0  0
 85 92  1  0  0  0
 87 88  1  0  0  0
 87195  1  0  0  0
 87196  1  0  0  0
 88 89  1  0  0  0
 88197  1  0  0  0
 88198  1  0  0  0
 89 90  1  0  0  0
 89 91  2  0  0  0
 90199  1  0  0  0
 92 93  1  0  0  0
 92200  1  0  0  0
 93 94  1  0  0  0
 93 96  1  0  0  0
 93201  1  0  0  0
 94 95  1  0  0  0
 94100  2  0  0  0
 95202  1  0  0  0
 96 97  1  0  0  0
 96203  1  0  0  0
 96204  1  0  0  0
 97 98  1  0  0  0
 97 99  1  0  0  0
 97205  1  0  0  0
 98206  1  0  0  0
 98207  1  0  0  0
 98208  1  0  0  0
 99209  1  0  0  0
 99210  1  0  0  0
 99211  1  0  0  0
M  CHG  1   1   1
M  END
> <s_m_source_file>
../4xgz_ligand.sdf

> <i_m_source_file_index>
1

> <s_epik_input>
Tz1DKFtOSDJdKVtDSDJdW0NASF0oW05IMytdKUMoPU8pW05IXVtDQEBIXShbQ0gyXVtDSF0oW0NIM10pW0NIM10pQyg9TylbTkhdW0NAQEhdKFtDSDJdW09IXSlDKD1PKVtOSF1bQ0BASF0oW0NIMl1bQ0gyXUMoPU8pW09IXSlDKD1PKVtOSF1bQ0BASF0oW0NIMl1bQ0hdKFtDSDNdKVtDSDNdKUMoPU8pW05IXVtDQEBIXShbQ0gyXUMoPU8pW09IXSlDKD1PKVtOSF1bQ0BASF0oW0NIMl1bQ0gyXVtDSDJdW05IXS9DKD1OXFtIXSlbTkgyXSlDKD1PKVtOSF1bQ0BASF0oW0NIMl1bQ0hdKFtDSDNdKVtDSDNdKUMoPU8pW05IXVtDQEBIXShbQ0gyXVtDSF0oW0NIM10pW0NIM10pQyg9TylbTkhdW0NAQEhdKFtDSDJdW0NIXShbQ0gzXSlbQ0gzXSlDKD1PKVtOSF1bQ0BASF0oW0NIMl1bQ0gyXUMoPU8pW09IXSlDKD1PKVtOSF1bQ0BIXShDKD1PKVtPSF0pW0NIMl1bQ0hdKFtDSDNdKVtDSDNd

> <s_epik_cmdline>
J2VwaWtfYXBwJywgJy1pbWFlJywgJ2xpZ2FuZF9wcm8ubWFlJywgJy1vbWFlJywgJ2xpZ2FuZF9wcmVwLm1hZScsICctbXMnLCAnMScsICctcGgnLCAnNycsICctcGh0JywgJzAuNScsICctbnQn

> <s_epik_pKa_notes>
Molecule size exceeds maximum supported for generating protonation states

> <s_epik_Chemistry_Notes>
This compound has an imine and may undergo hydrolysis.

$$$$
