4xh2_ligand
                    3D
 Schrodinger Suite 2020-3.
230229  0  0  1  0            999 V2000
   30.5360    3.3680  140.7900 N   0  3  0  0  0  0
   31.0210    3.2910  139.3720 C   0  0  0  0  0  0
   32.4960    3.6450  139.2920 C   0  0  0  0  0  0
   33.3570    2.8290  139.6330 O   0  0  0  0  0  0
   32.7960    4.8660  138.8530 N   0  0  0  0  0  0
   34.1590    5.3790  138.9520 C   0  0  2  0  0  0
   34.4930    5.6900  140.4140 C   0  0  0  0  0  0
   35.6640    5.7540  140.7710 O   0  0  0  0  0  0
   34.3740    6.6130  138.0580 C   0  0  0  0  0  0
   33.8550    7.7960  138.6450 O   0  0  0  0  0  0
   33.4670    5.8720  141.2530 N   0  0  0  0  0  0
   33.6620    6.1030  142.6880 C   0  0  2  0  0  0
   34.2760    4.9010  143.3960 C   0  0  0  0  0  0
   35.0490    5.0670  144.3250 O   0  0  0  0  0  0
   32.3520    6.4820  143.3520 C   0  0  0  0  0  0
   33.9340    3.6960  142.9520 N   0  0  0  0  0  0
   34.4370    2.4650  143.5690 C   0  0  2  0  0  0
   35.7160    1.9010  142.9210 C   0  0  0  0  0  0
   36.3510    1.0240  143.4820 O   0  0  0  0  0  0
   33.3540    1.3650  143.5490 C   0  0  2  0  0  0
   33.6880    0.3490  144.5010 O   0  0  0  0  0  0
   33.2260    0.7510  142.1600 C   0  0  0  0  0  0
   36.0940    2.4090  141.7560 N   0  0  0  0  0  0
   37.1400    1.7880  140.9330 C   0  0  2  0  0  0
   38.5490    1.7880  141.5550 C   0  0  0  0  0  0
   39.2550    0.7780  141.5050 O   0  0  0  0  0  0
   37.1720    2.4750  139.5670 C   0  0  0  0  0  0
   38.1950    1.9490  138.5630 C   0  0  0  0  0  0
   38.2330    2.8610  137.3370 C   0  0  0  0  0  0
   36.8920    3.0210  136.7440 N   0  0  0  0  0  0
   36.3710    4.1600  136.2640 C   0  0  0  0  0  0
   37.0520    5.3080  136.2880 N   0  0  0  0  0  0
   35.1370    4.1540  135.7580 N   0  0  0  0  0  0
   38.9680    2.9140  142.1170 N   0  0  0  0  0  0
   40.3440    3.0400  142.6080 C   0  0  2  0  0  0
   40.6250    2.0780  143.7560 C   0  0  0  0  0  0
   41.6130    1.3470  143.7300 O   0  0  0  0  0  0
   40.6300    4.4770  143.0530 C   0  0  0  0  0  0
   40.6800    5.4720  141.9100 C   0  0  0  0  0  0
   40.8130    6.8950  142.4060 C   0  0  0  0  0  0
   39.8280    7.4410  142.9570 O   0  0  0  0  0  0
   41.9130    7.4510  142.2570 O   0  0  0  0  0  0
   39.7470    2.0740  144.7520 N   0  0  0  0  0  0
   39.9090    1.1890  145.9020 C   0  0  2  0  0  0
   39.7780   -0.2700  145.4850 C   0  0  0  0  0  0
   40.5590   -1.0990  145.9330 O   0  0  0  0  0  0
   38.9030    1.5110  147.0120 C   0  0  0  0  0  0
   39.0700    0.7180  148.3120 C   0  0  0  0  0  0
   40.5340    0.7080  148.7860 C   0  0  0  0  0  0
   38.1540    1.2870  149.3810 C   0  0  0  0  0  0
   38.8090   -0.5820  144.6240 N   0  0  0  0  0  0
   38.6570   -1.9530  144.1320 C   0  0  2  0  0  0
   39.9340   -2.4410  143.4110 C   0  0  0  0  0  0
   40.3900   -3.5520  143.6480 O   0  0  0  0  0  0
   37.4240   -2.0880  143.2260 C   0  0  0  0  0  0
   36.1160   -1.9150  143.9800 C   0  0  0  0  0  0
   36.1150   -1.9970  145.2320 O   0  0  0  0  0  0
   35.0840   -1.6960  143.3130 O   0  0  0  0  0  0
   40.5210   -1.6020  142.5600 N   0  0  0  0  0  0
   41.7860   -1.9540  141.9010 C   0  0  2  0  0  0
   42.9430   -2.0770  142.9070 C   0  0  0  0  0  0
   43.7540   -2.9950  142.8120 O   0  0  0  0  0  0
   42.1110   -0.9650  140.7770 C   0  0  0  0  0  0
   41.2510   -1.1760  139.5330 C   0  0  0  0  0  0
   41.5040   -0.1600  138.4300 C   0  0  0  0  0  0
   42.4810    0.6140  138.5280 O   0  0  0  0  0  0
   40.7160   -0.1350  137.4550 O   0  0  0  0  0  0
   43.0030   -1.1750  143.8870 N   0  0  0  0  0  0
   43.9640   -1.3080  144.9780 C   0  0  2  0  0  0
   43.8400   -2.6730  145.6590 C   0  0  0  0  0  0
   44.8360   -3.3600  145.8350 O   0  0  0  0  0  0
   43.8020   -0.1780  146.0140 C   0  0  0  0  0  0
   44.8920   -0.1110  147.1030 C   0  0  0  0  0  0
   45.2110    1.3170  147.5370 C   0  0  0  0  0  0
   44.5110   -0.9450  148.3130 C   0  0  0  0  0  0
   42.6210   -3.0720  146.0280 N   0  0  0  0  0  0
   42.4340   -4.3330  146.7710 C   0  0  2  0  0  0
   42.7810   -5.5610  145.9120 C   0  0  0  0  0  0
   43.4470   -6.4950  146.3820 O   0  0  0  0  0  0
   41.0020   -4.4540  147.3140 C   0  0  0  0  0  0
   40.5870   -3.3540  148.2860 C   0  0  0  0  0  0
   41.5430   -3.2820  149.8140 S   0  0  0  0  0  0
   41.0890   -4.8400  150.5760 C   0  0  0  0  0  0
   42.3440   -5.5380  144.6530 N   0  0  0  0  0  0
   42.5710   -6.6480  143.7300 C   0  0  2  0  0  0
   44.0600   -6.8750  143.4420 C   0  0  0  0  0  0
   44.4870   -8.0050  143.2010 O   0  0  0  0  0  0
   41.8030   -6.4190  142.4400 C   0  0  0  0  0  0
   44.8450   -5.8020  143.4940 N   0  0  0  0  0  0
   46.2760   -5.8580  143.1960 C   0  0  2  0  0  0
   47.1550   -6.3830  144.3440 C   0  0  0  0  0  0
   48.3330   -6.6300  144.1290 O   0  0  0  0  0  0
   46.7690   -4.4640  142.7850 C   0  0  0  0  0  0
   46.8590   -3.6190  143.9200 O   0  0  0  0  0  0
   46.6010   -6.5630  145.5430 N   0  0  0  0  0  0
   47.4100   -6.9250  146.7080 C   0  0  2  0  0  0
   48.0220   -8.3290  146.5960 C   0  0  0  0  0  0
   47.3850   -9.2630  146.0990 O   0  0  0  0  0  0
   46.5790   -6.8600  147.9870 C   0  0  0  0  0  0
   45.8930   -5.5420  148.3550 C   0  0  0  0  0  0
   44.9260   -5.7860  149.5000 C   0  0  0  0  0  0
   46.9110   -4.4740  148.7250 C   0  0  0  0  0  0
   49.2550   -8.4730  147.0770 N   0  0  0  0  0  0
   49.9540   -9.7650  147.0640 C   0  0  2  0  0  0
   50.5810  -10.1790  148.4140 C   0  0  0  0  0  0
   51.1700  -11.2620  148.5130 O   0  0  0  0  0  0
   51.0270   -9.7600  145.9670 C   0  0  0  0  0  0
   51.8920   -8.6470  146.1050 O   0  0  0  0  0  0
   50.4470   -9.3450  149.4460 N   0  0  0  0  0  0
   51.0620   -9.6250  150.7480 C   0  0  2  0  0  0
   50.5750   -8.6480  151.8120 C   0  0  0  0  0  0
   51.3600   -8.1730  152.6340 O   0  0  0  0  0  0
   52.5900   -9.5470  150.6450 C   0  0  0  0  0  0
   49.3890   -8.3190  151.8660 O   0  0  0  0  0  0
   29.4676    3.1086  140.8267 H   0  0  0  0  0  0
   30.6786    4.3899  141.1713 H   0  0  0  0  0  0
   31.1063    2.6619  141.4114 H   0  0  0  0  0  0
   30.8784    2.2691  138.9907 H   0  0  0  0  0  0
   30.4507    3.9971  138.7505 H   0  0  0  0  0  0
   32.0043    5.4896  138.4122 H   0  0  0  0  0  0
   34.8006    4.5656  138.5823 H   0  0  0  0  0  0
   35.4509    6.7595  137.8881 H   0  0  0  0  0  0
   33.8682    6.4595  137.0933 H   0  0  0  0  0  0
   33.9394    8.7559  138.1145 H   0  0  0  0  0  0
   32.4505    5.8440  140.8336 H   0  0  0  0  0  0
   34.3714    6.9422  142.7382 H   0  0  0  0  0  0
   31.9164    7.3497  142.8349 H   0  0  0  0  0  0
   32.5357    6.7375  144.4060 H   0  0  0  0  0  0
   31.6540    5.6337  143.2966 H   0  0  0  0  0  0
   33.2500    3.6406  142.0923 H   0  0  0  0  0  0
   34.6799    2.8076  144.5857 H   0  0  0  0  0  0
   32.3793    1.7658  143.8643 H   0  0  0  0  0  0
   33.8211    0.6109  145.5610 H   0  0  0  0  0  0
   32.9694    1.5366  141.4341 H   0  0  0  0  0  0
   32.4347   -0.0131  142.1684 H   0  0  0  0  0  0
   34.1814    0.2863  141.8751 H   0  0  0  0  0  0
   35.5955    3.3270  141.4113 H   0  0  0  0  0  0
   36.8225    0.7367  140.8695 H   0  0  0  0  0  0
   36.1914    2.3687  139.0801 H   0  0  0  0  0  0
   37.4021    3.5426  139.6988 H   0  0  0  0  0  0
   39.1902    1.9270  139.0310 H   0  0  0  0  0  0
   37.9137    0.9322  138.2515 H   0  0  0  0  0  0
   38.6060    3.8535  137.6298 H   0  0  0  0  0  0
   38.9009    2.4275  136.5781 H   0  0  0  0  0  0
   36.2184    2.1549  136.6655 H   0  0  0  0  0  0
   38.0711    5.3344  136.7011 H   0  0  0  0  0  0
   36.5940    6.2275  135.8947 H   0  0  0  0  0  0
   34.5590    3.2185  135.7290 H   0  0  0  0  0  0
   38.2703    3.7590  142.2128 H   0  0  0  0  0  0
   40.9747    2.7679  141.7488 H   0  0  0  0  0  0
   39.8411    4.8111  143.7429 H   0  0  0  0  0  0
   41.6038    4.5160  143.5631 H   0  0  0  0  0  0
   41.5445    5.2491  141.2674 H   0  0  0  0  0  0
   39.7552    5.3983  141.3190 H   0  0  0  0  0  0
   39.9063    8.4751  143.3238 H   0  0  0  0  0  0
   38.8846    2.7548  144.6991 H   0  0  0  0  0  0
   40.9297    1.3870  146.2611 H   0  0  0  0  0  0
   38.9871    2.5729  147.2863 H   0  0  0  0  0  0
   37.8836    1.3043  146.6542 H   0  0  0  0  0  0
   38.7760   -0.3253  148.1245 H   0  0  0  0  0  0
   41.1732    0.2917  147.9934 H   0  0  0  0  0  0
   40.6221    0.0890  149.6911 H   0  0  0  0  0  0
   40.8531    1.7361  149.0123 H   0  0  0  0  0  0
   37.1165    1.2819  149.0155 H   0  0  0  0  0  0
   38.4565    2.3192  149.6116 H   0  0  0  0  0  0
   38.2255    0.6721  150.2903 H   0  0  0  0  0  0
   38.1192    0.2042  144.2833 H   0  0  0  0  0  0
   38.5000   -2.5521  145.0411 H   0  0  0  0  0  0
   37.4616   -1.3205  142.4389 H   0  0  0  0  0  0
   37.4157   -3.0864  142.7644 H   0  0  0  0  0  0
   35.1754   -1.8738  145.7905 H   0  0  0  0  0  0
   40.0443   -0.6325  142.3532 H   0  0  0  0  0  0
   41.6092   -2.9462  141.4603 H   0  0  0  0  0  0
   41.9407    0.0622  141.1318 H   0  0  0  0  0  0
   43.1638   -1.0805  140.4800 H   0  0  0  0  0  0
   41.4539   -2.1716  139.1116 H   0  0  0  0  0  0
   40.1878   -1.1029  139.8055 H   0  0  0  0  0  0
   40.8714    0.5880  136.6407 H   0  0  0  0  0  0
   42.3121   -0.3194  143.8639 H   0  0  0  0  0  0
   44.9445   -1.2278  144.4858 H   0  0  0  0  0  0
   43.8174    0.7949  145.5009 H   0  0  0  0  0  0
   42.8446   -0.2990  146.5419 H   0  0  0  0  0  0
   45.8082   -0.5301  146.6616 H   0  0  0  0  0  0
   45.4861    1.9152  146.6558 H   0  0  0  0  0  0
   46.0498    1.3052  148.2486 H   0  0  0  0  0  0
   44.3271    1.7597  148.0194 H   0  0  0  0  0  0
   44.2825   -1.9723  147.9930 H   0  0  0  0  0  0
   43.6259   -0.5062  148.7967 H   0  0  0  0  0  0
   45.3486   -0.9607  149.0259 H   0  0  0  0  0  0
   41.7505   -2.4499  145.7726 H   0  0  0  0  0  0
   43.1440   -4.2634  147.6083 H   0  0  0  0  0  0
   40.2886   -4.4212  146.4773 H   0  0  0  0  0  0
   40.8930   -5.4075  147.8516 H   0  0  0  0  0  0
   40.6983   -2.3737  147.7995 H   0  0  0  0  0  0
   39.5370   -3.5007  148.5792 H   0  0  0  0  0  0
   41.6073   -4.9409  151.5410 H   0  0  0  0  0  0
   41.3797   -5.6699  149.9151 H   0  0  0  0  0  0
   40.0015   -4.8651  150.7394 H   0  0  0  0  0  0
   41.7964   -4.6455  144.3158 H   0  0  0  0  0  0
   42.1778   -7.5332  144.2514 H   0  0  0  0  0  0
   40.7393   -6.2587  142.6701 H   0  0  0  0  0  0
   41.9088   -7.2994  141.7891 H   0  0  0  0  0  0
   42.2047   -5.5330  141.9265 H   0  0  0  0  0  0
   44.3786   -4.8460  143.7742 H   0  0  0  0  0  0
   46.3227   -6.5903  142.3766 H   0  0  0  0  0  0
   47.7627   -4.5486  142.3209 H   0  0  0  0  0  0
   46.0641   -4.0234  142.0645 H   0  0  0  0  0  0
   47.1979   -2.5787  143.8057 H   0  0  0  0  0  0
   45.5135   -6.4343  145.6471 H   0  0  0  0  0  0
   48.2073   -6.1672  146.7064 H   0  0  0  0  0  0
   45.7604   -7.5926  147.9300 H   0  0  0  0  0  0
   47.2183   -7.0911  148.8518 H   0  0  0  0  0  0
   45.3339   -5.1673  147.4849 H   0  0  0  0  0  0
   44.2012   -6.5606  149.2090 H   0  0  0  0  0  0
   44.3918   -4.8533  149.7339 H   0  0  0  0  0  0
   45.4845   -6.1209  150.3865 H   0  0  0  0  0  0
   47.5990   -4.3153  147.8815 H   0  0  0  0  0  0
   47.4814   -4.8010  149.6069 H   0  0  0  0  0  0
   46.3888   -3.5334  148.9542 H   0  0  0  0  0  0
   49.7505   -7.5838  147.4938 H   0  0  0  0  0  0
   49.1450  -10.4786  146.8490 H   0  0  0  0  0  0
   51.6249  -10.6808  146.0348 H   0  0  0  0  0  0
   50.5428   -9.7091  144.9806 H   0  0  0  0  0  0
   52.7174   -8.5003  145.3928 H   0  0  0  0  0  0
   49.8573   -8.4276  149.3022 H   0  0  0  0  0  0
   50.7371  -10.6432  151.0081 H   0  0  0  0  0  0
   52.9422  -10.2518  149.8774 H   0  0  0  0  0  0
   53.0367   -9.8086  151.6156 H   0  0  0  0  0  0
   52.8871   -8.5247  150.3682 H   0  0  0  0  0  0
   49.0486   -7.6132  152.6380 H   0  0  0  0  0  0
  1  2  1  0  0  0
  1115  1  0  0  0
  1116  1  0  0  0
  1117  1  0  0  0
  2  3  1  0  0  0
  2118  1  0  0  0
  2119  1  0  0  0
  3  4  2  0  0  0
  3  5  1  0  0  0
  5  6  1  0  0  0
  5120  1  0  0  0
  6  7  1  0  0  0
  6  9  1  0  0  0
  6121  1  0  0  0
  7  8  2  0  0  0
  7 11  1  0  0  0
  9 10  1  0  0  0
  9122  1  0  0  0
  9123  1  0  0  0
 10124  1  0  0  0
 11 12  1  0  0  0
 11125  1  0  0  0
 12 13  1  0  0  0
 12 15  1  0  0  0
 12126  1  0  0  0
 13 14  2  0  0  0
 13 16  1  0  0  0
 15127  1  0  0  0
 15128  1  0  0  0
 15129  1  0  0  0
 16 17  1  0  0  0
 16130  1  0  0  0
 17 18  1  0  0  0
 17 20  1  0  0  0
 17131  1  0  0  0
 18 19  2  0  0  0
 18 23  1  0  0  0
 20 21  1  0  0  0
 20 22  1  0  0  0
 20132  1  0  0  0
 21133  1  0  0  0
 22134  1  0  0  0
 22135  1  0  0  0
 22136  1  0  0  0
 23 24  1  0  0  0
 23137  1  0  0  0
 24 25  1  0  0  0
 24 27  1  0  0  0
 24138  1  0  0  0
 25 26  2  0  0  0
 25 34  1  0  0  0
 27 28  1  0  0  0
 27139  1  0  0  0
 27140  1  0  0  0
 28 29  1  0  0  0
 28141  1  0  0  0
 28142  1  0  0  0
 29 30  1  0  0  0
 29143  1  0  0  0
 29144  1  0  0  0
 30 31  1  0  0  0
 30145  1  0  0  0
 31 32  1  0  0  0
 31 33  2  0  0  0
 32146  1  0  0  0
 32147  1  0  0  0
 33148  1  0  0  0
 34 35  1  0  0  0
 34149  1  0  0  0
 35 36  1  0  0  0
 35 38  1  0  0  0
 35150  1  0  0  0
 36 37  2  0  0  0
 36 43  1  0  0  0
 38 39  1  0  0  0
 38151  1  0  0  0
 38152  1  0  0  0
 39 40  1  0  0  0
 39153  1  0  0  0
 39154  1  0  0  0
 40 41  1  0  0  0
 40 42  2  0  0  0
 41155  1  0  0  0
 43 44  1  0  0  0
 43156  1  0  0  0
 44 45  1  0  0  0
 44 47  1  0  0  0
 44157  1  0  0  0
 45 46  2  0  0  0
 45 51  1  0  0  0
 47 48  1  0  0  0
 47158  1  0  0  0
 47159  1  0  0  0
 48 49  1  0  0  0
 48 50  1  0  0  0
 48160  1  0  0  0
 49161  1  0  0  0
 49162  1  0  0  0
 49163  1  0  0  0
 50164  1  0  0  0
 50165  1  0  0  0
 50166  1  0  0  0
 51 52  1  0  0  0
 51167  1  0  0  0
 52 53  1  0  0  0
 52 55  1  0  0  0
 52168  1  0  0  0
 53 54  2  0  0  0
 53 59  1  0  0  0
 55 56  1  0  0  0
 55169  1  0  0  0
 55170  1  0  0  0
 56 57  1  0  0  0
 56 58  2  0  0  0
 57171  1  0  0  0
 59 60  1  0  0  0
 59172  1  0  0  0
 60 61  1  0  0  0
 60 63  1  0  0  0
 60173  1  0  0  0
 61 62  2  0  0  0
 61 68  1  0  0  0
 63 64  1  0  0  0
 63174  1  0  0  0
 63175  1  0  0  0
 64 65  1  0  0  0
 64176  1  0  0  0
 64177  1  0  0  0
 65 66  2  0  0  0
 65 67  1  0  0  0
 67178  1  0  0  0
 68 69  1  0  0  0
 68179  1  0  0  0
 69 70  1  0  0  0
 69 72  1  0  0  0
 69180  1  0  0  0
 70 71  2  0  0  0
 70 76  1  0  0  0
 72 73  1  0  0  0
 72181  1  0  0  0
 72182  1  0  0  0
 73 74  1  0  0  0
 73 75  1  0  0  0
 73183  1  0  0  0
 74184  1  0  0  0
 74185  1  0  0  0
 74186  1  0  0  0
 75187  1  0  0  0
 75188  1  0  0  0
 75189  1  0  0  0
 76 77  1  0  0  0
 76190  1  0  0  0
 77 78  1  0  0  0
 77 80  1  0  0  0
 77191  1  0  0  0
 78 79  2  0  0  0
 78 84  1  0  0  0
 80 81  1  0  0  0
 80192  1  0  0  0
 80193  1  0  0  0
 81 82  1  0  0  0
 81194  1  0  0  0
 81195  1  0  0  0
 82 83  1  0  0  0
 83196  1  0  0  0
 83197  1  0  0  0
 83198  1  0  0  0
 84 85  1  0  0  0
 84199  1  0  0  0
 85 86  1  0  0  0
 85 88  1  0  0  0
 85200  1  0  0  0
 86 87  2  0  0  0
 86 89  1  0  0  0
 88201  1  0  0  0
 88202  1  0  0  0
 88203  1  0  0  0
 89 90  1  0  0  0
 89204  1  0  0  0
 90 91  1  0  0  0
 90 93  1  0  0  0
 90205  1  0  0  0
 91 92  2  0  0  0
 91 95  1  0  0  0
 93 94  1  0  0  0
 93206  1  0  0  0
 93207  1  0  0  0
 94208  1  0  0  0
 95 96  1  0  0  0
 95209  1  0  0  0
 96 97  1  0  0  0
 96 99  1  0  0  0
 96210  1  0  0  0
 97 98  2  0  0  0
 97103  1  0  0  0
 99100  1  0  0  0
 99211  1  0  0  0
 99212  1  0  0  0
100101  1  0  0  0
100102  1  0  0  0
100213  1  0  0  0
101214  1  0  0  0
101215  1  0  0  0
101216  1  0  0  0
102217  1  0  0  0
102218  1  0  0  0
102219  1  0  0  0
103104  1  0  0  0
103220  1  0  0  0
104105  1  0  0  0
104107  1  0  0  0
104221  1  0  0  0
105106  2  0  0  0
105109  1  0  0  0
107108  1  0  0  0
107222  1  0  0  0
107223  1  0  0  0
108224  1  0  0  0
109110  1  0  0  0
109225  1  0  0  0
110111  1  0  0  0
110113  1  0  0  0
110226  1  0  0  0
111112  2  0  0  0
111114  1  0  0  0
113227  1  0  0  0
113228  1  0  0  0
113229  1  0  0  0
114230  1  0  0  0
M  CHG  1   1   1
M  END
> <s_m_source_file>
../4xh2_ligand.sdf

> <i_m_source_file_index>
1

> <s_epik_input>
W05IMytdW0NIMl1DKD1PKVtOSF1bQ0BASF0oW0NIMl1bT0hdKUMoPU8pW05IXVtDQEBIXShbQ0gzXSlDKD1PKVtOSF1bQ0BASF0oW0NASF0oW09IXSlbQ0gzXSlDKD1PKVtOSF1bQ0BASF0oW0NIMl1bQ0gyXVtDSDJdW05IXS9DKFtOSDJdKT1OXFtIXSlDKD1PKVtOSF1bQ0BASF0oW0NIMl1bQ0gyXUMoPU8pW09IXSlDKD1PKVtOSF1bQ0BASF0oW0NIMl1bQ0hdKFtDSDNdKVtDSDNdKUMoPU8pW05IXVtDQEBIXShbQ0gyXUMoPU8pW09IXSlDKD1PKVtOSF1bQ0BASF0oW0NIMl1bQ0gyXUMoPU8pW09IXSlDKD1PKVtOSF1bQ0BASF0oW0NIMl1bQ0hdKFtDSDNdKVtDSDNdKUMoPU8pW05IXVtDQEBIXShbQ0gyXVtDSDJdU1tDSDNdKUMoPU8pW05IXVtDQEBIXShbQ0gzXSlDKD1PKVtOSF1bQ0BASF0oW0NIMl1bT0hdKUMoPU8pW05IXVtDQEBIXShbQ0gyXVtDSF0oW0NIM10pW0NIM10pQyg9TylbTkhdW0NAQEhdKFtDSDJdW09IXSlDKD1PKVtOSF1bQ0BASF0oW0NIM10pQyg9TylbT0hd

> <s_epik_cmdline>
J2VwaWtfYXBwJywgJy1pbWFlJywgJ2xpZ2FuZF9wcm8ubWFlJywgJy1vbWFlJywgJ2xpZ2FuZF9wcmVwLm1hZScsICctbXMnLCAnMScsICctcGgnLCAnNycsICctcGh0JywgJzAuNScsICctbnQn

> <s_epik_pKa_notes>
Molecule size exceeds maximum supported for generating protonation states

> <s_epik_Chemistry_Notes>
This compound has an imine and may undergo hydrolysis.

$$$$
