4xhv_ligand
                    3D
 Schrodinger Suite 2020-3.
177179  0  0  1  0            999 V2000
    1.9390    2.8700   15.5710 N   0  3  0  0  0  0
    2.5450    2.3910   14.3240 C   0  0  2  0  0  0
    1.8040    3.0430   13.1700 C   0  0  0  0  0  0
    0.6340    3.3590   13.2940 O   0  0  0  0  0  0
    2.4290    0.8610   14.1960 C   0  0  0  0  0  0
    1.0840    0.3130   14.5880 C   0  0  0  0  0  0
    0.0560    1.0200   14.7980 O   0  0  0  0  0  0
    1.1180   -0.9010   14.7570 O   0  0  0  0  0  0
    2.4680    3.2100   12.0450 N   0  0  0  0  0  0
    1.8040    3.8460   10.9080 C   0  0  2  0  0  0
    0.6010    3.0680   10.4230 C   0  0  0  0  0  0
   -0.3680    3.6380    9.9340 O   0  0  0  0  0  0
    2.7800    4.0460    9.7380 C   0  0  0  0  0  0
    3.7840    4.9750   10.1170 O   0  0  0  0  0  0
    0.6640    1.7630   10.5640 N   0  0  0  0  0  0
   -0.3720    0.9010    9.9940 C   0  0  2  0  0  0
   -1.7920    1.3300   10.3530 C   0  0  0  0  0  0
   -2.6590    1.3370    9.4530 O   0  0  0  0  0  0
   -0.1480   -0.5560   10.4040 C   0  0  0  0  0  0
   -1.1240   -1.5320    9.7560 C   0  0  0  0  0  0
   -0.6470   -2.9590    9.7480 C   0  0  0  0  0  0
   -0.0640   -3.3470   11.0350 C   0  0  0  0  0  0
    0.1960   -4.8080   11.0940 N   0  3  0  0  0  0
   -2.0220    1.6640   11.6370 N   0  0  0  0  0  0
   -3.4020    1.9300   12.1410 C   0  0  2  0  0  0
   -3.7680    3.4230   12.1400 C   0  0  0  0  0  0
   -4.7920    3.7810   12.7070 O   0  0  0  0  0  0
   -3.6300    1.2910   13.5270 C   0  0  0  0  0  0
   -2.8730    1.9910   14.6480 C   0  0  0  0  0  0
   -2.0050    2.8320   14.3380 O   0  0  0  0  0  0
   -3.1520    1.7040   15.8330 O   0  0  0  0  0  0
   -2.9840    4.2770   11.5000 N   0  0  0  0  0  0
   -3.2800    5.7040   11.5250 C   0  0  2  0  0  0
   -4.5320    6.0250   10.7080 C   0  0  0  0  0  0
   -4.7210    5.4980    9.6160 O   0  0  0  0  0  0
   -2.0200    6.4820   11.0570 C   0  0  0  0  0  0
   -2.2940    7.9410   10.8170 C   0  0  0  0  0  0
   -0.9170    6.3040   12.1480 C   0  0  0  0  0  0
   -5.3780    6.9000   11.2410 N   0  0  0  0  0  0
   -6.5870    7.3000   10.5830 C   0  0  2  0  0  0
   -6.3290    8.1170    9.3340 C   0  0  0  0  0  0
   -5.4580    8.9750    9.3150 O   0  0  0  0  0  0
   -7.4830    8.1400   11.5070 C   0  0  0  0  0  0
   -8.0870    7.3230   12.6420 C   0  0  0  0  0  0
   -8.9150    8.2030   13.5530 C   0  0  0  0  0  0
   -9.6280    7.4580   14.6210 C   0  0  0  0  0  0
  -10.1640    8.3490   15.6920 N   0  3  0  0  0  0
   -7.1140    7.8690    8.2930 N   0  0  0  0  0  0
   -7.1270    8.7110    7.1090 C   0  0  2  0  0  0
   -7.7250   10.0640    7.3970 C   0  0  0  0  0  0
   -8.6110   10.1970    8.2730 O   0  0  0  0  0  0
   -7.9000    8.0040    5.9910 C   0  0  0  0  0  0
   -9.4180    7.8660    6.1810 C   0  0  0  0  0  0
   -9.9330    6.7920    7.1040 C   0  0  0  0  0  0
   -9.1210    6.0730    7.7150 O   0  0  0  0  0  0
  -11.1950    6.6820    7.1790 O   0  0  0  0  0  0
   -7.2570   11.0980    6.7100 N   0  0  0  0  0  0
   -7.7820   12.4380    6.8860 C   0  0  2  0  0  0
   -8.6430   12.8490    5.6940 C   0  0  0  0  0  0
   -8.2260   12.7620    4.5360 O   0  0  0  0  0  0
   -6.6800   13.4780    7.0540 C   0  0  0  0  0  0
   -5.9090   13.4530    8.3350 C   0  0  0  0  0  0
   -5.4850   12.3560    9.0190 C   0  0  0  0  0  0
   -5.4460   14.6010    9.1130 C   0  0  0  0  0  0
   -4.7910   12.7430   10.1600 N   0  0  0  0  0  0
   -4.7550   14.1110   10.2290 C   0  0  0  0  0  0
   -5.5930   15.9800    8.9830 C   0  0  0  0  0  0
   -4.1820   14.9570   11.1840 C   0  0  0  0  0  0
   -5.0400   16.8020    9.9220 C   0  0  0  0  0  0
   -4.3160   16.2950   10.9920 C   0  0  0  0  0  0
   -9.8590   13.3010    5.9860 N   0  0  0  0  0  0
  -10.8400   13.7260    4.9960 C   0  0  2  0  0  0
  -10.6370   15.1670    4.5530 C   0  0  0  0  0  0
  -10.3720   16.0560    5.3710 O   0  0  0  0  0  0
  -12.2840   13.5230    5.5640 C   0  0  0  0  0  0
  -12.6010   12.0670    5.7090 C   0  0  0  0  0  0
  -12.2450   11.3650    6.8380 C   0  0  0  0  0  0
  -13.1670   11.3630    4.6520 C   0  0  0  0  0  0
  -12.3990   10.0020    6.9170 C   0  0  0  0  0  0
  -13.3500   10.0080    4.7250 C   0  0  0  0  0  0
  -12.9350    9.3130    5.8410 C   0  0  0  0  0  0
  -13.0780    7.9430    5.8390 O   0  0  0  0  0  0
  -10.7110   15.3690    3.2300 N   0  0  0  0  0  0
  -10.4670   16.6650    2.5880 C   0  0  2  0  0  0
  -11.4730   16.9240    1.4780 C   0  0  0  0  0  0
  -11.4510   18.0480    0.9420 O   0  0  0  0  0  0
   -9.0170   16.7280    2.0290 C   0  0  0  0  0  0
   -7.9870   16.4310    3.1160 C   0  0  0  0  0  0
   -8.8310   15.7970    0.8990 C   0  0  0  0  0  0
  -12.2130   16.0100    1.0980 O   0  0  0  0  0  0
    2.0389    3.9638   15.6307 H   0  0  0  0  0  0
    2.4503    2.4078   16.4283 H   0  0  0  0  0  0
    0.8734    2.5976   15.5891 H   0  0  0  0  0  0
    3.6060    2.6804   14.3494 H   0  0  0  0  0  0
    2.6072    0.5659   13.1514 H   0  0  0  0  0  0
    3.1762    0.3810   14.8451 H   0  0  0  0  0  0
   -0.8925    0.5407   15.0818 H   0  0  0  0  0  0
    3.5123    2.8762   11.9557 H   0  0  0  0  0  0
    1.4583    4.8065   11.3178 H   0  0  0  0  0  0
    3.2471    3.0837    9.4816 H   0  0  0  0  0  0
    2.2324    4.4317    8.8655 H   0  0  0  0  0  0
    4.5778    5.2476    9.4059 H   0  0  0  0  0  0
    1.5056    1.3198   11.1166 H   0  0  0  0  0  0
   -0.2425    1.0354    8.9100 H   0  0  0  0  0  0
    0.8666   -0.8666   10.1141 H   0  0  0  0  0  0
   -0.2637   -0.6522   11.4937 H   0  0  0  0  0  0
   -2.0791   -1.5118   10.3014 H   0  0  0  0  0  0
   -1.2934   -1.2403    8.7090 H   0  0  0  0  0  0
   -1.4947   -3.6278    9.5381 H   0  0  0  0  0  0
    0.1205   -3.0847    8.9701 H   0  0  0  0  0  0
    0.8888   -2.8169   11.1806 H   0  0  0  0  0  0
   -0.7582   -3.0831   11.8465 H   0  0  0  0  0  0
    0.6322   -5.0636   12.0709 H   0  0  0  0  0  0
    0.8976   -5.0881   10.2945 H   0  0  0  0  0  0
   -0.7493   -5.3543   10.9603 H   0  0  0  0  0  0
   -1.1630    1.7390   12.3200 H   0  0  0  0  0  0
   -4.0575    1.4396   11.4063 H   0  0  0  0  0  0
   -4.7005    1.3299   13.7770 H   0  0  0  0  0  0
   -3.2959    0.2431   13.5071 H   0  0  0  0  0  0
   -2.6180    2.1971   16.6587 H   0  0  0  0  0  0
   -2.1073    3.9067   10.9484 H   0  0  0  0  0  0
   -3.5216    5.9646   12.5660 H   0  0  0  0  0  0
   -1.6988    6.1071   10.0740 H   0  0  0  0  0  0
   -3.0723    8.0460   10.0468 H   0  0  0  0  0  0
   -1.3724    8.4360   10.4770 H   0  0  0  0  0  0
   -2.6377    8.4081   11.7517 H   0  0  0  0  0  0
   -0.7306    5.2320   12.3095 H   0  0  0  0  0  0
   -1.2544    6.7633   13.0888 H   0  0  0  0  0  0
    0.0109    6.7913   11.8141 H   0  0  0  0  0  0
   -5.1219    7.3209   12.2245 H   0  0  0  0  0  0
   -7.0293    6.3264   10.3251 H   0  0  0  0  0  0
   -6.8900    8.9512   11.9544 H   0  0  0  0  0  0
   -8.3107    8.5697   10.9237 H   0  0  0  0  0  0
   -8.7328    6.5366   12.2243 H   0  0  0  0  0  0
   -7.2807    6.8611   13.2307 H   0  0  0  0  0  0
   -8.2613    8.9365   14.0476 H   0  0  0  0  0  0
   -9.6761    8.7313   12.9600 H   0  0  0  0  0  0
  -10.4768    6.9122   14.1833 H   0  0  0  0  0  0
   -8.9375    6.7440   15.0936 H   0  0  0  0  0  0
  -10.6791    7.7415   16.4507 H   0  0  0  0  0  0
  -10.8736    9.0652   15.2521 H   0  0  0  0  0  0
   -9.3343    8.8969   16.1624 H   0  0  0  0  0  0
   -7.7712    6.9887    8.3491 H   0  0  0  0  0  0
   -6.0728    8.8632    6.8342 H   0  0  0  0  0  0
   -7.7663    8.5544    5.0480 H   0  0  0  0  0  0
   -7.5197    6.9785    5.8740 H   0  0  0  0  0  0
   -9.8233    8.8040    6.5883 H   0  0  0  0  0  0
   -9.8911    7.6528    5.2111 H   0  0  0  0  0  0
  -11.6427    5.9193    7.8331 H   0  0  0  0  0  0
   -6.4462   10.9152    5.9894 H   0  0  0  0  0  0
   -8.3721   12.3525    7.8104 H   0  0  0  0  0  0
   -5.9319   13.3515    6.2575 H   0  0  0  0  0  0
   -7.1149   14.4864    6.9917 H   0  0  0  0  0  0
   -5.6634   11.3241    8.7166 H   0  0  0  0  0  0
   -6.1437   16.3983    8.1405 H   0  0  0  0  0  0
   -3.6494   14.5587   12.0476 H   0  0  0  0  0  0
   -5.1699   17.8803    9.8294 H   0  0  0  0  0  0
   -3.8453   16.9846   11.6927 H   0  0  0  0  0  0
  -10.1052   13.3427    7.0573 H   0  0  0  0  0  0
  -10.6363   13.0891    4.1226 H   0  0  0  0  0  0
  -12.3602   14.0016    6.5515 H   0  0  0  0  0  0
  -13.0148   13.9775    4.8789 H   0  0  0  0  0  0
  -11.8307   11.9035    7.6903 H   0  0  0  0  0  0
  -13.4696   11.8978    3.7517 H   0  0  0  0  0  0
  -12.1019    9.4670    7.8190 H   0  0  0  0  0  0
  -13.8246    9.4779    3.8993 H   0  0  0  0  0  0
  -12.7579    7.3553    6.7120 H   0  0  0  0  0  0
  -10.9718   14.4927    2.6184 H   0  0  0  0  0  0
  -10.6209   17.4145    3.3783 H   0  0  0  0  0  0
  -12.1583   18.2859    0.1339 H   0  0  0  0  0  0
   -8.8344   17.7353    1.6264 H   0  0  0  0  0  0
   -8.1293   17.1269    3.9559 H   0  0  0  0  0  0
   -6.9742   16.5545    2.7050 H   0  0  0  0  0  0
   -8.1155   15.3976    3.4703 H   0  0  0  0  0  0
   -9.5749   16.0145    0.1185 H   0  0  0  0  0  0
   -8.9604   14.7629    1.2509 H   0  0  0  0  0  0
   -7.8191   15.9198    0.4855 H   0  0  0  0  0  0
  1  2  1  0  0  0
  1 91  1  0  0  0
  1 92  1  0  0  0
  1 93  1  0  0  0
  2  3  1  0  0  0
  2  5  1  0  0  0
  2 94  1  0  0  0
  3  4  2  0  0  0
  3  9  1  0  0  0
  5  6  1  0  0  0
  5 95  1  0  0  0
  5 96  1  0  0  0
  6  7  1  0  0  0
  6  8  2  0  0  0
  7 97  1  0  0  0
  9 10  1  0  0  0
  9 98  1  0  0  0
 10 11  1  0  0  0
 10 13  1  0  0  0
 10 99  1  0  0  0
 11 12  2  0  0  0
 11 15  1  0  0  0
 13 14  1  0  0  0
 13100  1  0  0  0
 13101  1  0  0  0
 14102  1  0  0  0
 15 16  1  0  0  0
 15103  1  0  0  0
 16 17  1  0  0  0
 16 19  1  0  0  0
 16104  1  0  0  0
 17 18  2  0  0  0
 17 24  1  0  0  0
 19 20  1  0  0  0
 19105  1  0  0  0
 19106  1  0  0  0
 20 21  1  0  0  0
 20107  1  0  0  0
 20108  1  0  0  0
 21 22  1  0  0  0
 21109  1  0  0  0
 21110  1  0  0  0
 22 23  1  0  0  0
 22111  1  0  0  0
 22112  1  0  0  0
 23113  1  0  0  0
 23114  1  0  0  0
 23115  1  0  0  0
 24 25  1  0  0  0
 24116  1  0  0  0
 25 26  1  0  0  0
 25 28  1  0  0  0
 25117  1  0  0  0
 26 27  2  0  0  0
 26 32  1  0  0  0
 28 29  1  0  0  0
 28118  1  0  0  0
 28119  1  0  0  0
 29 30  2  0  0  0
 29 31  1  0  0  0
 31120  1  0  0  0
 32 33  1  0  0  0
 32121  1  0  0  0
 33 34  1  0  0  0
 33 36  1  0  0  0
 33122  1  0  0  0
 34 35  2  0  0  0
 34 39  1  0  0  0
 36 37  1  0  0  0
 36 38  1  0  0  0
 36123  1  0  0  0
 37124  1  0  0  0
 37125  1  0  0  0
 37126  1  0  0  0
 38127  1  0  0  0
 38128  1  0  0  0
 38129  1  0  0  0
 39 40  1  0  0  0
 39130  1  0  0  0
 40 41  1  0  0  0
 40 43  1  0  0  0
 40131  1  0  0  0
 41 42  2  0  0  0
 41 48  1  0  0  0
 43 44  1  0  0  0
 43132  1  0  0  0
 43133  1  0  0  0
 44 45  1  0  0  0
 44134  1  0  0  0
 44135  1  0  0  0
 45 46  1  0  0  0
 45136  1  0  0  0
 45137  1  0  0  0
 46 47  1  0  0  0
 46138  1  0  0  0
 46139  1  0  0  0
 47140  1  0  0  0
 47141  1  0  0  0
 47142  1  0  0  0
 48 49  1  0  0  0
 48143  1  0  0  0
 49 50  1  0  0  0
 49 52  1  0  0  0
 49144  1  0  0  0
 50 51  2  0  0  0
 50 57  1  0  0  0
 52 53  1  0  0  0
 52145  1  0  0  0
 52146  1  0  0  0
 53 54  1  0  0  0
 53147  1  0  0  0
 53148  1  0  0  0
 54 55  2  0  0  0
 54 56  1  0  0  0
 56149  1  0  0  0
 57 58  1  0  0  0
 57150  1  0  0  0
 58 59  1  0  0  0
 58 61  1  0  0  0
 58151  1  0  0  0
 59 60  2  0  0  0
 59 71  1  0  0  0
 61 62  1  0  0  0
 61152  1  0  0  0
 61153  1  0  0  0
 62 63  2  0  0  0
 62 64  1  0  0  0
 63 65  1  0  0  0
 63154  1  0  0  0
 64 66  2  0  0  0
 64 67  1  0  0  0
 65 66  1  0  0  0
 66 68  1  0  0  0
 67 69  2  0  0  0
 67155  1  0  0  0
 68 70  2  0  0  0
 68156  1  0  0  0
 69 70  1  0  0  0
 69157  1  0  0  0
 70158  1  0  0  0
 71 72  1  0  0  0
 71159  1  0  0  0
 72 73  1  0  0  0
 72 75  1  0  0  0
 72160  1  0  0  0
 73 74  2  0  0  0
 73 83  1  0  0  0
 75 76  1  0  0  0
 75161  1  0  0  0
 75162  1  0  0  0
 76 77  2  0  0  0
 76 78  1  0  0  0
 77 79  1  0  0  0
 77163  1  0  0  0
 78 80  2  0  0  0
 78164  1  0  0  0
 79 81  2  0  0  0
 79165  1  0  0  0
 80 81  1  0  0  0
 80166  1  0  0  0
 81 82  1  0  0  0
 82167  1  0  0  0
 83 84  1  0  0  0
 83168  1  0  0  0
 84 85  1  0  0  0
 84 87  1  0  0  0
 84169  1  0  0  0
 85 86  1  0  0  0
 85 90  2  0  0  0
 86170  1  0  0  0
 87 88  1  0  0  0
 87 89  1  0  0  0
 87171  1  0  0  0
 88172  1  0  0  0
 88173  1  0  0  0
 88174  1  0  0  0
 89175  1  0  0  0
 89176  1  0  0  0
 89177  1  0  0  0
M  CHG  3   1   1  23   1  47   1
M  END
> <s_m_source_file>
../4xhv_ligand.sdf

> <i_m_source_file_index>
1

> <s_epik_input>
W09IXUMoPU8pW0NIMl1bQ0BIXShbTkgzK10pQyg9TylbTkhdW0NAQEhdKFtDSDJdW09IXSlDKD1PKVtOSF1bQ0BASF0oW0NIMl1bQ0gyXVtDSDJdW0NIMl1bTkgzK10pQyg9TylbTkhdW0NAQEhdKFtDSDJdQyg9TylbT0hdKUMoPU8pW05IXVtDQEBIXShbQ0hdKFtDSDNdKVtDSDNdKUMoPU8pW05IXVtDQEBIXShbQ0gyXVtDSDJdW0NIMl1bQ0gyXVtOSDMrXSlDKD1PKVtOSF1bQ0BASF0oW0NIMl1bQ0gyXUMoPU8pW09IXSlDKD1PKVtOSF1bQ0BASF0oW0NIMl1jMVtjSF1bbkhdYyhjMTIpW2NIXVtjSF1bY0hdW2NIXTIpQyg9TylbTkhdW0NASF0oQyg9TylbTkhdW0NASF0oQyg9TylbT0hdKVtDSF0oW0NIM10pW0NIM10pW0NIMl1jM1tjSF1bY0hdYyhbT0hdKVtjSF1bY0hdMw==

> <s_epik_cmdline>
J2VwaWtfYXBwJywgJy1pbWFlJywgJ2xpZ2FuZF9wcm8ubWFlJywgJy1vbWFlJywgJ2xpZ2FuZF9wcmVwLm1hZScsICctbXMnLCAnMScsICctcGgnLCAnNycsICctcGh0JywgJzAuNScsICctbnQn

> <s_epik_pKa_notes>
Molecule size exceeds maximum supported for generating protonation states

$$$$
