4xii_ligand
                    3D
 Schrodinger Suite 2020-3.
 79 83  0  0  1  0            999 V2000
    2.1930  -10.2680  -14.3410 C   0  0  1  0  0  0
    1.5760  -10.9280  -16.8540 C   0  0  0  0  0  0
    1.6870   -9.8680  -15.7780 C   0  0  1  0  0  0
    7.6270  -13.1720  -11.4630 C   0  0  0  0  0  0
    6.5260   -9.7520  -14.9020 C   0  0  0  0  0  0
    7.3020  -11.7290  -13.7380 C   0  0  0  0  0  0
    5.5480  -10.4720  -12.7780 C   0  0  0  0  0  0
    6.3680  -12.3040  -11.9010 C   0  0  1  0  0  0
    4.5250   -8.6070  -14.2300 C   0  0  0  0  0  0
    3.1440   -6.0090  -12.8410 C   0  0  0  0  0  0
    6.8840  -15.8620   -8.4540 C   0  0  0  0  0  0
    5.6770  -15.1120   -7.8670 C   0  0  0  0  0  0
    1.3390  -12.9190  -18.9960 C   0  0  0  0  0  0
    1.8370  -13.3460  -17.6410 C   0  0  0  0  0  0
    7.6140  -15.2810   -9.6680 C   0  0  0  0  0  0
    5.1940  -13.7890   -8.5020 C   0  0  0  0  0  0
    2.5820  -11.6890  -14.0290 C   0  0  0  0  0  0
    0.9520  -11.4710  -19.2770 C   0  0  0  0  0  0
    1.9540  -12.3550  -16.5580 C   0  0  0  0  0  0
    7.1250  -13.9540  -10.2990 C   0  0  1  0  0  0
    5.9280  -13.2230   -9.7150 C   0  0  3  0  0  0
    2.4810  -12.7640  -15.0980 C   0  5  0  0  0  0
    2.3030   -9.1560  -13.2330 C   0  0  0  0  0  0
    5.6890  -11.9850  -10.5110 C   0  0  0  0  0  0
    7.6630  -10.5570  -14.6390 C   0  0  0  0  0  0
    5.8420   -9.3130  -13.7220 C   0  0  2  0  0  0
    1.3400   -5.3490  -14.2570 C   0  0  0  0  0  0
    3.6750   -7.2520  -12.2190 C   0  0  0  0  0  0
    1.0750  -10.4870  -18.2100 N   0  0  0  0  0  0
    6.6910  -11.3000  -12.5210 N   0  3  1  0  0  0
    3.5400   -8.3430  -13.2380 N   0  0  0  0  0  0
    2.8740  -14.0830  -14.6920 N   0  3  0  0  0  0
    3.1230  -14.3170  -13.3600 O   0  0  0  0  0  0
    1.4050   -8.9520  -12.4170 O   0  0  0  0  0  0
    2.9960  -14.9830  -15.4710 O   0  5  0  0  0  0
    1.3180   -8.5240  -16.0780 O   0  0  0  0  0  0
    1.8130   -6.2590  -13.3070 O   0  0  0  0  0  0
    1.1583  -10.4845  -14.0369 H   0  0  0  0  0  0
    2.7231   -9.6638  -16.0860 H   0  0  0  0  0  0
    7.9357  -13.8176  -12.2984 H   0  0  0  0  0  0
    8.4567  -12.5031  -11.1906 H   0  0  0  0  0  0
    6.8338   -8.8520  -15.4545 H   0  0  0  0  0  0
    5.8039  -10.3229  -15.5043 H   0  0  0  0  0  0
    6.5963  -12.3905  -14.2619 H   0  0  0  0  0  0
    8.2130  -12.2914  -13.4852 H   0  0  0  0  0  0
    5.2006  -10.0785  -11.8113 H   0  0  0  0  0  0
    4.7675  -11.1121  -13.2152 H   0  0  0  0  0  0
    5.7375  -12.6217  -12.7445 H   0  0  0  0  0  0
    4.7792   -7.6342  -14.6762 H   0  0  0  0  0  0
    4.0373   -9.2406  -14.9854 H   0  0  0  0  0  0
    3.1322   -5.2015  -12.0942 H   0  0  0  0  0  0
    3.7863   -5.7182  -13.6853 H   0  0  0  0  0  0
    7.6663  -15.9554   -7.6864 H   0  0  0  0  0  0
    6.5695  -16.8641   -8.7808 H   0  0  0  0  0  0
    4.7889  -15.7599   -7.9050 H   0  0  0  0  0  0
    5.8874  -14.8392   -6.8223 H   0  0  0  0  0  0
    1.2534  -13.6591  -19.7916 H   0  0  0  0  0  0
    2.1102  -14.3859  -17.4620 H   0  0  0  0  0  0
    8.6629  -15.0808   -9.4039 H   0  0  0  0  0  0
    7.5761  -16.0017  -10.4982 H   0  0  0  0  0  0
    4.1552  -13.9047   -8.8449 H   0  0  0  0  0  0
    5.2460  -12.9833   -7.7549 H   0  0  0  0  0  0
    3.6381  -11.7213  -13.7230 H   0  0  0  0  0  0
    1.9518  -12.0708  -13.2122 H   0  0  0  0  0  0
    0.5887  -11.1767  -20.2616 H   0  0  0  0  0  0
    6.4562  -14.5177  -10.9661 H   0  0  0  0  0  0
    6.5973  -12.6604   -9.0475 H   0  0  0  0  0  0
    6.1669  -11.1009  -10.0638 H   0  0  0  0  0  0
    4.6181  -11.7853  -10.6633 H   0  0  0  0  0  0
    8.0617  -10.9490  -15.5863 H   0  0  0  0  0  0
    8.4335   -9.9513  -14.1395 H   0  0  0  0  0  0
    6.5282   -8.6528  -13.1713 H   0  0  0  0  0  0
    0.3162   -5.6242  -14.5504 H   0  0  0  0  0  0
    1.9932   -5.3700  -15.1418 H   0  0  0  0  0  0
    1.3385   -4.3368  -13.8263 H   0  0  0  0  0  0
    4.7301   -7.1034  -11.9456 H   0  0  0  0  0  0
    3.0922   -7.4883  -11.3165 H   0  0  0  0  0  0
    7.3869  -10.8076  -11.8259 H   0  0  0  0  0  0
    1.3949   -7.7466  -15.3036 H   0  0  0  0  0  0
  1  3  1  0  0  0
  1 17  1  0  0  0
  1 23  1  0  0  0
  1 38  1  0  0  0
  2  3  1  0  0  0
  2 19  2  0  0  0
  2 29  1  0  0  0
  3 36  1  0  0  0
  3 39  1  0  0  0
  4  8  1  0  0  0
  4 20  1  0  0  0
  4 40  1  0  0  0
  4 41  1  0  0  0
  5 25  1  0  0  0
  5 26  1  0  0  0
  5 42  1  0  0  0
  5 43  1  0  0  0
  6 25  1  0  0  0
  6 30  1  0  0  0
  6 44  1  0  0  0
  6 45  1  0  0  0
  7 26  1  0  0  0
  7 30  1  0  0  0
  7 46  1  0  0  0
  7 47  1  0  0  0
  8 24  1  0  0  0
  8 30  1  0  0  0
  8 48  1  0  0  0
  9 26  1  0  0  0
  9 31  1  0  0  0
  9 49  1  0  0  0
  9 50  1  0  0  0
 10 28  1  0  0  0
 10 37  1  0  0  0
 10 51  1  0  0  0
 10 52  1  0  0  0
 11 12  1  0  0  0
 11 15  1  0  0  0
 11 53  1  0  0  0
 11 54  1  0  0  0
 12 16  1  0  0  0
 12 55  1  0  0  0
 12 56  1  0  0  0
 13 14  2  0  0  0
 13 18  1  0  0  0
 13 57  1  0  0  0
 14 19  1  0  0  0
 14 58  1  0  0  0
 15 20  1  0  0  0
 15 59  1  0  0  0
 15 60  1  0  0  0
 16 21  1  0  0  0
 16 61  1  0  0  0
 16 62  1  0  0  0
 17 22  1  0  0  0
 17 63  1  0  0  0
 17 64  1  0  0  0
 18 29  2  0  0  0
 18 65  1  0  0  0
 19 22  1  0  0  0
 20 21  1  0  0  0
 20 66  1  0  0  0
 21 24  1  0  0  0
 21 67  1  0  0  0
 22 32  1  0  0  0
 23 31  1  0  0  0
 23 34  2  0  0  0
 24 68  1  0  0  0
 24 69  1  0  0  0
 25 70  1  0  0  0
 25 71  1  0  0  0
 26 72  1  0  0  0
 27 37  1  0  0  0
 27 73  1  0  0  0
 27 74  1  0  0  0
 27 75  1  0  0  0
 28 31  1  0  0  0
 28 76  1  0  0  0
 28 77  1  0  0  0
 30 78  1  0  0  0
 32 33  2  0  0  0
 32 35  1  0  0  0
 36 79  1  0  0  0
M  CHG  4  22  -1  30   1  32   1  35  -1
M  END
> <s_m_source_file>
../4xii_ligand.sdf

> <i_m_source_file_index>
1

> <s_epik_input>
bjFbY0hdW2NIXVtjSF1jKGMxMilbQ0hdKFtOK10oPU8pW08tXSlbQ0gyXVtDSF0oW0NAQEhdMltPSF0pQyg9TylOKFtDSDJdW0NIMl1PW0NIM10pW0NIMl1bQ0BASF0zW0NIMl1bQ0gyXVtDSDJdW05AQEgrXShbQ0gyXTMpW0NAQEhdKFtDSDJdNClbQ0gyXVtDSF0oW0NIXTQ1KVtDSDJdW0NIMl1bQ0gyXVtDSDJdNQ==

> <s_epik_cmdline>
J2VwaWtfYXBwJywgJy1pbWFlJywgJ2xpZ2FuZF9wcm8ubWFlJywgJy1vbWFlJywgJ2xpZ2FuZF9wcmVwLm1hZScsICctbXMnLCAnMScsICctcGgnLCAnNycsICctcGh0JywgJzAuNScsICctbnQn

> <r_epik_Ionization_Penalty>
  0.1075

> <r_epik_Ionization_Penalty_Charging>
  0.1070

> <r_epik_Ionization_Penalty_Neutral>
  0.0004

> <r_epik_State_Penalty>
  0.0967

> <r_epik_Charging_Adjusted_Penalty>
0.203728015073752

> <i_epik_Tot_Q>
0

> <i_epik_Tot_abs_Q>
4

$$$$
