4xip_ligand
                    3D
 Schrodinger Suite 2020-3.
 42 44  0  0  1  0            999 V2000
   -1.6190  -10.6030  -26.2250 N   0  0  0  0  0  0
    6.5070  -11.9690  -24.0840 C   0  0  0  0  0  0
    7.5940  -12.9300  -24.3300 C   0  0  0  0  0  0
    7.2210  -14.3390  -24.7380 C   0  0  0  0  0  0
    5.9390  -14.4600  -25.5800 C   0  0  0  0  0  0
    4.8090  -13.7260  -24.8500 C   0  0  0  0  0  0
    6.1620  -13.8500  -26.9680 C   0  0  0  0  0  0
    1.0350  -10.1620  -25.2280 C   0  0  0  0  0  0
    0.7500  -12.2470  -24.0470 C   0  0  0  0  0  0
   -1.2620  -11.1680  -25.1030 C   0  0  0  0  0  0
   -2.0830  -11.7030  -24.3180 O   0  0  0  0  0  0
    0.1960  -11.1910  -24.7790 C   0  0  0  0  0  0
    2.3960  -10.1930  -24.9700 C   0  0  0  0  0  0
    2.1080  -12.2800  -23.7770 C   0  0  0  0  0  0
    2.9420  -11.2580  -24.2510 C   0  0  0  0  0  0
    4.3630  -11.3160  -24.0220 N   0  0  0  0  0  0
    5.1450  -10.2480  -23.6190 C   0  0  0  0  0  0
    5.2070  -12.3810  -24.3160 C   0  0  0  0  0  0
    5.5580  -15.9280  -25.7510 C   0  0  0  0  0  0
    8.7710  -12.5920  -24.2680 O   0  0  0  0  0  0
    6.4570  -10.6010  -23.6410 C   0  0  0  0  0  0
    7.6050   -9.6950  -23.2800 C   0  0  0  0  0  0
   -2.6816  -10.5619  -26.5064 H   0  0  0  0  0  0
   -0.8571  -10.1682  -26.8886 H   0  0  0  0  0  0
    8.0328  -14.7735  -25.3398 H   0  0  0  0  0  0
    7.0633  -14.9517  -23.8382 H   0  0  0  0  0  0
    3.9682  -13.5673  -25.5413 H   0  0  0  0  0  0
    4.4716  -14.3302  -23.9950 H   0  0  0  0  0  0
    6.4378  -12.7904  -26.8628 H   0  0  0  0  0  0
    5.2367  -13.9313  -27.5572 H   0  0  0  0  0  0
    6.9716  -14.3905  -27.4803 H   0  0  0  0  0  0
    0.6118   -9.3273  -25.7869 H   0  0  0  0  0  0
    0.1075  -13.0502  -23.6863 H   0  0  0  0  0  0
    3.0385   -9.3883  -25.3273 H   0  0  0  0  0  0
    2.5283  -13.1008  -23.1958 H   0  0  0  0  0  0
    4.7650   -9.2689  -23.3272 H   0  0  0  0  0  0
    5.3941  -16.3818  -24.7625 H   0  0  0  0  0  0
    6.3701  -16.4597  -26.2684 H   0  0  0  0  0  0
    4.6352  -16.0005  -26.3453 H   0  0  0  0  0  0
    8.5526  -10.2432  -23.3877 H   0  0  0  0  0  0
    7.4927   -9.3579  -22.2390 H   0  0  0  0  0  0
    7.6080   -8.8224  -23.9497 H   0  0  0  0  0  0
  1 10  1  0  0  0
  1 23  1  0  0  0
  1 24  1  0  0  0
  2  3  1  0  0  0
  2 18  2  0  0  0
  2 21  1  0  0  0
  3  4  1  0  0  0
  3 20  2  0  0  0
  4  5  1  0  0  0
  4 25  1  0  0  0
  4 26  1  0  0  0
  5  6  1  0  0  0
  5  7  1  0  0  0
  5 19  1  0  0  0
  6 18  1  0  0  0
  6 27  1  0  0  0
  6 28  1  0  0  0
  7 29  1  0  0  0
  7 30  1  0  0  0
  7 31  1  0  0  0
  8 12  2  0  0  0
  8 13  1  0  0  0
  8 32  1  0  0  0
  9 12  1  0  0  0
  9 14  2  0  0  0
  9 33  1  0  0  0
 10 11  2  0  0  0
 10 12  1  0  0  0
 13 15  2  0  0  0
 13 34  1  0  0  0
 14 15  1  0  0  0
 14 35  1  0  0  0
 15 16  1  0  0  0
 16 17  1  0  0  0
 16 18  1  0  0  0
 17 21  2  0  0  0
 17 36  1  0  0  0
 19 37  1  0  0  0
 19 38  1  0  0  0
 19 39  1  0  0  0
 21 22  1  0  0  0
 22 40  1  0  0  0
 22 41  1  0  0  0
 22 42  1  0  0  0
M  END
> <s_m_source_file>
../4xip_ligand.sdf

> <i_m_source_file_index>
1

> <s_epik_input>
W05IMl1DKD1PKWMxW2NIXVtjSF1jKFtjSF1bY0hdMSktbihbY0hdYzJbQ0gzXSljKGMyMylbQ0gyXUMoW0NIM10pKFtDSDNdKVtDSDJdQzM9Tw==

> <s_epik_cmdline>
J2VwaWtfYXBwJywgJy1pbWFlJywgJ2xpZ2FuZF9wcm8ubWFlJywgJy1vbWFlJywgJ2xpZ2FuZF9wcmVwLm1hZScsICctbXMnLCAnMScsICctcGgnLCAnNycsICctcGh0JywgJzAuNScsICctbnQn

> <r_lp_tautomer_probability>
1

> <r_epik_Ionization_Penalty>
  0.0000

> <r_epik_Ionization_Penalty_Charging>
  0.0000

> <r_epik_Ionization_Penalty_Neutral>
  0.0000

> <r_epik_State_Penalty>
 -0.0000

> <r_epik_Charging_Adjusted_Penalty>
0

> <i_epik_Tot_Q>
0

> <i_epik_Tot_abs_Q>
0

$$$$
