4xiq_ligand
                    3D
 Schrodinger Suite 2020-3.
 47 50  0  0  1  0            999 V2000
   -2.3980  -11.6430  -24.2360 N   0  0  0  0  0  0
    6.2500  -11.7140  -24.1000 C   0  0  0  0  0  0
    7.3860  -12.6450  -24.3070 C   0  0  0  0  0  0
    7.0910  -14.0770  -24.6980 C   0  0  0  0  0  0
    5.8130  -14.2910  -25.5260 C   0  0  0  0  0  0
    4.6510  -13.5870  -24.8160 C   0  0  0  0  0  0
    5.9960  -13.7230  -26.9360 C   0  0  0  0  0  0
    0.4870  -12.1550  -24.0340 C   0  0  0  0  0  0
    0.7110  -10.1170  -25.3120 C   0  0  0  0  0  0
    3.3030   -8.0870  -24.6210 C   0  0  0  0  0  0
   -1.9330  -10.7100  -26.2180 O   0  0  0  0  0  0
   -1.5590  -11.1500  -25.1350 C   0  0  0  0  0  0
   -0.0910  -11.1410  -24.8040 C   0  0  0  0  0  0
    1.8500  -12.1680  -23.7800 C   0  0  0  0  0  0
    2.0740  -10.1310  -25.0660 C   0  0  0  0  0  0
    2.8360   -9.0880  -25.5650 O   0  0  0  0  0  0
    4.2170   -8.6520  -23.5510 C   0  0  0  0  0  0
    4.7790  -10.0300  -23.7690 C   0  0  0  0  0  0
    2.6570  -11.1570  -24.3110 C   0  0  0  0  0  0
    4.0830  -11.1830  -24.1210 N   0  0  0  0  0  0
    4.9790  -12.2080  -24.3280 C   0  0  0  0  0  0
    5.5070  -15.7810  -25.6360 C   0  0  0  0  0  0
    8.5540  -12.2730  -24.2080 O   0  0  0  0  0  0
    6.1180  -10.3160  -23.7430 C   0  0  0  0  0  0
    7.2720   -9.3940  -23.4560 C   0  0  0  0  0  0
   -3.4777  -11.6650  -24.4452 H   0  0  0  0  0  0
   -2.0149  -12.0304  -23.2804 H   0  0  0  0  0  0
    7.9208  -14.4701  -25.3037 H   0  0  0  0  0  0
    6.9773  -14.6888  -23.7909 H   0  0  0  0  0  0
    3.8015  -13.4924  -25.5084 H   0  0  0  0  0  0
    4.3454  -14.1770  -23.9393 H   0  0  0  0  0  0
    6.2176  -12.6474  -26.8721 H   0  0  0  0  0  0
    5.0726  -13.8734  -27.5146 H   0  0  0  0  0  0
    6.8293  -14.2401  -27.4343 H   0  0  0  0  0  0
   -0.1428  -12.9464  -23.6277 H   0  0  0  0  0  0
    0.2674   -9.3121  -25.8981 H   0  0  0  0  0  0
    3.8644   -7.3091  -25.1593 H   0  0  0  0  0  0
    2.4403   -7.6314  -24.1130 H   0  0  0  0  0  0
    2.2885  -12.9592  -23.1719 H   0  0  0  0  0  0
    5.0934   -7.9975  -23.4344 H   0  0  0  0  0  0
    3.6728   -8.7094  -22.5968 H   0  0  0  0  0  0
    5.3729  -16.2031  -24.6291 H   0  0  0  0  0  0
    6.3420  -16.2906  -26.1390 H   0  0  0  0  0  0
    4.5854  -15.9239  -26.2193 H   0  0  0  0  0  0
    8.2152   -9.9564  -23.5194 H   0  0  0  0  0  0
    7.1629   -8.9737  -22.4453 H   0  0  0  0  0  0
    7.2814   -8.5779  -24.1935 H   0  0  0  0  0  0
  1 12  1  0  0  0
  1 26  1  0  0  0
  1 27  1  0  0  0
  2  3  1  0  0  0
  2 21  2  0  0  0
  2 24  1  0  0  0
  3  4  1  0  0  0
  3 23  2  0  0  0
  4  5  1  0  0  0
  4 28  1  0  0  0
  4 29  1  0  0  0
  5  6  1  0  0  0
  5  7  1  0  0  0
  5 22  1  0  0  0
  6 21  1  0  0  0
  6 30  1  0  0  0
  6 31  1  0  0  0
  7 32  1  0  0  0
  7 33  1  0  0  0
  7 34  1  0  0  0
  8 13  2  0  0  0
  8 14  1  0  0  0
  8 35  1  0  0  0
  9 13  1  0  0  0
  9 15  2  0  0  0
  9 36  1  0  0  0
 10 16  1  0  0  0
 10 17  1  0  0  0
 10 37  1  0  0  0
 10 38  1  0  0  0
 11 12  2  0  0  0
 12 13  1  0  0  0
 14 19  2  0  0  0
 14 39  1  0  0  0
 15 16  1  0  0  0
 15 19  1  0  0  0
 17 18  1  0  0  0
 17 40  1  0  0  0
 17 41  1  0  0  0
 18 20  1  0  0  0
 18 24  2  0  0  0
 19 20  1  0  0  0
 20 21  1  0  0  0
 22 42  1  0  0  0
 22 43  1  0  0  0
 22 44  1  0  0  0
 24 25  1  0  0  0
 25 45  1  0  0  0
 25 46  1  0  0  0
 25 47  1  0  0  0
M  END
> <s_m_source_file>
../4xiq_ligand.sdf

> <i_m_source_file_index>
1

> <s_epik_input>
W05IMl1DKD1PKWMoW2NIXTEpW2NIXVtjSF1jMmMxT1tDSDJdW0NIMl1jKGMzW0NIM10pbjJjKGMzNClbQ0gyXUMoW0NIM10pKFtDSDNdKVtDSDJdQzQ9Tw==

> <s_epik_cmdline>
J2VwaWtfYXBwJywgJy1pbWFlJywgJ2xpZ2FuZF9wcm8ubWFlJywgJy1vbWFlJywgJ2xpZ2FuZF9wcmVwLm1hZScsICctbXMnLCAnMScsICctcGgnLCAnNycsICctcGh0JywgJzAuNScsICctbnQn

> <r_lp_tautomer_probability>
1

> <r_epik_Ionization_Penalty>
  0.0000

> <r_epik_Ionization_Penalty_Charging>
  0.0000

> <r_epik_Ionization_Penalty_Neutral>
  0.0000

> <r_epik_State_Penalty>
 -0.0000

> <r_epik_Charging_Adjusted_Penalty>
0

> <i_epik_Tot_Q>
0

> <i_epik_Tot_abs_Q>
0

$$$$
