4xir_ligand
                    3D
 Schrodinger Suite 2020-3.
 56 59  0  0  1  0            999 V2000
   -2.4120  -11.5430  -24.0540 N   0  0  0  0  0  0
    4.2440   -8.6760  -23.1650 C   0  0  0  0  0  0
    4.8030   -9.9760  -23.5230 C   0  0  0  0  0  0
    6.1460  -10.2340  -23.5500 C   0  0  0  0  0  0
    6.2850  -11.5990  -24.0070 C   0  0  0  0  0  0
    5.0130  -12.0890  -24.2590 C   0  0  0  0  0  0
    1.9270  -12.1320  -23.6670 C   0  0  0  0  0  0
    0.6860   -9.9920  -25.0000 C   0  0  0  0  0  0
   -1.5390  -11.0990  -24.9480 C   0  0  0  0  0  0
    5.8310  -14.1220  -25.5440 C   0  0  0  0  0  0
    5.9800  -13.5170  -26.9450 C   0  0  0  0  0  0
    5.5320  -15.6110  -25.6750 C   0  0  0  0  0  0
    7.2980   -9.3090  -23.2580 C   0  0  0  0  0  0
    8.5800  -12.1290  -24.1750 O   0  0  0  0  0  0
    7.4140  -12.5030  -24.2870 C   0  0  0  0  0  0
    7.1250  -13.9200  -24.7350 C   0  0  0  0  0  0
    4.6740  -13.4420  -24.8050 C   0  0  0  0  0  0
    4.1140  -11.0940  -23.9580 N   0  0  0  0  0  0
    2.6850  -11.0600  -24.1130 C   0  0  0  0  0  0
    2.0590   -9.9930  -24.7770 C   0  0  0  0  0  0
   -0.0770  -11.1060  -24.5970 C   0  0  0  0  0  0
   -1.9020  -10.6660  -26.0370 O   0  0  0  0  0  0
    0.5720  -12.1640  -23.9380 C   0  0  0  0  0  0
   -0.2490  -13.6240  -23.5110 Cl  0  0  0  0  0  0
    2.8220   -8.9630  -25.3080 O   0  0  0  0  0  0
    3.4700   -8.0820  -24.3390 C   0  0  1  0  0  0
    2.6630   -6.8430  -24.0790 C   0  0  0  0  0  0
    3.4700   -5.5820  -24.2060 C   0  0  0  0  0  0
    3.9390   -5.3000  -25.6350 C   0  0  0  0  0  0
   -2.0601  -11.9262  -23.0848 H   0  0  0  0  0  0
   -3.4881  -11.5281  -24.2816 H   0  0  0  0  0  0
    3.5609   -8.7933  -22.3108 H   0  0  0  0  0  0
    5.0586   -7.9893  -22.8914 H   0  0  0  0  0  0
    2.3954  -12.9420  -23.1078 H   0  0  0  0  0  0
    0.2060   -9.1396  -25.4808 H   0  0  0  0  0  0
    6.8118  -14.0091  -27.4703 H   0  0  0  0  0  0
    6.1864  -12.4399  -26.8592 H   0  0  0  0  0  0
    5.0487  -13.6680  -27.5105 H   0  0  0  0  0  0
    6.3592  -16.1058  -26.2050 H   0  0  0  0  0  0
    4.5990  -15.7492  -26.2411 H   0  0  0  0  0  0
    5.4221  -16.0524  -24.6735 H   0  0  0  0  0  0
    6.9106   -8.3340  -22.9275 H   0  0  0  0  0  0
    7.9003   -9.1747  -24.1686 H   0  0  0  0  0  0
    7.9245   -9.7427  -22.4646 H   0  0  0  0  0  0
    7.0831  -14.5271  -23.8187 H   0  0  0  0  0  0
    7.9887  -14.2304  -25.3413 H   0  0  0  0  0  0
    4.3796  -14.1071  -23.9798 H   0  0  0  0  0  0
    3.8412  -13.3516  -25.5180 H   0  0  0  0  0  0
    4.3434   -7.7793  -24.9353 H   0  0  0  0  0  0
    1.8360   -6.7856  -24.8021 H   0  0  0  0  0  0
    2.2555   -6.8784  -23.0579 H   0  0  0  0  0  0
    2.8624   -4.7238  -23.8830 H   0  0  0  0  0  0
    4.3667   -5.6552  -23.5731 H   0  0  0  0  0  0
    4.5206   -4.3665  -25.6525 H   0  0  0  0  0  0
    3.0646   -5.1996  -26.2948 H   0  0  0  0  0  0
    4.5689   -6.1311  -25.9849 H   0  0  0  0  0  0
  1  9  1  0  0  0
  1 30  1  0  0  0
  1 31  1  0  0  0
  2  3  1  0  0  0
  2 26  1  0  0  0
  2 32  1  0  0  0
  2 33  1  0  0  0
  3  4  2  0  0  0
  3 18  1  0  0  0
  4  5  1  0  0  0
  4 13  1  0  0  0
  5  6  2  0  0  0
  5 15  1  0  0  0
  6 17  1  0  0  0
  6 18  1  0  0  0
  7 19  2  0  0  0
  7 23  1  0  0  0
  7 34  1  0  0  0
  8 20  2  0  0  0
  8 21  1  0  0  0
  8 35  1  0  0  0
  9 21  1  0  0  0
  9 22  2  0  0  0
 10 11  1  0  0  0
 10 12  1  0  0  0
 10 16  1  0  0  0
 10 17  1  0  0  0
 11 36  1  0  0  0
 11 37  1  0  0  0
 11 38  1  0  0  0
 12 39  1  0  0  0
 12 40  1  0  0  0
 12 41  1  0  0  0
 13 42  1  0  0  0
 13 43  1  0  0  0
 13 44  1  0  0  0
 14 15  2  0  0  0
 15 16  1  0  0  0
 16 45  1  0  0  0
 16 46  1  0  0  0
 17 47  1  0  0  0
 17 48  1  0  0  0
 18 19  1  0  0  0
 19 20  1  0  0  0
 20 25  1  0  0  0
 21 23  2  0  0  0
 23 24  1  0  0  0
 25 26  1  0  0  0
 26 27  1  0  0  0
 26 49  1  0  0  0
 27 28  1  0  0  0
 27 50  1  0  0  0
 27 51  1  0  0  0
 28 29  1  0  0  0
 28 52  1  0  0  0
 28 53  1  0  0  0
 29 54  1  0  0  0
 29 55  1  0  0  0
 29 56  1  0  0  0
M  END
> <s_m_source_file>
../4xir_ligand.sdf

> <i_m_source_file_index>
1

> <s_epik_input>
W0NIM11bQ0gyXVtDSDJdW0NAQEhdKFtDSDJdMSlPYyhbY0hdYyhDKD1PKVtOSDJdKWMoQ2wpW2NIXTIpYzJuKGMxMyljNGMoYzNbQ0gzXSlDKD1PKVtDSDJdQyhbQ0gzXSkoW0NIM10pW0NIMl00

> <s_epik_cmdline>
J2VwaWtfYXBwJywgJy1pbWFlJywgJ2xpZ2FuZF9wcm8ubWFlJywgJy1vbWFlJywgJ2xpZ2FuZF9wcmVwLm1hZScsICctbXMnLCAnMScsICctcGgnLCAnNycsICctcGh0JywgJzAuNScsICctbnQn

> <r_lp_tautomer_probability>
1

> <r_epik_Ionization_Penalty>
  0.0000

> <r_epik_Ionization_Penalty_Charging>
  0.0000

> <r_epik_Ionization_Penalty_Neutral>
  0.0000

> <r_epik_State_Penalty>
 -0.0000

> <r_epik_Charging_Adjusted_Penalty>
0

> <i_epik_Tot_Q>
0

> <i_epik_Tot_abs_Q>
0

$$$$
