4xit_ligand
                    3D
 Schrodinger Suite 2020-3.
 58 62  0  0  1  0            999 V2000
    2.7440   -8.8030  -25.6150 N   0  0  0  0  0  0
    6.4160  -11.5830  -24.3170 C   0  0  0  0  0  0
    7.5470  -12.5360  -24.4700 C   0  0  0  0  0  0
    7.2590  -13.9720  -24.8520 C   0  0  0  0  0  0
    6.0090  -14.2010  -25.7170 C   0  0  0  0  0  0
    4.8310  -13.4460  -25.0920 C   0  0  0  0  0  0
    5.6820  -15.6900  -25.7690 C   0  0  0  0  0  0
    0.7560  -12.2500  -24.1760 C   0  0  0  0  0  0
    0.7170  -10.1210  -25.2710 C   0  0  0  0  0  0
    3.6010   -7.9190  -24.8170 C   0  0  0  0  0  0
    3.0670   -7.4420  -27.8670 C   0  0  0  0  0  0
    3.4610   -6.1690  -27.7320 C   0  0  0  0  0  0
    3.9870   -5.7780  -28.9610 C   0  0  0  0  0  0
   -1.4510  -11.2950  -25.0690 C   0  0  0  0  0  0
    0.0150  -13.7180  -23.6430 Cl  0  0  0  0  0  0
    2.1190  -12.1440  -23.9930 C   0  0  0  0  0  0
    0.0250  -11.2460  -24.8160 C   0  0  0  0  0  0
   -2.2330  -11.7920  -24.1230 N   0  0  0  0  0  0
   -1.8980  -10.8680  -26.1440 O   0  0  0  0  0  0
    2.1000  -10.0000  -25.1150 C   0  0  0  0  0  0
    2.3900   -8.4080  -26.9700 C   0  0  0  0  0  0
    3.3270   -7.8730  -29.1240 O   0  0  0  0  0  0
    3.8830   -6.8240  -29.7650 C   0  0  0  0  0  0
    4.3090   -8.5880  -23.6450 C   0  0  0  0  0  0
    4.9300   -9.9130  -23.9770 C   0  0  0  0  0  0
    2.8190  -11.0450  -24.4920 C   0  0  0  0  0  0
    4.2530  -11.0410  -24.3830 N   0  0  0  0  0  0
    5.1550  -12.0660  -24.6000 C   0  0  0  0  0  0
    6.2560  -13.7080  -27.1470 C   0  0  0  0  0  0
    8.7110  -12.1840  -24.3300 O   0  0  0  0  0  0
    6.2720  -10.1950  -23.9210 C   0  0  0  0  0  0
    7.4150   -9.2930  -23.5470 C   0  0  0  0  0  0
    8.1060  -14.3756  -25.4262 H   0  0  0  0  0  0
    7.1144  -14.5718  -23.9413 H   0  0  0  0  0  0
    4.0293  -13.3358  -25.8371 H   0  0  0  0  0  0
    4.4522  -14.0093  -24.2265 H   0  0  0  0  0  0
    5.5014  -16.0615  -24.7495 H   0  0  0  0  0  0
    6.5272  -16.2357  -26.2138 H   0  0  0  0  0  0
    4.7816  -15.8465  -26.3812 H   0  0  0  0  0  0
    0.1646   -9.3183  -25.7595 H   0  0  0  0  0  0
    4.3880   -7.4949  -25.4579 H   0  0  0  0  0  0
    2.9946   -7.1048  -24.3935 H   0  0  0  0  0  0
    3.3847   -5.5569  -26.8334 H   0  0  0  0  0  0
    4.4027   -4.8020  -29.2114 H   0  0  0  0  0  0
    2.6540  -12.9257  -23.4538 H   0  0  0  0  0  0
   -1.7943  -12.1601  -23.1838 H   0  0  0  0  0  0
   -3.3213  -11.8368  -24.2763 H   0  0  0  0  0  0
    2.4054   -9.2914  -27.6253 H   0  0  0  0  0  0
    1.3820   -7.9675  -26.9720 H   0  0  0  0  0  0
    4.2039   -6.8364  -30.8066 H   0  0  0  0  0  0
    5.1166   -7.9346  -23.2832 H   0  0  0  0  0  0
    3.5880   -8.7638  -22.8330 H   0  0  0  0  0  0
    6.4937  -12.6341  -27.1287 H   0  0  0  0  0  0
    5.3530  -13.8734  -27.7530 H   0  0  0  0  0  0
    7.0986  -14.2626  -27.5856 H   0  0  0  0  0  0
    8.3598   -9.8527  -23.6108 H   0  0  0  0  0  0
    7.2733   -8.9287  -22.5188 H   0  0  0  0  0  0
    7.4482   -8.4376  -24.2378 H   0  0  0  0  0  0
  1 10  1  0  0  0
  1 20  1  0  0  0
  1 21  1  0  0  0
  2  3  1  0  0  0
  2 28  2  0  0  0
  2 31  1  0  0  0
  3  4  1  0  0  0
  3 30  2  0  0  0
  4  5  1  0  0  0
  4 33  1  0  0  0
  4 34  1  0  0  0
  5  6  1  0  0  0
  5  7  1  0  0  0
  5 29  1  0  0  0
  6 28  1  0  0  0
  6 35  1  0  0  0
  6 36  1  0  0  0
  7 37  1  0  0  0
  7 38  1  0  0  0
  7 39  1  0  0  0
  8 15  1  0  0  0
  8 16  2  0  0  0
  8 17  1  0  0  0
  9 17  2  0  0  0
  9 20  1  0  0  0
  9 40  1  0  0  0
 10 24  1  0  0  0
 10 41  1  0  0  0
 10 42  1  0  0  0
 11 12  2  0  0  0
 11 21  1  0  0  0
 11 22  1  0  0  0
 12 13  1  0  0  0
 12 43  1  0  0  0
 13 23  2  0  0  0
 13 44  1  0  0  0
 14 17  1  0  0  0
 14 18  1  0  0  0
 14 19  2  0  0  0
 16 26  1  0  0  0
 16 45  1  0  0  0
 18 46  1  0  0  0
 18 47  1  0  0  0
 20 26  2  0  0  0
 21 48  1  0  0  0
 21 49  1  0  0  0
 22 23  1  0  0  0
 23 50  1  0  0  0
 24 25  1  0  0  0
 24 51  1  0  0  0
 24 52  1  0  0  0
 25 27  1  0  0  0
 25 31  2  0  0  0
 26 27  1  0  0  0
 27 28  1  0  0  0
 29 53  1  0  0  0
 29 54  1  0  0  0
 29 55  1  0  0  0
 31 32  1  0  0  0
 32 56  1  0  0  0
 32 57  1  0  0  0
 32 58  1  0  0  0
M  END
> <s_m_source_file>
../4xit_ligand.sdf

> <i_m_source_file_index>
1

> <s_epik_input>
W05IMl1DKD1PKWMoW2NIXTEpYyhDbClbY0hdYzJjMU4oW0NIMl1jM1tjSF1bY0hdW2NIXW8zKVtDSDJdW0NIMl1jKGM0W0NIM10pbjJjKGM0NSlbQ0gyXUMoW0NIM10pKFtDSDNdKVtDSDJdQzU9Tw==

> <s_epik_cmdline>
J2VwaWtfYXBwJywgJy1pbWFlJywgJ2xpZ2FuZF9wcm8ubWFlJywgJy1vbWFlJywgJ2xpZ2FuZF9wcmVwLm1hZScsICctbXMnLCAnMScsICctcGgnLCAnNycsICctcGh0JywgJzAuNScsICctbnQn

> <r_lp_tautomer_probability>
1

> <r_epik_Ionization_Penalty>
  0.0000

> <r_epik_Ionization_Penalty_Charging>
  0.0000

> <r_epik_Ionization_Penalty_Neutral>
  0.0000

> <r_epik_State_Penalty>
 -0.0000

> <r_epik_Charging_Adjusted_Penalty>
0

> <i_epik_Tot_Q>
0

> <i_epik_Tot_abs_Q>
0

$$$$
