4xj0_ligand
                    3D
 Schrodinger Suite 2020-3.
 53 56  0  0  1  0            999 V2000
  -14.7300  -36.6540  -19.8010 C   0  0  0  0  0  0
  -13.9410  -35.8310  -20.5970 C   0  0  0  0  0  0
  -13.0400  -36.3920  -21.4980 C   0  0  0  0  0  0
  -12.2920  -35.4440  -22.4140 C   0  0  1  0  0  0
  -14.2550  -36.0750  -25.5030 C   0  0  0  0  0  0
  -14.6020  -33.7440  -24.8880 C   0  0  0  0  0  0
  -17.1120  -33.5500  -28.5050 C   0  0  0  0  0  0
  -16.6190  -35.7980  -28.8410 C   0  0  0  0  0  0
  -16.8070  -39.3560  -30.0970 C   0  0  0  0  0  0
  -12.9610  -37.7870  -21.6250 C   0  0  0  0  0  0
  -13.7410  -38.6140  -20.8250 C   0  0  0  0  0  0
  -14.6200  -38.0330  -19.9200 C   0  0  0  0  0  0
  -10.8720  -35.8900  -22.7740 C   0  0  0  0  0  0
  -10.1260  -35.9080  -21.5620 O   0  0  0  0  0  0
  -13.1550  -35.1720  -23.5850 N   0  0  0  0  0  0
  -13.4290  -36.2120  -24.4480 C   0  0  0  0  0  0
  -14.8770  -34.8200  -25.7460 C   0  0  0  0  0  0
  -13.7300  -33.9420  -23.7800 C   0  0  0  0  0  0
  -13.5050  -32.9990  -23.0320 O   0  0  0  0  0  0
  -15.7600  -34.7210  -26.9410 C   0  0  0  0  0  0
  -16.3940  -33.5250  -27.3170 C   0  0  0  0  0  0
  -17.2180  -34.6740  -29.2200 N   0  0  0  0  0  0
  -15.9020  -35.8090  -27.7250 N   0  0  0  0  0  0
  -16.7100  -36.9340  -29.6460 N   0  0  0  0  0  0
  -16.1110  -38.2330  -29.2960 C   0  0  0  0  0  0
  -16.1020  -40.7150  -29.9030 C   0  0  0  0  0  0
  -14.6690  -40.6150  -30.0410 O   0  0  0  0  0  0
  -14.0010  -39.6170  -29.2470 C   0  0  0  0  0  0
  -14.5940  -38.2350  -29.5780 C   0  0  0  0  0  0
  -15.5990  -36.1360  -18.9040 F   0  0  0  0  0  0
  -15.6240  -39.0120  -18.9170 Cl  0  0  0  0  0  0
  -14.0278  -34.7475  -20.5156 H   0  0  0  0  0  0
  -12.1296  -34.4900  -21.8911 H   0  0  0  0  0  0
  -14.4450  -36.9197  -26.1652 H   0  0  0  0  0  0
  -15.0511  -32.7673  -25.0679 H   0  0  0  0  0  0
  -17.5961  -32.6400  -28.8595 H   0  0  0  0  0  0
  -17.8493  -39.4550  -29.7597 H   0  0  0  0  0  0
  -16.7904  -39.1067  -31.1683 H   0  0  0  0  0  0
  -12.2827  -38.2258  -22.3567 H   0  0  0  0  0  0
  -13.6642  -39.6982  -20.9064 H   0  0  0  0  0  0
  -10.9060  -36.8922  -23.2262 H   0  0  0  0  0  0
  -10.4350  -35.1791  -23.4907 H   0  0  0  0  0  0
   -9.0658  -36.2012  -21.5730 H   0  0  0  0  0  0
  -12.9602  -37.1798  -24.2700 H   0  0  0  0  0  0
  -16.3257  -32.6239  -26.7075 H   0  0  0  0  0  0
  -17.2666  -36.8209  -30.5880 H   0  0  0  0  0  0
  -16.2782  -38.3641  -28.2167 H   0  0  0  0  0  0
  -16.3205  -41.1010  -28.8964 H   0  0  0  0  0  0
  -16.4672  -41.4284  -30.6565 H   0  0  0  0  0  0
  -14.1486  -39.8384  -28.1797 H   0  0  0  0  0  0
  -12.9255  -39.6244  -29.4776 H   0  0  0  0  0  0
  -14.4182  -38.0099  -30.6403 H   0  0  0  0  0  0
  -14.1043  -37.4716  -28.9555 H   0  0  0  0  0  0
  1  2  2  0  0  0
  1 12  1  0  0  0
  1 30  1  0  0  0
  2  3  1  0  0  0
  2 32  1  0  0  0
  3  4  1  0  0  0
  3 10  2  0  0  0
  4 13  1  0  0  0
  4 15  1  0  0  0
  4 33  1  0  0  0
  5 16  2  0  0  0
  5 17  1  0  0  0
  5 34  1  0  0  0
  6 17  2  0  0  0
  6 18  1  0  0  0
  6 35  1  0  0  0
  7 21  2  0  0  0
  7 22  1  0  0  0
  7 36  1  0  0  0
  8 22  2  0  0  0
  8 23  1  0  0  0
  8 24  1  0  0  0
  9 25  1  0  0  0
  9 26  1  0  0  0
  9 37  1  0  0  0
  9 38  1  0  0  0
 10 11  1  0  0  0
 10 39  1  0  0  0
 11 12  2  0  0  0
 11 40  1  0  0  0
 12 31  1  0  0  0
 13 14  1  0  0  0
 13 41  1  0  0  0
 13 42  1  0  0  0
 14 43  1  0  0  0
 15 16  1  0  0  0
 15 18  1  0  0  0
 16 44  1  0  0  0
 17 20  1  0  0  0
 18 19  2  0  0  0
 20 21  1  0  0  0
 20 23  2  0  0  0
 21 45  1  0  0  0
 24 25  1  0  0  0
 24 46  1  0  0  0
 25 29  1  0  0  0
 25 47  1  0  0  0
 26 27  1  0  0  0
 26 48  1  0  0  0
 26 49  1  0  0  0
 27 28  1  0  0  0
 28 29  1  0  0  0
 28 50  1  0  0  0
 28 51  1  0  0  0
 29 52  1  0  0  0
 29 53  1  0  0  0
M  END
> <s_m_source_file>
../4xj0_ligand.sdf

> <i_m_source_file_index>
1

> <s_epik_input>
Q2xjMVtjSF1bY0hdYyhbY0hdYzFGKVtDQEBIXShbQ0gyXVtPSF0pbjJbY0hdW2NIXWMoW2NIXWMyPU8pLWMobjMpW2NIXVtjSF1uYzNbTkhdW0NIXTRbQ0gyXVtDSDJdT1tDSDJdW0NIMl00

> <s_epik_cmdline>
J2VwaWtfYXBwJywgJy1pbWFlJywgJ2xpZ2FuZF9wcm8ubWFlJywgJy1vbWFlJywgJ2xpZ2FuZF9wcmVwLm1hZScsICctbXMnLCAnMScsICctcGgnLCAnNycsICctcGh0JywgJzAuNScsICctbnQn

> <r_lp_tautomer_probability>
1

> <r_epik_Ionization_Penalty>
  0.0000

> <r_epik_Ionization_Penalty_Charging>
  0.0000

> <r_epik_Ionization_Penalty_Neutral>
  0.0000

> <r_epik_State_Penalty>
 -0.0000

> <r_epik_Charging_Adjusted_Penalty>
2.81341669172898e-07

> <i_epik_Tot_Q>
0

> <i_epik_Tot_abs_Q>
0

$$$$
