4xjs_ligand
                    3D
 Schrodinger Suite 2020-3.
 39 41  0  0  1  0            999 V2000
   -6.5860  -21.3270    9.7000 C   0  0  0  0  0  0
   -6.6900  -20.6380   11.0390 C   0  0  0  0  0  0
   -6.2030  -21.2590   12.1890 C   0  0  0  0  0  0
   -6.3150  -20.6100   13.4310 C   0  0  0  0  0  0
   -5.8060  -21.2160   14.6250 N   0  0  0  0  0  0
   -5.5150  -22.6670   14.7060 C   0  0  0  0  0  0
   -5.2720  -23.1270   16.1370 C   0  0  0  0  0  0
   -6.2330  -23.9030   16.8120 C   0  0  0  0  0  0
   -7.7380  -24.3580   16.0700 Cl  0  0  0  0  0  0
   -6.0150  -24.3210   18.1260 C   0  0  0  0  0  0
   -4.8390  -23.9800   18.7980 C   0  0  0  0  0  0
   -3.8710  -23.2090   18.1360 C   0  0  0  0  0  0
   -2.4000  -22.7490   18.9530 Cl  0  0  0  0  0  0
   -4.0780  -22.7820   16.8100 C   0  0  0  0  0  0
   -2.8270  -21.8070   16.0590 Cl  0  0  0  0  0  0
   -6.9220  -19.3420   13.4570 C   0  0  0  0  0  0
   -7.0450  -18.6520   14.6680 C   0  0  0  0  0  0
   -7.6370  -17.3880   14.7190 C   0  0  0  0  0  0
   -7.7370  -16.7550   15.9220 F   0  0  0  0  0  0
   -8.1210  -16.7990   13.5440 C   0  0  0  0  0  0
   -8.0280  -17.4500   12.2990 C   0  0  0  0  0  0
   -8.5640  -16.7270   11.0770 C   0  0  0  0  0  0
   -9.2020  -15.5690   11.2000 N   0  0  0  0  0  0
   -8.4160  -17.1310    9.9090 O   0  0  0  0  0  0
   -7.4090  -18.7500   12.2680 C   0  0  0  0  0  0
   -7.2610  -19.4410   11.1190 N   0  0  0  0  0  0
   -6.0887  -22.3000    9.8260 H   0  0  0  0  0  0
   -5.9995  -20.7019    9.0106 H   0  0  0  0  0  0
   -7.5941  -21.4811    9.2877 H   0  0  0  0  0  0
   -5.7379  -22.2427   12.1251 H   0  0  0  0  0  0
   -5.6317  -20.5705   15.4985 H   0  0  0  0  0  0
   -6.3676  -23.2349   14.3052 H   0  0  0  0  0  0
   -4.6140  -22.8937   14.1171 H   0  0  0  0  0  0
   -6.7711  -24.9203   18.6333 H   0  0  0  0  0  0
   -4.6750  -24.3087   19.8242 H   0  0  0  0  0  0
   -6.6731  -19.1079   15.5856 H   0  0  0  0  0  0
   -8.5811  -15.8122   13.5947 H   0  0  0  0  0  0
   -9.3753  -15.1398   12.1979 H   0  0  0  0  0  0
   -9.5572  -15.0389   10.3040 H   0  0  0  0  0  0
  1  2  1  0  0  0
  1 27  1  0  0  0
  1 28  1  0  0  0
  1 29  1  0  0  0
  2  3  2  0  0  0
  2 26  1  0  0  0
  3  4  1  0  0  0
  3 30  1  0  0  0
  4  5  1  0  0  0
  4 16  2  0  0  0
  5  6  1  0  0  0
  5 31  1  0  0  0
  6  7  1  0  0  0
  6 32  1  0  0  0
  6 33  1  0  0  0
  7  8  2  0  0  0
  7 14  1  0  0  0
  8  9  1  0  0  0
  8 10  1  0  0  0
 10 11  2  0  0  0
 10 34  1  0  0  0
 11 12  1  0  0  0
 11 35  1  0  0  0
 12 13  1  0  0  0
 12 14  2  0  0  0
 14 15  1  0  0  0
 16 17  1  0  0  0
 16 25  1  0  0  0
 17 18  2  0  0  0
 17 36  1  0  0  0
 18 19  1  0  0  0
 18 20  1  0  0  0
 20 21  2  0  0  0
 20 37  1  0  0  0
 21 22  1  0  0  0
 21 25  1  0  0  0
 22 23  1  0  0  0
 22 24  2  0  0  0
 23 38  1  0  0  0
 23 39  1  0  0  0
 25 26  2  0  0  0
M  END
> <s_m_source_file>
../4xjs_ligand.sdf

> <i_m_source_file_index>
1

> <s_epik_input>
W2NIXTFjKEYpW2NIXWMoQyg9TylbTkgyXSljKGMxMiluYyhbQ0gzXSlbY0hdYzJbTkhdW0NIMl1jM2MoQ2wpW2NIXVtjSF1jKENsKWMzQ2w=

> <s_epik_cmdline>
J2VwaWtfYXBwJywgJy1pbWFlJywgJ2xpZ2FuZF9wcm8ubWFlJywgJy1vbWFlJywgJ2xpZ2FuZF9wcmVwLm1hZScsICctbXMnLCAnMScsICctcGgnLCAnNycsICctcGh0JywgJzAuNScsICctbnQn

> <r_epik_Ionization_Penalty>
  0.3074

> <r_epik_Ionization_Penalty_Charging>
  0.0000

> <r_epik_Ionization_Penalty_Neutral>
  0.3074

> <r_epik_State_Penalty>
  0.3012

> <r_epik_Charging_Adjusted_Penalty>
0.301249441668258

> <i_epik_Tot_Q>
0

> <i_epik_Tot_abs_Q>
0

$$$$
