4xjt_ligand
                    3D
 Schrodinger Suite 2020-3.
 46 48  0  0  1  0            999 V2000
   -2.3530  -21.7370   16.0170 C   0  0  0  0  0  0
   -5.0770  -23.7560   18.5380 C   0  0  0  0  0  0
   -6.8870  -23.7180   16.8830 C   0  0  0  0  0  0
   -7.1550  -18.6790   14.9210 C   0  0  0  0  0  0
   -8.0110  -17.5580   12.5630 C   0  0  0  0  0  0
   -8.5070  -16.8660   11.3550 C   0  0  0  0  0  0
   -7.3430  -18.7810   12.5050 C   0  0  0  0  0  0
   -6.2030  -21.2470   10.0830 C   0  0  0  0  0  0
   -6.4560  -20.5710   11.3850 C   0  0  0  0  0  0
   -6.0190  -21.1570   12.5530 C   0  0  0  0  0  0
   -6.2490  -20.5340   13.7630 C   0  0  0  0  0  0
   -5.8390  -21.0580   15.0280 N   0  0  0  0  0  0
   -5.0880  -22.3170   15.0280 C   0  0  0  0  0  0
   -4.6330  -22.7210   16.4090 C   0  0  0  0  0  0
   -3.3480  -22.4430   16.8590 C   0  0  0  0  0  0
   -2.9420  -22.8170   18.1260 C   0  0  0  0  0  0
   -3.8010  -23.4800   18.9780 C   0  0  0  0  0  0
   -5.4920  -23.3850   17.2740 C   0  0  0  0  0  0
   -6.9210  -19.3260   13.7200 C   0  0  0  0  0  0
   -7.8150  -17.4750   14.9430 C   0  0  0  0  0  0
   -8.2430  -16.9140   13.7590 C   0  0  0  0  0  0
   -8.4090  -17.3330   10.2340 O   0  0  0  0  0  0
   -9.0780  -15.6540   11.6140 N   0  0  0  0  0  0
   -7.1100  -19.4080   11.3400 N   0  3  0  0  0  0
   -2.8017  -21.4983   15.0415 H   0  0  0  0  0  0
   -1.4746  -22.3822   15.8685 H   0  0  0  0  0  0
   -2.0444  -20.8066   16.5162 H   0  0  0  0  0  0
   -5.7708  -24.2760   19.1986 H   0  0  0  0  0  0
   -7.3858  -24.2396   17.7131 H   0  0  0  0  0  0
   -6.8738  -24.3686   15.9961 H   0  0  0  0  0  0
   -7.4335  -22.7921   16.6505 H   0  0  0  0  0  0
   -6.8137  -19.1274   15.8540 H   0  0  0  0  0  0
   -5.6606  -22.1879   10.2577 H   0  0  0  0  0  0
   -5.5993  -20.5898    9.4399 H   0  0  0  0  0  0
   -7.1621  -21.4628    9.5894 H   0  0  0  0  0  0
   -5.4926  -22.1109   12.5215 H   0  0  0  0  0  0
   -6.0668  -20.5534   15.9786 H   0  0  0  0  0  0
   -5.7235  -23.1230   14.6325 H   0  0  0  0  0  0
   -4.1943  -22.2109   14.3955 H   0  0  0  0  0  0
   -1.9296  -22.5850   18.4566 H   0  0  0  0  0  0
   -3.4779  -23.7783   19.9753 H   0  0  0  0  0  0
   -7.9990  -16.9668   15.8896 H   0  0  0  0  0  0
   -8.7666  -15.9580   13.7687 H   0  0  0  0  0  0
   -9.1381  -15.2841   12.6482 H   0  0  0  0  0  0
   -9.4781  -15.0469   10.7886 H   0  0  0  0  0  0
   -7.4547  -18.9606   10.3961 H   0  0  0  0  0  0
  1 15  1  0  0  0
  1 25  1  0  0  0
  1 26  1  0  0  0
  1 27  1  0  0  0
  2 17  2  0  0  0
  2 18  1  0  0  0
  2 28  1  0  0  0
  3 18  1  0  0  0
  3 29  1  0  0  0
  3 30  1  0  0  0
  3 31  1  0  0  0
  4 19  2  0  0  0
  4 20  1  0  0  0
  4 32  1  0  0  0
  5  6  1  0  0  0
  5  7  2  0  0  0
  5 21  1  0  0  0
  6 22  2  0  0  0
  6 23  1  0  0  0
  7 19  1  0  0  0
  7 24  1  0  0  0
  8  9  1  0  0  0
  8 33  1  0  0  0
  8 34  1  0  0  0
  8 35  1  0  0  0
  9 10  1  0  0  0
  9 24  2  0  0  0
 10 11  2  0  0  0
 10 36  1  0  0  0
 11 12  1  0  0  0
 11 19  1  0  0  0
 12 13  1  0  0  0
 12 37  1  0  0  0
 13 14  1  0  0  0
 13 38  1  0  0  0
 13 39  1  0  0  0
 14 15  1  0  0  0
 14 18  2  0  0  0
 15 16  2  0  0  0
 16 17  1  0  0  0
 16 40  1  0  0  0
 17 41  1  0  0  0
 20 21  2  0  0  0
 20 42  1  0  0  0
 21 43  1  0  0  0
 23 44  1  0  0  0
 23 45  1  0  0  0
 24 46  1  0  0  0
M  CHG  1  24   1
M  END
> <s_m_source_file>
../4xjt_ligand.sdf

> <i_m_source_file_index>
1

> <s_epik_input>
W0NIM11jMVtjSF1bY0hdW2NIXWMoW0NIM10pYzFbQ0gyXVtOSF1jKFtjSF1jKG4yKVtDSDNdKWMoYzIzKVtjSF1bY0hdW2NIXWMzQyg9TylbTkgyXQ==

> <s_epik_cmdline>
J2VwaWtfYXBwJywgJy1pbWFlJywgJ2xpZ2FuZF9wcm8ubWFlJywgJy1vbWFlJywgJ2xpZ2FuZF9wcmVwLm1hZScsICctbXMnLCAnMScsICctcGgnLCAnNycsICctcGh0JywgJzAuNScsICctbnQn

> <r_epik_Ionization_Penalty>
  0.0811

> <r_epik_Ionization_Penalty_Charging>
  0.0811

> <r_epik_Ionization_Penalty_Neutral>
  0.0000

> <r_epik_State_Penalty>
  0.0719

> <r_epik_Charging_Adjusted_Penalty>
0.152941835227178

> <i_epik_Tot_Q>
1

> <i_epik_Tot_abs_Q>
1

$$$$
