4xkb_ligand
                    3D
 Schrodinger Suite 2020-3.
 68 72  0  0  1  0            999 V2000
   -8.1560  -22.2200  -20.1330 C   0  0  0  0  0  0
   -3.9020  -21.1220  -17.5950 C   0  0  0  0  0  0
   -2.4320  -25.9260  -18.0420 C   0  0  0  0  0  0
   -6.7640  -27.0740  -20.3590 C   0  0  0  0  0  0
   -5.9590  -22.0680  -18.8200 N   0  3  0  0  0  0
   -7.0170  -21.5340  -19.4620 C   0  0  0  0  0  0
   -6.9190  -20.1470  -19.4010 C   0  0  0  0  0  0
   -5.7430  -19.8640  -18.7070 C   0  0  0  0  0  0
   -5.1730  -21.0740  -18.3620 C   0  0  0  0  0  0
   -5.1850  -18.5150  -18.3810 C   0  0  0  0  0  0
   -7.8470  -19.1160  -19.9550 C   0  0  0  0  0  0
   -7.5260  -18.5710  -21.2990 C   0  0  0  0  0  0
   -7.7100  -19.5490  -22.4040 C   0  0  0  0  0  0
   -6.7460  -19.8440  -23.1550 O   0  0  0  0  0  0
   -8.8420  -20.0780  -22.5680 O   0  5  0  0  0  0
   -3.5260  -23.6080  -17.9950 N   0  3  0  0  0  0
   -3.1500  -22.4010  -17.5470 C   0  0  0  0  0  0
   -1.8820  -22.4820  -16.9890 C   0  0  0  0  0  0
   -1.4900  -23.8080  -17.1150 C   0  0  0  0  0  0
   -2.5330  -24.4770  -17.7430 C   0  0  0  0  0  0
   -1.0860  -21.3740  -16.3780 C   0  0  0  0  0  0
   -4.7490  -26.1570  -19.0680 N   0  3  0  0  0  0
   -3.4970  -26.5680  -18.8480 C   0  0  0  0  0  0
   -3.2930  -27.7640  -19.5060 C   0  0  0  0  0  0
   -4.4820  -28.0730  -20.1500 C   0  0  0  0  0  0
   -5.3720  -27.0560  -19.8530 C   0  0  0  0  0  0
   -2.0370  -28.5630  -19.5360 C   0  0  0  0  0  0
   -7.1120  -24.5740  -20.0490 N   0  3  0  0  0  0
   -7.4810  -25.7880  -20.4870 C   0  0  0  0  0  0
   -8.7300  -25.7000  -21.1070 C   0  0  0  0  0  0
   -9.0930  -24.3710  -21.0270 C   0  0  0  0  0  0
   -8.0750  -23.6910  -20.3760 C   0  0  0  0  0  0
   -9.5340  -26.7870  -21.7460 C   0  0  0  0  0  0
  -10.3330  -23.7680  -21.5900 C   0  0  0  0  0  0
  -10.0560  -23.1160  -22.9050 C   0  0  0  0  0  0
  -11.1780  -22.8500  -23.8400 C   0  0  0  0  0  0
  -12.3230  -23.2610  -23.5540 O   0  0  0  0  0  0
  -10.9720  -22.2190  -24.9180 O   0  5  0  0  0  0
   -9.0361  -21.6563  -20.4423 H   0  0  0  0  0  0
   -3.5295  -20.2373  -17.0786 H   0  0  0  0  0  0
   -1.5878  -26.5096  -17.6747 H   0  0  0  0  0  0
   -7.2476  -28.0125  -20.6302 H   0  0  0  0  0  0
   -5.8510  -17.7363  -18.7811 H   0  0  0  0  0  0
   -4.1874  -18.4119  -18.8328 H   0  0  0  0  0  0
   -5.1064  -18.4048  -17.2894 H   0  0  0  0  0  0
   -8.8576  -19.5415  -20.0427 H   0  0  0  0  0  0
   -7.8725  -18.2462  -19.2821 H   0  0  0  0  0  0
   -8.1792  -17.7119  -21.5118 H   0  0  0  0  0  0
   -6.4750  -18.2471  -21.3219 H   0  0  0  0  0  0
   -0.5457  -24.2407  -16.7847 H   0  0  0  0  0  0
   -1.6634  -20.4389  -16.4246 H   0  0  0  0  0  0
   -0.1435  -21.2510  -16.9318 H   0  0  0  0  0  0
   -0.8654  -21.6168  -15.3281 H   0  0  0  0  0  0
   -4.6775  -28.9478  -20.7701 H   0  0  0  0  0  0
   -1.2687  -28.0613  -18.9293 H   0  0  0  0  0  0
   -1.6840  -28.6523  -20.5740 H   0  0  0  0  0  0
   -2.2304  -29.5656  -19.1269 H   0  0  0  0  0  0
   -8.9948  -27.7418  -21.6584 H   0  0  0  0  0  0
   -9.6908  -26.5506  -22.8088 H   0  0  0  0  0  0
  -10.5078  -26.8681  -21.2408 H   0  0  0  0  0  0
  -11.0891  -24.5535  -21.7360 H   0  0  0  0  0  0
  -10.7213  -23.0104  -20.8934 H   0  0  0  0  0  0
   -9.6042  -22.1274  -22.7361 H   0  0  0  0  0  0
   -9.3623  -23.7418  -23.4857 H   0  0  0  0  0  0
   -5.8562  -23.1605  -18.7434 H   0  0  0  0  0  0
   -6.1550  -24.4470  -19.5217 H   0  0  0  0  0  0
   -4.5092  -23.7361  -18.4714 H   0  0  0  0  0  0
   -5.1044  -25.2149  -18.6252 H   0  0  0  0  0  0
  1  6  1  0  0  0
  1 32  2  0  0  0
  1 39  1  0  0  0
  2  9  2  0  0  0
  2 17  1  0  0  0
  2 40  1  0  0  0
  3 20  2  0  0  0
  3 23  1  0  0  0
  3 41  1  0  0  0
  4 26  2  0  0  0
  4 29  1  0  0  0
  4 42  1  0  0  0
  5  6  2  0  0  0
  5  9  1  0  0  0
  5 65  1  0  0  0
  6  7  1  0  0  0
  7  8  2  0  0  0
  7 11  1  0  0  0
  8  9  1  0  0  0
  8 10  1  0  0  0
 10 43  1  0  0  0
 10 44  1  0  0  0
 10 45  1  0  0  0
 11 12  1  0  0  0
 11 46  1  0  0  0
 11 47  1  0  0  0
 12 13  1  0  0  0
 12 48  1  0  0  0
 12 49  1  0  0  0
 13 14  2  0  0  0
 13 15  1  0  0  0
 16 17  2  0  0  0
 16 20  1  0  0  0
 16 67  1  0  0  0
 17 18  1  0  0  0
 18 19  2  0  0  0
 18 21  1  0  0  0
 19 20  1  0  0  0
 19 50  1  0  0  0
 21 51  1  0  0  0
 21 52  1  0  0  0
 21 53  1  0  0  0
 22 23  2  0  0  0
 22 26  1  0  0  0
 22 68  1  0  0  0
 23 24  1  0  0  0
 24 25  2  0  0  0
 24 27  1  0  0  0
 25 26  1  0  0  0
 25 54  1  0  0  0
 27 55  1  0  0  0
 27 56  1  0  0  0
 27 57  1  0  0  0
 28 29  2  0  0  0
 28 32  1  0  0  0
 28 66  1  0  0  0
 29 30  1  0  0  0
 30 31  2  0  0  0
 30 33  1  0  0  0
 31 32  1  0  0  0
 31 34  1  0  0  0
 33 58  1  0  0  0
 33 59  1  0  0  0
 33 60  1  0  0  0
 34 35  1  0  0  0
 34 61  1  0  0  0
 34 62  1  0  0  0
 35 36  1  0  0  0
 35 63  1  0  0  0
 35 64  1  0  0  0
 36 37  2  0  0  0
 36 38  1  0  0  0
M  CHG  6   5   1  15  -1  16   1  22   1  28   1  38  -1
M  END
> <s_m_source_file>
../4xkb_ligand.sdf

> <i_m_source_file_index>
1

> <s_epik_input>
Tz1DKFtPSF0pW0NIMl1bQ0gyXWMxYyhbQ0gzXSljKG5jMVtjSF1jMjMpW2NIXWM0bmMoYyhbY0hdNClbQ0gzXSlbY0hdYzVuYyhjKFtjSF01KVtDSDNdKVtjSF1jKG4yKWMoW0NIM10pYzNbQ0gyXVtDSDJdQyg9TylbT0hd

> <s_epik_cmdline>
J2VwaWtfYXBwJywgJy1pbWFlJywgJ2xpZ2FuZF9wcm8ubWFlJywgJy1vbWFlJywgJ2xpZ2FuZF9wcmVwLm1hZScsICctbXMnLCAnMScsICctcGgnLCAnNycsICctcGh0JywgJzAuNScsICctbnQn

> <r_lp_tautomer_probability>
1

> <r_epik_Ionization_Penalty>
  0.0022

> <r_epik_Ionization_Penalty_Charging>
  0.0022

> <r_epik_Ionization_Penalty_Neutral>
  0.0000

> <r_epik_State_Penalty>
 -0.0000

> <r_epik_Charging_Adjusted_Penalty>
0.0022446546364282

> <i_epik_Tot_Q>
2

> <i_epik_Tot_abs_Q>
6

$$$$
