4xkc_ligand
                    3D
 Schrodinger Suite 2020-3.
 65 72  0  0  1  0            999 V2000
    1.2040  -21.5050   16.4660 C   0  0  0  0  0  0
    2.2720  -28.4950   19.6060 C   0  0  0  0  0  0
    5.2130  -18.6540   18.2750 C   0  0  0  0  0  0
    9.5400  -26.6560   21.8020 C   0  0  0  0  0  0
    7.7870  -19.2390   20.0270 C   0  0  0  0  0  0
    7.4860  -18.6510   21.3940 C   0  0  0  0  0  0
    7.8040  -19.4800   22.5760 C   0  0  0  0  0  0
    8.9290  -20.0430   22.6650 O   0  5  0  0  0  0
   10.3460  -23.5650   21.7540 C   0  0  0  0  0  0
   10.2360  -22.7300   22.9910 C   0  0  0  0  0  0
   11.3650  -22.7290   23.9690 C   0  0  0  0  0  0
   11.2480  -22.0990   25.0470 O   0  5  0  0  0  0
    6.8080  -20.2670   19.4810 C   0  0  0  0  0  0
    5.7000  -19.9990   18.7260 C   0  0  0  0  0  0
    5.1390  -21.2450   18.4810 C   0  0  0  0  0  0
    5.7920  -22.3310   19.0200 N   0  3  0  0  0  0
    6.8390  -21.6460   19.6370 C   0  0  0  0  0  0
    3.9020  -21.1860   17.6600 C   0  0  0  0  0  0
    3.2160  -22.4750   17.7880 C   0  0  0  0  0  0
    1.9580  -22.5700   17.2050 C   0  0  0  0  0  0
    1.5650  -23.8560   17.4610 C   0  0  0  0  0  0
    2.6030  -24.4410   18.1720 C   0  0  0  0  0  0
    3.6420  -23.6000   18.4020 N   0  3  0  0  0  0
    2.4090  -25.8290   18.5620 C   0  0  0  0  0  0
    3.6160  -26.3160   19.1850 C   0  0  0  0  0  0
    3.4800  -27.6050   19.6680 C   0  0  0  0  0  0
    4.6900  -27.8910   20.2110 C   0  0  0  0  0  0
    5.4530  -26.7610   20.0130 C   0  0  0  0  0  0
    4.8280  -25.7170   19.3680 N   0  3  0  0  0  0
    6.8140  -26.9100   20.5600 C   0  0  0  0  0  0
    7.4570  -25.5850   20.6770 C   0  0  0  0  0  0
    8.7230  -25.5190   21.2630 C   0  0  0  0  0  0
    9.0610  -24.1980   21.2380 C   0  0  0  0  0  0
    7.9720  -23.5520   20.6420 C   0  0  0  0  0  0
    6.9670  -24.3780   20.3000 N   0  3  0  0  0  0
    8.0150  -22.0870   20.4620 C   0  0  0  0  0  0
   12.4210  -23.3530   23.7110 O   0  0  0  0  0  0
    6.9550  -19.6240   23.4870 O   0  0  0  0  0  0
    5.5250  -24.0120   19.0330 Mg  0  0  0  0  0  0
    1.8039  -20.5834   16.4380 H   0  0  0  0  0  0
    0.2515  -21.3070   16.9793 H   0  0  0  0  0  0
    1.0035  -21.8435   15.4387 H   0  0  0  0  0  0
    1.4515  -27.9648   19.1004 H   0  0  0  0  0  0
    1.9614  -28.7632   20.6266 H   0  0  0  0  0  0
    2.5183  -29.4089   19.0456 H   0  0  0  0  0  0
    5.8949  -17.8742   18.6450 H   0  0  0  0  0  0
    4.2031  -18.4772   18.6735 H   0  0  0  0  0  0
    5.1839  -18.6243   17.1758 H   0  0  0  0  0  0
    8.9867  -27.5981   21.6740 H   0  0  0  0  0  0
    9.7390  -26.4900   22.8710 H   0  0  0  0  0  0
   10.4933  -26.7136   21.2562 H   0  0  0  0  0  0
    7.8137  -18.4330   19.2790 H   0  0  0  0  0  0
    8.7621  -19.7474   20.0531 H   0  0  0  0  0  0
    8.0584  -17.7212   21.5273 H   0  0  0  0  0  0
    6.4104  -18.4337   21.4709 H   0  0  0  0  0  0
   10.7268  -22.9473   20.9273 H   0  0  0  0  0  0
   11.0377  -24.4007   21.9360 H   0  0  0  0  0  0
   10.1143  -21.6734   22.7105 H   0  0  0  0  0  0
    9.3645  -23.0564   23.5774 H   0  0  0  0  0  0
    3.4698  -20.3929   17.0322 H   0  0  0  0  0  0
    0.5865  -24.2128   17.1072 H   0  0  0  0  0  0
    1.5396  -26.4939   18.4528 H   0  0  0  0  0  0
    4.8657  -28.8717   20.6772 H   0  0  0  0  0  0
    7.3598  -27.8150   20.8650 H   0  0  0  0  0  0
    8.7402  -21.3447   20.8268 H   0  0  0  0  0  0
  1 20  1  0  0  0
  1 40  1  0  0  0
  1 41  1  0  0  0
  1 42  1  0  0  0
  2 26  1  0  0  0
  2 43  1  0  0  0
  2 44  1  0  0  0
  2 45  1  0  0  0
  3 14  1  0  0  0
  3 46  1  0  0  0
  3 47  1  0  0  0
  3 48  1  0  0  0
  4 32  1  0  0  0
  4 49  1  0  0  0
  4 50  1  0  0  0
  4 51  1  0  0  0
  5  6  1  0  0  0
  5 13  1  0  0  0
  5 52  1  0  0  0
  5 53  1  0  0  0
  6  7  1  0  0  0
  6 54  1  0  0  0
  6 55  1  0  0  0
  7  8  1  0  0  0
  7 38  2  0  0  0
  9 10  1  0  0  0
  9 33  1  0  0  0
  9 56  1  0  0  0
  9 57  1  0  0  0
 10 11  1  0  0  0
 10 58  1  0  0  0
 10 59  1  0  0  0
 11 12  1  0  0  0
 11 37  2  0  0  0
 13 14  2  0  0  0
 13 17  1  0  0  0
 14 15  1  0  0  0
 15 16  2  0  0  0
 15 18  1  0  0  0
 16 17  1  0  0  0
 16 39  1  0  0  0
 17 36  2  0  0  0
 18 19  2  0  0  0
 18 60  1  0  0  0
 19 20  1  0  0  0
 19 23  1  0  0  0
 20 21  2  0  0  0
 21 22  1  0  0  0
 21 61  1  0  0  0
 22 23  2  0  0  0
 22 24  1  0  0  0
 23 39  1  0  0  0
 24 25  2  0  0  0
 24 62  1  0  0  0
 25 26  1  0  0  0
 25 29  1  0  0  0
 26 27  2  0  0  0
 27 28  1  0  0  0
 27 63  1  0  0  0
 28 29  2  0  0  0
 28 30  1  0  0  0
 29 39  1  0  0  0
 30 31  2  0  0  0
 30 64  1  0  0  0
 31 32  1  0  0  0
 31 35  1  0  0  0
 32 33  2  0  0  0
 33 34  1  0  0  0
 34 35  2  0  0  0
 34 36  1  0  0  0
 35 39  1  0  0  0
 36 65  1  0  0  0
M  CHG  6   8  -1  12  -1  16   1  23   1  29   1  35   1
M  END
> <s_m_source_file>
../4xkc_ligand.sdf

> <i_m_source_file_index>
1

> <s_epik_input>
W0NIM11DKD1bQ0hdMSlDKD1bQ0hdMilbTitdMz1DMVtDSF09QyhDKFtDSDNdKT1bQ0hdNClbTitdNT1DNFtDSF09QyhDKFtDSDNdKT1DNltDSDJdW0NIMl1DKD1PKVtPSF0pW04rXTc9QzZbQ0hdPUM4Qyg9QyhbQ0gzXSlDMj1bTitdOFtNZ10zNTcpW0NIMl1bQ0gyXUMoPU8pW09IXQ==

> <s_epik_cmdline>
J2VwaWtfYXBwJywgJy1pbWFlJywgJ2xpZ2FuZF9wcm8ubWFlJywgJy1vbWFlJywgJ2xpZ2FuZF9wcmVwLm1hZScsICctbXMnLCAnMScsICctcGgnLCAnNycsICctcGh0JywgJzAuNScsICctbnQn

> <r_lp_tautomer_probability>
1

> <r_epik_Ionization_Penalty>
  0.0001

> <r_epik_Ionization_Penalty_Charging>
  0.0001

> <r_epik_Ionization_Penalty_Neutral>
  0.0000

> <r_epik_State_Penalty>
 -0.0000

> <r_epik_Charging_Adjusted_Penalty>
7.85424068414886e-05

> <i_epik_Tot_Q>
2

> <i_epik_Tot_abs_Q>
6

> <s_epik_Chemistry_Notes>
This compound has an imine and may undergo hydrolysis.

$$$$
