4xm6_ligand
                    3D
 Schrodinger Suite 2020-3.
 49 49  0  0  1  0            999 V2000
   11.9880   19.3340   28.5590 C   0  0  0  0  0  0
   10.9380   19.2250   27.4860 C   0  0  1  0  0  0
   12.1030   17.2050   26.5890 C   0  0  0  0  0  0
   12.0090   18.5690   29.5120 O   0  0  0  0  0  0
   14.0910   20.2520   29.0930 O   0  0  0  0  0  0
    9.0560   19.3570   29.1300 C   0  0  0  0  0  0
    8.3480   20.5000   29.8600 C   0  0  0  0  0  0
    9.3300   21.4560   30.5250 C   0  0  0  0  0  0
    7.5520   22.8470   27.3160 C   0  0  0  0  0  0
    7.4810   24.2010   27.6540 C   0  0  0  0  0  0
    8.6320   24.9300   27.8830 C   0  0  0  0  0  0
    9.8730   24.3110   27.7870 C   0  0  0  0  0  0
   12.8890   20.2960   28.3950 N   0  0  0  0  0  0
   10.7850   17.7410   27.1450 C   0  0  0  0  0  0
    9.6260   19.7870   27.8430 N   0  0  3  0  0  0
    8.9320   20.6700   26.8120 S   0  0  0  0  0  0
    7.6270   20.1440   26.5200 O   0  0  0  0  0  0
    9.7300   20.6080   25.6200 O   0  0  0  0  0  0
    7.3450   19.9730   30.8820 C   0  0  0  0  0  0
    8.7950   22.2190   27.2200 C   0  0  0  0  0  0
    9.9450   22.9620   27.4550 C   0  0  0  0  0  0
    8.5330   26.2380   28.1990 F   0  0  0  0  0  0
    6.1620   24.9200   27.7560 C   0  0  0  0  0  0
    9.6330   17.4230   26.1980 C   0  0  0  0  0  0
   11.2593   19.8544   26.6430 H   0  0  0  0  0  0
   12.9195   17.4446   27.2861 H   0  0  0  0  0  0
   12.3056   17.6705   25.6131 H   0  0  0  0  0  0
   12.0330   16.1140   26.4674 H   0  0  0  0  0  0
   14.8361   21.0495   28.9560 H   0  0  0  0  0  0
    9.8759   18.9745   29.7557 H   0  0  0  0  0  0
    8.3377   18.5478   28.9319 H   0  0  0  0  0  0
    7.7994   21.0701   29.0958 H   0  0  0  0  0  0
   10.0453   21.8265   29.7760 H   0  0  0  0  0  0
    9.8741   20.9273   31.3215 H   0  0  0  0  0  0
    8.7797   22.3045   30.9577 H   0  0  0  0  0  0
    6.6388   22.2824   27.1277 H   0  0  0  0  0  0
   10.7846   24.8795   27.9709 H   0  0  0  0  0  0
   12.6833   21.1283   27.7059 H   0  0  0  0  0  0
   10.5269   17.2313   28.0850 H   0  0  0  0  0  0
    6.6440   19.2851   30.3867 H   0  0  0  0  0  0
    6.7868   20.8156   31.3161 H   0  0  0  0  0  0
    7.8812   19.4384   31.6799 H   0  0  0  0  0  0
   10.9197   22.4801   27.3780 H   0  0  0  0  0  0
    5.3432   24.2151   27.5494 H   0  0  0  0  0  0
    6.1337   25.7398   27.0232 H   0  0  0  0  0  0
    6.0455   25.3303   28.7699 H   0  0  0  0  0  0
    8.6950   17.8169   26.6164 H   0  0  0  0  0  0
    9.5502   16.3331   26.0744 H   0  0  0  0  0  0
    9.8228   17.8896   25.2201 H   0  0  0  0  0  0
  1  2  1  0  0  0
  1  4  2  0  0  0
  1 13  1  0  0  0
  2 14  1  0  0  0
  2 15  1  0  0  0
  2 25  1  0  0  0
  3 14  1  0  0  0
  3 26  1  0  0  0
  3 27  1  0  0  0
  3 28  1  0  0  0
  5 13  1  0  0  0
  5 29  1  0  0  0
  6  7  1  0  0  0
  6 15  1  0  0  0
  6 30  1  0  0  0
  6 31  1  0  0  0
  7  8  1  0  0  0
  7 19  1  0  0  0
  7 32  1  0  0  0
  8 33  1  0  0  0
  8 34  1  0  0  0
  8 35  1  0  0  0
  9 10  2  0  0  0
  9 20  1  0  0  0
  9 36  1  0  0  0
 10 11  1  0  0  0
 10 23  1  0  0  0
 11 12  2  0  0  0
 11 22  1  0  0  0
 12 21  1  0  0  0
 12 37  1  0  0  0
 13 38  1  0  0  0
 14 24  1  0  0  0
 14 39  1  0  0  0
 15 16  1  0  0  0
 16 17  2  0  0  0
 16 18  2  0  0  0
 16 20  1  0  0  0
 19 40  1  0  0  0
 19 41  1  0  0  0
 19 42  1  0  0  0
 20 21  2  0  0  0
 21 43  1  0  0  0
 23 44  1  0  0  0
 23 45  1  0  0  0
 23 46  1  0  0  0
 24 47  1  0  0  0
 24 48  1  0  0  0
 24 49  1  0  0  0
M  END
> <s_m_source_file>
../4xm6_ligand.sdf

> <i_m_source_file_index>
1

> <s_epik_input>
W09IXVtOSF1DKD1PKVtDQEBIXShbQ0hdKFtDSDNdKVtDSDNdKU4oW0NIMl1bQ0hdKFtDSDNdKVtDSDNdKVMoPU8pKD1PKWMoW2NIXWMxW0NIM10pW2NIXVtjSF1jMUY=

> <s_epik_cmdline>
J2VwaWtfYXBwJywgJy1pbWFlJywgJ2xpZ2FuZF9wcm8ubWFlJywgJy1vbWFlJywgJ2xpZ2FuZF9wcmVwLm1hZScsICctbXMnLCAnMScsICctcGgnLCAnNycsICctcGh0JywgJzAuNScsICctbnQn

> <r_epik_Ionization_Penalty>
  0.0131

> <r_epik_Ionization_Penalty_Charging>
  0.0000

> <r_epik_Ionization_Penalty_Neutral>
  0.0131

> <r_epik_State_Penalty>
  0.0102

> <r_epik_Charging_Adjusted_Penalty>
0.0101890660839558

> <i_epik_Tot_Q>
0

> <i_epik_Tot_abs_Q>
0

> <s_epik_Chemistry_Notes>
This compound has a N-S or N-O group and may undergo hydrolysis at high or low pH.

$$$$
