4xm7_ligand
                    3D
 Schrodinger Suite 2020-3.
 50 50  0  0  1  0            999 V2000
   11.0250   19.7030   27.5870 C   0  0  2  0  0  0
   11.9110   19.6050   28.7930 C   0  0  0  0  0  0
    5.3540   24.6600   27.8830 C   0  0  0  0  0  0
   13.6490   20.3900   30.0700 O   0  0  0  0  0  0
    9.6610   20.0530   27.9510 N   0  0  3  0  0  0
   12.2960   17.7320   26.6870 C   0  0  0  0  0  0
   10.1260   18.4180   25.6240 C   0  0  0  0  0  0
    8.8370   22.3930   27.3840 C   0  0  0  0  0  0
    7.6840   23.1680   27.4240 C   0  0  0  0  0  0
    7.7670   24.5210   27.7330 C   0  0  0  0  0  0
    8.9970   25.0970   28.0010 C   0  0  0  0  0  0
   10.1510   24.3230   27.9620 C   0  0  0  0  0  0
   10.0720   22.9710   27.6540 C   0  0  0  0  0  0
    6.6310   25.2850   27.7710 O   0  0  0  0  0  0
    8.5270   20.7800   29.8940 C   0  0  0  0  0  0
    9.2450   19.5910   29.2670 C   0  0  0  0  0  0
   10.9170   18.3340   26.9240 C   0  0  0  0  0  0
   12.8770   20.5110   28.9800 N   0  0  0  0  0  0
   11.7780   18.5590   29.7950 O   0  0  0  0  0  0
    8.7420   20.8400   27.0300 S   0  0  0  0  0  0
    7.3900   20.3910   27.2050 O   0  0  0  0  0  0
    9.1420   20.6360   25.6660 O   0  0  0  0  0  0
    9.0750   26.4060   28.2990 F   0  0  0  0  0  0
    7.3110   20.3250   30.6910 C   0  0  0  0  0  0
    9.4760   21.5950   30.7640 C   0  0  0  0  0  0
   11.4399   20.4939   26.9448 H   0  0  0  0  0  0
    4.5689   25.4303   27.8980 H   0  0  0  0  0  0
    5.3122   24.0756   28.8140 H   0  0  0  0  0  0
    5.1961   23.9920   27.0234 H   0  0  0  0  0  0
   14.4537   21.1162   30.2574 H   0  0  0  0  0  0
   12.8436   17.6835   27.6398 H   0  0  0  0  0  0
   12.8528   18.3597   25.9757 H   0  0  0  0  0  0
   12.1875   16.7181   26.2744 H   0  0  0  0  0  0
    9.1368   18.8554   25.8243 H   0  0  0  0  0  0
   10.0025   17.4088   25.2041 H   0  0  0  0  0  0
   10.6678   19.0504   24.9053 H   0  0  0  0  0  0
    6.7151   22.7153   27.2132 H   0  0  0  0  0  0
   11.1189   24.7776   28.1734 H   0  0  0  0  0  0
   10.9770   22.3642   27.6241 H   0  0  0  0  0  0
    8.1737   21.4293   29.0794 H   0  0  0  0  0  0
    8.5760   18.7248   29.1569 H   0  0  0  0  0  0
   10.1308   19.2983   29.8498 H   0  0  0  0  0  0
   10.3719   17.6675   27.6085 H   0  0  0  0  0  0
   13.0485   21.3365   28.2734 H   0  0  0  0  0  0
    6.6441   19.7402   30.0404 H   0  0  0  0  0  0
    6.7723   21.2050   31.0722 H   0  0  0  0  0  0
    7.6387   19.7013   31.5358 H   0  0  0  0  0  0
   10.3432   21.9101   30.1651 H   0  0  0  0  0  0
    9.8182   20.9798   31.6092 H   0  0  0  0  0  0
    8.9517   22.4835   31.1457 H   0  0  0  0  0  0
  1  2  1  0  0  0
  1  5  1  0  0  0
  1 17  1  0  0  0
  1 26  1  0  0  0
  2 18  1  0  0  0
  2 19  2  0  0  0
  3 14  1  0  0  0
  3 27  1  0  0  0
  3 28  1  0  0  0
  3 29  1  0  0  0
  4 18  1  0  0  0
  4 30  1  0  0  0
  5 16  1  0  0  0
  5 20  1  0  0  0
  6 17  1  0  0  0
  6 31  1  0  0  0
  6 32  1  0  0  0
  6 33  1  0  0  0
  7 17  1  0  0  0
  7 34  1  0  0  0
  7 35  1  0  0  0
  7 36  1  0  0  0
  8  9  2  0  0  0
  8 13  1  0  0  0
  8 20  1  0  0  0
  9 10  1  0  0  0
  9 37  1  0  0  0
 10 11  2  0  0  0
 10 14  1  0  0  0
 11 12  1  0  0  0
 11 23  1  0  0  0
 12 13  2  0  0  0
 12 38  1  0  0  0
 13 39  1  0  0  0
 15 16  1  0  0  0
 15 24  1  0  0  0
 15 25  1  0  0  0
 15 40  1  0  0  0
 16 41  1  0  0  0
 16 42  1  0  0  0
 17 43  1  0  0  0
 18 44  1  0  0  0
 20 21  2  0  0  0
 20 22  2  0  0  0
 24 45  1  0  0  0
 24 46  1  0  0  0
 24 47  1  0  0  0
 25 48  1  0  0  0
 25 49  1  0  0  0
 25 50  1  0  0  0
M  END
> <s_m_source_file>
../4xm7_ligand.sdf

> <i_m_source_file_index>
1

> <s_epik_input>
W09IXVtOSF1DKD1PKVtDQEBIXShbQ0hdKFtDSDNdKVtDSDNdKU4oW0NIMl1bQ0hdKFtDSDNdKVtDSDNdKVMoPU8pKD1PKWMxW2NIXWMoT1tDSDNdKWMoRilbY0hdW2NIXTE=

> <s_epik_cmdline>
J2VwaWtfYXBwJywgJy1pbWFlJywgJ2xpZ2FuZF9wcm8ubWFlJywgJy1vbWFlJywgJ2xpZ2FuZF9wcmVwLm1hZScsICctbXMnLCAnMScsICctcGgnLCAnNycsICctcGh0JywgJzAuNScsICctbnQn

> <r_lp_tautomer_probability>
1

> <r_epik_Ionization_Penalty>
  0.0131

> <r_epik_Ionization_Penalty_Charging>
  0.0000

> <r_epik_Ionization_Penalty_Neutral>
  0.0131

> <r_epik_State_Penalty>
  0.0102

> <r_epik_Charging_Adjusted_Penalty>
0.0101890660839558

> <i_epik_Tot_Q>
0

> <i_epik_Tot_abs_Q>
0

> <s_epik_Chemistry_Notes>
This compound has a N-S or N-O group and may undergo hydrolysis at high or low pH.

$$$$
