4xm8_ligand
                    3D
 Schrodinger Suite 2020-3.
 53 53  0  0  1  0            999 V2000
   11.0890   19.1830   27.4260 C   0  0  2  0  0  0
   11.9960   19.2410   28.6280 C   0  0  0  0  0  0
   13.8480   20.2620   29.7040 O   0  0  0  0  0  0
    9.6840   19.5490   27.6710 N   0  0  3  0  0  0
    9.0700   18.9590   28.8660 C   0  0  0  0  0  0
    8.3190   20.0310   29.6580 C   0  0  0  0  0  0
    9.2740   21.0090   30.3280 C   0  0  0  0  0  0
    7.3720   19.4220   30.6870 C   0  0  0  0  0  0
    8.7690   21.9670   27.0900 C   0  0  0  0  0  0
    7.4920   22.5120   27.1490 C   0  0  0  0  0  0
    7.3120   23.8460   27.4880 C   0  0  0  0  0  0
    9.8770   22.7600   27.3640 C   0  0  0  0  0  0
    5.9110   24.4130   27.5430 C   0  0  0  0  0  0
    4.4800   26.0720   26.6770 C   0  0  0  0  0  0
   12.5540   17.3520   26.5240 C   0  0  0  0  0  0
   11.9210   18.2160   29.6780 O   0  0  0  0  0  0
   12.9200   20.2400   28.7170 N   0  0  0  0  0  0
    8.9170   20.4320   26.6850 S   0  0  0  0  0  0
    7.5970   19.8970   26.5110 O   0  0  0  0  0  0
    9.5890   20.4010   25.4180 O   0  0  0  0  0  0
    8.4190   24.6410   27.7600 C   0  0  0  0  0  0
    9.7000   24.0990   27.7010 C   0  0  0  0  0  0
    5.8360   25.6820   26.8990 O   0  0  0  0  0  0
   11.1360   17.7260   26.9480 C   0  0  0  0  0  0
   10.1450   17.3530   25.8470 C   0  0  0  0  0  0
   11.4228   19.9475   26.7089 H   0  0  0  0  0  0
   14.5814   21.0805   29.7512 H   0  0  0  0  0  0
    8.3627   18.1724   28.5644 H   0  0  0  0  0  0
    9.8533   18.5229   29.5034 H   0  0  0  0  0  0
    7.7122   20.5931   28.9328 H   0  0  0  0  0  0
    9.9488   21.4382   29.5727 H   0  0  0  0  0  0
    9.8655   20.4802   31.0899 H   0  0  0  0  0  0
    8.6978   21.8152   30.8055 H   0  0  0  0  0  0
    6.6899   18.7189   30.1866 H   0  0  0  0  0  0
    6.7878   20.2215   31.1660 H   0  0  0  0  0  0
    7.9554   18.8865   31.4504 H   0  0  0  0  0  0
    6.6262   21.8880   26.9277 H   0  0  0  0  0  0
   10.8798   22.3355   27.3152 H   0  0  0  0  0  0
    5.2169   23.7248   27.0384 H   0  0  0  0  0  0
    5.6064   24.5366   28.5927 H   0  0  0  0  0  0
    4.4573   27.0530   26.1798 H   0  0  0  0  0  0
    3.9547   26.1374   27.6413 H   0  0  0  0  0  0
    3.9837   25.3260   26.0390 H   0  0  0  0  0  0
   13.2594   17.6244   27.3229 H   0  0  0  0  0  0
   12.8161   17.8934   25.6030 H   0  0  0  0  0  0
   12.6082   16.2687   26.3406 H   0  0  0  0  0  0
   12.9000   21.0406   27.9629 H   0  0  0  0  0  0
    8.2840   25.6909   28.0200 H   0  0  0  0  0  0
   10.5658   24.7242   27.9191 H   0  0  0  0  0  0
   10.8195   17.1347   27.8199 H   0  0  0  0  0  0
    9.1271   17.6263   26.1619 H   0  0  0  0  0  0
   10.1932   16.2698   25.6619 H   0  0  0  0  0  0
   10.4011   17.8944   24.9243 H   0  0  0  0  0  0
  1  2  1  0  0  0
  1  4  1  0  0  0
  1 24  1  0  0  0
  1 26  1  0  0  0
  2 16  2  0  0  0
  2 17  1  0  0  0
  3 17  1  0  0  0
  3 27  1  0  0  0
  4  5  1  0  0  0
  4 18  1  0  0  0
  5  6  1  0  0  0
  5 28  1  0  0  0
  5 29  1  0  0  0
  6  7  1  0  0  0
  6  8  1  0  0  0
  6 30  1  0  0  0
  7 31  1  0  0  0
  7 32  1  0  0  0
  7 33  1  0  0  0
  8 34  1  0  0  0
  8 35  1  0  0  0
  8 36  1  0  0  0
  9 10  2  0  0  0
  9 12  1  0  0  0
  9 18  1  0  0  0
 10 11  1  0  0  0
 10 37  1  0  0  0
 11 13  1  0  0  0
 11 21  2  0  0  0
 12 22  2  0  0  0
 12 38  1  0  0  0
 13 23  1  0  0  0
 13 39  1  0  0  0
 13 40  1  0  0  0
 14 23  1  0  0  0
 14 41  1  0  0  0
 14 42  1  0  0  0
 14 43  1  0  0  0
 15 24  1  0  0  0
 15 44  1  0  0  0
 15 45  1  0  0  0
 15 46  1  0  0  0
 17 47  1  0  0  0
 18 19  2  0  0  0
 18 20  2  0  0  0
 21 22  1  0  0  0
 21 48  1  0  0  0
 22 49  1  0  0  0
 24 25  1  0  0  0
 24 50  1  0  0  0
 25 51  1  0  0  0
 25 52  1  0  0  0
 25 53  1  0  0  0
M  END
> <s_m_source_file>
../4xm8_ligand.sdf

> <i_m_source_file_index>
1

> <s_epik_input>
W09IXVtOSF1DKD1PKVtDQEBIXShbQ0hdKFtDSDNdKVtDSDNdKU4oW0NIMl1bQ0hdKFtDSDNdKVtDSDNdKVMoPU8pKD1PKWMxW2NIXWMoW0NIMl1PW0NIM10pW2NIXVtjSF1bY0hdMQ==

> <s_epik_cmdline>
J2VwaWtfYXBwJywgJy1pbWFlJywgJ2xpZ2FuZF9wcm8ubWFlJywgJy1vbWFlJywgJ2xpZ2FuZF9wcmVwLm1hZScsICctbXMnLCAnMScsICctcGgnLCAnNycsICctcGh0JywgJzAuNScsICctbnQn

> <r_epik_Ionization_Penalty>
  0.0129

> <r_epik_Ionization_Penalty_Charging>
  0.0000

> <r_epik_Ionization_Penalty_Neutral>
  0.0129

> <r_epik_State_Penalty>
  0.0100

> <r_epik_Charging_Adjusted_Penalty>
0.0100222640512262

> <i_epik_Tot_Q>
0

> <i_epik_Tot_abs_Q>
0

> <s_epik_Chemistry_Notes>
This compound has a N-S or N-O group and may undergo hydrolysis at high or low pH.

$$$$
