4xmb_ligand
                    3D
 Schrodinger Suite 2020-3.
 70 73  0  0  1  0            999 V2000
    2.8590   -2.9350  -21.5040 C   0  0  0  0  0  0
    1.6970   -3.6440  -20.7610 C   0  0  0  0  0  0
    5.0630   -1.7830  -29.8170 C   0  0  0  0  0  0
    5.5550   -1.6680  -28.5060 O   0  0  0  0  0  0
    4.6500   -1.6960  -27.3920 C   0  0  0  0  0  0
    4.2360   -2.9870  -26.8220 C   0  0  0  0  0  0
    3.3270   -3.0240  -25.7020 C   0  0  0  0  0  0
    4.1780   -0.5390  -26.8590 C   0  0  0  0  0  0
    3.2580   -0.5800  -25.7200 C   0  0  0  0  0  0
    2.8490   -1.8560  -25.1670 C   0  0  0  0  0  0
    1.7090   -1.9220  -23.7470 S   0  0  0  0  0  0
    2.5700   -1.7970  -22.3590 N   0  0  0  0  0  0
    1.9920   -4.7670  -19.9010 N   0  0  0  0  0  0
    0.6170   -3.2750  -20.8890 O   0  0  0  0  0  0
    3.1260   -0.4860  -21.9840 C   0  0  0  0  0  0
    4.4340   -0.2000  -22.3890 C   0  0  0  0  0  0
    5.0320    1.0660  -22.0520 C   0  0  0  0  0  0
    4.3220    1.9770  -21.3260 C   0  0  0  0  0  0
    4.9470    3.2360  -21.0390 N   0  0  0  0  0  0
    5.9070    3.4150  -19.9470 C   0  0  0  0  0  0
    5.6460    2.8340  -18.6440 C   0  0  0  0  0  0
    5.3590    3.7210  -17.5020 N   0  0  0  0  0  0
    5.6720    1.6710  -18.4990 O   0  0  0  0  0  0
    4.5880    4.4460  -22.0780 S   0  0  0  0  0  0
    5.5490    4.0970  -23.5700 C   0  0  0  0  0  0
    6.7860    4.6410  -23.7190 C   0  0  0  0  0  0
    7.5270    4.3660  -24.8520 C   0  0  0  0  0  0
    7.0120    3.5230  -25.8410 C   0  0  0  0  0  0
    7.7510    3.2640  -26.9470 O   0  0  0  0  0  0
    8.9620    2.5400  -26.8120 C   0  0  0  0  0  0
    5.7730    2.9660  -25.6920 C   0  0  0  0  0  0
    5.0290    3.2360  -24.5620 C   0  0  0  0  0  0
    4.8630    5.7230  -21.5270 O   0  0  0  0  0  0
    3.1750    4.5460  -22.3780 O   0  0  0  0  0  0
    2.9740    1.6950  -20.9190 C   0  0  0  0  0  0
    2.3890    0.4520  -21.2490 C   0  0  0  0  0  0
    1.0770    0.1660  -20.8410 C   0  0  0  0  0  0
    0.3420    1.1140  -20.1070 C   0  0  0  0  0  0
    0.9360    2.3820  -19.7690 C   0  0  0  0  0  0
    2.2220    2.6650  -20.1660 C   0  0  0  0  0  0
    0.8940   -3.1520  -23.7770 O   0  0  0  0  0  0
    0.6920   -0.9100  -23.8510 O   0  0  0  0  0  0
    3.5808   -2.5470  -20.7702 H   0  0  0  0  0  0
    3.3617   -3.6532  -22.1684 H   0  0  0  0  0  0
    5.9011   -1.7404  -30.5282 H   0  0  0  0  0  0
    4.3665   -0.9564  -30.0211 H   0  0  0  0  0  0
    4.5362   -2.7422  -29.9281 H   0  0  0  0  0  0
    4.6161   -3.9165  -27.2459 H   0  0  0  0  0  0
    3.0202   -3.9815  -25.2810 H   0  0  0  0  0  0
    4.4838    0.4193  -27.2787 H   0  0  0  0  0  0
    2.8815    0.3476  -25.2889 H   0  0  0  0  0  0
    3.0296   -5.1131  -19.7848 H   0  0  0  0  0  0
    1.1789   -5.2758  -19.3625 H   0  0  0  0  0  0
    5.0008   -0.9356  -22.9598 H   0  0  0  0  0  0
    6.0473    1.2953  -22.3755 H   0  0  0  0  0  0
    6.8772    2.9859  -20.2377 H   0  0  0  0  0  0
    6.0286    4.4881  -19.7379 H   0  0  0  0  0  0
    5.3361    4.8115  -17.6447 H   0  0  0  0  0  0
    5.1678    3.2924  -16.5071 H   0  0  0  0  0  0
    7.1924    5.2930  -22.9458 H   0  0  0  0  0  0
    8.5159    4.8076  -24.9751 H   0  0  0  0  0  0
    9.4298    2.4204  -27.8004 H   0  0  0  0  0  0
    8.7509    1.5490  -26.3839 H   0  0  0  0  0  0
    9.6451    3.0888  -26.1470 H   0  0  0  0  0  0
    5.3732    2.3094  -26.4648 H   0  0  0  0  0  0
    4.0440    2.7868  -24.4351 H   0  0  0  0  0  0
    0.6264   -0.7938  -21.0938 H   0  0  0  0  0  0
   -0.6775    0.8892  -19.7937 H   0  0  0  0  0  0
    0.3668    3.1165  -19.1992 H   0  0  0  0  0  0
    2.6723    3.6242  -19.9105 H   0  0  0  0  0  0
  1  2  1  0  0  0
  1 12  1  0  0  0
  1 43  1  0  0  0
  1 44  1  0  0  0
  2 13  1  0  0  0
  2 14  2  0  0  0
  3  4  1  0  0  0
  3 45  1  0  0  0
  3 46  1  0  0  0
  3 47  1  0  0  0
  4  5  1  0  0  0
  5  6  2  0  0  0
  5  8  1  0  0  0
  6  7  1  0  0  0
  6 48  1  0  0  0
  7 10  2  0  0  0
  7 49  1  0  0  0
  8  9  2  0  0  0
  8 50  1  0  0  0
  9 10  1  0  0  0
  9 51  1  0  0  0
 10 11  1  0  0  0
 11 12  1  0  0  0
 11 41  2  0  0  0
 11 42  2  0  0  0
 12 15  1  0  0  0
 13 52  1  0  0  0
 13 53  1  0  0  0
 15 16  2  0  0  0
 15 36  1  0  0  0
 16 17  1  0  0  0
 16 54  1  0  0  0
 17 18  2  0  0  0
 17 55  1  0  0  0
 18 19  1  0  0  0
 18 35  1  0  0  0
 19 20  1  0  0  0
 19 24  1  0  0  0
 20 21  1  0  0  0
 20 56  1  0  0  0
 20 57  1  0  0  0
 21 22  1  0  0  0
 21 23  2  0  0  0
 22 58  1  0  0  0
 22 59  1  0  0  0
 24 25  1  0  0  0
 24 33  2  0  0  0
 24 34  2  0  0  0
 25 26  2  0  0  0
 25 32  1  0  0  0
 26 27  1  0  0  0
 26 60  1  0  0  0
 27 28  2  0  0  0
 27 61  1  0  0  0
 28 29  1  0  0  0
 28 31  1  0  0  0
 29 30  1  0  0  0
 30 62  1  0  0  0
 30 63  1  0  0  0
 30 64  1  0  0  0
 31 32  2  0  0  0
 31 65  1  0  0  0
 32 66  1  0  0  0
 35 36  2  0  0  0
 35 40  1  0  0  0
 36 37  1  0  0  0
 37 38  2  0  0  0
 37 67  1  0  0  0
 38 39  1  0  0  0
 38 68  1  0  0  0
 39 40  2  0  0  0
 39 69  1  0  0  0
 40 70  1  0  0  0
M  END
> <s_m_source_file>
../4xmb_ligand.sdf

> <i_m_source_file_index>
1

> <s_epik_input>
W0NIM11PYzFbY0hdW2NIXWMoW2NIXVtjSF0xKVMoPU8pKD1PKU4oW0NIMl1DKD1PKVtOSDJdKWMoYyhjMjMpW2NIXVtjSF1bY0hdW2NIXTMpW2NIXVtjSF1jMk4oW0NIMl1DKD1PKVtOSDJdKVMoPU8pKD1PKWM0W2NIXVtjSF1jKE9bQ0gzXSlbY0hdW2NIXTQ=

> <s_epik_cmdline>
J2VwaWtfYXBwJywgJy1pbWFlJywgJ2xpZ2FuZF9wcm8ubWFlJywgJy1vbWFlJywgJ2xpZ2FuZF9wcmVwLm1hZScsICctbXMnLCAnMScsICctcGgnLCAnNycsICctcGh0JywgJzAuNScsICctbnQn

> <r_lp_tautomer_probability>
1

> <r_epik_Ionization_Penalty>
  0.0000

> <r_epik_Ionization_Penalty_Charging>
  0.0000

> <r_epik_Ionization_Penalty_Neutral>
  0.0000

> <r_epik_State_Penalty>
 -0.0000

> <r_epik_Charging_Adjusted_Penalty>
0

> <i_epik_Tot_Q>
0

> <i_epik_Tot_abs_Q>
0

$$$$
