4xmo_ligand
                    3D
 Schrodinger Suite 2020-3.
 48 52  0  0  1  0            999 V2000
   28.2660   32.0700   60.4490 C   0  0  0  0  0  0
   27.0260   31.8420   59.6040 C   0  0  0  0  0  0
   26.2650   30.7420   59.6180 C   0  0  0  0  0  0
   26.5630   32.7450   58.7550 N   0  0  0  0  0  0
   25.4180   32.1930   58.1870 O   0  0  0  0  0  0
   25.2570   30.9680   58.7640 C   0  0  0  0  0  0
   24.2370   30.1360   58.3300 C   0  0  0  0  0  0
   24.1480   28.8190   58.7730 C   0  0  0  0  0  0
   23.1630   27.9680   58.2880 C   0  0  0  0  0  0
   23.0760   26.7020   58.7280 F   0  0  0  0  0  0
   23.3490   30.5980   57.3500 C   0  0  0  0  0  0
   22.3660   29.7250   56.8800 N   0  0  0  0  0  0
   22.2660   28.4160   57.3240 C   0  0  0  0  0  0
   21.2430   27.8560   56.6830 N   0  0  0  0  0  0
   20.7070   28.6720   55.8940 N   0  0  0  0  0  0
   21.3450   29.8320   55.9660 C   0  0  0  0  0  0
   21.0470   31.1090   55.2020 C   0  0  2  0  0  0
   20.2060   30.7610   53.9500 C   0  0  0  0  0  0
   22.2070   31.6750   54.9090 F   0  0  0  0  0  0
   20.2560   32.0380   56.1450 C   0  0  0  0  0  0
   20.8140   33.2190   56.6260 C   0  0  0  0  0  0
   20.0710   34.0410   57.4860 C   0  0  0  0  0  0
   20.5990   35.2330   57.9820 C   0  0  0  0  0  0
   19.8000   36.0040   58.8410 C   0  0  0  0  0  0
   20.1890   37.1910   59.3960 O   0  0  0  0  0  0
   21.6070   37.3390   59.6110 C   0  0  0  0  0  0
   18.5220   35.5620   59.1520 C   0  0  0  0  0  0
   18.0360   34.4350   58.6660 N   0  0  0  0  0  0
   18.7700   33.6680   57.8450 C   0  0  0  0  0  0
   18.2200   32.4860   57.3740 C   0  0  0  0  0  0
   18.9580   31.6720   56.5200 C   0  0  0  0  0  0
   28.4524   31.1836   61.0731 H   0  0  0  0  0  0
   28.1135   32.9475   61.0945 H   0  0  0  0  0  0
   29.1307   32.2441   59.7917 H   0  0  0  0  0  0
   26.4317   29.8403   60.2073 H   0  0  0  0  0  0
   24.8611   28.4507   59.5105 H   0  0  0  0  0  0
   23.4237   31.6145   56.9637 H   0  0  0  0  0  0
   20.7865   30.0987   53.2909 H   0  0  0  0  0  0
   19.9525   31.6852   53.4101 H   0  0  0  0  0  0
   19.2814   30.2517   54.2594 H   0  0  0  0  0  0
   21.8251   33.5041   56.3353 H   0  0  0  0  0  0
   21.6037   35.5567   57.7103 H   0  0  0  0  0  0
   21.8092   38.3233   60.0584 H   0  0  0  0  0  0
   22.1341   37.2583   58.6489 H   0  0  0  0  0  0
   21.9594   36.5483   60.2897 H   0  0  0  0  0  0
   17.9014   36.1628   59.8169 H   0  0  0  0  0  0
   17.2126   32.1950   57.6716 H   0  0  0  0  0  0
   18.5239   30.7464   56.1419 H   0  0  0  0  0  0
  1  2  1  0  0  0
  1 32  1  0  0  0
  1 33  1  0  0  0
  1 34  1  0  0  0
  2  3  1  0  0  0
  2  4  2  0  0  0
  3  6  2  0  0  0
  3 35  1  0  0  0
  4  5  1  0  0  0
  5  6  1  0  0  0
  6  7  1  0  0  0
  7  8  1  0  0  0
  7 11  2  0  0  0
  8  9  2  0  0  0
  8 36  1  0  0  0
  9 10  1  0  0  0
  9 13  1  0  0  0
 11 12  1  0  0  0
 11 37  1  0  0  0
 12 13  1  0  0  0
 12 16  1  0  0  0
 13 14  2  0  0  0
 14 15  1  0  0  0
 15 16  2  0  0  0
 16 17  1  0  0  0
 17 18  1  0  0  0
 17 19  1  0  0  0
 17 20  1  0  0  0
 18 38  1  0  0  0
 18 39  1  0  0  0
 18 40  1  0  0  0
 20 21  2  0  0  0
 20 31  1  0  0  0
 21 22  1  0  0  0
 21 41  1  0  0  0
 22 23  2  0  0  0
 22 29  1  0  0  0
 23 24  1  0  0  0
 23 42  1  0  0  0
 24 25  1  0  0  0
 24 27  2  0  0  0
 25 26  1  0  0  0
 26 43  1  0  0  0
 26 44  1  0  0  0
 26 45  1  0  0  0
 27 28  1  0  0  0
 27 46  1  0  0  0
 28 29  2  0  0  0
 29 30  1  0  0  0
 30 31  2  0  0  0
 30 47  1  0  0  0
 31 48  1  0  0  0
M  END
> <s_m_source_file>
../4xmo_ligand.sdf

> <i_m_source_file_index>
1

> <s_epik_input>
W0NIM11jMVtjSF1jKG9uMSktYyhbY0hdMilbY0hdYyhGKWMobjIzKW5uYzNbQ0BAXShGKShbQ0gzXSljKFtjSF00KVtjSF1bY0hdYyhjNDUpbltjSF1jKFtjSF01KU9bQ0gzXQ==

> <s_epik_cmdline>
J2VwaWtfYXBwJywgJy1pbWFlJywgJ2xpZ2FuZF9wcm8ubWFlJywgJy1vbWFlJywgJ2xpZ2FuZF9wcmVwLm1hZScsICctbXMnLCAnMScsICctcGgnLCAnNycsICctcGh0JywgJzAuNScsICctbnQn

> <r_lp_tautomer_probability>
1

> <r_epik_Ionization_Penalty>
  0.0009

> <r_epik_Ionization_Penalty_Charging>
  0.0000

> <r_epik_Ionization_Penalty_Neutral>
  0.0009

> <r_epik_State_Penalty>
 -0.0000

> <r_epik_Charging_Adjusted_Penalty>
0

> <i_epik_Tot_Q>
0

> <i_epik_Tot_abs_Q>
0

$$$$
